
#######################################################################
#
#                 Cambridge Crystallographic Data Centre
#                                CCDC 
#
#######################################################################
#
# If this CIF has been generated from an entry in the Cambridge 
# Structural Database, then it will include bibliographic, chemical, 
# crystal, experimental, refinement or atomic coordinate data resulting 
# from the CCDC's data processing and validation procedures.
#
#######################################################################

data_NELJEW
_chemical_formula_moiety         'C81 H106 N6 S4 Si2,2.5(C7 H8)'
_chemical_name_systematic        
'2-{1,3-bis[2,6-di-isopropylphenyl]imidazol-2-ylidene}-3-({1,3-bis[2,6-di-isopropylphenyl]-2-sulfanylidene-2,3-dihydro-1H-imidazol-4-yl}sulfanyl)-4,6-bis[2,6-di-isopropylphenyl]-2,3,4,6-tetrahydro-5H-[1,2,3]thiadisilolo[4,5-d]imidazole-5-thione toluene solvate'
_symmetry_cell_setting           monoclinic
_symmetry_space_group_name_H-M   'C 2/c'
_symmetry_Int_Tables_number      15
_space_group_name_Hall           '-C 2yn'
loop_
_symmetry_equiv_pos_site_id
_symmetry_equiv_pos_as_xyz
1 x,y,z
2 -x,y,1/2-z
3 1/2+x,1/2+y,z
4 1/2-x,1/2+y,1/2-z
5 -x,-y,-z
6 x,-y,1/2+z
7 1/2-x,1/2-y,-z
8 1/2+x,1/2-y,1/2+z
_cell_length_a                   54.583(4)
_cell_length_b                   14.5630(12)
_cell_length_c                   25.285(2)
_cell_angle_alpha                90
_cell_angle_beta                 110.778(2)
_cell_angle_gamma                90
_cell_volume                     18791.7
_exptl_crystal_colour            yellow
_exptl_crystal_description       plate
_cell_formula_units_Z            8
loop_
_atom_site_label
_atom_site_type_symbol
_atom_site_fract_x
_atom_site_fract_y
_atom_site_fract_z
Si1 Si 0.61726(3) 0.49666(11) 0.78393(6)
H1 H 0.6197(11) 0.4008(16) 0.773(2)
Si2 Si 0.64361(3) 0.58903(11) 0.74963(7)
S1 S 0.57701(3) 0.51547(13) 0.52170(6)
S2 S 0.57675(3) 0.53715(11) 0.73785(6)
S3 S 0.68535(3) 1.04248(11) 0.81746(8)
S4 S 0.63110(3) 0.72066(10) 0.78035(6)
N1 N 0.64538(9) 0.4585(3) 0.89990(18)
N2 N 0.60626(9) 0.4975(3) 0.8916(2)
N3 N 0.57250(8) 0.5273(3) 0.62529(18)
N4 N 0.61155(8) 0.5602(3) 0.62738(18)
N5 N 0.65629(8) 0.8858(3) 0.80128(19)
N6 N 0.68753(9) 0.8787(3) 0.76709(19)
C1 C 0.62210(11) 0.4846(4) 0.8622(2)
C2 C 0.64409(11) 0.4550(4) 0.9531(2)
H2 H 0.6579 0.4386 0.9871
C3 C 0.61986(12) 0.4792(4) 0.9481(2)
H3 H 0.6131 0.4831 0.9779
C4 C 0.57801(11) 0.5137(4) 0.8675(2)
C5 C 0.56157(12) 0.4365(4) 0.8558(2)
C6 C 0.53499(13) 0.4537(5) 0.8322(3)
H4 H 0.5230 0.4037 0.8233
C7 C 0.52539(13) 0.5436(5) 0.8210(3)
H5 H 0.5070 0.5536 0.8040
C8 C 0.54191(13) 0.6167(5) 0.8343(3)
H6 H 0.5349 0.6771 0.8274
C9 C 0.56926(11) 0.6045(5) 0.8580(2)
C10 C 0.58755(13) 0.6855(4) 0.8742(3)
H7 H 0.6048 0.6648 0.8730
C11 C 0.57847(14) 0.7648(5) 0.8335(3)
H8 H 0.5910 0.8155 0.8459
H9 H 0.5772 0.7450 0.7956
H10 H 0.5612 0.7855 0.8324
C12 C 0.59188(18) 0.7128(6) 0.9346(3)
H11 H 0.6038 0.7655 0.9453
H12 H 0.5751 0.7294 0.9379
H13 H 0.5996 0.6611 0.9599
C13 C 0.57151(13) 0.3401(4) 0.8677(3)
H14 H 0.5906 0.3431 0.8909
C14 C 0.55801(14) 0.2866(5) 0.9013(3)
H15 H 0.5651 0.2241 0.9080
H16 H 0.5611 0.3172 0.9376
H17 H 0.5391 0.2839 0.8798
C15 C 0.56862(15) 0.2902(5) 0.8129(3)
H18 H 0.5752 0.2273 0.8215
H19 H 0.5501 0.2886 0.7886
H20 H 0.5787 0.3225 0.7934
C16 C 0.66742(11) 0.4264(4) 0.8854(2)
C17 C 0.68862(11) 0.4841(4) 0.8936(2)
C18 C 0.70939(11) 0.4497(4) 0.8798(3)
H21 H 0.7242 0.4876 0.8844
C19 C 0.70883(12) 0.3624(5) 0.8597(3)
H22 H 0.7233 0.3399 0.8510
C20 C 0.68741(12) 0.3065(4) 0.8520(3)
H23 H 0.6873 0.2463 0.8375
C21 C 0.66613(11) 0.3359(4) 0.8649(2)
C22 C 0.64395(12) 0.2708(4) 0.8611(3)
H24 H 0.6290 0.3085 0.8632
C23 C 0.65236(14) 0.2069(5) 0.9116(3)
H25 H 0.6380 0.1649 0.9091
H26 H 0.6677 0.1715 0.9119
H27 H 0.6569 0.2430 0.9465
C24 C 0.63406(13) 0.2158(5) 0.8067(3)
H28 H 0.6287 0.2578 0.7743
H29 H 0.6481 0.1757 0.8044
H30 H 0.6191 0.1783 0.8061
C25 C 0.68982(11) 0.5807(4) 0.9184(2)
H31 H 0.6715 0.6003 0.9123
C26 C 0.70167(13) 0.6513(4) 0.8901(3)
H32 H 0.6918 0.6517 0.8493
H33 H 0.7008 0.7123 0.9058
H34 H 0.7200 0.6354 0.8970
C27 C 0.70470(14) 0.5790(5) 0.9813(3)
H35 H 0.6969 0.5333 0.9990
H36 H 0.7230 0.5628 0.9885
H37 H 0.7039 0.6397 0.9973
C28 C 0.58725(10) 0.5346(4) 0.5913(2)
C29 C 0.58808(11) 0.5473(4) 0.6807(2)
C30 C 0.61268(10) 0.5696(4) 0.6827(2)
C31 C 0.63451(11) 0.5662(4) 0.6118(2)
C32 C 0.65184(11) 0.4913(5) 0.6258(2)
C33 C 0.67566(12) 0.5045(5) 0.6161(3)
H38 H 0.6881 0.4559 0.6241
C34 C 0.68103(12) 0.5851(5) 0.5956(3)
H39 H 0.6974 0.5925 0.5910
C35 C 0.66343(12) 0.6560(5) 0.5815(3)
H40 H 0.6678 0.7114 0.5670
C36 C 0.63910(11) 0.6482(4) 0.5881(2)
C37 C 0.61864(12) 0.7247(5) 0.5703(3)
H41 H 0.6010 0.6949 0.5590
C38 C 0.62124(14) 0.7888(5) 0.6204(3)
H42 H 0.6207 0.7523 0.6525
H43 H 0.6379 0.8219 0.6312
H44 H 0.6067 0.8329 0.6093
C39 C 0.61940(15) 0.7787(5) 0.5194(3)
H45 H 0.6059 0.8267 0.5099
H46 H 0.6367 0.8071 0.5285
H47 H 0.6161 0.7372 0.4871
C40 C 0.64513(12) 0.4023(5) 0.6464(3)
H48 H 0.6312 0.4153 0.6625
C41 C 0.63365(14) 0.3355(5) 0.5982(3)
H49 H 0.6294 0.2777 0.6129
H50 H 0.6177 0.3616 0.5706
H51 H 0.6464 0.3238 0.5798
C42 C 0.66810(13) 0.3579(5) 0.6935(3)
H52 H 0.6623 0.2999 0.7049
H53 H 0.6824 0.3460 0.6795
H54 H 0.6742 0.3995 0.7260
C43 C 0.54498(10) 0.5042(4) 0.6051(2)
C44 C 0.53809(12) 0.4117(5) 0.5959(2)
C45 C 0.51152(12) 0.3918(5) 0.5751(3)
H55 H 0.5060 0.3297 0.5685
C46 C 0.49318(12) 0.4601(5) 0.5640(3)
H56 H 0.4751 0.4448 0.5490
C47 C 0.50049(11) 0.5500(5) 0.5742(3)
H57 H 0.4874 0.5963 0.5662
C48 C 0.52723(11) 0.5749(5) 0.5963(2)
C49 C 0.53555(12) 0.6741(5) 0.6087(3)
H58 H 0.5549 0.6744 0.6299
C50 C 0.52260(16) 0.7210(6) 0.6463(4)
H59 H 0.5260 0.6849 0.6809
H60 H 0.5299 0.7828 0.6563
H61 H 0.5037 0.7253 0.6259
C51 C 0.53061(18) 0.7285(6) 0.5554(3)
H62 H 0.5362 0.7921 0.5651
H63 H 0.5405 0.7015 0.5336
H64 H 0.5119 0.7272 0.5327
C52 C 0.55807(14) 0.3363(5) 0.6076(3)
H65 H 0.5755 0.3663 0.6160
C53 C 0.55383(17) 0.2723(6) 0.5571(4)
H66 H 0.5530 0.3086 0.5239
H67 H 0.5684 0.2287 0.5660
H68 H 0.5374 0.2386 0.5491
C54 C 0.5594(2) 0.2833(7) 0.6584(4)
H69 H 0.5726 0.2346 0.6650
H70 H 0.5643 0.3242 0.6912
H71 H 0.5423 0.2558 0.6526
C55 C 0.67604(11) 0.9357(4) 0.7944(2)
C56 C 0.65521(11) 0.7979(4) 0.7776(2)
C57 C 0.67462(10) 0.7954(4) 0.7564(2)
H72 H 0.6787 0.7448 0.7374
C58 C 0.71002(11) 0.9048(4) 0.7529(2)
C59 C 0.70593(12) 0.9630(4) 0.7061(3)
C60 C 0.72827(12) 0.9892(4) 0.6948(3)
H73 H 0.7263 1.0281 0.6634
C61 C 0.75285(13) 0.9606(4) 0.7275(3)
H74 H 0.7677 0.9807 0.7192
C62 C 0.75603(12) 0.9018(4) 0.7729(3)
H75 H 0.7731 0.8811 0.7951
C63 C 0.73456(11) 0.8726(4) 0.7866(2)
C64 C 0.73847(11) 0.8127(4) 0.8381(3)
H76 H 0.7222 0.7755 0.8302
C65 C 0.74165(14) 0.8711(5) 0.8897(3)
H77 H 0.7441 0.8311 0.9224
H78 H 0.7569 0.9112 0.8974
H79 H 0.7259 0.9087 0.8828
C66 C 0.76110(14) 0.7461(5) 0.8513(3)
H80 H 0.7590 0.7084 0.8179
H81 H 0.7776 0.7804 0.8618
H82 H 0.7614 0.7064 0.8828
C67 C 0.67916(13) 0.9965(4) 0.6684(3)
H83 H 0.6659 0.9717 0.6837
C68 C 0.67742(15) 1.1010(5) 0.6683(3)
H84 H 0.6599 1.1203 0.6436
H85 H 0.6807 1.1229 0.7069
H86 H 0.6906 1.1270 0.6544
C69 C 0.67260(14) 0.9588(5) 0.6082(3)
H87 H 0.6553 0.9807 0.5841
H88 H 0.6858 0.9800 0.5928
H89 H 0.6726 0.8915 0.6092
C70 C 0.63767(11) 0.9239(4) 0.8238(3)
C71 C 0.64370(12) 0.9287(4) 0.8809(3)
C72 C 0.62551(13) 0.9692(4) 0.9016(3)
H90 H 0.6292 0.9723 0.9412
C73 C 0.60226(13) 1.0045(4) 0.8642(3)
H91 H 0.5902 1.0331 0.8783
C74 C 0.59655(13) 0.9985(4) 0.8071(3)
H92 H 0.5804 1.0226 0.7822
C75 C 0.61374(12) 0.9579(4) 0.7845(3)
C76 C 0.60676(12) 0.9518(5) 0.7211(3)
H93 H 0.6199 0.9103 0.7141
C77 C 0.60897(17) 1.0444(5) 0.6962(3)
H94 H 0.6043 1.0384 0.6552
H95 H 0.5970 1.0878 0.7041
H96 H 0.6270 1.0669 0.7131
C78 C 0.57969(13) 0.9086(6) 0.6920(3)
H97 H 0.5759 0.9058 0.6511
H98 H 0.5795 0.8464 0.7066
H99 H 0.5664 0.9460 0.6995
C79 C 0.66909(13) 0.8891(5) 0.9229(3)
H100 H 0.6793 0.8631 0.9006
C80 C 0.66343(17) 0.8103(5) 0.9572(3)
H101 H 0.6800 0.7862 0.9837
H102 H 0.6527 0.8330 0.9782
H103 H 0.6540 0.7613 0.9314
C81 C 0.68616(16) 0.9641(6) 0.9622(3)
H104 H 0.6895 1.0134 0.9393
H105 H 0.6770 0.9890 0.9860
H106 H 0.7029 0.9373 0.9863
C82 C 0.74236(12) 0.6943(5) 0.6313(3)
C83 C 0.74850(13) 0.6405(4) 0.5934(3)
H107 H 0.7603 0.5905 0.6066
C84 C 0.73776(14) 0.6581(6) 0.5364(3)
H108 H 0.7424 0.6201 0.5108
C85 C 0.72070(14) 0.7286(6) 0.5157(3)
H109 H 0.7129 0.7390 0.4762
C86 C 0.71489(13) 0.7852(5) 0.5540(3)
H110 H 0.7035 0.8362 0.5404
C87 C 0.72517(12) 0.7687(4) 0.6104(3)
H111 H 0.7208 0.8075 0.6359
C88 C 0.75331(16) 0.6757(6) 0.6929(3)
H112 H 0.7467 0.7214 0.7129
H113 H 0.7481 0.6142 0.7003
H114 H 0.7725 0.6793 0.7061
C89 C 0.5165(4) 0.0006(13) 0.4358(11)
C90 C 0.5308(5) 0.0822(13) 0.4385(10)
H115 H 0.5231 0.1380 0.4208
C91 C 0.5581(5) 0.0723(12) 0.4708(10)
H116 H 0.5689 0.1249 0.4741
C92 C 0.5706(4) -0.0086(12) 0.4980(9)
H117 H 0.5889 -0.0124 0.5182
C93 C 0.5538(3) -0.0818(11) 0.4927(8)
H118 H 0.5605 -0.1336 0.5163
C94 C 0.5277(4) -0.0863(12) 0.4556(9)
H119 H 0.5184 -0.1425 0.4447
C95 C 0.4866(4) -0.0047(18) 0.4081(12)
H120 H 0.4796 0.0565 0.3950
H121 H 0.4819 -0.0469 0.3758
H122 H 0.4792 -0.0272 0.4357
C96 C 0.5000 0.9439(9) 0.7500
C97 C 0.5225(2) 0.9913(8) 0.7786(8)
H123 H 0.5387 0.9596 0.7919
C98 C 0.5219(4) 1.0860(10) 0.7886(13)
H124 H 0.5352 1.1142 0.8194
C99 C 0.5000 1.141(2) 0.7500
H125 H 0.5000 1.2060 0.7500
C100 C 0.5000 0.8427(9) 0.7500
C97A C 0.4775(2) 0.9913(8) 0.7214(8)
H123A H 0.4613 0.9596 0.7081
C98A C 0.4781(4) 1.0860(10) 0.7114(13)
H124A H 0.4648 1.1142 0.6806
C101? C 0.5170(7) -0.033(3) 0.4314(14)
C102? C 0.5251(8) 0.032(3) 0.3999(15)
H126? H 0.5144 0.0635 0.3671
C103? C 0.5530(8) 0.040(3) 0.4270(17)
H127? H 0.5633 0.0461 0.4038
C104? C 0.5659(8) 0.040(4) 0.4860(18)
H128? H 0.5827 0.0661 0.5042
C105? C 0.5518(8) -0.003(3) 0.5152(15)
H129? H 0.5610 -0.0189 0.5535
C106? C 0.5247(8) -0.023(3) 0.4920(14)
H130? H 0.5135 -0.0301 0.5131
C107? C 0.4934(8) -0.093(3) 0.402(2)
H131? H 0.4903 -0.1336 0.4299
H132? H 0.4780 -0.0535 0.3850
H133? H 0.4966 -0.1291 0.3727
H134? H 0.4950 0.8203 0.7111
H135? H 0.5176 0.8203 0.7724
H136? H 0.4874 0.8203 0.7666
loop_
_geom_bond_atom_site_label_1
_geom_bond_atom_site_label_2
_geom_bond_site_symmetry_1
_geom_bond_site_symmetry_2
Si1 H1 1_555 1_555
Si2 Si1 1_555 1_555
S1 C28 1_555 1_555
S2 Si1 1_555 1_555
S3 C55 1_555 1_555
S4 Si2 1_555 1_555
N1 C1 1_555 1_555
N2 C1 1_555 1_555
N3 C28 1_555 1_555
N4 C28 1_555 1_555
N5 C55 1_555 1_555
N6 C55 1_555 1_555
C1 Si1 1_555 1_555
C2 N1 1_555 1_555
H2 C2 1_555 1_555
C3 N2 1_555 1_555
H3 C3 1_555 1_555
C4 N2 1_555 1_555
C5 C4 1_555 1_555
C6 C5 1_555 1_555
H4 C6 1_555 1_555
C7 C6 1_555 1_555
H5 C7 1_555 1_555
C8 C7 1_555 1_555
H6 C8 1_555 1_555
C9 C4 1_555 1_555
C10 C9 1_555 1_555
H7 C10 1_555 1_555
C11 C10 1_555 1_555
H8 C11 1_555 1_555
H9 C11 1_555 1_555
H10 C11 1_555 1_555
C12 C10 1_555 1_555
H11 C12 1_555 1_555
H12 C12 1_555 1_555
H13 C12 1_555 1_555
C13 C5 1_555 1_555
H14 C13 1_555 1_555
C14 C13 1_555 1_555
H15 C14 1_555 1_555
H16 C14 1_555 1_555
H17 C14 1_555 1_555
C15 C13 1_555 1_555
H18 C15 1_555 1_555
H19 C15 1_555 1_555
H20 C15 1_555 1_555
C16 N1 1_555 1_555
C17 C16 1_555 1_555
C18 C17 1_555 1_555
H21 C18 1_555 1_555
C19 C18 1_555 1_555
H22 C19 1_555 1_555
C20 C19 1_555 1_555
H23 C20 1_555 1_555
C21 C16 1_555 1_555
C22 C21 1_555 1_555
H24 C22 1_555 1_555
C23 C22 1_555 1_555
H25 C23 1_555 1_555
H26 C23 1_555 1_555
H27 C23 1_555 1_555
C24 C22 1_555 1_555
H28 C24 1_555 1_555
H29 C24 1_555 1_555
H30 C24 1_555 1_555
C25 C17 1_555 1_555
H31 C25 1_555 1_555
C26 C25 1_555 1_555
H32 C26 1_555 1_555
H33 C26 1_555 1_555
H34 C26 1_555 1_555
C27 C25 1_555 1_555
H35 C27 1_555 1_555
H36 C27 1_555 1_555
H37 C27 1_555 1_555
C29 S2 1_555 1_555
C30 Si2 1_555 1_555
C31 N4 1_555 1_555
C32 C31 1_555 1_555
C33 C32 1_555 1_555
H38 C33 1_555 1_555
C34 C33 1_555 1_555
H39 C34 1_555 1_555
C35 C34 1_555 1_555
H40 C35 1_555 1_555
C36 C31 1_555 1_555
C37 C36 1_555 1_555
H41 C37 1_555 1_555
C38 C37 1_555 1_555
H42 C38 1_555 1_555
H43 C38 1_555 1_555
H44 C38 1_555 1_555
C39 C37 1_555 1_555
H45 C39 1_555 1_555
H46 C39 1_555 1_555
H47 C39 1_555 1_555
C40 C32 1_555 1_555
H48 C40 1_555 1_555
C41 C40 1_555 1_555
H49 C41 1_555 1_555
H50 C41 1_555 1_555
H51 C41 1_555 1_555
C42 C40 1_555 1_555
H52 C42 1_555 1_555
H53 C42 1_555 1_555
H54 C42 1_555 1_555
C43 N3 1_555 1_555
C44 C43 1_555 1_555
C45 C44 1_555 1_555
H55 C45 1_555 1_555
C46 C45 1_555 1_555
H56 C46 1_555 1_555
C47 C46 1_555 1_555
H57 C47 1_555 1_555
C48 C43 1_555 1_555
C49 C48 1_555 1_555
H58 C49 1_555 1_555
C50 C49 1_555 1_555
H59 C50 1_555 1_555
H60 C50 1_555 1_555
H61 C50 1_555 1_555
C51 C49 1_555 1_555
H62 C51 1_555 1_555
H63 C51 1_555 1_555
H64 C51 1_555 1_555
C52 C44 1_555 1_555
H65 C52 1_555 1_555
C53 C52 1_555 1_555
H66 C53 1_555 1_555
H67 C53 1_555 1_555
H68 C53 1_555 1_555
C54 C52 1_555 1_555
H69 C54 1_555 1_555
H70 C54 1_555 1_555
H71 C54 1_555 1_555
C56 S4 1_555 1_555
C57 N6 1_555 1_555
H72 C57 1_555 1_555
C58 N6 1_555 1_555
C59 C58 1_555 1_555
C60 C59 1_555 1_555
H73 C60 1_555 1_555
C61 C60 1_555 1_555
H74 C61 1_555 1_555
C62 C61 1_555 1_555
H75 C62 1_555 1_555
C63 C58 1_555 1_555
C64 C63 1_555 1_555
H76 C64 1_555 1_555
C65 C64 1_555 1_555
H77 C65 1_555 1_555
H78 C65 1_555 1_555
H79 C65 1_555 1_555
C66 C64 1_555 1_555
H80 C66 1_555 1_555
H81 C66 1_555 1_555
H82 C66 1_555 1_555
C67 C59 1_555 1_555
H83 C67 1_555 1_555
C68 C67 1_555 1_555
H84 C68 1_555 1_555
H85 C68 1_555 1_555
H86 C68 1_555 1_555
C69 C67 1_555 1_555
H87 C69 1_555 1_555
H88 C69 1_555 1_555
H89 C69 1_555 1_555
C70 N5 1_555 1_555
C71 C70 1_555 1_555
C72 C71 1_555 1_555
H90 C72 1_555 1_555
C73 C72 1_555 1_555
H91 C73 1_555 1_555
C74 C73 1_555 1_555
H92 C74 1_555 1_555
C75 C70 1_555 1_555
C76 C75 1_555 1_555
H93 C76 1_555 1_555
C77 C76 1_555 1_555
H94 C77 1_555 1_555
H95 C77 1_555 1_555
H96 C77 1_555 1_555
C78 C76 1_555 1_555
H97 C78 1_555 1_555
H98 C78 1_555 1_555
H99 C78 1_555 1_555
C79 C71 1_555 1_555
H100 C79 1_555 1_555
C80 C79 1_555 1_555
H101 C80 1_555 1_555
H102 C80 1_555 1_555
H103 C80 1_555 1_555
C81 C79 1_555 1_555
H104 C81 1_555 1_555
H105 C81 1_555 1_555
H106 C81 1_555 1_555
C82 C83 1_555 1_555
C83 H107 1_555 1_555
C84 C83 1_555 1_555
H108 C84 1_555 1_555
C85 C84 1_555 1_555
H109 C85 1_555 1_555
C86 C85 1_555 1_555
H110 C86 1_555 1_555
C87 C82 1_555 1_555
H111 C87 1_555 1_555
C88 C82 1_555 1_555
H112 C88 1_555 1_555
H113 C88 1_555 1_555
H114 C88 1_555 1_555
C89 C90 1_555 1_555
C90 H115 1_555 1_555
C91 C90 1_555 1_555
H116 C91 1_555 1_555
C92 C91 1_555 1_555
H117 C92 1_555 1_555
C93 C92 1_555 1_555
H118 C93 1_555 1_555
C94 C89 1_555 1_555
H119 C94 1_555 1_555
C95 C89 1_555 1_555
H120 C95 1_555 1_555
H121 C95 1_555 1_555
H122 C95 1_555 1_555
C96 C97 1_555 1_555
C97 H123 1_555 1_555
C98 C97 1_555 1_555
H124 C98 1_555 1_555
C99 C98 1_555 1_555
H125 C99 1_555 1_555
C100 C96 1_555 1_555
C97A C96 1_555 1_555
H123A C97A 1_555 1_555
C98A C99 1_555 1_555
H124A C98A 1_555 1_555
N3 C29 1_555 1_555
N4 C30 1_555 1_555
N5 C56 1_555 1_555
C2 C3 1_555 1_555
C8 C9 1_555 1_555
C20 C21 1_555 1_555
C29 C30 1_555 1_555
C35 C36 1_555 1_555
C47 C48 1_555 1_555
C56 C57 1_555 1_555
C62 C63 1_555 1_555
C74 C75 1_555 1_555
C86 C87 1_555 1_555
C93 C94 1_555 1_555
C97A C98A 1_555 1_555

#END
