
#######################################################################
#
#                 Cambridge Crystallographic Data Centre
#                                CCDC 
#
#######################################################################
#
# If this CIF has been generated from an entry in the Cambridge 
# Structural Database, then it will include bibliographic, chemical, 
# crystal, experimental, refinement or atomic coordinate data resulting 
# from the CCDC's data processing and validation procedures.
#
#######################################################################

data_NELJIA
_chemical_formula_moiety         'C81 H106 N6 S4 Si2,2(C7 H8)'
_chemical_name_systematic        
"4,4'-({4,7-bis[2,6-di-isopropylphenyl]-1,4-diaza-6,7-disilabicyclo[3.2.0]hept-2-ene-6,7-diyl}disulfanediyl)bis{1,3-bis[2,6-di-isopropylphenyl]-1,3-dihydro-2H-imidazole-2-thione} toluene solvate"
_symmetry_cell_setting           monoclinic
_symmetry_space_group_name_H-M   'P 21/n'
_symmetry_Int_Tables_number      14
_space_group_name_Hall           '-P 2yn'
loop_
_symmetry_equiv_pos_site_id
_symmetry_equiv_pos_as_xyz
1 x,y,z
2 1/2-x,1/2+y,1/2-z
3 -x,-y,-z
4 1/2+x,1/2-y,1/2+z
_cell_length_a                   17.7211(15)
_cell_length_b                   27.855(2)
_cell_length_c                   18.2418(16)
_cell_angle_alpha                90
_cell_angle_beta                 92.844(3)
_cell_angle_gamma                90
_cell_volume                     8993.45
_exptl_crystal_colour            colorless
_exptl_crystal_description       plate
_cell_formula_units_Z            4
loop_
_atom_site_label
_atom_site_type_symbol
_atom_site_fract_x
_atom_site_fract_y
_atom_site_fract_z
Si1 Si 0.51589(5) 0.72373(3) 0.60930(4)
Si2 Si 0.42193(5) 0.66312(3) 0.63066(4)
S1 S 0.72685(5) 0.82638(3) 0.36968(5)
S2 S 0.48187(4) 0.74343(3) 0.49456(4)
S3 S 0.64529(5) 0.57983(3) 0.92803(5)
S4 S 0.43781(5) 0.60188(3) 0.70150(4)
N1 N 0.38760(15) 0.71331(9) 0.68534(14)
N2 N 0.40892(15) 0.79017(9) 0.69299(14)
N3 N 0.60748(14) 0.77777(9) 0.42425(14)
N4 N 0.63415(14) 0.84489(9) 0.48017(15)
N5 N 0.54048(14) 0.58557(8) 0.81396(14)
N6 N 0.58941(14) 0.65394(9) 0.84577(13)
C1 C 0.43044(17) 0.74947(10) 0.66019(16)
C2 C 0.3411(2) 0.73168(12) 0.73765(19)
H1 H 0.3069 0.7139 0.7656
C3 C 0.3535(2) 0.77937(13) 0.74126(19)
H2 H 0.3287 0.8016 0.7715
C4 C 0.44129(18) 0.83663(11) 0.68007(17)
C5 C 0.41073(17) 0.86397(11) 0.62152(18)
C6 C 0.44593(19) 0.90752(11) 0.60803(19)
H3 H 0.4266 0.9273 0.5691
C7 C 0.5083(2) 0.92244(12) 0.6501(2)
H4 H 0.5323 0.9519 0.6390
C8 C 0.5361(2) 0.89498(12) 0.7079(2)
H5 H 0.5788 0.9059 0.7367
C9 C 0.5027(2) 0.85136(12) 0.72499(19)
C10 C 0.5334(2) 0.82261(14) 0.7904(2)
H6 H 0.5050 0.7916 0.7908
C11 C 0.6158(3) 0.81070(19) 0.7856(3)
H7 H 0.6330 0.7922 0.8289
H8 H 0.6230 0.7917 0.7413
H9 H 0.6451 0.8405 0.7835
C12 C 0.5191(4) 0.84862(19) 0.8616(3)
H10 H 0.5393 0.8295 0.9032
H11 H 0.5442 0.8800 0.8618
H12 H 0.4647 0.8531 0.8657
C13 C 0.34145(19) 0.84806(13) 0.5755(2)
H13 H 0.3376 0.8123 0.5794
C14 C 0.3454(2) 0.86072(14) 0.4951(2)
H14 H 0.2993 0.8496 0.4683
H15 H 0.3498 0.8956 0.4898
H16 H 0.3894 0.8451 0.4751
C15 C 0.2705(2) 0.8697(2) 0.6057(3)
H17 H 0.2262 0.8592 0.5757
H18 H 0.2658 0.8590 0.6564
H19 H 0.2740 0.9048 0.6045
C16 C 0.35016(18) 0.63804(11) 0.56082(17)
C17 C 0.27308(19) 0.63429(12) 0.57547(19)
C18 C 0.2216(2) 0.62029(15) 0.5186(2)
H20 H 0.1693 0.6183 0.5274
C19 C 0.2459(2) 0.60940(16) 0.4504(2)
H21 H 0.2102 0.6009 0.4120
C20 C 0.3214(2) 0.61062(14) 0.4373(2)
H22 H 0.3374 0.6022 0.3900
C21 C 0.3750(2) 0.62404(11) 0.49196(18)
C22 C 0.4583(2) 0.61829(13) 0.47765(19)
H23 H 0.4867 0.6411 0.5111
C23 C 0.4846(2) 0.56811(15) 0.4986(2)
H24 H 0.5383 0.5647 0.4892
H25 H 0.4772 0.5627 0.5508
H26 H 0.4552 0.5445 0.4693
C24 C 0.4786(3) 0.63051(16) 0.3995(2)
H27 H 0.5329 0.6259 0.3947
H28 H 0.4505 0.6094 0.3649
H29 H 0.4653 0.6640 0.3888
C25 C 0.24283(19) 0.64423(12) 0.65015(19)
H30 H 0.2874 0.6498 0.6849
C26 C 0.1950(2) 0.68996(15) 0.6498(2)
H31 H 0.1764 0.6953 0.6988
H32 H 0.2260 0.7174 0.6361
H33 H 0.1521 0.6865 0.6142
C27 C 0.1993(2) 0.60171(15) 0.6795(2)
H34 H 0.1809 0.6098 0.7277
H35 H 0.1563 0.5943 0.6455
H36 H 0.2327 0.5737 0.6841
C28 C 0.65579(17) 0.81592(11) 0.42494(17)
C29 C 0.55468(17) 0.78366(11) 0.47907(16)
C30 C 0.57235(17) 0.82538(11) 0.51277(17)
H37 H 0.5468 0.8391 0.5522
C31 C 0.66660(18) 0.89092(11) 0.49924(19)
C32 C 0.6411(2) 0.93118(12) 0.4595(2)
C33 C 0.6689(2) 0.97549(12) 0.4831(2)
H38 H 0.6510 1.0038 0.4588
C34 C 0.7213(2) 0.97938(14) 0.5401(2)
H39 H 0.7401 1.0101 0.5545
C35 C 0.7471(2) 0.93914(13) 0.5770(2)
H40 H 0.7843 0.9424 0.6161
C36 C 0.71985(19) 0.89353(12) 0.5582(2)
C37 C 0.7477(2) 0.84939(14) 0.5999(2)
H41 H 0.7057 0.8254 0.5980
C38 C 0.8144(3) 0.82661(19) 0.5644(3)
H42 H 0.8310 0.7983 0.5926
H43 H 0.7993 0.8170 0.5140
H44 H 0.8559 0.8498 0.5634
C39 C 0.7691(3) 0.85913(18) 0.6811(3)
H45 H 0.7866 0.8293 0.7048
H46 H 0.8096 0.8831 0.6848
H47 H 0.7249 0.8712 0.7054
C40 C 0.5856(2) 0.92724(13) 0.3940(2)
H48 H 0.5861 0.8932 0.3765
C41 C 0.6072(3) 0.95921(15) 0.3307(2)
H49 H 0.5699 0.9555 0.2896
H50 H 0.6085 0.9928 0.3468
H51 H 0.6572 0.9499 0.3149
C42 C 0.5052(3) 0.9387(2) 0.4159(3)
H52 H 0.4702 0.9359 0.3728
H53 H 0.4904 0.9160 0.4537
H54 H 0.5035 0.9715 0.4353
C43 C 0.61398(17) 0.73741(11) 0.37588(16)
C44 C 0.56742(17) 0.73527(12) 0.31171(17)
C45 C 0.58055(19) 0.69800(13) 0.26283(19)
H55 H 0.5505 0.6957 0.2184
C46 C 0.6362(2) 0.66444(13) 0.2777(2)
H56 H 0.6453 0.6400 0.2429
C47 C 0.67894(19) 0.66601(12) 0.3430(2)
H57 H 0.7157 0.6418 0.3537
C48 C 0.66863(17) 0.70288(11) 0.39341(18)
C49 C 0.7131(2) 0.70180(12) 0.4665(2)
H58 H 0.6993 0.7310 0.4948
C50 C 0.6913(3) 0.65771(14) 0.5105(2)
H59 H 0.7203 0.6574 0.5577
H60 H 0.6372 0.6589 0.5193
H61 H 0.7023 0.6286 0.4829
C51 C 0.7983(2) 0.70343(16) 0.4559(3)
H62 H 0.8256 0.7027 0.5040
H63 H 0.8129 0.6756 0.4269
H64 H 0.8108 0.7330 0.4301
C52 C 0.50394(19) 0.77132(13) 0.29581(19)
H65 H 0.4837 0.7806 0.3440
C53 C 0.4389(2) 0.74975(19) 0.2494(3)
H66 H 0.3995 0.7740 0.2405
H67 H 0.4573 0.7389 0.2024
H68 H 0.4180 0.7224 0.2753
C54 C 0.5317(2) 0.81708(17) 0.2600(3)
H69 H 0.4891 0.8391 0.2509
H70 H 0.5699 0.8325 0.2928
H71 H 0.5539 0.8091 0.2134
C55 C 0.59154(17) 0.60655(11) 0.86269(16)
C56 C 0.50678(18) 0.62001(11) 0.76748(16)
C57 C 0.53771(18) 0.66257(11) 0.78733(17)
H72 H 0.5263 0.6928 0.7655
C58 C 0.63905(17) 0.68924(11) 0.87970(17)
C59 C 0.61777(17) 0.71099(11) 0.94387(17)
C60 C 0.6674(2) 0.74498(12) 0.97473(19)
H73 H 0.6548 0.7611 1.0184
C61 C 0.73472(19) 0.75578(12) 0.9432(2)
H74 H 0.7675 0.7793 0.9651
C62 C 0.7542(2) 0.73296(13) 0.8809(2)
H75 H 0.8009 0.7404 0.8601
C63 C 0.70658(19) 0.69878(13) 0.84709(19)
C64 C 0.7304(2) 0.67237(17) 0.7793(2)
H76 H 0.6888 0.6495 0.7646
C65 C 0.7390(2) 0.7072(2) 0.7147(2)
H77 H 0.7543 0.6893 0.6717
H78 H 0.6906 0.7232 0.7031
H79 H 0.7774 0.7313 0.7283
C66 C 0.8018(3) 0.64260(16) 0.7953(3)
H80 H 0.7939 0.6210 0.8366
H81 H 0.8128 0.6237 0.7519
H82 H 0.8443 0.6641 0.8078
C67 C 0.5442(7) 0.6955(7) 0.9783(7)
H83 H 0.5342 0.6610 0.9658
C68 C 0.5508(9) 0.7007(8) 1.0621(6)
H84 H 0.5929 0.6811 1.0819
H85 H 0.5597 0.7344 1.0750
H86 H 0.5038 0.6899 1.0829
C69 C 0.4789(6) 0.7257(6) 0.9467(9)
H87 H 0.4320 0.7158 0.9687
H88 H 0.4887 0.7596 0.9577
H89 H 0.4739 0.7211 0.8934
C70 C 0.52540(18) 0.53469(11) 0.81214(18)
C71 C 0.46488(18) 0.51738(11) 0.8497(2)
C72 C 0.4547(2) 0.46790(13) 0.8494(3)
H90 H 0.4144 0.4542 0.8748
C73 C 0.5028(2) 0.43831(13) 0.8123(3)
H91 H 0.4954 0.4045 0.8131
C74 C 0.5608(2) 0.45699(13) 0.7745(2)
H92 H 0.5923 0.4360 0.7486
C75 C 0.5745(2) 0.50606(12) 0.77339(18)
C76 C 0.6349(9) 0.5289(8) 0.7289(8)
H93 H 0.6326 0.5647 0.7334
C77 C 0.6176(9) 0.5142(10) 0.6496(8)
H94 H 0.5676 0.5262 0.6332
H95 H 0.6558 0.5278 0.6185
H96 H 0.6182 0.4791 0.6458
C78 C 0.7115(9) 0.5111(8) 0.7563(11)
H97 H 0.7506 0.5259 0.7275
H98 H 0.7201 0.5197 0.8081
H99 H 0.7136 0.4761 0.7510
C79 C 0.41357(19) 0.55060(12) 0.8907(2)
H100 H 0.4246 0.5841 0.8748
C80 C 0.4305(2) 0.54822(15) 0.9729(2)
H101 H 0.3965 0.5700 0.9977
H102 H 0.4228 0.5153 0.9901
H103 H 0.4830 0.5578 0.9841
C81 C 0.3305(2) 0.54092(17) 0.8707(3)
H104 H 0.2991 0.5629 0.8981
H105 H 0.3206 0.5459 0.8180
H106 H 0.3182 0.5077 0.8833
C88 C 0.2251(3) 0.97493(15) 0.8873(3)
C89 C 0.2049(3) 0.96857(15) 0.8133(4)
H121 H 0.1556 0.9771 0.7949
C90 C 0.2566(4) 0.94966(17) 0.7663(2)
H122 H 0.2428 0.9453 0.7158
C91 C 0.3287(4) 0.93713(17) 0.7933(4)
H123 H 0.3641 0.9242 0.7612
C92 C 0.3490(3) 0.94350(19) 0.8672(4)
H124 H 0.3982 0.9349 0.8856
C93 C 0.2972(4) 0.96240(19) 0.9142(3)
H125 H 0.3111 0.9667 0.9648
C94 C 0.1687(7) 0.9954(3) 0.9307(6)
H126 H 0.1782 1.0299 0.9368
H127 H 0.1702 0.9799 0.9789
H128 H 0.1188 0.9906 0.9062
C95 C 0.5507(6) 1.0361(3) 0.8781(6)
C96 C 0.5994(6) 1.0732(4) 0.8614(6)
H129 H 0.6375 1.0681 0.8273
C97 C 0.5926(6) 1.1178(3) 0.8947(6)
H130 H 0.6259 1.1432 0.8833
C98 C 0.5370(6) 1.1253(3) 0.9446(5)
H131 H 0.5323 1.1558 0.9673
C99 C 0.4882(5) 1.0882(4) 0.9612(5)
H132 H 0.4502 1.0933 0.9953
C100 C 0.4951(5) 1.0436(3) 0.9280(6)
H133 H 0.4618 1.0183 0.9393
C101 C 0.5736(10) 0.9962(4) 0.8347(8)
H134 H 0.5770 1.0063 0.7835
H135 H 0.5365 0.9702 0.8375
H136 H 0.6231 0.9846 0.8536
C82? C 0.5452(8) 0.6998(7) 0.9795(8)
H107? H 0.5179 0.6755 0.9477
C83? C 0.5592(9) 0.6766(8) 1.0552(7)
H108? H 0.5107 0.6698 1.0766
H109? H 0.5872 0.6465 1.0500
H110? H 0.5887 0.6985 1.0874
C84? C 0.4919(9) 0.7426(5) 0.9855(16)
H111? H 0.4461 0.7324 1.0092
H112? H 0.5172 0.7679 1.0149
H113? H 0.4782 0.7550 0.9363
C85? C 0.6423(9) 0.5258(9) 0.7335(8)
H114? H 0.6573 0.5559 0.7603
C86? C 0.6220(9) 0.5417(11) 0.6544(9)
H115? H 0.5761 0.5613 0.6534
H116? H 0.6637 0.5606 0.6359
H117? H 0.6134 0.5133 0.6233
C87? C 0.7139(12) 0.4953(8) 0.7338(13)
H118? H 0.7524 0.5120 0.7066
H119? H 0.7330 0.4901 0.7845
H120? H 0.7024 0.4643 0.7104
loop_
_geom_bond_atom_site_label_1
_geom_bond_atom_site_label_2
_geom_bond_site_symmetry_1
_geom_bond_site_symmetry_2
Si1 Si2 1_555 1_555
Si2 S4 1_555 1_555
S1 C28 1_555 1_555
S2 Si1 1_555 1_555
S3 C55 1_555 1_555
S4 C56 1_555 1_555
N1 Si2 1_555 1_555
N2 C1 1_555 1_555
N3 C28 1_555 1_555
N4 C28 1_555 1_555
N5 C55 1_555 1_555
N6 C55 1_555 1_555
C1 Si1 1_555 1_555
C2 N1 1_555 1_555
H1 C2 1_555 1_555
C3 N2 1_555 1_555
H2 C3 1_555 1_555
C4 N2 1_555 1_555
C5 C4 1_555 1_555
C6 C5 1_555 1_555
H3 C6 1_555 1_555
C7 C6 1_555 1_555
H4 C7 1_555 1_555
C8 C7 1_555 1_555
H5 C8 1_555 1_555
C9 C4 1_555 1_555
C10 C9 1_555 1_555
H6 C10 1_555 1_555
C11 C10 1_555 1_555
H7 C11 1_555 1_555
H8 C11 1_555 1_555
H9 C11 1_555 1_555
C12 C10 1_555 1_555
H10 C12 1_555 1_555
H11 C12 1_555 1_555
H12 C12 1_555 1_555
C13 C5 1_555 1_555
H13 C13 1_555 1_555
C14 C13 1_555 1_555
H14 C14 1_555 1_555
H15 C14 1_555 1_555
H16 C14 1_555 1_555
C15 C13 1_555 1_555
H17 C15 1_555 1_555
H18 C15 1_555 1_555
H19 C15 1_555 1_555
C16 Si2 1_555 1_555
C17 C16 1_555 1_555
C18 C17 1_555 1_555
H20 C18 1_555 1_555
C19 C18 1_555 1_555
H21 C19 1_555 1_555
C20 C19 1_555 1_555
H22 C20 1_555 1_555
C21 C16 1_555 1_555
C22 C21 1_555 1_555
H23 C22 1_555 1_555
C23 C22 1_555 1_555
H24 C23 1_555 1_555
H25 C23 1_555 1_555
H26 C23 1_555 1_555
C24 C22 1_555 1_555
H27 C24 1_555 1_555
H28 C24 1_555 1_555
H29 C24 1_555 1_555
C25 C17 1_555 1_555
H30 C25 1_555 1_555
C26 C25 1_555 1_555
H31 C26 1_555 1_555
H32 C26 1_555 1_555
H33 C26 1_555 1_555
C27 C25 1_555 1_555
H34 C27 1_555 1_555
H35 C27 1_555 1_555
H36 C27 1_555 1_555
C29 S2 1_555 1_555
C30 N4 1_555 1_555
H37 C30 1_555 1_555
C31 N4 1_555 1_555
C32 C31 1_555 1_555
C33 C32 1_555 1_555
H38 C33 1_555 1_555
C34 C33 1_555 1_555
H39 C34 1_555 1_555
C35 C34 1_555 1_555
H40 C35 1_555 1_555
C36 C31 1_555 1_555
C37 C36 1_555 1_555
H41 C37 1_555 1_555
C38 C37 1_555 1_555
H42 C38 1_555 1_555
H43 C38 1_555 1_555
H44 C38 1_555 1_555
C39 C37 1_555 1_555
H45 C39 1_555 1_555
H46 C39 1_555 1_555
H47 C39 1_555 1_555
C40 C32 1_555 1_555
H48 C40 1_555 1_555
C41 C40 1_555 1_555
H49 C41 1_555 1_555
H50 C41 1_555 1_555
H51 C41 1_555 1_555
C42 C40 1_555 1_555
H52 C42 1_555 1_555
H53 C42 1_555 1_555
H54 C42 1_555 1_555
C43 N3 1_555 1_555
C44 C43 1_555 1_555
C45 C44 1_555 1_555
H55 C45 1_555 1_555
C46 C45 1_555 1_555
H56 C46 1_555 1_555
C47 C46 1_555 1_555
H57 C47 1_555 1_555
C48 C43 1_555 1_555
C49 C48 1_555 1_555
H58 C49 1_555 1_555
C50 C49 1_555 1_555
H59 C50 1_555 1_555
H60 C50 1_555 1_555
H61 C50 1_555 1_555
C51 C49 1_555 1_555
H62 C51 1_555 1_555
H63 C51 1_555 1_555
H64 C51 1_555 1_555
C52 C44 1_555 1_555
H65 C52 1_555 1_555
C53 C52 1_555 1_555
H66 C53 1_555 1_555
H67 C53 1_555 1_555
H68 C53 1_555 1_555
C54 C52 1_555 1_555
H69 C54 1_555 1_555
H70 C54 1_555 1_555
H71 C54 1_555 1_555
C56 N5 1_555 1_555
C57 N6 1_555 1_555
H72 C57 1_555 1_555
C58 N6 1_555 1_555
C59 C58 1_555 1_555
C60 C59 1_555 1_555
H73 C60 1_555 1_555
C61 C60 1_555 1_555
H74 C61 1_555 1_555
C62 C61 1_555 1_555
H75 C62 1_555 1_555
C63 C58 1_555 1_555
C64 C63 1_555 1_555
H76 C64 1_555 1_555
C65 C64 1_555 1_555
H77 C65 1_555 1_555
H78 C65 1_555 1_555
H79 C65 1_555 1_555
C66 C64 1_555 1_555
H80 C66 1_555 1_555
H81 C66 1_555 1_555
H82 C66 1_555 1_555
C67 C59 1_555 1_555
H83 C67 1_555 1_555
C68 C67 1_555 1_555
H84 C68 1_555 1_555
H85 C68 1_555 1_555
H86 C68 1_555 1_555
C69 C67 1_555 1_555
H87 C69 1_555 1_555
H88 C69 1_555 1_555
H89 C69 1_555 1_555
C70 N5 1_555 1_555
C71 C70 1_555 1_555
C72 C71 1_555 1_555
H90 C72 1_555 1_555
C73 C72 1_555 1_555
H91 C73 1_555 1_555
C74 C73 1_555 1_555
H92 C74 1_555 1_555
C75 C70 1_555 1_555
C76 C75 1_555 1_555
H93 C76 1_555 1_555
C77 C76 1_555 1_555
H94 C77 1_555 1_555
H95 C77 1_555 1_555
H96 C77 1_555 1_555
C78 C76 1_555 1_555
H97 C78 1_555 1_555
H98 C78 1_555 1_555
H99 C78 1_555 1_555
C79 C71 1_555 1_555
H100 C79 1_555 1_555
C80 C79 1_555 1_555
H101 C80 1_555 1_555
H102 C80 1_555 1_555
H103 C80 1_555 1_555
C81 C79 1_555 1_555
H104 C81 1_555 1_555
H105 C81 1_555 1_555
H106 C81 1_555 1_555
C88 C89 1_555 1_555
C89 H121 1_555 1_555
C90 C89 1_555 1_555
H122 C90 1_555 1_555
C91 C90 1_555 1_555
H123 C91 1_555 1_555
C92 C91 1_555 1_555
H124 C92 1_555 1_555
C93 C88 1_555 1_555
H125 C93 1_555 1_555
C94 C88 1_555 1_555
H126 C94 1_555 1_555
H127 C94 1_555 1_555
H128 C94 1_555 1_555
C95 C96 1_555 1_555
C96 H129 1_555 1_555
C97 C96 1_555 1_555
H130 C97 1_555 1_555
C98 C97 1_555 1_555
H131 C98 1_555 1_555
C99 C98 1_555 1_555
H132 C99 1_555 1_555
C100 C95 1_555 1_555
H133 C100 1_555 1_555
C101 C95 1_555 1_555
H134 C101 1_555 1_555
H135 C101 1_555 1_555
H136 C101 1_555 1_555
N1 C1 1_555 1_555
N3 C29 1_555 1_555
C2 C3 1_555 1_555
C8 C9 1_555 1_555
C20 C21 1_555 1_555
C29 C30 1_555 1_555
C35 C36 1_555 1_555
C47 C48 1_555 1_555
C56 C57 1_555 1_555
C62 C63 1_555 1_555
C74 C75 1_555 1_555
C92 C93 1_555 1_555
C99 C100 1_555 1_555

#END
