
#######################################################################
#
#                 Cambridge Crystallographic Data Centre
#                                CCDC 
#
#######################################################################
#
# If this CIF has been generated from an entry in the Cambridge 
# Structural Database, then it will include bibliographic, chemical, 
# crystal, experimental, refinement or atomic coordinate data resulting 
# from the CCDC's data processing and validation procedures.
#
#######################################################################

data_NELNUQ
_chemical_formula_moiety         'C12 H13 N1 O4 S1'
_chemical_name_systematic        
'9-methyl-3-vinyl-3,10b-dihydro-2H-benzo[e]oxazolo[3,2-c][1,2,3]oxathiazine 5,5-dioxide'
_symmetry_cell_setting           orthorhombic
_symmetry_space_group_name_H-M   'P 21 21 21'
_symmetry_Int_Tables_number      19
_space_group_name_Hall           'P 2ac 2ab'
loop_
_symmetry_equiv_pos_site_id
_symmetry_equiv_pos_as_xyz
1 x,y,z
2 1/2-x,-y,1/2+z
3 -x,1/2+y,1/2-z
4 1/2+x,1/2-y,-z
_cell_length_a                   5.7561(12)
_cell_length_b                   10.135(2)
_cell_length_c                   20.636(4)
_cell_angle_alpha                90
_cell_angle_beta                 90
_cell_angle_gamma                90
_cell_volume                     1203.86
_exptl_crystal_colour            colorless
_exptl_crystal_description       Plate
_chemical_melting_point          '98-100 deg.C'
_cell_formula_units_Z            4
loop_
_atom_site_label
_atom_site_type_symbol
_atom_site_fract_x
_atom_site_fract_y
_atom_site_fract_z
S1 S 0.16783(18) 0.10306(10) 0.35249(5)
O1 O 0.3260(5) 0.0284(3) 0.39082(14)
O2 O -0.0266(5) 0.0439(3) 0.32237(14)
O3 O 0.0571(5) 0.2155(3) 0.39742(14)
O4 O 0.5837(5) 0.3430(3) 0.27983(14)
N1 N 0.3201(6) 0.1845(3) 0.30060(15)
C1 C 0.2130(7) 0.3137(4) 0.41976(19)
C2 C 0.4215(7) 0.3408(4) 0.38897(19)
C3 C 0.5099(7) 0.2631(4) 0.33113(18)
H1 H 0.636382 0.204469 0.344607
C4 C 0.3752(7) 0.3876(4) 0.2481(2)
H2 H 0.406687 0.408966 0.203102
H3 H 0.314255 0.465465 0.269425
C5 C 0.2010(7) 0.2731(4) 0.25269(19)
H4 H 0.052849 0.304450 0.270304
C6 C 0.1622(9) 0.2011(4) 0.19049(19)
H5 H 0.290731 0.164790 0.169798
C7 C -0.0411(9) 0.1860(5) 0.1633(2)
H6 H -0.172899 0.221140 0.182852
H7 H -0.054012 0.139994 0.124501
C8 C 0.5544(7) 0.4442(4) 0.41331(19)
H8 H 0.695676 0.463514 0.393641
C9 C 0.4833(7) 0.5199(4) 0.4661(2)
C10 C 0.2762(7) 0.4858(4) 0.4963(2)
H9 H 0.228279 0.533062 0.532554
C11 C 0.1397(7) 0.3837(4) 0.47393(19)
H10 H 0.001393 0.362157 0.494670
C12 C 0.6264(8) 0.6360(4) 0.4885(2)
H11 H 0.788398 0.613865 0.486247
H12 H 0.586191 0.657292 0.532451
H13 H 0.595750 0.710554 0.461181
loop_
_geom_bond_atom_site_label_1
_geom_bond_atom_site_label_2
_geom_bond_site_symmetry_1
_geom_bond_site_symmetry_2
S1 O1 1_555 1_555
O2 S1 1_555 1_555
O3 S1 1_555 1_555
O4 C3 1_555 1_555
N1 S1 1_555 1_555
C1 O3 1_555 1_555
C2 C1 1_555 1_555
C3 N1 1_555 1_555
H1 C3 1_555 1_555
C4 O4 1_555 1_555
H2 C4 1_555 1_555
H3 C4 1_555 1_555
C5 N1 1_555 1_555
H4 C5 1_555 1_555
C6 C5 1_555 1_555
H5 C6 1_555 1_555
C7 C6 1_555 1_555
H6 C7 1_555 1_555
H7 C7 1_555 1_555
C8 C2 1_555 1_555
H8 C8 1_555 1_555
C9 C8 1_555 1_555
C10 C9 1_555 1_555
H9 C10 1_555 1_555
C11 C1 1_555 1_555
H10 C11 1_555 1_555
C12 C9 1_555 1_555
H11 C12 1_555 1_555
H12 C12 1_555 1_555
H13 C12 1_555 1_555
C2 C3 1_555 1_555
C4 C5 1_555 1_555
C10 C11 1_555 1_555

#END
