
#######################################################################
#
#                 Cambridge Crystallographic Data Centre
#                                CCDC 
#
#######################################################################
#
# If this CIF has been generated from an entry in the Cambridge 
# Structural Database, then it will include bibliographic, chemical, 
# crystal, experimental, refinement or atomic coordinate data resulting 
# from the CCDC's data processing and validation procedures.
#
#######################################################################

data_NELPEC
_chemical_formula_moiety         'C18 H17 N1 O5 S1'
_chemical_name_systematic        
'2-methyl-9a-phenyl-8a,9a,10,11a-tetrahydro-8H-benzo[5,6][1,2,3]oxathiazino[4,3-b]oxireno[2,3-e][1,3]oxazepine 6,6-dioxide'
_symmetry_cell_setting           monoclinic
_symmetry_space_group_name_H-M   'P 21/c'
_symmetry_Int_Tables_number      14
_space_group_name_Hall           '-P 2ybc'
loop_
_symmetry_equiv_pos_site_id
_symmetry_equiv_pos_as_xyz
1 x,y,z
2 -x,1/2+y,1/2-z
3 -x,-y,-z
4 x,1/2-y,1/2+z
_cell_length_a                   6.3553(13)
_cell_length_b                   14.813(3)
_cell_length_c                   17.085(3)
_cell_angle_alpha                90
_cell_angle_beta                 95.70(3)
_cell_angle_gamma                90
_cell_volume                     1600.45
_exptl_crystal_colour            colorless
_exptl_crystal_description       block
_chemical_melting_point          '174-175 deg.C'
_cell_formula_units_Z            4
loop_
_atom_site_label
_atom_site_type_symbol
_atom_site_fract_x
_atom_site_fract_y
_atom_site_fract_z
S1 S 0.17307(11) 0.80682(5) 0.53765(4)
O1 O 0.3895(3) 0.59625(13) 0.58775(11)
O2 O 0.5680(3) 0.76735(12) 0.66234(10)
O3 O 0.1832(3) 0.91346(13) 0.53013(12)
O4 O 0.0435(3) 0.77699(15) 0.47006(13)
O5 O 0.1112(3) 0.78740(15) 0.61353(12)
N1 N 0.4174(3) 0.78173(15) 0.52874(13)
C1 C 0.8312(5) 1.1104(2) 0.71067(19)
H1 H 0.880770 1.156871 0.677902
H2 H 0.946508 1.071296 0.728521
H3 H 0.774777 1.137432 0.755198
C2 C 0.6606(5) 1.05642(19) 0.66416(16)
C3 C 0.4707(5) 1.0964(2) 0.63465(16)
H4 H 0.449517 1.157372 0.644184
C4 C 0.3130(5) 1.04827(19) 0.59170(17)
H5 H 0.187150 1.076103 0.572571
C5 C 0.3466(4) 0.95791(19) 0.57781(16)
C6 C 0.5312(4) 0.91451(18) 0.60620(15)
C7 C 0.6861(4) 0.96538(19) 0.64922(16)
H6 H 0.811345 0.937263 0.668662
C8 C 0.5711(4) 0.81566(17) 0.59080(15)
H7 H 0.712461 0.809825 0.573073
C9 C 0.6832(4) 0.68483(18) 0.66631(16)
H8 H 0.681474 0.661161 0.719174
H9 H 0.829176 0.699059 0.659335
C10 C 0.6140(4) 0.60954(18) 0.60945(15)
C11 C 0.5229(4) 0.61929(18) 0.52708(16)
H10 H 0.553240 0.568109 0.493639
C12 C 0.4750(4) 0.70485(18) 0.48232(16)
H11 H 0.598142 0.721178 0.456104
H12 H 0.360123 0.693246 0.441830
C13 C 0.7325(4) 0.52416(18) 0.63209(15)
C14 C 0.9280(5) 0.5073(2) 0.60492(17)
H13 H 0.982985 0.547126 0.570138
C15 C 1.0401(5) 0.4305(2) 0.63017(19)
H14 H 1.170122 0.418887 0.611640
C16 C 0.9617(5) 0.3714(2) 0.68222(18)
H15 H 1.039179 0.320461 0.698911
C17 C 0.7678(5) 0.38772(19) 0.70971(17)
H16 H 0.714137 0.347705 0.744670
C18 C 0.6538(5) 0.46403(18) 0.68486(16)
H17 H 0.523741 0.475232 0.703535
loop_
_geom_bond_atom_site_label_1
_geom_bond_atom_site_label_2
_geom_bond_site_symmetry_1
_geom_bond_site_symmetry_2
S1 O3 1_555 1_555
O1 C10 1_555 1_555
O2 C8 1_555 1_555
O3 C5 1_555 1_555
O4 S1 1_555 1_555
O5 S1 1_555 1_555
N1 S1 1_555 1_555
C1 H1 1_555 1_555
H2 C1 1_555 1_555
H3 C1 1_555 1_555
C2 C1 1_555 1_555
C3 C2 1_555 1_555
H4 C3 1_555 1_555
C4 C3 1_555 1_555
H5 C4 1_555 1_555
C5 C4 1_555 1_555
C6 C5 1_555 1_555
C7 C2 1_555 1_555
H6 C7 1_555 1_555
C8 N1 1_555 1_555
H7 C8 1_555 1_555
C9 O2 1_555 1_555
H8 C9 1_555 1_555
H9 C9 1_555 1_555
C10 C9 1_555 1_555
C11 O1 1_555 1_555
H10 C11 1_555 1_555
C12 N1 1_555 1_555
H11 C12 1_555 1_555
H12 C12 1_555 1_555
C13 C10 1_555 1_555
C14 C13 1_555 1_555
H13 C14 1_555 1_555
C15 C14 1_555 1_555
H14 C15 1_555 1_555
C16 C15 1_555 1_555
H15 C16 1_555 1_555
C17 C16 1_555 1_555
H16 C17 1_555 1_555
C18 C13 1_555 1_555
H17 C18 1_555 1_555
C6 C7 1_555 1_555
C6 C8 1_555 1_555
C10 C11 1_555 1_555
C11 C12 1_555 1_555
C17 C18 1_555 1_555

#END
