
#######################################################################
#
#                 Cambridge Crystallographic Data Centre
#                                CCDC 
#
#######################################################################
#
# If this CIF has been generated from an entry in the Cambridge 
# Structural Database, then it will include bibliographic, chemical, 
# crystal, experimental, refinement or atomic coordinate data resulting 
# from the CCDC's data processing and validation procedures.
#
#######################################################################

data_NELQIE
_chemical_formula_moiety         'C8 H7 F1 N2 O3'
_chemical_name_systematic        4'-Fluoro-2'-nitroacetanilide
_symmetry_cell_setting           monoclinic
_symmetry_space_group_name_H-M   'P 21/c'
_symmetry_Int_Tables_number      14
_space_group_name_Hall           '-P 2ybc'
loop_
_symmetry_equiv_pos_site_id
_symmetry_equiv_pos_as_xyz
1 x,y,z
2 x,1/2-y,1/2+z
3 -x,-y,-z
4 -x,1/2+y,1/2-z
_cell_length_a                   3.9758(7)
_cell_length_b                   22.489(4)
_cell_length_c                   9.7419(16)
_cell_angle_alpha                90
_cell_angle_beta                 99.255(3)
_cell_angle_gamma                90
_cell_volume                     859.702
_exptl_crystal_colour            colorless
_exptl_crystal_description       prism
_cell_formula_units_Z            4
_exptl_crystal_recrystallization_method acetone/water
loop_
_atom_site_label
_atom_site_type_symbol
_atom_site_fract_x
_atom_site_fract_y
_atom_site_fract_z
F1 F -0.1764(4) 0.48038(5) 0.13792(14)
O1 O 0.3856(5) 0.56838(6) 0.57282(13)
O2 O 0.5886(3) 0.65023(5) 0.50742(12)
O3 O 0.1745(4) 0.74926(5) 0.10882(11)
N1 N 0.3966(4) 0.60772(6) 0.48671(13)
N2 N 0.1221(4) 0.71019(5) 0.31778(12)
H1 H 0.1282 0.7179 0.4046
C1 C 0.1738(4) 0.60185(7) 0.35285(14)
C2 C 0.0921(5) 0.54448(7) 0.30961(17)
H2 H 0.1695 0.5121 0.3653
C3 C -0.1050(5) 0.53653(8) 0.18310(19)
C4 C -0.2316(5) 0.58320(8) 0.10011(19)
H3 H -0.3654 0.5765 0.0140
C5 C -0.1565(5) 0.64031(7) 0.14688(17)
H4 H -0.2490 0.6722 0.0929
C6 C 0.0549(4) 0.65141(7) 0.27332(14)
C7 C 0.1781(4) 0.75578(7) 0.23279(14)
C8 C 0.2416(5) 0.81489(7) 0.30182(17)
H5 H 0.2775 0.8442 0.2339
H6 H 0.4400 0.8126 0.3722
H7 H 0.0480 0.8260 0.3437
loop_
_geom_bond_atom_site_label_1
_geom_bond_atom_site_label_2
_geom_bond_site_symmetry_1
_geom_bond_site_symmetry_2
F1 C3 1_555 1_555
O1 N1 1_555 1_555
O2 N1 1_555 1_555
O3 C7 1_555 1_555
N1 C1 1_555 1_555
N2 H1 1_555 1_555
C1 C2 1_555 1_555
C2 H2 1_555 1_555
C3 C2 1_555 1_555
C4 C3 1_555 1_555
H3 C4 1_555 1_555
C5 C4 1_555 1_555
H4 C5 1_555 1_555
C6 N2 1_555 1_555
C7 N2 1_555 1_555
C8 C7 1_555 1_555
H5 C8 1_555 1_555
H6 C8 1_555 1_555
H7 C8 1_555 1_555
C1 C6 1_555 1_555
C5 C6 1_555 1_555

#END
