
#######################################################################
#
#                 Cambridge Crystallographic Data Centre
#                                CCDC 
#
#######################################################################
#
# If this CIF has been generated from an entry in the Cambridge 
# Structural Database, then it will include bibliographic, chemical, 
# crystal, experimental, refinement or atomic coordinate data resulting 
# from the CCDC's data processing and validation procedures.
#
#######################################################################

data_NELTUT
_chemical_formula_moiety         'C16 H16 N2 S4'
_chemical_name_systematic        'bis(N-Methyl-N-phenylthiocarbamoyl) disulfide'
_chemical_properties_biological  
'bis(dialkylthiocarbamoyl) disulfide compounds are effective in breaking the dormancy of plant seeds, bulbs and tubers; can be used as herbicides or in cultivation of crop plants during the off-season'
_symmetry_cell_setting           monoclinic
_symmetry_space_group_name_H-M   'P 21/c'
_symmetry_Int_Tables_number      14
_space_group_name_Hall           '-P 2ybc'
loop_
_symmetry_equiv_pos_site_id
_symmetry_equiv_pos_as_xyz
1 x,y,z
2 x,1/2-y,1/2+z
3 -x,-y,-z
4 -x,1/2+y,1/2-z
_cell_length_a                   9.6233(2)
_cell_length_b                   10.7356(2)
_cell_length_c                   17.2999(3)
_cell_angle_alpha                90
_cell_angle_beta                 91.6240(10)
_cell_angle_gamma                90
_cell_volume                     1786.57
_exptl_crystal_colour            colorless
_exptl_crystal_description       block
_cell_formula_units_Z            4
_exptl_crystal_recrystallization_method ethanol
loop_
_atom_site_label
_atom_site_type_symbol
_atom_site_fract_x
_atom_site_fract_y
_atom_site_fract_z
S1 S 0.25051(11) 0.34438(12) 0.04194(7)
S2 S 0.04187(11) 0.17521(9) 0.12010(6)
S3 S 0.20733(11) 0.17675(9) 0.19393(7)
S4 S 0.02917(11) 0.39421(11) 0.24788(7)
N1 N -0.0058(3) 0.2965(3) -0.00920(18)
N2 N 0.2791(3) 0.3310(3) 0.30389(19)
C1 C -0.1431(3) 0.2432(3) -0.0027(2)
C2 C -0.2375(4) 0.3001(4) 0.0453(3)
H1 H -0.2110 0.3683 0.0754
C3 C -0.3713(4) 0.2541(4) 0.0477(3)
H2 H -0.4350 0.2906 0.0802
C4 C -0.4106(4) 0.1541(4) 0.0020(3)
H3 H -0.5013 0.1243 0.0031
C5 C -0.3179(5) 0.0990(4) -0.0444(3)
H4 H -0.3454 0.0312 -0.0746
C6 C -0.1822(5) 0.1424(4) -0.0473(3)
H5 H -0.1187 0.1039 -0.0791
C7 C 0.0140(4) 0.3707(4) -0.0799(2)
H6 H 0.1115 0.3849 -0.0865
H7 H -0.0328 0.4492 -0.0753
H8 H -0.0237 0.3264 -0.1238
C8 C 0.0957(4) 0.2793(3) 0.0443(2)
C9 C 0.1732(4) 0.3106(3) 0.2536(2)
C10 C 0.2710(5) 0.4287(5) 0.3631(3)
H9 H 0.3625 0.4601 0.3749
H10 H 0.2322 0.3945 0.4090
H11 H 0.2129 0.4953 0.3439
C11 C 0.4071(4) 0.2607(4) 0.3044(2)
C12 C 0.5154(5) 0.3017(6) 0.2612(3)
H12 H 0.5059 0.3727 0.2307
C13 C 0.6409(5) 0.2346(6) 0.2637(4)
H13 H 0.7144 0.2598 0.2337
C14 C 0.6549(6) 0.1340(6) 0.3096(3)
H14 H 0.7384 0.0904 0.3115
C15 C 0.5493(6) 0.0962(5) 0.3524(3)
H15 H 0.5608 0.0272 0.3845
C16 C 0.4233(5) 0.1583(4) 0.3499(3)
H16 H 0.3500 0.1300 0.3791
loop_
_geom_bond_atom_site_label_1
_geom_bond_atom_site_label_2
_geom_bond_site_symmetry_1
_geom_bond_site_symmetry_2
S1 C8 1_555 1_555
S2 S3 1_555 1_555
S3 C9 1_555 1_555
S4 C9 1_555 1_555
N1 C1 1_555 1_555
N2 C9 1_555 1_555
C1 C2 1_555 1_555
C2 H1 1_555 1_555
C3 C2 1_555 1_555
H2 C3 1_555 1_555
C4 C3 1_555 1_555
H3 C4 1_555 1_555
C5 C4 1_555 1_555
H4 C5 1_555 1_555
C6 C1 1_555 1_555
H5 C6 1_555 1_555
C7 N1 1_555 1_555
H6 C7 1_555 1_555
H7 C7 1_555 1_555
H8 C7 1_555 1_555
C8 S2 1_555 1_555
C10 N2 1_555 1_555
H9 C10 1_555 1_555
H10 C10 1_555 1_555
H11 C10 1_555 1_555
C11 N2 1_555 1_555
C12 C11 1_555 1_555
H12 C12 1_555 1_555
C13 C12 1_555 1_555
H13 C13 1_555 1_555
C14 C13 1_555 1_555
H14 C14 1_555 1_555
C15 C14 1_555 1_555
H15 C15 1_555 1_555
C16 C11 1_555 1_555
H16 C16 1_555 1_555
N1 C8 1_555 1_555
C5 C6 1_555 1_555
C15 C16 1_555 1_555

#END
