
#######################################################################
#
#                 Cambridge Crystallographic Data Centre
#                                CCDC 
#
#######################################################################
#
# If this CIF has been generated from an entry in the Cambridge 
# Structural Database, then it will include bibliographic, chemical, 
# crystal, experimental, refinement or atomic coordinate data resulting 
# from the CCDC's data processing and validation procedures.
#
#######################################################################

data_NEMHIY
_chemical_formula_moiety         'C30 H56 O2 P2'
_chemical_name_systematic        
'4,6-Di-t-butyl-1,3-phenylene bis(di-t-butyl(phosphinite))'
_symmetry_cell_setting           monoclinic
_symmetry_space_group_name_H-M   'P 21/n'
_symmetry_Int_Tables_number      14
_space_group_name_Hall           '-P 2yn'
loop_
_symmetry_equiv_pos_site_id
_symmetry_equiv_pos_as_xyz
1 x,y,z
2 1/2-x,1/2+y,1/2-z
3 -x,-y,-z
4 1/2+x,1/2-y,1/2+z
_cell_length_a                   15.7711(7)
_cell_length_b                   12.8437(5)
_cell_length_c                   16.9355(7)
_cell_angle_alpha                90
_cell_angle_beta                 107.907(5)
_cell_angle_gamma                90
_cell_volume                     3264.26
_exptl_crystal_colour            colorless
_exptl_crystal_description       rod-like
_cell_formula_units_Z            4
loop_
_atom_site_label
_atom_site_type_symbol
_atom_site_fract_x
_atom_site_fract_y
_atom_site_fract_z
P1 P 0.41271(5) 0.69456(5) 0.24263(4)
O1 O 0.34634(12) 0.75819(13) 0.15976(11)
C1 C 0.44339(17) 0.9087(2) 0.18587(16)
H1 H 0.4813 0.8748 0.2336
P2 P 0.60411(5) 1.00740(6) 0.30671(4)
O2 O 0.54369(12) 1.05554(14) 0.21439(11)
C2 C 0.46614(17) 1.0069(2) 0.16530(16)
C3 C 0.41227(17) 1.0582(2) 0.09432(16)
C4 C 0.33509(18) 1.00531(19) 0.05033(17)
H2 H 0.2969 1.0392 0.0028
C5 C 0.30825(17) 0.9069(2) 0.06938(16)
C6 C 0.36686(17) 0.85871(19) 0.13863(16)
C7 C 0.22175(18) 0.8560(2) 0.01432(17)
C8 C 0.16193(19) 0.8231(3) 0.06649(19)
H3 H 0.1499 0.8837 0.0966
H4 H 0.1921 0.7693 0.1062
H5 H 0.1056 0.7955 0.0299
C9 C 0.2443(2) 0.7601(2) -0.02975(19)
H6 H 0.1891 0.7257 -0.0621
H7 H 0.2804 0.7115 0.0117
H8 H 0.2779 0.7821 -0.0669
C10 C 0.1666(2) 0.9294(2) -0.05336(19)
H9 H 0.1507 0.9917 -0.0276
H10 H 0.1123 0.8939 -0.0862
H11 H 0.2017 0.9498 -0.0896
C11 C 0.43797(18) 1.1635(2) 0.06369(17)
C12 C 0.5228(2) 1.1498(2) 0.0389(2)
H12 H 0.5113 1.1010 -0.0076
H13 H 0.5705 1.1224 0.0862
H14 H 0.5410 1.2172 0.0224
C13 C 0.3648(2) 1.2045(2) -0.0115(2)
H15 H 0.3820 1.2729 -0.0271
H16 H 0.3091 1.2107 0.0022
H17 H 0.3564 1.1561 -0.0580
C14 C 0.4538(2) 1.2475(2) 0.1313(2)
H18 H 0.4679 1.3138 0.1096
H19 H 0.5037 1.2267 0.1795
H20 H 0.4000 1.2556 0.1481
C15 C 0.7162(2) 1.0318(2) 0.2955(2)
C16 C 0.7237(3) 0.9505(3) 0.2323(3)
H21 H 0.6803 0.9661 0.1782
H22 H 0.7115 0.8813 0.2506
H23 H 0.7840 0.9519 0.2274
C17 C 0.7336(2) 1.1387(3) 0.2643(2)
H24 H 0.7893 1.1368 0.2501
H25 H 0.7384 1.1906 0.3079
H26 H 0.6843 1.1572 0.2150
C18 C 0.5777(2) 1.1037(3) 0.3785(2)
C19 C 0.6033(3) 1.2176(3) 0.3730(3)
H27 H 0.5748 1.2608 0.4054
H28 H 0.5833 1.2401 0.3149
H29 H 0.6682 1.2250 0.3953
C20 C 0.6198(3) 1.0635(4) 0.4669(2)
H30 H 0.6845 1.0739 0.4834
H31 H 0.6068 0.9891 0.4691
H32 H 0.5951 1.1017 0.5049
C21 C 0.4758(3) 1.0963(4) 0.3576(3)
H33 H 0.4586 1.0234 0.3602
H34 H 0.4475 1.1235 0.3015
H35 H 0.4564 1.1374 0.3977
C22 C 0.41758(19) 0.5681(2) 0.18928(18)
C23 C 0.4647(3) 0.4889(3) 0.2566(2)
H36 H 0.4812 0.4274 0.2304
H37 H 0.4245 0.4684 0.2879
H38 H 0.5186 0.5206 0.2943
C24 C 0.4768(2) 0.5936(3) 0.1350(2)
H39 H 0.4888 0.5297 0.1086
H40 H 0.5332 0.6234 0.1696
H41 H 0.4463 0.6439 0.0922
C25 C 0.3305(2) 0.5231(2) 0.13332(19)
H42 H 0.2938 0.5793 0.1010
H43 H 0.2984 0.4892 0.1674
H44 H 0.3433 0.4720 0.0956
C26 C 0.3358(2) 0.6849(2) 0.30754(18)
C27 C 0.3060(3) 0.7976(3) 0.3147(2)
H45 H 0.2755 0.8013 0.3571
H46 H 0.2653 0.8201 0.2611
H47 H 0.3583 0.8433 0.3304
C28 C 0.3925(2) 0.6491(3) 0.39391(19)
H48 H 0.3561 0.6493 0.4315
H49 H 0.4431 0.6966 0.4151
H50 H 0.4147 0.5785 0.3903
C29 C 0.2531(2) 0.6165(3) 0.2760(2)
H51 H 0.2712 0.5433 0.2772
H52 H 0.2201 0.6363 0.2190
H53 H 0.2151 0.6258 0.3116
C30 C 0.7862(2) 1.0096(3) 0.3799(3)
H54 H 0.7724 0.9433 0.4018
H55 H 0.7853 1.0657 0.4188
H56 H 0.8455 1.0056 0.3727
loop_
_geom_bond_atom_site_label_1
_geom_bond_atom_site_label_2
_geom_bond_site_symmetry_1
_geom_bond_site_symmetry_2
P1 O1 1_555 1_555
O1 C6 1_555 1_555
C1 H1 1_555 1_555
P2 O2 1_555 1_555
O2 C2 1_555 1_555
C2 C1 1_555 1_555
C3 C2 1_555 1_555
C4 C3 1_555 1_555
H2 C4 1_555 1_555
C5 C4 1_555 1_555
C6 C1 1_555 1_555
C7 C5 1_555 1_555
C8 C7 1_555 1_555
H3 C8 1_555 1_555
H4 C8 1_555 1_555
H5 C8 1_555 1_555
C9 C7 1_555 1_555
H6 C9 1_555 1_555
H7 C9 1_555 1_555
H8 C9 1_555 1_555
C10 C7 1_555 1_555
H9 C10 1_555 1_555
H10 C10 1_555 1_555
H11 C10 1_555 1_555
C11 C3 1_555 1_555
C12 C11 1_555 1_555
H12 C12 1_555 1_555
H13 C12 1_555 1_555
H14 C12 1_555 1_555
C13 C11 1_555 1_555
H15 C13 1_555 1_555
H16 C13 1_555 1_555
H17 C13 1_555 1_555
C14 C11 1_555 1_555
H18 C14 1_555 1_555
H19 C14 1_555 1_555
H20 C14 1_555 1_555
C15 P2 1_555 1_555
C16 C15 1_555 1_555
H21 C16 1_555 1_555
H22 C16 1_555 1_555
H23 C16 1_555 1_555
C17 C15 1_555 1_555
H24 C17 1_555 1_555
H25 C17 1_555 1_555
H26 C17 1_555 1_555
C18 P2 1_555 1_555
C19 C18 1_555 1_555
H27 C19 1_555 1_555
H28 C19 1_555 1_555
H29 C19 1_555 1_555
C20 C18 1_555 1_555
H30 C20 1_555 1_555
H31 C20 1_555 1_555
H32 C20 1_555 1_555
C21 C18 1_555 1_555
H33 C21 1_555 1_555
H34 C21 1_555 1_555
H35 C21 1_555 1_555
C22 P1 1_555 1_555
C23 C22 1_555 1_555
H36 C23 1_555 1_555
H37 C23 1_555 1_555
H38 C23 1_555 1_555
C24 C22 1_555 1_555
H39 C24 1_555 1_555
H40 C24 1_555 1_555
H41 C24 1_555 1_555
C25 C22 1_555 1_555
H42 C25 1_555 1_555
H43 C25 1_555 1_555
H44 C25 1_555 1_555
C26 P1 1_555 1_555
C27 C26 1_555 1_555
H45 C27 1_555 1_555
H46 C27 1_555 1_555
H47 C27 1_555 1_555
C28 C26 1_555 1_555
H48 C28 1_555 1_555
H49 C28 1_555 1_555
H50 C28 1_555 1_555
C29 C26 1_555 1_555
H51 C29 1_555 1_555
H52 C29 1_555 1_555
H53 C29 1_555 1_555
C30 C15 1_555 1_555
H54 C30 1_555 1_555
H55 C30 1_555 1_555
H56 C30 1_555 1_555
C5 C6 1_555 1_555

#END
