
#######################################################################
#
#                 Cambridge Crystallographic Data Centre
#                                CCDC 
#
#######################################################################
#
# If this CIF has been generated from an entry in the Cambridge 
# Structural Database, then it will include bibliographic, chemical, 
# crystal, experimental, refinement or atomic coordinate data resulting 
# from the CCDC's data processing and validation procedures.
#
#######################################################################

data_NEMJIB
_chemical_formula_moiety         'C60 H32 S1,C2 H3 N1'
_chemical_name_systematic        
'(+)-(P,P)-2,5-bis(15-ethynylhexahelicen-2-yl)thiophene acetonitrile solvate'
_symmetry_cell_setting           hexagonal
_symmetry_space_group_name_H-M   'P 61 2 2'
_symmetry_Int_Tables_number      178
_space_group_name_Hall           "P 61 2' (0,0,5)"
loop_
_symmetry_equiv_pos_site_id
_symmetry_equiv_pos_as_xyz
1 x,y,z
2 -y,x-y,1/3+z
3 -x+y,-x,2/3+z
4 -x,-y,1/2+z
5 y,-x+y,5/6+z
6 x-y,x,1/6+z
7 y,x,1/3-z
8 x-y,-y,-z
9 -x,-x+y,2/3-z
10 -y,-x,5/6-z
11 -x+y,y,1/2-z
12 x,x-y,1/6-z
_cell_length_a                   9.74950(10)
_cell_length_b                   9.74950(10)
_cell_length_c                   74.9186(4)
_cell_angle_alpha                90
_cell_angle_beta                 90
_cell_angle_gamma                120
_cell_volume                     6167.16
_exptl_crystal_colour            'light yellow'
_exptl_crystal_description       plate
_cell_formula_units_Z            6
_exptl_crystal_recrystallization_method 'Vapour deposition'
loop_
_atom_site_label
_atom_site_type_symbol
_atom_site_fract_x
_atom_site_fract_y
_atom_site_fract_z
S1 S 0.51364(8) 0.48636(8) 0.4167
C1 C 0.7096(4) 0.7805(4) 0.43283(5)
C2 C 0.8835(4) 1.0370(4) 0.44687(5)
C3 C 0.9871(5) 0.8681(5) 0.43697(5)
H1 H 1.0712 0.8490 0.4361
C4 C 1.1710(5) 1.1471(5) 0.44574(5)
H2 H 1.2577 1.1326 0.4444
C5 C 0.7407(5) 0.9127(5) 0.48179(5)
H3 H 0.8440 0.9943 0.4800
C6 C 0.7326(5) 0.9177(4) 0.44079(5)
H4 H 0.6462 0.9327 0.4422
C7 C 0.8391(5) 0.7528(5) 0.43192(5)
H5 H 0.8232 0.6557 0.4279
C8 C 1.0151(4) 1.0162(4) 0.44353(5)
C9 C 0.9096(4) 1.1845(4) 0.45491(5)
C10 C 0.7147(5) 0.7708(5) 0.48927(5)
C11 C 0.6136(4) 0.9352(5) 0.47693(5)
C12 C 0.8132(5) 1.3653(5) 0.46267(5)
C13 C 0.7863(5) 1.2075(4) 0.46239(5)
C14 C 0.5593(5) 0.6458(5) 0.49187(5)
H6 H 0.5414 0.5491 0.4963
C15 C 1.1941(5) 1.2922(5) 0.44982(5)
H7 H 1.2965 1.3785 0.4499
C16 C 0.3541(5) 0.9866(5) 0.47504(5)
H8 H 0.2693 1.0050 0.4751
C17 C 0.8491(5) 0.7589(5) 0.49501(5)
C18 C 1.0919(5) 1.4724(5) 0.45684(5)
H9 H 1.1945 1.5584 0.4566
C19 C 0.6838(5) 1.3925(5) 0.46565(5)
H10 H 0.7013 1.4955 0.4657
C20 C 0.6366(5) 1.0838(5) 0.46964(5)
C21 C 1.0656(4) 1.3155(5) 0.45398(5)
C22 C 0.4347(5) 0.6671(5) 0.48785(5)
H11 H 0.3320 0.5842 0.4897
C23 C 0.5367(5) 1.2698(5) 0.46839(5)
H12 H 0.4516 1.2877 0.4687
C24 C 0.4578(5) 0.8125(5) 0.48094(5)
C25 C 0.5554(4) 0.6698(4) 0.42484(5)
C26 C 0.4323(5) 0.6947(5) 0.42124(5)
H13 H 0.4319 0.7865 0.4245
C27 C 0.3289(5) 0.8408(5) 0.47899(5)
H14 H 0.2258 0.7576 0.4805
C28 C 0.5090(5) 1.1130(5) 0.47083(5)
C29 C 0.9685(5) 1.4963(5) 0.45990(5)
H15 H 0.9852 1.5989 0.4602
C30 C 0.9614(5) 0.7560(5) 0.50020(6)
H16 H 1.0503 0.7538 0.5043
C1I C 0.2195(4) 0.2904(4) 0.40050(5)
C2I C -0.0370(4) 0.1165(4) 0.38646(5)
C3I C 0.1319(5) 0.0129(5) 0.39636(5)
H1I H 0.1510 -0.0712 0.3972
C4I C -0.1471(5) -0.1710(5) 0.38759(5)
H2I H -0.1326 -0.2577 0.3889
C5I C 0.0873(5) 0.2593(5) 0.35154(5)
H3I H 0.0057 0.1560 0.3533
C6I C 0.0823(4) 0.2674(5) 0.39254(5)
H4I H 0.0673 0.3538 0.3911
C7I C 0.2472(5) 0.1609(5) 0.40141(5)
H5I H 0.3443 0.1768 0.4054
C8I C -0.0162(4) -0.0151(4) 0.38980(5)
C9I C -0.1845(4) 0.0904(4) 0.37842(5)
C10I C 0.2292(5) 0.2853(5) 0.34406(5)
C11I C 0.0648(5) 0.3864(4) 0.35640(5)
C12I C -0.3653(5) 0.1868(5) 0.37066(5)
C13I C -0.2075(4) 0.2137(5) 0.37094(5)
C14I C 0.3542(5) 0.4407(5) 0.34146(5)
H6I H 0.4509 0.4586 0.3370
C15I C -0.2922(5) -0.1941(5) 0.38351(5)
H7I H -0.3785 -0.2965 0.3834
C16I C 0.0134(5) 0.6459(5) 0.35829(5)
H8I H -0.0050 0.7307 0.3582
C17I C 0.2411(5) 0.1509(5) 0.33832(5)
C18I C -0.4724(5) -0.0919(5) 0.37649(5)
H9I H -0.5584 -0.1945 0.3767
C19I C -0.3925(5) 0.3162(5) 0.36768(5)
H10I H -0.4955 0.2987 0.3676
C20I C -0.0838(5) 0.3634(5) 0.36369(5)
C21I C -0.3155(5) -0.0656(4) 0.37935(5)
C22I C 0.3329(5) 0.5653(5) 0.34548(5)
H11I H 0.4158 0.6680 0.3436
C23I C -0.2698(5) 0.4633(5) 0.36494(5)
H12I H -0.2877 0.5484 0.3646
C24I C 0.1875(5) 0.5422(5) 0.35239(5)
C25I C 0.3302(4) 0.4446(4) 0.40849(5)
C26I C 0.3053(5) 0.5677(5) 0.41209(5)
H13I H 0.2135 0.5681 0.4088
C27I C 0.1592(5) 0.6711(5) 0.35434(5)
H14I H 0.2424 0.7742 0.3528
C28I C -0.1130(5) 0.4910(5) 0.36250(5)
C29I C -0.4963(5) 0.0315(5) 0.37343(5)
H15I H -0.5989 0.0148 0.3731
C30I C 0.2440(5) 0.0386(5) 0.33313(6)
H16I H 0.2462 -0.0503 0.3290
N1? N 0.8952(7) 0.4852(7) 0.40744(9)
C31? C 0.8227(7) 0.3854(6) 0.41210(9)
C32? C 0.6997(9) 0.2177(7) 0.41657(14)
H17? H 0.6442 0.1640 0.4059
H18? H 0.6261 0.2182 0.4250
H19? H 0.7505 0.1639 0.4216
loop_
_geom_bond_atom_site_label_1
_geom_bond_atom_site_label_2
_geom_bond_site_symmetry_1
_geom_bond_site_symmetry_2
S1 C25 1_555 1_555
C1 C6 1_555 1_555
C2 C6 1_555 1_555
C3 H1 1_555 1_555
C4 H2 1_555 1_555
C5 H3 1_555 1_555
C6 H4 1_555 1_555
C7 C1 1_555 1_555
H5 C7 1_555 1_555
C8 C2 1_555 1_555
C9 C2 1_555 1_555
C10 C5 1_555 1_555
C11 C5 1_555 1_555
C12 C13 1_555 1_555
C13 C9 1_555 1_555
C14 C10 1_555 1_555
H6 C14 1_555 1_555
C15 C4 1_555 1_555
H7 C15 1_555 1_555
C16 H8 1_555 1_555
C17 C10 1_555 1_555
C18 H9 1_555 1_555
C19 C12 1_555 1_555
H10 C19 1_555 1_555
C20 C11 1_555 1_555
C21 C9 1_555 1_555
C22 C14 1_555 1_555
H11 C22 1_555 1_555
C23 C19 1_555 1_555
H12 C23 1_555 1_555
C24 C11 1_555 1_555
C25 C1 1_555 1_555
C26 C25 1_555 1_555
H13 C26 1_555 1_555
C27 C16 1_555 1_555
H14 C27 1_555 1_555
C28 C16 1_555 1_555
C29 C12 1_555 1_555
H15 C29 1_555 1_555
C30 C17 1_555 1_555
H16 C30 1_555 1_555
C1I C6I 1_555 1_555
C2I C6I 1_555 1_555
C3I H1I 1_555 1_555
C4I H2I 1_555 1_555
C5I H3I 1_555 1_555
C6I H4I 1_555 1_555
C7I C1I 1_555 1_555
H5I C7I 1_555 1_555
C8I C2I 1_555 1_555
C9I C2I 1_555 1_555
C10I C5I 1_555 1_555
C11I C5I 1_555 1_555
C12I C13I 1_555 1_555
C13I C9I 1_555 1_555
C14I C10I 1_555 1_555
H6I C14I 1_555 1_555
C15I C4I 1_555 1_555
H7I C15I 1_555 1_555
C16I H8I 1_555 1_555
C17I C10I 1_555 1_555
C18I H9I 1_555 1_555
C19I C12I 1_555 1_555
H10I C19I 1_555 1_555
C20I C11I 1_555 1_555
C21I C9I 1_555 1_555
C22I C14I 1_555 1_555
H11I C22I 1_555 1_555
C23I C19I 1_555 1_555
H12I C23I 1_555 1_555
C24I C11I 1_555 1_555
C25I S1 1_555 1_555
C26I C26 1_555 1_555
H13I C26I 1_555 1_555
C27I C16I 1_555 1_555
H14I C27I 1_555 1_555
C28I C16I 1_555 1_555
C29I C12I 1_555 1_555
H15I C29I 1_555 1_555
C30I C17I 1_555 1_555
H16I C30I 1_555 1_555
C3 C7 1_555 1_555
C3 C8 1_555 1_555
C4 C8 1_555 1_555
C13 C20 1_555 1_555
C15 C21 1_555 1_555
C18 C21 1_555 1_555
C18 C29 1_555 1_555
C20 C28 1_555 1_555
C22 C24 1_555 1_555
C23 C28 1_555 1_555
C24 C27 1_555 1_555
C1I C25I 1_555 1_555
C3I C7I 1_555 1_555
C3I C8I 1_555 1_555
C4I C8I 1_555 1_555
C13I C20I 1_555 1_555
C15I C21I 1_555 1_555
C18I C21I 1_555 1_555
C18I C29I 1_555 1_555
C20I C28I 1_555 1_555
C22I C24I 1_555 1_555
C23I C28I 1_555 1_555
C24I C27I 1_555 1_555
C25I C26I 1_555 1_555

#END
