
#######################################################################
#
#                 Cambridge Crystallographic Data Centre
#                                CCDC 
#
#######################################################################
#
# If this CIF has been generated from an entry in the Cambridge 
# Structural Database, then it will include bibliographic, chemical, 
# crystal, experimental, refinement or atomic coordinate data resulting 
# from the CCDC's data processing and validation procedures.
#
#######################################################################

data_NEMJUN
_chemical_formula_moiety         'C48 H56 Si2'
_chemical_name_systematic        
'[hexahelicene-2,15-diylbis(ethyne-2,1-diyl)]bis[triisopropylsilane]'
_symmetry_cell_setting           triclinic
_symmetry_space_group_name_H-M   'P -1'
_symmetry_Int_Tables_number      2
_space_group_name_Hall           '-P 1'
loop_
_symmetry_equiv_pos_site_id
_symmetry_equiv_pos_as_xyz
1 x,y,z
2 -x,-y,-z
_cell_length_a                   8.6254(8)
_cell_length_b                   14.5843(13)
_cell_length_c                   16.7303(14)
_cell_angle_alpha                75.308(3)
_cell_angle_beta                 88.612(3)
_cell_angle_gamma                84.923(3)
_cell_volume                     2027.79
_exptl_crystal_colour            colorless
_exptl_crystal_description       plate
_chemical_melting_point          '203-205 deg.C'
_cell_formula_units_Z            2
_exptl_crystal_recrystallization_method 'Vapour deposition'
loop_
_atom_site_label
_atom_site_type_symbol
_atom_site_fract_x
_atom_site_fract_y
_atom_site_fract_z
Si1 Si 0.05304(4) 0.98020(2) 0.70766(2)
Si2 Si 0.52226(5) 0.29277(3) 0.94342(2)
C1 C 0.06163(14) 0.66808(8) 0.72952(8)
C2 C 0.13403(13) 0.54304(8) 0.65926(7)
C3 C 0.54154(14) 0.56537(9) 0.74867(7)
C4 C 0.46059(13) 0.64209(8) 0.60672(7)
C5 C 0.54528(14) 0.72010(8) 0.60993(7)
C6 C 0.56601(15) 0.79344(9) 0.53650(8)
H1 H 0.6158 0.8481 0.5391
C7 C 0.07111(14) 0.47650(8) 0.72685(8)
C8 C 0.46617(14) 0.56408(8) 0.67694(7)
H2 H 0.4167 0.5090 0.6749
C9 C 0.54414(15) 0.48200(9) 0.81642(8)
C10 C 0.42785(14) 0.70760(9) 0.45776(8)
C11 C 0.38535(14) 0.64041(8) 0.53019(7)
C12 C 0.19602(14) 0.51169(8) 0.58830(7)
C13 C 0.12240(14) 0.63929(8) 0.66176(7)
H3 H 0.1573 0.6856 0.6156
C14 C 0.15478(14) 0.42285(8) 0.58016(8)
C15 C -0.04384(16) 1.02015(9) 0.79666(8)
H4 H -0.1556 1.0071 0.7959
C16 C 0.51461(15) 0.78486(9) 0.46319(8)
H5 H 0.5367 0.8313 0.4141
C17 C 0.04559(15) 0.85079(9) 0.72656(8)
C18 C 0.00999(16) 0.59977(9) 0.79904(8)
H6 H -0.0265 0.6184 0.8471
C19 C 0.28403(14) 0.56883(8) 0.52220(7)
C20 C 0.21271(15) 0.46615(9) 0.43449(8)
H7 H 0.2040 0.4553 0.3812
C21 C 0.61867(16) 0.72142(9) 0.68434(8)
H8 H 0.6707 0.7754 0.6868
C22 C 0.27281(14) 0.55126(9) 0.44278(8)
C23 C 0.09264(15) 0.35709(9) 0.64954(9)
H9 H 0.0749 0.2952 0.6450
C24 C 0.16796(15) 0.40060(9) 0.50219(8)
H10 H 0.1453 0.3396 0.4975
C25 C 0.26517(16) 1.00345(10) 0.69212(9)
H11 H 0.2727 1.0734 0.6826
C26 C 0.05871(16) 0.38099(9) 0.72129(8)
H12 H 0.0266 0.3345 0.7681
C27 C 0.05150(14) 0.76731(9) 0.72905(7)
C28 C 0.61636(16) 0.64659(9) 0.75281(8)
H13 H 0.6645 0.6491 0.8026
C29 C -0.05808(17) 1.03168(9) 0.60815(8)
H14 H -0.0201 0.9922 0.5696
C30 C 0.38909(15) 0.69682(9) 0.37859(8)
H15 H 0.4096 0.7450 0.3304
C31 C 0.32313(15) 0.61825(10) 0.37148(8)
H16 H 0.3104 0.6078 0.3183
C32 C 0.01325(16) 0.50667(9) 0.79625(8)
H17 H -0.0244 0.4613 0.8422
C33 C 0.53974(17) 0.40887(10) 0.87010(8)
C34 C -0.0327(2) 1.13513(10) 0.56317(9)
H18 H -0.0832 1.1781 0.5943
H19 H -0.0780 1.1502 0.5077
H20 H 0.0790 1.1430 0.5588
C35 C 0.53924(19) 0.20434(10) 0.87784(9)
H21 H 0.6311 0.2196 0.8408
C36 C 0.32600(18) 0.97386(11) 0.61417(10)
H22 H 0.3167 0.9057 0.6215
H23 H 0.4355 0.9869 0.6052
H24 H 0.2645 1.0101 0.5662
C37 C -0.23278(18) 1.01871(11) 0.62071(10)
H25 H -0.2469 0.9519 0.6472
H26 H -0.2853 1.0373 0.5670
H27 H -0.2775 1.0587 0.6559
C38 C 0.68826(19) 0.26925(11) 1.01832(9)
H28 H 0.6818 0.2041 1.0554
C39 C -0.0429(2) 1.12780(10) 0.78566(10)
H29 H 0.0649 1.1449 0.7826
H30 H -0.0953 1.1457 0.8328
H31 H -0.0975 1.1616 0.7346
C40 C 0.36874(19) 0.95243(14) 0.76584(11)
H32 H 0.3356 0.9755 0.8142
H33 H 0.4772 0.9654 0.7526
H34 H 0.3596 0.8838 0.7779
C41 C 0.0188(2) 0.96587(12) 0.88178(9)
H35 H 0.0274 0.8974 0.8856
H36 H -0.0525 0.9795 0.9246
H37 H 0.1217 0.9858 0.8897
C42 C 0.3119(2) 0.21571(12) 1.07274(10)
H38 H 0.3519 0.1534 1.0652
H39 H 0.3761 0.2328 1.1134
H40 H 0.2041 0.2129 1.0924
C43 C 0.3981(2) 0.21379(15) 0.82147(12)
H41 H 0.3057 0.1964 0.8553
H42 H 0.4175 0.1713 0.7847
H43 H 0.3808 0.2797 0.7884
C44 C 0.8449(2) 0.27024(14) 0.97373(11)
H44 H 0.8550 0.2193 0.9449
H45 H 0.9292 0.2603 1.0141
H46 H 0.8512 0.3318 0.9336
C45 C 0.5715(3) 0.10132(12) 0.92779(12)
H47 H 0.6656 0.0954 0.9610
H48 H 0.5866 0.0597 0.8901
H49 H 0.4830 0.0827 0.9644
C46 C 0.6779(3) 0.33962(17) 1.07254(13)
H50 H 0.6844 0.4043 1.0377
H51 H 0.7639 0.3236 1.1122
H52 H 0.5786 0.3361 1.1025
C47 C 0.3179(3) 0.29060(18) 0.99035(15)
H53 H 0.2471 0.2733 0.9511
C48 C 0.2556(3) 0.38820(16) 1.00168(15)
H54 H 0.3227 0.4069 1.0402
H55 H 0.1495 0.3848 1.0238
H56 H 0.2549 0.4353 0.9482
H57? H 0.4047 0.1835 1.1038
H58? H 0.2301 0.2278 1.1114
H59? H 0.2749 0.1753 1.0398
C49? C 0.3545(8) 0.3147(5) 1.0127(4)
H60? H 0.3890 0.3553 1.0478
C50? C 0.2143(7) 0.3678(5) 0.9629(4)
H61? H 0.2458 0.4261 0.9249
H62? H 0.1338 0.3842 1.0005
H63? H 0.1729 0.3273 0.9314
loop_
_geom_bond_atom_site_label_1
_geom_bond_atom_site_label_2
_geom_bond_site_symmetry_1
_geom_bond_site_symmetry_2
Si1 C15 1_555 1_555
Si2 C33 1_555 1_555
C1 C13 1_555 1_555
C2 C7 1_555 1_555
C3 C8 1_555 1_555
C4 C5 1_555 1_555
C5 C6 1_555 1_555
C6 H1 1_555 1_555
C7 C26 1_555 1_555
C8 C4 1_555 1_555
H2 C8 1_555 1_555
C9 C3 1_555 1_555
C10 C11 1_555 1_555
C11 C4 1_555 1_555
C12 C2 1_555 1_555
C13 C2 1_555 1_555
H3 C13 1_555 1_555
C14 C12 1_555 1_555
C15 H4 1_555 1_555
C16 C6 1_555 1_555
H5 C16 1_555 1_555
C17 Si1 1_555 1_555
C18 C1 1_555 1_555
H6 C18 1_555 1_555
C19 C11 1_555 1_555
C20 H7 1_555 1_555
C21 C5 1_555 1_555
H8 C21 1_555 1_555
C22 C19 1_555 1_555
C23 C14 1_555 1_555
H9 C23 1_555 1_555
C24 C14 1_555 1_555
H10 C24 1_555 1_555
C25 Si1 1_555 1_555
H11 C25 1_555 1_555
C26 C23 1_555 1_555
H12 C26 1_555 1_555
C27 C1 1_555 1_555
C28 C3 1_555 1_555
H13 C28 1_555 1_555
C29 Si1 1_555 1_555
H14 C29 1_555 1_555
C30 C10 1_555 1_555
H15 C30 1_555 1_555
C31 C22 1_555 1_555
H16 C31 1_555 1_555
C32 C7 1_555 1_555
H17 C32 1_555 1_555
C33 C9 1_555 1_555
C34 C29 1_555 1_555
H18 C34 1_555 1_555
H19 C34 1_555 1_555
H20 C34 1_555 1_555
C35 Si2 1_555 1_555
H21 C35 1_555 1_555
C36 C25 1_555 1_555
H22 C36 1_555 1_555
H23 C36 1_555 1_555
H24 C36 1_555 1_555
C37 C29 1_555 1_555
H25 C37 1_555 1_555
H26 C37 1_555 1_555
H27 C37 1_555 1_555
C38 Si2 1_555 1_555
H28 C38 1_555 1_555
C39 C15 1_555 1_555
H29 C39 1_555 1_555
H30 C39 1_555 1_555
H31 C39 1_555 1_555
C40 C25 1_555 1_555
H32 C40 1_555 1_555
H33 C40 1_555 1_555
H34 C40 1_555 1_555
C41 C15 1_555 1_555
H35 C41 1_555 1_555
H36 C41 1_555 1_555
H37 C41 1_555 1_555
C42 H38 1_555 1_555
H39 C42 1_555 1_555
H40 C42 1_555 1_555
C43 C35 1_555 1_555
H41 C43 1_555 1_555
H42 C43 1_555 1_555
H43 C43 1_555 1_555
C44 C38 1_555 1_555
H44 C44 1_555 1_555
H45 C44 1_555 1_555
H46 C44 1_555 1_555
C45 C35 1_555 1_555
H47 C45 1_555 1_555
H48 C45 1_555 1_555
H49 C45 1_555 1_555
C46 C38 1_555 1_555
H50 C46 1_555 1_555
H51 C46 1_555 1_555
H52 C46 1_555 1_555
C47 Si2 1_555 1_555
H53 C47 1_555 1_555
C48 C47 1_555 1_555
H54 C48 1_555 1_555
H55 C48 1_555 1_555
H56 C48 1_555 1_555
C10 C16 1_555 1_555
C12 C19 1_555 1_555
C17 C27 1_555 1_555
C18 C32 1_555 1_555
C20 C22 1_555 1_555
C20 C24 1_555 1_555
C21 C28 1_555 1_555
C30 C31 1_555 1_555
C42 C47 1_555 1_555

#END
