
#######################################################################
#
#                 Cambridge Crystallographic Data Centre
#                                CCDC 
#
#######################################################################
#
# If this CIF has been generated from an entry in the Cambridge 
# Structural Database, then it will include bibliographic, chemical, 
# crystal, experimental, refinement or atomic coordinate data resulting 
# from the CCDC's data processing and validation procedures.
#
#######################################################################

data_NEMKEY
_chemical_formula_moiety         'C78 H70 Si2'
_chemical_name_systematic        
(+)-(P,P)-(buta-1,3-diyne-1,4-diylbis[(hexahelicene-15,2-diyl)ethyne-2,1-diyl])bis[triisopropylsilane]
_symmetry_cell_setting           monoclinic
_symmetry_space_group_name_H-M   'P 21'
_symmetry_Int_Tables_number      4
_space_group_name_Hall           'P 2yb'
loop_
_symmetry_equiv_pos_site_id
_symmetry_equiv_pos_as_xyz
1 x,y,z
2 -x,1/2+y,-z
_cell_length_a                   17.3118(2)
_cell_length_b                   10.23530(10)
_cell_length_c                   18.8389(2)
_cell_angle_alpha                90
_cell_angle_beta                 114.4860(10)
_cell_angle_gamma                90
_cell_volume                     3037.87
_exptl_crystal_colour            orange
_exptl_crystal_description       plank
_chemical_melting_point          '281-283 deg.C'
_cell_formula_units_Z            2
_exptl_crystal_recrystallization_method 'Vapour deposition'
loop_
_atom_site_label
_atom_site_type_symbol
_atom_site_fract_x
_atom_site_fract_y
_atom_site_fract_z
Si1 Si 1.02835(4) 0.90195(6) 0.67349(3)
Si2 Si 0.30178(4) -0.07128(6) 0.48516(4)
C1 C 0.64184(15) 0.5482(2) 0.77856(12)
C2 C 0.98360(14) 0.8023(2) 0.80442(13)
C3 C 0.48270(14) 0.0286(2) 0.83944(12)
C4 C 0.67137(15) 0.6516(2) 0.77086(13)
C5 C 0.95705(14) 0.7569(2) 0.86291(12)
C6 C 0.91525(14) 0.6690(2) 0.98362(13)
C7 C 0.31538(15) 0.2131(3) 0.67036(13)
C8 C 0.93003(13) 0.8443(2) 0.90391(12)
H1 H 0.9292 0.9330 0.8929
C9 C 0.83621(14) 1.0208(2) 0.97453(14)
C10 C 0.55146(14) 0.1950(2) 0.79307(13)
C11 C 0.30668(17) 0.1218(3) 0.60954(14)
C12 C 0.51281(14) 0.1573(2) 0.84105(12)
H2 H 0.5065 0.2179 0.8750
C13 C 0.87172(16) 0.8490(3) 1.07415(14)
C14 C 0.95898(15) 0.6215(2) 0.87956(14)
H3 H 0.9726 0.5611 0.8497
C15 C 0.70361(15) 0.7770(2) 0.76418(13)
C16 C 0.76962(14) 0.9820(2) 0.82641(13)
C17 C 0.94061(15) 0.5805(2) 0.93995(14)
H4 H 0.9450 0.4922 0.9525
C18 C 0.86897(14) 0.8918(2) 1.00161(12)
C19 C 0.73982(14) 0.8551(2) 0.82986(13)
H5 H 0.7446 0.8228 0.8777
C20 C 0.50309(14) -0.0655(2) 0.79414(13)
C21 C 0.32877(14) 0.1677(2) 0.74372(13)
H6 H 0.3285 0.0781 0.7518
C22 C 0.60895(14) 0.4306(2) 0.78670(12)
C23 C 0.93341(16) 0.8598(2) 0.58033(14)
H7 H 0.9352 0.7649 0.5741
C24 C 0.58101(15) 0.3253(2) 0.79264(13)
C25 C 0.34279(14) 0.2533(2) 0.80659(13)
C26 C 0.36318(14) 0.2074(2) 0.88582(13)
C27 C 0.72175(16) 0.9497(2) 0.68602(14)
H8 H 0.7158 0.9815 0.6378
C28 C 0.83428(16) 1.1122(3) 1.03047(16)
C29 C 1.00485(15) 0.8398(2) 0.75440(13)
C30 C 0.43474(15) -0.0125(2) 0.88325(13)
C31 C 0.80592(14) 1.0659(2) 0.89443(14)
C32 C 0.90371(14) 0.8032(2) 0.96169(12)
C33 C 0.69645(16) 0.8247(2) 0.69115(14)
H9 H 0.6748 0.7717 0.6471
C34 C 0.75658(15) 1.0315(2) 0.75197(14)
C35 C 1.12557(17) 0.8145(3) 0.67628(15)
H10 H 1.1360 0.8461 0.6319
C36 C 0.80419(15) 1.2020(2) 0.88052(16)
C37 C 0.43377(16) -0.1481(3) 0.89840(15)
C38 C 0.39080(15) 0.0763(3) 0.91364(13)
C39 C 0.85883(16) 0.9401(3) 1.12525(15)
H11 H 0.8592 0.9115 1.1723
C40 C 0.33428(17) 0.4779(3) 0.84926(16)
H12 H 0.3313 0.5674 0.8400
C41 C 0.53889(15) -0.0240(2) 0.74333(14)
H13 H 0.5477 -0.0846 0.7106
C42 C 0.81307(17) 1.2912(3) 0.94174(19)
H14 H 0.8130 1.3806 0.9330
C43 C 0.90409(16) 0.6268(3) 1.05110(14)
H15 H 0.9082 0.5386 1.0640
C44 C 0.56108(15) 0.1034(2) 0.74090(13)
H16 H 0.5824 0.1299 0.7053
C45 C 0.79156(17) 1.2482(2) 0.80509(17)
H17 H 0.7957 1.3373 0.7976
C46 C 0.33300(15) 0.3893(2) 0.79031(14)
C47 C 0.37319(16) 0.0304(3) 0.97680(14)
C48 C 0.33986(16) 0.4324(3) 0.91851(15)
H18 H 0.3365 0.4909 0.9549
C49 C 0.31293(18) 0.3494(3) 0.65697(15)
H19 H 0.3066 0.3812 0.6086
C50 C 0.19325(17) -0.0658(3) 0.40072(15)
H20 H 0.1826 -0.1519 0.3758
C51 C 0.30193(18) 0.0451(3) 0.55922(14)
C52 C 1.05170(19) 1.0818(3) 0.69282(15)
H21 H 1.0977 1.0874 0.7452
C53 C 0.77377(17) 1.1661(3) 0.74441(17)
H22 H 0.7727 1.1971 0.6976
C54 C 0.35071(15) 0.2970(3) 0.93722(14)
C55 C 0.84595(17) 1.0683(3) 1.10573(16)
H23 H 0.8447 1.1284 1.1423
C56 C 0.88754(17) 0.7150(3) 1.09603(14)
H24 H 0.8864 0.6877 1.1427
C57 C 0.34951(17) 0.1211(4) 1.02161(15)
H25 H 0.3365 0.0907 1.0619
C58 C 0.31993(17) 0.4338(3) 0.71525(15)
H26 H 0.3160 0.5232 0.7053
C59 C 1.20477(18) 0.8454(3) 0.75019(18)
H27 H 1.2129 0.9383 0.7551
H28 H 1.2534 0.8053 0.7471
H29 H 1.1978 0.8121 0.7948
C60 C 0.38858(18) -0.0194(3) 0.45451(15)
H30 H 0.3673 0.0577 0.4212
C61 C 0.82149(18) 1.2474(3) 1.01194(18)
H31 H 0.8189 1.3060 1.0486
C62 C 0.34565(17) 0.2498(3) 1.00654(15)
H32 H 0.3396 0.3086 1.0415
C63 C 0.46197(18) -0.2397(3) 0.85706(16)
H33 H 0.4610 -0.3284 0.8674
C64 C 0.84803(17) 0.8893(3) 0.58272(16)
H34 H 0.8473 0.8535 0.6295
H35 H 0.8033 0.8507 0.5382
H36 H 0.8399 0.9821 0.5820
C65 C 0.38112(18) -0.1047(3) 0.99573(15)
H37 H 0.3692 -0.1339 1.0368
C66 C 0.48989(16) -0.2010(2) 0.80355(16)
H38 H 0.5006 -0.2627 0.7726
C67 C 1.1113(2) 0.6669(3) 0.66604(18)
H39 H 1.0988 0.6329 0.7076
H40 H 1.1616 0.6257 0.6671
H41 H 1.0646 0.6493 0.6169
C68 C 0.40555(19) -0.1911(3) 0.95539(16)
H42 H 0.4040 -0.2800 0.9649
C69 C 0.93680(19) 0.9206(4) 0.50723(14)
H43 H 0.9313 1.0138 0.5089
H44 H 0.8912 0.8866 0.4616
H45 H 0.9900 0.8996 0.5055
C70 C 0.40709(19) -0.1226(3) 0.40507(16)
H46 H 0.4281 -0.2004 0.4355
H47 H 0.4489 -0.0898 0.3885
H48 H 0.3559 -0.1424 0.3601
C71 C 0.9774(2) 1.1579(3) 0.69665(19)
H49 H 0.9313 1.1601 0.6458
H50 H 0.9952 1.2455 0.7139
H51 H 0.9592 1.1158 0.7326
C72 C 1.0852(2) 1.1483(3) 0.6386(2)
H52 H 1.1297 1.0961 0.6352
H53 H 1.1072 1.2330 0.6589
H54 H 1.0399 1.1576 0.5877
C73 C 0.4713(2) 0.0223(4) 0.52263(19)
H55 H 0.4592 0.0888 0.5525
H56 H 0.5100 0.0560 0.5026
H57 H 0.4963 -0.0518 0.5553
C74 C 0.1868(2) 0.0352(4) 0.3385(2)
H58 H 0.1968 0.1209 0.3612
H59 H 0.1312 0.0317 0.2966
H60 H 0.2285 0.0161 0.3186
C75 C 0.1226(2) -0.0395(4) 0.4275(2)
H61 H 0.1235 -0.1057 0.4639
H62 H 0.0687 -0.0409 0.3832
H63 H 0.1311 0.0446 0.4521
C76 C 0.3157(3) -0.2479(4) 0.5226(3)
H64 H 0.3141 -0.3045 0.4801
C77 C 0.4016(3) -0.2691(4) 0.5917(2)
H65 H 0.4465 -0.2504 0.5759
H66 H 0.4059 -0.3581 0.6089
H67 H 0.4061 -0.2119 0.6337
C78 C 0.2440(3) -0.2914(4) 0.5448(2)
H68 H 0.2421 -0.2349 0.5847
H69 H 0.2541 -0.3796 0.5639
H70 H 0.1909 -0.2871 0.4998
C79? C 0.3426(8) -0.2143(11) 0.5530(7)
H71? H 0.4047 -0.2089 0.5784
C80? C 0.3182(8) -0.3360(10) 0.5021(6)
H72? H 0.2578 -0.3478 0.4811
H73? H 0.3458 -0.4108 0.5329
H74? H 0.3355 -0.3262 0.4602
C81? C 0.3090(9) -0.2227(11) 0.6163(6)
H75? H 0.3243 -0.1449 0.6475
H76? H 0.3334 -0.2974 0.6487
H77? H 0.2484 -0.2312 0.5923
loop_
_geom_bond_atom_site_label_1
_geom_bond_atom_site_label_2
_geom_bond_site_symmetry_1
_geom_bond_site_symmetry_2
Si1 C23 1_555 1_555
Si2 C50 1_555 1_555
C1 C4 1_555 1_555
C2 C5 1_555 1_555
C3 C12 1_555 1_555
C4 C15 1_555 1_555
C5 C8 1_555 1_555
C6 C17 1_555 1_555
C7 C11 1_555 1_555
C8 H1 1_555 1_555
C9 C18 1_555 1_555
C10 C12 1_555 1_555
C11 C51 1_555 1_555
C12 H2 1_555 1_555
C13 C18 1_555 1_555
C14 C5 1_555 1_555
H3 C14 1_555 1_555
C15 C19 1_555 1_555
C16 C19 1_555 1_555
C17 C14 1_555 1_555
H4 C17 1_555 1_555
C18 C32 1_555 1_555
C19 H5 1_555 1_555
C20 C3 1_555 1_555
C21 C7 1_555 1_555
H6 C21 1_555 1_555
C22 C1 1_555 1_555
C23 H7 1_555 1_555
C24 C10 1_555 1_555
C25 C21 1_555 1_555
C26 C25 1_555 1_555
C27 H8 1_555 1_555
C28 C9 1_555 1_555
C29 Si1 1_555 1_555
C30 C3 1_555 1_555
C31 C9 1_555 1_555
C32 C6 1_555 1_555
C33 C15 1_555 1_555
H9 C33 1_555 1_555
C34 C16 1_555 1_555
C35 Si1 1_555 1_555
H10 C35 1_555 1_555
C36 C31 1_555 1_555
C37 C30 1_555 1_555
C38 C26 1_555 1_555
C39 C13 1_555 1_555
H11 C39 1_555 1_555
C40 H12 1_555 1_555
C41 C20 1_555 1_555
H13 C41 1_555 1_555
C42 C36 1_555 1_555
H14 C42 1_555 1_555
C43 C6 1_555 1_555
H15 C43 1_555 1_555
C44 C10 1_555 1_555
H16 C44 1_555 1_555
C45 C36 1_555 1_555
H17 C45 1_555 1_555
C46 C25 1_555 1_555
C47 C38 1_555 1_555
C48 C40 1_555 1_555
H18 C48 1_555 1_555
C49 C7 1_555 1_555
H19 C49 1_555 1_555
C50 H20 1_555 1_555
C51 Si2 1_555 1_555
C52 Si1 1_555 1_555
H21 C52 1_555 1_555
C53 C34 1_555 1_555
H22 C53 1_555 1_555
C54 C26 1_555 1_555
C55 C28 1_555 1_555
H23 C55 1_555 1_555
C56 C13 1_555 1_555
H24 C56 1_555 1_555
C57 C47 1_555 1_555
H25 C57 1_555 1_555
C58 C46 1_555 1_555
H26 C58 1_555 1_555
C59 C35 1_555 1_555
H27 C59 1_555 1_555
H28 C59 1_555 1_555
H29 C59 1_555 1_555
C60 Si2 1_555 1_555
H30 C60 1_555 1_555
C61 C28 1_555 1_555
H31 C61 1_555 1_555
C62 C54 1_555 1_555
H32 C62 1_555 1_555
C63 C37 1_555 1_555
H33 C63 1_555 1_555
C64 C23 1_555 1_555
H34 C64 1_555 1_555
H35 C64 1_555 1_555
H36 C64 1_555 1_555
C65 C47 1_555 1_555
H37 C65 1_555 1_555
C66 C20 1_555 1_555
H38 C66 1_555 1_555
C67 C35 1_555 1_555
H39 C67 1_555 1_555
H40 C67 1_555 1_555
H41 C67 1_555 1_555
C68 C37 1_555 1_555
H42 C68 1_555 1_555
C69 C23 1_555 1_555
H43 C69 1_555 1_555
H44 C69 1_555 1_555
H45 C69 1_555 1_555
C70 C60 1_555 1_555
H46 C70 1_555 1_555
H47 C70 1_555 1_555
H48 C70 1_555 1_555
C71 C52 1_555 1_555
H49 C71 1_555 1_555
H50 C71 1_555 1_555
H51 C71 1_555 1_555
C72 C52 1_555 1_555
H52 C72 1_555 1_555
H53 C72 1_555 1_555
H54 C72 1_555 1_555
C73 C60 1_555 1_555
H55 C73 1_555 1_555
H56 C73 1_555 1_555
H57 C73 1_555 1_555
C74 C50 1_555 1_555
H58 C74 1_555 1_555
H59 C74 1_555 1_555
H60 C74 1_555 1_555
C75 C50 1_555 1_555
H61 C75 1_555 1_555
H62 C75 1_555 1_555
H63 C75 1_555 1_555
C76 Si2 1_555 1_555
H64 C76 1_555 1_555
C77 C76 1_555 1_555
H65 C77 1_555 1_555
H66 C77 1_555 1_555
H67 C77 1_555 1_555
C78 C76 1_555 1_555
H68 C78 1_555 1_555
H69 C78 1_555 1_555
H70 C78 1_555 1_555
C2 C29 1_555 1_555
C8 C32 1_555 1_555
C16 C31 1_555 1_555
C22 C24 1_555 1_555
C27 C33 1_555 1_555
C27 C34 1_555 1_555
C30 C38 1_555 1_555
C39 C55 1_555 1_555
C40 C46 1_555 1_555
C41 C44 1_555 1_555
C42 C61 1_555 1_555
C43 C56 1_555 1_555
C45 C53 1_555 1_555
C48 C54 1_555 1_555
C49 C58 1_555 1_555
C57 C62 1_555 1_555
C63 C66 1_555 1_555
C65 C68 1_555 1_555

#END
