
#######################################################################
#
#                 Cambridge Crystallographic Data Centre
#                                CCDC 
#
#######################################################################
#
# If this CIF has been generated from an entry in the Cambridge 
# Structural Database, then it will include bibliographic, chemical, 
# crystal, experimental, refinement or atomic coordinate data resulting 
# from the CCDC's data processing and validation procedures.
#
#######################################################################

data_NEMKUO
_chemical_formula_moiety         'C30 H16'
_chemical_name_systematic        (-)-(M)-2,15-diethynylhexahelicene
_symmetry_cell_setting           trigonal
_symmetry_space_group_name_H-M   'P 32 2 1'
_symmetry_Int_Tables_number      154
_space_group_name_Hall           'P 32 2"'
loop_
_symmetry_equiv_pos_site_id
_symmetry_equiv_pos_as_xyz
1 x,y,z
2 -y,x-y,2/3+z
3 -x+y,-x,1/3+z
4 x-y,-y,1/3-z
5 -x,-x+y,2/3-z
6 y,x,-z
_cell_length_a                   10.06360(10)
_cell_length_b                   10.06360(10)
_cell_length_c                   16.2980(2)
_cell_angle_alpha                90
_cell_angle_beta                 90
_cell_angle_gamma                120
_cell_volume                     1429.46
_exptl_crystal_colour            yellow
_exptl_crystal_description       irregular
_cell_formula_units_Z            3
loop_
_atom_site_label
_atom_site_type_symbol
_atom_site_fract_x
_atom_site_fract_y
_atom_site_fract_z
C1 C 0.7717(7) -0.4639(6) 0.3342(4)
H1 H 0.7724 -0.5542 0.3178
C2 C 0.7709(6) -0.3517(5) 0.3545(3)
C3 C 0.7695(5) -0.2143(5) 0.3777(3)
C4 C 0.6356(6) -0.2042(7) 0.3657(3)
H2 H 0.5436 -0.2902 0.3465
C5 C 0.6414(7) -0.0671(8) 0.3823(3)
H3 H 0.5527 -0.0588 0.3728
C6 C 0.7754(7) 0.0615(7) 0.4132(3)
C7 C 0.9057(6) 0.0472(5) 0.4322(3)
C8 C 0.8992(5) -0.0928(5) 0.4102(2)
H4 H 0.9875 -0.1025 0.4184
C9 C 0.7875(10) 0.2090(9) 0.4227(4)
H5 H 0.6996 0.2188 0.4133
C10 C 0.9179(10) 0.3316(8) 0.4442(4)
H6 H 0.9241 0.4289 0.4458
C11 C 1.0446(9) 0.3204(7) 0.4644(3)
C12 C 1.0409(6) 0.1770(6) 0.4677(3)
C13 C 1.1894(10) 0.4581(6) 0.4775(4)
H7 H 1.1931 0.5543 0.4783
C14 C 1.3145(10) 0.4541(8) 0.4882(4)
H8 H 1.4099 0.5475 0.4882
C15 C 1.3129(8) 0.3129(8) 0.5000
C16 C 1.1724(6) 0.1724(6) 0.5000
C1E C 0.5361(6) -0.2283(7) 0.6658(4)
H1E H 0.4458 -0.2276 0.6822
C2E C 0.6483(5) -0.2291(6) 0.6455(3)
C3E C 0.7857(5) -0.2305(5) 0.6223(3)
C4E C 0.7958(7) -0.3644(6) 0.6343(3)
H2E H 0.7098 -0.4564 0.6535
C5E C 0.9329(8) -0.3586(7) 0.6177(3)
H3E H 0.9412 -0.4473 0.6272
C6E C 1.0615(7) -0.2246(7) 0.5868(3)
C7E C 1.0472(5) -0.0943(6) 0.5678(3)
C8E C 0.9072(5) -0.1008(5) 0.5898(2)
H4E H 0.8975 -0.0125 0.5816
C9E C 1.2090(9) -0.2125(10) 0.5773(4)
H5E H 1.2188 -0.3004 0.5867
C10E C 1.3316(8) -0.0821(10) 0.5558(4)
H6E H 1.4289 -0.0759 0.5542
C11E C 1.3204(7) 0.0446(9) 0.5356(3)
C12E C 1.1770(6) 0.0409(6) 0.5323(3)
C13E C 1.4581(6) 0.1894(10) 0.5225(4)
H7E H 1.5543 0.1931 0.5217
C14E C 1.4541(8) 0.3145(10) 0.5118(4)
H8E H 1.5475 0.4099 0.5118
loop_
_geom_bond_atom_site_label_1
_geom_bond_atom_site_label_2
_geom_bond_site_symmetry_1
_geom_bond_site_symmetry_2
C1 H1 1_555 1_555
C2 C1 1_555 1_555
C3 C2 1_555 1_555
C4 C3 1_555 1_555
H2 C4 1_555 1_555
C5 C4 1_555 1_555
H3 C5 1_555 1_555
C6 C5 1_555 1_555
C7 C6 1_555 1_555
C8 C3 1_555 1_555
H4 C8 1_555 1_555
C9 C6 1_555 1_555
H5 C9 1_555 1_555
C10 C9 1_555 1_555
H6 C10 1_555 1_555
C11 C10 1_555 1_555
C12 C7 1_555 1_555
C13 C11 1_555 1_555
H7 C13 1_555 1_555
C14 C13 1_555 1_555
H8 C14 1_555 1_555
C15 C14 1_555 1_555
C16 C12 1_555 1_555
C1E H1E 1_555 1_555
C2E C1E 1_555 1_555
C3E C2E 1_555 1_555
C4E C3E 1_555 1_555
H2E C4E 1_555 1_555
C5E C4E 1_555 1_555
H3E C5E 1_555 1_555
C6E C5E 1_555 1_555
C7E C6E 1_555 1_555
C8E C3E 1_555 1_555
H4E C8E 1_555 1_555
C9E C6E 1_555 1_555
H5E C9E 1_555 1_555
C10E C9E 1_555 1_555
H6E C10E 1_555 1_555
C11E C10E 1_555 1_555
C12E C16 1_555 1_555
C13E C11E 1_555 1_555
H7E C13E 1_555 1_555
C14E C15 1_555 1_555
H8E C14E 1_555 1_555
C7 C8 1_555 1_555
C11 C12 1_555 1_555
C15 C16 1_555 1_555
C7E C8E 1_555 1_555
C7E C12E 1_555 1_555
C11E C12E 1_555 1_555
C13E C14E 1_555 1_555

#END
