
#######################################################################
#
#                 Cambridge Crystallographic Data Centre
#                                CCDC 
#
#######################################################################
#
# If this CIF has been generated from an entry in the Cambridge 
# Structural Database, then it will include bibliographic, chemical, 
# crystal, experimental, refinement or atomic coordinate data resulting 
# from the CCDC's data processing and validation procedures.
#
#######################################################################

data_NEMKOI
_chemical_formula_moiety         'C30 H16,0.5(C1 H2 Cl2)'
_chemical_name_systematic        
'2,15-diethynylhexahelicene dichloromethane solvate'
_symmetry_cell_setting           monoclinic
_symmetry_space_group_name_H-M   'P 21/c'
_symmetry_Int_Tables_number      14
_space_group_name_Hall           '-P 2ybc'
loop_
_symmetry_equiv_pos_site_id
_symmetry_equiv_pos_as_xyz
1 x,y,z
2 -x,1/2+y,1/2-z
3 -x,-y,-z
4 x,1/2-y,1/2+z
_cell_length_a                   16.99170(10)
_cell_length_b                   12.49930(10)
_cell_length_c                   19.5520(2)
_cell_angle_alpha                90
_cell_angle_beta                 91.3170(10)
_cell_angle_gamma                90
_cell_volume                     4151.44
_exptl_crystal_colour            colorless
_exptl_crystal_description       plate
_cell_formula_units_Z            8
loop_
_atom_site_label
_atom_site_type_symbol
_atom_site_fract_x
_atom_site_fract_y
_atom_site_fract_z
C1 C 0.22128(10) 0.58790(13) 0.34129(8)
H1 H 0.2072 0.5898 0.3869
C2 C 0.17019(10) 0.54132(13) 0.29375(8)
C3 C 0.29385(9) 0.63243(13) 0.32279(8)
C4 C 0.13930(10) 0.86058(13) 0.31389(8)
C5 C 0.18749(9) 0.78105(13) 0.42047(8)
C6 C 0.20090(10) 0.82638(13) 0.35584(8)
H2 H 0.2523 0.8335 0.3411
C7 C 0.15482(10) 0.90738(14) 0.24841(9)
C8 C 0.10924(10) 0.78084(13) 0.44471(9)
C9 C 0.09794(10) 0.49308(14) 0.31443(9)
C10 C 0.19085(11) 0.53797(14) 0.22357(9)
H3 H 0.1557 0.5110 0.1907
C11 C 0.25108(10) 0.74028(13) 0.46431(8)
C12 C 0.31626(10) 0.61958(14) 0.25353(8)
C13 C 0.04706(10) 0.81323(14) 0.40030(9)
H4 H -0.0045 0.8090 0.4152
C14 C 0.34873(9) 0.68266(13) 0.37180(8)
C15 C 0.09542(11) 0.75440(14) 0.51447(9)
H5 H 0.0442 0.7485 0.5297
C16 C 0.26285(11) 0.57480(14) 0.20527(9)
H6 H 0.2771 0.5703 0.1597
C17 C 0.23610(10) 0.73226(13) 0.53493(8)
C18 C 0.32895(10) 0.71453(13) 0.44059(8)
C19 C 0.06079(10) 0.85061(14) 0.33596(9)
H7 H 0.0189 0.8693 0.3069
C20 C 0.15681(11) 0.73788(14) 0.55835(9)
H8 H 0.1475 0.7300 0.6048
C21 C 0.39477(11) 0.64532(15) 0.23441(9)
H9 H 0.4087 0.6412 0.1888
C22 C 0.39164(10) 0.72077(14) 0.49011(9)
C23 C 0.29979(11) 0.72037(14) 0.58286(9)
H10 H 0.2899 0.7108 0.6290
C24 C 0.42820(10) 0.69168(14) 0.35206(9)
C25 C 0.48831(10) 0.71453(15) 0.40162(10)
H11 H 0.5399 0.7242 0.3879
C26 C 0.37473(11) 0.72307(15) 0.56115(9)
H12 H 0.4160 0.7265 0.5931
C27 C 0.16600(11) 0.94729(15) 0.19441(10)
H13 H 0.1748 0.9786 0.1521
C28 C 0.47103(10) 0.72230(15) 0.46875(10)
H14 H 0.5116 0.7287 0.5012
C29 C 0.44858(10) 0.67536(15) 0.28210(9)
H15 H 0.5004 0.6858 0.2694
C30 C 0.03868(11) 0.44999(16) 0.33021(10)
H16 H -0.0077 0.4163 0.3426
C31 C 0.25469(10) 0.12330(13) 0.41909(8)
H17 H 0.3004 0.1475 0.3990
C32 C 0.28843(9) 0.35678(12) 0.39499(8)
C33 C 0.21516(9) 0.36269(12) 0.42729(8)
H18 H 0.1705 0.3374 0.4042
C34 C 0.20761(10) 0.40470(13) 0.49202(8)
C35 C 0.17422(9) 0.19491(13) 0.31953(8)
C36 C 0.18178(10) 0.14194(13) 0.38536(8)
C37 C 0.23589(9) 0.25754(13) 0.28861(8)
C38 C 0.29664(9) 0.31661(13) 0.32581(8)
C39 C 0.13045(10) 0.41391(14) 0.52062(8)
C40 C 0.35439(10) 0.40318(13) 0.42967(9)
C41 C 0.10416(10) 0.17801(13) 0.28092(9)
C42 C 0.26063(11) 0.07009(13) 0.48124(9)
C43 C 0.11324(10) 0.09985(14) 0.41608(9)
C44 C 0.36466(10) 0.34686(13) 0.29036(9)
C45 C 0.27514(11) 0.44170(15) 0.52815(9)
H19 H 0.2712 0.4660 0.5729
C46 C 0.23567(11) 0.26336(13) 0.21593(9)
C47 C 0.34627(11) 0.44164(15) 0.49707(10)
H20 H 0.3904 0.4675 0.5208
C48 C 0.16712(11) 0.23283(14) 0.17731(9)
H21 H 0.1673 0.2361 0.1298
C49 C 0.42610(10) 0.41711(14) 0.39386(10)
H22 H 0.4706 0.4425 0.4171
C50 C 0.36675(11) 0.33596(14) 0.21817(9)
H23 H 0.4127 0.3528 0.1955
C51 C 0.06648(11) 0.42174(15) 0.54262(9)
H24 H 0.0162 0.4279 0.5599
C52 C 0.42974(10) 0.39395(15) 0.32701(10)
H25 H 0.4757 0.4089 0.3039
C53 C 0.19116(12) 0.03528(15) 0.51315(9)
H26 H 0.1940 0.0027 0.5559
C54 C 0.10189(11) 0.19920(14) 0.20927(9)
H27 H 0.0552 0.1898 0.1843
C55 C 0.30291(11) 0.30147(14) 0.18179(9)
H28 H 0.3031 0.3028 0.1342
C56 C 0.33622(12) 0.04897(15) 0.51259(9)
C57 C 0.03610(10) 0.13610(15) 0.31332(10)
H29 H -0.0113 0.1315 0.2887
C58 C 0.03953(10) 0.10324(14) 0.37885(10)
H30 H -0.0064 0.0825 0.4002
C59 C 0.11986(11) 0.04998(15) 0.48069(10)
H31 H 0.0745 0.0265 0.5018
C60 C 0.39851(13) 0.03065(18) 0.53891(10)
H32 H 0.4473 0.0163 0.5595
Cl1 Cl 0.41312(4) 0.52951(8) 0.83307(3)
Cl2 Cl 0.37253(5) 0.50268(8) 0.68793(4)
C61 C 0.35398(12) 0.46137(19) 0.77215(10)
H33 H 0.2990 0.4739 0.7818
H34 H 0.3637 0.3851 0.7761
Cl3? Cl 0.4319(5) 0.4785(9) 0.8327(4)
Cl4? Cl 0.3677(7) 0.4728(10) 0.6971(5)
C62? C 0.3635(12) 0.5345(17) 0.7754(7)
H35? H 0.3110 0.5270 0.7933
H36? H 0.3743 0.6103 0.7702
loop_
_geom_bond_atom_site_label_1
_geom_bond_atom_site_label_2
_geom_bond_site_symmetry_1
_geom_bond_site_symmetry_2
C1 H1 1_555 1_555
C2 C1 1_555 1_555
C3 C1 1_555 1_555
C4 C6 1_555 1_555
C5 C6 1_555 1_555
C6 H2 1_555 1_555
C7 C4 1_555 1_555
C8 C5 1_555 1_555
C9 C2 1_555 1_555
C10 C2 1_555 1_555
H3 C10 1_555 1_555
C11 C5 1_555 1_555
C12 C3 1_555 1_555
C13 C8 1_555 1_555
H4 C13 1_555 1_555
C14 C3 1_555 1_555
C15 C8 1_555 1_555
H5 C15 1_555 1_555
C16 C10 1_555 1_555
H6 C16 1_555 1_555
C17 C11 1_555 1_555
C18 C11 1_555 1_555
C19 C4 1_555 1_555
H7 C19 1_555 1_555
C20 C15 1_555 1_555
H8 C20 1_555 1_555
C21 C12 1_555 1_555
H9 C21 1_555 1_555
C22 C18 1_555 1_555
C23 C17 1_555 1_555
H10 C23 1_555 1_555
C24 C14 1_555 1_555
C25 C24 1_555 1_555
H11 C25 1_555 1_555
C26 C22 1_555 1_555
H12 C26 1_555 1_555
C27 C7 1_555 1_555
H13 C27 1_555 1_555
C28 C22 1_555 1_555
H14 C28 1_555 1_555
C29 C21 1_555 1_555
H15 C29 1_555 1_555
C30 C9 1_555 1_555
H16 C30 1_555 1_555
C31 H17 1_555 1_555
C32 C33 1_555 1_555
C33 H18 1_555 1_555
C34 C33 1_555 1_555
C35 C36 1_555 1_555
C36 C31 1_555 1_555
C37 C35 1_555 1_555
C38 C32 1_555 1_555
C39 C34 1_555 1_555
C40 C32 1_555 1_555
C41 C35 1_555 1_555
C42 C31 1_555 1_555
C43 C36 1_555 1_555
C44 C38 1_555 1_555
C45 C34 1_555 1_555
H19 C45 1_555 1_555
C46 C37 1_555 1_555
C47 C40 1_555 1_555
H20 C47 1_555 1_555
C48 C46 1_555 1_555
H21 C48 1_555 1_555
C49 C40 1_555 1_555
H22 C49 1_555 1_555
C50 C44 1_555 1_555
H23 C50 1_555 1_555
C51 C39 1_555 1_555
H24 C51 1_555 1_555
C52 C44 1_555 1_555
H25 C52 1_555 1_555
C53 C42 1_555 1_555
H26 C53 1_555 1_555
C54 C41 1_555 1_555
H27 C54 1_555 1_555
C55 C46 1_555 1_555
H28 C55 1_555 1_555
C56 C42 1_555 1_555
C57 C41 1_555 1_555
H29 C57 1_555 1_555
C58 C43 1_555 1_555
H30 C58 1_555 1_555
C59 C43 1_555 1_555
H31 C59 1_555 1_555
C60 C56 1_555 1_555
H32 C60 1_555 1_555
Cl1 C61 1_555 1_555
Cl2 C61 1_555 1_555
C61 H33 1_555 1_555
H34 C61 1_555 1_555
C12 C16 1_555 1_555
C13 C19 1_555 1_555
C14 C18 1_555 1_555
C17 C20 1_555 1_555
C23 C26 1_555 1_555
C24 C29 1_555 1_555
C25 C28 1_555 1_555
C37 C38 1_555 1_555
C45 C47 1_555 1_555
C48 C54 1_555 1_555
C49 C52 1_555 1_555
C50 C55 1_555 1_555
C53 C59 1_555 1_555
C57 C58 1_555 1_555

#END
