
#######################################################################
#
#                 Cambridge Crystallographic Data Centre
#                                CCDC 
#
#######################################################################
#
# If this CIF has been generated from an entry in the Cambridge 
# Structural Database, then it will include bibliographic, chemical, 
# crystal, experimental, refinement or atomic coordinate data resulting 
# from the CCDC's data processing and validation procedures.
#
#######################################################################

data_NEMMAU
_chemical_formula_moiety         'C20 H14 N2'
_chemical_name_systematic        4-phenyl-2-(2-pyridyl)quinoline
_symmetry_cell_setting           monoclinic
_symmetry_space_group_name_H-M   'P 21/n'
_symmetry_Int_Tables_number      14
_space_group_name_Hall           '-P 2yn'
loop_
_symmetry_equiv_pos_site_id
_symmetry_equiv_pos_as_xyz
1 x,y,z
2 1/2-x,1/2+y,1/2-z
3 -x,-y,-z
4 1/2+x,1/2-y,1/2+z
_cell_length_a                   10.0625(5)
_cell_length_b                   7.0841(4)
_cell_length_c                   20.0074(11)
_cell_angle_alpha                90
_cell_angle_beta                 97.1940(10)
_cell_angle_gamma                90
_cell_volume                     1414.98
_exptl_crystal_colour            'light yellow'
_exptl_crystal_description       plate
_cell_formula_units_Z            4
loop_
_atom_site_label
_atom_site_type_symbol
_atom_site_fract_x
_atom_site_fract_y
_atom_site_fract_z
N1 N 0.73683(11) 0.80415(16) 0.01370(5)
N2 N 0.39015(10) 0.70397(14) 0.02518(5)
C1 C 0.81635(14) 0.8451(2) -0.03291(7)
H1 H 0.9070 0.8634 -0.0188
C2 C 0.77219(14) 0.8621(2) -0.10089(7)
H2 H 0.8314 0.8914 -0.1315
C3 C 0.63826(14) 0.83430(19) -0.12199(7)
H3 H 0.6052 0.8442 -0.1674
C4 C 0.55354(13) 0.79164(18) -0.07499(6)
H4 H 0.4627 0.7721 -0.0882
C5 C 0.60611(12) 0.77835(16) -0.00750(6)
C6 C 0.51801(12) 0.73628(16) 0.04535(6)
C7 C 0.57354(12) 0.73271(17) 0.11401(6)
H5 H 0.6644 0.7560 0.1257
C8 C 0.49437(12) 0.69527(16) 0.16335(6)
C9 C 0.35461(12) 0.66517(16) 0.14361(6)
C10 C 0.30815(12) 0.66925(16) 0.07330(6)
C11 C 0.17074(13) 0.63792(18) 0.05169(7)
H6 H 0.1402 0.6386 0.0059
C12 C 0.08233(13) 0.60685(19) 0.09670(7)
H7 H -0.0077 0.5859 0.0816
C13 C 0.12744(13) 0.60647(19) 0.16634(7)
H8 H 0.0667 0.5857 0.1970
C14 C 0.25905(13) 0.63617(19) 0.18917(6)
H9 H 0.2868 0.6375 0.2353
C15 C 0.55623(11) 0.68674(17) 0.23501(6)
C16 C 0.53748(12) 0.53092(18) 0.27516(6)
H10 H 0.4823 0.4328 0.2577
C17 C 0.60002(12) 0.52015(19) 0.34095(6)
H11 H 0.5869 0.4149 0.3672
C18 C 0.68171(13) 0.6654(2) 0.36760(6)
H12 H 0.7232 0.6589 0.4118
C19 C 0.70131(13) 0.8204(2) 0.32813(7)
H13 H 0.7562 0.9185 0.3459
C20 C 0.63991(12) 0.83125(19) 0.26210(6)
H14 H 0.6548 0.9356 0.2358
loop_
_geom_bond_atom_site_label_1
_geom_bond_atom_site_label_2
_geom_bond_site_symmetry_1
_geom_bond_site_symmetry_2
N1 C1 1_555 1_555
N2 C6 1_555 1_555
C1 H1 1_555 1_555
C2 C1 1_555 1_555
H2 C2 1_555 1_555
C3 C2 1_555 1_555
H3 C3 1_555 1_555
C4 C3 1_555 1_555
H4 C4 1_555 1_555
C5 N1 1_555 1_555
C6 C5 1_555 1_555
C7 C6 1_555 1_555
H5 C7 1_555 1_555
C8 C7 1_555 1_555
C9 C8 1_555 1_555
C10 N2 1_555 1_555
C11 C10 1_555 1_555
H6 C11 1_555 1_555
C12 C11 1_555 1_555
H7 C12 1_555 1_555
C13 C12 1_555 1_555
H8 C13 1_555 1_555
C14 C9 1_555 1_555
H9 C14 1_555 1_555
C15 C8 1_555 1_555
C16 C15 1_555 1_555
H10 C16 1_555 1_555
C17 C16 1_555 1_555
H11 C17 1_555 1_555
C18 C17 1_555 1_555
H12 C18 1_555 1_555
C19 C18 1_555 1_555
H13 C19 1_555 1_555
C20 C15 1_555 1_555
H14 C20 1_555 1_555
C4 C5 1_555 1_555
C9 C10 1_555 1_555
C13 C14 1_555 1_555
C19 C20 1_555 1_555

#END
