
#######################################################################
#
#                 Cambridge Crystallographic Data Centre
#                                CCDC 
#
#######################################################################
#
# If this CIF has been generated from an entry in the Cambridge 
# Structural Database, then it will include bibliographic, chemical, 
# crystal, experimental, refinement or atomic coordinate data resulting 
# from the CCDC's data processing and validation procedures.
#
#######################################################################

data_NEMQIG
_chemical_formula_moiety         'C18 H24 N2 O6'
_chemical_name_systematic        
'bis(\a-Aminoisobutyric acid methyl ester)terephthalamide'
_symmetry_cell_setting           monoclinic
_symmetry_space_group_name_H-M   'P 21/c'
_symmetry_Int_Tables_number      14
_space_group_name_Hall           '-P 2ybc'
loop_
_symmetry_equiv_pos_site_id
_symmetry_equiv_pos_as_xyz
1 x,y,z
2 -x,1/2+y,1/2-z
3 -x,-y,-z
4 x,1/2-y,1/2+z
_cell_length_a                   11.288(5)
_cell_length_b                   9.657(4)
_cell_length_c                   9.601(4)
_cell_angle_alpha                90
_cell_angle_beta                 110.008(7)
_cell_angle_gamma                90
_cell_volume                     983.421
_exptl_crystal_colour            colorless
_chemical_melting_point          '220-222 deg.C'
_cell_formula_units_Z            2
_exptl_crystal_recrystallization_method methanol/water
loop_
_atom_site_label
_atom_site_type_symbol
_atom_site_fract_x
_atom_site_fract_y
_atom_site_fract_z
C1 C 0.59851(19) 0.47416(19) -0.0525(2)
H1 H 0.670(2) 0.452(2) -0.089(2)
C2 C 0.56970(18) 0.37849(17) 0.03985(18)
H2 H 0.543(3) 0.655(3) -0.155(3)
C3 C 0.5278(2) 0.59412(19) -0.0919(2)
C4 C 0.64178(18) 0.24630(18) 0.08808(19)
O1 O 0.65500(16) 0.19671(14) 0.21044(15)
N1 N 0.68844(16) 0.18486(16) -0.00605(19)
H3 H 0.673(2) 0.218(2) -0.091(3)
C5 C 0.75208(19) 0.0499(2) 0.0271(2)
C6 C 0.6559(3) -0.0651(2) 0.0143(4)
H4 H 0.613(4) -0.064(4) 0.085(5)
H5 H 0.702(3) -0.156(4) 0.042(4)
H6 H 0.577(3) -0.065(3) -0.092(4)
C7 C 0.8178(3) 0.0259(3) -0.0862(3)
H7 H 0.863(3) -0.053(4) -0.063(4)
H8 H 0.763(3) 0.022(3) -0.188(4)
H9 H 0.881(4) 0.113(5) -0.074(5)
C8 C 0.8490(2) 0.0446(2) 0.1827(3)
O2 O 0.8600(2) -0.0490(2) 0.2673(2)
O3 O 0.92515(18) 0.1531(2) 0.2088(2)
C9 C 1.0278(4) 0.1492(5) 0.3507(5)
H10 H 1.063(3) 0.044(4) 0.369(4)
H11 H 0.995(4) 0.153(5) 0.430(5)
H12 H 1.085(6) 0.246(7) 0.352(6)
C1B C 0.40149(19) 0.52584(19) 0.0525(2)
H1B H 0.330(2) 0.548(2) 0.089(2)
C2B C 0.43030(18) 0.62151(17) -0.03985(18)
H2B H 0.457(3) 0.345(3) 0.155(3)
C3B C 0.4722(2) 0.40588(19) 0.0919(2)
C4B C 0.35822(18) 0.75370(18) -0.08808(19)
O1B O 0.34500(16) 0.80329(14) -0.21044(15)
N1B N 0.31156(16) 0.81514(16) 0.00605(19)
H3B H 0.327(2) 0.782(2) 0.091(3)
C5B C 0.24792(19) 0.9501(2) -0.0271(2)
C6B C 0.3441(3) 1.0651(2) -0.0143(4)
H4B H 0.387(4) 1.064(4) -0.085(5)
H5B H 0.298(3) 1.156(4) -0.042(4)
H6B H 0.423(3) 1.065(3) 0.092(4)
C7B C 0.1822(3) 0.9741(3) 0.0862(3)
H7B H 0.137(3) 1.053(4) 0.063(4)
H8B H 0.237(3) 0.978(3) 0.188(4)
H9B H 0.119(4) 0.887(5) 0.074(5)
C8B C 0.1510(2) 0.9554(2) -0.1827(3)
O2B O 0.1400(2) 1.0490(2) -0.2673(2)
O3B O 0.07485(18) 0.8469(2) -0.2088(2)
C9B C -0.0278(4) 0.8508(5) -0.3507(5)
H10B H -0.063(3) 0.956(4) -0.369(4)
H11B H 0.005(4) 0.847(5) -0.430(5)
H12B H -0.085(6) 0.754(7) -0.352(6)
loop_
_geom_bond_atom_site_label_1
_geom_bond_atom_site_label_2
_geom_bond_site_symmetry_1
_geom_bond_site_symmetry_2
C1 H1 1_555 1_555
C2 C1 1_555 1_555
H2 C3 1_555 1_555
C3 C1 1_555 1_555
C4 C2 1_555 1_555
O1 C4 1_555 1_555
N1 C4 1_555 1_555
H3 N1 1_555 1_555
C5 N1 1_555 1_555
C6 C5 1_555 1_555
H4 C6 1_555 1_555
H5 C6 1_555 1_555
H6 C6 1_555 1_555
C7 C5 1_555 1_555
H7 C7 1_555 1_555
H8 C7 1_555 1_555
H9 C7 1_555 1_555
C8 C5 1_555 1_555
O2 C8 1_555 1_555
O3 C8 1_555 1_555
C9 O3 1_555 1_555
H10 C9 1_555 1_555
H11 C9 1_555 1_555
H12 C9 1_555 1_555
C1B H1B 1_555 1_555
C2B C3 1_555 1_555
H2B C3B 1_555 1_555
C3B C2 1_555 1_555
C4B C2B 1_555 1_555
O1B C4B 1_555 1_555
N1B C4B 1_555 1_555
H3B N1B 1_555 1_555
C5B N1B 1_555 1_555
C6B C5B 1_555 1_555
H4B C6B 1_555 1_555
H5B C6B 1_555 1_555
H6B C6B 1_555 1_555
C7B C5B 1_555 1_555
H7B C7B 1_555 1_555
H8B C7B 1_555 1_555
H9B C7B 1_555 1_555
C8B C5B 1_555 1_555
O2B C8B 1_555 1_555
O3B C8B 1_555 1_555
C9B O3B 1_555 1_555
H10B C9B 1_555 1_555
H11B C9B 1_555 1_555
H12B C9B 1_555 1_555
C1B C2B 1_555 1_555
C1B C3B 1_555 1_555

#END
