
#######################################################################
#
#                 Cambridge Crystallographic Data Centre
#                                CCDC 
#
#######################################################################
#
# If this CIF has been generated from an entry in the Cambridge 
# Structural Database, then it will include bibliographic, chemical, 
# crystal, experimental, refinement or atomic coordinate data resulting 
# from the CCDC's data processing and validation procedures.
#
#######################################################################

data_NEMQEC
_chemical_name_common            
1,4-bis(N-(1-(Methoxycarbonyl)-1-methylpropyl)carbamoyl)benzene
_chemical_formula_moiety         'C22 H32 N2 O6'
_chemical_name_systematic        'bis(L-Isoleucine methyl ester)terephthalamide'
_symmetry_cell_setting           monoclinic
_symmetry_space_group_name_H-M   'P 21'
_symmetry_Int_Tables_number      4
_space_group_name_Hall           'P 2yb'
loop_
_symmetry_equiv_pos_site_id
_symmetry_equiv_pos_as_xyz
1 x,y,z
2 -x,1/2+y,-z
_cell_length_a                   10.148(7)
_cell_length_b                   10.645(7)
_cell_length_c                   11.592(8)
_cell_angle_alpha                90
_cell_angle_beta                 109.795(10)
_cell_angle_gamma                90
_cell_volume                     1178.24
_exptl_crystal_colour            colorless
_chemical_melting_point          '82-84 deg.C'
_cell_formula_units_Z            2
_exptl_crystal_recrystallization_method methanol/water
loop_
_atom_site_label
_atom_site_type_symbol
_atom_site_fract_x
_atom_site_fract_y
_atom_site_fract_z
O1 O 0.2519(3) 0.6331(2) 0.7435(2)
C1 C 0.2354(6) 0.7517(3) 0.6774(4)
H1 H 0.2078 0.8160 0.7227
H2 H 0.1649 0.7428 0.5981
H3 H 0.3227 0.7746 0.6680
N1 N 0.3181(2) 0.3101(2) 0.69608(19)
H4 H 0.386(3) 0.306(2) 0.6750(19)
C2 C 0.3019(3) 0.4185(3) 0.7664(2)
H5 H 0.213(3) 0.412(2) 0.776(2)
C3 C 0.2899(3) 0.5362(2) 0.6905(2)
O2 O 0.3114(3) 0.5435(2) 0.5966(2)
C4 C 0.4110(3) 0.4253(3) 0.8954(2)
H6 H 0.3806 0.4912 0.9398
C5 C 0.4118(5) 0.3020(3) 0.9628(4)
H7 H 0.3187 0.2835 0.9613
H8 H 0.4731 0.3096 1.0463
H9 H 0.4442 0.2355 0.9233
C6 C 0.5529(3) 0.4609(4) 0.8955(3)
H10 H 0.5470 0.5431 0.8579
H11 H 0.5810 0.4016 0.8447
C7 C 0.6665(5) 0.4648(5) 1.0213(5)
H12 H 0.7539 0.4886 1.0126
H13 H 0.6757 0.3833 1.0586
H14 H 0.6416 0.5251 1.0720
C8 C 0.2125(2) 0.2317(2) 0.6446(2)
O3 O 0.09922(17) 0.24180(17) 0.66092(19)
C9 C 0.2342(2) 0.1278(2) 0.56612(19)
C10 C 0.1193(2) 0.0562(2) 0.5022(2)
H15 H 0.032(2) 0.075(2) 0.511(2)
C11 C 0.1321(2) -0.0422(2) 0.4287(2)
H16 H 0.054(3) -0.082(3) 0.387(2)
C12 C 0.2603(2) -0.07077(18) 0.41849(18)
C13 C 0.3749(2) 0.0013(2) 0.4811(2)
H17 H 0.467(4) -0.014(3) 0.471(3)
C14 C 0.3632(2) 0.0990(2) 0.5549(3)
H18 H 0.448(3) 0.143(3) 0.603(2)
C15 C 0.2842(2) -0.17760(19) 0.34249(18)
O4 O 0.40151(16) -0.19620(17) 0.33756(17)
N2 N 0.1764(2) -0.24936(18) 0.28144(18)
H19 H 0.102(3) -0.241(2) 0.284(2)
C16 C 0.1917(3) -0.3510(2) 0.2037(2)
H20 H 0.274(3) -0.334(2) 0.1853(19)
C17 C 0.0729(3) -0.3443(3) 0.0837(2)
O5 O -0.0291(3) -0.2805(3) 0.0630(2)
C18 C 0.2071(3) -0.4798(2) 0.2680(2)
H21 H 0.2651 -0.4660 0.3538
C19 C 0.0677(4) -0.5302(3) 0.2693(4)
H22 H 0.0228 -0.4679 0.3031
H23 H 0.0831 -0.6049 0.3184
H24 H 0.0090 -0.5496 0.1870
C20 C 0.2843(4) -0.5747(3) 0.2168(3)
H25 H 0.2247 -0.5987 0.1350
H26 H 0.3674 -0.5353 0.2098
C21 C 0.3271(5) -0.6913(4) 0.2940(4)
H27 H 0.3745 -0.7476 0.2566
H28 H 0.2453 -0.7318 0.3004
H29 H 0.3887 -0.6688 0.3744
O6 O 0.0952(2) -0.4192(2) 0.00188(18)
C22 C -0.0122(5) -0.4286(5) -0.1169(3)
H30 H 0.0175 -0.4859 -0.1672
H31 H -0.0284 -0.3473 -0.1550
H32 H -0.0971 -0.4589 -0.1076
loop_
_geom_bond_atom_site_label_1
_geom_bond_atom_site_label_2
_geom_bond_site_symmetry_1
_geom_bond_site_symmetry_2
O1 C1 1_555 1_555
C1 H1 1_555 1_555
H2 C1 1_555 1_555
H3 C1 1_555 1_555
N1 H4 1_555 1_555
C2 N1 1_555 1_555
H5 C2 1_555 1_555
C3 O1 1_555 1_555
O2 C3 1_555 1_555
C4 C2 1_555 1_555
H6 C4 1_555 1_555
C5 C4 1_555 1_555
H7 C5 1_555 1_555
H8 C5 1_555 1_555
H9 C5 1_555 1_555
C6 C4 1_555 1_555
H10 C6 1_555 1_555
H11 C6 1_555 1_555
C7 C6 1_555 1_555
H12 C7 1_555 1_555
H13 C7 1_555 1_555
H14 C7 1_555 1_555
C8 N1 1_555 1_555
O3 C8 1_555 1_555
C9 C8 1_555 1_555
C10 C9 1_555 1_555
H15 C10 1_555 1_555
C11 C10 1_555 1_555
H16 C11 1_555 1_555
C12 C11 1_555 1_555
C13 C12 1_555 1_555
H17 C13 1_555 1_555
C14 C9 1_555 1_555
H18 C14 1_555 1_555
C15 C12 1_555 1_555
O4 C15 1_555 1_555
N2 C15 1_555 1_555
H19 N2 1_555 1_555
C16 N2 1_555 1_555
H20 C16 1_555 1_555
C17 C16 1_555 1_555
O5 C17 1_555 1_555
C18 C16 1_555 1_555
H21 C18 1_555 1_555
C19 C18 1_555 1_555
H22 C19 1_555 1_555
H23 C19 1_555 1_555
H24 C19 1_555 1_555
C20 C18 1_555 1_555
H25 C20 1_555 1_555
H26 C20 1_555 1_555
C21 C20 1_555 1_555
H27 C21 1_555 1_555
H28 C21 1_555 1_555
H29 C21 1_555 1_555
O6 C17 1_555 1_555
C22 O6 1_555 1_555
H30 C22 1_555 1_555
H31 C22 1_555 1_555
H32 C22 1_555 1_555
C2 C3 1_555 1_555
C13 C14 1_555 1_555

#END
