
#######################################################################
#
#                 Cambridge Crystallographic Data Centre
#                                CCDC 
#
#######################################################################
#
# If this CIF has been generated from an entry in the Cambridge 
# Structural Database, then it will include bibliographic, chemical, 
# crystal, experimental, refinement or atomic coordinate data resulting 
# from the CCDC's data processing and validation procedures.
#
#######################################################################

data_NEMQAY
_chemical_name_common            
1,4-bis(N-(1-(Methoxycarbonyl)-3-methylpropyl)carbamoyl)benzene
_chemical_formula_moiety         'C22 H32 N2 O6'
_chemical_name_systematic        'bis(L-Leucine methyl ester)terephthalamide'
_symmetry_cell_setting           monoclinic
_symmetry_space_group_name_H-M   'P 21'
_symmetry_Int_Tables_number      4
_space_group_name_Hall           'P 2yb'
loop_
_symmetry_equiv_pos_site_id
_symmetry_equiv_pos_as_xyz
1 x,y,z
2 -x,1/2+y,-z
_cell_length_a                   10.022(6)
_cell_length_b                   10.094(6)
_cell_length_c                   12.626(7)
_cell_angle_alpha                90
_cell_angle_beta                 108.719(9)
_cell_angle_gamma                90
_cell_volume                     1209.71
_exptl_crystal_colour            colorless
_chemical_melting_point          '144-146 deg.C'
_cell_formula_units_Z            2
_exptl_crystal_recrystallization_method methanol/water
loop_
_atom_site_label
_atom_site_type_symbol
_atom_site_fract_x
_atom_site_fract_y
_atom_site_fract_z
C1 C 0.3516(18) 1.2993(17) 1.1270(14)
H1 H 0.4033 1.3205 1.0770
H2 H 0.3831 1.3549 1.1920
H3 H 0.2529 1.3137 1.0898
O1 O 0.3742(10) 1.1675(8) 1.1590(9)
N1 N 0.3592(4) 0.9102(6) 1.2085(3)
H4 H 0.4372 0.8918 1.1970
C2 C 0.3569(5) 1.0050(5) 1.2872(5)
H5 H 0.2849 0.9766 1.3196
C3 C 0.3106(7) 1.1387(5) 1.2346(6)
O2 O 0.2298(9) 1.2132(10) 1.2511(8)
C4 C 0.4989(7) 1.0057(10) 1.3846(7)
H6 H 0.5213 0.9148 1.4084
H7 H 0.5714 1.0362 1.3546
C5 C 0.5102(8) 1.0889(11) 1.4893(7)
H8 H 0.4872 1.1817 1.4685
C6 C 0.4113(17) 1.034(2) 1.5444(11)
H9 H 0.4174 1.0852 1.6098
H10 H 0.4358 0.9436 1.5654
H11 H 0.3168 1.0378 1.4934
C7 C 0.6685(8) 1.075(3) 1.5541(11)
H12 H 0.6905 1.1228 1.6232
H13 H 0.7225 1.1096 1.5100
H14 H 0.6911 0.9828 1.5696
C8 C 0.2404(4) 0.8465(6) 1.1497(4)
O3 O 0.1270(3) 0.8720(6) 1.1649(3)
C9 C 0.2484(4) 0.7453(5) 1.0673(4)
C10 C 0.1241(4) 0.6934(7) 0.9956(5)
H15 H 0.0388 0.7247 1.0000
C11 C 0.1226(4) 0.5982(7) 0.9189(5)
H16 H 0.0369 0.5661 0.8722
C12 C 0.2461(4) 0.5492(6) 0.9098(3)
C13 C 0.3701(5) 0.6054(7) 0.9750(5)
H17 H 0.4543 0.5794 0.9651
C14 C 0.3727(4) 0.6999(6) 1.0549(4)
H18 H 0.4585 0.7331 1.1006
C15 C 0.2519(4) 0.4411(6) 0.8297(4)
O4 O 0.3643(3) 0.4114(6) 0.8165(3)
N2 N 0.1339(4) 0.3790(6) 0.7754(3)
H19 H 0.0578 0.4020 0.7881
C16 C 0.1262(5) 0.2744(4) 0.6958(5)
H20 H 0.2217 0.2496 0.6985
C17 C 0.0453(10) 0.3167(8) 0.5813(6)
O5 O -0.0319(11) 0.4050(8) 0.5566(5)
C18 C 0.0508(7) 0.1520(5) 0.7222(5)
H21 H -0.0432 0.1793 0.7190
H22 H 0.0401 0.0886 0.6623
C19 C 0.1163(13) 0.0781(9) 0.8335(5)
H23 H 0.1368 0.1444 0.8933
C20 C 0.2587(11) 0.025(2) 0.8297(14)
H24 H 0.3049 -0.0225 0.8975
H25 H 0.3168 0.0978 0.8225
H26 H 0.2432 -0.0333 0.7669
C21 C 0.0000(19) -0.0131(14) 0.8484(12)
H27 H 0.0348 -0.0584 0.9187
H28 H -0.0264 -0.0768 0.7888
H29 H -0.0806 0.0392 0.8468
O6 O 0.0617(8) 0.2331(7) 0.5078(5)
C22 C -0.015(2) 0.2511(13) 0.3904(7)
H30 H 0.0096 0.1816 0.3481
H31 H 0.0097 0.3352 0.3662
H32 H -0.1141 0.2486 0.3790
loop_
_geom_bond_atom_site_label_1
_geom_bond_atom_site_label_2
_geom_bond_site_symmetry_1
_geom_bond_site_symmetry_2
C1 H1 1_555 1_555
H2 C1 1_555 1_555
H3 C1 1_555 1_555
O1 C1 1_555 1_555
N1 H4 1_555 1_555
C2 N1 1_555 1_555
H5 C2 1_555 1_555
C3 O1 1_555 1_555
O2 C3 1_555 1_555
C4 C2 1_555 1_555
H6 C4 1_555 1_555
H7 C4 1_555 1_555
C5 C4 1_555 1_555
H8 C5 1_555 1_555
C6 C5 1_555 1_555
H9 C6 1_555 1_555
H10 C6 1_555 1_555
H11 C6 1_555 1_555
C7 C5 1_555 1_555
H12 C7 1_555 1_555
H13 C7 1_555 1_555
H14 C7 1_555 1_555
C8 N1 1_555 1_555
O3 C8 1_555 1_555
C9 C8 1_555 1_555
C10 C9 1_555 1_555
H15 C10 1_555 1_555
C11 C10 1_555 1_555
H16 C11 1_555 1_555
C12 C11 1_555 1_555
C13 C12 1_555 1_555
H17 C13 1_555 1_555
C14 C9 1_555 1_555
H18 C14 1_555 1_555
C15 C12 1_555 1_555
O4 C15 1_555 1_555
N2 C15 1_555 1_555
H19 N2 1_555 1_555
C16 N2 1_555 1_555
H20 C16 1_555 1_555
C17 C16 1_555 1_555
O5 C17 1_555 1_555
C18 C16 1_555 1_555
H21 C18 1_555 1_555
H22 C18 1_555 1_555
C19 C18 1_555 1_555
H23 C19 1_555 1_555
C20 C19 1_555 1_555
H24 C20 1_555 1_555
H25 C20 1_555 1_555
H26 C20 1_555 1_555
C21 C19 1_555 1_555
H27 C21 1_555 1_555
H28 C21 1_555 1_555
H29 C21 1_555 1_555
O6 C17 1_555 1_555
C22 O6 1_555 1_555
H30 C22 1_555 1_555
H31 C22 1_555 1_555
H32 C22 1_555 1_555
C2 C3 1_555 1_555
C13 C14 1_555 1_555

#END
