
#######################################################################
#
#                 Cambridge Crystallographic Data Centre
#                                CCDC 
#
#######################################################################
#
# If this CIF has been generated from an entry in the Cambridge 
# Structural Database, then it will include bibliographic, chemical, 
# crystal, experimental, refinement or atomic coordinate data resulting 
# from the CCDC's data processing and validation procedures.
#
#######################################################################

data_NEMXEK
_chemical_formula_moiety         'C23 H40 O6 Si2'
_chemical_name_systematic        
'Dimethyl 1-(((t-butyl(dimethyl)silyl)oxy)methyl)-4-methyl-5-oxo-6-(trimethylsilyl)-3,3a,4,5-tetrahydropentalene-2,2(1H)-dicarboxylate'
_symmetry_cell_setting           monoclinic
_symmetry_space_group_name_H-M   'P 21/c'
_symmetry_Int_Tables_number      14
_space_group_name_Hall           '-P 2ybc'
loop_
_symmetry_equiv_pos_site_id
_symmetry_equiv_pos_as_xyz
1 x,y,z
2 -x,1/2+y,1/2-z
3 -x,-y,-z
4 x,1/2-y,1/2+z
_cell_length_a                   15.8327(17)
_cell_length_b                   7.7363(8)
_cell_length_c                   21.921(2)
_cell_angle_alpha                90
_cell_angle_beta                 94.079(2)
_cell_angle_gamma                90
_cell_volume                     2678.23
_cell_formula_units_Z            4
loop_
_atom_site_label
_atom_site_type_symbol
_atom_site_fract_x
_atom_site_fract_y
_atom_site_fract_z
Si1 Si 0.23824(6) 0.97661(14) 0.59486(4)
Si2 Si 0.38587(6) 0.70070(12) 0.41229(4)
O1 O 0.1023(3) 0.6578(4) 0.57904(13)
O2 O 0.32182(14) 0.8600(3) 0.38769(9)
O3 O 0.16847(15) 0.8601(3) 0.28573(10)
O4 O 0.24495(15) 1.1055(3) 0.29097(9)
O5 O 0.14574(15) 1.3682(3) 0.38874(10)
O6 O 0.06774(15) 1.2534(3) 0.31037(10)
C1 C 0.1155(3) 0.7341(5) 0.53195(17)
C2 C 0.0675(2) 0.7006(4) 0.47045(16)
H1 H 0.0722 0.5777 0.4605
C3 C 0.1178(2) 0.8058(4) 0.42601(14)
H2 H 0.1495 0.7268 0.4012
C4 C 0.1786(2) 0.9114(4) 0.46588(14)
C5 C 0.1791(2) 0.8776(4) 0.52617(14)
C6 C 0.0768(2) 0.9468(4) 0.38495(14)
H3 H 0.0362 1.0131 0.4064
H4 H 0.0486 0.8977 0.3482
C7 C 0.15287(18) 1.0598(4) 0.36953(13)
C8 C 0.21687(18) 1.0500(4) 0.42840(13)
H5 H 0.2131 1.1594 0.4505
C9 C -0.0255(3) 0.7462(5) 0.4727(2)
H6 H -0.0506 0.6731 0.5018
H7 H -0.0540 0.7294 0.4330
H8 H -0.0307 0.8649 0.4846
C10 C 0.1891(2) 0.9919(4) 0.31117(14)
C11 C 0.2801(3) 1.0560(5) 0.23400(16)
H9 H 0.3189 1.1434 0.2224
H10 H 0.2352 1.0441 0.2025
H11 H 0.3095 0.9479 0.2395
C12 C 0.12369(19) 1.2458(4) 0.35828(14)
C13 C 0.0298(3) 1.4235(5) 0.29792(18)
H12 H -0.0096 1.4164 0.2626
H13 H 0.0734 1.5053 0.2904
H14 H 0.0006 1.4603 0.3326
C14 C 0.1687(3) 0.9919(5) 0.65957(16)
H15 H 0.1490 0.8787 0.6695
H16 H 0.1210 1.0647 0.6481
H17 H 0.2000 1.0404 0.6946
C15 C 0.3305(3) 0.8346(7) 0.61723(18)
H18 H 0.3106 0.7213 0.6270
H19 H 0.3618 0.8825 0.6523
H20 H 0.3665 0.8267 0.5839
C16 C 0.2767(2) 1.1971(5) 0.57614(17)
H21 H 0.3071 1.2458 0.6115
H22 H 0.2293 1.2695 0.5639
H23 H 0.3136 1.1893 0.5434
C17 C 0.30933(19) 1.0185(4) 0.41821(14)
H24 H 0.3301 1.1126 0.3942
H25 H 0.3419 1.0176 0.4574
C18 C 0.4802(2) 0.7898(5) 0.45805(19)
H26 H 0.4622 0.8446 0.4942
H27 H 0.5081 0.8730 0.4340
H28 H 0.5187 0.6975 0.4695
C19 C 0.3294(2) 0.5470(4) 0.45976(16)
H29 H 0.2811 0.5010 0.4362
H30 H 0.3110 0.6059 0.4950
H31 H 0.3668 0.4543 0.4727
C20 C 0.4198(2) 0.5937(5) 0.34166(16)
C21 C 0.4777(3) 0.4388(6) 0.3599(2)
H32 H 0.4952 0.3835 0.3236
H33 H 0.4472 0.3576 0.3831
H34 H 0.5266 0.4789 0.3841
C22 C 0.4699(3) 0.7223(6) 0.30433(19)
H35 H 0.4871 0.6663 0.2682
H36 H 0.5191 0.7610 0.3287
H37 H 0.4347 0.8197 0.2929
C23 C 0.3400(3) 0.5305(5) 0.30243(17)
H38 H 0.3571 0.4753 0.2661
H39 H 0.3044 0.6276 0.2914
H40 H 0.3093 0.4496 0.3257
loop_
_geom_bond_atom_site_label_1
_geom_bond_atom_site_label_2
_geom_bond_site_symmetry_1
_geom_bond_site_symmetry_2
Si1 C5 1_555 1_555
Si2 O2 1_555 1_555
O1 C1 1_555 1_555
O2 C17 1_555 1_555
O3 C10 1_555 1_555
O4 C10 1_555 1_555
O5 C12 1_555 1_555
O6 C12 1_555 1_555
C1 C2 1_555 1_555
C2 H1 1_555 1_555
C3 C2 1_555 1_555
H2 C3 1_555 1_555
C4 C3 1_555 1_555
C5 C1 1_555 1_555
C6 C3 1_555 1_555
H3 C6 1_555 1_555
H4 C6 1_555 1_555
C7 C6 1_555 1_555
C8 C4 1_555 1_555
H5 C8 1_555 1_555
C9 C2 1_555 1_555
H6 C9 1_555 1_555
H7 C9 1_555 1_555
H8 C9 1_555 1_555
C10 C7 1_555 1_555
C11 O4 1_555 1_555
H9 C11 1_555 1_555
H10 C11 1_555 1_555
H11 C11 1_555 1_555
C12 C7 1_555 1_555
C13 O6 1_555 1_555
H12 C13 1_555 1_555
H13 C13 1_555 1_555
H14 C13 1_555 1_555
C14 Si1 1_555 1_555
H15 C14 1_555 1_555
H16 C14 1_555 1_555
H17 C14 1_555 1_555
C15 Si1 1_555 1_555
H18 C15 1_555 1_555
H19 C15 1_555 1_555
H20 C15 1_555 1_555
C16 Si1 1_555 1_555
H21 C16 1_555 1_555
H22 C16 1_555 1_555
H23 C16 1_555 1_555
C17 C8 1_555 1_555
H24 C17 1_555 1_555
H25 C17 1_555 1_555
C18 Si2 1_555 1_555
H26 C18 1_555 1_555
H27 C18 1_555 1_555
H28 C18 1_555 1_555
C19 Si2 1_555 1_555
H29 C19 1_555 1_555
H30 C19 1_555 1_555
H31 C19 1_555 1_555
C20 Si2 1_555 1_555
C21 C20 1_555 1_555
H32 C21 1_555 1_555
H33 C21 1_555 1_555
H34 C21 1_555 1_555
C22 C20 1_555 1_555
H35 C22 1_555 1_555
H36 C22 1_555 1_555
H37 C22 1_555 1_555
C23 C20 1_555 1_555
H38 C23 1_555 1_555
H39 C23 1_555 1_555
H40 C23 1_555 1_555
C4 C5 1_555 1_555
C7 C8 1_555 1_555

#END
