
#######################################################################
#
#                 Cambridge Crystallographic Data Centre
#                                CCDC 
#
#######################################################################
#
# If this CIF has been generated from an entry in the Cambridge 
# Structural Database, then it will include bibliographic, chemical, 
# crystal, experimental, refinement or atomic coordinate data resulting 
# from the CCDC's data processing and validation procedures.
#
#######################################################################

data_NENBUG
_chemical_formula_moiety         'C23 H33 N1 O2'
_chemical_name_systematic        
2-benzyl-4a,7,7,10a-tetramethyldodecahydro-3H-naphtho[1,2-e][1,3]oxazin-3-one
_chemical_properties_biological  'antibacterial activity'
_symmetry_cell_setting           monoclinic
_symmetry_space_group_name_H-M   'P 21'
_symmetry_Int_Tables_number      4
_space_group_name_Hall           'P 2yb'
loop_
_symmetry_equiv_pos_site_id
_symmetry_equiv_pos_as_xyz
1 x,y,z
2 -x,1/2+y,-z
_cell_length_a                   7.2841(3)
_cell_length_b                   12.7650(4)
_cell_length_c                   11.1943(4)
_cell_angle_alpha                90
_cell_angle_beta                 104.859(4)
_cell_angle_gamma                90
_cell_volume                     1006.06
_exptl_crystal_colour            colorless
_exptl_crystal_description       block
_cell_formula_units_Z            2
loop_
_atom_site_label
_atom_site_type_symbol
_atom_site_fract_x
_atom_site_fract_y
_atom_site_fract_z
O1 O -0.0297(3) 0.47436(16) 0.59123(17)
N1 N 0.2606(3) 0.44377(18) 0.5474(2)
O2 O -0.0157(3) 0.3706(2) 0.43619(19)
C1 C 0.0383(4) 0.8916(2) 0.9001(3)
H1 H -0.0272 0.9008 0.8147
H2 H 0.0762 0.9586 0.9370
H3 H -0.0444 0.8579 0.9426
C2 C 0.1580(3) 0.7250(2) 0.8255(2)
H4 H 0.0909 0.7535 0.7449
C3 C 0.3246(3) 0.6597(2) 0.7988(2)
C4 C 0.3652(4) 0.5176(2) 0.6399(2)
H5 H 0.4435 0.5622 0.6029
H6 H 0.4483 0.4793 0.7073
C5 C 0.0713(3) 0.5146(2) 0.7131(2)
C6 C 0.2294(3) 0.5853(2) 0.6901(2)
H7 H 0.1671 0.6315 0.6218
C7 C 0.0708(4) 0.4263(2) 0.5207(2)
C8 C 0.4618(4) 0.2850(2) 0.5594(2)
C9 C -0.0766(3) 0.5791(2) 0.7541(2)
H8 H -0.1647 0.5323 0.7792
H9 H -0.1479 0.6203 0.6848
C10 C 0.2155(3) 0.8231(2) 0.9097(2)
C11 C 0.4557(4) 0.7349(2) 0.7514(2)
H10 H 0.5657 0.6964 0.7417
H11 H 0.3884 0.7611 0.6706
C12 C 0.0127(4) 0.6525(2) 0.8614(2)
H12 H 0.0749 0.6115 0.9334
H13 H -0.0858 0.6943 0.8825
C13 C 0.4441(4) 0.6002(2) 0.9117(2)
H14 H 0.5379 0.6465 0.9604
H15 H 0.5061 0.5420 0.8843
H16 H 0.3629 0.5751 0.9608
C14 C 0.3748(4) 0.3796(2) 0.4851(3)
H17 H 0.4756 0.4225 0.4687
H18 H 0.2952 0.3563 0.4062
C15 C 0.1342(4) 0.4201(2) 0.7967(3)
H19 H 0.0280 0.3741 0.7908
H20 H 0.1811 0.4432 0.8806
H21 H 0.2330 0.3836 0.7713
C16 C 0.3520(4) 0.8890(2) 0.8561(2)
H22 H 0.2825 0.9177 0.7773
H23 H 0.3979 0.9473 0.9113
C17 C 0.5223(4) 0.8274(2) 0.8374(3)
H24 H 0.6015 0.8730 0.8024
H25 H 0.5978 0.8023 0.9166
C18 C 0.3013(4) 0.7987(2) 1.0469(2)
H26 H 0.3141 0.8624 1.0939
H27 H 0.4240 0.7671 1.0572
H28 H 0.2195 0.7513 1.0755
C19 C 0.6581(4) 0.2702(3) 0.5924(3)
H29 H 0.7362 0.3199 0.5697
C20 C 0.3476(5) 0.2092(3) 0.5933(3)
H30 H 0.2164 0.2175 0.5720
C21 C 0.7384(5) 0.1823(3) 0.6584(3)
H31 H 0.8695 0.1733 0.6798
C22 C 0.6239(7) 0.1086(3) 0.6922(3)
H32 H 0.6775 0.0502 0.7376
C23 C 0.4289(7) 0.1213(3) 0.6588(4)
H33 H 0.3516 0.0705 0.6803
loop_
_geom_bond_atom_site_label_1
_geom_bond_atom_site_label_2
_geom_bond_site_symmetry_1
_geom_bond_site_symmetry_2
O1 C5 1_555 1_555
N1 C4 1_555 1_555
O2 C7 1_555 1_555
C1 H1 1_555 1_555
H2 C1 1_555 1_555
H3 C1 1_555 1_555
C2 H4 1_555 1_555
C3 C2 1_555 1_555
C4 H5 1_555 1_555
H6 C4 1_555 1_555
C5 C6 1_555 1_555
C6 C3 1_555 1_555
H7 C6 1_555 1_555
C7 O1 1_555 1_555
C8 C14 1_555 1_555
C9 C5 1_555 1_555
H8 C9 1_555 1_555
H9 C9 1_555 1_555
C10 C1 1_555 1_555
C11 C3 1_555 1_555
H10 C11 1_555 1_555
H11 C11 1_555 1_555
C12 C2 1_555 1_555
H12 C12 1_555 1_555
H13 C12 1_555 1_555
C13 C3 1_555 1_555
H14 C13 1_555 1_555
H15 C13 1_555 1_555
H16 C13 1_555 1_555
C14 N1 1_555 1_555
H17 C14 1_555 1_555
H18 C14 1_555 1_555
C15 C5 1_555 1_555
H19 C15 1_555 1_555
H20 C15 1_555 1_555
H21 C15 1_555 1_555
C16 C10 1_555 1_555
H22 C16 1_555 1_555
H23 C16 1_555 1_555
C17 C11 1_555 1_555
H24 C17 1_555 1_555
H25 C17 1_555 1_555
C18 C10 1_555 1_555
H26 C18 1_555 1_555
H27 C18 1_555 1_555
H28 C18 1_555 1_555
C19 C8 1_555 1_555
H29 C19 1_555 1_555
C20 C8 1_555 1_555
H30 C20 1_555 1_555
C21 C19 1_555 1_555
H31 C21 1_555 1_555
C22 C21 1_555 1_555
H32 C22 1_555 1_555
C23 C20 1_555 1_555
H33 C23 1_555 1_555
N1 C7 1_555 1_555
C2 C10 1_555 1_555
C4 C6 1_555 1_555
C9 C12 1_555 1_555
C16 C17 1_555 1_555
C22 C23 1_555 1_555

#END
