
#######################################################################
#
#                 Cambridge Crystallographic Data Centre
#                                CCDC 
#
#######################################################################
#
# If this CIF has been generated from an entry in the Cambridge 
# Structural Database, then it will include bibliographic, chemical, 
# crystal, experimental, refinement or atomic coordinate data resulting 
# from the CCDC's data processing and validation procedures.
#
#######################################################################

data_NENBOA
_chemical_formula_moiety         'C16 H27 N1 O2'
_chemical_name_systematic        
(S)-4a,7,7,10a-tetramethyldodecahydro-3H-naphtho[1,2-e][1,3]oxazin-3-one
_chemical_properties_biological  'antifungal activity'
_symmetry_cell_setting           monoclinic
_symmetry_space_group_name_H-M   'P 21'
_symmetry_Int_Tables_number      4
_space_group_name_Hall           'P 2yb'
loop_
_symmetry_equiv_pos_site_id
_symmetry_equiv_pos_as_xyz
1 x,y,z
2 -x,1/2+y,-z
_cell_length_a                   9.5408(5)
_cell_length_b                   11.6187(6)
_cell_length_c                   14.0237(7)
_cell_angle_alpha                90
_cell_angle_beta                 90.991(4)
_cell_angle_gamma                90
_cell_volume                     1554.32
_exptl_crystal_colour            colorless
_exptl_crystal_description       block
_cell_formula_units_Z            4
loop_
_atom_site_label
_atom_site_type_symbol
_atom_site_fract_x
_atom_site_fract_y
_atom_site_fract_z
O1 O 0.4650(3) 0.5075(3) 0.0096(2)
O2 O 0.4507(4) 0.3995(3) 0.1381(2)
N1 N 0.4636(4) 0.5919(4) 0.1579(3)
H1 H 0.4756 0.5823 0.2183
C1 C 0.4606(5) 0.4984(5) 0.1038(3)
C2 C 0.4111(4) 0.7147(4) 0.0171(3)
H2 H 0.4465 0.7885 -0.0062
C3 C 0.4480(5) 0.7108(4) 0.1230(3)
H3 H 0.5349 0.7523 0.1345
H4 H 0.3749 0.7491 0.1584
C4 C 0.2387(5) 0.7171(5) -0.1185(3)
H5 H 0.3011 0.7800 -0.1370
C5 C 0.1750(5) 0.6118(5) 0.0389(3)
H6 H 0.2125 0.5408 0.0153
H7 H 0.0767 0.6158 0.0238
H8 H 0.1887 0.6153 0.1068
C6 C 0.2507(4) 0.7135(4) -0.0078(3)
C7 C 0.3053(6) 0.6095(5) -0.1607(3)
H9 H 0.2903 0.6087 -0.2293
H10 H 0.2617 0.5413 -0.1344
C8 C 0.0371(6) 0.8582(6) -0.1137(4)
H11 H 0.0927 0.9240 -0.1324
H12 H -0.0585 0.8715 -0.1356
C9 C 0.4981(5) 0.6214(4) -0.0322(3)
C10 C 0.4624(5) 0.6081(5) -0.1377(3)
H13 H 0.5015 0.5360 -0.1600
H14 H 0.5069 0.6699 -0.1725
C11 C 0.0942(5) 0.7495(6) -0.1638(4)
C12 C 0.1874(6) 0.8264(5) 0.0314(4)
H15 H 0.1864 0.8225 0.1005
H16 H 0.2472 0.8903 0.0139
C13 C 0.0392(6) 0.8497(6) -0.0057(4)
H17 H -0.0223 0.7880 0.0140
H18 H 0.0051 0.9210 0.0213
C14 C 0.6545(5) 0.6424(6) -0.0196(4)
H19 H 0.6801 0.6363 0.0467
H20 H 0.6770 0.7181 -0.0422
H21 H 0.7053 0.5862 -0.0554
C15 C 0.1157(6) 0.7824(7) -0.2688(4)
H22 H 0.1887 0.8389 -0.2727
H23 H 0.0302 0.8136 -0.2950
H24 H 0.1416 0.7152 -0.3043
C16 C -0.0151(6) 0.6535(7) -0.1609(5)
H25 H 0.0236 0.5844 -0.1872
H26 H -0.0964 0.6759 -0.1976
H27 H -0.0411 0.6399 -0.0960
O3 O 0.4878(4) 0.4470(3) 0.4850(2)
O4 O 0.4736(5) 0.5529(3) 0.3556(3)
N2 N 0.4631(4) 0.3602(4) 0.3379(3)
H28 H 0.4714 0.3674 0.2772
C17 C 0.4092(4) 0.2454(4) 0.4821(3)
H29 H 0.4380 0.1697 0.5062
C18 C 0.2511(4) 0.2597(4) 0.5094(3)
C19 C 0.2480(5) 0.2604(5) 0.6203(3)
H30 H 0.3026 0.1925 0.6394
C20 C 0.4364(5) 0.2436(4) 0.3752(3)
H31 H 0.5167 0.1949 0.3629
H32 H 0.3558 0.2108 0.3420
C21 C 0.4869(5) 0.3491(5) 0.6328(3)
H33 H 0.5376 0.4171 0.6539
H34 H 0.5258 0.2836 0.6671
C22 C 0.4754(5) 0.4550(4) 0.3903(3)
C23 C 0.3333(5) 0.3623(5) 0.6586(3)
H35 H 0.2966 0.4333 0.6317
H36 H 0.3251 0.3663 0.7274
C24 C 0.5103(5) 0.3323(4) 0.5279(3)
C25 C 0.1708(5) 0.1519(5) 0.4750(4)
H37 H 0.1651 0.1523 0.4059
H38 H 0.2226 0.0837 0.4946
C26 C 0.1849(5) 0.3659(5) 0.4612(3)
H39 H 0.2252 0.4345 0.4883
H40 H 0.0856 0.3657 0.4713
H41 H 0.2024 0.3638 0.3940
C27 C 0.0224(6) 0.1456(7) 0.5148(4)
H42 H -0.0309 0.2125 0.4942
H43 H -0.0248 0.0775 0.4902
C28 C 0.1052(5) 0.2439(6) 0.6685(4)
C29 C 0.6633(5) 0.2983(6) 0.5118(4)
H44 H 0.6824 0.3006 0.4449
H45 H 0.6793 0.2218 0.5356
H46 H 0.7242 0.3512 0.5450
C30 C 0.0101(6) 0.3519(8) 0.6648(5)
H47 H 0.0628 0.4179 0.6859
H48 H -0.0684 0.3408 0.7057
H49 H -0.0230 0.3641 0.6006
C31 C 0.0285(6) 0.1411(7) 0.6232(5)
H50 H 0.0754 0.0707 0.6429
H51 H -0.0664 0.1384 0.6469
C32 C 0.1296(7) 0.2138(9) 0.7744(4)
H52 H 0.1974 0.1529 0.7797
H53 H 0.0429 0.1892 0.8015
H54 H 0.1638 0.2804 0.8079
loop_
_geom_bond_atom_site_label_1
_geom_bond_atom_site_label_2
_geom_bond_site_symmetry_1
_geom_bond_site_symmetry_2
O1 C1 1_555 1_555
O2 C1 1_555 1_555
N1 H1 1_555 1_555
C1 N1 1_555 1_555
C2 H2 1_555 1_555
C3 N1 1_555 1_555
H3 C3 1_555 1_555
H4 C3 1_555 1_555
C4 H5 1_555 1_555
C5 H6 1_555 1_555
H7 C5 1_555 1_555
H8 C5 1_555 1_555
C6 C2 1_555 1_555
C7 C4 1_555 1_555
H9 C7 1_555 1_555
H10 C7 1_555 1_555
C8 H11 1_555 1_555
H12 C8 1_555 1_555
C9 O1 1_555 1_555
C10 C7 1_555 1_555
H13 C10 1_555 1_555
H14 C10 1_555 1_555
C11 C4 1_555 1_555
C12 C6 1_555 1_555
H15 C12 1_555 1_555
H16 C12 1_555 1_555
C13 C8 1_555 1_555
H17 C13 1_555 1_555
H18 C13 1_555 1_555
C14 C9 1_555 1_555
H19 C14 1_555 1_555
H20 C14 1_555 1_555
H21 C14 1_555 1_555
C15 C11 1_555 1_555
H22 C15 1_555 1_555
H23 C15 1_555 1_555
H24 C15 1_555 1_555
C16 C11 1_555 1_555
H25 C16 1_555 1_555
H26 C16 1_555 1_555
H27 C16 1_555 1_555
O3 C22 1_555 1_555
O4 C22 1_555 1_555
N2 H28 1_555 1_555
C17 H29 1_555 1_555
C18 C17 1_555 1_555
C19 C18 1_555 1_555
H30 C19 1_555 1_555
C20 N2 1_555 1_555
H31 C20 1_555 1_555
H32 C20 1_555 1_555
C21 H33 1_555 1_555
H34 C21 1_555 1_555
C22 N2 1_555 1_555
C23 C19 1_555 1_555
H35 C23 1_555 1_555
H36 C23 1_555 1_555
C24 O3 1_555 1_555
C25 C18 1_555 1_555
H37 C25 1_555 1_555
H38 C25 1_555 1_555
C26 C18 1_555 1_555
H39 C26 1_555 1_555
H40 C26 1_555 1_555
H41 C26 1_555 1_555
C27 C25 1_555 1_555
H42 C27 1_555 1_555
H43 C27 1_555 1_555
C28 C19 1_555 1_555
C29 C24 1_555 1_555
H44 C29 1_555 1_555
H45 C29 1_555 1_555
H46 C29 1_555 1_555
C30 C28 1_555 1_555
H47 C30 1_555 1_555
H48 C30 1_555 1_555
H49 C30 1_555 1_555
C31 C27 1_555 1_555
H50 C31 1_555 1_555
H51 C31 1_555 1_555
C32 C28 1_555 1_555
H52 C32 1_555 1_555
H53 C32 1_555 1_555
H54 C32 1_555 1_555
C2 C3 1_555 1_555
C2 C9 1_555 1_555
C4 C6 1_555 1_555
C5 C6 1_555 1_555
C8 C11 1_555 1_555
C9 C10 1_555 1_555
C12 C13 1_555 1_555
C17 C20 1_555 1_555
C17 C24 1_555 1_555
C21 C23 1_555 1_555
C21 C24 1_555 1_555
C28 C31 1_555 1_555

#END
