
#######################################################################
#
#                 Cambridge Crystallographic Data Centre
#                                CCDC 
#
#######################################################################
#
# If this CIF has been generated from an entry in the Cambridge 
# Structural Database, then it will include bibliographic, chemical, 
# crystal, experimental, refinement or atomic coordinate data resulting 
# from the CCDC's data processing and validation procedures.
#
#######################################################################

data_NENCOB
_chemical_name_common            '1,8-[3]Cyclocarbazolene unknown solvate'
_chemical_formula_moiety         'C36 H21 N3'
_chemical_name_systematic        
'8,21,34-triazadecacyclo[33.4.0.0^2,7^.0^6,10^.0^9,14^.0^15,20^.0^19,23^.0^22,27^.0^28,33^.0^32,36^]nonatriaconta-1(39),2,4,6,9,11,13,15,17,19,22,24,26,28,30,32,35,37-octadecaene unknown solvate'
_symmetry_cell_setting           monoclinic
_symmetry_space_group_name_H-M   'P 21/c'
_symmetry_Int_Tables_number      14
_space_group_name_Hall           '-P 2ybc'
loop_
_symmetry_equiv_pos_site_id
_symmetry_equiv_pos_as_xyz
1 x,y,z
2 -x,1/2+y,1/2-z
3 -x,-y,-z
4 x,1/2-y,1/2+z
_cell_length_a                   14.0993(3)
_cell_length_b                   24.8411(5)
_cell_length_c                   38.7256(9)
_cell_angle_alpha                90
_cell_angle_beta                 95.989(7)
_cell_angle_gamma                90
_cell_volume                     13489.3
_exptl_crystal_colour            colorless
_exptl_crystal_description       platelet
_cell_formula_units_Z            20
_exptl_crystal_recrystallization_method CHCl3
loop_
_atom_site_label
_atom_site_type_symbol
_atom_site_fract_x
_atom_site_fract_y
_atom_site_fract_z
N1 N 0.11541(16) 0.17400(10) 0.64885(6)
N2 N 0.25645(17) 0.15338(10) 0.59671(6)
N3 N 0.05350(17) 0.19217(10) 0.57169(7)
C1 C 0.1636(2) 0.19761(12) 0.52399(7)
C2 C -0.1179(2) 0.29919(13) 0.55448(9)
H1 H -0.1285 0.3263 0.5372
C3 C -0.0645(2) 0.18657(12) 0.64055(8)
C4 C -0.0271(2) 0.22170(11) 0.57934(7)
C5 C 0.0862(2) 0.21328(12) 0.54184(7)
C6 C -0.0436(2) 0.26261(12) 0.55397(8)
C7 C 0.1834(2) 0.17370(11) 0.67780(7)
C8 C 0.2238(2) 0.14903(12) 0.53114(8)
C9 C 0.1861(2) 0.19082(13) 0.73994(8)
H2 H 0.1541 0.1961 0.7601
C10 C 0.3142(2) 0.12279(11) 0.62124(8)
C11 C 0.3316(2) 0.12834(12) 0.65761(8)
C12 C -0.1421(2) 0.17694(13) 0.65941(8)
H3 H -0.2039 0.1748 0.6471
C13 C 0.0296(2) 0.25814(12) 0.53067(8)
C14 C 0.0502(2) 0.28959(13) 0.50283(8)
H4 H 0.0124 0.3201 0.4959
C15 C 0.0254(2) 0.17943(11) 0.65951(8)
C16 C 0.3225(2) 0.08549(12) 0.56740(9)
C17 C 0.3042(3) 0.07284(13) 0.50617(9)
H5 H 0.3167 0.0531 0.4861
C18 C -0.1336(2) 0.17026(15) 0.69538(9)
H6 H -0.1884 0.1621 0.7068
C19 C 0.3301(2) 0.17759(13) 0.71329(8)
H7 H 0.3979 0.1774 0.7157
C20 C -0.1756(2) 0.29494(13) 0.58081(9)
H8 H -0.2284 0.3186 0.5815
C21 C 0.4387(2) 0.05017(13) 0.65654(9)
H9 H 0.4833 0.0269 0.6691
C22 C 0.2838(2) 0.19188(14) 0.74186(8)
H10 H 0.3199 0.2024 0.7629
C23 C 0.0344(2) 0.17963(12) 0.69617(8)
C24 C -0.1569(2) 0.25576(13) 0.60677(8)
H11 H -0.1973 0.2545 0.6249
C25 C -0.0459(2) 0.17551(14) 0.71431(9)
H12 H -0.0401 0.1763 0.7390
C26 C 0.1350(2) 0.18171(12) 0.70765(8)
C27 C 0.2817(2) 0.16340(12) 0.68106(8)
C28 C 0.1821(2) 0.23028(13) 0.49597(8)
H13 H 0.2345 0.2214 0.4835
C29 C 0.1265(3) 0.27555(15) 0.48553(8)
H14 H 0.1420 0.2965 0.4664
C30 C -0.0824(2) 0.21861(12) 0.60753(8)
C31 C 0.3962(2) 0.09093(12) 0.67375(9)
H15 H 0.4118 0.0938 0.6981
C32 C 0.3437(2) 0.05605(13) 0.53840(9)
H16 H 0.3841 0.0254 0.5409
C33 C 0.2640(2) 0.13132(12) 0.56373(8)
C34 C 0.3547(2) 0.08015(12) 0.60380(9)
C35 C 0.4166(2) 0.04325(12) 0.62154(10)
H17 H 0.4427 0.0142 0.6097
C36 C 0.2463(2) 0.11825(13) 0.50260(9)
H18 H 0.2209 0.1289 0.4799
H19 H 0.065(2) 0.1604(15) 0.5808(9)
H20 H 0.129(2) 0.1717(13) 0.6244(9)
H21 H 0.260(3) 0.189(2) 0.5980(12)
N4 N 0.29650(18) 0.37236(10) 0.76260(7)
N5 N 0.44671(18) 0.34574(9) 0.71290(6)
N6 N 0.24328(18) 0.30363(10) 0.69618(7)
C37 C 0.3676(2) 0.38766(11) 0.78873(7)
C38 C 0.4591(2) 0.40925(11) 0.78703(8)
C39 C 0.5822(2) 0.33090(12) 0.68755(8)
C40 C 0.3361(2) 0.37365(12) 0.82112(8)
C41 C 0.4860(2) 0.31570(11) 0.68774(7)
C42 C 0.5966(2) 0.37681(12) 0.70995(8)
C43 C 0.1030(2) 0.32088(12) 0.66287(8)
C44 C 0.3425(2) 0.28228(11) 0.64649(7)
C45 C 0.2201(2) 0.34923(12) 0.77785(8)
C46 C 0.1331(2) 0.32878(13) 0.76279(9)
C47 C 0.2471(2) 0.28844(12) 0.58901(8)
H22 H 0.2440 0.2845 0.5645
C48 C 0.2436(2) 0.34923(13) 0.81414(8)
C49 C 0.5844(2) 0.45748(12) 0.75833(8)
H23 H 0.5819 0.4855 0.7749
C50 C 0.3326(2) 0.27911(12) 0.60970(8)
H24 H 0.3873 0.2701 0.5985
C51 C -0.0417(2) 0.34938(15) 0.68298(10)
H25 H -0.1065 0.3601 0.6787
C52 C 0.4815(2) 0.40414(13) 0.85090(8)
H26 H 0.5213 0.4112 0.8717
C53 C 0.2591(2) 0.29577(11) 0.66115(7)
C54 C 0.0723(2) 0.30748(14) 0.78602(10)
H27 H 0.0131 0.2923 0.7768
C55 C 0.5079(2) 0.24808(13) 0.64613(8)
H28 H 0.4837 0.2190 0.6319
C56 C 0.5125(2) 0.41772(11) 0.75595(7)
C57 C 0.0081(2) 0.33668(14) 0.65584(9)
H29 H -0.0211 0.3385 0.6326
C58 C 0.4436(2) 0.27892(11) 0.66291(8)
C59 C 0.6588(2) 0.45726(13) 0.73738(8)
H30 H 0.7028 0.4863 0.7388
C60 C 0.5134(2) 0.41671(12) 0.81911(8)
H31 H 0.5757 0.4312 0.8191
C61 C 0.6422(2) 0.30162(13) 0.66826(9)
H32 H 0.7073 0.3116 0.6682
C62 C 0.3931(2) 0.38166(13) 0.85255(8)
H33 H 0.3714 0.3720 0.8741
C63 C 0.5146(2) 0.38220(11) 0.72774(7)
C64 C 0.1471(2) 0.31834(11) 0.69722(8)
C65 C 0.6061(2) 0.25798(13) 0.64928(8)
H34 H 0.6476 0.2348 0.6384
C66 C 0.0967(2) 0.33099(12) 0.72548(8)
C67 C 0.0018(2) 0.34671(14) 0.71722(9)
H35 H -0.0348 0.3560 0.7356
C68 C 0.1671(2) 0.30337(12) 0.60431(8)
H36 H 0.1090 0.3115 0.5906
C69 C 0.1805(3) 0.32828(15) 0.83640(9)
H37 H 0.1962 0.3283 0.8609
C70 C 0.0949(3) 0.30764(15) 0.82169(9)
H38 H 0.0508 0.2933 0.8362
C71 C 0.1734(2) 0.30632(11) 0.64027(8)
C72 C 0.6696(2) 0.41569(13) 0.71476(8)
H39 H 0.7247 0.4132 0.7027
H40 H 0.272(3) 0.2839(14) 0.7125(9)
H41 H 0.287(2) 0.3879(14) 0.7457(9)
H42 H 0.386(2) 0.3411(12) 0.7176(8)
N7 N 0.6105(2) 0.55971(10) 0.65093(7)
N8 N 0.48801(18) 0.60112(11) 0.70466(7)
N9 N 0.4625(2) 0.48601(11) 0.67929(7)
C73 C 0.4334(2) 0.59556(12) 0.73201(8)
C74 C 0.5733(2) 0.68028(12) 0.67927(7)
C75 C 0.6760(2) 0.60208(13) 0.65767(8)
C76 C 0.4632(2) 0.68518(12) 0.72448(8)
C77 C 0.4236(2) 0.64723(12) 0.74713(8)
C78 C 0.3862(2) 0.65346(15) 0.77870(9)
H43 H 0.3799 0.6880 0.7887
C79 C 0.5108(2) 0.65534(11) 0.70029(7)
C80 C 0.3852(2) 0.55091(13) 0.74436(9)
C81 C 0.5040(2) 0.76621(12) 0.69669(9)
H44 H 0.4954 0.8037 0.6926
C82 C 0.4588(2) 0.74124(12) 0.72244(8)
H45 H 0.4259 0.7616 0.7382
C83 C 0.6604(2) 0.65537(13) 0.66759(8)
C84 C 0.5624(2) 0.73640(12) 0.67659(8)
H46 H 0.5963 0.7551 0.6603
C85 C 0.7433(2) 0.68769(15) 0.67118(8)
H47 H 0.7372 0.7243 0.6777
C86 C 0.3735(3) 0.48317(12) 0.69224(9)
C87 C 0.6625(3) 0.51414(13) 0.64202(8)
C88 C 0.3585(2) 0.60742(16) 0.79490(9)
H48 H 0.3413 0.6093 0.8179
C89 C 0.7684(2) 0.58208(14) 0.65428(8)
C90 C 0.5258(3) 0.44746(13) 0.62499(10)
C91 C 0.3630(3) 0.43815(13) 0.64042(11)
C92 C 0.8335(3) 0.66877(17) 0.66561(10)
H49 H 0.8858 0.6931 0.6669
C93 C 0.2457(3) 0.49518(14) 0.72679(11)
H50 H 0.2207 0.5100 0.7466
C94 C 0.3558(2) 0.55764(15) 0.77748(9)
H51 H 0.3327 0.5271 0.7888
C95 C 0.3109(3) 0.45261(13) 0.66890(10)
C96 C 0.6266(3) 0.46293(14) 0.63091(9)
C97 C 0.1863(3) 0.46281(15) 0.70462(13)
H52 H 0.1235 0.4550 0.7100
C98 C 0.3403(2) 0.50726(13) 0.72164(10)
C99 C 0.4570(3) 0.45712(13) 0.64779(10)
C100 C 0.8477(3) 0.61586(17) 0.65836(10)
H53 H 0.9099 0.6024 0.6561
C101 C 0.6963(4) 0.42528(16) 0.62415(10)
H54 H 0.6763 0.3902 0.6168
C102 C 0.7590(3) 0.52620(15) 0.64508(9)
C103 C 0.4013(5) 0.40331(17) 0.58668(13)
H55 H 0.3835 0.3855 0.5653
C104 C 0.2176(3) 0.44238(15) 0.67536(12)
H56 H 0.1765 0.4215 0.6596
C105 C 0.8260(3) 0.48692(18) 0.63831(10)
H57 H 0.8924 0.4946 0.6409
C106 C 0.3351(4) 0.41144(15) 0.60908(12)
H58 H 0.2713 0.3994 0.6037
C107 C 0.4935(4) 0.42033(14) 0.59442(11)
H59 H 0.5378 0.4133 0.5781
C108 C 0.7923(4) 0.43666(18) 0.62767(11)
H60 H 0.8363 0.4095 0.6227
H61 H 0.520(3) 0.4880(13) 0.6917(9)
H62 H 0.501(3) 0.5731(15) 0.6933(9)
H63 H 0.552(3) 0.5650(14) 0.6417(9)
N10 N 0.9007(2) 0.13333(11) 0.50231(7)
N11 N 0.7429(2) 0.18517(12) 0.53837(7)
N12 N 0.7922(2) 0.22991(12) 0.46823(7)
C109 C 0.9369(2) 0.10227(12) 0.53056(9)
C110 C 0.8617(3) 0.23809(14) 0.44467(8)
C111 C 1.0182(2) 0.08106(13) 0.48411(9)
C112 C 0.7528(3) 0.28043(14) 0.47598(9)
C113 C 0.9255(2) 0.20259(15) 0.43149(8)
C114 C 0.9516(2) 0.12182(13) 0.47400(9)
C115 C 1.0160(2) 0.07306(12) 0.52094(9)
C116 C 0.8648(3) 0.29430(15) 0.43776(9)
C117 C 0.9489(2) 0.14516(14) 0.44078(9)
C118 C 0.9055(2) 0.09601(13) 0.56381(9)
C119 C 0.6522(2) 0.20911(16) 0.53321(9)
C120 C 0.6817(3) 0.29306(16) 0.49700(9)
C121 C 0.7738(3) 0.06221(17) 0.59449(12)
H64 H 0.8178 0.0351 0.6030
C122 C 0.7993(3) 0.32058(15) 0.45833(9)
C123 C 1.0578(3) 0.04969(13) 0.57997(10)
H65 H 1.1030 0.0362 0.5978
C124 C 0.6209(3) 0.25459(16) 0.51378(10)
C125 C 0.6424(3) 0.13658(17) 0.56913(11)
C126 C 0.9946(3) 0.11480(16) 0.41665(10)
H66 H 0.9858 0.1250 0.3929
C127 C 1.0697(3) 0.05566(14) 0.45988(10)
H67 H 1.1157 0.0288 0.4668
C128 C 0.7369(2) 0.14097(14) 0.56067(9)
C129 C 0.9728(3) 0.07220(13) 0.58845(10)
H68 H 0.9598 0.0714 0.6120
C130 C 1.0520(3) 0.07059(15) 0.42600(10)
H69 H 1.0792 0.0506 0.4086
C131 C 1.0769(3) 0.04683(13) 0.54556(10)
H70 H 1.1304 0.0274 0.5392
C132 C 0.5878(3) 0.17883(17) 0.55130(11)
C133 C 0.9869(3) 0.22654(17) 0.40940(9)
H71 H 1.0321 0.2041 0.3999
C134 C 0.9250(3) 0.31556(18) 0.41549(10)
H72 H 0.9248 0.3530 0.4105
C135 C 0.8065(3) 0.10300(14) 0.57297(9)
C136 C 0.5225(3) 0.2658(2) 0.51233(11)
H73 H 0.4982 0.2960 0.4993
C137 C 0.9856(3) 0.28096(19) 0.40067(10)
H74 H 1.0263 0.2942 0.3846
C138 C 0.7135(4) 0.38779(18) 0.48545(13)
H75 H 0.7003 0.4246 0.4896
C139 C 0.6658(3) 0.34811(17) 0.50169(11)
H76 H 0.6201 0.3587 0.5167
C140 C 0.6819(4) 0.0595(2) 0.60386(15)
H77 H 0.6651 0.0321 0.6192
C141 C 0.7806(4) 0.37433(17) 0.46297(11)
H78 H 0.8125 0.4014 0.4512
C142 C 0.4596(3) 0.2347(2) 0.52907(13)
H79 H 0.3935 0.2433 0.5266
C143 C 0.4917(3) 0.1918(2) 0.54917(13)
H80 H 0.4491 0.1713 0.5614
C144 C 0.6141(3) 0.0971(2) 0.59068(13)
H81 H 0.5503 0.0954 0.5964
H82 H 0.839(4) 0.1505(18) 0.5028(12)
H83 H 0.796(3) 0.2053(15) 0.5410(10)
H84 H 0.757(3) 0.1950(17) 0.4678(10)
N13 N 0.60136(19) 0.21504(10) 0.40642(7)
N14 N 0.7615(2) 0.20753(11) 0.36057(7)
C145 C 0.7497(2) 0.06090(13) 0.38308(9)
H85 H 0.7389 0.0361 0.4010
N15 N 0.6458(2) 0.31267(12) 0.36348(7)
C146 C 0.7886(2) 0.27271(13) 0.31173(8)
C147 C 0.7415(2) 0.11648(12) 0.39000(8)
C148 C 0.4727(2) 0.19598(12) 0.43481(8)
C149 C 0.7866(2) 0.17479(14) 0.30716(8)
C150 C 0.7975(2) 0.17699(15) 0.27179(8)
H86 H 0.8010 0.1450 0.2586
C151 C 0.5970(2) 0.34653(13) 0.38456(8)
C152 C 0.5137(2) 0.23467(13) 0.41412(7)
C153 C 0.5555(3) 0.11651(13) 0.46979(8)
H87 H 0.5056 0.1094 0.4839
C154 C 0.5458(2) 0.15642(12) 0.44423(8)
C155 C 0.7901(2) 0.32495(13) 0.33045(9)
C156 C 0.7727(2) 0.04039(14) 0.35146(9)
H88 H 0.7796 0.0026 0.3487
C157 C 0.7231(2) 0.34134(13) 0.35229(8)
C158 C 0.7786(2) 0.12958(13) 0.33031(8)
C159 C 0.7794(2) 0.22176(13) 0.32688(8)
C160 C 0.7062(3) 0.09279(12) 0.45023(8)
H89 H 0.7616 0.0708 0.4531
C161 C 0.4688(2) 0.28457(13) 0.40744(8)
C162 C 0.5179(2) 0.33671(13) 0.40288(8)
C163 C 0.6208(2) 0.16674(12) 0.42333(8)
C164 C 0.8643(3) 0.41354(15) 0.34013(11)
H90 H 0.9134 0.4379 0.3356
C165 C 0.7997(2) 0.27331(15) 0.27622(9)
H91 H 0.8051 0.3071 0.2651
C166 C 0.6395(3) 0.08782(13) 0.47396(8)
H92 H 0.6520 0.0644 0.4933
C167 C 0.6952(2) 0.12923(12) 0.42185(8)
C168 C 0.6452(2) 0.39726(13) 0.38727(9)
C169 C 0.7618(2) 0.15053(12) 0.36271(8)
C170 C 0.8032(2) 0.22691(17) 0.25651(9)
H93 H 0.8096 0.2295 0.2324
C171 C 0.6123(3) 0.43904(14) 0.40646(10)
H94 H 0.6440 0.4728 0.4079
C172 C 0.8608(3) 0.36250(15) 0.32509(10)
H95 H 0.9085 0.3529 0.3106
C173 C 0.7264(3) 0.39289(13) 0.36714(10)
C174 C 0.7977(3) 0.42870(14) 0.36130(11)
H96 H 0.8003 0.4633 0.3718
C175 C 0.3785(3) 0.20005(15) 0.44131(9)
H97 H 0.3502 0.1732 0.4544
C176 C 0.7855(2) 0.07429(14) 0.32443(9)
H98 H 0.7986 0.0607 0.3025
C177 C 0.4889(3) 0.37996(15) 0.42193(9)
H99 H 0.4358 0.3751 0.4348
C178 C 0.3722(3) 0.28608(15) 0.41275(8)
H100 H 0.3363 0.3171 0.4054
C179 C 0.3261(3) 0.24437(16) 0.42828(9)
H101 H 0.2594 0.2462 0.4299
C180 C 0.5341(3) 0.43080(14) 0.42317(9)
H102 H 0.5093 0.4594 0.4358
H103 H 0.641(3) 0.2290(14) 0.3912(9)
H104 H 0.787(3) 0.2268(18) 0.3764(12)
H105 H 0.618(3) 0.2891(16) 0.3517(10)
loop_
_geom_bond_atom_site_label_1
_geom_bond_atom_site_label_2
_geom_bond_site_symmetry_1
_geom_bond_site_symmetry_2
N1 C7 1_555 1_555
N2 C10 1_555 1_555
N3 C4 1_555 1_555
C1 C5 1_555 1_555
C2 H1 1_555 1_555
C3 C12 1_555 1_555
C4 C6 1_555 1_555
C5 N3 1_555 1_555
C6 C2 1_555 1_555
C7 C26 1_555 1_555
C8 C1 1_555 1_555
C9 H2 1_555 1_555
C10 C11 1_555 1_555
C11 C27 1_555 1_555
C12 H3 1_555 1_555
C13 C5 1_555 1_555
C14 C13 1_555 1_555
H4 C14 1_555 1_555
C15 N1 1_555 1_555
C16 C32 1_555 1_555
C17 H5 1_555 1_555
C18 C12 1_555 1_555
H6 C18 1_555 1_555
C19 H7 1_555 1_555
C20 C2 1_555 1_555
H8 C20 1_555 1_555
C21 H9 1_555 1_555
C22 C9 1_555 1_555
H10 C22 1_555 1_555
C23 C15 1_555 1_555
C24 C20 1_555 1_555
H11 C24 1_555 1_555
C25 C18 1_555 1_555
H12 C25 1_555 1_555
C26 C9 1_555 1_555
C27 C7 1_555 1_555
C28 C1 1_555 1_555
H13 C28 1_555 1_555
C29 C14 1_555 1_555
H14 C29 1_555 1_555
C30 C3 1_555 1_555
C31 C11 1_555 1_555
H15 C31 1_555 1_555
C32 C17 1_555 1_555
H16 C32 1_555 1_555
C33 N2 1_555 1_555
C34 C10 1_555 1_555
C35 C21 1_555 1_555
H17 C35 1_555 1_555
C36 C8 1_555 1_555
H18 C36 1_555 1_555
H19 N3 1_555 1_555
H20 N1 1_555 1_555
H21 N2 1_555 1_555
N4 C37 1_555 1_555
N5 C41 1_555 1_555
N6 C53 1_555 1_555
C37 C38 1_555 1_555
C38 C56 1_555 1_555
C39 C41 1_555 1_555
C40 C37 1_555 1_555
C41 C58 1_555 1_555
C42 C39 1_555 1_555
C43 C57 1_555 1_555
C44 C50 1_555 1_555
C45 N4 1_555 1_555
C46 C45 1_555 1_555
C47 H22 1_555 1_555
C48 C40 1_555 1_555
C49 H23 1_555 1_555
C50 C47 1_555 1_555
H24 C50 1_555 1_555
C51 H25 1_555 1_555
C52 H26 1_555 1_555
C53 C44 1_555 1_555
C54 C46 1_555 1_555
H27 C54 1_555 1_555
C55 H28 1_555 1_555
C56 C49 1_555 1_555
C57 C51 1_555 1_555
H29 C57 1_555 1_555
C58 C44 1_555 1_555
C59 C49 1_555 1_555
H30 C59 1_555 1_555
C60 C38 1_555 1_555
H31 C60 1_555 1_555
C61 C39 1_555 1_555
H32 C61 1_555 1_555
C62 C40 1_555 1_555
H33 C62 1_555 1_555
C63 N5 1_555 1_555
C64 N6 1_555 1_555
C65 C55 1_555 1_555
H34 C65 1_555 1_555
C66 C46 1_555 1_555
C67 C51 1_555 1_555
H35 C67 1_555 1_555
C68 C47 1_555 1_555
H36 C68 1_555 1_555
C69 C48 1_555 1_555
H37 C69 1_555 1_555
C70 C54 1_555 1_555
H38 C70 1_555 1_555
C71 C43 1_555 1_555
C72 C42 1_555 1_555
H39 C72 1_555 1_555
H40 N6 1_555 1_555
H41 N4 1_555 1_555
H42 N5 1_555 1_555
N7 C75 1_555 1_555
N8 C73 1_555 1_555
N9 C86 1_555 1_555
C73 C77 1_555 1_555
C74 C79 1_555 1_555
C75 C83 1_555 1_555
C76 C77 1_555 1_555
C77 C78 1_555 1_555
C78 H43 1_555 1_555
C79 N8 1_555 1_555
C80 C73 1_555 1_555
C81 H44 1_555 1_555
C82 C76 1_555 1_555
H45 C82 1_555 1_555
C83 C74 1_555 1_555
C84 C74 1_555 1_555
H46 C84 1_555 1_555
C85 C83 1_555 1_555
H47 C85 1_555 1_555
C86 C95 1_555 1_555
C87 N7 1_555 1_555
C88 C78 1_555 1_555
H48 C88 1_555 1_555
C89 C75 1_555 1_555
C90 C96 1_555 1_555
C91 C95 1_555 1_555
C92 C85 1_555 1_555
H49 C92 1_555 1_555
C93 H50 1_555 1_555
C94 C80 1_555 1_555
H51 C94 1_555 1_555
C95 C104 1_555 1_555
C96 C87 1_555 1_555
C97 C93 1_555 1_555
H52 C97 1_555 1_555
C98 C80 1_555 1_555
C99 N9 1_555 1_555
C100 C89 1_555 1_555
H53 C100 1_555 1_555
C101 C96 1_555 1_555
H54 C101 1_555 1_555
C102 C87 1_555 1_555
C103 H55 1_555 1_555
C104 C97 1_555 1_555
H56 C104 1_555 1_555
C105 C102 1_555 1_555
H57 C105 1_555 1_555
C106 C91 1_555 1_555
H58 C106 1_555 1_555
C107 C90 1_555 1_555
H59 C107 1_555 1_555
C108 C101 1_555 1_555
H60 C108 1_555 1_555
H61 N9 1_555 1_555
H62 N8 1_555 1_555
H63 N7 1_555 1_555
N10 C109 1_555 1_555
N11 C119 1_555 1_555
N12 C110 1_555 1_555
C109 C115 1_555 1_555
C110 C113 1_555 1_555
C111 C114 1_555 1_555
C112 N12 1_555 1_555
C113 C117 1_555 1_555
C114 N10 1_555 1_555
C115 C111 1_555 1_555
C116 C110 1_555 1_555
C117 C114 1_555 1_555
C118 C109 1_555 1_555
C119 C124 1_555 1_555
C120 C112 1_555 1_555
C121 H64 1_555 1_555
C122 C112 1_555 1_555
C123 H65 1_555 1_555
C124 C120 1_555 1_555
C125 C128 1_555 1_555
C126 C117 1_555 1_555
H66 C126 1_555 1_555
C127 C111 1_555 1_555
H67 C127 1_555 1_555
C128 N11 1_555 1_555
C129 C118 1_555 1_555
H68 C129 1_555 1_555
C130 C126 1_555 1_555
H69 C130 1_555 1_555
C131 C115 1_555 1_555
H70 C131 1_555 1_555
C132 C119 1_555 1_555
C133 C113 1_555 1_555
H71 C133 1_555 1_555
C134 C116 1_555 1_555
H72 C134 1_555 1_555
C135 C118 1_555 1_555
C136 C124 1_555 1_555
H73 C136 1_555 1_555
C137 C133 1_555 1_555
H74 C137 1_555 1_555
C138 H75 1_555 1_555
C139 C120 1_555 1_555
H76 C139 1_555 1_555
C140 C121 1_555 1_555
H77 C140 1_555 1_555
C141 C122 1_555 1_555
H78 C141 1_555 1_555
C142 C136 1_555 1_555
H79 C142 1_555 1_555
C143 C132 1_555 1_555
H80 C143 1_555 1_555
C144 C125 1_555 1_555
H81 C144 1_555 1_555
H82 N10 1_555 1_555
H83 N11 1_555 1_555
H84 N12 1_555 1_555
N13 C152 1_555 1_555
N14 C159 1_555 1_555
C145 H85 1_555 1_555
N15 C151 1_555 1_555
C146 C155 1_555 1_555
C147 C145 1_555 1_555
C148 C152 1_555 1_555
C149 C150 1_555 1_555
C150 H86 1_555 1_555
C151 C162 1_555 1_555
C152 C161 1_555 1_555
C153 H87 1_555 1_555
C154 C148 1_555 1_555
C155 C157 1_555 1_555
C156 C145 1_555 1_555
H88 C156 1_555 1_555
C157 N15 1_555 1_555
C158 C149 1_555 1_555
C159 C146 1_555 1_555
C160 H89 1_555 1_555
C161 C162 1_555 1_555
C162 C177 1_555 1_555
C163 N13 1_555 1_555
C164 H90 1_555 1_555
C165 C146 1_555 1_555
H91 C165 1_555 1_555
C166 C153 1_555 1_555
H92 C166 1_555 1_555
C167 C147 1_555 1_555
C168 C151 1_555 1_555
C169 N14 1_555 1_555
C170 C150 1_555 1_555
H93 C170 1_555 1_555
C171 C168 1_555 1_555
H94 C171 1_555 1_555
C172 C155 1_555 1_555
H95 C172 1_555 1_555
C173 C157 1_555 1_555
C174 C164 1_555 1_555
H96 C174 1_555 1_555
C175 C148 1_555 1_555
H97 C175 1_555 1_555
C176 C156 1_555 1_555
H98 C176 1_555 1_555
C177 H99 1_555 1_555
C178 C161 1_555 1_555
H100 C178 1_555 1_555
C179 C175 1_555 1_555
H101 C179 1_555 1_555
C180 C171 1_555 1_555
H102 C180 1_555 1_555
H103 N13 1_555 1_555
H104 N14 1_555 1_555
H105 N15 1_555 1_555
C3 C15 1_555 1_555
C4 C30 1_555 1_555
C6 C13 1_555 1_555
C8 C33 1_555 1_555
C16 C33 1_555 1_555
C16 C34 1_555 1_555
C17 C36 1_555 1_555
C19 C22 1_555 1_555
C19 C27 1_555 1_555
C21 C31 1_555 1_555
C23 C25 1_555 1_555
C23 C26 1_555 1_555
C24 C30 1_555 1_555
C28 C29 1_555 1_555
C34 C35 1_555 1_555
C42 C63 1_555 1_555
C43 C64 1_555 1_555
C45 C48 1_555 1_555
C52 C60 1_555 1_555
C52 C62 1_555 1_555
C53 C71 1_555 1_555
C55 C58 1_555 1_555
C56 C63 1_555 1_555
C59 C72 1_555 1_555
C61 C65 1_555 1_555
C64 C66 1_555 1_555
C66 C67 1_555 1_555
C68 C71 1_555 1_555
C69 C70 1_555 1_555
C76 C79 1_555 1_555
C81 C82 1_555 1_555
C81 C84 1_555 1_555
C86 C98 1_555 1_555
C88 C94 1_555 1_555
C89 C102 1_555 1_555
C90 C99 1_555 1_555
C91 C99 1_555 1_555
C92 C100 1_555 1_555
C93 C98 1_555 1_555
C103 C106 1_555 1_555
C103 C107 1_555 1_555
C105 C108 1_555 1_555
C116 C122 1_555 1_555
C121 C135 1_555 1_555
C123 C129 1_555 1_555
C123 C131 1_555 1_555
C125 C132 1_555 1_555
C127 C130 1_555 1_555
C128 C135 1_555 1_555
C134 C137 1_555 1_555
C138 C139 1_555 1_555
C138 C141 1_555 1_555
C140 C144 1_555 1_555
C142 C143 1_555 1_555
C147 C169 1_555 1_555
C149 C159 1_555 1_555
C153 C154 1_555 1_555
C154 C163 1_555 1_555
C158 C169 1_555 1_555
C158 C176 1_555 1_555
C160 C166 1_555 1_555
C160 C167 1_555 1_555
C163 C167 1_555 1_555
C164 C172 1_555 1_555
C165 C170 1_555 1_555
C168 C173 1_555 1_555
C173 C174 1_555 1_555
C177 C180 1_555 1_555
C178 C179 1_555 1_555

#END
