
#######################################################################
#
#                 Cambridge Crystallographic Data Centre
#                                CCDC 
#
#######################################################################
#
# If this CIF has been generated from an entry in the Cambridge 
# Structural Database, then it will include bibliographic, chemical, 
# crystal, experimental, refinement or atomic coordinate data resulting 
# from the CCDC's data processing and validation procedures.
#
#######################################################################

data_NENDES
_chemical_formula_moiety         'C60 H66 N3 O1 P1,C2 H3 N1'
_chemical_name_systematic        
"2,5,8,11,17,20-hexa-t-butyl-13,14,15-(but[2]en[1]yl[1,4]diylidene)-13b,13d,18d-triaza-13c-phosphafluoreno[1',9',8':4,5,6,7]indeno[7',1':8,9,10]heptaleno[3,2,1-jk]fluorene 13c-oxide acetonitrile solvate"
_symmetry_cell_setting           monoclinic
_symmetry_space_group_name_H-M   'P 21/c'
_symmetry_Int_Tables_number      14
_space_group_name_Hall           '-P 2ybc'
loop_
_symmetry_equiv_pos_site_id
_symmetry_equiv_pos_as_xyz
1 x,y,z
2 -x,1/2+y,1/2-z
3 -x,-y,-z
4 x,1/2-y,1/2+z
_cell_length_a                   16.6686(3)
_cell_length_b                   11.8095(2)
_cell_length_c                   27.6503(5)
_cell_angle_alpha                90
_cell_angle_beta                 97.145(7)
_cell_angle_gamma                90
_cell_volume                     5400.64
_exptl_crystal_colour            colorless
_exptl_crystal_description       block
_cell_formula_units_Z            4
_exptl_crystal_recrystallization_method 'acetone/ CH3CN'
loop_
_atom_site_label
_atom_site_type_symbol
_atom_site_fract_x
_atom_site_fract_y
_atom_site_fract_z
P1 P 0.79731(2) 0.20717(3) 0.738008(14)
O1 O 0.86922(7) 0.27875(11) 0.74843(4)
N1 N 0.73167(8) 0.22260(11) 0.77953(5)
N2 N 0.74331(8) 0.24254(11) 0.68400(5)
N3 N 0.81331(8) 0.06573(12) 0.73520(5)
C1 C 0.70965(9) 0.14401(14) 0.81477(6)
C2 C 0.70770(10) 0.44432(14) 0.70908(6)
C3 C 0.86136(10) 0.02779(14) 0.69787(6)
C4 C 0.92964(10) -0.02971(15) 0.77143(6)
C5 C 0.84291(10) 0.03216(14) 0.64744(6)
C6 C 0.56119(10) 0.47816(15) 0.80150(6)
C7 C 0.77357(10) 0.09244(14) 0.62061(6)
C8 C 0.70920(10) -0.01764(14) 0.86674(6)
H1 H 0.7331 -0.0872 0.8782
C9 C 0.74878(9) 0.04715(14) 0.83435(6)
C10 C 0.95936(10) -0.07869(15) 0.85618(6)
C11 C 0.62400(10) 0.29557(14) 0.81479(6)
C12 C 0.88384(10) -0.03416(14) 0.86295(6)
H2 H 0.8679 -0.0365 0.8948
C13 C 0.69192(11) 0.24480(15) 0.55268(6)
H3 H 0.6700 0.2999 0.5297
C14 C 0.71065(10) 0.27347(14) 0.60146(6)
C15 C 0.70387(10) 0.58085(15) 0.64071(7)
C16 C 0.98124(10) -0.07894(15) 0.80906(6)
H4 H 1.0307 -0.1123 0.8028
C17 C 0.93124(10) -0.02833(15) 0.71922(6)
C18 C 0.61434(11) 0.49728(15) 0.76711(6)
H5 H 0.6107 0.5681 0.7507
C19 C 0.72200(9) 0.35904(13) 0.67589(6)
C20 C 0.67299(10) 0.42001(14) 0.75482(6)
C21 C 0.64113(9) 0.18381(14) 0.83439(6)
C22 C 0.70611(10) 0.55538(14) 0.69032(7)
H6 H 0.7066 0.6166 0.7127
C23 C 0.63648(10) 0.01462(14) 0.88304(6)
C24 C 0.60445(10) 0.11987(14) 0.86773(6)
H7 H 0.5576 0.1478 0.8801
C25 C 0.67852(9) 0.31794(14) 0.78095(6)
C26 C 0.56565(10) 0.37363(15) 0.82485(6)
H8 H 0.5292 0.3556 0.8475
C27 C 0.74184(9) 0.19333(14) 0.63667(6)
C28 C 0.90068(11) -0.01597(15) 0.62022(6)
H9 H 0.8910 -0.0107 0.5857
C29 C 0.83031(10) 0.01375(14) 0.82539(6)
C30 C 0.98527(11) -0.07845(16) 0.69137(6)
H10 H 1.0314 -0.1175 0.7066
C31 C 0.69807(10) 0.49097(15) 0.60804(6)
H11 H 0.6875 0.5044 0.5740
C32 C 0.59461(11) -0.05884(15) 0.91825(7)
C33 C 0.70796(10) 0.38095(14) 0.62592(6)
C34 C 0.85703(9) 0.02122(14) 0.78005(6)
C35 C 1.01580(11) -0.12836(16) 0.89916(7)
C36 C 0.70564(11) 0.13451(15) 0.53767(6)
C37 C 0.74873(11) 0.06306(15) 0.57156(6)
H12 H 0.7623 -0.0102 0.5610
C38 C 0.63661(13) -0.17361(17) 0.92823(8)
H13 H 0.6930 -0.1614 0.9419
H14 H 0.6349 -0.2161 0.8977
H15 H 0.6088 -0.2167 0.9514
C39 C 0.59718(15) 0.00437(19) 0.96715(8)
H16 H 0.6536 0.0182 0.9806
H17 H 0.5708 -0.0417 0.9901
H18 H 0.5688 0.0769 0.9619
C40 C 0.97105(11) -0.07074(15) 0.64076(6)
C41 C 1.03294(13) -0.12082(19) 0.60993(7)
C42 C 0.49392(12) 0.56328(16) 0.80877(7)
C43 C 0.70331(12) 0.70351(15) 0.62201(7)
C44 C 0.51111(15) 0.68133(18) 0.78939(9)
H19 H 0.5615 0.7106 0.8070
H20 H 0.4665 0.7324 0.7943
H21 H 0.5163 0.6764 0.7545
C45 C 0.41522(13) 0.5187(2) 0.78071(9)
H22 H 0.3710 0.5712 0.7847
H23 H 0.4028 0.4441 0.7934
H24 H 0.4215 0.5122 0.7460
C46 C 0.50680(12) -0.07975(19) 0.89705(9)
H25 H 0.4803 -0.1266 0.9196
H26 H 0.5053 -0.1189 0.8657
H27 H 0.4785 -0.0071 0.8922
C47 C 0.67805(14) 0.09911(19) 0.48469(7)
C48 C 0.48380(15) 0.5745(2) 0.86303(7)
H28 H 0.5342 0.6028 0.8810
H29 H 0.4709 0.5003 0.8759
H30 H 0.4398 0.6276 0.8668
C49 C 1.01366(19) -0.0950(3) 0.55644(9)
H31 H 1.0107 -0.0128 0.5517
H32 H 0.9616 -0.1292 0.5440
H33 H 1.0561 -0.1262 0.5388
C50 C 1.0389(2) -0.2476(3) 0.61875(11)
H34 H 1.0518 -0.2621 0.6537
H35 H 1.0816 -0.2791 0.6014
H36 H 0.9871 -0.2833 0.6068
C51 C 1.11685(16) -0.0699(3) 0.62832(11)
H37 H 1.1154 0.0123 0.6234
H38 H 1.1578 -0.1031 0.6101
H39 H 1.1305 -0.0866 0.6631
C52 C 0.7162(2) 0.78978(19) 0.66301(10)
H40 H 0.7680 0.7751 0.6829
H41 H 0.6723 0.7837 0.6834
H42 H 0.7166 0.8662 0.6492
C53 C 0.7713(2) 0.7176(2) 0.59034(15)
H43 H 0.8233 0.7015 0.6098
H44 H 0.7714 0.7955 0.5781
H45 H 0.7630 0.6649 0.5628
C54 C 0.71830(17) 0.1774(2) 0.45042(8)
H46 H 0.7034 0.2561 0.4561
H47 H 0.7000 0.1568 0.4165
H48 H 0.7772 0.1691 0.4568
C55 C 0.7023(3) -0.0218(2) 0.47420(10)
H49 H 0.6769 -0.0741 0.4952
H50 H 0.7613 -0.0292 0.4806
H51 H 0.6845 -0.0399 0.4400
C56 C 0.62299(18) 0.7287(2) 0.59176(14)
H52 H 0.6140 0.6745 0.5648
H53 H 0.6238 0.8057 0.5787
H54 H 0.5793 0.7220 0.6123
C57 C 0.58635(17) 0.1158(3) 0.47440(10)
H55 H 0.5729 0.1944 0.4814
H56 H 0.5593 0.0648 0.4952
H57 H 0.5683 0.0989 0.4401
C58 C 1.0449(2) -0.2435(4) 0.88675(14)
H58 H 1.0677 -0.2400 0.8558
H59 H 0.9994 -0.2968 0.8838
H60 H 1.0865 -0.2691 0.9126
C59 C 1.0936(3) -0.0498(4) 0.90678(16)
H61 H 1.1184 -0.0467 0.8765
H62 H 1.1324 -0.0808 0.9329
H63 H 1.0779 0.0267 0.9156
C60 C 0.9812(2) -0.1291(3) 0.94657(14)
H64 H 0.9628 -0.0527 0.9536
H65 H 1.0229 -0.1533 0.9727
H66 H 0.9355 -0.1816 0.9445
C64 C 0.8287(3) 0.6953(3) 0.78928(18)
C65 C 0.8930(2) 0.6588(3) 0.76320(17)
H76 H 0.8777 0.5878 0.7462
H77 H 0.9420 0.6468 0.7861
H78 H 0.9034 0.7168 0.7394
N4 N 0.7769(3) 0.7234(4) 0.8097(2)
C61? C 1.0849(4) -0.1936(6) 0.8847(2)
H67? H 1.0657 -0.2446 0.8577
H68? H 1.1098 -0.2381 0.9125
H69? H 1.1250 -0.1413 0.8742
C62? C 1.0317(6) -0.0482(8) 0.9385(3)
H70? H 0.9812 -0.0107 0.9440
H71? H 1.0704 0.0087 0.9299
H72? H 1.0544 -0.0879 0.9682
C63? C 0.9634(6) -0.2300(8) 0.9214(3)
H73? H 0.9501 -0.2883 0.8964
H74? H 0.9133 -0.1984 0.9310
H75? H 0.9955 -0.2637 0.9499
loop_
_geom_bond_atom_site_label_1
_geom_bond_atom_site_label_2
_geom_bond_site_symmetry_1
_geom_bond_site_symmetry_2
P1 O1 1_555 1_555
N1 P1 1_555 1_555
N2 P1 1_555 1_555
N3 P1 1_555 1_555
C1 N1 1_555 1_555
C2 C19 1_555 1_555
C3 N3 1_555 1_555
C4 C16 1_555 1_555
C5 C3 1_555 1_555
C6 C18 1_555 1_555
C7 C5 1_555 1_555
C8 H1 1_555 1_555
C9 C1 1_555 1_555
C10 C12 1_555 1_555
C11 C21 1_555 1_555
C12 H2 1_555 1_555
C13 H3 1_555 1_555
C14 C13 1_555 1_555
C15 C22 1_555 1_555
C16 C10 1_555 1_555
H4 C16 1_555 1_555
C17 C3 1_555 1_555
C18 H5 1_555 1_555
C19 N2 1_555 1_555
C20 C2 1_555 1_555
C21 C1 1_555 1_555
C22 C2 1_555 1_555
H6 C22 1_555 1_555
C23 C8 1_555 1_555
C24 C21 1_555 1_555
H7 C24 1_555 1_555
C25 N1 1_555 1_555
C26 C6 1_555 1_555
H8 C26 1_555 1_555
C27 N2 1_555 1_555
C28 C5 1_555 1_555
H9 C28 1_555 1_555
C29 C9 1_555 1_555
C30 C17 1_555 1_555
H10 C30 1_555 1_555
C31 C15 1_555 1_555
H11 C31 1_555 1_555
C32 C23 1_555 1_555
C33 C14 1_555 1_555
C34 N3 1_555 1_555
C35 C10 1_555 1_555
C36 C13 1_555 1_555
C37 C7 1_555 1_555
H12 C37 1_555 1_555
C38 C32 1_555 1_555
H13 C38 1_555 1_555
H14 C38 1_555 1_555
H15 C38 1_555 1_555
C39 C32 1_555 1_555
H16 C39 1_555 1_555
H17 C39 1_555 1_555
H18 C39 1_555 1_555
C40 C28 1_555 1_555
C41 C40 1_555 1_555
C42 C6 1_555 1_555
C43 C15 1_555 1_555
C44 C42 1_555 1_555
H19 C44 1_555 1_555
H20 C44 1_555 1_555
H21 C44 1_555 1_555
C45 C42 1_555 1_555
H22 C45 1_555 1_555
H23 C45 1_555 1_555
H24 C45 1_555 1_555
C46 C32 1_555 1_555
H25 C46 1_555 1_555
H26 C46 1_555 1_555
H27 C46 1_555 1_555
C47 C36 1_555 1_555
C48 C42 1_555 1_555
H28 C48 1_555 1_555
H29 C48 1_555 1_555
H30 C48 1_555 1_555
C49 C41 1_555 1_555
H31 C49 1_555 1_555
H32 C49 1_555 1_555
H33 C49 1_555 1_555
C50 C41 1_555 1_555
H34 C50 1_555 1_555
H35 C50 1_555 1_555
H36 C50 1_555 1_555
C51 C41 1_555 1_555
H37 C51 1_555 1_555
H38 C51 1_555 1_555
H39 C51 1_555 1_555
C52 C43 1_555 1_555
H40 C52 1_555 1_555
H41 C52 1_555 1_555
H42 C52 1_555 1_555
C53 C43 1_555 1_555
H43 C53 1_555 1_555
H44 C53 1_555 1_555
H45 C53 1_555 1_555
C54 C47 1_555 1_555
H46 C54 1_555 1_555
H47 C54 1_555 1_555
H48 C54 1_555 1_555
C55 C47 1_555 1_555
H49 C55 1_555 1_555
H50 C55 1_555 1_555
H51 C55 1_555 1_555
C56 C43 1_555 1_555
H52 C56 1_555 1_555
H53 C56 1_555 1_555
H54 C56 1_555 1_555
C57 C47 1_555 1_555
H55 C57 1_555 1_555
H56 C57 1_555 1_555
H57 C57 1_555 1_555
C58 C35 1_555 1_555
H58 C58 1_555 1_555
H59 C58 1_555 1_555
H60 C58 1_555 1_555
C59 C35 1_555 1_555
H61 C59 1_555 1_555
H62 C59 1_555 1_555
H63 C59 1_555 1_555
C60 C35 1_555 1_555
H64 C60 1_555 1_555
H65 C60 1_555 1_555
H66 C60 1_555 1_555
C64 C65 1_555 1_555
C65 H76 1_555 1_555
H77 C65 1_555 1_555
H78 C65 1_555 1_555
N4 C64 1_555 1_555
C4 C17 1_555 1_555
C4 C34 1_555 1_555
C7 C27 1_555 1_555
C8 C9 1_555 1_555
C11 C25 1_555 1_555
C11 C26 1_555 1_555
C12 C29 1_555 1_555
C14 C27 1_555 1_555
C18 C20 1_555 1_555
C19 C33 1_555 1_555
C20 C25 1_555 1_555
C23 C24 1_555 1_555
C29 C34 1_555 1_555
C30 C40 1_555 1_555
C31 C33 1_555 1_555
C36 C37 1_555 1_555

#END
