
#######################################################################
#
#                 Cambridge Crystallographic Data Centre
#                                CCDC 
#
#######################################################################
#
# If this CIF has been generated from an entry in the Cambridge 
# Structural Database, then it will include bibliographic, chemical, 
# crystal, experimental, refinement or atomic coordinate data resulting 
# from the CCDC's data processing and validation procedures.
#
#######################################################################

data_NENFIW
_chemical_formula_moiety         'C28 H28 N2 O10'
_chemical_name_systematic        
'3,5-Diacetoxy-2-(acetoxymethyl)-6-(4-quinoxalin-2-ylphenoxy)tetrahydropyran-4-yl acetate'
_symmetry_cell_setting           monoclinic
_symmetry_space_group_name_H-M   'P 21'
_symmetry_Int_Tables_number      4
_space_group_name_Hall           'P 2yb'
loop_
_symmetry_equiv_pos_site_id
_symmetry_equiv_pos_as_xyz
1 x,y,z
2 -x,1/2+y,-z
_cell_length_a                   10.060(8)
_cell_length_b                   5.648(4)
_cell_length_c                   24.11(2)
_cell_angle_alpha                90
_cell_angle_beta                 91.078(10)
_cell_angle_gamma                90
_cell_volume                     1369.66
_exptl_crystal_colour            colorless
_exptl_crystal_description       block
_chemical_melting_point          '168-170 deg.C'
_cell_formula_units_Z            2
loop_
_atom_site_label
_atom_site_type_symbol
_atom_site_fract_x
_atom_site_fract_y
_atom_site_fract_z
O1 O 0.2949(4) 0.1812(7) 0.2833(1)
O2 O 0.0930(4) 0.0204(6) 0.2630(1)
O3 O 0.2267(4) 0.1979(6) 0.3969(1)
O4 O 0.2478(4) 0.5936(7) 0.3905(2)
O5 O -0.0547(4) 0.2608(6) 0.4063(1)
O6 O -0.1229(4) -0.0066(7) 0.4680(2)
O7 O -0.1973(3) -0.1330(6) 0.3417(1)
O8 O -0.3315(4) 0.1809(8) 0.3551(2)
O9 O -0.0033(4) -0.3298(8) 0.1959(2)
O10 O -0.1402(5) -0.6266(9) 0.1910(3)
N1 N 0.8322(5) -0.1678(9) 0.0664(2)
N2 N 0.5868(4) -0.3854(8) 0.0911(2)
C1 C 0.3743(5) 0.0745(10) 0.2439(2)
C2 C 0.4865(6) 0.1974(11) 0.2298(2)
C3 C 0.5698(5) 0.1137(10) 0.1896(2)
C4 C 0.5434(5) -0.0993(10) 0.1629(2)
C5 C 0.4304(6) -0.2255(11) 0.1783(3)
C6 C 0.3456(6) -0.1403(11) 0.2183(2)
C7 C 0.1928(5) 0.0481(10) 0.3052(2)
C8 C 0.1318(5) 0.1910(9) 0.3517(2)
C9 C 0.0047(5) 0.0803(9) 0.3720(2)
C10 C -0.0901(5) 0.0170(9) 0.3238(2)
C11 C -0.0133(5) -0.1261(10) 0.2818(2)
C12 C 0.6279(5) -0.1958(10) 0.1179(2)
C13 C 0.7509(6) -0.0906(12) 0.1049(2)
C14 C 0.7885(6) -0.3628(10) 0.0372(2)
C15 C 0.8642(6) -0.4532(11) -0.0061(2)
C16 C 0.8196(6) -0.6388(12) -0.0367(3)
C17 C 0.6964(6) -0.7438(12) -0.0254(3)
C18 C 0.6220(6) -0.6634(11) 0.0175(3)
C19 C 0.6659(5) -0.4669(10) 0.0500(2)
C20 C 0.2800(5) 0.4104(11) 0.4106(2)
C21 C 0.3884(6) 0.3783(12) 0.4534(2)
C22 C -0.1201(5) 0.1935(10) 0.4526(2)
C23 C -0.1867(6) 0.3950(11) 0.4785(2)
C24 C -0.3161(6) -0.0287(11) 0.3530(2)
C25 C -0.4189(7) -0.2094(12) 0.3630(3)
C26 C -0.0912(6) -0.2013(11) 0.2316(3)
C27 C -0.0389(6) -0.5412(10) 0.1782(2)
C28 C 0.0621(7) -0.6540(12) 0.1433(3)
H1 H 0.5066(6) 0.3415(11) 0.2485(2)
H2 H 0.6454(5) 0.2024(10) 0.1791(2)
H3 H 0.4127(6) -0.3724(11) 0.1604(3)
H4 H 0.2682(6) -0.2254(11) 0.2283(2)
H5 H 0.2235(5) -0.1003(10) 0.3189(2)
H6 H 0.1138(5) 0.3465(9) 0.3386(2)
H7 H 0.0247(5) -0.0584(9) 0.3928(2)
H8 H -0.1236(5) 0.1570(9) 0.3067(2)
H9 H 0.0216(5) -0.2629(10) 0.2998(2)
H10 H 0.7768(6) 0.0462(12) 0.1253(2)
H11 H 0.9487(6) -0.3863(11) -0.0134(2)
H12 H 0.8708(6) -0.6967(12) -0.0665(3)
H13 H 0.6647(6) -0.8711(12) -0.0477(3)
H14 H 0.5410(6) -0.7395(11) 0.0265(3)
H15 H 0.3536(6) 0.3060(12) 0.4855(2)
H16 H 0.4556(6) 0.2801(12) 0.4385(2)
H17 H 0.4254(6) 0.5280(12) 0.4629(2)
H18 H -0.1220(6) 0.5104(11) 0.4887(2)
H19 H -0.2485(6) 0.4618(11) 0.4527(2)
H20 H -0.2323(6) 0.3447(11) 0.5106(2)
H21 H -0.5010(7) -0.1353(12) 0.3710(3)
H22 H -0.4295(7) -0.3058(12) 0.3309(3)
H23 H -0.3913(7) -0.3048(12) 0.3935(3)
H24 H -0.1229(6) -0.0634(11) 0.2131(3)
H25 H -0.1644(6) -0.2978(11) 0.2415(3)
H26 H 0.0310(7) -0.8052(12) 0.1317(3)
H27 H 0.0769(7) -0.5577(12) 0.1117(3)
H28 H 0.1429(7) -0.6717(12) 0.1639(3)
loop_
_geom_bond_atom_site_label_1
_geom_bond_atom_site_label_2
_geom_bond_site_symmetry_1
_geom_bond_site_symmetry_2
O1 C1 1_555 1_555
O2 C7 1_555 1_555
O3 C8 1_555 1_555
O4 C20 1_555 1_555
O5 C9 1_555 1_555
O6 C22 1_555 1_555
O7 C10 1_555 1_555
O8 C24 1_555 1_555
O9 C26 1_555 1_555
O10 C27 1_555 1_555
N1 C13 1_555 1_555
N2 C12 1_555 1_555
C1 C2 1_555 1_555
C2 C3 1_555 1_555
C3 C4 1_555 1_555
C4 C5 1_555 1_555
C5 C6 1_555 1_555
C6 C1 1_555 1_555
C7 O1 1_555 1_555
C8 C7 1_555 1_555
C9 C8 1_555 1_555
C10 C9 1_555 1_555
C11 O2 1_555 1_555
C12 C4 1_555 1_555
C13 C12 1_555 1_555
C14 N1 1_555 1_555
C15 C14 1_555 1_555
C16 C15 1_555 1_555
C17 C16 1_555 1_555
C18 C17 1_555 1_555
C19 N2 1_555 1_555
C20 O3 1_555 1_555
C21 C20 1_555 1_555
C22 O5 1_555 1_555
C23 C22 1_555 1_555
C24 O7 1_555 1_555
C25 C24 1_555 1_555
C26 C11 1_555 1_555
C27 O9 1_555 1_555
C28 C27 1_555 1_555
H1 C2 1_555 1_555
H2 C3 1_555 1_555
H3 C5 1_555 1_555
H4 C6 1_555 1_555
H5 C7 1_555 1_555
H6 C8 1_555 1_555
H7 C9 1_555 1_555
H8 C10 1_555 1_555
H9 C11 1_555 1_555
H10 C13 1_555 1_555
H11 C15 1_555 1_555
H12 C16 1_555 1_555
H13 C17 1_555 1_555
H14 C18 1_555 1_555
H15 C21 1_555 1_555
H16 C21 1_555 1_555
H17 C21 1_555 1_555
H18 C23 1_555 1_555
H19 C23 1_555 1_555
H20 C23 1_555 1_555
H21 C25 1_555 1_555
H22 C25 1_555 1_555
H23 C25 1_555 1_555
H24 C26 1_555 1_555
H25 C26 1_555 1_555
H26 C28 1_555 1_555
H27 C28 1_555 1_555
H28 C28 1_555 1_555
C10 C11 1_555 1_555
C14 C19 1_555 1_555
C18 C19 1_555 1_555

#END
