
#######################################################################
#
#                 Cambridge Crystallographic Data Centre
#                                CCDC 
#
#######################################################################
#
# If this CIF has been generated from an entry in the Cambridge 
# Structural Database, then it will include bibliographic, chemical, 
# crystal, experimental, refinement or atomic coordinate data resulting 
# from the CCDC's data processing and validation procedures.
#
#######################################################################

data_NENJAU
_chemical_formula_moiety         'C24 H20 Br1 F3 N4 O1'
_chemical_name_systematic        
"6-Amino-4-[2'-bromo-5-(trifluoromethyl)[biphenyl]-3-yl]-3-methyl-4-isopropyl-2,4-dihydropyrano[2,3-c]pyrazole-5-carbonitrile unknown solvate"
_symmetry_cell_setting           monoclinic
_symmetry_space_group_name_H-M   'C 2/c'
_symmetry_Int_Tables_number      15
_space_group_name_Hall           '-C 2yn'
loop_
_symmetry_equiv_pos_site_id
_symmetry_equiv_pos_as_xyz
1 x,y,z
2 -x,y,1/2-z
3 1/2+x,1/2+y,z
4 1/2-x,1/2+y,1/2-z
5 -x,-y,-z
6 x,-y,1/2+z
7 1/2-x,1/2-y,-z
8 1/2+x,1/2-y,1/2+z
_cell_length_a                   38.787(4)
_cell_length_b                   9.8919(11)
_cell_length_c                   14.1063(15)
_cell_angle_alpha                90
_cell_angle_beta                 99.703(3)
_cell_angle_gamma                90
_cell_volume                     5334.84
_exptl_crystal_colour            'light yellow'
_exptl_crystal_description       block
_cell_formula_units_Z            8
_exptl_crystal_recrystallization_method 'dichloromethane/hexane mixture'
loop_
_atom_site_label
_atom_site_type_symbol
_atom_site_fract_x
_atom_site_fract_y
_atom_site_fract_z
Br1 Br 0.30688(2) -0.16229(3) 0.42375(3)
O1 O 0.46949(6) 0.0587(2) 0.53801(18)
N1 N 0.45132(7) -0.1634(2) 0.5422(2)
N2 N 0.42317(7) -0.2229(3) 0.5712(2)
H1 H 0.4193 -0.3105 0.5671
N3 N 0.48264(9) 0.2716(3) 0.5140(3)
H2 H 0.4803(11) 0.353(5) 0.509(3)
H3 H 0.4983(13) 0.235(5) 0.499(3)
N4 N 0.42144(9) 0.4823(3) 0.5946(3)
C1 C 0.40673(8) 0.1326(3) 0.6283(2)
C2 C 0.43107(8) 0.2271(3) 0.5835(3)
C3 C 0.45999(8) 0.1892(3) 0.5464(3)
C4 C 0.44593(8) -0.0343(3) 0.5599(2)
C5 C 0.41634(8) -0.0079(3) 0.6000(2)
C6 C 0.40194(9) -0.1372(3) 0.6061(3)
C7 C 0.42553(9) 0.3684(3) 0.5902(3)
C8 C 0.36983(9) -0.1863(3) 0.6415(3)
H4 H 0.3605 -0.2657 0.6042
H5 H 0.3522 -0.1145 0.6337
H6 H 0.3758 -0.2107 0.7096
C9 C 0.36886(8) 0.1711(3) 0.5822(2)
C10 C 0.35095(8) 0.2751(3) 0.6219(3)
H7 H 0.3607 0.3143 0.6820
C11 C 0.31907(8) 0.3200(3) 0.5733(3)
C12 C 0.30387(8) 0.2654(3) 0.4861(3)
H8 H 0.2820 0.2986 0.4538
C13 C 0.32081(8) 0.1611(3) 0.4459(2)
C14 C 0.35340(8) 0.1161(3) 0.4949(2)
H9 H 0.3652 0.0459 0.4673
C15 C 0.30123(9) 0.4355(3) 0.6143(3)
C16 C 0.30545(8) 0.1088(3) 0.3496(3)
C17 C 0.29636(9) 0.2027(4) 0.2737(3)
H10 H 0.3005 0.2962 0.2860
C18 C 0.28165(10) 0.1621(4) 0.1826(3)
H11 H 0.2755 0.2272 0.1332
C19 C 0.27580(9) 0.0258(4) 0.1630(3)
H12 H 0.2660 -0.0027 0.0999
C20 C 0.28426(9) -0.0685(4) 0.2358(3)
H13 H 0.2803 -0.1618 0.2223
C21 C 0.29832(9) -0.0281(3) 0.3270(3)
C22 C 0.41441(9) 0.1530(3) 0.7385(3)
H14 H 0.4106 0.2510 0.7510
C23 C 0.45277(10) 0.1205(4) 0.7812(3)
H15 H 0.4579 0.0265 0.7667
H16 H 0.4565 0.1334 0.8511
H17 H 0.4683 0.1810 0.7530
C24 C 0.39060(10) 0.0726(4) 0.7940(3)
H18 H 0.3661 0.0865 0.7644
H19 H 0.3941 0.1036 0.8609
H20 H 0.3963 -0.0237 0.7922
F1 F 0.2999(2) 0.4156(7) 0.7099(4)
F2 F 0.26694(16) 0.4462(9) 0.5753(6)
F3 F 0.3157(2) 0.5505(5) 0.6063(10)
F4? F 0.3167(4) 0.475(2) 0.6976(12)
F5? F 0.2686(4) 0.4136(15) 0.6127(15)
F6? F 0.3012(5) 0.5476(11) 0.5495(12)
F7? F 0.2811(5) 0.3992(13) 0.6771(17)
F8? F 0.2782(5) 0.4999(18) 0.5500(12)
F9? F 0.3240(3) 0.5325(13) 0.6564(13)
loop_
_geom_bond_atom_site_label_1
_geom_bond_atom_site_label_2
_geom_bond_site_symmetry_1
_geom_bond_site_symmetry_2
Br1 C21 1_555 1_555
O1 C3 1_555 1_555
N1 N2 1_555 1_555
N2 H1 1_555 1_555
N3 H2 1_555 1_555
H3 N3 1_555 1_555
N4 C7 1_555 1_555
C1 C2 1_555 1_555
C2 C3 1_555 1_555
C3 N3 1_555 1_555
C4 O1 1_555 1_555
C5 C1 1_555 1_555
C6 N2 1_555 1_555
C7 C2 1_555 1_555
C8 C6 1_555 1_555
H4 C8 1_555 1_555
H5 C8 1_555 1_555
H6 C8 1_555 1_555
C9 C1 1_555 1_555
C10 C9 1_555 1_555
H7 C10 1_555 1_555
C11 C10 1_555 1_555
C12 C11 1_555 1_555
H8 C12 1_555 1_555
C13 C12 1_555 1_555
C14 C9 1_555 1_555
H9 C14 1_555 1_555
C15 C11 1_555 1_555
C16 C13 1_555 1_555
C17 C16 1_555 1_555
H10 C17 1_555 1_555
C18 C17 1_555 1_555
H11 C18 1_555 1_555
C19 C18 1_555 1_555
H12 C19 1_555 1_555
C20 C19 1_555 1_555
H13 C20 1_555 1_555
C21 C16 1_555 1_555
C22 C1 1_555 1_555
H14 C22 1_555 1_555
C23 C22 1_555 1_555
H15 C23 1_555 1_555
H16 C23 1_555 1_555
H17 C23 1_555 1_555
C24 C22 1_555 1_555
H18 C24 1_555 1_555
H19 C24 1_555 1_555
H20 C24 1_555 1_555
F1 C15 1_555 1_555
F2 C15 1_555 1_555
F3 C15 1_555 1_555
N1 C4 1_555 1_555
C4 C5 1_555 1_555
C5 C6 1_555 1_555
C13 C14 1_555 1_555
C20 C21 1_555 1_555

#END
