
#######################################################################
#
#                 Cambridge Crystallographic Data Centre
#                                CCDC 
#
#######################################################################
#
# If this CIF has been generated from an entry in the Cambridge 
# Structural Database, then it will include bibliographic, chemical, 
# crystal, experimental, refinement or atomic coordinate data resulting 
# from the CCDC's data processing and validation procedures.
#
#######################################################################

data_NENJIC
_chemical_formula_moiety         'C27 H25 F6 N5 O3 S1,1.5(C1 H2 Cl2)'
_chemical_name_systematic        
"3'-[6-Amino-5-cyano-3-methyl-4-isopropyl-2,4-dihydropyrano[2,3-c]pyrazol-4-yl]-N-methyl-N-(2,2,2-trifluoroethyl)-5'-(trifluoromethyl)(1,1'-biphenyl)-4-sulfonamide dichloromethane solvate"
_symmetry_cell_setting           triclinic
_symmetry_space_group_name_H-M   'P -1'
_symmetry_Int_Tables_number      2
_space_group_name_Hall           '-P 1'
loop_
_symmetry_equiv_pos_site_id
_symmetry_equiv_pos_as_xyz
1 x,y,z
2 -x,-y,-z
_cell_length_a                   9.7486(6)
_cell_length_b                   11.7562(7)
_cell_length_c                   14.6615(9)
_cell_angle_alpha                92.403(3)
_cell_angle_beta                 95.931(3)
_cell_angle_gamma                104.298(3)
_cell_volume                     1615.57
_exptl_crystal_colour            colorless
_exptl_crystal_description       block
_cell_formula_units_Z            2
loop_
_atom_site_label
_atom_site_type_symbol
_atom_site_fract_x
_atom_site_fract_y
_atom_site_fract_z
S1 S 0.37382(6) 0.52756(5) 0.28688(4)
F1 F 0.02848(15) 0.52928(13) 0.16377(11)
F2 F 1.12568(15) 1.11283(14) 0.74200(10)
F3 F 1.11870(16) 1.03073(14) 0.60804(11)
O1 O 0.59496(15) 0.62379(13) 0.98017(10)
F4 F 0.12693(17) 0.67254(14) 0.08857(10)
F5 F 0.99794(17) 1.15653(14) 0.62843(12)
O2 O 0.24261(17) 0.45764(15) 0.31132(11)
O3 O 0.46551(18) 0.47627(15) 0.23828(11)
F6 F -0.0079(2) 0.69989(17) 0.19034(13)
N1 N 0.33139(19) 0.73569(17) 0.88119(13)
N2 N 0.37441(19) 0.65570(17) 0.93431(13)
N3 N 0.3314(2) 0.62695(18) 0.22231(13)
N4 N 0.7923(2) 0.56154(18) 0.98958(14)
N5 N 1.0421(2) 0.75082(18) 0.86839(15)
C1 C 0.7306(2) 0.64318(19) 0.95763(14)
C2 C 0.5642(2) 0.78670(19) 0.88678(14)
C3 C 0.4404(2) 0.81475(19) 0.85148(15)
C4 C 0.5139(2) 0.68821(19) 0.93507(14)
C5 C 0.7212(2) 0.83722(18) 0.88409(14)
C6 C 0.7571(2) 0.86697(18) 0.78672(14)
C7 C 0.7802(2) 0.94529(19) 0.95570(15)
H1 H 0.8849 0.9736 0.9524
C8 C 0.8369(2) 0.8979(2) 0.60954(15)
H2 H 0.8648 0.9091 0.5497
C9 C 0.7179(2) 0.80876(19) 0.62285(14)
C10 C 0.9295(2) 0.74441(19) 0.88786(15)
C11 C 0.6805(2) 0.79480(19) 0.71199(14)
H3 H 0.6000 0.7339 0.7216
C12 C 0.7904(2) 0.73738(19) 0.91056(14)
C13 C 0.6339(2) 0.73228(19) 0.54308(14)
C14 C 0.4746(2) 0.60223(19) 0.38803(15)
C15 C 0.6214(2) 0.6438(2) 0.38957(15)
H4 H 0.6670 0.6285 0.3379
C16 C 0.8757(2) 0.95626(19) 0.77197(15)
H5 H 0.9296 1.0073 0.8220
C17 C 0.9141(2) 0.9699(2) 0.68388(15)
C18 C 0.4871(2) 0.6863(2) 0.54092(15)
H6 H 0.4414 0.6998 0.5930
C19 C 0.4073(2) 0.6215(2) 0.46402(15)
H7 H 0.3075 0.5905 0.4632
C20 C 0.7000(2) 0.7077(2) 0.46725(15)
H8 H 0.8004 0.7352 0.4690
C21 C 1.0389(2) 1.0669(2) 0.66654(15)
C22 C 0.7601(3) 0.9120(2) 1.05410(15)
H9 H 0.6582 0.8832 1.0595
H10 H 0.8008 0.9813 1.0968
H11 H 0.8085 0.8501 1.0690
C23 C 0.7143(3) 1.0477(2) 0.93542(17)
H12 H 0.7213 1.0659 0.8712
H13 H 0.7654 1.1168 0.9759
H14 H 0.6138 1.0261 0.9461
C24 C 0.4116(2) 0.9050(2) 0.78872(16)
H15 H 0.3129 0.8799 0.7594
H16 H 0.4767 0.9138 0.7414
H17 H 0.4263 0.9804 0.8241
C25 C 0.2160(3) 0.6768(2) 0.24577(17)
H18 H 0.2507 0.7635 0.2541
H19 H 0.1853 0.6477 0.3047
C26 C 0.0908(3) 0.6441(2) 0.17201(18)
C27 C 0.4468(3) 0.7045(2) 0.17972(18)
H20 H 0.4988 0.7691 0.2243
H21 H 0.4060 0.7367 0.1258
H22 H 0.5123 0.6593 0.1608
H23 H 0.742(3) 0.4979(19) 1.0129(18)
H24 H 0.878(2) 0.562(3) 0.975(2)
H25 H 0.2382(19) 0.734(2) 0.8716(18)
Cl1 Cl 0.87150(9) 0.25109(9) 0.42806(8)
Cl2 Cl 0.9383(2) 0.51313(18) 0.39695(14)
C28 C 0.9201(10) 0.3676(5) 0.3520(6)
H26 H 1.0116 0.3635 0.3302
H27 H 0.8473 0.3515 0.2976
C29? C 0.9618(10) 0.3571(8) 0.3625(8)
H28? H 0.9834 0.3213 0.3051
H29? H 1.0517 0.4044 0.3972
Cl3? Cl 0.8383(4) 0.4433(3) 0.3392(2)
Cl4? Cl 0.4058(5) -0.0734(6) 0.4124(5)
H30? H 0.6503 -0.0177 0.4739
H31? H 0.6012 0.0955 0.4443
C30? C 0.5752(6) 0.0247(5) 0.4794(3)
H32? H 0.6050 0.0994 0.4496
H33? H 0.6580 -0.0103 0.4846
Cl5? Cl 0.4536(6) -0.0611(3) 0.40980(13)
loop_
_geom_bond_atom_site_label_1
_geom_bond_atom_site_label_2
_geom_bond_site_symmetry_1
_geom_bond_site_symmetry_2
S1 O2 1_555 1_555
F1 C26 1_555 1_555
F2 C21 1_555 1_555
F3 C21 1_555 1_555
O1 C1 1_555 1_555
F4 C26 1_555 1_555
F5 C21 1_555 1_555
O3 S1 1_555 1_555
F6 C26 1_555 1_555
N1 N2 1_555 1_555
N2 C4 1_555 1_555
N3 S1 1_555 1_555
N4 C1 1_555 1_555
N5 C10 1_555 1_555
C1 C12 1_555 1_555
C2 C3 1_555 1_555
C3 N1 1_555 1_555
C4 O1 1_555 1_555
C5 C2 1_555 1_555
C6 C5 1_555 1_555
C7 C5 1_555 1_555
H1 C7 1_555 1_555
C8 H2 1_555 1_555
C9 C8 1_555 1_555
C10 C12 1_555 1_555
C11 C6 1_555 1_555
H3 C11 1_555 1_555
C12 C5 1_555 1_555
C13 C9 1_555 1_555
C14 S1 1_555 1_555
C15 C14 1_555 1_555
H4 C15 1_555 1_555
C16 C6 1_555 1_555
H5 C16 1_555 1_555
C17 C8 1_555 1_555
C18 C13 1_555 1_555
H6 C18 1_555 1_555
C19 C14 1_555 1_555
H7 C19 1_555 1_555
C20 C13 1_555 1_555
H8 C20 1_555 1_555
C21 C17 1_555 1_555
C22 C7 1_555 1_555
H9 C22 1_555 1_555
H10 C22 1_555 1_555
H11 C22 1_555 1_555
C23 C7 1_555 1_555
H12 C23 1_555 1_555
H13 C23 1_555 1_555
H14 C23 1_555 1_555
C24 C3 1_555 1_555
H15 C24 1_555 1_555
H16 C24 1_555 1_555
H17 C24 1_555 1_555
C25 N3 1_555 1_555
H18 C25 1_555 1_555
H19 C25 1_555 1_555
C26 C25 1_555 1_555
C27 N3 1_555 1_555
H20 C27 1_555 1_555
H21 C27 1_555 1_555
H22 C27 1_555 1_555
H23 N4 1_555 1_555
H24 N4 1_555 1_555
H25 N1 1_555 1_555
Cl1 C28 1_555 1_555
Cl2 C28 1_555 1_555
C28 H26 1_555 1_555
H27 C28 1_555 1_555
C2 C4 1_555 1_555
C9 C11 1_555 1_555
C15 C20 1_555 1_555
C16 C17 1_555 1_555
C18 C19 1_555 1_555

#END
