
#######################################################################
#
#                 Cambridge Crystallographic Data Centre
#                                CCDC 
#
#######################################################################
#
# If this CIF has been generated from an entry in the Cambridge 
# Structural Database, then it will include bibliographic, chemical, 
# crystal, experimental, refinement or atomic coordinate data resulting 
# from the CCDC's data processing and validation procedures.
#
#######################################################################

data_NENJEY
_chemical_formula_moiety         'C26 H26 F3 N5 O3 S1,x(C1 H2 Cl2)'
_chemical_name_systematic        
"3'-[6-Amino-5-cyano-3-methyl-4-isopropyl-2,4-dihydropyrano[2,3-c]pyrazol-4-yl]-N,N-dimethyl-5'-(trifluoromethyl)[1,1'-biphenyl]-4-sulfonamide dichloromethane solvate"
_symmetry_cell_setting           monoclinic
_symmetry_space_group_name_H-M   'P 21/c'
_symmetry_Int_Tables_number      14
_space_group_name_Hall           '-P 2ybc'
loop_
_symmetry_equiv_pos_site_id
_symmetry_equiv_pos_as_xyz
1 x,y,z
2 -x,1/2+y,1/2-z
3 -x,-y,-z
4 x,1/2-y,1/2+z
_cell_length_a                   22.7123(7)
_cell_length_b                   9.6826(3)
_cell_length_c                   14.1227(4)
_cell_angle_alpha                90
_cell_angle_beta                 98.1350(10)
_cell_angle_gamma                90
_cell_volume                     3074.53
_exptl_crystal_colour            colorless
_exptl_crystal_description       block
_cell_formula_units_Z            4
loop_
_atom_site_label
_atom_site_type_symbol
_atom_site_fract_x
_atom_site_fract_y
_atom_site_fract_z
S1 S 0.00188(2) 0.74957(5) 0.38520(3)
O1 O -0.04267(6) 0.70417(15) 0.30974(10)
O2 O -0.01533(6) 0.80163(15) 0.47220(10)
F1 F 0.21055(8) -0.15227(14) 0.63950(11)
F2 F 0.21858(9) 0.01073(17) 0.74242(10)
F3 F 0.13454(7) -0.04073(18) 0.66570(12)
O3 O 0.44044(6) 0.06076(16) 0.46670(15)
N1 N 0.03893(7) 0.87282(17) 0.34070(11)
C1 C 0.05145(8) 0.61047(19) 0.41437(13)
N2 N 0.36213(8) -0.23665(19) 0.42705(16)
H1 H 0.3615(12) -0.3296(18) 0.4289(19)
C2 C 0.12963(8) 0.39241(19) 0.46097(13)
C3 C 0.06189(8) 0.5174(2) 0.34405(14)
H2 H 0.0423 0.5276 0.2804
C4 C 0.25727(8) 0.14221(19) 0.45259(13)
C5 C 0.17051(8) 0.27431(19) 0.48544(13)
C6 C 0.10136(8) 0.4092(2) 0.36756(13)
H3 H 0.1092 0.3460 0.3194
C7 C 0.21680(8) 0.25031(19) 0.43123(13)
H4 H 0.2207 0.3091 0.3786
N3 N 0.41455(8) -0.16939(19) 0.45331(17)
C8 C 0.16328(8) 0.18562(19) 0.56046(13)
H5 H 0.1321 0.2003 0.5977
C9 C 0.31159(8) 0.12450(19) 0.39925(14)
C10 C 0.20209(8) 0.0756(2) 0.58009(14)
C11 C 0.24925(8) 0.0556(2) 0.52888(13)
H6 H 0.2764 -0.0179 0.5459
C12 C 0.19271(10) -0.0252(2) 0.65692(15)
C13 C 0.33774(8) -0.0182(2) 0.41313(15)
C14 C 0.36013(8) 0.2230(2) 0.44768(16)
C15 C 0.07952(9) 0.5966(2) 0.50759(14)
H7 H 0.0725 0.6616 0.5551
C16 C 0.31563(9) -0.1514(2) 0.40457(16)
C17 C 0.11821(9) 0.4862(2) 0.53074(14)
H8 H 0.1370 0.4748 0.5948
C18 C 0.06215(10) 0.8412(2) 0.25132(15)
H9 H 0.0987 0.7867 0.2655
H10 H 0.0708 0.9275 0.2197
H11 H 0.0324 0.7883 0.2090
N4 N 0.33366(10) 0.4779(2) 0.4668(2)
C19 C 0.08117(9) 0.9511(2) 0.40918(16)
H12 H 0.0617 0.9790 0.4638
H13 H 0.0943 1.0334 0.3777
H14 H 0.1156 0.8929 0.4316
C20 C 0.39823(9) -0.0395(2) 0.44402(17)
N5 N 0.46228(9) 0.2775(2) 0.5080(2)
H15 H 0.5006(9) 0.254(3) 0.515(2)
H16 H 0.4563(13) 0.3671(19) 0.508(2)
C21 C 0.34548(9) 0.3632(2) 0.45830(18)
C22 C 0.29680(9) 0.1634(2) 0.29080(15)
H17 H 0.2842 0.2624 0.2874
C23 C 0.25421(9) -0.2102(2) 0.38045(18)
H18 H 0.2491 -0.2466 0.3150
H19 H 0.2248 -0.1376 0.3854
H20 H 0.2487 -0.2850 0.4252
C24 C 0.41850(9) 0.1906(2) 0.47351(19)
C25 C 0.24628(11) 0.0796(3) 0.23716(17)
H21 H 0.2580 -0.0177 0.2362
H22 H 0.2373 0.1139 0.1714
H23 H 0.2109 0.0887 0.2692
C26 C 0.35210(12) 0.1512(3) 0.24017(19)
H24 H 0.3846 0.2056 0.2749
H25 H 0.3428 0.1860 0.1746
H26 H 0.3642 0.0541 0.2387
loop_
_geom_bond_atom_site_label_1
_geom_bond_atom_site_label_2
_geom_bond_site_symmetry_1
_geom_bond_site_symmetry_2
S1 O1 1_555 1_555
O2 S1 1_555 1_555
F1 C12 1_555 1_555
F2 C12 1_555 1_555
F3 C12 1_555 1_555
O3 C20 1_555 1_555
N1 S1 1_555 1_555
C1 S1 1_555 1_555
N2 H1 1_555 1_555
C2 C5 1_555 1_555
C3 C1 1_555 1_555
H2 C3 1_555 1_555
C4 C7 1_555 1_555
C5 C7 1_555 1_555
C6 C2 1_555 1_555
H3 C6 1_555 1_555
C7 H4 1_555 1_555
N3 N2 1_555 1_555
C8 C5 1_555 1_555
H5 C8 1_555 1_555
C9 C4 1_555 1_555
C10 C8 1_555 1_555
C11 C4 1_555 1_555
H6 C11 1_555 1_555
C12 C10 1_555 1_555
C13 C9 1_555 1_555
C14 C9 1_555 1_555
C15 C1 1_555 1_555
H7 C15 1_555 1_555
C16 N2 1_555 1_555
C17 C2 1_555 1_555
H8 C17 1_555 1_555
C18 N1 1_555 1_555
H9 C18 1_555 1_555
H10 C18 1_555 1_555
H11 C18 1_555 1_555
N4 C21 1_555 1_555
C19 N1 1_555 1_555
H12 C19 1_555 1_555
H13 C19 1_555 1_555
H14 C19 1_555 1_555
C20 N3 1_555 1_555
N5 H15 1_555 1_555
H16 N5 1_555 1_555
C21 C14 1_555 1_555
C22 C9 1_555 1_555
H17 C22 1_555 1_555
C23 C16 1_555 1_555
H18 C23 1_555 1_555
H19 C23 1_555 1_555
H20 C23 1_555 1_555
C24 O3 1_555 1_555
C25 C22 1_555 1_555
H21 C25 1_555 1_555
H22 C25 1_555 1_555
H23 C25 1_555 1_555
C26 C22 1_555 1_555
H24 C26 1_555 1_555
H25 C26 1_555 1_555
H26 C26 1_555 1_555
C3 C6 1_555 1_555
C10 C11 1_555 1_555
C13 C16 1_555 1_555
C13 C20 1_555 1_555
C14 C24 1_555 1_555
C15 C17 1_555 1_555
N5 C24 1_555 1_555

#END
