
#######################################################################
#
#                 Cambridge Crystallographic Data Centre
#                                CCDC 
#
#######################################################################
#
# If this CIF has been generated from an entry in the Cambridge 
# Structural Database, then it will include bibliographic, chemical, 
# crystal, experimental, refinement or atomic coordinate data resulting 
# from the CCDC's data processing and validation procedures.
#
#######################################################################

data_NENKAV
_chemical_formula_moiety         'C31 H26 O4'
_chemical_name_systematic        
'ethyl 5-[2-(4-methoxyphenyl)-2-oxoethyl]-4-phenyl-2-(phenylethynyl)cyclopenta-1,4-diene-1-carboxylate'
_symmetry_cell_setting           monoclinic
_symmetry_space_group_name_H-M   'P 21/c'
_symmetry_Int_Tables_number      14
_space_group_name_Hall           '-P 2ybc'
loop_
_symmetry_equiv_pos_site_id
_symmetry_equiv_pos_as_xyz
1 x,y,z
2 -x,1/2+y,1/2-z
3 -x,-y,-z
4 x,1/2-y,1/2+z
_cell_length_a                   13.2272(11)
_cell_length_b                   9.6121(8)
_cell_length_c                   20.1431(17)
_cell_angle_alpha                90
_cell_angle_beta                 92.905(7)
_cell_angle_gamma                90
_cell_volume                     2557.73
_cell_formula_units_Z            4
loop_
_atom_site_label
_atom_site_type_symbol
_atom_site_fract_x
_atom_site_fract_y
_atom_site_fract_z
O1 O 0.0248(3) 0.1117(5) 0.34122(19)
O2 O -0.0661(3) 0.1235(5) 0.43003(19)
O3 O -0.0629(2) 0.1844(3) 0.19391(15)
O4 O 0.3719(3) 0.0508(4) 0.10066(18)
C1 C -0.2648(4) 0.1413(6) 0.5911(3)
H1 H -0.1970 0.1244 0.5839
C2 C -0.2938(7) 0.1708(8) 0.6542(3)
H2 H -0.2459 0.1714 0.6896
C3 C -0.3925(8) 0.1992(7) 0.6648(4)
H3 H -0.4118 0.2243 0.7069
C4 C -0.4618(6) 0.1905(7) 0.6137(4)
H4 H -0.5299 0.2045 0.6212
C5 C -0.4335(4) 0.1615(6) 0.5510(3)
H5 H -0.4823 0.1589 0.5161
C6 C -0.3350(3) 0.1365(4) 0.5385(2)
C7 C -0.3048(4) 0.1042(5) 0.4728(2)
C8 C -0.2775(4) 0.0774(4) 0.4193(2)
C9 C -0.2442(3) 0.0387(4) 0.3558(2)
C10 C -0.3061(3) -0.0138(4) 0.3018(2)
H6 H -0.3418 -0.0964 0.3153
H7 H -0.3557 0.0555 0.2870
C11 C -0.2435(3) -0.0455(4) 0.2509(2)
C12 C -0.2720(3) -0.1080(5) 0.1863(2)
C13 C -0.3236(4) -0.2331(5) 0.1832(3)
H8 H -0.3406 -0.2772 0.2221
C14 C -0.3501(5) -0.2928(7) 0.1222(4)
H9 H -0.3853 -0.3766 0.1207
C15 C -0.3255(5) -0.2307(8) 0.0646(3)
H10 H -0.3416 -0.2731 0.0239
C16 C -0.2769(4) -0.1059(8) 0.0671(3)
H11 H -0.2618 -0.0609 0.0280
C17 C -0.2500(4) -0.0463(5) 0.1278(2)
H12 H -0.2158 0.0383 0.1288
C18 C -0.1473(3) -0.0125(3) 0.27123(16)
C19 C -0.1453(3) 0.0399(4) 0.3344(2)
C20 C -0.0537(4) 0.0914(5) 0.3679(3)
C21 C 0.0184(5) 0.1928(10) 0.4670(3)
H13 H 0.0404 0.1375 0.5053
H14 H 0.0751 0.2039 0.4388
C22 C -0.0152(7) 0.3217(9) 0.4872(5)
H15 H -0.0282 0.3800 0.4490
H16 H 0.0356 0.3640 0.5163
H17 H -0.0764 0.3105 0.5103
C23 C -0.0582(3) -0.0472(4) 0.2359(2)
H18 H -0.0756 -0.1183 0.2031
H19 H -0.0073 -0.0858 0.2671
C24 C -0.0137(3) 0.0770(4) 0.20136(19)
C25 C 0.0883(3) 0.0622(4) 0.17643(19)
C26 C 0.1296(4) 0.1749(5) 0.1439(2)
H20 H 0.0924 0.2567 0.1388
C27 C 0.2236(4) 0.1675(5) 0.1193(2)
H21 H 0.2499 0.2436 0.0974
C28 C 0.2802(4) 0.0462(5) 0.1270(2)
C29 C 0.2406(4) -0.0645(5) 0.1582(2)
H22 H 0.2780 -0.1462 0.1629
C30 C 0.1461(3) -0.0574(5) 0.1832(2)
H23 H 0.1205 -0.1342 0.2049
C31 C 0.4363(5) -0.0680(7) 0.1078(4)
H24 H 0.4006 -0.1490 0.0915
H25 H 0.4563 -0.0808 0.1539
H26 H 0.4954 -0.0541 0.0828
loop_
_geom_bond_atom_site_label_1
_geom_bond_atom_site_label_2
_geom_bond_site_symmetry_1
_geom_bond_site_symmetry_2
O1 C20 1_555 1_555
O2 C20 1_555 1_555
O3 C24 1_555 1_555
O4 C28 1_555 1_555
C1 H1 1_555 1_555
C2 C1 1_555 1_555
H2 C2 1_555 1_555
C3 C2 1_555 1_555
H3 C3 1_555 1_555
C4 C3 1_555 1_555
H4 C4 1_555 1_555
C5 C4 1_555 1_555
H5 C5 1_555 1_555
C6 C1 1_555 1_555
C7 C6 1_555 1_555
C8 C7 1_555 1_555
C9 C8 1_555 1_555
C10 C9 1_555 1_555
H6 C10 1_555 1_555
H7 C10 1_555 1_555
C11 C10 1_555 1_555
C12 C11 1_555 1_555
C13 C12 1_555 1_555
H8 C13 1_555 1_555
C14 C13 1_555 1_555
H9 C14 1_555 1_555
C15 C14 1_555 1_555
H10 C15 1_555 1_555
C16 C15 1_555 1_555
H11 C16 1_555 1_555
C17 C12 1_555 1_555
H12 C17 1_555 1_555
C18 C11 1_555 1_555
C19 C9 1_555 1_555
C20 C19 1_555 1_555
C21 O2 1_555 1_555
H13 C21 1_555 1_555
H14 C21 1_555 1_555
C22 C21 1_555 1_555
H15 C22 1_555 1_555
H16 C22 1_555 1_555
H17 C22 1_555 1_555
C23 C18 1_555 1_555
H18 C23 1_555 1_555
H19 C23 1_555 1_555
C24 C23 1_555 1_555
C25 C24 1_555 1_555
C26 C25 1_555 1_555
H20 C26 1_555 1_555
C27 C26 1_555 1_555
H21 C27 1_555 1_555
C28 C27 1_555 1_555
C29 C28 1_555 1_555
H22 C29 1_555 1_555
C30 C25 1_555 1_555
H23 C30 1_555 1_555
C31 O4 1_555 1_555
H24 C31 1_555 1_555
H25 C31 1_555 1_555
H26 C31 1_555 1_555
C5 C6 1_555 1_555
C16 C17 1_555 1_555
C18 C19 1_555 1_555
C29 C30 1_555 1_555

#END
