
#######################################################################
#
#                 Cambridge Crystallographic Data Centre
#                                CCDC 
#
#######################################################################
#
# If this CIF has been generated from an entry in the Cambridge 
# Structural Database, then it will include bibliographic, chemical, 
# crystal, experimental, refinement or atomic coordinate data resulting 
# from the CCDC's data processing and validation procedures.
#
#######################################################################

data_NENLOK
_chemical_formula_moiety         'C20 H24 O2 Si1'
_chemical_name_systematic        
1-(2-(((t-butyl(dimethyl)silyl)ethynyl)oxy)-1-naphthyl)ethanone
_symmetry_cell_setting           monoclinic
_symmetry_space_group_name_H-M   'C 2/c'
_symmetry_Int_Tables_number      15
_space_group_name_Hall           '-C 2yn'
loop_
_symmetry_equiv_pos_site_id
_symmetry_equiv_pos_as_xyz
1 x,y,z
2 -x,y,1/2-z
3 1/2+x,1/2+y,z
4 1/2-x,1/2+y,1/2-z
5 -x,-y,-z
6 x,-y,1/2+z
7 1/2-x,1/2-y,-z
8 1/2+x,1/2-y,1/2+z
_cell_length_a                   23.712(7)
_cell_length_b                   7.074(2)
_cell_length_c                   23.805(8)
_cell_angle_alpha                90
_cell_angle_beta                 108.3500(10)
_cell_angle_gamma                90
_cell_volume                     3789.98
_exptl_crystal_description       prism
_cell_formula_units_Z            8
loop_
_atom_site_label
_atom_site_type_symbol
_atom_site_fract_x
_atom_site_fract_y
_atom_site_fract_z
C1 C 0.78828(15) 0.2250(5) 0.22496(16)
C2 C 0.84773(16) 0.2229(6) 0.22426(19)
H1 H 0.8555 0.2160 0.1879
C3 C 0.89387(18) 0.2309(7) 0.2757(2)
H2 H 0.9331 0.2294 0.2743
C4 C 0.88401(18) 0.2411(6) 0.3300(2)
H3 H 0.9164 0.2451 0.3650
C5 C 0.82738(18) 0.2454(6) 0.33276(19)
H4 H 0.8210 0.2537 0.3697
C6 C 0.77822(15) 0.2375(5) 0.28025(16)
C7 C 0.71912(16) 0.2427(5) 0.28183(17)
H5 H 0.7123 0.2508 0.3186
C8 C 0.67205(15) 0.2362(5) 0.23155(16)
H6 H 0.6330 0.2393 0.2332
C9 C 0.68290(15) 0.2249(5) 0.17782(16)
C10 C 0.73838(15) 0.2184(5) 0.17223(16)
C11 C 0.74690(17) 0.2020(7) 0.11257(18)
O1 O 0.77274(16) 0.0715(6) 0.10057(15)
C12 C 0.7240(3) 0.3612(8) 0.0695(2)
H7 H 0.7318 0.3335 0.0327
H8 H 0.7438 0.4777 0.0861
H9 H 0.6815 0.3748 0.0619
O2 O 0.63567(10) 0.2122(4) 0.12393(11)
C13 C 0.58073(16) 0.2246(6) 0.12490(17)
C14 C 0.53034(17) 0.2334(7) 0.12328(19)
Si1 Si 0.45198(5) 0.2551(2) 0.11769(6)
C15 C 0.4350(4) 0.0705(19) 0.1686(4)
H10 H 0.4391 -0.0550 0.1539
H11 H 0.3947 0.0877 0.1694
H12 H 0.4626 0.0851 0.2082
C16 C 0.4403(3) 0.4755(15) 0.1467(6)
H13 H 0.3989 0.4871 0.1443
H14 H 0.4507 0.5761 0.1241
H15 H 0.4651 0.4845 0.1877
C17 C 0.4067(2) 0.2034(10) 0.0430(2)
C18 C 0.4188(3) 0.0055(17) 0.0237(5)
H16 H 0.4609 -0.0088 0.0298
H17 H 0.3968 -0.0122 -0.0178
H18 H 0.4062 -0.0882 0.0471
C19 C 0.4246(3) 0.345(2) 0.0032(4)
H19 H 0.4189 0.4722 0.0153
H20 H 0.4002 0.3252 -0.0375
H21 H 0.4660 0.3259 0.0065
C20 C 0.3400(2) 0.2196(11) 0.0343(3)
H22 H 0.3324 0.3340 0.0532
H23 H 0.3271 0.1107 0.0518
H24 H 0.3183 0.2245 -0.0077
loop_
_geom_bond_atom_site_label_1
_geom_bond_atom_site_label_2
_geom_bond_site_symmetry_1
_geom_bond_site_symmetry_2
C1 C2 1_555 1_555
C2 H1 1_555 1_555
C3 C2 1_555 1_555
H2 C3 1_555 1_555
C4 C3 1_555 1_555
H3 C4 1_555 1_555
C5 C4 1_555 1_555
H4 C5 1_555 1_555
C6 C1 1_555 1_555
C7 C6 1_555 1_555
H5 C7 1_555 1_555
C8 C7 1_555 1_555
H6 C8 1_555 1_555
C9 C8 1_555 1_555
C10 C1 1_555 1_555
C11 C10 1_555 1_555
O1 C11 1_555 1_555
C12 C11 1_555 1_555
H7 C12 1_555 1_555
H8 C12 1_555 1_555
H9 C12 1_555 1_555
O2 C9 1_555 1_555
C13 O2 1_555 1_555
C14 C13 1_555 1_555
Si1 C14 1_555 1_555
C15 Si1 1_555 1_555
H10 C15 1_555 1_555
H11 C15 1_555 1_555
H12 C15 1_555 1_555
C16 Si1 1_555 1_555
H13 C16 1_555 1_555
H14 C16 1_555 1_555
H15 C16 1_555 1_555
C17 Si1 1_555 1_555
C18 C17 1_555 1_555
H16 C18 1_555 1_555
H17 C18 1_555 1_555
H18 C18 1_555 1_555
C19 C17 1_555 1_555
H19 C19 1_555 1_555
H20 C19 1_555 1_555
H21 C19 1_555 1_555
C20 C17 1_555 1_555
H22 C20 1_555 1_555
H23 C20 1_555 1_555
H24 C20 1_555 1_555
C5 C6 1_555 1_555
C9 C10 1_555 1_555

#END
