
#######################################################################
#
#                 Cambridge Crystallographic Data Centre
#                                CCDC 
#
#######################################################################
#
# If this CIF has been generated from an entry in the Cambridge 
# Structural Database, then it will include bibliographic, chemical, 
# crystal, experimental, refinement or atomic coordinate data resulting 
# from the CCDC's data processing and validation procedures.
#
#######################################################################

data_NENZOX
_chemical_name_common            6-Azauracil
_chemical_formula_moiety         'C3 H3 N3 O2'
_chemical_name_systematic        1,2,4-Triazine-3,5(2H,4H)-dione
_symmetry_cell_setting           orthorhombic
_symmetry_space_group_name_H-M   'P 21 21 21'
_symmetry_Int_Tables_number      19
_space_group_name_Hall           'P 2ac 2ab'
loop_
_symmetry_equiv_pos_site_id
_symmetry_equiv_pos_as_xyz
1 x,y,z
2 1/2-x,-y,1/2+z
3 -x,1/2+y,1/2-z
4 1/2+x,1/2-y,-z
_cell_length_a                   4.8275(6)
_cell_length_b                   4.9849(7)
_cell_length_c                   17.444(2)
_cell_angle_alpha                90
_cell_angle_beta                 90
_cell_angle_gamma                90
_cell_volume                     419.783
_exptl_crystal_colour            colorless
_exptl_crystal_description       prism
_cell_formula_units_Z            4
loop_
_atom_site_label
_atom_site_type_symbol
_atom_site_fract_x
_atom_site_fract_y
_atom_site_fract_z
O1 O 0.2991(3) 0.4776(2) 0.49510(6)
O2 O 1.0049(3) 0.6719(3) 0.33150(7)
N1 N 0.6559(3) 0.5757(3) 0.41470(8)
H1 H 0.7084 0.7182 0.4428
N2 N 0.5192(3) 0.1418(3) 0.32701(8)
N3 N 0.7353(3) 0.3042(3) 0.30986(8)
H2 H 0.8267 0.2699 0.2660
C1 C 0.4351(3) 0.4250(3) 0.43738(9)
C2 C 0.3759(4) 0.1981(3) 0.38757(9)
H3 H 0.2239 0.0853 0.4002
C3 C 0.8115(4) 0.5267(3) 0.34999(9)
loop_
_geom_bond_atom_site_label_1
_geom_bond_atom_site_label_2
_geom_bond_site_symmetry_1
_geom_bond_site_symmetry_2
O1 C1 1_555 1_555
O2 C3 1_555 1_555
N1 H1 1_555 1_555
N2 N3 1_555 1_555
N3 H2 1_555 1_555
C1 N1 1_555 1_555
C2 N2 1_555 1_555
H3 C2 1_555 1_555
C3 N1 1_555 1_555
N3 C3 1_555 1_555
C1 C2 1_555 1_555

#END
