
#######################################################################
#
#                 Cambridge Crystallographic Data Centre
#                                CCDC 
#
#######################################################################
#
# If this CIF has been generated from an entry in the Cambridge 
# Structural Database, then it will include bibliographic, chemical, 
# crystal, experimental, refinement or atomic coordinate data resulting 
# from the CCDC's data processing and validation procedures.
#
#######################################################################

data_NEPBER
_chemical_formula_moiety         'C7 H14 N1 S2 1-,C6 H16 N1 1+'
_chemical_name_systematic        
'bis(n-Propyl)ammonium bis(n-propyl)dithiocarbamate'
_symmetry_cell_setting           monoclinic
_symmetry_space_group_name_H-M   'P 21/c'
_symmetry_Int_Tables_number      14
_space_group_name_Hall           '-P 2ybc'
loop_
_symmetry_equiv_pos_site_id
_symmetry_equiv_pos_as_xyz
1 x,y,z
2 -x,1/2+y,1/2-z
3 -x,-y,-z
4 x,1/2-y,1/2+z
_cell_length_a                   7.88340(11)
_cell_length_b                   28.646(5)
_cell_length_c                   15.541(3)
_cell_angle_alpha                90
_cell_angle_beta                 101.644(8)
_cell_angle_gamma                90
_cell_volume                     3437.37
_exptl_crystal_colour            colorless
_exptl_crystal_description       lath
_cell_formula_units_Z            8
loop_
_atom_site_label
_atom_site_type_symbol
_atom_site_fract_x
_atom_site_fract_y
_atom_site_fract_z
S1 S 0.6614(3) 0.22178(7) 0.16182(13)
S2 S 0.9306(3) 0.21622(7) 0.32613(13)
N1 N 0.7529(8) 0.1432(2) 0.2496(4)
C1 C 0.7781(9) 0.1899(3) 0.2451(4)
C2 C 0.8487(10) 0.1137(3) 0.3201(5)
H1 H 0.7746 0.0872 0.3302
H2 H 0.8764 0.1321 0.3750
C3 C 1.0168(10) 0.0948(3) 0.2984(6)
H3 H 0.9896 0.0768 0.2430
H4 H 1.0922 0.1213 0.2895
C4 C 1.1129(12) 0.0637(3) 0.3712(7)
H5 H 1.1318 0.0806 0.4271
H6 H 1.2249 0.0547 0.3580
H7 H 1.0441 0.0356 0.3755
C5 C 0.6323(10) 0.1171(3) 0.1805(5)
H8 H 0.6787 0.0854 0.1754
H9 H 0.6255 0.1331 0.1234
C6 C 0.4487(10) 0.1133(3) 0.2001(5)
H10 H 0.4555 0.0990 0.2587
H11 H 0.3984 0.1449 0.2012
C7 C 0.3339(11) 0.0842(3) 0.1320(6)
H12 H 0.3299 0.0979 0.0738
H13 H 0.2169 0.0834 0.1444
H14 H 0.3799 0.0524 0.1334
S3 S 0.2106(3) 0.35715(7) 0.33459(13)
S4 S 0.4103(3) 0.34891(7) 0.19038(13)
N2 N 0.3836(14) 0.4259(3) 0.2814(6)
C8 C 0.3373(11) 0.3810(3) 0.2683(5)
C9 C 0.3533(13) 0.4532(4) 0.3610(7)
H15 H 0.3513 0.4321 0.4112
H16 H 0.4445 0.4770 0.3789
C10 C 0.1818(14) 0.4753(4) 0.3300(7)
H17 H 0.0932 0.4516 0.3067
H18 H 0.1871 0.4985 0.2834
C11 C 0.1390(19) 0.4997(4) 0.4135(9)
H19 H 0.2464 0.5109 0.4511
H20 H 0.0823 0.4773 0.4462
H21 H 0.0614 0.5262 0.3954
C12 C 0.5258(15) 0.4449(4) 0.2425(8)
H22 H 0.6233 0.4546 0.2898
H23 H 0.5683 0.4205 0.2070
C13 C 0.4611(15) 0.4853(4) 0.1865(7)
H24 H 0.5578 0.4996 0.1640
H25 H 0.4139 0.5090 0.2216
C14 C 0.3215(11) 0.4699(3) 0.1104(6)
H26 H 0.3239 0.4358 0.1051
H27 H 0.3417 0.4842 0.0561
H28 H 0.2082 0.4797 0.1207
N3 N 0.5893(8) 0.2775(2) 0.3464(4)
H29 H 0.6856 0.2627 0.3345
H30 H 0.5412 0.2946 0.2974
C15 C 0.6466(9) 0.3105(3) 0.4207(5)
H33 H 0.7054 0.2930 0.4732
H34 H 0.5445 0.3264 0.4353
C16 C 0.7682(10) 0.3461(3) 0.3963(5)
H35 H 0.7104 0.3628 0.3427
H36 H 0.8717 0.3302 0.3835
C17 C 0.8238(12) 0.3812(3) 0.4713(6)
H37 H 0.7227 0.3991 0.4801
H38 H 0.9105 0.4025 0.4562
H39 H 0.8737 0.3644 0.5254
C18 C 0.4609(10) 0.2408(3) 0.3602(5)
H40 H 0.4311 0.2212 0.3067
H41 H 0.3534 0.2562 0.3692
C19 C 0.5309(10) 0.2094(3) 0.4394(5)
H42 H 0.6466 0.1973 0.4351
H43 H 0.5429 0.2277 0.4943
C20 C 0.4064(11) 0.1687(3) 0.4411(5)
H44 H 0.2897 0.1809 0.4398
H45 H 0.4447 0.1505 0.4948
H46 H 0.4049 0.1488 0.3897
N4 N -0.0041(7) 0.2966(2) 0.1691(4)
H31 H -0.0510 0.2749 0.2012
H32 H 0.0959 0.3076 0.2043
C21 C 0.0423(9) 0.2726(3) 0.0911(5)
H47 H 0.1072 0.2946 0.0607
H48 H -0.0655 0.2639 0.0494
C22 C 0.1499(10) 0.2295(3) 0.1159(5)
H49 H 0.0833 0.2068 0.1439
H50 H 0.2557 0.2378 0.1592
C23 C 0.2013(10) 0.2069(3) 0.0358(5)
H51 H 0.0968 0.1977 -0.0064
H52 H 0.2723 0.1792 0.0544
H53 H 0.2678 0.2292 0.0082
C24 C -0.1282(10) 0.3361(3) 0.1479(5)
H54 H -0.1452 0.3508 0.2032
H55 H -0.2415 0.3239 0.1168
C25 C -0.0662(10) 0.3726(3) 0.0915(5)
H56 H -0.0712 0.3597 0.0319
H57 H 0.0561 0.3803 0.1168
C26 C -0.1743(12) 0.4169(3) 0.0844(7)
H58 H -0.2970 0.4090 0.0649
H59 H -0.1387 0.4381 0.0417
H60 H -0.1568 0.4322 0.1419
loop_
_geom_bond_atom_site_label_1
_geom_bond_atom_site_label_2
_geom_bond_site_symmetry_1
_geom_bond_site_symmetry_2
S1 C1 1_555 1_555
S2 C1 1_555 1_555
N1 C1 1_555 1_555
C2 N1 1_555 1_555
H1 C2 1_555 1_555
H2 C2 1_555 1_555
C3 C2 1_555 1_555
H3 C3 1_555 1_555
H4 C3 1_555 1_555
C4 C3 1_555 1_555
H5 C4 1_555 1_555
H6 C4 1_555 1_555
H7 C4 1_555 1_555
C5 N1 1_555 1_555
H8 C5 1_555 1_555
H9 C5 1_555 1_555
C6 C5 1_555 1_555
H10 C6 1_555 1_555
H11 C6 1_555 1_555
C7 C6 1_555 1_555
H12 C7 1_555 1_555
H13 C7 1_555 1_555
H14 C7 1_555 1_555
S3 C8 1_555 1_555
S4 C8 1_555 1_555
N2 C8 1_555 1_555
C9 N2 1_555 1_555
H15 C9 1_555 1_555
H16 C9 1_555 1_555
C10 C9 1_555 1_555
H17 C10 1_555 1_555
H18 C10 1_555 1_555
C11 C10 1_555 1_555
H19 C11 1_555 1_555
H20 C11 1_555 1_555
H21 C11 1_555 1_555
C12 N2 1_555 1_555
H22 C12 1_555 1_555
H23 C12 1_555 1_555
C13 C12 1_555 1_555
H24 C13 1_555 1_555
H25 C13 1_555 1_555
C14 C13 1_555 1_555
H26 C14 1_555 1_555
H27 C14 1_555 1_555
H28 C14 1_555 1_555
N3 H29 1_555 1_555
H30 N3 1_555 1_555
N4 H31 1_555 1_555
H32 N4 1_555 1_555
C15 N3 1_555 1_555
H33 C15 1_555 1_555
H34 C15 1_555 1_555
C16 C15 1_555 1_555
H35 C16 1_555 1_555
H36 C16 1_555 1_555
C17 C16 1_555 1_555
H37 C17 1_555 1_555
H38 C17 1_555 1_555
H39 C17 1_555 1_555
C18 N3 1_555 1_555
H40 C18 1_555 1_555
H41 C18 1_555 1_555
C19 C18 1_555 1_555
H42 C19 1_555 1_555
H43 C19 1_555 1_555
C20 C19 1_555 1_555
H44 C20 1_555 1_555
H45 C20 1_555 1_555
H46 C20 1_555 1_555
C21 N4 1_555 1_555
H47 C21 1_555 1_555
H48 C21 1_555 1_555
C22 C21 1_555 1_555
H49 C22 1_555 1_555
H50 C22 1_555 1_555
C23 C22 1_555 1_555
H51 C23 1_555 1_555
H52 C23 1_555 1_555
H53 C23 1_555 1_555
C24 N4 1_555 1_555
H54 C24 1_555 1_555
H55 C24 1_555 1_555
C25 C24 1_555 1_555
H56 C25 1_555 1_555
H57 C25 1_555 1_555
C26 C25 1_555 1_555
H58 C26 1_555 1_555
H59 C26 1_555 1_555
H60 C26 1_555 1_555

#END
