
#######################################################################
#
#                 Cambridge Crystallographic Data Centre
#                                CCDC 
#
#######################################################################
#
# If this CIF has been generated from an entry in the Cambridge 
# Structural Database, then it will include bibliographic, chemical, 
# crystal, experimental, refinement or atomic coordinate data resulting 
# from the CCDC's data processing and validation procedures.
#
#######################################################################

data_NEPKAV
_chemical_formula_moiety         'C17 H17 N5 O2 S1,0.5(C1 H2 Cl2)'
_chemical_name_systematic        
'2-furyl(5-methyl-2-phenyl-1,2-dihydro-3H-pyrazol-3-on-4-yl)methanone N-methylthiosemicarbazone dichloromethane solvate'
_symmetry_cell_setting           monoclinic
_symmetry_space_group_name_H-M   'P 21/c'
_symmetry_Int_Tables_number      14
_space_group_name_Hall           '-P 2ybc'
loop_
_symmetry_equiv_pos_site_id
_symmetry_equiv_pos_as_xyz
1 x,y,z
2 -x,1/2+y,1/2-z
3 -x,-y,-z
4 x,1/2-y,1/2+z
_cell_length_a                   11.1238(13)
_cell_length_b                   14.1386(16)
_cell_length_c                   12.4056(14)
_cell_angle_alpha                90
_cell_angle_beta                 95.0560(10)
_cell_angle_gamma                90
_cell_volume                     1943.5
_exptl_crystal_colour            pale-yellow
_exptl_crystal_description       Block
_chemical_melting_point          '186-187 deg.C'
_cell_formula_units_Z            4
_exptl_crystal_recrystallization_method dichloromethane/methanol
loop_
_atom_site_label
_atom_site_type_symbol
_atom_site_fract_x
_atom_site_fract_y
_atom_site_fract_z
S1 S 1.32565(5) 0.14130(5) 0.84351(5)
O1 O 0.67771(13) 0.22051(14) 0.79365(14)
O2 O 1.04142(13) 0.17806(12) 1.02894(12)
N1 N 1.18139(17) 0.19780(15) 0.67281(14)
N2 N 1.08883(15) 0.15228(13) 0.82153(15)
N3 N 0.98218(14) 0.17926(12) 0.76578(13)
N4 N 0.78992(16) 0.04076(15) 1.04685(15)
N5 N 0.89719(15) 0.07829(13) 1.09044(14)
C1 C 1.2808(2) 0.2145(2) 0.6084(2)
H1 H 1.3248 0.2693 0.6352
H2 H 1.2506 0.2248 0.5345
H3 H 1.3334 0.1605 0.6127
C2 C 1.19210(18) 0.16656(15) 0.77293(16)
C3 C 0.88296(18) 0.16308(15) 0.80959(16)
C4 C 0.77601(18) 0.19402(16) 0.74214(17)
C5 C 0.7562(2) 0.20897(19) 0.63460(18)
H4 H 0.8090 0.1976 0.5820
C6 C 0.6354(3) 0.2465(2) 0.6190(3)
H5 H 0.5943 0.2638 0.5534
C7 C 0.5941(2) 0.2515(2) 0.7154(3)
H6 H 0.5178 0.2735 0.7279
C8 C 0.86798(18) 0.11949(15) 0.91525(16)
C9 C 0.94682(18) 0.13112(15) 1.01177(16)
C10 C 0.77410(18) 0.06167(15) 0.94176(17)
C11 C 0.6697(2) 0.0191(2) 0.8754(2)
H7 H 0.6497 -0.0407 0.9060
H8 H 0.6905 0.0097 0.8027
H9 H 0.6015 0.0607 0.8748
C12 C 0.9262(2) 0.08139(15) 1.20446(17)
C13 C 1.0456(2) 0.08876(18) 1.2444(2)
H10 H 1.1066 0.0889 1.1977
C14 C 1.0729(3) 0.0960(2) 1.3554(2)
H11 H 1.1529 0.1016 1.3833
C15 C 0.9831(4) 0.0949(2) 1.4243(2)
H12 H 1.0020 0.1014 1.4985
C16 C 0.8659(3) 0.0843(2) 1.3838(2)
H13 H 0.8057 0.0809 1.4311
C17 C 0.8351(2) 0.07856(17) 1.27304(19)
H14 H 0.7548 0.0729 1.2457
H15 H 1.095(2) 0.1570(19) 0.898(2)
H16 H 1.114(2) 0.2162(17) 0.650(2)
H17 H 0.760(2) -0.003(2) 1.077(2)
Cl1? Cl 0.4490(4) 0.4034(3) -0.1062(3)
C18? C 0.4135(14) 0.5025(10) -0.0439(12)
Cl2? Cl 0.5011(6) 0.5233(5) 0.0718(5)
loop_
_geom_bond_atom_site_label_1
_geom_bond_atom_site_label_2
_geom_bond_site_symmetry_1
_geom_bond_site_symmetry_2
S1 C2 1_555 1_555
O1 C4 1_555 1_555
O2 C9 1_555 1_555
N1 C1 1_555 1_555
N2 N3 1_555 1_555
N3 C3 1_555 1_555
N4 N5 1_555 1_555
N5 C9 1_555 1_555
C1 H1 1_555 1_555
H2 C1 1_555 1_555
H3 C1 1_555 1_555
C2 N1 1_555 1_555
C3 C4 1_555 1_555
C4 C5 1_555 1_555
C5 H4 1_555 1_555
C6 C5 1_555 1_555
H5 C6 1_555 1_555
C7 O1 1_555 1_555
H6 C7 1_555 1_555
C8 C3 1_555 1_555
C9 C8 1_555 1_555
C10 N4 1_555 1_555
C11 C10 1_555 1_555
H7 C11 1_555 1_555
H8 C11 1_555 1_555
H9 C11 1_555 1_555
C12 N5 1_555 1_555
C13 C12 1_555 1_555
H10 C13 1_555 1_555
C14 C13 1_555 1_555
H11 C14 1_555 1_555
C15 C14 1_555 1_555
H12 C15 1_555 1_555
C16 C15 1_555 1_555
H13 C16 1_555 1_555
C17 C12 1_555 1_555
H14 C17 1_555 1_555
H15 N2 1_555 1_555
H16 N1 1_555 1_555
H17 N4 1_555 1_555
N2 C2 1_555 1_555
C6 C7 1_555 1_555
C8 C10 1_555 1_555
C16 C17 1_555 1_555

#END
