
#######################################################################
#
#                 Cambridge Crystallographic Data Centre
#                                CCDC 
#
#######################################################################
#
# If this CIF has been generated from an entry in the Cambridge 
# Structural Database, then it will include bibliographic, chemical, 
# crystal, experimental, refinement or atomic coordinate data resulting 
# from the CCDC's data processing and validation procedures.
#
#######################################################################

data_NEPLUP
_chemical_formula_moiety         'C20 H14 O8 S4'
_chemical_name_systematic        
1,6-bis(4,5-bis(Methoxycarbonyl)-1,3-dithiol-2-ylidene)hexa-2,4-diyne
_symmetry_cell_setting           monoclinic
_symmetry_space_group_name_H-M   'P 21/c'
_symmetry_Int_Tables_number      14
_space_group_name_Hall           '-P 2ybc'
loop_
_symmetry_equiv_pos_site_id
_symmetry_equiv_pos_as_xyz
1 x,y,z
2 x,1/2-y,1/2+z
3 -x,-y,-z
4 -x,1/2+y,1/2-z
_cell_length_a                   25.782(8)
_cell_length_b                   4.1070(10)
_cell_length_c                   21.947(5)
_cell_angle_alpha                90
_cell_angle_beta                 111.87(2)
_cell_angle_gamma                90
_cell_volume                     2156.65
_exptl_crystal_colour            orange
_cell_formula_units_Z            4
loop_
_atom_site_label
_atom_site_type_symbol
_atom_site_fract_x
_atom_site_fract_y
_atom_site_fract_z
C1 C 0.1111(2) 0.0803(16) 0.0601(3)
S1 S 0.17060(6) 0.1716(5) 0.12825(7)
C2 C 0.1348(2) 0.3414(17) 0.1737(3)
C3 C 0.0789(2) 0.3700(16) 0.1443(3)
S2 S 0.04834(5) 0.2201(4) 0.06474(6)
C4 C 0.0411(2) 0.5350(16) 0.1721(3)
O1 O 0.0566(2) 0.7102(13) 0.2191(2)
O2 O -0.01159(17) 0.4746(12) 0.1346(2)
C5 C -0.0532(3) 0.635(2) 0.1544(3)
H1 H -0.0903 0.5754 0.1244
H2 H -0.0485 0.8691 0.1536
H3 H -0.0483 0.5673 0.1986
C6 C 0.1707(3) 0.4575(18) 0.2412(3)
O3 O 0.2096(3) 0.628(3) 0.2497(3)
O4 O 0.15658(19) 0.3319(15) 0.28671(19)
C7 C 0.1879(3) 0.456(2) 0.3538(3)
H4 H 0.1746 0.3491 0.3846
H5 H 0.1821 0.6893 0.3549
H6 H 0.2274 0.4121 0.3658
C8 C 0.1134(3) -0.0894(18) 0.0076(3)
H7 H 0.0800 -0.1286 -0.0284
C9 C 0.1638(3) -0.2079(17) 0.0052(3)
C10 C 0.2083(3) -0.2904(19) 0.0049(3)
C11 C 0.2576(3) -0.411(2) 0.0058(4)
C12 C 0.3025(3) -0.509(2) 0.0061(4)
C13 C 0.3545(3) -0.633(3) 0.0094(4)
H8 H 0.3788 -0.7259 0.0489
C14 C 0.3698(3) -0.622(2) -0.0420(4)
S3 S 0.43415(8) -0.7578(6) -0.03968(12)
C15 C 0.4218(7) -0.690(3) -0.1198(7)
C16 C 0.3755(8) -0.555(3) -0.1576(5)
S4 S 0.32796(11) -0.4696(6) -0.11849(11)
C17 C 0.3707(6) -0.503(6) -0.2276(8)
O5 O 0.4124(5) -0.667(3) -0.2428(5)
O6 O 0.3303(3) -0.333(2) -0.2496(3)
C18 C 0.3109(4) -0.264(3) -0.3245(5)
C19 C 0.4889(3) -0.804(2) -0.1264(4)
O7 O 0.5041(8) -1.059(7) -0.1097(12)
O8 O 0.5048(5) -0.614(4) -0.1478(7)
C20 C 0.5436(6) -0.775(5) -0.1641(7)
loop_
_geom_bond_atom_site_label_1
_geom_bond_atom_site_label_2
_geom_bond_site_symmetry_1
_geom_bond_site_symmetry_2
C1 S1 1_555 1_555
S1 C2 1_555 1_555
C2 C3 1_555 1_555
C3 S2 1_555 1_555
S2 C1 1_555 1_555
C4 C3 1_555 1_555
O1 C4 1_555 1_555
O2 C4 1_555 1_555
C5 O2 1_555 1_555
H1 C5 1_555 1_555
H2 C5 1_555 1_555
H3 C5 1_555 1_555
C6 C2 1_555 1_555
O3 C6 1_555 1_555
O4 C6 1_555 1_555
C7 O4 1_555 1_555
H4 C7 1_555 1_555
H5 C7 1_555 1_555
H6 C7 1_555 1_555
C8 C1 1_555 1_555
H7 C8 1_555 1_555
C9 C8 1_555 1_555
C10 C9 1_555 1_555
C11 C10 1_555 1_555
C12 C11 1_555 1_555
C13 C12 1_555 1_555
H8 C13 1_555 1_555
C14 C13 1_555 1_555
S3 C14 1_555 1_555
C15 S3 1_555 1_555
C16 C15 1_555 1_555
S4 C14 1_555 1_555
C17 C16 1_555 1_555
O5 C17 1_555 1_555
O6 C17 1_555 1_555
C18 O6 1_555 1_555
C19 C15 1_555 1_555
O7 C19 1_555 1_555
O8 C19 1_555 1_555
C20 O8 1_555 1_555
C16 S4 1_555 1_555

#END
