
#######################################################################
#
#                 Cambridge Crystallographic Data Centre
#                                CCDC 
#
#######################################################################
#
# If this CIF has been generated from an entry in the Cambridge 
# Structural Database, then it will include bibliographic, chemical, 
# crystal, experimental, refinement or atomic coordinate data resulting 
# from the CCDC's data processing and validation procedures.
#
#######################################################################

data_NEPPUW
_chemical_formula_moiety         'C24 H22 Cl1 N3 O2'
_chemical_name_systematic        
N-(benzyloxy)-2-(3-chlorophenyl)-5,5-dimethyl-4-phenyl-4,5-dihydro-6H-1,3,4-oxadiazin-6-imine
_symmetry_cell_setting           triclinic
_symmetry_space_group_name_H-M   'P -1'
_symmetry_Int_Tables_number      2
_space_group_name_Hall           '-P 1'
loop_
_symmetry_equiv_pos_site_id
_symmetry_equiv_pos_as_xyz
1 x,y,z
2 -x,-y,-z
_cell_length_a                   7.9332(14)
_cell_length_b                   10.9116(18)
_cell_length_c                   12.9665(19)
_cell_angle_alpha                96.881(4)
_cell_angle_beta                 92.036(2)
_cell_angle_gamma                109.013(5)
_cell_volume                     1050.22
_exptl_crystal_colour            colorless
_exptl_crystal_description       Prism
_cell_formula_units_Z            2
_exptl_crystal_preparation       Fiber
loop_
_atom_site_label
_atom_site_type_symbol
_atom_site_fract_x
_atom_site_fract_y
_atom_site_fract_z
Cl1 Cl -0.00921(5) 0.44262(3) 0.13363(3)
O1 O 0.32384(11) 0.13804(7) 0.25166(6)
O2 O 0.12247(11) -0.07965(8) 0.16245(7)
N1 N 0.55284(13) 0.26201(9) 0.38025(7)
N2 N 0.59611(13) 0.14927(9) 0.38957(7)
N3 N 0.29494(13) -0.07673(10) 0.19812(8)
C1 C 0.42465(15) 0.25199(10) 0.31428(8)
C2 C 0.36342(15) 0.36356(11) 0.30256(8)
C3 C 0.44797(16) 0.48365(11) 0.36484(9)
H1 H 0.5484 0.4938 0.4113
C4 C 0.38647(17) 0.58789(12) 0.35935(9)
H2 H 0.4427 0.6682 0.4036
C5 C 0.24270(17) 0.57597(12) 0.28948(10)
H3 H 0.1996 0.6471 0.2855
C6 C 0.16438(16) 0.45772(11) 0.22597(9)
C7 C 0.22052(15) 0.35042(11) 0.23135(9)
H4 H 0.1629 0.2700 0.1875
C8 C 0.76336(15) 0.18354(11) 0.45257(8)
C9 C 0.78301(16) 0.09948(12) 0.52126(9)
H5 H 0.6884 0.0204 0.5253
C10 C 0.94131(17) 0.13138(13) 0.58389(10)
H6 H 0.9553 0.0732 0.6298
C11 C 1.07907(17) 0.24777(14) 0.57967(10)
H7 H 1.1869 0.2695 0.6228
C12 C 1.05845(17) 0.33235(13) 0.51204(10)
H8 H 1.1521 0.4124 0.5094
C13 C 0.90160(16) 0.30055(12) 0.44822(9)
H9 H 0.8885 0.3584 0.4017
C14 C 0.57921(15) 0.06273(11) 0.28775(9)
C15 C 0.60927(17) -0.06451(12) 0.30499(10)
H10 H 0.7342 -0.0458 0.3302
H11 H 0.5825 -0.1240 0.2391
H12 H 0.5305 -0.1056 0.3567
C16 C 0.70993(16) 0.13363(13) 0.21202(9)
H13 H 0.6885 0.2149 0.2015
H14 H 0.6914 0.0770 0.1450
H15 H 0.8331 0.1540 0.2413
C17 C 0.38834(15) 0.03532(11) 0.24451(9)
C18 C 0.0299(8) -0.2099(6) 0.1151(5)
H16 H 0.0357 -0.2712 0.1646
H17 H 0.0897 -0.2300 0.0528
C19 C -0.1601(5) -0.2302(7) 0.0842(6)
C20 C -0.2954(7) -0.3385(5) 0.1082(5)
H18 H -0.2667 -0.3996 0.1459
C21 C -0.4726(6) -0.3574(4) 0.0773(4)
H19 H -0.5651 -0.4315 0.0937
C22 C -0.5146(5) -0.2681(5) 0.0223(4)
H20 H -0.6357 -0.2810 0.0011
C23 C -0.3793(7) -0.1598(4) -0.0018(4)
H21 H -0.4079 -0.0987 -0.0394
C24 C -0.2020(6) -0.1408(5) 0.0291(5)
H22 H -0.1095 -0.0668 0.0127
C25? C 0.0504(6) -0.1939(4) 0.0830(2)
H23? H 0.0800 -0.2691 0.1044
H24? H 0.1020 -0.1748 0.0160
C26? C -0.1514(4) -0.2257(6) 0.0713(5)
C27? C -0.2533(6) -0.3310(5) 0.1179(5)
H25? H -0.1960 -0.3759 0.1577
C28? C -0.4389(6) -0.3704(4) 0.1062(3)
H26? H -0.5085 -0.4423 0.1380
C29? C -0.5226(4) -0.3045(4) 0.0479(3)
H27? H -0.6494 -0.3315 0.0399
C30? C -0.4207(6) -0.1993(4) 0.0014(4)
H28? H -0.4779 -0.1544 -0.0384
C31? C -0.2351(6) -0.1599(5) 0.0131(4)
H29? H -0.1654 -0.0880 -0.0188
loop_
_geom_bond_atom_site_label_1
_geom_bond_atom_site_label_2
_geom_bond_site_symmetry_1
_geom_bond_site_symmetry_2
Cl1 C6 1_555 1_555
O1 C1 1_555 1_555
O2 N3 1_555 1_555
N1 N2 1_555 1_555
N2 C8 1_555 1_555
N3 C17 1_555 1_555
C1 N1 1_555 1_555
C2 C1 1_555 1_555
C3 C2 1_555 1_555
H1 C3 1_555 1_555
C4 C3 1_555 1_555
H2 C4 1_555 1_555
C5 C4 1_555 1_555
H3 C5 1_555 1_555
C6 C5 1_555 1_555
C7 C2 1_555 1_555
H4 C7 1_555 1_555
C8 C9 1_555 1_555
C9 H5 1_555 1_555
C10 C9 1_555 1_555
H6 C10 1_555 1_555
C11 C10 1_555 1_555
H7 C11 1_555 1_555
C12 C11 1_555 1_555
H8 C12 1_555 1_555
C13 C8 1_555 1_555
H9 C13 1_555 1_555
C14 N2 1_555 1_555
C15 C14 1_555 1_555
H10 C15 1_555 1_555
H11 C15 1_555 1_555
H12 C15 1_555 1_555
C16 C14 1_555 1_555
H13 C16 1_555 1_555
H14 C16 1_555 1_555
H15 C16 1_555 1_555
C17 O1 1_555 1_555
C18 O2 1_555 1_555
H16 C18 1_555 1_555
H17 C18 1_555 1_555
C19 C18 1_555 1_555
C20 C19 1_555 1_555
H18 C20 1_555 1_555
C21 C20 1_555 1_555
H19 C21 1_555 1_555
C22 C21 1_555 1_555
H20 C22 1_555 1_555
C23 C22 1_555 1_555
H21 C23 1_555 1_555
C24 C19 1_555 1_555
H22 C24 1_555 1_555
C6 C7 1_555 1_555
C12 C13 1_555 1_555
C14 C17 1_555 1_555
C23 C24 1_555 1_555

#END
