
#######################################################################
#
#                 Cambridge Crystallographic Data Centre
#                                CCDC 
#
#######################################################################
#
# If this CIF has been generated from an entry in the Cambridge 
# Structural Database, then it will include bibliographic, chemical, 
# crystal, experimental, refinement or atomic coordinate data resulting 
# from the CCDC's data processing and validation procedures.
#
#######################################################################

data_NEPWUB
_chemical_formula_moiety         'C30 H20 N2'
_chemical_name_systematic        1,3-bis(Carbazol-9-yl)benzene
_symmetry_cell_setting           orthorhombic
_symmetry_space_group_name_H-M   'P 21 21 21'
_symmetry_Int_Tables_number      19
_space_group_name_Hall           'P 2ac 2ab'
loop_
_symmetry_equiv_pos_site_id
_symmetry_equiv_pos_as_xyz
1 x,y,z
2 1/2-x,-y,1/2+z
3 -x,1/2+y,1/2-z
4 1/2+x,1/2-y,-z
_cell_length_a                   9.0744(8)
_cell_length_b                   12.5038(12)
_cell_length_c                   19.0417(18)
_cell_angle_alpha                90
_cell_angle_beta                 90
_cell_angle_gamma                90
_cell_volume                     2160.56
_cell_formula_units_Z            4
loop_
_atom_site_label
_atom_site_type_symbol
_atom_site_fract_x
_atom_site_fract_y
_atom_site_fract_z
N1 N 0.49088(12) 0.27593(8) 0.12009(5)
N2 N 0.80310(12) -0.02912(9) 0.17626(6)
C1 C 0.34733(15) 0.31790(10) 0.11844(7)
C2 C 0.22260(15) 0.28721(12) 0.15559(8)
H1 H 0.2261 0.2319 0.1882
C3 C 0.09351(17) 0.34172(14) 0.14242(8)
H2 H 0.0085 0.3222 0.1665
C4 C 0.08687(19) 0.42499(14) 0.09416(9)
H3 H -0.0010 0.4621 0.0879
C5 C 0.20897(18) 0.45293(13) 0.05562(8)
H4 H 0.2036 0.5075 0.0225
C6 C 0.34183(16) 0.39810(11) 0.06687(7)
C7 C 0.48441(16) 0.40331(10) 0.03445(7)
C8 C 0.5408(2) 0.46370(13) -0.02081(7)
H5 H 0.4817 0.5135 -0.0437
C9 C 0.6842(2) 0.44894(13) -0.04096(8)
H6 H 0.7214 0.4872 -0.0789
C10 C 0.77472(19) 0.37747(12) -0.00540(8)
H7 H 0.8727 0.3705 -0.0190
C11 C 0.72190(16) 0.31639(12) 0.04995(7)
H8 H 0.7831 0.2692 0.0739
C12 C 0.57495(15) 0.32789(10) 0.06854(7)
C13 C 0.54432(13) 0.19970(10) 0.16910(6)
C14 C 0.63996(14) 0.11954(10) 0.14779(6)
H9 H 0.6652 0.1127 0.1007
C15 C 0.69778(14) 0.04960(10) 0.19713(7)
C16 C 0.65690(15) 0.05596(11) 0.26699(7)
H10 H 0.6951 0.0082 0.2997
C17 C 0.55853(15) 0.13433(12) 0.28744(7)
H11 H 0.5290 0.1382 0.3341
C18 C 0.50345(15) 0.20692(11) 0.23970(7)
H12 H 0.4394 0.2605 0.2544
C19 C 0.77518(16) -0.12047(10) 0.13680(7)
C20 C 0.6471(2) -0.15076(12) 0.10244(8)
H13 H 0.5624 -0.1090 0.1039
C21 C 0.6518(3) -0.24736(15) 0.06548(9)
H14 H 0.5683 -0.2706 0.0416
C22 C 0.7788(3) -0.30929(15) 0.06371(10)
H15 H 0.7783 -0.3731 0.0386
C23 C 0.9045(2) -0.27884(13) 0.09788(9)
H16 H 0.9885 -0.3213 0.0961
C24 C 0.90458(18) -0.18315(11) 0.13534(7)
C25 C 1.01415(16) -0.12744(11) 0.17619(7)
C26 C 1.16123(19) -0.14809(14) 0.19431(10)
H17 H 1.2076 -0.2100 0.1788
C27 C 1.23597(19) -0.07575(15) 0.23526(10)
H18 H 1.3333 -0.0893 0.2477
C28 C 1.16824(18) 0.01701(14) 0.25824(9)
H19 H 1.2213 0.0647 0.2859
C29 C 1.02404(16) 0.04064(12) 0.24122(8)
H20 H 0.9795 0.1035 0.2564
C30 C 0.94822(14) -0.03319(11) 0.20052(7)
loop_
_geom_bond_atom_site_label_1
_geom_bond_atom_site_label_2
_geom_bond_site_symmetry_1
_geom_bond_site_symmetry_2
N1 C1 1_555 1_555
N2 C15 1_555 1_555
C1 C2 1_555 1_555
C2 H1 1_555 1_555
C3 C2 1_555 1_555
H2 C3 1_555 1_555
C4 C3 1_555 1_555
H3 C4 1_555 1_555
C5 C4 1_555 1_555
H4 C5 1_555 1_555
C6 C1 1_555 1_555
C7 C6 1_555 1_555
C8 C7 1_555 1_555
H5 C8 1_555 1_555
C9 C8 1_555 1_555
H6 C9 1_555 1_555
C10 C9 1_555 1_555
H7 C10 1_555 1_555
C11 C10 1_555 1_555
H8 C11 1_555 1_555
C12 N1 1_555 1_555
C13 N1 1_555 1_555
C14 C13 1_555 1_555
H9 C14 1_555 1_555
C15 C14 1_555 1_555
C16 C15 1_555 1_555
H10 C16 1_555 1_555
C17 C16 1_555 1_555
H11 C17 1_555 1_555
C18 C13 1_555 1_555
H12 C18 1_555 1_555
C19 N2 1_555 1_555
C20 C19 1_555 1_555
H13 C20 1_555 1_555
C21 C20 1_555 1_555
H14 C21 1_555 1_555
C22 C21 1_555 1_555
H15 C22 1_555 1_555
C23 C22 1_555 1_555
H16 C23 1_555 1_555
C24 C19 1_555 1_555
C25 C24 1_555 1_555
C26 C25 1_555 1_555
H17 C26 1_555 1_555
C27 C26 1_555 1_555
H18 C27 1_555 1_555
C28 C27 1_555 1_555
H19 C28 1_555 1_555
C29 C28 1_555 1_555
H20 C29 1_555 1_555
C30 N2 1_555 1_555
C5 C6 1_555 1_555
C7 C12 1_555 1_555
C11 C12 1_555 1_555
C17 C18 1_555 1_555
C23 C24 1_555 1_555
C25 C30 1_555 1_555
C29 C30 1_555 1_555

#END
