
#######################################################################
#
#                 Cambridge Crystallographic Data Centre
#                                CCDC 
#
#######################################################################
#
# If this CIF has been generated from an entry in the Cambridge 
# Structural Database, then it will include bibliographic, chemical, 
# crystal, experimental, refinement or atomic coordinate data resulting 
# from the CCDC's data processing and validation procedures.
#
#######################################################################

data_NEPYOZ
_chemical_formula_moiety         'C23 H31 O2 P1'
_chemical_name_systematic        
'(R~P~)-2-isopropyl-5-methylcyclohexyl benzyl(phenyl)phosphinate'
_symmetry_cell_setting           monoclinic
_symmetry_space_group_name_H-M   'P 21'
_symmetry_Int_Tables_number      4
_space_group_name_Hall           'P 2yb'
loop_
_symmetry_equiv_pos_site_id
_symmetry_equiv_pos_as_xyz
1 x,y,z
2 -x,1/2+y,-z
_cell_length_a                   12.4777(11)
_cell_length_b                   5.7970(7)
_cell_length_c                   15.4190(19)
_cell_angle_alpha                90
_cell_angle_beta                 100.7270(10)
_cell_angle_gamma                90
_cell_volume                     1095.82
_cell_formula_units_Z            2
loop_
_atom_site_label
_atom_site_type_symbol
_atom_site_fract_x
_atom_site_fract_y
_atom_site_fract_z
P1 P 0.14134(8) 0.32762(17) 0.12780(6)
O1 O 0.2011(2) 0.2676(5) 0.22586(18)
O2 O 0.1092(2) 0.5710(5) 0.11455(18)
C1 C 0.2811(3) 0.3635(8) 0.3776(2)
H1 H 0.3316 0.2329 0.3810
C2 C 0.2606(3) 0.4483(9) 0.2817(3)
H2 H 0.2140 0.5855 0.2776
C3 C 0.3653(4) 0.5137(9) 0.2527(3)
H3 H 0.3490 0.5653 0.1918
H4 H 0.4118 0.3788 0.2555
C4 C 0.4260(4) 0.7040(10) 0.3099(3)
H5 H 0.3777 0.8386 0.3045
C5 C 0.4455(4) 0.6286(12) 0.4061(3)
H6 H 0.4963 0.5003 0.4142
H7 H 0.4785 0.7549 0.4430
C6 C 0.3418(4) 0.5572(10) 0.4352(3)
H8 H 0.2941 0.6901 0.4329
H9 H 0.3590 0.5051 0.4959
C7 C 0.1778(4) 0.2747(10) 0.4090(3)
H10 H 0.1455 0.1553 0.3672
C8 C 0.0911(5) 0.4613(14) 0.4087(4)
H11 H 0.0267 0.3936 0.4237
H12 H 0.0735 0.5294 0.3510
H13 H 0.1187 0.5781 0.4512
C9 C 0.2060(5) 0.1606(11) 0.4997(3)
H14 H 0.2320 0.2754 0.5434
H15 H 0.2617 0.0467 0.4991
H16 H 0.1421 0.0881 0.5135
C10 C 0.5316(5) 0.7791(14) 0.2790(4)
H17 H 0.5812 0.6511 0.2837
H18 H 0.5650 0.9034 0.3155
H19 H 0.5143 0.8296 0.2188
C11 C 0.2346(3) 0.2349(7) 0.0575(3)
C12 C 0.2528(4) 0.3792(9) -0.0107(3)
H20 H 0.2167 0.5198 -0.0204
C13 C 0.3260(4) 0.3096(13) -0.0641(3)
H21 H 0.3387 0.4050 -0.1096
C14 C 0.3791(4) 0.1030(11) -0.0502(4)
H22 H 0.4277 0.0582 -0.0859
C15 C 0.3601(4) -0.0386(11) 0.0170(4)
H23 H 0.3964 -0.1790 0.0267
C16 C 0.2876(4) 0.0261(9) 0.0702(3)
H24 H 0.2745 -0.0720 0.1148
C17 C 0.0307(3) 0.1251(8) 0.1089(3)
H25 H -0.0110 0.1483 0.0499
H26 H 0.0604 -0.0300 0.1117
C18 C -0.0456(3) 0.1451(8) 0.1747(3)
C19 C -0.1144(3) 0.3306(10) 0.1742(3)
H27 H -0.1153 0.4478 0.1329
C20 C -0.1828(4) 0.3416(13) 0.2360(4)
H28 H -0.2286 0.4682 0.2363
C21 C -0.1836(5) 0.1674(13) 0.2966(4)
H29 H -0.2302 0.1751 0.3371
C22 C -0.1159(5) -0.0152(12) 0.2966(4)
H30 H -0.1155 -0.1323 0.3379
C23 C -0.0480(4) -0.0297(9) 0.2365(3)
H31 H -0.0029 -0.1576 0.2369
loop_
_geom_bond_atom_site_label_1
_geom_bond_atom_site_label_2
_geom_bond_site_symmetry_1
_geom_bond_site_symmetry_2
P1 O1 1_555 1_555
O1 C2 1_555 1_555
O2 P1 1_555 1_555
C1 H1 1_555 1_555
C2 C1 1_555 1_555
H2 C2 1_555 1_555
C3 C2 1_555 1_555
H3 C3 1_555 1_555
H4 C3 1_555 1_555
C4 C3 1_555 1_555
H5 C4 1_555 1_555
C5 C4 1_555 1_555
H6 C5 1_555 1_555
H7 C5 1_555 1_555
C6 C1 1_555 1_555
H8 C6 1_555 1_555
H9 C6 1_555 1_555
C7 C1 1_555 1_555
H10 C7 1_555 1_555
C8 C7 1_555 1_555
H11 C8 1_555 1_555
H12 C8 1_555 1_555
H13 C8 1_555 1_555
C9 C7 1_555 1_555
H14 C9 1_555 1_555
H15 C9 1_555 1_555
H16 C9 1_555 1_555
C10 C4 1_555 1_555
H17 C10 1_555 1_555
H18 C10 1_555 1_555
H19 C10 1_555 1_555
C11 P1 1_555 1_555
C12 C11 1_555 1_555
H20 C12 1_555 1_555
C13 C12 1_555 1_555
H21 C13 1_555 1_555
C14 C13 1_555 1_555
H22 C14 1_555 1_555
C15 C14 1_555 1_555
H23 C15 1_555 1_555
C16 C11 1_555 1_555
H24 C16 1_555 1_555
C17 P1 1_555 1_555
H25 C17 1_555 1_555
H26 C17 1_555 1_555
C18 C17 1_555 1_555
C19 C18 1_555 1_555
H27 C19 1_555 1_555
C20 C19 1_555 1_555
H28 C20 1_555 1_555
C21 C20 1_555 1_555
H29 C21 1_555 1_555
C22 C21 1_555 1_555
H30 C22 1_555 1_555
C23 C18 1_555 1_555
H31 C23 1_555 1_555
C5 C6 1_555 1_555
C15 C16 1_555 1_555
C22 C23 1_555 1_555

#END
