
#######################################################################
#
#                 Cambridge Crystallographic Data Centre
#                                CCDC 
#
#######################################################################
#
# If this CIF has been generated from an entry in the Cambridge 
# Structural Database, then it will include bibliographic, chemical, 
# crystal, experimental, refinement or atomic coordinate data resulting 
# from the CCDC's data processing and validation procedures.
#
#######################################################################

data_NEPZIS
_chemical_formula_moiety         'C19 H14 O3'
_chemical_name_systematic        
2-Methoxy-5-phenyl-2-(phenylethynyl)-3-(2H)furanone
_symmetry_cell_setting           monoclinic
_symmetry_space_group_name_H-M   'P 21/c'
_symmetry_Int_Tables_number      14
_space_group_name_Hall           '-P 2ybc'
loop_
_symmetry_equiv_pos_site_id
_symmetry_equiv_pos_as_xyz
1 x,y,z
2 -x,1/2+y,1/2-z
3 -x,-y,-z
4 x,1/2-y,1/2+z
_cell_length_a                   5.7583(10)
_cell_length_b                   8.5763(15)
_cell_length_c                   30.482(6)
_cell_angle_alpha                90
_cell_angle_beta                 90.316(4)
_cell_angle_gamma                90
_cell_volume                     1505.33
_exptl_crystal_colour            colorless
_cell_formula_units_Z            4
loop_
_atom_site_label
_atom_site_type_symbol
_atom_site_fract_x
_atom_site_fract_y
_atom_site_fract_z
O1 O 0.5817(3) 0.80639(17) 0.04838(5)
O2 O 0.0858(2) 0.93430(15) 0.10578(5)
O3 O 0.1728(3) 0.67468(16) 0.08973(5)
C1 C 0.1027(4) 1.0325(2) 0.07052(8)
C2 C 0.2811(4) 1.0026(3) 0.04398(9)
C3 C 0.4069(4) 0.8706(3) 0.06093(8)
C4 C 0.2682(4) 0.8175(2) 0.10119(7)
C5 C 0.4007(4) 0.8149(2) 0.14201(8)
C6 C 0.5130(4) 0.8054(2) 0.17433(8)
C7 C 0.6442(4) 0.7960(2) 0.21508(8)
C8 C 0.8489(5) 0.8775(3) 0.22065(10)
C9 C 0.9692(5) 0.8702(3) 0.26019(10)
H1 H 1.1061 0.9263 0.2639
C10 C 0.8862(7) 0.7809(4) 0.29341(11)
C11 C 0.6861(7) 0.6977(4) 0.28837(10)
C12 C 0.5637(5) 0.7054(3) 0.24921(9)
H2 H 0.4265 0.6493 0.2459
C13 C -0.0731(4) 1.1557(2) 0.06857(8)
C14 C -0.0701(5) 1.2611(3) 0.03366(9)
C15 C -0.2373(5) 1.3786(3) 0.03147(10)
C16 C -0.4019(5) 1.3918(3) 0.06321(10)
H3 H -0.5123 1.4708 0.0615
C17 C -0.4051(4) 1.2889(3) 0.09774(8)
H4 H -0.5166 1.2989 0.1195
C18 C -0.2424(5) 1.1701(3) 0.10011(9)
C19 C 0.0313(4) 0.6030(3) 0.12221(8)
H5 H 0.1143 0.5996 0.1496
H6 H -0.0071 0.4989 0.1132
H7 H -0.1088 0.6624 0.1257
H8 H 0.325(3) 1.056(2) 0.0184(6)
H9 H 0.920(4) 0.934(2) 0.1959(7)
H10 H 0.957(4) 0.775(2) 0.3215(8)
H11 H 0.626(4) 0.637(3) 0.3116(9)
H12 H 0.052(4) 1.248(2) 0.0119(7)
H13 H -0.236(4) 1.443(2) 0.0046(7)
H14 H -0.252(4) 1.100(2) 0.1256(7)
loop_
_geom_bond_atom_site_label_1
_geom_bond_atom_site_label_2
_geom_bond_site_symmetry_1
_geom_bond_site_symmetry_2
O1 C3 1_555 1_555
O2 C1 1_555 1_555
O3 C4 1_555 1_555
C1 C2 1_555 1_555
C2 C3 1_555 1_555
C3 C4 1_555 1_555
C4 O2 1_555 1_555
C5 C4 1_555 1_555
C6 C5 1_555 1_555
C7 C6 1_555 1_555
C8 C7 1_555 1_555
C9 C8 1_555 1_555
H1 C9 1_555 1_555
C10 C9 1_555 1_555
C11 C10 1_555 1_555
C12 C7 1_555 1_555
H2 C12 1_555 1_555
C13 C1 1_555 1_555
C14 C13 1_555 1_555
C15 C14 1_555 1_555
C16 C15 1_555 1_555
H3 C16 1_555 1_555
C17 C16 1_555 1_555
H4 C17 1_555 1_555
C18 C13 1_555 1_555
C19 O3 1_555 1_555
H5 C19 1_555 1_555
H6 C19 1_555 1_555
H7 C19 1_555 1_555
H8 C2 1_555 1_555
H9 C8 1_555 1_555
H10 C10 1_555 1_555
H11 C11 1_555 1_555
H12 C14 1_555 1_555
H13 C15 1_555 1_555
H14 C18 1_555 1_555
C11 C12 1_555 1_555
C17 C18 1_555 1_555

#END
