
#######################################################################
#
#                 Cambridge Crystallographic Data Centre
#                                CCDC 
#
#######################################################################
#
# If this CIF has been generated from an entry in the Cambridge 
# Structural Database, then it will include bibliographic, chemical, 
# crystal, experimental, refinement or atomic coordinate data resulting 
# from the CCDC's data processing and validation procedures.
#
#######################################################################

data_NEQCOC
_chemical_compound_source        'Chaetomium indicum'
_chemical_name_common            'Chaetoindicin B'
_chemical_formula_moiety         'C16 H19 N1 O4'
_chemical_name_systematic        
9b-Hydroxy-2-(1-hydroxy-1-methylethyl)-4,8-dimethyl-1,9b-dihydrofuro(3,2-f)isoquinolin-5(2H)-one
_symmetry_cell_setting           monoclinic
_symmetry_space_group_name_H-M   'P 21/n'
_symmetry_Int_Tables_number      14
_space_group_name_Hall           '-P 2yn'
loop_
_symmetry_equiv_pos_site_id
_symmetry_equiv_pos_as_xyz
1 x,y,z
2 1/2-x,1/2+y,1/2-z
3 -x,-y,-z
4 1/2+x,1/2-y,1/2+z
_cell_length_a                   8.777(1)
_cell_length_b                   13.634(2)
_cell_length_c                   12.888(2)
_cell_angle_alpha                90
_cell_angle_beta                 109.04(1)
_cell_angle_gamma                90
_cell_volume                     1457.88
_exptl_crystal_colour            colorless
_exptl_crystal_description       cubic
_chemical_melting_point          255-256deg.C
_cell_formula_units_Z            4
loop_
_atom_site_label
_atom_site_type_symbol
_atom_site_fract_x
_atom_site_fract_y
_atom_site_fract_z
O1 O 0.47566(13) 0.28629(8) 0.25301(8)
H1 H 0.5455 0.2438 0.2662
O2 O 0.47138(15) 0.63001(9) 0.32874(11)
O3 O 0.73988(13) 0.33450(8) 0.45929(9)
O4 O 0.69479(14) 0.14494(8) 0.33404(9)
H2 H 0.6406 0.0947 0.3190
N1 N 0.02975(16) 0.49309(10) 0.24577(11)
C1 C 0.49754(18) 0.24804(11) 0.44295(12)
H3 H 0.4506 0.1858 0.4120
H4 H 0.4526 0.2676 0.4993
C2 C 0.76257(19) 0.15458(12) 0.45170(13)
C3 C 0.68283(19) 0.24113(11) 0.48960(13)
H5 H 0.7140 0.2386 0.5698
C4 C 0.9420(2) 0.17268(15) 0.47811(16)
H6 H 0.9903 0.1173 0.4550
H7 H 0.9909 0.1819 0.5558
H8 H 0.9581 0.2303 0.4402
C5 C 0.61384(18) 0.39083(11) 0.40269(13)
C6 C 0.7330(2) 0.06229(13) 0.50860(15)
H9 H 0.6191 0.0526 0.4916
H10 H 0.7824 0.0692 0.5865
H11 H 0.7788 0.0069 0.4836
C7 C 0.62443(18) 0.48801(11) 0.39095(12)
C8 C 0.31938(18) 0.48540(11) 0.31478(12)
C9 C 0.47436(19) 0.54122(11) 0.34245(13)
C10 C 0.17411(19) 0.53596(12) 0.27781(13)
H12 H 0.1779 0.6041 0.2753
C11 C 0.02459(19) 0.39425(12) 0.25043(13)
C12 C 0.31322(18) 0.38372(11) 0.32178(12)
C13 C 0.16351(19) 0.33843(12) 0.28891(13)
H13 H 0.1564 0.2705 0.2927
C14 C 0.46840(18) 0.32644(11) 0.35412(12)
C15 C 0.7801(2) 0.54408(12) 0.43036(15)
H14 H 0.7595 0.6124 0.4134
H15 H 0.8526 0.5196 0.3945
H16 H 0.8277 0.5361 0.5083
C16 C -0.13979(19) 0.34807(13) 0.21136(16)
H20 H -0.2203 0.3984 0.1880
H21 H -0.1567 0.3113 0.2702
H22 H -0.1474 0.3050 0.1510
H17? H 0.8671 0.4997 0.4641
H18? H 0.7739 0.5924 0.4830
H19? H 0.7988 0.5760 0.3692
H23? H -0.1293 0.2781 0.2181
H24? H -0.1929 0.3652 0.1359
H25? H -0.2022 0.3715 0.2551
loop_
_geom_bond_atom_site_label_1
_geom_bond_atom_site_label_2
_geom_bond_site_symmetry_1
_geom_bond_site_symmetry_2
O1 H1 1_555 1_555
O2 C9 1_555 1_555
O3 C3 1_555 1_555
O4 H2 1_555 1_555
N1 C10 1_555 1_555
C1 H3 1_555 1_555
H4 C1 1_555 1_555
C2 O4 1_555 1_555
C3 C1 1_555 1_555
H5 C3 1_555 1_555
C4 C2 1_555 1_555
H6 C4 1_555 1_555
H7 C4 1_555 1_555
H8 C4 1_555 1_555
C5 O3 1_555 1_555
C6 C2 1_555 1_555
H9 C6 1_555 1_555
H10 C6 1_555 1_555
H11 C6 1_555 1_555
C7 C5 1_555 1_555
C8 C9 1_555 1_555
C9 C7 1_555 1_555
C10 C8 1_555 1_555
H12 C10 1_555 1_555
C11 N1 1_555 1_555
C12 C8 1_555 1_555
C13 C11 1_555 1_555
H13 C13 1_555 1_555
C14 O1 1_555 1_555
C15 C7 1_555 1_555
H14 C15 1_555 1_555
H15 C15 1_555 1_555
H16 C15 1_555 1_555
C16 C11 1_555 1_555
H20 C16 1_555 1_555
H21 C16 1_555 1_555
H22 C16 1_555 1_555
C1 C14 1_555 1_555
C2 C3 1_555 1_555
C5 C14 1_555 1_555
C12 C13 1_555 1_555
C12 C14 1_555 1_555

#END
