
#######################################################################
#
#                 Cambridge Crystallographic Data Centre
#                                CCDC 
#
#######################################################################
#
# If this CIF has been generated from an entry in the Cambridge 
# Structural Database, then it will include bibliographic, chemical, 
# crystal, experimental, refinement or atomic coordinate data resulting 
# from the CCDC's data processing and validation procedures.
#
#######################################################################

data_NEQCAQ
_chemical_formula_moiety         'C31 H28 B1 F2 N5 O4'
_chemical_name_systematic        
{2-[(2-{cyano[4-(ethoxycarbonyl)-5-methyl-3-phenyl-1H-pyrrol-2-yl]methylidene}hydrazinyl)methylidene]-4-(ethoxycarbonyl)-5-methyl-3-phenyl-2H-pyrrol-1-iumato}(difluoro)boron
_symmetry_cell_setting           triclinic
_symmetry_space_group_name_H-M   'P -1'
_symmetry_Int_Tables_number      2
_space_group_name_Hall           '-P 1'
loop_
_symmetry_equiv_pos_site_id
_symmetry_equiv_pos_as_xyz
1 x,y,z
2 -x,-y,-z
_cell_length_a                   9.2298(6)
_cell_length_b                   12.5490(7)
_cell_length_c                   14.5033(8)
_cell_angle_alpha                72.135(3)
_cell_angle_beta                 87.647(3)
_cell_angle_gamma                80.240(3)
_cell_volume                     1575.59
_exptl_crystal_colour            orange
_exptl_crystal_description       block
_cell_formula_units_Z            2
loop_
_atom_site_label
_atom_site_type_symbol
_atom_site_fract_x
_atom_site_fract_y
_atom_site_fract_z
B1 B 0.00601(16) 0.15410(11) 0.29484(10)
C1 C 0.06965(13) -0.21120(10) 0.42800(9)
C2 C 0.05618(13) -0.09041(10) 0.37712(8)
C3 C -0.01473(13) -0.04324(10) 0.28497(9)
C4 C -0.06764(13) -0.09255(10) 0.22111(9)
C5 C -0.11934(14) -0.00079(11) 0.13838(9)
C6 C -0.09846(14) 0.10071(11) 0.15439(9)
C7 C -0.14014(18) 0.22057(11) 0.09179(10)
H1 H -0.1296 0.2723 0.1289
H2 H -0.2425 0.2332 0.0700
H3 H -0.0757 0.2349 0.0354
C8 C -0.18483(16) -0.00183(12) 0.04795(9)
C9 C -0.26967(19) -0.10845(14) -0.04022(10)
H4 H -0.2069 -0.0771 -0.0956
H5 H -0.3696 -0.0630 -0.0523
C10 C -0.2756(2) -0.22942(16) -0.02963(13)
H6 H -0.1769 -0.2742 -0.0150
H7 H -0.3120 -0.2352 -0.0902
H8 H -0.3418 -0.2585 0.0232
C11 C -0.06318(14) -0.21562(10) 0.23613(9)
C12 C 0.03647(15) -0.27277(12) 0.18594(10)
H9 H 0.1012 -0.2328 0.1410
C13 C -0.15737(16) -0.27579(12) 0.30060(10)
H10 H -0.2275 -0.2375 0.3343
C14 C -0.15036(18) -0.39127(13) 0.31637(12)
H11 H -0.2146 -0.4316 0.3615
C15 C -0.05087(19) -0.44793(13) 0.26706(13)
H12 H -0.0459 -0.5271 0.2780
C16 C 0.04169(18) -0.38807(13) 0.20132(12)
H13 H 0.1096 -0.4263 0.1663
C17 C 0.19617(13) 0.12842(10) 0.42061(9)
H14 H 0.1963 0.2063 0.3868
C18 C 0.28446(13) 0.08499(10) 0.50393(9)
C19 C 0.38095(13) 0.14278(10) 0.53682(9)
C20 C 0.45151(13) 0.06415(10) 0.62049(9)
C21 C 0.39720(13) -0.03884(10) 0.63832(9)
C22 C 0.43312(15) -0.14758(11) 0.71803(10)
H15 H 0.3679 -0.1998 0.7135
H16 H 0.4197 -0.1328 0.7806
H17 H 0.5355 -0.1817 0.7124
C23 C 0.55567(13) 0.07853(10) 0.68847(9)
C24 C 0.63891(15) 0.21205(12) 0.75203(10)
H18 H 0.6903 0.2764 0.7191
H19 H 0.7138 0.1451 0.7826
C25 C 0.53898(19) 0.24117(15) 0.82725(12)
H20 H 0.4601 0.3032 0.7959
H21 H 0.5948 0.2649 0.8714
H22 H 0.4962 0.1745 0.8640
C26 C 0.40651(13) 0.25973(10) 0.48671(9)
C27 C 0.29073(14) 0.35076(11) 0.45644(9)
H23 H 0.1921 0.3383 0.4685
C28 C 0.31921(16) 0.45923(11) 0.40895(11)
H24 H 0.2401 0.5208 0.3889
C29 C 0.46230(17) 0.47778(12) 0.39083(12)
H25 H 0.4814 0.5521 0.3583
C30 C 0.57811(16) 0.38843(11) 0.41999(11)
H26 H 0.6764 0.4013 0.4067
C31 C 0.55042(14) 0.28059(10) 0.46841(9)
H27 H 0.6303 0.2199 0.4895
F1 F 0.07696(9) 0.23796(6) 0.23710(6)
F2 F -0.11821(8) 0.20190(6) 0.33525(6)
N1 N -0.03394(11) 0.07410(8) 0.24244(7)
N2 N 0.11269(11) 0.07783(8) 0.38170(7)
N3 N 0.11678(11) -0.03767(8) 0.42691(7)
N4 N 0.08303(13) -0.30542(10) 0.47192(9)
N5 N 0.29828(11) -0.02423(8) 0.56873(7)
H28 H 0.2487 -0.0766 0.5645
O1 O -0.20876(12) -0.10389(8) 0.04941(7)
O2 O -0.21283(15) 0.08145(10) -0.02137(8)
O3 O 0.63295(11) 0.00010(8) 0.74424(7)
O4 O 0.55177(11) 0.18736(8) 0.68189(7)
loop_
_geom_bond_atom_site_label_1
_geom_bond_atom_site_label_2
_geom_bond_site_symmetry_1
_geom_bond_site_symmetry_2
B1 F1 1_555 1_555
C1 C2 1_555 1_555
C2 C3 1_555 1_555
C3 C4 1_555 1_555
C4 C5 1_555 1_555
C5 C6 1_555 1_555
C6 C7 1_555 1_555
C7 H1 1_555 1_555
H2 C7 1_555 1_555
H3 C7 1_555 1_555
C8 C5 1_555 1_555
C9 H4 1_555 1_555
H5 C9 1_555 1_555
C10 C9 1_555 1_555
H6 C10 1_555 1_555
H7 C10 1_555 1_555
H8 C10 1_555 1_555
C11 C4 1_555 1_555
C12 C11 1_555 1_555
H9 C12 1_555 1_555
C13 C11 1_555 1_555
H10 C13 1_555 1_555
C14 C13 1_555 1_555
H11 C14 1_555 1_555
C15 C14 1_555 1_555
H12 C15 1_555 1_555
C16 C12 1_555 1_555
H13 C16 1_555 1_555
C17 H14 1_555 1_555
C18 C17 1_555 1_555
C19 C18 1_555 1_555
C20 C19 1_555 1_555
C21 C20 1_555 1_555
C22 C21 1_555 1_555
H15 C22 1_555 1_555
H16 C22 1_555 1_555
H17 C22 1_555 1_555
C23 C20 1_555 1_555
C24 H18 1_555 1_555
H19 C24 1_555 1_555
C25 C24 1_555 1_555
H20 C25 1_555 1_555
H21 C25 1_555 1_555
H22 C25 1_555 1_555
C26 C19 1_555 1_555
C27 C26 1_555 1_555
H23 C27 1_555 1_555
C28 C27 1_555 1_555
H24 C28 1_555 1_555
C29 C28 1_555 1_555
H25 C29 1_555 1_555
C30 C29 1_555 1_555
H26 C30 1_555 1_555
C31 C26 1_555 1_555
H27 C31 1_555 1_555
F2 B1 1_555 1_555
N1 B1 1_555 1_555
N2 B1 1_555 1_555
N3 C2 1_555 1_555
N4 C1 1_555 1_555
N5 C18 1_555 1_555
H28 N5 1_555 1_555
O1 C8 1_555 1_555
O2 C8 1_555 1_555
O3 C23 1_555 1_555
O4 C23 1_555 1_555
C3 N1 1_555 1_555
C6 N1 1_555 1_555
C9 O1 1_555 1_555
C15 C16 1_555 1_555
C17 N2 1_555 1_555
C21 N5 1_555 1_555
C24 O4 1_555 1_555
C30 C31 1_555 1_555
N2 N3 1_555 1_555

#END
