
#######################################################################
#
#                 Cambridge Crystallographic Data Centre
#                                CCDC 
#
#######################################################################
#
# If this CIF has been generated from an entry in the Cambridge 
# Structural Database, then it will include bibliographic, chemical, 
# crystal, experimental, refinement or atomic coordinate data resulting 
# from the CCDC's data processing and validation procedures.
#
#######################################################################

data_NEQKAW
_chemical_name_common            
(E)-7-((3-chlorocinnamoyl)oxy)-4-methylcoumarin
_chemical_formula_moiety         'C19 H13 Cl1 O4'
_chemical_name_systematic        
'4-Methyl-2-oxo-2H-1-benzopyran-7-yl 3-(3-chlorophenyl)prop-2-enoate'
_chemical_properties_biological  
'potential pharmacological and antibacterial activity'
_symmetry_cell_setting           monoclinic
_symmetry_space_group_name_H-M   'P 21/c'
_symmetry_Int_Tables_number      14
_space_group_name_Hall           '-P 2ybc'
loop_
_symmetry_equiv_pos_site_id
_symmetry_equiv_pos_as_xyz
1 x,y,z
2 -x,1/2+y,1/2-z
3 -x,-y,-z
4 x,1/2-y,1/2+z
_cell_length_a                   3.912(2)
_cell_length_b                   32.035(16)
_cell_length_c                   12.671(7)
_cell_angle_alpha                90
_cell_angle_beta                 91.442(8)
_cell_angle_gamma                90
_cell_volume                     1587.44
_exptl_crystal_colour            colorless
_exptl_crystal_description       column
_chemical_melting_point          '428-429 K'
_cell_formula_units_Z            4
_exptl_crystal_recrystallization_method ethanol
loop_
_atom_site_label
_atom_site_type_symbol
_atom_site_fract_x
_atom_site_fract_y
_atom_site_fract_z
Cl1 Cl 0.2042(4) 0.42618(5) 1.06026(10)
O1 O 0.4475(9) 0.59712(9) 0.6808(2)
O2 O 0.2107(10) 0.56171(10) 0.5441(3)
O3 O 0.8137(8) 0.67641(8) 0.3877(2)
O4 O 1.0276(10) 0.71132(10) 0.2554(2)
C1 C 0.2988(13) 0.56241(14) 0.6340(4)
C2 C 0.2643(12) 0.52965(14) 0.7125(3)
H1 H 0.3534 0.5337 0.7805
C3 C 0.1094(12) 0.49449(14) 0.6889(3)
H2 H 0.0318 0.4915 0.6194
C4 C 0.0450(11) 0.45942(13) 0.7599(3)
C5 C 0.1424(12) 0.46018(14) 0.8659(3)
H3 H 0.2520 0.4835 0.8943
C6 C 0.0767(12) 0.42637(15) 0.9289(3)
C7 C -0.0881(13) 0.39154(15) 0.8882(4)
H4 H -0.1318 0.3688 0.9314
C8 C -0.1866(13) 0.39079(15) 0.7838(4)
H5 H -0.2978 0.3675 0.7559
C9 C -0.1216(12) 0.42445(14) 0.7201(3)
H6 H -0.1904 0.4237 0.6494
C10 C 0.8781(13) 0.71348(13) 0.3367(4)
C11 C 0.7674(12) 0.75074(13) 0.3875(3)
H7 H 0.8028 0.7760 0.3535
C12 C 0.6146(11) 0.75149(13) 0.4817(3)
C13 C 0.5600(11) 0.71201(13) 0.5334(3)
C14 C 0.4113(12) 0.70797(14) 0.6319(3)
H8 H 0.3365 0.7317 0.6668
C15 C 0.3741(12) 0.66973(15) 0.6776(3)
H9 H 0.2790 0.6675 0.7439
C16 C 0.4776(12) 0.63448(14) 0.6255(3)
C17 C 0.6215(11) 0.63647(13) 0.5282(3)
H10 H 0.6899 0.6125 0.4933
C18 C 0.6612(11) 0.67551(13) 0.4841(3)
C19 C 0.5121(13) 0.79176(13) 0.5312(4)
H11 H 0.6565 0.7971 0.5920
H12 H 0.2784 0.7900 0.5521
H13 H 0.5354 0.8140 0.4811
loop_
_geom_bond_atom_site_label_1
_geom_bond_atom_site_label_2
_geom_bond_site_symmetry_1
_geom_bond_site_symmetry_2
Cl1 C6 1_555 1_555
O1 C1 1_555 1_555
O2 C1 1_555 1_555
O3 C10 1_555 1_555
O4 C10 1_555 1_555
C1 C2 1_555 1_555
C2 H1 1_555 1_555
C3 C2 1_555 1_555
H2 C3 1_555 1_555
C4 C3 1_555 1_555
C5 C4 1_555 1_555
H3 C5 1_555 1_555
C6 C5 1_555 1_555
C7 C6 1_555 1_555
H4 C7 1_555 1_555
C8 C7 1_555 1_555
H5 C8 1_555 1_555
C9 C4 1_555 1_555
H6 C9 1_555 1_555
C10 C11 1_555 1_555
C11 H7 1_555 1_555
C12 C11 1_555 1_555
C13 C12 1_555 1_555
C14 C13 1_555 1_555
H8 C14 1_555 1_555
C15 C14 1_555 1_555
H9 C15 1_555 1_555
C16 O1 1_555 1_555
C17 C16 1_555 1_555
H10 C17 1_555 1_555
C18 O3 1_555 1_555
C19 C12 1_555 1_555
H11 C19 1_555 1_555
H12 C19 1_555 1_555
H13 C19 1_555 1_555
C8 C9 1_555 1_555
C13 C18 1_555 1_555
C15 C16 1_555 1_555
C17 C18 1_555 1_555

#END
