
#######################################################################
#
#                 Cambridge Crystallographic Data Centre
#                                CCDC 
#
#######################################################################
#
# If this CIF has been generated from an entry in the Cambridge 
# Structural Database, then it will include bibliographic, chemical, 
# crystal, experimental, refinement or atomic coordinate data resulting 
# from the CCDC's data processing and validation procedures.
#
#######################################################################

data_NEQLIG
_chemical_formula_moiety         'C11 H18 N1 1+,F6 P1 1-'
_chemical_name_systematic        
'N,N,2,4,6-Pentamethylanilinium hexafluorophosphate'
_symmetry_cell_setting           monoclinic
_symmetry_space_group_name_H-M   'P 21/c'
_symmetry_Int_Tables_number      14
_space_group_name_Hall           '-P 2ybc'
loop_
_symmetry_equiv_pos_site_id
_symmetry_equiv_pos_as_xyz
1 x,y,z
2 -x,1/2+y,1/2-z
3 -x,-y,-z
4 x,1/2-y,1/2+z
_cell_length_a                   11.466(2)
_cell_length_b                   8.2439(16)
_cell_length_c                   15.559(3)
_cell_angle_alpha                90
_cell_angle_beta                 97.82(3)
_cell_angle_gamma                90
_cell_volume                     1457.03
_exptl_crystal_colour            colorless
_exptl_crystal_description       prism
_cell_formula_units_Z            4
loop_
_atom_site_label
_atom_site_type_symbol
_atom_site_fract_x
_atom_site_fract_y
_atom_site_fract_z
P1 P 0.32971(7) 0.80605(11) 0.35021(6)
F1 F 0.43410(18) 0.9123(3) 0.39786(18)
F2 F 0.2284(2) 0.6948(3) 0.30436(15)
F3 F 0.3564(2) 0.8663(3) 0.25858(15)
F4 F 0.3043(2) 0.7382(4) 0.44062(14)
F5 F 0.4216(2) 0.6632(3) 0.34402(15)
F6 F 0.2418(2) 0.9486(3) 0.3564(2)
N1 N 0.68536(19) 0.8547(3) 0.37739(14)
H1 H 0.6213 0.8201 0.4009
C1 C 0.7884(2) 0.7941(3) 0.43803(17)
C2 C 0.7626(2) 0.7091(3) 0.51013(18)
C3 C 0.8564(3) 0.6512(4) 0.56766(19)
H2 H 0.8409 0.5922 0.6158
C4 C 0.9722(3) 0.6782(4) 0.5560(2)
C5 C 0.9930(3) 0.7638(4) 0.4838(2)
H3 H 1.0706 0.7832 0.4757
C6 C 0.9034(2) 0.8228(3) 0.42212(18)
C7 C 1.0726(3) 0.6148(4) 0.6206(2)
H4 H 1.1392 0.5919 0.5912
H5 H 1.0484 0.5172 0.6468
H6 H 1.0940 0.6949 0.6647
C8 C 0.6383(3) 0.6771(5) 0.5279(2)
H7 H 0.6403 0.6149 0.5802
H8 H 0.5964 0.6177 0.4803
H9 H 0.5991 0.7784 0.5344
C9 C 0.9394(3) 0.9078(5) 0.3437(2)
H10 H 0.9402 0.8312 0.2973
H11 H 1.0166 0.9534 0.3584
H12 H 0.8842 0.9928 0.3256
C10 C 0.6719(3) 0.7799(5) 0.2888(2)
H13 H 0.7327 0.8200 0.2576
H14 H 0.5963 0.8079 0.2580
H15 H 0.6783 0.6642 0.2940
C11 C 0.6748(3) 1.0353(4) 0.3754(2)
H16 H 0.6797 1.0758 0.4336
H17 H 0.6005 1.0656 0.3434
H18 H 0.7375 1.0806 0.3480
loop_
_geom_bond_atom_site_label_1
_geom_bond_atom_site_label_2
_geom_bond_site_symmetry_1
_geom_bond_site_symmetry_2
P1 F1 1_555 1_555
N1 H1 1_555 1_555
F2 P1 1_555 1_555
F3 P1 1_555 1_555
F4 P1 1_555 1_555
F5 P1 1_555 1_555
F6 P1 1_555 1_555
C1 N1 1_555 1_555
C2 C1 1_555 1_555
C3 C2 1_555 1_555
H2 C3 1_555 1_555
C4 C3 1_555 1_555
C5 C4 1_555 1_555
H3 C5 1_555 1_555
C6 C1 1_555 1_555
C7 C4 1_555 1_555
H4 C7 1_555 1_555
H5 C7 1_555 1_555
H6 C7 1_555 1_555
C8 C2 1_555 1_555
H7 C8 1_555 1_555
H8 C8 1_555 1_555
H9 C8 1_555 1_555
C9 C6 1_555 1_555
H10 C9 1_555 1_555
H11 C9 1_555 1_555
H12 C9 1_555 1_555
C10 N1 1_555 1_555
H13 C10 1_555 1_555
H14 C10 1_555 1_555
H15 C10 1_555 1_555
C11 N1 1_555 1_555
H16 C11 1_555 1_555
H17 C11 1_555 1_555
H18 C11 1_555 1_555
C5 C6 1_555 1_555

#END
