
#######################################################################
#
#                 Cambridge Crystallographic Data Centre
#                                CCDC 
#
#######################################################################
#
# If this CIF has been generated from an entry in the Cambridge 
# Structural Database, then it will include bibliographic, chemical, 
# crystal, experimental, refinement or atomic coordinate data resulting 
# from the CCDC's data processing and validation procedures.
#
#######################################################################

data_NEQMIG
_chemical_formula_moiety         'C18 H15 Br1 Cl1 N3 O2'
_chemical_name_systematic        
4-(3-Bromo-5-chloro-2-hydroxybenzylideneamino)-1,5-dimethyl-2-phenyl-1H-pyrazol-3(2H)-one
_symmetry_cell_setting           monoclinic
_symmetry_space_group_name_H-M   'P 21/n'
_symmetry_Int_Tables_number      14
_space_group_name_Hall           '-P 2yn'
loop_
_symmetry_equiv_pos_site_id
_symmetry_equiv_pos_as_xyz
1 x,y,z
2 1/2-x,1/2+y,1/2-z
3 -x,-y,-z
4 1/2+x,1/2-y,1/2+z
_cell_length_a                   7.055(2)
_cell_length_b                   8.058(3)
_cell_length_c                   30.691(10)
_cell_angle_alpha                90
_cell_angle_beta                 91.716(4)
_cell_angle_gamma                90
_cell_volume                     1743.98
_exptl_crystal_colour            colorless
_exptl_crystal_description       plate
_cell_formula_units_Z            4
loop_
_atom_site_label
_atom_site_type_symbol
_atom_site_fract_x
_atom_site_fract_y
_atom_site_fract_z
Br1 Br 0.40727(6) 0.34654(6) 1.140044(14)
C1 C 0.7240(5) 0.1832(4) 1.10665(13)
H1 H 0.7628 0.1745 1.1358
C2 C 0.8351(5) 0.1201(4) 1.07424(13)
C3 C 0.7790(5) 0.1325(4) 1.03141(13)
H2 H 0.8548 0.0889 1.0099
C4 C 0.6075(5) 0.2105(4) 1.01968(12)
C5 C 0.4944(5) 0.2761(5) 1.05215(12)
C6 C 0.5551(5) 0.2590(5) 1.09509(12)
C7 C 0.5502(5) 0.2182(5) 0.97399(13)
H3 H 0.6271 0.1697 0.9535
C8 C 0.3434(5) 0.2939(4) 0.91707(12)
C9 C 0.4486(5) 0.2307(5) 0.88106(12)
C10 C 0.1794(5) 0.3604(4) 0.90094(12)
C11 C 0.4017(5) 0.2795(5) 0.80141(12)
C12 C 0.5281(5) 0.1611(5) 0.78634(13)
H4 H 0.5617 0.0703 0.8036
C13 C 0.6025(6) 0.1797(6) 0.74579(14)
H5 H 0.6911 0.1036 0.7362
C14 C 0.5477(6) 0.3093(6) 0.71923(15)
H6 H 0.5985 0.3204 0.6918
C15 C 0.4178(6) 0.4223(6) 0.73338(14)
H7 H 0.3766 0.5074 0.7149
C16 C 0.3473(5) 0.4106(5) 0.77505(12)
H8 H 0.2641 0.4905 0.7851
C17 C -0.0070(5) 0.3172(5) 0.83254(13)
H9 H -0.0462 0.2058 0.8387
H10 H 0.0114 0.3290 0.8018
H11 H -0.1028 0.3935 0.8415
C18 C 0.0198(5) 0.4322(5) 0.92553(13)
H12 H -0.0898 0.3623 0.9220
H13 H -0.0093 0.5411 0.9145
H14 H 0.0557 0.4394 0.9559
Cl1 Cl 1.05066(13) 0.02576(13) 1.08890(3)
N1 N 0.3313(4) 0.2611(4) 0.84391(10)
N2 N 0.1723(4) 0.3530(4) 0.85658(10)
N3 N 0.3957(4) 0.2904(4) 0.96097(10)
O1 O 0.3295(4) 0.3538(4) 1.04233(9)
H15 H 0.3102 0.3528 1.0158
O2 O 0.6070(3) 0.1693(3) 0.87960(9)
loop_
_geom_bond_atom_site_label_1
_geom_bond_atom_site_label_2
_geom_bond_site_symmetry_1
_geom_bond_site_symmetry_2
Br1 C6 1_555 1_555
C1 H1 1_555 1_555
C2 C1 1_555 1_555
C3 C2 1_555 1_555
H2 C3 1_555 1_555
C4 C3 1_555 1_555
C5 C4 1_555 1_555
C6 C1 1_555 1_555
C7 C4 1_555 1_555
H3 C7 1_555 1_555
C8 C9 1_555 1_555
C9 N1 1_555 1_555
C10 C8 1_555 1_555
C11 C12 1_555 1_555
C12 H4 1_555 1_555
C13 C12 1_555 1_555
H5 C13 1_555 1_555
C14 C13 1_555 1_555
H6 C14 1_555 1_555
C15 C14 1_555 1_555
H7 C15 1_555 1_555
C16 C11 1_555 1_555
H8 C16 1_555 1_555
C17 H9 1_555 1_555
H10 C17 1_555 1_555
H11 C17 1_555 1_555
C18 C10 1_555 1_555
H12 C18 1_555 1_555
H13 C18 1_555 1_555
H14 C18 1_555 1_555
Cl1 C2 1_555 1_555
N1 C11 1_555 1_555
N2 C10 1_555 1_555
N3 C7 1_555 1_555
O1 C5 1_555 1_555
H15 O1 1_555 1_555
O2 C9 1_555 1_555
C5 C6 1_555 1_555
C8 N3 1_555 1_555
C15 C16 1_555 1_555
C17 N2 1_555 1_555
N1 N2 1_555 1_555

#END
