
#######################################################################
#
#                 Cambridge Crystallographic Data Centre
#                                CCDC 
#
#######################################################################
#
# If this CIF has been generated from an entry in the Cambridge 
# Structural Database, then it will include bibliographic, chemical, 
# crystal, experimental, refinement or atomic coordinate data resulting 
# from the CCDC's data processing and validation procedures.
#
#######################################################################

data_NEQNED
_chemical_formula_moiety         'C12 H18 N2 S4'
_chemical_name_systematic        
trans-2,2'-((2-Butene-1,4-diyl)dithio)bis(4,5-dihydro-1,3-thiazine)
_symmetry_cell_setting           monoclinic
_symmetry_space_group_name_H-M   'P 21/n'
_symmetry_Int_Tables_number      14
_space_group_name_Hall           '-P 2yn'
loop_
_symmetry_equiv_pos_site_id
_symmetry_equiv_pos_as_xyz
1 x,y,z
2 1/2-x,1/2+y,1/2-z
3 -x,-y,-z
4 1/2+x,1/2-y,1/2+z
_cell_length_a                   8.282(5)
_cell_length_b                   10.578(6)
_cell_length_c                   9.625(6)
_cell_angle_alpha                90
_cell_angle_beta                 114.100(8)
_cell_angle_gamma                90
_cell_volume                     769.718
_exptl_crystal_colour            colorless
_exptl_crystal_description       block
_chemical_melting_point          '357-358 K'
_cell_formula_units_Z            2
_exptl_crystal_recrystallization_method acetone/dichloromethane
loop_
_atom_site_label
_atom_site_type_symbol
_atom_site_fract_x
_atom_site_fract_y
_atom_site_fract_z
S1 S 0.69683(13) 0.41117(10) 0.41364(13)
S2 S 0.38467(11) 0.36247(8) 0.14298(11)
N1 N 0.4859(4) 0.5980(3) 0.2323(3)
C1 C 0.7903(5) 0.5460(4) 0.5323(4)
H1 H 0.7285 0.5601 0.5975
H2 H 0.9135 0.5293 0.5969
C2 C 0.7778(7) 0.6600(5) 0.4415(5)
H3 H 0.8506 0.6476 0.3852
H4 H 0.8280 0.7301 0.5108
C3 C 0.5978(5) 0.6964(4) 0.3323(5)
H5 H 0.5358 0.7314 0.3900
H6 H 0.6096 0.7637 0.2686
C4 C 0.5198(4) 0.4831(3) 0.2605(3)
C5 C 0.2224(4) 0.4546(3) -0.0102(4)
H7 H 0.2834 0.5204 -0.0401
H8 H 0.1645 0.3999 -0.0975
C6 C 0.0848(4) 0.5143(3) 0.0315(3)
H9 H 0.1214 0.5757 0.1072
S1B S -0.69683(13) 0.58883(10) -0.41364(13)
S2B S -0.38467(11) 0.63753(8) -0.14298(11)
N1B N -0.4859(4) 0.4020(3) -0.2323(3)
C1B C -0.7903(5) 0.4540(4) -0.5323(4)
H1B H -0.7285 0.4399 -0.5975
H2B H -0.9135 0.4707 -0.5969
C2B C -0.7778(7) 0.3400(5) -0.4415(5)
H3B H -0.8506 0.3524 -0.3852
H4B H -0.8280 0.2699 -0.5108
C3B C -0.5978(5) 0.3036(4) -0.3323(5)
H5B H -0.5358 0.2686 -0.3900
H6B H -0.6096 0.2363 -0.2686
C4B C -0.5198(4) 0.5169(3) -0.2605(3)
C5B C -0.2224(4) 0.5454(3) 0.0102(4)
H7B H -0.2834 0.4796 0.0401
H8B H -0.1645 0.6001 0.0975
C6B C -0.0848(4) 0.4857(3) -0.0315(3)
H9B H -0.1214 0.4243 -0.1072
loop_
_geom_bond_atom_site_label_1
_geom_bond_atom_site_label_2
_geom_bond_site_symmetry_1
_geom_bond_site_symmetry_2
S1 C1 1_555 1_555
S2 C4 1_555 1_555
N1 C3 1_555 1_555
C1 H1 1_555 1_555
H2 C1 1_555 1_555
C2 C1 1_555 1_555
H3 C2 1_555 1_555
H4 C2 1_555 1_555
C3 C2 1_555 1_555
H5 C3 1_555 1_555
H6 C3 1_555 1_555
C4 S1 1_555 1_555
C5 S2 1_555 1_555
H7 C5 1_555 1_555
H8 C5 1_555 1_555
C6 C5 1_555 1_555
H9 C6 1_555 1_555
S1B C1B 1_555 1_555
S2B C4B 1_555 1_555
N1B C3B 1_555 1_555
C1B H1B 1_555 1_555
H2B C1B 1_555 1_555
C2B C1B 1_555 1_555
H3B C2B 1_555 1_555
H4B C2B 1_555 1_555
C3B C2B 1_555 1_555
H5B C3B 1_555 1_555
H6B C3B 1_555 1_555
C4B S1B 1_555 1_555
C5B S2B 1_555 1_555
H7B C5B 1_555 1_555
H8B C5B 1_555 1_555
C6B C6 1_555 1_555
H9B C6B 1_555 1_555
N1 C4 1_555 1_555
N1B C4B 1_555 1_555
C5B C6B 1_555 1_555

#END
