
#######################################################################
#
#                 Cambridge Crystallographic Data Centre
#                                CCDC 
#
#######################################################################
#
# If this CIF has been generated from an entry in the Cambridge 
# Structural Database, then it will include bibliographic, chemical, 
# crystal, experimental, refinement or atomic coordinate data resulting 
# from the CCDC's data processing and validation procedures.
#
#######################################################################

data_NEQPIJ
_chemical_formula_moiety         'C11 H11 Cl2 N3 O2'
_chemical_name_systematic        
1-(5-(3,6-Dichloropyridin-2-yl)-2,2-dimethyl-1,3,4-oxadiazol-3-yl)ethanone
_chemical_properties_biological  'potential pharmaceutical activity'
_symmetry_cell_setting           monoclinic
_symmetry_space_group_name_H-M   'P 21/n'
_symmetry_Int_Tables_number      14
_space_group_name_Hall           '-P 2yn'
loop_
_symmetry_equiv_pos_site_id
_symmetry_equiv_pos_as_xyz
1 x,y,z
2 1/2-x,1/2+y,1/2-z
3 -x,-y,-z
4 1/2+x,1/2-y,1/2+z
_cell_length_a                   11.1149(19)
_cell_length_b                   8.1943(13)
_cell_length_c                   14.122(2)
_cell_angle_alpha                90
_cell_angle_beta                 93.554(3)
_cell_angle_gamma                90
_cell_volume                     1283.74
_exptl_crystal_colour            colorless
_exptl_crystal_description       plate
_chemical_melting_point          '433 K'
_cell_formula_units_Z            4
_exptl_crystal_recrystallization_method 'ethyl acetate'
loop_
_atom_site_label
_atom_site_type_symbol
_atom_site_fract_x
_atom_site_fract_y
_atom_site_fract_z
Cl1 Cl 0.93462(4) 0.87254(8) -0.10314(4)
Cl2 Cl 0.77170(4) 0.48665(7) 0.24046(3)
O1 O 0.54047(10) 0.80222(15) 0.04455(9)
O2 O 0.22748(11) 0.57282(17) 0.13400(10)
N1 N 0.54303(12) 0.56763(18) 0.12651(10)
N2 N 0.42304(12) 0.61429(17) 0.10955(10)
N3 N 0.77364(13) 0.76615(18) 0.00831(11)
C1 C 0.60406(14) 0.67882(19) 0.08809(11)
C2 C 0.41458(14) 0.7796(2) 0.06637(11)
C3 C 0.33179(15) 0.5243(2) 0.14320(12)
C4 C 0.36809(16) 0.3651(2) 0.18937(12)
H1 H 0.2958 0.3045 0.2046
H2 H 0.4179 0.3863 0.2477
H3 H 0.4142 0.3005 0.1458
C5 C 0.38273(19) 0.9073(2) 0.13736(14)
H4 H 0.2985 0.8935 0.1526
H5 H 0.3936 1.0161 0.1104
H6 H 0.4353 0.8954 0.1953
C6 C 0.33842(15) 0.7869(2) -0.02577(12)
H7 H 0.2534 0.7722 -0.0131
H8 H 0.3633 0.7001 -0.0681
H9 H 0.3491 0.8932 -0.0560
C7 C 0.73568(14) 0.6799(2) 0.08202(11)
C8 C 0.88991(15) 0.7670(2) -0.00442(13)
C9 C 0.97700(16) 0.6893(3) 0.05348(14)
H10 H 1.0600 0.6955 0.0412
C10 C 0.93898(16) 0.6032(2) 0.12927(14)
H11 H 0.9957 0.5488 0.1713
C11 C 0.81627(15) 0.5962(2) 0.14419(12)
loop_
_geom_bond_atom_site_label_1
_geom_bond_atom_site_label_2
_geom_bond_site_symmetry_1
_geom_bond_site_symmetry_2
Cl1 C8 1_555 1_555
Cl2 C11 1_555 1_555
O1 C1 1_555 1_555
O2 C3 1_555 1_555
N1 N2 1_555 1_555
N2 C2 1_555 1_555
N3 C7 1_555 1_555
C1 N1 1_555 1_555
C2 O1 1_555 1_555
C3 N2 1_555 1_555
C4 C3 1_555 1_555
H1 C4 1_555 1_555
H2 C4 1_555 1_555
H3 C4 1_555 1_555
C5 C2 1_555 1_555
H4 C5 1_555 1_555
H5 C5 1_555 1_555
H6 C5 1_555 1_555
C6 C2 1_555 1_555
H7 C6 1_555 1_555
H8 C6 1_555 1_555
H9 C6 1_555 1_555
C7 C1 1_555 1_555
C8 N3 1_555 1_555
C9 C8 1_555 1_555
H10 C9 1_555 1_555
C10 C9 1_555 1_555
H11 C10 1_555 1_555
C11 C7 1_555 1_555
C10 C11 1_555 1_555

#END
