
#######################################################################
#
#                 Cambridge Crystallographic Data Centre
#                                CCDC 
#
#######################################################################
#
# If this CIF has been generated from an entry in the Cambridge 
# Structural Database, then it will include bibliographic, chemical, 
# crystal, experimental, refinement or atomic coordinate data resulting 
# from the CCDC's data processing and validation procedures.
#
#######################################################################

data_NEQQUX
_chemical_name_common            
3,5-bis(2-chlorobenzylidene)-1-propylpiperidin-4-one
_chemical_formula_moiety         'C22 H21 Cl2 N1 O1'
_chemical_name_systematic        
(3E,5E)-3,5-Bis(2-chlorobenzylidene)-1-propylpiperidin-4-one
_symmetry_cell_setting           orthorhombic
_symmetry_space_group_name_H-M   'P c a 21'
_symmetry_Int_Tables_number      29
_space_group_name_Hall           'P 2c -2ac'
loop_
_symmetry_equiv_pos_site_id
_symmetry_equiv_pos_as_xyz
1 x,y,z
2 -x,-y,1/2+z
3 1/2+x,-y,z
4 1/2-x,y,1/2+z
_cell_length_a                   18.0123(15)
_cell_length_b                   7.0128(6)
_cell_length_c                   15.4364(13)
_cell_angle_alpha                90
_cell_angle_beta                 90
_cell_angle_gamma                90
_cell_volume                     1949.87
_exptl_crystal_colour            green
_exptl_crystal_description       prismatic
_cell_formula_units_Z            4
loop_
_atom_site_label
_atom_site_type_symbol
_atom_site_fract_x
_atom_site_fract_y
_atom_site_fract_z
Cl1 Cl 0.78182(4) -0.45470(9) 0.63636(5)
Cl2 Cl 0.37574(3) -0.55096(7) 0.88228(4)
N1 N 0.56671(8) 0.1169(2) 0.77359(10)
O1 O 0.63228(8) -0.3652(2) 0.89850(10)
C1 C 0.61494(10) -0.2139(3) 0.86622(12)
C2 C 0.53972(9) -0.1287(2) 0.88170(12)
C3 C 0.52682(10) 0.0724(3) 0.85301(11)
H1 H 0.4741 0.0920 0.8438
H2 H 0.5427 0.1588 0.8984
C4 C 0.64621(10) 0.0972(3) 0.78692(14)
H3 H 0.6619 0.1817 0.8332
H4 H 0.6722 0.1343 0.7345
C5 C 0.66643(9) -0.1048(3) 0.80985(12)
C6 C 0.72557(10) -0.1989(3) 0.78005(13)
H5 H 0.7282 -0.3274 0.7945
C7 C 0.78713(10) -0.1247(3) 0.72710(11)
C8 C 0.81962(12) 0.0505(3) 0.74401(14)
H6 H 0.7998 0.1274 0.7873
C9 C 0.88044(12) 0.1138(4) 0.69847(16)
H7 H 0.9013 0.2317 0.7114
C10 C 0.91043(12) 0.0031(4) 0.63378(17)
H8 H 0.9516 0.0458 0.6031
C11 C 0.87924(12) -0.1711(4) 0.61467(15)
H9 H 0.8987 -0.2461 0.5705
C12 C 0.81917(11) -0.2330(3) 0.66148(12)
C13 C 0.48853(10) -0.2435(3) 0.91708(11)
H10 H 0.5036 -0.3681 0.9278
C14 C 0.41197(10) -0.1981(3) 0.94103(11)
C15 C 0.39186(13) -0.0247(3) 0.97859(13)
H11 H 0.4275 0.0699 0.9857
C16 C 0.31982(14) 0.0090(4) 1.00541(16)
H12 H 0.3074 0.1254 1.0303
C17 C 0.26585(13) -0.1308(4) 0.99520(16)
H13 H 0.2174 -0.1081 1.0134
C18 C 0.28397(11) -0.3015(3) 0.95846(14)
H14 H 0.2481 -0.3956 0.9516
C19 C 0.35581(10) -0.3336(3) 0.93162(12)
C20 C 0.54687(11) 0.3110(3) 0.74676(12)
H15 H 0.5660 0.4001 0.7893
H16 H 0.4932 0.3224 0.7465
C21 C 0.57591(14) 0.3668(3) 0.65862(15)
H17 H 0.6297 0.3709 0.6603
H18 H 0.5614 0.2709 0.6166
C22 C 0.54679(16) 0.5583(3) 0.63016(19)
H19 H 0.4937 0.5525 0.6249
H20 H 0.5681 0.5912 0.5751
H21 H 0.5600 0.6531 0.6723
loop_
_geom_bond_atom_site_label_1
_geom_bond_atom_site_label_2
_geom_bond_site_symmetry_1
_geom_bond_site_symmetry_2
Cl1 C12 1_555 1_555
Cl2 C19 1_555 1_555
N1 C3 1_555 1_555
O1 C1 1_555 1_555
C1 C2 1_555 1_555
C2 C3 1_555 1_555
C3 H1 1_555 1_555
H2 C3 1_555 1_555
C4 N1 1_555 1_555
H3 C4 1_555 1_555
H4 C4 1_555 1_555
C5 C1 1_555 1_555
C6 C5 1_555 1_555
H5 C6 1_555 1_555
C7 C6 1_555 1_555
C8 C7 1_555 1_555
H6 C8 1_555 1_555
C9 C8 1_555 1_555
H7 C9 1_555 1_555
C10 C9 1_555 1_555
H8 C10 1_555 1_555
C11 C10 1_555 1_555
H9 C11 1_555 1_555
C12 C7 1_555 1_555
C13 C2 1_555 1_555
H10 C13 1_555 1_555
C14 C13 1_555 1_555
C15 C14 1_555 1_555
H11 C15 1_555 1_555
C16 C15 1_555 1_555
H12 C16 1_555 1_555
C17 C16 1_555 1_555
H13 C17 1_555 1_555
C18 C17 1_555 1_555
H14 C18 1_555 1_555
C19 C14 1_555 1_555
C20 N1 1_555 1_555
H15 C20 1_555 1_555
H16 C20 1_555 1_555
C21 C20 1_555 1_555
H17 C21 1_555 1_555
H18 C21 1_555 1_555
C22 C21 1_555 1_555
H19 C22 1_555 1_555
H20 C22 1_555 1_555
H21 C22 1_555 1_555
C4 C5 1_555 1_555
C11 C12 1_555 1_555
C18 C19 1_555 1_555

#END
