
#######################################################################
#
#                 Cambridge Crystallographic Data Centre
#                                CCDC 
#
#######################################################################
#
# If this CIF has been generated from an entry in the Cambridge 
# Structural Database, then it will include bibliographic, chemical, 
# crystal, experimental, refinement or atomic coordinate data resulting 
# from the CCDC's data processing and validation procedures.
#
#######################################################################

data_NEQSUZ
_chemical_formula_moiety         'C19 H16 N2 O4'
_chemical_name_systematic        '3,5-bis(pyridin-4-ylmethoxy)benzoic acid'
_symmetry_cell_setting           monoclinic
_symmetry_space_group_name_H-M   'P 21/c'
_symmetry_Int_Tables_number      14
_space_group_name_Hall           '-P 2ybc'
loop_
_symmetry_equiv_pos_site_id
_symmetry_equiv_pos_as_xyz
1 x,y,z
2 -x,1/2+y,1/2-z
3 -x,-y,-z
4 x,1/2-y,1/2+z
_cell_length_a                   11.1523(6)
_cell_length_b                   11.2120(6)
_cell_length_c                   13.9255(7)
_cell_angle_alpha                90
_cell_angle_beta                 102.827(3)
_cell_angle_gamma                90
_cell_volume                     1697.79
_exptl_crystal_colour            colorless
_exptl_crystal_description       block
_cell_formula_units_Z            4
loop_
_atom_site_label
_atom_site_type_symbol
_atom_site_fract_x
_atom_site_fract_y
_atom_site_fract_z
N1 N 0.68638(16) -0.22020(13) 0.06179(12)
N2 N -0.01294(12) 0.70984(13) -0.08773(10)
O1 O 0.89003(10) 0.51053(12) 0.36115(10)
O2 O 0.78235(10) 0.67629(10) 0.32201(9)
H1 H 0.8458 0.7098 0.3565
O3 O 0.61952(9) 0.19740(9) 0.14886(9)
O4 O 0.38875(8) 0.55619(8) 0.10585(7)
C1 C 0.69258(11) 0.49686(12) 0.25395(9)
C2 C 0.70848(11) 0.37573(12) 0.23705(10)
H2 H 0.7807 0.3368 0.2672
C3 C 0.61508(12) 0.31505(12) 0.17484(10)
C4 C 0.50609(12) 0.37228(12) 0.13026(10)
H3 H 0.4432 0.3302 0.0890
C5 C 0.49235(11) 0.49207(12) 0.14796(9)
C6 C 0.58568(11) 0.55589(12) 0.21024(9)
H4 H 0.5761 0.6366 0.2221
C7 C 0.79339(18) -0.16440(16) 0.08353(15)
H5 H 0.8616 -0.2048 0.0720
C8 C 0.81162(14) -0.05037(14) 0.12215(12)
H6 H 0.8892 -0.0155 0.1348
C9 C 0.71223(12) 0.00998(12) 0.14135(9)
C10 C 0.59962(14) -0.04711(14) 0.11926(11)
H7 H 0.5298 -0.0094 0.1307
C11 C 0.59181(16) -0.16036(15) 0.08012(13)
H8 H 0.5151 -0.1971 0.0657
C12 C -0.00017(14) 0.59958(16) -0.11826(12)
H9 H -0.0621 0.5683 -0.1678
C13 C 0.09988(13) 0.52908(15) -0.08048(10)
H10 H 0.1048 0.4520 -0.1040
C14 C 0.19354(11) 0.57435(12) -0.00677(9)
C15 C 0.18240(13) 0.68999(13) 0.02401(10)
H11 H 0.2440 0.7243 0.0722
C16 C 0.07743(14) 0.75435(14) -0.01820(12)
H12 H 0.0700 0.8321 0.0031
C17 C 0.79843(12) 0.56116(13) 0.31786(11)
C18 C 0.72785(12) 0.13267(12) 0.18610(11)
H13 H 0.7424 0.1273 0.2573
H14 H 0.7976 0.1723 0.1691
C19 C 0.29911(11) 0.49396(12) 0.03536(10)
H15 H 0.2697 0.4258 0.0664
H16 H 0.3359 0.4649 -0.0171
loop_
_geom_bond_atom_site_label_1
_geom_bond_atom_site_label_2
_geom_bond_site_symmetry_1
_geom_bond_site_symmetry_2
N1 C7 1_555 1_555
N2 C12 1_555 1_555
O1 C17 1_555 1_555
O2 H1 1_555 1_555
O3 C3 1_555 1_555
O4 C5 1_555 1_555
C1 C2 1_555 1_555
C2 H2 1_555 1_555
C3 C2 1_555 1_555
C4 C3 1_555 1_555
H3 C4 1_555 1_555
C5 C4 1_555 1_555
C6 C1 1_555 1_555
H4 C6 1_555 1_555
C7 H5 1_555 1_555
C8 C7 1_555 1_555
H6 C8 1_555 1_555
C9 C8 1_555 1_555
C10 C9 1_555 1_555
H7 C10 1_555 1_555
C11 N1 1_555 1_555
H8 C11 1_555 1_555
C12 H9 1_555 1_555
C13 C12 1_555 1_555
H10 C13 1_555 1_555
C14 C13 1_555 1_555
C15 C14 1_555 1_555
H11 C15 1_555 1_555
C16 N2 1_555 1_555
H12 C16 1_555 1_555
C17 O2 1_555 1_555
C18 O3 1_555 1_555
H13 C18 1_555 1_555
H14 C18 1_555 1_555
C19 O4 1_555 1_555
H15 C19 1_555 1_555
H16 C19 1_555 1_555
C1 C17 1_555 1_555
C5 C6 1_555 1_555
C9 C18 1_555 1_555
C10 C11 1_555 1_555
C14 C19 1_555 1_555
C15 C16 1_555 1_555

#END
