
#######################################################################
#
#                 Cambridge Crystallographic Data Centre
#                                CCDC 
#
#######################################################################
#
# If this CIF has been generated from an entry in the Cambridge 
# Structural Database, then it will include bibliographic, chemical, 
# crystal, experimental, refinement or atomic coordinate data resulting 
# from the CCDC's data processing and validation procedures.
#
#######################################################################

data_NEQXUD
_chemical_formula_moiety         'C20 H24 Cl2 N4 Na2 O16'
_chemical_name_systematic        
bis(\m~2~-aqua)-bis(aqua-(N,N'-bis(furan-2-ylmethylene)hydrazine-\k^2^N,O)-(perchlorato-\kO)-sodium)
_symmetry_cell_setting           triclinic
_symmetry_space_group_name_H-M   'P -1'
_symmetry_Int_Tables_number      2
_space_group_name_Hall           '-P 1'
loop_
_symmetry_equiv_pos_site_id
_symmetry_equiv_pos_as_xyz
1 x,y,z
2 -x,-y,-z
_cell_length_a                   6.55650(10)
_cell_length_b                   9.9647(2)
_cell_length_c                   12.4108(2)
_cell_angle_alpha                73.8820(10)
_cell_angle_beta                 81.4730(10)
_cell_angle_gamma                74.0580(10)
_cell_volume                     746.73
_exptl_crystal_colour            yellow
_exptl_crystal_description       block
_cell_formula_units_Z            1
loop_
_atom_site_label
_atom_site_type_symbol
_atom_site_fract_x
_atom_site_fract_y
_atom_site_fract_z
Na1 Na 0.71743(16) 0.34806(11) 0.00085(9)
O1 O 0.6572(3) 0.3102(2) -0.18161(16)
O2 O 0.7817(3) -0.2482(2) 0.30456(16)
N1 N 0.7186(3) 0.0909(2) 0.01327(18)
N2 N 0.7450(3) -0.0317(2) 0.10467(18)
C1 C 0.6488(5) 0.3887(4) -0.2914(3)
H1 H 0.6112 0.4888 -0.3142
C2 C 0.7020(5) 0.3019(4) -0.3615(3)
H2 H 0.7090 0.3300 -0.4397
C3 C 0.7453(4) 0.1597(3) -0.2941(2)
H3 H 0.7857 0.0759 -0.3193
C4 C 0.7171(4) 0.1678(3) -0.1857(2)
C5 C 0.7398(4) 0.0595(3) -0.0817(2)
H4 H 0.7710 -0.0369 -0.0831
C6 C 0.7111(4) 0.0004(3) 0.1995(2)
H5 H 0.6722 0.0972 0.2004
C7 C 0.7305(4) -0.1060(3) 0.3044(2)
C8 C 0.7082(5) -0.0922(4) 0.4116(3)
H6 H 0.6748 -0.0067 0.4343
C9 C 0.7459(6) -0.2331(5) 0.4817(3)
H7 H 0.7416 -0.2587 0.5599
C10 C 0.7889(5) -0.3229(4) 0.4145(3)
H8 H 0.8196 -0.4228 0.4393
Cl1 Cl 0.90306(13) 0.30997(8) 0.26635(6)
O3 O 0.7697(10) 0.3680(7) 0.1738(5)
O4 O 1.0027(11) 0.4217(6) 0.2617(5)
O5 O 0.7848(11) 0.2706(9) 0.3673(4)
O6 O 1.0497(12) 0.1969(7) 0.2344(6)
O11 O 0.6613(3) 0.6034(2) -0.05352(17)
H9 H 0.6913 0.6360 -0.1233
H10 H 0.7290 0.6349 -0.0166
O12 O 1.0858(3) 0.3200(2) -0.07367(17)
H11 H 1.0921 0.3809 -0.1367
H12 H 1.1338 0.2362 -0.0847
Na1A Na 0.28257(16) 0.65194(11) -0.00085(9)
O1A O 0.3428(3) 0.6898(2) 0.18161(16)
O2A O 0.2183(3) 1.2482(2) -0.30456(16)
N1A N 0.2814(3) 0.9091(2) -0.01327(18)
N2A N 0.2550(3) 1.0317(2) -0.10467(18)
C1A C 0.3512(5) 0.6113(4) 0.2914(3)
H1A H 0.3888 0.5112 0.3142
C2A C 0.2980(5) 0.6981(4) 0.3615(3)
H2A H 0.2910 0.6700 0.4397
C3A C 0.2547(4) 0.8403(3) 0.2941(2)
H3A H 0.2143 0.9241 0.3193
C4A C 0.2829(4) 0.8322(3) 0.1857(2)
C5A C 0.2602(4) 0.9405(3) 0.0817(2)
H4A H 0.2290 1.0369 0.0831
C6A C 0.2889(4) 0.9996(3) -0.1995(2)
H5A H 0.3278 0.9028 -0.2004
C7A C 0.2695(4) 1.1060(3) -0.3044(2)
C8A C 0.2918(5) 1.0922(4) -0.4116(3)
H6A H 0.3252 1.0067 -0.4343
C9A C 0.2541(6) 1.2331(5) -0.4817(3)
H7A H 0.2584 1.2587 -0.5599
C10A C 0.2111(5) 1.3229(4) -0.4145(3)
H8A H 0.1804 1.4228 -0.4393
Cl1A Cl 0.09694(13) 0.69003(8) -0.26635(6)
O3A O 0.2303(10) 0.6320(7) -0.1738(5)
O4A O -0.0027(11) 0.5783(6) -0.2617(5)
O5A O 0.2152(11) 0.7294(9) -0.3673(4)
O6A O -0.0497(12) 0.8031(7) -0.2344(6)
O11A O 0.3387(3) 0.3966(2) 0.05352(17)
H9A H 0.3087 0.3640 0.1233
H10A H 0.2710 0.3651 0.0166
O12A O -0.0858(3) 0.6800(2) 0.07367(17)
H11A H -0.0921 0.6191 0.1367
H12A H -0.1338 0.7638 0.0847
O7? O 0.718(2) 0.3404(12) 0.2035(10)
O8? O 0.920(2) 0.4356(13) 0.2927(10)
O9? O 0.860(2) 0.2107(14) 0.3727(10)
O10? O 1.128(2) 0.2250(14) 0.2444(11)
loop_
_geom_bond_atom_site_label_1
_geom_bond_atom_site_label_2
_geom_bond_site_symmetry_1
_geom_bond_site_symmetry_2
Na1 O1 1_555 1_555
O1 C1 1_555 1_555
O2 C7 1_555 1_555
N1 Na1 1_555 1_555
N2 N1 1_555 1_555
C1 H1 1_555 1_555
C2 C1 1_555 1_555
H2 C2 1_555 1_555
C3 C2 1_555 1_555
H3 C3 1_555 1_555
C4 O1 1_555 1_555
C5 N1 1_555 1_555
H4 C5 1_555 1_555
C6 N2 1_555 1_555
H5 C6 1_555 1_555
C7 C6 1_555 1_555
C8 C7 1_555 1_555
H6 C8 1_555 1_555
C9 C8 1_555 1_555
H7 C9 1_555 1_555
C10 O2 1_555 1_555
H8 C10 1_555 1_555
Cl1 O3 1_555 1_555
O3 Na1 1_555 1_555
O4 Cl1 1_555 1_555
O5 Cl1 1_555 1_555
O6 Cl1 1_555 1_555
O11 Na1 1_555 1_555
H9 O11 1_555 1_555
H10 O11 1_555 1_555
O12 Na1 1_555 1_555
H11 O12 1_555 1_555
H12 O12 1_555 1_555
Na1A O11 1_555 1_555
O1A Na1A 1_555 1_555
O2A C7A 1_555 1_555
N1A Na1A 1_555 1_555
N2A N1A 1_555 1_555
C1A O1A 1_555 1_555
H1A C1A 1_555 1_555
C2A C1A 1_555 1_555
H2A C2A 1_555 1_555
C3A C2A 1_555 1_555
H3A C3A 1_555 1_555
C4A O1A 1_555 1_555
C5A N1A 1_555 1_555
H4A C5A 1_555 1_555
C6A N2A 1_555 1_555
H5A C6A 1_555 1_555
C7A C6A 1_555 1_555
C8A C7A 1_555 1_555
H6A C8A 1_555 1_555
C9A C8A 1_555 1_555
H7A C9A 1_555 1_555
C10A O2A 1_555 1_555
H8A C10A 1_555 1_555
Cl1A O3A 1_555 1_555
O3A Na1A 1_555 1_555
O4A Cl1A 1_555 1_555
O5A Cl1A 1_555 1_555
O6A Cl1A 1_555 1_555
O11A Na1 1_555 1_555
H9A O11A 1_555 1_555
H10A O11A 1_555 1_555
O12A Na1A 1_555 1_555
H11A O12A 1_555 1_555
H12A O12A 1_555 1_555
C3 C4 1_555 1_555
C4 C5 1_555 1_555
C9 C10 1_555 1_555
Na1A O11A 1_555 1_555
C3A C4A 1_555 1_555
C4A C5A 1_555 1_555
C9A C10A 1_555 1_555

#END
