
#######################################################################
#
#                 Cambridge Crystallographic Data Centre
#                                CCDC 
#
#######################################################################
#
# If this CIF has been generated from an entry in the Cambridge 
# Structural Database, then it will include bibliographic, chemical, 
# crystal, experimental, refinement or atomic coordinate data resulting 
# from the CCDC's data processing and validation procedures.
#
#######################################################################

data_NERFEY
_chemical_name_common            
"1,1'-Dibenzyl-3,3'-bis(2,4,6-trimethylphenyl)-[6,6'-biindolylidene]-2,2'(1H,1'H)-dione diradicaloid"
_chemical_formula_moiety         'C48 H42 N2 O2'
_chemical_name_systematic        
'1-benzyl-6-[1-benzyl-2-oxo-3-(2,4,6-trimethylphenyl)-1,2-dihydro-6H-indol-6-ylidene]-3-(2,4,6-trimethylphenyl)-1,6-dihydro-2H-indol-2-one diradicaloid'
_symmetry_cell_setting           triclinic
_symmetry_space_group_name_H-M   'P -1'
_symmetry_Int_Tables_number      2
_space_group_name_Hall           '-P 1'
loop_
_symmetry_equiv_pos_site_id
_symmetry_equiv_pos_as_xyz
1 x,y,z
2 -x,-y,-z
_cell_length_a                   9.0992(12)
_cell_length_b                   14.500(2)
_cell_length_c                   14.630(2)
_cell_angle_alpha                88.140(7)
_cell_angle_beta                 72.612(7)
_cell_angle_gamma                85.485(7)
_cell_volume                     1836.25
_exptl_crystal_description       Rod
_cell_formula_units_Z            2
loop_
_atom_site_label
_atom_site_type_symbol
_atom_site_fract_x
_atom_site_fract_y
_atom_site_fract_z
O1 O 0.53890(17) 0.79509(11) 0.36255(10)
N1 N 0.72693(19) 0.88487(12) 0.26825(11)
C1 C 0.6094(2) 0.82544(14) 0.28299(14)
C2 C 0.5906(2) 0.80857(13) 0.18760(14)
C3 C 0.7015(2) 0.85483(13) 0.12210(14)
C4 C 0.7471(2) 0.86286(14) 0.01979(15)
H1 H 0.6959 0.8310 -0.0161
C5 C 0.8640(2) 0.91629(14) -0.02566(15)
H2 H 0.8958 0.9185 -0.0937
C6 C 0.9425(2) 0.97003(13) 0.02488(14)
C7 C 0.9006(2) 0.95990(14) 0.12725(14)
H3 H 0.9512 0.9919 0.1634
C8 C 0.7873(2) 0.90373(13) 0.17126(14)
C9 C 0.7759(2) 0.92436(14) 0.34334(14)
H4 H 0.6892 0.9254 0.4034
H5 H 0.7998 0.9892 0.3258
C10 C 0.9153(2) 0.87267(14) 0.36146(13)
C11 C 1.0342(3) 0.92162(17) 0.37379(17)
H6 H 1.0277 0.9873 0.3697
C12 C 1.1616(3) 0.87476(19) 0.39197(18)
H7 H 1.2417 0.9085 0.4007
C13 C 1.1726(3) 0.77896(18) 0.39738(16)
H8 H 1.2601 0.7470 0.4096
C14 C 1.0556(3) 0.73031(16) 0.38489(15)
H9 H 1.0630 0.6646 0.3885
C15 C 0.9277(2) 0.77648(15) 0.36717(15)
H10 H 0.8478 0.7423 0.3589
C16 C 0.4648(2) 0.75799(14) 0.17236(13)
C17 C 0.3498(2) 0.80667(14) 0.13946(14)
C18 C 0.2281(2) 0.75970(15) 0.12922(15)
H11 H 0.1503 0.7928 0.1076
C19 C 0.2169(2) 0.66564(15) 0.14972(14)
C20 C 0.3317(3) 0.61848(15) 0.18150(15)
H12 H 0.3260 0.5541 0.1951
C21 C 0.4550(2) 0.66273(14) 0.19400(14)
C22 C 0.3510(3) 0.90972(15) 0.11957(18)
H13 H 0.2524 0.9329 0.1102
H14 H 0.4353 0.9218 0.0616
H15 H 0.3662 0.9412 0.1740
C23 C 0.0831(3) 0.61694(17) 0.13776(17)
H16 H 0.0921 0.5519 0.1571
H17 H 0.0845 0.6205 0.0705
H18 H -0.0141 0.6468 0.1779
C24 C 0.5766(3) 0.60912(16) 0.22866(18)
H19 H 0.5563 0.5435 0.2347
H20 H 0.5744 0.6325 0.2912
H21 H 0.6785 0.6165 0.1827
O1A O 1.46110(17) 1.20491(11) -0.36255(10)
N1A N 1.27307(19) 1.11513(12) -0.26825(11)
C1A C 1.3906(2) 1.17456(14) -0.28299(14)
C2A C 1.4094(2) 1.19143(13) -0.18760(14)
C3A C 1.2985(2) 1.14517(13) -0.12210(14)
C4A C 1.2529(2) 1.13714(14) -0.01979(15)
H1A H 1.3041 1.1690 0.0161
C5A C 1.1360(2) 1.08371(14) 0.02566(15)
H2A H 1.1042 1.0815 0.0937
C6A C 1.0575(2) 1.02997(13) -0.02488(14)
C7A C 1.0994(2) 1.04010(14) -0.12725(14)
H3A H 1.0488 1.0081 -0.1634
C8A C 1.2127(2) 1.09627(13) -0.17126(14)
C9A C 1.2241(2) 1.07564(14) -0.34334(14)
H4A H 1.3108 1.0746 -0.4034
H5A H 1.2002 1.0108 -0.3258
C10A C 1.0847(2) 1.12733(14) -0.36146(13)
C11A C 0.9658(3) 1.07838(17) -0.37379(17)
H6A H 0.9723 1.0127 -0.3697
C12A C 0.8384(3) 1.12524(19) -0.39197(18)
H7A H 0.7583 1.0915 -0.4007
C13A C 0.8274(3) 1.22104(18) -0.39738(16)
H8A H 0.7399 1.2530 -0.4096
C14A C 0.9444(3) 1.26969(16) -0.38489(15)
H9A H 0.9370 1.3354 -0.3885
C15A C 1.0723(2) 1.22352(15) -0.36717(15)
H10A H 1.1522 1.2577 -0.3589
C16A C 1.5352(2) 1.24201(14) -0.17236(13)
C17A C 1.6502(2) 1.19333(14) -0.13946(14)
C18A C 1.7719(2) 1.24030(15) -0.12922(15)
H11A H 1.8497 1.2072 -0.1076
C19A C 1.7831(2) 1.33436(15) -0.14972(14)
C20A C 1.6683(3) 1.38152(15) -0.18150(15)
H12A H 1.6740 1.4459 -0.1951
C21A C 1.5450(2) 1.33727(14) -0.19400(14)
C22A C 1.6490(3) 1.09028(15) -0.11957(18)
H13A H 1.7476 1.0671 -0.1102
H14A H 1.5647 1.0782 -0.0616
H15A H 1.6338 1.0588 -0.1740
C23A C 1.9169(3) 1.38306(17) -0.13776(17)
H16A H 1.9079 1.4481 -0.1571
H17A H 1.9155 1.3795 -0.0705
H18A H 2.0141 1.3532 -0.1779
C24A C 1.4234(3) 1.39088(16) -0.22866(18)
H19A H 1.4437 1.4565 -0.2347
H20A H 1.4256 1.3675 -0.2912
H21A H 1.3215 1.3835 -0.1827
O2 O 0.03070(17) 0.83405(10) 0.73033(11)
N2 N 0.24390(19) 0.75104(12) 0.63255(12)
C25 C 0.0955(2) 0.76011(14) 0.69542(15)
C26 C 0.0357(2) 0.66617(15) 0.70801(14)
C27 C 0.1523(2) 0.60679(14) 0.65496(14)
C28 C 0.1658(2) 0.50941(14) 0.63815(14)
H22 H 0.0821 0.4727 0.6676
C29 C 0.3002(2) 0.47018(14) 0.57937(14)
H23 H 0.3085 0.4052 0.5699
C30 C 0.4314(2) 0.52217(13) 0.53050(13)
C31 C 0.4167(2) 0.62048(14) 0.54649(14)
H24 H 0.4989 0.6578 0.5154
C32 C 0.2836(2) 0.65886(13) 0.60680(14)
C33 C 0.3399(2) 0.82786(14) 0.59605(15)
H25 H 0.2721 0.8847 0.5962
H26 H 0.4012 0.8152 0.5288
C34 C 0.4481(2) 0.84478(13) 0.65300(15)
C35 C 0.6068(3) 0.84728(15) 0.60710(17)
H27 H 0.6454 0.8381 0.5399
C36 C 0.7082(3) 0.86294(16) 0.6583(2)
H28 H 0.8154 0.8646 0.6261
C37 C 0.6539(3) 0.87609(16) 0.7562(2)
H29 H 0.7233 0.8861 0.7916
C38 C 0.4969(3) 0.87453(17) 0.80212(19)
H30 H 0.4589 0.8843 0.8693
C39 C 0.3942(3) 0.85891(16) 0.75117(16)
H31 H 0.2870 0.8579 0.7837
C40 C -0.1268(2) 0.64916(13) 0.76025(14)
C41 C -0.2293(2) 0.63621(14) 0.70761(14)
C42 C -0.3852(2) 0.62883(14) 0.75541(15)
H32 H -0.4544 0.6210 0.7193
C43 C -0.4421(3) 0.63264(15) 0.85463(16)
C44 C -0.3377(3) 0.64233(16) 0.90604(15)
H33 H -0.3744 0.6428 0.9740
C45 C -0.1811(3) 0.65129(15) 0.86097(15)
C46 C -0.1745(3) 0.63076(17) 0.59982(15)
H34 H -0.1149 0.5716 0.5806
H35 H -0.1091 0.6817 0.5737
H36 H -0.2639 0.6354 0.5752
C47 C -0.6128(3) 0.6255(2) 0.90440(19)
H37 H -0.6673 0.6214 0.8563
H38 H -0.6542 0.6805 0.9437
H39 H -0.6272 0.5701 0.9454
C48 C -0.0696(3) 0.65883(18) 0.91800(16)
H40 H -0.1263 0.6609 0.9864
H41 H -0.0154 0.7154 0.8992
H42 H 0.0056 0.6050 0.9054
O2A O 0.96930(17) 0.16595(10) 0.26967(11)
N2A N 0.75610(19) 0.24896(12) 0.36745(12)
C25A C 0.9045(2) 0.23989(14) 0.30458(15)
C26A C 0.9643(2) 0.33383(15) 0.29199(14)
C27A C 0.8477(2) 0.39321(14) 0.34504(14)
C28A C 0.8342(2) 0.49059(14) 0.36185(14)
H22A H 0.9179 0.5273 0.3324
C29A C 0.6998(2) 0.52982(14) 0.42063(14)
H23A H 0.6915 0.5948 0.4301
C30A C 0.5686(2) 0.47783(13) 0.46950(13)
C31A C 0.5833(2) 0.37952(14) 0.45351(14)
H24A H 0.5011 0.3422 0.4846
C32A C 0.7164(2) 0.34114(13) 0.39320(14)
C33A C 0.6601(2) 0.17214(14) 0.40395(15)
H25A H 0.7279 0.1153 0.4038
H26A H 0.5988 0.1848 0.4712
C34A C 0.5519(2) 0.15522(13) 0.34700(15)
C35A C 0.3932(3) 0.15272(15) 0.39290(17)
H27A H 0.3546 0.1619 0.4601
C36A C 0.2918(3) 0.13706(16) 0.3417(2)
H28A H 0.1846 0.1354 0.3739
C37A C 0.3461(3) 0.12391(16) 0.2438(2)
H29A H 0.2767 0.1139 0.2084
C38A C 0.5031(3) 0.12547(17) 0.19788(19)
H30A H 0.5411 0.1157 0.1307
C39A C 0.6058(3) 0.14109(16) 0.24883(16)
H31A H 0.7130 0.1421 0.2163
C40A C 1.1268(2) 0.35084(13) 0.23975(14)
C41A C 1.2293(2) 0.36379(14) 0.29239(14)
C42A C 1.3852(2) 0.37117(14) 0.24459(15)
H32A H 1.4544 0.3790 0.2807
C43A C 1.4421(3) 0.36736(15) 0.14537(16)
C44A C 1.3377(3) 0.35767(16) 0.09396(15)
H33A H 1.3744 0.3572 0.0260
C45A C 1.1811(3) 0.34871(15) 0.13903(15)
C46A C 1.1745(3) 0.36924(17) 0.40018(15)
H34A H 1.1149 0.4284 0.4194
H35A H 1.1091 0.3183 0.4263
H36A H 1.2639 0.3646 0.4248
C47A C 1.6128(3) 0.3745(2) 0.09560(19)
H37A H 1.6673 0.3786 0.1437
H38A H 1.6542 0.3195 0.0563
H39A H 1.6272 0.4299 0.0546
C48A C 1.0696(3) 0.34117(18) 0.08200(16)
H40A H 1.1263 0.3391 0.0136
H41A H 1.0154 0.2846 0.1008
H42A H 0.9944 0.3950 0.0946
loop_
_geom_bond_atom_site_label_1
_geom_bond_atom_site_label_2
_geom_bond_site_symmetry_1
_geom_bond_site_symmetry_2
O1 C1 1_555 1_555
N1 C1 1_555 1_555
C1 C2 1_555 1_555
C2 C3 1_555 1_555
C3 C4 1_555 1_555
C4 H1 1_555 1_555
C5 C4 1_555 1_555
H2 C5 1_555 1_555
C6 C5 1_555 1_555
C7 C6 1_555 1_555
H3 C7 1_555 1_555
C8 N1 1_555 1_555
C9 N1 1_555 1_555
H4 C9 1_555 1_555
H5 C9 1_555 1_555
C10 C9 1_555 1_555
C11 C10 1_555 1_555
H6 C11 1_555 1_555
C12 C11 1_555 1_555
H7 C12 1_555 1_555
C13 C12 1_555 1_555
H8 C13 1_555 1_555
C14 C13 1_555 1_555
H9 C14 1_555 1_555
C15 C10 1_555 1_555
H10 C15 1_555 1_555
C16 C2 1_555 1_555
C17 C16 1_555 1_555
C18 C17 1_555 1_555
H11 C18 1_555 1_555
C19 C18 1_555 1_555
C20 C19 1_555 1_555
H12 C20 1_555 1_555
C21 C16 1_555 1_555
C22 C17 1_555 1_555
H13 C22 1_555 1_555
H14 C22 1_555 1_555
H15 C22 1_555 1_555
C23 C19 1_555 1_555
H16 C23 1_555 1_555
H17 C23 1_555 1_555
H18 C23 1_555 1_555
C24 C21 1_555 1_555
H19 C24 1_555 1_555
H20 C24 1_555 1_555
H21 C24 1_555 1_555
O2 C25 1_555 1_555
N2 C25 1_555 1_555
C25 C26 1_555 1_555
C26 C27 1_555 1_555
C27 C28 1_555 1_555
C28 H22 1_555 1_555
C29 C28 1_555 1_555
H23 C29 1_555 1_555
C30 C29 1_555 1_555
C31 C30 1_555 1_555
H24 C31 1_555 1_555
C32 N2 1_555 1_555
C33 N2 1_555 1_555
H25 C33 1_555 1_555
H26 C33 1_555 1_555
C34 C33 1_555 1_555
C35 C34 1_555 1_555
H27 C35 1_555 1_555
C36 C35 1_555 1_555
H28 C36 1_555 1_555
C37 C36 1_555 1_555
H29 C37 1_555 1_555
C38 C37 1_555 1_555
H30 C38 1_555 1_555
C39 C34 1_555 1_555
H31 C39 1_555 1_555
C40 C26 1_555 1_555
C41 C40 1_555 1_555
C42 C41 1_555 1_555
H32 C42 1_555 1_555
C43 C42 1_555 1_555
C44 C43 1_555 1_555
H33 C44 1_555 1_555
C45 C40 1_555 1_555
C46 C41 1_555 1_555
H34 C46 1_555 1_555
H35 C46 1_555 1_555
H36 C46 1_555 1_555
C47 C43 1_555 1_555
H37 C47 1_555 1_555
H38 C47 1_555 1_555
H39 C47 1_555 1_555
C48 C45 1_555 1_555
H40 C48 1_555 1_555
H41 C48 1_555 1_555
H42 C48 1_555 1_555
O1A C1A 1_555 1_555
N1A C1A 1_555 1_555
C1A C2A 1_555 1_555
C2A C3A 1_555 1_555
C3A C4A 1_555 1_555
C4A H1A 1_555 1_555
C5A C4A 1_555 1_555
H2A C5A 1_555 1_555
C6A C6 1_555 1_555
C7A C6A 1_555 1_555
H3A C7A 1_555 1_555
C8A N1A 1_555 1_555
C9A N1A 1_555 1_555
H4A C9A 1_555 1_555
H5A C9A 1_555 1_555
C10A C9A 1_555 1_555
C11A C10A 1_555 1_555
H6A C11A 1_555 1_555
C12A C11A 1_555 1_555
H7A C12A 1_555 1_555
C13A C12A 1_555 1_555
H8A C13A 1_555 1_555
C14A C13A 1_555 1_555
H9A C14A 1_555 1_555
C15A C10A 1_555 1_555
H10A C15A 1_555 1_555
C16A C2A 1_555 1_555
C17A C16A 1_555 1_555
C18A C17A 1_555 1_555
H11A C18A 1_555 1_555
C19A C18A 1_555 1_555
C20A C19A 1_555 1_555
H12A C20A 1_555 1_555
C21A C16A 1_555 1_555
C22A C17A 1_555 1_555
H13A C22A 1_555 1_555
H14A C22A 1_555 1_555
H15A C22A 1_555 1_555
C23A C19A 1_555 1_555
H16A C23A 1_555 1_555
H17A C23A 1_555 1_555
H18A C23A 1_555 1_555
C24A C21A 1_555 1_555
H19A C24A 1_555 1_555
H20A C24A 1_555 1_555
H21A C24A 1_555 1_555
O2A C25A 1_555 1_555
N2A C25A 1_555 1_555
C25A C26A 1_555 1_555
C26A C27A 1_555 1_555
C27A C28A 1_555 1_555
C28A H22A 1_555 1_555
C29A C28A 1_555 1_555
H23A C29A 1_555 1_555
C30A C30 1_555 1_555
C31A C30A 1_555 1_555
H24A C31A 1_555 1_555
C32A N2A 1_555 1_555
C33A N2A 1_555 1_555
H25A C33A 1_555 1_555
H26A C33A 1_555 1_555
C34A C33A 1_555 1_555
C35A C34A 1_555 1_555
H27A C35A 1_555 1_555
C36A C35A 1_555 1_555
H28A C36A 1_555 1_555
C37A C36A 1_555 1_555
H29A C37A 1_555 1_555
C38A C37A 1_555 1_555
H30A C38A 1_555 1_555
C39A C34A 1_555 1_555
H31A C39A 1_555 1_555
C40A C26A 1_555 1_555
C41A C40A 1_555 1_555
C42A C41A 1_555 1_555
H32A C42A 1_555 1_555
C43A C42A 1_555 1_555
C44A C43A 1_555 1_555
H33A C44A 1_555 1_555
C45A C40A 1_555 1_555
C46A C41A 1_555 1_555
H34A C46A 1_555 1_555
H35A C46A 1_555 1_555
H36A C46A 1_555 1_555
C47A C43A 1_555 1_555
H37A C47A 1_555 1_555
H38A C47A 1_555 1_555
H39A C47A 1_555 1_555
C48A C45A 1_555 1_555
H40A C48A 1_555 1_555
H41A C48A 1_555 1_555
H42A C48A 1_555 1_555
C3 C8 1_555 1_555
C7 C8 1_555 1_555
C14 C15 1_555 1_555
C20 C21 1_555 1_555
C27 C32 1_555 1_555
C31 C32 1_555 1_555
C38 C39 1_555 1_555
C44 C45 1_555 1_555
C3A C8A 1_555 1_555
C5A C6A 1_555 1_555
C7A C8A 1_555 1_555
C14A C15A 1_555 1_555
C20A C21A 1_555 1_555
C27A C32A 1_555 1_555
C29A C30A 1_555 1_555
C31A C32A 1_555 1_555
C38A C39A 1_555 1_555
C44A C45A 1_555 1_555

#END
