
#######################################################################
#
#                 Cambridge Crystallographic Data Centre
#                                CCDC 
#
#######################################################################
#
# If this CIF has been generated from an entry in the Cambridge 
# Structural Database, then it will include bibliographic, chemical, 
# crystal, experimental, refinement or atomic coordinate data resulting 
# from the CCDC's data processing and validation procedures.
#
#######################################################################

data_NERGUN
_chemical_formula_moiety         'C27 H32 N1 O3 S3 1+,Cl1 O4 1-'
_chemical_name_systematic        
'3-Ethyl-2-((1E,3E)-4-(2,3,5,6,8,9,11,12-octahydro-1,7,13,4,10-benzotrioxadithiacyclopentadecin-15-yl)-1,3-butadienyl)-1,3-benzothiazolium perchlorate'
_symmetry_cell_setting           monoclinic
_symmetry_space_group_name_H-M   'P 21/a'
_symmetry_Int_Tables_number      14
_space_group_name_Hall           '-P 2yab'
loop_
_symmetry_equiv_pos_site_id
_symmetry_equiv_pos_as_xyz
1 x,y,z
2 1/2-x,1/2+y,-z
3 -x,-y,-z
4 1/2+x,1/2-y,z
_cell_length_a                   14.6336(8)
_cell_length_b                   10.6202(6)
_cell_length_c                   18.5711(10)
_cell_angle_alpha                90
_cell_angle_beta                 94.284(3)
_cell_angle_gamma                90
_cell_volume                     2878.1
_cell_formula_units_Z            4
_exptl_crystal_recrystallization_method benzene/acetonitrile
loop_
_atom_site_label
_atom_site_type_symbol
_atom_site_fract_x
_atom_site_fract_y
_atom_site_fract_z
Cl1 Cl 0.17271(10) 0.13770(11) -0.14427(9)
O1 O 0.1522(4) 0.0528(4) -0.0881(3)
O2 O 0.2722(7) 0.1448(12) -0.1542(6)
O3 O 0.1261(10) 0.1020(11) -0.2098(6)
O4 O 0.1447(8) 0.2576(8) -0.1228(7)
S1 S -0.02035(12) -0.84620(14) 0.45651(8)
S2 S -0.21743(10) -0.29857(14) -0.21170(8)
O8 O 0.0310(4) -0.5325(4) 0.2759(2)
O9 O 0.0154(2) -0.7722(3) 0.29344(18)
N1 N -0.1961(3) -0.0853(4) -0.1497(2)
C1 C 0.0633(10) -0.4112(10) 0.2726(5)
H1 H 0.0111 -0.3528 0.2629
H2 H 0.1036 -0.4041 0.2322
C2 C 0.1171(12) -0.3732(12) 0.3432(7)
H3 H 0.0858 -0.4075 0.3844
H4 H 0.1172 -0.2802 0.3473
S3 S 0.2346(3) -0.4288(4) 0.34906(17)
C3 C 0.2643(9) -0.4338(15) 0.4445(6)
H5 H 0.3309 -0.4183 0.4529
H6 H 0.2324 -0.3637 0.4673
C4 C 0.2427(6) -0.5501(14) 0.4812(5)
H7 H 0.2703 -0.6230 0.4576
H8 H 0.2673 -0.5473 0.5323
O10 O 0.1448(7) -0.5618(10) 0.4768(6)
C5 C 0.1168(7) -0.6855(12) 0.4836(6)
H9 H 0.1208 -0.7118 0.5349
H10 H 0.1546 -0.7430 0.4562
C11 C 0.0155(4) -0.6848(5) 0.4514(3)
C12 C 0.0378(5) -0.9247(6) 0.3859(3)
H21 H 0.1028 -0.8978 0.3898
H22 H 0.0367 -1.0165 0.3951
C13 C -0.0007(4) -0.9016(5) 0.3098(3)
H23 H 0.0298 -0.9568 0.2759
H24 H -0.0672 -0.9197 0.3052
C14 C -0.0167(3) -0.7281(4) 0.2278(3)
C15 C -0.0084(4) -0.5970(5) 0.2172(3)
C16 C -0.0393(4) -0.5436(5) 0.1530(3)
H25 H -0.0336 -0.4552 0.1466
C17 C -0.0800(4) -0.6188(5) 0.0950(3)
C18 C -0.0877(4) -0.7472(5) 0.1067(3)
H26 H -0.1154 -0.7989 0.0694
C19 C -0.0555(4) -0.8022(5) 0.1722(3)
H27 H -0.0602 -0.8907 0.1785
C20 C -0.1148(4) -0.5634(6) 0.0272(3)
H28 H -0.1428 -0.6187 -0.0081
C21 C -0.1111(4) -0.4396(7) 0.0096(4)
H29 H -0.0825 -0.3837 0.0443
C22 C -0.1471(4) -0.3877(6) -0.0576(4)
H30 H -0.1715 -0.4429 -0.0944
C23 C -0.1475(4) -0.2611(6) -0.0704(3)
H31 H -0.1228 -0.2063 -0.0335
C24 C -0.1841(4) -0.2080(5) -0.1375(3)
C25 C -0.2344(4) -0.0571(6) -0.2200(3)
C26 C -0.2522(6) 0.0608(7) -0.2477(4)
H32 H -0.2369 0.1347 -0.2206
C27 C -0.2938(8) 0.0670(10) -0.3175(5)
H33 H -0.3105 0.1465 -0.3379
C28 C -0.3113(7) -0.0424(10) -0.3578(4)
H34 H -0.3377 -0.0348 -0.4059
C29 C -0.2921(4) -0.1597(8) -0.3310(3)
H35 H -0.3061 -0.2336 -0.3584
C30 C -0.2506(4) -0.1651(6) -0.2608(3)
C31 C -0.1752(4) 0.0149(6) -0.0950(3)
H36 H -0.1790 -0.0213 -0.0462
H37 H -0.2221 0.0819 -0.1015
C32 C -0.0822(5) 0.0723(6) -0.0997(5)
H38 H -0.0721 0.1370 -0.0623
H39 H -0.0785 0.1106 -0.1474
H40 H -0.0352 0.0068 -0.0924
O5? O 0.0937(10) 0.2246(12) -0.1634(8)
O6? O 0.2488(14) 0.2083(17) -0.1219(14)
O7? O 0.1843(17) 0.0656(14) -0.2053(12)
C6? C -0.0051(9) -0.3893(9) 0.2630(6)
H11? H 0.0285 -0.3464 0.2257
H12? H -0.0715 -0.3873 0.2485
C7? C 0.0159(9) -0.3296(11) 0.3371(7)
H13? H 0.0041 -0.3935 0.3741
H14? H -0.0281 -0.2600 0.3422
S4? S 0.1293(3) -0.2684(4) 0.3575(2)
C8? C 0.1876(12) -0.390(5) 0.3629(14)
H15? H 0.1579 -0.4495 0.3273
H16? H 0.2475 -0.3679 0.3448
C9? C 0.2102(9) -0.4692(15) 0.4350(7)
H17? H 0.2509 -0.5405 0.4250
H18? H 0.2426 -0.4150 0.4720
O11? O 0.1299(11) -0.5149(11) 0.4611(7)
C10? C 0.1166(10) -0.6457(14) 0.4453(10)
H19? H 0.1567 -0.6964 0.4793
H20? H 0.1341 -0.6631 0.3958
loop_
_geom_bond_atom_site_label_1
_geom_bond_atom_site_label_2
_geom_bond_site_symmetry_1
_geom_bond_site_symmetry_2
Cl1 O1 1_555 1_555
O2 Cl1 1_555 1_555
O3 Cl1 1_555 1_555
O4 Cl1 1_555 1_555
S1 C11 1_555 1_555
S2 C24 1_555 1_555
O8 C1 1_555 1_555
O9 C13 1_555 1_555
N1 C24 1_555 1_555
C1 H1 1_555 1_555
H2 C1 1_555 1_555
C2 C1 1_555 1_555
H3 C2 1_555 1_555
H4 C2 1_555 1_555
S3 C2 1_555 1_555
C3 S3 1_555 1_555
H5 C3 1_555 1_555
H6 C3 1_555 1_555
C4 C3 1_555 1_555
H7 C4 1_555 1_555
H8 C4 1_555 1_555
O10 C4 1_555 1_555
C5 O10 1_555 1_555
H9 C5 1_555 1_555
H10 C5 1_555 1_555
C11 C5 1_555 1_555
C12 S1 1_555 1_555
H21 C12 1_555 1_555
H22 C12 1_555 1_555
C13 C12 1_555 1_555
H23 C13 1_555 1_555
H24 C13 1_555 1_555
C14 O9 1_555 1_555
C15 O8 1_555 1_555
C16 C15 1_555 1_555
H25 C16 1_555 1_555
C17 C16 1_555 1_555
C18 C17 1_555 1_555
H26 C18 1_555 1_555
C19 C14 1_555 1_555
H27 C19 1_555 1_555
C20 C17 1_555 1_555
H28 C20 1_555 1_555
C21 C20 1_555 1_555
H29 C21 1_555 1_555
C22 C21 1_555 1_555
H30 C22 1_555 1_555
C23 C22 1_555 1_555
H31 C23 1_555 1_555
C24 C23 1_555 1_555
C25 N1 1_555 1_555
C26 C25 1_555 1_555
H32 C26 1_555 1_555
C27 C26 1_555 1_555
H33 C27 1_555 1_555
C28 C27 1_555 1_555
H34 C28 1_555 1_555
C29 C28 1_555 1_555
H35 C29 1_555 1_555
C30 S2 1_555 1_555
C31 N1 1_555 1_555
H36 C31 1_555 1_555
H37 C31 1_555 1_555
C32 C31 1_555 1_555
H38 C32 1_555 1_555
H39 C32 1_555 1_555
H40 C32 1_555 1_555
C14 C15 1_555 1_555
C18 C19 1_555 1_555
C25 C30 1_555 1_555
C29 C30 1_555 1_555

#END
