
#######################################################################
#
#                 Cambridge Crystallographic Data Centre
#                                CCDC 
#
#######################################################################
#
# If this CIF has been generated from an entry in the Cambridge 
# Structural Database, then it will include bibliographic, chemical, 
# crystal, experimental, refinement or atomic coordinate data resulting 
# from the CCDC's data processing and validation procedures.
#
#######################################################################

data_NERGUN01
_chemical_formula_moiety         'C27 H32 N1 O3 S3 1+,Cl1 O4 1-'
_chemical_name_systematic        
'3-Ethyl-2-(4-(2,3,5,6,8,9,11,12-octahydro-1,7,13,4,10-benzotrioxadithiacyclopentadecin-15-yl)buta-1,3-dien-1-yl)-1,3-benzothiazol-3-ium perchlorate'
_symmetry_cell_setting           monoclinic
_symmetry_space_group_name_H-M   'P 21/c'
_symmetry_Int_Tables_number      14
_space_group_name_Hall           '-P 2ybc'
loop_
_symmetry_equiv_pos_site_id
_symmetry_equiv_pos_as_xyz
1 x,y,z
2 -x,1/2+y,1/2-z
3 -x,-y,-z
4 x,1/2-y,1/2+z
_cell_length_a                   18.5711(10)
_cell_length_b                   10.6202(6)
_cell_length_c                   14.6336(8)
_cell_angle_alpha                90
_cell_angle_beta                 94.284(3)
_cell_angle_gamma                90
_cell_volume                     2878.1
_exptl_crystal_colour            red
_exptl_crystal_description       block
_cell_formula_units_Z            4
loop_
_atom_site_label
_atom_site_type_symbol
_atom_site_fract_x
_atom_site_fract_y
_atom_site_fract_z
Cl1 Cl 0.14425(9) 0.13770(11) 0.32728(10)
O1 O 0.0883(3) 0.0525(4) 0.3475(4)
O2 O 0.1544(5) 0.1464(10) 0.2276(6)
O3 O 0.2100(5) 0.1014(10) 0.3730(9)
O4 O 0.1234(7) 0.2572(8) 0.3559(7)
S1 S -0.21166(8) 0.29851(14) 0.28256(10)
S2 S 0.45646(7) 0.84636(14) 0.47965(12)
O5 O 0.2759(2) 0.5322(4) 0.5305(4)
O6 O 0.29340(17) 0.7723(3) 0.5154(2)
N1 N -0.1498(2) 0.0852(4) 0.3038(3)
C1 C -0.2607(3) 0.1652(6) 0.2496(4)
C2 C -0.3312(3) 0.1595(8) 0.2078(4)
H1 H -0.3587 0.2333 0.1938
C3 C -0.3580(4) 0.0421(9) 0.1886(6)
H2 H -0.4061 0.0345 0.1620
C4 C -0.3181(5) -0.0661(9) 0.2062(7)
H3 H -0.3388 -0.1456 0.1898
C5 C -0.2474(4) -0.0608(7) 0.2480(5)
H4 H -0.2202 -0.1347 0.2629
C6 C -0.2201(3) 0.0573(6) 0.2659(4)
C7 C -0.0949(3) -0.0150(5) 0.3249(4)
H5 H -0.0461 0.0213 0.3209
H6 H -0.1014 -0.0822 0.2781
C8 C -0.0994(4) -0.0720(6) 0.4177(5)
H7 H -0.0623 -0.1372 0.4276
H8 H -0.1473 -0.1096 0.4218
H9 H -0.0917 -0.0065 0.4646
C9 C -0.1375(3) 0.2080(5) 0.3158(3)
C10 C -0.0703(3) 0.2608(6) 0.3523(4)
H10 H -0.0334 0.2057 0.3768
C11 C -0.0573(4) 0.3876(6) 0.3533(4)
H11 H -0.0944 0.4428 0.3294
C12 C 0.0096(4) 0.4395(7) 0.3887(4)
H12 H 0.0444 0.3835 0.4168
C13 C 0.0274(3) 0.5631(6) 0.3853(4)
H13 H -0.0080 0.6185 0.3575
C14 C 0.0951(3) 0.6187(5) 0.4200(4)
C15 C 0.1066(3) 0.7473(5) 0.4124(4)
H14 H 0.0693 0.7989 0.3846
C16 C 0.1720(3) 0.8025(5) 0.4447(4)
H15 H 0.1784 0.8910 0.4401
C17 C 0.2277(3) 0.7283(4) 0.4837(3)
C18 C 0.2172(3) 0.5970(5) 0.4914(4)
C19 C 0.1529(3) 0.5436(5) 0.4607(4)
H16 H 0.1465 0.4553 0.4666
C20 C 0.3096(3) 0.9017(5) 0.4994(4)
H17 H 0.2757 0.9568 0.5299
H18 H 0.3051 0.9200 0.4329
C21 C 0.3860(3) 0.9247(6) 0.5382(5)
H19 H 0.3899 0.8974 0.6031
H20 H 0.3952 1.0165 0.5375
C22 C 0.4519(3) 0.6856(5) 0.5160(3)
H21 H 0.4013 0.6555 0.5124
H22 H 0.4805 0.6304 0.4779
C23 C 0.4842(6) 0.6878(11) 0.6159(6)
H23 H 0.5356 0.7136 0.6193
H24 H 0.4572 0.7464 0.6534
O7 O 0.4771(6) 0.5633(9) 0.6456(6)
C24 C 0.4819(5) 0.5524(11) 0.7423(6)
H25 H 0.4584 0.6253 0.7698
H26 H 0.5332 0.5499 0.7663
C25 C 0.4443(5) 0.4318(12) 0.7657(8)
H27 H 0.4528 0.4169 0.8325
H28 H 0.4666 0.3612 0.7339
S3 S 0.34845(19) 0.4299(4) 0.7358(3)
C26 C 0.3432(6) 0.3731(11) 0.6190(9)
H29 H 0.3839 0.4086 0.5874
H30 H 0.3484 0.2803 0.6196
C27 C 0.2725(5) 0.4079(10) 0.5653(9)
H31 H 0.2629 0.3482 0.5139
H32 H 0.2323 0.4016 0.6058
C28? C 0.2637(5) 0.3930(9) 0.4978(9)
C29? C 0.4474(9) 0.6462(12) 0.6168(8)
C30? C 0.4366(7) 0.4695(14) 0.7124(8)
C31? C 0.3632(9) 0.4065(17) 0.6979(14)
C32? C 0.3372(6) 0.3298(11) 0.5166(8)
H33? H 0.2266 0.3513 0.5326
H34? H 0.2480 0.3900 0.4316
H35? H 0.4825 0.6961 0.6560
H36? H 0.3984 0.6650 0.6357
H37? H 0.4334 0.5400 0.7562
H38? H 0.4719 0.4079 0.7401
H39? H 0.3287 0.4689 0.6696
H40? H 0.3467 0.3852 0.7588
H41? H 0.3750 0.3917 0.5038
H42? H 0.3404 0.2596 0.4726
O8? O 0.1634(7) 0.2231(11) 0.4072(9)
O9? O 0.2041(12) 0.0642(13) 0.3140(15)
O10? O 0.1209(11) 0.2102(15) 0.2525(12)
O11? O 0.4621(7) 0.5162(10) 0.6302(8)
S4? S 0.3575(2) 0.2688(3) 0.6299(3)
loop_
_geom_bond_atom_site_label_1
_geom_bond_atom_site_label_2
_geom_bond_site_symmetry_1
_geom_bond_site_symmetry_2
Cl1 O1 1_555 1_555
O2 Cl1 1_555 1_555
O3 Cl1 1_555 1_555
O4 Cl1 1_555 1_555
S1 C1 1_555 1_555
S2 C21 1_555 1_555
O5 C18 1_555 1_555
O6 C17 1_555 1_555
N1 C6 1_555 1_555
C1 C2 1_555 1_555
C2 H1 1_555 1_555
C3 C2 1_555 1_555
H2 C3 1_555 1_555
C4 C3 1_555 1_555
H3 C4 1_555 1_555
C5 C4 1_555 1_555
H4 C5 1_555 1_555
C6 C1 1_555 1_555
C7 N1 1_555 1_555
H5 C7 1_555 1_555
H6 C7 1_555 1_555
C8 C7 1_555 1_555
H7 C8 1_555 1_555
H8 C8 1_555 1_555
H9 C8 1_555 1_555
C9 S1 1_555 1_555
C10 C9 1_555 1_555
H10 C10 1_555 1_555
C11 C10 1_555 1_555
H11 C11 1_555 1_555
C12 C11 1_555 1_555
H12 C12 1_555 1_555
C13 C12 1_555 1_555
H13 C13 1_555 1_555
C14 C13 1_555 1_555
C15 C14 1_555 1_555
H14 C15 1_555 1_555
C16 C15 1_555 1_555
H15 C16 1_555 1_555
C17 C16 1_555 1_555
C18 C17 1_555 1_555
C19 C14 1_555 1_555
H16 C19 1_555 1_555
C20 O6 1_555 1_555
H17 C20 1_555 1_555
H18 C20 1_555 1_555
C21 C20 1_555 1_555
H19 C21 1_555 1_555
H20 C21 1_555 1_555
C22 S2 1_555 1_555
H21 C22 1_555 1_555
H22 C22 1_555 1_555
C23 C22 1_555 1_555
H23 C23 1_555 1_555
H24 C23 1_555 1_555
O7 C23 1_555 1_555
C24 O7 1_555 1_555
H25 C24 1_555 1_555
H26 C24 1_555 1_555
C25 C24 1_555 1_555
H27 C25 1_555 1_555
H28 C25 1_555 1_555
S3 C25 1_555 1_555
C26 S3 1_555 1_555
H29 C26 1_555 1_555
H30 C26 1_555 1_555
C27 O5 1_555 1_555
H31 C27 1_555 1_555
H32 C27 1_555 1_555
N1 C9 1_555 1_555
C5 C6 1_555 1_555
C18 C19 1_555 1_555
C26 C27 1_555 1_555

#END
