
#######################################################################
#
#                 Cambridge Crystallographic Data Centre
#                                CCDC 
#
#######################################################################
#
# If this CIF has been generated from an entry in the Cambridge 
# Structural Database, then it will include bibliographic, chemical, 
# crystal, experimental, refinement or atomic coordinate data resulting 
# from the CCDC's data processing and validation procedures.
#
#######################################################################

data_NERHEA
_chemical_formula_moiety         'C44 H16 F14 N4 S4,2(C4 H8 O1)'
_chemical_name_systematic        
"2,9-bis(heptafluoropropyl)-4,7,11,14-tetrakis(thiophen-3-yl)benzo[1,2,3-gh:4,5,6-g'h']diperimidine tetrahydrofuran solvate"
_symmetry_cell_setting           monoclinic
_symmetry_space_group_name_H-M   'P 21/c'
_symmetry_Int_Tables_number      14
_space_group_name_Hall           '-P 2ybc'
loop_
_symmetry_equiv_pos_site_id
_symmetry_equiv_pos_as_xyz
1 x,y,z
2 -x,1/2+y,1/2-z
3 -x,-y,-z
4 x,1/2-y,1/2+z
_cell_length_a                   16.1364(3)
_cell_length_b                   5.19816(7)
_cell_length_c                   26.6969(5)
_cell_angle_alpha                90
_cell_angle_beta                 98.5684(17)
_cell_angle_gamma                90
_cell_volume                     2214.33
_exptl_crystal_colour            red
_exptl_crystal_description       needle
_cell_formula_units_Z            2
loop_
_atom_site_label
_atom_site_type_symbol
_atom_site_fract_x
_atom_site_fract_y
_atom_site_fract_z
F1 F 0.37735(7) 0.5560(2) 0.39318(5)
F2 F 0.42648(7) 0.9348(3) 0.41599(4)
F3 F 0.30898(8) 0.7205(3) 0.30385(5)
F4 F 0.32770(9) 1.1220(3) 0.32520(5)
F5 F 0.48539(10) 0.6661(3) 0.32552(6)
F6 F 0.43381(9) 0.9085(3) 0.26389(5)
F7 F 0.49233(9) 1.0750(3) 0.33332(6)
N1 N 0.21663(10) 0.7164(3) 0.39332(6)
N2 N 0.28378(10) 1.0630(3) 0.44283(6)
C1 C 0.14590(11) 0.7533(4) 0.41346(7)
C2 C 0.07265(11) 0.5956(4) 0.39698(7)
C3 C 0.00487(11) 0.6264(4) 0.42183(7)
H1 H -0.042276 0.517991 0.412393
C4 C -0.00052(11) 1.1890(4) 0.53898(7)
C5 C 0.07057(11) 0.9735(4) 0.47551(7)
C6 C 0.14265(11) 0.9436(4) 0.45142(7)
C7 C 0.21462(11) 1.0995(4) 0.46481(7)
C8 C 0.21471(11) 1.2955(4) 0.50358(7)
C9 C 0.14463(11) 1.3161(4) 0.52660(7)
H2 H 0.144902 1.440681 0.552653
C10 C 0.07129(11) 1.1625(4) 0.51399(7)
C11 C 0.28023(12) 0.8696(4) 0.41035(7)
C12 C 0.36117(12) 0.8102(4) 0.38918(7)
C13 C 0.35939(12) 0.8834(4) 0.33295(8)
C14 C 0.44512(13) 0.8819(5) 0.31376(8)
C15 C 0.06910(12) 0.4061(4) 0.35549(7)
C16 C 0.13579(12) 0.2972(4) 0.33672(7)
H3 H 0.192622 0.340075 0.348396
C17 C -0.00837(12) 0.3066(4) 0.32985(7)
H4 H -0.061670 0.359382 0.337124
C18 C 0.28768(12) 1.4620(4) 0.52047(7)
C19 C 0.36895(12) 1.4206(4) 0.51258(8)
H5 H 0.385646 1.280996 0.493415
C20 C 0.28228(12) 1.6879(4) 0.55047(7)
H6 H 0.231308 1.749487 0.559823
S1 S 0.10558(4) 0.07709(11) 0.29026(2)
C21 C 0.0019(3) 0.1311(9) 0.29447(18)
H7 H -0.043105 0.046176 0.274029
S2 S 0.43618(3) 1.64701(12) 0.54093(2)
C22 C 0.3563(2) 1.8034(10) 0.5640(2)
H8 H 0.363752 1.954867 0.584093
F1B F -0.37735(7) 1.4440(2) 0.60682(5)
F2B F -0.42648(7) 1.0652(3) 0.58401(4)
F3B F -0.30898(8) 1.2795(3) 0.69615(5)
F4B F -0.32770(9) 0.8780(3) 0.67480(5)
F5B F -0.48539(10) 1.3339(3) 0.67448(6)
F6B F -0.43381(9) 1.0915(3) 0.73611(5)
F7B F -0.49233(9) 0.9250(3) 0.66668(6)
N1B N -0.21663(10) 1.2836(3) 0.60668(6)
N2B N -0.28378(10) 0.9370(3) 0.55717(6)
C1B C -0.14590(11) 1.2467(4) 0.58654(7)
C2B C -0.07265(11) 1.4044(4) 0.60302(7)
C3B C -0.00487(11) 1.3736(4) 0.57817(7)
H1B H 0.042276 1.482009 0.587607
C4B C 0.00052(11) 0.8110(4) 0.46102(7)
C5B C -0.07057(11) 1.0265(4) 0.52449(7)
C6B C -0.14265(11) 1.0564(4) 0.54858(7)
C7B C -0.21462(11) 0.9005(4) 0.53519(7)
C8B C -0.21471(11) 0.7045(4) 0.49642(7)
C9B C -0.14463(11) 0.6839(4) 0.47340(7)
H2B H -0.144902 0.559319 0.447347
C10B C -0.07129(11) 0.8375(4) 0.48601(7)
C11B C -0.28023(12) 1.1304(4) 0.58965(7)
C12B C -0.36117(12) 1.1898(4) 0.61082(7)
C13B C -0.35939(12) 1.1166(4) 0.66705(8)
C14B C -0.44512(13) 1.1181(5) 0.68624(8)
C15B C -0.06910(12) 1.5939(4) 0.64451(7)
C16B C -0.13579(12) 1.7028(4) 0.66328(7)
H3B H -0.192622 1.659925 0.651604
C17B C 0.00837(12) 1.6934(4) 0.67015(7)
H4B H 0.061670 1.640618 0.662876
C18B C -0.28768(12) 0.5380(4) 0.47953(7)
C19B C -0.36895(12) 0.5794(4) 0.48742(8)
H5B H -0.385646 0.719004 0.506585
C20B C -0.28228(12) 0.3121(4) 0.44953(7)
H6B H -0.231308 0.250513 0.440177
S1B S -0.10558(4) 1.92291(11) 0.70974(2)
C21B C -0.0019(3) 1.8689(9) 0.70553(18)
H7B H 0.043105 1.953824 0.725971
S2B S -0.43618(3) 0.35299(12) 0.45907(2)
C22B C -0.3563(2) 0.1966(10) 0.4360(2)
H8B H -0.363752 0.045133 0.415907
O1 O 0.79305(10) 0.6194(3) 0.35047(6)
C25 C 0.83290(15) 0.8580(5) 0.34247(9)
H15 H 0.889974 0.827960 0.334284
H16 H 0.837167 0.966976 0.373153
C26 C 0.77845(14) 0.9859(5) 0.29857(9)
H17 H 0.791729 0.922517 0.265703
H18 H 0.784822 1.175266 0.299955
C27 C 0.69095(15) 0.9048(5) 0.30676(10)
H19 H 0.665377 1.035600 0.326667
H20 H 0.654206 0.878958 0.273999
C28 C 0.70471(16) 0.6542(5) 0.33575(11)
H21 H 0.676263 0.659754 0.366122
H22 H 0.681210 0.509179 0.314127
H9? H 0.192939 0.337429 0.348065
H10? H -0.061467 0.361257 0.337144
H11? H 0.385985 1.282819 0.493083
H12? H 0.231182 1.750489 0.559474
S3? S 0.0029(10) 0.083(3) 0.2855(6)
C23? C 0.1092(13) 0.127(3) 0.3003(5)
H13? H 0.147463 0.033996 0.283361
S4? S 0.3759(6) 1.832(3) 0.5683(7)
C24? C 0.4210(11) 1.599(3) 0.5358(6)
H14? H 0.479446 1.595716 0.534349
loop_
_geom_bond_atom_site_label_1
_geom_bond_atom_site_label_2
_geom_bond_site_symmetry_1
_geom_bond_site_symmetry_2
F1 C12 1_555 1_555
F2 C12 1_555 1_555
F3 C13 1_555 1_555
F4 C13 1_555 1_555
F5 C14 1_555 1_555
F6 C14 1_555 1_555
F7 C14 1_555 1_555
N1 C1 1_555 1_555
N2 C7 1_555 1_555
C1 C2 1_555 1_555
C2 C3 1_555 1_555
C3 H1 1_555 1_555
C4 C10 1_555 1_555
C5 C6 1_555 1_555
C6 C1 1_555 1_555
C7 C6 1_555 1_555
C8 C7 1_555 1_555
C9 C8 1_555 1_555
H2 C9 1_555 1_555
C10 C5 1_555 1_555
C11 N1 1_555 1_555
C12 C11 1_555 1_555
C13 C12 1_555 1_555
C14 C13 1_555 1_555
C15 C2 1_555 1_555
C16 C15 1_555 1_555
H3 C16 1_555 1_555
C17 C15 1_555 1_555
H4 C17 1_555 1_555
C18 C8 1_555 1_555
C19 C18 1_555 1_555
H5 C19 1_555 1_555
C20 C18 1_555 1_555
H6 C20 1_555 1_555
S1 C16 1_555 1_555
C21 C17 1_555 1_555
H7 C21 1_555 1_555
S2 C19 1_555 1_555
C22 C20 1_555 1_555
H8 C22 1_555 1_555
O1 C25 1_555 1_555
C25 H15 1_555 1_555
H16 C25 1_555 1_555
C26 C25 1_555 1_555
H17 C26 1_555 1_555
H18 C26 1_555 1_555
C27 C26 1_555 1_555
H19 C27 1_555 1_555
H20 C27 1_555 1_555
C28 O1 1_555 1_555
H21 C28 1_555 1_555
H22 C28 1_555 1_555
F1B C12B 1_555 1_555
F2B C12B 1_555 1_555
F3B C13B 1_555 1_555
F4B C13B 1_555 1_555
F5B C14B 1_555 1_555
F6B C14B 1_555 1_555
F7B C14B 1_555 1_555
N1B C1B 1_555 1_555
N2B C7B 1_555 1_555
C1B C2B 1_555 1_555
C2B C3B 1_555 1_555
C3B C4 1_555 1_555
H1B C3B 1_555 1_555
C4B C3 1_555 1_555
C5B C4 1_555 1_555
C6B C1B 1_555 1_555
C7B C6B 1_555 1_555
C8B C7B 1_555 1_555
C9B C8B 1_555 1_555
H2B C9B 1_555 1_555
C10B C4B 1_555 1_555
C11B N1B 1_555 1_555
C12B C11B 1_555 1_555
C13B C12B 1_555 1_555
C14B C13B 1_555 1_555
C15B C2B 1_555 1_555
C16B C15B 1_555 1_555
H3B C16B 1_555 1_555
C17B C15B 1_555 1_555
H4B C17B 1_555 1_555
C18B C8B 1_555 1_555
C19B C18B 1_555 1_555
H5B C19B 1_555 1_555
C20B C18B 1_555 1_555
H6B C20B 1_555 1_555
S1B C16B 1_555 1_555
C21B C17B 1_555 1_555
H7B C21B 1_555 1_555
S2B C19B 1_555 1_555
C22B C20B 1_555 1_555
H8B C22B 1_555 1_555
N2 C11 1_555 1_555
C5 C4B 1_555 1_555
C9 C10 1_555 1_555
S1 C21 1_555 1_555
S2 C22 1_555 1_555
C27 C28 1_555 1_555
N2B C11B 1_555 1_555
C5B C6B 1_555 1_555
C5B C10B 1_555 1_555
C9B C10B 1_555 1_555
S1B C21B 1_555 1_555
S2B C22B 1_555 1_555

#END
