
#######################################################################
#
#                 Cambridge Crystallographic Data Centre
#                                CCDC 
#
#######################################################################
#
# If this CIF has been generated from an entry in the Cambridge 
# Structural Database, then it will include bibliographic, chemical, 
# crystal, experimental, refinement or atomic coordinate data resulting 
# from the CCDC's data processing and validation procedures.
#
#######################################################################

data_NERHOK
_chemical_formula_moiety         'C44 H8 Br8 F14 N4 S4,0.67(C5 H12)'
_chemical_name_systematic        
"4,7,11,14-tetrakis(2,5-dibromothiophen-3-yl)-2,9-bis(heptafluoropropyl)benzo[1,2,3-gh:4,5,6-g'h']diperimidine n-pentane solvate"
_symmetry_cell_setting           monoclinic
_symmetry_space_group_name_H-M   'P 21/n'
_symmetry_Int_Tables_number      14
_space_group_name_Hall           '-P 2yn'
loop_
_symmetry_equiv_pos_site_id
_symmetry_equiv_pos_as_xyz
1 x,y,z
2 1/2-x,1/2+y,1/2-z
3 -x,-y,-z
4 1/2+x,1/2-y,1/2+z
_cell_length_a                   15.36041(17)
_cell_length_b                   25.7224(2)
_cell_length_c                   20.8946(2)
_cell_angle_alpha                90
_cell_angle_beta                 110.8723(13)
_cell_angle_gamma                90
_cell_volume                     7713.84
_exptl_crystal_colour            orange
_exptl_crystal_description       needle
_cell_formula_units_Z            6
loop_
_atom_site_label
_atom_site_type_symbol
_atom_site_fract_x
_atom_site_fract_y
_atom_site_fract_z
Br1 Br 0.93842(3) 0.45589(2) 0.64825(2)
Br2 Br 1.03389(3) 0.37377(2) 0.93434(2)
Br3 Br 0.30737(3) 0.53778(2) 0.71215(2)
Br4 Br 0.18537(4) 0.31768(2) 0.73297(3)
Br5 Br 0.85218(3) 0.52399(2) 0.47615(2)
Br6 Br 0.92242(4) 0.75202(2) 0.44655(3)
Br7 Br 0.20427(3) 0.61676(2) 0.55219(2)
Br8 Br 0.08960(3) 0.71865(2) 0.27505(3)
S1 S 1.03078(7) 0.41442(4) 0.79399(5)
S2 S 0.21329(8) 0.43735(5) 0.73471(6)
S3 S 0.92419(7) 0.63036(4) 0.45258(6)
S4 S 0.10864(7) 0.67530(5) 0.41833(6)
F1 F 0.70732(19) 0.30021(11) 0.83038(15)
F2 F 0.55734(18) 0.29180(9) 0.80299(12)
F3 F 0.7068(2) 0.38129(14) 0.91398(15)
F4 F 0.6604(2) 0.30596(12) 0.93744(14)
F5 F 0.5329(3) 0.41732(12) 0.86918(16)
F6 F 0.5689(3) 0.38165(15) 0.96786(16)
F7 F 0.4772(2) 0.34282(14) 0.87883(18)
F8 F 0.55958(16) 0.73905(9) 0.33102(12)
F9 F 0.41200(16) 0.74159(9) 0.31838(12)
F10 F 0.49518(18) 0.83151(9) 0.35366(13)
F11 F 0.44933(18) 0.79830(10) 0.43244(14)
F12 F 0.6250(2) 0.77560(10) 0.51066(13)
F13 F 0.67690(17) 0.79867(11) 0.43202(13)
F14 F 0.6113(2) 0.85510(10) 0.47595(14)
N1 N 0.6897(2) 0.38740(13) 0.76158(17)
N2 N 0.5252(2) 0.38388(13) 0.73770(17)
N3 N 0.5984(2) 0.67393(13) 0.43548(17)
N4 N 0.4366(2) 0.67750(12) 0.42152(17)
C1 C 0.6782(3) 0.42697(15) 0.7173(2)
C2 C 0.7588(3) 0.45246(15) 0.7105(2)
C3 C 0.7434(3) 0.49317(15) 0.6656(2)
H1 H 0.796028 0.510916 0.662566
C4 C 0.6534(3) 0.51051(15) 0.62306(19)
C5 C 0.5740(3) 0.48751(15) 0.6321(2)
C6 C 0.5876(3) 0.44564(15) 0.67846(19)
C7 C 0.5120(3) 0.42315(15) 0.69236(19)
C8 C 0.4205(3) 0.44527(15) 0.6607(2)
C9 C 0.4077(3) 0.48413(15) 0.6138(2)
H2 H 0.346507 0.497169 0.591398
C10 C 0.4822(3) 0.50611(15) 0.59688(19)
C11 C 0.6394(3) 0.55083(15) 0.57445(19)
C12 C 0.7141(3) 0.57205(15) 0.5570(2)
H3 H 0.775045 0.558601 0.579478
C13 C 0.7025(3) 0.61068(15) 0.5098(2)
C14 C 0.6110(3) 0.63301(15) 0.47850(19)
C15 C 0.5355(3) 0.61207(15) 0.49371(19)
C16 C 0.5474(3) 0.56981(15) 0.53954(19)
C17 C 0.4683(3) 0.54815(15) 0.54999(19)
C18 C 0.3788(3) 0.57013(15) 0.5131(2)
H4 H 0.325576 0.554071 0.517554
C19 C 0.3655(3) 0.61291(15) 0.4718(2)
C20 C 0.4463(3) 0.63515(15) 0.46141(19)
C21 C 0.6129(3) 0.36889(16) 0.7678(2)
C22 C 0.5125(3) 0.69308(15) 0.41133(19)
C23 C 0.6278(3) 0.32611(16) 0.8219(2)
C24 C 0.6372(3) 0.34652(18) 0.8939(2)
C25 C 0.5514(4) 0.3722(2) 0.9019(2)
C26 C 0.4995(3) 0.74070(16) 0.3651(2)
C27 C 0.5128(3) 0.79380(16) 0.4020(2)
C28 C 0.6089(3) 0.80583(17) 0.4560(2)
C29 C 0.8544(3) 0.43622(16) 0.7528(2)
C30 C 0.9302(3) 0.43681(16) 0.7327(2)
C31 C 0.9718(3) 0.40373(16) 0.8486(2)
C32 C 0.8806(3) 0.41687(16) 0.8217(2)
H5 H 0.838592 0.413683 0.845673
C33 C 0.3444(3) 0.42995(16) 0.6848(2)
C34 C 0.2944(3) 0.46561(16) 0.7060(2)
C35 C 0.2461(3) 0.37631(18) 0.7171(2)
C36 C 0.3161(3) 0.37755(17) 0.6918(2)
H6 H 0.343230 0.347476 0.680208
C37 C 0.7808(3) 0.62839(15) 0.48996(19)
C38 C 0.8439(3) 0.59691(15) 0.4764(2)
C39 C 0.8746(3) 0.68846(16) 0.4625(2)
C40 C 0.8008(3) 0.68214(16) 0.4823(2)
H7 H 0.765837 0.710194 0.490363
C41 C 0.2721(3) 0.63723(15) 0.4388(2)
C42 C 0.2047(3) 0.64101(16) 0.4677(2)
C43 C 0.1559(3) 0.68328(17) 0.3561(2)
C44 C 0.2412(3) 0.66196(16) 0.3729(2)
H8 H 0.277098 0.663152 0.344108
Br9 Br 0.67139(4) 0.57145(2) 0.05496(3)
Br10 Br 0.55081(3) 0.36847(2) 0.14148(3)
Br11 Br 1.38655(3) 0.47840(2) 0.18010(2)
Br12 Br 1.35976(3) 0.30004(2) 0.35879(2)
S5 S 0.56769(8) 0.48089(5) 0.09361(6)
S6 S 1.41918(7) 0.38772(4) 0.28011(5)
F15 F 0.92124(17) 0.43067(10) 0.32763(12)
F16 F 1.07026(16) 0.41457(10) 0.36108(12)
F17 F 0.9851(2) 0.33507(12) 0.38254(14)
F18 F 1.03603(18) 0.32065(10) 0.29833(14)
F19 F 0.8756(2) 0.27290(11) 0.28730(16)
F20 F 0.8084(2) 0.34608(13) 0.28876(17)
F21 F 0.85867(19) 0.32912(10) 0.20757(13)
N5 N 0.9076(2) 0.43830(13) 0.19644(17)
N6 N 1.0729(2) 0.42464(13) 0.23665(16)
C45 C 0.9103(3) 0.45594(15) 0.1363(2)
C46 C 0.8237(3) 0.47144(16) 0.0829(2)
C47 C 0.8282(3) 0.49162(17) 0.0238(2)
H9 H 0.771786 0.502506 -0.010688
C48 C 0.9127(3) 0.49727(16) 0.0108(2)
C49 C 0.9969(3) 0.47928(16) 0.0610(2)
C50 C 0.9947(3) 0.45896(15) 0.1237(2)
C51 C 1.0760(3) 0.44071(15) 0.1761(2)
C52 C 1.1627(3) 0.43831(15) 0.1627(2)
C53 C 1.1625(3) 0.45725(16) 0.1012(2)
H10 H 1.218377 0.454591 0.091645
C54 C 0.9165(3) 0.51932(16) -0.0507(2)
C55 C 0.9897(3) 0.42486(15) 0.2423(2)
C56 C 0.9866(3) 0.40501(17) 0.3106(2)
C57 C 0.9710(3) 0.34612(18) 0.3159(2)
C58 C 0.8760(3) 0.32344(19) 0.2737(2)
C59 C 0.7332(3) 0.46494(17) 0.0929(2)
C60 C 0.6669(3) 0.50205(18) 0.0806(2)
C61 C 0.6172(3) 0.42077(17) 0.1164(2)
C62 C 0.7041(3) 0.41731(17) 0.1139(2)
H11 H 0.741152 0.386733 0.124838
C63 C 1.2475(3) 0.41362(16) 0.2117(2)
C64 C 1.3377(3) 0.42623(16) 0.2208(2)
C65 C 1.3313(3) 0.35366(16) 0.2942(2)
C66 C 1.2451(3) 0.37066(16) 0.2555(2)
H12 H 1.189144 0.355920 0.257091
Br9B Br 1.32861(4) 0.42855(2) -0.05496(3)
Br10B Br 1.44919(3) 0.63153(2) -0.14148(3)
Br11B Br 0.61345(3) 0.52160(2) -0.18010(2)
Br12B Br 0.64024(3) 0.69996(2) -0.35879(2)
S5B S 1.43231(8) 0.51911(5) -0.09361(6)
S6B S 0.58082(7) 0.61228(4) -0.28011(5)
F15B F 1.07876(17) 0.56933(10) -0.32763(12)
F16B F 0.92974(16) 0.58543(10) -0.36108(12)
F17B F 1.0149(2) 0.66493(12) -0.38254(14)
F18B F 0.96397(18) 0.67935(10) -0.29833(14)
F19B F 1.1244(2) 0.72710(11) -0.28730(16)
F20B F 1.1916(2) 0.65392(13) -0.28876(17)
F21B F 1.14133(19) 0.67088(10) -0.20757(13)
N5B N 1.0924(2) 0.56170(13) -0.19644(17)
N6B N 0.9271(2) 0.57536(13) -0.23665(16)
C45B C 1.0897(3) 0.54406(15) -0.1363(2)
C46B C 1.1763(3) 0.52856(16) -0.0829(2)
C47B C 1.1718(3) 0.50838(17) -0.0238(2)
H9B H 1.228214 0.497494 0.010688
C48B C 1.0873(3) 0.50273(16) -0.0108(2)
C49B C 1.0031(3) 0.52072(16) -0.0610(2)
C50B C 1.0053(3) 0.54104(15) -0.1237(2)
C51B C 0.9240(3) 0.55929(15) -0.1761(2)
C52B C 0.8373(3) 0.56169(15) -0.1627(2)
C53B C 0.8375(3) 0.54275(16) -0.1012(2)
H10B H 0.781623 0.545409 -0.091645
C54B C 1.0835(3) 0.48068(16) 0.0507(2)
C55B C 1.0103(3) 0.57514(15) -0.2423(2)
C56B C 1.0134(3) 0.59499(17) -0.3106(2)
C57B C 1.0290(3) 0.65388(18) -0.3159(2)
C58B C 1.1240(3) 0.67656(19) -0.2737(2)
C59B C 1.2668(3) 0.53506(17) -0.0929(2)
C60B C 1.3331(3) 0.49795(18) -0.0806(2)
C61B C 1.3828(3) 0.57923(17) -0.1164(2)
C62B C 1.2959(3) 0.58269(17) -0.1139(2)
H11B H 1.258848 0.613267 -0.124838
C63B C 0.7525(3) 0.58638(16) -0.2117(2)
C64B C 0.6623(3) 0.57377(16) -0.2208(2)
C65B C 0.6687(3) 0.64634(16) -0.2942(2)
C66B C 0.7549(3) 0.62934(16) -0.2555(2)
H12B H 0.810856 0.644080 -0.257091
C67 C 0.3703(6) 0.7250(4) 0.6398(7)
H13 H 0.379116 0.694240 0.615214
H14 H 0.358240 0.714176 0.680867
H15 H 0.426608 0.746549 0.653249
C68 C 0.2809(11) 0.7589(4) 0.5897(4)
H16 H 0.222226 0.739478 0.580934
H17 H 0.276504 0.792513 0.611457
C69 C 0.2977(7) 0.7683(3) 0.5215(4)
H18 H 0.360325 0.783203 0.530308
H19 H 0.291833 0.735492 0.495561
C70 C 0.2206(9) 0.8073(3) 0.4817(6)
H20 H 0.159735 0.790744 0.474846
H21 H 0.225716 0.837841 0.511750
C71 C 0.2175(6) 0.8268(4) 0.4151(5)
H22 H 0.214134 0.797355 0.384541
H23 H 0.273800 0.847085 0.421109
H24 H 0.162444 0.848860 0.395195
loop_
_geom_bond_atom_site_label_1
_geom_bond_atom_site_label_2
_geom_bond_site_symmetry_1
_geom_bond_site_symmetry_2
Br1 C30 1_555 1_555
Br2 C31 1_555 1_555
Br3 C34 1_555 1_555
Br4 C35 1_555 1_555
Br5 C38 1_555 1_555
Br6 C39 1_555 1_555
Br7 C42 1_555 1_555
Br8 C43 1_555 1_555
S1 C30 1_555 1_555
S2 C34 1_555 1_555
S3 C38 1_555 1_555
S4 C42 1_555 1_555
F1 C23 1_555 1_555
F2 C23 1_555 1_555
F3 C24 1_555 1_555
F4 C24 1_555 1_555
F5 C25 1_555 1_555
F6 C25 1_555 1_555
F7 C25 1_555 1_555
F8 C26 1_555 1_555
F9 C26 1_555 1_555
F10 C27 1_555 1_555
F11 C27 1_555 1_555
F12 C28 1_555 1_555
F13 C28 1_555 1_555
F14 C28 1_555 1_555
N1 C1 1_555 1_555
N2 C7 1_555 1_555
N3 C14 1_555 1_555
N4 C20 1_555 1_555
C1 C2 1_555 1_555
C2 C3 1_555 1_555
C3 H1 1_555 1_555
C4 C3 1_555 1_555
C5 C4 1_555 1_555
C6 C1 1_555 1_555
C7 C6 1_555 1_555
C8 C7 1_555 1_555
C9 C8 1_555 1_555
H2 C9 1_555 1_555
C10 C5 1_555 1_555
C11 C4 1_555 1_555
C12 C11 1_555 1_555
H3 C12 1_555 1_555
C13 C12 1_555 1_555
C14 C13 1_555 1_555
C15 C14 1_555 1_555
C16 C11 1_555 1_555
C17 C10 1_555 1_555
C18 C17 1_555 1_555
H4 C18 1_555 1_555
C19 C18 1_555 1_555
C20 C15 1_555 1_555
C21 N1 1_555 1_555
C22 N3 1_555 1_555
C23 C21 1_555 1_555
C24 C23 1_555 1_555
C25 C24 1_555 1_555
C26 C22 1_555 1_555
C27 C26 1_555 1_555
C28 C27 1_555 1_555
C29 C2 1_555 1_555
C30 C29 1_555 1_555
C31 S1 1_555 1_555
C32 C29 1_555 1_555
H5 C32 1_555 1_555
C33 C8 1_555 1_555
C34 C33 1_555 1_555
C35 S2 1_555 1_555
C36 C33 1_555 1_555
H6 C36 1_555 1_555
C37 C13 1_555 1_555
C38 C37 1_555 1_555
C39 S3 1_555 1_555
C40 C37 1_555 1_555
H7 C40 1_555 1_555
C41 C19 1_555 1_555
C42 C41 1_555 1_555
C43 S4 1_555 1_555
C44 C41 1_555 1_555
H8 C44 1_555 1_555
Br9 C60 1_555 1_555
Br10 C61 1_555 1_555
Br11 C64 1_555 1_555
Br12 C65 1_555 1_555
S5 C60 1_555 1_555
S6 C64 1_555 1_555
F15 C56 1_555 1_555
F16 C56 1_555 1_555
F17 C57 1_555 1_555
F18 C57 1_555 1_555
F19 C58 1_555 1_555
F20 C58 1_555 1_555
F21 C58 1_555 1_555
N5 C45 1_555 1_555
N6 C51 1_555 1_555
C45 C46 1_555 1_555
C46 C47 1_555 1_555
C47 H9 1_555 1_555
C48 C47 1_555 1_555
C49 C48 1_555 1_555
C50 C45 1_555 1_555
C51 C50 1_555 1_555
C52 C51 1_555 1_555
C53 C52 1_555 1_555
H10 C53 1_555 1_555
C54 C48 1_555 1_555
C55 N5 1_555 1_555
C56 C55 1_555 1_555
C57 C56 1_555 1_555
C58 C57 1_555 1_555
C59 C46 1_555 1_555
C60 C59 1_555 1_555
C61 S5 1_555 1_555
C62 C59 1_555 1_555
H11 C62 1_555 1_555
C63 C52 1_555 1_555
C64 C63 1_555 1_555
C65 S6 1_555 1_555
C66 C63 1_555 1_555
H12 C66 1_555 1_555
C67 H13 1_555 1_555
H14 C67 1_555 1_555
H15 C67 1_555 1_555
C68 C67 1_555 1_555
H16 C68 1_555 1_555
H17 C68 1_555 1_555
C69 C68 1_555 1_555
H18 C69 1_555 1_555
H19 C69 1_555 1_555
C70 C69 1_555 1_555
H20 C70 1_555 1_555
H21 C70 1_555 1_555
C71 C70 1_555 1_555
H22 C71 1_555 1_555
H23 C71 1_555 1_555
H24 C71 1_555 1_555
Br9B C60B 1_555 1_555
Br10B C61B 1_555 1_555
Br11B C64B 1_555 1_555
Br12B C65B 1_555 1_555
S5B C60B 1_555 1_555
S6B C64B 1_555 1_555
F15B C56B 1_555 1_555
F16B C56B 1_555 1_555
F17B C57B 1_555 1_555
F18B C57B 1_555 1_555
F19B C58B 1_555 1_555
F20B C58B 1_555 1_555
F21B C58B 1_555 1_555
N5B C45B 1_555 1_555
N6B C51B 1_555 1_555
C45B C46B 1_555 1_555
C46B C47B 1_555 1_555
C47B H9B 1_555 1_555
C48B C47B 1_555 1_555
C49B C54 1_555 1_555
C50B C45B 1_555 1_555
C51B C50B 1_555 1_555
C52B C51B 1_555 1_555
C53B C54 1_555 1_555
H10B C53B 1_555 1_555
C54B C49 1_555 1_555
C55B N5B 1_555 1_555
C56B C55B 1_555 1_555
C57B C56B 1_555 1_555
C58B C57B 1_555 1_555
C59B C46B 1_555 1_555
C60B C59B 1_555 1_555
C61B S5B 1_555 1_555
C62B C59B 1_555 1_555
H11B C62B 1_555 1_555
C63B C52B 1_555 1_555
C64B C63B 1_555 1_555
C65B S6B 1_555 1_555
C66B C63B 1_555 1_555
H12B C66B 1_555 1_555
N2 C21 1_555 1_555
N4 C22 1_555 1_555
C5 C6 1_555 1_555
C9 C10 1_555 1_555
C15 C16 1_555 1_555
C16 C17 1_555 1_555
C19 C20 1_555 1_555
C31 C32 1_555 1_555
C35 C36 1_555 1_555
C39 C40 1_555 1_555
C43 C44 1_555 1_555
N6 C55 1_555 1_555
C49 C50 1_555 1_555
C53 C54B 1_555 1_555
C61 C62 1_555 1_555
C65 C66 1_555 1_555
N6B C55B 1_555 1_555
C48B C49B 1_555 1_555
C48B C54B 1_555 1_555
C49B C50B 1_555 1_555
C52B C53B 1_555 1_555
C61B C62B 1_555 1_555
C65B C66B 1_555 1_555

#END
