
#######################################################################
#
#                 Cambridge Crystallographic Data Centre
#                                CCDC 
#
#######################################################################
#
# If this CIF has been generated from an entry in the Cambridge 
# Structural Database, then it will include bibliographic, chemical, 
# crystal, experimental, refinement or atomic coordinate data resulting 
# from the CCDC's data processing and validation procedures.
#
#######################################################################

data_NERJUS
_chemical_formula_moiety         'C21 H16 O5 S1'
_chemical_name_systematic        
2-(2-hydroxyphenyl)-3-(phenylsulfonyl)-2,3-dihydro-4H-1-benzopyran-4-one
_symmetry_cell_setting           triclinic
_symmetry_space_group_name_H-M   'P -1'
_symmetry_Int_Tables_number      2
_space_group_name_Hall           '-P 1'
loop_
_symmetry_equiv_pos_site_id
_symmetry_equiv_pos_as_xyz
1 x,y,z
2 -x,-y,-z
_cell_length_a                   8.2965(6)
_cell_length_b                   10.5328(8)
_cell_length_c                   10.7598(8)
_cell_angle_alpha                97.171(2)
_cell_angle_beta                 100.400(2)
_cell_angle_gamma                104.731(2)
_cell_volume                     879.88
_exptl_crystal_colour            colorless
_cell_formula_units_Z            2
loop_
_atom_site_label
_atom_site_type_symbol
_atom_site_fract_x
_atom_site_fract_y
_atom_site_fract_z
S1 S 0.67374(5) 0.80805(4) 0.73475(3)
O1 O 0.73664(14) 0.95231(10) 0.75636(10)
O2 O 0.77340(14) 0.73117(12) 0.68141(10)
O3 O 0.60427(13) 0.52508(10) 0.85151(11)
O4 O 0.41378(13) 0.84281(9) 0.93178(10)
O5 O 0.92577(14) 0.93986(11) 1.10170(10)
H1 H 1.025(3) 0.9655(19) 1.1456(19)
C1 C 0.0202(2) 0.57505(16) 0.85875(16)
H2 H -0.0983 0.5652 0.8515
C2 C 0.1344(2) 0.70128(16) 0.88932(15)
H3 H 0.0949 0.7779 0.9031
C3 C 0.30738(18) 0.71492(14) 0.89962(14)
C4 C 0.36574(18) 0.60297(14) 0.87544(13)
C5 C 0.54482(18) 0.61792(14) 0.87179(13)
C6 C 0.65519(18) 0.76209(14) 0.88937(13)
H4 H 0.7726 0.7653 0.9355
C7 C 0.46654(18) 0.75878(14) 0.63752(14)
C8 C 0.4031(2) 0.62775(15) 0.57095(14)
H5 H 0.4712 0.5677 0.5778
C9 C 0.2396(2) 0.58652(16) 0.49475(15)
H6 H 0.1952 0.4981 0.4473
C10 C 0.1409(2) 0.67456(17) 0.48790(16)
H7 H 0.0282 0.6458 0.4360
C11 C 0.59317(18) 0.85954(14) 0.97409(14)
H8 H 0.6546 0.9519 0.9657
C12 C 0.64124(19) 0.84777(13) 1.11485(14)
C13 C 0.81501(19) 0.89087(14) 1.17556(14)
C14 C 0.8681(2) 0.88201(15) 1.30328(15)
H9 H 0.9863 0.9103 1.3433
C15 C 0.7477(2) 0.83165(15) 1.37229(15)
H10 H 0.7837 0.8251 1.4597
C16 C 0.5759(2) 0.79096(15) 1.31432(15)
H11 H 0.4937 0.7573 1.3620
C17 C 0.5230(2) 0.79923(14) 1.18616(14)
H12 H 0.4045 0.7713 1.1469
C18 C 0.07709(19) 0.46178(16) 0.83844(15)
H13 H -0.0021 0.3754 0.8200
C19 C 0.24752(19) 0.47556(14) 0.84520(14)
H14 H 0.2858 0.3986 0.8294
C20 C 0.3696(2) 0.84804(16) 0.63086(15)
H15 H 0.4147 0.9372 0.6765
C21 C 0.2044(2) 0.80378(17) 0.55567(17)
H16 H 0.1347 0.8627 0.5508
loop_
_geom_bond_atom_site_label_1
_geom_bond_atom_site_label_2
_geom_bond_site_symmetry_1
_geom_bond_site_symmetry_2
S1 O1 1_555 1_555
O2 S1 1_555 1_555
O3 C5 1_555 1_555
O4 C3 1_555 1_555
O5 H1 1_555 1_555
C1 H2 1_555 1_555
C2 C1 1_555 1_555
H3 C2 1_555 1_555
C3 C2 1_555 1_555
C4 C3 1_555 1_555
C5 C4 1_555 1_555
C6 S1 1_555 1_555
H4 C6 1_555 1_555
C7 S1 1_555 1_555
C8 C7 1_555 1_555
H5 C8 1_555 1_555
C9 C8 1_555 1_555
H6 C9 1_555 1_555
C10 C9 1_555 1_555
H7 C10 1_555 1_555
C11 O4 1_555 1_555
H8 C11 1_555 1_555
C12 C11 1_555 1_555
C13 O5 1_555 1_555
C14 C13 1_555 1_555
H9 C14 1_555 1_555
C15 C14 1_555 1_555
H10 C15 1_555 1_555
C16 C15 1_555 1_555
H11 C16 1_555 1_555
C17 C12 1_555 1_555
H12 C17 1_555 1_555
C18 C1 1_555 1_555
H13 C18 1_555 1_555
C19 C4 1_555 1_555
H14 C19 1_555 1_555
C20 C7 1_555 1_555
H15 C20 1_555 1_555
C21 C10 1_555 1_555
H16 C21 1_555 1_555
C5 C6 1_555 1_555
C6 C11 1_555 1_555
C12 C13 1_555 1_555
C16 C17 1_555 1_555
C18 C19 1_555 1_555
C20 C21 1_555 1_555

#END
