
#######################################################################
#
#                 Cambridge Crystallographic Data Centre
#                                CCDC 
#
#######################################################################
#
# If this CIF has been generated from an entry in the Cambridge 
# Structural Database, then it will include bibliographic, chemical, 
# crystal, experimental, refinement or atomic coordinate data resulting 
# from the CCDC's data processing and validation procedures.
#
#######################################################################

data_NERJOM
_chemical_formula_moiety         'C20 H17 N1 O5'
_chemical_name_systematic        
'dimethyl 3-oxo-2,5-diphenyl-2,3-dihydro-1H-pyrrole-2,4-dicarboxylate'
_symmetry_cell_setting           orthorhombic
_symmetry_space_group_name_H-M   'P b c a'
_symmetry_Int_Tables_number      61
_space_group_name_Hall           '-P 2ac 2ab'
loop_
_symmetry_equiv_pos_site_id
_symmetry_equiv_pos_as_xyz
1 x,y,z
2 1/2-x,-y,1/2+z
3 1/2+x,1/2-y,-z
4 -x,1/2+y,1/2-z
5 -x,-y,-z
6 1/2+x,y,1/2-z
7 1/2-x,1/2+y,z
8 x,1/2-y,1/2+z
_cell_length_a                   14.490(3)
_cell_length_b                   11.438(3)
_cell_length_c                   20.816(4)
_cell_angle_alpha                90
_cell_angle_beta                 90
_cell_angle_gamma                90
_cell_volume                     3449.97
_exptl_crystal_colour            colorless
_exptl_crystal_description       Prism
_cell_formula_units_Z            8
loop_
_atom_site_label
_atom_site_type_symbol
_atom_site_fract_x
_atom_site_fract_y
_atom_site_fract_z
O1 O 0.11043(10) 0.15382(15) 0.03442(7)
H1 H 0.2402(16) -0.0431(13) 0.0518(12)
O2 O 0.13230(11) 0.12962(16) -0.07032(7)
O3 O 0.29944(10) 0.31791(10) 0.00734(6)
O4 O 0.38127(9) 0.37707(10) 0.12199(6)
O5 O 0.42330(10) 0.23388(12) 0.18963(6)
N1 N 0.26859(11) 0.02667(12) 0.05456(7)
C1 C 0.01307(15) 0.1768(2) 0.02263(11)
H2 H 0.0065 0.2506 -0.0009
H3 H -0.0197 0.1823 0.0637
H4 H -0.0132 0.1129 -0.0029
C2 C 0.16164(13) 0.13039(15) -0.01702(8)
C3 C 0.26280(13) 0.11005(14) 0.00252(8)
C4 C 0.32372(12) 0.07803(16) -0.05467(8)
C5 C 0.36671(14) -0.03057(17) -0.05737(10)
H5 H 0.3583 -0.0851 -0.0234
C6 C 0.42203(15) -0.0597(2) -0.10972(10)
H6 H 0.4503 -0.1345 -0.1118
C7 C 0.43573(15) 0.0199(2) -0.15845(10)
H7 H 0.4747 0.0006 -0.1936
C8 C 0.39278(15) 0.1279(2) -0.15629(10)
H8 H 0.4019 0.1825 -0.1901
C9 C 0.33631(14) 0.15672(17) -0.10463(9)
H9 H 0.3063 0.2305 -0.1036
C10 C 0.29983(12) 0.22349(14) 0.03538(9)
C11 C 0.33046(12) 0.19039(15) 0.09801(8)
C12 C 0.38263(12) 0.26484(15) 0.14229(9)
C13 C 0.43135(15) 0.45858(17) 0.16166(10)
H10 H 0.4043 0.4598 0.2048
H11 H 0.4277 0.5369 0.1427
H12 H 0.4961 0.4344 0.1644
C14 C 0.30741(12) 0.07205(15) 0.10695(8)
C15 C 0.31949(12) -0.00373(15) 0.16360(9)
C16 C 0.34603(14) -0.12012(16) 0.15452(10)
H13 H 0.3561 -0.1494 0.1124
C17 C 0.35755(15) -0.19266(18) 0.20726(11)
H14 H 0.3765 -0.2714 0.2012
C18 C 0.34169(15) -0.15124(19) 0.26820(10)
H15 H 0.3499 -0.2015 0.3041
C19 C 0.31372(15) -0.03612(19) 0.27773(10)
H16 H 0.3013 -0.0084 0.3199
C20 C 0.30412(13) 0.03763(17) 0.22567(9)
H17 H 0.2870 0.1169 0.2322
loop_
_geom_bond_atom_site_label_1
_geom_bond_atom_site_label_2
_geom_bond_site_symmetry_1
_geom_bond_site_symmetry_2
O1 C1 1_555 1_555
H1 N1 1_555 1_555
O2 C2 1_555 1_555
O3 C10 1_555 1_555
O4 C12 1_555 1_555
O5 C12 1_555 1_555
N1 C3 1_555 1_555
C1 H2 1_555 1_555
H3 C1 1_555 1_555
H4 C1 1_555 1_555
C2 O1 1_555 1_555
C3 C2 1_555 1_555
C4 C3 1_555 1_555
C5 C4 1_555 1_555
H5 C5 1_555 1_555
C6 C5 1_555 1_555
H6 C6 1_555 1_555
C7 C6 1_555 1_555
H7 C7 1_555 1_555
C8 C7 1_555 1_555
H8 C8 1_555 1_555
C9 C4 1_555 1_555
H9 C9 1_555 1_555
C10 C3 1_555 1_555
C11 C10 1_555 1_555
C12 C11 1_555 1_555
C13 O4 1_555 1_555
H10 C13 1_555 1_555
H11 C13 1_555 1_555
H12 C13 1_555 1_555
C14 N1 1_555 1_555
C15 C14 1_555 1_555
C16 C15 1_555 1_555
H13 C16 1_555 1_555
C17 C16 1_555 1_555
H14 C17 1_555 1_555
C18 C17 1_555 1_555
H15 C18 1_555 1_555
C19 C18 1_555 1_555
H16 C19 1_555 1_555
C20 C15 1_555 1_555
H17 C20 1_555 1_555
C8 C9 1_555 1_555
C11 C14 1_555 1_555
C19 C20 1_555 1_555

#END
