
#######################################################################
#
#                 Cambridge Crystallographic Data Centre
#                                CCDC 
#
#######################################################################
#
# If this CIF has been generated from an entry in the Cambridge 
# Structural Database, then it will include bibliographic, chemical, 
# crystal, experimental, refinement or atomic coordinate data resulting 
# from the CCDC's data processing and validation procedures.
#
#######################################################################

data_NERNOP
_chemical_name_common            
'12,32-bis(1-Benzyl-1H-imidazol-2-yl)-2,7,17,22,27,37-hexakis(pentafluorophenyl)-41,42,43,44,45,46,47,48-octaazanonacyclo[36.2.1.1$3,6!.1$8,11!.1$13,16!.1$18,21!.1$23,26!.1$28,31!.1$33,36!]octatetraconta-1(41),2,4,6,8(47),9,11,13,15,17,19,21(45),22,24,26,28(43),29,31,33,35,37,39-docosaene n-heptane solvate'
_chemical_formula_moiety         'C96 H38 F30 N12,3(C7 H16)'
_chemical_name_systematic        
'5,25-bis(1-Benzylimidazol-2-yl)-10,15,20,30,35,40-hexakis(pentafluorophenyl)octaphyrin(1.1.1.1.1.1.1.1) n-heptane solvate'
_symmetry_cell_setting           triclinic
_symmetry_space_group_name_H-M   'P -1'
_symmetry_Int_Tables_number      2
_space_group_name_Hall           '-P 1'
loop_
_symmetry_equiv_pos_site_id
_symmetry_equiv_pos_as_xyz
1 x,y,z
2 -x,-y,-z
_cell_length_a                   9.7429(4)
_cell_length_b                   14.4014(5)
_cell_length_c                   19.4185(8)
_cell_angle_alpha                87.050(2)
_cell_angle_beta                 82.154(2)
_cell_angle_gamma                73.322(2)
_cell_volume                     2585.37
_exptl_crystal_colour            violet
_exptl_crystal_description       prism
_cell_formula_units_Z            1
loop_
_atom_site_label
_atom_site_type_symbol
_atom_site_fract_x
_atom_site_fract_y
_atom_site_fract_z
C1 C 0.2589(8) 0.5721(6) -0.0925(5)
C2 C 0.2898(8) 0.4679(5) -0.0741(4)
H1 H 0.2904 0.4168 -0.1033
C3 C 0.3164(8) 0.4603(5) -0.0088(4)
H2 H 0.3366 0.4025 0.0185
C4 C 0.3090(8) 0.5586(6) 0.0141(5)
C5 C 0.3290(8) 0.5866(5) 0.0763(5)
C6 C 0.3418(8) 0.6832(5) 0.0856(4)
C7 C 0.2971(8) 0.7695(5) 0.0441(4)
H3 H 0.2570 0.7752 0.0016
C8 C 0.3246(9) 0.8434(5) 0.0792(5)
H4 H 0.3037 0.9095 0.0647
C9 C 0.3877(9) 0.8050(6) 0.1392(5)
C10 C 0.4326(8) 0.8525(5) 0.1887(5)
C11 C 0.5046(9) 0.8095(6) 0.2443(5)
C12 C 0.5332(8) 0.8595(6) 0.3009(5)
H5 H 0.5138 0.9277 0.3047
C13 C 0.5928(8) 0.7920(5) 0.3477(4)
H6 H 0.6202 0.8022 0.3912
C14 C 0.6051(9) 0.6983(5) 0.3154(5)
C15 C 0.6768(8) 0.6067(5) 0.3462(5)
C16 C 0.7272(8) 0.5219(5) 0.3091(4)
C17 C 0.8068(7) 0.4265(5) 0.3338(4)
H7 H 0.8332 0.4108 0.3792
C18 C 0.8359(8) 0.3651(6) 0.2801(4)
H8 H 0.8869 0.2982 0.2826
C19 C 0.7799(8) 0.4131(5) 0.2185(5)
C20 C 0.2135(8) 0.6209(5) -0.1548(5)
C21 C 0.3457(10) 0.5237(5) 0.1382(5)
C22 C 0.4095(10) 0.4543(6) 0.2328(5)
H9 H 0.4638 0.4324 0.2705
C23 C 0.2869(10) 0.4304(5) 0.2240(5)
H10 H 0.2395 0.3923 0.2545
C24 C 0.1021(8) 0.4886(4) 0.1393(4)
H11 H 0.0519 0.4458 0.1673
H12 H 0.1118 0.4717 0.0897
C25 C 0.0135(5) 0.5944(3) 0.1497(4)
C26 C -0.0085(6) 0.6332(5) 0.2157(3)
H13 H 0.0287 0.5937 0.2534
C27 C -0.0851(6) 0.7300(5) 0.2267(3)
H14 H -0.1001 0.7565 0.2718
C28 C -0.1396(5) 0.7879(3) 0.1715(4)
H15 H -0.1919 0.8540 0.1790
C29 C -0.1176(6) 0.7491(5) 0.1055(3)
H16 H -0.1549 0.7886 0.0679
C30 C -0.0410(6) 0.6524(5) 0.0946(2)
H17 H -0.0260 0.6258 0.0495
C31 C 0.4004(7) 0.9613(3) 0.1790(3)
C32 C 0.4859(6) 1.0005(5) 0.1295(3)
C33 C 0.4523(7) 1.1004(5) 0.1193(3)
C34 C 0.3334(8) 1.1609(3) 0.1586(4)
C35 C 0.2480(6) 1.1217(5) 0.2081(3)
C36 C 0.2815(7) 1.0218(5) 0.2183(3)
C37 C 0.7022(10) 0.6043(4) 0.4206(3)
C38 C 0.5891(7) 0.6045(4) 0.4727(5)
C39 C 0.6092(10) 0.6059(4) 0.5421(4)
C40 C 0.7424(12) 0.6072(4) 0.5594(3)
C41 C 0.8555(8) 0.6071(4) 0.5073(6)
C42 C 0.8354(8) 0.6056(4) 0.4379(5)
C43 C 0.1573(7) 0.7304(3) -0.1479(3)
C44 C 0.2379(5) 0.7906(5) -0.1784(3)
C45 C 0.1916(7) 0.8894(4) -0.1649(3)
C46 C 0.0646(7) 0.9279(3) -0.1210(3)
C47 C -0.0160(5) 0.8676(5) -0.0905(3)
C48 C 0.0303(6) 0.7689(4) -0.1040(3)
N1 N 0.2713(6) 0.6225(4) -0.0400(4)
N2 N 0.3885(6) 0.7094(4) 0.1417(3)
H34 H 0.4165 0.6695 0.1763
N3 N 0.5529(7) 0.7083(4) 0.2553(4)
N4 N 0.7156(6) 0.5099(4) 0.2408(3)
H35 H 0.6730 0.5572 0.2137
N5 N 0.4437(7) 0.5135(4) 0.1802(4)
N6 N 0.2450(8) 0.4740(4) 0.1604(4)
F1 F 0.3617(5) 0.7580(3) -0.2182(2)
F2 F 0.2690(5) 0.9473(3) -0.1918(3)
F3 F 0.0189(5) 1.0240(3) -0.1076(3)
F4 F -0.1389(5) 0.9058(3) -0.0486(2)
F5 F -0.0498(5) 0.7146(3) -0.0743(2)
F6 F 0.5984(5) 0.9441(3) 0.0916(2)
F7 F 0.5382(6) 1.1361(3) 0.0721(3)
F8 F 0.3060(6) 1.2564(3) 0.1467(3)
F9 F 0.1368(5) 1.1826(3) 0.2446(3)
F10 F 0.1986(5) 0.9895(3) 0.2647(3)
F11 F 0.4619(6) 0.6024(4) 0.4579(3)
F12 F 0.5015(7) 0.6056(5) 0.5920(3)
F13 F 0.7617(6) 0.6062(3) 0.6263(3)
F14 F 0.9802(6) 0.6079(4) 0.5260(3)
F15 F 0.9450(5) 0.6037(4) 0.3903(3)
C1A C 0.7411(8) 0.4279(6) 0.0925(5)
C2A C 0.7102(8) 0.5321(5) 0.0741(4)
H1A H 0.7096 0.5832 0.1033
C3A C 0.6836(8) 0.5397(5) 0.0088(4)
H2A H 0.6634 0.5975 -0.0185
C4A C 0.6910(8) 0.4414(6) -0.0141(5)
C5A C 0.6710(8) 0.4134(5) -0.0763(5)
C6A C 0.6582(8) 0.3168(5) -0.0856(4)
C7A C 0.7029(8) 0.2305(5) -0.0441(4)
H3A H 0.7430 0.2248 -0.0016
C8A C 0.6754(9) 0.1566(5) -0.0792(5)
H4A H 0.6963 0.0905 -0.0647
C9A C 0.6123(9) 0.1950(6) -0.1392(5)
C10A C 0.5674(8) 0.1475(5) -0.1887(5)
C11A C 0.4954(9) 0.1905(6) -0.2443(5)
C12A C 0.4668(8) 0.1405(6) -0.3009(5)
H5A H 0.4862 0.0723 -0.3047
C13A C 0.4072(8) 0.2080(5) -0.3477(4)
H6A H 0.3798 0.1978 -0.3912
C14A C 0.3949(9) 0.3017(5) -0.3154(5)
C15A C 0.3232(8) 0.3933(5) -0.3462(5)
C16A C 0.2728(8) 0.4781(5) -0.3091(4)
C17A C 0.1932(7) 0.5735(5) -0.3338(4)
H7A H 0.1668 0.5892 -0.3792
C18A C 0.1641(8) 0.6349(6) -0.2801(4)
H8A H 0.1131 0.7018 -0.2826
C19A C 0.2201(8) 0.5869(5) -0.2185(5)
C20A C 0.7865(8) 0.3791(5) 0.1548(5)
C21A C 0.6543(10) 0.4763(5) -0.1382(5)
C22A C 0.5905(10) 0.5457(6) -0.2328(5)
H9A H 0.5362 0.5676 -0.2705
C23A C 0.7131(10) 0.5696(5) -0.2240(5)
H10A H 0.7605 0.6077 -0.2545
C24A C 0.8979(8) 0.5114(4) -0.1393(4)
H11A H 0.9481 0.5542 -0.1673
H12A H 0.8882 0.5283 -0.0897
C25A C 0.9865(5) 0.4056(3) -0.1497(4)
C26A C 1.0085(6) 0.3668(5) -0.2157(3)
H13A H 0.9713 0.4063 -0.2534
C27A C 1.0851(6) 0.2700(5) -0.2267(3)
H14A H 1.1001 0.2435 -0.2718
C28A C 1.1396(5) 0.2121(3) -0.1715(4)
H15A H 1.1919 0.1460 -0.1790
C29A C 1.1176(6) 0.2509(5) -0.1055(3)
H16A H 1.1549 0.2114 -0.0679
C30A C 1.0410(6) 0.3476(5) -0.0946(2)
H17A H 1.0260 0.3742 -0.0495
C31A C 0.5996(7) 0.0387(3) -0.1790(3)
C32A C 0.5141(6) -0.0005(5) -0.1295(3)
C33A C 0.5477(7) -0.1004(5) -0.1193(3)
C34A C 0.6666(8) -0.1609(3) -0.1586(4)
C35A C 0.7520(6) -0.1217(5) -0.2081(3)
C36A C 0.7185(7) -0.0218(5) -0.2183(3)
C37A C 0.2978(10) 0.3957(4) -0.4206(3)
C38A C 0.4109(7) 0.3955(4) -0.4727(5)
C39A C 0.3908(10) 0.3941(4) -0.5421(4)
C40A C 0.2576(12) 0.3928(4) -0.5594(3)
C41A C 0.1445(8) 0.3929(4) -0.5073(6)
C42A C 0.1646(8) 0.3944(4) -0.4379(5)
C43A C 0.8427(7) 0.2696(3) 0.1479(3)
C44A C 0.7621(5) 0.2094(5) 0.1784(3)
C45A C 0.8084(7) 0.1106(4) 0.1649(3)
C46A C 0.9354(7) 0.0721(3) 0.1210(3)
C47A C 1.0160(5) 0.1324(5) 0.0905(3)
C48A C 0.9697(6) 0.2311(4) 0.1040(3)
N1A N 0.7287(6) 0.3775(4) 0.0400(4)
N2A N 0.6115(6) 0.2906(4) -0.1417(3)
H34A H 0.5835 0.3305 -0.1763
N3A N 0.4471(7) 0.2917(4) -0.2553(4)
N4A N 0.2844(6) 0.4901(4) -0.2408(3)
H35A H 0.3270 0.4428 -0.2137
N5A N 0.5563(7) 0.4865(4) -0.1802(4)
N6A N 0.7550(8) 0.5260(4) -0.1604(4)
F1A F 0.6383(5) 0.2420(3) 0.2182(2)
F2A F 0.7310(5) 0.0527(3) 0.1918(3)
F3A F 0.9811(5) -0.0240(3) 0.1076(3)
F4A F 1.1389(5) 0.0942(3) 0.0486(2)
F5A F 1.0498(5) 0.2854(3) 0.0743(2)
F6A F 0.4016(5) 0.0559(3) -0.0916(2)
F7A F 0.4618(6) -0.1361(3) -0.0721(3)
F8A F 0.6940(6) -0.2564(3) -0.1467(3)
F9A F 0.8632(5) -0.1826(3) -0.2446(3)
F10A F 0.8014(5) 0.0105(3) -0.2647(3)
F11A F 0.5381(6) 0.3976(4) -0.4579(3)
F12A F 0.4985(7) 0.3944(5) -0.5920(3)
F13A F 0.2383(6) 0.3938(3) -0.6263(3)
F14A F 0.0198(6) 0.3921(4) -0.5260(3)
F15A F 0.0550(5) 0.3963(4) -0.3903(3)
C49 C 0.7891(14) 0.2831(12) 0.6584(6)
H18 H 0.8304 0.3319 0.6737
H19 H 0.8108 0.2259 0.6889
H20 H 0.6842 0.3101 0.6603
C50 C 0.8515(14) 0.2555(10) 0.5872(9)
H21 H 0.8312 0.3156 0.5585
H22 H 0.9575 0.2325 0.5869
C51 C 0.8120(16) 0.1858(9) 0.5521(8)
H23 H 0.7051 0.2060 0.5568
H24 H 0.8402 0.1245 0.5791
C52 C 0.8611(17) 0.1612(10) 0.4804(10)
H25 H 0.8322 0.2239 0.4552
H26 H 0.9676 0.1440 0.4773
C53 C 0.8377(15) 0.0989(11) 0.4396(8)
H27 H 0.7310 0.1163 0.4437
H28 H 0.8667 0.0367 0.4654
C54 C 0.8823(16) 0.0706(10) 0.3677(9)
H29 H 0.8282 0.1241 0.3392
H30 H 0.9854 0.0687 0.3572
C55 C 0.8691(12) -0.0183(10) 0.3415(6)
H31 H 0.9052 -0.0235 0.2918
H32 H 0.7674 -0.0179 0.3484
H33 H 0.9258 -0.0737 0.3666
C56? C 0.5644(19) -0.1670(11) 0.6621(9)
H36? H 0.5870 -0.1776 0.7100
H37? H 0.4713 -0.1176 0.6613
H38? H 0.5590 -0.2278 0.6437
C57? C 0.684(3) -0.132(3) 0.617(2)
H39? H 0.6905 -0.0714 0.6356
H40? H 0.7779 -0.1818 0.6175
C58? C 0.644(4) -0.115(2) 0.5379(15)
H41? H 0.7295 -0.1123 0.5047
H42? H 0.6044 -0.1658 0.5238
C59? C 0.479(3) 0.0085(15) 0.4575(17)
H43? H 0.4356 -0.0420 0.4460
H44? H 0.5583 0.0105 0.4202
C60? C 0.539(4) -0.016(2) 0.525(2)
H45? H 0.4576 0.0046 0.5631
H46? H 0.6059 0.0228 0.5288
C61? C 0.383(5) 0.121(3) 0.461(2)
H47? H 0.4544 0.1584 0.4583
H48? H 0.3111 0.1440 0.5019
C62? C 0.308(4) 0.146(3) 0.399(2)
H49? H 0.2603 0.2159 0.3984
H50? H 0.3782 0.1287 0.3572
H51? H 0.2358 0.1106 0.4003
loop_
_geom_bond_atom_site_label_1
_geom_bond_atom_site_label_2
_geom_bond_site_symmetry_1
_geom_bond_site_symmetry_2
C1 C2 1_555 1_555
C2 H1 1_555 1_555
C3 C2 1_555 1_555
H2 C3 1_555 1_555
C4 C3 1_555 1_555
C5 C4 1_555 1_555
C6 C5 1_555 1_555
C7 C6 1_555 1_555
H3 C7 1_555 1_555
C8 C7 1_555 1_555
H4 C8 1_555 1_555
C9 C8 1_555 1_555
C10 C9 1_555 1_555
C11 C10 1_555 1_555
C12 C11 1_555 1_555
H5 C12 1_555 1_555
C13 C12 1_555 1_555
H6 C13 1_555 1_555
C14 C13 1_555 1_555
C15 C14 1_555 1_555
C16 C15 1_555 1_555
C17 C16 1_555 1_555
H7 C17 1_555 1_555
C18 C17 1_555 1_555
H8 C18 1_555 1_555
C19 C18 1_555 1_555
C20 C1 1_555 1_555
C21 C5 1_555 1_555
C22 H9 1_555 1_555
C23 C22 1_555 1_555
H10 C23 1_555 1_555
C24 H11 1_555 1_555
H12 C24 1_555 1_555
C25 C24 1_555 1_555
C26 C25 1_555 1_555
H13 C26 1_555 1_555
C27 C26 1_555 1_555
H14 C27 1_555 1_555
C28 C27 1_555 1_555
H15 C28 1_555 1_555
C29 C28 1_555 1_555
H16 C29 1_555 1_555
C30 C25 1_555 1_555
H17 C30 1_555 1_555
C31 C10 1_555 1_555
C32 C31 1_555 1_555
C33 C32 1_555 1_555
C34 C33 1_555 1_555
C35 C34 1_555 1_555
C36 C31 1_555 1_555
C37 C15 1_555 1_555
C38 C37 1_555 1_555
C39 C38 1_555 1_555
C40 C39 1_555 1_555
C41 C40 1_555 1_555
C42 C37 1_555 1_555
C43 C20 1_555 1_555
C44 C43 1_555 1_555
C45 C44 1_555 1_555
C46 C45 1_555 1_555
C47 C46 1_555 1_555
C48 C43 1_555 1_555
C49 H18 1_555 1_555
H19 C49 1_555 1_555
H20 C49 1_555 1_555
C50 C49 1_555 1_555
H21 C50 1_555 1_555
H22 C50 1_555 1_555
C51 C50 1_555 1_555
H23 C51 1_555 1_555
H24 C51 1_555 1_555
C52 C51 1_555 1_555
H25 C52 1_555 1_555
H26 C52 1_555 1_555
C53 C52 1_555 1_555
H27 C53 1_555 1_555
H28 C53 1_555 1_555
C54 C53 1_555 1_555
H29 C54 1_555 1_555
H30 C54 1_555 1_555
C55 C54 1_555 1_555
H31 C55 1_555 1_555
H32 C55 1_555 1_555
H33 C55 1_555 1_555
N1 C1 1_555 1_555
N2 C6 1_555 1_555
H34 N2 1_555 1_555
N3 C11 1_555 1_555
N4 C16 1_555 1_555
H35 N4 1_555 1_555
N5 C21 1_555 1_555
N6 C21 1_555 1_555
F1 C44 1_555 1_555
F2 C45 1_555 1_555
F3 C46 1_555 1_555
F4 C47 1_555 1_555
F5 C48 1_555 1_555
F6 C32 1_555 1_555
F7 C33 1_555 1_555
F8 C34 1_555 1_555
F9 C35 1_555 1_555
F10 C36 1_555 1_555
F11 C38 1_555 1_555
F12 C39 1_555 1_555
F13 C40 1_555 1_555
F14 C41 1_555 1_555
F15 C42 1_555 1_555
C1A C2A 1_555 1_555
C2A H1A 1_555 1_555
C3A C2A 1_555 1_555
H2A C3A 1_555 1_555
C4A C3A 1_555 1_555
C5A C4A 1_555 1_555
C6A C5A 1_555 1_555
C7A C6A 1_555 1_555
H3A C7A 1_555 1_555
C8A C7A 1_555 1_555
H4A C8A 1_555 1_555
C9A C8A 1_555 1_555
C10A C9A 1_555 1_555
C11A C10A 1_555 1_555
C12A C11A 1_555 1_555
H5A C12A 1_555 1_555
C13A C12A 1_555 1_555
H6A C13A 1_555 1_555
C14A C13A 1_555 1_555
C15A C14A 1_555 1_555
C16A C15A 1_555 1_555
C17A C16A 1_555 1_555
H7A C17A 1_555 1_555
C18A C17A 1_555 1_555
H8A C18A 1_555 1_555
C19A C20 1_555 1_555
C20A C19 1_555 1_555
C21A C5A 1_555 1_555
C22A H9A 1_555 1_555
C23A C22A 1_555 1_555
H10A C23A 1_555 1_555
C24A H11A 1_555 1_555
H12A C24A 1_555 1_555
C25A C24A 1_555 1_555
C26A C25A 1_555 1_555
H13A C26A 1_555 1_555
C27A C26A 1_555 1_555
H14A C27A 1_555 1_555
C28A C27A 1_555 1_555
H15A C28A 1_555 1_555
C29A C28A 1_555 1_555
H16A C29A 1_555 1_555
C30A C25A 1_555 1_555
H17A C30A 1_555 1_555
C31A C10A 1_555 1_555
C32A C31A 1_555 1_555
C33A C32A 1_555 1_555
C34A C33A 1_555 1_555
C35A C34A 1_555 1_555
C36A C31A 1_555 1_555
C37A C15A 1_555 1_555
C38A C37A 1_555 1_555
C39A C38A 1_555 1_555
C40A C39A 1_555 1_555
C41A C40A 1_555 1_555
C42A C37A 1_555 1_555
C43A C20A 1_555 1_555
C44A C43A 1_555 1_555
C45A C44A 1_555 1_555
C46A C45A 1_555 1_555
C47A C46A 1_555 1_555
C48A C43A 1_555 1_555
N1A C1A 1_555 1_555
N2A C6A 1_555 1_555
H34A N2A 1_555 1_555
N3A C11A 1_555 1_555
N4A C16A 1_555 1_555
H35A N4A 1_555 1_555
N5A C21A 1_555 1_555
N6A C21A 1_555 1_555
F1A C44A 1_555 1_555
F2A C45A 1_555 1_555
F3A C46A 1_555 1_555
F4A C47A 1_555 1_555
F5A C48A 1_555 1_555
F6A C32A 1_555 1_555
F7A C33A 1_555 1_555
F8A C34A 1_555 1_555
F9A C35A 1_555 1_555
F10A C36A 1_555 1_555
F11A C38A 1_555 1_555
F12A C39A 1_555 1_555
F13A C40A 1_555 1_555
F14A C41A 1_555 1_555
F15A C42A 1_555 1_555
C4 N1 1_555 1_555
C9 N2 1_555 1_555
C14 N3 1_555 1_555
C19 N4 1_555 1_555
C22 N5 1_555 1_555
C23 N6 1_555 1_555
C24 N6 1_555 1_555
C29 C30 1_555 1_555
C35 C36 1_555 1_555
C41 C42 1_555 1_555
C47 C48 1_555 1_555
C1A C20A 1_555 1_555
C4A N1A 1_555 1_555
C9A N2A 1_555 1_555
C14A N3A 1_555 1_555
C18A C19A 1_555 1_555
C19A N4A 1_555 1_555
C22A N5A 1_555 1_555
C23A N6A 1_555 1_555
C24A N6A 1_555 1_555
C29A C30A 1_555 1_555
C35A C36A 1_555 1_555
C41A C42A 1_555 1_555
C47A C48A 1_555 1_555

#END
