
#######################################################################
#
#                 Cambridge Crystallographic Data Centre
#                                CCDC 
#
#######################################################################
#
# If this CIF has been generated from an entry in the Cambridge 
# Structural Database, then it will include bibliographic, chemical, 
# crystal, experimental, refinement or atomic coordinate data resulting 
# from the CCDC's data processing and validation procedures.
#
#######################################################################

data_NERNIJ
_chemical_name_common            
7,22-bis(1-Benzyl-1H-imidazol-2-yl)-2,12,17,27-tetrakis(pentafluorophenyl)-31,32,33,34,35,36-hexaazaheptacyclo[26.2.1.1$3,6!.1$8,11!.1$13,16!.1$18,21!.1$23,26!]hexatriaconta-1(31),2,4,6,8,10,12,14,16(34),17,19,21,23,25,27,29-hexadecaene
_chemical_formula_moiety         'C74 H34 F20 N10'
_chemical_name_systematic        
5,20-bis(1-Benzylimidazol-2-yl)-10,15,25,30-tetrakis(pentafluorophenyl)hexaphyrin(1.1.1.1.1.1)
_symmetry_cell_setting           monoclinic
_symmetry_space_group_name_H-M   'P 21/n'
_symmetry_Int_Tables_number      14
_space_group_name_Hall           '-P 2yn'
loop_
_symmetry_equiv_pos_site_id
_symmetry_equiv_pos_as_xyz
1 x,y,z
2 1/2-x,1/2+y,1/2-z
3 -x,-y,-z
4 1/2+x,1/2-y,1/2+z
_cell_length_a                   13.3787(2)
_cell_length_b                   12.5111(2)
_cell_length_c                   18.1373(3)
_cell_angle_alpha                90
_cell_angle_beta                 104.0018(11)
_cell_angle_gamma                90
_cell_volume                     2945.66
_cell_formula_units_Z            2
loop_
_atom_site_label
_atom_site_type_symbol
_atom_site_fract_x
_atom_site_fract_y
_atom_site_fract_z
F1 F -0.07687(19) 0.68322(19) 0.20263(15)
F2 F -0.15689(19) 0.5487(2) 0.28874(15)
F3 F -0.0782(2) 0.5402(2) 0.44068(16)
F4 F 0.0810(2) 0.6731(2) 0.50753(15)
F5 F 0.15734(19) 0.81104(19) 0.42243(14)
F6 F 0.5294(2) 0.8520(2) 0.17575(17)
F7 F 0.7115(2) 0.7568(3) 0.18742(19)
F8 F 0.7200(2) 0.5524(2) 0.13416(17)
F9 F 0.5427(2) 0.4460(2) 0.07559(16)
F10 F 0.36037(19) 0.54021(19) 0.06421(16)
N1 N 0.1878(3) 0.8305(3) 0.0225(2)
H1 H 0.1589 0.8574 0.0572
N2 N 0.0443(3) 0.9731(3) 0.1701(2)
H2 H 0.1034 0.9767 0.1570
N3 N 0.2057(3) 0.8189(3) 0.1757(2)
N4 N 0.1143(3) 1.0578(3) 0.0533(2)
N5 N 0.0527(3) 1.2152(3) 0.0034(2)
C1 C 0.2808(3) 0.7790(3) 0.0383(3)
C2 C 0.2998(3) 0.7517(3) -0.0317(3)
H3 H 0.3593 0.7161 -0.0392
C3 C 0.2155(3) 0.7860(3) -0.0890(3)
H4 H 0.2075 0.7775 -0.1421
C4 C 0.1457(3) 0.8350(3) -0.0538(3)
C5 C -0.0469(3) 1.1128(3) 0.0833(2)
C6 C -0.0397(3) 1.0382(3) 0.1404(2)
C7 C -0.1178(3) 1.0060(3) 0.1792(2)
H5 H -0.1848 1.0360 0.1712
C8 C -0.0804(3) 0.9271(3) 0.2280(3)
H6 H -0.1160 0.8930 0.2608
C9 C 0.0240(3) 0.9023(3) 0.2224(2)
C10 C 0.0874(3) 0.8235(3) 0.2589(2)
C11 C 0.1839(3) 0.7954(3) 0.2423(3)
C12 C 0.2665(3) 0.7328(3) 0.2907(3)
H7 H 0.2683 0.7058 0.3399
C13 C 0.3400(3) 0.7211(3) 0.2515(3)
H8 H 0.4050 0.6873 0.2689
C14 C 0.3002(3) 0.7702(3) 0.1778(2)
C15 C 0.3366(3) 0.7541(3) 0.1137(3)
C16 C 0.0388(3) 1.1287(3) 0.0482(2)
C17 C 0.1788(3) 1.0981(3) 0.0111(3)
H9 H 0.2393 1.0640 0.0043
C18 C 0.1425(3) 1.1944(3) -0.0194(3)
H10 H 0.1730 1.2388 -0.0505
C19 C 0.0048(4) 1.3224(3) -0.0070(3)
H11 H -0.0710 1.3150 -0.0172
H12 H 0.0213 1.3576 -0.0515
C20 C 0.0428(4) 1.3909(3) 0.0626(3)
C21 C 0.1391(4) 1.4378(3) 0.0782(3)
H13 H 0.1809 1.4302 0.0430
C22 C 0.1759(4) 1.4961(4) 0.1445(3)
H14 H 0.2422 1.5282 0.1542
C23 C 0.1161(5) 1.5072(4) 0.1964(3)
H15 H 0.1421 1.5442 0.2429
C24 C 0.0180(5) 1.4641(4) 0.1801(3)
H16 H -0.0247 1.4742 0.2145
C25 C -0.0183(4) 1.4060(4) 0.1138(3)
H17 H -0.0856 1.3763 0.1032
C26 C 0.0461(3) 0.7498(3) 0.3087(2)
C27 C 0.0824(3) 0.7448(3) 0.3872(3)
C28 C 0.0428(4) 0.6743(4) 0.4313(3)
C29 C -0.0369(4) 0.6076(4) 0.3982(3)
C30 C -0.0773(3) 0.6119(3) 0.3216(3)
C31 C -0.0354(3) 0.6820(3) 0.2781(3)
C32 C 0.4379(3) 0.7000(3) 0.1215(2)
C33 C 0.5295(4) 0.7504(4) 0.1520(3)
C34 C 0.6240(3) 0.7025(4) 0.1577(3)
C35 C 0.6290(3) 0.6007(4) 0.1299(3)
C36 C 0.5396(4) 0.5467(3) 0.1003(3)
C37 C 0.4460(3) 0.5953(3) 0.0955(2)
F1B F 0.07687(19) 1.31678(19) -0.20263(15)
F2B F 0.15689(19) 1.4513(2) -0.28874(15)
F3B F 0.0782(2) 1.4598(2) -0.44068(16)
F4B F -0.0810(2) 1.3269(2) -0.50753(15)
F5B F -0.15734(19) 1.18896(19) -0.42243(14)
F6B F -0.5294(2) 1.1480(2) -0.17575(17)
F7B F -0.7115(2) 1.2432(3) -0.18742(19)
F8B F -0.7200(2) 1.4476(2) -0.13416(17)
F9B F -0.5427(2) 1.5540(2) -0.07559(16)
F10B F -0.36037(19) 1.45979(19) -0.06421(16)
N1B N -0.1878(3) 1.1695(3) -0.0225(2)
H1B H -0.1589 1.1426 -0.0572
N2B N -0.0443(3) 1.0269(3) -0.1701(2)
H2B H -0.1034 1.0233 -0.1570
N3B N -0.2057(3) 1.1811(3) -0.1757(2)
N4B N -0.1143(3) 0.9422(3) -0.0533(2)
N5B N -0.0527(3) 0.7848(3) -0.0034(2)
C1B C -0.2808(3) 1.2210(3) -0.0383(3)
C2B C -0.2998(3) 1.2483(3) 0.0317(3)
H3B H -0.3593 1.2839 0.0392
C3B C -0.2155(3) 1.2140(3) 0.0890(3)
H4B H -0.2075 1.2225 0.1421
C4B C -0.1457(3) 1.1650(3) 0.0538(3)
C5B C 0.0469(3) 0.8872(3) -0.0833(2)
C6B C 0.0397(3) 0.9618(3) -0.1404(2)
C7B C 0.1178(3) 0.9940(3) -0.1792(2)
H5B H 0.1848 0.9640 -0.1712
C8B C 0.0804(3) 1.0729(3) -0.2280(3)
H6B H 0.1160 1.1070 -0.2608
C9B C -0.0240(3) 1.0977(3) -0.2224(2)
C10B C -0.0874(3) 1.1765(3) -0.2589(2)
C11B C -0.1839(3) 1.2046(3) -0.2423(3)
C12B C -0.2665(3) 1.2672(3) -0.2907(3)
H7B H -0.2683 1.2942 -0.3399
C13B C -0.3400(3) 1.2789(3) -0.2515(3)
H8B H -0.4050 1.3127 -0.2689
C14B C -0.3002(3) 1.2298(3) -0.1778(2)
C15B C -0.3366(3) 1.2459(3) -0.1137(3)
C16B C -0.0388(3) 0.8713(3) -0.0482(2)
C17B C -0.1788(3) 0.9019(3) -0.0111(3)
H9B H -0.2393 0.9360 -0.0043
C18B C -0.1425(3) 0.8056(3) 0.0194(3)
H10B H -0.1730 0.7612 0.0505
C19B C -0.0048(4) 0.6776(3) 0.0070(3)
H11B H 0.0710 0.6850 0.0172
H12B H -0.0213 0.6424 0.0515
C20B C -0.0428(4) 0.6091(3) -0.0626(3)
C21B C -0.1391(4) 0.5622(3) -0.0782(3)
H13B H -0.1809 0.5698 -0.0430
C22B C -0.1759(4) 0.5039(4) -0.1445(3)
H14B H -0.2422 0.4718 -0.1542
C23B C -0.1161(5) 0.4928(4) -0.1964(3)
H15B H -0.1421 0.4558 -0.2429
C24B C -0.0180(5) 0.5359(4) -0.1801(3)
H16B H 0.0247 0.5258 -0.2145
C25B C 0.0183(4) 0.5940(4) -0.1138(3)
H17B H 0.0856 0.6237 -0.1032
C26B C -0.0461(3) 1.2502(3) -0.3087(2)
C27B C -0.0824(3) 1.2552(3) -0.3872(3)
C28B C -0.0428(4) 1.3257(4) -0.4313(3)
C29B C 0.0369(4) 1.3924(4) -0.3982(3)
C30B C 0.0773(3) 1.3881(3) -0.3216(3)
C31B C 0.0354(3) 1.3180(3) -0.2781(3)
C32B C -0.4379(3) 1.3000(3) -0.1215(2)
C33B C -0.5295(4) 1.2496(4) -0.1520(3)
C34B C -0.6240(3) 1.2975(4) -0.1577(3)
C35B C -0.6290(3) 1.3993(4) -0.1299(3)
C36B C -0.5396(4) 1.4533(3) -0.1003(3)
C37B C -0.4460(3) 1.4047(3) -0.0955(2)
loop_
_geom_bond_atom_site_label_1
_geom_bond_atom_site_label_2
_geom_bond_site_symmetry_1
_geom_bond_site_symmetry_2
F1 C31 1_555 1_555
F2 C30 1_555 1_555
F3 C29 1_555 1_555
F4 C28 1_555 1_555
F5 C27 1_555 1_555
F6 C33 1_555 1_555
F7 C34 1_555 1_555
F8 C35 1_555 1_555
F9 C36 1_555 1_555
F10 C37 1_555 1_555
N1 H1 1_555 1_555
N2 H2 1_555 1_555
N3 C11 1_555 1_555
N4 C16 1_555 1_555
N5 C16 1_555 1_555
C1 N1 1_555 1_555
C2 C1 1_555 1_555
H3 C2 1_555 1_555
C3 C2 1_555 1_555
H4 C3 1_555 1_555
C4 N1 1_555 1_555
C5 C6 1_555 1_555
C6 N2 1_555 1_555
C7 C6 1_555 1_555
H5 C7 1_555 1_555
C8 C7 1_555 1_555
H6 C8 1_555 1_555
C9 N2 1_555 1_555
C10 C9 1_555 1_555
C11 C10 1_555 1_555
C12 C11 1_555 1_555
H7 C12 1_555 1_555
C13 C12 1_555 1_555
H8 C13 1_555 1_555
C14 N3 1_555 1_555
C15 C1 1_555 1_555
C16 C5 1_555 1_555
C17 N4 1_555 1_555
H9 C17 1_555 1_555
C18 N5 1_555 1_555
H10 C18 1_555 1_555
C19 N5 1_555 1_555
H11 C19 1_555 1_555
H12 C19 1_555 1_555
C20 C19 1_555 1_555
C21 C20 1_555 1_555
H13 C21 1_555 1_555
C22 C21 1_555 1_555
H14 C22 1_555 1_555
C23 C22 1_555 1_555
H15 C23 1_555 1_555
C24 C23 1_555 1_555
H16 C24 1_555 1_555
C25 C20 1_555 1_555
H17 C25 1_555 1_555
C26 C10 1_555 1_555
C27 C26 1_555 1_555
C28 C27 1_555 1_555
C29 C28 1_555 1_555
C30 C29 1_555 1_555
C31 C26 1_555 1_555
C32 C15 1_555 1_555
C33 C32 1_555 1_555
C34 C33 1_555 1_555
C35 C34 1_555 1_555
C36 C35 1_555 1_555
C37 C32 1_555 1_555
F1B C31B 1_555 1_555
F2B C30B 1_555 1_555
F3B C29B 1_555 1_555
F4B C28B 1_555 1_555
F5B C27B 1_555 1_555
F6B C33B 1_555 1_555
F7B C34B 1_555 1_555
F8B C35B 1_555 1_555
F9B C36B 1_555 1_555
F10B C37B 1_555 1_555
N1B H1B 1_555 1_555
N2B H2B 1_555 1_555
N3B C11B 1_555 1_555
N4B C16B 1_555 1_555
N5B C16B 1_555 1_555
C1B N1B 1_555 1_555
C2B C1B 1_555 1_555
H3B C2B 1_555 1_555
C3B C2B 1_555 1_555
H4B C3B 1_555 1_555
C4B C5 1_555 1_555
C5B C4 1_555 1_555
C6B N2B 1_555 1_555
C7B C6B 1_555 1_555
H5B C7B 1_555 1_555
C8B C7B 1_555 1_555
H6B C8B 1_555 1_555
C9B N2B 1_555 1_555
C10B C9B 1_555 1_555
C11B C10B 1_555 1_555
C12B C11B 1_555 1_555
H7B C12B 1_555 1_555
C13B C12B 1_555 1_555
H8B C13B 1_555 1_555
C14B N3B 1_555 1_555
C15B C1B 1_555 1_555
C16B C5B 1_555 1_555
C17B N4B 1_555 1_555
H9B C17B 1_555 1_555
C18B N5B 1_555 1_555
H10B C18B 1_555 1_555
C19B N5B 1_555 1_555
H11B C19B 1_555 1_555
H12B C19B 1_555 1_555
C20B C19B 1_555 1_555
C21B C20B 1_555 1_555
H13B C21B 1_555 1_555
C22B C21B 1_555 1_555
H14B C22B 1_555 1_555
C23B C22B 1_555 1_555
H15B C23B 1_555 1_555
C24B C23B 1_555 1_555
H16B C24B 1_555 1_555
C25B C20B 1_555 1_555
H17B C25B 1_555 1_555
C26B C10B 1_555 1_555
C27B C26B 1_555 1_555
C28B C27B 1_555 1_555
C29B C28B 1_555 1_555
C30B C29B 1_555 1_555
C31B C26B 1_555 1_555
C32B C15B 1_555 1_555
C33B C32B 1_555 1_555
C34B C33B 1_555 1_555
C35B C34B 1_555 1_555
C36B C35B 1_555 1_555
C37B C32B 1_555 1_555
C3 C4 1_555 1_555
C8 C9 1_555 1_555
C13 C14 1_555 1_555
C14 C15 1_555 1_555
C17 C18 1_555 1_555
C24 C25 1_555 1_555
C30 C31 1_555 1_555
C36 C37 1_555 1_555
N1B C4B 1_555 1_555
C3B C4B 1_555 1_555
C5B C6B 1_555 1_555
C8B C9B 1_555 1_555
C13B C14B 1_555 1_555
C14B C15B 1_555 1_555
C17B C18B 1_555 1_555
C24B C25B 1_555 1_555
C30B C31B 1_555 1_555
C36B C37B 1_555 1_555

#END
