
#######################################################################
#
#                 Cambridge Crystallographic Data Centre
#                                CCDC 
#
#######################################################################
#
# If this CIF has been generated from an entry in the Cambridge 
# Structural Database, then it will include bibliographic, chemical, 
# crystal, experimental, refinement or atomic coordinate data resulting 
# from the CCDC's data processing and validation procedures.
#
#######################################################################

data_NERNUV
_chemical_name_common            
'12,32-bis(1-(4-Methoxybenzyl)-1H-imidazol-2-yl)-2,7,17,22,27,37-hexakis(pentafluorophenyl)-41,42,43,44,45,46,47,48-octaazanonacyclo[36.2.1.1$3,6!.1$8,11!.1$13,16!.1$18,21!.1$23,26!.1$28,31!.1$33,36!]octatetraconta-1(41),2,4,6,8(47),9,11,13,15,17,19,21(45),22,24,26,28(43),29,31,33,35,37,39-docosaene dichloromethane n-hexane solvate'
_chemical_formula_moiety         
'C98 H42 F30 N12 O2,3.48(C6 H14),1.1(C1 H2 Cl2)'
_chemical_name_systematic        
'5,25-bis(1-(4-Methoxybenzyl)imidazol-2-yl)-10,15,20,30,35,40-hexakis(pentafluorophenyl)octaphyrin(1.1.1.1.1.1.1.1) dichloromethane n-hexane solvate'
_symmetry_cell_setting           triclinic
_symmetry_space_group_name_H-M   'P -1'
_symmetry_Int_Tables_number      2
_space_group_name_Hall           '-P 1'
loop_
_symmetry_equiv_pos_site_id
_symmetry_equiv_pos_as_xyz
1 x,y,z
2 -x,-y,-z
_cell_length_a                   10.3148(9)
_cell_length_b                   14.5506(14)
_cell_length_c                   19.2425(17)
_cell_angle_alpha                86.188(4)
_cell_angle_beta                 89.206(4)
_cell_angle_gamma                73.911(4)
_cell_volume                     2768.75
_cell_formula_units_Z            1
loop_
_atom_site_label
_atom_site_type_symbol
_atom_site_fract_x
_atom_site_fract_y
_atom_site_fract_z
F1 F -0.5095(5) 1.4796(3) 0.3017(3)
F2 F -0.6192(5) 1.6702(3) 0.2887(3)
F3 F -0.8742(4) 1.7435(2) 0.23896(19)
F4 F -1.0138(5) 1.6239(3) 0.2014(2)
F5 F -0.9061(4) 1.4334(3) 0.2148(2)
F6 F -0.1087(5) 1.0997(4) 0.0740(2)
F7 F -0.0423(5) 1.1068(4) -0.0607(2)
F8 F -0.2216(5) 1.1102(3) -0.15932(19)
F9 F -0.4753(7) 1.1098(5) -0.1219(2)
F10 F -0.5445(6) 1.1034(4) 0.0131(2)
F11 F -0.6266(5) 1.2615(3) 0.7219(2)
F12 F -0.7162(5) 1.4509(3) 0.6936(2)
F13 F -0.9463(4) 1.5261(3) 0.6163(2)
F14 F -1.0835(5) 1.4101(3) 0.5728(2)
F15 F -0.9967(4) 1.2202(3) 0.60199(18)
C1 C -0.7143(7) 1.0747(4) 0.6130(3)
C2 C -0.6872(6) 0.9719(4) 0.6038(3)
H1 H -0.6852 0.9223 0.6388
C3 C -0.6658(7) 0.9625(4) 0.5352(3)
H2 H -0.6437 0.9043 0.5123
C4 C -0.6827(6) 1.0572(4) 0.5030(3)
C5 C -0.6730(6) 1.0844(4) 0.4333(3)
C6 C -0.6810(7) 1.1808(4) 0.4080(3)
C7 C -0.7309(7) 1.2694(5) 0.4385(3)
H3 H -0.7620 1.2776 0.4850
C8 C -0.7270(7) 1.3408(4) 0.3901(3)
H4 H -0.7583 1.4075 0.3964
C9 C -0.6688(7) 1.2993(4) 0.3291(3)
C10 C -0.6417(7) 1.3428(4) 0.2667(3)
C11 C -0.5664(7) 1.3001(4) 0.2105(3)
C12 C -0.5527(7) 1.3477(4) 0.1443(3)
H5 H -0.5889 1.4138 0.1310
C13 C -0.4771(7) 1.2786(4) 0.1044(3)
H6 H -0.4488 1.2873 0.0579
C14 C -0.4487(7) 1.1900(4) 0.1468(3)
C15 C -0.3673(7) 1.1014(4) 0.1243(3)
C16 C -0.3148(7) 1.0201(4) 0.1625(3)
C17 C -0.2351(7) 0.9265(4) 0.1412(3)
H7 H -0.2098 0.9123 0.0946
C18 C -0.2036(7) 0.8648(5) 0.1955(3)
H8 H -0.1506 0.8001 0.1943
C19 C -0.2634(6) 0.9119(4) 0.2589(3)
C20 C -0.7540(6) 1.1270(4) 0.6747(3)
C21 C -0.6596(8) 1.0125(5) 0.3800(3)
C22 C -0.7020(8) 0.9018(4) 0.3190(3)
H9 H -0.7407 0.8557 0.3018
C23 C -0.5986(8) 0.9312(5) 0.2910(4)
H10 H -0.5499 0.9059 0.2511
C24 C -0.7030(9) 1.4493(5) 0.2579(3)
C25 C -0.8316(9) 1.4904(5) 0.2329(3)
C26 C -0.8879(9) 1.5869(6) 0.2274(3)
C27 C -0.8165(11) 1.6477(5) 0.2457(4)
C28 C -0.6884(11) 1.6104(6) 0.2715(4)
C29 C -0.6366(9) 1.5136(6) 0.2762(4)
C30 C -0.3292(10) 1.1010(4) 0.0487(4)
C31 C -0.4147(11) 1.1012(6) -0.0031(4)
C32 C -0.3840(13) 1.1050(7) -0.0727(4)
C33 C -0.2568(12) 1.1089(5) -0.0923(4)
C34 C -0.1670(11) 1.1056(5) -0.0421(5)
C35 C -0.2045(10) 1.1027(5) 0.0257(4)
C36 C -0.8081(9) 1.2315(5) 0.6623(3)
C37 C -0.7419(9) 1.2963(6) 0.6838(4)
C38 C -0.7855(10) 1.3913(6) 0.6700(4)
C39 C -0.8998(11) 1.4327(5) 0.6314(4)
C40 C -0.9689(9) 1.3710(6) 0.6098(4)
C41 C -0.9229(9) 1.2768(5) 0.6241(3)
N1 N -0.7117(5) 1.1241(3) 0.5532(3)
N2 N -0.6435(5) 1.2024(3) 0.3422(2)
H11 H -0.6078 1.1596 0.3120
N3 N -0.5016(5) 1.2007(3) 0.2120(2)
N4 N -0.3292(5) 1.0040(3) 0.2348(2)
H12 H -0.3753 1.0482 0.2617
N5 N -0.5717(5) 1.0032(3) 0.3277(2)
N6 N -0.7412(7) 0.9530(4) 0.3787(2)
C42 C -1.246(5) 1.343(2) 0.2267(14)
H13 H -1.2973 1.4094 0.2158
H14 H -1.1635 1.3274 0.1989
H15 H -1.3012 1.3003 0.2157
O1 O -1.2115(11) 1.3287(7) 0.3000(6)
C43 C -0.879(2) 0.965(2) 0.4055(17)
H16 H -0.9137 0.9120 0.3899
H17 H -0.8770 0.9594 0.4570
C44 C -1.0136(14) 1.1415(9) 0.4203(5)
H18 H -0.9822 1.1358 0.4670
C45 C -1.0954(12) 1.2285(7) 0.3925(6)
H19 H -1.1198 1.2823 0.4201
C46 C -1.1414(12) 1.2368(6) 0.3242(6)
C47 C -1.1056(12) 1.1581(8) 0.2837(5)
H20 H -1.1370 1.1637 0.2370
C48 C -1.0238(14) 1.0710(7) 0.3115(6)
H21 H -0.9994 1.0172 0.2838
C49 C -0.9778(16) 1.0628(7) 0.3798(6)
F1A F -0.4905(5) 0.5204(3) 0.6983(3)
F2A F -0.3808(5) 0.3298(3) 0.7113(3)
F3A F -0.1258(4) 0.2565(2) 0.76104(19)
F4A F 0.0138(5) 0.3761(3) 0.7986(2)
F5A F -0.0939(4) 0.5666(3) 0.7852(2)
F6A F -0.8913(5) 0.9003(4) 0.9260(2)
F7A F -0.9577(5) 0.8932(4) 1.0607(2)
F8A F -0.7784(5) 0.8898(3) 1.15932(19)
F9A F -0.5247(7) 0.8902(5) 1.1219(2)
F10A F -0.4555(6) 0.8966(4) 0.9869(2)
F11A F -0.3734(5) 0.7385(3) 0.2781(2)
F12A F -0.2838(5) 0.5491(3) 0.3064(2)
F13A F -0.0537(4) 0.4739(3) 0.3837(2)
F14A F 0.0835(5) 0.5899(3) 0.4272(2)
F15A F -0.0033(4) 0.7798(3) 0.39801(18)
C1A C -0.2857(7) 0.9253(4) 0.3870(3)
C2A C -0.3128(6) 1.0281(4) 0.3962(3)
H1A H -0.3148 1.0777 0.3612
C3A C -0.3342(7) 1.0375(4) 0.4648(3)
H2A H -0.3563 1.0957 0.4877
C4A C -0.3173(6) 0.9428(4) 0.4970(3)
C5A C -0.3270(6) 0.9156(4) 0.5667(3)
C6A C -0.3190(7) 0.8192(4) 0.5920(3)
C7A C -0.2691(7) 0.7306(5) 0.5615(3)
H3A H -0.2380 0.7224 0.5150
C8A C -0.2730(7) 0.6592(4) 0.6099(3)
H4A H -0.2417 0.5925 0.6036
C9A C -0.3312(7) 0.7007(4) 0.6709(3)
C10A C -0.3583(7) 0.6572(4) 0.7333(3)
C11A C -0.4336(7) 0.6999(4) 0.7895(3)
C12A C -0.4473(7) 0.6523(4) 0.8557(3)
H5A H -0.4111 0.5862 0.8690
C13A C -0.5229(7) 0.7214(4) 0.8956(3)
H6A H -0.5512 0.7127 0.9421
C14A C -0.5513(7) 0.8100(4) 0.8532(3)
C15A C -0.6327(7) 0.8986(4) 0.8757(3)
C16A C -0.6852(7) 0.9799(4) 0.8375(3)
C17A C -0.7649(7) 1.0735(4) 0.8588(3)
H7A H -0.7902 1.0877 0.9054
C18A C -0.7964(7) 1.1352(5) 0.8045(3)
H8A H -0.8494 1.1999 0.8057
C19A C -0.7366(6) 1.0881(4) 0.7411(3)
C20A C -0.2460(6) 0.8730(4) 0.3253(3)
C21A C -0.3404(8) 0.9875(5) 0.6200(3)
C22A C -0.2980(8) 1.0982(4) 0.6810(3)
H9A H -0.2593 1.1443 0.6982
C23A C -0.4014(8) 1.0688(5) 0.7090(4)
H10A H -0.4501 1.0941 0.7489
C24A C -0.2970(9) 0.5507(5) 0.7421(3)
C25A C -0.1684(9) 0.5096(5) 0.7671(3)
C26A C -0.1121(9) 0.4131(6) 0.7726(3)
C27A C -0.1835(11) 0.3523(5) 0.7543(4)
C28A C -0.3116(11) 0.3896(6) 0.7285(4)
C29A C -0.3634(9) 0.4864(6) 0.7238(4)
C30A C -0.6708(10) 0.8990(4) 0.9513(4)
C31A C -0.5853(11) 0.8988(6) 1.0031(4)
C32A C -0.6160(13) 0.8950(7) 1.0727(4)
C33A C -0.7432(12) 0.8911(5) 1.0923(4)
C34A C -0.8330(11) 0.8944(5) 1.0421(5)
C35A C -0.7955(10) 0.8973(5) 0.9743(4)
C36A C -0.1919(9) 0.7685(5) 0.3377(3)
C37A C -0.2581(9) 0.7037(6) 0.3162(4)
C38A C -0.2145(10) 0.6087(6) 0.3300(4)
C39A C -0.1002(11) 0.5673(5) 0.3686(4)
C40A C -0.0311(9) 0.6290(6) 0.3902(4)
C41A C -0.0771(9) 0.7232(5) 0.3759(3)
N1A N -0.2883(5) 0.8759(3) 0.4468(3)
N2A N -0.3565(5) 0.7976(3) 0.6578(2)
H11A H -0.3922 0.8404 0.6880
N3A N -0.4984(5) 0.7993(3) 0.7880(2)
N4A N -0.6708(5) 0.9960(3) 0.7652(2)
H12A H -0.6247 0.9518 0.7383
N5A N -0.4283(5) 0.9968(3) 0.6723(2)
N6A N -0.2588(7) 1.0470(4) 0.6213(2)
C42A C 0.246(5) 0.657(2) 0.7733(14)
H13A H 0.2973 0.5906 0.7842
H14A H 0.1635 0.6726 0.8011
H15A H 0.3012 0.6997 0.7843
O1A O 0.2115(11) 0.6713(7) 0.7000(6)
C43A C -0.121(2) 1.035(2) 0.5945(17)
H16A H -0.0863 1.0880 0.6101
H17A H -0.1230 1.0406 0.5430
C44A C 0.0136(14) 0.8585(9) 0.5797(5)
H18A H -0.0178 0.8642 0.5330
C45A C 0.0954(12) 0.7715(7) 0.6075(6)
H19A H 0.1198 0.7177 0.5799
C46A C 0.1414(12) 0.7632(6) 0.6758(6)
C47A C 0.1056(12) 0.8419(8) 0.7163(5)
H20A H 0.1370 0.8363 0.7630
C48A C 0.0238(14) 0.9290(7) 0.6885(6)
H21A H -0.0006 0.9828 0.7162
C49A C -0.0222(16) 0.9372(7) 0.6202(6)
C50 C 0.376(2) 0.6112(17) 0.5162(11)
H22 H 0.2989 0.5835 0.5115
H23 H 0.3972 0.6094 0.5663
C51 C 0.339(3) 0.7115(16) 0.4862(13)
H24 H 0.2599 0.7494 0.5105
H25 H 0.3174 0.7127 0.4366
H26 H 0.4147 0.7387 0.4916
C52 C 0.494(4) 0.555(2) 0.4784(18)
H27 H 0.5756 0.5771 0.4855
H28 H 0.4764 0.5554 0.4280
C50A C 0.624(2) 0.3888(17) 0.4838(11)
H22A H 0.7011 0.4165 0.4885
H23A H 0.6028 0.3906 0.4337
C51A C 0.661(3) 0.2885(16) 0.5138(13)
H24A H 0.7401 0.2506 0.4895
H25A H 0.6826 0.2873 0.5634
H26A H 0.5853 0.2613 0.5084
C52A C 0.506(4) 0.445(2) 0.5216(18)
H27A H 0.4244 0.4229 0.5145
H28A H 0.5236 0.4446 0.5720
Cl1 Cl -0.497(3) 0.6306(16) 0.1173(12)
Cl2 Cl -0.206(2) 0.6544(14) 0.0526(11)
C56 C -0.313(2) 0.6205(18) 0.1214(12)
H36 H -0.3022 0.6565 0.1618
H37 H -0.2691 0.5522 0.1348
C57 C 0.2040(13) 0.1309(10) 0.1651(6)
H38 H 0.1503 0.1263 0.2070
H39 H 0.2914 0.1388 0.1786
H40 H 0.2184 0.0723 0.1403
C58 C 0.1380(18) 0.2069(12) 0.1234(10)
H41 H 0.1235 0.2595 0.1552
H42 H 0.0484 0.1951 0.1194
C59 C 0.147(2) 0.2538(15) 0.0607(9)
H43 H 0.1959 0.2049 0.0290
H44 H 0.2065 0.2957 0.0677
C60 C -0.134(2) 0.3540(18) 0.0075(11)
H45 H -0.1686 0.3087 0.0381
H46 H -0.1555 0.4134 0.0327
C61 C 0.025(2) 0.3135(15) 0.0228(12)
H47 H 0.0536 0.2941 -0.0246
H48 H 0.0451 0.3761 0.0247
C62 C -0.2431(18) 0.3815(10) -0.0480(6)
H49 H -0.3318 0.4009 -0.0258
H50 H -0.2380 0.3265 -0.0757
H51 H -0.2301 0.4350 -0.0784
C53? C -0.288(3) 0.5012(19) 0.0301(13)
H29? H -0.2388 0.5295 -0.0061
H30? H -0.2278 0.4417 0.0526
C54? C -0.359(4) 0.571(2) 0.0810(16)
H31? H -0.2930 0.5910 0.1078
H32? H -0.4128 0.5407 0.1127
H33? H -0.4192 0.6272 0.0558
C55? C -0.402(2) 0.4905(18) 0.0079(14)
H34? H -0.3816 0.4215 0.0225
H35? H -0.3775 0.4905 -0.0421
C63? C -0.128(3) 1.027(3) 0.587(2)
C64? C -0.0305(19) 0.9565(9) 0.6350(7)
C65? C 0.0064(17) 0.8622(11) 0.6161(6)
C66? C 0.0824(15) 0.7896(8) 0.6616(7)
C67? C 0.1215(15) 0.8114(9) 0.7260(7)
C68? C 0.0845(15) 0.9057(10) 0.7448(6)
C69? C 0.0085(18) 0.9782(7) 0.6993(7)
C70? C 0.225(6) 0.651(2) 0.759(2)
C71? C 0.523(2) 0.6188(13) 0.4561(10)
C72? C 0.441(2) 0.7238(13) 0.4569(10)
C73? C 0.465(3) 0.5475(16) 0.4998(16)
H52? H 0.2801 0.6099 0.7966
H53? H 0.2744 0.6418 0.7152
H54? H 0.1403 0.6336 0.7549
H55? H -0.1001 1.0870 0.5790
H56? H -0.1325 1.0003 0.5415
H57? H -0.0203 0.8473 0.5722
H58? H 0.1077 0.7252 0.6487
H59? H 0.1112 0.9206 0.7888
H60? H -0.0167 1.0427 0.7122
H61? H 0.4571 0.5663 0.5486
H62? H 0.3722 0.5542 0.4828
H63? H 0.4871 0.7639 0.4290
H64? H 0.4326 0.7431 0.5050
H65? H 0.3511 0.7317 0.4374
H66? H 0.6151 0.6128 0.4731
H67? H 0.5304 0.6005 0.4072
O2? O 0.1961(11) 0.7499(8) 0.7754(5)
loop_
_geom_bond_atom_site_label_1
_geom_bond_atom_site_label_2
_geom_bond_site_symmetry_1
_geom_bond_site_symmetry_2
F1 C29 1_555 1_555
F2 C28 1_555 1_555
F3 C27 1_555 1_555
F4 C26 1_555 1_555
F5 C25 1_555 1_555
F6 C35 1_555 1_555
F7 C34 1_555 1_555
F8 C33 1_555 1_555
F9 C32 1_555 1_555
F10 C31 1_555 1_555
F11 C37 1_555 1_555
F12 C38 1_555 1_555
F13 C39 1_555 1_555
F14 C40 1_555 1_555
F15 C41 1_555 1_555
C1 C2 1_555 1_555
C2 H1 1_555 1_555
C3 C2 1_555 1_555
H2 C3 1_555 1_555
C4 C3 1_555 1_555
C5 C4 1_555 1_555
C6 C5 1_555 1_555
C7 C6 1_555 1_555
H3 C7 1_555 1_555
C8 C7 1_555 1_555
H4 C8 1_555 1_555
C9 C8 1_555 1_555
C10 C9 1_555 1_555
C11 C10 1_555 1_555
C12 C11 1_555 1_555
H5 C12 1_555 1_555
C13 C12 1_555 1_555
H6 C13 1_555 1_555
C14 C13 1_555 1_555
C15 C14 1_555 1_555
C16 C15 1_555 1_555
C17 C16 1_555 1_555
H7 C17 1_555 1_555
C18 C17 1_555 1_555
H8 C18 1_555 1_555
C19 C18 1_555 1_555
C20 C1 1_555 1_555
C21 C5 1_555 1_555
C22 H9 1_555 1_555
C23 C22 1_555 1_555
H10 C23 1_555 1_555
C24 C10 1_555 1_555
C25 C24 1_555 1_555
C26 C25 1_555 1_555
C27 C26 1_555 1_555
C28 C27 1_555 1_555
C29 C24 1_555 1_555
C30 C15 1_555 1_555
C31 C30 1_555 1_555
C32 C31 1_555 1_555
C33 C32 1_555 1_555
C34 C33 1_555 1_555
C35 C30 1_555 1_555
C36 C20 1_555 1_555
C37 C36 1_555 1_555
C38 C37 1_555 1_555
C39 C38 1_555 1_555
C40 C39 1_555 1_555
C41 C36 1_555 1_555
N1 C1 1_555 1_555
N2 C6 1_555 1_555
H11 N2 1_555 1_555
N3 C11 1_555 1_555
N4 C16 1_555 1_555
H12 N4 1_555 1_555
N5 C21 1_555 1_555
N6 C21 1_555 1_555
C42 H13 1_555 1_555
H14 C42 1_555 1_555
H15 C42 1_555 1_555
O1 C42 1_555 1_555
C43 N6 1_555 1_555
H16 C43 1_555 1_555
H17 C43 1_555 1_555
C44 H18 1_555 1_555
C45 C44 1_555 1_555
H19 C45 1_555 1_555
C46 O1 1_555 1_555
C47 C46 1_555 1_555
H20 C47 1_555 1_555
C48 C47 1_555 1_555
H21 C48 1_555 1_555
C49 C43 1_555 1_555
C50 H22 1_555 1_555
H23 C50 1_555 1_555
C51 C50 1_555 1_555
H24 C51 1_555 1_555
H25 C51 1_555 1_555
H26 C51 1_555 1_555
C52 C50 1_555 1_555
H27 C52 1_555 1_555
H28 C52 1_555 1_555
Cl1 C56 1_555 1_555
Cl2 C56 1_555 1_555
C56 H36 1_555 1_555
H37 C56 1_555 1_555
C57 H38 1_555 1_555
H39 C57 1_555 1_555
H40 C57 1_555 1_555
C58 C57 1_555 1_555
H41 C58 1_555 1_555
H42 C58 1_555 1_555
C59 C58 1_555 1_555
H43 C59 1_555 1_555
H44 C59 1_555 1_555
C60 H45 1_555 1_555
H46 C60 1_555 1_555
C61 C59 1_555 1_555
H47 C61 1_555 1_555
H48 C61 1_555 1_555
C62 C60 1_555 1_555
H49 C62 1_555 1_555
H50 C62 1_555 1_555
H51 C62 1_555 1_555
F1A C29A 1_555 1_555
F2A C28A 1_555 1_555
F3A C27A 1_555 1_555
F4A C26A 1_555 1_555
F5A C25A 1_555 1_555
F6A C35A 1_555 1_555
F7A C34A 1_555 1_555
F8A C33A 1_555 1_555
F9A C32A 1_555 1_555
F10A C31A 1_555 1_555
F11A C37A 1_555 1_555
F12A C38A 1_555 1_555
F13A C39A 1_555 1_555
F14A C40A 1_555 1_555
F15A C41A 1_555 1_555
C1A C2A 1_555 1_555
C2A H1A 1_555 1_555
C3A C2A 1_555 1_555
H2A C3A 1_555 1_555
C4A C3A 1_555 1_555
C5A C4A 1_555 1_555
C6A C5A 1_555 1_555
C7A C6A 1_555 1_555
H3A C7A 1_555 1_555
C8A C7A 1_555 1_555
H4A C8A 1_555 1_555
C9A C8A 1_555 1_555
C10A C9A 1_555 1_555
C11A C10A 1_555 1_555
C12A C11A 1_555 1_555
H5A C12A 1_555 1_555
C13A C12A 1_555 1_555
H6A C13A 1_555 1_555
C14A C13A 1_555 1_555
C15A C14A 1_555 1_555
C16A C15A 1_555 1_555
C17A C16A 1_555 1_555
H7A C17A 1_555 1_555
C18A C17A 1_555 1_555
H8A C18A 1_555 1_555
C19A C20 1_555 1_555
C20A C19 1_555 1_555
C21A C5A 1_555 1_555
C22A H9A 1_555 1_555
C23A C22A 1_555 1_555
H10A C23A 1_555 1_555
C24A C10A 1_555 1_555
C25A C24A 1_555 1_555
C26A C25A 1_555 1_555
C27A C26A 1_555 1_555
C28A C27A 1_555 1_555
C29A C24A 1_555 1_555
C30A C15A 1_555 1_555
C31A C30A 1_555 1_555
C32A C31A 1_555 1_555
C33A C32A 1_555 1_555
C34A C33A 1_555 1_555
C35A C30A 1_555 1_555
C36A C20A 1_555 1_555
C37A C36A 1_555 1_555
C38A C37A 1_555 1_555
C39A C38A 1_555 1_555
C40A C39A 1_555 1_555
C41A C36A 1_555 1_555
N1A C1A 1_555 1_555
N2A C6A 1_555 1_555
H11A N2A 1_555 1_555
N3A C11A 1_555 1_555
N4A C16A 1_555 1_555
H12A N4A 1_555 1_555
N5A C21A 1_555 1_555
N6A C21A 1_555 1_555
C42A H13A 1_555 1_555
H14A C42A 1_555 1_555
H15A C42A 1_555 1_555
O1A C42A 1_555 1_555
C43A N6A 1_555 1_555
H16A C43A 1_555 1_555
H17A C43A 1_555 1_555
C44A H18A 1_555 1_555
C45A C44A 1_555 1_555
H19A C45A 1_555 1_555
C46A O1A 1_555 1_555
C47A C46A 1_555 1_555
H20A C47A 1_555 1_555
C48A C47A 1_555 1_555
H21A C48A 1_555 1_555
C49A C43A 1_555 1_555
C50A H22A 1_555 1_555
H23A C50A 1_555 1_555
C51A C50A 1_555 1_555
H24A C51A 1_555 1_555
H25A C51A 1_555 1_555
H26A C51A 1_555 1_555
C52A C52 1_555 1_555
H27A C52A 1_555 1_555
H28A C52A 1_555 1_555
C4 N1 1_555 1_555
C9 N2 1_555 1_555
C14 N3 1_555 1_555
C19 N4 1_555 1_555
C22 N6 1_555 1_555
C23 N5 1_555 1_555
C28 C29 1_555 1_555
C34 C35 1_555 1_555
C40 C41 1_555 1_555
C44 C49 1_555 1_555
C45 C46 1_555 1_555
C48 C49 1_555 1_555
C60 C61 1_555 1_555
C1A C20A 1_555 1_555
C4A N1A 1_555 1_555
C9A N2A 1_555 1_555
C14A N3A 1_555 1_555
C18A C19A 1_555 1_555
C19A N4A 1_555 1_555
C22A N6A 1_555 1_555
C23A N5A 1_555 1_555
C28A C29A 1_555 1_555
C34A C35A 1_555 1_555
C40A C41A 1_555 1_555
C44A C49A 1_555 1_555
C45A C46A 1_555 1_555
C48A C49A 1_555 1_555
C50A C52A 1_555 1_555

#END
