
#######################################################################
#
#                 Cambridge Crystallographic Data Centre
#                                CCDC 
#
#######################################################################
#
# If this CIF has been generated from an entry in the Cambridge 
# Structural Database, then it will include bibliographic, chemical, 
# crystal, experimental, refinement or atomic coordinate data resulting 
# from the CCDC's data processing and validation procedures.
#
#######################################################################

data_NERPAC
_chemical_name_common            
1,4-bis(N-(1-(Methoxycarbonyl)-3-methylpropyl)carbamoyl)benzene
_chemical_formula_moiety         'C22 H32 N2 O6'
_chemical_name_systematic        'bis(D-leucine methyl ester)terephthalamide'
_symmetry_cell_setting           monoclinic
_symmetry_space_group_name_H-M   'P 21'
_symmetry_Int_Tables_number      4
_space_group_name_Hall           'P 2yb'
loop_
_symmetry_equiv_pos_site_id
_symmetry_equiv_pos_as_xyz
1 x,y,z
2 -x,1/2+y,-z
_cell_length_a                   9.9970(12)
_cell_length_b                   10.1066(13)
_cell_length_c                   12.6432(16)
_cell_angle_alpha                90
_cell_angle_beta                 108.679(2)
_cell_angle_gamma                90
_cell_volume                     1210.13
_exptl_crystal_colour            colorless
_exptl_crystal_description       'rod shaped'
_chemical_melting_point          '138-140 deg.C'
_cell_formula_units_Z            2
_exptl_crystal_recrystallization_method methanol/water
loop_
_atom_site_label
_atom_site_type_symbol
_atom_site_fract_x
_atom_site_fract_y
_atom_site_fract_z
C1 C 1.0128(19) 1.2926(13) 1.6076(7)
H1 H 0.9894 1.3624 1.6501
H2 H 1.1125 1.2937 1.6191
H3 H 0.9869 1.2090 1.6313
O1 O 0.9381(8) 1.3115(6) 1.4924(4)
N1 N 0.8660(4) 1.1659(5) 1.2245(3)
H4 H 0.9422 1.1421 1.2122
C2 C 0.8748(5) 1.2720(5) 1.3034(5)
H5 H 0.7787 1.2973 1.2996
C3 C 0.9519(8) 1.2296(6) 1.4188(5)
O2 O 1.0325(9) 1.1378(7) 1.4441(5)
C4 C 0.9469(7) 1.3905(6) 1.2769(5)
H6 H 0.9550 1.4547 1.3357
H7 H 1.0423 1.3637 1.2829
C5 C 0.8881(13) 1.4625(10) 1.1676(6)
H8 H 0.8677 1.3950 1.1089
C6 C 0.7460(11) 1.5150(18) 1.1694(15)
H9 H 0.7008 1.5621 1.1014
H10 H 0.7603 1.5736 1.2318
H11 H 0.6874 1.4423 1.1762
C7 C 1.0044(15) 1.5543(12) 1.1490(9)
H12 H 0.9666 1.6005 1.0794
H13 H 1.0836 1.5017 1.1472
H14 H 1.0344 1.6171 1.2089
C8 C 0.7477(4) 1.1037(4) 1.1701(3)
O3 O 0.6351(3) 1.1335(4) 1.1832(3)
C9 C 0.7543(4) 0.9952(4) 1.0903(3)
C10 C 0.8770(4) 0.9465(6) 1.0803(5)
H15 H 0.9630 0.9783 1.1268
C11 C 0.8752(4) 0.8521(6) 1.0033(5)
H16 H 0.9606 0.8217 0.9980
C12 C 0.7524(4) 0.8002(4) 0.9334(3)
C13 C 0.6270(4) 0.8451(5) 0.9443(4)
H17 H 0.5412 0.8124 0.8981
C14 C 0.6303(4) 0.9405(6) 1.0257(5)
H18 H 0.5461 0.9670 1.0359
C15 C 0.7596(4) 0.6977(5) 0.8504(4)
O4 O 0.8725(3) 0.6725(4) 0.8350(3)
N2 N 0.6405(3) 0.6350(4) 0.7910(3)
H19 H 0.5620 0.6542 0.8016
C16 C 0.6432(5) 0.5401(6) 0.7129(5)
H20 H 0.7163 0.5674 0.6811
C17 C 0.6856(6) 0.4088(7) 0.7640(6)
O5 O 0.7697(9) 0.3317(9) 0.7484(8)
C18 C 0.5012(6) 0.5373(10) 0.6144(6)
H21 H 0.4283 0.5080 0.6445
H22 H 0.4788 0.6278 0.5894
C19 C 0.4891(11) 0.4566(11) 0.5153(8)
H23 H 0.5102 0.3641 0.5376
C20 C 0.5906(16) 0.505(2) 0.4559(10)
H24 H 0.5812 0.4510 0.3916
H25 H 0.6858 0.4999 0.5059
H26 H 0.5689 0.5954 0.4329
C21 C 0.3268(14) 0.471(3) 0.4449(12)
H27 H 0.3074 0.4212 0.3768
H28 H 0.3046 0.5622 0.4278
H29 H 0.2703 0.4370 0.4876
O6 O 0.6220(10) 0.3754(6) 0.8357(8)
C22 C 0.6447(19) 0.2454(15) 0.8704(14)
H30 H 0.5912 0.2256 0.9194
H31 H 0.7433 0.2321 0.9094
H32 H 0.6155 0.1880 0.8066
loop_
_geom_bond_atom_site_label_1
_geom_bond_atom_site_label_2
_geom_bond_site_symmetry_1
_geom_bond_site_symmetry_2
C1 H1 1_555 1_555
H2 C1 1_555 1_555
H3 C1 1_555 1_555
O1 C1 1_555 1_555
N1 H4 1_555 1_555
C2 N1 1_555 1_555
H5 C2 1_555 1_555
C3 O1 1_555 1_555
O2 C3 1_555 1_555
C4 C2 1_555 1_555
H6 C4 1_555 1_555
H7 C4 1_555 1_555
C5 C4 1_555 1_555
H8 C5 1_555 1_555
C6 C5 1_555 1_555
H9 C6 1_555 1_555
H10 C6 1_555 1_555
H11 C6 1_555 1_555
C7 C5 1_555 1_555
H12 C7 1_555 1_555
H13 C7 1_555 1_555
H14 C7 1_555 1_555
C8 N1 1_555 1_555
O3 C8 1_555 1_555
C9 C8 1_555 1_555
C10 C9 1_555 1_555
H15 C10 1_555 1_555
C11 C10 1_555 1_555
H16 C11 1_555 1_555
C12 C11 1_555 1_555
C13 C12 1_555 1_555
H17 C13 1_555 1_555
C14 C9 1_555 1_555
H18 C14 1_555 1_555
C15 C12 1_555 1_555
O4 C15 1_555 1_555
N2 C15 1_555 1_555
H19 N2 1_555 1_555
C16 N2 1_555 1_555
H20 C16 1_555 1_555
C17 C16 1_555 1_555
O5 C17 1_555 1_555
C18 C16 1_555 1_555
H21 C18 1_555 1_555
H22 C18 1_555 1_555
C19 C18 1_555 1_555
H23 C19 1_555 1_555
C20 C19 1_555 1_555
H24 C20 1_555 1_555
H25 C20 1_555 1_555
H26 C20 1_555 1_555
C21 C19 1_555 1_555
H27 C21 1_555 1_555
H28 C21 1_555 1_555
H29 C21 1_555 1_555
O6 C17 1_555 1_555
C22 O6 1_555 1_555
H30 C22 1_555 1_555
H31 C22 1_555 1_555
H32 C22 1_555 1_555
C2 C3 1_555 1_555
C13 C14 1_555 1_555

#END
