
#######################################################################
#
#                 Cambridge Crystallographic Data Centre
#                                CCDC 
#
#######################################################################
#
# If this CIF has been generated from an entry in the Cambridge 
# Structural Database, then it will include bibliographic, chemical, 
# crystal, experimental, refinement or atomic coordinate data resulting 
# from the CCDC's data processing and validation procedures.
#
#######################################################################

data_NERQUZ
_chemical_formula_moiety         'C24 H22 O4 S1'
_chemical_name_systematic        
2-phenyl-3-{[4-(propan-2-yl)phenyl]sulfonyl}-2H-1-benzopyran-2-ol
_symmetry_cell_setting           triclinic
_symmetry_space_group_name_H-M   'P 1'
_symmetry_Int_Tables_number      1
_space_group_name_Hall           'P 1'
loop_
_symmetry_equiv_pos_site_id
_symmetry_equiv_pos_as_xyz
1 x,y,z
_cell_length_a                   9.3081(5)
_cell_length_b                   10.4852(5)
_cell_length_c                   11.7136(6)
_cell_angle_alpha                73.869(2)
_cell_angle_beta                 81.276(2)
_cell_angle_gamma                68.067(2)
_cell_volume                     1017.25
_exptl_crystal_colour            colorless
_cell_formula_units_Z            2
loop_
_atom_site_label
_atom_site_type_symbol
_atom_site_fract_x
_atom_site_fract_y
_atom_site_fract_z
C1 C 0.3904(4) 0.5594(4) 0.7411(4)
C2 C 0.2754(4) 0.5432(4) 0.6713(4)
C3 C 0.1710(4) 0.6587(4) 0.6073(4)
H1 H 0.1078 0.6484 0.5564
C4 C 0.1548(4) 0.7974(4) 0.6159(4)
C5 C 0.0586(4) 0.9231(4) 0.5446(4)
H2 H 0.0081 0.9184 0.4821
C6 C 0.0363(5) 1.0527(4) 0.5636(4)
H3 H -0.0288 1.1370 0.5145
C7 C 0.1098(5) 1.0598(4) 0.6555(4)
H4 H 0.0935 1.1493 0.6696
C8 C 0.2065(5) 0.9377(4) 0.7265(4)
H5 H 0.2570 0.9431 0.7888
C9 C 0.2289(4) 0.8082(4) 0.7058(4)
C10 C 0.4376(4) 0.4455(4) 0.8560(4)
C11 C 0.5825(4) 0.3397(4) 0.8635(4)
H6 H 0.6549 0.3371 0.7969
C12 C 0.6208(5) 0.2363(4) 0.9708(4)
H7 H 0.7208 0.1647 0.9768
C13 C 0.5175(5) 0.2369(4) 1.0662(4)
H8 H 0.5449 0.1650 1.1376
C14 C 0.3716(5) 0.3426(4) 1.0595(4)
H9 H 0.2995 0.3441 1.1263
C15 C 0.3324(5) 0.4462(4) 0.9538(4)
H10 H 0.2326 0.5180 0.9484
C16 C 0.2133(4) 0.2951(4) 0.7920(4)
C17 C 0.3095(4) 0.1722(4) 0.8648(4)
H11 H 0.4169 0.1341 0.8434
C18 C 0.2467(4) 0.1069(4) 0.9680(4)
H12 H 0.3112 0.0220 1.0170
C19 C 0.0897(4) 0.1632(4) 1.0021(4)
C20 C -0.0043(4) 0.2860(4) 0.9283(4)
H13 H -0.1112 0.3250 0.9507
C21 C 0.0553(4) 0.3523(4) 0.8228(4)
H14 H -0.0100 0.4350 0.7723
C22 C 0.0234(4) 0.0911(4) 1.1171(4)
H15 H -0.0872 0.1518 1.1287
C23 C 0.0261(5) -0.0547(4) 1.1096(4)
H16 H -0.0248 -0.0432 1.0382
H17 H -0.0291 -0.0942 1.1804
H18 H 0.1337 -0.1191 1.1056
C24 C 0.1101(5) 0.0772(5) 1.2233(4)
H19 H 0.2196 0.0196 1.2132
H20 H 0.0645 0.0316 1.2966
H21 H 0.1019 0.1715 1.2281
O1 O 0.1848(3) 0.4016(3) 0.5664(3)
O2 O 0.4490(3) 0.2911(3) 0.6437(3)
O3 O 0.5236(3) 0.5639(3) 0.6703(3)
H22 H 0.5010 0.5984 0.5987
O4 O 0.3185(3) 0.6880(3) 0.7815(3)
S1 S 0.28738(9) 0.37624(9) 0.65696(8)
C25 C 0.6793(4) 0.3721(4) 0.3781(3)
C26 C 0.5105(4) 0.4550(4) 0.3465(3)
C27 C 0.4131(4) 0.3865(4) 0.3513(3)
H23 H 0.3063 0.4383 0.3386
C28 C 0.4703(4) 0.2339(4) 0.3758(3)
C29 C 0.3733(4) 0.1538(4) 0.4030(4)
H24 H 0.2640 0.2000 0.4074
C30 C 0.4354(5) 0.0073(4) 0.4237(4)
H25 H 0.3691 -0.0468 0.4431
C31 C 0.5952(5) -0.0595(4) 0.4160(4)
H26 H 0.6378 -0.1598 0.4306
C32 C 0.6940(4) 0.0181(4) 0.3873(4)
H27 H 0.8030 -0.0282 0.3796
C33 C 0.6307(4) 0.1644(4) 0.3701(3)
C34 C 0.7954(4) 0.4425(4) 0.3129(4)
C35 C 0.8331(4) 0.4479(4) 0.1927(4)
H28 H 0.7871 0.4076 0.1517
C36 C 0.9386(4) 0.5127(4) 0.1323(4)
H29 H 0.9649 0.5165 0.0501
C37 C 1.0045(4) 0.5711(4) 0.1924(4)
H30 H 1.0761 0.6154 0.1508
C38 C 0.9687(5) 0.5664(4) 0.3111(5)
H31 H 1.0150 0.6072 0.3513
C39 C 0.8630(4) 0.5009(4) 0.3728(4)
H32 H 0.8381 0.4966 0.4552
C40 C 0.5037(4) 0.7079(4) 0.1818(4)
C41 C 0.4699(5) 0.6746(4) 0.0839(4)
H33 H 0.4079 0.6174 0.0945
C42 C 0.5264(5) 0.7246(4) -0.0272(4)
H34 H 0.5035 0.7008 -0.0932
C43 C 0.6172(5) 0.8098(4) -0.0465(4)
C44 C 0.6477(4) 0.8436(4) 0.0520(5)
H35 H 0.7079 0.9024 0.0410
C45 C 0.5922(4) 0.7934(4) 0.1663(4)
H36 H 0.6145 0.8171 0.2325
C46 C 0.6800(7) 0.8585(6) -0.1764(7)
H37 H 0.5855 0.9085 -0.2239
C47 C 0.7736(10) 0.7215(8) -0.2263(8)
H38 H 0.7955 0.7504 -0.3122
H39 H 0.7114 0.6603 -0.2110
H40 H 0.8714 0.6695 -0.1865
C48 C 0.7543(9) 0.9545(8) -0.1982(8)
H41 H 0.6963 1.0296 -0.1569
H42 H 0.7603 0.9960 -0.2840
H43 H 0.8592 0.9065 -0.1693
O5 O 0.2659(3) 0.6819(3) 0.3217(3)
O6 O 0.4912(3) 0.6794(3) 0.4120(2)
O7 O 0.6945(3) 0.3442(3) 0.4998(2)
H44 H 0.6154 0.3296 0.5371
O8 O 0.7295(3) 0.2398(3) 0.3409(3)
S2 S 0.43170(8) 0.64045(8) 0.32483(8)
loop_
_geom_bond_atom_site_label_1
_geom_bond_atom_site_label_2
_geom_bond_site_symmetry_1
_geom_bond_site_symmetry_2
C1 C2 1_555 1_555
C2 C3 1_555 1_555
C3 H1 1_555 1_555
C4 C3 1_555 1_555
C5 C4 1_555 1_555
H2 C5 1_555 1_555
C6 C5 1_555 1_555
H3 C6 1_555 1_555
C7 C6 1_555 1_555
H4 C7 1_555 1_555
C8 C7 1_555 1_555
H5 C8 1_555 1_555
C9 C4 1_555 1_555
C10 C1 1_555 1_555
C11 C10 1_555 1_555
H6 C11 1_555 1_555
C12 C11 1_555 1_555
H7 C12 1_555 1_555
C13 C12 1_555 1_555
H8 C13 1_555 1_555
C14 C13 1_555 1_555
H9 C14 1_555 1_555
C15 C10 1_555 1_555
H10 C15 1_555 1_555
C16 C17 1_555 1_555
C17 H11 1_555 1_555
C18 C17 1_555 1_555
H12 C18 1_555 1_555
C19 C18 1_555 1_555
C20 C19 1_555 1_555
H13 C20 1_555 1_555
C21 C16 1_555 1_555
H14 C21 1_555 1_555
C22 C19 1_555 1_555
H15 C22 1_555 1_555
C23 C22 1_555 1_555
H16 C23 1_555 1_555
H17 C23 1_555 1_555
H18 C23 1_555 1_555
C24 C22 1_555 1_555
H19 C24 1_555 1_555
H20 C24 1_555 1_555
H21 C24 1_555 1_555
O1 S1 1_555 1_555
O2 S1 1_555 1_555
O3 C1 1_555 1_555
H22 O3 1_555 1_555
O4 C1 1_555 1_555
S1 C2 1_555 1_555
C25 C26 1_555 1_555
C26 C27 1_555 1_555
C27 H23 1_555 1_555
C28 C27 1_555 1_555
C29 C28 1_555 1_555
H24 C29 1_555 1_555
C30 C29 1_555 1_555
H25 C30 1_555 1_555
C31 C30 1_555 1_555
H26 C31 1_555 1_555
C32 C31 1_555 1_555
H27 C32 1_555 1_555
C33 C28 1_555 1_555
C34 C25 1_555 1_555
C35 C34 1_555 1_555
H28 C35 1_555 1_555
C36 C35 1_555 1_555
H29 C36 1_555 1_555
C37 C36 1_555 1_555
H30 C37 1_555 1_555
C38 C37 1_555 1_555
H31 C38 1_555 1_555
C39 C34 1_555 1_555
H32 C39 1_555 1_555
C40 C41 1_555 1_555
C41 H33 1_555 1_555
C42 C41 1_555 1_555
H34 C42 1_555 1_555
C43 C42 1_555 1_555
C44 C43 1_555 1_555
H35 C44 1_555 1_555
C45 C40 1_555 1_555
H36 C45 1_555 1_555
C46 C43 1_555 1_555
H37 C46 1_555 1_555
C47 C46 1_555 1_555
H38 C47 1_555 1_555
H39 C47 1_555 1_555
H40 C47 1_555 1_555
C48 C46 1_555 1_555
H41 C48 1_555 1_555
H42 C48 1_555 1_555
H43 C48 1_555 1_555
O5 S2 1_555 1_555
O6 S2 1_555 1_555
O7 C25 1_555 1_555
H44 O7 1_555 1_555
O8 C25 1_555 1_555
S2 C26 1_555 1_555
C8 C9 1_555 1_555
C9 O4 1_555 1_555
C14 C15 1_555 1_555
C16 S1 1_555 1_555
C20 C21 1_555 1_555
C32 C33 1_555 1_555
C33 O8 1_555 1_555
C38 C39 1_555 1_555
C40 S2 1_555 1_555
C44 C45 1_555 1_555

#END
