
#######################################################################
#
#                 Cambridge Crystallographic Data Centre
#                                CCDC 
#
#######################################################################
#
# If this CIF has been generated from an entry in the Cambridge 
# Structural Database, then it will include bibliographic, chemical, 
# crystal, experimental, refinement or atomic coordinate data resulting 
# from the CCDC's data processing and validation procedures.
#
#######################################################################

data_NERRAE
_chemical_formula_moiety         'C21 H17 N3 O5'
_chemical_name_systematic        
(E)-1-(3-Methoxy-4-(benzoyloxy)benzylidene)-2-(4-nitrophenyl)hydrazine
_symmetry_cell_setting           monoclinic
_symmetry_space_group_name_H-M   'P 21/n'
_symmetry_Int_Tables_number      14
_space_group_name_Hall           '-P 2yn'
loop_
_symmetry_equiv_pos_site_id
_symmetry_equiv_pos_as_xyz
1 x,y,z
2 1/2-x,1/2+y,1/2-z
3 -x,-y,-z
4 1/2+x,1/2-y,1/2+z
_cell_length_a                   8.1110(16)
_cell_length_b                   14.965(3)
_cell_length_c                   16.220(3)
_cell_angle_alpha                90
_cell_angle_beta                 104.07(3)
_cell_angle_gamma                90
_cell_volume                     1909.74
_exptl_crystal_colour            orange
_exptl_crystal_description       block
_cell_formula_units_Z            4
_exptl_crystal_recrystallization_method acetonitrile
loop_
_atom_site_label
_atom_site_type_symbol
_atom_site_fract_x
_atom_site_fract_y
_atom_site_fract_z
O1 O 0.4194(3) 0.92875(18) 0.64359(14)
O2 O 0.2467(2) 0.91781(16) 0.73193(14)
O3 O 0.3310(2) 1.08856(17) 0.77068(14)
O4 O 1.4862(3) 0.74896(18) 1.41804(19)
O5 O 1.4169(3) 0.64748(19) 1.32102(19)
N1 N 0.8670(3) 0.93557(18) 1.06154(15)
N2 N 0.9907(3) 0.96397(17) 1.12960(15)
H1 H 1.0061 1.0203 1.1391
N3 N 1.4068(3) 0.7241(2) 1.3477(2)
C1 C 0.1393(4) 0.8907(2) 0.5028(2)
H2 H 0.2445 0.8990 0.4906
C2 C -0.0012(4) 0.8742(3) 0.4376(2)
H3 H 0.0088 0.8726 0.3817
C3 C -0.1551(4) 0.8602(3) 0.4552(2)
H4 H -0.2500 0.8488 0.4111
C4 C -0.1711(4) 0.8629(3) 0.5373(2)
H5 H -0.2764 0.8528 0.5487
C5 C -0.0310(4) 0.8805(2) 0.6032(2)
H6 H -0.0423 0.8826 0.6588
C6 C 0.1264(3) 0.8950(2) 0.5862(2)
C7 C 0.2800(4) 0.9156(2) 0.6540(2)
C8 C 0.3839(3) 0.9369(2) 0.80130(19)
C9 C 0.4671(4) 0.8685(2) 0.8500(2)
H7 H 0.4357 0.8096 0.8357
C10 C 0.5977(4) 0.8864(2) 0.9203(2)
H8 H 0.6542 0.8398 0.9535
C11 C 0.6442(3) 0.9743(2) 0.94121(18)
C12 C 0.5566(3) 1.0431(2) 0.89265(18)
H9 H 0.5863 1.1020 0.9075
C13 C 0.4245(3) 1.0254(2) 0.82169(19)
C14 C 0.3492(4) 1.1777(2) 0.8001(2)
H10 H 0.3283 1.1806 0.8558
H11 H 0.2691 1.2150 0.7619
H12 H 0.4625 1.1980 0.8025
C15 C 0.7822(3) 0.9969(2) 1.01487(19)
H13 H 0.8085 1.0566 1.0279
C16 C 1.0899(3) 0.9037(2) 1.18255(18)
C17 C 1.0765(3) 0.8115(2) 1.1672(2)
H14 H 0.9976 0.7897 1.1199
C18 C 1.1796(3) 0.7536(2) 1.2218(2)
H15 H 1.1708 0.6924 1.2117
C19 C 1.2967(3) 0.7862(2) 1.2919(2)
C20 C 1.3126(3) 0.8771(2) 1.3082(2)
H16 H 1.3919 0.8982 1.3557
C21 C 1.2114(3) 0.9351(2) 1.25437(18)
H17 H 1.2223 0.9962 1.2649
loop_
_geom_bond_atom_site_label_1
_geom_bond_atom_site_label_2
_geom_bond_site_symmetry_1
_geom_bond_site_symmetry_2
O1 C7 1_555 1_555
O2 C7 1_555 1_555
O3 C13 1_555 1_555
O4 N3 1_555 1_555
O5 N3 1_555 1_555
N1 N2 1_555 1_555
N2 H1 1_555 1_555
N3 C19 1_555 1_555
C1 H2 1_555 1_555
C2 C1 1_555 1_555
H3 C2 1_555 1_555
C3 C2 1_555 1_555
H4 C3 1_555 1_555
C4 C3 1_555 1_555
H5 C4 1_555 1_555
C5 C4 1_555 1_555
H6 C5 1_555 1_555
C6 C1 1_555 1_555
C7 C6 1_555 1_555
C8 O2 1_555 1_555
C9 C8 1_555 1_555
H7 C9 1_555 1_555
C10 C9 1_555 1_555
H8 C10 1_555 1_555
C11 C10 1_555 1_555
C12 C11 1_555 1_555
H9 C12 1_555 1_555
C13 C8 1_555 1_555
C14 O3 1_555 1_555
H10 C14 1_555 1_555
H11 C14 1_555 1_555
H12 C14 1_555 1_555
C15 N1 1_555 1_555
H13 C15 1_555 1_555
C16 N2 1_555 1_555
C17 C16 1_555 1_555
H14 C17 1_555 1_555
C18 C17 1_555 1_555
H15 C18 1_555 1_555
C19 C18 1_555 1_555
C20 C19 1_555 1_555
H16 C20 1_555 1_555
C21 C16 1_555 1_555
H17 C21 1_555 1_555
C5 C6 1_555 1_555
C11 C15 1_555 1_555
C12 C13 1_555 1_555
C20 C21 1_555 1_555

#END
