
#######################################################################
#
#                 Cambridge Crystallographic Data Centre
#                                CCDC 
#
#######################################################################
#
# If this CIF has been generated from an entry in the Cambridge 
# Structural Database, then it will include bibliographic, chemical, 
# crystal, experimental, refinement or atomic coordinate data resulting 
# from the CCDC's data processing and validation procedures.
#
#######################################################################

data_NERREK
_chemical_formula_moiety         'C22 H21 N1 O6 S1'
_chemical_name_systematic        
2-{3-hydroxy-2-[(4-methylphenyl)sulfonyl]-3-(4-nitrophenyl)propyl}phenol
_symmetry_cell_setting           monoclinic
_symmetry_space_group_name_H-M   'P 21/n'
_symmetry_Int_Tables_number      14
_space_group_name_Hall           '-P 2yn'
loop_
_symmetry_equiv_pos_site_id
_symmetry_equiv_pos_as_xyz
1 x,y,z
2 1/2-x,1/2+y,1/2-z
3 -x,-y,-z
4 1/2+x,1/2-y,1/2+z
_cell_length_a                   13.5515(10)
_cell_length_b                   7.0685(6)
_cell_length_c                   20.9049(16)
_cell_angle_alpha                90
_cell_angle_beta                 103.256(4)
_cell_angle_gamma                90
_cell_volume                     1949.1
_exptl_crystal_colour            colorless
_cell_formula_units_Z            4
loop_
_atom_site_label
_atom_site_type_symbol
_atom_site_fract_x
_atom_site_fract_y
_atom_site_fract_z
S1 S 0.48246(3) 0.55610(5) 0.14114(2)
O1 O 0.82916(9) -0.18882(18) -0.06411(6)
O2 O 0.55924(8) 0.12647(16) 0.17502(5)
H1 H 0.5404(14) 0.019(3) 0.1632(10)
O3 O 0.94382(9) -0.15768(18) 0.02671(6)
O4 O 0.79121(9) 0.60855(17) 0.20987(6)
H2 H 0.8433(16) 0.610(3) 0.2453(10)
O5 O 0.51140(10) 0.74920(16) 0.15934(6)
O6 O 0.40981(9) 0.52475(18) 0.07990(5)
N1 N 0.85701(10) -0.13980(19) -0.00611(7)
C1 C 0.78162(11) -0.0527(2) 0.02537(7)
C2 C 0.69086(11) 0.0089(2) -0.01340(7)
H3 H 0.6754 -0.0092 -0.0597
C3 C 0.62274(11) 0.0981(2) 0.01708(7)
H4 H 0.5600 0.1430 -0.0087
C4 C 0.64530(11) 0.1225(2) 0.08499(7)
C5 C 0.56928(11) 0.2222(2) 0.11622(7)
H5 H 0.5019 0.2218 0.0843
C6 C 0.59740(11) 0.4285(2) 0.13691(7)
H6 H 0.6436 0.4275 0.1817
C7 C 0.43373(11) 0.4599(2) 0.20532(7)
C8 C 0.46917(11) 0.5269(2) 0.26885(7)
H7 H 0.5214 0.6194 0.2781
C9 C 0.42706(11) 0.4565(2) 0.31866(8)
H8 H 0.4507 0.5018 0.3623
C10 C 0.35078(11) 0.3205(2) 0.30567(8)
C11 C 0.30443(14) 0.2472(3) 0.35999(9)
H9 H 0.3461 0.2867 0.4026
H10 H 0.3013 0.1087 0.3580
H11 H 0.2358 0.2985 0.3546
C12 C 0.80608(11) -0.0335(2) 0.09329(7)
H12 H 0.8689 -0.0788 0.1187
C13 C 0.73658(11) 0.0535(2) 0.12298(7)
H13 H 0.7511 0.0663 0.1694
C14 C 0.64852(11) 0.5444(2) 0.09048(7)
H14 H 0.6136 0.5169 0.0444
H15 H 0.6396 0.6808 0.0983
C15 C 0.76070(11) 0.5035(2) 0.09921(7)
C16 C 0.79929(12) 0.4419(2) 0.04642(8)
H16 H 0.7545 0.4260 0.0046
C17 C 0.90163(12) 0.4033(2) 0.05373(8)
H17 H 0.9264 0.3599 0.0174
C18 C 0.96736(12) 0.4285(2) 0.11435(8)
H18 H 1.0372 0.3994 0.1198
C19 C 0.93195(12) 0.4961(2) 0.16726(8)
H19 H 0.9777 0.5163 0.2085
C20 C 0.82909(12) 0.5343(2) 0.15958(7)
C21 C 0.35675(11) 0.3254(2) 0.19074(8)
H20 H 0.3325 0.2817 0.1470
C22 C 0.31626(12) 0.2566(2) 0.24129(8)
H21 H 0.2640 0.1642 0.2319
loop_
_geom_bond_atom_site_label_1
_geom_bond_atom_site_label_2
_geom_bond_site_symmetry_1
_geom_bond_site_symmetry_2
S1 O5 1_555 1_555
O1 N1 1_555 1_555
O2 H1 1_555 1_555
O3 N1 1_555 1_555
O4 H2 1_555 1_555
O6 S1 1_555 1_555
N1 C1 1_555 1_555
C1 C2 1_555 1_555
C2 H3 1_555 1_555
C3 C2 1_555 1_555
H4 C3 1_555 1_555
C4 C3 1_555 1_555
C5 O2 1_555 1_555
H5 C5 1_555 1_555
C6 S1 1_555 1_555
H6 C6 1_555 1_555
C7 S1 1_555 1_555
C8 C7 1_555 1_555
H7 C8 1_555 1_555
C9 C8 1_555 1_555
H8 C9 1_555 1_555
C10 C9 1_555 1_555
C11 C10 1_555 1_555
H9 C11 1_555 1_555
H10 C11 1_555 1_555
H11 C11 1_555 1_555
C12 C1 1_555 1_555
H12 C12 1_555 1_555
C13 C4 1_555 1_555
H13 C13 1_555 1_555
C14 C6 1_555 1_555
H14 C14 1_555 1_555
H15 C14 1_555 1_555
C15 C14 1_555 1_555
C16 C15 1_555 1_555
H16 C16 1_555 1_555
C17 C16 1_555 1_555
H17 C17 1_555 1_555
C18 C17 1_555 1_555
H18 C18 1_555 1_555
C19 C18 1_555 1_555
H19 C19 1_555 1_555
C20 O4 1_555 1_555
C21 C7 1_555 1_555
H20 C21 1_555 1_555
C22 C10 1_555 1_555
H21 C22 1_555 1_555
C4 C5 1_555 1_555
C5 C6 1_555 1_555
C12 C13 1_555 1_555
C15 C20 1_555 1_555
C19 C20 1_555 1_555
C21 C22 1_555 1_555

#END
