
#######################################################################
#
#                 Cambridge Crystallographic Data Centre
#                                CCDC 
#
#######################################################################
#
# If this CIF has been generated from an entry in the Cambridge 
# Structural Database, then it will include bibliographic, chemical, 
# crystal, experimental, refinement or atomic coordinate data resulting 
# from the CCDC's data processing and validation procedures.
#
#######################################################################

data_NERSEL
_chemical_formula_moiety         'C20 H17 Cl1 N2 O2 S2'
_chemical_name_systematic        
4-chloro-N-[1-methyl-3-(5-methylthiophen-2-yl)-1H-indol-2-yl]benzene-1-sulfonamide
_symmetry_cell_setting           triclinic
_symmetry_space_group_name_H-M   'P -1'
_symmetry_Int_Tables_number      2
_space_group_name_Hall           '-P 1'
loop_
_symmetry_equiv_pos_site_id
_symmetry_equiv_pos_as_xyz
1 x,y,z
2 -x,-y,-z
_cell_length_a                   8.1156(7)
_cell_length_b                   11.1455(10)
_cell_length_c                   11.5815(9)
_cell_angle_alpha                90.642(7)
_cell_angle_beta                 105.030(7)
_cell_angle_gamma                107.641(8)
_cell_volume                     959.56
_exptl_crystal_colour            yellow
_exptl_crystal_description       block
_cell_formula_units_Z            2
loop_
_atom_site_label
_atom_site_type_symbol
_atom_site_fract_x
_atom_site_fract_y
_atom_site_fract_z
Cl1 Cl 0.90129(18) 0.65569(12) 1.12663(10)
S1 S 0.92350(11) 0.95168(8) 0.83959(7)
S2 S 0.34422(9) 0.55292(6) 0.62401(6)
O1 O 0.1826(3) 0.56507(18) 0.63989(19)
O2 O 0.3431(3) 0.44025(16) 0.56371(19)
N1 N 0.3088(3) 0.8399(2) 0.55278(19)
N2 N 0.4236(3) 0.66643(19) 0.54560(19)
C1 C 0.6288(4) 1.1071(2) 0.7430(2)
H1 H 0.7484 1.1293 0.7882
C2 C 0.5338(5) 1.1901(3) 0.7406(3)
H2 H 0.5897 1.2687 0.7849
C3 C 0.3556(5) 1.1593(3) 0.6732(3)
H3 H 0.2942 1.2174 0.6731
C4 C 0.2693(4) 1.0451(3) 0.6071(3)
H4 H 0.1499 1.0246 0.5619
C5 C 0.3645(4) 0.9599(2) 0.6091(2)
C6 C 0.5442(3) 0.9882(2) 0.6767(2)
C7 C 0.5994(3) 0.8798(2) 0.6607(2)
C8 C 0.4509(3) 0.7925(2) 0.5866(2)
C9 C 0.7770(3) 0.8661(2) 0.7096(2)
C10 C 0.8544(4) 0.7901(3) 0.6669(3)
H5 H 0.7985 0.7369 0.5960
C11 C 1.0264(4) 0.7986(3) 0.7391(3)
H6 H 1.0932 0.7497 0.7216
C12 C 1.0858(4) 0.8838(3) 0.8358(3)
C13 C 1.2668(5) 0.9271(4) 0.9246(3)
H7 H 1.2797 1.0030 0.9710
H8 H 1.3581 0.9439 0.8829
H9 H 1.2791 0.8624 0.9771
C14 C 0.5000(4) 0.5795(2) 0.7668(2)
C15 C 0.4719(5) 0.6400(3) 0.8612(3)
H10 H 0.3692 0.6640 0.8501
C16 C 0.5970(6) 0.6645(4) 0.9716(3)
H11 H 0.5800 0.7060 1.0356
C17 C 0.7449(5) 0.6276(3) 0.9865(3)
C18 C 0.7755(5) 0.5669(3) 0.8932(3)
H12 H 0.8781 0.5425 0.9052
C19 C 0.6516(5) 0.5434(3) 0.7825(3)
H13 H 0.6701 0.5032 0.7185
C20 C 0.1372(4) 0.7797(3) 0.4647(3)
H14 H 0.1416 0.7053 0.4247
H15 H 0.1131 0.8376 0.4068
H16 H 0.0435 0.7566 0.5045
H17 H 0.494(3) 0.650(2) 0.511(2)
loop_
_geom_bond_atom_site_label_1
_geom_bond_atom_site_label_2
_geom_bond_site_symmetry_1
_geom_bond_site_symmetry_2
Cl1 C17 1_555 1_555
S1 C9 1_555 1_555
S2 O1 1_555 1_555
O2 S2 1_555 1_555
N1 C5 1_555 1_555
N2 S2 1_555 1_555
C1 H1 1_555 1_555
C2 C1 1_555 1_555
H2 C2 1_555 1_555
C3 C2 1_555 1_555
H3 C3 1_555 1_555
C4 C3 1_555 1_555
H4 C4 1_555 1_555
C5 C4 1_555 1_555
C6 C1 1_555 1_555
C7 C6 1_555 1_555
C8 N1 1_555 1_555
C9 C7 1_555 1_555
C10 C9 1_555 1_555
H5 C10 1_555 1_555
C11 C10 1_555 1_555
H6 C11 1_555 1_555
C12 S1 1_555 1_555
C13 C12 1_555 1_555
H7 C13 1_555 1_555
H8 C13 1_555 1_555
H9 C13 1_555 1_555
C14 S2 1_555 1_555
C15 C14 1_555 1_555
H10 C15 1_555 1_555
C16 C15 1_555 1_555
H11 C16 1_555 1_555
C17 C16 1_555 1_555
C18 C17 1_555 1_555
H12 C18 1_555 1_555
C19 C14 1_555 1_555
H13 C19 1_555 1_555
C20 N1 1_555 1_555
H14 C20 1_555 1_555
H15 C20 1_555 1_555
H16 C20 1_555 1_555
H17 N2 1_555 1_555
N2 C8 1_555 1_555
C5 C6 1_555 1_555
C7 C8 1_555 1_555
C11 C12 1_555 1_555
C18 C19 1_555 1_555

#END
