
#######################################################################
#
#                 Cambridge Crystallographic Data Centre
#                                CCDC 
#
#######################################################################
#
# If this CIF has been generated from an entry in the Cambridge 
# Structural Database, then it will include bibliographic, chemical, 
# crystal, experimental, refinement or atomic coordinate data resulting 
# from the CCDC's data processing and validation procedures.
#
#######################################################################

data_NERWAJ
_chemical_formula_moiety         'C31 H26 Cl1 N1 O2,C3 H7 N1 O1'
_chemical_name_systematic        
'5-(p-Tolyl)-7,7-dimethyl-10-(2-chlorophenyl)-7,8-dihydro-5H-indeno(1,2-b)quinoline-9,11(6H,10H)-dione N,N-dimethylformamide solvate'
_symmetry_cell_setting           triclinic
_symmetry_space_group_name_H-M   'P -1'
_symmetry_Int_Tables_number      2
_space_group_name_Hall           '-P 1'
loop_
_symmetry_equiv_pos_site_id
_symmetry_equiv_pos_as_xyz
1 x,y,z
2 -x,-y,-z
_cell_length_a                   10.872(2)
_cell_length_b                   11.655(2)
_cell_length_c                   11.689(2)
_cell_angle_alpha                92.100(4)
_cell_angle_beta                 99.730(4)
_cell_angle_gamma                106.147(4)
_cell_volume                     1396.77
_exptl_crystal_colour            red
_exptl_crystal_description       block
_chemical_melting_point          '536-538 K'
_cell_formula_units_Z            2
loop_
_atom_site_label
_atom_site_type_symbol
_atom_site_fract_x
_atom_site_fract_y
_atom_site_fract_z
Cl1 Cl 0.93127(7) 0.33089(7) 0.46385(6)
O1 O 0.64581(18) 0.23371(18) 0.59852(17)
O2 O 0.83587(17) 0.56520(17) 0.29727(18)
N1 N 0.3900(2) 0.38083(19) 0.30245(19)
C1 C 0.4059(2) 0.3141(2) 0.3997(2)
C2 C 0.5245(2) 0.3047(2) 0.4479(2)
C3 C 0.6471(2) 0.3554(2) 0.3987(2)
H1 H 0.7205 0.3960 0.4640
C4 C 0.6215(2) 0.4466(2) 0.3173(2)
C5 C 0.5000(2) 0.4502(2) 0.2691(2)
C6 C 0.5387(3) 0.2415(2) 0.5540(2)
C7 C 0.4204(3) 0.1914(2) 0.6075(2)
H2 H 0.4157 0.2525 0.6663
H3 H 0.4309 0.1209 0.6485
C8 C 0.2922(3) 0.1537(2) 0.5198(2)
C9 C 0.2847(3) 0.2586(2) 0.4465(2)
H4 H 0.2106 0.2300 0.3803
H5 H 0.2663 0.3212 0.4948
C10 C 0.2867(3) 0.0432(3) 0.4422(3)
H6 H 0.3590 0.0626 0.3994
H7 H 0.2038 0.0184 0.3868
H8 H 0.2940 -0.0224 0.4906
C11 C 0.1758(3) 0.1252(3) 0.5824(3)
H9 H 0.1790 0.0587 0.6306
H10 H 0.0946 0.1027 0.5247
H11 H 0.1794 0.1961 0.6321
C12 C 0.7169(2) 0.5381(2) 0.2706(2)
C13 C 0.6401(2) 0.5963(2) 0.1849(2)
C14 C 0.6831(3) 0.6895(2) 0.1196(2)
H12 H 0.7737 0.7252 0.1227
C15 C 0.5904(3) 0.7306(3) 0.0482(2)
H13 H 0.6176 0.7957 0.0029
C16 C 0.4598(3) 0.6765(3) 0.0438(3)
H14 H 0.3977 0.7044 -0.0060
C17 C 0.4156(3) 0.5814(2) 0.1107(2)
H15 H 0.3250 0.5449 0.1065
C18 C 0.5066(2) 0.5424(2) 0.1825(2)
C19 C 0.6853(3) 0.2587(2) 0.3328(2)
C20 C 0.8103(3) 0.2455(2) 0.3522(2)
C21 C 0.8433(3) 0.1634(3) 0.2831(3)
H16 H 0.9296 0.1568 0.2972
C22 C 0.7516(3) 0.0916(3) 0.1944(3)
H17 H 0.7747 0.0366 0.1463
C23 C 0.6248(3) 0.1000(3) 0.1756(3)
H18 H 0.5603 0.0490 0.1160
C24 C 0.5928(3) 0.1826(2) 0.2438(2)
H19 H 0.5060 0.1879 0.2300
C25 C 0.2614(2) 0.3835(2) 0.2466(2)
C26 C 0.2064(2) 0.4663(2) 0.2876(2)
H20 H 0.2524 0.5219 0.3526
C27 C 0.0833(3) 0.4677(2) 0.2331(2)
H21 H 0.0449 0.5241 0.2617
C28 C 0.0154(2) 0.3881(2) 0.1377(2)
C29 C 0.0727(3) 0.3048(2) 0.0989(2)
H22 H 0.0269 0.2492 0.0339
C30 C 0.1951(2) 0.3011(2) 0.1528(2)
H23 H 0.2327 0.2431 0.1260
C31 C -0.1181(3) 0.3900(3) 0.0782(3)
H24 H -0.1830 0.3488 0.1231
H25 H -0.1382 0.3492 -0.0004
H26 H -0.1200 0.4733 0.0731
O3 O 0.2632(3) 1.0365(2) 0.0912(2)
N2 N 0.1258(3) 0.8918(2) 0.1689(2)
C32 C 0.2359(4) 0.9391(3) 0.1391(3)
H27 H 0.3009 0.8987 0.1539
C33 C 0.0236(4) 0.9551(3) 0.1574(3)
H28 H 0.0596 1.0366 0.1361
H29 H -0.0059 0.9591 0.2318
H30 H -0.0503 0.9115 0.0968
C34 C 0.0943(3) 0.7840(3) 0.2262(3)
H31 H 0.1684 0.7506 0.2362
H32 H 0.0179 0.7257 0.1789
H33 H 0.0750 0.8019 0.3027
loop_
_geom_bond_atom_site_label_1
_geom_bond_atom_site_label_2
_geom_bond_site_symmetry_1
_geom_bond_site_symmetry_2
Cl1 C20 1_555 1_555
O1 C6 1_555 1_555
O2 C12 1_555 1_555
O3 C32 1_555 1_555
N1 C1 1_555 1_555
N2 C32 1_555 1_555
C1 C2 1_555 1_555
C2 C3 1_555 1_555
C3 H1 1_555 1_555
C4 C3 1_555 1_555
C5 N1 1_555 1_555
C6 C2 1_555 1_555
C7 C6 1_555 1_555
H2 C7 1_555 1_555
H3 C7 1_555 1_555
C8 C7 1_555 1_555
C9 C1 1_555 1_555
H4 C9 1_555 1_555
H5 C9 1_555 1_555
C10 C8 1_555 1_555
H6 C10 1_555 1_555
H7 C10 1_555 1_555
H8 C10 1_555 1_555
C11 C8 1_555 1_555
H9 C11 1_555 1_555
H10 C11 1_555 1_555
H11 C11 1_555 1_555
C12 C4 1_555 1_555
C13 C12 1_555 1_555
C14 C13 1_555 1_555
H12 C14 1_555 1_555
C15 C14 1_555 1_555
H13 C15 1_555 1_555
C16 C15 1_555 1_555
H14 C16 1_555 1_555
C17 C16 1_555 1_555
H15 C17 1_555 1_555
C18 C5 1_555 1_555
C19 C3 1_555 1_555
C20 C19 1_555 1_555
C21 C20 1_555 1_555
H16 C21 1_555 1_555
C22 C21 1_555 1_555
H17 C22 1_555 1_555
C23 C22 1_555 1_555
H18 C23 1_555 1_555
C24 C19 1_555 1_555
H19 C24 1_555 1_555
C25 N1 1_555 1_555
C26 C25 1_555 1_555
H20 C26 1_555 1_555
C27 C26 1_555 1_555
H21 C27 1_555 1_555
C28 C27 1_555 1_555
C29 C28 1_555 1_555
H22 C29 1_555 1_555
C30 C25 1_555 1_555
H23 C30 1_555 1_555
C31 C28 1_555 1_555
H24 C31 1_555 1_555
H25 C31 1_555 1_555
H26 C31 1_555 1_555
C32 H27 1_555 1_555
C33 N2 1_555 1_555
H28 C33 1_555 1_555
H29 C33 1_555 1_555
H30 C33 1_555 1_555
C34 N2 1_555 1_555
H31 C34 1_555 1_555
H32 C34 1_555 1_555
H33 C34 1_555 1_555
C4 C5 1_555 1_555
C8 C9 1_555 1_555
C13 C18 1_555 1_555
C17 C18 1_555 1_555
C23 C24 1_555 1_555
C29 C30 1_555 1_555

#END
