
#######################################################################
#
#                 Cambridge Crystallographic Data Centre
#                                CCDC 
#
#######################################################################
#
# If this CIF has been generated from an entry in the Cambridge 
# Structural Database, then it will include bibliographic, chemical, 
# crystal, experimental, refinement or atomic coordinate data resulting 
# from the CCDC's data processing and validation procedures.
#
#######################################################################

data_NERWUF
_chemical_formula_moiety         'C27 H21 N3 O1'
_chemical_name_systematic        
2-[methyl(pyridin-2-yl)amino]-3,4-diphenylisoquinolin-1(2H)-one
_symmetry_cell_setting           monoclinic
_symmetry_space_group_name_H-M   'P 21/c'
_symmetry_Int_Tables_number      14
_space_group_name_Hall           '-P 2ybc'
loop_
_symmetry_equiv_pos_site_id
_symmetry_equiv_pos_as_xyz
1 x,y,z
2 -x,1/2+y,1/2-z
3 -x,-y,-z
4 x,1/2-y,1/2+z
_cell_length_a                   11.047(6)
_cell_length_b                   20.569(9)
_cell_length_c                   10.343(6)
_cell_angle_alpha                90
_cell_angle_beta                 114.101(17)
_cell_angle_gamma                90
_cell_volume                     2145.32
_exptl_crystal_colour            colorless
_exptl_crystal_description       Prism
_chemical_melting_point          '198.2-200.3 deg.C'
_cell_formula_units_Z            4
loop_
_atom_site_label
_atom_site_type_symbol
_atom_site_fract_x
_atom_site_fract_y
_atom_site_fract_z
O1 O 0.38814(16) 0.74756(10) 0.05671(18)
N1 N 0.53619(17) 0.67809(9) 0.21364(18)
N2 N 0.45344(18) 0.62564(9) 0.14863(19)
N3 N 0.2505(2) 0.57804(11) 0.0909(2)
C1 C 0.6945(2) 0.59506(10) 0.3548(2)
C2 C 0.3395(2) 0.62035(10) 0.1735(2)
C3 C 0.6584(2) 0.66461(10) 0.3264(2)
C4 C 0.3229(2) 0.65563(11) 0.2796(2)
H1 H 0.3879 0.6845 0.3357
C5 C 0.6968(2) 0.78040(10) 0.3616(2)
C6 C 0.8695(2) 0.69984(10) 0.5167(2)
C7 C 0.8781(2) 0.67134(12) 0.6418(2)
H2 H 0.8013 0.6598 0.6523
C8 C 0.5772(2) 0.79320(11) 0.2438(2)
C9 C 0.7382(2) 0.71397(10) 0.3993(2)
C10 C 0.6487(3) 0.55766(11) 0.4368(2)
H3 H 0.5890 0.5753 0.4696
C11 C 0.7710(3) 0.83397(11) 0.4378(3)
H4 H 0.8500 0.8271 0.5166
C12 C 0.4928(2) 0.74036(11) 0.1618(2)
C13 C 0.5353(3) 0.85706(12) 0.2042(3)
H5 H 0.4561 0.8649 0.1263
C14 C 0.9859(2) 0.71633(12) 0.5036(3)
H6 H 0.9820 0.7348 0.4199
C15 C 0.7799(3) 0.56771(14) 0.3039(3)
H7 H 0.8112 0.5922 0.2485
C16 C 1.0010(3) 0.66007(15) 0.7512(3)
H8 H 1.0058 0.6407 0.8345
C17 C 0.2093(3) 0.64724(14) 0.3002(3)
H9 H 0.1959 0.6704 0.3705
C18 C 0.4609(3) 0.60229(16) 0.0195(3)
H10 H 0.4347 0.6364 -0.0499
H11 H 0.4026 0.5658 -0.0164
H12 H 0.5502 0.5893 0.0395
C19 C 1.1148(3) 0.67699(15) 0.7382(3)
H13 H 1.1967 0.6694 0.8125
C20 C 0.6915(3) 0.49413(13) 0.4703(3)
H14 H 0.6626 0.4698 0.5280
C21 C 0.6106(3) 0.90836(12) 0.2799(3)
H15 H 0.5831 0.9508 0.2527
C22 C 0.7279(3) 0.89643(11) 0.3970(3)
H16 H 0.7782 0.9312 0.4488
C23 C 1.1084(3) 0.70526(14) 0.6151(3)
H17 H 1.1859 0.7170 0.6063
C24 C 0.1147(3) 0.60400(17) 0.2157(4)
H18 H 0.0363 0.5975 0.2269
C25 C 0.7756(4) 0.46707(14) 0.4192(4)
H19 H 0.8032 0.4242 0.4410
C26 C 0.1403(3) 0.57108(16) 0.1150(4)
H20 H 0.0768 0.5416 0.0587
C27 C 0.8196(4) 0.50317(15) 0.3356(4)
H21 H 0.8761 0.4845 0.2997
loop_
_geom_bond_atom_site_label_1
_geom_bond_atom_site_label_2
_geom_bond_site_symmetry_1
_geom_bond_site_symmetry_2
O1 C12 1_555 1_555
N1 N2 1_555 1_555
N2 C2 1_555 1_555
N3 C2 1_555 1_555
C1 C3 1_555 1_555
C2 C4 1_555 1_555
C3 N1 1_555 1_555
C4 H1 1_555 1_555
C5 C8 1_555 1_555
C6 C7 1_555 1_555
C7 H2 1_555 1_555
C8 C12 1_555 1_555
C9 C3 1_555 1_555
C10 C1 1_555 1_555
H3 C10 1_555 1_555
C11 C5 1_555 1_555
H4 C11 1_555 1_555
C12 N1 1_555 1_555
C13 C8 1_555 1_555
H5 C13 1_555 1_555
C14 C6 1_555 1_555
H6 C14 1_555 1_555
C15 C1 1_555 1_555
H7 C15 1_555 1_555
C16 C7 1_555 1_555
H8 C16 1_555 1_555
C17 C4 1_555 1_555
H9 C17 1_555 1_555
C18 N2 1_555 1_555
H10 C18 1_555 1_555
H11 C18 1_555 1_555
H12 C18 1_555 1_555
C19 C16 1_555 1_555
H13 C19 1_555 1_555
C20 C10 1_555 1_555
H14 C20 1_555 1_555
C21 C13 1_555 1_555
H15 C21 1_555 1_555
C22 C11 1_555 1_555
H16 C22 1_555 1_555
C23 C14 1_555 1_555
H17 C23 1_555 1_555
C24 C17 1_555 1_555
H18 C24 1_555 1_555
C25 C20 1_555 1_555
H19 C25 1_555 1_555
C26 N3 1_555 1_555
H20 C26 1_555 1_555
C27 C15 1_555 1_555
H21 C27 1_555 1_555
C5 C9 1_555 1_555
C6 C9 1_555 1_555
C19 C23 1_555 1_555
C21 C22 1_555 1_555
C24 C26 1_555 1_555
C25 C27 1_555 1_555

#END
