
#######################################################################
#
#                 Cambridge Crystallographic Data Centre
#                                CCDC 
#
#######################################################################
#
# If this CIF has been generated from an entry in the Cambridge 
# Structural Database, then it will include bibliographic, chemical, 
# crystal, experimental, refinement or atomic coordinate data resulting 
# from the CCDC's data processing and validation procedures.
#
#######################################################################

data_NERYIT
_chemical_formula_moiety         'C22 H20'
_chemical_name_systematic        1-Naphthyl-4-phenylcyclohexene
_symmetry_cell_setting           monoclinic
_symmetry_space_group_name_H-M   'P 21/c'
_symmetry_Int_Tables_number      14
_space_group_name_Hall           '-P 2ybc'
loop_
_symmetry_equiv_pos_site_id
_symmetry_equiv_pos_as_xyz
1 x,y,z
2 -x,1/2+y,1/2-z
3 -x,-y,-z
4 x,1/2-y,1/2+z
_cell_length_a                   17.1940(11)
_cell_length_b                   7.4760(6)
_cell_length_c                   13.7950(8)
_cell_angle_alpha                90
_cell_angle_beta                 112.99(2)
_cell_angle_gamma                90
_cell_volume                     1632.4
_exptl_crystal_colour            colorless
_exptl_crystal_description       block
_cell_formula_units_Z            4
loop_
_atom_site_label
_atom_site_type_symbol
_atom_site_fract_x
_atom_site_fract_y
_atom_site_fract_z
C1 C 0.0452(2) 1.3199(5) 0.6118(3)
H1 H 0.0228 1.2638 0.5465
C2 C 0.0010(3) 1.4577(5) 0.6328(3)
H2 H -0.0507 1.4927 0.5820
C3 C 0.0319(3) 1.5417(5) 0.7259(4)
H3 H 0.0018 1.6345 0.7399
C4 C 0.1077(3) 1.4899(5) 0.7998(4)
H4 H 0.1296 1.5484 0.8644
C5 C 0.1527(2) 1.3506(5) 0.7796(3)
H5 H 0.2044 1.3161 0.8308
C6 C 0.1213(2) 1.2634(4) 0.6845(3)
C7 C 0.1688(3) 1.1106(5) 0.6611(5)
H6 H 0.2117 1.0970 0.7326
C8 C 0.1349(3) 0.9393(4) 0.6518(5)
H7 H 0.0775 0.9438 0.5994
H8 H 0.1316 0.9090 0.7184
C9 C 0.17948(19) 0.7897(4) 0.6227(3)
H9 H 0.1595 0.6731 0.6181
C10 C 0.25114(16) 0.8269(3) 0.6027(2)
C11 C 0.2774(2) 1.0056(4) 0.5980(3)
H10 H 0.2813 1.0219 0.5303
H11 H 0.3340 1.0191 0.6516
C12 C 0.2244(3) 1.1543(4) 0.6120(4)
H12 H 0.2619 1.2480 0.6528
H13 H 0.1912 1.2037 0.5431
C13 C 0.30257(16) 0.6788(3) 0.5858(2)
C14 C 0.3040(2) 0.6495(4) 0.4883(2)
H14 H 0.2710 0.7207 0.4320
C15 C 0.3540(2) 0.5155(5) 0.4715(2)
H15 H 0.3534 0.4985 0.4044
C16 C 0.40338(19) 0.4096(4) 0.5519(2)
H16 H 0.4367 0.3214 0.5397
C17 C 0.40439(16) 0.4329(3) 0.6539(2)
C18 C 0.45565(18) 0.3260(4) 0.7394(2)
H17 H 0.4889 0.2370 0.7281
C19 C 0.4573(2) 0.3505(5) 0.8377(3)
H18 H 0.4914 0.2785 0.8930
C20 C 0.4079(2) 0.4835(5) 0.8555(2)
H19 H 0.4094 0.4999 0.9231
C21 C 0.35741(17) 0.5898(4) 0.7759(2)
H20 H 0.3248 0.6775 0.7897
C22 C 0.35386(15) 0.5688(3) 0.67203(19)
loop_
_geom_bond_atom_site_label_1
_geom_bond_atom_site_label_2
_geom_bond_site_symmetry_1
_geom_bond_site_symmetry_2
C1 H1 1_555 1_555
C2 C1 1_555 1_555
H2 C2 1_555 1_555
C3 C2 1_555 1_555
H3 C3 1_555 1_555
C4 C3 1_555 1_555
H4 C4 1_555 1_555
C5 C4 1_555 1_555
H5 C5 1_555 1_555
C6 C1 1_555 1_555
C7 C6 1_555 1_555
H6 C7 1_555 1_555
C8 C7 1_555 1_555
H7 C8 1_555 1_555
H8 C8 1_555 1_555
C9 C8 1_555 1_555
H9 C9 1_555 1_555
C10 C9 1_555 1_555
C11 C10 1_555 1_555
H10 C11 1_555 1_555
H11 C11 1_555 1_555
C12 C7 1_555 1_555
H12 C12 1_555 1_555
H13 C12 1_555 1_555
C13 C10 1_555 1_555
C14 C13 1_555 1_555
H14 C14 1_555 1_555
C15 C14 1_555 1_555
H15 C15 1_555 1_555
C16 C15 1_555 1_555
H16 C16 1_555 1_555
C17 C16 1_555 1_555
C18 C17 1_555 1_555
H17 C18 1_555 1_555
C19 C18 1_555 1_555
H18 C19 1_555 1_555
C20 C19 1_555 1_555
H19 C20 1_555 1_555
C21 C20 1_555 1_555
H20 C21 1_555 1_555
C22 C13 1_555 1_555
C5 C6 1_555 1_555
C11 C12 1_555 1_555
C17 C22 1_555 1_555
C21 C22 1_555 1_555

#END
