
#######################################################################
#
#                 Cambridge Crystallographic Data Centre
#                                CCDC 
#
#######################################################################
#
# If this CIF has been generated from an entry in the Cambridge 
# Structural Database, then it will include bibliographic, chemical, 
# crystal, experimental, refinement or atomic coordinate data resulting 
# from the CCDC's data processing and validation procedures.
#
#######################################################################

data_NERYIS
_chemical_name_common            
"5,5':11,11':17,17':23,23-tetrakis(butane-1,4-dioxy)-bis(6,10:12,16:18,22:24,4-O,O'-tetrakis(methylene)-2,8,14,20-tetrakis(phenylethyl)calix[4]resorcinarene) nitrobenzene clathrate nitrobenzene solvate"
_chemical_formula_moiety         'C148 H136 O24,6(C6 H5 N1 O2)'
_chemical_name_systematic        
"61,62,63,64-Tetrahydro-6,14,16,44,46,54,75,84-octaphenylethyl-33H-22,38-(epoxybutanoxy)-8,12:48,52-dimethano-5,17:28,32:43,55-trimetheno-4,18,42,56-(methynoxybutanoxymethyno)-6H,14H,16H,27H,42H,46H,54H-bis(1,3)benzodioxocino(9,8-d:9',8'-d')-bis(1,3)benzodioxocino(9',10':4,5;10'',9'':12,13)(1,3,6,11,14,16,19,27)octaoxacyclononacosino(17,18-j:29,28-j')-bis(1,3)benzodioxocin nitrobenzene clathrate nitrobenzene solvate"
_symmetry_cell_setting           triclinic
_symmetry_space_group_name_H-M   'P -1'
_symmetry_Int_Tables_number      2
_space_group_name_Hall           '-P 1'
loop_
_symmetry_equiv_pos_site_id
_symmetry_equiv_pos_as_xyz
1 x,y,z
2 -x,-y,-z
_cell_length_a                   20.241(5)
_cell_length_b                   26.350(5)
_cell_length_c                   15.143(3)
_cell_angle_alpha                98.84(2)
_cell_angle_beta                 95.01(2)
_cell_angle_gamma                94.26(2)
_cell_volume                     7918.48
_exptl_crystal_colour            colorless
_exptl_crystal_description       plate
_cell_formula_units_Z            2
loop_
_atom_site_label
_atom_site_type_symbol
_atom_site_fract_x
_atom_site_fract_y
_atom_site_fract_z
O1 O 0.10034(51) 0.54825(37) 1.52593(67)
C1 C 0.15637(74) 0.52013(55) 1.53396(98)
H1 H 0.18330(74) 0.52406(55) 1.48509(98)
H2 H 0.14193(74) 0.48381(55) 1.52953(98)
O2 O 0.19572(47) 0.53760(34) 1.61810(62)
C2 C 0.24663(32) 0.57467(25) 1.61957(62)
C3 C 0.23693(29) 0.62691(28) 1.62610(61)
C4 C 0.29091(37) 0.66298(20) 1.62568(59)
H3 H 0.28445(50) 0.69782(21) 1.63003(88)
C5 C 0.35460(31) 0.64679(23) 1.61878(57)
C6 C 0.36430(29) 0.59455(26) 1.61226(58)
C7 C 0.31032(38) 0.55847(20) 1.61265(61)
O3 O 0.31929(47) 0.5072(34) 1.58396(61)
C8 C 0.31234(74) 0.47328(49) 1.64837(92)
H4 H 0.27232(74) 0.47857(49) 1.67818(92)
H5 H 0.35048(74) 0.47875(49) 1.69328(92)
C9 C 0.30812(39) 0.42018(25) 1.59445(51)
C10 C 0.36616(31) 0.40045(29) 1.56602(55)
H6 H 0.40748(35) 0.41739(40) 1.58876(78)
C11 C 0.36220(32) 0.35528(29) 1.50346(55)
H7 H 0.40088(38) 0.34212(41) 1.48449(79)
C12 C 0.30019(39) 0.32985(25) 1.46935(51)
C13 C 0.24216(31) 0.34958(29) 1.49781(56)
H8 H 0.20083(35) 0.33261(41) 1.47507(80)
C14 C 0.24613(32) 0.39475(30) 1.56034(56)
H9 H 0.20743(38) 0.40789(42) 1.57929(80)
C15 C 0.29559(74) 0.28670(51) 1.39088(89)
H10 H 0.33403(74) 0.26689(51) 1.39374(89)
H11 H 0.25552(74) 0.26378(51) 1.38892(89)
O4 O 0.29375(50) 0.31336(37) 1.31358(67)
C16 C 0.27884(43) 0.28234(35) 1.23218(42)
C17 C 0.21276(37) 0.27185(35) 1.19515(52)
C18 C 0.19823(31) 0.24880(35) 1.10556(55)
C19 C 0.24975(42) 0.23624(34) 1.05302(42)
H12 H 0.24006(57) 0.22088(49) 0.99331(46)
C20 C 0.31584(36) 0.24673(35) 1.09005(53)
C21 C 0.33038(32) 0.26979(36) 1.17962(55)
O5 O 0.39427(51) 0.27461(37) 1.22099(68)
C22 C 0.43282(40) 0.32064(28) 1.21337(52)
H13 H 0.40323(40) 0.34732(28) 1.20590(52)
H14 H 0.46156(40) 0.33194(28) 1.26868(52)
O6 O 0.47245(40) 0.31483(28) 1.14060(52)
C23 C 0.44267(42) 0.32524(29) 1.05985(43)
C24 C 0.39591(43) 0.28991(24) 1.00504(51)
C25 C 0.36833(38) 0.30139(25) 0.92354(48)
H15 H 0.33716(53) 0.27782(34) 0.88700(65)
C26 C 0.38752(40) 0.34822(28) 0.89685(42)
C27 C 0.43427(42) 0.38355(23) 0.95165(51)
C28 C 0.46185(39) 0.37206(26) 1.03315(48)
O7 O 0.51697(44) 0.40347(32) 1.07650(58)
C29 C 0.51337(68) 0.43045(48) 1.16500(86)
H16 H 0.55773(68) 0.44494(48) 1.19006(86)
H17 H 0.49815(68) 0.40605(48) 1.20235(86)
C30 C 0.46824(65) 0.47266(45) 1.16862(83)
H18 H 0.42272(65) 0.45810(45) 1.16794(83)
H19 H 0.47106(65) 0.48889(45) 1.11559(83)
C31 C 0.48551(72) 0.51341(50) 1.25219(92)
H20 H 0.47587(72) 0.49813(50) 1.30450(92)
H21 H 0.53296(72) 0.52348(50) 1.25796(92)
C32 C 0.44900(70) 0.56081(48) 1.25214(91)
H22 H 0.44989(70) 0.57282(48) 1.19480(91)
H23 H 0.40297(70) 0.55369(48) 1.26305(91)
O8 O 0.48296(43) 0.59883(31) 1.32309(57)
C33 C 0.44772(41) 0.63723(25) 1.36339(46)
C34 C 0.44591(42) 0.64125(26) 1.45606(46)
C35 C 0.41505(43) 0.68126(29) 1.50268(35)
C36 C 0.38598(40) 0.71724(25) 1.45662(45)
H24 H 0.36541(58) 0.74391(33) 1.48769(61)
C37 C 0.38779(42) 0.71321(26) 1.36393(45)
C38 C 0.41866(43) 0.67321(29) 1.31732(35)
O9 O 0.42670(44) 0.67073(32) 1.22653(57)
C39 C 0.37164(65) 0.65291(47) 1.16158(86)
H25 H 0.38786(65) 0.63615(47) 1.10707(86)
H26 H 0.34336(65) 0.62745(47) 1.18404(86)
O10 O 0.33338(45) 0.69306(33) 1.14084(59)
C40 C 0.28074(32) 0.70117(32) 1.19145(51)
C41 C 0.28904(31) 0.73305(32) 1.27489(53)
C42 C 0.23446(41) 0.74130(31) 1.32384(43)
H27 H 0.24000(56) 0.76255(44) 1.37947(53)
C43 C 0.17160(34) 0.71767(32) 1.28934(50)
C44 C 0.16331(30) 0.68580(31) 1.20590(52)
C45 C 0.21788(38) 0.67754(29) 1.15697(42)
O11 O 0.21203(42) 0.64213(31) 1.07999(56)
C46 C 0.18834(70) 0.66129(48) 0.99880(85)
H28 H 0.21652(70) 0.69137(48) 0.99098(85)
H29 H 0.14309(70) 0.67072(48) 1.00206(85)
C47 C 0.19110(67) 0.61799(49) 0.92215(89)
H30 H 0.16790(67) 0.62643(49) 0.86823(89)
H31 H 0.16835(67) 0.58681(49) 0.93567(89)
C48 C 0.26262(65) 0.60803(46) 0.90470(87)
H32 H 0.27986(65) 0.63309(46) 0.86987(87)
H33 H 0.29010(65) 0.61263(46) 0.96161(87)
C49 C 0.26723(68) 0.55430(45) 0.85477(84)
H34 H 0.23389(68) 0.54660(45) 0.80341(84)
H35 H 0.31087(68) 0.55131(45) 0.83364(84)
O12 O 0.25602(39) 0.51956(28) 0.91712(51)
C50 C 0.24824(34) 0.46820(18) 0.87875(54)
C51 C 0.30323(26) 0.44175(23) 0.85658(53)
C52 C 0.29521(28) 0.38872(23) 0.82620(52)
C53 C 0.23218(33) 0.36214(18) 0.81799(52)
H36 H 0.22682(45) 0.32680(19) 0.79774(77)
C54 C 0.17719(26) 0.38859(23) 0.84015(52)
C55 C 0.18521(28) 0.44162(23) 0.87054(53)
O13 O 0.13207(41) 0.47006(30) 0.88613(5)
C56 C 0.10476(65) 0.46984(46) 0.96966(84)
H37 H 0.08618(65) 0.50237(46) 0.98699(84)
H38 H 0.13990(65) 0.46646(46) 1.01565(84)
O14 O 0.05406(43) 0.42855(31) 0.96410(56)
C57 C 0.07453(44) 0.38310(22) 0.98654(49)
C58 C 0.09664(43) 0.34554(27) 0.92331(38)
C59 C 0.11238(43) 0.29848(24) 0.94720(44)
H39 H 0.12710(62) 0.27344(32) 0.90506(57)
C60 C 0.10600(45) 0.28900(23) 1.03433(49)
C61 C 0.08390(47) 0.32657(29) 1.09756(38)
C62 C 0.06817(45) 0.37362(26) 1.07366(45)
O15 O 0.05432(43) 0.41300(31) 1.13791(56)
C63 C -0.01672(64) 0.41744(46) 1.14198(84)
H40 H -0.03731(64) 0.38745(46) 1.16229(84)
H41 H -0.03802(64) 0.41971(46) 1.08298(84)
C64 C -0.02428(76) 0.46461(53) 1.20568(93)
H42 H -0.07044(76) 0.47229(53) 1.19956(93)
H43 H 0.00249(76) 0.49316(53) 1.18934(93)
C65 C -0.00429(77) 0.46108(53) 1.30310(94)
H44 H -0.03725(77) 0.43835(53) 1.32409(94)
H45 H 0.03803(77) 0.44618(53) 1.30779(94)
C66 C 0.00166(79) 0.51172(56) 1.3607(11)
H46 H -0.03669(79) 0.53019(56) 1.3470(11)
H47 H 0.00349(79) 0.50747(56) 1.4233(11)
O16 O 0.06151(52) 0.54024(38) 1.34449(69)
C67 C 0.07979(50) 0.58712(26) 1.39501(56)
C68 C 0.08061(49) 0.63022(34) 1.35178(44)
C69 C 0.10863(51) 0.67802(28) 1.39760(55)
C70 C 0.13580(48) 0.68273(25) 1.48665(54)
H48 H 0.15448(69) 0.71460(29) 1.51720(73)
C71 C 0.13498(47) 0.63964(32) 1.52990(43)
C72 C 0.10698(51) 0.59183(26) 1.48408(56)
O17 O 0.04488(51) 0.62551(37) 1.26848(68)
C73 C 0.08242(74) 0.61725(52) 1.19216(94)
H49 H 0.12142(74) 0.59985(52) 1.20736(94)
H50 H 0.05541(74) 0.59522(52) 1.14291(94)
O18 O 0.10208(47) 0.66335(34) 1.16547(62)
O19 O 0.48336(41) 0.60960(30) 1.50000(54)
C74 C 0.44768(68) 0.56588(48) 1.52299(86)
H51 H 0.47582(68) 0.53756(48) 1.52049(86)
H52 H 0.40904(68) 0.55530(48) 1.47970(86)
O20 O 0.42659(42) 0.57696(30) 1.61107(55)
O21 O 0.45342(43) 0.43093(31) 0.92922(57)
C75 C 0.40678(66) 0.46911(48) 0.94285(85)
H53 H 0.38009(66) 0.46189(48) 0.99039(85)
H54 H 0.43093(66) 0.50276(48) 0.96190(85)
O22 O 0.36450(40) 0.47009(29) 0.86431(53)
O23 O 0.07547(46) 0.31979(33) 1.18534(61)
C76 C 0.1337(75) 0.32877(54) 1.2473(10)
H55 H 0.12192(75) 0.34250(54) 1.3065(10)
H56 H 0.16470(75) 0.35415(54) 1.2291(10)
O24 O 0.16513(50) 0.28210(36) 1.25145(66)
C77 C 0.12583(69) 0.23924(49) 1.06743(92)
H57 H 0.09962(69) 0.23442(49) 1.11742(92)
C78 C 0.10969(81) 0.19115(53) 0.9959(10)
H58 H 0.06408(81) 0.19057(53) 0.9698(10)
H59 H 0.13852(81) 0.19309(53) 0.9484(10)
C79 C 0.11829(98) 0.14170(66) 1.0328(13)
H60 H 0.16463(98) 0.14162(66) 1.0554(13)
H61 H 0.09199(98) 0.14131(66) 1.0833(13)
C80 C 0.0990(11) 0.09413(68) 0.9680(13)
C81 C 0.1350(12) 0.0817(12) 0.8944(19)
H62 H 0.1750(16) 0.1006(17) 0.8906(29)
C82 C 0.1110(19) 0.0408(14) 0.8265(17)
H63 H 0.1350(26) 0.0325(20) 0.7775(23)
C83 C 0.0510(19) 0.01242(94) 0.8323(19)
H64 H 0.0350(25) -0.0148(12) 0.7870(25)
C84 C 0.0150(13) 0.0249(11) 0.9058(24)
H65 H -0.0250(17) 0.0059(16) 0.9097(35)
C85 C 0.0390(12) 0.0657(11) 0.9737(18)
H66 H 0.0150(18) 0.0740(17) 1.0228(25)
C86 C 0.10759(60) 0.35955(42) 0.83253(75)
H67 H 0.07555(60) 0.38447(42) 0.82110(75)
C87 C 0.09547(65) 0.31474(45) 0.75169(79)
H68 H 0.12826(65) 0.29016(45) 0.75800(79)
H69 H 0.05172(65) 0.29702(45) 0.75170(79)
C88 C 0.10010(68) 0.33455(47) 0.66292(83)
H70 H 0.06196(68) 0.35386(47) 0.65266(83)
H71 H 0.13958(68) 0.35856(47) 0.66926(83)
C89 C 0.10285(42) 0.29497(28) 0.58041(44)
C90 C 0.06424(41) 0.29903(30) 0.50127(55)
H72 H 0.03492(56) 0.32455(40) 0.50083(76)
C91 C 0.06964(46) 0.26477(35) 0.42280(45)
H73 H 0.04390(63) 0.26745(50) 0.37004(54)
C92 C 0.11365(49) 0.22649(32) 0.42347(48)
H74 H 0.11725(70) 0.20366(43) 0.37115(57)
C93 C 0.15255(44) 0.22245(30) 0.50260(59)
H75 H 0.18160(60) 0.19693(41) 0.50305(81)
C94 C 0.14685(41) 0.25670(32) 0.58107(47)
H76 H 0.17259(58) 0.25400(46) 0.63383(57)
C95 C 0.35664(64) 0.36018(45) 0.80666(81)
H77 H 0.38872(64) 0.38448(45) 0.78634(81)
C96 C 0.34433(60) 0.31291(43) 0.73310(79)
H78 H 0.31677(60) 0.28625(43) 0.75368(79)
H79 H 0.32062(60) 0.32212(43) 0.68019(79)
C97 C 0.40960(72) 0.29229(52) 0.70884(95)
H80 H 0.43475(72) 0.31833(50) 0.68347(95)
H81 H 0.43507(72) 0.28743(52) 0.76373(95)
C98 C 0.40408(76) 0.24235(49) 0.64367(87)
C99 C 0.45510(77) 0.20955(75) 0.6443(13)
H82 H 0.4907(10) 0.2167(11) 0.6888(18)
C100 C 0.4526(10) 0.16605(72) 0.5783(16)
H83 H 0.4867(14) 0.1442(10) 0.5788(23)
C101 C 0.3992(12) 0.15533(59) 0.5117(13)
H84 H 0.3976(17) 0.12634(75) 0.4677(16)
C102 C 0.34816(97) 0.18812(76) 0.5110(11)
H85 H 0.3125(13) 0.1810(11) 0.4666(15)
C103 C 0.35062(71) 0.23163(64) 0.5770(11)
H86 H 0.31660(95) 0.25349(92) 0.5766(17)
C104 C 0.37457(80) 0.23798(56) 1.0337(10)
H87 H 0.41158(80) 0.22928(56) 1.0732(10)
C105 C 0.35886(92) 0.19353(63) 0.9570(12)
H88 H 0.31428(92) 0.19632(63) 0.9301(12)
H89 H 0.38900(92) 0.19876(63) 0.9122(12)
C106 C 0.3617(17) 0.1427(12) 0.9725(22)
H90 H 0.3379(17) 0.1381(12) 1.0240(22)
H91 H 0.4078(17) 0.1368(12) 0.9872(22)
C107 C 0.3297(25) 0.0994(13) 0.8856(21)
C108 C 0.3959(22) 0.1031(13) 0.8667(24)
H92 H 0.4269(29) 0.1268(19) 0.9032(35)
C109 C 0.4156(15) 0.0714(16) 0.7929(28)
H93 H 0.4598(17) 0.0739(25) 0.7803(42)
C110 C 0.3691(20) 0.0359(11) 0.7381(19)
H94 H 0.3823(28) 0.0147(16) 0.6889(23)
C111 C 0.3029(18) 0.0321(14) 0.7570(26)
H95 H 0.2718(23) 0.0084(20) 0.7204(37)
C112 C 0.2831(17) 0.0638(18) 0.8307(31)
H96 H 0.2390(19) 0.0613(27) 0.8433(45)
C113 C 0.16590(70) 0.64219(51) 1.62763(90)
H97 H 0.14075(70) 0.61547(51) 1.62564(90)
C114 C 0.15898(67) 0.69376(49) 1.68806(91)
H98 H 0.18014(67) 0.72165(49) 1.66263(91)
H99 H 0.18205(67) 0.69371(49) 1.74694(91)
C115 C 0.08594(75) 0.70360(55) 1.6983(10)
H100 H 0.06418(75) 0.70702(55) 1.6401(10)
H101 H 0.06372(75) 0.67390(55) 1.7176(10)
C116 C 0.07784(60) 0.75000(41) 1.76289(67)
C117 C 0.06941(83) 0.79689(53) 1.73320(82)
H102 H 0.0683(12) 0.79883(77) 1.67229(89)
C118 C 0.0627(10) 0.84086(42) 1.7949(13)
H103 H 0.0571(15) 0.87212(51) 1.7751(17)
C119 C 0.06442(96) 0.83794(46) 1.8862(11)
H104 H 0.0599(13) 0.86725(59) 1.9274(15)
C120 C 0.07283(79) 0.79105(58) 1.91594(68)
H105 H 0.0740(11) 0.78910(83) 1.97684(66)
C121 C 0.07955(64) 0.74709(42) 1.85425(73)
H106 H 0.0852(10) 0.71583(52) 1.8740(10)
C122 C 0.41296(64) 0.68331(44) 1.60408(80)
H107 H 0.45334(64) 0.66878(44) 1.62574(80)
C123 C 0.41512(78) 0.73761(55) 1.6565(11)
H108 H 0.41183(78) 0.73547(55) 1.7194(11)
H109 H 0.37682(78) 0.75394(55) 1.6351(11)
C124 C 0.47767(83) 0.77088(59) 1.6485(11)
H110 H 0.51590(83) 0.75583(59) 1.6736(11)
H111 H 0.48249(83) 0.77147(59) 1.5855(11)
C125 C 0.47676(86) 0.82460(59) 1.6957(12)
C126 C 0.4635(11) 0.86413(89) 1.6469(12)
H112 H 0.4548(16) 0.8569(14) 1.5847(12)
C127 C 0.4632(14) 0.91455(73) 1.6914(22)
H113 H 0.4543(19) 0.9409(10) 1.6589(29)
C128 C 0.4761(16) 0.92544(71) 1.7847(22)
H114 H 0.4759(22) 0.95905(83) 1.8144(30)
C129 C 0.4894(14) 0.8859(11) 1.8335(13)
H115 H 0.4981(20) 0.8932(16) 1.8957(13)
C130 C 0.4897(10) 0.83549(88) 1.7890(12)
H116 H 0.4986(15) 0.8091(12) 1.8215(17)
C131 C 0.35922(73) 0.75315(51) 1.31418(96)
H117 H 0.38562(73) 0.75585(51) 1.26358(96)
C132 C 0.36391(88) 0.80751(59) 1.3715(11)
H118 H 0.40913(88) 0.81642(59) 1.3994(11)
H119 H 0.33480(88) 0.80696(59) 1.4191(11)
C133 C 0.3441(10) 0.84950(67) 1.3145(13)
H120 H 0.3703(10) 0.84824(67) 1.2637(13)
H121 H 0.2975(10) 0.84284(67) 1.2915(13)
C134 C 0.35580(75) 0.90190(46) 1.37113(91)
C135 C 0.41319(67) 0.93453(61) 1.3703(10)
H122 H 0.44524(89) 0.92445(85) 1.3323(14)
C136 C 0.42247(71) 0.98229(57) 1.4262(12)
H123 H 0.46071(88) 1.00403(77) 1.4256(17)
C137 C 0.37438(90) 0.99740(49) 1.4831(11)
H124 H 0.3806(13) 1.02924(59) 1.5204(15)
C138 C 0.31701(78) 0.96476(62) 1.4840(10)
H125 H 0.2849(10) 0.97484(88) 1.5219(14)
C139 C 0.30772(64) 0.91702(56) 1.4280(11)
H126 H 0.26948(78) 0.89527(75) 1.4286(15)
C140 C 0.11337(82) 0.72392(57) 1.3447(11)
H127 H 0.07299(82) 0.72057(57) 1.3028(11)
C141 C 0.11928(97) 0.77964(70) 1.4014(13)
H128 H 0.15474(97) 0.78185(70) 1.4496(13)
H129 H 0.13201(97) 0.80430(70) 1.3631(13)
C142 C 0.0581(12) 0.79463(86) 1.4407(16)
H130 H 0.0459(12) 0.77053(86) 1.4801(16)
H131 H 0.0223(12) 0.79186(86) 1.3927(16)
C143 C 0.0647(10) 0.84949(63) 1.4940(12)
C144 C 0.00950(83) 0.86425(75) 1.5375(13)
H132 H -0.0281(10) 0.8412(10) 1.5335(21)
C145 C 0.0108(11) 0.91357(86) 1.5871(14)
H133 H -0.0259(14) 0.9234(12) 1.6162(19)
C146 C 0.0673(14) 0.94815(64) 1.5932(16)
H134 H 0.0682(20) 0.98104(75) 1.6263(22)
C147 C 0.1224(11) 0.93340(86) 1.5497(19)
H135 H 0.1601(14) 0.9565(12) 1.5537(28)
C148 C 0.12111(88) 0.88407(95) 1.5000(16)
H136 H 0.1579(11) 0.8742(14) 1.4710(22)
O25 O 0.24557(86) 0.60050(67) 1.2860(12)
O26 O 0.27520(85) 0.57171(63) 1.4028(12)
N1 N 0.26057(82) 0.56273(63) 1.3193(12)
C149 C 0.26796(68) 0.51627(39) 1.27700(79)
C150 C 0.25765(67) 0.50746(45) 1.18342(79)
H137 H 0.24602(98) 0.53400(57) 1.1528(11)
C151 C 0.26480(77) 0.45882(54) 1.13575(66)
H138 H 0.2579(11) 0.45294(74) 1.07335(66)
C152 C 0.28224(83) 0.41900(41) 1.18168(95)
H139 H 0.2870(12) 0.38657(48) 1.1499(13)
C153 C 0.29253(75) 0.42780(43) 1.27526(95)
H140 H 0.304(11) 0.40126(55) 1.3059(13)
C154 C 0.28540(70) 0.47643(50) 1.32293(66)
H141 H 0.2923(10) 0.48231(70) 1.38532(66)
O27 O 0.56257(81) 0.19637(63) 0.8649(12)
O28 O 0.53998(91) 0.26772(69) 0.9492(12)
N2 N 0.57283(97) 0.23126(77) 0.9321(13)
C155 C 0.62878(54) 0.22817(48) 0.99073(76)
C156 C 0.67799(66) 0.19567(46) 0.96729(69)
H142 H 0.67449(93) 0.17578(64) 0.91049(80)
C157 C 0.73244(59) 0.19302(49) 1.02905(93)
H143 H 0.76526(77) 0.17136(68) 1.0134(13)
C158 C 0.73769(57) 0.22285(53) 1.11427(83)
H144 H 0.77399(72) 0.22108(76) 1.1554(11)
C159 C 0.68847(67) 0.25534(48) 1.13772(68)
H145 H 0.69197(94) 0.27523(66) 1.19453(77)
C160 C 0.63402(58) 0.25799(46) 1.07594(85)
H146 H 0.60122(76) 0.27966(65) 1.0916(12)
N3 N 0.1677(11) 0.17983(72) 0.7543(13)
O29 O 0.21813(91) 0.20525(66) 0.7919(12)
O30 O 0.1126(11) 0.18611(74) 0.7666(14)
C161 C 0.18173(77) 0.14265(49) 0.67578(83)
C162 C 0.12614(59) 0.11387(55) 0.62674(97)
H147 H 0.08378(65) 0.11908(83) 0.6437(14)
C163 C 0.13411(73) 0.07727(53) 0.55234(94)
H148 H 0.09706(91) 0.05811(76) 0.5197(13)
C164 C 0.19766(91) 0.06946(59) 0.52696(97)
H149 H 0.2030(13) 0.04507(78) 0.4774(12)
C165 C 0.25324(66) 0.09822(74) 0.5760(13)
H150 H 0.29561(76) 0.0930(11) 0.5591(18)
C166 C 0.24528(63) 0.13483(65) 0.6504(12)
H151 H 0.28234(77) 0.15401(90) 0.6831(16)
C167 C 0.102(15) 0.89472(78) 0.2636(16)
C168 C 0.1605(11) 0.87810(99) 0.2314(18)
H152 H 0.2003(14) 0.8989(14) 0.2464(26)
C169 C 0.1594(11) 0.8303(11) 0.1768(17)
H153 H 0.1984(13) 0.8192(15) 0.1553(23)
C170 C 0.0997(14) 0.79905(77) 0.1543(15)
H154 H 0.0990(20) 0.76716(91) 0.1178(21)
C171 C 0.0412(11) 0.81569(94) 0.1864(17)
H155 H 0.0014(13) 0.7949(13) 0.1714(25)
C172 C 0.0423(11) 0.8635(10) 0.2411(16)
H156 H 0.0033(14) 0.8746(15) 0.2625(23)
O31 O 0.1661(23) 0.9695(15) 0.3466(27)
O32 O 0.0420(35) 0.9595(24) 0.3523(44)
N4 N 0.1023(24) 0.9481(15) 0.3332(26)
N5 N 0.7377(13) 0.1701(11) 0.3803(19)
O33 O 0.7414(20) 0.2081(16) 0.3729(27)
O34 O 0.7759(19) 0.1810(14) 0.4509(28)
C173 C 0.7516(16) 0.1327(11) 0.3038(22)
C174 C 0.7221(15) 0.1231(14) 0.2154(25)
H157 H 0.6909(22) 0.1444(21) 0.1963(40)
C175 C 0.7393(22) 0.0816(17) 0.1555(19)
H158 H 0.7197(31) 0.0752(26) 0.0966(20)
C176 C 0.7861(25) 0.0498(14) 0.1841(34)
H159 H 0.7976(36) 0.0221(18) 0.1442(47)
C177 C 0.8156(22) 0.0594(17) 0.2725(39)
H160 H 0.8467(29) 0.0381(24) 0.2916(55)
C178 C 0.7983(18) 0.1009(17) 0.3323(23)
H161 H 0.8179(27) 0.1073(26) 0.3913(27)
C179? C 0.21376(90) 0.0943(10) 0.2657(16)
C180? C 0.2484(14) 0.13750(80) 0.2431(16)
H162? H 0.2255(19) 0.1650(10) 0.2291(23)
C181? C 0.3173(14) 0.13945(83) 0.2416(16)
H163? H 0.3404(19) 0.1683(10) 0.2265(23)
C182? C 0.35166(90) 0.0982(11) 0.2627(17)
H164? H 0.39761(92) 0.0995(15) 0.2617(25)
C183? C 0.3170(12) 0.05503(84) 0.2853(15)
H165? H 0.3399(17) 0.0275(11) 0.2993(22)
C184? C 0.2481(12) 0.05308(76) 0.2868(14)
H166? H 0.2251(17) 0.02428(94) 0.3019(20)
O35? O 0.1189(25) 0.0336(21) 0.3111(36)
O36? O 0.1251(36) 0.1181(30) 0.2543(48)
N6? N 0.1219(19) 0.0698(19) 0.2580(28)
loop_
_geom_bond_atom_site_label_1
_geom_bond_atom_site_label_2
_geom_bond_site_symmetry_1
_geom_bond_site_symmetry_2
O1 C1 1_555 1_555
C1 H1 1_555 1_555
H2 C1 1_555 1_555
O2 C1 1_555 1_555
C2 O2 1_555 1_555
C3 C2 1_555 1_555
C4 C3 1_555 1_555
H3 C4 1_555 1_555
C5 C4 1_555 1_555
C6 C5 1_555 1_555
C7 C2 1_555 1_555
O3 C7 1_555 1_555
C8 O3 1_555 1_555
H4 C8 1_555 1_555
H5 C8 1_555 1_555
C9 C8 1_555 1_555
C10 C9 1_555 1_555
H6 C10 1_555 1_555
C11 C10 1_555 1_555
H7 C11 1_555 1_555
C12 C11 1_555 1_555
C13 C12 1_555 1_555
H8 C13 1_555 1_555
C14 C9 1_555 1_555
H9 C14 1_555 1_555
C15 C12 1_555 1_555
H10 C15 1_555 1_555
H11 C15 1_555 1_555
O4 C15 1_555 1_555
C16 O4 1_555 1_555
C17 C16 1_555 1_555
C18 C17 1_555 1_555
C19 C18 1_555 1_555
H12 C19 1_555 1_555
C20 C19 1_555 1_555
C21 C16 1_555 1_555
O5 C21 1_555 1_555
C22 O5 1_555 1_555
H13 C22 1_555 1_555
H14 C22 1_555 1_555
O6 C22 1_555 1_555
C23 O6 1_555 1_555
C24 C23 1_555 1_555
C25 C24 1_555 1_555
H15 C25 1_555 1_555
C26 C25 1_555 1_555
C27 C26 1_555 1_555
C28 C23 1_555 1_555
O7 C28 1_555 1_555
C29 O7 1_555 1_555
H16 C29 1_555 1_555
H17 C29 1_555 1_555
C30 C29 1_555 1_555
H18 C30 1_555 1_555
H19 C30 1_555 1_555
C31 C30 1_555 1_555
H20 C31 1_555 1_555
H21 C31 1_555 1_555
C32 C31 1_555 1_555
H22 C32 1_555 1_555
H23 C32 1_555 1_555
O8 C32 1_555 1_555
C33 O8 1_555 1_555
C34 C33 1_555 1_555
C35 C34 1_555 1_555
C36 C35 1_555 1_555
H24 C36 1_555 1_555
C37 C36 1_555 1_555
C38 C33 1_555 1_555
O9 C38 1_555 1_555
C39 O9 1_555 1_555
H25 C39 1_555 1_555
H26 C39 1_555 1_555
O10 C39 1_555 1_555
C40 O10 1_555 1_555
C41 C40 1_555 1_555
C42 C41 1_555 1_555
H27 C42 1_555 1_555
C43 C42 1_555 1_555
C44 C43 1_555 1_555
C45 C40 1_555 1_555
O11 C45 1_555 1_555
C46 O11 1_555 1_555
H28 C46 1_555 1_555
H29 C46 1_555 1_555
C47 C46 1_555 1_555
H30 C47 1_555 1_555
H31 C47 1_555 1_555
C48 C47 1_555 1_555
H32 C48 1_555 1_555
H33 C48 1_555 1_555
C49 C48 1_555 1_555
H34 C49 1_555 1_555
H35 C49 1_555 1_555
O12 C49 1_555 1_555
C50 O12 1_555 1_555
C51 C50 1_555 1_555
C52 C51 1_555 1_555
C53 C52 1_555 1_555
H36 C53 1_555 1_555
C54 C53 1_555 1_555
C55 C50 1_555 1_555
O13 C55 1_555 1_555
C56 O13 1_555 1_555
H37 C56 1_555 1_555
H38 C56 1_555 1_555
O14 C56 1_555 1_555
C57 O14 1_555 1_555
C58 C57 1_555 1_555
C59 C58 1_555 1_555
H39 C59 1_555 1_555
C60 C59 1_555 1_555
C61 C60 1_555 1_555
C62 C57 1_555 1_555
O15 C62 1_555 1_555
C63 O15 1_555 1_555
H40 C63 1_555 1_555
H41 C63 1_555 1_555
C64 C63 1_555 1_555
H42 C64 1_555 1_555
H43 C64 1_555 1_555
C65 C64 1_555 1_555
H44 C65 1_555 1_555
H45 C65 1_555 1_555
C66 C65 1_555 1_555
H46 C66 1_555 1_555
H47 C66 1_555 1_555
O16 C66 1_555 1_555
C67 O16 1_555 1_555
C68 C67 1_555 1_555
C69 C68 1_555 1_555
C70 C69 1_555 1_555
H48 C70 1_555 1_555
C71 C70 1_555 1_555
C72 O1 1_555 1_555
O17 C68 1_555 1_555
C73 O17 1_555 1_555
H49 C73 1_555 1_555
H50 C73 1_555 1_555
O18 C44 1_555 1_555
O19 C34 1_555 1_555
C74 O19 1_555 1_555
H51 C74 1_555 1_555
H52 C74 1_555 1_555
O20 C6 1_555 1_555
O21 C27 1_555 1_555
C75 O21 1_555 1_555
H53 C75 1_555 1_555
H54 C75 1_555 1_555
O22 C51 1_555 1_555
O23 C61 1_555 1_555
C76 O23 1_555 1_555
H55 C76 1_555 1_555
H56 C76 1_555 1_555
O24 C17 1_555 1_555
C77 C18 1_555 1_555
H57 C77 1_555 1_555
C78 C77 1_555 1_555
H58 C78 1_555 1_555
H59 C78 1_555 1_555
C79 C78 1_555 1_555
H60 C79 1_555 1_555
H61 C79 1_555 1_555
C80 C79 1_555 1_555
C81 C80 1_555 1_555
H62 C81 1_555 1_555
C82 C81 1_555 1_555
H63 C82 1_555 1_555
C83 C82 1_555 1_555
H64 C83 1_555 1_555
C84 C83 1_555 1_555
H65 C84 1_555 1_555
C85 C80 1_555 1_555
H66 C85 1_555 1_555
C86 C54 1_555 1_555
H67 C86 1_555 1_555
C87 C86 1_555 1_555
H68 C87 1_555 1_555
H69 C87 1_555 1_555
C88 C87 1_555 1_555
H70 C88 1_555 1_555
H71 C88 1_555 1_555
C89 C88 1_555 1_555
C90 C89 1_555 1_555
H72 C90 1_555 1_555
C91 C90 1_555 1_555
H73 C91 1_555 1_555
C92 C91 1_555 1_555
H74 C92 1_555 1_555
C93 C92 1_555 1_555
H75 C93 1_555 1_555
C94 C89 1_555 1_555
H76 C94 1_555 1_555
C95 C26 1_555 1_555
H77 C95 1_555 1_555
C96 C95 1_555 1_555
H78 C96 1_555 1_555
H79 C96 1_555 1_555
C97 C96 1_555 1_555
H80 C97 1_555 1_555
H81 C97 1_555 1_555
C98 C97 1_555 1_555
C99 C98 1_555 1_555
H82 C99 1_555 1_555
C100 C99 1_555 1_555
H83 C100 1_555 1_555
C101 C100 1_555 1_555
H84 C101 1_555 1_555
C102 C101 1_555 1_555
H85 C102 1_555 1_555
C103 C98 1_555 1_555
H86 C103 1_555 1_555
C104 C20 1_555 1_555
H87 C104 1_555 1_555
C105 C104 1_555 1_555
H88 C105 1_555 1_555
H89 C105 1_555 1_555
C106 C105 1_555 1_555
H90 C106 1_555 1_555
H91 C106 1_555 1_555
C107 C106 1_555 1_555
C108 C107 1_555 1_555
H92 C108 1_555 1_555
C109 C108 1_555 1_555
H93 C109 1_555 1_555
C110 C109 1_555 1_555
H94 C110 1_555 1_555
C111 C110 1_555 1_555
H95 C111 1_555 1_555
C112 C107 1_555 1_555
H96 C112 1_555 1_555
C113 C3 1_555 1_555
H97 C113 1_555 1_555
C114 C113 1_555 1_555
H98 C114 1_555 1_555
H99 C114 1_555 1_555
C115 C114 1_555 1_555
H100 C115 1_555 1_555
H101 C115 1_555 1_555
C116 C115 1_555 1_555
C117 C116 1_555 1_555
H102 C117 1_555 1_555
C118 C117 1_555 1_555
H103 C118 1_555 1_555
C119 C118 1_555 1_555
H104 C119 1_555 1_555
C120 C119 1_555 1_555
H105 C120 1_555 1_555
C121 C116 1_555 1_555
H106 C121 1_555 1_555
C122 C5 1_555 1_555
H107 C122 1_555 1_555
C123 C122 1_555 1_555
H108 C123 1_555 1_555
H109 C123 1_555 1_555
C124 C123 1_555 1_555
H110 C124 1_555 1_555
H111 C124 1_555 1_555
C125 C124 1_555 1_555
C126 C125 1_555 1_555
H112 C126 1_555 1_555
C127 C126 1_555 1_555
H113 C127 1_555 1_555
C128 C127 1_555 1_555
H114 C128 1_555 1_555
C129 C128 1_555 1_555
H115 C129 1_555 1_555
C130 C125 1_555 1_555
H116 C130 1_555 1_555
C131 C37 1_555 1_555
H117 C131 1_555 1_555
C132 C131 1_555 1_555
H118 C132 1_555 1_555
H119 C132 1_555 1_555
C133 C132 1_555 1_555
H120 C133 1_555 1_555
H121 C133 1_555 1_555
C134 C133 1_555 1_555
C135 C134 1_555 1_555
H122 C135 1_555 1_555
C136 C135 1_555 1_555
H123 C136 1_555 1_555
C137 C136 1_555 1_555
H124 C137 1_555 1_555
C138 C137 1_555 1_555
H125 C138 1_555 1_555
C139 C134 1_555 1_555
H126 C139 1_555 1_555
C140 C43 1_555 1_555
H127 C140 1_555 1_555
C141 C140 1_555 1_555
H128 C141 1_555 1_555
H129 C141 1_555 1_555
C142 C141 1_555 1_555
H130 C142 1_555 1_555
H131 C142 1_555 1_555
C143 C142 1_555 1_555
C144 C143 1_555 1_555
H132 C144 1_555 1_555
C145 C144 1_555 1_555
H133 C145 1_555 1_555
C146 C145 1_555 1_555
H134 C146 1_555 1_555
C147 C146 1_555 1_555
H135 C147 1_555 1_555
C148 C143 1_555 1_555
H136 C148 1_555 1_555
O25 N1 1_555 1_555
O26 N1 1_555 1_555
N1 C149 1_555 1_555
C149 C150 1_555 1_555
C150 H137 1_555 1_555
C151 C150 1_555 1_555
H138 C151 1_555 1_555
C152 C151 1_555 1_555
H139 C152 1_555 1_555
C153 C152 1_555 1_555
H140 C153 1_555 1_555
C154 C149 1_555 1_555
H141 C154 1_555 1_555
O27 N2 1_555 1_555
O28 N2 1_555 1_555
N2 C155 1_555 1_555
C155 C156 1_555 1_555
C156 H142 1_555 1_555
C157 C156 1_555 1_555
H143 C157 1_555 1_555
C158 C157 1_555 1_555
H144 C158 1_555 1_555
C159 C158 1_555 1_555
H145 C159 1_555 1_555
C160 C155 1_555 1_555
H146 C160 1_555 1_555
N3 O29 1_555 1_555
O30 N3 1_555 1_555
C161 N3 1_555 1_555
C162 C161 1_555 1_555
H147 C162 1_555 1_555
C163 C162 1_555 1_555
H148 C163 1_555 1_555
C164 C163 1_555 1_555
H149 C164 1_555 1_555
C165 C164 1_555 1_555
H150 C165 1_555 1_555
C166 C161 1_555 1_555
H151 C166 1_555 1_555
C167 C168 1_555 1_555
C168 H152 1_555 1_555
C169 C168 1_555 1_555
H153 C169 1_555 1_555
C170 C169 1_555 1_555
H154 C170 1_555 1_555
C171 C170 1_555 1_555
H155 C171 1_555 1_555
C172 C167 1_555 1_555
H156 C172 1_555 1_555
O31 N4 1_555 1_555
O32 N4 1_555 1_555
N4 C167 1_555 1_555
N5 O33 1_555 1_555
O34 N5 1_555 1_555
C173 N5 1_555 1_555
C174 C173 1_555 1_555
H157 C174 1_555 1_555
C175 C174 1_555 1_555
H158 C175 1_555 1_555
C176 C175 1_555 1_555
H159 C176 1_555 1_555
C177 C176 1_555 1_555
H160 C177 1_555 1_555
C178 C173 1_555 1_555
H161 C178 1_555 1_555
C6 C7 1_555 1_555
C13 C14 1_555 1_555
C20 C21 1_555 1_555
C24 C104 1_555 1_555
C27 C28 1_555 1_555
C35 C122 1_555 1_555
C37 C38 1_555 1_555
C41 C131 1_555 1_555
C44 C45 1_555 1_555
C52 C95 1_555 1_555
C54 C55 1_555 1_555
C58 C86 1_555 1_555
C60 C77 1_555 1_555
C61 C62 1_555 1_555
C67 C72 1_555 1_555
C69 C140 1_555 1_555
C71 C72 1_555 1_555
C71 C113 1_555 1_555
C73 O18 1_555 1_555
C74 O20 1_555 1_555
C75 O22 1_555 1_555
C76 O24 1_555 1_555
C84 C85 1_555 1_555
C93 C94 1_555 1_555
C102 C103 1_555 1_555
C111 C112 1_555 1_555
C120 C121 1_555 1_555
C129 C130 1_555 1_555
C138 C139 1_555 1_555
C147 C148 1_555 1_555
C153 C154 1_555 1_555
C159 C160 1_555 1_555
C165 C166 1_555 1_555
C171 C172 1_555 1_555
C177 C178 1_555 1_555

#END
