
#######################################################################
#
#                 Cambridge Crystallographic Data Centre
#                                CCDC 
#
#######################################################################
#
# If this CIF has been generated from an entry in the Cambridge 
# Structural Database, then it will include bibliographic, chemical, 
# crystal, experimental, refinement or atomic coordinate data resulting 
# from the CCDC's data processing and validation procedures.
#
#######################################################################

data_NERYAN
_chemical_formula_moiety         'C27 H21 Br1 O4'
_chemical_name_systematic        
8-[(4-bromophenyl)methylidene]-9-(4-methoxyphenyl)-5a,8,8a,9-tetrahydro-2H-cyclopenta[b][1,3]dioxolo[4,5-g][1]benzopyran
_symmetry_cell_setting           orthorhombic
_symmetry_space_group_name_H-M   'P 21 21 21'
_symmetry_Int_Tables_number      19
_space_group_name_Hall           'P 2ac 2ab'
loop_
_symmetry_equiv_pos_site_id
_symmetry_equiv_pos_as_xyz
1 x,y,z
2 1/2-x,-y,1/2+z
3 -x,1/2+y,1/2-z
4 1/2+x,1/2-y,-z
_cell_length_a                   12.4251(5)
_cell_length_b                   12.4732(4)
_cell_length_c                   14.0656(5)
_cell_angle_alpha                90
_cell_angle_beta                 90
_cell_angle_gamma                90
_cell_volume                     2179.9
_exptl_crystal_colour            colorless
_exptl_crystal_description       block
_cell_formula_units_Z            4
loop_
_atom_site_label
_atom_site_type_symbol
_atom_site_fract_x
_atom_site_fract_y
_atom_site_fract_z
Br1 Br 0.34261(9) 1.10606(7) 0.43347(7)
O1 O 0.6216(4) 0.4881(5) 0.8103(4)
O2 O 0.6259(4) 0.3073(4) 0.7721(4)
O3 O 0.3115(4) 0.3366(3) 0.5722(3)
O4 O -0.0836(5) 0.5552(5) 0.8357(5)
C1 C 0.5428(5) 0.3581(5) 0.7244(4)
C2 C 0.2966(4) 0.5562(4) 0.6092(4)
H1 H 0.3224 0.6304 0.6081
C3 C 0.1955(4) 0.5551(5) 0.6703(4)
C4 C 0.5405(4) 0.4638(5) 0.7472(4)
C5 C 0.1760(5) 0.5573(6) 0.4611(4)
C6 C 0.3909(5) 0.3821(5) 0.6283(4)
C7 C 0.1408(6) 0.6561(6) 0.4392(5)
H2 H 0.0699 0.6588 0.4182
C8 C 0.1679(7) 0.3726(6) 0.4649(5)
H3 H 0.1405 0.3034 0.4609
C9 C 0.3864(4) 0.4889(5) 0.6507(4)
C10 C 0.4632(5) 0.5326(5) 0.7124(4)
H4 H 0.4621 0.6048 0.7292
C11 C 0.1951(6) 0.7601(6) 0.4429(4)
C12 C 0.1426(5) 0.6500(5) 0.6880(4)
H5 H 0.1695 0.7133 0.6624
C13 C 0.0487(5) 0.6535(5) 0.7440(5)
H6 H 0.0136 0.7183 0.7545
C14 C 0.2812(5) 0.3990(6) 0.4900(4)
H7 H 0.3283 0.3804 0.4366
C15 C 0.4678(5) 0.3121(5) 0.6650(5)
H8 H 0.4685 0.2394 0.6503
C16 C 0.1111(6) 0.4610(7) 0.4487(5)
H9 H 0.0387 0.4614 0.4317
C17 C 0.1314(6) 0.8526(7) 0.4512(6)
H10 H 0.0574 0.8447 0.4579
C18 C 0.2816(5) 0.5211(5) 0.5039(4)
H11 H 0.3405 0.5515 0.4662
C19 C 0.1554(6) 0.4630(5) 0.7137(5)
H12 H 0.1921 0.3985 0.7062
C20 C 0.3485(6) 0.8790(6) 0.4322(5)
H13 H 0.4224 0.8881 0.4258
C21 C 0.3037(6) 0.7771(6) 0.4345(6)
H14 H 0.3492 0.7181 0.4301
C22 C 0.0619(6) 0.4651(5) 0.7677(5)
H15 H 0.0348 0.4021 0.7937
C23 C 0.6887(6) 0.3955(7) 0.8097(5)
H16 H 0.7126 0.3791 0.8738
H17 H 0.7515 0.4078 0.7703
C24 C 0.0094(5) 0.5612(6) 0.7828(4)
C25 C 0.1738(7) 0.9544(7) 0.4498(6)
H18 H 0.1296 1.0142 0.4558
C26 C 0.2820(7) 0.9652(6) 0.4395(5)
C27 C -0.1442(8) 0.6489(9) 0.8462(8)
H19 H -0.1796 0.6654 0.7873
H20 H -0.0976 0.7071 0.8635
H21 H -0.1972 0.6387 0.8951
loop_
_geom_bond_atom_site_label_1
_geom_bond_atom_site_label_2
_geom_bond_site_symmetry_1
_geom_bond_site_symmetry_2
Br1 C26 1_555 1_555
O1 C4 1_555 1_555
O2 C1 1_555 1_555
O3 C6 1_555 1_555
O4 C24 1_555 1_555
C1 C4 1_555 1_555
C2 H1 1_555 1_555
C3 C2 1_555 1_555
C4 C10 1_555 1_555
C5 C7 1_555 1_555
C6 C9 1_555 1_555
C7 H2 1_555 1_555
C8 H3 1_555 1_555
C9 C2 1_555 1_555
C10 C9 1_555 1_555
H4 C10 1_555 1_555
C11 C7 1_555 1_555
C12 C3 1_555 1_555
H5 C12 1_555 1_555
C13 C12 1_555 1_555
H6 C13 1_555 1_555
C14 O3 1_555 1_555
H7 C14 1_555 1_555
C15 C1 1_555 1_555
H8 C15 1_555 1_555
C16 C5 1_555 1_555
H9 C16 1_555 1_555
C17 C11 1_555 1_555
H10 C17 1_555 1_555
C18 C2 1_555 1_555
H11 C18 1_555 1_555
C19 C3 1_555 1_555
H12 C19 1_555 1_555
C20 H13 1_555 1_555
C21 C11 1_555 1_555
H14 C21 1_555 1_555
C22 C19 1_555 1_555
H15 C22 1_555 1_555
C23 O1 1_555 1_555
H16 C23 1_555 1_555
H17 C23 1_555 1_555
C24 C13 1_555 1_555
C25 C17 1_555 1_555
H18 C25 1_555 1_555
C26 C20 1_555 1_555
C27 O4 1_555 1_555
H19 C27 1_555 1_555
H20 C27 1_555 1_555
H21 C27 1_555 1_555
O2 C23 1_555 1_555
C5 C18 1_555 1_555
C6 C15 1_555 1_555
C8 C14 1_555 1_555
C8 C16 1_555 1_555
C14 C18 1_555 1_555
C20 C21 1_555 1_555
C22 C24 1_555 1_555
C25 C26 1_555 1_555

#END
