
#######################################################################
#
#                 Cambridge Crystallographic Data Centre
#                                CCDC 
#
#######################################################################
#
# If this CIF has been generated from an entry in the Cambridge 
# Structural Database, then it will include bibliographic, chemical, 
# crystal, experimental, refinement or atomic coordinate data resulting 
# from the CCDC's data processing and validation procedures.
#
#######################################################################

data_NERZAM
_chemical_formula_moiety         'C20 H24'
_chemical_name_systematic        4-t-Butyl-1-(1-napthyl)cyclohexene
_symmetry_cell_setting           orthorhombic
_symmetry_space_group_name_H-M   'P c c n'
_symmetry_Int_Tables_number      56
_space_group_name_Hall           '-P 2ab 2ac'
loop_
_symmetry_equiv_pos_site_id
_symmetry_equiv_pos_as_xyz
1 x,y,z
2 1/2-x,1/2-y,z
3 1/2+x,-y,1/2-z
4 -x,1/2+y,1/2-z
5 -x,-y,-z
6 1/2+x,1/2+y,-z
7 1/2-x,y,1/2+z
8 x,1/2-y,1/2+z
_cell_length_a                   23.8908(18)
_cell_length_b                   16.1042(11)
_cell_length_c                   8.4622(6)
_cell_angle_alpha                90
_cell_angle_beta                 90
_cell_angle_gamma                90
_cell_volume                     3255.77
_exptl_crystal_colour            colorless
_exptl_crystal_description       block
_cell_formula_units_Z            8
loop_
_atom_site_label
_atom_site_type_symbol
_atom_site_fract_x
_atom_site_fract_y
_atom_site_fract_z
C1 C 0.6210(2) 0.2124(3) 0.4244(5)
H1 H 0.6129 0.2414 0.3279
H2 H 0.6571 0.2289 0.4629
H3 H 0.5930 0.2257 0.5019
C2 C 0.6681(2) 0.0948(4) 0.2872(5)
H4 H 0.6651 0.1239 0.1886
H5 H 0.6664 0.0360 0.2684
H6 H 0.7032 0.1082 0.3365
C3 C 0.5647(3) 0.1005(4) 0.3074(6)
H7 H 0.5651 0.0441 0.2709
H8 H 0.5604 0.1373 0.2189
H9 H 0.5340 0.1082 0.3791
C4 C 0.62077(19) 0.1201(2) 0.3940(4)
C5 C 0.62171(17) 0.0715(2) 0.5523(4)
H10 H 0.5898 0.0934 0.6118
C6 C 0.67108(18) 0.0875(3) 0.6563(5)
H11 H 0.7044 0.0662 0.6048
H12 H 0.6757 0.1470 0.6685
C7 C 0.66633(17) 0.0490(2) 0.8160(4)
H13 H 0.7033 0.0476 0.8634
H14 H 0.6430 0.0844 0.8813
C8 C 0.64334(14) -0.0344(2) 0.8193(4)
C9 C 0.61768(18) -0.0663(2) 0.6903(4)
H15 H 0.6037 -0.1202 0.6956
C10 C 0.6108(2) -0.0192(2) 0.5406(5)
H16 H 0.5729 -0.0273 0.5028
H17 H 0.6359 -0.0425 0.4623
C11 C 0.65285(15) -0.0849(2) 0.9652(4)
C12 C 0.70605(16) -0.1011(2) 1.0144(4)
H18 H 0.7358 -0.0794 0.9570
C13 C 0.71750(19) -0.1494(2) 1.1479(5)
H19 H 0.7544 -0.1591 1.1773
C14 C 0.6754(2) -0.1819(2) 1.2346(5)
H20 H 0.6836 -0.2147 1.3221
C15 C 0.61841(16) -0.1663(2) 1.1925(4)
C16 C 0.5742(2) -0.1978(2) 1.2821(5)
H21 H 0.5816 -0.2311 1.3694
C17 C 0.5213(2) -0.1803(3) 1.2433(6)
H22 H 0.4923 -0.2016 1.3046
C18 C 0.50850(17) -0.1305(3) 1.1119(5)
H23 H 0.4713 -0.1191 1.0873
C19 C 0.54985(17) -0.0990(2) 1.0215(5)
H24 H 0.5411 -0.0656 0.9354
C20 C 0.60760(14) -0.11697(19) 1.0574(4)
loop_
_geom_bond_atom_site_label_1
_geom_bond_atom_site_label_2
_geom_bond_site_symmetry_1
_geom_bond_site_symmetry_2
C1 H1 1_555 1_555
H2 C1 1_555 1_555
H3 C1 1_555 1_555
C2 H4 1_555 1_555
H5 C2 1_555 1_555
H6 C2 1_555 1_555
C3 H7 1_555 1_555
H8 C3 1_555 1_555
H9 C3 1_555 1_555
C4 C1 1_555 1_555
C5 C4 1_555 1_555
H10 C5 1_555 1_555
C6 C5 1_555 1_555
H11 C6 1_555 1_555
H12 C6 1_555 1_555
C7 C6 1_555 1_555
H13 C7 1_555 1_555
H14 C7 1_555 1_555
C8 C7 1_555 1_555
C9 C8 1_555 1_555
H15 C9 1_555 1_555
C10 C5 1_555 1_555
H16 C10 1_555 1_555
H17 C10 1_555 1_555
C11 C8 1_555 1_555
C12 C11 1_555 1_555
H18 C12 1_555 1_555
C13 C12 1_555 1_555
H19 C13 1_555 1_555
C14 C13 1_555 1_555
H20 C14 1_555 1_555
C15 C14 1_555 1_555
C16 C15 1_555 1_555
H21 C16 1_555 1_555
C17 C16 1_555 1_555
H22 C17 1_555 1_555
C18 C17 1_555 1_555
H23 C18 1_555 1_555
C19 C18 1_555 1_555
H24 C19 1_555 1_555
C20 C11 1_555 1_555
C2 C4 1_555 1_555
C3 C4 1_555 1_555
C9 C10 1_555 1_555
C15 C20 1_555 1_555
C19 C20 1_555 1_555

#END
