
#######################################################################
#
#                 Cambridge Crystallographic Data Centre
#                                CCDC 
#
#######################################################################
#
# If this CIF has been generated from an entry in the Cambridge 
# Structural Database, then it will include bibliographic, chemical, 
# crystal, experimental, refinement or atomic coordinate data resulting 
# from the CCDC's data processing and validation procedures.
#
#######################################################################

data_NESCOF
_chemical_formula_moiety         'C11 H11 N5 S1'
_chemical_name_systematic        
2-(Pyridin-2-yl)-N-(pyridin-3-yl)hydrazinecarbothioamide
_symmetry_cell_setting           monoclinic
_symmetry_space_group_name_H-M   'P 21'
_symmetry_Int_Tables_number      4
_space_group_name_Hall           'P 2yb'
loop_
_symmetry_equiv_pos_site_id
_symmetry_equiv_pos_as_xyz
1 x,y,z
2 -x,1/2+y,-z
_cell_length_a                   8.6280(17)
_cell_length_b                   14.716(3)
_cell_length_c                   9.834(2)
_cell_angle_alpha                90
_cell_angle_beta                 111.82(3)
_cell_angle_gamma                90
_cell_volume                     1159.16
_exptl_crystal_colour            colorless
_exptl_crystal_description       block
_cell_formula_units_Z            4
loop_
_atom_site_label
_atom_site_type_symbol
_atom_site_fract_x
_atom_site_fract_y
_atom_site_fract_z
S1 S 0.53606(5) 0.75112(3) 0.67814(5)
N1 N 1.01945(19) 0.83192(12) 1.28200(17)
N2 N 0.78401(19) 0.84671(13) 1.07260(17)
H1 H 0.774(3) 0.9017(18) 1.098(2)
N3 N 0.7169(2) 0.83596(12) 0.92079(17)
H2 H 0.779(3) 0.8603(16) 0.867(2)
N4 N 0.50802(19) 0.74727(13) 0.94037(16)
H3 H 0.5329 0.7668 1.0318
N5 N 0.2476(2) 0.54088(12) 0.86578(18)
C1 C 1.1573(2) 0.78396(17) 1.3612(2)
H4 H 1.2199 0.8040 1.4581
C2 C 1.2126(3) 0.70894(17) 1.3117(2)
H5 H 1.3104 0.6779 1.3723
C3 C 1.1229(3) 0.67906(16) 1.1711(2)
H6 H 1.1593 0.6276 1.1328
C4 C 0.9800(2) 0.72465(14) 1.0869(2)
H7 H 0.9157 0.7050 0.9903
C5 C 0.9322(2) 0.80060(13) 1.1473(2)
C6 C 0.5886(2) 0.77853(13) 0.8569(2)
C7 C 0.3635(2) 0.69021(14) 0.88394(19)
C8 C 0.2072(2) 0.72610(14) 0.8059(2)
H8 H 0.1934 0.7893 0.7853
C9 C 0.0717(3) 0.66802(15) 0.7588(2)
H9 H -0.0372 0.6905 0.7049
C10 C 0.0975(3) 0.57717(16) 0.7913(2)
H10 H 0.0035 0.5378 0.7591
C11 C 0.3788(2) 0.59835(14) 0.9111(2)
H11 H 0.4866 0.5742 0.9642
S2 S 0.03635(6) 0.44151(3) 0.21198(5)
N6 N 0.52169(19) 0.35595(13) 0.81570(17)
N7 N 0.2797(2) 0.34882(13) 0.60924(17)
H12 H 0.267(3) 0.287(2) 0.635(3)
N8 N 0.2156(2) 0.35942(12) 0.45730(18)
H13 H 0.274(3) 0.3459(18) 0.407(3)
N9 N -0.00332(19) 0.44237(13) 0.46852(18)
H14 H 0.019(3) 0.4170(15) 0.553(3)
N10 N -0.2430(2) 0.65386(12) 0.34616(19)
C12 C 0.6639(3) 0.39857(17) 0.8935(2)
H15 H 0.7282 0.3748 0.9875
C13 C 0.7242(3) 0.47456(17) 0.8473(2)
H16 H 0.8256 0.5025 0.9078
C14 C 0.6325(3) 0.50858(16) 0.7105(2)
H17 H 0.6713 0.5599 0.6738
C15 C 0.4834(2) 0.46745(15) 0.6270(2)
H18 H 0.4171 0.4904 0.5330
C16 C 0.4327(2) 0.39127(14) 0.6842(2)
C17 C 0.0848(2) 0.41406(13) 0.3892(2)
C18 C -0.1438(2) 0.50195(14) 0.4074(2)
C19 C -0.3060(2) 0.46945(15) 0.3542(2)
H19 H -0.3278 0.4064 0.3574
C20 C -0.4359(2) 0.53064(16) 0.2964(2)
H20 H -0.5485 0.5104 0.2589
C21 C -0.3987(3) 0.62103(16) 0.2942(2)
H21 H -0.4884 0.6626 0.2537
C22 C -0.1184(2) 0.59421(14) 0.4009(2)
H22 H -0.0070 0.6164 0.4372
loop_
_geom_bond_atom_site_label_1
_geom_bond_atom_site_label_2
_geom_bond_site_symmetry_1
_geom_bond_site_symmetry_2
S1 C6 1_555 1_555
N1 C1 1_555 1_555
N2 H1 1_555 1_555
N3 N2 1_555 1_555
H2 N3 1_555 1_555
N4 H3 1_555 1_555
N5 C10 1_555 1_555
C1 H4 1_555 1_555
C2 C1 1_555 1_555
H5 C2 1_555 1_555
C3 C2 1_555 1_555
H6 C3 1_555 1_555
C4 C3 1_555 1_555
H7 C4 1_555 1_555
C5 N1 1_555 1_555
C6 N3 1_555 1_555
C7 N4 1_555 1_555
C8 C7 1_555 1_555
H8 C8 1_555 1_555
C9 C8 1_555 1_555
H9 C9 1_555 1_555
C10 C9 1_555 1_555
H10 C10 1_555 1_555
C11 N5 1_555 1_555
H11 C11 1_555 1_555
S2 C17 1_555 1_555
N6 C12 1_555 1_555
N7 H12 1_555 1_555
N8 N7 1_555 1_555
H13 N8 1_555 1_555
N9 H14 1_555 1_555
N10 C21 1_555 1_555
C12 H15 1_555 1_555
C13 C12 1_555 1_555
H16 C13 1_555 1_555
C14 C13 1_555 1_555
H17 C14 1_555 1_555
C15 C14 1_555 1_555
H18 C15 1_555 1_555
C16 N6 1_555 1_555
C17 N8 1_555 1_555
C18 N9 1_555 1_555
C19 C18 1_555 1_555
H19 C19 1_555 1_555
C20 C19 1_555 1_555
H20 C20 1_555 1_555
C21 C20 1_555 1_555
H21 C21 1_555 1_555
C22 N10 1_555 1_555
H22 C22 1_555 1_555
N2 C5 1_555 1_555
N4 C6 1_555 1_555
C4 C5 1_555 1_555
C7 C11 1_555 1_555
N7 C16 1_555 1_555
N9 C17 1_555 1_555
C15 C16 1_555 1_555
C18 C22 1_555 1_555

#END
