
#######################################################################
#
#                 Cambridge Crystallographic Data Centre
#                                CCDC 
#
#######################################################################
#
# If this CIF has been generated from an entry in the Cambridge 
# Structural Database, then it will include bibliographic, chemical, 
# crystal, experimental, refinement or atomic coordinate data resulting 
# from the CCDC's data processing and validation procedures.
#
#######################################################################

data_NESCIA
_chemical_formula_moiety         'C18 H24 N2 O8 S2'
_chemical_name_systematic        
'dimethyl 4-(t-butylsulfanyl)-1-[(4-nitrophenyl)sulfonyl]pyrrolidine-2,4-dicarboxylate'
_symmetry_cell_setting           monoclinic
_symmetry_space_group_name_H-M   'P 21'
_symmetry_Int_Tables_number      4
_space_group_name_Hall           'P 2yb'
loop_
_symmetry_equiv_pos_site_id
_symmetry_equiv_pos_as_xyz
1 x,y,z
2 -x,1/2+y,-z
_cell_length_a                   9.4609(5)
_cell_length_b                   9.5520(4)
_cell_length_c                   12.1087(5)
_cell_angle_alpha                90
_cell_angle_beta                 89.670(4)
_cell_angle_gamma                90
_cell_volume                     1094.25
_cell_formula_units_Z            2
loop_
_atom_site_label
_atom_site_type_symbol
_atom_site_fract_x
_atom_site_fract_y
_atom_site_fract_z
S1 S 0.39050(10) 0.82155(10) 0.87785(8)
S2 S 0.80593(11) 0.79303(10) 0.76425(9)
O1 O 0.3706(5) 0.4776(6) 0.6391(3)
O2 O 0.3369(4) 0.4525(4) 0.8192(3)
O3 O 0.9050(4) 0.4456(4) 0.8685(3)
O4 O 0.9123(4) 0.6330(4) 0.9787(3)
O5 O 0.3909(3) 0.8610(3) 0.9921(2)
O6 O 0.2627(3) 0.7832(4) 0.8243(3)
O7 O 0.6519(7) 1.2797(7) 0.5184(4)
O8 O 0.8202(6) 1.2706(5) 0.6354(4)
N1 N 0.4980(3) 0.6886(3) 0.8663(3)
N2 N 0.7040(7) 1.2374(5) 0.6034(4)
C1 C 0.5087(5) 0.6138(4) 0.7594(3)
H1 H 0.5150 0.6829 0.6998
C2 C 0.6510(4) 0.5380(4) 0.7685(4)
H2 H 0.6924 0.5230 0.6960
H3 H 0.6396 0.4482 0.8049
C3 C 0.7436(4) 0.6364(4) 0.8377(3)
C4 C 0.6361(4) 0.6936(4) 0.9229(3)
H4 H 0.6347 0.6359 0.9888
H5 H 0.6596 0.7889 0.9436
C5 C 0.3954(5) 0.5087(5) 0.7312(4)
C6 C 0.2366(6) 0.3382(6) 0.7938(5)
H6 H 0.1951 0.3040 0.8611
H7 H 0.2859 0.2634 0.7573
H8 H 0.1635 0.3731 0.7465
C7 C 0.8628(5) 0.5584(5) 0.8940(4)
C8 C 1.0281(7) 0.5702(9) 1.0405(6)
H9 H 1.0616 0.6356 1.0945
H10 H 1.1037 0.5466 0.9906
H11 H 0.9951 0.4870 1.0769
C9 C 0.4699(4) 0.9594(4) 0.8008(3)
C10 C 0.4430(5) 0.9663(5) 0.6882(3)
H12 H 0.3752 0.9083 0.6569
C11 C 0.5170(6) 1.0590(5) 0.6236(4)
H13 H 0.4997 1.0655 0.5482
C12 C 0.6176(6) 1.1425(5) 0.6728(4)
C13 C 0.6442(5) 1.1405(4) 0.7852(4)
H14 H 0.7115 1.1992 0.8163
C14 C 0.5666(4) 1.0476(4) 0.8496(3)
H15 H 0.5798 1.0449 0.9256
C15 C 0.9054(5) 0.7477(5) 0.6369(4)
C16 C 0.9854(7) 0.8870(6) 0.6159(6)
H16 H 0.9188 0.9626 0.6122
H17 H 1.0366 0.8809 0.5474
H18 H 1.0504 0.9036 0.6751
C17 C 1.0104(5) 0.6302(5) 0.6534(4)
H19 H 1.0638 0.6473 0.7192
H20 H 1.0733 0.6258 0.5910
H21 H 0.9606 0.5431 0.6605
C18 C 0.8060(7) 0.7152(8) 0.5412(4)
H22 H 0.7608 0.6267 0.5539
H23 H 0.8592 0.7112 0.4735
H24 H 0.7357 0.7873 0.5361
loop_
_geom_bond_atom_site_label_1
_geom_bond_atom_site_label_2
_geom_bond_site_symmetry_1
_geom_bond_site_symmetry_2
S1 O5 1_555 1_555
S2 C3 1_555 1_555
O1 C5 1_555 1_555
O2 C5 1_555 1_555
O3 C7 1_555 1_555
O4 C7 1_555 1_555
O6 S1 1_555 1_555
O7 N2 1_555 1_555
O8 N2 1_555 1_555
N1 S1 1_555 1_555
N2 C12 1_555 1_555
C1 N1 1_555 1_555
H1 C1 1_555 1_555
C2 C1 1_555 1_555
H2 C2 1_555 1_555
H3 C2 1_555 1_555
C3 C2 1_555 1_555
C4 N1 1_555 1_555
H4 C4 1_555 1_555
H5 C4 1_555 1_555
C5 C1 1_555 1_555
C6 O2 1_555 1_555
H6 C6 1_555 1_555
H7 C6 1_555 1_555
H8 C6 1_555 1_555
C7 C3 1_555 1_555
C8 O4 1_555 1_555
H9 C8 1_555 1_555
H10 C8 1_555 1_555
H11 C8 1_555 1_555
C9 S1 1_555 1_555
C10 C9 1_555 1_555
H12 C10 1_555 1_555
C11 C10 1_555 1_555
H13 C11 1_555 1_555
C12 C11 1_555 1_555
C13 C12 1_555 1_555
H14 C13 1_555 1_555
C14 C9 1_555 1_555
H15 C14 1_555 1_555
C15 S2 1_555 1_555
C16 C15 1_555 1_555
H16 C16 1_555 1_555
H17 C16 1_555 1_555
H18 C16 1_555 1_555
C17 C15 1_555 1_555
H19 C17 1_555 1_555
H20 C17 1_555 1_555
H21 C17 1_555 1_555
C18 C15 1_555 1_555
H22 C18 1_555 1_555
H23 C18 1_555 1_555
H24 C18 1_555 1_555
C3 C4 1_555 1_555
C13 C14 1_555 1_555

#END
