
#######################################################################
#
#                 Cambridge Crystallographic Data Centre
#                                CCDC 
#
#######################################################################
#
# If this CIF has been generated from an entry in the Cambridge 
# Structural Database, then it will include bibliographic, chemical, 
# crystal, experimental, refinement or atomic coordinate data resulting 
# from the CCDC's data processing and validation procedures.
#
#######################################################################

data_NESDAS
_chemical_formula_moiety         'C12 H11 N5 O2 S1'
_chemical_name_systematic        
N-(4-Nitrophenyl)-2-(pyridin-2-yl)hydrazinecarbothioamide
_symmetry_cell_setting           monoclinic
_symmetry_space_group_name_H-M   'P c'
_symmetry_Int_Tables_number      7
_space_group_name_Hall           'P -2yc'
loop_
_symmetry_equiv_pos_site_id
_symmetry_equiv_pos_as_xyz
1 x,y,z
2 x,-y,1/2+z
_cell_length_a                   7.0476(14)
_cell_length_b                   9.2828(19)
_cell_length_c                   10.069(2)
_cell_angle_alpha                90
_cell_angle_beta                 105.45(3)
_cell_angle_gamma                90
_cell_volume                     634.924
_exptl_crystal_colour            yellow
_exptl_crystal_description       block
_cell_formula_units_Z            2
loop_
_atom_site_label
_atom_site_type_symbol
_atom_site_fract_x
_atom_site_fract_y
_atom_site_fract_z
S1 S 0.85360(5) 0.30225(4) 0.00792(4)
O1 O 0.1382(2) -0.20323(14) 0.24901(13)
O2 O 0.02483(16) -0.10839(13) 0.04682(13)
N1 N 1.3170(2) 0.45994(14) 0.59983(14)
N2 N 1.08583(19) 0.41933(14) 0.39302(14)
H1 H 1.0196 0.4943 0.4150
N3 N 1.05218(19) 0.40133(15) 0.25048(13)
H2 H 1.1236 0.4443 0.2136
N4 N 0.8264(2) 0.22944(15) 0.26092(13)
H3 H 0.8840 0.2280 0.3499
N5 N 0.1521(2) -0.12039(15) 0.15714(14)
C1 C 1.4977(2) 0.43953(17) 0.68506(17)
H4 H 1.5283 0.4854 0.7726
C2 C 1.6403(2) 0.35635(18) 0.65298(17)
H5 H 1.7676 0.3476 0.7150
C3 C 1.5929(3) 0.28569(18) 0.52753(18)
H6 H 1.6868 0.2247 0.5034
C4 C 1.4079(3) 0.30391(18) 0.43684(17)
H7 H 1.3724 0.2557 0.3505
C5 C 1.2761(2) 0.39519(16) 0.47664(15)
C6 C 0.9102(2) 0.31130(16) 0.18078(16)
C7 C 0.6596(2) 0.13921(17) 0.22239(16)
C8 C 0.4916(2) 0.17432(17) 0.11759(16)
H8 H 0.4917 0.2574 0.0625
C9 C 0.3254(2) 0.08874(18) 0.09381(16)
H9 H 0.2119 0.1106 0.0213
C10 C 0.3281(2) -0.03014(18) 0.17854(16)
C11 C 0.4928(2) -0.06705(17) 0.28284(16)
H10 H 0.4909 -0.1486 0.3395
C12 C 0.6594(2) 0.01673(17) 0.30292(16)
H11 H 0.7750 -0.0090 0.3720
loop_
_geom_bond_atom_site_label_1
_geom_bond_atom_site_label_2
_geom_bond_site_symmetry_1
_geom_bond_site_symmetry_2
S1 C6 1_555 1_555
O1 N5 1_555 1_555
O2 N5 1_555 1_555
N1 C1 1_555 1_555
N2 H1 1_555 1_555
N3 N2 1_555 1_555
H2 N3 1_555 1_555
N4 H3 1_555 1_555
N5 C10 1_555 1_555
C1 H4 1_555 1_555
C2 C1 1_555 1_555
H5 C2 1_555 1_555
C3 C2 1_555 1_555
H6 C3 1_555 1_555
C4 C3 1_555 1_555
H7 C4 1_555 1_555
C5 N1 1_555 1_555
C6 N3 1_555 1_555
C7 N4 1_555 1_555
C8 C7 1_555 1_555
H8 C8 1_555 1_555
C9 C8 1_555 1_555
H9 C9 1_555 1_555
C10 C9 1_555 1_555
C11 C10 1_555 1_555
H10 C11 1_555 1_555
C12 C7 1_555 1_555
H11 C12 1_555 1_555
N2 C5 1_555 1_555
N4 C6 1_555 1_555
C4 C5 1_555 1_555
C11 C12 1_555 1_555

#END
