
#######################################################################
#
#                 Cambridge Crystallographic Data Centre
#                                CCDC 
#
#######################################################################
#
# If this CIF has been generated from an entry in the Cambridge 
# Structural Database, then it will include bibliographic, chemical, 
# crystal, experimental, refinement or atomic coordinate data resulting 
# from the CCDC's data processing and validation procedures.
#
#######################################################################

data_NESFAV
_chemical_formula_moiety         'C18 H22 B1 N1 O1'
_chemical_name_systematic        
1,6-dimethyl-2-(2,4,6-trimethylphenyl)-1,2,6,7-tetrahydro-5H-cyclopenta[e][1,2]azaborinin-5-one
_symmetry_cell_setting           triclinic
_symmetry_space_group_name_H-M   'P -1'
_symmetry_Int_Tables_number      2
_space_group_name_Hall           '-P 1'
loop_
_symmetry_equiv_pos_site_id
_symmetry_equiv_pos_as_xyz
1 x,y,z
2 -x,-y,-z
_cell_length_a                   7.5743(3)
_cell_length_b                   9.7671(3)
_cell_length_c                   11.9956(4)
_cell_angle_alpha                74.9850(10)
_cell_angle_beta                 82.0070(10)
_cell_angle_gamma                70.9230(10)
_cell_volume                     808.612
_exptl_crystal_colour            colorless
_exptl_crystal_description       BLOCK
_cell_formula_units_Z            2
loop_
_atom_site_label
_atom_site_type_symbol
_atom_site_fract_x
_atom_site_fract_y
_atom_site_fract_z
B1 B 0.4713(2) 0.72515(16) 0.73145(12)
N1 N 0.38658(14) 0.61048(11) 0.73277(9)
O1 O 0.85244(13) 0.31735(10) 0.51108(9)
C1 C 0.66825(18) 0.70489(15) 0.67306(12)
H1 H 0.7323 0.7741 0.6723
C2 C 0.75222(17) 0.58796(14) 0.62208(11)
H2 H 0.8727 0.5770 0.5835
C3 C 0.65631(17) 0.48249(13) 0.62757(10)
C4 C 0.71399(17) 0.35263(14) 0.57613(11)
C5 C 0.57212(18) 0.26578(14) 0.61754(11)
H3 H 0.5267 0.2480 0.5497
C6 C 0.6666(2) 0.11638(15) 0.69873(13)
H4 H 0.7714 0.0576 0.6563
H5 H 0.5755 0.0617 0.7276
H6 H 0.7130 0.1347 0.7641
C7 C 0.40884(18) 0.36905(14) 0.67859(11)
H7 H 0.2953 0.4071 0.6340
H8 H 0.3788 0.3158 0.7575
C8 C 0.48136(17) 0.49435(13) 0.68286(10)
C9 C 0.19484(19) 0.61750(16) 0.78273(13)
H9 H 0.1204 0.6117 0.7245
H10 H 0.1368 0.7114 0.8071
H11 H 0.2002 0.5340 0.8497
C10 C 0.35596(17) 0.86285(14) 0.78472(11)
C11 C 0.23664(18) 0.99037(15) 0.71462(12)
C12 C 0.13628(19) 1.11376(15) 0.75990(13)
H12 H 0.0573 1.1987 0.7118
C13 C 0.1501(2) 1.11444(16) 0.87442(13)
C14 C 0.2697(2) 0.99017(18) 0.94276(13)
H13 H 0.2820 0.9905 1.0204
C15 C 0.3729(2) 0.86421(16) 0.89988(12)
C16 C 0.2187(2) 0.99470(17) 0.58930(13)
H14 H 0.1256 1.0878 0.5552
H15 H 0.1791 0.9102 0.5853
H16 H 0.3399 0.9889 0.5464
C17 C 0.0332(3) 1.24749(19) 0.92277(17)
H17 H -0.0133 1.3331 0.8589
H18 H 0.1103 1.2716 0.9695
H19 H -0.0730 1.2237 0.9711
C18 C 0.4984(3) 0.7299(2) 0.97794(14)
H20 H 0.5249 0.7592 1.0445
H21 H 0.6160 0.6905 0.9348
H22 H 0.4355 0.6530 1.0050
loop_
_geom_bond_atom_site_label_1
_geom_bond_atom_site_label_2
_geom_bond_site_symmetry_1
_geom_bond_site_symmetry_2
B1 N1 1_555 1_555
N1 C8 1_555 1_555
O1 C4 1_555 1_555
C1 B1 1_555 1_555
H1 C1 1_555 1_555
C2 C1 1_555 1_555
H2 C2 1_555 1_555
C3 C2 1_555 1_555
C4 C3 1_555 1_555
C5 C4 1_555 1_555
H3 C5 1_555 1_555
C6 C5 1_555 1_555
H4 C6 1_555 1_555
H5 C6 1_555 1_555
H6 C6 1_555 1_555
C7 C5 1_555 1_555
H7 C7 1_555 1_555
H8 C7 1_555 1_555
C8 C3 1_555 1_555
C9 N1 1_555 1_555
H9 C9 1_555 1_555
H10 C9 1_555 1_555
H11 C9 1_555 1_555
C10 B1 1_555 1_555
C11 C10 1_555 1_555
C12 C11 1_555 1_555
H12 C12 1_555 1_555
C13 C12 1_555 1_555
C14 C13 1_555 1_555
H13 C14 1_555 1_555
C15 C10 1_555 1_555
C16 C11 1_555 1_555
H14 C16 1_555 1_555
H15 C16 1_555 1_555
H16 C16 1_555 1_555
C17 C13 1_555 1_555
H17 C17 1_555 1_555
H18 C17 1_555 1_555
H19 C17 1_555 1_555
C18 C15 1_555 1_555
H20 C18 1_555 1_555
H21 C18 1_555 1_555
H22 C18 1_555 1_555
C7 C8 1_555 1_555
C14 C15 1_555 1_555

#END
