
#######################################################################
#
#                 Cambridge Crystallographic Data Centre
#                                CCDC 
#
#######################################################################
#
# If this CIF has been generated from an entry in the Cambridge 
# Structural Database, then it will include bibliographic, chemical, 
# crystal, experimental, refinement or atomic coordinate data resulting 
# from the CCDC's data processing and validation procedures.
#
#######################################################################

data_NESFID
_chemical_formula_moiety         'C16 H19 B1 I1 N1 O1'
_chemical_name_systematic        
1-[3-iodo-1-methyl-2-(2,4,6-trimethylphenyl)-1,2-dihydro-1,2-azaborinin-5-yl]ethan-1-one
_symmetry_cell_setting           monoclinic
_symmetry_space_group_name_H-M   'P 21/c'
_symmetry_Int_Tables_number      14
_space_group_name_Hall           '-P 2ybc'
loop_
_symmetry_equiv_pos_site_id
_symmetry_equiv_pos_as_xyz
1 x,y,z
2 -x,1/2+y,1/2-z
3 -x,-y,-z
4 x,1/2-y,1/2+z
_cell_length_a                   13.233(6)
_cell_length_b                   7.758(3)
_cell_length_c                   16.663(7)
_cell_angle_alpha                90
_cell_angle_beta                 105.564(11)
_cell_angle_gamma                90
_cell_volume                     1647.92
_exptl_crystal_colour            yellow
_exptl_crystal_description       block
_cell_formula_units_Z            4
loop_
_atom_site_label
_atom_site_type_symbol
_atom_site_fract_x
_atom_site_fract_y
_atom_site_fract_z
I1 I 0.89996(2) 0.29294(4) 0.69133(2)
N1 N 0.58448(19) 0.4680(3) 0.70490(15)
O1 O 0.5270(2) 0.1759(4) 0.44740(16)
B1 B 0.6969(3) 0.4465(4) 0.73001(19)
C1 C 0.7640(2) 0.5283(4) 0.81429(17)
C2 C 0.7893(2) 0.4318(4) 0.88829(18)
C3 C 0.8462(2) 0.5080(5) 0.96292(19)
H1 H 0.8633 0.4423 1.0114
C4 C 0.8776(3) 0.6778(5) 0.9664(2)
C5 C 0.8541(3) 0.7720(4) 0.8930(2)
H2 H 0.8764 0.8860 0.8943
C6 C 0.7983(3) 0.7008(4) 0.8173(2)
C7 C 0.7559(3) 0.2460(5) 0.8881(2)
H3 H 0.6823 0.2407 0.8845
H4 H 0.7949 0.1912 0.9385
H5 H 0.7691 0.1879 0.8410
C8 C 0.9352(4) 0.7602(7) 1.0485(3)
H6 H 0.9931 0.8268 1.0409
H7 H 0.9609 0.6719 1.0892
H8 H 0.8880 0.8341 1.0673
C9 C 0.7756(4) 0.8077(5) 0.7390(3)
H9 H 0.7960 0.7449 0.6962
H10 H 0.8144 0.9135 0.7500
H11 H 0.7019 0.8328 0.7208
C10 C 0.7381(2) 0.3409(4) 0.66834(17)
C11 C 0.6710(3) 0.2761(4) 0.59737(18)
H12 H 0.6977 0.2119 0.5606
C12 C 0.5615(2) 0.3055(4) 0.57917(17)
C13 C 0.5221(2) 0.4002(4) 0.63306(17)
H13 H 0.4502 0.4191 0.6203
C14 C 0.5292(3) 0.5682(5) 0.7577(2)
H14 H 0.5575 0.6828 0.7662
H15 H 0.5391 0.5120 0.8106
H16 H 0.4556 0.5740 0.7301
C15 C 0.4896(3) 0.2357(5) 0.5010(2)
C16 C 0.3742(3) 0.2360(6) 0.4895(2)
H17 H 0.3482 0.3518 0.4801
H18 H 0.3590 0.1906 0.5386
H19 H 0.3410 0.1657 0.4424
loop_
_geom_bond_atom_site_label_1
_geom_bond_atom_site_label_2
_geom_bond_site_symmetry_1
_geom_bond_site_symmetry_2
I1 C10 1_555 1_555
N1 B1 1_555 1_555
O1 C15 1_555 1_555
B1 C1 1_555 1_555
C1 C2 1_555 1_555
C2 C3 1_555 1_555
C3 H1 1_555 1_555
C4 C3 1_555 1_555
C5 C4 1_555 1_555
H2 C5 1_555 1_555
C6 C1 1_555 1_555
C7 C2 1_555 1_555
H3 C7 1_555 1_555
H4 C7 1_555 1_555
H5 C7 1_555 1_555
C8 C4 1_555 1_555
H6 C8 1_555 1_555
H7 C8 1_555 1_555
H8 C8 1_555 1_555
C9 C6 1_555 1_555
H9 C9 1_555 1_555
H10 C9 1_555 1_555
H11 C9 1_555 1_555
C10 B1 1_555 1_555
C11 C10 1_555 1_555
H12 C11 1_555 1_555
C12 C11 1_555 1_555
C13 N1 1_555 1_555
H13 C13 1_555 1_555
C14 N1 1_555 1_555
H14 C14 1_555 1_555
H15 C14 1_555 1_555
H16 C14 1_555 1_555
C15 C12 1_555 1_555
C16 C15 1_555 1_555
H17 C16 1_555 1_555
H18 C16 1_555 1_555
H19 C16 1_555 1_555
C5 C6 1_555 1_555
C12 C13 1_555 1_555

#END
