
#######################################################################
#
#                 Cambridge Crystallographic Data Centre
#                                CCDC 
#
#######################################################################
#
# If this CIF has been generated from an entry in the Cambridge 
# Structural Database, then it will include bibliographic, chemical, 
# crystal, experimental, refinement or atomic coordinate data resulting 
# from the CCDC's data processing and validation procedures.
#
#######################################################################

data_NESHOL
_chemical_formula_moiety         'C22 H18 B1 N1 O2'
_chemical_name_systematic        
1-[4-(9-acetyl[1,2]azaborinino[1,2-a][1,2]azaborinin-1-yl)naphthalen-1-yl]ethan-1-one
_symmetry_cell_setting           triclinic
_symmetry_space_group_name_H-M   'P -1'
_symmetry_Int_Tables_number      2
_space_group_name_Hall           '-P 1'
loop_
_symmetry_equiv_pos_site_id
_symmetry_equiv_pos_as_xyz
1 x,y,z
2 -x,-y,-z
_cell_length_a                   8.1911(5)
_cell_length_b                   9.4733(6)
_cell_length_c                   12.3973(7)
_cell_angle_alpha                111.950(2)
_cell_angle_beta                 97.068(2)
_cell_angle_gamma                93.448(3)
_cell_volume                     879.569
_exptl_crystal_colour            colorless
_exptl_crystal_description       block
_cell_formula_units_Z            2
loop_
_atom_site_label
_atom_site_type_symbol
_atom_site_fract_x
_atom_site_fract_y
_atom_site_fract_z
O1 O 0.24474(17) 0.32929(14) 0.79871(11)
N1 N 0.20130(18) 0.76963(15) 0.75016(11)
C1 C 0.4564(2) 0.65515(17) 0.80098(13)
C2 C 0.5360(2) 0.80026(19) 0.84381(15)
H1 H 0.6477 0.8164 0.8755
C3 C 0.4548(3) 0.9275(2) 0.84186(17)
H2 H 0.5141 1.0245 0.8733
C4 C 0.2956(3) 0.9114(2) 0.79617(16)
H3 H 0.2468 0.9971 0.7951
C5 C 0.0376(3) 0.7643(2) 0.70367(18)
H4 H -0.0033 0.8545 0.7057
C6 C -0.0631(3) 0.6333(3) 0.6560(2)
H5 H -0.1717 0.6341 0.6241
C7 C -0.0086(2) 0.4939(2) 0.65295(17)
H6 H -0.0814 0.4044 0.6168
C8 C 0.1477(2) 0.48634(18) 0.70142(14)
C9 C 0.55575(18) 0.53187(17) 0.80895(13)
C10 C 0.6312(2) 0.54099(19) 0.91648(14)
H7 H 0.6203 0.6250 0.9836
C11 C 0.7240(2) 0.4274(2) 0.92780(15)
H8 H 0.7742 0.4386 1.0025
C12 C 0.7441(2) 0.29989(18) 0.83318(14)
C13 C 0.66865(19) 0.28482(17) 0.71743(14)
C14 C 0.6832(2) 0.16069(18) 0.61243(15)
H9 H 0.7389 0.0801 0.6172
C15 C 0.6180(2) 0.15596(19) 0.50493(15)
H10 H 0.6307 0.0730 0.4377
C16 C 0.5327(2) 0.27336(19) 0.49401(14)
H11 H 0.4897 0.2698 0.4199
C17 C 0.5124(2) 0.39358(18) 0.59255(13)
H12 H 0.4542 0.4714 0.5847
C18 C 0.57717(18) 0.40338(17) 0.70621(13)
C19 C 0.1819(2) 0.33621(18) 0.70736(15)
C20 C 0.1339(2) 0.1925(2) 0.59909(16)
H13 H 0.2098 0.1870 0.5449
H14 H 0.0238 0.1933 0.5626
H15 H 0.1374 0.1051 0.6205
C21 C 0.8448(2) 0.1851(2) 0.85459(18)
B1 B 0.2713(2) 0.6317(2) 0.75180(15)
O2 O 0.8214(17) 0.0478(8) 0.7827(6)
C22 C 0.915(2) 0.1977(17) 0.9700(15)
H16 H 0.9843 0.1179 0.9636
H17 H 0.8273 0.1880 1.0126
H18 H 0.9792 0.2957 1.0111
O3? O 0.905(2) 0.0922(16) 0.7748(5)
C23? C 0.960(2) 0.235(2) 0.976(2)
H19? H 1.0098 0.1487 0.9814
H20? H 0.8954 0.2741 1.0382
H21? H 1.0445 0.3138 0.9825
loop_
_geom_bond_atom_site_label_1
_geom_bond_atom_site_label_2
_geom_bond_site_symmetry_1
_geom_bond_site_symmetry_2
O1 C19 1_555 1_555
N1 C4 1_555 1_555
C1 C2 1_555 1_555
C2 H1 1_555 1_555
C3 C2 1_555 1_555
H2 C3 1_555 1_555
C4 C3 1_555 1_555
H3 C4 1_555 1_555
C5 N1 1_555 1_555
H4 C5 1_555 1_555
C6 C5 1_555 1_555
H5 C6 1_555 1_555
C7 C6 1_555 1_555
H6 C7 1_555 1_555
C8 C7 1_555 1_555
C9 C1 1_555 1_555
C10 C9 1_555 1_555
H7 C10 1_555 1_555
C11 C10 1_555 1_555
H8 C11 1_555 1_555
C12 C11 1_555 1_555
C13 C12 1_555 1_555
C14 C13 1_555 1_555
H9 C14 1_555 1_555
C15 C14 1_555 1_555
H10 C15 1_555 1_555
C16 C15 1_555 1_555
H11 C16 1_555 1_555
C17 C16 1_555 1_555
H12 C17 1_555 1_555
C18 C9 1_555 1_555
C19 C8 1_555 1_555
C20 C19 1_555 1_555
H13 C20 1_555 1_555
H14 C20 1_555 1_555
H15 C20 1_555 1_555
C21 C12 1_555 1_555
B1 N1 1_555 1_555
O2 C21 1_555 1_555
C22 C21 1_555 1_555
H16 C22 1_555 1_555
H17 C22 1_555 1_555
H18 C22 1_555 1_555
C1 B1 1_555 1_555
C8 B1 1_555 1_555
C13 C18 1_555 1_555
C17 C18 1_555 1_555

#END
