
#######################################################################
#
#                 Cambridge Crystallographic Data Centre
#                                CCDC 
#
#######################################################################
#
# If this CIF has been generated from an entry in the Cambridge 
# Structural Database, then it will include bibliographic, chemical, 
# crystal, experimental, refinement or atomic coordinate data resulting 
# from the CCDC's data processing and validation procedures.
#
#######################################################################

data_NESHUR
_chemical_formula_moiety         'C20 H33 B1 N2 O4 S1'
_chemical_name_systematic        
6,10-diisopropyl-3-methyl-8-tosyl-1-oxa-4,8-diaza-5-boraspiro[4.5]decan-2-one
_symmetry_cell_setting           tetragonal
_symmetry_space_group_name_H-M   'P 41'
_symmetry_Int_Tables_number      76
_space_group_name_Hall           'P 4w'
loop_
_symmetry_equiv_pos_site_id
_symmetry_equiv_pos_as_xyz
1 x,y,z
2 -x,-y,1/2+z
3 -y,x,1/4+z
4 y,-x,3/4+z
_cell_length_a                   11.3384(4)
_cell_length_b                   11.3384(4)
_cell_length_c                   17.9222(11)
_cell_angle_alpha                90
_cell_angle_beta                 90
_cell_angle_gamma                90
_cell_volume                     2304.07
_exptl_crystal_colour            colorless
_exptl_crystal_description       plate
_cell_formula_units_Z            4
loop_
_atom_site_label
_atom_site_type_symbol
_atom_site_fract_x
_atom_site_fract_y
_atom_site_fract_z
B1 B 0.22025(14) 0.82559(14) 0.22485(9)
S1 S 0.19255(3) 0.43015(3) 0.239570(18)
N1 N 0.20047(11) 0.57220(10) 0.23193(7)
N2 N 0.24122(11) 0.88300(12) 0.14242(7)
H1 H 0.3165 0.8672 0.1261
H2 H 0.1887 0.8515 0.1087
O1 O 0.20012(11) 1.13232(10) 0.25861(6)
O2 O 0.21262(10) 0.93771(9) 0.27098(6)
O3 O 0.27085(11) 0.39595(10) 0.29889(6)
O4 O 0.07000(10) 0.39927(10) 0.24591(7)
C1 C 0.21079(12) 1.03392(12) 0.23231(8)
C2 C 0.22318(16) 1.01219(14) 0.14879(9)
H3 H 0.2942 1.0546 0.1294
C3 C 0.1144(3) 1.05315(17) 0.10722(13)
H4 H 0.1309 1.0545 0.0535
H5 H 0.0930 1.1326 0.1240
H6 H 0.0491 0.9989 0.1172
C4 C 0.33179(12) 0.74475(12) 0.25062(8)
H7 H 0.3272 0.7377 0.3062
C5 C 0.31985(12) 0.61948(12) 0.21917(8)
H8 H 0.3365 0.6206 0.1649
H9 H 0.3785 0.5674 0.2434
C6 C 0.10789(13) 0.63584(12) 0.19065(9)
H10 H 0.0325 0.5923 0.1945
H11 H 0.1296 0.6409 0.1373
C7 C 0.09280(13) 0.76017(14) 0.22265(10)
H12 H 0.0466 0.8039 0.1840
C8 C 0.45683(13) 0.79199(13) 0.23222(10)
H13 H 0.4584 0.8119 0.1779
C9 C 0.48588(15) 0.90459(16) 0.27550(13)
H14 H 0.4766 0.8901 0.3291
H15 H 0.4322 0.9678 0.2600
H16 H 0.5674 0.9280 0.2651
C10 C 0.55424(14) 0.70082(15) 0.24640(12)
H17 H 0.6315 0.7390 0.2422
H18 H 0.5483 0.6374 0.2095
H19 H 0.5452 0.6679 0.2966
C11 C 0.01993(17) 0.77048(17) 0.29354(12)
H20 H 0.0073 0.8566 0.3026
C12 C -0.1025(2) 0.7152(4) 0.28410(17)
H21 H -0.0960 0.6291 0.2871
H22 H -0.1349 0.7374 0.2354
H23 H -0.1548 0.7437 0.3237
C13 C 0.0778(2) 0.7213(3) 0.36299(13)
H24 H 0.0884 0.6360 0.3574
H25 H 0.0276 0.7371 0.4064
H26 H 0.1547 0.7589 0.3702
C14 C 0.25061(13) 0.37110(13) 0.15661(8)
C15 C 0.18440(16) 0.37696(16) 0.09150(10)
H27 H 0.1072 0.4094 0.0921
C16 C 0.23257(19) 0.33488(18) 0.02583(10)
H28 H 0.1876 0.3391 -0.0188
C17 C 0.34534(17) 0.28653(15) 0.02351(10)
C18 C 0.40958(16) 0.28322(16) 0.08925(10)
H29 H 0.4871 0.2515 0.0886
C19 C 0.36384(14) 0.32495(14) 0.15579(9)
H30 H 0.4094 0.3220 0.2003
C20 C 0.3960(2) 0.2367(2) -0.04760(12)
H31 H 0.4772 0.2647 -0.0538
H32 H 0.3483 0.2628 -0.0901
H33 H 0.3956 0.1504 -0.0451
loop_
_geom_bond_atom_site_label_1
_geom_bond_atom_site_label_2
_geom_bond_site_symmetry_1
_geom_bond_site_symmetry_2
B1 N2 1_555 1_555
S1 N1 1_555 1_555
N1 C5 1_555 1_555
N2 H1 1_555 1_555
H2 N2 1_555 1_555
O1 C1 1_555 1_555
O2 B1 1_555 1_555
O3 S1 1_555 1_555
O4 S1 1_555 1_555
C1 O2 1_555 1_555
C2 N2 1_555 1_555
H3 C2 1_555 1_555
C3 C2 1_555 1_555
H4 C3 1_555 1_555
H5 C3 1_555 1_555
H6 C3 1_555 1_555
C4 B1 1_555 1_555
H7 C4 1_555 1_555
C5 C4 1_555 1_555
H8 C5 1_555 1_555
H9 C5 1_555 1_555
C6 N1 1_555 1_555
H10 C6 1_555 1_555
H11 C6 1_555 1_555
C7 B1 1_555 1_555
H12 C7 1_555 1_555
C8 C4 1_555 1_555
H13 C8 1_555 1_555
C9 C8 1_555 1_555
H14 C9 1_555 1_555
H15 C9 1_555 1_555
H16 C9 1_555 1_555
C10 C8 1_555 1_555
H17 C10 1_555 1_555
H18 C10 1_555 1_555
H19 C10 1_555 1_555
C11 C7 1_555 1_555
H20 C11 1_555 1_555
C12 C11 1_555 1_555
H21 C12 1_555 1_555
H22 C12 1_555 1_555
H23 C12 1_555 1_555
C13 C11 1_555 1_555
H24 C13 1_555 1_555
H25 C13 1_555 1_555
H26 C13 1_555 1_555
C14 S1 1_555 1_555
C15 C14 1_555 1_555
H27 C15 1_555 1_555
C16 C15 1_555 1_555
H28 C16 1_555 1_555
C17 C16 1_555 1_555
C18 C17 1_555 1_555
H29 C18 1_555 1_555
C19 C14 1_555 1_555
H30 C19 1_555 1_555
C20 C17 1_555 1_555
H31 C20 1_555 1_555
H32 C20 1_555 1_555
H33 C20 1_555 1_555
C1 C2 1_555 1_555
C6 C7 1_555 1_555
C18 C19 1_555 1_555

#END
