
#######################################################################
#
#                 Cambridge Crystallographic Data Centre
#                                CCDC 
#
#######################################################################
#
# If this CIF has been generated from an entry in the Cambridge 
# Structural Database, then it will include bibliographic, chemical, 
# crystal, experimental, refinement or atomic coordinate data resulting 
# from the CCDC's data processing and validation procedures.
#
#######################################################################

data_NESHIF
_chemical_formula_moiety         'C12 H12 B1 N1 O2'
_chemical_name_systematic        
1,1'-([1,2]azaborinino[1,2-a][1,2]azaborinine-1,9-diyl)bis(ethan-1-one)
_symmetry_cell_setting           orthorhombic
_symmetry_space_group_name_H-M   'P c c n'
_symmetry_Int_Tables_number      56
_space_group_name_Hall           '-P 2ab 2ac'
loop_
_symmetry_equiv_pos_site_id
_symmetry_equiv_pos_as_xyz
1 x,y,z
2 1/2-x,1/2-y,z
3 1/2+x,-y,1/2-z
4 -x,1/2+y,1/2-z
5 -x,-y,-z
6 1/2+x,1/2+y,-z
7 1/2-x,y,1/2+z
8 x,1/2-y,1/2+z
_cell_length_a                   17.066(3)
_cell_length_b                   12.178(2)
_cell_length_c                   16.125(3)
_cell_angle_alpha                90
_cell_angle_beta                 90
_cell_angle_gamma                90
_cell_volume                     3351.25
_exptl_crystal_colour            colorless
_exptl_crystal_description       sheet
_cell_formula_units_Z            12
loop_
_atom_site_label
_atom_site_type_symbol
_atom_site_fract_x
_atom_site_fract_y
_atom_site_fract_z
B1 B 0.10660(13) 0.77804(16) 0.27243(13)
N1 N 0.11522(9) 0.78149(13) 0.36268(9)
O1 O 0.06664(8) 0.89758(13) 0.11089(8)
O2 O 0.11143(11) 0.66657(14) 0.10751(9)
C1 C 0.14791(12) 0.87059(15) 0.22634(11)
C2 C 0.19532(14) 0.93934(18) 0.26903(14)
H1 H 0.223042 0.993180 0.240532
C3 C 0.20362(15) 0.9311(2) 0.35606(15)
H2 H 0.237897 0.978287 0.383263
C4 C 0.16336(14) 0.8571(2) 0.40033(13)
H3 H 0.168089 0.856749 0.457787
C5 C 0.07508(13) 0.70927(18) 0.41280(13)
H4 H 0.080595 0.714891 0.470021
C6 C 0.02824(15) 0.63102(19) 0.38156(13)
H5 H 0.001185 0.584740 0.417402
C7 C 0.01946(13) 0.61799(18) 0.29535(13)
H6 H -0.013176 0.562513 0.275920
C8 C 0.05670(12) 0.68310(15) 0.23915(11)
C9 C 0.13269(11) 0.89548(15) 0.13736(12)
C10 C 0.20067(14) 0.9205(2) 0.08274(14)
H7 H 0.182472 0.933728 0.027297
H8 H 0.236137 0.859300 0.082672
H9 H 0.227257 0.984568 0.103001
C11 C 0.05434(13) 0.65274(15) 0.15094(13)
C12 C -0.01717(15) 0.6014(2) 0.11447(14)
H10 H -0.057107 0.595990 0.156191
H11 H -0.035834 0.645870 0.069440
H12 H -0.004583 0.529378 0.094297
B2 B 0.250000 0.250000 0.32550(17)
N2 N 0.250000 0.250000 0.41569(13)
O3 O 0.17513(10) 0.19251(13) 0.16392(8)
C13 C 0.17626(12) 0.29679(15) 0.28535(12)
C14 C 0.12199(15) 0.3472(2) 0.33446(15)
H13 H 0.078207 0.379501 0.310286
C15 C 0.13128(18) 0.3511(2) 0.42126(18)
H14 H 0.094504 0.388819 0.452862
C16 C 0.1909(2) 0.3025(2) 0.45927(15)
H15 H 0.193117 0.303733 0.516889
C17 C 0.15777(11) 0.27858(16) 0.19723(12)
C18 C 0.11498(15) 0.3651(2) 0.14913(16)
H16 H 0.105729 0.427558 0.184098
H17 H 0.146003 0.386925 0.102286
H18 H 0.065793 0.336214 0.130188
O3A O 0.32487(10) 0.30749(13) 0.16392(8)
C13A C 0.32374(12) 0.20321(15) 0.28535(12)
C14A C 0.37801(15) 0.1528(2) 0.33446(15)
H13A H 0.421793 0.120499 0.310286
C15A C 0.36872(18) 0.1489(2) 0.42126(18)
H14A H 0.405496 0.111181 0.452862
C16A C 0.3091(2) 0.1975(2) 0.45927(15)
H15A H 0.306883 0.196267 0.516889
C17A C 0.34223(11) 0.22142(16) 0.19723(12)
C18A C 0.38502(15) 0.1349(2) 0.14913(16)
H16A H 0.394271 0.072442 0.184098
H17A H 0.353997 0.113075 0.102286
H18A H 0.434207 0.163786 0.130188
loop_
_geom_bond_atom_site_label_1
_geom_bond_atom_site_label_2
_geom_bond_site_symmetry_1
_geom_bond_site_symmetry_2
B1 N1 1_555 1_555
N1 C4 1_555 1_555
O1 C9 1_555 1_555
O2 C11 1_555 1_555
C1 B1 1_555 1_555
C2 C1 1_555 1_555
H1 C2 1_555 1_555
C3 C2 1_555 1_555
H2 C3 1_555 1_555
C4 C3 1_555 1_555
H3 C4 1_555 1_555
C5 N1 1_555 1_555
H4 C5 1_555 1_555
C6 C5 1_555 1_555
H5 C6 1_555 1_555
C7 C6 1_555 1_555
H6 C7 1_555 1_555
C8 B1 1_555 1_555
C9 C1 1_555 1_555
C10 C9 1_555 1_555
H7 C10 1_555 1_555
H8 C10 1_555 1_555
H9 C10 1_555 1_555
C11 C8 1_555 1_555
C12 C11 1_555 1_555
H10 C12 1_555 1_555
H11 C12 1_555 1_555
H12 C12 1_555 1_555
B2 N2 1_555 1_555
N2 C16 1_555 1_555
O3 C17 1_555 1_555
C13 B2 1_555 1_555
C14 C13 1_555 1_555
H13 C14 1_555 1_555
C15 C14 1_555 1_555
H14 C15 1_555 1_555
C16 C15 1_555 1_555
H15 C16 1_555 1_555
C17 C13 1_555 1_555
C18 C17 1_555 1_555
H16 C18 1_555 1_555
H17 C18 1_555 1_555
H18 C18 1_555 1_555
O3A C17A 1_555 1_555
C13A B2 1_555 1_555
C14A C13A 1_555 1_555
H13A C14A 1_555 1_555
C15A C14A 1_555 1_555
H14A C15A 1_555 1_555
C16A N2 1_555 1_555
H15A C16A 1_555 1_555
C17A C13A 1_555 1_555
C18A C17A 1_555 1_555
H16A C18A 1_555 1_555
H17A C18A 1_555 1_555
H18A C18A 1_555 1_555
C7 C8 1_555 1_555
C15A C16A 1_555 1_555

#END
