
#######################################################################
#
#                 Cambridge Crystallographic Data Centre
#                                CCDC 
#
#######################################################################
#
# If this CIF has been generated from an entry in the Cambridge 
# Structural Database, then it will include bibliographic, chemical, 
# crystal, experimental, refinement or atomic coordinate data resulting 
# from the CCDC's data processing and validation procedures.
#
#######################################################################

data_NESJEC
_chemical_formula_moiety         'C32 H30 Ba1 O18 S2,8(H2 O1)'
_chemical_name_systematic        
"bis(4'-hydroxy-7-methoxyisoflavone-3'-sulfonate)-tetra-aqua-barium octahydrate"
_symmetry_cell_setting           triclinic
_symmetry_space_group_name_H-M   'P -1'
_symmetry_Int_Tables_number      2
_space_group_name_Hall           '-P 1'
loop_
_symmetry_equiv_pos_site_id
_symmetry_equiv_pos_as_xyz
1 x,y,z
2 -x,-y,-z
_cell_length_a                   7.752(7)
_cell_length_b                   9.780(8)
_cell_length_c                   15.148(13)
_cell_angle_alpha                77.246(13)
_cell_angle_beta                 84.484(14)
_cell_angle_gamma                70.415(12)
_cell_volume                     1054.99
_exptl_crystal_colour            white
_exptl_crystal_description       plate
_cell_formula_units_Z            1
loop_
_atom_site_label
_atom_site_type_symbol
_atom_site_fract_x
_atom_site_fract_y
_atom_site_fract_z
Ba1 Ba 1.0000 0.0000 1.0000
O1 O 0.7666(6) 0.8047(4) 0.4034(2)
O2 O 0.6703(5) 0.8198(4) 0.6707(3)
O3 O 0.8545(6) 1.2740(4) 0.3364(3)
O4 O 0.7687(5) 0.1556(4) 0.8112(3)
O5 O 1.1570(5) 0.1050(4) 0.8203(2)
O6 O 0.9965(5) 0.2896(4) 0.9056(2)
O7 O 1.2094(5) 0.3419(4) 0.7849(3)
O8 O 0.6710(6) 0.2023(6) 1.0288(3)
O9 O 1.1944(8) 0.1365(5) 1.0694(4)
S1 S 1.08032(17) 0.26425(14) 0.81798(9)
C1 C 0.7571(8) 0.6859(6) 0.4675(4)
H1 H 0.7661 0.6006 0.4471
C2 C 0.7363(7) 0.6788(6) 0.5561(4)
C3 C 0.7098(7) 0.8139(6) 0.5900(4)
C4 C 0.7371(7) 0.9355(6) 0.5234(3)
C5 C 0.7407(7) 1.0667(6) 0.5469(4)
H2 H 0.7167 1.0787 0.6066
C6 C 0.7787(7) 1.1754(6) 0.4836(4)
H3 H 0.7823 1.2601 0.5007
C7 C 0.8128(7) 1.1619(6) 0.3924(4)
C8 C 0.8049(7) 1.0372(6) 0.3671(4)
H4 H 0.8249 1.0271 0.3070
C9 C 0.7670(7) 0.9281(6) 0.4323(4)
C10 C 0.7420(7) 0.5379(5) 0.6210(3)
C11 C 0.8865(7) 0.4697(5) 0.6790(3)
H5 H 0.9785 0.5120 0.6758
C12 C 0.8993(7) 0.3410(5) 0.7418(3)
C13 C 0.7579(7) 0.2791(5) 0.7466(4)
C14 C 0.6136(7) 0.3467(6) 0.6884(4)
H6 H 0.5212 0.3049 0.6911
C15 C 0.6042(7) 0.4751(6) 0.6265(4)
H7 H 0.5052 0.5198 0.5882
C16 C 0.9083(10) 1.2594(7) 0.2456(4)
H8 H 0.9342 1.3468 0.2133
H9 H 0.8110 1.2470 0.2168
H10 H 1.0160 1.1745 0.2454
H11 H 0.683(7) 0.113(7) 0.810(5)
H12 H 0.612(7) 0.229(7) 1.080(2)
H13 H 0.598(7) 0.251(7) 0.981(2)
H14 H 1.257(8) 0.100(6) 1.121(3)
H15 H 1.169(9) 0.2353(15) 1.056(4)
O1A O 1.2334(6) -0.8047(4) 1.5966(2)
O2A O 1.3297(5) -0.8198(4) 1.3293(3)
O3A O 1.1455(6) -1.2740(4) 1.6636(3)
O4A O 1.2313(5) -0.1556(4) 1.1888(3)
O5A O 0.8430(5) -0.1050(4) 1.1797(2)
O6A O 1.0035(5) -0.2896(4) 1.0944(2)
O7A O 0.7906(5) -0.3419(4) 1.2151(3)
O8A O 1.3290(6) -0.2023(6) 0.9712(3)
O9A O 0.8056(8) -0.1365(5) 0.9306(4)
S1A S 0.91968(17) -0.26425(14) 1.18202(9)
C1A C 1.2429(8) -0.6859(6) 1.5325(4)
H1A H 1.2339 -0.6006 1.5529
C2A C 1.2637(7) -0.6788(6) 1.4439(4)
C3A C 1.2902(7) -0.8139(6) 1.4100(4)
C4A C 1.2629(7) -0.9355(6) 1.4766(3)
C5A C 1.2593(7) -1.0667(6) 1.4531(4)
H2A H 1.2833 -1.0787 1.3934
C6A C 1.2213(7) -1.1754(6) 1.5164(4)
H3A H 1.2177 -1.2601 1.4993
C7A C 1.1872(7) -1.1619(6) 1.6076(4)
C8A C 1.1951(7) -1.0372(6) 1.6329(4)
H4A H 1.1751 -1.0271 1.6930
C9A C 1.2330(7) -0.9281(6) 1.5677(4)
C10A C 1.2580(7) -0.5379(5) 1.3790(3)
C11A C 1.1135(7) -0.4697(5) 1.3210(3)
H5A H 1.0215 -0.5120 1.3242
C12A C 1.1007(7) -0.3410(5) 1.2582(3)
C13A C 1.2421(7) -0.2791(5) 1.2534(4)
C14A C 1.3864(7) -0.3467(6) 1.3116(4)
H6A H 1.4788 -0.3049 1.3089
C15A C 1.3958(7) -0.4751(6) 1.3735(4)
H7A H 1.4948 -0.5198 1.4118
C16A C 1.0917(10) -1.2594(7) 1.7544(4)
H8A H 1.0658 -1.3468 1.7867
H9A H 1.1890 -1.2470 1.7832
H10A H 0.9840 -1.1745 1.7546
H11A H 1.317(7) -0.113(7) 1.190(5)
H12A H 1.388(7) -0.229(7) 0.920(2)
H13A H 1.402(7) -0.251(7) 1.019(2)
H14A H 0.743(8) -0.100(6) 0.879(3)
H15A H 0.831(9) -0.2353(15) 0.944(4)
O10 O 0.5418(5) 0.0141(5) 0.7901(3)
H16 H 0.4197(19) 0.053(7) 0.796(4)
H17 H 0.571(7) -0.022(7) 0.739(3)
O11 O 0.4229(6) 0.4177(5) 0.8958(3)
H18 H 0.339(6) 0.433(8) 0.941(3)
H19 H 0.373(7) 0.414(8) 0.846(2)
O12 O 0.5430(6) 0.6582(5) 0.8288(3)
H20 H 0.516(9) 0.575(4) 0.832(4)
H21 H 0.580(9) 0.692(6) 0.7727(18)
O13 O 0.8077(6) 0.5646(5) 0.9549(3)
H22 H 0.736(6) 0.580(7) 0.908(3)
H23 H 0.916(4) 0.496(6) 0.948(4)
loop_
_geom_bond_atom_site_label_1
_geom_bond_atom_site_label_2
_geom_bond_site_symmetry_1
_geom_bond_site_symmetry_2
Ba1 O5 1_555 1_555
O1 C1 1_555 1_555
O2 C3 1_555 1_555
O3 C7 1_555 1_555
O4 C13 1_555 1_555
O5 S1 1_555 1_555
O6 Ba1 1_555 1_555
O7 S1 1_555 1_555
O8 Ba1 1_555 1_555
O9 Ba1 1_555 1_555
O10 H16 1_555 1_555
O11 H18 1_555 1_555
O12 H20 1_555 1_555
O13 H22 1_555 1_555
S1 O6 1_555 1_555
C1 H1 1_555 1_555
C2 C1 1_555 1_555
C3 C2 1_555 1_555
C4 C3 1_555 1_555
C5 C4 1_555 1_555
H2 C5 1_555 1_555
C6 C5 1_555 1_555
H3 C6 1_555 1_555
C7 C6 1_555 1_555
C8 C7 1_555 1_555
H4 C8 1_555 1_555
C9 O1 1_555 1_555
C10 C2 1_555 1_555
C11 C10 1_555 1_555
H5 C11 1_555 1_555
C12 S1 1_555 1_555
C13 C12 1_555 1_555
C14 C13 1_555 1_555
H6 C14 1_555 1_555
C15 C10 1_555 1_555
H7 C15 1_555 1_555
C16 O3 1_555 1_555
H8 C16 1_555 1_555
H9 C16 1_555 1_555
H10 C16 1_555 1_555
H11 O4 1_555 1_555
H12 O8 1_555 1_555
H13 O8 1_555 1_555
H14 O9 1_555 1_555
H15 O9 1_555 1_555
H17 O10 1_555 1_555
H19 O11 1_555 1_555
H21 O12 1_555 1_555
H23 O13 1_555 1_555
O1A C1A 1_555 1_555
O2A C3A 1_555 1_555
O3A C7A 1_555 1_555
O4A C13A 1_555 1_555
O5A Ba1 1_555 1_555
O6A Ba1 1_555 1_555
O7A S1A 1_555 1_555
O8A Ba1 1_555 1_555
O9A Ba1 1_555 1_555
S1A O5A 1_555 1_555
C1A H1A 1_555 1_555
C2A C1A 1_555 1_555
C3A C2A 1_555 1_555
C4A C3A 1_555 1_555
C5A C4A 1_555 1_555
H2A C5A 1_555 1_555
C6A C5A 1_555 1_555
H3A C6A 1_555 1_555
C7A C6A 1_555 1_555
C8A C7A 1_555 1_555
H4A C8A 1_555 1_555
C9A O1A 1_555 1_555
C10A C2A 1_555 1_555
C11A C10A 1_555 1_555
H5A C11A 1_555 1_555
C12A S1A 1_555 1_555
C13A C12A 1_555 1_555
C14A C13A 1_555 1_555
H6A C14A 1_555 1_555
C15A C10A 1_555 1_555
H7A C15A 1_555 1_555
C16A O3A 1_555 1_555
H8A C16A 1_555 1_555
H9A C16A 1_555 1_555
H10A C16A 1_555 1_555
H11A O4A 1_555 1_555
H12A O8A 1_555 1_555
H13A O8A 1_555 1_555
H14A O9A 1_555 1_555
H15A O9A 1_555 1_555
C4 C9 1_555 1_555
C8 C9 1_555 1_555
C11 C12 1_555 1_555
C14 C15 1_555 1_555
O6A S1A 1_555 1_555
C4A C9A 1_555 1_555
C8A C9A 1_555 1_555
C11A C12A 1_555 1_555
C14A C15A 1_555 1_555

#END
