
#######################################################################
#
#                 Cambridge Crystallographic Data Centre
#                                CCDC 
#
#######################################################################
#
# If this CIF has been generated from an entry in the Cambridge 
# Structural Database, then it will include bibliographic, chemical, 
# crystal, experimental, refinement or atomic coordinate data resulting 
# from the CCDC's data processing and validation procedures.
#
#######################################################################

data_NESKOO
_chemical_name_common            
'o-hydroxypropiophenone-2-thiophenoyl hydrazone'
_chemical_formula_moiety         'C14 H14 N2 O2 S1'
_chemical_name_systematic        
N'-[1-(2-hydroxyphenyl)propylidene]thiophene-2-carbohydrazide
_symmetry_cell_setting           orthorhombic
_symmetry_space_group_name_H-M   'P b c a'
_symmetry_Int_Tables_number      61
_space_group_name_Hall           '-P 2ac 2ab'
loop_
_symmetry_equiv_pos_site_id
_symmetry_equiv_pos_as_xyz
1 x,y,z
2 1/2-x,-y,1/2+z
3 -x,1/2+y,1/2-z
4 1/2+x,1/2-y,-z
5 -x,-y,-z
6 1/2+x,y,1/2-z
7 x,1/2-y,1/2+z
8 1/2-x,1/2+y,z
_cell_length_a                   13.5699(8)
_cell_length_b                   7.7092(6)
_cell_length_c                   25.576(2)
_cell_angle_alpha                90
_cell_angle_beta                 90
_cell_angle_gamma                90
_cell_volume                     2675.58
_exptl_crystal_colour            cream
_exptl_crystal_description       block
_chemical_melting_point          '451 K'
_cell_formula_units_Z            8
_exptl_crystal_recrystallization_method ethanol
loop_
_atom_site_label
_atom_site_type_symbol
_atom_site_fract_x
_atom_site_fract_y
_atom_site_fract_z
O1 O 0.38024(15) 0.2172(3) 0.34000(8)
S1 S 0.43610(7) -0.01276(13) 0.24953(3)
N1 N 0.23651(17) 0.1562(3) 0.40751(9)
C1 C 0.15433(19) 0.1604(3) 0.43270(11)
O2 O 0.33426(14) 0.2983(2) 0.48101(8)
H1 H 0.3267 0.2504 0.4527
N2 N 0.24004(16) 0.0732(3) 0.35922(9)
H2 H 0.1941 0.0037 0.3493
C2 C 0.1580(2) 0.2477(3) 0.48401(10)
C3 C 0.2463(2) 0.3101(3) 0.50578(11)
C4 C 0.05919(19) 0.0917(3) 0.41156(11)
H3 H 0.0164 0.0598 0.4404
H4 H 0.0720 -0.0118 0.3911
C5 C 0.0735(2) 0.3462(4) 0.56228(12)
H5 H 0.0155 0.3576 0.5814
C6 C 0.3188(2) 0.1067(3) 0.32866(11)
C7 C 0.3234(2) 0.0057(3) 0.27968(11)
C8 C 0.0722(2) 0.2699(3) 0.51383(12)
H6 H 0.0124 0.2316 0.5003
C9 C 0.2466(2) 0.3885(3) 0.55452(12)
H7 H 0.3055 0.4297 0.5684
C10 C 0.1612(2) 0.4058(4) 0.58246(12)
H8 H 0.1625 0.4581 0.6152
C11 C 0.2510(2) -0.0736(3) 0.25130(11)
H9 H 0.1850 -0.0765 0.2610
C12 C 0.2889(3) -0.1510(4) 0.20520(13)
H10 H 0.2501 -0.2102 0.1811
C13 C 0.0081(3) 0.2250(4) 0.37773(14)
H11 H -0.0530 0.1782 0.3651
H12 H 0.0496 0.2542 0.3486
H13 H -0.0048 0.3274 0.3980
C14 C 0.3866(3) -0.1301(4) 0.19995(13)
H14 H 0.4230 -0.1748 0.1723
loop_
_geom_bond_atom_site_label_1
_geom_bond_atom_site_label_2
_geom_bond_site_symmetry_1
_geom_bond_site_symmetry_2
O1 C6 1_555 1_555
S1 C7 1_555 1_555
N1 C1 1_555 1_555
C1 C2 1_555 1_555
O2 H1 1_555 1_555
N2 N1 1_555 1_555
H2 N2 1_555 1_555
C2 C3 1_555 1_555
C3 O2 1_555 1_555
C4 C1 1_555 1_555
H3 C4 1_555 1_555
H4 C4 1_555 1_555
C5 H5 1_555 1_555
C6 N2 1_555 1_555
C7 C6 1_555 1_555
C8 C2 1_555 1_555
H6 C8 1_555 1_555
C9 C3 1_555 1_555
H7 C9 1_555 1_555
C10 C5 1_555 1_555
H8 C10 1_555 1_555
C11 C7 1_555 1_555
H9 C11 1_555 1_555
C12 C11 1_555 1_555
H10 C12 1_555 1_555
C13 C4 1_555 1_555
H11 C13 1_555 1_555
H12 C13 1_555 1_555
H13 C13 1_555 1_555
C14 S1 1_555 1_555
H14 C14 1_555 1_555
C5 C8 1_555 1_555
C9 C10 1_555 1_555
C12 C14 1_555 1_555

#END
