
#######################################################################
#
#                 Cambridge Crystallographic Data Centre
#                                CCDC 
#
#######################################################################
#
# If this CIF has been generated from an entry in the Cambridge 
# Structural Database, then it will include bibliographic, chemical, 
# crystal, experimental, refinement or atomic coordinate data resulting 
# from the CCDC's data processing and validation procedures.
#
#######################################################################

data_NESMUW
_chemical_formula_moiety         'C36 H26 P1 1+,C1 H2 Cl2,B1 F4 1-'
_chemical_name_systematic        
'1,1,2,3-tetraphenyl-1H-benzo[de]phosphinolin-1-ium tetrafluoroborate dichloromethane solvate'
_symmetry_cell_setting           monoclinic
_symmetry_space_group_name_H-M   'P 21/n'
_symmetry_Int_Tables_number      14
_space_group_name_Hall           '-P 2yn'
loop_
_symmetry_equiv_pos_site_id
_symmetry_equiv_pos_as_xyz
1 x,y,z
2 1/2-x,1/2+y,1/2-z
3 -x,-y,-z
4 1/2+x,1/2-y,1/2+z
_cell_length_a                   8.9671(14)
_cell_length_b                   16.190(3)
_cell_length_c                   22.096(3)
_cell_angle_alpha                90
_cell_angle_beta                 96.064(3)
_cell_angle_gamma                90
_cell_volume                     3189.89
_exptl_crystal_colour            colorless
_exptl_crystal_description       Prism
_cell_formula_units_Z            4
loop_
_atom_site_label
_atom_site_type_symbol
_atom_site_fract_x
_atom_site_fract_y
_atom_site_fract_z
P1 P 0.47488(4) 0.31237(2) 0.153487(17)
C1 C 0.58508(16) 0.38527(9) 0.11668(7)
C2 C 0.69076(18) 0.43473(10) 0.15025(7)
H1 H 0.7034 0.4311 0.1934
C3 C 0.7774(2) 0.48923(10) 0.12048(8)
H2 H 0.8494 0.5232 0.1432
C4 C 0.75865(19) 0.49391(11) 0.05764(8)
H3 H 0.8174 0.5317 0.0373
C5 C 0.65543(19) 0.44432(11) 0.02412(7)
H4 H 0.6444 0.4476 -0.0190
C6 C 0.56790(18) 0.38973(10) 0.05328(7)
H5 H 0.4967 0.3556 0.0303
C7 C 0.43876(17) 0.35347(9) 0.22579(7)
C8 C 0.41939(18) 0.43858(10) 0.23300(7)
H6 H 0.4323 0.4754 0.2005
C9 C 0.3813(2) 0.46865(11) 0.28794(9)
H7 H 0.3684 0.5263 0.2933
C10 C 0.3620(2) 0.41476(12) 0.33490(9)
H8 H 0.3362 0.4357 0.3726
C11 C 0.3796(2) 0.33090(12) 0.32774(8)
H9 H 0.3658 0.2945 0.3604
C12 C 0.41733(19) 0.29957(10) 0.27316(7)
H10 H 0.4285 0.2417 0.2680
C13 C 0.30236(17) 0.29600(9) 0.10743(7)
C14 C 0.21267(18) 0.36414(10) 0.09277(7)
H11 H 0.2435 0.4170 0.1081
C15 C 0.07669(18) 0.35606(11) 0.05555(8)
H12 H 0.0153 0.4031 0.0459
C16 C 0.03324(19) 0.28020(11) 0.03334(8)
H13 H -0.0588 0.2750 0.0081
C17 C 0.12210(17) 0.20910(10) 0.04713(7)
C18 C 0.07923(19) 0.13184(11) 0.02083(8)
H14 H -0.0125 0.1271 -0.0047
C19 C 0.1684(2) 0.06427(11) 0.03175(8)
H15 H 0.1403 0.0131 0.0128
C20 C 0.30252(19) 0.07028(10) 0.07115(8)
H16 H 0.3625 0.0223 0.0788
C21 C 0.34949(17) 0.14360(9) 0.09896(7)
C22 C 0.26000(17) 0.21598(9) 0.08551(7)
C23 C 0.49280(17) 0.14528(9) 0.13887(7)
C24 C 0.56447(18) 0.06268(9) 0.15274(7)
C25 C 0.5103(2) 0.01338(11) 0.19701(8)
H17 H 0.4308 0.0327 0.2185
C26 C 0.5724(3) -0.06416(12) 0.21001(10)
H18 H 0.5353 -0.0976 0.2404
C27 C 0.6863(3) -0.09242(12) 0.17916(10)
H19 H 0.7280 -0.1456 0.1879
C28 C 0.7408(3) -0.04377(14) 0.13538(10)
H20 H 0.8200 -0.0637 0.1140
C29 C 0.6809(2) 0.03433(12) 0.12205(8)
H21 H 0.7198 0.0678 0.0921
C30 C 0.56221(17) 0.21347(9) 0.16336(6)
C31 C 0.71463(17) 0.21031(9) 0.19877(7)
C32 C 0.73747(18) 0.17209(9) 0.25564(7)
H22 H 0.6542 0.1516 0.2743
C33 C 0.88123(19) 0.16388(10) 0.28494(7)
H23 H 0.8962 0.1369 0.3233
C34 C 1.00295(19) 0.19474(10) 0.25861(8)
H24 H 1.1013 0.1889 0.2788
C35 C 0.98102(19) 0.23416(11) 0.20284(8)
H25 H 1.0643 0.2562 0.1850
C36 C 0.83729(18) 0.24163(10) 0.17285(7)
H26 H 0.8230 0.2683 0.1344
Cl1 Cl 0.38095(9) 0.84008(4) 0.02432(3)
Cl2 Cl 0.65343(6) 0.74776(4) 0.06351(2)
C37 C 0.4718(2) 0.77336(14) 0.07977(9)
H27 H 0.4774 0.8004 0.1201
H28 H 0.4121 0.7222 0.0817
F1 F 0.32788(12) 0.57552(7) 0.12881(5)
F2 F 0.12326(16) 0.61089(8) 0.17527(6)
F3 F 0.17723(14) 0.67712(6) 0.08973(5)
F4 F 0.09680(12) 0.54551(7) 0.08343(6)
B1 B 0.1786(2) 0.60186(11) 0.11984(9)
loop_
_geom_bond_atom_site_label_1
_geom_bond_atom_site_label_2
_geom_bond_site_symmetry_1
_geom_bond_site_symmetry_2
P1 C1 1_555 1_555
C1 C2 1_555 1_555
C2 H1 1_555 1_555
C3 C2 1_555 1_555
H2 C3 1_555 1_555
C4 C3 1_555 1_555
H3 C4 1_555 1_555
C5 C4 1_555 1_555
H4 C5 1_555 1_555
C6 C1 1_555 1_555
H5 C6 1_555 1_555
C7 P1 1_555 1_555
C8 C7 1_555 1_555
H6 C8 1_555 1_555
C9 C8 1_555 1_555
H7 C9 1_555 1_555
C10 C9 1_555 1_555
H8 C10 1_555 1_555
C11 C10 1_555 1_555
H9 C11 1_555 1_555
C12 C7 1_555 1_555
H10 C12 1_555 1_555
C13 P1 1_555 1_555
C14 C13 1_555 1_555
H11 C14 1_555 1_555
C15 C14 1_555 1_555
H12 C15 1_555 1_555
C16 C15 1_555 1_555
H13 C16 1_555 1_555
C17 C16 1_555 1_555
C18 C17 1_555 1_555
H14 C18 1_555 1_555
C19 C18 1_555 1_555
H15 C19 1_555 1_555
C20 C19 1_555 1_555
H16 C20 1_555 1_555
C21 C20 1_555 1_555
C22 C13 1_555 1_555
C23 C21 1_555 1_555
C24 C23 1_555 1_555
C25 C24 1_555 1_555
H17 C25 1_555 1_555
C26 C25 1_555 1_555
H18 C26 1_555 1_555
C27 C26 1_555 1_555
H19 C27 1_555 1_555
C28 C27 1_555 1_555
H20 C28 1_555 1_555
C29 C24 1_555 1_555
H21 C29 1_555 1_555
C30 P1 1_555 1_555
C31 C30 1_555 1_555
C32 C31 1_555 1_555
H22 C32 1_555 1_555
C33 C32 1_555 1_555
H23 C33 1_555 1_555
C34 C33 1_555 1_555
H24 C34 1_555 1_555
C35 C34 1_555 1_555
H25 C35 1_555 1_555
C36 C31 1_555 1_555
H26 C36 1_555 1_555
Cl1 C37 1_555 1_555
Cl2 C37 1_555 1_555
C37 H27 1_555 1_555
H28 C37 1_555 1_555
F1 B1 1_555 1_555
F2 B1 1_555 1_555
F3 B1 1_555 1_555
F4 B1 1_555 1_555
C5 C6 1_555 1_555
C11 C12 1_555 1_555
C17 C22 1_555 1_555
C21 C22 1_555 1_555
C23 C30 1_555 1_555
C28 C29 1_555 1_555
C35 C36 1_555 1_555

#END
