
#######################################################################
#
#                 Cambridge Crystallographic Data Centre
#                                CCDC 
#
#######################################################################
#
# If this CIF has been generated from an entry in the Cambridge 
# Structural Database, then it will include bibliographic, chemical, 
# crystal, experimental, refinement or atomic coordinate data resulting 
# from the CCDC's data processing and validation procedures.
#
#######################################################################

data_NESYIW
_chemical_compound_source        'Cladosporium sp. SCSIO41007'
_chemical_formula_moiety         'C21 H30 O3'
_chemical_name_systematic        3-hydroxypregn-7-ene-6,20-dione
_symmetry_cell_setting           monoclinic
_symmetry_space_group_name_H-M   'P 21'
_symmetry_Int_Tables_number      4
_space_group_name_Hall           'P 2yb'
loop_
_symmetry_equiv_pos_site_id
_symmetry_equiv_pos_as_xyz
1 x,y,z
2 -x,1/2+y,-z
_cell_length_a                   7.73396(20)
_cell_length_b                   21.9470(5)
_cell_length_c                   10.35744(19)
_cell_angle_alpha                90
_cell_angle_beta                 90.545(2)
_cell_angle_gamma                90
_cell_volume                     1757.96
_exptl_crystal_colour            colorless
_exptl_crystal_description       block
_cell_formula_units_Z            4
loop_
_atom_site_label
_atom_site_type_symbol
_atom_site_fract_x
_atom_site_fract_y
_atom_site_fract_z
C1 C 0.6561(3) 0.64375(11) 0.6002(2)
H1 H 0.6832 0.6809 0.6506
H2 H 0.7049 0.6086 0.6479
C2 C 0.7454(3) 0.64823(12) 0.4696(3)
H3 H 0.7115 0.6868 0.4267
H4 H 0.8723 0.6489 0.4831
C3 C 0.6969(3) 0.59462(12) 0.3828(2)
H5 H 0.7547 0.5990 0.2974
C4 C 0.5022(3) 0.59265(11) 0.3634(2)
H6 H 0.4709 0.5580 0.3068
H7 H 0.4626 0.6307 0.3211
C5 C 0.4138(3) 0.58564(10) 0.4937(2)
H8 H 0.4604 0.5471 0.5319
C6 C 0.2210(3) 0.57698(10) 0.4839(2)
C7 C 0.1301(3) 0.57319(11) 0.6079(2)
H9 H 0.0138 0.5593 0.6087
C8 C 0.2073(3) 0.58895(10) 0.7203(2)
C9 C 0.3902(3) 0.61453(10) 0.7261(2)
H10 H 0.4658 0.5794 0.7509
C10 C 0.4573(3) 0.63641(10) 0.5925(2)
C11 C 0.4186(3) 0.66281(12) 0.8330(2)
H11 H 0.5442 0.6658 0.8513
H12 H 0.3803 0.7028 0.7991
C12 C 0.3255(3) 0.65090(12) 0.9602(2)
H13 H 0.3802 0.6160 1.0053
H14 H 0.3358 0.6871 1.0167
C13 C 0.1345(3) 0.63698(11) 0.9346(2)
C14 C 0.1271(3) 0.57922(11) 0.8506(2)
H15 H 0.2012 0.5484 0.8957
C15 C -0.0586(4) 0.55582(14) 0.8604(3)
H16 H -0.0621 0.5108 0.8536
H17 H -0.1323 0.5735 0.7913
C16 C -0.1196(4) 0.57707(13) 0.9953(3)
H18 H -0.2268 0.6014 0.9872
H19 H -0.1430 0.5414 1.0511
C17 C 0.0274(3) 0.61607(12) 1.0538(2)
H20 H 0.1021 0.5892 1.1088
C18 C 0.0430(4) 0.69067(12) 0.8676(2)
H21 H -0.0814 0.6824 0.8620
H22 H 0.0892 0.6958 0.7805
H23 H 0.0628 0.7280 0.9176
C19 C 0.3723(3) 0.69686(11) 0.5498(2)
H24 H 0.3985 0.7046 0.4589
H25 H 0.4177 0.7303 0.6029
H26 H 0.2468 0.6941 0.5605
C20 C -0.0328(4) 0.66936(13) 1.1351(2)
C21 C 0.1001(4) 0.69994(14) 1.2199(3)
H27 H 0.1579 0.7322 1.1710
H28 H 0.1858 0.6698 1.2487
H29 H 0.0433 0.7177 1.2952
O1 O 0.7541(2) 0.53938(8) 0.44471(18)
H30 H 0.780(5) 0.5161(17) 0.386(3)
O2 O 0.1462(2) 0.57077(8) 0.37997(16)
O3 O -0.1797(3) 0.68786(11) 1.1310(2)
C22 C 0.8501(3) 0.36526(11) 0.4059(2)
H31 H 0.8193 0.3299 0.4603
H32 H 0.7967 0.4019 0.4446
C23 C 0.7742(3) 0.35580(11) 0.2706(2)
H33 H 0.8188 0.3172 0.2344
H34 H 0.6468 0.3525 0.2760
C24 C 0.8208(3) 0.40827(11) 0.1810(2)
H35 H 0.7788 0.3985 0.0918
C25 C 1.0154(3) 0.41811(11) 0.1779(2)
H36 H 1.0404 0.4553 0.1273
H37 H 1.0700 0.3832 0.1334
C26 C 1.0957(3) 0.42462(10) 0.31243(19)
H38 H 1.0479 0.4631 0.3494
C27 C 1.2895(3) 0.43245(10) 0.3100(2)
C28 C 1.3775(3) 0.43118(10) 0.4365(2)
H39 H 1.4961 0.4422 0.4414
C29 C 1.2966(3) 0.41506(9) 0.5451(2)
C30 C 1.1088(3) 0.39373(10) 0.5447(2)
H40 H 1.0381 0.4305 0.5659
C31 C 1.0480(3) 0.37300(10) 0.4082(2)
C32 C 1.0688(3) 0.34631(12) 0.6503(2)
H41 H 0.9423 0.3459 0.6642
H42 H 1.1019 0.3055 0.6179
C33 C 1.1590(3) 0.35663(12) 0.7808(2)
H43 H 1.1106 0.3934 0.8225
H44 H 1.1378 0.3213 0.8379
C34 C 1.3538(3) 0.36483(10) 0.7623(2)
C35 C 1.3796(3) 0.42172(10) 0.6761(2)
H45 H 1.3182 0.4560 0.7198
C36 C 1.5731(3) 0.43547(11) 0.6889(2)
H46 H 1.5981 0.4784 0.6667
H47 H 1.6418 0.4084 0.6326
C37 C 1.6117(3) 0.42269(12) 0.8333(2)
H48 H 1.6209 0.4614 0.8819
H49 H 1.7220 0.4002 0.8431
C38 C 1.4594(3) 0.38390(10) 0.8847(2)
H50 H 1.3849 0.4105 0.9393
C39 C 1.4344(3) 0.30781(11) 0.7002(2)
H51 H 1.3972 0.3050 0.6096
H52 H 1.3966 0.2714 0.7467
H53 H 1.5608 0.3108 0.7047
C40 C 1.1341(3) 0.31236(11) 0.3676(2)
H54 H 1.2589 0.3147 0.3843
H55 H 1.1132 0.3053 0.2753
H56 H 1.0848 0.2787 0.4174
C41 C 1.5161(3) 0.32912(10) 0.9647(2)
C42 C 1.3793(4) 0.29925(12) 1.0459(2)
H57 H 1.3246 0.2662 0.9967
H58 H 1.2917 0.3295 1.0692
H59 H 1.4326 0.2827 1.1246
O4 O 0.7405(2) 0.46366(8) 0.22287(17)
H60 H 0.635(5) 0.4619(17) 0.216(3)
O5 O 1.3701(2) 0.44117(8) 0.20990(15)
O6 O 1.6614(2) 0.30935(9) 0.96255(18)
loop_
_geom_bond_atom_site_label_1
_geom_bond_atom_site_label_2
_geom_bond_site_symmetry_1
_geom_bond_site_symmetry_2
C1 H1 1_555 1_555
H2 C1 1_555 1_555
C2 C1 1_555 1_555
H3 C2 1_555 1_555
H4 C2 1_555 1_555
C3 C2 1_555 1_555
H5 C3 1_555 1_555
C4 C3 1_555 1_555
H6 C4 1_555 1_555
H7 C4 1_555 1_555
C5 C4 1_555 1_555
H8 C5 1_555 1_555
C6 C5 1_555 1_555
C7 C6 1_555 1_555
H9 C7 1_555 1_555
C8 C7 1_555 1_555
C9 C8 1_555 1_555
H10 C9 1_555 1_555
C10 C1 1_555 1_555
C11 C9 1_555 1_555
H11 C11 1_555 1_555
H12 C11 1_555 1_555
C12 C11 1_555 1_555
H13 C12 1_555 1_555
H14 C12 1_555 1_555
C13 C12 1_555 1_555
C14 C8 1_555 1_555
H15 C14 1_555 1_555
C15 C14 1_555 1_555
H16 C15 1_555 1_555
H17 C15 1_555 1_555
C16 C15 1_555 1_555
H18 C16 1_555 1_555
H19 C16 1_555 1_555
C17 C13 1_555 1_555
H20 C17 1_555 1_555
C18 C13 1_555 1_555
H21 C18 1_555 1_555
H22 C18 1_555 1_555
H23 C18 1_555 1_555
C19 C10 1_555 1_555
H24 C19 1_555 1_555
H25 C19 1_555 1_555
H26 C19 1_555 1_555
C20 C17 1_555 1_555
C21 C20 1_555 1_555
H27 C21 1_555 1_555
H28 C21 1_555 1_555
H29 C21 1_555 1_555
O1 C3 1_555 1_555
H30 O1 1_555 1_555
O2 C6 1_555 1_555
O3 C20 1_555 1_555
C22 H31 1_555 1_555
H32 C22 1_555 1_555
C23 C22 1_555 1_555
H33 C23 1_555 1_555
H34 C23 1_555 1_555
C24 C23 1_555 1_555
H35 C24 1_555 1_555
C25 C24 1_555 1_555
H36 C25 1_555 1_555
H37 C25 1_555 1_555
C26 C25 1_555 1_555
H38 C26 1_555 1_555
C27 C26 1_555 1_555
C28 C27 1_555 1_555
H39 C28 1_555 1_555
C29 C28 1_555 1_555
C30 C29 1_555 1_555
H40 C30 1_555 1_555
C31 C22 1_555 1_555
C32 C30 1_555 1_555
H41 C32 1_555 1_555
H42 C32 1_555 1_555
C33 C32 1_555 1_555
H43 C33 1_555 1_555
H44 C33 1_555 1_555
C34 C33 1_555 1_555
C35 C29 1_555 1_555
H45 C35 1_555 1_555
C36 C35 1_555 1_555
H46 C36 1_555 1_555
H47 C36 1_555 1_555
C37 C36 1_555 1_555
H48 C37 1_555 1_555
H49 C37 1_555 1_555
C38 C34 1_555 1_555
H50 C38 1_555 1_555
C39 C34 1_555 1_555
H51 C39 1_555 1_555
H52 C39 1_555 1_555
H53 C39 1_555 1_555
C40 C31 1_555 1_555
H54 C40 1_555 1_555
H55 C40 1_555 1_555
H56 C40 1_555 1_555
C41 C38 1_555 1_555
C42 C41 1_555 1_555
H57 C42 1_555 1_555
H58 C42 1_555 1_555
H59 C42 1_555 1_555
O4 C24 1_555 1_555
H60 O4 1_555 1_555
O5 C27 1_555 1_555
O6 C41 1_555 1_555
C5 C10 1_555 1_555
C9 C10 1_555 1_555
C13 C14 1_555 1_555
C16 C17 1_555 1_555
C26 C31 1_555 1_555
C30 C31 1_555 1_555
C34 C35 1_555 1_555
C37 C38 1_555 1_555

#END
