
#######################################################################
#
#                 Cambridge Crystallographic Data Centre
#                                CCDC 
#
#######################################################################
#
# If this CIF has been generated from an entry in the Cambridge 
# Structural Database, then it will include bibliographic, chemical, 
# crystal, experimental, refinement or atomic coordinate data resulting 
# from the CCDC's data processing and validation procedures.
#
#######################################################################

data_NESYUI
_chemical_formula_moiety         'C38 H61 Li1 O6,C1 H1 Cl3'
_chemical_name_systematic        
"[2,2'-(ethane-1,1-diyl)bis(4,6-di-t-butylphenolato)]-(1,4,7,10-tetraoxacyclododecane)-lithium chloroform solvate"
_symmetry_cell_setting           monoclinic
_symmetry_space_group_name_H-M   'P 21/n'
_symmetry_Int_Tables_number      14
_space_group_name_Hall           '-P 2yn'
loop_
_symmetry_equiv_pos_site_id
_symmetry_equiv_pos_as_xyz
1 x,y,z
2 1/2-x,1/2+y,1/2-z
3 -x,-y,-z
4 1/2+x,1/2-y,1/2+z
_cell_length_a                   14.3359(5)
_cell_length_b                   19.7238(5)
_cell_length_c                   15.7120(5)
_cell_angle_alpha                90
_cell_angle_beta                 110.429(4)
_cell_angle_gamma                90
_cell_volume                     4163.28
_exptl_crystal_colour            colorless
_exptl_crystal_description       block
_cell_formula_units_Z            4
_chemical_properties_physical    
', Air-sensitive,Moisture-sensitive,Oxygen-sensitive'
_exptl_crystal_recrystallization_method CDCl3
loop_
_atom_site_label
_atom_site_type_symbol
_atom_site_fract_x
_atom_site_fract_y
_atom_site_fract_z
Cl1 Cl 0.2202(10) 0.0687(3) 0.3597(4)
Cl2 Cl 0.0485(7) 0.0472(8) 0.2309(10)
Cl3 Cl 0.16183(8) 0.15518(5) 0.20337(6)
C1 C 0.1319(4) 0.0990(2) 0.2731(3)
H1 H 0.0881 0.1188 0.3024
O1 O 0.39623(11) 0.17417(8) -0.01825(9)
O2 O 0.27816(11) 0.25627(8) 0.02446(11)
H2 H 0.3059 0.2253 0.0079
O3 O 0.51836(15) 0.04150(9) 0.12483(12)
O4 O 0.64475(14) 0.14230(9) 0.11682(12)
O5 O 0.53786(14) 0.22300(9) 0.18478(12)
O6 O 0.40878(14) 0.12487(10) 0.19205(12)
C2 C 0.33668(16) 0.15282(11) -0.09946(14)
C3 C 0.36180(17) 0.15953(11) -0.17861(15)
C4 C 0.29462(17) 0.13548(12) -0.26103(15)
H3 H 0.3120 0.1394 -0.3126
C5 C 0.20348(18) 0.10606(12) -0.27046(15)
C6 C 0.17948(17) 0.10148(11) -0.19189(15)
H4 H 0.1186 0.0828 -0.1958
C7 C 0.24341(16) 0.12388(11) -0.10809(15)
C8 C 0.21466(17) 0.11796(11) -0.02358(15)
H5 H 0.2760 0.1247 0.0286
C9 C 0.14389(16) 0.17478(11) -0.01961(14)
C10 C 0.18035(16) 0.24099(11) 0.00381(15)
C11 C 0.11644(17) 0.29389(11) 0.00926(14)
C12 C 0.01727(17) 0.27740(12) -0.00687(15)
H6 H -0.0252 0.3117 -0.0022
C13 C -0.02189(17) 0.21293(13) -0.02944(15)
C14 C 0.04375(17) 0.16260(12) -0.03599(15)
H7 H 0.0193 0.1190 -0.0520
C15 C 0.1771(2) 0.04660(12) -0.01337(18)
H8 H 0.1603 0.0447 0.0406
H9 H 0.2284 0.0140 -0.0091
H10 H 0.1192 0.0364 -0.0653
C16 C 0.46104(18) 0.19224(13) -0.17300(16)
C17 C 0.4673(2) 0.26500(14) -0.1365(2)
H11 H 0.4154 0.2919 -0.1780
H12 H 0.5309 0.2841 -0.1305
H13 H 0.4594 0.2644 -0.0783
C18 C 0.54808(18) 0.15060(15) -0.10898(18)
H14 H 0.5423 0.1482 -0.0500
H15 H 0.6099 0.1720 -0.1041
H16 H 0.5464 0.1056 -0.1329
C19 C 0.4753(2) 0.19541(18) -0.26514(19)
H17 H 0.4705 0.1506 -0.2901
H18 H 0.5397 0.2140 -0.2573
H19 H 0.4248 0.2237 -0.3058
C20 C 0.13103(19) 0.07838(13) -0.36132(16)
C21 C 0.1272(3) 0.00116(15) -0.3565(2)
H20 H 0.1924 -0.0171 -0.3457
H21 H 0.0818 -0.0161 -0.4129
H22 H 0.1049 -0.0118 -0.3079
C22 C 0.1637(3) 0.0966(2) -0.44156(19)
H23 H 0.1652 0.1450 -0.4473
H24 H 0.1176 0.0776 -0.4964
H25 H 0.2290 0.0785 -0.4312
C23 C 0.0264(2) 0.10669(17) -0.3808(2)
H26 H 0.0042 0.0956 -0.3314
H27 H -0.0183 0.0872 -0.4360
H28 H 0.0274 0.1551 -0.3872
C24 C 0.15567(18) 0.36614(12) 0.03756(16)
C25 C 0.0717(2) 0.41586(13) 0.0327(2)
H29 H 0.0248 0.4174 -0.0282
H30 H 0.0992 0.4602 0.0503
H31 H 0.0387 0.4011 0.0731
C26 C 0.2276(2) 0.36519(14) 0.13642(17)
H32 H 0.1937 0.3481 0.1750
H33 H 0.2508 0.4104 0.1548
H34 H 0.2833 0.3364 0.1412
C27 C 0.2094(2) 0.39512(13) -0.02345(18)
H35 H 0.2626 0.3653 -0.0226
H36 H 0.2359 0.4390 -0.0014
H37 H 0.1631 0.3992 -0.0845
C28 C -0.13073(18) 0.19569(13) -0.04433(18)
C29 C -0.1331(3) 0.1464(2) 0.0311(3)
H38 H -0.1033 0.1041 0.0244
H39 H -0.2008 0.1389 0.0266
H40 H -0.0966 0.1656 0.0894
C30 C -0.1897(2) 0.25949(17) -0.0345(2)
H41 H -0.1583 0.2790 0.0246
H42 H -0.2567 0.2468 -0.0421
H43 H -0.1903 0.2921 -0.0801
C31 C -0.1786(3) 0.1667(3) -0.1359(3)
H44 H -0.1769 0.1993 -0.1807
H45 H -0.2465 0.1555 -0.1448
H46 H -0.1436 0.1265 -0.1419
C32 C 0.4157(2) 0.05333(15) 0.2113(2)
H47 H 0.3622 0.0295 0.1655
H48 H 0.4095 0.0452 0.2700
C33 C 0.5157(3) 0.02740(15) 0.2116(2)
H49 H 0.5698 0.0503 0.2579
H50 H 0.5216 -0.0210 0.2234
C34 C 0.6129(2) 0.02564(14) 0.1164(2)
H51 H 0.6044 0.0206 0.0527
H52 H 0.6373 -0.0170 0.1466
C35 C 0.6873(2) 0.08055(15) 0.1577(2)
H53 H 0.7021 0.0825 0.2228
H54 H 0.7486 0.0718 0.1466
C36 C 0.6891(2) 0.20128(14) 0.16780(19)
H55 H 0.6815 0.2394 0.1269
H56 H 0.7597 0.1935 0.1987
C37 C 0.6409(2) 0.21761(14) 0.23645(18)
H57 H 0.6529 0.1818 0.2813
H58 H 0.6663 0.2599 0.2673
C38 C 0.4752(2) 0.23315(14) 0.23817(18)
H59 H 0.4144 0.2560 0.2019
H60 H 0.5093 0.2616 0.2901
C39 C 0.4503(2) 0.16593(16) 0.27021(18)
H61 H 0.5098 0.1449 0.3121
H62 H 0.4028 0.1720 0.3010
Li1 Li 0.4839(3) 0.1464(2) 0.0920(3)
Cl4? Cl 0.0743(4) 0.0235(2) 0.1993(3)
Cl5? Cl 0.2460(3) 0.0662(2) 0.3537(3)
C40? C -0.2032(11) 0.2355(8) -0.1340(11)
H63? H -0.1910 0.2834 -0.1265
H64? H -0.2715 0.2265 -0.1417
H65? H -0.1898 0.2202 -0.1866
C41? C -0.1634(11) 0.1169(10) -0.0993(13)
H66? H -0.1377 0.1140 -0.1481
H67? H -0.2345 0.1126 -0.1233
H68? H -0.1357 0.0810 -0.0567
C42? C -0.1594(12) 0.1962(15) 0.0250(11)
H69? H -0.1092 0.1758 0.0760
H70? H -0.2204 0.1712 0.0109
H71? H -0.1701 0.2422 0.0396
loop_
_geom_bond_atom_site_label_1
_geom_bond_atom_site_label_2
_geom_bond_site_symmetry_1
_geom_bond_site_symmetry_2
Cl1 C1 1_555 1_555
Cl2 C1 1_555 1_555
Cl3 C1 1_555 1_555
C1 H1 1_555 1_555
O1 C2 1_555 1_555
O2 H2 1_555 1_555
O3 C33 1_555 1_555
O4 C35 1_555 1_555
O5 C37 1_555 1_555
O6 C32 1_555 1_555
C2 C3 1_555 1_555
C3 C4 1_555 1_555
C4 H3 1_555 1_555
C5 C4 1_555 1_555
C6 C5 1_555 1_555
H4 C6 1_555 1_555
C7 C2 1_555 1_555
C8 C7 1_555 1_555
H5 C8 1_555 1_555
C9 C8 1_555 1_555
C10 O2 1_555 1_555
C11 C10 1_555 1_555
C12 C11 1_555 1_555
H6 C12 1_555 1_555
C13 C12 1_555 1_555
C14 C9 1_555 1_555
H7 C14 1_555 1_555
C15 C8 1_555 1_555
H8 C15 1_555 1_555
H9 C15 1_555 1_555
H10 C15 1_555 1_555
C16 C3 1_555 1_555
C17 C16 1_555 1_555
H11 C17 1_555 1_555
H12 C17 1_555 1_555
H13 C17 1_555 1_555
C18 C16 1_555 1_555
H14 C18 1_555 1_555
H15 C18 1_555 1_555
H16 C18 1_555 1_555
C19 C16 1_555 1_555
H17 C19 1_555 1_555
H18 C19 1_555 1_555
H19 C19 1_555 1_555
C20 C5 1_555 1_555
C21 C20 1_555 1_555
H20 C21 1_555 1_555
H21 C21 1_555 1_555
H22 C21 1_555 1_555
C22 C20 1_555 1_555
H23 C22 1_555 1_555
H24 C22 1_555 1_555
H25 C22 1_555 1_555
C23 C20 1_555 1_555
H26 C23 1_555 1_555
H27 C23 1_555 1_555
H28 C23 1_555 1_555
C24 C11 1_555 1_555
C25 C24 1_555 1_555
H29 C25 1_555 1_555
H30 C25 1_555 1_555
H31 C25 1_555 1_555
C26 C24 1_555 1_555
H32 C26 1_555 1_555
H33 C26 1_555 1_555
H34 C26 1_555 1_555
C27 C24 1_555 1_555
H35 C27 1_555 1_555
H36 C27 1_555 1_555
H37 C27 1_555 1_555
C28 C13 1_555 1_555
C29 C28 1_555 1_555
H38 C29 1_555 1_555
H39 C29 1_555 1_555
H40 C29 1_555 1_555
C30 C28 1_555 1_555
H41 C30 1_555 1_555
H42 C30 1_555 1_555
H43 C30 1_555 1_555
C31 C28 1_555 1_555
H44 C31 1_555 1_555
H45 C31 1_555 1_555
H46 C31 1_555 1_555
C32 H47 1_555 1_555
H48 C32 1_555 1_555
C33 C32 1_555 1_555
H49 C33 1_555 1_555
H50 C33 1_555 1_555
C34 O3 1_555 1_555
H51 C34 1_555 1_555
H52 C34 1_555 1_555
C35 C34 1_555 1_555
H53 C35 1_555 1_555
H54 C35 1_555 1_555
C36 O4 1_555 1_555
H55 C36 1_555 1_555
H56 C36 1_555 1_555
C37 C36 1_555 1_555
H57 C37 1_555 1_555
H58 C37 1_555 1_555
C38 O5 1_555 1_555
H59 C38 1_555 1_555
H60 C38 1_555 1_555
C39 O6 1_555 1_555
H61 C39 1_555 1_555
H62 C39 1_555 1_555
Li1 O1 1_555 1_555
O3 Li1 1_555 1_555
O4 Li1 1_555 1_555
O5 Li1 1_555 1_555
O6 Li1 1_555 1_555
C6 C7 1_555 1_555
C9 C10 1_555 1_555
C13 C14 1_555 1_555
C38 C39 1_555 1_555

#END
