
#######################################################################
#
#                 Cambridge Crystallographic Data Centre
#                                CCDC 
#
#######################################################################
#
# If this CIF has been generated from an entry in the Cambridge 
# Structural Database, then it will include bibliographic, chemical, 
# crystal, experimental, refinement or atomic coordinate data resulting 
# from the CCDC's data processing and validation procedures.
#
#######################################################################

data_NETFIB
_chemical_formula_moiety         'C15 H15 N1'
_chemical_name_systematic        5-Ethyl-2-pyridylvinylbenzene
_symmetry_cell_setting           monoclinic
_symmetry_space_group_name_H-M   'P 21'
_symmetry_Int_Tables_number      4
_space_group_name_Hall           'P 2yb'
loop_
_symmetry_equiv_pos_site_id
_symmetry_equiv_pos_as_xyz
1 x,y,z
2 -x,1/2+y,-z
_cell_length_a                   6.806(2)
_cell_length_b                   8.032(2)
_cell_length_c                   11.654(3)
_cell_angle_alpha                90
_cell_angle_beta                 104.86(1)
_cell_angle_gamma                90
_cell_volume                     615.768
_exptl_crystal_colour            colorless
_cell_formula_units_Z            2
loop_
_atom_site_label
_atom_site_type_symbol
_atom_site_fract_x
_atom_site_fract_y
_atom_site_fract_z
C1 C -0.3231(14) 0.8832(10) 1.0679(5)
C2 C -0.5112(5) 0.9524(8) 1.0655(4)
C3 C -0.5997(15) 0.9416(15) 1.1595(11)
C4 C -0.4751(14) 0.8691(15) 1.2606(5)
C5 C -0.3073(15) 0.7669(14) 1.2573(7)
C6 C -0.2200(7) 0.7926(6) 1.1652(4)
C7 C -0.2438(9) 0.9043(7) 0.9626(5)
C8 C -0.1099(10) 0.8456(8) 0.9247(6)
C9 C -0.0375(10) 0.8690(9) 0.8267(5)
C10 C 0.1303(13) 0.7804(18) 0.8152(8)
C11 C 0.1996(9) 0.8004(8) 0.7115(4)
C12 C 0.0977(13) 0.9019(10) 0.6227(8)
C13 C -0.0921(7) 0.9685(8) 0.6241(5)
C14 C 0.1538(7) 0.9280(8) 0.5083(5)
C15 C 0.3006(17) 1.0756(15) 0.5273(12)
N1 N -0.1527(10) 0.9573(10) 0.7307(7)
loop_
_geom_bond_atom_site_label_1
_geom_bond_atom_site_label_2
_geom_bond_site_symmetry_1
_geom_bond_site_symmetry_2
C1 C2 1_555 1_555
C2 C3 1_555 1_555
C3 C4 1_555 1_555
C4 C5 1_555 1_555
C5 C6 1_555 1_555
C6 C1 1_555 1_555
C7 C1 1_555 1_555
C8 C7 1_555 1_555
C9 C8 1_555 1_555
C10 C9 1_555 1_555
C11 C10 1_555 1_555
C12 C11 1_555 1_555
C13 C12 1_555 1_555
C14 C12 1_555 1_555
C15 C14 1_555 1_555
N1 C9 1_555 1_555
C13 N1 1_555 1_555

#END
