
#######################################################################
#
#                 Cambridge Crystallographic Data Centre
#                                CCDC 
#
#######################################################################
#
# If this CIF has been generated from an entry in the Cambridge 
# Structural Database, then it will include bibliographic, chemical, 
# crystal, experimental, refinement or atomic coordinate data resulting 
# from the CCDC's data processing and validation procedures.
#
#######################################################################

data_NETGAU
_chemical_formula_moiety         'C14 H9 Br2 N3'
_chemical_name_systematic        1H-2,5-bis(2'-Bromophenyl)-1,3,4-triazole
_symmetry_cell_setting           triclinic
_symmetry_space_group_name_H-M   'P -1'
_symmetry_Int_Tables_number      2
_space_group_name_Hall           '-P 1'
loop_
_symmetry_equiv_pos_site_id
_symmetry_equiv_pos_as_xyz
1 x,y,z
2 -x,-y,-z
_cell_length_a                   7.306(1)
_cell_length_b                   9.680(1)
_cell_length_c                   10.924(1)
_cell_angle_alpha                64.95(1)
_cell_angle_beta                 69.77(1)
_cell_angle_gamma                74.24(1)
_cell_volume                     649.562
_chemical_melting_point          187-189deg.C
_cell_formula_units_Z            2
loop_
_atom_site_label
_atom_site_type_symbol
_atom_site_fract_x
_atom_site_fract_y
_atom_site_fract_z
Br1 Br 0.8752(1) 0.4581(1) 0.39859(8)
Br2 Br 1.0103(2) 0.9459(1) -0.31963(9)
N1 N 0.7003(7) 0.6873(5) 0.1402(4)
N2 N 0.733(1) 0.5435(7) 0.0188(6)
N3 N 0.786(1) 0.6925(7) -0.0768(6)
C1 C 0.667(1) 0.3762(8) 0.3958(7)
C2 C 0.589(1) 0.2617(9) 0.5148(7)
C3 C 0.449(1) 0.1901(9) 0.5153(9)
C4 C 0.382(1) 0.2397(9) 0.3966(8)
C5 C 0.460(1) 0.3587(8) 0.2779(7)
C6 C 0.605(1) 0.4294(8) 0.2748(7)
C7 C 0.683(1) 0.5488(8) 0.1441(7)
C8 C 0.763(1) 0.7712(8) -0.0006(6)
C9 C 0.784(1) 0.9303(8) -0.0402(6)
C10 C 0.877(1) 1.0234(8) -0.1735(7)
C11 C 0.888(1) 1.1746(9) -0.2055(8)
C12 C 0.802(1) 1.2386(9) -0.1021(8)
C13 C 0.709(1) 1.1513(9) 0.0302(8)
C14 C 0.698(1) 0.9970(9) 0.0612(7)
loop_
_geom_bond_atom_site_label_1
_geom_bond_atom_site_label_2
_geom_bond_site_symmetry_1
_geom_bond_site_symmetry_2
Br1 C1 1_555 1_555
Br2 C10 1_555 1_555
N1 C7 1_555 1_555
N2 N3 1_555 1_555
N3 C8 1_555 1_555
C1 C2 1_555 1_555
C2 C3 1_555 1_555
C3 C4 1_555 1_555
C4 C5 1_555 1_555
C5 C6 1_555 1_555
C6 C1 1_555 1_555
C7 N2 1_555 1_555
C8 N1 1_555 1_555
C9 C8 1_555 1_555
C10 C9 1_555 1_555
C11 C10 1_555 1_555
C12 C11 1_555 1_555
C13 C12 1_555 1_555
C14 C9 1_555 1_555
C6 C7 1_555 1_555
C13 C14 1_555 1_555

#END
