
#######################################################################
#
#                 Cambridge Crystallographic Data Centre
#                                CCDC 
#
#######################################################################
#
# If this CIF has been generated from an entry in the Cambridge 
# Structural Database, then it will include bibliographic, chemical, 
# crystal, experimental, refinement or atomic coordinate data resulting 
# from the CCDC's data processing and validation procedures.
#
#######################################################################

data_NETKOM01
_chemical_formula_moiety         'C28 H26 O7,C1 H3 N1 O2'
_chemical_name_systematic        
'(Furanotribenzo-21-crown-7) nitromethane clathrate'
_symmetry_cell_setting           monoclinic
_symmetry_space_group_name_H-M   'P 21/c'
_symmetry_Int_Tables_number      14
_space_group_name_Hall           '-P 2ybc'
loop_
_symmetry_equiv_pos_site_id
_symmetry_equiv_pos_as_xyz
1 x,y,z
2 -x,1/2+y,1/2-z
3 -x,-y,-z
4 x,1/2-y,1/2+z
_cell_length_a                   12.274(2)
_cell_length_b                   11.024(1)
_cell_length_c                   20.582(4)
_cell_angle_alpha                90
_cell_angle_beta                 106.99(1)
_cell_angle_gamma                90
_cell_volume                     2663.38
_cell_formula_units_Z            4
loop_
_atom_site_label
_atom_site_type_symbol
_atom_site_fract_x
_atom_site_fract_y
_atom_site_fract_z
O1 O -0.0366(5) 0.3942(5) 0.2416(3)
O2 O 0.0795(4) 0.3519(6) 0.1320(3)
O3 O 0.2776(4) 0.2466(5) 0.1659(3)
O4 O 0.3437(5) 0.0701(5) 0.2751(3)
O5 O 0.3451(4) 0.0516(5) 0.4027(3)
O6 O 0.2404(5) 0.2751(6) 0.4585(3)
O7 O 0.0450(6) 0.3576(6) 0.3967(3)
C1 C -0.0381(7) 0.4664(9) 0.1862(5)
C2 C -0.0288(8) 0.403(1) 0.1254(5)
C3 C 0.1709(7) 0.4248(8) 0.1325(4)
C4 C 0.2739(7) 0.3662(8) 0.1487(4)
C5 C 0.3869(7) 0.1863(9) 0.1885(4)
C6 C 0.3622(8) 0.0636(8) 0.2113(5)
C7 C 0.3335(6) -0.0412(8) 0.3047(4)
C8 C 0.3343(7) -0.0303(8) 0.3720(5)
C9 C 0.3469(7) 0.0933(9) 0.4736(4)
C10 C 0.3529(8) 0.223(1) 0.4914(4)
C11 C 0.2256(7) 0.3923(8) 0.4757(4)
C12 C 0.1195(8) 0.4358(8) 0.4409(4)
C13 C -0.0611(7) 0.3997(9) 0.3545(5)
C14 C -0.0487(7) 0.4650(9) 0.2948(5)
C15 C -0.0614(8) 0.5806(9) 0.2709(5)
C16 C -0.0566(8) 0.5825(9) 0.2029(5)
C17 C 0.1655(9) 0.5479(8) 0.1177(5)
C18 C 0.2631(8) 0.6148(8) 0.1208(5)
C19 C 0.3622(8) 0.5550(8) 0.1349(5)
C20 C 0.3686(7) 0.4303(8) 0.1499(4)
C21 C 0.3232(7) -0.1514(8) 0.2734(5)
C22 C 0.3154(8) -0.2551(9) 0.3112(5)
C23 C 0.3177(8) -0.247(1) 0.3767(5)
C24 C 0.3302(9) -0.1342(9) 0.4125(5)
C25 C 0.3054(8) 0.4645(9) 0.5180(5)
C26 C 0.2718(9) 0.585(1) 0.5275(5)
C27 C 0.1666(9) 0.630(1) 0.4954(5)
C28 C 0.0862(9) 0.5525(9) 0.4517(5)
H1 H -0.083 0.339 0.115
H2 H -0.045 0.459 0.089
H3 H 0.437 0.229 0.225
H4 H 0.420 0.180 0.152
H5 H 0.296 0.032 0.180
H6 H 0.425 0.012 0.214
H7 H 0.411 0.052 0.502
H8 H 0.279 0.059 0.480
H9 H 0.371 0.233 0.539
H10 H 0.409 0.262 0.475
H11 H -0.094 0.453 0.380
H12 H -0.110 0.332 0.340
H13 H -0.072 0.650 0.296
H14 H -0.065 0.651 0.174
H15 H 0.093 0.587 0.105
H16 H 0.259 0.700 0.113
H17 H 0.429 0.598 0.135
H18 H 0.440 0.391 0.161
H19 H 0.321 -0.158 0.227
H20 H 0.309 -0.332 0.290
H21 H 0.310 -0.319 0.400
H22 H 0.335 -0.129 0.460
H23 H 0.380 0.436 0.540
H24 H 0.325 0.636 0.558
H25 H 0.148 0.711 0.503
H26 H 0.011 0.580 0.430
O8 O 0.4178(8) 0.4763(9) 0.3857(5)
O9 O 0.4658(6) 0.3334(8) 0.3375(5)
N1 N 0.3905(6) 0.3952(8) 0.3450(4)
C29 C 0.2757(9) 0.362(1) 0.3144(5)
H27 H 0.273 0.296 0.284
H28 H 0.242 0.338 0.348
H29 H 0.235 0.429 0.290
loop_
_geom_bond_atom_site_label_1
_geom_bond_atom_site_label_2
_geom_bond_site_symmetry_1
_geom_bond_site_symmetry_2
O1 C1 1_555 1_555
O2 C2 1_555 1_555
O3 C4 1_555 1_555
O4 C6 1_555 1_555
O5 C8 1_555 1_555
O6 C10 1_555 1_555
O7 C12 1_555 1_555
O8 N1 1_555 1_555
O9 N1 1_555 1_555
N1 C29 1_555 1_555
C1 C2 1_555 1_555
C2 H1 1_555 1_555
C3 O2 1_555 1_555
C4 C3 1_555 1_555
C5 O3 1_555 1_555
C6 C5 1_555 1_555
C7 O4 1_555 1_555
C8 C7 1_555 1_555
C9 O5 1_555 1_555
C10 C9 1_555 1_555
C11 O6 1_555 1_555
C12 C11 1_555 1_555
C13 O7 1_555 1_555
C14 O1 1_555 1_555
C15 C14 1_555 1_555
C16 C1 1_555 1_555
C17 C3 1_555 1_555
C18 C17 1_555 1_555
C19 C18 1_555 1_555
C20 C4 1_555 1_555
C21 C7 1_555 1_555
C22 C21 1_555 1_555
C23 C22 1_555 1_555
C24 C8 1_555 1_555
C25 C11 1_555 1_555
C26 C25 1_555 1_555
C27 C26 1_555 1_555
C28 C12 1_555 1_555
C29 H27 1_555 1_555
H2 C2 1_555 1_555
H3 C5 1_555 1_555
H4 C5 1_555 1_555
H5 C6 1_555 1_555
H6 C6 1_555 1_555
H7 C9 1_555 1_555
H8 C9 1_555 1_555
H9 C10 1_555 1_555
H10 C10 1_555 1_555
H11 C13 1_555 1_555
H12 C13 1_555 1_555
H13 C15 1_555 1_555
H14 C16 1_555 1_555
H15 C17 1_555 1_555
H16 C18 1_555 1_555
H17 C19 1_555 1_555
H18 C20 1_555 1_555
H19 C21 1_555 1_555
H20 C22 1_555 1_555
H21 C23 1_555 1_555
H22 C24 1_555 1_555
H23 C25 1_555 1_555
H24 C26 1_555 1_555
H25 C27 1_555 1_555
H26 C28 1_555 1_555
H28 C29 1_555 1_555
H29 C29 1_555 1_555
C13 C14 1_555 1_555
C15 C16 1_555 1_555
C19 C20 1_555 1_555
C23 C24 1_555 1_555
C27 C28 1_555 1_555

#END
