
#######################################################################
#
#                 Cambridge Crystallographic Data Centre
#                                CCDC 
#
#######################################################################
#
# If this CIF has been generated from an entry in the Cambridge 
# Structural Database, then it will include bibliographic, chemical, 
# crystal, experimental, refinement or atomic coordinate data resulting 
# from the CCDC's data processing and validation procedures.
#
#######################################################################

data_NETKOM
_chemical_formula_moiety         'C28 H26 O7,C1 H3 N1 O2'
_chemical_name_systematic        
'(Furanotribenzo-21-crown-7) nitromethane clathrate'
_symmetry_cell_setting           monoclinic
_symmetry_space_group_name_H-M   'P 21/n'
_symmetry_Int_Tables_number      14
_space_group_name_Hall           '-P 2yn'
loop_
_symmetry_equiv_pos_site_id
_symmetry_equiv_pos_as_xyz
1 x,y,z
2 1/2-x,1/2+y,1/2-z
3 -x,-y,-z
4 1/2+x,1/2-y,1/2+z
_cell_length_a                   12.927(5)
_cell_length_b                   14.710(3)
_cell_length_c                   13.986(5)
_cell_angle_alpha                90
_cell_angle_beta                 94.42(2)
_cell_angle_gamma                90
_cell_volume                     2651.61
_cell_formula_units_Z            4
loop_
_atom_site_label
_atom_site_type_symbol
_atom_site_fract_x
_atom_site_fract_y
_atom_site_fract_z
O1 O 0.6453(3) 0.6222(3) -0.0557(3)
O2 O 0.7544(4) 0.4489(3) 0.0194(3)
O3 O 0.8917(3) 0.4269(3) 0.1574(3)
O4 O 0.9172(4) 0.5460(3) 0.3208(3)
O5 O 0.8916(4) 0.7226(3) 0.3059(3)
O6 O 0.8498(3) 0.8357(3) 0.1295(3)
O7 O 0.7061(4) 0.8158(3) -0.0033(3)
C1 C 0.6682(6) 0.5438(5) -0.1063(5)
C2 C 0.6652(6) 0.4601(5) -0.0509(6)
C3 C 0.8490(5) 0.4205(5) -0.0091(5)
C4 C 0.9191(5) 0.4058(5) 0.0673(5)
C5 C 0.9691(6) 0.4177(5) 0.2363(5)
C6 C 0.9255(6) 0.4496(5) 0.3252(5)
C7 C 0.8666(6) 0.5855(5) 0.3939(5)
C8 C 0.8557(6) 0.6795(5) 0.3835(4)
C9 C 0.8801(6) 0.8211(5) 0.2995(5)
C10 C 0.9252(7) 0.8491(5) 0.2071(5)
C11 C 0.8851(6) 0.8525(5) 0.0392(5)
C12 C 0.7986(6) 0.8411(5) -0.0327(5)
C13 C 0.6252(5) 0.7845(5) -0.0762(5)
C14 C 0.6502(5) 0.6936(5) -0.1157(5)
C15 C 0.6789(6) 0.6691(6) -0.2009(5)
C16 C 0.6911(6) 0.5727(5) -0.1954(5)
C17 C 0.8678(6) 0.4025(5) -0.1028(5)
C18 C 0.9694(6) 0.3720(5) -0.1164(5)
C19 C 1.0469(7) 0.3595(5) -0.0412(6)
C20 C 1.0201(7) 0.3770(5) 0.0509(5)
C21 C 0.8299(6) 0.5440(5) 0.4742(5)
C22 C 0.7814(7) 0.5942(6) 0.5404(5)
C23 C 0.7704(7) 0.6859(6) 0.5303(6)
C24 C 0.8069(6) 0.7294(6) 0.4507(5)
C25 C 0.9783(6) 0.8808(5) 0.0147(6)
C26 C 0.9940(6) 0.8927(5) -0.0811(5)
C27 C 0.9192(7) 0.8792(6) -0.1504(5)
C28 C 0.8177(6) 0.8553(5) -0.1276(6)
H1 H 0.603 0.461 -0.018
H2 H 0.663 0.411 -0.094
H3 H 1.027 0.453 0.224
H4 H 0.989 0.356 0.243
H5 H 0.858 0.424 0.331
H6 H 0.970 0.432 0.380
H7 H 0.916 0.851 0.353
H8 H 0.808 0.838 0.298
H9 H 0.944 0.911 0.210
H10 H 0.984 0.813 0.198
H11 H 0.620 0.829 -0.127
H12 H 0.562 0.781 -0.047
H13 H 0.691 0.705 -0.255
H14 H 0.712 0.533 -0.244
H15 H 0.816 0.410 -0.154
H16 H 0.985 0.359 -0.178
H17 H 1.115 0.340 -0.052
H18 H 1.069 0.370 0.104
H19 H 0.838 0.480 0.483
H20 H 0.754 0.565 0.593
H21 H 0.739 0.720 0.579
H22 H 0.798 0.794 0.444
H23 H 1.033 0.892 0.064
H24 H 1.059 0.911 -0.101
H25 H 0.929 0.884 -0.216
H26 H 0.759 0.849 -0.179
O8 O 0.5370(5) 0.6902(4) 0.1357(5)
O9 O 0.5598(4) 0.5491(4) 0.1528(4)
N1 N 0.5918(5) 0.6262(4) 0.1528(4)
C29 C 0.7036(6) 0.6403(7) 0.1784(7)
H27 H 0.736 0.582 0.190
H28 H 0.734 0.669 0.127
H29 H 0.713 0.676 0.234
loop_
_geom_bond_atom_site_label_1
_geom_bond_atom_site_label_2
_geom_bond_site_symmetry_1
_geom_bond_site_symmetry_2
O1 C1 1_555 1_555
O2 C2 1_555 1_555
O3 C4 1_555 1_555
O4 C6 1_555 1_555
O5 C8 1_555 1_555
O6 C10 1_555 1_555
O7 C12 1_555 1_555
O8 N1 1_555 1_555
O9 N1 1_555 1_555
N1 C29 1_555 1_555
C1 C2 1_555 1_555
C2 H1 1_555 1_555
C3 O2 1_555 1_555
C4 C3 1_555 1_555
C5 O3 1_555 1_555
C6 C5 1_555 1_555
C7 O4 1_555 1_555
C8 C7 1_555 1_555
C9 O5 1_555 1_555
C10 C9 1_555 1_555
C11 O6 1_555 1_555
C12 C11 1_555 1_555
C13 O7 1_555 1_555
C14 O1 1_555 1_555
C15 C14 1_555 1_555
C16 C1 1_555 1_555
C17 C3 1_555 1_555
C18 C17 1_555 1_555
C19 C18 1_555 1_555
C20 C4 1_555 1_555
C21 C7 1_555 1_555
C22 C21 1_555 1_555
C23 C22 1_555 1_555
C24 C8 1_555 1_555
C25 C11 1_555 1_555
C26 C25 1_555 1_555
C27 C26 1_555 1_555
C28 C12 1_555 1_555
C29 H27 1_555 1_555
H2 C2 1_555 1_555
H3 C5 1_555 1_555
H4 C5 1_555 1_555
H5 C6 1_555 1_555
H6 C6 1_555 1_555
H7 C9 1_555 1_555
H8 C9 1_555 1_555
H9 C10 1_555 1_555
H10 C10 1_555 1_555
H11 C13 1_555 1_555
H12 C13 1_555 1_555
H13 C15 1_555 1_555
H14 C16 1_555 1_555
H15 C17 1_555 1_555
H16 C18 1_555 1_555
H17 C19 1_555 1_555
H18 C20 1_555 1_555
H19 C21 1_555 1_555
H20 C22 1_555 1_555
H21 C23 1_555 1_555
H22 C24 1_555 1_555
H23 C25 1_555 1_555
H24 C26 1_555 1_555
H25 C27 1_555 1_555
H26 C28 1_555 1_555
H28 C29 1_555 1_555
H29 C29 1_555 1_555
C13 C14 1_555 1_555
C15 C16 1_555 1_555
C19 C20 1_555 1_555
C23 C24 1_555 1_555
C27 C28 1_555 1_555

#END
