
#######################################################################
#
#                 Cambridge Crystallographic Data Centre
#                                CCDC 
#
#######################################################################
#
# If this CIF has been generated from an entry in the Cambridge 
# Structural Database, then it will include bibliographic, chemical, 
# crystal, experimental, refinement or atomic coordinate data resulting 
# from the CCDC's data processing and validation procedures.
#
#######################################################################

data_NETLIK
_chemical_formula_moiety         'C20 H18 F3 N1 O4 S1'
_chemical_name_systematic        
N-{[2-acetyl-3-(benzenecarbonyl)cyclopropyl]methyl}-4-(trifluoromethyl)benzene-1-sulfonamide
_symmetry_cell_setting           monoclinic
_symmetry_space_group_name_H-M   'P 21/c'
_symmetry_Int_Tables_number      14
_space_group_name_Hall           '-P 2ybc'
loop_
_symmetry_equiv_pos_site_id
_symmetry_equiv_pos_as_xyz
1 x,y,z
2 -x,1/2+y,1/2-z
3 -x,-y,-z
4 x,1/2-y,1/2+z
_cell_length_a                   20.8750(19)
_cell_length_b                   5.2543(5)
_cell_length_c                   17.7277(16)
_cell_angle_alpha                90
_cell_angle_beta                 93.175(2)
_cell_angle_gamma                90
_cell_volume                     1941.45
_exptl_crystal_colour            colorless
_exptl_crystal_description       Prism
_cell_formula_units_Z            4
loop_
_atom_site_label
_atom_site_type_symbol
_atom_site_fract_x
_atom_site_fract_y
_atom_site_fract_z
S1 S 0.348252(19) 1.10234(7) 0.44353(2)
F1 F 0.03851(7) 0.9259(5) 0.41075(12)
F2 F 0.06145(8) 0.6459(4) 0.32991(18)
F3 F 0.04649(8) 1.0234(5) 0.29857(13)
O1 O 0.35354(7) 1.0382(3) 0.52189(7)
O2 O 0.36125(6) 1.3573(2) 0.41981(8)
O3 O 0.25256(7) 0.5712(3) 0.22719(8)
O4 O 0.42844(7) 1.2430(2) 0.18268(7)
N1 N 0.39621(6) 0.9153(3) 0.40200(7)
C1 C 0.26823(7) 1.0305(3) 0.41201(8)
C2 C 0.23915(9) 0.8181(3) 0.44159(11)
H1 H 0.2625 0.7090 0.4759
C3 C 0.17588(9) 0.7676(4) 0.42048(12)
H2 H 0.1552 0.6232 0.4404
C4 C 0.14230(9) 0.9284(4) 0.37005(12)
C5 C 0.17195(9) 1.1348(4) 0.33947(11)
H3 H 0.1490 1.2411 0.3041
C6 C 0.23566(8) 1.1872(3) 0.36056(9)
H4 H 0.2566 1.3294 0.3398
C7 C 0.07240(11) 0.8763(5) 0.35240(17)
C8 C 0.41381(8) 0.9574(3) 0.32359(9)
H5 H 0.4590 0.9061 0.3189
H6 H 0.4103 1.1411 0.3117
C9 C 0.37165(8) 0.8096(3) 0.26724(9)
H7 H 0.3619 0.6321 0.2835
C10 C 0.37837(8) 0.8382(3) 0.18310(9)
H8 H 0.3731 0.6793 0.1524
C11 C 0.31857(8) 0.9331(3) 0.22062(8)
H9 H 0.3140 1.1216 0.2260
C12 C 0.25847(8) 0.7861(3) 0.20336(9)
C13 C 0.20571(8) 0.9074(3) 0.15594(9)
C14 C 0.14464(9) 0.8022(4) 0.15548(11)
H10 H 0.1373 0.6549 0.1848
C15 C 0.09447(10) 0.9104(5) 0.11257(14)
H11 H 0.0527 0.8390 0.1132
C16 C 0.10493(10) 1.1213(5) 0.06893(13)
H12 H 0.0704 1.1956 0.0394
C17 C 0.16544(11) 1.2242(4) 0.06819(12)
H13 H 0.1727 1.3683 0.0374
C18 C 0.21587(9) 1.1203(3) 0.11170(10)
H14 H 0.2574 1.1943 0.1114
C19 C 0.42295(8) 1.0323(4) 0.15465(9)
C20 C 0.46120(10) 0.9527(5) 0.08962(11)
H15 H 0.4875 1.0959 0.0740
H16 H 0.4320 0.9002 0.0472
H17 H 0.4891 0.8098 0.1050
loop_
_geom_bond_atom_site_label_1
_geom_bond_atom_site_label_2
_geom_bond_site_symmetry_1
_geom_bond_site_symmetry_2
S1 O1 1_555 1_555
F1 C7 1_555 1_555
F2 C7 1_555 1_555
F3 C7 1_555 1_555
O2 S1 1_555 1_555
O3 C12 1_555 1_555
O4 C19 1_555 1_555
N1 S1 1_555 1_555
C1 S1 1_555 1_555
C2 C1 1_555 1_555
H1 C2 1_555 1_555
C3 C2 1_555 1_555
H2 C3 1_555 1_555
C4 C3 1_555 1_555
C5 C4 1_555 1_555
H3 C5 1_555 1_555
C6 C1 1_555 1_555
H4 C6 1_555 1_555
C7 C4 1_555 1_555
C8 N1 1_555 1_555
H5 C8 1_555 1_555
H6 C8 1_555 1_555
C9 C8 1_555 1_555
H7 C9 1_555 1_555
C10 C9 1_555 1_555
H8 C10 1_555 1_555
C11 C9 1_555 1_555
H9 C11 1_555 1_555
C12 C11 1_555 1_555
C13 C12 1_555 1_555
C14 C13 1_555 1_555
H10 C14 1_555 1_555
C15 C14 1_555 1_555
H11 C15 1_555 1_555
C16 C15 1_555 1_555
H12 C16 1_555 1_555
C17 C16 1_555 1_555
H13 C17 1_555 1_555
C18 C13 1_555 1_555
H14 C18 1_555 1_555
C19 C10 1_555 1_555
C20 C19 1_555 1_555
H15 C20 1_555 1_555
H16 C20 1_555 1_555
H17 C20 1_555 1_555
C5 C6 1_555 1_555
C10 C11 1_555 1_555
C17 C18 1_555 1_555

#END
