
#######################################################################
#
#                 Cambridge Crystallographic Data Centre
#                                CCDC 
#
#######################################################################
#
# If this CIF has been generated from an entry in the Cambridge 
# Structural Database, then it will include bibliographic, chemical, 
# crystal, experimental, refinement or atomic coordinate data resulting 
# from the CCDC's data processing and validation procedures.
#
#######################################################################

data_NETNUY
_chemical_formula_moiety         'C44 H36 N2'
_chemical_name_systematic        
10,10'-[ethyne-1,2-diylbis(4,1-phenylene)]bis(9,9-dimethyl-9,10-dihydroacridine)
_symmetry_cell_setting           monoclinic
_symmetry_space_group_name_H-M   'P 21/c'
_symmetry_Int_Tables_number      14
_space_group_name_Hall           '-P 2ybc'
loop_
_symmetry_equiv_pos_site_id
_symmetry_equiv_pos_as_xyz
1 x,y,z
2 -x,1/2+y,1/2-z
3 -x,-y,-z
4 x,1/2-y,1/2+z
_cell_length_a                   9.3224(7)
_cell_length_b                   21.5654(17)
_cell_length_c                   8.0810(5)
_cell_angle_alpha                90
_cell_angle_beta                 100.337(6)
_cell_angle_gamma                90
_cell_volume                     1598.25
_exptl_crystal_colour            yellow
_exptl_crystal_description       stick
_cell_formula_units_Z            2
loop_
_atom_site_label
_atom_site_type_symbol
_atom_site_fract_x
_atom_site_fract_y
_atom_site_fract_z
N1 N 0.64541(13) 0.39601(6) 0.52742(14)
C1 C 0.72556(15) 0.42138(7) 0.40608(17)
C2 C 0.75797(16) 0.38408(7) 0.27812(18)
H1 H 0.7266 0.3431 0.2698
C3 C 0.72484(16) 0.35837(7) 0.65584(17)
C4 C 0.88512(15) 0.46903(7) 0.17496(18)
C5 C 0.49494(16) 0.38429(7) 0.47463(18)
C6 C 0.83668(16) 0.40758(7) 0.16280(18)
H2 H 0.8575 0.3824 0.0767
C7 C 0.64984(17) 0.32746(7) 0.76799(18)
C8 C 0.41691(17) 0.35464(7) 0.58536(19)
C9 C 0.96661(16) 0.49195(7) 0.05340(19)
C10 C 0.42232(17) 0.40209(8) 0.31469(18)
H3 H 0.4723 0.4238 0.2433
C11 C 0.87518(17) 0.35156(8) 0.67273(18)
H4 H 0.9258 0.3739 0.6032
C12 C 0.85284(17) 0.50577(7) 0.3052(2)
H5 H 0.8853 0.5466 0.3151
C13 C 0.77316(17) 0.48247(7) 0.42026(19)
H6 H 0.7517 0.5075 0.5063
C14 C 0.72701(19) 0.28618(7) 0.88229(19)
H7 H 0.6775 0.2636 0.9525
C15 C 0.49249(17) 0.34586(8) 0.76786(19)
C16 C 0.95005(19) 0.31156(8) 0.7930(2)
H8 H 1.0507 0.3078 0.8047
C17 C 0.27159(17) 0.33949(8) 0.5268(2)
H9 H 0.2202 0.3182 0.5974
C18 C 0.27657(18) 0.38764(9) 0.2621(2)
H10 H 0.2292 0.3998 0.1559
C19 C 0.87610(19) 0.27759(8) 0.8948(2)
H11 H 0.9254 0.2492 0.9711
C20 C 0.20122(18) 0.35525(9) 0.3665(2)
H12 H 0.1044 0.3442 0.3297
C21 C 0.4938(2) 0.40983(10) 0.8552(2)
H13 H 0.5451 0.4066 0.9690
H14 H 0.3954 0.4230 0.8552
H15 H 0.5417 0.4396 0.7956
C22 C 0.4137(2) 0.29915(12) 0.8626(2)
H16 H 0.4096 0.2597 0.8072
H17 H 0.3165 0.3135 0.8642
H18 H 0.4657 0.2950 0.9759
N1B N 1.35459(13) 0.60399(6) -0.52742(14)
C1B C 1.27444(15) 0.57862(7) -0.40608(17)
C2B C 1.24203(16) 0.61592(7) -0.27812(18)
H1B H 1.2734 0.6569 -0.2698
C3B C 1.27516(16) 0.64163(7) -0.65584(17)
C4B C 1.11488(15) 0.53097(7) -0.17496(18)
C5B C 1.50506(16) 0.61571(7) -0.47463(18)
C6B C 1.16332(16) 0.59242(7) -0.16280(18)
H2B H 1.1425 0.6176 -0.0767
C7B C 1.35016(17) 0.67254(7) -0.76799(18)
C8B C 1.58309(17) 0.64536(7) -0.58536(19)
C9B C 1.03339(16) 0.50805(7) -0.05340(19)
C10B C 1.57768(17) 0.59791(8) -0.31469(18)
H3B H 1.5277 0.5762 -0.2433
C11B C 1.12482(17) 0.64844(8) -0.67273(18)
H4B H 1.0742 0.6261 -0.6032
C12B C 1.14716(17) 0.49423(7) -0.3052(2)
H5B H 1.1147 0.4534 -0.3151
C13B C 1.22684(17) 0.51753(7) -0.42026(19)
H6B H 1.2483 0.4925 -0.5063
C14B C 1.27299(19) 0.71382(7) -0.88229(19)
H7B H 1.3225 0.7364 -0.9525
C15B C 1.50751(17) 0.65414(8) -0.76786(19)
C16B C 1.04995(19) 0.68844(8) -0.7930(2)
H8B H 0.9493 0.6922 -0.8047
C17B C 1.72841(17) 0.66051(8) -0.5268(2)
H9B H 1.7798 0.6818 -0.5974
C18B C 1.72343(18) 0.61236(9) -0.2621(2)
H10B H 1.7708 0.6002 -0.1559
C19B C 1.12390(19) 0.72241(8) -0.8948(2)
H11B H 1.0746 0.7508 -0.9711
C20B C 1.79878(18) 0.64475(9) -0.3665(2)
H12B H 1.8956 0.6558 -0.3297
C21B C 1.5062(2) 0.59017(10) -0.8552(2)
H13B H 1.4549 0.5934 -0.9690
H14B H 1.6046 0.5770 -0.8552
H15B H 1.4583 0.5604 -0.7956
C22B C 1.5863(2) 0.70085(12) -0.8626(2)
H16B H 1.5904 0.7403 -0.8072
H17B H 1.6835 0.6865 -0.8642
H18B H 1.5343 0.7050 -0.9759
loop_
_geom_bond_atom_site_label_1
_geom_bond_atom_site_label_2
_geom_bond_site_symmetry_1
_geom_bond_site_symmetry_2
N1 C1 1_555 1_555
C1 C2 1_555 1_555
C2 H1 1_555 1_555
C3 N1 1_555 1_555
C4 C6 1_555 1_555
C5 N1 1_555 1_555
C6 C2 1_555 1_555
H2 C6 1_555 1_555
C7 C3 1_555 1_555
C8 C5 1_555 1_555
C9 C4 1_555 1_555
C10 C5 1_555 1_555
H3 C10 1_555 1_555
C11 C3 1_555 1_555
H4 C11 1_555 1_555
C12 C4 1_555 1_555
H5 C12 1_555 1_555
C13 C1 1_555 1_555
H6 C13 1_555 1_555
C14 C7 1_555 1_555
H7 C14 1_555 1_555
C15 C7 1_555 1_555
C16 C11 1_555 1_555
H8 C16 1_555 1_555
C17 C8 1_555 1_555
H9 C17 1_555 1_555
C18 C10 1_555 1_555
H10 C18 1_555 1_555
C19 C14 1_555 1_555
H11 C19 1_555 1_555
C20 C17 1_555 1_555
H12 C20 1_555 1_555
C21 C15 1_555 1_555
H13 C21 1_555 1_555
H14 C21 1_555 1_555
H15 C21 1_555 1_555
C22 C15 1_555 1_555
H16 C22 1_555 1_555
H17 C22 1_555 1_555
H18 C22 1_555 1_555
N1B C1B 1_555 1_555
C1B C2B 1_555 1_555
C2B H1B 1_555 1_555
C3B N1B 1_555 1_555
C4B C6B 1_555 1_555
C5B N1B 1_555 1_555
C6B C2B 1_555 1_555
H2B C6B 1_555 1_555
C7B C3B 1_555 1_555
C8B C5B 1_555 1_555
C9B C9 1_555 1_555
C10B C5B 1_555 1_555
H3B C10B 1_555 1_555
C11B C3B 1_555 1_555
H4B C11B 1_555 1_555
C12B C4B 1_555 1_555
H5B C12B 1_555 1_555
C13B C1B 1_555 1_555
H6B C13B 1_555 1_555
C14B C7B 1_555 1_555
H7B C14B 1_555 1_555
C15B C7B 1_555 1_555
C16B C11B 1_555 1_555
H8B C16B 1_555 1_555
C17B C8B 1_555 1_555
H9B C17B 1_555 1_555
C18B C10B 1_555 1_555
H10B C18B 1_555 1_555
C19B C14B 1_555 1_555
H11B C19B 1_555 1_555
C20B C17B 1_555 1_555
H12B C20B 1_555 1_555
C21B C15B 1_555 1_555
H13B C21B 1_555 1_555
H14B C21B 1_555 1_555
H15B C21B 1_555 1_555
C22B C15B 1_555 1_555
H16B C22B 1_555 1_555
H17B C22B 1_555 1_555
H18B C22B 1_555 1_555
C8 C15 1_555 1_555
C12 C13 1_555 1_555
C16 C19 1_555 1_555
C18 C20 1_555 1_555
C4B C9B 1_555 1_555
C8B C15B 1_555 1_555
C12B C13B 1_555 1_555
C16B C19B 1_555 1_555
C18B C20B 1_555 1_555

#END
