
#######################################################################
#
#                 Cambridge Crystallographic Data Centre
#                                CCDC 
#
#######################################################################
#
# If this CIF has been generated from an entry in the Cambridge 
# Structural Database, then it will include bibliographic, chemical, 
# crystal, experimental, refinement or atomic coordinate data resulting 
# from the CCDC's data processing and validation procedures.
#
#######################################################################

data_NETNAE
_chemical_formula_moiety         'C20 H19 N1 O3 S1'
_chemical_name_systematic        
4-methyl-N-(((1S,5S,6S)-4-oxo-2-phenylbicyclo[3.1.0]hex-2-en-6-yl)methyl)benzenesulfonamide
_symmetry_cell_setting           triclinic
_symmetry_space_group_name_H-M   'P -1'
_symmetry_Int_Tables_number      2
_space_group_name_Hall           '-P 1'
loop_
_symmetry_equiv_pos_site_id
_symmetry_equiv_pos_as_xyz
1 x,y,z
2 -x,-y,-z
_cell_length_a                   7.123(5)
_cell_length_b                   8.006(5)
_cell_length_c                   16.202(9)
_cell_angle_alpha                94.967(7)
_cell_angle_beta                 98.751(12)
_cell_angle_gamma                110.173(16)
_cell_volume                     847.49
_exptl_crystal_colour            colorless
_exptl_crystal_description       Prism
_cell_formula_units_Z            2
loop_
_atom_site_label
_atom_site_type_symbol
_atom_site_fract_x
_atom_site_fract_y
_atom_site_fract_z
S1 S 0.02404(6) -0.32050(5) 0.18490(3)
O1 O 0.06425(19) -0.45893(16) 0.22648(8)
O2 O -0.18095(19) -0.33408(17) 0.15630(8)
O3 O -0.46575(19) 0.04400(17) 0.33885(9)
N1 N 0.1367(2) -0.13625(19) 0.25120(9)
C1 C 0.1474(3) -0.2957(2) 0.09768(10)
C2 C 0.3367(3) -0.3097(2) 0.10508(11)
H1 H 0.3977 -0.3370 0.1559
C3 C 0.4371(3) -0.2835(3) 0.03775(12)
H2 H 0.5675 -0.2931 0.0428
C4 C 0.3502(3) -0.2435(2) -0.03704(11)
C5 C 0.1600(3) -0.2315(2) -0.04302(11)
H3 H 0.0984 -0.2050 -0.0940
C6 C 0.0570(3) -0.2571(2) 0.02343(11)
H4 H -0.0738 -0.2483 0.0183
C7 C 0.1123(3) 0.0320(2) 0.23139(11)
H5 H 0.0208 0.0080 0.1757
H6 H 0.2467 0.1205 0.2275
C8 C 0.0256(3) 0.1113(2) 0.29714(11)
H7 H 0.0289 0.2362 0.2932
C9 C -0.1567(3) -0.0131(2) 0.32700(11)
H8 H -0.2162 -0.1439 0.3030
C10 C -0.2846(3) 0.0737(2) 0.36434(11)
C11 C -0.1558(3) 0.1985(2) 0.43895(11)
H9 H -0.1992 0.2746 0.4734
C12 C 0.0323(3) 0.1922(2) 0.45270(10)
C13 C 0.0492(3) 0.0626(2) 0.38503(10)
H10 H 0.1258 -0.0179 0.3996
C14 C 0.2015(3) 0.2922(2) 0.52323(10)
C15 C 0.3922(3) 0.2778(2) 0.52744(11)
H11 H 0.4155 0.2071 0.4828
C16 C 0.5475(3) 0.3657(2) 0.59617(11)
H12 H 0.6762 0.3534 0.5989
C17 C 0.5165(3) 0.4716(2) 0.66104(11)
H13 H 0.6237 0.5321 0.7081
C18 C 0.3287(3) 0.4890(2) 0.65705(11)
H14 H 0.3073 0.5626 0.7011
C19 C 0.1729(3) 0.3996(2) 0.58932(11)
H15 H 0.0439 0.4109 0.5874
C20 C 0.4623(3) -0.2148(3) -0.10924(13)
H16 H 0.3772 -0.1933 -0.1575
H17 H 0.4930 -0.3220 -0.1254
H18 H 0.5898 -0.1104 -0.0918
loop_
_geom_bond_atom_site_label_1
_geom_bond_atom_site_label_2
_geom_bond_site_symmetry_1
_geom_bond_site_symmetry_2
S1 O1 1_555 1_555
O2 S1 1_555 1_555
O3 C10 1_555 1_555
N1 S1 1_555 1_555
C1 S1 1_555 1_555
C2 C1 1_555 1_555
H1 C2 1_555 1_555
C3 C2 1_555 1_555
H2 C3 1_555 1_555
C4 C3 1_555 1_555
C5 C4 1_555 1_555
H3 C5 1_555 1_555
C6 C1 1_555 1_555
H4 C6 1_555 1_555
C7 N1 1_555 1_555
H5 C7 1_555 1_555
H6 C7 1_555 1_555
C8 C7 1_555 1_555
H7 C8 1_555 1_555
C9 C8 1_555 1_555
H8 C9 1_555 1_555
C10 C9 1_555 1_555
C11 C10 1_555 1_555
H9 C11 1_555 1_555
C12 C11 1_555 1_555
C13 C8 1_555 1_555
H10 C13 1_555 1_555
C14 C12 1_555 1_555
C15 C14 1_555 1_555
H11 C15 1_555 1_555
C16 C15 1_555 1_555
H12 C16 1_555 1_555
C17 C16 1_555 1_555
H13 C17 1_555 1_555
C18 C17 1_555 1_555
H14 C18 1_555 1_555
C19 C14 1_555 1_555
H15 C19 1_555 1_555
C20 C4 1_555 1_555
H16 C20 1_555 1_555
H17 C20 1_555 1_555
H18 C20 1_555 1_555
C5 C6 1_555 1_555
C9 C13 1_555 1_555
C12 C13 1_555 1_555
C18 C19 1_555 1_555

#END
