
#######################################################################
#
#                 Cambridge Crystallographic Data Centre
#                                CCDC 
#
#######################################################################
#
# If this CIF has been generated from an entry in the Cambridge 
# Structural Database, then it will include bibliographic, chemical, 
# crystal, experimental, refinement or atomic coordinate data resulting 
# from the CCDC's data processing and validation procedures.
#
#######################################################################

data_NETRUZ
_chemical_name_common            Ornidazole
_chemical_formula_moiety         'C7 H10 Cl1 N3 O3'
_chemical_name_systematic        
1-(3-Chloro-2-hydroxypropyl)-2-methyl-5-nitroimidazole
_chemical_properties_biological  
'activity against anerobic protozoa and bacteria'
_symmetry_cell_setting           triclinic
_symmetry_space_group_name_H-M   'P -1'
_symmetry_Int_Tables_number      2
_space_group_name_Hall           '-P 1'
loop_
_symmetry_equiv_pos_site_id
_symmetry_equiv_pos_as_xyz
1 x,y,z
2 -x,-y,-z
_cell_length_a                   13.605(2)
_cell_length_b                   14.054(1)
_cell_length_c                   8.913(5)
_cell_angle_alpha                71.59(2)
_cell_angle_beta                 78.73(2)
_cell_angle_gamma                64.86(1)
_cell_volume                     1460.09
_exptl_crystal_colour            'pale yellow'
_cell_formula_units_Z            6
loop_
_atom_site_label
_atom_site_type_symbol
_atom_site_fract_x
_atom_site_fract_y
_atom_site_fract_z
N1 N 0.8844(6) 0.4607(6) 0.2969(9)
C1 C 0.9719(8) 0.4184(7) 0.3803(11)
N2 N 1.0426(6) 0.4649(7) 0.3187(10)
C2 C 0.9998(9) 0.5428(9) 0.1866(13)
C3 C 0.9013(9) 0.5432(8) 0.1708(13)
C4 C 0.7883(8) 0.4325(9) 0.3408(14)
C5 C 0.7927(8) 0.3425(8) 0.2836(12)
O1 O 0.8489(4) 0.2428(5) 0.3903(7)
C6 C 0.6789(8) 0.3572(9) 0.2666(14)
Cl1 Cl 0.6763(2) 0.2455(2) 0.2187(3)
C7 C 0.9908(14) 0.3291(12) 0.529(17)
N3 N 0.8307(8) 0.6077(7) 0.0474(11)
O2 O 0.8529(7) 0.6795(6) -0.0493(9)
O3 O 0.7525(6) 0.5885(6) 0.0412(9)
N4 N 0.3781(5) 1.1501(6) -0.5121(9)
C8 C 0.3394(7) 1.1128(9) -0.3623(13)
N5 N 0.3192(6) 1.0255(7) -0.3478(10)
C9 C 0.3458(8) 1.0053(8) -0.4919(14)
C10 C 0.3802(7) 1.0816(7) -0.5935(11)
C11 C 0.4092(9) 1.2444(9) -0.5632(14)
C12 C 0.3213(8) 1.3483(8) -0.6475(13)
O4 O 0.2381(6) 1.3835(7) -0.5333(10)
C13 C 0.3750(9) 1.4302(10) -0.7194(16)
Cl2 Cl 0.2804(2) 1.5548(2) -0.8229(3)
C14 C 0.3197(13) 1.1608(15) -0.2249(17)
N6 N 0.4149(5) 1.0918(8) -0.7584(12)
O5 O 0.4414(6) 1.1677(6) -0.8352(8)
O6 O 0.4130(6) 1.0234(6) -0.8149(9)
N7 N 0.1064(6) 0.9523(6) 0.1766(8)
C15 C 0.0641(8) 1.0368(7) 0.2420(10)
N8 N -0.0406(6) 1.0623(6) 0.2866(8)
C16 C -0.0665(8) 0.9899(9) 0.2519(12)
C17 C 0.0196(8) 0.9231(8) 0.1821(10)
C18 C 0.2194(8) 0.9040(8) 0.1136(12)
C19 C 0.2881(7) 0.8051(7) 0.2391(11)
O7 O 0.2864(5) 0.8364(5) 0.3769(8)
C20 C 0.4040(9) 0.7647(1) 0.1710(15)
Cl3 Cl 0.4849(2) 0.6398(2) 0.3033(3)
C21 C 0.1282(13) 1.0949(12) 0.2607(25)
N9 N 0.0273(7) 0.8393(6) 0.1202(9)
O8 O -0.0583(6) 0.8299(5) 0.1202(7)
O9 O 0.1138(5) 0.7780(5) 0.0729(8)
loop_
_geom_bond_atom_site_label_1
_geom_bond_atom_site_label_2
_geom_bond_site_symmetry_1
_geom_bond_site_symmetry_2
N1 C1 1_555 1_555
C1 N2 1_555 1_555
N2 C2 1_555 1_555
C2 C3 1_555 1_555
C3 N1 1_555 1_555
C4 N1 1_555 1_555
C5 C4 1_555 1_555
O1 C5 1_555 1_555
C6 C5 1_555 1_555
Cl1 C6 1_555 1_555
C7 C1 1_555 1_555
N3 C3 1_555 1_555
O2 N3 1_555 1_555
O3 N3 1_555 1_555
N4 C8 1_555 1_555
C8 N5 1_555 1_555
N5 C9 1_555 1_555
C9 C10 1_555 1_555
C10 N4 1_555 1_555
C11 N4 1_555 1_555
C12 C11 1_555 1_555
O4 C12 1_555 1_555
C13 C12 1_555 1_555
Cl2 C13 1_555 1_555
C14 C8 1_555 1_555
N6 C10 1_555 1_555
O5 N6 1_555 1_555
O6 N6 1_555 1_555
N7 C15 1_555 1_555
C15 N8 1_555 1_555
N8 C16 1_555 1_555
C16 C17 1_555 1_555
C17 N7 1_555 1_555
C18 N7 1_555 1_555
C19 C18 1_555 1_555
O7 C19 1_555 1_555
C20 C19 1_555 1_555
Cl3 C20 1_555 1_555
C21 C15 1_555 1_555
N9 C17 1_555 1_555
O8 N9 1_555 1_555
O9 N9 1_555 1_555

#END
