
#######################################################################
#
#                 Cambridge Crystallographic Data Centre
#                                CCDC 
#
#######################################################################
#
# If this CIF has been generated from an entry in the Cambridge 
# Structural Database, then it will include bibliographic, chemical, 
# crystal, experimental, refinement or atomic coordinate data resulting 
# from the CCDC's data processing and validation procedures.
#
#######################################################################

data_NETYAO
_chemical_formula_moiety         'C12 H8 N4 O4,H2 O1'
_chemical_name_systematic        
'2-((7-Nitro-2,1,3-benzoxadiazol-4-yl)amino)phenol monohydrate'
_symmetry_cell_setting           triclinic
_symmetry_space_group_name_H-M   'P -1'
_symmetry_Int_Tables_number      2
_space_group_name_Hall           '-P 1'
loop_
_symmetry_equiv_pos_site_id
_symmetry_equiv_pos_as_xyz
1 x,y,z
2 -x,-y,-z
_cell_length_a                   7.209(8)
_cell_length_b                   7.614(9)
_cell_length_c                   12.090(13)
_cell_angle_alpha                101.099(12)
_cell_angle_beta                 96.137(14)
_cell_angle_gamma                102.440(13)
_cell_volume                     628.242
_cell_formula_units_Z            2
loop_
_atom_site_label
_atom_site_type_symbol
_atom_site_fract_x
_atom_site_fract_y
_atom_site_fract_z
N1 N 0.7664(3) 1.0550(2) 0.50898(17)
H1 H 0.7655 1.1482 0.4787
O1 O 0.6146(3) 1.0780(2) 0.31149(16)
H2 H 0.5617 1.0757 0.2475
C1 C 0.6737(4) 0.7097(3) 0.4516(2)
H3 H 0.7270 0.6962 0.5221
C2 C 0.6820(3) 0.8858(3) 0.4322(2)
C3 C 0.6012(3) 0.9013(3) 0.3247(2)
C4 C 0.5130(4) 0.7464(4) 0.2409(2)
H4 H 0.4584 0.7584 0.1703
C5 C 0.5058(4) 0.5715(3) 0.2622(3)
H5 H 0.4465 0.4664 0.2061
C6 C 0.5871(4) 0.5557(3) 0.3671(2)
H6 H 0.5834 0.4392 0.3811
C7 C 0.8488(3) 1.1042(3) 0.6199(2)
C8 C 0.9197(3) 1.3011(3) 0.66628(19)
C9 C 0.8744(3) 0.9966(3) 0.6969(2)
H7 H 0.8250 0.8696 0.6747
C10 C 1.0172(3) 1.3794(3) 0.7783(2)
C11 C 0.9730(4) 1.0735(3) 0.8079(2)
H8 H 0.9897 0.9937 0.8554
C12 C 1.0463(4) 1.2585(3) 0.8507(2)
O2 O 0.9942(3) 1.5930(2) 0.68914(16)
N2 N 1.0646(3) 1.5612(3) 0.79375(19)
N3 N 0.9063(3) 1.4322(3) 0.61142(18)
O3 O 1.2255(3) 1.4972(3) 0.99315(16)
N4 N 1.1582(3) 1.3290(3) 0.9622(2)
O4 O 1.1864(4) 1.2184(3) 1.02168(18)
O5 O 0.5568(14) 1.1444(6) 0.1062(4)
O6? O 0.6267(17) 1.1284(7) 0.0946(5)
loop_
_geom_bond_atom_site_label_1
_geom_bond_atom_site_label_2
_geom_bond_site_symmetry_1
_geom_bond_site_symmetry_2
N1 H1 1_555 1_555
O1 H2 1_555 1_555
C1 H3 1_555 1_555
C2 N1 1_555 1_555
C3 O1 1_555 1_555
C4 C3 1_555 1_555
H4 C4 1_555 1_555
C5 C4 1_555 1_555
H5 C5 1_555 1_555
C6 C1 1_555 1_555
H6 C6 1_555 1_555
C7 N1 1_555 1_555
C8 C7 1_555 1_555
C9 C7 1_555 1_555
H7 C9 1_555 1_555
C10 C8 1_555 1_555
C11 C9 1_555 1_555
H8 C11 1_555 1_555
C12 C10 1_555 1_555
O2 N2 1_555 1_555
N2 C10 1_555 1_555
N3 C8 1_555 1_555
O3 N4 1_555 1_555
N4 C12 1_555 1_555
O4 N4 1_555 1_555
C1 C2 1_555 1_555
C2 C3 1_555 1_555
C5 C6 1_555 1_555
C11 C12 1_555 1_555
O2 N3 1_555 1_555

#END
