
#######################################################################
#
#                 Cambridge Crystallographic Data Centre
#                                CCDC 
#
#######################################################################
#
# If this CIF has been generated from an entry in the Cambridge 
# Structural Database, then it will include bibliographic, chemical, 
# crystal, experimental, refinement or atomic coordinate data resulting 
# from the CCDC's data processing and validation procedures.
#
#######################################################################

data_NEVFOM
_chemical_formula_moiety         'C124 H112 N16 O8'
_chemical_name_systematic        
'tetrakis(ethoxycarbonyl)-octaethyl-tetraphenyl-hexadecaphyrin-(1.0.0.0.1.1.0.1.1.0.0.0.1.1.0.1) unknown solvate'
_symmetry_cell_setting           triclinic
_symmetry_space_group_name_H-M   'P -1'
_symmetry_Int_Tables_number      2
_space_group_name_Hall           '-P 1'
loop_
_symmetry_equiv_pos_site_id
_symmetry_equiv_pos_as_xyz
1 x,y,z
2 -x,-y,-z
_cell_length_a                   16.8422(8)
_cell_length_b                   19.5805(10)
_cell_length_c                   20.1551(9)
_cell_angle_alpha                100.491(4)
_cell_angle_beta                 106.212(4)
_cell_angle_gamma                99.025(4)
_cell_volume                     6122
_exptl_crystal_colour            black
_exptl_crystal_description       prisms
_cell_formula_units_Z            2
_exptl_crystal_recrystallization_method 
'slow evaporation from dichloromethane and hexanes'
loop_
_atom_site_label
_atom_site_type_symbol
_atom_site_fract_x
_atom_site_fract_y
_atom_site_fract_z
C1 C 0.77056(13) 0.44221(11) 0.23625(11)
C2 C 0.73577(13) 0.41293(11) 0.28603(11)
C3 C 0.72482(14) 0.34137(11) 0.26683(11)
C4 C 0.75614(14) 0.32837(12) 0.20529(11)
C5 C 0.7213(3) 0.07549(16) 0.12682(17)
H1 H 0.746705 0.044239 0.101796
C6 C 0.6589(2) 0.04282(14) 0.15119(14)
C7 C 0.6392(3) -0.02851(15) 0.15459(17)
H2 H 0.665841 -0.064864 0.139077
C8 C 0.5753(3) -0.03697(14) 0.18403(16)
H3 H 0.550333 -0.080041 0.192746
C9 C 0.5527(2) 0.02964(13) 0.19930(13)
C10 C 0.4914(2) 0.04810(13) 0.23020(13)
H4 H 0.463506 0.012699 0.247605
C11 C 0.46806(19) 0.11239(13) 0.23755(12)
C12 C 0.41219(19) 0.13544(15) 0.27512(14)
H5 H 0.382724 0.108212 0.298874
C13 C 0.40942(17) 0.20280(14) 0.27037(13)
H6 H 0.377979 0.232445 0.289925
C14 C 0.46483(15) 0.22079(11) 0.22887(11)
C15 C 0.48282(14) 0.28654(11) 0.20759(10)
C16 C 0.47179(13) 0.35448(11) 0.23152(10)
C17 C 0.50787(12) 0.39963(10) 0.19435(9)
C18 C 0.53785(12) 0.35575(10) 0.14675(9)
C19 C 0.57160(12) 0.36950(10) 0.09062(9)
C20 C 0.58816(12) 0.32472(10) 0.03433(9)
C21 C 0.61469(12) 0.36930(10) -0.00782(9)
C22 C 0.61412(12) 0.43852(10) 0.02385(9)
C23 C 0.62873(13) 0.50584(10) 0.00544(10)
C24 C 0.64368(14) 0.52043(11) -0.05898(10)
H7 H 0.649271 0.487177 -0.097169
C25 C 0.64792(14) 0.59030(11) -0.05339(10)
H8 H 0.655812 0.616085 -0.087522
C26 C 0.63816(14) 0.61894(11) 0.01477(10)
C27 C 0.64074(16) 0.68790(11) 0.04362(11)
H9 H 0.642283 0.720299 0.013948
C28 C 0.64136(17) 0.71614(11) 0.11369(11)
C29 C 0.6462(2) 0.78683(12) 0.14632(13)
H10 H 0.645703 0.825400 0.123746
C30 C 0.65169(17) 0.79130(11) 0.21631(12)
H11 H 0.655686 0.833222 0.250429
C31 C 0.65036(14) 0.72310(10) 0.22835(10)
C32 C 0.65925(12) 0.69753(10) 0.29133(10)
H12 H 0.664278 0.649449 0.287742
C33 C 0.66131(12) 0.73493(10) 0.35652(10)
C34 C 0.66970(12) 0.70828(10) 0.42043(10)
C35 C 0.66183(12) 0.76148(10) 0.47042(10)
C36 C 0.65284(12) 0.82116(10) 0.43586(10)
C37 C 0.64995(12) 0.89370(10) 0.46875(10)
C38 C 0.66980(15) 0.98968(12) 0.54902(12)
C39 C 0.68980(16) 1.03485(12) 0.61428(12)
H13 H 0.679002 1.081068 0.614521
C40 C 0.72472(15) 1.02098(12) 0.68159(12)
C41 C 0.72983(17) 1.06030(14) 0.74913(13)
H14 H 0.711405 1.103415 0.758699
C42 C 0.76634(18) 1.02505(15) 0.79884(12)
H15 H 0.776889 1.039365 0.848709
C43 C 0.78516(16) 0.96457(14) 0.76317(12)
C44 C 0.82113(17) 0.91092(15) 0.79077(12)
H16 H 0.830196 0.913093 0.839864
C45 C 0.84389(16) 0.85646(14) 0.75315(12)
C46 C 0.87889(17) 0.79958(15) 0.77849(12)
H17 H 0.888828 0.791751 0.824984
C47 C 0.89474(16) 0.75975(13) 0.72353(12)
H18 H 0.917883 0.718514 0.723415
C48 C 0.86887(13) 0.79334(12) 0.66426(11)
C49 C 0.87866(13) 0.77561(11) 0.59494(11)
C50 C 0.90426(12) 0.71869(11) 0.56086(11)
C51 C 0.90372(13) 0.73049(11) 0.49334(11)
C52 C 0.87893(12) 0.79594(11) 0.48887(10)
C53 C 0.87282(13) 0.83780(11) 0.43578(11)
C54 C 0.87299(13) 0.91032(11) 0.43759(11)
C55 C 0.87010(13) 0.92122(12) 0.36889(12)
C56 C 0.86732(14) 0.85494(12) 0.32714(12)
C57 C 0.86118(16) 0.83079(13) 0.25420(12)
C58 C 0.8604(2) 0.87318(15) 0.20133(14)
H19 H 0.861281 0.922608 0.207729
C59 C 0.8581(2) 0.82755(15) 0.14169(14)
H20 H 0.857966 0.838833 0.097775
C60 C 0.85588(19) 0.75851(14) 0.15717(13)
C61 C 0.85168(19) 0.69573(15) 0.11154(13)
H21 H 0.856020 0.698573 0.066084
C62 C 0.84153(17) 0.62737(14) 0.12558(12)
C63 C 0.84011(17) 0.56131(14) 0.08295(13)
H22 H 0.848862 0.554164 0.037848
C64 C 0.82394(15) 0.50896(13) 0.11751(12)
H23 H 0.820279 0.459595 0.100841
C65 C 0.81376(14) 0.54155(12) 0.18215(11)
C66 C 0.78809(14) 0.51218(12) 0.23437(11)
H24 H 0.782453 0.545299 0.272633
C67 C 0.71845(14) 0.45628(12) 0.34797(12)
H25 H 0.677177 0.425585 0.362632
H26 H 0.692342 0.495074 0.332641
C68 C 0.79799(17) 0.48856(14) 0.41171(12)
H27 H 0.825850 0.450688 0.425648
H28 H 0.782422 0.513077 0.451546
H29 H 0.836850 0.522676 0.398940
C69 C 0.69067(15) 0.28799(12) 0.30235(12)
H30 H 0.655367 0.245114 0.265478
H31 H 0.653705 0.308444 0.327275
C70 C 0.75926(18) 0.26615(15) 0.35517(16)
H32 H 0.795067 0.244405 0.330609
H33 H 0.733201 0.231683 0.376838
H34 H 0.793994 0.308208 0.392301
C71 C 0.43259(14) 0.37489(11) 0.28728(10)
C72 C 0.34592(16) 0.36866(16) 0.27044(13)
H35 H 0.310758 0.349518 0.222537
C73 C 0.30969(17) 0.38981(17) 0.32212(14)
H36 H 0.250045 0.385137 0.309606
C74 C 0.35997(16) 0.41773(13) 0.39198(12)
H37 H 0.335393 0.433558 0.427426
C75 C 0.44548(16) 0.42238(12) 0.40962(11)
H38 H 0.480183 0.440695 0.457762
C76 C 0.48212(14) 0.40063(11) 0.35796(11)
H39 H 0.541485 0.403408 0.371094
C77 C 0.51129(13) 0.47633(10) 0.20546(9)
C78 C 0.45157(15) 0.56944(11) 0.25100(11)
H40 H 0.428660 0.585179 0.206883
H41 H 0.509432 0.598599 0.276743
C79 C 0.39549(18) 0.57723(13) 0.29686(14)
H42 H 0.337380 0.551427 0.269354
H43 H 0.396337 0.627758 0.312970
H44 H 0.416124 0.557597 0.338226
C80 C 0.58224(14) 0.24776(10) 0.02157(10)
C81 C 0.6159(2) 0.14976(12) -0.04332(14)
H45 H 0.555537 0.124495 -0.062457
H46 H 0.644142 0.131985 -0.001915
C82 C 0.6585(2) 0.13786(15) -0.09970(17)
H47 H 0.630591 0.156580 -0.139864
H48 H 0.654356 0.086752 -0.116145
H49 H 0.718349 0.162515 -0.079747
C83 C 0.63462(15) 0.34684(10) -0.07470(10)
C84 C 0.71471(17) 0.36766(14) -0.07936(13)
H50 H 0.758187 0.398736 -0.039660
C85 C 0.7319(2) 0.34326(19) -0.14208(17)
H51 H 0.787261 0.357717 -0.144774
C86 C 0.6697(3) 0.29848(18) -0.20015(15)
H52 H 0.682260 0.280819 -0.242315
C87 C 0.5896(2) 0.27963(15) -0.19658(13)
H53 H 0.545979 0.250155 -0.237189
C88 C 0.57121(18) 0.30294(12) -0.13448(11)
H54 H 0.515384 0.289005 -0.132645
C89 C 0.68758(13) 0.63710(10) 0.43010(11)
H55 H 0.727728 0.643941 0.478428
H56 H 0.716031 0.619712 0.395604
C90 C 0.61017(15) 0.57985(11) 0.42064(11)
H57 H 0.576307 0.598983 0.448888
H58 H 0.628529 0.538851 0.436645
H59 H 0.575846 0.564847 0.370310
C91 C 0.65258(15) 0.75734(11) 0.54120(11)
H60 H 0.686255 0.801366 0.577188
H61 H 0.674359 0.716527 0.556007
C92 C 0.55967(17) 0.74830(14) 0.53696(13)
H62 H 0.538815 0.789531 0.523810
H63 H 0.553987 0.744634 0.583339
H64 H 0.526440 0.704908 0.501002
C93 C 0.6298(2) 0.9491(3) 0.4317(3)
C94 C 0.6456(2) 1.0091(3) 0.4824(4)
C95 C 0.5940(3) 0.9399(4) 0.3525(3)
H65 H 0.626420 0.912555 0.327663
H66 H 0.597163 0.986845 0.340478
C96 C 0.5011(4) 0.8992(4) 0.3299(4)
H67 H 0.498879 0.853269 0.342864
H68 H 0.475696 0.891297 0.278291
H69 H 0.469568 0.927256 0.354118
C97 C 0.6367(3) 1.0818(2) 0.4705(2)
H70 H 0.674808 1.118660 0.512584
H71 H 0.654464 1.088651 0.428879
C98 C 0.5473(3) 1.0914(3) 0.4580(3)
H72 H 0.508659 1.052571 0.419020
H73 H 0.543050 1.137042 0.445406
H74 H 0.531938 1.090849 0.501359
C99 C 0.92640(13) 0.65942(11) 0.59399(10)
C100 C 1.01096(15) 0.65898(14) 0.62641(13)
H75 H 1.054804 0.693539 0.622620
C101 C 1.03122(17) 0.60821(15) 0.66417(13)
H76 H 1.089018 0.607942 0.685699
C102 C 0.96822(17) 0.55792(14) 0.67086(12)
H77 H 0.982755 0.524457 0.698328
C103 C 0.88397(16) 0.55651(13) 0.63742(12)
H78 H 0.840348 0.521099 0.640307
C104 C 0.86389(13) 0.60751(12) 0.59955(11)
H79 H 0.806038 0.606805 0.576965
C105 C 0.92650(14) 0.68325(11) 0.43944(11)
C106 C 1.00935(16) 0.59615(14) 0.42511(14)
H80 H 0.968824 0.580681 0.376195
H81 H 1.016110 0.553329 0.443856
C107 C 1.0929(2) 0.63403(16) 0.42393(18)
H82 H 1.084676 0.672486 0.399419
H83 H 1.118272 0.600393 0.398788
H84 H 1.130679 0.654075 0.472826
C108 C 0.87936(13) 0.96713(11) 0.49951(12)
C109 C 0.89885(16) 1.09190(12) 0.54224(15)
H85 H 0.951224 1.102001 0.583296
H86 H 0.849411 1.081732 0.559137
C110 C 0.89529(18) 1.15423(14) 0.50880(18)
H87 H 0.941102 1.160532 0.487837
H88 H 0.901882 1.197303 0.545141
H89 H 0.840542 1.145593 0.471567
C111 C 0.86906(14) 0.98755(12) 0.34405(12)
C112 C 0.79792(17) 1.01716(15) 0.33373(15)
H90 H 0.749197 0.994423 0.342735
C113 C 0.7975(2) 1.07933(17) 0.31051(17)
H91 H 0.748879 1.099385 0.304306
C114 C 0.8672(2) 1.11239(15) 0.29630(17)
H92 H 0.866604 1.155017 0.280152
C115 C 0.93758(18) 1.08354(14) 0.30556(15)
H93 H 0.985446 1.105938 0.295184
C116 C 0.93911(15) 1.02189(13) 0.32997(13)
H94 H 0.988552 1.002878 0.337165
N1 N 0.78253(12) 0.38704(10) 0.18740(9)
N2 N 0.72255(14) 0.19905(11) 0.17268(10)
C117 C 0.76418(17) 0.25924(13) 0.16770(13)
C118 C 0.7505(2) 0.14613(14) 0.13414(15)
C119 C 0.8049(3) 0.2499(2) 0.1110(2)
C120 C 0.8021(3) 0.1787(2) 0.0960(2)
C121 C 0.8512(4) 0.3066(3) 0.0836(3)
H95 H 0.857080 0.284189 0.037535
H96 H 0.817215 0.342945 0.075382
C122 C 0.9373(4) 0.3418(5) 0.1354(4)
H97 H 0.931314 0.371315 0.177760
H98 H 0.968896 0.371869 0.113128
H99 H 0.968014 0.305397 0.149038
C123 C 0.8422(4) 0.1359(3) 0.0509(3)
H100 H 0.865020 0.165704 0.022796
H101 H 0.798756 0.094959 0.017224
C124 C 0.9159(5) 0.1079(6) 0.0975(4)
H102 H 0.962050 0.148341 0.126841
H103 H 0.937068 0.076155 0.066339
H104 H 0.894497 0.081792 0.128311
N3 N 0.60486(17) 0.07603(11) 0.17903(11)
N4 N 0.49930(14) 0.16747(9) 0.20971(9)
N5 N 0.52216(11) 0.28918(8) 0.15695(8)
N6 N 0.58934(11) 0.43623(8) 0.08223(8)
N7 N 0.62702(11) 0.56443(8) 0.04936(8)
N8 N 0.64379(12) 0.67826(9) 0.16475(9)
N9 N 0.65145(10) 0.80515(8) 0.36908(8)
N10 N 0.67751(11) 0.91891(9) 0.53861(9)
N11 N 0.75892(12) 0.96384(10) 0.69211(9)
N12 N 0.83829(11) 0.84959(10) 0.68180(9)
N13 N 0.86462(11) 0.82076(9) 0.55054(9)
N14 N 0.86917(12) 0.80685(10) 0.36880(9)
N15 N 0.85841(13) 0.76310(11) 0.22739(10)
N16 N 0.82612(13) 0.61308(11) 0.18543(10)
O1 O 0.56128(9) 0.52023(7) 0.19190(7)
O2 O 0.45336(9) 0.49444(7) 0.23420(7)
O3 O 0.54415(12) 0.20597(8) 0.04635(8)
O4 O 0.62309(11) 0.22583(8) -0.02262(8)
O5 O 0.90329(12) 0.67826(9) 0.37565(8)
O6 O 0.97686(10) 0.64379(9) 0.47000(8)
O7 O 0.86876(10) 0.95845(8) 0.55502(8)
O8 O 0.89791(10) 1.03154(8) 0.48774(9)
H105 H 0.6389(16) 0.6294(14) 0.1537(13)
H106 H 0.5858(17) 0.4704(14) 0.1081(14)
H107 H 0.5327(17) 0.2478(15) 0.1296(15)
H108 H 0.8687(19) 0.7617(17) 0.3594(16)
H109 H 0.849(2) 0.8642(17) 0.5624(16)
H110 H 0.764(2) 0.9304(18) 0.6595(18)
H111 H 0.8282(19) 0.6463(16) 0.2194(17)
H112 H 0.603(2) 0.117(2) 0.181(2)
C125? C 0.6075(3) 0.9427(4) 0.4289(4)
C126? C 0.6179(3) 1.0027(3) 0.4783(5)
C127? C 0.5643(4) 0.9287(4) 0.3507(4)
H113? H 0.594954 0.900459 0.324777
H114? H 0.565452 0.974473 0.336249
C128? C 0.4735(5) 0.8887(6) 0.3312(6)
H115? H 0.472311 0.844487 0.347568
H116? H 0.447273 0.877327 0.279422
H117? H 0.442082 0.918244 0.353917
C129? C 0.5869(4) 1.0692(3) 0.4687(3)
H118? H 0.534882 1.056759 0.427080
H119? H 0.571781 1.089125 0.511163
C130? C 0.6508(4) 1.1252(3) 0.4581(4)
H120? H 0.702394 1.138118 0.499264
H121? H 0.627272 1.167336 0.452966
H122? H 0.664410 1.106566 0.415027
C131? C 0.8372(3) 0.2482(3) 0.1408(3)
C132? C 0.8327(4) 0.1769(3) 0.1255(3)
C133? C 0.8984(4) 0.3027(3) 0.1285(3)
H123? H 0.951065 0.285306 0.130787
H124? H 0.912913 0.346338 0.166960
C134? C 0.8654(6) 0.3214(4) 0.0565(3)
H125? H 0.861111 0.280962 0.018016
H126? H 0.904602 0.363065 0.054506
H127? H 0.809317 0.332170 0.050906
C135? C 0.8911(6) 0.1391(5) 0.0927(4)
H128? H 0.943634 0.174218 0.099551
H129? H 0.907206 0.102176 0.118184
C136? C 0.8519(9) 0.1055(8) 0.0162(4)
H130? H 0.800893 0.069391 0.008992
H131? H 0.892200 0.082883 -0.001760
H132? H 0.836415 0.141778 -0.009638
loop_
_geom_bond_atom_site_label_1
_geom_bond_atom_site_label_2
_geom_bond_site_symmetry_1
_geom_bond_site_symmetry_2
C1 C2 1_555 1_555
C2 C3 1_555 1_555
C3 C4 1_555 1_555
C4 N1 1_555 1_555
C5 H1 1_555 1_555
C6 C5 1_555 1_555
C7 C6 1_555 1_555
H2 C7 1_555 1_555
C8 C7 1_555 1_555
H3 C8 1_555 1_555
C9 C8 1_555 1_555
C10 C9 1_555 1_555
H4 C10 1_555 1_555
C11 C10 1_555 1_555
C12 C11 1_555 1_555
H5 C12 1_555 1_555
C13 C12 1_555 1_555
H6 C13 1_555 1_555
C14 C13 1_555 1_555
C15 C14 1_555 1_555
C16 C15 1_555 1_555
C17 C16 1_555 1_555
C18 C17 1_555 1_555
C19 C18 1_555 1_555
C20 C19 1_555 1_555
C21 C20 1_555 1_555
C22 C21 1_555 1_555
C23 C22 1_555 1_555
C24 C23 1_555 1_555
H7 C24 1_555 1_555
C25 C24 1_555 1_555
H8 C25 1_555 1_555
C26 C25 1_555 1_555
C27 C26 1_555 1_555
H9 C27 1_555 1_555
C28 C27 1_555 1_555
C29 C28 1_555 1_555
H10 C29 1_555 1_555
C30 C29 1_555 1_555
H11 C30 1_555 1_555
C31 C30 1_555 1_555
C32 C31 1_555 1_555
H12 C32 1_555 1_555
C33 C32 1_555 1_555
C34 C33 1_555 1_555
C35 C34 1_555 1_555
C36 C35 1_555 1_555
C37 C36 1_555 1_555
C38 C39 1_555 1_555
C39 H13 1_555 1_555
C40 C39 1_555 1_555
C41 C40 1_555 1_555
H14 C41 1_555 1_555
C42 C41 1_555 1_555
H15 C42 1_555 1_555
C43 C42 1_555 1_555
C44 C43 1_555 1_555
H16 C44 1_555 1_555
C45 C44 1_555 1_555
C46 C45 1_555 1_555
H17 C46 1_555 1_555
C47 C46 1_555 1_555
H18 C47 1_555 1_555
C48 C47 1_555 1_555
C49 C48 1_555 1_555
C50 C49 1_555 1_555
C51 C50 1_555 1_555
C52 C51 1_555 1_555
C53 C52 1_555 1_555
C54 C53 1_555 1_555
C55 C54 1_555 1_555
C56 C55 1_555 1_555
C57 C56 1_555 1_555
C58 C57 1_555 1_555
H19 C58 1_555 1_555
C59 C58 1_555 1_555
H20 C59 1_555 1_555
C60 C59 1_555 1_555
C61 C60 1_555 1_555
H21 C61 1_555 1_555
C62 C61 1_555 1_555
C63 C62 1_555 1_555
H22 C63 1_555 1_555
C64 C63 1_555 1_555
H23 C64 1_555 1_555
C65 C64 1_555 1_555
C66 C1 1_555 1_555
H24 C66 1_555 1_555
C67 C2 1_555 1_555
H25 C67 1_555 1_555
H26 C67 1_555 1_555
C68 C67 1_555 1_555
H27 C68 1_555 1_555
H28 C68 1_555 1_555
H29 C68 1_555 1_555
C69 C3 1_555 1_555
H30 C69 1_555 1_555
H31 C69 1_555 1_555
C70 C69 1_555 1_555
H32 C70 1_555 1_555
H33 C70 1_555 1_555
H34 C70 1_555 1_555
C71 C16 1_555 1_555
C72 C71 1_555 1_555
H35 C72 1_555 1_555
C73 C72 1_555 1_555
H36 C73 1_555 1_555
C74 C73 1_555 1_555
H37 C74 1_555 1_555
C75 C74 1_555 1_555
H38 C75 1_555 1_555
C76 C71 1_555 1_555
H39 C76 1_555 1_555
C77 C17 1_555 1_555
C78 H40 1_555 1_555
H41 C78 1_555 1_555
C79 C78 1_555 1_555
H42 C79 1_555 1_555
H43 C79 1_555 1_555
H44 C79 1_555 1_555
C80 C20 1_555 1_555
C81 H45 1_555 1_555
H46 C81 1_555 1_555
C82 C81 1_555 1_555
H47 C82 1_555 1_555
H48 C82 1_555 1_555
H49 C82 1_555 1_555
C83 C21 1_555 1_555
C84 C83 1_555 1_555
H50 C84 1_555 1_555
C85 C84 1_555 1_555
H51 C85 1_555 1_555
C86 C85 1_555 1_555
H52 C86 1_555 1_555
C87 C86 1_555 1_555
H53 C87 1_555 1_555
C88 C83 1_555 1_555
H54 C88 1_555 1_555
C89 C34 1_555 1_555
H55 C89 1_555 1_555
H56 C89 1_555 1_555
C90 C89 1_555 1_555
H57 C90 1_555 1_555
H58 C90 1_555 1_555
H59 C90 1_555 1_555
C91 C35 1_555 1_555
H60 C91 1_555 1_555
H61 C91 1_555 1_555
C92 C91 1_555 1_555
H62 C92 1_555 1_555
H63 C92 1_555 1_555
H64 C92 1_555 1_555
C93 C37 1_555 1_555
C94 C38 1_555 1_555
C95 C93 1_555 1_555
H65 C95 1_555 1_555
H66 C95 1_555 1_555
C96 C95 1_555 1_555
H67 C96 1_555 1_555
H68 C96 1_555 1_555
H69 C96 1_555 1_555
C97 C94 1_555 1_555
H70 C97 1_555 1_555
H71 C97 1_555 1_555
C98 C97 1_555 1_555
H72 C98 1_555 1_555
H73 C98 1_555 1_555
H74 C98 1_555 1_555
C99 C50 1_555 1_555
C100 C99 1_555 1_555
H75 C100 1_555 1_555
C101 C100 1_555 1_555
H76 C101 1_555 1_555
C102 C101 1_555 1_555
H77 C102 1_555 1_555
C103 C102 1_555 1_555
H78 C103 1_555 1_555
C104 C99 1_555 1_555
H79 C104 1_555 1_555
C105 C51 1_555 1_555
C106 H80 1_555 1_555
H81 C106 1_555 1_555
C107 C106 1_555 1_555
H82 C107 1_555 1_555
H83 C107 1_555 1_555
H84 C107 1_555 1_555
C108 C54 1_555 1_555
C109 H85 1_555 1_555
H86 C109 1_555 1_555
C110 C109 1_555 1_555
H87 C110 1_555 1_555
H88 C110 1_555 1_555
H89 C110 1_555 1_555
C111 C55 1_555 1_555
C112 C111 1_555 1_555
H90 C112 1_555 1_555
C113 C112 1_555 1_555
H91 C113 1_555 1_555
C114 C113 1_555 1_555
H92 C114 1_555 1_555
C115 C114 1_555 1_555
H93 C115 1_555 1_555
C116 C111 1_555 1_555
H94 C116 1_555 1_555
N1 C1 1_555 1_555
N2 C117 1_555 1_555
C117 C4 1_555 1_555
C118 C5 1_555 1_555
C119 C117 1_555 1_555
C120 C118 1_555 1_555
C121 C119 1_555 1_555
H95 C121 1_555 1_555
H96 C121 1_555 1_555
C122 C121 1_555 1_555
H97 C122 1_555 1_555
H98 C122 1_555 1_555
H99 C122 1_555 1_555
C123 C120 1_555 1_555
H100 C123 1_555 1_555
H101 C123 1_555 1_555
C124 C123 1_555 1_555
H102 C124 1_555 1_555
H103 C124 1_555 1_555
H104 C124 1_555 1_555
N3 C6 1_555 1_555
N4 C11 1_555 1_555
N5 C15 1_555 1_555
N6 C19 1_555 1_555
N7 C23 1_555 1_555
N8 C28 1_555 1_555
N9 C33 1_555 1_555
N10 C37 1_555 1_555
N11 C40 1_555 1_555
N12 C45 1_555 1_555
N13 C49 1_555 1_555
N14 C53 1_555 1_555
N15 C57 1_555 1_555
N16 C62 1_555 1_555
O1 C77 1_555 1_555
O2 C77 1_555 1_555
O3 C80 1_555 1_555
O4 C80 1_555 1_555
O5 C105 1_555 1_555
O6 C105 1_555 1_555
O7 C108 1_555 1_555
O8 C108 1_555 1_555
H105 N8 1_555 1_555
H106 N6 1_555 1_555
H107 N5 1_555 1_555
H108 N14 1_555 1_555
H109 N13 1_555 1_555
H110 N11 1_555 1_555
H111 N16 1_555 1_555
H112 N3 1_555 1_555
C9 N3 1_555 1_555
C14 N4 1_555 1_555
C18 N5 1_555 1_555
C22 N6 1_555 1_555
C26 N7 1_555 1_555
C31 N8 1_555 1_555
C36 N9 1_555 1_555
C38 N10 1_555 1_555
C43 N11 1_555 1_555
C48 N12 1_555 1_555
C52 N13 1_555 1_555
C56 N14 1_555 1_555
C60 N15 1_555 1_555
C65 C66 1_555 1_555
C65 N16 1_555 1_555
C75 C76 1_555 1_555
C78 O2 1_555 1_555
C81 O4 1_555 1_555
C87 C88 1_555 1_555
C93 C94 1_555 1_555
C103 C104 1_555 1_555
C106 O6 1_555 1_555
C109 O8 1_555 1_555
C115 C116 1_555 1_555
N2 C118 1_555 1_555
C119 C120 1_555 1_555

#END
