
#######################################################################
#
#                 Cambridge Crystallographic Data Centre
#                                CCDC 
#
#######################################################################
#
# If this CIF has been generated from an entry in the Cambridge 
# Structural Database, then it will include bibliographic, chemical, 
# crystal, experimental, refinement or atomic coordinate data resulting 
# from the CCDC's data processing and validation procedures.
#
#######################################################################

data_NEVKUV
_chemical_formula_moiety         'C6 H10 N2 2+,2(C8 H5 O4 1-)'
_chemical_name_systematic        
'1,4-Phenylenediammonium bis(hydrogen phthalate)'
_symmetry_cell_setting           triclinic
_symmetry_space_group_name_H-M   'P -1'
_symmetry_Int_Tables_number      2
_space_group_name_Hall           '-P 1'
loop_
_symmetry_equiv_pos_site_id
_symmetry_equiv_pos_as_xyz
1 x,y,z
2 -x,-y,-z
_cell_length_a                   8.0828(6)
_cell_length_b                   8.2286(7)
_cell_length_c                   9.4515(8)
_cell_angle_alpha                92.442(3)
_cell_angle_beta                 114.897(2)
_cell_angle_gamma                115.694(2)
_cell_volume                     493.946
_exptl_crystal_colour            red
_exptl_crystal_description       prism
_cell_formula_units_Z            1
loop_
_atom_site_label
_atom_site_type_symbol
_atom_site_fract_x
_atom_site_fract_y
_atom_site_fract_z
O1 O 0.16640(11) 0.54970(11) 0.19791(9)
O2 O 0.11306(12) 0.61895(12) 0.39501(9)
O3 O 0.31560(12) 0.81017(12) 0.67151(9)
O4 O 0.64278(13) 1.03252(11) 0.83848(10)
C1 C 0.23820(15) 0.62444(14) 0.34154(12)
C2 C 0.47294(14) 0.71748(13) 0.45562(11)
C3 C 0.57898(16) 0.67266(15) 0.38994(12)
H4 H 0.5005 0.5910 0.2834
C4 C 0.79407(17) 0.74292(16) 0.47457(13)
H5 H 0.8613 0.7092 0.4269
C5 C 0.91014(16) 0.86282(16) 0.62943(14)
H6 H 1.0581 0.9131 0.6887
C6 C 0.80899(16) 0.90891(15) 0.69718(13)
H7 H 0.8901 0.9913 0.8036
C7 C 0.59121(15) 0.83860(13) 0.61464(12)
C8 C 0.51163(16) 0.90076(14) 0.71386(12)
H10 H 0.201(3) 0.697(3) 0.521(3)
N1 N 0.26136(13) 0.68470(11) 0.92814(10)
H1 H 0.1247 0.6002 0.8955
H2 H 0.2694 0.7388 0.8475
H3 H 0.3137 0.7747 1.0186
C9 C 0.38396(15) 0.58895(13) 0.96473(11)
C10 C 0.59760(15) 0.69210(13) 1.01699(12)
H8 H 0.6629 0.8232 1.0281
C11 C 0.28450(15) 0.39805(14) 0.94706(12)
H9 H 0.1379 0.3295 0.9109
N1A N 0.73864(13) 0.31530(11) 1.07186(10)
H1A H 0.8753 0.3998 1.1045
H2A H 0.7306 0.2612 1.1525
H3A H 0.6863 0.2253 0.9814
C9A C 0.61604(15) 0.41105(13) 1.03527(11)
C10A C 0.40240(15) 0.30790(13) 0.98301(12)
H8A H 0.3371 0.1768 0.9719
C11A C 0.71550(15) 0.60195(14) 1.05294(12)
H9A H 0.8621 0.6705 1.0891
loop_
_geom_bond_atom_site_label_1
_geom_bond_atom_site_label_2
_geom_bond_site_symmetry_1
_geom_bond_site_symmetry_2
O1 C1 1_555 1_555
O2 C1 1_555 1_555
O3 C8 1_555 1_555
O4 C8 1_555 1_555
N1 H1 1_555 1_555
H2 N1 1_555 1_555
H3 N1 1_555 1_555
C1 C2 1_555 1_555
C2 C3 1_555 1_555
C3 H4 1_555 1_555
C4 C3 1_555 1_555
H5 C4 1_555 1_555
C5 C4 1_555 1_555
H6 C5 1_555 1_555
C6 C5 1_555 1_555
H7 C6 1_555 1_555
C7 C2 1_555 1_555
C8 C7 1_555 1_555
C9 N1 1_555 1_555
C10 C9 1_555 1_555
H8 C10 1_555 1_555
C11 C9 1_555 1_555
H9 C11 1_555 1_555
H10 O2 1_555 1_555
N1A H1A 1_555 1_555
H2A N1A 1_555 1_555
H3A N1A 1_555 1_555
C9A N1A 1_555 1_555
C10A C11 1_555 1_555
H8A C10A 1_555 1_555
C11A C10 1_555 1_555
H9A C11A 1_555 1_555
C6 C7 1_555 1_555
C9A C10A 1_555 1_555
C9A C11A 1_555 1_555

#END
