
#######################################################################
#
#                 Cambridge Crystallographic Data Centre
#                                CCDC 
#
#######################################################################
#
# If this CIF has been generated from an entry in the Cambridge 
# Structural Database, then it will include bibliographic, chemical, 
# crystal, experimental, refinement or atomic coordinate data resulting 
# from the CCDC's data processing and validation procedures.
#
#######################################################################

data_NEVMUX
_chemical_formula_moiety         
'C36 H36 N24 O12,C16 H22 N2 2+,2(Br1 1-),6.5(H2 O1)'
_chemical_name_systematic        
'Cucurbit(6)uril hexane-1,6-diyldipyridinium dibromide pseudorotaxane hydrate'
_symmetry_cell_setting           monoclinic
_symmetry_space_group_name_H-M   'P 21/c'
_symmetry_Int_Tables_number      14
_space_group_name_Hall           '-P 2ybc'
loop_
_symmetry_equiv_pos_site_id
_symmetry_equiv_pos_as_xyz
1 x,y,z
2 -x,1/2+y,1/2-z
3 -x,-y,-z
4 x,1/2-y,1/2+z
_cell_length_a                   12.7444(6)
_cell_length_b                   20.2909(8)
_cell_length_c                   12.1950(5)
_cell_angle_alpha                90
_cell_angle_beta                 106.732(2)
_cell_angle_gamma                90
_cell_volume                     3020.05
_exptl_crystal_colour            colorless
_exptl_crystal_description       prism
_cell_formula_units_Z            2
loop_
_atom_site_label
_atom_site_type_symbol
_atom_site_fract_x
_atom_site_fract_y
_atom_site_fract_z
C1 C 0.14840(12) -0.04328(9) 0.33582(14)
C2 C 0.15931(13) 0.00307(8) 0.16349(14)
H1 H 0.1009 -0.0031 0.0894
C3 C 0.12766(13) 0.05742(8) 0.23790(13)
H2 H 0.0522 0.0748 0.2015
C4 C 0.28350(13) 0.09086(9) 0.18680(13)
C5 C 0.09178(13) 0.05003(9) 0.43321(14)
H3 H 0.0263 0.0770 0.3967
H4 H 0.0681 0.0131 0.4736
C6 C 0.21022(14) 0.17066(8) 0.29802(14)
H5 H 0.1339 0.1870 0.2795
H6 H 0.2523 0.2019 0.2648
C7 C 0.21391(13) 0.07058(9) 0.62706(14)
C8 C 0.19151(13) 0.15857(8) 0.49871(14)
H7 H 0.1228 0.1854 0.4774
C9 C 0.26937(13) 0.17967(8) 0.61633(14)
H8 H 0.2380 0.2171 0.6500
C10 C 0.35506(14) 0.19890(8) 0.47369(14)
C11 C 0.33900(13) 0.11691(9) 0.80461(14)
H9 H 0.3291 0.1585 0.8428
H10 H 0.3088 0.0807 0.8408
C12 C 0.45850(14) 0.23381(9) 0.66867(15)
H11 H 0.4924 0.2639 0.6247
H12 H 0.4289 0.2612 0.7201
C13 C 0.50178(14) 0.04571(9) 0.85730(14)
C14 C 0.53503(14) 0.15819(9) 0.84063(15)
H13 H 0.5260 0.1906 0.8991
C15 C 0.64605(14) 0.12107(9) 0.88207(15)
H14 H 0.6906 0.1371 0.9589
C16 C 0.63863(14) 0.17880(9) 0.71314(15)
C17 C 0.18777(14) -0.12052(9) 0.19587(16)
H15 H 0.1598 -0.1530 0.2412
H16 H 0.1440 -0.1252 0.1148
C18 C 0.31148(14) -0.00046(9) 0.06526(14)
H17 H 0.2539 -0.0175 -0.0018
H18 H 0.3517 0.0346 0.0378
N1 N 0.17164(11) -0.05497(7) 0.23459(12)
N2 N 0.13481(11) 0.02341(7) 0.34494(11)
N3 N 0.25961(11) 0.02805(7) 0.14531(11)
N4 N 0.20997(11) 0.10719(7) 0.24525(12)
N5 N 0.16943(12) 0.08996(7) 0.51586(12)
N6 N 0.27762(12) 0.12078(7) 0.68459(12)
N7 N 0.25670(11) 0.16990(7) 0.42099(12)
N8 N 0.36864(11) 0.19910(7) 0.58939(11)
N9 N 0.45495(12) 0.10566(8) 0.82314(15)
N10 N 0.38677(11) -0.05338(7) 0.11316(12)
N11 N 0.54204(12) 0.19088(8) 0.73743(12)
N12 N 0.30136(12) -0.13587(7) 0.20559(13)
O1 O 0.14108(10) -0.08456(6) 0.40598(10)
O2 O 0.19797(10) 0.01750(6) 0.66703(10)
O3 O 0.45272(10) -0.00520(6) 0.86171(10)
O4 O 0.35603(10) 0.12597(6) 0.17393(10)
O5 O 0.41948(10) 0.22075(6) 0.42568(10)
O6 O 0.66775(10) 0.20317(7) 0.63558(11)
C1B C 0.85160(12) 0.04328(9) 0.66418(14)
C2B C 0.84069(13) -0.00307(8) 0.83651(14)
H1B H 0.8991 0.0031 0.9106
C3B C 0.87234(13) -0.05742(8) 0.76210(13)
H2B H 0.9478 -0.0748 0.7985
C4B C 0.71650(13) -0.09086(9) 0.81320(13)
C5B C 0.90822(13) -0.05003(9) 0.56679(14)
H3B H 0.9737 -0.0770 0.6033
H4B H 0.9319 -0.0131 0.5264
C6B C 0.78978(14) -0.17066(8) 0.70198(14)
H5B H 0.8661 -0.1870 0.7205
H6B H 0.7477 -0.2019 0.7352
C7B C 0.78609(13) -0.07058(9) 0.37294(14)
C8B C 0.80849(13) -0.15857(8) 0.50129(14)
H7B H 0.8772 -0.1854 0.5226
C9B C 0.73063(13) -0.17967(8) 0.38367(14)
H8B H 0.7620 -0.2171 0.3500
C10B C 0.64494(14) -0.19890(8) 0.52631(14)
C11B C 0.66100(13) -0.11691(9) 0.19539(14)
H9B H 0.6709 -0.1585 0.1572
H10B H 0.6912 -0.0807 0.1592
C12B C 0.54150(14) -0.23381(9) 0.33133(15)
H11B H 0.5076 -0.2639 0.3753
H12B H 0.5711 -0.2612 0.2799
C13B C 0.49822(14) -0.04571(9) 0.14270(14)
C14B C 0.46497(14) -0.15819(9) 0.15937(15)
H13B H 0.4740 -0.1906 0.1009
C15B C 0.35395(14) -0.12107(9) 0.11793(15)
H14B H 0.3094 -0.1371 0.0411
C16B C 0.36137(14) -0.17880(9) 0.28686(15)
C17B C 0.81223(14) 0.12052(9) 0.80413(16)
H15B H 0.8402 0.1530 0.7588
H16B H 0.8560 0.1252 0.8852
C18B C 0.68852(14) 0.00046(9) 0.93474(14)
H17B H 0.7461 0.0175 1.0018
H18B H 0.6483 -0.0346 0.9622
N1B N 0.82836(11) 0.05497(7) 0.76541(12)
N2B N 0.86519(11) -0.02341(7) 0.65506(11)
N3B N 0.74039(11) -0.02805(7) 0.85469(11)
N4B N 0.79003(11) -0.10719(7) 0.75475(12)
N5B N 0.83057(12) -0.08996(7) 0.48414(12)
N6B N 0.72238(12) -0.12078(7) 0.31541(12)
N7B N 0.74330(11) -0.16990(7) 0.57901(12)
N8B N 0.63136(11) -0.19910(7) 0.41061(11)
N9B N 0.54505(12) -0.10566(8) 0.17686(15)
N10B N 0.61323(11) 0.05338(7) 0.88684(12)
N11B N 0.45796(12) -0.19088(8) 0.26257(12)
N12B N 0.69864(12) 0.13587(7) 0.79441(13)
O1B O 0.85892(10) 0.08456(6) 0.59402(10)
O2B O 0.80203(10) -0.01750(6) 0.33297(10)
O3B O 0.54728(10) 0.00520(6) 0.13829(10)
O4B O 0.64397(10) -0.12597(6) 0.82607(10)
O5B O 0.58052(10) -0.22075(6) 0.57432(10)
O6B O 0.33225(10) -0.20317(7) 0.36442(11)
Br1 Br -0.120949(16) -0.171673(10) 0.080682(16)
C19 C 0.72785(17) 0.18768(9) 0.41029(15)
H19 H 0.6980 0.2024 0.4689
C20 C 0.82068(17) 0.21729(10) 0.39629(17)
H20 H 0.8549 0.2525 0.4449
C21 C 0.86316(15) 0.19523(10) 0.31093(18)
H21 H 0.9261 0.2158 0.2993
C22 C 0.81433(15) 0.14342(10) 0.24271(17)
H22 H 0.8439 0.1273 0.1847
C23 C 0.72197(15) 0.11513(9) 0.25948(16)
H23 H 0.6878 0.0791 0.2130
C24 C 0.57753(14) 0.10860(10) 0.35465(16)
H24 H 0.5359 0.0884 0.2811
H25 H 0.5316 0.1439 0.3729
C25 C 0.59907(14) 0.05691(9) 0.44750(16)
H26 H 0.6369 0.0773 0.5222
H27 H 0.6475 0.0223 0.4316
C26 C 0.49180(14) 0.02584(10) 0.45349(16)
H28 H 0.4432 0.0609 0.4676
H29 H 0.4548 0.0053 0.3787
N13 N 0.67983(11) 0.13817(7) 0.34123(12)
C19B C 0.27215(17) -0.18768(9) 0.58971(15)
H19B H 0.3020 -0.2024 0.5311
C20B C 0.17932(17) -0.21729(10) 0.60371(17)
H20B H 0.1451 -0.2525 0.5551
C21B C 0.13684(15) -0.19523(10) 0.68907(18)
H21B H 0.0739 -0.2158 0.7007
C22B C 0.18567(15) -0.14342(10) 0.75729(17)
H22B H 0.1561 -0.1273 0.8153
C23B C 0.27803(15) -0.11513(9) 0.74052(16)
H23B H 0.3122 -0.0791 0.7870
C24B C 0.42247(14) -0.10860(10) 0.64535(16)
H24B H 0.4641 -0.0884 0.7189
H25B H 0.4684 -0.1439 0.6271
C25B C 0.40093(14) -0.05691(9) 0.55250(16)
H26B H 0.3631 -0.0773 0.4778
H27B H 0.3525 -0.0223 0.5684
C26B C 0.50820(14) -0.02584(10) 0.54651(16)
H28B H 0.5568 -0.0609 0.5324
H29B H 0.5452 -0.0053 0.6213
N13B N 0.32017(11) -0.13817(7) 0.65877(12)
O7 O 0.96939(11) 0.18048(7) 0.09445(12)
H30 H 1.0127 0.1725 0.0578
H31 H 0.9792 0.2223 0.1085
O8 O 0.09247(11) 0.01303(7) 0.84361(11)
H32 H 0.1180 0.0123 0.7874
H33 H 0.0981 0.0561 0.8612
O9 O -0.01630(12) -0.18612(7) 0.35809(12)
H34 H 0.0351 -0.1563 0.3744
H35 H -0.0435 -0.1797 0.2868
O10 O 0.4886(4) -0.1272(2) 0.9443(4)
H36 H 0.4809 -0.0869 0.9591
H37 H 0.4823 -0.1299 0.8731
loop_
_geom_bond_atom_site_label_1
_geom_bond_atom_site_label_2
_geom_bond_site_symmetry_1
_geom_bond_site_symmetry_2
C1 N1 1_555 1_555
C2 H1 1_555 1_555
C3 C2 1_555 1_555
H2 C3 1_555 1_555
C4 N3 1_555 1_555
C5 H3 1_555 1_555
H4 C5 1_555 1_555
C6 H5 1_555 1_555
H6 C6 1_555 1_555
C7 N5 1_555 1_555
C8 H7 1_555 1_555
C9 C8 1_555 1_555
H8 C9 1_555 1_555
C10 N7 1_555 1_555
C11 H9 1_555 1_555
H10 C11 1_555 1_555
C12 H11 1_555 1_555
H12 C12 1_555 1_555
C13 N9 1_555 1_555
C14 H13 1_555 1_555
C15 C14 1_555 1_555
H14 C15 1_555 1_555
C16 N11 1_555 1_555
C17 H15 1_555 1_555
H16 C17 1_555 1_555
C18 H17 1_555 1_555
H18 C18 1_555 1_555
N1 C2 1_555 1_555
N2 C1 1_555 1_555
N3 C2 1_555 1_555
N4 C3 1_555 1_555
N5 C5 1_555 1_555
N6 C7 1_555 1_555
N7 C6 1_555 1_555
N8 C9 1_555 1_555
N9 C11 1_555 1_555
N10 C18 1_555 1_555
N11 C12 1_555 1_555
N12 C17 1_555 1_555
O1 C1 1_555 1_555
O2 C7 1_555 1_555
O3 C13 1_555 1_555
O4 C4 1_555 1_555
O5 C10 1_555 1_555
O6 C16 1_555 1_555
C19 H19 1_555 1_555
C20 C19 1_555 1_555
H20 C20 1_555 1_555
C21 C20 1_555 1_555
H21 C21 1_555 1_555
C22 C21 1_555 1_555
H22 C22 1_555 1_555
C23 C22 1_555 1_555
H23 C23 1_555 1_555
C24 H24 1_555 1_555
H25 C24 1_555 1_555
C25 C24 1_555 1_555
H26 C25 1_555 1_555
H27 C25 1_555 1_555
C26 C25 1_555 1_555
H28 C26 1_555 1_555
H29 C26 1_555 1_555
N13 C19 1_555 1_555
O7 H30 1_555 1_555
H31 O7 1_555 1_555
O8 H32 1_555 1_555
H33 O8 1_555 1_555
O9 H34 1_555 1_555
H35 O9 1_555 1_555
O10 H36 1_555 1_555
H37 O10 1_555 1_555
C1B N1B 1_555 1_555
C2B H1B 1_555 1_555
C3B C2B 1_555 1_555
H2B C3B 1_555 1_555
C4B N3B 1_555 1_555
C5B H3B 1_555 1_555
H4B C5B 1_555 1_555
C6B H5B 1_555 1_555
H6B C6B 1_555 1_555
C7B N5B 1_555 1_555
C8B H7B 1_555 1_555
C9B C8B 1_555 1_555
H8B C9B 1_555 1_555
C10B N7B 1_555 1_555
C11B H9B 1_555 1_555
H10B C11B 1_555 1_555
C12B H11B 1_555 1_555
H12B C12B 1_555 1_555
C13B N10 1_555 1_555
C14B H13B 1_555 1_555
C15B N10 1_555 1_555
H14B C15B 1_555 1_555
C16B N12 1_555 1_555
C17B H15B 1_555 1_555
H16B C17B 1_555 1_555
C18B H17B 1_555 1_555
H18B C18B 1_555 1_555
N1B C2B 1_555 1_555
N2B C1B 1_555 1_555
N3B C2B 1_555 1_555
N4B C3B 1_555 1_555
N5B C5B 1_555 1_555
N6B C7B 1_555 1_555
N7B C6B 1_555 1_555
N8B C9B 1_555 1_555
N9B C11B 1_555 1_555
N10B C13 1_555 1_555
N11B C12B 1_555 1_555
N12B C15 1_555 1_555
O1B C1B 1_555 1_555
O2B C7B 1_555 1_555
O3B C13B 1_555 1_555
O4B C4B 1_555 1_555
O5B C10B 1_555 1_555
O6B C16B 1_555 1_555
C19B H19B 1_555 1_555
C20B C19B 1_555 1_555
H20B C20B 1_555 1_555
C21B C20B 1_555 1_555
H21B C21B 1_555 1_555
C22B C21B 1_555 1_555
H22B C22B 1_555 1_555
C23B C22B 1_555 1_555
H23B C23B 1_555 1_555
C24B H24B 1_555 1_555
H25B C24B 1_555 1_555
C25B C24B 1_555 1_555
H26B C25B 1_555 1_555
H27B C25B 1_555 1_555
C26B C26 1_555 1_555
H28B C26B 1_555 1_555
H29B C26B 1_555 1_555
N13B C19B 1_555 1_555
C3 N2 1_555 1_555
C4 N4 1_555 1_555
C5 N2 1_555 1_555
C6 N4 1_555 1_555
C8 N5 1_555 1_555
C8 N7 1_555 1_555
C9 N6 1_555 1_555
C10 N8 1_555 1_555
C11 N6 1_555 1_555
C12 N8 1_555 1_555
C14 N9 1_555 1_555
C14 N11 1_555 1_555
C15 N10B 1_555 1_555
C16 N12B 1_555 1_555
C17 N1 1_555 1_555
C18 N3 1_555 1_555
N12 C15B 1_555 1_555
C23 N13 1_555 1_555
C24 N13 1_555 1_555
C3B N2B 1_555 1_555
C4B N4B 1_555 1_555
C5B N2B 1_555 1_555
C6B N4B 1_555 1_555
C8B N5B 1_555 1_555
C8B N7B 1_555 1_555
C9B N6B 1_555 1_555
C10B N8B 1_555 1_555
C11B N6B 1_555 1_555
C12B N8B 1_555 1_555
C13B N9B 1_555 1_555
C14B C15B 1_555 1_555
C14B N9B 1_555 1_555
C14B N11B 1_555 1_555
C16B N11B 1_555 1_555
C17B N1B 1_555 1_555
C17B N12B 1_555 1_555
C18B N3B 1_555 1_555
C18B N10B 1_555 1_555
C23B N13B 1_555 1_555
C24B N13B 1_555 1_555
C25B C26B 1_555 1_555

#END
