
#######################################################################
#
#                 Cambridge Crystallographic Data Centre
#                                CCDC 
#
#######################################################################
#
# If this CIF has been generated from an entry in the Cambridge 
# Structural Database, then it will include bibliographic, chemical, 
# crystal, experimental, refinement or atomic coordinate data resulting 
# from the CCDC's data processing and validation procedures.
#
#######################################################################

data_NEVMAF
_chemical_formula_moiety         'C21 H25 N1 O2'
_chemical_name_systematic        
8,10b-dimethyl-1,3,4,4a,5,7,8,9,10,10a,10b,11-dodecahydro-2H-9,10c-methanocyclopenta[1,8]azuleno[4,5-a]indolizine-2,13-dione
_symmetry_cell_setting           orthorhombic
_symmetry_space_group_name_H-M   'P 21 21 21'
_symmetry_Int_Tables_number      19
_space_group_name_Hall           'P 2ac 2ab'
loop_
_symmetry_equiv_pos_site_id
_symmetry_equiv_pos_as_xyz
1 x,y,z
2 1/2-x,-y,1/2+z
3 1/2+x,1/2-y,-z
4 -x,1/2+y,1/2-z
_cell_length_a                   7.2400(2)
_cell_length_b                   12.6517(4)
_cell_length_c                   17.8211(6)
_cell_angle_alpha                90
_cell_angle_beta                 90
_cell_angle_gamma                90
_cell_volume                     1632.38
_exptl_crystal_colour            colorless
_exptl_crystal_description       block
_cell_formula_units_Z            4
loop_
_atom_site_label
_atom_site_type_symbol
_atom_site_fract_x
_atom_site_fract_y
_atom_site_fract_z
O1 O 0.1267(2) 0.77315(11) 1.00216(8)
O2 O -0.09016(17) 0.84357(9) 0.72961(7)
N1 N 0.3629(2) 0.94312(12) 0.62304(8)
C1 C 0.3987(2) 0.86412(14) 0.68126(10)
H1 H 0.5064 0.8196 0.6681
H2 H 0.2898 0.8182 0.6892
C2 C 0.4381(2) 0.93103(13) 0.75019(9)
H3 H 0.5574 0.9670 0.7381
C3 C 0.2913(2) 1.02176(13) 0.74537(9)
C4 C 0.2920(3) 1.04243(14) 0.65887(10)
H4 H 0.3792 1.1016 0.6476
C5 C 0.2534(3) 0.90498(16) 0.55995(10)
H5 H 0.3084 0.8381 0.5416
H6 H 0.2617 0.9572 0.5187
C6 C 0.0489(3) 0.88546(15) 0.57762(10)
H7 H 0.0366 0.8142 0.6014
C7 C -0.0176(3) 0.97050(14) 0.63471(10)
H8 H -0.1485 0.9893 0.6227
C8 C 0.1011(3) 1.07008(13) 0.62753(10)
H9 H 0.0457 1.1289 0.6564
H10 H 0.1109 1.0917 0.5743
C9 C -0.0108(2) 0.92498(13) 0.71400(10)
C10 C 0.0907(2) 0.99143(12) 0.77290(9)
C11 C 0.0819(2) 0.93681(13) 0.84801(9)
C12 C 0.1685(2) 0.85499(13) 0.88107(10)
C13 C 0.3312(3) 0.79516(14) 0.85289(10)
H11 H 0.2916 0.7466 0.8124
H12 H 0.3835 0.7521 0.8941
C14 C 0.4794(2) 0.87031(14) 0.82285(10)
H13 H 0.5935 0.8287 0.8148
H14 H 0.5065 0.9228 0.8626
C15 C 0.0820(2) 0.83888(14) 0.95578(10)
C16 C -0.0747(3) 0.91977(15) 0.96564(10)
H15 H -0.1963 0.8845 0.9697
H16 H -0.0546 0.9645 1.0105
C17 C -0.0601(2) 0.98301(14) 0.89475(10)
C18 C -0.1323(3) 1.06860(14) 0.86164(10)
H17 H -0.2258 1.1116 0.8832
C19 C -0.0469(2) 1.08809(13) 0.78611(10)
H18 H 0.0211 1.1560 0.7857
H19 H -0.1429 1.0901 0.7466
C20 C 0.3599(3) 1.11783(14) 0.78926(11)
H20 H 0.4915 1.1288 0.7790
H21 H 0.3419 1.1057 0.8431
H22 H 0.2902 1.1806 0.7738
C21 C -0.0651(3) 0.88677(17) 0.50582(11)
H23 H -0.0589 0.9572 0.4830
H24 H -0.1939 0.8696 0.5176
H25 H -0.0159 0.8343 0.4706
loop_
_geom_bond_atom_site_label_1
_geom_bond_atom_site_label_2
_geom_bond_site_symmetry_1
_geom_bond_site_symmetry_2
O1 C15 1_555 1_555
O2 C9 1_555 1_555
N1 C1 1_555 1_555
C1 H1 1_555 1_555
H2 C1 1_555 1_555
C2 C1 1_555 1_555
H3 C2 1_555 1_555
C3 C2 1_555 1_555
C4 N1 1_555 1_555
H4 C4 1_555 1_555
C5 N1 1_555 1_555
H5 C5 1_555 1_555
H6 C5 1_555 1_555
C6 C5 1_555 1_555
H7 C6 1_555 1_555
C7 C6 1_555 1_555
H8 C7 1_555 1_555
C8 C4 1_555 1_555
H9 C8 1_555 1_555
H10 C8 1_555 1_555
C9 C7 1_555 1_555
C10 C3 1_555 1_555
C11 C10 1_555 1_555
C12 C11 1_555 1_555
C13 C12 1_555 1_555
H11 C13 1_555 1_555
H12 C13 1_555 1_555
C14 C2 1_555 1_555
H13 C14 1_555 1_555
H14 C14 1_555 1_555
C15 C12 1_555 1_555
C16 C15 1_555 1_555
H15 C16 1_555 1_555
H16 C16 1_555 1_555
C17 C11 1_555 1_555
C18 C17 1_555 1_555
H17 C18 1_555 1_555
C19 C10 1_555 1_555
H18 C19 1_555 1_555
H19 C19 1_555 1_555
C20 C3 1_555 1_555
H20 C20 1_555 1_555
H21 C20 1_555 1_555
H22 C20 1_555 1_555
C21 C6 1_555 1_555
H23 C21 1_555 1_555
H24 C21 1_555 1_555
H25 C21 1_555 1_555
C3 C4 1_555 1_555
C7 C8 1_555 1_555
C9 C10 1_555 1_555
C13 C14 1_555 1_555
C16 C17 1_555 1_555
C18 C19 1_555 1_555

#END
