
#######################################################################
#
#                 Cambridge Crystallographic Data Centre
#                                CCDC 
#
#######################################################################
#
# If this CIF has been generated from an entry in the Cambridge 
# Structural Database, then it will include bibliographic, chemical, 
# crystal, experimental, refinement or atomic coordinate data resulting 
# from the CCDC's data processing and validation procedures.
#
#######################################################################

data_NEVNEJ
_chemical_formula_moiety         'C26 H22 N2 O8 Te1'
_chemical_name_systematic        
1,1'-(bis(4-nitrophenoxy)-\l^4^-tellanediyl)bis(4-methoxybenzene)
_symmetry_cell_setting           triclinic
_symmetry_space_group_name_H-M   'P -1'
_symmetry_Int_Tables_number      2
_space_group_name_Hall           '-P 1'
loop_
_symmetry_equiv_pos_site_id
_symmetry_equiv_pos_as_xyz
1 x,y,z
2 -x,-y,-z
_cell_length_a                   10.0747(6)
_cell_length_b                   10.4547(6)
_cell_length_c                   12.6379(7)
_cell_angle_alpha                104.5510(10)
_cell_angle_beta                 97.5700(10)
_cell_angle_gamma                100.6360(10)
_cell_volume                     1243.9
_cell_formula_units_Z            2
loop_
_atom_site_label
_atom_site_type_symbol
_atom_site_fract_x
_atom_site_fract_y
_atom_site_fract_z
Te1 Te 0.22111(4) 0.07934(4) 0.28296(3)
O1 O 0.2533(5) 0.0419(5) 0.4414(3)
O2 O 0.5286(5) 0.4886(6) 0.8847(4)
O3 O 0.6740(5) 0.5352(5) 0.7810(4)
O4 O 0.5612(6) 0.0827(6) -0.2029(5)
O5 O 0.4255(6) -0.1145(7) -0.2758(4)
O6 O 0.1461(4) 0.0946(4) 0.1254(3)
O7 O -0.0880(5) -0.5291(4) 0.1166(4)
O8 O -0.2212(5) 0.3796(5) 0.4576(4)
N1 N 0.5688(6) 0.4656(6) 0.7955(5)
N2 N 0.4610(6) -0.0054(7) -0.2047(5)
C1 C 0.3321(7) 0.1417(6) 0.5256(5)
C2 C 0.2862(7) 0.1786(7) 0.6268(5)
H1 H 0.2011 0.1322 0.6335
C3 C 0.3632(7) 0.2808(7) 0.7156(5)
H2 H 0.3326 0.3020 0.7827
C4 C 0.4890(6) 0.3527(6) 0.7035(5)
C5 C 0.5393(6) 0.3195(7) 0.6061(5)
H3 H 0.6237 0.3680 0.5999
C6 C 0.4620(6) 0.2129(6) 0.5176(5)
H4 H 0.4961 0.1880 0.4524
C7 C 0.2259(6) 0.0669(6) 0.0475(5)
C8 C 0.3402(7) 0.1672(7) 0.0463(6)
H5 H 0.3638 0.2498 0.1014
C9 C 0.4165(7) 0.1432(7) -0.0358(6)
H6 H 0.4921 0.2089 -0.0367
C10 C 0.3799(7) 0.0211(7) -0.1166(5)
C11 C 0.2682(7) -0.0796(7) -0.1189(5)
H7 H 0.2449 -0.1613 -0.1750
C12 C 0.1913(7) -0.0552(7) -0.0345(5)
H8 H 0.1164 -0.1217 -0.0337
C13 C 0.1087(6) -0.1228(6) 0.2320(5)
C14 C 0.1629(7) -0.2203(6) 0.2680(5)
H9 H 0.2461 -0.1955 0.3178
C15 C 0.0928(7) -0.3543(6) 0.2296(5)
H10 H 0.1282 -0.4197 0.2548
C16 C -0.0300(7) -0.3926(6) 0.1537(5)
C17 C -0.2134(7) -0.5735(7) 0.0359(6)
H11 H -0.2845 -0.5371 0.0680
H12 H -0.2399 -0.6708 0.0137
H13 H -0.1998 -0.5423 -0.0279
C18 C -0.0848(6) -0.2957(6) 0.1164(5)
H14 H -0.1672 -0.3207 0.0656
C19 C -0.0136(7) -0.1602(7) 0.1567(5)
H15 H -0.0491 -0.0943 0.1325
C20 C 0.0693(6) 0.1787(6) 0.3339(5)
C21 C 0.0503(7) 0.2914(6) 0.3025(5)
H16 H 0.1025 0.3208 0.2541
C22 C -0.0460(7) 0.3630(6) 0.3418(5)
H17 H -0.0572 0.4398 0.3204
C23 C -0.1258(6) 0.3174(6) 0.4139(5)
C24 C -0.2503(8) 0.4909(8) 0.4194(7)
H18 H -0.1682 0.5614 0.4368
H19 H -0.3197 0.5253 0.4555
H20 H -0.2825 0.4607 0.3404
C25 C -0.1070(7) 0.2039(7) 0.4458(5)
H21 H -0.1598 0.1738 0.4937
C26 C -0.0102(6) 0.1341(6) 0.4071(5)
H22 H 0.0022 0.0582 0.4294
loop_
_geom_bond_atom_site_label_1
_geom_bond_atom_site_label_2
_geom_bond_site_symmetry_1
_geom_bond_site_symmetry_2
Te1 O1 1_555 1_555
O1 C1 1_555 1_555
O2 N1 1_555 1_555
O3 N1 1_555 1_555
O4 N2 1_555 1_555
O5 N2 1_555 1_555
O6 Te1 1_555 1_555
O7 C16 1_555 1_555
O8 C23 1_555 1_555
N1 C4 1_555 1_555
N2 C10 1_555 1_555
C1 C2 1_555 1_555
C2 H1 1_555 1_555
C3 C2 1_555 1_555
H2 C3 1_555 1_555
C4 C3 1_555 1_555
C5 C4 1_555 1_555
H3 C5 1_555 1_555
C6 C1 1_555 1_555
H4 C6 1_555 1_555
C7 O6 1_555 1_555
C8 C7 1_555 1_555
H5 C8 1_555 1_555
C9 C8 1_555 1_555
H6 C9 1_555 1_555
C10 C9 1_555 1_555
C11 C10 1_555 1_555
H7 C11 1_555 1_555
C12 C7 1_555 1_555
H8 C12 1_555 1_555
C13 Te1 1_555 1_555
C14 C13 1_555 1_555
H9 C14 1_555 1_555
C15 C14 1_555 1_555
H10 C15 1_555 1_555
C16 C15 1_555 1_555
C17 O7 1_555 1_555
H11 C17 1_555 1_555
H12 C17 1_555 1_555
H13 C17 1_555 1_555
C18 C16 1_555 1_555
H14 C18 1_555 1_555
C19 C13 1_555 1_555
H15 C19 1_555 1_555
C20 Te1 1_555 1_555
C21 C20 1_555 1_555
H16 C21 1_555 1_555
C22 C21 1_555 1_555
H17 C22 1_555 1_555
C23 C22 1_555 1_555
C24 O8 1_555 1_555
H18 C24 1_555 1_555
H19 C24 1_555 1_555
H20 C24 1_555 1_555
C25 C23 1_555 1_555
H21 C25 1_555 1_555
C26 C20 1_555 1_555
H22 C26 1_555 1_555
C5 C6 1_555 1_555
C11 C12 1_555 1_555
C18 C19 1_555 1_555
C25 C26 1_555 1_555

#END
