
#######################################################################
#
#                 Cambridge Crystallographic Data Centre
#                                CCDC 
#
#######################################################################
#
# If this CIF has been generated from an entry in the Cambridge 
# Structural Database, then it will include bibliographic, chemical, 
# crystal, experimental, refinement or atomic coordinate data resulting 
# from the CCDC's data processing and validation procedures.
#
#######################################################################

data_NEVPEM
_chemical_name_common            
'ethyl (E)-2,4-dimethyl-5-((2-tosylhydrazono)methyl)-1H-pyrrole-3-carboxylate monohydrate'
_chemical_formula_moiety         'C17 H21 N3 O4 S1,H2 O1'
_chemical_name_systematic        
'ethyl (E)-2,4-dimethyl-5-({2-[(4-methylphenyl)sulfonyl]hydrazinylidene}methyl)-1H-pyrrole-3-carboxylate monohydrate'
_symmetry_cell_setting           monoclinic
_symmetry_space_group_name_H-M   'P 21/n'
_symmetry_Int_Tables_number      14
_space_group_name_Hall           '-P 2yn'
loop_
_symmetry_equiv_pos_site_id
_symmetry_equiv_pos_as_xyz
1 x,y,z
2 1/2-x,1/2+y,1/2-z
3 -x,-y,-z
4 1/2+x,1/2-y,1/2+z
_cell_length_a                   12.8132(12)
_cell_length_b                   21.4531(19)
_cell_length_c                   15.3438(14)
_cell_angle_alpha                90
_cell_angle_beta                 114.308(2)
_cell_angle_gamma                90
_cell_volume                     3843.83
_exptl_crystal_colour            yellow
_exptl_crystal_description       block
_cell_formula_units_Z            8
loop_
_atom_site_label
_atom_site_type_symbol
_atom_site_fract_x
_atom_site_fract_y
_atom_site_fract_z
S1 S 0.30392(8) 0.14143(5) 0.16004(7)
N1 N 0.4388(3) 0.15944(16) 0.1995(2)
N2 N 0.4641(3) 0.21033(13) 0.1534(2)
N3 N 0.5415(3) 0.30424(15) 0.0646(3)
H1 H 0.4680 0.3013 0.0385
O1 O 0.3017(2) 0.08932(13) 0.2165(2)
O2 O 0.2449(2) 0.19717(12) 0.16361(19)
O3 O 0.8007(3) 0.39974(17) 0.0167(3)
O4 O 0.9133(4) 0.3595(2) 0.1616(3)
C1 C 0.1362(5) 0.0583(2) -0.2506(4)
H2 H 0.1126 0.0941 -0.2917
H3 H 0.0726 0.0303 -0.2661
H4 H 0.1974 0.0375 -0.2595
C2 C 0.1768(3) 0.0787(2) -0.1481(3)
C3 C 0.2154(4) 0.03654(19) -0.0741(4)
H5 H 0.2143 -0.0057 -0.0880
C4 C 0.2555(3) 0.05517(18) 0.0197(3)
H6 H 0.2834 0.0259 0.0686
C5 C 0.2542(3) 0.11772(16) 0.0408(3)
C6 C 0.2144(3) 0.16108(18) -0.0322(3)
H7 H 0.2132 0.2032 -0.0186
C7 C 0.1773(4) 0.14133(19) -0.1240(3)
H8 H 0.1511 0.1708 -0.1728
C8 C 0.5710(3) 0.22161(17) 0.1842(3)
H9 H 0.6223 0.1986 0.2353
C9 C 0.6136(3) 0.26896(17) 0.1416(3)
C10 C 0.7249(4) 0.28787(18) 0.1638(3)
C11 C 0.7171(4) 0.3344(2) 0.0957(4)
C12 C 0.6036(4) 0.34387(19) 0.0365(4)
C13 C 0.8280(4) 0.2604(2) 0.2419(3)
H10 H 0.8550 0.2881 0.2958
H11 H 0.8871 0.2544 0.2195
H12 H 0.8082 0.2210 0.2606
C14 C 0.8110(5) 0.3686(3) 0.0856(5)
C15 C 1.0174(6) 0.3861(4) 0.1605(6)
H13 H 1.0814 0.3579 0.1913
H14 H 1.0080 0.3929 0.0952
C16 C 1.0377(9) 0.4429(5) 0.2102(7)
H15 H 0.9947 0.4754 0.1674
H16 H 1.1178 0.4526 0.2351
H17 H 1.0144 0.4396 0.2620
C17 C 0.5455(5) 0.3879(2) -0.0443(4)
H18 H 0.6020 0.4124 -0.0548
H19 H 0.4957 0.4149 -0.0290
H20 H 0.5014 0.3647 -0.1012
H21 H 0.483(3) 0.1280(12) 0.207(3)
S2 S 1.23520(8) 0.37405(5) -0.03388(7)
N4 N 1.0995(3) 0.35770(15) -0.0740(2)
N5 N 1.0730(3) 0.30573(13) -0.0305(2)
N6 N 0.9934(3) 0.21210(14) 0.0566(2)
H22 H 1.0668 0.2150 0.0829
O5 O 1.2393(2) 0.42835(13) -0.08596(19)
O6 O 1.2908(2) 0.31855(12) -0.0433(2)
O7 O 0.7350(2) 0.11725(13) 0.1053(2)
O8 O 0.6213(3) 0.16203(15) -0.0328(2)
C18 C 1.4084(4) 0.4382(2) 0.3849(3)
H23 H 1.4268 0.4002 0.4211
H24 H 1.3496 0.4600 0.3961
H25 H 1.4755 0.4639 0.4043
C19 C 1.3663(3) 0.4232(2) 0.2794(3)
C20 C 1.3337(4) 0.46920(19) 0.2103(3)
H26 H 1.3388 0.5108 0.2288
C21 C 1.2940(3) 0.45497(17) 0.1148(3)
H27 H 1.2717 0.4864 0.0690
C22 C 1.2876(3) 0.39290(16) 0.0875(3)
C23 C 1.3204(3) 0.34633(17) 0.1557(3)
H28 H 1.3162 0.3048 0.1372
C24 C 1.3589(4) 0.36142(19) 0.2501(3)
H29 H 1.3805 0.3299 0.2957
C25 C 0.9655(3) 0.29535(18) -0.0605(3)
H30 H 0.9143 0.3199 -0.1094
C26 C 0.9224(3) 0.24703(17) -0.0206(3)
C27 C 0.8115(3) 0.22933(17) -0.0416(3)
C28 C 0.8172(3) 0.18241(17) 0.0259(3)
C29 C 0.9312(3) 0.17290(17) 0.0850(3)
C30 C 0.7075(4) 0.2563(2) -0.1214(3)
H31 H 0.6398 0.2367 -0.1221
H32 H 0.7124 0.2492 -0.1814
H33 H 0.7041 0.3004 -0.1116
C31 C 0.7238(4) 0.15017(18) 0.0379(3)
C32 C 0.5208(4) 0.1346(2) -0.0277(4)
H34 H 0.4558 0.1621 -0.0581
H35 H 0.5335 0.1296 0.0387
C33 C 0.4960(6) 0.0743(3) -0.0749(6)
H36 H 0.5582 0.0621 -0.0906
H37 H 0.4269 0.0771 -0.1323
H38 H 0.4864 0.0439 -0.0329
C34 C 0.9889(4) 0.1292(2) 0.1656(3)
H39 H 0.9323 0.1048 0.1761
H40 H 1.0330 0.1524 0.2224
H41 H 1.0387 0.1020 0.1504
H42 H 1.057(3) 0.3896(10) -0.079(3)
O9 O 0.9385(4) 0.4471(2) -0.0726(4)
H43 H 0.8862 0.4309 -0.0594
H44 H 0.9049 0.4572 -0.1312
O10 O 0.6083(3) 0.06713(16) 0.2107(2)
H45 H 0.6584 0.0800 0.1919
H46 H 0.6436 0.0650 0.2712
loop_
_geom_bond_atom_site_label_1
_geom_bond_atom_site_label_2
_geom_bond_site_symmetry_1
_geom_bond_site_symmetry_2
S1 N1 1_555 1_555
N1 N2 1_555 1_555
N2 C8 1_555 1_555
N3 H1 1_555 1_555
O1 S1 1_555 1_555
O2 S1 1_555 1_555
O3 C14 1_555 1_555
O4 C14 1_555 1_555
C1 H2 1_555 1_555
H3 C1 1_555 1_555
H4 C1 1_555 1_555
C2 C1 1_555 1_555
C3 C2 1_555 1_555
H5 C3 1_555 1_555
C4 C3 1_555 1_555
H6 C4 1_555 1_555
C5 S1 1_555 1_555
C6 C5 1_555 1_555
H7 C6 1_555 1_555
C7 C2 1_555 1_555
H8 C7 1_555 1_555
C8 H9 1_555 1_555
C9 N3 1_555 1_555
C10 C9 1_555 1_555
C11 C10 1_555 1_555
C12 N3 1_555 1_555
C13 C10 1_555 1_555
H10 C13 1_555 1_555
H11 C13 1_555 1_555
H12 C13 1_555 1_555
C14 C11 1_555 1_555
C15 O4 1_555 1_555
H13 C15 1_555 1_555
H14 C15 1_555 1_555
C16 C15 1_555 1_555
H15 C16 1_555 1_555
H16 C16 1_555 1_555
H17 C16 1_555 1_555
C17 C12 1_555 1_555
H18 C17 1_555 1_555
H19 C17 1_555 1_555
H20 C17 1_555 1_555
H21 N1 1_555 1_555
S2 N4 1_555 1_555
N4 N5 1_555 1_555
N5 C25 1_555 1_555
N6 H22 1_555 1_555
O5 S2 1_555 1_555
O6 S2 1_555 1_555
O7 C31 1_555 1_555
O8 C31 1_555 1_555
C18 H23 1_555 1_555
H24 C18 1_555 1_555
H25 C18 1_555 1_555
C19 C18 1_555 1_555
C20 C19 1_555 1_555
H26 C20 1_555 1_555
C21 C20 1_555 1_555
H27 C21 1_555 1_555
C22 S2 1_555 1_555
C23 C22 1_555 1_555
H28 C23 1_555 1_555
C24 C19 1_555 1_555
H29 C24 1_555 1_555
C25 H30 1_555 1_555
C26 N6 1_555 1_555
C27 C26 1_555 1_555
C28 C27 1_555 1_555
C29 N6 1_555 1_555
C30 C27 1_555 1_555
H31 C30 1_555 1_555
H32 C30 1_555 1_555
H33 C30 1_555 1_555
C31 C28 1_555 1_555
C32 O8 1_555 1_555
H34 C32 1_555 1_555
H35 C32 1_555 1_555
C33 C32 1_555 1_555
H36 C33 1_555 1_555
H37 C33 1_555 1_555
H38 C33 1_555 1_555
C34 C29 1_555 1_555
H39 C34 1_555 1_555
H40 C34 1_555 1_555
H41 C34 1_555 1_555
H42 N4 1_555 1_555
O9 H43 1_555 1_555
H44 O9 1_555 1_555
O10 H45 1_555 1_555
H46 O10 1_555 1_555
C4 C5 1_555 1_555
C6 C7 1_555 1_555
C8 C9 1_555 1_555
C11 C12 1_555 1_555
C21 C22 1_555 1_555
C23 C24 1_555 1_555
C25 C26 1_555 1_555
C28 C29 1_555 1_555

#END
