
#######################################################################
#
#                 Cambridge Crystallographic Data Centre
#                                CCDC 
#
#######################################################################
#
# If this CIF has been generated from an entry in the Cambridge 
# Structural Database, then it will include bibliographic, chemical, 
# crystal, experimental, refinement or atomic coordinate data resulting 
# from the CCDC's data processing and validation procedures.
#
#######################################################################

data_NEVPAI
_chemical_formula_moiety         
'2(C20 H18 N1 O4 1+),C8 H8 O4,5(H2 O1),2(Cl1 1-)'
_chemical_name_systematic        
'bis(9,10-dimethoxy-5,6-dihydro-2H-[1,3]dioxolo[4,5-g]isoquinolino[3,2-a]isoquinolin-7-ium) dichloride 4-hydroxy-3-methoxybenzoic acid pentahydrate'
_symmetry_cell_setting           orthorhombic
_symmetry_space_group_name_H-M   'P n m a'
_symmetry_Int_Tables_number      62
_space_group_name_Hall           '-P 2ac 2n'
loop_
_symmetry_equiv_pos_site_id
_symmetry_equiv_pos_as_xyz
1 x,y,z
2 1/2-x,-y,1/2+z
3 1/2+x,1/2-y,1/2-z
4 -x,1/2+y,-z
5 -x,-y,-z
6 1/2+x,y,1/2-z
7 1/2-x,1/2+y,1/2+z
8 x,1/2-y,z
_cell_length_a                   28.3651(8)
_cell_length_b                   22.8464(6)
_cell_length_c                   7.1341(2)
_cell_angle_alpha                90
_cell_angle_beta                 90
_cell_angle_gamma                90
_cell_volume                     4623.19
_exptl_crystal_colour            yellow
_exptl_crystal_description       prism
_cell_formula_units_Z            4
loop_
_atom_site_label
_atom_site_type_symbol
_atom_site_fract_x
_atom_site_fract_y
_atom_site_fract_z
Cl1 Cl 0.439449(16) 0.360804(18) 0.89645(6)
O1 O 0.09438(7) 0.2500 0.8930(2)
O2 O 0.05317(7) 0.2500 0.6249(3)
O3 O 0.25596(7) 0.2500 0.2749(3)
O4 O 0.26525(7) 0.2500 0.6487(2)
C1 C 0.09285(10) 0.2500 0.7222(3)
C2 C 0.13563(10) 0.2500 0.6024(3)
C3 C 0.17990(10) 0.2500 0.6893(3)
H1 H 0.1821 0.2500 0.8221
C4 C 0.22037(10) 0.2500 0.5819(3)
C5 C 0.13234(10) 0.2500 0.4079(3)
H2 H 0.1024 0.2500 0.3486
C6 C 0.17342(11) 0.2500 0.3006(3)
H3 H 0.1712 0.2500 0.1677
C7 C 0.21707(10) 0.2500 0.3838(3)
C8 C 0.27111(11) 0.2500 0.8489(4)
H4 H 0.3048 0.2500 0.8794
H5 H 0.2563 0.2150 0.9019
H6 H 0.2841 0.2500 0.3190
H7 H 0.0302 0.2500 0.6986
H5G H 0.2563 0.2850 0.9019
O5 O 0.33676(5) 0.49070(6) 0.6413(2)
O6 O 0.31666(5) 0.58729(6) 0.5784(2)
O7 O 0.68197(4) 0.55437(6) 0.79299(17)
O8 O 0.71289(5) 0.45147(6) 0.92508(19)
N1 N 0.54008(5) 0.58017(6) 0.68287(18)
C9 C 0.29843(7) 0.52899(9) 0.5905(3)
H8 H 0.2850 0.5170 0.4684
H9 H 0.2732 0.5271 0.6863
C10 C 0.36409(6) 0.58293(9) 0.6112(2)
C11 C 0.37625(6) 0.52546(8) 0.6487(2)
C12 C 0.42157(6) 0.50855(8) 0.6833(2)
H10 H 0.4295 0.4688 0.7061
C13 C 0.39671(6) 0.62703(8) 0.6124(2)
H11 H 0.3880 0.6664 0.5871
C14 C 0.44345(6) 0.61163(8) 0.6524(2)
C15 C 0.45624(6) 0.55318(7) 0.6836(2)
C16 C 0.48061(6) 0.65846(8) 0.6695(2)
H12 H 0.4706 0.6938 0.6000
H13 H 0.4848 0.6692 0.8029
C17 C 0.52651(6) 0.63618(8) 0.5910(2)
H14 H 0.5233 0.6300 0.4543
H15 H 0.5515 0.6657 0.6117
C18 C 0.50580(6) 0.53834(7) 0.7213(2)
C19 C 0.52081(6) 0.48505(7) 0.7891(2)
H16 H 0.4981 0.4555 0.8144
C20 C 0.58546(6) 0.57152(8) 0.7190(2)
H17 H 0.6073 0.6021 0.6943
C21 C 0.60194(6) 0.51862(7) 0.7925(2)
C22 C 0.56892(6) 0.47297(7) 0.8223(2)
C23 C 0.58575(6) 0.41801(8) 0.8835(2)
H18 H 0.5643 0.3866 0.9024
C24 C 0.63308(7) 0.40988(8) 0.9157(2)
H19 H 0.6440 0.3726 0.9550
C25 C 0.66587(6) 0.45612(8) 0.8913(2)
C26 C 0.65048(6) 0.51018(8) 0.8295(2)
C27 C 0.68877(7) 0.59418(9) 0.9471(3)
H20 H 0.6585 0.6118 0.9816
H21 H 0.7109 0.6251 0.9099
H22 H 0.7016 0.5728 1.0548
C28 C 0.73217(7) 0.39435(9) 0.9578(3)
H23 H 0.7189 0.3782 1.0737
H24 H 0.7665 0.3972 0.9695
H25 H 0.7242 0.3686 0.8525
O9 O 0.41448(11) 0.2500 1.1436(3)
H26 H 0.4150 0.2785 1.0632
H26G H 0.4150 0.2215 1.0632
O10 O 0.34335(8) 0.2500 0.3979(3)
O11 O 0.35582(6) 0.35519(8) 0.5939(3)
H27 H 0.3793 0.3526 0.6778
H28 H 0.3502 0.3931 0.6122
O12 O 0.47481(7) 0.2500 0.6855(2)
H29 H 0.4615 0.2811 0.7454
H29G H 0.4615 0.2189 0.7454
H30? H 0.2563 0.2150 0.9019
H31? H 0.3547 0.2792 0.4694
H32? H 0.3629 0.2500 0.2979
loop_
_geom_bond_atom_site_label_1
_geom_bond_atom_site_label_2
_geom_bond_site_symmetry_1
_geom_bond_site_symmetry_2
O1 C1 1_555 1_555
O2 C1 1_555 1_555
O3 C7 1_555 1_555
O4 C4 1_555 1_555
C1 C2 1_555 1_555
C2 C3 1_555 1_555
C3 H1 1_555 1_555
C4 C3 1_555 1_555
C5 C2 1_555 1_555
H2 C5 1_555 1_555
C6 C5 1_555 1_555
H3 C6 1_555 1_555
C7 C4 1_555 1_555
C8 O4 1_555 1_555
H4 C8 1_555 1_555
H5 C8 1_555 1_555
H6 O3 1_555 1_555
H7 O2 1_555 1_555
O5 C9 1_555 1_555
O6 C9 1_555 1_555
O7 C26 1_555 1_555
O8 C25 1_555 1_555
N1 C17 1_555 1_555
C9 H8 1_555 1_555
H9 C9 1_555 1_555
C10 O6 1_555 1_555
C11 O5 1_555 1_555
C12 C11 1_555 1_555
H10 C12 1_555 1_555
C13 C10 1_555 1_555
H11 C13 1_555 1_555
C14 C13 1_555 1_555
C15 C12 1_555 1_555
C16 C14 1_555 1_555
H12 C16 1_555 1_555
H13 C16 1_555 1_555
C17 C16 1_555 1_555
H14 C17 1_555 1_555
H15 C17 1_555 1_555
C18 N1 1_555 1_555
C19 C18 1_555 1_555
H16 C19 1_555 1_555
C20 N1 1_555 1_555
H17 C20 1_555 1_555
C21 C20 1_555 1_555
C22 C19 1_555 1_555
C23 C22 1_555 1_555
H18 C23 1_555 1_555
C24 C23 1_555 1_555
H19 C24 1_555 1_555
C25 C24 1_555 1_555
C26 C21 1_555 1_555
C27 O7 1_555 1_555
H20 C27 1_555 1_555
H21 C27 1_555 1_555
H22 C27 1_555 1_555
C28 O8 1_555 1_555
H23 C28 1_555 1_555
H24 C28 1_555 1_555
H25 C28 1_555 1_555
O9 H26 1_555 1_555
O11 H27 1_555 1_555
H28 O11 1_555 1_555
O12 H29 1_555 1_555
H5G C8 1_555 1_555
H26G O9 1_555 1_555
H29G O12 1_555 1_555
C6 C7 1_555 1_555
C10 C11 1_555 1_555
C14 C15 1_555 1_555
C15 C18 1_555 1_555
C21 C22 1_555 1_555
C25 C26 1_555 1_555

#END
