
#######################################################################
#
#                 Cambridge Crystallographic Data Centre
#                                CCDC 
#
#######################################################################
#
# If this CIF has been generated from an entry in the Cambridge 
# Structural Database, then it will include bibliographic, chemical, 
# crystal, experimental, refinement or atomic coordinate data resulting 
# from the CCDC's data processing and validation procedures.
#
#######################################################################

data_NEVVOA
_chemical_formula_moiety         'C60 H46 N2 O8 S2,4(C3 H6 O1)'
_chemical_name_systematic        
"N,N'-bis(2-methoxy-1-((triphenylmethylthio)methyl)-2-oxoethyl)-1,8:4,5-naphthalenetetracarboximide acetone solvate"
_symmetry_cell_setting           triclinic
_symmetry_space_group_name_H-M   'P -1'
_symmetry_Int_Tables_number      2
_space_group_name_Hall           '-P 1'
loop_
_symmetry_equiv_pos_site_id
_symmetry_equiv_pos_as_xyz
1 x,y,z
2 -x,-y,-z
_cell_length_a                   9.7265(2)
_cell_length_b                   10.9164(2)
_cell_length_c                   15.6345(3)
_cell_angle_alpha                107.1620(10)
_cell_angle_beta                 99.4670(10)
_cell_angle_gamma                94.4470(10)
_cell_volume                     1550.47
_exptl_crystal_colour            colorless
_exptl_crystal_description       block
_cell_formula_units_Z            1
loop_
_atom_site_label
_atom_site_type_symbol
_atom_site_fract_x
_atom_site_fract_y
_atom_site_fract_z
N1 N 0.72903(15) 0.23441(14) 0.96052(10)
S1 S 0.86710(5) 0.18762(5) 0.78109(3)
O1 O 0.91318(13) 0.12630(14) 0.98912(11)
O2 O 0.54744(14) 0.34727(13) 0.93744(10)
O3 O 0.79059(16) 0.46022(13) 1.09121(10)
O4 O 0.83463(16) 0.56778(13) 0.99413(11)
C1 C 0.73903(18) -0.07670(17) 1.01114(13)
H1 H 0.8353 -0.0870 1.0124
C2 C 0.68924(17) 0.03106(16) 0.99476(12)
C3 C 0.54606(16) 0.04727(15) 0.99218(11)
C4 C 0.49246(17) 0.15589(16) 0.97449(12)
C5 C 0.64708(18) -0.17125(17) 1.02597(13)
H2 H 0.6813 -0.2459 1.0363
C6 C 0.78772(17) 0.13128(16) 0.98146(12)
C7 C 0.58743(17) 0.25314(16) 0.95559(12)
C8 C 0.81364(18) 0.46815(17) 1.01128(13)
C9 C 0.82425(18) 0.33544(16) 0.94702(13)
H3 H 0.9222 0.3167 0.9644
C10 C 0.8043(2) 0.33227(18) 0.84734(13)
H4 H 0.8575 0.4105 0.8429
H5 H 0.7035 0.3312 0.8228
C11 C 0.74152(18) 0.13276(18) 0.66926(13)
C12 C 0.7581(2) 0.22069(19) 0.60978(13)
C13 C 0.6863(2) 0.1767(2) 0.51854(14)
H6 H 0.6299 0.0945 0.4957
C14 C 0.6964(2) 0.2512(2) 0.46113(16)
H7 H 0.6459 0.2205 0.3998
C15 C 0.7797(3) 0.3702(2) 0.49278(17)
H8 H 0.7862 0.4215 0.4536
C16 C 0.8534(3) 0.4137(2) 0.58183(17)
H9 H 0.9118 0.4947 0.6036
C17 C 0.8427(2) 0.3395(2) 0.64020(15)
H10 H 0.8940 0.3707 0.7013
C18 C 0.7878(2) 0.00208(19) 0.62081(13)
C19 C 0.6965(2) -0.1132(2) 0.58434(14)
H11 H 0.6008 -0.1139 0.5902
C20 C 0.7437(3) -0.2277(2) 0.53934(16)
H12 H 0.6799 -0.3056 0.5145
C21 C 0.8826(3) -0.2286(2) 0.53064(17)
H13 H 0.9150 -0.3071 0.5012
C22 C 0.9743(3) -0.1142(3) 0.56513(18)
H14 H 1.0697 -0.1141 0.5586
C23 C 0.9277(2) 0.0002(2) 0.60922(16)
H15 H 0.9913 0.0783 0.6319
C24 C 0.59266(19) 0.11830(18) 0.68890(13)
C25 C 0.5593(2) 0.03490(19) 0.73787(14)
H16 H 0.6297 -0.0104 0.7594
C26 C 0.4254(2) 0.0175(2) 0.75541(14)
H17 H 0.4041 -0.0412 0.7872
C27 C 0.3219(2) 0.0857(2) 0.72659(15)
H18 H 0.2302 0.0743 0.7389
C28 C 0.3537(2) 0.1699(3) 0.68009(16)
H19 H 0.2838 0.2175 0.6609
C29 C 0.4886(2) 0.1859(2) 0.66083(15)
H20 H 0.5089 0.2437 0.6282
C30 C 0.7834(3) 0.5809(2) 1.15930(16)
H21 H 0.7813 0.5659 1.2179
H22 H 0.6979 0.6160 1.1404
H23 H 0.8660 0.6427 1.1658
N1A N 0.27097(15) -0.23441(14) 1.03948(10)
S1A S 0.13290(5) -0.18762(5) 1.21891(3)
O1A O 0.08682(13) -0.12630(14) 1.01088(11)
O2A O 0.45256(14) -0.34727(13) 1.06256(10)
O3A O 0.20941(16) -0.46022(13) 0.90879(10)
O4A O 0.16537(16) -0.56778(13) 1.00587(11)
C1A C 0.26097(18) 0.07670(17) 0.98886(13)
H1A H 0.1647 0.0870 0.9876
C2A C 0.31076(17) -0.03106(16) 1.00524(12)
C3A C 0.45394(16) -0.04727(15) 1.00782(11)
C4A C 0.50754(17) -0.15589(16) 1.02551(12)
C5A C 0.35292(18) 0.17125(17) 0.97403(13)
H2A H 0.3187 0.2459 0.9637
C6A C 0.21228(17) -0.13128(16) 1.01854(12)
C7A C 0.41257(17) -0.25314(16) 1.04441(12)
C8A C 0.18636(18) -0.46815(17) 0.98872(13)
C9A C 0.17575(18) -0.33544(16) 1.05298(13)
H3A H 0.0778 -0.3167 1.0356
C10A C 0.1957(2) -0.33227(18) 1.15266(13)
H4A H 0.1425 -0.4105 1.1571
H5A H 0.2965 -0.3312 1.1772
C11A C 0.25848(18) -0.13276(18) 1.33074(13)
C12A C 0.2419(2) -0.22069(19) 1.39022(13)
C13A C 0.3137(2) -0.1767(2) 1.48146(14)
H6A H 0.3701 -0.0945 1.5043
C14A C 0.3036(2) -0.2512(2) 1.53887(16)
H7A H 0.3541 -0.2205 1.6002
C15A C 0.2203(3) -0.3702(2) 1.50722(17)
H8A H 0.2138 -0.4215 1.5464
C16A C 0.1466(3) -0.4137(2) 1.41817(17)
H9A H 0.0882 -0.4947 1.3964
C17A C 0.1573(2) -0.3395(2) 1.35980(15)
H10A H 0.1060 -0.3707 1.2987
C18A C 0.2122(2) -0.00208(19) 1.37919(13)
C19A C 0.3035(2) 0.1132(2) 1.41566(14)
H11A H 0.3992 0.1139 1.4098
C20A C 0.2563(3) 0.2277(2) 1.46066(16)
H12A H 0.3201 0.3056 1.4855
C21A C 0.1174(3) 0.2286(2) 1.46936(17)
H13A H 0.0850 0.3071 1.4988
C22A C 0.0257(3) 0.1142(3) 1.43487(18)
H14A H -0.0697 0.1141 1.4414
C23A C 0.0723(2) -0.0002(2) 1.39078(16)
H15A H 0.0087 -0.0783 1.3681
C24A C 0.40734(19) -0.11830(18) 1.31110(13)
C25A C 0.4407(2) -0.03490(19) 1.26213(14)
H16A H 0.3703 0.0104 1.2406
C26A C 0.5746(2) -0.0175(2) 1.24459(14)
H17A H 0.5959 0.0412 1.2128
C27A C 0.6781(2) -0.0857(2) 1.27341(15)
H18A H 0.7698 -0.0743 1.2611
C28A C 0.6463(2) -0.1699(3) 1.31991(16)
H19A H 0.7162 -0.2175 1.3391
C29A C 0.5114(2) -0.1859(2) 1.33917(15)
H20A H 0.4911 -0.2437 1.3718
C30A C 0.2166(3) -0.5809(2) 0.84070(16)
H21A H 0.2187 -0.5659 0.7821
H22A H 0.3021 -0.6160 0.8596
H23A H 0.1340 -0.6427 0.8342
O5 O 0.9271(3) -0.3774(3) 0.79159(19)
C31 C 0.9775(3) -0.2746(3) 0.78808(18)
C32 C 0.8970(4) -0.1617(3) 0.8026(2)
H24 H 0.8059 -0.1858 0.8164
H25 H 0.8818 -0.1360 0.7471
H26 H 0.9504 -0.0893 0.8537
C33 C 1.1200(4) -0.2551(4) 0.7691(2)
H27 H 1.1670 -0.3311 0.7699
H28 H 1.1744 -0.1783 0.8160
H29 H 1.1131 -0.2430 0.7090
O6 O 0.4672(5) -0.2704(5) 0.7736(3)
C34 C 0.5178(8) -0.3690(8) 0.7558(6)
C35 C 0.5625(9) -0.4424(9) 0.8218(6)
H30 H 0.5161 -0.4152 0.8742
H31 H 0.6647 -0.4241 0.8430
H32 H 0.5355 -0.5354 0.7909
C36 C 0.5660(11) -0.4118(8) 0.6638(7)
H33 H 0.5511 -0.3465 0.6328
H34 H 0.5114 -0.4947 0.6255
H35 H 0.6661 -0.4215 0.6743
O7? O 0.3462(5) -0.4988(5) 0.6759(4)
C37? C 0.4694(9) -0.4442(8) 0.7098(6)
C38? C 0.5524(11) -0.4496(9) 0.6477(7)
H36? H 0.4936 -0.4719 0.5866
H37? H 0.6147 -0.5156 0.6494
H38? H 0.6090 -0.3652 0.6622
C39? C 0.5324(9) -0.4154(9) 0.8128(6)
H39? H 0.4946 -0.4846 0.8340
H40? H 0.5073 -0.3327 0.8478
H41? H 0.6350 -0.4108 0.8216
loop_
_geom_bond_atom_site_label_1
_geom_bond_atom_site_label_2
_geom_bond_site_symmetry_1
_geom_bond_site_symmetry_2
N1 C6 1_555 1_555
S1 C10 1_555 1_555
O1 C6 1_555 1_555
O2 C7 1_555 1_555
O3 C8 1_555 1_555
O4 C8 1_555 1_555
C1 H1 1_555 1_555
C2 C1 1_555 1_555
C3 C2 1_555 1_555
C4 C3 1_555 1_555
C5 C1 1_555 1_555
H2 C5 1_555 1_555
C6 C2 1_555 1_555
C7 N1 1_555 1_555
C8 C9 1_555 1_555
C9 N1 1_555 1_555
H3 C9 1_555 1_555
C10 C9 1_555 1_555
H4 C10 1_555 1_555
H5 C10 1_555 1_555
C11 S1 1_555 1_555
C12 C11 1_555 1_555
C13 C12 1_555 1_555
H6 C13 1_555 1_555
C14 C13 1_555 1_555
H7 C14 1_555 1_555
C15 C14 1_555 1_555
H8 C15 1_555 1_555
C16 C15 1_555 1_555
H9 C16 1_555 1_555
C17 C12 1_555 1_555
H10 C17 1_555 1_555
C18 C11 1_555 1_555
C19 C18 1_555 1_555
H11 C19 1_555 1_555
C20 C19 1_555 1_555
H12 C20 1_555 1_555
C21 C20 1_555 1_555
H13 C21 1_555 1_555
C22 C21 1_555 1_555
H14 C22 1_555 1_555
C23 C18 1_555 1_555
H15 C23 1_555 1_555
C24 C11 1_555 1_555
C25 C24 1_555 1_555
H16 C25 1_555 1_555
C26 C25 1_555 1_555
H17 C26 1_555 1_555
C27 C26 1_555 1_555
H18 C27 1_555 1_555
C28 C27 1_555 1_555
H19 C28 1_555 1_555
C29 C24 1_555 1_555
H20 C29 1_555 1_555
C30 O3 1_555 1_555
H21 C30 1_555 1_555
H22 C30 1_555 1_555
H23 C30 1_555 1_555
O5 C31 1_555 1_555
C31 C32 1_555 1_555
C32 H24 1_555 1_555
H25 C32 1_555 1_555
H26 C32 1_555 1_555
C33 C31 1_555 1_555
H27 C33 1_555 1_555
H28 C33 1_555 1_555
H29 C33 1_555 1_555
O6 C34 1_555 1_555
C34 C35 1_555 1_555
C35 H30 1_555 1_555
H31 C35 1_555 1_555
H32 C35 1_555 1_555
C36 C34 1_555 1_555
H33 C36 1_555 1_555
H34 C36 1_555 1_555
H35 C36 1_555 1_555
N1A C6A 1_555 1_555
S1A C10A 1_555 1_555
O1A C6A 1_555 1_555
O2A C7A 1_555 1_555
O3A C8A 1_555 1_555
O4A C8A 1_555 1_555
C1A H1A 1_555 1_555
C2A C1A 1_555 1_555
C3A C3 1_555 1_555
C4A C5 1_555 1_555
C5A C4 1_555 1_555
H2A C5A 1_555 1_555
C6A C2A 1_555 1_555
C7A N1A 1_555 1_555
C8A C9A 1_555 1_555
C9A N1A 1_555 1_555
H3A C9A 1_555 1_555
C10A C9A 1_555 1_555
H4A C10A 1_555 1_555
H5A C10A 1_555 1_555
C11A S1A 1_555 1_555
C12A C11A 1_555 1_555
C13A C12A 1_555 1_555
H6A C13A 1_555 1_555
C14A C13A 1_555 1_555
H7A C14A 1_555 1_555
C15A C14A 1_555 1_555
H8A C15A 1_555 1_555
C16A C15A 1_555 1_555
H9A C16A 1_555 1_555
C17A C12A 1_555 1_555
H10A C17A 1_555 1_555
C18A C11A 1_555 1_555
C19A C18A 1_555 1_555
H11A C19A 1_555 1_555
C20A C19A 1_555 1_555
H12A C20A 1_555 1_555
C21A C20A 1_555 1_555
H13A C21A 1_555 1_555
C22A C21A 1_555 1_555
H14A C22A 1_555 1_555
C23A C18A 1_555 1_555
H15A C23A 1_555 1_555
C24A C11A 1_555 1_555
C25A C24A 1_555 1_555
H16A C25A 1_555 1_555
C26A C25A 1_555 1_555
H17A C26A 1_555 1_555
C27A C26A 1_555 1_555
H18A C27A 1_555 1_555
C28A C27A 1_555 1_555
H19A C28A 1_555 1_555
C29A C24A 1_555 1_555
H20A C29A 1_555 1_555
C30A O3A 1_555 1_555
H21A C30A 1_555 1_555
H22A C30A 1_555 1_555
H23A C30A 1_555 1_555
C4 C7 1_555 1_555
C16 C17 1_555 1_555
C22 C23 1_555 1_555
C28 C29 1_555 1_555
C1A C5A 1_555 1_555
C2A C3A 1_555 1_555
C3A C4A 1_555 1_555
C4A C7A 1_555 1_555
C16A C17A 1_555 1_555
C22A C23A 1_555 1_555
C28A C29A 1_555 1_555

#END
