
#######################################################################
#
#                 Cambridge Crystallographic Data Centre
#                                CCDC 
#
#######################################################################
#
# If this CIF has been generated from an entry in the Cambridge 
# Structural Database, then it will include bibliographic, chemical, 
# crystal, experimental, refinement or atomic coordinate data resulting 
# from the CCDC's data processing and validation procedures.
#
#######################################################################

data_NEWCUQ
_chemical_name_common            'asperuloside tetra-acetate'
_chemical_formula_moiety         'C26 H30 O15'
_chemical_name_systematic        
'2-[(acetyloxy)methyl]-6-({4-[(acetyloxy)methyl]-1-oxo-2a,4a,5,7b-tetrahydro-1H-2,6-dioxacyclopenta[cd]inden-5-yl}oxy)oxane-3,4,5-triyl triacetate'
_symmetry_cell_setting           triclinic
_symmetry_space_group_name_H-M   'P 1'
_symmetry_Int_Tables_number      1
_space_group_name_Hall           'P 1'
loop_
_symmetry_equiv_pos_site_id
_symmetry_equiv_pos_as_xyz
1 x,y,z
_cell_length_a                   7.6751(3)
_cell_length_b                   13.2932(4)
_cell_length_c                   13.7400(4)
_cell_angle_alpha                80.7040(10)
_cell_angle_beta                 89.3780(10)
_cell_angle_gamma                83.4060(10)
_cell_volume                     1374.24
_exptl_crystal_colour            colorless
_exptl_crystal_description       block
_cell_formula_units_Z            2
loop_
_atom_site_label
_atom_site_type_symbol
_atom_site_fract_x
_atom_site_fract_y
_atom_site_fract_z
C1 C 1.3737(3) 0.1559(2) 1.0480(2)
C2 C 1.2349(3) 0.19391(19) 0.97370(17)
C3 C 1.0624(3) 0.16264(19) 1.01504(16)
H1 H 1.0333 0.0978 0.9979
C4 C 1.1029(3) 0.1577(2) 1.12500(19)
H2 H 1.0382 0.1076 1.1664
C5 C 1.0425(4) 0.2652(3) 1.14079(19)
H3 H 1.0695 0.2915 1.1968
C6 C 0.9459(3) 0.3188(2) 1.06578(18)
C7 C 0.9196(3) 0.25279(18) 0.98742(16)
H4 H 0.8044 0.2277 0.9964
C8 C 0.9390(3) 0.29989(17) 0.88034(16)
H5 H 0.8474 0.3576 0.8628
C9 C 1.2476(3) 0.27469(19) 0.90501(17)
H6 H 1.3592 0.2923 0.8884
C10 C 0.8683(4) 0.4275(2) 1.0607(2)
H7 H 0.9365 0.4614 1.1020
H8 H 0.8737 0.4628 0.9934
C11 C 0.5620(4) 0.4387(2) 1.0241(2)
C12 C 0.3824(4) 0.4497(3) 1.0656(3)
H9 H 0.3126 0.5062 1.0266
H10 H 0.3890 0.4624 1.1322
H11 H 0.3297 0.3878 1.0649
C13 C 0.8948(3) 0.25163(15) 0.72417(15)
H12 H 0.9476 0.3152 0.7028
C14 C 0.9831(3) 0.16521(16) 0.67448(15)
H13 H 0.9357 0.1009 0.7005
C15 C 0.9509(3) 0.19142(15) 0.56409(15)
H14 H 1.0022 0.2542 0.5372
C16 C 0.7538(3) 0.20635(15) 0.54695(15)
H15 H 0.7038 0.1428 0.5725
C17 C 0.6723(3) 0.29348(16) 0.59976(15)
H16 H 0.7224 0.3569 0.5736
C18 C 1.2403(3) 0.06480(17) 0.74614(17)
C19 C 1.4323(3) 0.0651(2) 0.7629(2)
H17 H 1.4669 0.0216 0.8239
H18 H 1.4567 0.1338 0.7658
H19 H 1.4966 0.0401 0.7097
C20 C 1.1208(3) 0.13064(17) 0.43438(16)
C21 C 1.1928(3) 0.03529(18) 0.39723(18)
H20 H 1.2556 0.0529 0.3372
H21 H 1.0983 -0.0025 0.3847
H22 H 1.2709 -0.0061 0.4458
C22 C 0.4729(3) 0.31261(17) 0.59280(16)
H23 H 0.4222 0.2483 0.6059
H24 H 0.4270 0.3555 0.6402
C23 C 0.2664(3) 0.40785(16) 0.47551(17)
C24 C 0.2476(3) 0.4581(2) 0.3707(2)
H25 H 0.1310 0.4926 0.3593
H26 H 0.2686 0.4071 0.3285
H27 H 0.3309 0.5070 0.3567
C25 C 0.6133(3) 0.17795(18) 0.40199(18)
C26 C 0.5852(4) 0.2179(2) 0.29530(18)
H28 H 0.6770 0.1867 0.2581
H29 H 0.5867 0.2909 0.2839
H30 H 0.4739 0.2017 0.2749
O1 O 0.15342(19) 0.40562(12) 0.53727(13)
O2 O 0.43223(18) 0.36360(12) 0.49357(11)
O3 O 0.72246(19) 0.23292(11) 0.44298(10)
O4 O 0.5491(4) 0.10811(19) 0.44814(16)
O5 O 1.1359(3) 0.21728(13) 0.39701(14)
O6 O 1.02876(18) 0.10683(11) 0.51905(11)
O7 O 1.1580(2) -0.00559(13) 0.77413(16)
O8 O 1.16804(18) 0.15517(11) 0.69433(11)
O9 O 0.91361(19) 0.22121(11) 0.82566(10)
O10 O 1.5305(3) 0.1491(2) 1.04231(17)
O11 O 0.5925(3) 0.4317(2) 0.93934(17)
O12 O 0.6863(3) 0.43449(17) 1.09314(15)
O13 O 0.71139(18) 0.26616(11) 0.70297(11)
O14 O 1.1083(2) 0.33376(12) 0.85696(11)
O15 O 1.2926(3) 0.13103(18) 1.13683(14)
C27 C 0.3347(3) 0.69874(15) 0.19445(15)
H31 H 0.2793 0.6362 0.1926
C28 C 0.2605(3) 0.78280(16) 0.11068(15)
H32 H 0.3136 0.8460 0.1128
C29 C 0.0628(3) 0.80192(15) 0.12296(15)
H33 H 0.0085 0.7397 0.1179
C30 C 0.0275(3) 0.83305(15) 0.22295(15)
H34 H 0.0742 0.8981 0.2260
C31 C 0.1124(2) 0.74952(15) 0.30290(15)
H35 H 0.0599 0.6856 0.3040
C32 C 0.0637(3) 0.70650(16) 0.47413(15)
H36 H 0.1551 0.6485 0.4747
C33 C -0.2461(3) 0.73204(18) 0.49251(16)
H37 H -0.3574 0.7145 0.4820
C34 C -0.2335(3) 0.81326(17) 0.53569(16)
C35 C -0.0630(3) 0.84487(16) 0.56588(16)
H38 H -0.0340 0.9098 0.5281
C36 C 0.0816(3) 0.75521(16) 0.56573(15)
H39 H 0.1962 0.7812 0.5651
C37 C 0.0566(3) 0.68971(18) 0.66519(16)
C38 C -0.0424(3) 0.7431(2) 0.72449(17)
H40 H -0.0701 0.7169 0.7890
C39 C -0.1031(3) 0.84985(19) 0.67477(18)
H41 H -0.0394 0.9006 0.6994
C40 C -0.3740(3) 0.85080(19) 0.59921(19)
C41 C 0.1375(3) 0.58145(19) 0.69452(18)
H42 H 0.0706 0.5479 0.7480
H43 H 0.1316 0.5450 0.6391
C42 C 0.4441(3) 0.57207(18) 0.65690(19)
C43 C 0.6232(4) 0.5583(2) 0.7024(2)
H44 H 0.7093 0.5428 0.6542
H45 H 0.6305 0.5029 0.7570
H46 H 0.6447 0.6203 0.7253
C44 C -0.2329(3) 0.93398(17) 0.26333(18)
C45 C -0.4246(3) 0.9343(2) 0.2800(3)
H47 H -0.4592 0.9730 0.3317
H48 H -0.4516 0.8651 0.2987
H49 H -0.4870 0.9651 0.2204
C46 C -0.1138(3) 0.86209(19) -0.02127(18)
C47 C -0.1875(3) 0.9579(2) -0.08657(18)
H50 H -0.2557 0.9406 -0.1384
H51 H -0.0935 0.9945 -0.1147
H52 H -0.2609 1.0002 -0.0486
C48 C 0.3877(3) 0.80922(19) -0.04838(17)
C49 C 0.4193(4) 0.7650(2) -0.1402(2)
H53 H 0.3532 0.8077 -0.1934
H54 H 0.3832 0.6973 -0.1311
H55 H 0.5420 0.7613 -0.1555
C50 C 0.5319(3) 0.67490(17) 0.18889(16)
H56 H 0.5657 0.6564 0.1253
H57 H 0.5897 0.7337 0.1986
C51 C 0.7484(3) 0.55265(16) 0.27710(17)
C52 C 0.7754(3) 0.4666(2) 0.3615(2)
H58 H 0.8524 0.4113 0.3420
H59 H 0.6646 0.4431 0.3809
H60 H 0.8268 0.4900 0.4160
O16 O -0.2948(2) 0.87635(14) 0.67956(13)
O17 O -0.1508(2) 1.00393(14) 0.27009(18)
O18 O -0.15879(18) 0.84390(11) 0.23895(11)
O19 O -0.1384(3) 0.77695(16) -0.02834(17)
O20 O -0.00927(19) 0.88529(11) 0.04960(11)
O21 O 0.4334(4) 0.88746(18) -0.03178(16)
O22 O 0.2982(2) 0.74796(11) 0.01839(11)
O23 O 0.57816(19) 0.58969(12) 0.26706(12)
O24 O 0.86097(19) 0.58675(12) 0.22471(12)
O25 O 0.29617(18) 0.73397(11) 0.28616(10)
O26 O -0.5307(2) 0.85743(16) 0.59263(15)
O27 O 0.09020(18) 0.78401(11) 0.39338(10)
O28 O 0.4139(2) 0.57867(15) 0.57015(13)
O29 O -0.1056(2) 0.67294(12) 0.46280(11)
O30 O 0.3198(2) 0.57522(14) 0.72585(13)
loop_
_geom_bond_atom_site_label_1
_geom_bond_atom_site_label_2
_geom_bond_site_symmetry_1
_geom_bond_site_symmetry_2
C1 C2 1_555 1_555
C2 C3 1_555 1_555
C3 H1 1_555 1_555
C4 C3 1_555 1_555
H2 C4 1_555 1_555
C5 C4 1_555 1_555
H3 C5 1_555 1_555
C6 C5 1_555 1_555
C7 C3 1_555 1_555
H4 C7 1_555 1_555
C8 C7 1_555 1_555
H5 C8 1_555 1_555
C9 C2 1_555 1_555
H6 C9 1_555 1_555
C10 C6 1_555 1_555
H7 C10 1_555 1_555
H8 C10 1_555 1_555
C11 C12 1_555 1_555
C12 H9 1_555 1_555
H10 C12 1_555 1_555
H11 C12 1_555 1_555
C13 H12 1_555 1_555
C14 C13 1_555 1_555
H13 C14 1_555 1_555
C15 C14 1_555 1_555
H14 C15 1_555 1_555
C16 C15 1_555 1_555
H15 C16 1_555 1_555
C17 C16 1_555 1_555
H16 C17 1_555 1_555
C18 C19 1_555 1_555
C19 H17 1_555 1_555
H18 C19 1_555 1_555
H19 C19 1_555 1_555
C20 C21 1_555 1_555
C21 H20 1_555 1_555
H21 C21 1_555 1_555
H22 C21 1_555 1_555
C22 C17 1_555 1_555
H23 C22 1_555 1_555
H24 C22 1_555 1_555
C23 C24 1_555 1_555
C24 H25 1_555 1_555
H26 C24 1_555 1_555
H27 C24 1_555 1_555
C25 C26 1_555 1_555
C26 H28 1_555 1_555
H29 C26 1_555 1_555
H30 C26 1_555 1_555
O1 C23 1_555 1_555
O2 C22 1_555 1_555
O3 C16 1_555 1_555
O4 C25 1_555 1_555
O5 C20 1_555 1_555
O6 C15 1_555 1_555
O7 C18 1_555 1_555
O8 C14 1_555 1_555
O9 C8 1_555 1_555
O10 C1 1_555 1_555
O11 C11 1_555 1_555
O12 C10 1_555 1_555
O13 C13 1_555 1_555
O14 C8 1_555 1_555
O15 C1 1_555 1_555
C27 H31 1_555 1_555
C28 C27 1_555 1_555
H32 C28 1_555 1_555
C29 C28 1_555 1_555
H33 C29 1_555 1_555
C30 C29 1_555 1_555
H34 C30 1_555 1_555
C31 C30 1_555 1_555
H35 C31 1_555 1_555
C32 H36 1_555 1_555
C33 H37 1_555 1_555
C34 C33 1_555 1_555
C35 C34 1_555 1_555
H38 C35 1_555 1_555
C36 C32 1_555 1_555
H39 C36 1_555 1_555
C37 C36 1_555 1_555
C38 C37 1_555 1_555
H40 C38 1_555 1_555
C39 C35 1_555 1_555
H41 C39 1_555 1_555
C40 C34 1_555 1_555
C41 C37 1_555 1_555
H42 C41 1_555 1_555
H43 C41 1_555 1_555
C42 C43 1_555 1_555
C43 H44 1_555 1_555
H45 C43 1_555 1_555
H46 C43 1_555 1_555
C44 C45 1_555 1_555
C45 H47 1_555 1_555
H48 C45 1_555 1_555
H49 C45 1_555 1_555
C46 C47 1_555 1_555
C47 H50 1_555 1_555
H51 C47 1_555 1_555
H52 C47 1_555 1_555
C48 C49 1_555 1_555
C49 H53 1_555 1_555
H54 C49 1_555 1_555
H55 C49 1_555 1_555
C50 C27 1_555 1_555
H56 C50 1_555 1_555
H57 C50 1_555 1_555
C51 C52 1_555 1_555
C52 H58 1_555 1_555
H59 C52 1_555 1_555
H60 C52 1_555 1_555
O16 C39 1_555 1_555
O17 C44 1_555 1_555
O18 C30 1_555 1_555
O19 C46 1_555 1_555
O20 C29 1_555 1_555
O21 C48 1_555 1_555
O22 C28 1_555 1_555
O23 C50 1_555 1_555
O24 C51 1_555 1_555
O25 C27 1_555 1_555
O26 C40 1_555 1_555
O27 C31 1_555 1_555
O28 C42 1_555 1_555
O29 C32 1_555 1_555
O30 C41 1_555 1_555
C4 O15 1_555 1_555
C6 C7 1_555 1_555
C9 O14 1_555 1_555
C11 O12 1_555 1_555
C13 O9 1_555 1_555
C17 O13 1_555 1_555
C18 O8 1_555 1_555
C20 O6 1_555 1_555
C23 O2 1_555 1_555
C25 O3 1_555 1_555
C31 O25 1_555 1_555
C32 O27 1_555 1_555
C33 O29 1_555 1_555
C35 C36 1_555 1_555
C38 C39 1_555 1_555
C40 O16 1_555 1_555
C42 O30 1_555 1_555
C44 O18 1_555 1_555
C46 O20 1_555 1_555
C48 O22 1_555 1_555
C51 O23 1_555 1_555

#END
