
#######################################################################
#
#                 Cambridge Crystallographic Data Centre
#                                CCDC 
#
#######################################################################
#
# If this CIF has been generated from an entry in the Cambridge 
# Structural Database, then it will include bibliographic, chemical, 
# crystal, experimental, refinement or atomic coordinate data resulting 
# from the CCDC's data processing and validation procedures.
#
#######################################################################

data_NEWDOL
_chemical_formula_moiety         'C21 H25 N1 O2 S1'
_chemical_name_systematic        
8,10b-dimethyl-5-sulfanylidene-2a,3,4,4a,5,7,8,9,10,10a,10b,11,12,12b-tetradecahydro-2H-9,10c-methanocyclopenta[1,8]azuleno[4,5-a]indolizine-2,13-dione
_symmetry_cell_setting           orthorhombic
_symmetry_space_group_name_H-M   'P 21 21 21'
_symmetry_Int_Tables_number      19
_space_group_name_Hall           'P 2ac 2ab'
loop_
_symmetry_equiv_pos_site_id
_symmetry_equiv_pos_as_xyz
1 x,y,z
2 1/2-x,-y,1/2+z
3 1/2+x,1/2-y,-z
4 -x,1/2+y,1/2-z
_cell_length_a                   11.4119(4)
_cell_length_b                   12.0883(3)
_cell_length_c                   12.4543(3)
_cell_angle_alpha                90
_cell_angle_beta                 90
_cell_angle_gamma                90
_cell_volume                     1718.08
_exptl_crystal_colour            colorless
_exptl_crystal_description       block
_cell_formula_units_Z            4
loop_
_atom_site_label
_atom_site_type_symbol
_atom_site_fract_x
_atom_site_fract_y
_atom_site_fract_z
C1 C 0.0459(2) 0.37655(18) 0.05817(17)
C2 C 0.1753(2) 0.25302(16) 0.15805(18)
C3 C 0.0444(2) 0.22161(17) 0.17373(19)
H1 H 0.0256 0.1549 0.1325
C4 C 0.0022(3) 0.20954(17) 0.28905(19)
C5 C 0.0020(2) 0.32741(16) 0.33405(17)
H2 H -0.0001 0.3241 0.4126
C6 C -0.1085(2) 0.38661(19) 0.29354(19)
H3 H -0.0940 0.4665 0.2951
C7 C -0.1293(2) 0.35182(18) 0.17550(19)
H4 H -0.1842 0.2906 0.1727
H5 H -0.1623 0.4132 0.1355
C8 C 0.1125(2) 0.39027(18) 0.29865(16)
C9 C 0.2172(2) 0.32185(17) 0.25921(18)
C10 C 0.2574(2) 0.2445(2) 0.3558(2)
H6 H 0.2375 0.2785 0.4240
H7 H 0.2184 0.1734 0.3515
C11 C 0.3911(3) 0.2295(2) 0.3466(3)
H8 H 0.4291 0.2427 0.4151
H9 H 0.4105 0.1555 0.3223
C12 C 0.4270(2) 0.3136(2) 0.2663(2)
C13 C 0.5169(2) 0.3295(2) 0.2007(2)
H10 H 0.5844 0.2865 0.1984
C14 C 0.3291(2) 0.39479(18) 0.25277(19)
H11 H 0.3290 0.4394 0.3185
C15 C 0.4927(3) 0.4259(2) 0.1325(2)
C16 C 0.3716(2) 0.47279(18) 0.1633(2)
H12 H 0.3850 0.5453 0.1963
C17 C 0.2949(2) 0.49155(19) 0.06628(19)
H13 H 0.3349 0.5417 0.0177
H14 H 0.2231 0.5274 0.0893
C18 C 0.2635(2) 0.38645(19) 0.00528(19)
H15 H 0.2443 0.4067 -0.0680
H16 H 0.3326 0.3398 0.0025
C19 C 0.1630(2) 0.31827(18) 0.05008(18)
H17 H 0.1502 0.2606 -0.0040
C20 C -0.2152(2) 0.3625(2) 0.3630(2)
H18 H -0.2280 0.2841 0.3661
H19 H -0.2829 0.3978 0.3326
H20 H -0.2022 0.3904 0.4342
C21 C 0.2512(2) 0.15049(18) 0.1382(2)
H21 H 0.2501 0.1042 0.2008
H22 H 0.3302 0.1729 0.1233
H23 H 0.2207 0.1101 0.0780
N1 N -0.01805(18) 0.31887(14) 0.12826(15)
O1 O 0.11725(15) 0.49073(12) 0.30368(13)
O2 O 0.5554(2) 0.46385(18) 0.06262(19)
S1 S 0.00179(6) 0.48747(5) -0.01010(5)
H24 H 0.043(2) 0.1626(19) 0.323(2)
H25 H -0.0656(15) 0.184(2) 0.291(2)
loop_
_geom_bond_atom_site_label_1
_geom_bond_atom_site_label_2
_geom_bond_site_symmetry_1
_geom_bond_site_symmetry_2
C1 C19 1_555 1_555
C2 C3 1_555 1_555
C3 H1 1_555 1_555
C4 C3 1_555 1_555
C5 C4 1_555 1_555
H2 C5 1_555 1_555
C6 C5 1_555 1_555
H3 C6 1_555 1_555
C7 C6 1_555 1_555
H4 C7 1_555 1_555
H5 C7 1_555 1_555
C8 C5 1_555 1_555
C9 C2 1_555 1_555
C10 C9 1_555 1_555
H6 C10 1_555 1_555
H7 C10 1_555 1_555
C11 C10 1_555 1_555
H8 C11 1_555 1_555
H9 C11 1_555 1_555
C12 C11 1_555 1_555
C13 C12 1_555 1_555
H10 C13 1_555 1_555
C14 C9 1_555 1_555
H11 C14 1_555 1_555
C15 C13 1_555 1_555
C16 C14 1_555 1_555
H12 C16 1_555 1_555
C17 C16 1_555 1_555
H13 C17 1_555 1_555
H14 C17 1_555 1_555
C18 C17 1_555 1_555
H15 C18 1_555 1_555
H16 C18 1_555 1_555
C19 C2 1_555 1_555
H17 C19 1_555 1_555
C20 C6 1_555 1_555
H18 C20 1_555 1_555
H19 C20 1_555 1_555
H20 C20 1_555 1_555
C21 C2 1_555 1_555
H21 C21 1_555 1_555
H22 C21 1_555 1_555
H23 C21 1_555 1_555
N1 C1 1_555 1_555
O1 C8 1_555 1_555
O2 C15 1_555 1_555
S1 C1 1_555 1_555
H24 C4 1_555 1_555
H25 C4 1_555 1_555
C3 N1 1_555 1_555
C7 N1 1_555 1_555
C8 C9 1_555 1_555
C12 C14 1_555 1_555
C15 C16 1_555 1_555
C18 C19 1_555 1_555

#END
