
#######################################################################
#
#                 Cambridge Crystallographic Data Centre
#                                CCDC 
#
#######################################################################
#
# If this CIF has been generated from an entry in the Cambridge 
# Structural Database, then it will include bibliographic, chemical, 
# crystal, experimental, refinement or atomic coordinate data resulting 
# from the CCDC's data processing and validation procedures.
#
#######################################################################

data_NEWDUR
_chemical_formula_moiety         'C16 H23 N1 O2'
_chemical_name_systematic        
3,11a-dimethyldodecahydro-6H-2,11-methanocyclohepta[a]indolizine-6,12-dione
_symmetry_cell_setting           monoclinic
_symmetry_space_group_name_H-M   'P 21'
_symmetry_Int_Tables_number      4
_space_group_name_Hall           'P 2yb'
loop_
_symmetry_equiv_pos_site_id
_symmetry_equiv_pos_as_xyz
1 x,y,z
2 -x,1/2+y,-z
_cell_length_a                   7.0977(6)
_cell_length_b                   8.7083(7)
_cell_length_c                   11.1068(9)
_cell_angle_alpha                90
_cell_angle_beta                 91.789(4)
_cell_angle_gamma                90
_cell_volume                     686.164
_exptl_crystal_colour            colorless
_exptl_crystal_description       block
_cell_formula_units_Z            2
loop_
_atom_site_label
_atom_site_type_symbol
_atom_site_fract_x
_atom_site_fract_y
_atom_site_fract_z
O1 O 0.2996(2) 0.4636(2) 0.66459(15)
C1 C 0.5332(3) 0.5890(3) 0.47465(18)
H1 H 0.535340 0.687329 0.430001
H2 H 0.414984 0.534467 0.451965
N1 N 0.5404(2) 0.6188(2) 0.60409(16)
O2 O 0.8400(2) 0.27917(18) 0.63157(14)
C2 C 0.7046(3) 0.4899(2) 0.44143(18)
H3 H 0.668646 0.379279 0.447980
C3 C 0.8639(3) 0.6907(2) 0.57238(19)
H4 H 0.983744 0.719239 0.614595
H5 H 0.845113 0.758384 0.501394
C4 C 0.8680(3) 0.5225(2) 0.53369(18)
H6 H 0.990124 0.502213 0.494023
C5 C 0.7001(3) 0.7059(2) 0.65630(19)
H7 H 0.665121 0.816317 0.666233
C6 C 0.8553(3) 0.4165(3) 0.64347(19)
C7 C 0.4390(3) 0.5444(3) 0.68596(19)
C8 C 0.5283(3) 0.5799(3) 0.81004(19)
H8 H 0.463831 0.673800 0.840217
C9 C 0.7324(3) 0.6286(2) 0.78106(18)
C10 C 0.8767(3) 0.4948(3) 0.76559(18)
H9 H 1.000106 0.549461 0.760821
C11 C 0.9083(3) 0.3855(3) 0.8726(2)
H10 H 0.917752 0.449184 0.946354
H11 H 1.032742 0.336261 0.863340
C12 C 0.7659(4) 0.2575(3) 0.8956(2)
H12 H 0.802709 0.165825 0.849132
H13 H 0.775273 0.229905 0.982032
C13 C 0.5613(3) 0.2942(3) 0.8635(2)
H14 H 0.480814 0.216331 0.901518
H15 H 0.542056 0.284447 0.775162
C14 C 0.4944(3) 0.4533(3) 0.9013(2)
H16 H 0.357709 0.448146 0.915981
H17 H 0.559514 0.481148 0.978322
C15 C 0.7578(4) 0.5220(3) 0.3115(2)
H18 H 0.648492 0.502806 0.257470
H19 H 0.861621 0.454298 0.289692
H20 H 0.797216 0.629285 0.304058
C16 C 0.8117(4) 0.7437(3) 0.8737(2)
H21 H 0.937085 0.777162 0.850166
H22 H 0.821039 0.694683 0.953135
H23 H 0.727701 0.832760 0.877202
loop_
_geom_bond_atom_site_label_1
_geom_bond_atom_site_label_2
_geom_bond_site_symmetry_1
_geom_bond_site_symmetry_2
O1 C7 1_555 1_555
C1 H1 1_555 1_555
H2 C1 1_555 1_555
N1 C1 1_555 1_555
O2 C6 1_555 1_555
C2 C1 1_555 1_555
H3 C2 1_555 1_555
C3 H4 1_555 1_555
H5 C3 1_555 1_555
C4 C2 1_555 1_555
H6 C4 1_555 1_555
C5 N1 1_555 1_555
H7 C5 1_555 1_555
C6 C4 1_555 1_555
C7 N1 1_555 1_555
C8 C7 1_555 1_555
H8 C8 1_555 1_555
C9 C5 1_555 1_555
C10 C6 1_555 1_555
H9 C10 1_555 1_555
C11 C10 1_555 1_555
H10 C11 1_555 1_555
H11 C11 1_555 1_555
C12 C11 1_555 1_555
H12 C12 1_555 1_555
H13 C12 1_555 1_555
C13 C12 1_555 1_555
H14 C13 1_555 1_555
H15 C13 1_555 1_555
C14 C8 1_555 1_555
H16 C14 1_555 1_555
H17 C14 1_555 1_555
C15 C2 1_555 1_555
H18 C15 1_555 1_555
H19 C15 1_555 1_555
H20 C15 1_555 1_555
C16 C9 1_555 1_555
H21 C16 1_555 1_555
H22 C16 1_555 1_555
H23 C16 1_555 1_555
C3 C4 1_555 1_555
C3 C5 1_555 1_555
C8 C9 1_555 1_555
C9 C10 1_555 1_555
C13 C14 1_555 1_555

#END
