
#######################################################################
#
#                 Cambridge Crystallographic Data Centre
#                                CCDC 
#
#######################################################################
#
# If this CIF has been generated from an entry in the Cambridge 
# Structural Database, then it will include bibliographic, chemical, 
# crystal, experimental, refinement or atomic coordinate data resulting 
# from the CCDC's data processing and validation procedures.
#
#######################################################################

data_NEWFAZ
_chemical_formula_moiety         'C31 H25 Cl2 N1 O2'
_chemical_name_systematic        
1-benzyl-3-(6,8-dichloro-2-methoxy-2-phenyl-3,4-dihydro-2H-1-benzopyran-4-yl)-1H-indole
_symmetry_cell_setting           triclinic
_symmetry_space_group_name_H-M   'P -1'
_symmetry_Int_Tables_number      2
_space_group_name_Hall           '-P 1'
loop_
_symmetry_equiv_pos_site_id
_symmetry_equiv_pos_as_xyz
1 x,y,z
2 -x,-y,-z
_cell_length_a                   9.3851(6)
_cell_length_b                   11.5543(8)
_cell_length_c                   12.0921(8)
_cell_angle_alpha                95.0880(10)
_cell_angle_beta                 91.1550(10)
_cell_angle_gamma                104.0260(10)
_cell_volume                     1265.96
_exptl_crystal_colour            colorless
_exptl_crystal_description       block
_cell_formula_units_Z            2
loop_
_atom_site_label
_atom_site_type_symbol
_atom_site_fract_x
_atom_site_fract_y
_atom_site_fract_z
Cl1 Cl 0.79164(4) 0.16706(3) 0.60898(3)
Cl2 Cl 0.88216(4) 0.51748(3) 0.33242(3)
O1 O 0.48679(10) 0.17219(8) 0.58576(7)
O2 O 0.36712(10) 0.30684(8) 0.67450(7)
N1 N 0.18640(12) 0.35156(10) 0.17292(9)
C1 C 0.31495(17) 0.74534(14) -0.00508(13)
H1 H 0.3614 0.8204 -0.0302
C2 C 0.34158(19) 0.64120(16) -0.05540(14)
H2 H 0.4077 0.6447 -0.1142
C3 C 0.27141(18) 0.53075(14) -0.02003(13)
H3 H 0.2893 0.4592 -0.0555
C4 C 0.17555(14) 0.52447(12) 0.06662(11)
C5 C 0.09543(14) 0.40464(12) 0.10304(11)
H4 H 0.0089 0.4152 0.1445
H5 H 0.0591 0.3484 0.0362
C6 C 0.22133(14) 0.38479(11) 0.28441(10)
H6 H 0.1960 0.4501 0.3259
C7 C 0.29779(13) 0.31046(11) 0.32700(10)
C8 C 0.35165(13) 0.31469(11) 0.44552(10)
H7 H 0.3340 0.3886 0.4865
C9 C 0.26626(14) 0.20643(11) 0.50234(10)
H8 H 0.1664 0.2161 0.5180
H9 H 0.2561 0.1323 0.4519
C10 C 0.34568(13) 0.19534(11) 0.61043(10)
C11 C 0.26411(14) 0.09135(11) 0.67105(10)
C12 C 0.31437(15) -0.01163(12) 0.67764(11)
H10 H 0.4035 -0.0178 0.6445
C13 C 0.23468(16) -0.10592(12) 0.73273(12)
H11 H 0.2706 -0.1754 0.7383
C14 C 0.10322(16) -0.09856(13) 0.77942(12)
H12 H 0.0485 -0.1633 0.8162
C15 C 0.15166(15) 0.63038(13) 0.11717(12)
H13 H 0.0871 0.6275 0.1769
C16 C 0.22088(17) 0.74084(13) 0.08168(13)
H14 H 0.2035 0.8126 0.1170
C17 C 0.51612(13) 0.32321(11) 0.45431(10)
C18 C 0.57271(13) 0.25251(11) 0.52297(10)
C19 C 0.45248(17) 0.31765(14) 0.77636(11)
H15 H 0.4007 0.2595 0.8252
H16 H 0.4667 0.3989 0.8132
H17 H 0.5483 0.3019 0.7602
C20 C 0.05136(16) 0.00364(14) 0.77249(13)
H18 H -0.0392 0.0085 0.8040
C21 C 0.13203(15) 0.09883(13) 0.71943(12)
H19 H 0.0973 0.1692 0.7160
C22 C 0.72422(14) 0.26057(12) 0.52820(11)
C23 C 0.82062(14) 0.34037(12) 0.46912(11)
H20 H 0.9232 0.3456 0.4731
C24 C 0.76320(14) 0.41243(12) 0.40397(11)
C25 C 0.61312(14) 0.40383(11) 0.39488(10)
H21 H 0.5765 0.4529 0.3482
C26 C 0.31289(13) 0.22552(11) 0.23633(10)
C27 C 0.24194(14) 0.25367(11) 0.14117(10)
C28 C 0.23324(15) 0.18588(13) 0.03851(11)
H22 H 0.1837 0.2044 -0.0244
C29 C 0.29935(16) 0.09093(13) 0.03176(12)
H23 H 0.2955 0.0438 -0.0372
C30 C 0.37204(15) 0.06256(12) 0.12456(12)
H24 H 0.4174 -0.0027 0.1171
C31 C 0.37843(14) 0.12845(11) 0.22663(11)
H25 H 0.4266 0.1082 0.2893
loop_
_geom_bond_atom_site_label_1
_geom_bond_atom_site_label_2
_geom_bond_site_symmetry_1
_geom_bond_site_symmetry_2
Cl1 C22 1_555 1_555
Cl2 C24 1_555 1_555
O1 C10 1_555 1_555
O2 C10 1_555 1_555
N1 C5 1_555 1_555
C1 H1 1_555 1_555
C2 C1 1_555 1_555
H2 C2 1_555 1_555
C3 C2 1_555 1_555
H3 C3 1_555 1_555
C4 C3 1_555 1_555
C5 C4 1_555 1_555
H4 C5 1_555 1_555
H5 C5 1_555 1_555
C6 N1 1_555 1_555
H6 C6 1_555 1_555
C7 C6 1_555 1_555
C8 C7 1_555 1_555
H7 C8 1_555 1_555
C9 C8 1_555 1_555
H8 C9 1_555 1_555
H9 C9 1_555 1_555
C10 C9 1_555 1_555
C11 C10 1_555 1_555
C12 C11 1_555 1_555
H10 C12 1_555 1_555
C13 C12 1_555 1_555
H11 C13 1_555 1_555
C14 C13 1_555 1_555
H12 C14 1_555 1_555
C15 C4 1_555 1_555
H13 C15 1_555 1_555
C16 C1 1_555 1_555
H14 C16 1_555 1_555
C17 C8 1_555 1_555
C18 O1 1_555 1_555
C19 O2 1_555 1_555
H15 C19 1_555 1_555
H16 C19 1_555 1_555
H17 C19 1_555 1_555
C20 C14 1_555 1_555
H18 C20 1_555 1_555
C21 C11 1_555 1_555
H19 C21 1_555 1_555
C22 C18 1_555 1_555
C23 C22 1_555 1_555
H20 C23 1_555 1_555
C24 C23 1_555 1_555
C25 C17 1_555 1_555
H21 C25 1_555 1_555
C26 C7 1_555 1_555
C27 N1 1_555 1_555
C28 C27 1_555 1_555
H22 C28 1_555 1_555
C29 C28 1_555 1_555
H23 C29 1_555 1_555
C30 C29 1_555 1_555
H24 C30 1_555 1_555
C31 C26 1_555 1_555
H25 C31 1_555 1_555
C15 C16 1_555 1_555
C17 C18 1_555 1_555
C20 C21 1_555 1_555
C24 C25 1_555 1_555
C26 C27 1_555 1_555
C30 C31 1_555 1_555

#END
