
#######################################################################
#
#                 Cambridge Crystallographic Data Centre
#                                CCDC 
#
#######################################################################
#
# If this CIF has been generated from an entry in the Cambridge 
# Structural Database, then it will include bibliographic, chemical, 
# crystal, experimental, refinement or atomic coordinate data resulting 
# from the CCDC's data processing and validation procedures.
#
#######################################################################

data_NEWFIG
_chemical_formula_moiety         'C78 H132 Li4 N2 O10,C6 H14'
_chemical_name_systematic        
"(\m~2~-1,2-Dimethoxyethane)-bis(\m~2~-2,2'-((propylimino)bis(methylene))bis(4,6-di-t-butylphenolato))-bis(1,2-dimethoxyethane)-tetra-lithium(i) n-hexane solvate"
_symmetry_cell_setting           triclinic
_symmetry_space_group_name_H-M   'P -1'
_symmetry_Int_Tables_number      2
_space_group_name_Hall           '-P 1'
loop_
_symmetry_equiv_pos_site_id
_symmetry_equiv_pos_as_xyz
1 x,y,z
2 -x,-y,-z
_cell_length_a                   9.6516(6)
_cell_length_b                   15.0259(9)
_cell_length_c                   16.1154(11)
_cell_angle_alpha                105.568(4)
_cell_angle_beta                 105.618(4)
_cell_angle_gamma                92.776(4)
_cell_volume                     2149.83
_exptl_crystal_colour            colorless
_exptl_crystal_description       prism
_cell_formula_units_Z            1
loop_
_atom_site_label
_atom_site_type_symbol
_atom_site_fract_x
_atom_site_fract_y
_atom_site_fract_z
C1 C 0.8774(2) 0.69679(13) 0.21727(13)
C2 C 0.7766(2) 0.71387(14) 0.14289(13)
C3 C 0.6128(2) 0.68825(17) 0.12400(14)
C4 C 0.5593(3) 0.7501(2) 0.19856(18)
H1 H 0.5788 0.8155 0.2012
H2 H 0.6102 0.7411 0.2566
H3 H 0.4547 0.7330 0.1855
C5 C 0.5818(3) 0.58539(19) 0.11949(18)
H4 H 0.6151 0.5459 0.0714
H5 H 0.4773 0.5686 0.1069
H6 H 0.6333 0.5761 0.1773
C6 C 0.5242(3) 0.7001(2) 0.03397(18)
H7 H 0.5559 0.6611 -0.0151
H8 H 0.5390 0.7655 0.0354
H9 H 0.4210 0.6812 0.0241
C7 C 0.8308(2) 0.75582(14) 0.08846(13)
H10 H 0.7631 0.7708 0.0409
C8 C 0.9782(2) 0.77699(14) 0.09956(13)
C9 C 1.0343(3) 0.82794(17) 0.04224(16)
C10 C 0.9143(3) 0.8597(2) -0.02143(18)
H11 H 0.8470 0.8054 -0.0632
H12 H 0.9565 0.8926 -0.0556
H13 H 0.8619 0.9016 0.0133
C11 C 1.1139(4) 0.7637(3) -0.0141(2)
H14 H 1.1439 0.7926 -0.0557
H15 H 1.1828 0.7294 0.0131
H16 H 1.0334 0.7141 -0.0553
C12 C 1.1347(4) 0.9156(3) 0.1046(2)
H17 H 1.1715 0.9488 0.0686
H18 H 1.2163 0.8982 0.1458
H19 H 1.0808 0.9561 0.1395
C13 C 1.0740(2) 0.74983(14) 0.16691(13)
H20 H 1.1749 0.7586 0.1734
C14 C 1.0274(2) 0.71030(13) 0.22499(13)
C15 C 1.1331(2) 0.68230(14) 0.29807(13)
H21 H 1.0954 0.6204 0.2994
H22 H 1.2268 0.6769 0.2842
C16 C 1.2444(2) 0.83807(14) 0.39804(14)
H23 H 1.2446 0.8829 0.4557
H24 H 1.1937 0.8636 0.3492
C17 C 1.4016(2) 0.83534(18) 0.39676(17)
H25 H 1.4620 0.8309 0.4555
H26 H 1.4076 0.7793 0.3494
C18 C 1.4598(3) 0.9210(2) 0.3790(2)
H27 H 1.5610 0.9175 0.3790
H28 H 1.4548 0.9766 0.4261
H29 H 1.4017 0.9247 0.3202
C19 C 1.2139(2) 0.71031(15) 0.46285(13)
H30 H 1.3208 0.7142 0.4766
H31 H 1.1742 0.6435 0.4429
C20 C 1.1769(2) 0.75773(13) 0.54811(13)
C21 C 1.2846(2) 0.80405(14) 0.62693(13)
H32 H 1.3820 0.8117 0.6252
C22 C 1.2548(2) 0.83980(14) 0.70883(13)
C23 C 1.3753(2) 0.88742(16) 0.79673(14)
C24 C 1.4924(3) 0.9461(2) 0.77999(19)
H33 H 1.5672 0.9762 0.8371
H34 H 1.4490 0.9939 0.7541
H35 H 1.5363 0.9061 0.7380
C25 C 1.4450(4) 0.8129(2) 0.8359(2)
H36 H 1.5216 0.8428 0.8922
H37 H 1.4869 0.7729 0.7927
H38 H 1.3712 0.7751 0.8479
C26 C 1.3166(3) 0.9527(2) 0.86650(18)
H39 H 1.3965 0.9819 0.9214
H40 H 1.2434 0.9169 0.8808
H41 H 1.2726 1.0011 0.8419
C27 C 1.1112(2) 0.82337(14) 0.70750(13)
H42 H 1.0888 0.8452 0.7628
C28 C 0.9976(2) 0.77725(14) 0.63114(13)
C29 C 0.8431(2) 0.75732(16) 0.63678(14)
C30 C 0.8336(3) 0.7933(2) 0.73341(16)
H43 H 0.7337 0.7790 0.7339
H44 H 0.8623 0.8609 0.7559
H45 H 0.8987 0.7630 0.7721
C31 C 0.7969(3) 0.65129(18) 0.60543(17)
H46 H 0.6982 0.6384 0.6087
H47 H 0.8638 0.6222 0.6445
H48 H 0.7991 0.6258 0.5432
C32 C 0.7358(3) 0.8037(2) 0.57797(17)
H49 H 0.6380 0.7897 0.5821
H50 H 0.7362 0.7797 0.5152
H51 H 0.7644 0.8713 0.5990
C33 C 1.0292(2) 0.74529(13) 0.54751(13)
C34 C 0.5192(3) 0.5710(2) 0.3685(2)
H52 H 0.5307 0.6392 0.3905
H53 H 0.4755 0.5448 0.4064
H54 H 0.4562 0.5501 0.3062
C35 C 0.6547(3) 0.44320(17) 0.3425(2)
H55 H 0.6011 0.4185 0.2776
H56 H 0.6062 0.4129 0.3766
C36 C 0.8089(3) 0.42433(18) 0.3585(2)
H57 H 0.8566 0.4395 0.4241
H58 H 0.8114 0.3573 0.3310
C37 C 0.8671(3) 0.43667(19) 0.22746(18)
H59 H 0.9210 0.4773 0.2052
H60 H 0.7637 0.4280 0.1943
H61 H 0.9035 0.3761 0.2186
C38 C 0.9015(4) 0.93951(18) 0.32337(18)
H62 H 0.8991 0.8908 0.2684
H63 H 0.9796 0.9897 0.3359
H64 H 0.8084 0.9645 0.3152
C39 C 0.9319(3) 0.96680(17) 0.48060(17)
H65 H 0.9232 0.9329 0.5242
H66 H 0.8481 1.0022 0.4711
N1 N 1.15764(17) 0.75058(11) 0.38802(10)
O1 O 0.83658(14) 0.67101(9) 0.28062(9)
O2 O 0.92867(14) 0.70398(9) 0.47076(9)
O3 O 0.65674(17) 0.54075(10) 0.37193(11)
O4 O 0.88603(18) 0.47828(10) 0.32089(11)
O5 O 0.92671(17) 0.90096(10) 0.39707(10)
Li1 Li 0.9449(4) 0.7682(2) 0.3862(2)
Li2 Li 0.8390(4) 0.6094(2) 0.3646(2)
C38A C 1.0985(4) 1.06049(18) 0.67663(18)
H62A H 1.1009 1.1092 0.7316
H63A H 1.0204 1.0103 0.6641
H64A H 1.1916 1.0355 0.6848
C39A C 1.0681(3) 1.03320(17) 0.51940(17)
H65A H 1.0768 1.0671 0.4758
H66A H 1.1519 0.9978 0.5289
O5A O 1.07329(17) 1.09904(10) 0.60293(10)
C1A C 1.1226(2) 1.30321(13) 0.78273(13)
C2A C 1.2234(2) 1.28613(14) 0.85711(13)
C3A C 1.3872(2) 1.31175(17) 0.87600(14)
C4A C 1.4407(3) 1.2499(2) 0.80144(18)
H1A H 1.4212 1.1845 0.7988
H2A H 1.3898 1.2589 0.7434
H3A H 1.5453 1.2670 0.8145
C5A C 1.4182(3) 1.41461(19) 0.88051(18)
H4A H 1.3849 1.4541 0.9286
H5A H 1.5227 1.4314 0.8931
H6A H 1.3667 1.4239 0.8227
C6A C 1.4758(3) 1.2999(2) 0.96603(18)
H7A H 1.4441 1.3389 1.0151
H8A H 1.4610 1.2345 0.9646
H9A H 1.5790 1.3188 0.9759
C7A C 1.1692(2) 1.24418(14) 0.91154(13)
H10A H 1.2369 1.2292 0.9591
C8A C 1.0218(2) 1.22301(14) 0.90044(13)
C9A C 0.9657(3) 1.17206(17) 0.95776(16)
C10A C 1.0857(3) 1.1403(2) 1.02143(18)
H11A H 1.1530 1.1946 1.0632
H12A H 1.0435 1.1074 1.0556
H13A H 1.1381 1.0984 0.9867
C11A C 0.8861(4) 1.2363(3) 1.0141(2)
H14A H 0.8561 1.2074 1.0557
H15A H 0.8172 1.2706 0.9869
H16A H 0.9666 1.2859 1.0553
C12A C 0.8653(4) 1.0844(3) 0.8954(2)
H17A H 0.8285 1.0512 0.9314
H18A H 0.7837 1.1018 0.8542
H19A H 0.9192 1.0439 0.8605
C13A C 0.9260(2) 1.25017(14) 0.83309(13)
H20A H 0.8251 1.2414 0.8266
C14A C 0.9726(2) 1.28970(13) 0.77501(13)
C15A C 0.8669(2) 1.31770(14) 0.70193(13)
H21A H 0.9046 1.3796 0.7006
H22A H 0.7732 1.3231 0.7158
C16A C 0.7556(2) 1.16193(14) 0.60196(14)
H23A H 0.7554 1.1171 0.5443
H24A H 0.8063 1.1364 0.6508
C17A C 0.5984(2) 1.16466(18) 0.60324(17)
H25A H 0.5380 1.1691 0.5445
H26A H 0.5924 1.2207 0.6506
C18A C 0.5402(3) 1.0790(2) 0.6210(2)
H27A H 0.4390 1.0825 0.6210
H28A H 0.5452 1.0234 0.5739
H29A H 0.5983 1.0753 0.6798
C19A C 0.7861(2) 1.28969(15) 0.53715(13)
H30A H 0.6792 1.2858 0.5234
H31A H 0.8258 1.3565 0.5571
C20A C 0.8231(2) 1.24227(13) 0.45189(13)
C21A C 0.7154(2) 1.19595(14) 0.37307(13)
H32A H 0.6180 1.1883 0.3748
C22A C 0.7452(2) 1.16020(14) 0.29117(13)
C23A C 0.6247(2) 1.11258(16) 0.20327(14)
C24A C 0.5076(3) 1.0539(2) 0.22001(19)
H33A H 0.4328 1.0238 0.1629
H34A H 0.5510 1.0061 0.2459
H35A H 0.4637 1.0939 0.2620
C25A C 0.5550(4) 1.1871(2) 0.1641(2)
H36A H 0.4784 1.1572 0.1078
H37A H 0.5131 1.2271 0.2073
H38A H 0.6288 1.2249 0.1521
C26A C 0.6834(3) 1.0473(2) 0.13350(18)
H39A H 0.6035 1.0181 0.0786
H40A H 0.7566 1.0831 0.1192
H41A H 0.7274 0.9989 0.1581
C27A C 0.8888(2) 1.17663(14) 0.29250(13)
H42A H 0.9112 1.1548 0.2372
C28A C 1.0024(2) 1.22275(14) 0.36886(13)
C29A C 1.1569(2) 1.24268(16) 0.36322(14)
C30A C 1.1664(3) 1.2067(2) 0.26659(16)
H43A H 1.2663 1.2210 0.2661
H44A H 1.1377 1.1391 0.2441
H45A H 1.1013 1.2370 0.2279
C31A C 1.2031(3) 1.34871(18) 0.39457(17)
H46A H 1.3018 1.3616 0.3913
H47A H 1.1362 1.3778 0.3555
H48A H 1.2009 1.3742 0.4568
C32A C 1.2642(3) 1.1963(2) 0.42203(17)
H49A H 1.3620 1.2103 0.4179
H50A H 1.2638 1.2203 0.4848
H51A H 1.2356 1.1287 0.4010
C33A C 0.9708(2) 1.25471(13) 0.45249(13)
C34A C 1.4808(3) 1.4290(2) 0.6315(2)
H52A H 1.4693 1.3608 0.6095
H53A H 1.5245 1.4552 0.5936
H54A H 1.5438 1.4499 0.6938
C35A C 1.3453(3) 1.55680(17) 0.6575(2)
H55A H 1.3989 1.5815 0.7224
H56A H 1.3938 1.5871 0.6234
C36A C 1.1911(3) 1.57567(18) 0.6415(2)
H57A H 1.1434 1.5605 0.5759
H58A H 1.1886 1.6427 0.6690
C37A C 1.1329(3) 1.56333(19) 0.77254(18)
H59A H 1.0790 1.5227 0.7948
H60A H 1.2363 1.5720 0.8057
H61A H 1.0965 1.6239 0.7814
N1A N 0.84236(17) 1.24942(11) 0.61198(10)
O1A O 1.16342(14) 1.32899(9) 0.71938(9)
O2A O 1.07133(14) 1.29602(9) 0.52924(9)
O3A O 1.34326(17) 1.45925(10) 0.62807(11)
O4A O 1.11397(18) 1.52172(10) 0.67911(11)
Li1A Li 1.0551(4) 1.2318(2) 0.6138(2)
Li2A Li 1.1610(4) 1.3906(2) 0.6354(2)
C40 C 0.2096(5) 0.4480(3) 0.1394(3)
H67 H 0.2059 0.4328 0.1943
H68 H 0.2827 0.5021 0.1552
H69 H 0.2355 0.3946 0.0988
C41 C 0.0772(3) 0.46807(19) 0.0977(2)
H70 H 0.0039 0.4134 0.0829
H71 H 0.0506 0.5207 0.1399
C42 C 0.0730(4) 0.4908(2) 0.0208(3)
H72 H 0.1004 0.4389 -0.0219
H73 H 0.1436 0.5467 0.0350
C40A C -0.2096(5) 0.5520(3) -0.1394(3)
H67A H -0.2059 0.5672 -0.1943
H68A H -0.2827 0.4979 -0.1552
H69A H -0.2355 0.6054 -0.0988
C41A C -0.0772(3) 0.53193(19) -0.0977(2)
H70A H -0.0039 0.5866 -0.0829
H71A H -0.0506 0.4793 -0.1399
C42A C -0.0730(4) 0.5092(2) -0.0208(3)
H72A H -0.1004 0.5611 0.0219
H73A H -0.1436 0.4533 -0.0350
loop_
_geom_bond_atom_site_label_1
_geom_bond_atom_site_label_2
_geom_bond_site_symmetry_1
_geom_bond_site_symmetry_2
C1 C2 1_555 1_555
C2 C3 1_555 1_555
C3 C4 1_555 1_555
C4 H1 1_555 1_555
H2 C4 1_555 1_555
H3 C4 1_555 1_555
C5 C3 1_555 1_555
H4 C5 1_555 1_555
H5 C5 1_555 1_555
H6 C5 1_555 1_555
C6 C3 1_555 1_555
H7 C6 1_555 1_555
H8 C6 1_555 1_555
H9 C6 1_555 1_555
C7 C2 1_555 1_555
H10 C7 1_555 1_555
C8 C7 1_555 1_555
C9 C8 1_555 1_555
C10 C9 1_555 1_555
H11 C10 1_555 1_555
H12 C10 1_555 1_555
H13 C10 1_555 1_555
C11 C9 1_555 1_555
H14 C11 1_555 1_555
H15 C11 1_555 1_555
H16 C11 1_555 1_555
C12 C9 1_555 1_555
H17 C12 1_555 1_555
H18 C12 1_555 1_555
H19 C12 1_555 1_555
C13 C8 1_555 1_555
H20 C13 1_555 1_555
C14 C1 1_555 1_555
C15 C14 1_555 1_555
H21 C15 1_555 1_555
H22 C15 1_555 1_555
C16 H23 1_555 1_555
H24 C16 1_555 1_555
C17 C16 1_555 1_555
H25 C17 1_555 1_555
H26 C17 1_555 1_555
C18 C17 1_555 1_555
H27 C18 1_555 1_555
H28 C18 1_555 1_555
H29 C18 1_555 1_555
C19 H30 1_555 1_555
H31 C19 1_555 1_555
C20 C19 1_555 1_555
C21 C20 1_555 1_555
H32 C21 1_555 1_555
C22 C21 1_555 1_555
C23 C22 1_555 1_555
C24 C23 1_555 1_555
H33 C24 1_555 1_555
H34 C24 1_555 1_555
H35 C24 1_555 1_555
C25 C23 1_555 1_555
H36 C25 1_555 1_555
H37 C25 1_555 1_555
H38 C25 1_555 1_555
C26 C23 1_555 1_555
H39 C26 1_555 1_555
H40 C26 1_555 1_555
H41 C26 1_555 1_555
C27 C22 1_555 1_555
H42 C27 1_555 1_555
C28 C27 1_555 1_555
C29 C28 1_555 1_555
C30 C29 1_555 1_555
H43 C30 1_555 1_555
H44 C30 1_555 1_555
H45 C30 1_555 1_555
C31 C29 1_555 1_555
H46 C31 1_555 1_555
H47 C31 1_555 1_555
H48 C31 1_555 1_555
C32 C29 1_555 1_555
H49 C32 1_555 1_555
H50 C32 1_555 1_555
H51 C32 1_555 1_555
C33 C20 1_555 1_555
C34 H52 1_555 1_555
H53 C34 1_555 1_555
H54 C34 1_555 1_555
C35 H55 1_555 1_555
H56 C35 1_555 1_555
C36 C35 1_555 1_555
H57 C36 1_555 1_555
H58 C36 1_555 1_555
C37 H59 1_555 1_555
H60 C37 1_555 1_555
H61 C37 1_555 1_555
C38 H62 1_555 1_555
H63 C38 1_555 1_555
H64 C38 1_555 1_555
C39 H65 1_555 1_555
H66 C39 1_555 1_555
N1 C15 1_555 1_555
O1 C1 1_555 1_555
O2 C33 1_555 1_555
O3 C34 1_555 1_555
O4 C36 1_555 1_555
O5 C38 1_555 1_555
Li1 N1 1_555 1_555
Li2 O1 1_555 1_555
C40 H67 1_555 1_555
H68 C40 1_555 1_555
H69 C40 1_555 1_555
C41 C40 1_555 1_555
H70 C41 1_555 1_555
H71 C41 1_555 1_555
C42 C41 1_555 1_555
H72 C42 1_555 1_555
H73 C42 1_555 1_555
C38A H62A 1_555 1_555
H63A C38A 1_555 1_555
H64A C38A 1_555 1_555
C39A C39 1_555 1_555
H65A C39A 1_555 1_555
H66A C39A 1_555 1_555
O5A C38A 1_555 1_555
C1A C2A 1_555 1_555
C2A C3A 1_555 1_555
C3A C4A 1_555 1_555
C4A H1A 1_555 1_555
H2A C4A 1_555 1_555
H3A C4A 1_555 1_555
C5A C3A 1_555 1_555
H4A C5A 1_555 1_555
H5A C5A 1_555 1_555
H6A C5A 1_555 1_555
C6A C3A 1_555 1_555
H7A C6A 1_555 1_555
H8A C6A 1_555 1_555
H9A C6A 1_555 1_555
C7A C2A 1_555 1_555
H10A C7A 1_555 1_555
C8A C7A 1_555 1_555
C9A C8A 1_555 1_555
C10A C9A 1_555 1_555
H11A C10A 1_555 1_555
H12A C10A 1_555 1_555
H13A C10A 1_555 1_555
C11A C9A 1_555 1_555
H14A C11A 1_555 1_555
H15A C11A 1_555 1_555
H16A C11A 1_555 1_555
C12A C9A 1_555 1_555
H17A C12A 1_555 1_555
H18A C12A 1_555 1_555
H19A C12A 1_555 1_555
C13A C8A 1_555 1_555
H20A C13A 1_555 1_555
C14A C1A 1_555 1_555
C15A C14A 1_555 1_555
H21A C15A 1_555 1_555
H22A C15A 1_555 1_555
C16A H23A 1_555 1_555
H24A C16A 1_555 1_555
C17A C16A 1_555 1_555
H25A C17A 1_555 1_555
H26A C17A 1_555 1_555
C18A C17A 1_555 1_555
H27A C18A 1_555 1_555
H28A C18A 1_555 1_555
H29A C18A 1_555 1_555
C19A H30A 1_555 1_555
H31A C19A 1_555 1_555
C20A C19A 1_555 1_555
C21A C20A 1_555 1_555
H32A C21A 1_555 1_555
C22A C21A 1_555 1_555
C23A C22A 1_555 1_555
C24A C23A 1_555 1_555
H33A C24A 1_555 1_555
H34A C24A 1_555 1_555
H35A C24A 1_555 1_555
C25A C23A 1_555 1_555
H36A C25A 1_555 1_555
H37A C25A 1_555 1_555
H38A C25A 1_555 1_555
C26A C23A 1_555 1_555
H39A C26A 1_555 1_555
H40A C26A 1_555 1_555
H41A C26A 1_555 1_555
C27A C22A 1_555 1_555
H42A C27A 1_555 1_555
C28A C27A 1_555 1_555
C29A C28A 1_555 1_555
C30A C29A 1_555 1_555
H43A C30A 1_555 1_555
H44A C30A 1_555 1_555
H45A C30A 1_555 1_555
C31A C29A 1_555 1_555
H46A C31A 1_555 1_555
H47A C31A 1_555 1_555
H48A C31A 1_555 1_555
C32A C29A 1_555 1_555
H49A C32A 1_555 1_555
H50A C32A 1_555 1_555
H51A C32A 1_555 1_555
C33A C20A 1_555 1_555
C34A H52A 1_555 1_555
H53A C34A 1_555 1_555
H54A C34A 1_555 1_555
C35A H55A 1_555 1_555
H56A C35A 1_555 1_555
C36A C35A 1_555 1_555
H57A C36A 1_555 1_555
H58A C36A 1_555 1_555
C37A H59A 1_555 1_555
H60A C37A 1_555 1_555
H61A C37A 1_555 1_555
N1A C15A 1_555 1_555
O1A C1A 1_555 1_555
O2A C33A 1_555 1_555
O3A C34A 1_555 1_555
O4A C36A 1_555 1_555
Li1A O5A 1_555 1_555
Li2A O1A 1_555 1_555
C40A H67A 1_555 1_555
H68A C40A 1_555 1_555
H69A C40A 1_555 1_555
C41A C40A 1_555 1_555
H70A C41A 1_555 1_555
H71A C41A 1_555 1_555
C42A C42 1_555 1_555
H72A C42A 1_555 1_555
H73A C42A 1_555 1_555
C13 C14 1_555 1_555
C16 N1 1_555 1_555
C19 N1 1_555 1_555
C28 C33 1_555 1_555
C35 O3 1_555 1_555
C37 O4 1_555 1_555
C39 O5 1_555 1_555
O1 Li1 1_555 1_555
O2 Li1 1_555 1_555
O2 Li2 1_555 1_555
O3 Li2 1_555 1_555
O4 Li2 1_555 1_555
O5 Li1 1_555 1_555
C39A O5A 1_555 1_555
C13A C14A 1_555 1_555
C16A N1A 1_555 1_555
C19A N1A 1_555 1_555
C28A C33A 1_555 1_555
C35A O3A 1_555 1_555
C37A O4A 1_555 1_555
N1A Li1A 1_555 1_555
O1A Li1A 1_555 1_555
O2A Li1A 1_555 1_555
O2A Li2A 1_555 1_555
O3A Li2A 1_555 1_555
O4A Li2A 1_555 1_555
C41A C42A 1_555 1_555

#END
