
#######################################################################
#
#                 Cambridge Crystallographic Data Centre
#                                CCDC 
#
#######################################################################
#
# If this CIF has been generated from an entry in the Cambridge 
# Structural Database, then it will include bibliographic, chemical, 
# crystal, experimental, refinement or atomic coordinate data resulting 
# from the CCDC's data processing and validation procedures.
#
#######################################################################

data_NEWHEF
_chemical_formula_moiety         'C34 H27 N1 O12'
_chemical_name_systematic        
'2,3,4,6-tetra-O-benzoyl-\b-D-glucopyranosyl nitrate'
_symmetry_cell_setting           monoclinic
_symmetry_space_group_name_H-M   'P 21'
_symmetry_Int_Tables_number      4
_space_group_name_Hall           'P 2yb'
loop_
_symmetry_equiv_pos_site_id
_symmetry_equiv_pos_as_xyz
1 x,y,z
2 -x,1/2+y,-z
_cell_length_a                   14.9257(16)
_cell_length_b                   5.4551(6)
_cell_length_c                   21.093(2)
_cell_angle_alpha                90
_cell_angle_beta                 95.990(7)
_cell_angle_gamma                90
_cell_volume                     1708.04
_exptl_crystal_colour            colorless
_exptl_crystal_description       needle
_cell_formula_units_Z            2
loop_
_atom_site_label
_atom_site_type_symbol
_atom_site_fract_x
_atom_site_fract_y
_atom_site_fract_z
O1 O 0.3140(3) 0.3962(10) 0.2193(3)
O2 O 0.2177(4) 0.3326(12) 0.1322(3)
O3 O 0.3341(5) 0.4394(16) 0.0775(3)
O4 O 0.2610(5) 0.1009(17) 0.0567(4)
O5 O 0.1097(3) 0.7264(11) 0.1669(2)
O6 O -0.0133(4) 0.5212(12) 0.1926(3)
O7 O 0.1165(3) 0.7500(9) 0.3031(2)
O8 O 0.1400(4) 1.1503(10) 0.3229(3)
O9 O 0.3047(3) 0.7720(10) 0.3604(2)
O10 O 0.2264(5) 0.5816(16) 0.4297(3)
O11 O 0.4988(3) 0.3920(11) 0.2772(3)
O12 O 0.5196(7) 0.0061(17) 0.3105(5)
N1 N 0.2774(6) 0.289(2) 0.0846(4)
C1 C 0.2486(5) 0.5113(17) 0.1774(4)
H1 H 0.273578 0.657436 0.156674
C2 C 0.1666(5) 0.5784(15) 0.2109(3)
H2 H 0.133992 0.427372 0.222473
C3 C 0.1946(4) 0.7288(16) 0.2691(3)
H3 H 0.214133 0.895180 0.256180
C4 C 0.2705(5) 0.6062(15) 0.3110(3)
H4 H 0.248346 0.452564 0.330033
C5 C 0.3480(5) 0.5482(15) 0.2717(4)
H5 H 0.374626 0.702323 0.256158
C6 C 0.4179(5) 0.4017(17) 0.3110(4)
H6 H 0.432175 0.479210 0.353308
H7 H 0.395344 0.233793 0.317475
C7 C 0.5510(6) 0.202(2) 0.2892(5)
C8 C 0.637(2) 0.240(8) 0.261(3)
C9 C 0.6387(12) 0.343(4) 0.2022(10)
H8 H 0.584644 0.407883 0.180949
C10 C 0.7211(12) 0.355(4) 0.1709(10)
H9 H 0.722223 0.427202 0.130011
C11 C 0.7982(14) 0.256(5) 0.2042(12)
H10 H 0.854180 0.275787 0.187120
C12 C 0.797(2) 0.132(7) 0.2595(17)
H11 H 0.849343 0.049685 0.278167
C13 C 0.7185(14) 0.126(5) 0.2883(13)
H12 H 0.718334 0.043737 0.327898
C14 C 0.0184(5) 0.6803(17) 0.1627(4)
C15 C -0.0308(6) 0.8512(17) 0.1176(4)
C16 C -0.1236(6) 0.808(2) 0.1026(4)
H13 H -0.152039 0.673300 0.120763
C17 C -0.1730(8) 0.968(3) 0.0607(5)
H14 H -0.235465 0.939931 0.049679
C18 C -0.1320(9) 1.165(3) 0.0353(5)
H15 H -0.166269 1.275219 0.007679
C19 C -0.0400(8) 1.201(2) 0.0502(5)
H16 H -0.011417 1.333465 0.031005
C20 C 0.0100(7) 1.0505(19) 0.0919(4)
H17 H 0.072198 1.082374 0.103072
C21 C 0.0977(5) 0.9678(14) 0.3300(4)
C22 C 0.0214(5) 0.9460(14) 0.3673(3)
C23 C -0.0373(4) 0.7433(15) 0.3607(3)
H18 H -0.028780 0.619580 0.330190
C24 C -0.1072(5) 0.7241(16) 0.3983(4)
H19 H -0.146809 0.587561 0.393376
C25 C -0.1198(5) 0.9010(15) 0.4429(4)
H20 H -0.167832 0.886421 0.468917
C26 C -0.0618(5) 1.1024(15) 0.4498(4)
H21 H -0.070801 1.225056 0.480518
C27 C 0.0090(5) 1.1253(14) 0.4124(4)
H22 H 0.048575 1.262026 0.417536
C28 C 0.2789(5) 0.735(2) 0.4197(4)
C29 C 0.3278(8) 0.920(2) 0.4635(5)
C30 C 0.3015(8) 0.938(3) 0.5246(6)
H23 H 0.253697 0.839069 0.536637
C31 C 0.3451(8) 1.101(4) 0.5681(5)
H24 H 0.327074 1.113651 0.609861
C32 C 0.4150(8) 1.246(3) 0.5505(5)
H25 H 0.444784 1.357396 0.580200
C33 C 0.4413(10) 1.228(2) 0.4894(5)
H26 H 0.489118 1.326562 0.477313
C34 C 0.3977(10) 1.064(2) 0.4459(4)
H27 H 0.415741 1.051981 0.404087
O13? O 0.5575(18) 0.161(6) 0.3493(9)
C35? C 0.641(2) 0.185(9) 0.266(3)
C36? C 0.6746(12) 0.415(4) 0.2575(11)
H28? H 0.638538 0.556629 0.261136
C37? C 0.7679(12) 0.435(4) 0.2424(10)
H29? H 0.795740 0.588145 0.235310
C38? C 0.8122(18) 0.213(6) 0.2392(17)
H30? H 0.873701 0.211041 0.231403
C39? C 0.7652(16) -0.018(5) 0.2479(12)
H31? H 0.793658 -0.171126 0.242657
C40? C 0.6862(15) -0.006(5) 0.2624(11)
H32? H 0.657899 -0.156704 0.271213
C41? C 0.3080(17) 0.875(5) 0.4745(12)
C42? C 0.3060(18) 0.812(5) 0.5381(13)
H33? H 0.282435 0.657379 0.549012
C43? C 0.338(2) 0.974(6) 0.5859(11)
H34? H 0.336928 0.931003 0.629382
C44? C 0.373(3) 1.200(5) 0.5700(13)
H35? H 0.394889 1.311386 0.602590
C45? C 0.375(3) 1.264(4) 0.5063(14)
H36? H 0.398356 1.418149 0.495427
C46? C 0.342(2) 1.101(5) 0.4586(11)
H37? H 0.343863 1.144528 0.415056
loop_
_geom_bond_atom_site_label_1
_geom_bond_atom_site_label_2
_geom_bond_site_symmetry_1
_geom_bond_site_symmetry_2
O1 C1 1_555 1_555
O2 N1 1_555 1_555
O3 N1 1_555 1_555
O4 N1 1_555 1_555
O5 C2 1_555 1_555
O6 C14 1_555 1_555
O7 C3 1_555 1_555
O8 C21 1_555 1_555
O9 C4 1_555 1_555
O10 C28 1_555 1_555
O11 C6 1_555 1_555
O12 C7 1_555 1_555
C1 O2 1_555 1_555
H1 C1 1_555 1_555
C2 C1 1_555 1_555
H2 C2 1_555 1_555
C3 C2 1_555 1_555
H3 C3 1_555 1_555
C4 C3 1_555 1_555
H4 C4 1_555 1_555
C5 O1 1_555 1_555
H5 C5 1_555 1_555
C6 C5 1_555 1_555
H6 C6 1_555 1_555
H7 C6 1_555 1_555
C7 O11 1_555 1_555
C8 C7 1_555 1_555
C9 C8 1_555 1_555
H8 C9 1_555 1_555
C10 C9 1_555 1_555
H9 C10 1_555 1_555
C11 C10 1_555 1_555
H10 C11 1_555 1_555
C12 C11 1_555 1_555
H11 C12 1_555 1_555
C13 C8 1_555 1_555
H12 C13 1_555 1_555
C14 O5 1_555 1_555
C15 C14 1_555 1_555
C16 C15 1_555 1_555
H13 C16 1_555 1_555
C17 C16 1_555 1_555
H14 C17 1_555 1_555
C18 C17 1_555 1_555
H15 C18 1_555 1_555
C19 C18 1_555 1_555
H16 C19 1_555 1_555
C20 C15 1_555 1_555
H17 C20 1_555 1_555
C21 O7 1_555 1_555
C22 C21 1_555 1_555
C23 C22 1_555 1_555
H18 C23 1_555 1_555
C24 C23 1_555 1_555
H19 C24 1_555 1_555
C25 C24 1_555 1_555
H20 C25 1_555 1_555
C26 C25 1_555 1_555
H21 C26 1_555 1_555
C27 C22 1_555 1_555
H22 C27 1_555 1_555
C28 O9 1_555 1_555
C29 C28 1_555 1_555
C30 C29 1_555 1_555
H23 C30 1_555 1_555
C31 C30 1_555 1_555
H24 C31 1_555 1_555
C32 C31 1_555 1_555
H25 C32 1_555 1_555
C33 C32 1_555 1_555
H26 C33 1_555 1_555
C34 C29 1_555 1_555
H27 C34 1_555 1_555
C4 C5 1_555 1_555
C12 C13 1_555 1_555
C19 C20 1_555 1_555
C26 C27 1_555 1_555
C33 C34 1_555 1_555

#END
