
#######################################################################
#
#                 Cambridge Crystallographic Data Centre
#                                CCDC 
#
#######################################################################
#
# If this CIF has been generated from an entry in the Cambridge 
# Structural Database, then it will include bibliographic, chemical, 
# crystal, experimental, refinement or atomic coordinate data resulting 
# from the CCDC's data processing and validation procedures.
#
#######################################################################

data_NEWJAC
_chemical_formula_moiety         'C27 H23 Br1 N2 O2'
_chemical_name_systematic        
6-(4-Bromophenyl)-4-methyl-2,10-diphenyl-2,3-diazaspiro[4.5]dec-3-ene-1,8-dione
_symmetry_cell_setting           orthorhombic
_symmetry_space_group_name_H-M   'P 21 21 21'
_symmetry_Int_Tables_number      19
_space_group_name_Hall           'P 2ac 2ab'
loop_
_symmetry_equiv_pos_site_id
_symmetry_equiv_pos_as_xyz
1 x,y,z
2 1/2+x,1/2-y,-z
3 -x,1/2+y,1/2-z
4 1/2-x,-y,1/2+z
_cell_length_a                   10.8551(13)
_cell_length_b                   12.9370(16)
_cell_length_c                   16.384(2)
_cell_angle_alpha                90
_cell_angle_beta                 90
_cell_angle_gamma                90
_cell_volume                     2300.84
_exptl_crystal_colour            colorless
_exptl_crystal_description       block
_cell_formula_units_Z            4
_exptl_crystal_recrystallization_method acetone/n-hexane
loop_
_atom_site_label
_atom_site_type_symbol
_atom_site_fract_x
_atom_site_fract_y
_atom_site_fract_z
Br1 Br 0.98041(8) 0.21147(5) 0.51477(4)
O1 O 0.3753(3) 0.6568(3) 0.6975(2)
O2 O 0.6296(3) 0.4425(2) 0.85570(19)
N1 N 0.8383(3) 0.4660(3) 0.8515(2)
N2 N 0.9244(3) 0.5333(3) 0.8138(2)
C1 C 0.6760(4) 0.5542(3) 0.6850(3)
H1 H 0.6877 0.6165 0.6518
C2 C 0.5356(4) 0.5326(3) 0.6876(3)
H2 H 0.5051 0.5238 0.6324
H3 H 0.5207 0.4688 0.7171
C3 C 0.4674(4) 0.6185(4) 0.7279(3)
C4 C 0.5139(4) 0.6514(3) 0.8090(3)
H4 H 0.4927 0.5988 0.8487
H5 H 0.4719 0.7146 0.8246
C5 C 0.6535(4) 0.6704(3) 0.8129(3)
H6 H 0.6754 0.6693 0.8709
C6 C 0.7268(4) 0.5794(3) 0.7722(2)
C7 C 0.7475(4) 0.4679(4) 0.6436(3)
C8 C 0.8191(5) 0.4899(4) 0.5758(3)
H7 H 0.8209 0.5571 0.5556
C9 C 0.8882(5) 0.4137(4) 0.5375(3)
H8 H 0.9364 0.4302 0.4924
C10 C 0.8852(5) 0.3147(4) 0.5661(3)
C11 C 0.8123(5) 0.2906(4) 0.6322(3)
H9 H 0.8097 0.2229 0.6512
C12 C 0.7433(5) 0.3657(4) 0.6703(3)
H10 H 0.6935 0.3481 0.7143
C13 C 0.6904(4) 0.7764(4) 0.7816(3)
C14 C 0.6511(4) 0.8142(4) 0.7068(3)
H11 H 0.5950 0.7764 0.6760
C15 C 0.6950(5) 0.9076(4) 0.6777(4)
H12 H 0.6686 0.9316 0.6271
C16 C 0.7759(6) 0.9645(4) 0.7220(5)
H13 H 0.8070 1.0261 0.7012
C17 C 0.8119(6) 0.9300(5) 0.7985(5)
H14 H 0.8646 0.9699 0.8303
C18 C 0.7694(5) 0.8363(4) 0.8275(3)
H15 H 0.7945 0.8132 0.8786
C19 C 0.7203(4) 0.4872(3) 0.8297(2)
C20 C 0.8649(4) 0.5957(3) 0.7691(3)
C21 C 0.9340(4) 0.6714(4) 0.7174(3)
H16 H 0.9314 0.7384 0.7426
H17 H 0.8969 0.6749 0.6644
H18 H 1.0182 0.6494 0.7122
C22 C 0.8851(4) 0.3868(4) 0.9037(2)
C23 C 0.8256(4) 0.2935(4) 0.9099(3)
H19 H 0.7538 0.2804 0.8807
C24 C 0.8762(5) 0.2195(4) 0.9613(3)
H20 H 0.8360 0.1565 0.9672
C25 C 0.9822(5) 0.2359(5) 1.0034(3)
H21 H 1.0152 0.1845 1.0365
C26 C 1.0389(5) 0.3284(5) 0.9960(3)
H22 H 1.1109 0.3405 1.0252
C27 C 0.9928(5) 0.4053(4) 0.9465(3)
H23 H 1.0333 0.4684 0.9419
loop_
_geom_bond_atom_site_label_1
_geom_bond_atom_site_label_2
_geom_bond_site_symmetry_1
_geom_bond_site_symmetry_2
Br1 C10 1_555 1_555
O1 C3 1_555 1_555
O2 C19 1_555 1_555
N1 N2 1_555 1_555
N2 C20 1_555 1_555
C1 H1 1_555 1_555
C2 C1 1_555 1_555
H2 C2 1_555 1_555
H3 C2 1_555 1_555
C3 C2 1_555 1_555
C4 C3 1_555 1_555
H4 C4 1_555 1_555
H5 C4 1_555 1_555
C5 C4 1_555 1_555
H6 C5 1_555 1_555
C6 C1 1_555 1_555
C7 C1 1_555 1_555
C8 C7 1_555 1_555
H7 C8 1_555 1_555
C9 C8 1_555 1_555
H8 C9 1_555 1_555
C10 C9 1_555 1_555
C11 C10 1_555 1_555
H9 C11 1_555 1_555
C12 C7 1_555 1_555
H10 C12 1_555 1_555
C13 C5 1_555 1_555
C14 C13 1_555 1_555
H11 C14 1_555 1_555
C15 C14 1_555 1_555
H12 C15 1_555 1_555
C16 C15 1_555 1_555
H13 C16 1_555 1_555
C17 C16 1_555 1_555
H14 C17 1_555 1_555
C18 C13 1_555 1_555
H15 C18 1_555 1_555
C19 N1 1_555 1_555
C20 C6 1_555 1_555
C21 C20 1_555 1_555
H16 C21 1_555 1_555
H17 C21 1_555 1_555
H18 C21 1_555 1_555
C22 N1 1_555 1_555
C23 C22 1_555 1_555
H19 C23 1_555 1_555
C24 C23 1_555 1_555
H20 C24 1_555 1_555
C25 C24 1_555 1_555
H21 C25 1_555 1_555
C26 C25 1_555 1_555
H22 C26 1_555 1_555
C27 C22 1_555 1_555
H23 C27 1_555 1_555
C5 C6 1_555 1_555
C6 C19 1_555 1_555
C11 C12 1_555 1_555
C17 C18 1_555 1_555
C26 C27 1_555 1_555

#END
