
#######################################################################
#
#                 Cambridge Crystallographic Data Centre
#                                CCDC 
#
#######################################################################
#
# If this CIF has been generated from an entry in the Cambridge 
# Structural Database, then it will include bibliographic, chemical, 
# crystal, experimental, refinement or atomic coordinate data resulting 
# from the CCDC's data processing and validation procedures.
#
#######################################################################

data_NEWLUY
_chemical_formula_moiety         'C26 H24 N2 S2'
_chemical_name_systematic        
(5,5-Dimethyl-3-(2-(4-((4-(methylsulfanyl)phenyl)sulfanyl)phenyl)vinyl)cyclohex-2-en-1-ylidene)malononitrile
_symmetry_cell_setting           monoclinic
_symmetry_space_group_name_H-M   'P 21/n'
_symmetry_Int_Tables_number      14
_space_group_name_Hall           '-P 2yn'
loop_
_symmetry_equiv_pos_site_id
_symmetry_equiv_pos_as_xyz
1 x,y,z
2 1/2-x,1/2+y,1/2-z
3 -x,-y,-z
4 1/2+x,1/2-y,1/2+z
_cell_length_a                   5.6649(2)
_cell_length_b                   44.2183(15)
_cell_length_c                   9.2378(4)
_cell_angle_alpha                90
_cell_angle_beta                 97.1237(12)
_cell_angle_gamma                90
_cell_volume                     2296.13
_cell_formula_units_Z            4
loop_
_atom_site_label
_atom_site_type_symbol
_atom_site_fract_x
_atom_site_fract_y
_atom_site_fract_z
S1 S 0.68309(12) 0.134517(13) 0.15383(8)
S2 S 1.32750(10) 0.250565(12) 0.11855(8)
C1 C 0.5689(3) 0.40476(4) 0.2996(2)
C2 C 0.2977(3) 0.44718(4) 0.1947(2)
C3 C 0.1969(3) 0.44671(4) 0.3401(2)
H1 H 0.1412 0.4668 0.3604
H2 H 0.0609 0.4332 0.3323
C4 C 0.3503(4) 0.44517(4) 0.6053(2)
C5 C 0.5566(3) 0.41592(4) 0.4348(2)
H3 H 0.6704 0.41 0.5108
C6 C 0.3730(3) 0.43674(4) 0.4651(2)
C7 C 0.7333(3) 0.38019(4) 0.2818(2)
H4 H 0.854 0.3767 0.3579
C8 C 1.1427(3) 0.28263(4) 0.1321(2)
C9 C 0.4046(3) 0.41588(4) 0.1712(2)
H5 H 0.2762 0.4014 0.1497
H6 H 0.4911 0.4168 0.087
C10 C 0.8536(4) 0.16788(4) 0.1534(2)
C11 C 0.8079(4) 0.19446(4) 0.2261(2)
H7 H 0.6828 0.1951 0.2824
C12 C 0.7986(4) 0.31266(4) 0.0546(2)
H8 H 0.6557 0.3151 -0.0057
C13 C 0.9458(4) 0.21975(4) 0.2157(2)
H9 H 0.9143 0.2372 0.2662
C14 C 1.1318(3) 0.21962(4) 0.1304(2)
C15 C 0.5062(4) 0.43427(5) 0.7281(3)
C16 C 0.1537(4) 0.46350(5) 0.6373(2)
C17 C 1.0916(4) 0.33112(5) 0.2407(2)
H10 H 1.1491 0.3461 0.3065
C18 C 0.0960(4) 0.45337(6) 0.0721(3)
H11 H -0.0232 0.4379 0.0722
H12 H 0.158 0.4533 -0.02
H13 H 0.0266 0.4727 0.0873
C19 C 0.8752(3) 0.33532(4) 0.1541(2)
C20 C 1.2220(4) 0.30505(5) 0.2302(3)
H14 H 1.3653 0.3025 0.2901
C21 C 0.9297(4) 0.28665(4) 0.0432(2)
H15 H 0.875 0.2718 -0.0242
C22 C 1.1767(4) 0.19348(5) 0.0575(3)
H16 H 1.2992 0.193 -0.0008
C23 C 1.0409(4) 0.16790(5) 0.0706(3)
H17 H 1.0764 0.1503 0.0227
C24 C 0.7254(3) 0.36228(4) 0.1659(2)
H18 H 0.6164 0.3671 0.0855
C25 C 0.4854(4) 0.47193(5) 0.1958(3)
H19 H 0.5479 0.4721 0.1039
H20 H 0.6119 0.4681 0.2728
H21 H 0.4145 0.4912 0.2114
C26 C 0.5550(7) 0.13635(8) 0.3193(4)
H22 H 0.4588 0.1187 0.3281
H23 H 0.458 0.1541 0.3194
H24 H 0.6791 0.1372 0.4001
N1 N -0.0048(5) 0.47734(5) 0.6626(3)
N2 N 0.6278(4) 0.42501(6) 0.8255(2)
loop_
_geom_bond_atom_site_label_1
_geom_bond_atom_site_label_2
_geom_bond_site_symmetry_1
_geom_bond_site_symmetry_2
S1 C10 1_555 1_555
S2 C8 1_555 1_555
C1 C5 1_555 1_555
C2 C3 1_555 1_555
C3 H1 1_555 1_555
H2 C3 1_555 1_555
C4 C6 1_555 1_555
C5 H3 1_555 1_555
C6 C3 1_555 1_555
C7 C1 1_555 1_555
H4 C7 1_555 1_555
C8 C20 1_555 1_555
C9 C1 1_555 1_555
H5 C9 1_555 1_555
H6 C9 1_555 1_555
C10 C11 1_555 1_555
C11 H7 1_555 1_555
C12 H8 1_555 1_555
C13 C11 1_555 1_555
H9 C13 1_555 1_555
C14 S2 1_555 1_555
C15 C4 1_555 1_555
C16 C4 1_555 1_555
C17 H10 1_555 1_555
C18 C2 1_555 1_555
H11 C18 1_555 1_555
H12 C18 1_555 1_555
H13 C18 1_555 1_555
C19 C12 1_555 1_555
C20 C17 1_555 1_555
H14 C20 1_555 1_555
C21 C8 1_555 1_555
H15 C21 1_555 1_555
C22 C14 1_555 1_555
H16 C22 1_555 1_555
C23 C10 1_555 1_555
H17 C23 1_555 1_555
C24 C7 1_555 1_555
H18 C24 1_555 1_555
C25 C2 1_555 1_555
H19 C25 1_555 1_555
H20 C25 1_555 1_555
H21 C25 1_555 1_555
C26 S1 1_555 1_555
H22 C26 1_555 1_555
H23 C26 1_555 1_555
H24 C26 1_555 1_555
N1 C16 1_555 1_555
N2 C15 1_555 1_555
C2 C9 1_555 1_555
C5 C6 1_555 1_555
C12 C21 1_555 1_555
C13 C14 1_555 1_555
C17 C19 1_555 1_555
C19 C24 1_555 1_555
C22 C23 1_555 1_555

#END
