
#######################################################################
#
#                 Cambridge Crystallographic Data Centre
#                                CCDC 
#
#######################################################################
#
# If this CIF has been generated from an entry in the Cambridge 
# Structural Database, then it will include bibliographic, chemical, 
# crystal, experimental, refinement or atomic coordinate data resulting 
# from the CCDC's data processing and validation procedures.
#
#######################################################################

data_NEWLOS
_chemical_formula_moiety         'C20 H20 N2 S1'
_chemical_name_systematic        
(5,5-Dimethyl-3-(2-(4-(methylsulfanyl)phenyl)vinyl)cyclohex-2-en-1-ylidene)malononitrile
_symmetry_cell_setting           monoclinic
_symmetry_space_group_name_H-M   'P 21/c'
_symmetry_Int_Tables_number      14
_space_group_name_Hall           '-P 2ybc'
loop_
_symmetry_equiv_pos_site_id
_symmetry_equiv_pos_as_xyz
1 x,y,z
2 -x,1/2+y,1/2-z
3 -x,-y,-z
4 x,1/2-y,1/2+z
_cell_length_a                   6.2408(5)
_cell_length_b                   17.2380(14)
_cell_length_c                   16.7115(16)
_cell_angle_alpha                90
_cell_angle_beta                 91.427(3)
_cell_angle_gamma                90
_cell_volume                     1797.25
_cell_formula_units_Z            4
loop_
_atom_site_label
_atom_site_type_symbol
_atom_site_fract_x
_atom_site_fract_y
_atom_site_fract_z
C1 C -0.5187(2) 0.61142(9) -0.46613(9)
C2 C -0.7257(3) 0.64538(11) -0.43909(10)
C3 C -0.7122(2) 0.67245(9) -0.35186(9)
C4 C -0.6381(3) 0.60377(10) -0.29994(10)
C5 C -0.4478(2) 0.56115(8) -0.33123(9)
C6 C -0.3960(3) 0.56663(9) -0.40937(9)
C7 C -0.4506(3) 0.62187(9) -0.54219(9)
C8 C -0.5669(3) 0.66886(12) -0.59840(11)
C9 C -0.2559(3) 0.58844(10) -0.57004(10)
C10 C -0.9332(3) 0.69927(13) -0.32600(13)
C11 C -0.5544(3) 0.73977(11) -0.34379(12)
C12 C -0.3130(3) 0.51439(9) -0.27830(10)
C13 C -0.3411(3) 0.50252(9) -0.20009(10)
C14 C -0.1972(3) 0.45967(9) -0.14593(9)
C15 C 0.0057(3) 0.43427(10) -0.16764(11)
C16 C 0.1403(3) 0.39618(10) -0.11410(10)
C17 C 0.0761(3) 0.38106(9) -0.03606(9)
C18 C -0.1249(3) 0.40532(10) -0.01394(10)
C19 C -0.2576(3) 0.44458(10) -0.06790(10)
C20 C 0.1254(4) 0.31953(16) 0.11781(13)
N1 N -0.1013(3) 0.56130(11) -0.59206(10)
N2 N -0.6575(3) 0.70769(14) -0.64306(11)
S1 S 0.26346(8) 0.33280(3) 0.02658(3)
H1 H -0.194(3) 0.4912(9) -0.3025(10)
H2 H -0.272(3) 0.5400(9) -0.4273(10)
H3 H -0.605(2) 0.6218(10) -0.2468(11)
H4 H -0.400(3) 0.4607(10) -0.0536(11)
H5 H -0.462(3) 0.5236(9) -0.1770(10)
H6 H -0.762(3) 0.5652(10) -0.2969(11)
H7 H -0.841(3) 0.6035(10) -0.4431(10)
H8 H -0.405(3) 0.7274(10) -0.3610(11)
H9 H -1.030(3) 0.6549(11) -0.3288(10)
H10 H -0.771(3) 0.6869(10) -0.4742(11)
H11 H -0.600(3) 0.7821(12) -0.3774(12)
H12 H 0.054(3) 0.4432(10) -0.2227(12)
H13 H -0.176(3) 0.3957(10) 0.0395(12)
H14 H -0.546(3) 0.7598(11) -0.2885(13)
H15 H 0.081(4) 0.3712(15) 0.1390(15)
H16 H -0.982(3) 0.7407(12) -0.3616(13)
H17 H 0.283(3) 0.3807(10) -0.1306(10)
H18 H 0.011(4) 0.2847(13) 0.1068(14)
H19 H -0.924(3) 0.7200(11) -0.2705(14)
H20 H 0.219(4) 0.2935(15) 0.1525(16)
loop_
_geom_bond_atom_site_label_1
_geom_bond_atom_site_label_2
_geom_bond_site_symmetry_1
_geom_bond_site_symmetry_2
C1 C2 1_555 1_555
C2 C3 1_555 1_555
C3 C4 1_555 1_555
C4 C5 1_555 1_555
C5 C6 1_555 1_555
C6 C1 1_555 1_555
C7 C1 1_555 1_555
C8 C7 1_555 1_555
C9 C7 1_555 1_555
C10 C3 1_555 1_555
C11 C3 1_555 1_555
C12 C5 1_555 1_555
C13 C12 1_555 1_555
C14 C13 1_555 1_555
C15 C14 1_555 1_555
C16 C15 1_555 1_555
C17 C16 1_555 1_555
C18 C17 1_555 1_555
C19 C14 1_555 1_555
C20 S1 1_555 1_555
N1 C9 1_555 1_555
N2 C8 1_555 1_555
S1 C17 1_555 1_555
H1 C12 1_555 1_555
H2 C6 1_555 1_555
H3 C4 1_555 1_555
H4 C19 1_555 1_555
H5 C13 1_555 1_555
H6 C4 1_555 1_555
H7 C2 1_555 1_555
H8 C11 1_555 1_555
H9 C10 1_555 1_555
H10 C2 1_555 1_555
H11 C11 1_555 1_555
H12 C15 1_555 1_555
H13 C18 1_555 1_555
H14 C11 1_555 1_555
H15 C20 1_555 1_555
H16 C10 1_555 1_555
H17 C16 1_555 1_555
H18 C20 1_555 1_555
H19 C10 1_555 1_555
H20 C20 1_555 1_555
C18 C19 1_555 1_555

#END
