
#######################################################################
#
#                 Cambridge Crystallographic Data Centre
#                                CCDC 
#
#######################################################################
#
# If this CIF has been generated from an entry in the Cambridge 
# Structural Database, then it will include bibliographic, chemical, 
# crystal, experimental, refinement or atomic coordinate data resulting 
# from the CCDC's data processing and validation procedures.
#
#######################################################################

data_NEWMEJ
_chemical_compound_source        'rhizomes of Curcuma longa (turmeric)'
_chemical_name_common            'Bisabolocurcumin ether methanol solvate'
_chemical_formula_moiety         'C36 H42 O8,C1 H4 O1'
_chemical_name_systematic        
'1-(4-Hydroxy-3-methoxyphenyl)-7-(4-((4-hydroxy-3-methyl-6-(6-methyl-4-oxohept-5-en-2-yl)cyclohex-2-en-1-yl)oxy)-3-methoxyphenyl)hepta-1,6-diene-3,5-dione methanol solvate'
_chemical_properties_biological  'cytotoxic activity'
_symmetry_cell_setting           monoclinic
_symmetry_space_group_name_H-M   'P 21'
_symmetry_Int_Tables_number      4
_space_group_name_Hall           'P 2yb'
loop_
_symmetry_equiv_pos_site_id
_symmetry_equiv_pos_as_xyz
1 x,y,z
2 -x,1/2+y,-z
_cell_length_a                   9.336(5)
_cell_length_b                   9.701(5)
_cell_length_c                   19.187(11)
_cell_angle_alpha                90
_cell_angle_beta                 100.441(17)
_cell_angle_gamma                90
_cell_volume                     1708.97
_exptl_crystal_colour            red
_exptl_crystal_description       Prism
_cell_formula_units_Z            2
_exptl_crystal_recrystallization_method methanol
loop_
_atom_site_label
_atom_site_type_symbol
_atom_site_fract_x
_atom_site_fract_y
_atom_site_fract_z
O1 O 0.1538(4) -0.2003(4) -0.0694(2)
O2 O 0.1169(4) -0.4647(4) -0.03748(19)
H1 H 0.2012 -0.4394 -0.0360
O3 O -0.3718(4) -0.0852(5) -0.3947(2)
O4 O -0.5600(4) -0.0711(5) -0.5041(2)
O5 O -1.1545(4) -0.5321(4) -0.70329(18)
O6 O -1.2858(3) -0.3539(4) -0.79194(15)
O7 O -1.5760(4) -0.3902(4) -1.01875(17)
O8 O -1.4565(5) -0.1142(6) -0.7001(2)
C1 C -0.1521(5) -0.2940(6) -0.2129(2)
C2 C -0.0417(5) -0.2148(6) -0.1716(2)
H2 H -0.0284 -0.1237 -0.1840
C3 C 0.0468(5) -0.2705(5) -0.1130(2)
C4 C 0.0296(5) -0.4062(6) -0.0945(2)
C5 C -0.0818(6) -0.4830(6) -0.1322(3)
H3 H -0.0964 -0.5731 -0.1185
C6 C -0.1728(5) -0.4267(6) -0.1908(3)
H4 H -0.2488 -0.4793 -0.2153
C7 C -0.2360(5) -0.2299(6) -0.2754(2)
H5 H -0.2165 -0.1374 -0.2823
C8 C -0.3398(5) -0.2892(7) -0.3250(2)
H6 H -0.3648 -0.3811 -0.3204
C9 C -0.4126(6) -0.2087(7) -0.3861(3)
C10 C -0.5246(5) -0.2699(6) -0.4355(2)
H7 H -0.5986 -0.3006 -0.4095
H8 H -0.4842 -0.3520 -0.4534
C11 C -0.5956(5) -0.1954(6) -0.4943(3)
C12 C -0.7119(5) -0.2596(6) -0.5447(2)
H9 H -0.7363 -0.3510 -0.5380
C13 C -0.7846(5) -0.1901(6) -0.6005(2)
H10 H -0.7516 -0.1012 -0.6064
C14 C -0.9081(5) -0.2354(6) -0.6529(2)
C15 C -0.9645(5) -0.3690(6) -0.6536(2)
H11 H -0.9177 -0.4343 -0.6219
C16 C -1.0896(5) -0.4056(5) -0.7009(2)
C17 C -1.1592(5) -0.3092(6) -0.7502(2)
C18 C -1.1002(5) -0.1787(6) -0.7511(3)
H12 H -1.1433 -0.1145 -0.7844
C19 C -0.9773(5) -0.1434(6) -0.7026(2)
H13 H -0.9401 -0.0546 -0.7035
C20 C -1.3686(4) -0.2569(5) -0.8428(2)
H14 H -1.3687 -0.1660 -0.8205
C21 C -1.2972(5) -0.2461(5) -0.9057(2)
H15 H -1.1963 -0.2379 -0.8972
C22 C -1.3635(5) -0.2471(5) -0.9725(2)
C23 C -1.5266(5) -0.2562(6) -0.9896(2)
H16 H -1.5617 -0.1859 -1.0253
C24 C -1.5954(5) -0.2299(6) -0.9267(2)
H17 H -1.6975 -0.2551 -0.9382
H18 H -1.5901 -0.1320 -0.9162
C25 C -1.5233(4) -0.3102(5) -0.8601(2)
H19 H -1.5193 -0.4076 -0.8731
C26 C 0.1588(7) -0.0554(6) -0.0766(4)
H20 H 0.2381 -0.0192 -0.0426
H21 H 0.0689 -0.0162 -0.0684
H22 H 0.1727 -0.0326 -0.1235
C27 C -1.1056(7) -0.6237(7) -0.6460(3)
H23 H -1.1596 -0.7083 -0.6534
H24 H -1.1205 -0.5821 -0.6024
H25 H -1.0039 -0.6424 -0.6434
C28 C -1.2840(6) -0.2393(7) -1.0340(3)
H26 H -1.1814 -0.2305 -1.0165
H27 H -1.3178 -0.1608 -1.0628
H28 H -1.3021 -0.3218 -1.0619
C29 C -1.6177(5) -0.2985(6) -0.8024(2)
H29 H -1.6476 -0.2019 -0.8005
C30 C -1.7565(6) -0.3852(8) -0.8227(3)
H30 H -1.8056 -0.3594 -0.8693
H31 H -1.8196 -0.3692 -0.7892
H32 H -1.7310 -0.4811 -0.8224
C31 C -1.5424(6) -0.3398(7) -0.7274(2)
H33 H -1.6174 -0.3685 -0.7015
H34 H -1.4825 -0.4200 -0.7317
C32 C -1.4498(6) -0.2361(8) -0.6837(3)
C33 C -1.3613(6) -0.2863(9) -0.6194(3)
H35 H -1.3670 -0.3760 -0.6030
C34 C -1.2158(7) -0.0615(11) -0.5862(3)
H36 H -1.2767 -0.0168 -0.6253
H37 H -1.1171 -0.0633 -0.5941
H38 H -1.2200 -0.0119 -0.5433
C35 C -1.2565(7) -0.2384(11) -0.5707(3)
C36 C -1.1744(7) -0.3235(11) -0.5094(3)
H39 H -1.2168 -0.4138 -0.5101
H40 H -1.1805 -0.2790 -0.4653
H41 H -1.0740 -0.3314 -0.5140
H42 H -1.570(6) -0.464(4) -1.054(2)
O9 O -1.5601(7) -0.3986(8) -1.1723(3)
C37 C -1.6192(12) -0.2844(16) -1.2070(5)
H43 H -1.532(4) -0.226(3) -1.199(3)
H44 H -1.693(5) -0.268(5) -1.177(3)
H45 H -1.618(5) -0.437(7) -1.154(6)
H46 H -1.649(7) -0.329(4) -1.2533(13)
C38? C -1.258(2) -0.179(3) -0.5808(11)
C39? C -1.1686(18) -0.246(2) -0.5118(8)
H47? H -1.1964 -0.3405 -0.5088
H48? H -1.1880 -0.1967 -0.4710
H49? H -1.0665 -0.2405 -0.5133
C40? C -1.2208(17) -0.109(2) -0.5662(8)
H50? H -1.1176 -0.0997 -0.5638
H51? H -1.2472 -0.0699 -0.5242
H52? H -1.2712 -0.0606 -0.6071
loop_
_geom_bond_atom_site_label_1
_geom_bond_atom_site_label_2
_geom_bond_site_symmetry_1
_geom_bond_site_symmetry_2
O1 C3 1_555 1_555
O2 H1 1_555 1_555
O3 C9 1_555 1_555
O4 C11 1_555 1_555
O5 C16 1_555 1_555
O6 C17 1_555 1_555
O7 C23 1_555 1_555
O8 C32 1_555 1_555
C1 C2 1_555 1_555
C2 H2 1_555 1_555
C3 C2 1_555 1_555
C4 O2 1_555 1_555
C5 C4 1_555 1_555
H3 C5 1_555 1_555
C6 C1 1_555 1_555
H4 C6 1_555 1_555
C7 C1 1_555 1_555
H5 C7 1_555 1_555
C8 C7 1_555 1_555
H6 C8 1_555 1_555
C9 C8 1_555 1_555
C10 C9 1_555 1_555
H7 C10 1_555 1_555
H8 C10 1_555 1_555
C11 C10 1_555 1_555
C12 C11 1_555 1_555
H9 C12 1_555 1_555
C13 C12 1_555 1_555
H10 C13 1_555 1_555
C14 C13 1_555 1_555
C15 C14 1_555 1_555
H11 C15 1_555 1_555
C16 C15 1_555 1_555
C17 C16 1_555 1_555
C18 C17 1_555 1_555
H12 C18 1_555 1_555
C19 C14 1_555 1_555
H13 C19 1_555 1_555
C20 O6 1_555 1_555
H14 C20 1_555 1_555
C21 C20 1_555 1_555
H15 C21 1_555 1_555
C22 C21 1_555 1_555
C23 C22 1_555 1_555
H16 C23 1_555 1_555
C24 C23 1_555 1_555
H17 C24 1_555 1_555
H18 C24 1_555 1_555
C25 C20 1_555 1_555
H19 C25 1_555 1_555
C26 O1 1_555 1_555
H20 C26 1_555 1_555
H21 C26 1_555 1_555
H22 C26 1_555 1_555
C27 O5 1_555 1_555
H23 C27 1_555 1_555
H24 C27 1_555 1_555
H25 C27 1_555 1_555
C28 C22 1_555 1_555
H26 C28 1_555 1_555
H27 C28 1_555 1_555
H28 C28 1_555 1_555
C29 C25 1_555 1_555
H29 C29 1_555 1_555
C30 C29 1_555 1_555
H30 C30 1_555 1_555
H31 C30 1_555 1_555
H32 C30 1_555 1_555
C31 C29 1_555 1_555
H33 C31 1_555 1_555
H34 C31 1_555 1_555
C32 C31 1_555 1_555
C33 C32 1_555 1_555
H35 C33 1_555 1_555
C34 H36 1_555 1_555
H37 C34 1_555 1_555
H38 C34 1_555 1_555
C35 C33 1_555 1_555
C36 C35 1_555 1_555
H39 C36 1_555 1_555
H40 C36 1_555 1_555
H41 C36 1_555 1_555
H42 O7 1_555 1_555
O9 C37 1_555 1_555
C37 H43 1_555 1_555
H44 C37 1_555 1_555
H45 O9 1_555 1_555
H46 C37 1_555 1_555
C3 C4 1_555 1_555
C5 C6 1_555 1_555
C18 C19 1_555 1_555
C24 C25 1_555 1_555
C34 C35 1_555 1_555

#END
