
#######################################################################
#
#                 Cambridge Crystallographic Data Centre
#                                CCDC 
#
#######################################################################
#
# If this CIF has been generated from an entry in the Cambridge 
# Structural Database, then it will include bibliographic, chemical, 
# crystal, experimental, refinement or atomic coordinate data resulting 
# from the CCDC's data processing and validation procedures.
#
#######################################################################

data_NEWNAF
_chemical_formula_moiety         'C21 H24 O6'
_chemical_name_systematic        
'Diethyl 3-(4-hydroxy-2-oxopent-3-en-3yl)-2-methyl-1H-indene-1,1-dicarboxylate'
_symmetry_cell_setting           monoclinic
_symmetry_space_group_name_H-M   'P 21/c'
_symmetry_Int_Tables_number      14
_space_group_name_Hall           '-P 2ybc'
loop_
_symmetry_equiv_pos_site_id
_symmetry_equiv_pos_as_xyz
1 x,y,z
2 -x,1/2+y,1/2-z
3 -x,-y,-z
4 x,1/2-y,1/2+z
_cell_length_a                   11.0511(10)
_cell_length_b                   20.5371(16)
_cell_length_c                   9.0441(8)
_cell_angle_alpha                90.00
_cell_angle_beta                 96.047(4)
_cell_angle_gamma                90.00
_cell_volume                     2041.21
_chemical_melting_point          '94-96 deg.C'
_cell_formula_units_Z            4
loop_
_atom_site_label
_atom_site_type_symbol
_atom_site_fract_x
_atom_site_fract_y
_atom_site_fract_z
C1 C 0.1572(2) 0.13128(11) 0.1491(3)
C2 C 0.1544(3) 0.14241(13) -0.0026(3)
H1 H 0.0821 0.1528 -0.0598
C3 C 0.2624(3) 0.13749(15) -0.0657(3)
H2 H 0.2631 0.1457 -0.1667
C4 C 0.3692(3) 0.12060(15) 0.0179(3)
H3 H 0.4403 0.1164 -0.0279
C5 C 0.3720(2) 0.10986(13) 0.1694(3)
H4 H 0.4444 0.0991 0.2260
C6 C 0.2651(2) 0.11546(11) 0.2348(3)
C7 C 0.2396(2) 0.10615(11) 0.3902(2)
C8 C 0.1201(2) 0.11456(11) 0.4017(3)
C9 C 0.0545(2) 0.13022(11) 0.2482(3)
C10 C 0.0564(2) 0.10849(14) 0.5380(3)
H5 H 0.1105 0.0895 0.6163
H6 H -0.0139 0.0812 0.5175
H7 H 0.0316 0.1508 0.5681
C11 C 0.3345(2) 0.09031(12) 0.5124(2)
C12 C 0.4088(2) 0.14020(14) 0.5794(3)
C13 C 0.3905(3) 0.20903(16) 0.5362(4)
H8 H 0.4594 0.2342 0.5768
H9 H 0.3183 0.2252 0.5739
H10 H 0.3820 0.2125 0.4298
C14 C 0.3516(3) 0.02672(14) 0.5626(3)
C15 C 0.2775(3) -0.02830(15) 0.5028(4)
H11 H 0.3218 -0.0526 0.4356
H12 H 0.2032 -0.0123 0.4507
H13 H 0.2590 -0.0560 0.5829
C16 C -0.0116(3) 0.19606(13) 0.2527(3)
C17 C -0.1855(3) 0.24860(16) 0.3289(5)
H14 H -0.1845 0.2759 0.2415
H15 H -0.1515 0.2732 0.4150
C18 C -0.3098(4) 0.2289(2) 0.3470(7)
H16 H -0.3398 0.2011 0.2660
H17 H -0.3605 0.2668 0.3479
H18 H -0.3109 0.2057 0.4391
C19 C -0.0331(2) 0.07585(12) 0.1945(3)
C20 C -0.1881(3) 0.04487(18) 0.0076(5)
H19 H -0.1540 0.0270 -0.0782
H20 H -0.1954 0.0097 0.0777
C21 C -0.2963(4) 0.0685(3) -0.0342(9)
H21 H -0.3217 0.0957 0.0432
H22 H -0.3530 0.0334 -0.0536
H23 H -0.2934 0.0938 -0.1230
O1 O 0.49579(18) 0.12768(12) 0.6818(2)
O2 O 0.4371(2) 0.01242(11) 0.6688(2)
H24 H 0.4738 0.0457 0.6964
O3 O -0.11429(19) 0.18980(9) 0.3126(2)
O4 O 0.0271(2) 0.24598(10) 0.2132(3)
O5 O -0.10596(18) 0.09419(9) 0.0765(2)
O6 O -0.0329(2) 0.02299(9) 0.2468(2)
loop_
_geom_bond_atom_site_label_1
_geom_bond_atom_site_label_2
_geom_bond_site_symmetry_1
_geom_bond_site_symmetry_2
C1 C2 1_555 1_555
C2 H1 1_555 1_555
C3 C2 1_555 1_555
H2 C3 1_555 1_555
C4 C3 1_555 1_555
H3 C4 1_555 1_555
C5 C4 1_555 1_555
H4 C5 1_555 1_555
C6 C1 1_555 1_555
C7 C6 1_555 1_555
C8 C7 1_555 1_555
C9 C1 1_555 1_555
C10 C8 1_555 1_555
H5 C10 1_555 1_555
H6 C10 1_555 1_555
H7 C10 1_555 1_555
C11 C7 1_555 1_555
C12 C11 1_555 1_555
C13 C12 1_555 1_555
H8 C13 1_555 1_555
H9 C13 1_555 1_555
H10 C13 1_555 1_555
C14 C11 1_555 1_555
C15 C14 1_555 1_555
H11 C15 1_555 1_555
H12 C15 1_555 1_555
H13 C15 1_555 1_555
C16 C9 1_555 1_555
C17 H14 1_555 1_555
H15 C17 1_555 1_555
C18 C17 1_555 1_555
H16 C18 1_555 1_555
H17 C18 1_555 1_555
H18 C18 1_555 1_555
C19 C9 1_555 1_555
C20 H19 1_555 1_555
H20 C20 1_555 1_555
C21 C20 1_555 1_555
H21 C21 1_555 1_555
H22 C21 1_555 1_555
H23 C21 1_555 1_555
O1 C12 1_555 1_555
O2 C14 1_555 1_555
H24 O2 1_555 1_555
O3 C16 1_555 1_555
O4 C16 1_555 1_555
O5 C19 1_555 1_555
O6 C19 1_555 1_555
C5 C6 1_555 1_555
C8 C9 1_555 1_555
C17 O3 1_555 1_555
C20 O5 1_555 1_555

#END
