
#######################################################################
#
#                 Cambridge Crystallographic Data Centre
#                                CCDC 
#
#######################################################################
#
# If this CIF has been generated from an entry in the Cambridge 
# Structural Database, then it will include bibliographic, chemical, 
# crystal, experimental, refinement or atomic coordinate data resulting 
# from the CCDC's data processing and validation procedures.
#
#######################################################################

data_NEWPEL
_chemical_name_common            
'cis-anti-cis-Dicyclohexano-18-crown-6 bis(3-thionicotinamide) monohydrate'
_chemical_formula_moiety         'C20 H36 O6,2(C6 H6 N2 S1),H2 O1'
_chemical_name_systematic        
'cis-anti-cis-2,3;11,12-Dicyclohexano-1,4,7,10,13,16-hexaoxacyclo-octadecane bis(3-thioamidopyridine) monohydrate'
_symmetry_cell_setting           orthorhombic
_symmetry_space_group_name_H-M   'P c c n'
_symmetry_Int_Tables_number      56
_space_group_name_Hall           '-P 2ab 2ac'
loop_
_symmetry_equiv_pos_site_id
_symmetry_equiv_pos_as_xyz
1 x,y,z
2 1/2-x,1/2-y,z
3 -x,1/2+y,1/2-z
4 1/2+x,-y,1/2-z
5 -x,-y,-z
6 1/2+x,1/2+y,-z
7 x,1/2-y,1/2+z
8 1/2-x,y,1/2+z
_cell_length_a                   16.8797(13)
_cell_length_b                   18.6849(14)
_cell_length_c                   11.3309(9)
_cell_angle_alpha                90
_cell_angle_beta                 90
_cell_angle_gamma                90
_cell_volume                     3573.71
_exptl_crystal_colour            yellow
_exptl_crystal_description       prism
_chemical_melting_point          '115-116 deg.C'
_cell_formula_units_Z            4
loop_
_atom_site_label
_atom_site_type_symbol
_atom_site_fract_x
_atom_site_fract_y
_atom_site_fract_z
S1 S 0.62433(3) 0.55099(3) 0.68195(5)
N1 N 0.34964(9) 0.66106(8) 0.66123(17)
N2 N 0.50648(10) 0.51777(8) 0.82038(14)
H2 H 0.4547(11) 0.5122(9) 0.8361(14)
H3 H 0.5417(11) 0.4926(9) 0.8600(15)
C1 C 0.35415(14) 0.66427(11) 0.5439(2)
H4 H 0.3150 0.6892 0.5034
C2 C 0.41307(17) 0.63293(12) 0.48022(19)
H5 H 0.4135 0.6362 0.3983
C3 C 0.47161(12) 0.59652(9) 0.53815(15)
H6 H 0.5130 0.5758 0.4961
C4 C 0.46885(10) 0.59071(8) 0.65904(14)
C5 C 0.40664(11) 0.62340(9) 0.71532(16)
H7 H 0.4038 0.6191 0.7970
C6 C 0.53089(9) 0.55147(8) 0.72533(14)
O1 O 0.39080(6) 0.57417(5) 1.02951(9)
O2 O 0.65267(6) 0.53623(5) 1.12591(8)
O3 O 0.52859(6) 0.63811(5) 1.13099(9)
C7 C 0.66131(9) 0.60622(8) 1.17569(12)
H8 H 0.7164 0.6212 1.1647
C8 C 0.64613(10) 0.60024(10) 1.30604(13)
H9 H 0.5920 0.5847 1.3193
H10 H 0.6813 0.5647 1.3399
C9 C 0.65955(13) 0.67182(11) 1.36589(16)
H11 H 0.7151 0.6848 1.3600
H12 H 0.6462 0.6679 1.4489
C10 C 0.60932(13) 0.72971(11) 1.30935(18)
H13 H 0.6224 0.7756 1.3445
H14 H 0.5539 0.7201 1.3251
C11 C 0.62219(11) 0.73375(9) 1.17743(16)
H15 H 0.5862 0.7687 1.1439
H16 H 0.6759 0.7496 1.1617
C12 C 0.60865(9) 0.66171(8) 1.11874(13)
H17 H 0.6218 0.6654 1.0347
C13 C 0.47581(11) 0.67429(9) 1.05535(17)
H18 H 0.4763 0.7251 1.0732
H19 H 0.4925 0.6681 0.9741
C14 C 0.39404(10) 0.64545(10) 1.07080(18)
H20 H 0.3567 0.6747 1.0271
H21 H 0.3795 0.6469 1.1536
C15 C 0.68585(9) 0.52946(9) 1.01187(13)
H22 H 0.6543 0.5561 0.9554
H23 H 0.7391 0.5490 1.0114
C16 C 0.31203(9) 0.54743(9) 1.02187(14)
H24 H 0.2825 0.5744 0.9634
H25 H 0.2857 0.5528 1.0974
O1D O 0.60920(6) 0.42583(5) 0.97049(9)
O2D O 0.34733(6) 0.46377(5) 0.87409(8)
O3D O 0.47141(6) 0.36189(5) 0.86901(9)
C7D C 0.33869(9) 0.39378(8) 0.82431(12)
H8D H 0.2836 0.3788 0.8353
C8D C 0.35387(10) 0.39976(10) 0.69396(13)
H9D H 0.4080 0.4153 0.6807
H10D H 0.3187 0.4353 0.6601
C9D C 0.34045(13) 0.32818(11) 0.63411(16)
H11D H 0.2849 0.3152 0.6400
H12D H 0.3538 0.3321 0.5511
C10D C 0.39068(13) 0.27029(11) 0.69065(18)
H13D H 0.3776 0.2244 0.6555
H14D H 0.4461 0.2799 0.6749
C11D C 0.37781(11) 0.26625(9) 0.82257(16)
H15D H 0.4138 0.2313 0.8561
H16D H 0.3241 0.2504 0.8383
C12D C 0.39135(9) 0.33829(8) 0.88126(13)
H17D H 0.3782 0.3346 0.9653
C13D C 0.52419(11) 0.32571(9) 0.94465(17)
H18D H 0.5237 0.2749 0.9268
H19D H 0.5075 0.3319 1.0259
C14D C 0.60596(10) 0.35455(10) 0.92920(18)
H20D H 0.6433 0.3253 0.9729
H21D H 0.6205 0.3531 0.8464
C15D C 0.31415(9) 0.47054(9) 0.98813(13)
H22D H 0.3457 0.4439 1.0446
H23D H 0.2609 0.4510 0.9886
C16D C 0.68797(9) 0.45257(9) 0.97813(14)
H24D H 0.7175 0.4256 1.0366
H25D H 0.7143 0.4472 0.9026
O4 O 0.2500 0.7500 0.8180(2)
H1 H 0.2293(15) 0.7798(13) 0.775(2)
H1A H 0.2707(15) 0.7202(13) 0.775(2)
loop_
_geom_bond_atom_site_label_1
_geom_bond_atom_site_label_2
_geom_bond_site_symmetry_1
_geom_bond_site_symmetry_2
S1 C6 1_555 1_555
O1 C14 1_555 1_555
O2 C7 1_555 1_555
O3 C12 1_555 1_555
O4 H1 1_555 1_555
N1 C1 1_555 1_555
N2 H2 1_555 1_555
H3 N2 1_555 1_555
C1 H4 1_555 1_555
C2 C1 1_555 1_555
H5 C2 1_555 1_555
C3 C2 1_555 1_555
H6 C3 1_555 1_555
C4 C3 1_555 1_555
C5 N1 1_555 1_555
H7 C5 1_555 1_555
C6 N2 1_555 1_555
C7 H8 1_555 1_555
C8 C7 1_555 1_555
H9 C8 1_555 1_555
H10 C8 1_555 1_555
C9 C8 1_555 1_555
H11 C9 1_555 1_555
H12 C9 1_555 1_555
C10 C9 1_555 1_555
H13 C10 1_555 1_555
H14 C10 1_555 1_555
C11 C10 1_555 1_555
H15 C11 1_555 1_555
H16 C11 1_555 1_555
C12 C7 1_555 1_555
H17 C12 1_555 1_555
C13 O3 1_555 1_555
H18 C13 1_555 1_555
H19 C13 1_555 1_555
C14 C13 1_555 1_555
H20 C14 1_555 1_555
H21 C14 1_555 1_555
C15 O2 1_555 1_555
H22 C15 1_555 1_555
H23 C15 1_555 1_555
C16 O1 1_555 1_555
H24 C16 1_555 1_555
H25 C16 1_555 1_555
O1D C14D 1_555 1_555
O2D C7D 1_555 1_555
O3D C12D 1_555 1_555
H1A O4 1_555 1_555
C7D H8D 1_555 1_555
C8D C7D 1_555 1_555
H9D C8D 1_555 1_555
H10D C8D 1_555 1_555
C9D C8D 1_555 1_555
H11D C9D 1_555 1_555
H12D C9D 1_555 1_555
C10D C9D 1_555 1_555
H13D C10D 1_555 1_555
H14D C10D 1_555 1_555
C11D C10D 1_555 1_555
H15D C11D 1_555 1_555
H16D C11D 1_555 1_555
C12D C7D 1_555 1_555
H17D C12D 1_555 1_555
C13D O3D 1_555 1_555
H18D C13D 1_555 1_555
H19D C13D 1_555 1_555
C14D C13D 1_555 1_555
H20D C14D 1_555 1_555
H21D C14D 1_555 1_555
C15D C16 1_555 1_555
H22D C15D 1_555 1_555
H23D C15D 1_555 1_555
C16D C15 1_555 1_555
H24D C16D 1_555 1_555
H25D C16D 1_555 1_555
C4 C5 1_555 1_555
C4 C6 1_555 1_555
C11 C12 1_555 1_555
O1D C16D 1_555 1_555
O2D C15D 1_555 1_555
C11D C12D 1_555 1_555

#END
