
#######################################################################
#
#                 Cambridge Crystallographic Data Centre
#                                CCDC 
#
#######################################################################
#
# If this CIF has been generated from an entry in the Cambridge 
# Structural Database, then it will include bibliographic, chemical, 
# crystal, experimental, refinement or atomic coordinate data resulting 
# from the CCDC's data processing and validation procedures.
#
#######################################################################

data_NEWPOV
_chemical_name_common            'Benzo-18-crown-6 thionicotinamide clathrate'
_chemical_formula_moiety         'C16 H24 O6,C6 H6 N2 S1'
_chemical_name_systematic        
'2,3-Benzo-1,4,7,10,13,16-hexaoxacyclo-octadeca-2-ene 3-thioamidopyridine clathrate'
_symmetry_cell_setting           triclinic
_symmetry_space_group_name_H-M   'P -1'
_symmetry_Int_Tables_number      2
_space_group_name_Hall           '-P 1'
loop_
_symmetry_equiv_pos_site_id
_symmetry_equiv_pos_as_xyz
1 x,y,z
2 -x,-y,-z
_cell_length_a                   8.471(2)
_cell_length_b                   9.8661(19)
_cell_length_c                   15.1107(17)
_cell_angle_alpha                84.366(14)
_cell_angle_beta                 84.686(16)
_cell_angle_gamma                65.779(16)
_cell_volume                     1144.24
_exptl_crystal_colour            yellow
_exptl_crystal_description       prism
_chemical_melting_point          '140-142 deg.C'
_cell_formula_units_Z            2
loop_
_atom_site_label
_atom_site_type_symbol
_atom_site_fract_x
_atom_site_fract_y
_atom_site_fract_z
S1 S 0.19543(5) 0.40956(5) 0.38216(3)
N1 N 0.2609(2) -0.04679(17) 0.22296(13)
N2 N 0.48620(17) 0.21761(15) 0.31139(10)
H1 H 0.540(2) 0.2594(19) 0.3388(12)
H2 H 0.548(3) 0.150(2) 0.2747(13)
C1 C 0.0940(2) 0.0214(2) 0.20417(14)
H3 H 0.0452 -0.0325 0.1778
C2 C -0.0090(2) 0.1658(2) 0.22144(12)
H4 H -0.1247 0.2081 0.2074
C3 C 0.06110(19) 0.24685(17) 0.25970(10)
H5 H -0.0067 0.3451 0.2724
C4 C 0.23474(17) 0.18106(15) 0.27951(9)
C5 C 0.3267(2) 0.03389(17) 0.26004(12)
H6 H 0.4425 -0.0117 0.2738
C6 C 0.31551(17) 0.26504(15) 0.32236(9)
O1 O 0.65393(14) 0.06527(11) 0.12627(7)
O2 O 0.57375(13) 0.38097(11) 0.11576(7)
O3 O 0.67213(14) 0.51692(12) 0.25397(7)
O4 O 0.67204(14) 0.33964(12) 0.41806(7)
O5 O 0.81550(14) 0.02015(12) 0.42004(7)
O6 O 0.77125(13) -0.10771(11) 0.26651(7)
C7 C 0.5945(2) 0.16604(18) 0.04972(10)
H7 H 0.5338 0.1300 0.0131
H8 H 0.6923 0.1739 0.0143
C8 C 0.4752(2) 0.31513(17) 0.08134(10)
H9 H 0.4110 0.3784 0.0322
H10 H 0.3927 0.3035 0.1272
C9 C 0.4696(2) 0.52250(16) 0.14798(11)
H11 H 0.3951 0.5119 0.1985
H12 H 0.3967 0.5865 0.1018
C10 C 0.5849(2) 0.59026(18) 0.17544(11)
H13 H 0.6704 0.5862 0.1272
H14 H 0.5158 0.6942 0.1857
C11 C 0.5747(2) 0.57152(17) 0.33360(11)
H15 H 0.4645 0.5626 0.3355
H16 H 0.5516 0.6759 0.3360
C12 C 0.6745(2) 0.48395(18) 0.41069(11)
H17 H 0.7932 0.4751 0.4023
H18 H 0.6233 0.5341 0.4649
C13 C 0.7835(2) 0.24292(19) 0.48236(11)
H19 H 0.7611 0.2910 0.5379
H20 H 0.9033 0.2193 0.4620
C14 C 0.7531(2) 0.1040(2) 0.49664(10)
H21 H 0.8126 0.0451 0.5482
H22 H 0.6301 0.1288 0.5079
C15 C 0.7713(2) -0.10304(19) 0.42331(11)
H23 H 0.6464 -0.0689 0.4237
H24 H 0.8104 -0.1649 0.4776
C16 C 0.8536(2) -0.19206(17) 0.34453(11)
H25 H 0.9765 -0.2138 0.3387
H26 H 0.8404 -0.2857 0.3519
C17 C 0.83258(18) -0.17085(16) 0.18658(11)
C18 C 0.76864(19) -0.07755(16) 0.11076(11)
C19 C 0.8241(3) -0.1315(2) 0.02740(13)
H27 H 0.7817 -0.0702 -0.0234
C20 C 0.9442(3) -0.2785(2) 0.01959(16)
H28 H 0.9822 -0.3148 -0.0365
C21 C 1.0054(2) -0.3682(2) 0.09331(16)
H29 H 1.0846 -0.4661 0.0874
C22 C 0.9516(2) -0.31601(17) 0.17748(14)
H30 H 0.9953 -0.3783 0.2277
loop_
_geom_bond_atom_site_label_1
_geom_bond_atom_site_label_2
_geom_bond_site_symmetry_1
_geom_bond_site_symmetry_2
S1 C6 1_555 1_555
O1 C7 1_555 1_555
O2 C8 1_555 1_555
O3 C10 1_555 1_555
O4 C12 1_555 1_555
O5 C14 1_555 1_555
O6 C16 1_555 1_555
N1 C1 1_555 1_555
N2 H1 1_555 1_555
H2 N2 1_555 1_555
C1 H3 1_555 1_555
C2 C1 1_555 1_555
H4 C2 1_555 1_555
C3 C2 1_555 1_555
H5 C3 1_555 1_555
C4 C3 1_555 1_555
C5 N1 1_555 1_555
H6 C5 1_555 1_555
C6 N2 1_555 1_555
C7 H7 1_555 1_555
H8 C7 1_555 1_555
C8 C7 1_555 1_555
H9 C8 1_555 1_555
H10 C8 1_555 1_555
C9 O2 1_555 1_555
H11 C9 1_555 1_555
H12 C9 1_555 1_555
C10 C9 1_555 1_555
H13 C10 1_555 1_555
H14 C10 1_555 1_555
C11 O3 1_555 1_555
H15 C11 1_555 1_555
H16 C11 1_555 1_555
C12 C11 1_555 1_555
H17 C12 1_555 1_555
H18 C12 1_555 1_555
C13 O4 1_555 1_555
H19 C13 1_555 1_555
H20 C13 1_555 1_555
C14 C13 1_555 1_555
H21 C14 1_555 1_555
H22 C14 1_555 1_555
C15 O5 1_555 1_555
H23 C15 1_555 1_555
H24 C15 1_555 1_555
C16 C15 1_555 1_555
H25 C16 1_555 1_555
H26 C16 1_555 1_555
C17 O6 1_555 1_555
C18 O1 1_555 1_555
C19 C18 1_555 1_555
H27 C19 1_555 1_555
C20 C19 1_555 1_555
H28 C20 1_555 1_555
C21 C20 1_555 1_555
H29 C21 1_555 1_555
C22 C17 1_555 1_555
H30 C22 1_555 1_555
C4 C5 1_555 1_555
C4 C6 1_555 1_555
C17 C18 1_555 1_555
C21 C22 1_555 1_555

#END
