
#######################################################################
#
#                 Cambridge Crystallographic Data Centre
#                                CCDC 
#
#######################################################################
#
# If this CIF has been generated from an entry in the Cambridge 
# Structural Database, then it will include bibliographic, chemical, 
# crystal, experimental, refinement or atomic coordinate data resulting 
# from the CCDC's data processing and validation procedures.
#
#######################################################################

data_NEWVAN
_chemical_formula_moiety         '2(C15 H21 N6 3+),3(C8 H10 O4 2-),6(C1 H4 O1)'
_chemical_name_systematic        
'M-bis(2,4,6-tris(2-Imidazolinium)benzene) tris((1R,2R)-trans-cyclohexane-1,2-dicarboxylate) methanol solvate'
_symmetry_cell_setting           rhombohedral
_symmetry_space_group_name_H-M   'R -3 c'
_symmetry_Int_Tables_number      167
_space_group_name_Hall           '-R 3 2"c'
loop_
_symmetry_equiv_pos_site_id
_symmetry_equiv_pos_as_xyz
1 x,y,z
2 -y,x-y,z
3 y,x,1/2-z
4 -x+y,-x,z
5 -x,-x+y,1/2-z
6 x-y,-y,1/2-z
7 1/3+x,2/3+y,2/3+z
8 1/3-y,2/3+x-y,2/3+z
9 1/3+y,2/3+x,1/6-z
10 1/3-x+y,2/3-x,2/3+z
11 1/3-x,2/3-x+y,1/6-z
12 1/3+x-y,2/3-y,1/6-z
13 2/3+x,1/3+y,1/3+z
14 2/3-y,1/3+x-y,1/3+z
15 2/3+y,1/3+x,5/6-z
16 2/3-x+y,1/3-x,1/3+z
17 2/3-x,1/3-x+y,5/6-z
18 2/3+x-y,1/3-y,5/6-z
19 -x,-y,-z
20 y,-x+y,-z
21 -y,-x,1/2+z
22 x-y,x,-z
23 x,x-y,1/2+z
24 -x+y,y,1/2+z
25 2/3-x,1/3-y,1/3-z
26 2/3+y,1/3-x+y,1/3-z
27 2/3-y,1/3-x,5/6+z
28 2/3+x-y,1/3+x,1/3-z
29 2/3+x,1/3+x-y,5/6+z
30 2/3-x+y,1/3+y,5/6+z
31 1/3-x,2/3-y,2/3-z
32 1/3+y,2/3-x+y,2/3-z
33 1/3-y,2/3-x,1/6+z
34 1/3+x-y,2/3+x,2/3-z
35 1/3+x,2/3+x-y,1/6+z
36 1/3-x+y,2/3+y,1/6+z
_cell_length_a                   27.5164(19)
_cell_length_b                   27.5164(19)
_cell_length_c                   14.685(2)
_cell_angle_alpha                90
_cell_angle_beta                 90
_cell_angle_gamma                120.00
_cell_volume                     9629.15
_exptl_crystal_colour            colorless
_exptl_crystal_description       block
_cell_formula_units_Z            6
loop_
_atom_site_label
_atom_site_type_symbol
_atom_site_fract_x
_atom_site_fract_y
_atom_site_fract_z
O1 O 0.31807(10) 0.49228(10) 1.05255(18)
O2 O 0.24232(12) 0.46389(12) 0.9688(2)
C1 C 0.30287(15) 0.42861(14) 0.9300(3)
H1 H 0.2843(15) 0.4214(15) 0.863(3)
C2 C 0.2872(2) 0.37457(17) 0.9827(3)
H2 H 0.3127(19) 0.3895(19) 1.036(3)
H3 H 0.248(2) 0.3552(18) 1.012(3)
C3 C 0.3029(3) 0.33707(18) 0.9296(4)
C4 C 0.28683(15) 0.46483(13) 0.9876(2)
H4 H 0.2918(15) 0.3006(16) 0.969(3)
H5 H 0.2840(16) 0.3274(16) 0.868(3)
O1P O 0.34860(10) 0.50754(14) 0.78078(18)
O2P O 0.42435(12) 0.55490(17) 0.8645(2)
C1P C 0.36380(15) 0.45907(21) 0.9033(3)
H1P H 0.3824(15) 0.4704(21) 0.970(3)
C2P C 0.3795(2) 0.42070(26) 0.8506(3)
H2P H 0.3540(19) 0.4101(27) 0.797(3)
H3P H 0.419(2) 0.4405(27) 0.821(3)
C3P C 0.3638(3) 0.36750(35) 0.9037(4)
C4P C 0.37984(15) 0.51133(20) 0.8457(2)
H4P H 0.3749(15) 0.3421(22) 0.864(3)
H5P H 0.3827(16) 0.3767(23) 0.965(3)
N1 N 0.32140(13) 0.79733(12) 0.0448(2)
H6 H 0.2859(17) 0.7761(17) 0.023(3)
N2 N 0.40845(13) 0.82290(11) 0.0758(2)
H7 H 0.4377(18) 0.8207(16) 0.075(3)
C5 C 0.29011(14) 0.67901(13) 0.0453(2)
H8 H 0.2601(14) 0.6850(14) 0.046(2)
C6 C 0.34606(13) 0.72247(12) 0.0451(2)
C7 C 0.35896(13) 0.78145(13) 0.0536(2)
C8 C 0.34741(17) 0.85800(15) 0.0607(3)
H9 H 0.3267(16) 0.8647(15) 0.112(3)
H10 H 0.3411(17) 0.8750(17) 0.017(3)
C9 C 0.40832(16) 0.87590(15) 0.0815(3)
H11 H 0.4379(17) 0.9041(17) 0.036(3)
H12 H 0.4200(17) 0.8921(17) 0.146(3)
N1C N 0.47593(18) 0.67860(13) 0.0448(2)
N1A N 0.20267(12) 0.52407(18) 0.0448(2)
H6C H 0.4902(24) 0.7141(17) 0.023(3)
H6A H 0.2239(17) 0.5098(24) 0.023(3)
N2C N 0.41445(17) 0.59155(13) 0.0758(2)
N2A N 0.17710(11) 0.58555(17) 0.0758(2)
H7C H 0.3830(24) 0.5623(18) 0.075(3)
H7A H 0.1793(16) 0.6170(24) 0.075(3)
C5A C 0.32099(13) 0.61110(19) 0.0453(2)
C5C C 0.38890(19) 0.70989(14) 0.0453(2)
H8A H 0.3150(14) 0.5751(20) 0.046(2)
H8C H 0.4249(20) 0.7399(14) 0.046(2)
C6A C 0.27753(12) 0.62359(18) 0.0451(2)
C6C C 0.37641(18) 0.65394(13) 0.0451(2)
C7C C 0.42249(18) 0.64104(13) 0.0536(2)
C7A C 0.21855(13) 0.57751(18) 0.0536(2)
C8C C 0.51059(23) 0.65259(17) 0.0607(3)
C8A C 0.14200(15) 0.48941(23) 0.0607(3)
H9C H 0.5380(22) 0.6733(16) 0.112(3)
H9A H 0.1353(15) 0.4620(22) 0.112(3)
H10C H 0.5339(24) 0.6589(17) 0.017(3)
H10A H 0.1250(17) 0.4661(24) 0.017(3)
C9C C 0.46758(22) 0.59168(16) 0.0815(3)
C9A C 0.12410(15) 0.53242(22) 0.0815(3)
H11C H 0.4662(24) 0.5621(17) 0.036(3)
H11A H 0.0959(17) 0.5338(24) 0.036(3)
H12C H 0.4721(24) 0.5800(17) 0.146(3)
H12A H 0.1079(17) 0.5279(24) 0.146(3)
O4 O 0.1314(4) 0.3831(4) 0.9638(8)
H17 H 0.1667 0.4022 0.9649
C11 C 0.1154(4) 0.3289(3) 0.9653(6)
H18 H 0.0852 0.3096 1.0099
H19 H 0.1473 0.3243 0.9822
H20 H 0.1018 0.3127 0.9048
O3? O 0.1504(4) 0.3556(4) 0.9077(6)
H13? H 0.1822 0.3729 0.9321
C10? C 0.1154(4) 0.3289(3) 0.9653(6)
H14? H 0.0864 0.3397 0.9651
H15? H 0.1333 0.3366 1.0253
H16? H 0.0982 0.2887 0.9519
loop_
_geom_bond_atom_site_label_1
_geom_bond_atom_site_label_2
_geom_bond_site_symmetry_1
_geom_bond_site_symmetry_2
O1 C4 1_555 1_555
O2 C4 1_555 1_555
C1 H1 1_555 1_555
C2 C1 1_555 1_555
H2 C2 1_555 1_555
H3 C2 1_555 1_555
C3 C2 1_555 1_555
C4 C1 1_555 1_555
H4 C3 1_555 1_555
H5 C3 1_555 1_555
N1 H6 1_555 1_555
N2 H7 1_555 1_555
C5 H8 1_555 1_555
C6 C5 1_555 1_555
C7 N1 1_555 1_555
C8 N1 1_555 1_555
H9 C8 1_555 1_555
H10 C8 1_555 1_555
C9 N2 1_555 1_555
H11 C9 1_555 1_555
H12 C9 1_555 1_555
O4 H17 1_555 1_555
C11 O4 1_555 1_555
H18 C11 1_555 1_555
H19 C11 1_555 1_555
H20 C11 1_555 1_555
O1P C4P 1_555 1_555
O2P C4P 1_555 1_555
C1P C1 1_555 1_555
H1P C1P 1_555 1_555
C2P C1P 1_555 1_555
H2P C2P 1_555 1_555
H3P C2P 1_555 1_555
C3P C3 1_555 1_555
C4P C1P 1_555 1_555
H4P C3P 1_555 1_555
H5P C3P 1_555 1_555
N1C H6C 1_555 1_555
N1A H6A 1_555 1_555
N2C H7C 1_555 1_555
N2A H7A 1_555 1_555
C5A H8A 1_555 1_555
C5C C6 1_555 1_555
H8C C5C 1_555 1_555
C6A C5 1_555 1_555
C6C C5A 1_555 1_555
C7C N1C 1_555 1_555
C7A N1A 1_555 1_555
C8C N1C 1_555 1_555
C8A N1A 1_555 1_555
H9C C8C 1_555 1_555
H9A C8A 1_555 1_555
H10C C8C 1_555 1_555
H10A C8A 1_555 1_555
C9C N2C 1_555 1_555
C9A N2A 1_555 1_555
H11C C9C 1_555 1_555
H11A C9A 1_555 1_555
H12C C9C 1_555 1_555
H12A C9A 1_555 1_555
N2 C7 1_555 1_555
C6 C7 1_555 1_555
C8 C9 1_555 1_555
C2P C3P 1_555 1_555
N2C C7C 1_555 1_555
N2A C7A 1_555 1_555
C5A C6A 1_555 1_555
C5C C6C 1_555 1_555
C6A C7A 1_555 1_555
C6C C7C 1_555 1_555
C8C C9C 1_555 1_555
C8A C9A 1_555 1_555

#END
