
#######################################################################
#
#                 Cambridge Crystallographic Data Centre
#                                CCDC 
#
#######################################################################
#
# If this CIF has been generated from an entry in the Cambridge 
# Structural Database, then it will include bibliographic, chemical, 
# crystal, experimental, refinement or atomic coordinate data resulting 
# from the CCDC's data processing and validation procedures.
#
#######################################################################

data_NEWWUJ
_chemical_formula_moiety         'C40 H32 N8 O14'
_chemical_name_systematic        
'Dimethyl 25,27-bis(2-anilino-2-oxoethoxy)-5,17-dimethoxy-2,8,14,20-tetraoxa-4,6,16,18,26,28-hexaazapentacyclo[19.3.1.1^3,7^.1^9,13^.1^15,19^]octacosa-1(25),3(28),4,6,9(27),10,12,15(26),16,18,21,23-dodecaene-11,23-dicarboxylate'
_symmetry_cell_setting           monoclinic
_symmetry_space_group_name_H-M   'P 21/c'
_symmetry_Int_Tables_number      14
_space_group_name_Hall           '-P 2ybc'
loop_
_symmetry_equiv_pos_site_id
_symmetry_equiv_pos_as_xyz
1 x,y,z
2 -x,1/2+y,1/2-z
3 -x,-y,-z
4 x,1/2-y,1/2+z
_cell_length_a                   14.087(3)
_cell_length_b                   17.520(4)
_cell_length_c                   16.969(3)
_cell_angle_alpha                90
_cell_angle_beta                 101.21(3)
_cell_angle_gamma                90
_cell_volume                     4108.12
_exptl_crystal_colour            colorless
_exptl_crystal_description       block
_cell_formula_units_Z            4
loop_
_atom_site_label
_atom_site_type_symbol
_atom_site_fract_x
_atom_site_fract_y
_atom_site_fract_z
O1 O 0.48311(15) 0.28068(11) 0.14645(12)
O2 O 0.29193(15) 0.43377(11) 0.26476(13)
O3 O 0.38483(16) 0.21104(11) 0.37965(12)
O4 O 0.69944(17) -0.00903(13) 0.51935(14)
O5 O 0.69813(17) 0.11735(13) 0.53973(14)
O6 O 0.40026(15) -0.05303(11) 0.30561(12)
O7 O 0.34591(18) -0.19566(13) 0.07917(14)
O8 O 0.52244(15) 0.01532(11) 0.08307(12)
O9 O 0.84705(17) 0.23044(14) 0.20440(17)
O10 O 0.85206(16) 0.11329(14) 0.15194(18)
O11 O 0.39987(14) 0.13884(12) 0.10169(12)
O12 O 0.22625(16) 0.07792(14) 0.06726(13)
O13 O 0.31042(17) 0.08371(13) 0.28057(13)
O14 O 0.13189(19) 0.21923(15) 0.30373(15)
N1 N 0.39156(17) 0.35946(13) 0.20298(15)
N2 N 0.44120(18) 0.23994(14) 0.26435(15)
N3 N 0.33868(18) 0.32248(13) 0.32273(15)
N4 N 0.36825(18) -0.12448(14) 0.19491(16)
N5 N 0.43337(19) -0.08918(14) 0.08052(15)
N6 N 0.46298(17) -0.01090(13) 0.19762(14)
N7 N 0.20353(18) 0.11485(16) -0.06478(15)
H1 H 0.2343 0.1341 -0.1006
N8 N 0.19562(19) 0.19127(15) 0.19386(15)
H2 H 0.2268 0.1554 0.1730
C1 C 0.4377(2) 0.29316(16) 0.20765(17)
C2 C 0.3432(2) 0.37036(16) 0.26147(18)
C3 C 0.3895(2) 0.25962(17) 0.31887(17)
C4 C 0.2862(2) 0.48872(18) 0.19994(19)
H3 H 0.2738 0.4619 0.1483
H4 H 0.3474 0.5167 0.2060
H5 H 0.2334 0.5247 0.2018
C5 C 0.4354(2) 0.14152(17) 0.38338(17)
C6 C 0.5213(2) 0.13499(17) 0.43833(18)
H6 H 0.5477 0.1776 0.4697
C7 C 0.5688(2) 0.06450(17) 0.44698(17)
C8 C 0.5293(2) 0.00205(17) 0.40135(18)
H7 H 0.5609 -0.0461 0.4077
C9 C 0.4444(2) 0.01094(16) 0.34729(17)
C10 C 0.3943(2) 0.08031(17) 0.33684(17)
C11 C 0.6613(2) 0.05248(18) 0.50515(18)
C12 C 0.7879(3) 0.1091(2) 0.5974(3)
H8 H 0.8336 0.0788 0.5736
H9 H 0.7753 0.0834 0.6456
H10 H 0.8156 0.1597 0.6120
C13 C 0.4112(2) -0.06170(16) 0.22898(18)
C14 C 0.4696(2) -0.02939(16) 0.12319(17)
C15 C 0.3825(2) -0.13464(17) 0.12042(19)
C16 C 0.2929(3) -0.2490(2) 0.1189(3)
H11 H 0.2625 -0.2876 0.0803
H12 H 0.2429 -0.2216 0.1404
H13 H 0.3374 -0.2739 0.1629
C17 C 0.5601(2) 0.08500(16) 0.11539(17)
C18 C 0.6588(2) 0.09253(17) 0.13151(18)
H14 H 0.6990 0.0502 0.1256
C19 C 0.6994(2) 0.16291(17) 0.15666(18)
C20 C 0.6403(2) 0.22468(17) 0.16550(18)
H15 H 0.6679 0.2725 0.1839
C21 C 0.5408(2) 0.21551(16) 0.14707(17)
C22 C 0.4986(2) 0.14628(17) 0.12033(17)
C23 C 0.8068(2) 0.17364(19) 0.1745(2)
C24 C 0.9566(3) 0.1190(3) 0.1655(3)
H16 H 0.9749 0.1612 0.1335
H17 H 0.9836 0.0712 0.1496
H18 H 0.9820 0.1287 0.2226
C25 C 0.2245(2) 0.1059(2) 0.3082(2)
H19 H 0.2404 0.1132 0.3671
H20 H 0.1763 0.0642 0.2968
C26 C 0.1805(2) 0.17837(19) 0.26913(19)
C27 C 0.1670(2) 0.25601(18) 0.14489(19)
C28 C 0.0892(2) 0.3017(2) 0.1531(2)
H21 H 0.0504 0.2895 0.1913
C29 C 0.0689(3) 0.3664(2) 0.1039(2)
H22 H 0.0159 0.3982 0.1092
C30 C 0.1238(3) 0.3848(2) 0.0483(2)
H23 H 0.1098 0.4293 0.0163
C31 C 0.1999(3) 0.3376(2) 0.0394(2)
H24 H 0.2375 0.3492 0.0002
C32 C 0.2213(2) 0.27395(19) 0.08711(19)
H25 H 0.2736 0.2419 0.0805
C33 C 0.3615(2) 0.12874(19) 0.01727(17)
H26 H 0.3986 0.0891 -0.0054
H27 H 0.3656 0.1771 -0.0121
C34 C 0.2560(2) 0.10421(17) 0.00970(18)
C35 C 0.1032(2) 0.09809(19) -0.0917(2)
C36 C 0.0692(2) 0.0950(2) -0.1741(2)
H28 H 0.1127 0.1015 -0.2099
C37 C -0.0274(3) 0.0824(3) -0.2039(3)
H29 H -0.0501 0.0806 -0.2604
C38 C -0.0920(3) 0.0723(2) -0.1532(3)
H30 H -0.1587 0.0637 -0.1742
C39 C -0.0582(3) 0.0748(3) -0.0725(3)
H31 H -0.1021 0.0675 -0.0372
C40 C 0.0388(3) 0.0878(3) -0.0406(2)
H32 H 0.0608 0.0897 0.0160
loop_
_geom_bond_atom_site_label_1
_geom_bond_atom_site_label_2
_geom_bond_site_symmetry_1
_geom_bond_site_symmetry_2
O1 C1 1_555 1_555
O2 C2 1_555 1_555
O3 C3 1_555 1_555
O4 C11 1_555 1_555
O5 C11 1_555 1_555
O6 C9 1_555 1_555
O7 C15 1_555 1_555
O8 C14 1_555 1_555
O9 C23 1_555 1_555
O10 C23 1_555 1_555
O11 C22 1_555 1_555
O12 C34 1_555 1_555
O13 C10 1_555 1_555
O14 C26 1_555 1_555
N1 C1 1_555 1_555
N2 C1 1_555 1_555
N3 C2 1_555 1_555
N4 C13 1_555 1_555
N5 C14 1_555 1_555
N6 C13 1_555 1_555
N7 H1 1_555 1_555
N8 H2 1_555 1_555
C2 N1 1_555 1_555
C3 N2 1_555 1_555
C4 O2 1_555 1_555
H3 C4 1_555 1_555
H4 C4 1_555 1_555
H5 C4 1_555 1_555
C5 O3 1_555 1_555
C6 C5 1_555 1_555
H6 C6 1_555 1_555
C7 C6 1_555 1_555
C8 C7 1_555 1_555
H7 C8 1_555 1_555
C9 C8 1_555 1_555
C10 C5 1_555 1_555
C11 C7 1_555 1_555
C12 O5 1_555 1_555
H8 C12 1_555 1_555
H9 C12 1_555 1_555
H10 C12 1_555 1_555
C13 O6 1_555 1_555
C14 N6 1_555 1_555
C15 N4 1_555 1_555
C16 O7 1_555 1_555
H11 C16 1_555 1_555
H12 C16 1_555 1_555
H13 C16 1_555 1_555
C17 O8 1_555 1_555
C18 C17 1_555 1_555
H14 C18 1_555 1_555
C19 C18 1_555 1_555
C20 C19 1_555 1_555
H15 C20 1_555 1_555
C21 O1 1_555 1_555
C22 C17 1_555 1_555
C23 C19 1_555 1_555
C24 O10 1_555 1_555
H16 C24 1_555 1_555
H17 C24 1_555 1_555
H18 C24 1_555 1_555
C25 O13 1_555 1_555
H19 C25 1_555 1_555
H20 C25 1_555 1_555
C26 N8 1_555 1_555
C27 N8 1_555 1_555
C28 C27 1_555 1_555
H21 C28 1_555 1_555
C29 C28 1_555 1_555
H22 C29 1_555 1_555
C30 C29 1_555 1_555
H23 C30 1_555 1_555
C31 C30 1_555 1_555
H24 C31 1_555 1_555
C32 C27 1_555 1_555
H25 C32 1_555 1_555
C33 O11 1_555 1_555
H26 C33 1_555 1_555
H27 C33 1_555 1_555
C34 N7 1_555 1_555
C35 N7 1_555 1_555
C36 C35 1_555 1_555
H28 C36 1_555 1_555
C37 C36 1_555 1_555
H29 C37 1_555 1_555
C38 C37 1_555 1_555
H30 C38 1_555 1_555
C39 C38 1_555 1_555
H31 C39 1_555 1_555
C40 C35 1_555 1_555
H32 C40 1_555 1_555
N3 C3 1_555 1_555
N5 C15 1_555 1_555
C9 C10 1_555 1_555
C20 C21 1_555 1_555
C21 C22 1_555 1_555
C25 C26 1_555 1_555
C31 C32 1_555 1_555
C33 C34 1_555 1_555
C39 C40 1_555 1_555

#END
