
#######################################################################
#
#                 Cambridge Crystallographic Data Centre
#                                CCDC 
#
#######################################################################
#
# If this CIF has been generated from an entry in the Cambridge 
# Structural Database, then it will include bibliographic, chemical, 
# crystal, experimental, refinement or atomic coordinate data resulting 
# from the CCDC's data processing and validation procedures.
#
#######################################################################

data_NEWWUK
_chemical_formula_moiety         'C25 H20 F3 N1 O2,C1 H2 Cl2'
_chemical_name_systematic        
"1-benzyl-5'-phenyl-2'-(trifluoromethyl)spiro[indole-3,3'-oxolan]-2(1H)-one dichloromethane solvate"
_symmetry_cell_setting           triclinic
_symmetry_space_group_name_H-M   'P -1'
_symmetry_Int_Tables_number      2
_space_group_name_Hall           '-P 1'
loop_
_symmetry_equiv_pos_site_id
_symmetry_equiv_pos_as_xyz
1 x,y,z
2 -x,-y,-z
_cell_length_a                   9.3021(9)
_cell_length_b                   11.1033(11)
_cell_length_c                   11.8279(11)
_cell_angle_alpha                81.577(2)
_cell_angle_beta                 80.9200(10)
_cell_angle_gamma                72.3840(10)
_cell_volume                     1143.41
_exptl_crystal_colour            colorless
_exptl_crystal_description       block
_cell_formula_units_Z            2
loop_
_atom_site_label
_atom_site_type_symbol
_atom_site_fract_x
_atom_site_fract_y
_atom_site_fract_z
F1 F 0.17431(14) 0.77591(12) 0.53947(12)
F2 F -0.06555(14) 0.86496(12) 0.57057(12)
F3 F 0.06894(14) 0.81472(12) 0.71129(11)
O1 O -0.12313(14) 0.66409(13) 0.70058(11)
O2 O 0.03388(15) 0.37952(13) 0.63242(12)
N1 N 0.29036(18) 0.35644(15) 0.60673(13)
C1 C -0.1122(2) 0.57876(18) 0.80626(15)
H1 H -0.1452 0.5054 0.7967
C2 C 0.0566(2) 0.53466(18) 0.82020(16)
H2 H 0.0845 0.4499 0.8606
H3 H 0.0829 0.5923 0.8621
C3 C 0.1358(2) 0.53581(17) 0.69553(15)
C4 C 0.0194(2) 0.64751(18) 0.63236(15)
H4 H 0.0119 0.6233 0.5576
C5 C 0.0506(2) 0.77570(19) 0.61393(18)
C6 C 0.3015(2) 0.53101(18) 0.68407(15)
C7 C 0.3753(2) 0.60700(19) 0.71960(17)
H5 H 0.3201 0.6794 0.7549
C8 C 0.5336(2) 0.5738(2) 0.70183(17)
H6 H 0.5841 0.6256 0.7239
C9 C 0.6163(2) 0.4647(2) 0.65178(17)
H7 H 0.7218 0.4440 0.6404
C10 C 0.5435(2) 0.38524(19) 0.61809(17)
H8 H 0.5984 0.3107 0.5861
C11 C 0.3871(2) 0.42146(18) 0.63412(15)
C12 C 0.1431(2) 0.41520(18) 0.64264(15)
C13 C -0.2144(2) 0.64758(19) 0.90298(16)
C14 C -0.2026(2) 0.7627(2) 0.92657(19)
H9 H -0.1310 0.7982 0.8819
C15 C -0.2961(3) 0.8252(2) 1.0156(2)
H10 H -0.2880 0.9030 1.0297
C16 C -0.4018(3) 0.7726(3) 1.08389(19)
H11 H -0.4639 0.8144 1.1444
C17 C -0.4143(2) 0.6583(2) 1.06170(19)
H12 H -0.4847 0.6224 1.1075
C18 C -0.3219(2) 0.5961(2) 0.97087(17)
H13 H -0.3321 0.5195 0.9555
C19 C 0.3406(2) 0.24288(18) 0.54450(17)
H14 H 0.4285 0.2473 0.4895
H15 H 0.2602 0.2418 0.5018
C20 C 0.3812(2) 0.12143(18) 0.62360(17)
C21 C 0.5315(2) 0.0528(2) 0.63270(19)
H16 H 0.6091 0.0802 0.5872
C22 C 0.5669(3) -0.0561(2) 0.7091(2)
H17 H 0.6680 -0.1015 0.7145
C23 C 0.4526(3) -0.0974(2) 0.7773(2)
H18 H 0.4764 -0.1690 0.8303
C24 C 0.3029(3) -0.0319(2) 0.7662(2)
H19 H 0.2255 -0.0607 0.8103
C25 C 0.2673(2) 0.0769(2) 0.6893(2)
H20 H 0.1661 0.1202 0.6819
Cl1? Cl -0.0865(6) 0.2027(6) 0.9600(4)
Cl2? Cl -0.17331(17) 0.24367(14) 0.98731(10)
Cl3? Cl -0.15486(12) 0.09176(11) 0.79554(12)
C26? C -0.0699(9) 0.1832(8) 0.8652(7)
H21? H 0.0286 0.1295 0.8844
H22? H -0.0527 0.2531 0.8106
C27? C -0.1567(9) 0.2234(6) 0.8372(6)
H23? H -0.2604 0.2779 0.8457
H24? H -0.0980 0.2660 0.7788
loop_
_geom_bond_atom_site_label_1
_geom_bond_atom_site_label_2
_geom_bond_site_symmetry_1
_geom_bond_site_symmetry_2
F1 C5 1_555 1_555
F2 C5 1_555 1_555
F3 C5 1_555 1_555
O1 C1 1_555 1_555
O2 C12 1_555 1_555
N1 C11 1_555 1_555
C1 H1 1_555 1_555
C2 C1 1_555 1_555
H2 C2 1_555 1_555
H3 C2 1_555 1_555
C3 C2 1_555 1_555
C4 O1 1_555 1_555
H4 C4 1_555 1_555
C5 C4 1_555 1_555
C6 C3 1_555 1_555
C7 C6 1_555 1_555
H5 C7 1_555 1_555
C8 C7 1_555 1_555
H6 C8 1_555 1_555
C9 C8 1_555 1_555
H7 C9 1_555 1_555
C10 C9 1_555 1_555
H8 C10 1_555 1_555
C11 C6 1_555 1_555
C12 N1 1_555 1_555
C13 C1 1_555 1_555
C14 C13 1_555 1_555
H9 C14 1_555 1_555
C15 C14 1_555 1_555
H10 C15 1_555 1_555
C16 C15 1_555 1_555
H11 C16 1_555 1_555
C17 C16 1_555 1_555
H12 C17 1_555 1_555
C18 C13 1_555 1_555
H13 C18 1_555 1_555
C19 N1 1_555 1_555
H14 C19 1_555 1_555
H15 C19 1_555 1_555
C20 C19 1_555 1_555
C21 C20 1_555 1_555
H16 C21 1_555 1_555
C22 C21 1_555 1_555
H17 C22 1_555 1_555
C23 C22 1_555 1_555
H18 C23 1_555 1_555
C24 C23 1_555 1_555
H19 C24 1_555 1_555
C25 C20 1_555 1_555
H20 C25 1_555 1_555
C3 C4 1_555 1_555
C3 C12 1_555 1_555
C10 C11 1_555 1_555
C17 C18 1_555 1_555
C24 C25 1_555 1_555

#END
