
#######################################################################
#
#                 Cambridge Crystallographic Data Centre
#                                CCDC 
#
#######################################################################
#
# If this CIF has been generated from an entry in the Cambridge 
# Structural Database, then it will include bibliographic, chemical, 
# crystal, experimental, refinement or atomic coordinate data resulting 
# from the CCDC's data processing and validation procedures.
#
#######################################################################

data_NEWXEV
_chemical_formula_moiety         'C25 H20 F3 N1 O2'
_chemical_name_systematic        
1-benzyl-5'-phenyl-2'-(trifluoromethyl)spiro[indole-3,3'-oxolan]-2(1H)-one
_symmetry_cell_setting           monoclinic
_symmetry_space_group_name_H-M   'P 21/c'
_symmetry_Int_Tables_number      14
_space_group_name_Hall           '-P 2ybc'
loop_
_symmetry_equiv_pos_site_id
_symmetry_equiv_pos_as_xyz
1 x,y,z
2 -x,1/2+y,1/2-z
3 -x,-y,-z
4 x,1/2-y,1/2+z
_cell_length_a                   9.330(4)
_cell_length_b                   11.138(5)
_cell_length_c                   19.656(8)
_cell_angle_alpha                90
_cell_angle_beta                 95.194(8)
_cell_angle_gamma                90
_cell_volume                     2034.22
_exptl_crystal_colour            'light colorless'
_exptl_crystal_description       block
_cell_formula_units_Z            4
loop_
_atom_site_label
_atom_site_type_symbol
_atom_site_fract_x
_atom_site_fract_y
_atom_site_fract_z
F1 F 0.3387(3) 0.44143(18) 0.52396(10)
F2 F 0.1403(2) 0.45738(17) 0.46120(11)
F3 F 0.3365(2) 0.51203(17) 0.42232(10)
O1 O 0.5087(2) 0.1515(2) 0.52208(11)
O2 O 0.2334(3) 0.29202(18) 0.36786(10)
N1 N 0.3256(3) 0.1465(2) 0.59216(11)
C1 C 0.1784(3) 0.1715(2) 0.58646(14)
C2 C 0.0860(4) 0.1629(3) 0.63661(16)
H1 H 0.1180 0.1396 0.6808
C3 C -0.0565(4) 0.1905(3) 0.61858(18)
H2 H -0.1222 0.1842 0.6513
C4 C -0.1044(4) 0.2271(3) 0.55327(19)
H3 H -0.2011 0.2454 0.5426
C5 C -0.0092(4) 0.2364(3) 0.50396(17)
H4 H -0.0410 0.2614 0.4600
C6 C 0.1331(3) 0.2086(2) 0.52015(15)
C7 C 0.2606(3) 0.1990(2) 0.47818(14)
C8 C 0.3824(3) 0.1631(3) 0.53149(15)
C9 C 0.2365(3) 0.1045(3) 0.42073(14)
H5 H 0.3271 0.0729 0.4079
H6 H 0.1770 0.0388 0.4341
C10 C 0.1597(3) 0.1779(3) 0.36315(15)
H7 H 0.0596 0.1901 0.3729
C11 C 0.3054(3) 0.3052(3) 0.43447(14)
H8 H 0.4089 0.2979 0.4303
C12 C 0.2786(4) 0.4286(3) 0.46045(16)
C13 C 0.0351(4) 0.0767(3) 0.26212(16)
H9 H -0.0477 0.0783 0.2852
C14 C 0.0311(4) 0.0250(3) 0.19817(18)
H10 H -0.0534 -0.0103 0.1789
C15 C 0.1521(4) 0.0258(3) 0.16281(17)
H11 H 0.1487 -0.0071 0.1192
C16 C 0.2775(4) 0.0750(3) 0.19216(16)
H12 H 0.3592 0.0754 0.1684
C17 C 0.2830(3) 0.1241(3) 0.25682(15)
H13 H 0.3688 0.1560 0.2768
C18 C 0.1609(3) 0.1261(3) 0.29204(14)
C19 C 0.4082(4) 0.1087(3) 0.65448(15)
H14 H 0.3932 0.1660 0.6903
H15 H 0.5096 0.1101 0.6472
C20 C 0.3697(3) -0.0150(3) 0.67817(14)
C21 C 0.3585(3) -0.0363(3) 0.74652(15)
H16 H 0.3684 0.0270 0.7774
C22 C 0.3327(3) -0.1511(3) 0.76962(16)
H17 H 0.3268 -0.1648 0.8159
C23 C 0.3160(4) -0.2440(3) 0.72431(18)
H18 H 0.2981 -0.3210 0.7397
C24 C 0.3256(4) -0.2236(3) 0.65626(17)
H19 H 0.3144 -0.2872 0.6256
C25 C 0.3517(4) -0.1099(3) 0.63263(15)
H20 H 0.3572 -0.0969 0.5862
loop_
_geom_bond_atom_site_label_1
_geom_bond_atom_site_label_2
_geom_bond_site_symmetry_1
_geom_bond_site_symmetry_2
F1 C12 1_555 1_555
F2 C12 1_555 1_555
F3 C12 1_555 1_555
O1 C8 1_555 1_555
O2 C10 1_555 1_555
N1 C1 1_555 1_555
C1 C2 1_555 1_555
C2 H1 1_555 1_555
C3 C2 1_555 1_555
H2 C3 1_555 1_555
C4 C3 1_555 1_555
H3 C4 1_555 1_555
C5 C4 1_555 1_555
H4 C5 1_555 1_555
C6 C1 1_555 1_555
C7 C6 1_555 1_555
C8 N1 1_555 1_555
C9 C7 1_555 1_555
H5 C9 1_555 1_555
H6 C9 1_555 1_555
C10 C9 1_555 1_555
H7 C10 1_555 1_555
C11 O2 1_555 1_555
H8 C11 1_555 1_555
C12 C11 1_555 1_555
C13 H9 1_555 1_555
C14 C13 1_555 1_555
H10 C14 1_555 1_555
C15 C14 1_555 1_555
H11 C15 1_555 1_555
C16 C15 1_555 1_555
H12 C16 1_555 1_555
C17 C16 1_555 1_555
H13 C17 1_555 1_555
C18 C10 1_555 1_555
C19 N1 1_555 1_555
H14 C19 1_555 1_555
H15 C19 1_555 1_555
C20 C19 1_555 1_555
C21 C20 1_555 1_555
H16 C21 1_555 1_555
C22 C21 1_555 1_555
H17 C22 1_555 1_555
C23 C22 1_555 1_555
H18 C23 1_555 1_555
C24 C23 1_555 1_555
H19 C24 1_555 1_555
C25 C20 1_555 1_555
H20 C25 1_555 1_555
C5 C6 1_555 1_555
C7 C8 1_555 1_555
C7 C11 1_555 1_555
C13 C18 1_555 1_555
C17 C18 1_555 1_555
C24 C25 1_555 1_555

#END
