
#######################################################################
#
#                 Cambridge Crystallographic Data Centre
#                                CCDC 
#
#######################################################################
#
# If this CIF has been generated from an entry in the Cambridge 
# Structural Database, then it will include bibliographic, chemical, 
# crystal, experimental, refinement or atomic coordinate data resulting 
# from the CCDC's data processing and validation procedures.
#
#######################################################################

data_NEWYET
_chemical_formula_moiety         'C4 N5 S3'
_chemical_name_systematic        
'1,2,5-Thiadiazolo(3,4-b)-1,3,2-dithiazolo(3,4-b)-pyrazin-2-yl radical'
_symmetry_cell_setting           triclinic
_symmetry_space_group_name_H-M   'P -1'
_symmetry_Int_Tables_number      2
_space_group_name_Hall           '-P 1'
loop_
_symmetry_equiv_pos_site_id
_symmetry_equiv_pos_as_xyz
1 x,y,z
2 -x,-y,-z
_cell_length_a                   7.489(7)
_cell_length_b                   9.593(4)
_cell_length_c                   10.759(6)
_cell_angle_alpha                65.77(4)
_cell_angle_beta                 74.10(6)
_cell_angle_gamma                74.64(6)
_cell_volume                     667.568
_exptl_crystal_colour            black
_exptl_crystal_description       needles
_chemical_melting_point          'decomposes above 186deg.C'
_cell_formula_units_Z            4
loop_
_atom_site_label
_atom_site_type_symbol
_atom_site_fract_x
_atom_site_fract_y
_atom_site_fract_z
S1 S 0.5750(4) 0.2323(3) 0.1845(3)
S2 S 0.3523(4) 0.2205(3) 0.4392(3)
S3 S 0.5611(4) 0.8819(3) 0.1939(3)
N1 N 0.6227(13) 0.5241(10) 0.1220(9)
N2 N 0.3859(13) 0.5116(10) 0.3907(9)
N3 N 0.4549(13) 0.1321(11) 0.3315(9)
N4 N 0.6450(13) 0.7756(10) 0.0992(9)
N5 N 0.4430(13) 0.7662(11) 0.3269(9)
C1 C 0.5444(15) 0.4048(13) 0.2124(11)
C2 C 0.5820(16) 0.6430(13) 0.1684(11)
C3 C 0.4631(15) 0.6386(12) 0.3019(11)
C4 C 0.4254(15) 0.3958(12) 0.3472(11)
S4 S 0.1045(4) 0.3750(3) 0.1413(3)
S5 S -0.1122(4) 0.3579(3) 0.3987(3)
S6 S 0.1025(4) 1.0177(3) 0.1592(3)
N6 N -0.0745(13) 0.6465(11) 0.3565(9)
N7 N 0.1597(13) 0.6635(11) 0.0856(9)
N8 N -0.0245(13) 0.2763(11) 0.2843(10)
N9 N -0.0168(13) 0.9023(11) 0.2917(9)
N10 N 0.1859(13) 0.9132(10) 0.0636(9)
C5 C -0.0340(15) 0.5327(12) 0.3083(11)
C6 C 0.0068(15) 0.7708(13) 0.2649(11)
C7 C 0.1222(15) 0.7802(12) 0.1328(11)
C8 C 0.0788(15) 0.5433(12) 0.1737(11)
loop_
_geom_bond_atom_site_label_1
_geom_bond_atom_site_label_2
_geom_bond_site_symmetry_1
_geom_bond_site_symmetry_2
S1 N3 1_555 1_555
S2 N3 1_555 1_555
S3 N4 1_555 1_555
S4 N8 1_555 1_555
S5 N8 1_555 1_555
S6 N9 1_555 1_555
N1 C1 1_555 1_555
N2 C3 1_555 1_555
N4 C2 1_555 1_555
N5 S3 1_555 1_555
N6 C5 1_555 1_555
N7 C7 1_555 1_555
N9 C6 1_555 1_555
N10 S6 1_555 1_555
C1 S1 1_555 1_555
C2 N1 1_555 1_555
C3 N5 1_555 1_555
C4 S2 1_555 1_555
C5 S5 1_555 1_555
C6 N6 1_555 1_555
C7 N10 1_555 1_555
C8 S4 1_555 1_555
N2 C4 1_555 1_555
N7 C8 1_555 1_555
C1 C4 1_555 1_555
C2 C3 1_555 1_555
C5 C8 1_555 1_555
C6 C7 1_555 1_555

#END
