
#######################################################################
#
#                 Cambridge Crystallographic Data Centre
#                                CCDC 
#
#######################################################################
#
# If this CIF has been generated from an entry in the Cambridge 
# Structural Database, then it will include bibliographic, chemical, 
# crystal, experimental, refinement or atomic coordinate data resulting 
# from the CCDC's data processing and validation procedures.
#
#######################################################################

data_NEWYET01
_chemical_formula_moiety         'C4 N5 S3'
_chemical_name_systematic        
'1,2,5-Thiadiazolo(3,4-b)-1,3,2-dithiazolo(3,4-b)-pyrazin-2-yl radical'
_symmetry_cell_setting           triclinic
_symmetry_space_group_name_H-M   'P -1'
_symmetry_Int_Tables_number      2
_space_group_name_Hall           '-P 1'
loop_
_symmetry_equiv_pos_site_id
_symmetry_equiv_pos_as_xyz
1 x,y,z
2 -x,-y,-z
_cell_length_a                   4.4456(8)
_cell_length_b                   8.407(2)
_cell_length_c                   9.671(3)
_cell_angle_alpha                71.34(2)
_cell_angle_beta                 89.28(2)
_cell_angle_gamma                87.80(2)
_cell_volume                     342.193
_exptl_crystal_colour            black
_exptl_crystal_description       needles
_chemical_melting_point          'decomposes above 186deg.C'
_cell_formula_units_Z            2
loop_
_atom_site_label
_atom_site_type_symbol
_atom_site_fract_x
_atom_site_fract_y
_atom_site_fract_z
S1 S 0.82686(11) 0.53386(5) 0.17330(5)
S2 S 1.05427(9) 0.29869(5) 0.42462(4)
S3 S 0.22142(9) -0.12463(5) 0.17519(4)
N1 N 0.4998(3) 0.30193(16) 0.11164(14)
N2 N 0.7509(3) 0.05232(15) 0.37356(13)
N3 N 1.0400(4) 0.49391(17) 0.31769(16)
N4 N 0.2327(3) 0.07443(15) 0.08461(13)
N5 N 0.4537(3) -0.13926(17) 0.30630(14)
C1 C 0.6934(4) 0.33583(17) 0.20002(15)
C2 C 0.4269(3) 0.13832(18) 0.15522(15)
C3 C 0.5523(3) 0.01452(17) 0.28421(15)
C4 C 0.8156(3) 0.21261(18) 0.33043(15)
loop_
_geom_bond_atom_site_label_1
_geom_bond_atom_site_label_2
_geom_bond_site_symmetry_1
_geom_bond_site_symmetry_2
S1 N3 1_555 1_555
S2 N3 1_555 1_555
S3 N4 1_555 1_555
N1 C1 1_555 1_555
N2 C3 1_555 1_555
N4 C2 1_555 1_555
N5 S3 1_555 1_555
C1 S1 1_555 1_555
C2 N1 1_555 1_555
C3 N5 1_555 1_555
C4 S2 1_555 1_555
N2 C4 1_555 1_555
C1 C4 1_555 1_555
C2 C3 1_555 1_555

#END
