
#######################################################################
#
#                 Cambridge Crystallographic Data Centre
#                                CCDC 
#
#######################################################################
#
# If this CIF has been generated from an entry in the Cambridge 
# Structural Database, then it will include bibliographic, chemical, 
# crystal, experimental, refinement or atomic coordinate data resulting 
# from the CCDC's data processing and validation procedures.
#
#######################################################################

data_NEXBOK
_chemical_formula_moiety         'C9 H13 B10 I1 O1'
_chemical_name_systematic        
1,5-(2-formylphenyl)-12-iodo-1,2-dicarba-closo-dodecaborane(9)
_symmetry_cell_setting           monoclinic
_symmetry_space_group_name_H-M   'P 21'
_symmetry_Int_Tables_number      4
_space_group_name_Hall           'P 2yb'
loop_
_symmetry_equiv_pos_site_id
_symmetry_equiv_pos_as_xyz
1 x,y,z
2 -x,1/2+y,-z
_cell_length_a                   9.1291(5)
_cell_length_b                   7.3414(4)
_cell_length_c                   11.9192(5)
_cell_angle_alpha                90
_cell_angle_beta                 106.522(2)
_cell_angle_gamma                90
_cell_volume                     765.846
_exptl_crystal_colour            colorless
_exptl_crystal_description       prism
_cell_formula_units_Z            2
loop_
_atom_site_label
_atom_site_type_symbol
_atom_site_fract_x
_atom_site_fract_y
_atom_site_fract_z
I1 I 0.65015(7) 1.07479(14) 0.96602(4)
O1 O 0.7773(10) 0.3031(8) 0.5664(7)
C1 C 0.6528(11) 0.5358(10) 0.7519(8)
H1 H 0.5956 0.4030 0.7477
C2 C 0.7650(8) 0.5795(15) 0.6718(6)
C3 C 0.7814(11) 0.4646(12) 0.5695(8)
C4 C 0.7926(8) 0.5901(16) 0.4755(7)
C5 C 0.8070(11) 0.5364(11) 0.3679(8)
H2 H 0.8166 0.4136 0.3523
C6 C 0.8071(12) 0.6640(14) 0.2851(9)
H3 H 0.8164 0.6278 0.2126
C7 C 0.7934(12) 0.8484(14) 0.3079(8)
H4 H 0.7937 0.9339 0.2504
C8 C 0.7792(10) 0.9065(11) 0.4159(7)
H5 H 0.7721 1.0300 0.4310
C9 C 0.7758(9) 0.7784(11) 0.5002(7)
B1 B 0.8462(14) 0.5408(15) 0.8169(9)
H6 H 0.9170 0.4222 0.8542
B2 B 0.7146(14) 0.6409(13) 0.8843(9)
H7 H 0.7009 0.5879 0.9671
B3 B 0.5558(13) 0.7254(15) 0.7716(9)
H8 H 0.4401 0.7268 0.7823
B4 B 0.5877(12) 0.6785(14) 0.6346(9)
H9 H 0.4935 0.6469 0.5562
B5 B 0.9112(12) 0.7181(13) 0.7401(9)
H10 H 1.0267 0.7145 0.7289
B6 B 0.7552(11) 0.8010(12) 0.6276(8)
B7 B 0.6227(12) 0.9016(13) 0.6931(8)
H11 H 0.5509 1.0179 0.6530
B8 B 0.7016(12) 0.8734(14) 0.8472(8)
B9 B 0.8792(14) 0.7633(14) 0.8771(9)
H12 H 0.9734 0.7912 0.9562
B10 B 0.8229(12) 0.9263(12) 0.7592(8)
H13 H 0.8798 1.0590 0.7622
loop_
_geom_bond_atom_site_label_1
_geom_bond_atom_site_label_2
_geom_bond_site_symmetry_1
_geom_bond_site_symmetry_2
I1 B8 1_555 1_555
O1 C3 1_555 1_555
C1 H1 1_555 1_555
C2 C1 1_555 1_555
C3 C2 1_555 1_555
C4 C3 1_555 1_555
C5 C4 1_555 1_555
H2 C5 1_555 1_555
C6 C5 1_555 1_555
H3 C6 1_555 1_555
C7 C6 1_555 1_555
H4 C7 1_555 1_555
C8 C7 1_555 1_555
H5 C8 1_555 1_555
C9 C4 1_555 1_555
B1 C1 1_555 1_555
H6 B1 1_555 1_555
B2 C1 1_555 1_555
H7 B2 1_555 1_555
B3 C1 1_555 1_555
H8 B3 1_555 1_555
B4 C1 1_555 1_555
H9 B4 1_555 1_555
B5 C2 1_555 1_555
H10 B5 1_555 1_555
B6 C2 1_555 1_555
B7 B3 1_555 1_555
H11 B7 1_555 1_555
B8 B2 1_555 1_555
B9 B1 1_555 1_555
H12 B9 1_555 1_555
B10 B5 1_555 1_555
H13 B10 1_555 1_555
C2 B1 1_555 1_555
C2 B4 1_555 1_555
C8 C9 1_555 1_555
C9 B6 1_555 1_555
B1 B2 1_555 1_555
B1 B5 1_555 1_555
B2 B3 1_555 1_555
B2 B9 1_555 1_555
B3 B4 1_555 1_555
B3 B8 1_555 1_555
B4 B6 1_555 1_555
B4 B7 1_555 1_555
B5 B6 1_555 1_555
B5 B9 1_555 1_555
B6 B7 1_555 1_555
B6 B10 1_555 1_555
B7 B8 1_555 1_555
B7 B10 1_555 1_555
B8 B9 1_555 1_555
B8 B10 1_555 1_555
B9 B10 1_555 1_555

#END
