
#######################################################################
#
#                 Cambridge Crystallographic Data Centre
#                                CCDC 
#
#######################################################################
#
# If this CIF has been generated from an entry in the Cambridge 
# Structural Database, then it will include bibliographic, chemical, 
# crystal, experimental, refinement or atomic coordinate data resulting 
# from the CCDC's data processing and validation procedures.
#
#######################################################################

data_NEXDIG
_chemical_name_common            
"Tetraphenylphosphonium 5',12'-dichlorophenanthro[1,2]carba-closo-dodecaborate"
_chemical_formula_moiety         'C24 H20 P1 1+,C13 H16 B11 Cl2 1-'
_chemical_name_systematic        
"Tetraphenylphosphonium 1,2-(4,4'-dichloro[1,1'-biphenyl]-2,2'-diyl)-1-carba-closo-dodecaborane(10)"
_symmetry_cell_setting           triclinic
_symmetry_space_group_name_H-M   'P -1'
_symmetry_Int_Tables_number      2
_space_group_name_Hall           '-P 1'
loop_
_symmetry_equiv_pos_site_id
_symmetry_equiv_pos_as_xyz
1 x,y,z
2 -x,-y,-z
_cell_length_a                   10.87571(14)
_cell_length_b                   11.22753(15)
_cell_length_c                   15.85150(18)
_cell_angle_alpha                104.5231(11)
_cell_angle_beta                 97.1770(10)
_cell_angle_gamma                104.0970(11)
_cell_volume                     1781.29
_exptl_crystal_colour            colorless
_exptl_crystal_description       block
_cell_formula_units_Z            2
loop_
_atom_site_label
_atom_site_type_symbol
_atom_site_fract_x
_atom_site_fract_y
_atom_site_fract_z
Cl1 Cl 1.11339(2) -0.02636(2) 0.37018(2)
Cl2 Cl 0.75880(3) 0.77488(2) 0.38261(2)
C1 C 1.1162(8) 0.3746(9) 0.2635(5)
B1 B 1.0664(11) 0.5058(9) 0.2703(5)
B2 B 1.22936(9) 0.52758(9) 0.31877(6)
H1 H 1.2545(13) 0.5519(13) 0.3894(9)
B3 B 1.27985(10) 0.40686(10) 0.24846(7)
H2 H 1.3435(14) 0.3594(15) 0.2776(10)
B4 B 1.14894(11) 0.31600(10) 0.15803(7)
H3 H 1.1354(16) 0.2162(16) 0.1336(11)
B5 B 1.01749(9) 0.38042(8) 0.17147(6)
H4 H 0.9170(14) 0.3206(14) 0.1597(10)
B6 B 1.06355(9) 0.54077(9) 0.16664(6)
H5 H 0.9900(15) 0.5838(15) 0.1449(10)
B7 B 1.19452(9) 0.63138(8) 0.25770(6)
H6 H 1.1990(14) 0.7277(14) 0.2916(10)
B8 B 1.32771(10) 0.56723(11) 0.24321(7)
H7 H 1.4270(15) 0.6285(15) 0.2654(10)
B9 B 1.27856(11) 0.43593(12) 0.14370(7)
H8 H 1.3460(16) 0.4089(17) 0.0981(12)
B10 B 1.11544(11) 0.42043(10) 0.09606(6)
H9 H 1.0776(16) 0.3855(16) 0.0231(11)
B11 B 1.22510(11) 0.57532(10) 0.14932(7)
H10 H 1.2600(14) 0.6413(14) 0.1120(10)
C2 C 1.06518(8) 0.29476(7) 0.32079(5)
C3 C 1.10564(8) 0.18517(8) 0.32009(5)
H11 H 1.162920 0.162267 0.282533
C4 C 1.06279(8) 0.11004(8) 0.37368(6)
C5 C 0.98023(9) 0.14220(8) 0.42984(6)
H12 H 0.952013 0.091237 0.467214
C6 C 0.93984(8) 0.25005(8) 0.43027(5)
H13 H 0.884248 0.272772 0.469278
C7 C 0.97784(8) 0.32755(7) 0.37517(5)
C8 C 0.92631(8) 0.43940(7) 0.37640(5)
C9 C 0.82928(9) 0.45935(8) 0.42480(6)
H14 H 0.797949 0.400606 0.456471
C10 C 0.77783(9) 0.56131(9) 0.42797(6)
H15 H 0.712660 0.572597 0.461362
C11 C 0.82345(9) 0.64681(8) 0.38130(6)
C12 C 0.91800(9) 0.63067(8) 0.33246(6)
H16 H 0.948034 0.690196 0.301046
C13 C 0.97003(8) 0.52731(7) 0.32880(5)
P1 P 0.53640(2) 0.08458(2) 0.21269(2)
C15 C 0.60448(7) 0.22096(7) 0.17681(5)
C16 C 0.60306(8) 0.34472(8) 0.22117(5)
H17 H 0.576972 0.361479 0.276935
C17 C 0.64032(9) 0.44350(8) 0.18284(6)
H18 H 0.638479 0.527757 0.212176
C18 C 0.68019(9) 0.41905(9) 0.10177(6)
H19 H 0.705313 0.486664 0.075884
C19 C 0.68340(9) 0.29622(9) 0.05853(6)
H20 H 0.712499 0.280388 0.003817
C20 C 0.64419(8) 0.19667(8) 0.09512(5)
H21 H 0.644276 0.112195 0.064807
C21 C 0.62346(8) -0.03109(7) 0.18114(5)
C22 C 0.75929(8) 0.01013(8) 0.19934(5)
H22 H 0.804043 0.098281 0.226849
C23 C 0.82779(9) -0.07894(9) 0.17684(6)
H23 H 0.919663 -0.051753 0.189802
C24 C 0.76218(10) -0.20785(9) 0.13536(7)
H24 H 0.809356 -0.268086 0.118929
C25 C 0.62782(10) -0.24855(9) 0.11797(8)
H25 H 0.583397 -0.336678 0.090020
C26 C 0.55811(9) -0.16070(8) 0.14134(7)
H26 H 0.466291 -0.188924 0.130213
C27 C 0.36957(7) 0.02046(7) 0.15748(5)
C28 C 0.32373(8) 0.05735(8) 0.08443(5)
H27 H 0.379040 0.121579 0.066173
C29 C 0.19670(8) -0.00066(9) 0.03876(5)
H28 H 0.165275 0.023885 -0.011006
C30 C 0.11538(8) -0.09437(8) 0.06548(6)
H29 H 0.029460 -0.135434 0.032900
C31 C 0.15947(9) -0.12803(9) 0.13965(7)
H30 H 0.102837 -0.190219 0.158793
C32 C 0.28620(8) -0.07104(8) 0.18601(6)
H31 H 0.316215 -0.094033 0.236853
C33 C 0.54359(8) 0.12249(7) 0.33043(5)
C34 C 0.46374(10) 0.19259(10) 0.36779(6)
H32 H 0.406260 0.218856 0.331016
C35 C 0.46872(12) 0.22370(10) 0.45886(7)
H33 H 0.415108 0.272121 0.484422
C36 C 0.55147(10) 0.18452(10) 0.51271(6)
H34 H 0.554956 0.206646 0.575043
C37 C 0.62919(10) 0.11299(10) 0.47554(6)
H35 H 0.685240 0.085553 0.512499
C38 C 0.62546(8) 0.08120(9) 0.38428(6)
H36 H 0.678321 0.031716 0.358887
B12? B 1.1259(12) 0.3812(13) 0.2640(6)
C14? C 1.0736(12) 0.5128(10) 0.2686(6)
loop_
_geom_bond_atom_site_label_1
_geom_bond_atom_site_label_2
_geom_bond_site_symmetry_1
_geom_bond_site_symmetry_2
Cl1 C4 1_555 1_555
Cl2 C11 1_555 1_555
C1 B1 1_555 1_555
B1 B2 1_555 1_555
B2 C1 1_555 1_555
H1 B2 1_555 1_555
B3 C1 1_555 1_555
H2 B3 1_555 1_555
B4 C1 1_555 1_555
H3 B4 1_555 1_555
B5 C1 1_555 1_555
H4 B5 1_555 1_555
B6 B1 1_555 1_555
H5 B6 1_555 1_555
B7 B1 1_555 1_555
H6 B7 1_555 1_555
B8 B2 1_555 1_555
H7 B8 1_555 1_555
B9 B3 1_555 1_555
H8 B9 1_555 1_555
B10 B4 1_555 1_555
H9 B10 1_555 1_555
B11 B6 1_555 1_555
H10 B11 1_555 1_555
C2 C1 1_555 1_555
C3 C2 1_555 1_555
H11 C3 1_555 1_555
C4 C3 1_555 1_555
C5 C4 1_555 1_555
H12 C5 1_555 1_555
C6 C5 1_555 1_555
H13 C6 1_555 1_555
C7 C2 1_555 1_555
C8 C7 1_555 1_555
C9 C8 1_555 1_555
H14 C9 1_555 1_555
C10 C9 1_555 1_555
H15 C10 1_555 1_555
C11 C10 1_555 1_555
C12 C11 1_555 1_555
H16 C12 1_555 1_555
C13 B1 1_555 1_555
P1 C15 1_555 1_555
C15 C16 1_555 1_555
C16 H17 1_555 1_555
C17 C16 1_555 1_555
H18 C17 1_555 1_555
C18 C17 1_555 1_555
H19 C18 1_555 1_555
C19 C18 1_555 1_555
H20 C19 1_555 1_555
C20 C15 1_555 1_555
H21 C20 1_555 1_555
C21 P1 1_555 1_555
C22 C21 1_555 1_555
H22 C22 1_555 1_555
C23 C22 1_555 1_555
H23 C23 1_555 1_555
C24 C23 1_555 1_555
H24 C24 1_555 1_555
C25 C24 1_555 1_555
H25 C25 1_555 1_555
C26 C21 1_555 1_555
H26 C26 1_555 1_555
C27 P1 1_555 1_555
C28 C27 1_555 1_555
H27 C28 1_555 1_555
C29 C28 1_555 1_555
H28 C29 1_555 1_555
C30 C29 1_555 1_555
H29 C30 1_555 1_555
C31 C30 1_555 1_555
H30 C31 1_555 1_555
C32 C27 1_555 1_555
H31 C32 1_555 1_555
C33 P1 1_555 1_555
C34 C33 1_555 1_555
H32 C34 1_555 1_555
C35 C34 1_555 1_555
H33 C35 1_555 1_555
C36 C35 1_555 1_555
H34 C36 1_555 1_555
C37 C36 1_555 1_555
H35 C37 1_555 1_555
C38 C33 1_555 1_555
H36 C38 1_555 1_555
B1 B5 1_555 1_555
B2 B3 1_555 1_555
B2 B7 1_555 1_555
B3 B4 1_555 1_555
B3 B8 1_555 1_555
B4 B5 1_555 1_555
B4 B9 1_555 1_555
B5 B6 1_555 1_555
B5 B10 1_555 1_555
B6 B7 1_555 1_555
B6 B10 1_555 1_555
B7 B8 1_555 1_555
B7 B11 1_555 1_555
B8 B9 1_555 1_555
B8 B11 1_555 1_555
B9 B10 1_555 1_555
B9 B11 1_555 1_555
B10 B11 1_555 1_555
C6 C7 1_555 1_555
C8 C13 1_555 1_555
C12 C13 1_555 1_555
C19 C20 1_555 1_555
C25 C26 1_555 1_555
C31 C32 1_555 1_555
C37 C38 1_555 1_555

#END
