
#######################################################################
#
#                 Cambridge Crystallographic Data Centre
#                                CCDC 
#
#######################################################################
#
# If this CIF has been generated from an entry in the Cambridge 
# Structural Database, then it will include bibliographic, chemical, 
# crystal, experimental, refinement or atomic coordinate data resulting 
# from the CCDC's data processing and validation procedures.
#
#######################################################################

data_NEXKUZ
_chemical_formula_moiety         'C98 H108 N6 O8'
_chemical_name_systematic        
"5,5'-(1,4-phenylene)bis[2,8-bis(undecan-6-yl)-1H-2,5,8-triazadibenzo[cd,lm]cyclopenta[ghi]perylene-1,3,7,9(2H,5H,8H)-tetrone] unknown solvate"
_symmetry_cell_setting           triclinic
_symmetry_space_group_name_H-M   'P -1'
_symmetry_Int_Tables_number      2
_space_group_name_Hall           '-P 1'
loop_
_symmetry_equiv_pos_site_id
_symmetry_equiv_pos_as_xyz
1 x,y,z
2 -x,-y,-z
_cell_length_a                   22.4505(3)
_cell_length_b                   22.8235(4)
_cell_length_c                   27.9100(4)
_cell_angle_alpha                84.7510(10)
_cell_angle_beta                 73.7000(10)
_cell_angle_gamma                75.1850(10)
_cell_volume                     13266.9
_exptl_crystal_colour            red
_exptl_crystal_description       block
_cell_formula_units_Z            6
loop_
_atom_site_label
_atom_site_type_symbol
_atom_site_fract_x
_atom_site_fract_y
_atom_site_fract_z
N1 N 0.64986(15) 0.28446(16) 0.70294(14)
N2 N 0.38877(16) 0.38561(18) 0.78036(15)
N3 N 0.7819(2) 0.00695(18) 0.67969(17)
N4 N 0.79164(18) 0.49493(17) 0.66250(14)
N5 N 0.3270(4) 0.6696(3) 0.7832(2)
N6 N 0.1881(4) 0.2265(5) 0.8512(3)
O1 O 0.88861(18) -0.02944(16) 0.66400(15)
O2 O 0.67295(19) 0.04472(17) 0.69224(18)
O3 O 0.68287(16) 0.51147(14) 0.69379(14)
O4 O 0.90015(15) 0.47721(15) 0.63560(13)
O5 O 0.4274(3) 0.6106(2) 0.7514(2)
O6 O 0.2285(3) 0.7261(3) 0.8184(2)
O7 O 0.0808(3) 0.2695(4) 0.8848(3)
O8 O 0.2966(3) 0.1849(3) 0.8178(3)
C1 C 0.7254(3) 0.0552(2) 0.6868(2)
C2 C 0.7325(2) 0.1179(2) 0.68673(18)
C3 C 0.7959(2) 0.1263(2) 0.67438(19)
C4 C 0.8520(2) 0.0771(2) 0.66489(19)
C5 C 0.8432(3) 0.0133(3) 0.6699(2)
C6 C 0.9100(2) 0.0903(2) 0.65218(19)
H1 H 0.9462 0.0583 0.6449
C7 C 0.9184(2) 0.1480(2) 0.64945(18)
H2 H 0.9596 0.1538 0.6410
C8 C 0.8670(2) 0.1977(2) 0.65892(17)
C9 C 0.8687(2) 0.2632(2) 0.65656(16)
C10 C 0.8088(2) 0.3080(2) 0.66911(16)
C11 C 0.75233(19) 0.2889(2) 0.68163(17)
C12 C 0.7509(2) 0.2296(2) 0.68280(17)
C13 C 0.68713(19) 0.2241(2) 0.69614(17)
C14 C 0.69025(19) 0.3254(2) 0.69297(16)
C15 C 0.6794(2) 0.1658(2) 0.69644(18)
H3 H 0.6387 0.1590 0.7031
C16 C 0.8060(2) 0.1835(2) 0.67196(17)
C17 C 0.6839(2) 0.3885(2) 0.69332(16)
H4 H 0.6438 0.4154 0.7017
C18 C 0.73955(19) 0.40929(19) 0.68076(16)
C19 C 0.80197(19) 0.36958(19) 0.66716(15)
C20 C 0.8580(2) 0.3909(2) 0.65426(16)
C21 C 0.9162(2) 0.3491(2) 0.64353(18)
H5 H 0.9533 0.3632 0.6348
C22 C 0.9221(2) 0.2857(2) 0.64522(18)
H6 H 0.9625 0.2593 0.6386
C23 C 0.8528(2) 0.4578(2) 0.64963(17)
C24 C 0.7360(2) 0.4747(2) 0.68034(18)
C25 C 0.5808(2) 0.3055(2) 0.71943(18)
C26 C 0.5467(2) 0.2779(2) 0.75852(19)
H7 H 0.5670 0.2418 0.7716
C27 C 0.4824(2) 0.3020(2) 0.77960(19)
H8 H 0.4593 0.2826 0.8065
C28 C 0.4529(2) 0.3561(2) 0.75956(19)
C29 C 0.4874(2) 0.3830(2) 0.71819(19)
H9 H 0.4674 0.4184 0.7041
C30 C 0.5516(2) 0.3572(2) 0.69795(19)
H10 H 0.5748 0.3748 0.6699
C31 C 0.2991(2) 0.4592(3) 0.80530(19)
C32 C 0.2829(2) 0.4058(3) 0.8142(2)
C33 C 0.3358(2) 0.3579(3) 0.79916(19)
C34 C 0.3265(2) 0.2989(3) 0.8047(2)
H11 H 0.3606 0.2654 0.7953
C35 C 0.2636(3) 0.2928(3) 0.8249(2)
C36 C 0.2129(3) 0.3403(4) 0.8409(2)
C37 C 0.2190(2) 0.4015(3) 0.8342(2)
C38 C 0.1707(3) 0.4535(3) 0.8462(2)
C39 C 0.1081(3) 0.4454(4) 0.8678(2)
H12 H 0.0731 0.4781 0.8773
C40 C 0.1017(3) 0.3864(5) 0.8741(3)
H13 H 0.0605 0.3814 0.8885
C41 C 0.1476(3) 0.3357(5) 0.8620(3)
C42 C 0.1410(5) 0.2724(6) 0.8675(4)
C43 C 0.2547(4) 0.2296(5) 0.8333(3)
C44 C 0.1883(3) 0.5140(3) 0.8373(2)
C45 C 0.2555(2) 0.5136(3) 0.8164(2)
C46 C 0.2790(3) 0.5644(3) 0.8058(2)
C47 C 0.3475(3) 0.5582(3) 0.7832(2)
C48 C 0.3907(2) 0.5018(2) 0.7730(2)
H14 H 0.4343 0.4987 0.7599
C49 C 0.3656(2) 0.4499(3) 0.78348(19)
C50 C 0.2379(4) 0.6211(3) 0.8167(2)
C51 C 0.1714(4) 0.6223(4) 0.8379(2)
H15 H 0.1426 0.6596 0.8460
C52 C 0.1487(3) 0.5718(4) 0.8468(2)
H16 H 0.1049 0.5759 0.8596
C53 C 0.3705(4) 0.6122(3) 0.7726(3)
C54 C 0.2634(5) 0.6740(4) 0.8062(3)
C55 C 0.7732(3) -0.0563(2) 0.6820(3)
H17 H 0.7276 -0.0525 0.6860
C56 C 0.8088(3) -0.0916(3) 0.6346(3)
H18 H 0.8085 -0.0638 0.6062
H19 H 0.8530 -0.1077 0.6352
C57 C 0.7826(4) -0.1429(3) 0.6268(3)
H20 H 0.7378 -0.1276 0.6278
H21 H 0.7852 -0.1723 0.6540
C58 C 0.8180(5) -0.1746(4) 0.5774(4)
H22 H 0.8635 -0.1840 0.5747
H23 H 0.8105 -0.1460 0.5505
C59 C 0.8010(7) -0.2333(5) 0.5685(6)
H24 H 0.8309 -0.2524 0.5385
H25 H 0.8044 -0.2614 0.5964
C60 C 0.7371(10) -0.2196(8) 0.5631(8)
H26 H 0.7109 -0.2388 0.5900
H27 H 0.7378 -0.2344 0.5318
H28 H 0.7198 -0.1766 0.5641
C61 C 0.7877(4) -0.0871(3) 0.7289(4)
H29 H 0.7822 -0.1281 0.7305
H30 H 0.8322 -0.0898 0.7267
C62 C 0.7472(5) -0.0562(4) 0.7763(4)
H31 H 0.7544 -0.0159 0.7749
H32 H 0.7028 -0.0515 0.7771
C63 C 0.7561(8) -0.0842(7) 0.8224(7)
H33 H 0.8015 -0.0949 0.8201
H34 H 0.7418 -0.1215 0.8270
C64 C 0.7213(13) -0.0456(8) 0.8681(9)
H35 H 0.6781 -0.0502 0.8827
H36 H 0.7210 -0.0030 0.8616
C65 C 0.7691(13) -0.0786(15) 0.9000(13)
H37 H 0.8080 -0.0652 0.8885
H38 H 0.7783 -0.1216 0.8962
H39 H 0.7498 -0.0690 0.9345
C66 C 0.7854(2) 0.5606(2) 0.6573(2)
H40 H 0.7398 0.5783 0.6719
C67 C 0.8190(3) 0.5851(3) 0.6884(3)
H41 H 0.8173 0.5607 0.7189
H42 H 0.8637 0.5793 0.6701
C68 C 0.7936(3) 0.6497(3) 0.7021(3)
H43 H 0.7482 0.6567 0.7183
H44 H 0.7988 0.6747 0.6719
C69 C 0.8265(4) 0.6696(4) 0.7370(4)
H45 H 0.8236 0.6430 0.7663
H46 H 0.8714 0.6650 0.7200
C70 C 0.7987(7) 0.7328(5) 0.7531(6)
H47 H 0.8218 0.7587 0.7298
H48 H 0.7547 0.7442 0.7512
C71 C 0.7996(12) 0.7444(8) 0.8034(8)
H49 H 0.8211 0.7761 0.8020
H50 H 0.8217 0.7082 0.8174
H51 H 0.7565 0.7567 0.8239
C72 C 0.7967(3) 0.5800(3) 0.6035(2)
H52 H 0.8399 0.5600 0.5858
H53 H 0.7935 0.6233 0.6010
C73 C 0.7505(3) 0.5663(3) 0.5775(2)
H54 H 0.7532 0.5231 0.5812
H55 H 0.7075 0.5867 0.5955
C74 C 0.7584(4) 0.5828(3) 0.5239(3)
H56 H 0.7553 0.6260 0.5201
H57 H 0.8014 0.5626 0.5058
C75 C 0.7138(4) 0.5688(4) 0.4995(3)
H58 H 0.6710 0.5862 0.5197
H59 H 0.7195 0.5251 0.5016
C76 C 0.7154(6) 0.5875(5) 0.4474(4)
H60 H 0.7298 0.6242 0.4396
H61 H 0.6732 0.5942 0.4429
H62 H 0.7441 0.5561 0.4255
C77 C 0.3522(5) 0.7228(4) 0.7674(4)
H63 H 0.3099 0.7510 0.7758
C78 C 0.3731(5) 0.7456(5) 0.8048(4)
H64 H 0.3399 0.7467 0.8358
H65 H 0.4105 0.7157 0.8095
C79 C 0.3890(7) 0.8033(6) 0.7985(5)
H66 H 0.3516 0.8332 0.7937
H67 H 0.4222 0.8022 0.7674
C80 C 0.4107(8) 0.8272(9) 0.8374(7)
H68 H 0.4517 0.8020 0.8400
H69 H 0.3799 0.8275 0.8697
C81 C 0.4166(12) 0.8926(11) 0.8204(9)
H70 H 0.4345 0.9064 0.8440
H71 H 0.4488 0.8891 0.7886
C82 C 0.3596(12) 0.9446(14) 0.8141(10)
H72 H 0.3392 0.9322 0.7921
H73 H 0.3748 0.9798 0.8001
H74 H 0.3295 0.9541 0.8460
C83 C 0.3631(5) 0.7351(5) 0.7126(5)
H75 H 0.4067 0.7397 0.6999
H76 H 0.3616 0.6988 0.6980
C84 C 0.3240(7) 0.7844(6) 0.6929(6)
H77 H 0.3335 0.8212 0.7002
H78 H 0.2800 0.7859 0.7111
C85 C 0.3280(7) 0.7863(5) 0.6364(5)
H79 H 0.3687 0.7944 0.6179
H80 H 0.3275 0.7465 0.6271
C86 C 0.2757(9) 0.8324(8) 0.6206(8)
H81 H 0.2761 0.8724 0.6295
H82 H 0.2348 0.8244 0.6389
C87 C 0.2821(9) 0.8320(7) 0.5644(6)
H83 H 0.2864 0.8710 0.5498
H84 H 0.2448 0.8233 0.5593
H85 H 0.3193 0.8015 0.5490
C88 C 0.1790(6) 0.1616(7) 0.8568(9)
C89 C 0.1871(8) 0.1354(9) 0.8073(11)
H86 H 0.1670 0.1015 0.8136
H87 H 0.2325 0.1190 0.7929
C90 C 0.1611(8) 0.1766(8) 0.7678(9)
H88 H 0.1149 0.1906 0.7782
H89 H 0.1802 0.2111 0.7590
C91 C 0.1817(10) 0.1351(12) 0.7290(12)
H90 H 0.1628 0.1007 0.7394
H91 H 0.2278 0.1205 0.7207
C92 C 0.1613(11) 0.1667(11) 0.6835(12)
H92 H 0.1953 0.1833 0.6618
H93 H 0.1237 0.1996 0.6939
C93 C 0.1464(13) 0.1191(12) 0.6552(10)
H94 H 0.1406 0.1359 0.6236
H95 H 0.1080 0.1081 0.6747
H96 H 0.1813 0.0837 0.6500
C94 C 0.1664(8) 0.1440(10) 0.9110(8)
H97 H 0.1213 0.1598 0.9266
H98 H 0.1899 0.1639 0.9259
C95 C 0.1838(11) 0.0746(13) 0.9246(13)
H99 H 0.2258 0.0544 0.9047
H100 H 0.1523 0.0545 0.9208
C96 C 0.1822(13) 0.0781(14) 0.9815(16)
H101 H 0.2196 0.0915 0.9822
H102 H 0.1451 0.1096 0.9965
C97 C 0.1804(19) 0.022(2) 1.0145(16)
H103 H 0.1580 -0.0024 1.0032
H104 H 0.1568 0.0343 1.0484
C98 C 0.248(2) -0.016(2) 1.0145(18)
H105 H 0.2779 0.0092 1.0028
H106 H 0.2591 -0.0493 0.9929
H107 H 0.2482 -0.0301 1.0478
N7 N 0.10519(16) 0.4535(2) 0.74250(16)
N8 N -0.10892(14) 0.35740(17) 0.77564(13)
N9 N 0.0526(3) 0.7351(2) 0.7546(2)
N10 N 0.36674(18) 0.2739(2) 0.65241(18)
N11 N -0.37804(19) 0.5381(2) 0.82989(19)
N12 N -0.0555(2) 0.0735(2) 0.7749(2)
O9 O -0.0251(2) 0.6834(2) 0.7800(2)
O10 O 0.1337(2) 0.7855(2) 0.72579(18)
O11 O 0.27551(17) 0.24188(19) 0.69218(19)
O12 O 0.45852(16) 0.30495(19) 0.61595(17)
O13 O -0.47111(15) 0.50765(18) 0.84486(18)
O14 O -0.28462(15) 0.56829(17) 0.81213(15)
O15 O -0.13433(19) 0.02558(19) 0.78203(17)
O16 O 0.0232(2) 0.12397(18) 0.7625(2)
C99 C 0.0310(3) 0.6802(3) 0.7629(3)
C100 C 0.0785(3) 0.6225(3) 0.7485(2)
C101 C 0.1448(2) 0.6249(3) 0.7259(2)
C102 C 0.1650(3) 0.6776(3) 0.7171(2)
C103 C 0.1175(3) 0.7366(3) 0.7318(3)
C104 C 0.0576(3) 0.5701(3) 0.7562(2)
H108 H 0.0147 0.5704 0.7701
C105 C 0.1042(2) 0.5159(3) 0.7420(2)
C106 C 0.1673(2) 0.5195(3) 0.72304(19)
C107 C 0.1911(2) 0.5705(2) 0.71289(19)
C108 C 0.2566(2) 0.5648(2) 0.69010(18)
C109 C 0.2731(3) 0.6208(3) 0.6812(2)
H109 H 0.3156 0.6212 0.6663
C110 C 0.2301(3) 0.6740(3) 0.6934(2)
H110 H 0.2438 0.7097 0.6859
C111 C 0.1686(2) 0.4205(3) 0.7242(2)
C112 C 0.2059(2) 0.4634(2) 0.71228(19)
C113 C 0.2707(2) 0.4527(3) 0.68950(19)
C114 C 0.2983(2) 0.5043(2) 0.67661(18)
C115 C 0.3634(2) 0.4886(3) 0.6514(2)
H111 H 0.3856 0.5190 0.6427
C116 C 0.3953(2) 0.4306(3) 0.6393(2)
H112 H 0.4380 0.4233 0.6213
C117 C 0.3670(2) 0.3804(3) 0.6527(2)
C118 C 0.3029(2) 0.3921(3) 0.6778(2)
C119 C 0.2669(2) 0.3478(2) 0.6909(2)
C120 C 0.2018(2) 0.3590(2) 0.7139(2)
H113 H 0.1808 0.3277 0.7223
C121 C 0.3016(2) 0.2847(3) 0.6790(2)
C122 C 0.4010(3) 0.3173(3) 0.6392(2)
C123 C 0.04984(19) 0.4298(2) 0.75123(19)
C124 C 0.0496(2) 0.3747(3) 0.7774(2)
H114 H 0.0848 0.3544 0.7887
C125 C -0.0042(2) 0.3494(2) 0.78691(19)
H115 H -0.0059 0.3133 0.8050
C126 C -0.05484(18) 0.3819(2) 0.76749(16)
C127 C -0.0522(2) 0.4346(2) 0.74180(19)
H116 H -0.0861 0.4546 0.7289
C128 C -0.0018(2) 0.4589(2) 0.73442(19)
H117 H -0.0021 0.4961 0.7176
C129 C -0.10726(19) 0.2938(2) 0.77646(18)
C130 C -0.16999(19) 0.2899(2) 0.78716(18)
C131 C -0.20931(18) 0.3479(2) 0.79275(16)
C132 C -0.17409(19) 0.3900(2) 0.78663(16)
C133 C -0.20704(19) 0.4513(2) 0.79369(16)
H118 H -0.1856 0.4820 0.7905
C134 C -0.27442(19) 0.4638(2) 0.80589(17)
C135 C -0.30837(18) 0.4170(2) 0.81175(16)
C136 C -0.27495(18) 0.3576(2) 0.80527(16)
C137 C -0.3036(2) 0.3069(2) 0.81217(17)
C138 C -0.3700(2) 0.3226(2) 0.82536(18)
H119 H -0.3920 0.2922 0.8306
C139 C -0.4038(2) 0.3819(2) 0.83092(19)
H120 H -0.4482 0.3899 0.8394
C140 C -0.37556(19) 0.4306(2) 0.82458(18)
C141 C -0.4121(2) 0.4940(3) 0.8334(2)
C142 C -0.3109(2) 0.5268(3) 0.8151(2)
C143 C -0.2607(2) 0.2453(2) 0.80533(17)
C144 C -0.2778(2) 0.1887(2) 0.80939(19)
H121 H -0.3208 0.1883 0.8177
C145 C -0.2329(3) 0.1354(2) 0.8015(2)
H122 H -0.2468 0.0999 0.8044
C146 C -0.1672(2) 0.1306(2) 0.7891(2)
C147 C -0.1466(2) 0.1847(2) 0.78488(18)
C148 C -0.1923(2) 0.2388(2) 0.79215(18)
C149 C -0.0605(2) 0.2387(2) 0.76890(19)
H123 H -0.0171 0.2377 0.7608
C150 C -0.0817(2) 0.1862(2) 0.77397(19)
C151 C -0.0330(3) 0.1264(3) 0.7689(2)
C152 C -0.1196(3) 0.0712(3) 0.7820(2)
C153 C 0.0037(4) 0.7912(4) 0.7680(4)
C154 C -0.0135(7) 0.8196(5) 0.7257(6)
H124 H 0.0105 0.8506 0.7166
H125 H -0.0578 0.8413 0.7385
C155 C -0.0116(6) 0.7977(5) 0.6783(5)
H126 H -0.0556 0.8029 0.6777
H127 H 0.0069 0.7543 0.6787
C156 C 0.0209(9) 0.8211(7) 0.6309(8)
H128 H 0.0026 0.8645 0.6326
H129 H 0.0043 0.8069 0.6068
C157 C 0.0898(9) 0.8159(7) 0.6045(6)
H130 H 0.0915 0.8394 0.5736
H131 H 0.1073 0.8357 0.6248
C158 C 0.1338(7) 0.7552(6) 0.5919(5)
H132 H 0.1267 0.7281 0.6202
H133 H 0.1773 0.7587 0.5833
H134 H 0.1259 0.7396 0.5641
C159 C -0.0184(6) 0.8092(5) 0.8229(6)
H135 H -0.0305 0.8532 0.8229
H136 H -0.0575 0.7960 0.8374
C160 C 0.0184(5) 0.7916(5) 0.8571(5)
H137 H 0.0501 0.8154 0.8495
H138 H 0.0414 0.7497 0.8506
C161 C -0.0144(8) 0.7963(7) 0.9142(7)
H139 H -0.0550 0.8261 0.9208
H140 H 0.0128 0.8072 0.9317
C162 C -0.0244(9) 0.7300(8) 0.9304(7)
H141 H -0.0466 0.7181 0.9091
H142 H 0.0170 0.7016 0.9256
C163 C -0.0612(8) 0.7268(9) 0.9827(9)
H143 H -0.0527 0.7551 1.0018
H144 H -0.0490 0.6865 0.9959
H145 H -0.1060 0.7366 0.9846
C164 C 0.4020(3) 0.2093(3) 0.6364(3)
H146 H 0.4445 0.2113 0.6154
C165 C 0.3701(3) 0.1845(4) 0.6039(3)
H147 H 0.3994 0.1476 0.5890
H148 H 0.3326 0.1731 0.6256
C166 C 0.3498(4) 0.2247(4) 0.5627(4)
H149 H 0.3201 0.2616 0.5772
H150 H 0.3270 0.2043 0.5474
C167 C 0.4035(5) 0.2417(5) 0.5225(5)
H151 H 0.4287 0.2596 0.5374
H152 H 0.3862 0.2716 0.4998
C168 C 0.4473(5) 0.1839(6) 0.4928(5)
H153 H 0.4566 0.1515 0.5166
H154 H 0.4236 0.1710 0.4732
C169 C 0.5092(10) 0.1928(9) 0.4587(7)
H155 H 0.5011 0.2290 0.4388
H156 H 0.5289 0.1586 0.4372
H157 H 0.5372 0.1963 0.4781
C170 C 0.4125(3) 0.1681(3) 0.6820(3)
H158 H 0.3713 0.1696 0.7057
H159 H 0.4303 0.1266 0.6709
C171 C 0.4556(3) 0.1841(4) 0.7083(3)
H160 H 0.4380 0.2260 0.7182
H161 H 0.4967 0.1822 0.6842
C172 C 0.4678(5) 0.1474(6) 0.7535(4)
H162 H 0.4918 0.1666 0.7685
H163 H 0.4270 0.1479 0.7776
C173 C 0.5006(6) 0.0881(6) 0.7439(5)
H164 H 0.5378 0.0866 0.7157
H165 H 0.4734 0.0659 0.7356
C174 C 0.5224(8) 0.0577(7) 0.7916(6)
H166 H 0.5373 0.0859 0.8060
H167 H 0.5564 0.0221 0.7819
H168 H 0.4869 0.0467 0.8156
C175 C -0.4146(3) 0.6017(4) 0.8451(4)
H169 H -0.3791 0.6209 0.8413
C176 C -0.4151(4) 0.6370(5) 0.7610(5)
H170 H -0.4196 0.6010 0.7477
H171 H -0.3700 0.6306 0.7587
C177 C -0.4293(7) 0.6856(6) 0.7264(8)
H172 H -0.4064 0.7156 0.7285
H173 H -0.4746 0.7047 0.7372
C178 C -0.4138(8) 0.6698(8) 0.6740(8)
H174 H -0.4393 0.6419 0.6722
H175 H -0.3695 0.6473 0.6647
C179 C -0.4222(9) 0.7183(8) 0.6337(7)
H176 H -0.3831 0.7312 0.6205
H177 H -0.4560 0.7523 0.6479
H178 H -0.4326 0.7021 0.6074
C180 C -0.4441(6) 0.6095(6) 0.8964(6)
H179 H -0.4837 0.5966 0.9032
H180 H -0.4559 0.6528 0.9020
C181 C -0.4117(7) 0.5802(7) 0.9351(7)
H181 H -0.3841 0.6043 0.9399
H182 H -0.3855 0.5403 0.9242
C182 C -0.4616(10) 0.5742(9) 0.9842(8)
H183 H -0.4409 0.5697 1.0109
H184 H -0.4744 0.5368 0.9834
C183 C -0.5232(12) 0.6260(11) 0.9980(9)
H185 H -0.5319 0.6489 0.9687
H186 H -0.5207 0.6533 1.0216
C184 C -0.5770(16) 0.5869(13) 1.0234(12)
H187 H -0.6080 0.6083 1.0513
H188 H -0.5563 0.5479 1.0346
H189 H -0.5979 0.5815 0.9991
C185 C -0.0063(3) 0.0142(3) 0.7781(3)
H190 H 0.0318 0.0263 0.7801
C186 C -0.0258(5) -0.0204(5) 0.8255(5)
H191 H 0.0113 -0.0520 0.8283
H192 H -0.0574 -0.0404 0.8217
C187 C -0.0525(6) 0.0113(5) 0.8746(5)
H193 H -0.0650 -0.0165 0.9018
H194 H -0.0890 0.0447 0.8739
C188 C 0.0061(8) 0.0348(7) 0.8796(7)
H195 H 0.0038 0.0769 0.8693
H196 H 0.0474 0.0093 0.8631
C189 C 0.0136(4) -0.0185(3) 0.7305(4)
H197 H 0.0357 -0.0599 0.7363
H198 H -0.0246 -0.0201 0.7214
C190 C 0.0548(3) 0.0070(3) 0.6884(3)
H199 H 0.0915 0.0116 0.6982
H200 H 0.0315 0.0471 0.6807
C191 C 0.0787(5) -0.0304(4) 0.6410(4)
H201 H 0.0424 -0.0298 0.6285
H202 H 0.0960 -0.0721 0.6499
C192 C 0.1309(8) -0.0093(5) 0.5978(5)
H203 H 0.1662 -0.0062 0.6102
H204 H 0.1473 -0.0388 0.5714
C193 C 0.1031(8) 0.0492(9) 0.5782(6)
H205 H 0.0711 0.0450 0.5629
H206 H 0.1359 0.0638 0.5537
H207 H 0.0839 0.0773 0.6049
C194 C -0.0151(11) 0.0239(11) 0.9432(9)
H208 H -0.0327 -0.0113 0.9537
H209 H 0.0192 0.0227 0.9583
C195 C -0.0701(17) 0.0888(16) 0.9514(13)
H210 H -0.0506 0.1211 0.9531
H211 H -0.1024 0.0865 0.9820
H212 H -0.0892 0.0963 0.9240
C196 C -0.4452(7) 0.6367(6) 0.8102(6)
H213 H -0.4841 0.6237 0.8135
H214 H -0.4581 0.6784 0.8208
N13 N 0.89612(14) 0.09977(14) 0.52680(14)
N14 N 0.62728(19) 0.0484(2) 0.5653(2)
N15 N 0.95545(18) 0.35556(17) 0.50415(15)
O17 O 0.72031(16) -0.02527(17) 0.54667(18)
O18 O 0.53503(16) 0.12272(19) 0.58439(19)
O19 O 0.87840(16) 0.44150(14) 0.52982(13)
O20 O 1.03319(16) 0.26764(16) 0.48825(16)
C197 C 0.8917(2) 0.3884(2) 0.52501(18)
C198 C 0.8425(2) 0.35171(18) 0.53866(16)
C199 C 0.86242(19) 0.28888(19) 0.53617(16)
C200 C 0.92789(19) 0.25646(19) 0.52014(16)
C201 C 0.9772(2) 0.2911(2) 0.50407(19)
C202 C 0.94692(19) 0.1935(2) 0.51651(18)
H215 H 0.9900 0.1737 0.5065
C203 C 0.89990(19) 0.16115(18) 0.52815(18)
C204 C 0.83683(19) 0.19416(19) 0.54449(17)
C205 C 0.81434(19) 0.25638(18) 0.54829(16)
C206 C 0.74794(19) 0.28223(18) 0.56200(16)
C207 C 0.7311(2) 0.3457(2) 0.56459(17)
H216 H 0.6882 0.3661 0.5742
C208 C 0.7779(2) 0.37854(19) 0.55290(17)
H217 H 0.7651 0.4206 0.5548
C209 C 0.6372(2) 0.2580(2) 0.58144(18)
H218 H 0.6161 0.2987 0.5859
C210 C 0.6007(2) 0.2142(2) 0.5862(2)
H219 H 0.5563 0.2269 0.5950
C211 C 0.62957(19) 0.1524(2) 0.57807(19)
C212 C 0.69713(19) 0.1335(2) 0.56642(19)
C213 C 0.73073(18) 0.17764(19) 0.56423(17)
C214 C 0.79589(19) 0.15644(18) 0.55193(17)
C215 C 0.83186(18) 0.09788(18) 0.54203(17)
C216 C 0.79774(19) 0.0531(2) 0.54349(19)
H220 H 0.8187 0.0129 0.5363
C217 C 0.73021(19) 0.0727(2) 0.55638(19)
C218 C 0.94904(18) 0.04889(18) 0.51350(18)
C219 C 0.95007(17) -0.00388(18) 0.54078(17)
H221 H 0.9162 -0.0060 0.5686
C220 C 1.00012(19) 0.05396(19) 0.47183(18)
H222 H 1.0001 0.0901 0.4534
C221 C 0.5929(2) 0.1081(3) 0.5769(2)
C222 C 0.6941(2) 0.0278(3) 0.5549(2)
C223 C 0.70250(19) 0.24182(19) 0.57046(17)
C224 C 0.5924(3) 0.0024(3) 0.5626(4)
H223 H 0.5492 0.0288 0.5726
C225 C 0.5920(6) -0.0080(5) 0.5119(7)
H224 H 0.6134 -0.0504 0.5067
H225 H 0.5474 -0.0054 0.5145
C226 C 0.6133(5) 0.0197(6) 0.4664(6)
H226 H 0.6582 0.0166 0.4626
H227 H 0.5922 0.0623 0.4708
C227 C 0.6094(8) 0.0050(8) 0.4170(8)
H228 H 0.6197 -0.0389 0.4150
H229 H 0.5652 0.0196 0.4160
C228 C 0.6494(11) 0.0281(12) 0.3720(10)
H230 H 0.6926 0.0031 0.3667
H231 H 0.6505 0.0687 0.3787
C229 C 0.6305(11) 0.0311(13) 0.3223(11)
H232 H 0.5864 0.0522 0.3274
H233 H 0.6366 -0.0093 0.3115
H234 H 0.6568 0.0522 0.2973
C230 C 0.5820(6) -0.0431(6) 0.5974(7)
H235 H 0.6165 -0.0787 0.5870
H236 H 0.5428 -0.0530 0.5965
C231 C 0.5771(6) -0.0317(6) 0.6482(6)
H237 H 0.5441 0.0053 0.6578
H238 H 0.6171 -0.0237 0.6491
C232 C 0.5626(9) -0.0790(8) 0.6872(8)
H239 H 0.5276 -0.0585 0.7139
H240 H 0.5457 -0.1061 0.6726
C233 C 0.6102(10) -0.1183(12) 0.7113(10)
H241 H 0.6399 -0.0948 0.7131
H242 H 0.6342 -0.1516 0.6891
C234 C 0.5880(12) -0.1451(11) 0.7625(12)
H243 H 0.5540 -0.1638 0.7633
H244 H 0.5730 -0.1137 0.7867
H245 H 0.6230 -0.1750 0.7701
C235 C 1.0057(3) 0.3895(3) 0.4796(2)
H246 H 1.0434 0.3585 0.4633
C236 C 0.9879(4) 0.4292(4) 0.4390(3)
H247 H 1.0203 0.4518 0.4255
H248 H 0.9480 0.4582 0.4530
C237 C 0.9801(5) 0.3983(4) 0.3966(3)
H249 H 0.9925 0.4221 0.3665
H250 H 1.0108 0.3594 0.3927
C238 C 0.9192(6) 0.3875(5) 0.3981(4)
H251 H 0.9076 0.3613 0.4268
H252 H 0.9245 0.3654 0.3686
C239 C 0.8620(6) 0.4440(6) 0.4010(4)
H253 H 0.8583 0.4711 0.4271
H254 H 0.8656 0.4661 0.3694
C240 C 0.8086(6) 0.4148(5) 0.4130(3)
H255 H 0.8010 0.4058 0.3826
H256 H 0.7710 0.4416 0.4324
H257 H 0.8187 0.3780 0.4317
C241 C 1.0256(3) 0.4156(3) 0.5200(3)
H258 H 1.0509 0.4442 0.5039
H259 H 0.9873 0.4381 0.5429
C242 C 1.0621(3) 0.3721(3) 0.5489(2)
H260 H 1.0998 0.3486 0.5259
H261 H 1.0363 0.3443 0.5659
C243 C 1.0827(4) 0.3985(3) 0.5865(3)
H262 H 1.0444 0.4201 0.6101
H263 H 1.1055 0.4284 0.5693
C244 C 1.1251(6) 0.3565(5) 0.6173(4)
H264 H 1.1639 0.3341 0.5947
H265 H 1.1370 0.3810 0.6380
C245 C 1.0923(6) 0.3151(6) 0.6481(4)
H266 H 1.0691 0.3329 0.6799
H267 H 1.1226 0.2784 0.6529
H268 H 1.0629 0.3059 0.6324
N13A N 1.10388(14) -0.09977(14) 0.47320(14)
N14A N 1.37272(19) -0.0484(2) 0.4347(2)
N15A N 1.04455(18) -0.35556(17) 0.49585(15)
O17A O 1.27969(16) 0.02527(17) 0.45333(18)
O18A O 1.46497(16) -0.12272(19) 0.41561(19)
O19A O 1.12160(16) -0.44150(14) 0.47018(13)
O20A O 0.96681(16) -0.26764(16) 0.51175(16)
C197A C 1.1083(2) -0.3884(2) 0.47499(18)
C198A C 1.1575(2) -0.35171(18) 0.46134(16)
C199A C 1.13758(19) -0.28888(19) 0.46383(16)
C200A C 1.07211(19) -0.25646(19) 0.47986(16)
C201A C 1.0228(2) -0.2911(2) 0.49593(19)
C202A C 1.05308(19) -0.1935(2) 0.48349(18)
H215A H 1.0100 -0.1737 0.4935
C203A C 1.10010(19) -0.16115(18) 0.47185(18)
C204A C 1.16317(19) -0.19416(19) 0.45551(17)
C205A C 1.18566(19) -0.25638(18) 0.45171(16)
C206A C 1.25206(19) -0.28223(18) 0.43800(16)
C207A C 1.2689(2) -0.3457(2) 0.43541(17)
H216A H 1.3118 -0.3661 0.4258
C208A C 1.2221(2) -0.37854(19) 0.44710(17)
H217A H 1.2349 -0.4206 0.4452
C209A C 1.3628(2) -0.2580(2) 0.41856(18)
H218A H 1.3839 -0.2987 0.4141
C210A C 1.3993(2) -0.2142(2) 0.4138(2)
H219A H 1.4437 -0.2269 0.4050
C211A C 1.37043(19) -0.1524(2) 0.42193(19)
C212A C 1.30287(19) -0.1335(2) 0.43358(19)
C213A C 1.26927(18) -0.17764(19) 0.43577(17)
C214A C 1.20411(19) -0.15644(18) 0.44807(17)
C215A C 1.16814(18) -0.09788(18) 0.45797(17)
C216A C 1.20226(19) -0.0531(2) 0.45651(19)
H220A H 1.1813 -0.0129 0.4637
C217A C 1.26979(19) -0.0727(2) 0.44362(19)
C218A C 1.05096(18) -0.04889(18) 0.48650(18)
C219A C 1.04993(17) 0.00388(18) 0.45922(17)
H221A H 1.0838 0.0060 0.4314
C220A C 0.99988(19) -0.05396(19) 0.52817(18)
H222A H 0.9999 -0.0901 0.5466
C221A C 1.4071(2) -0.1081(3) 0.4231(2)
C222A C 1.3059(2) -0.0278(3) 0.4451(2)
C223A C 1.29750(19) -0.24182(19) 0.42954(17)
C224A C 1.4076(3) -0.0024(3) 0.4374(4)
H223A H 1.4508 -0.0288 0.4274
C225A C 1.4080(6) 0.0080(5) 0.4881(7)
H224A H 1.3866 0.0504 0.4933
H225A H 1.4526 0.0054 0.4855
C226A C 1.3867(5) -0.0197(6) 0.5336(6)
H226A H 1.3418 -0.0166 0.5374
H227A H 1.4078 -0.0623 0.5292
C227A C 1.3906(8) -0.0050(8) 0.5830(8)
H228A H 1.3803 0.0389 0.5850
H229A H 1.4348 -0.0196 0.5840
C228A C 1.3506(11) -0.0281(12) 0.6280(10)
H230A H 1.3074 -0.0031 0.6333
H231A H 1.3495 -0.0687 0.6213
C229A C 1.3695(11) -0.0311(13) 0.6777(11)
H232A H 1.4136 -0.0522 0.6726
H233A H 1.3634 0.0093 0.6885
H234A H 1.3432 -0.0522 0.7027
C230A C 1.4180(6) 0.0431(6) 0.4026(7)
H235A H 1.3835 0.0787 0.4130
H236A H 1.4572 0.0530 0.4035
C231A C 1.4229(6) 0.0317(6) 0.3518(6)
H237A H 1.4559 -0.0053 0.3422
H238A H 1.3829 0.0237 0.3509
C232A C 1.4374(9) 0.0790(8) 0.3128(8)
H239A H 1.4724 0.0585 0.2861
H240A H 1.4543 0.1061 0.3274
C233A C 1.3898(10) 0.1183(12) 0.2887(10)
H241A H 1.3601 0.0948 0.2869
H242A H 1.3658 0.1516 0.3109
C234A C 1.4120(12) 0.1451(11) 0.2375(12)
H243A H 1.4460 0.1638 0.2367
H244A H 1.4270 0.1137 0.2133
H245A H 1.3770 0.1750 0.2299
C235A C 0.9943(3) -0.3895(3) 0.5204(2)
H246A H 0.9566 -0.3585 0.5367
C236A C 1.0121(4) -0.4292(4) 0.5610(3)
H247A H 0.9797 -0.4518 0.5745
H248A H 1.0520 -0.4582 0.5470
C237A C 1.0199(5) -0.3983(4) 0.6034(3)
H249A H 1.0075 -0.4221 0.6335
H250A H 0.9892 -0.3594 0.6073
C238A C 1.0808(6) -0.3875(5) 0.6019(4)
H251A H 1.0924 -0.3613 0.5732
H252A H 1.0755 -0.3654 0.6314
C239A C 1.1380(6) -0.4440(6) 0.5990(4)
H253A H 1.1417 -0.4711 0.5729
H254A H 1.1344 -0.4661 0.6306
C240A C 1.1914(6) -0.4148(5) 0.5870(3)
H255A H 1.1990 -0.4058 0.6174
H256A H 1.2290 -0.4416 0.5676
H257A H 1.1813 -0.3780 0.5683
C241A C 0.9744(3) -0.4156(3) 0.4800(3)
H258A H 0.9491 -0.4442 0.4961
H259A H 1.0127 -0.4381 0.4571
C242A C 0.9379(3) -0.3721(3) 0.4511(2)
H260A H 0.9002 -0.3486 0.4741
H261A H 0.9637 -0.3443 0.4341
C243A C 0.9173(4) -0.3985(3) 0.4135(3)
H262A H 0.9556 -0.4201 0.3899
H263A H 0.8945 -0.4284 0.4307
C244A C 0.8749(6) -0.3565(5) 0.3827(4)
H264A H 0.8361 -0.3341 0.4053
H265A H 0.8630 -0.3810 0.3620
C245A C 0.9077(6) -0.3151(6) 0.3519(4)
H266A H 0.9309 -0.3329 0.3201
H267A H 0.8774 -0.2784 0.3471
H268A H 0.9371 -0.3059 0.3676
N16 N 0.12855(18) 0.5035(2) 0.97427(15)
N17 N 0.3295(2) 0.2527(3) 0.9466(2)
N18 N 0.1972(4) 0.7543(3) 0.9589(3)
O21 O 0.2234(2) 0.2605(2) 0.96149(19)
O22 O 0.4362(2) 0.2431(2) 0.9129(2)
O23 O 0.0946(3) 0.7453(3) 0.9784(2)
O24 O 0.3010(3) 0.7651(3) 0.9325(2)
C246 C 0.1508(5) 0.7207(4) 0.9649(3)
C247 C 0.1744(3) 0.6553(3) 0.9580(2)
C248 C 0.2430(3) 0.6314(3) 0.9399(2)
C249 C 0.2862(3) 0.6662(3) 0.9290(2)
C250 C 0.2645(5) 0.7332(5) 0.9398(3)
C251 C 0.1316(3) 0.6174(3) 0.9706(2)
H269 H 0.0881 0.6343 0.9833
C252 C 0.1531(2) 0.5555(3) 0.96467(19)
C253 C 0.2195(2) 0.5349(3) 0.94656(19)
C254 C 0.2648(2) 0.5699(3) 0.93432(19)
C255 C 0.3325(2) 0.5392(3) 0.91674(18)
C256 C 0.3726(3) 0.5771(3) 0.9056(2)
H270 H 0.4162 0.5610 0.8930
C257 C 0.3502(3) 0.6388(3) 0.9124(3)
H271 H 0.3796 0.6628 0.9055
C258 C 0.3486(2) 0.4721(3) 0.91613(18)
C259 C 0.2989(2) 0.4408(3) 0.93122(18)
C260 C 0.2363(2) 0.4730(3) 0.94581(19)
C261 C 0.1821(2) 0.4496(3) 0.96264(18)
C262 C 0.0649(2) 0.5014(3) 0.98763(19)
C263 C 0.0436(2) 0.4557(3) 1.0183(2)
H272 H 0.0726 0.4252 1.0301
C264 C 0.0199(2) 0.5453(3) 0.9685(2)
H273 H 0.0335 0.5754 0.9466
C265 C 0.1918(2) 0.3883(3) 0.9642(2)
H274 H 0.1573 0.3704 0.9749
C266 C 0.2545(2) 0.3521(3) 0.9492(2)
C267 C 0.3080(2) 0.3782(3) 0.93381(19)
C268 C 0.3719(2) 0.3419(3) 0.9187(2)
C269 C 0.4202(2) 0.3723(3) 0.9028(2)
H275 H 0.4620 0.3492 0.8922
C270 C 0.4108(2) 0.4334(3) 0.9015(2)
H276 H 0.4460 0.4504 0.8908
C271 C 0.2664(3) 0.2854(3) 0.9542(2)
C272 C 0.3838(3) 0.2764(3) 0.9245(3)
C273 C 0.3427(4) 0.1894(5) 0.9598(5)
H277 H 0.2989 0.1859 0.9762
C274 C 0.3577(7) 0.1491(6) 0.9204(6)
H278 H 0.3987 0.1523 0.8983
H279 H 0.3262 0.1634 0.9016
C275 C 0.3612(9) 0.0822(7) 0.9323(7)
H280 H 0.3272 0.0780 0.9618
H281 H 0.3548 0.0638 0.9048
C276 C 0.4238(10) 0.0496(10) 0.9412(7)
H282 H 0.4270 0.0612 0.9727
H283 H 0.4586 0.0592 0.9147
C277 C 0.4268(13) -0.0206(12) 0.9421(10)
H284 H 0.3848 -0.0266 0.9596
H285 H 0.4361 -0.0332 0.9080
C278 C 0.4751(19) -0.0619(15) 0.9661(13)
H286 H 0.4970 -0.0381 0.9784
H287 H 0.5055 -0.0895 0.9418
H288 H 0.4536 -0.0844 0.9932
C279 C 0.3694(8) 0.1788(7) 1.0050(7)
H289 H 0.4065 0.1955 0.9993
H290 H 0.3814 0.1359 1.0130
C280 C 0.3136(10) 0.2124(10) 1.0473(8)
H291 H 0.2794 0.2369 1.0340
H292 H 0.2966 0.1838 1.0719
C281 C 0.3436(11) 0.2526(11) 1.0705(11)
H293 H 0.3737 0.2692 1.0441
H294 H 0.3104 0.2862 1.0872
C282 C 0.3778(15) 0.2171(11) 1.1073(10)
H295 H 0.3711 0.1764 1.1105
H296 H 0.3582 0.2356 1.1396
C283 C 0.4497(17) 0.2125(13) 1.0939(12)
H297 H 0.4724 0.1706 1.0933
H298 H 0.4591 0.2330 1.1184
H299 H 0.4629 0.2310 1.0616
C284 C 0.1719(6) 0.8184(6) 0.9779(6)
H300 H 0.1254 0.8247 0.9906
C285 C 0.1831(7) 0.8629(7) 0.9374(7)
H301 H 0.1584 0.9025 0.9499
H302 H 0.2279 0.8636 0.9291
C286 C 0.1685(5) 0.8545(5) 0.8919(6)
H303 H 0.1237 0.8540 0.9001
H304 H 0.1931 0.8149 0.8794
C287 C 0.1806(8) 0.9010(7) 0.8496(8)
H305 H 0.1518 0.9397 0.8610
H306 H 0.2238 0.9055 0.8448
C288 C 0.1739(6) 0.8902(5) 0.8006(7)
H307 H 0.1299 0.8881 0.8059
H308 H 0.2001 0.8499 0.7913
C289 C 0.1888(7) 0.9309(5) 0.7546(6)
H309 H 0.1571 0.9687 0.7590
H310 H 0.1884 0.9113 0.7257
H311 H 0.2302 0.9383 0.7501
C290 C 0.1990(8) 0.8236(7) 1.0267(7)
H312 H 0.2432 0.8012 1.0219
H313 H 0.1949 0.8655 1.0340
C291 C 0.1533(8) 0.7942(8) 1.0668(7)
H314 H 0.1133 0.8022 1.0577
H315 H 0.1445 0.8149 1.0978
C292 C 0.1742(9) 0.7234(9) 1.0778(6)
H316 H 0.1533 0.7159 1.1125
H317 H 0.1571 0.7030 1.0576
C293 C 0.2473(9) 0.6918(9) 1.0687(7)
H318 H 0.2625 0.7035 1.0948
H319 H 0.2705 0.7068 1.0371
C294 C 0.2641(10) 0.6183(10) 1.0675(6)
H320 H 0.2295 0.6056 1.0610
H321 H 0.2702 0.6017 1.0991
H322 H 0.3025 0.6040 1.0416
N16A N -0.12855(18) 0.4965(2) 1.02573(15)
N17A N -0.3295(2) 0.7473(3) 1.0534(2)
N18A N -0.1972(4) 0.2457(3) 1.0411(3)
O21A O -0.2234(2) 0.7395(2) 1.03851(19)
O22A O -0.4362(2) 0.7569(2) 1.0871(2)
O23A O -0.0946(3) 0.2547(3) 1.0216(2)
O24A O -0.3010(3) 0.2349(3) 1.0675(2)
C246A C -0.1508(5) 0.2793(4) 1.0351(3)
C247A C -0.1744(3) 0.3447(3) 1.0420(2)
C248A C -0.2430(3) 0.3686(3) 1.0601(2)
C249A C -0.2862(3) 0.3338(3) 1.0710(2)
C250A C -0.2645(5) 0.2668(5) 1.0602(3)
C251A C -0.1316(3) 0.3826(3) 1.0294(2)
H269A H -0.0881 0.3657 1.0167
C252A C -0.1531(2) 0.4445(3) 1.03533(19)
C253A C -0.2195(2) 0.4651(3) 1.05344(19)
C254A C -0.2648(2) 0.4301(3) 1.06568(19)
C255A C -0.3325(2) 0.4608(3) 1.08326(18)
C256A C -0.3726(3) 0.4229(3) 1.0944(2)
H270A H -0.4162 0.4390 1.1070
C257A C -0.3502(3) 0.3612(3) 1.0876(3)
H271A H -0.3796 0.3372 1.0945
C258A C -0.3486(2) 0.5279(3) 1.08387(18)
C259A C -0.2989(2) 0.5592(3) 1.06878(18)
C260A C -0.2363(2) 0.5270(3) 1.05419(19)
C261A C -0.1821(2) 0.5504(3) 1.03736(18)
C262A C -0.0649(2) 0.4986(3) 1.01237(19)
C263A C -0.0436(2) 0.5443(3) 0.9817(2)
H272A H -0.0726 0.5748 0.9699
C264A C -0.0199(2) 0.4547(3) 1.0315(2)
H273A H -0.0335 0.4246 1.0534
C265A C -0.1918(2) 0.6117(3) 1.0358(2)
H274A H -0.1573 0.6296 1.0251
C266A C -0.2545(2) 0.6479(3) 1.0508(2)
C267A C -0.3080(2) 0.6218(3) 1.06619(19)
C268A C -0.3719(2) 0.6581(3) 1.0813(2)
C269A C -0.4202(2) 0.6277(3) 1.0972(2)
H275A H -0.4620 0.6508 1.1078
C270A C -0.4108(2) 0.5666(3) 1.0985(2)
H276A H -0.4460 0.5496 1.1092
C271A C -0.2664(3) 0.7146(3) 1.0458(2)
C272A C -0.3838(3) 0.7236(3) 1.0755(3)
C273A C -0.3427(4) 0.8106(5) 1.0402(5)
H277A H -0.2989 0.8141 1.0238
C274A C -0.3577(7) 0.8509(6) 1.0796(6)
H278A H -0.3987 0.8477 1.1017
H279A H -0.3262 0.8366 1.0984
C275A C -0.3612(9) 0.9178(7) 1.0677(7)
H280A H -0.3272 0.9220 1.0382
H281A H -0.3548 0.9362 1.0952
C276A C -0.4238(10) 0.9504(10) 1.0588(7)
H282A H -0.4270 0.9388 1.0273
H283A H -0.4586 0.9408 1.0853
C277A C -0.4268(13) 1.0206(12) 1.0579(10)
H284A H -0.3848 1.0266 1.0404
H285A H -0.4361 1.0332 1.0920
C278A C -0.4751(19) 1.0619(15) 1.0339(13)
H286A H -0.4970 1.0381 1.0216
H287A H -0.5055 1.0895 1.0582
H288A H -0.4536 1.0844 1.0068
C279A C -0.3694(8) 0.8212(7) 0.9950(7)
H289A H -0.4065 0.8045 1.0007
H290A H -0.3814 0.8641 0.9870
C280A C -0.3136(10) 0.7876(10) 0.9527(8)
H291A H -0.2794 0.7631 0.9660
H292A H -0.2966 0.8162 0.9281
C281A C -0.3436(11) 0.7474(11) 0.9295(11)
H293A H -0.3737 0.7308 0.9559
H294A H -0.3104 0.7138 0.9128
C282A C -0.3778(15) 0.7829(11) 0.8927(10)
H295A H -0.3711 0.8236 0.8895
H296A H -0.3582 0.7644 0.8604
C283A C -0.4497(17) 0.7875(13) 0.9061(12)
H297A H -0.4724 0.8294 0.9067
H298A H -0.4591 0.7670 0.8816
H299A H -0.4629 0.7690 0.9384
C284A C -0.1719(6) 0.1816(6) 1.0221(6)
H300A H -0.1254 0.1753 1.0094
C285A C -0.1831(7) 0.1371(7) 1.0626(7)
H301A H -0.1584 0.0975 1.0501
H302A H -0.2279 0.1364 1.0709
C286A C -0.1685(5) 0.1455(5) 1.1081(6)
H303A H -0.1237 0.1460 1.0999
H304A H -0.1931 0.1851 1.1206
C287A C -0.1806(8) 0.0990(7) 1.1504(8)
H305A H -0.1518 0.0603 1.1390
H306A H -0.2238 0.0945 1.1552
C288A C -0.1739(6) 0.1098(5) 1.1994(7)
H307A H -0.1299 0.1119 1.1941
H308A H -0.2001 0.1501 1.2087
C289A C -0.1888(7) 0.0691(5) 1.2454(6)
H309A H -0.1571 0.0313 1.2410
H310A H -0.1884 0.0887 1.2743
H311A H -0.2302 0.0617 1.2499
C290A C -0.1990(8) 0.1764(7) 0.9733(7)
H312A H -0.2432 0.1988 0.9781
H313A H -0.1949 0.1345 0.9660
C291A C -0.1533(8) 0.2058(8) 0.9332(7)
H314A H -0.1133 0.1978 0.9423
H315A H -0.1445 0.1851 0.9022
C292A C -0.1742(9) 0.2766(9) 0.9222(6)
H316A H -0.1533 0.2841 0.8875
H317A H -0.1571 0.2970 0.9424
C293A C -0.2473(9) 0.3082(9) 0.9313(7)
H318A H -0.2625 0.2965 0.9052
H319A H -0.2705 0.2932 0.9629
C294A C -0.2641(10) 0.3817(10) 0.9325(6)
H320A H -0.2295 0.3944 0.9390
H321A H -0.2702 0.3983 0.9009
H322A H -0.3025 0.3960 0.9584
loop_
_geom_bond_atom_site_label_1
_geom_bond_atom_site_label_2
_geom_bond_site_symmetry_1
_geom_bond_site_symmetry_2
N1 C13 1_555 1_555
N2 C28 1_555 1_555
N3 C1 1_555 1_555
N4 C23 1_555 1_555
N5 C53 1_555 1_555
N6 C42 1_555 1_555
O1 C5 1_555 1_555
O2 C1 1_555 1_555
O3 C24 1_555 1_555
O4 C23 1_555 1_555
O5 C53 1_555 1_555
O6 C54 1_555 1_555
O7 C42 1_555 1_555
O8 C43 1_555 1_555
C1 C2 1_555 1_555
C2 C3 1_555 1_555
C3 C4 1_555 1_555
C4 C5 1_555 1_555
C5 N3 1_555 1_555
C6 C4 1_555 1_555
H1 C6 1_555 1_555
C7 C6 1_555 1_555
H2 C7 1_555 1_555
C8 C7 1_555 1_555
C9 C8 1_555 1_555
C10 C9 1_555 1_555
C11 C10 1_555 1_555
C12 C11 1_555 1_555
C13 C12 1_555 1_555
C14 N1 1_555 1_555
C15 C2 1_555 1_555
H3 C15 1_555 1_555
C16 C3 1_555 1_555
C17 C14 1_555 1_555
H4 C17 1_555 1_555
C18 C17 1_555 1_555
C19 C10 1_555 1_555
C20 C19 1_555 1_555
C21 C20 1_555 1_555
H5 C21 1_555 1_555
C22 C9 1_555 1_555
H6 C22 1_555 1_555
C23 C20 1_555 1_555
C24 N4 1_555 1_555
C25 N1 1_555 1_555
C26 C25 1_555 1_555
H7 C26 1_555 1_555
C27 C26 1_555 1_555
H8 C27 1_555 1_555
C28 C27 1_555 1_555
C29 C28 1_555 1_555
H9 C29 1_555 1_555
C30 C25 1_555 1_555
H10 C30 1_555 1_555
C31 C32 1_555 1_555
C32 C33 1_555 1_555
C33 N2 1_555 1_555
C34 C33 1_555 1_555
H11 C34 1_555 1_555
C35 C34 1_555 1_555
C36 C35 1_555 1_555
C37 C32 1_555 1_555
C38 C37 1_555 1_555
C39 C38 1_555 1_555
H12 C39 1_555 1_555
C40 C39 1_555 1_555
H13 C40 1_555 1_555
C41 C36 1_555 1_555
C42 C41 1_555 1_555
C43 N6 1_555 1_555
C44 C38 1_555 1_555
C45 C31 1_555 1_555
C46 C45 1_555 1_555
C47 C46 1_555 1_555
C48 C47 1_555 1_555
H14 C48 1_555 1_555
C49 N2 1_555 1_555
C50 C46 1_555 1_555
C51 C50 1_555 1_555
H15 C51 1_555 1_555
C52 C44 1_555 1_555
H16 C52 1_555 1_555
C53 C47 1_555 1_555
C54 N5 1_555 1_555
C55 N3 1_555 1_555
H17 C55 1_555 1_555
C56 C55 1_555 1_555
H18 C56 1_555 1_555
H19 C56 1_555 1_555
C57 C56 1_555 1_555
H20 C57 1_555 1_555
H21 C57 1_555 1_555
C58 C57 1_555 1_555
H22 C58 1_555 1_555
H23 C58 1_555 1_555
C59 C58 1_555 1_555
H24 C59 1_555 1_555
H25 C59 1_555 1_555
C60 C59 1_555 1_555
H26 C60 1_555 1_555
H27 C60 1_555 1_555
H28 C60 1_555 1_555
C61 C55 1_555 1_555
H29 C61 1_555 1_555
H30 C61 1_555 1_555
C62 C61 1_555 1_555
H31 C62 1_555 1_555
H32 C62 1_555 1_555
C63 C62 1_555 1_555
H33 C63 1_555 1_555
H34 C63 1_555 1_555
C64 C63 1_555 1_555
H35 C64 1_555 1_555
H36 C64 1_555 1_555
C65 C64 1_555 1_555
H37 C65 1_555 1_555
H38 C65 1_555 1_555
H39 C65 1_555 1_555
C66 N4 1_555 1_555
H40 C66 1_555 1_555
C67 C66 1_555 1_555
H41 C67 1_555 1_555
H42 C67 1_555 1_555
C68 C67 1_555 1_555
H43 C68 1_555 1_555
H44 C68 1_555 1_555
C69 C68 1_555 1_555
H45 C69 1_555 1_555
H46 C69 1_555 1_555
C70 C69 1_555 1_555
H47 C70 1_555 1_555
H48 C70 1_555 1_555
C71 C70 1_555 1_555
H49 C71 1_555 1_555
H50 C71 1_555 1_555
H51 C71 1_555 1_555
C72 C66 1_555 1_555
H52 C72 1_555 1_555
H53 C72 1_555 1_555
C73 C72 1_555 1_555
H54 C73 1_555 1_555
H55 C73 1_555 1_555
C74 C73 1_555 1_555
H56 C74 1_555 1_555
H57 C74 1_555 1_555
C75 C74 1_555 1_555
H58 C75 1_555 1_555
H59 C75 1_555 1_555
C76 C75 1_555 1_555
H60 C76 1_555 1_555
H61 C76 1_555 1_555
H62 C76 1_555 1_555
C77 N5 1_555 1_555
H63 C77 1_555 1_555
C78 C77 1_555 1_555
H64 C78 1_555 1_555
H65 C78 1_555 1_555
C79 C78 1_555 1_555
H66 C79 1_555 1_555
H67 C79 1_555 1_555
C80 C79 1_555 1_555
H68 C80 1_555 1_555
H69 C80 1_555 1_555
C81 C80 1_555 1_555
H70 C81 1_555 1_555
H71 C81 1_555 1_555
C82 C81 1_555 1_555
H72 C82 1_555 1_555
H73 C82 1_555 1_555
H74 C82 1_555 1_555
C83 C77 1_555 1_555
H75 C83 1_555 1_555
H76 C83 1_555 1_555
C84 C83 1_555 1_555
H77 C84 1_555 1_555
H78 C84 1_555 1_555
C85 C84 1_555 1_555
H79 C85 1_555 1_555
H80 C85 1_555 1_555
C86 C85 1_555 1_555
H81 C86 1_555 1_555
H82 C86 1_555 1_555
C87 C86 1_555 1_555
H83 C87 1_555 1_555
H84 C87 1_555 1_555
H85 C87 1_555 1_555
C88 N6 1_555 1_555
C89 C88 1_555 1_555
H86 C89 1_555 1_555
H87 C89 1_555 1_555
C90 C89 1_555 1_555
H88 C90 1_555 1_555
H89 C90 1_555 1_555
C91 C90 1_555 1_555
H90 C91 1_555 1_555
H91 C91 1_555 1_555
C92 C91 1_555 1_555
H92 C92 1_555 1_555
H93 C92 1_555 1_555
C93 C92 1_555 1_555
H94 C93 1_555 1_555
H95 C93 1_555 1_555
H96 C93 1_555 1_555
C94 C88 1_555 1_555
H97 C94 1_555 1_555
H98 C94 1_555 1_555
C95 C94 1_555 1_555
H99 C95 1_555 1_555
H100 C95 1_555 1_555
C96 C95 1_555 1_555
H101 C96 1_555 1_555
H102 C96 1_555 1_555
C97 C96 1_555 1_555
H103 C97 1_555 1_555
H104 C97 1_555 1_555
C98 C97 1_555 1_555
H105 C98 1_555 1_555
H106 C98 1_555 1_555
H107 C98 1_555 1_555
N7 C105 1_555 1_555
N8 C126 1_555 1_555
N9 C99 1_555 1_555
N10 C121 1_555 1_555
N11 C141 1_555 1_555
N12 C151 1_555 1_555
O9 C99 1_555 1_555
O10 C103 1_555 1_555
O11 C121 1_555 1_555
O12 C122 1_555 1_555
O13 C141 1_555 1_555
O14 C142 1_555 1_555
O15 C152 1_555 1_555
O16 C151 1_555 1_555
C99 C100 1_555 1_555
C100 C101 1_555 1_555
C101 C102 1_555 1_555
C102 C103 1_555 1_555
C103 N9 1_555 1_555
C104 C100 1_555 1_555
H108 C104 1_555 1_555
C105 C104 1_555 1_555
C106 C105 1_555 1_555
C107 C101 1_555 1_555
C108 C107 1_555 1_555
C109 C108 1_555 1_555
H109 C109 1_555 1_555
C110 C102 1_555 1_555
H110 C110 1_555 1_555
C111 N7 1_555 1_555
C112 C106 1_555 1_555
C113 C112 1_555 1_555
C114 C108 1_555 1_555
C115 C114 1_555 1_555
H111 C115 1_555 1_555
C116 C115 1_555 1_555
H112 C116 1_555 1_555
C117 C116 1_555 1_555
C118 C113 1_555 1_555
C119 C118 1_555 1_555
C120 C111 1_555 1_555
H113 C120 1_555 1_555
C121 C119 1_555 1_555
C122 N10 1_555 1_555
C123 N7 1_555 1_555
C124 C123 1_555 1_555
H114 C124 1_555 1_555
C125 C124 1_555 1_555
H115 C125 1_555 1_555
C126 C125 1_555 1_555
C127 C126 1_555 1_555
H116 C127 1_555 1_555
C128 C123 1_555 1_555
H117 C128 1_555 1_555
C129 N8 1_555 1_555
C130 C129 1_555 1_555
C131 C130 1_555 1_555
C132 N8 1_555 1_555
C133 C132 1_555 1_555
H118 C133 1_555 1_555
C134 C133 1_555 1_555
C135 C134 1_555 1_555
C136 C131 1_555 1_555
C137 C136 1_555 1_555
C138 C137 1_555 1_555
H119 C138 1_555 1_555
C139 C138 1_555 1_555
H120 C139 1_555 1_555
C140 C135 1_555 1_555
C141 C140 1_555 1_555
C142 N11 1_555 1_555
C143 C137 1_555 1_555
C144 C143 1_555 1_555
H121 C144 1_555 1_555
C145 C144 1_555 1_555
H122 C145 1_555 1_555
C146 C145 1_555 1_555
C147 C146 1_555 1_555
C148 C130 1_555 1_555
C149 C129 1_555 1_555
H123 C149 1_555 1_555
C150 C147 1_555 1_555
C151 C150 1_555 1_555
C152 N12 1_555 1_555
C153 N9 1_555 1_555
C154 C153 1_555 1_555
H124 C154 1_555 1_555
H125 C154 1_555 1_555
C155 C154 1_555 1_555
H126 C155 1_555 1_555
H127 C155 1_555 1_555
C156 C155 1_555 1_555
H128 C156 1_555 1_555
H129 C156 1_555 1_555
C157 C156 1_555 1_555
H130 C157 1_555 1_555
H131 C157 1_555 1_555
C158 C157 1_555 1_555
H132 C158 1_555 1_555
H133 C158 1_555 1_555
H134 C158 1_555 1_555
C159 C153 1_555 1_555
H135 C159 1_555 1_555
H136 C159 1_555 1_555
C160 C159 1_555 1_555
H137 C160 1_555 1_555
H138 C160 1_555 1_555
C161 C160 1_555 1_555
H139 C161 1_555 1_555
H140 C161 1_555 1_555
C162 C161 1_555 1_555
H141 C162 1_555 1_555
H142 C162 1_555 1_555
C163 C162 1_555 1_555
H143 C163 1_555 1_555
H144 C163 1_555 1_555
H145 C163 1_555 1_555
C164 N10 1_555 1_555
H146 C164 1_555 1_555
C165 C164 1_555 1_555
H147 C165 1_555 1_555
H148 C165 1_555 1_555
C166 C165 1_555 1_555
H149 C166 1_555 1_555
H150 C166 1_555 1_555
C167 C166 1_555 1_555
H151 C167 1_555 1_555
H152 C167 1_555 1_555
C168 C167 1_555 1_555
H153 C168 1_555 1_555
H154 C168 1_555 1_555
C169 C168 1_555 1_555
H155 C169 1_555 1_555
H156 C169 1_555 1_555
H157 C169 1_555 1_555
C170 C164 1_555 1_555
H158 C170 1_555 1_555
H159 C170 1_555 1_555
C171 C170 1_555 1_555
H160 C171 1_555 1_555
H161 C171 1_555 1_555
C172 C171 1_555 1_555
H162 C172 1_555 1_555
H163 C172 1_555 1_555
C173 C172 1_555 1_555
H164 C173 1_555 1_555
H165 C173 1_555 1_555
C174 C173 1_555 1_555
H166 C174 1_555 1_555
H167 C174 1_555 1_555
H168 C174 1_555 1_555
C175 N11 1_555 1_555
H169 C175 1_555 1_555
C176 H170 1_555 1_555
H171 C176 1_555 1_555
C177 C176 1_555 1_555
H172 C177 1_555 1_555
H173 C177 1_555 1_555
C178 C177 1_555 1_555
H174 C178 1_555 1_555
H175 C178 1_555 1_555
C179 C178 1_555 1_555
H176 C179 1_555 1_555
H177 C179 1_555 1_555
H178 C179 1_555 1_555
C180 C175 1_555 1_555
H179 C180 1_555 1_555
H180 C180 1_555 1_555
C181 C180 1_555 1_555
H181 C181 1_555 1_555
H182 C181 1_555 1_555
C182 C181 1_555 1_555
H183 C182 1_555 1_555
H184 C182 1_555 1_555
C183 C182 1_555 1_555
H185 C183 1_555 1_555
H186 C183 1_555 1_555
C184 C183 1_555 1_555
H187 C184 1_555 1_555
H188 C184 1_555 1_555
H189 C184 1_555 1_555
C185 N12 1_555 1_555
H190 C185 1_555 1_555
C186 C185 1_555 1_555
H191 C186 1_555 1_555
H192 C186 1_555 1_555
C187 C186 1_555 1_555
H193 C187 1_555 1_555
H194 C187 1_555 1_555
C188 C187 1_555 1_555
H195 C188 1_555 1_555
H196 C188 1_555 1_555
C189 C185 1_555 1_555
H197 C189 1_555 1_555
H198 C189 1_555 1_555
C190 C189 1_555 1_555
H199 C190 1_555 1_555
H200 C190 1_555 1_555
C191 C190 1_555 1_555
H201 C191 1_555 1_555
H202 C191 1_555 1_555
C192 C191 1_555 1_555
H203 C192 1_555 1_555
H204 C192 1_555 1_555
C193 C192 1_555 1_555
H205 C193 1_555 1_555
H206 C193 1_555 1_555
H207 C193 1_555 1_555
C194 C188 1_555 1_555
H208 C194 1_555 1_555
H209 C194 1_555 1_555
C195 C194 1_555 1_555
H210 C195 1_555 1_555
H211 C195 1_555 1_555
H212 C195 1_555 1_555
C196 C175 1_555 1_555
H213 C196 1_555 1_555
H214 C196 1_555 1_555
N13 C203 1_555 1_555
N14 C221 1_555 1_555
N15 C197 1_555 1_555
O17 C222 1_555 1_555
O18 C221 1_555 1_555
O19 C197 1_555 1_555
O20 C201 1_555 1_555
C197 C198 1_555 1_555
C198 C199 1_555 1_555
C199 C200 1_555 1_555
C200 C201 1_555 1_555
C201 N15 1_555 1_555
C202 C200 1_555 1_555
H215 C202 1_555 1_555
C203 C202 1_555 1_555
C204 C203 1_555 1_555
C205 C199 1_555 1_555
C206 C205 1_555 1_555
C207 C206 1_555 1_555
H216 C207 1_555 1_555
C208 C198 1_555 1_555
H217 C208 1_555 1_555
C209 H218 1_555 1_555
C210 C209 1_555 1_555
H219 C210 1_555 1_555
C211 C210 1_555 1_555
C212 C211 1_555 1_555
C213 C212 1_555 1_555
C214 C204 1_555 1_555
C215 N13 1_555 1_555
C216 C215 1_555 1_555
H220 C216 1_555 1_555
C217 C212 1_555 1_555
C218 N13 1_555 1_555
C219 C218 1_555 1_555
H221 C219 1_555 1_555
C220 C218 1_555 1_555
H222 C220 1_555 1_555
C221 C211 1_555 1_555
C222 N14 1_555 1_555
C223 C206 1_555 1_555
C224 N14 1_555 1_555
H223 C224 1_555 1_555
C225 C224 1_555 1_555
H224 C225 1_555 1_555
H225 C225 1_555 1_555
C226 C225 1_555 1_555
H226 C226 1_555 1_555
H227 C226 1_555 1_555
C227 C226 1_555 1_555
H228 C227 1_555 1_555
H229 C227 1_555 1_555
C228 C227 1_555 1_555
H230 C228 1_555 1_555
H231 C228 1_555 1_555
C229 C228 1_555 1_555
H232 C229 1_555 1_555
H233 C229 1_555 1_555
H234 C229 1_555 1_555
C230 C224 1_555 1_555
H235 C230 1_555 1_555
H236 C230 1_555 1_555
C231 C230 1_555 1_555
H237 C231 1_555 1_555
H238 C231 1_555 1_555
C232 C231 1_555 1_555
H239 C232 1_555 1_555
H240 C232 1_555 1_555
C233 C232 1_555 1_555
H241 C233 1_555 1_555
H242 C233 1_555 1_555
C234 C233 1_555 1_555
H243 C234 1_555 1_555
H244 C234 1_555 1_555
H245 C234 1_555 1_555
C235 N15 1_555 1_555
H246 C235 1_555 1_555
C236 C235 1_555 1_555
H247 C236 1_555 1_555
H248 C236 1_555 1_555
C237 C236 1_555 1_555
H249 C237 1_555 1_555
H250 C237 1_555 1_555
C238 C237 1_555 1_555
H251 C238 1_555 1_555
H252 C238 1_555 1_555
C239 C238 1_555 1_555
H253 C239 1_555 1_555
H254 C239 1_555 1_555
C240 C239 1_555 1_555
H255 C240 1_555 1_555
H256 C240 1_555 1_555
H257 C240 1_555 1_555
C241 C235 1_555 1_555
H258 C241 1_555 1_555
H259 C241 1_555 1_555
C242 C241 1_555 1_555
H260 C242 1_555 1_555
H261 C242 1_555 1_555
C243 C242 1_555 1_555
H262 C243 1_555 1_555
H263 C243 1_555 1_555
C244 C243 1_555 1_555
H264 C244 1_555 1_555
H265 C244 1_555 1_555
C245 C244 1_555 1_555
H266 C245 1_555 1_555
H267 C245 1_555 1_555
H268 C245 1_555 1_555
N16 C252 1_555 1_555
N17 C271 1_555 1_555
N18 C246 1_555 1_555
O21 C271 1_555 1_555
O22 C272 1_555 1_555
O23 C246 1_555 1_555
O24 C250 1_555 1_555
C246 C247 1_555 1_555
C247 C248 1_555 1_555
C248 C249 1_555 1_555
C249 C250 1_555 1_555
C250 N18 1_555 1_555
C251 C247 1_555 1_555
H269 C251 1_555 1_555
C252 C251 1_555 1_555
C253 C252 1_555 1_555
C254 C248 1_555 1_555
C255 C254 1_555 1_555
C256 C255 1_555 1_555
H270 C256 1_555 1_555
C257 C249 1_555 1_555
H271 C257 1_555 1_555
C258 C255 1_555 1_555
C259 C258 1_555 1_555
C260 C253 1_555 1_555
C261 N16 1_555 1_555
C262 N16 1_555 1_555
C263 C262 1_555 1_555
H272 C263 1_555 1_555
C264 C262 1_555 1_555
H273 C264 1_555 1_555
C265 C261 1_555 1_555
H274 C265 1_555 1_555
C266 C265 1_555 1_555
C267 C259 1_555 1_555
C268 C267 1_555 1_555
C269 C268 1_555 1_555
H275 C269 1_555 1_555
C270 C258 1_555 1_555
H276 C270 1_555 1_555
C271 C266 1_555 1_555
C272 N17 1_555 1_555
C273 N17 1_555 1_555
H277 C273 1_555 1_555
C274 C273 1_555 1_555
H278 C274 1_555 1_555
H279 C274 1_555 1_555
C275 C274 1_555 1_555
H280 C275 1_555 1_555
H281 C275 1_555 1_555
C276 C275 1_555 1_555
H282 C276 1_555 1_555
H283 C276 1_555 1_555
C277 C276 1_555 1_555
H284 C277 1_555 1_555
H285 C277 1_555 1_555
C278 C277 1_555 1_555
H286 C278 1_555 1_555
H287 C278 1_555 1_555
H288 C278 1_555 1_555
C279 C273 1_555 1_555
H289 C279 1_555 1_555
H290 C279 1_555 1_555
C280 C279 1_555 1_555
H291 C280 1_555 1_555
H292 C280 1_555 1_555
C281 C280 1_555 1_555
H293 C281 1_555 1_555
H294 C281 1_555 1_555
C282 C281 1_555 1_555
H295 C282 1_555 1_555
H296 C282 1_555 1_555
C283 C282 1_555 1_555
H297 C283 1_555 1_555
H298 C283 1_555 1_555
H299 C283 1_555 1_555
C284 N18 1_555 1_555
H300 C284 1_555 1_555
C285 C284 1_555 1_555
H301 C285 1_555 1_555
H302 C285 1_555 1_555
C286 C285 1_555 1_555
H303 C286 1_555 1_555
H304 C286 1_555 1_555
C287 C286 1_555 1_555
H305 C287 1_555 1_555
H306 C287 1_555 1_555
C288 C287 1_555 1_555
H307 C288 1_555 1_555
H308 C288 1_555 1_555
C289 C288 1_555 1_555
H309 C289 1_555 1_555
H310 C289 1_555 1_555
H311 C289 1_555 1_555
C290 C284 1_555 1_555
H312 C290 1_555 1_555
H313 C290 1_555 1_555
C291 C290 1_555 1_555
H314 C291 1_555 1_555
H315 C291 1_555 1_555
C292 C291 1_555 1_555
H316 C292 1_555 1_555
H317 C292 1_555 1_555
C293 C292 1_555 1_555
H318 C293 1_555 1_555
H319 C293 1_555 1_555
C294 C293 1_555 1_555
H320 C294 1_555 1_555
H321 C294 1_555 1_555
H322 C294 1_555 1_555
N13A C203A 1_555 1_555
N14A C221A 1_555 1_555
N15A C197A 1_555 1_555
O17A C222A 1_555 1_555
O18A C221A 1_555 1_555
O19A C197A 1_555 1_555
O20A C201A 1_555 1_555
C197A C198A 1_555 1_555
C198A C199A 1_555 1_555
C199A C200A 1_555 1_555
C200A C201A 1_555 1_555
C201A N15A 1_555 1_555
C202A C200A 1_555 1_555
H215A C202A 1_555 1_555
C203A C202A 1_555 1_555
C204A C203A 1_555 1_555
C205A C199A 1_555 1_555
C206A C205A 1_555 1_555
C207A C206A 1_555 1_555
H216A C207A 1_555 1_555
C208A C198A 1_555 1_555
H217A C208A 1_555 1_555
C209A H218A 1_555 1_555
C210A C209A 1_555 1_555
H219A C210A 1_555 1_555
C211A C210A 1_555 1_555
C212A C211A 1_555 1_555
C213A C212A 1_555 1_555
C214A C204A 1_555 1_555
C215A N13A 1_555 1_555
C216A C215A 1_555 1_555
H220A C216A 1_555 1_555
C217A C212A 1_555 1_555
C218A N13A 1_555 1_555
C219A C220 1_555 1_555
H221A C219A 1_555 1_555
C220A C219 1_555 1_555
H222A C220A 1_555 1_555
C221A C211A 1_555 1_555
C222A N14A 1_555 1_555
C223A C206A 1_555 1_555
C224A N14A 1_555 1_555
H223A C224A 1_555 1_555
C225A C224A 1_555 1_555
H224A C225A 1_555 1_555
H225A C225A 1_555 1_555
C226A C225A 1_555 1_555
H226A C226A 1_555 1_555
H227A C226A 1_555 1_555
C227A C226A 1_555 1_555
H228A C227A 1_555 1_555
H229A C227A 1_555 1_555
C228A C227A 1_555 1_555
H230A C228A 1_555 1_555
H231A C228A 1_555 1_555
C229A C228A 1_555 1_555
H232A C229A 1_555 1_555
H233A C229A 1_555 1_555
H234A C229A 1_555 1_555
C230A C224A 1_555 1_555
H235A C230A 1_555 1_555
H236A C230A 1_555 1_555
C231A C230A 1_555 1_555
H237A C231A 1_555 1_555
H238A C231A 1_555 1_555
C232A C231A 1_555 1_555
H239A C232A 1_555 1_555
H240A C232A 1_555 1_555
C233A C232A 1_555 1_555
H241A C233A 1_555 1_555
H242A C233A 1_555 1_555
C234A C233A 1_555 1_555
H243A C234A 1_555 1_555
H244A C234A 1_555 1_555
H245A C234A 1_555 1_555
C235A N15A 1_555 1_555
H246A C235A 1_555 1_555
C236A C235A 1_555 1_555
H247A C236A 1_555 1_555
H248A C236A 1_555 1_555
C237A C236A 1_555 1_555
H249A C237A 1_555 1_555
H250A C237A 1_555 1_555
C238A C237A 1_555 1_555
H251A C238A 1_555 1_555
H252A C238A 1_555 1_555
C239A C238A 1_555 1_555
H253A C239A 1_555 1_555
H254A C239A 1_555 1_555
C240A C239A 1_555 1_555
H255A C240A 1_555 1_555
H256A C240A 1_555 1_555
H257A C240A 1_555 1_555
C241A C235A 1_555 1_555
H258A C241A 1_555 1_555
H259A C241A 1_555 1_555
C242A C241A 1_555 1_555
H260A C242A 1_555 1_555
H261A C242A 1_555 1_555
C243A C242A 1_555 1_555
H262A C243A 1_555 1_555
H263A C243A 1_555 1_555
C244A C243A 1_555 1_555
H264A C244A 1_555 1_555
H265A C244A 1_555 1_555
C245A C244A 1_555 1_555
H266A C245A 1_555 1_555
H267A C245A 1_555 1_555
H268A C245A 1_555 1_555
N16A C252A 1_555 1_555
N17A C271A 1_555 1_555
N18A C246A 1_555 1_555
O21A C271A 1_555 1_555
O22A C272A 1_555 1_555
O23A C246A 1_555 1_555
O24A C250A 1_555 1_555
C246A C247A 1_555 1_555
C247A C248A 1_555 1_555
C248A C249A 1_555 1_555
C249A C250A 1_555 1_555
C250A N18A 1_555 1_555
C251A C247A 1_555 1_555
H269A C251A 1_555 1_555
C252A C251A 1_555 1_555
C253A C252A 1_555 1_555
C254A C248A 1_555 1_555
C255A C254A 1_555 1_555
C256A C255A 1_555 1_555
H270A C256A 1_555 1_555
C257A C249A 1_555 1_555
H271A C257A 1_555 1_555
C258A C255A 1_555 1_555
C259A C258A 1_555 1_555
C260A C253A 1_555 1_555
C261A N16A 1_555 1_555
C262A N16A 1_555 1_555
C263A C264 1_555 1_555
H272A C263A 1_555 1_555
C264A C263 1_555 1_555
H273A C264A 1_555 1_555
C265A C261A 1_555 1_555
H274A C265A 1_555 1_555
C266A C265A 1_555 1_555
C267A C259A 1_555 1_555
C268A C267A 1_555 1_555
C269A C268A 1_555 1_555
H275A C269A 1_555 1_555
C270A C258A 1_555 1_555
H276A C270A 1_555 1_555
C271A C266A 1_555 1_555
C272A N17A 1_555 1_555
C273A N17A 1_555 1_555
H277A C273A 1_555 1_555
C274A C273A 1_555 1_555
H278A C274A 1_555 1_555
H279A C274A 1_555 1_555
C275A C274A 1_555 1_555
H280A C275A 1_555 1_555
H281A C275A 1_555 1_555
C276A C275A 1_555 1_555
H282A C276A 1_555 1_555
H283A C276A 1_555 1_555
C277A C276A 1_555 1_555
H284A C277A 1_555 1_555
H285A C277A 1_555 1_555
C278A C277A 1_555 1_555
H286A C278A 1_555 1_555
H287A C278A 1_555 1_555
H288A C278A 1_555 1_555
C279A C273A 1_555 1_555
H289A C279A 1_555 1_555
H290A C279A 1_555 1_555
C280A C279A 1_555 1_555
H291A C280A 1_555 1_555
H292A C280A 1_555 1_555
C281A C280A 1_555 1_555
H293A C281A 1_555 1_555
H294A C281A 1_555 1_555
C282A C281A 1_555 1_555
H295A C282A 1_555 1_555
H296A C282A 1_555 1_555
C283A C282A 1_555 1_555
H297A C283A 1_555 1_555
H298A C283A 1_555 1_555
H299A C283A 1_555 1_555
C284A N18A 1_555 1_555
H300A C284A 1_555 1_555
C285A C284A 1_555 1_555
H301A C285A 1_555 1_555
H302A C285A 1_555 1_555
C286A C285A 1_555 1_555
H303A C286A 1_555 1_555
H304A C286A 1_555 1_555
C287A C286A 1_555 1_555
H305A C287A 1_555 1_555
H306A C287A 1_555 1_555
C288A C287A 1_555 1_555
H307A C288A 1_555 1_555
H308A C288A 1_555 1_555
C289A C288A 1_555 1_555
H309A C289A 1_555 1_555
H310A C289A 1_555 1_555
H311A C289A 1_555 1_555
C290A C284A 1_555 1_555
H312A C290A 1_555 1_555
H313A C290A 1_555 1_555
C291A C290A 1_555 1_555
H314A C291A 1_555 1_555
H315A C291A 1_555 1_555
C292A C291A 1_555 1_555
H316A C292A 1_555 1_555
H317A C292A 1_555 1_555
C293A C292A 1_555 1_555
H318A C293A 1_555 1_555
H319A C293A 1_555 1_555
C294A C293A 1_555 1_555
H320A C294A 1_555 1_555
H321A C294A 1_555 1_555
H322A C294A 1_555 1_555
C8 C16 1_555 1_555
C11 C14 1_555 1_555
C12 C16 1_555 1_555
C13 C15 1_555 1_555
C18 C19 1_555 1_555
C18 C24 1_555 1_555
C21 C22 1_555 1_555
C29 C30 1_555 1_555
C31 C49 1_555 1_555
C35 C43 1_555 1_555
C36 C37 1_555 1_555
C40 C41 1_555 1_555
C44 C45 1_555 1_555
C48 C49 1_555 1_555
C50 C54 1_555 1_555
C51 C52 1_555 1_555
C106 C107 1_555 1_555
C109 C110 1_555 1_555
C111 C112 1_555 1_555
C113 C114 1_555 1_555
C117 C118 1_555 1_555
C117 C122 1_555 1_555
C119 C120 1_555 1_555
C127 C128 1_555 1_555
C131 C132 1_555 1_555
C134 C142 1_555 1_555
C135 C136 1_555 1_555
C139 C140 1_555 1_555
C143 C148 1_555 1_555
C146 C152 1_555 1_555
C147 C148 1_555 1_555
C149 C150 1_555 1_555
C176 C196 1_555 1_555
C204 C205 1_555 1_555
C207 C208 1_555 1_555
C209 C223 1_555 1_555
C213 C214 1_555 1_555
C213 C223 1_555 1_555
C214 C215 1_555 1_555
C216 C217 1_555 1_555
C217 C222 1_555 1_555
C253 C254 1_555 1_555
C256 C257 1_555 1_555
C259 C260 1_555 1_555
C260 C261 1_555 1_555
C266 C267 1_555 1_555
C268 C272 1_555 1_555
C269 C270 1_555 1_555
C204A C205A 1_555 1_555
C207A C208A 1_555 1_555
C209A C223A 1_555 1_555
C213A C214A 1_555 1_555
C213A C223A 1_555 1_555
C214A C215A 1_555 1_555
C216A C217A 1_555 1_555
C217A C222A 1_555 1_555
C218A C219A 1_555 1_555
C218A C220A 1_555 1_555
C253A C254A 1_555 1_555
C256A C257A 1_555 1_555
C259A C260A 1_555 1_555
C260A C261A 1_555 1_555
C262A C263A 1_555 1_555
C262A C264A 1_555 1_555
C266A C267A 1_555 1_555
C268A C272A 1_555 1_555
C269A C270A 1_555 1_555

#END
