
#######################################################################
#
#                 Cambridge Crystallographic Data Centre
#                                CCDC 
#
#######################################################################
#
# If this CIF has been generated from an entry in the Cambridge 
# Structural Database, then it will include bibliographic, chemical, 
# crystal, experimental, refinement or atomic coordinate data resulting 
# from the CCDC's data processing and validation procedures.
#
#######################################################################

data_NEXMOV
_chemical_formula_moiety         'C24 H26 F1 N3 O6 S1'
_chemical_name_systematic        
't-butyl 3-ethenyl-4-fluoro-1-[(4-methylphenyl)sulfonyl]-3a-nitro-2,3,3a,8a-tetrahydropyrrolo[2,3-b]indole-8(1H)-carboxylate'
_symmetry_cell_setting           orthorhombic
_symmetry_space_group_name_H-M   'P 21 21 21'
_symmetry_Int_Tables_number      19
_space_group_name_Hall           'P 2ac 2ab'
loop_
_symmetry_equiv_pos_site_id
_symmetry_equiv_pos_as_xyz
1 x,y,z
2 1/2-x,-y,1/2+z
3 -x,1/2+y,1/2-z
4 1/2+x,1/2-y,-z
_cell_length_a                   10.9539(2)
_cell_length_b                   13.1861(3)
_cell_length_c                   16.7999(4)
_cell_angle_alpha                90
_cell_angle_beta                 90
_cell_angle_gamma                90
_cell_volume                     2426.56
_exptl_crystal_colour            colorless
_exptl_crystal_description       prismatic
_cell_formula_units_Z            4
loop_
_atom_site_label
_atom_site_type_symbol
_atom_site_fract_x
_atom_site_fract_y
_atom_site_fract_z
S1 S 0.74222(5) 0.37746(5) 0.87768(3)
F1 F 0.27023(11) 0.51787(10) 0.68955(7)
N1 N 0.63414(15) 0.33810(13) 0.69947(9)
N2 N 0.60474(16) 0.38071(14) 0.84102(10)
N3 N 0.35080(17) 0.27526(14) 0.73227(11)
O1 O 0.70879(19) 0.17695(14) 0.69518(10)
O2 O 0.74946(15) 0.28961(11) 0.59690(8)
O3 O 0.3871(2) 0.18952(14) 0.73263(16)
O4 O 0.25005(16) 0.29972(13) 0.71105(11)
O5 O 0.73650(16) 0.44020(15) 0.94711(9)
O6 O 0.77675(17) 0.27342(14) 0.88437(11)
C1 C 0.57422(18) 0.41778(15) 0.65793(12)
C2 C 0.6167(2) 0.47843(16) 0.59682(12)
H1 H 0.6962 0.4696 0.5753
C3 C 0.5386(2) 0.55277(17) 0.56818(13)
H2 H 0.5657 0.5950 0.5259
C4 C 0.4223(2) 0.56786(17) 0.59890(13)
H3 H 0.3707 0.6195 0.5782
C5 C 0.38349(19) 0.50631(16) 0.65993(12)
C6 C 0.45785(18) 0.43129(15) 0.69014(12)
C7 C 0.43728(18) 0.35931(15) 0.75814(12)
C8 C 0.56684(18) 0.31768(16) 0.77358(11)
H4 H 0.5661 0.2439 0.7873
C9 C 0.39484(19) 0.40997(16) 0.83586(12)
H5 H 0.3315 0.4627 0.8246
C10 C 0.5146(2) 0.45954(17) 0.86181(12)
H6 H 0.5299 0.5232 0.8322
H7 H 0.5149 0.4739 0.9196
C11 C 0.3483(2) 0.33440(19) 0.89608(12)
H8 H 0.4061 0.2920 0.9220
C12 C 0.2330(3) 0.3239(3) 0.91475(15)
H9 H 0.1731 0.3653 0.8899
H10 H 0.2091 0.2749 0.9532
C13 C 0.6994(2) 0.25889(17) 0.66511(13)
C14 C 0.8166(2) 0.21666(19) 0.54560(13)
C15 C 0.9227(3) 0.1688(2) 0.58977(16)
H11 H 0.9745 0.2221 0.6123
H12 H 0.9708 0.1274 0.5528
H13 H 0.8914 0.1258 0.6328
C16 C 0.8624(3) 0.2851(2) 0.47994(15)
H14 H 0.7927 0.3135 0.4509
H15 H 0.9135 0.2459 0.4433
H16 H 0.9106 0.3403 0.5031
C17 C 0.7275(3) 0.1386(2) 0.51422(17)
H17 H 0.6976 0.0969 0.5584
H18 H 0.7686 0.0952 0.4752
H19 H 0.6585 0.1731 0.4888
C18 C 0.83844(19) 0.43449(17) 0.80712(14)
C19 C 0.8249(2) 0.53745(18) 0.79213(15)
H20 H 0.7731 0.5776 0.8248
C20 C 0.8869(2) 0.58088(18) 0.72964(15)
H21 H 0.8768 0.6512 0.7194
C21 C 0.96388(19) 0.52435(19) 0.68113(15)
C22 C 0.9814(2) 0.42290(19) 0.70017(17)
H22 H 1.0378 0.3840 0.6700
C23 C 0.9185(2) 0.37703(19) 0.76206(16)
H23 H 0.9303 0.3071 0.7734
C24 C 1.0224(2) 0.5717(2) 0.60910(17)
H24 H 1.0767 0.5223 0.5837
H25 H 1.0698 0.6312 0.6254
H26 H 0.9589 0.5924 0.5714
loop_
_geom_bond_atom_site_label_1
_geom_bond_atom_site_label_2
_geom_bond_site_symmetry_1
_geom_bond_site_symmetry_2
S1 N2 1_555 1_555
F1 C5 1_555 1_555
N1 C1 1_555 1_555
N2 C8 1_555 1_555
N3 O3 1_555 1_555
O1 C13 1_555 1_555
O2 C13 1_555 1_555
O4 N3 1_555 1_555
O5 S1 1_555 1_555
O6 S1 1_555 1_555
C1 C2 1_555 1_555
C2 H1 1_555 1_555
C3 C2 1_555 1_555
H2 C3 1_555 1_555
C4 C3 1_555 1_555
H3 C4 1_555 1_555
C5 C4 1_555 1_555
C6 C1 1_555 1_555
C7 N3 1_555 1_555
C8 N1 1_555 1_555
H4 C8 1_555 1_555
C9 C7 1_555 1_555
H5 C9 1_555 1_555
C10 N2 1_555 1_555
H6 C10 1_555 1_555
H7 C10 1_555 1_555
C11 C9 1_555 1_555
H8 C11 1_555 1_555
C12 C11 1_555 1_555
H9 C12 1_555 1_555
H10 C12 1_555 1_555
C13 N1 1_555 1_555
C14 O2 1_555 1_555
C15 C14 1_555 1_555
H11 C15 1_555 1_555
H12 C15 1_555 1_555
H13 C15 1_555 1_555
C16 C14 1_555 1_555
H14 C16 1_555 1_555
H15 C16 1_555 1_555
H16 C16 1_555 1_555
C17 C14 1_555 1_555
H17 C17 1_555 1_555
H18 C17 1_555 1_555
H19 C17 1_555 1_555
C18 S1 1_555 1_555
C19 C18 1_555 1_555
H20 C19 1_555 1_555
C20 C19 1_555 1_555
H21 C20 1_555 1_555
C21 C20 1_555 1_555
C22 C21 1_555 1_555
H22 C22 1_555 1_555
C23 C18 1_555 1_555
H23 C23 1_555 1_555
C24 C21 1_555 1_555
H24 C24 1_555 1_555
H25 C24 1_555 1_555
H26 C24 1_555 1_555
C5 C6 1_555 1_555
C6 C7 1_555 1_555
C7 C8 1_555 1_555
C9 C10 1_555 1_555
C22 C23 1_555 1_555

#END
