
#######################################################################
#
#                 Cambridge Crystallographic Data Centre
#                                CCDC 
#
#######################################################################
#
# If this CIF has been generated from an entry in the Cambridge 
# Structural Database, then it will include bibliographic, chemical, 
# crystal, experimental, refinement or atomic coordinate data resulting 
# from the CCDC's data processing and validation procedures.
#
#######################################################################

data_NEXQEP
_chemical_name_common            
't-butyl N-benzyl-4,5-dihydroxy-N-(9-phenyl-9H-fluoren-9-yl)isoleucinate'
_chemical_formula_moiety         'C36 H39 N1 O4'
_chemical_name_systematic        
't-butyl (2S,3R,4R)-2-(benzyl(9-phenyl-9H-fluoren-9-yl)amino)-4,5-dihydroxy-3-methylpentanoate'
_symmetry_cell_setting           monoclinic
_symmetry_space_group_name_H-M   'P 21/c'
_symmetry_Int_Tables_number      14
_space_group_name_Hall           '-P 2ybc'
loop_
_symmetry_equiv_pos_site_id
_symmetry_equiv_pos_as_xyz
1 x,y,z
2 -x,1/2+y,1/2-z
3 -x,-y,-z
4 x,1/2-y,1/2+z
_cell_length_a                   17.1970(4)
_cell_length_b                   11.4578(2)
_cell_length_c                   16.5081(3)
_cell_angle_alpha                90
_cell_angle_beta                 113.081(1)
_cell_angle_gamma                90
_cell_volume                     2992.37
_exptl_crystal_colour            silver
_exptl_crystal_description       block
_cell_formula_units_Z            4
_exptl_crystal_recrystallization_method dichloromethane/hexane
loop_
_atom_site_label
_atom_site_type_symbol
_atom_site_fract_x
_atom_site_fract_y
_atom_site_fract_z
O1 O 0.23341(8) 0.41230(10) 0.35576(8)
O2 O 0.28847(9) 0.44053(11) 0.25373(9)
O3 O 0.42678(8) 0.05600(10) 0.37055(8)
H1 H 0.3813 0.0686 0.3298
O4 O 0.58089(9) 0.18353(16) 0.40429(11)
H2 H 0.5559 0.1470 0.3587
N1 N 0.28267(8) 0.16742(11) 0.26229(8)
C1 C 0.31258(10) 0.25766(13) 0.33376(10)
H3 H 0.2933 0.2315 0.3793
C2 C 0.27598(11) 0.38006(15) 0.30706(12)
C3 C 0.20035(14) 0.53204(18) 0.35384(17)
C4 C 0.27345(17) 0.6151(2) 0.3952(2)
H4 H 0.3042 0.6221 0.3579
H5 H 0.3103 0.5856 0.4517
H6 H 0.2523 0.6903 0.4024
C5 C 0.14429(18) 0.5668(2) 0.2608(2)
H7 H 0.0986 0.5122 0.2373
H8 H 0.1768 0.5668 0.2249
H9 H 0.1220 0.6435 0.2610
C6 C 0.14905(18) 0.5199(2) 0.4092(2)
H10 H 0.1027 0.4677 0.3808
H11 H 0.1276 0.5950 0.4161
H12 H 0.1841 0.4894 0.4660
C7 C 0.41023(10) 0.26775(14) 0.37946(11)
H13 H 0.4328 0.2843 0.3346
C8 C 0.45045(11) 0.15520(15) 0.42739(12)
H14 H 0.4311 0.1426 0.4752
C9 C 0.54631(12) 0.1558(2) 0.46656(14)
H15 H 0.5661 0.2122 0.5141
H16 H 0.5665 0.0795 0.4913
C10 C 0.43414(13) 0.36804(18) 0.44590(13)
H17 H 0.4946 0.3745 0.4734
H18 H 0.4120 0.3530 0.4900
H19 H 0.4109 0.4397 0.4161
C11 C 0.19801(10) 0.11463(14) 0.25028(10)
C12 C 0.12324(10) 0.19938(14) 0.21479(11)
C13 C 0.08997(11) 0.25737(16) 0.13508(12)
H20 H 0.1150 0.2499 0.0946
C14 C 0.01868(12) 0.32696(17) 0.11590(14)
H21 H -0.0037 0.3661 0.0623
C15 C -0.01913(12) 0.33877(17) 0.17501(15)
H22 H -0.0668 0.3855 0.1612
C16 C 0.01358(12) 0.28131(16) 0.25488(14)
H23 H -0.0117 0.2894 0.2951
C17 C 0.08481(11) 0.21121(15) 0.27458(11)
C18 C 0.12962(11) 0.13817(15) 0.35190(11)
C19 C 0.11565(13) 0.12077(17) 0.42843(12)
H24 H 0.0716 0.1589 0.4367
C20 C 0.16809(14) 0.04626(18) 0.49198(13)
H25 H 0.1596 0.0347 0.5437
C21 C 0.23327(13) -0.01147(17) 0.47951(12)
H26 H 0.2681 -0.0615 0.5229
C22 C 0.24721(11) 0.00457(15) 0.40290(12)
H27 H 0.2905 -0.0353 0.3943
C23 C 0.19558(10) 0.08093(14) 0.33952(10)
C24 C 0.18242(11) 0.00307(14) 0.19389(11)
C25 C 0.10257(12) -0.02499(16) 0.13235(11)
H28 H 0.0577 0.0257 0.1236
C26 C 0.08854(14) -0.12681(18) 0.08397(12)
H29 H 0.0345 -0.1440 0.0433
C27 C 0.15356(15) -0.20271(18) 0.09529(13)
H30 H 0.1439 -0.2705 0.0618
C28 C 0.23313(15) -0.17791(16) 0.15654(14)
H31 H 0.2775 -0.2291 0.1647
C29 C 0.24711(12) -0.07672(16) 0.20607(12)
H32 H 0.3008 -0.0617 0.2484
C30 C 0.28554(10) 0.20134(15) 0.17587(11)
H33 H 0.2613 0.2786 0.1602
H34 H 0.2505 0.1476 0.1310
C31 C 0.37295(11) 0.20190(16) 0.17519(11)
C32 C 0.41792(13) 0.09968(18) 0.18201(12)
H35 H 0.3930 0.0283 0.1842
C33 C 0.50038(16) 0.1028(2) 0.18565(14)
H36 H 0.5305 0.0338 0.1912
C34 C 0.53680(15) 0.2072(3) 0.18111(14)
H37 H 0.5922 0.2094 0.1851
C35 C 0.49219(15) 0.3079(2) 0.17081(13)
H38 H 0.5166 0.3786 0.1659
C36 C 0.41052(12) 0.30579(17) 0.16755(12)
H39 H 0.3805 0.3752 0.1601
loop_
_geom_bond_atom_site_label_1
_geom_bond_atom_site_label_2
_geom_bond_site_symmetry_1
_geom_bond_site_symmetry_2
O1 C2 1_555 1_555
O2 C2 1_555 1_555
O3 H1 1_555 1_555
O4 H2 1_555 1_555
N1 C1 1_555 1_555
C1 H3 1_555 1_555
C2 C1 1_555 1_555
C3 O1 1_555 1_555
C4 C3 1_555 1_555
H4 C4 1_555 1_555
H5 C4 1_555 1_555
H6 C4 1_555 1_555
C5 C3 1_555 1_555
H7 C5 1_555 1_555
H8 C5 1_555 1_555
H9 C5 1_555 1_555
C6 C3 1_555 1_555
H10 C6 1_555 1_555
H11 C6 1_555 1_555
H12 C6 1_555 1_555
C7 C1 1_555 1_555
H13 C7 1_555 1_555
C8 O3 1_555 1_555
H14 C8 1_555 1_555
C9 O4 1_555 1_555
H15 C9 1_555 1_555
H16 C9 1_555 1_555
C10 C7 1_555 1_555
H17 C10 1_555 1_555
H18 C10 1_555 1_555
H19 C10 1_555 1_555
C11 N1 1_555 1_555
C12 C11 1_555 1_555
C13 C12 1_555 1_555
H20 C13 1_555 1_555
C14 C13 1_555 1_555
H21 C14 1_555 1_555
C15 C14 1_555 1_555
H22 C15 1_555 1_555
C16 C15 1_555 1_555
H23 C16 1_555 1_555
C17 C12 1_555 1_555
C18 C17 1_555 1_555
C19 C18 1_555 1_555
H24 C19 1_555 1_555
C20 C19 1_555 1_555
H25 C20 1_555 1_555
C21 C20 1_555 1_555
H26 C21 1_555 1_555
C22 C21 1_555 1_555
H27 C22 1_555 1_555
C23 C11 1_555 1_555
C24 C11 1_555 1_555
C25 C24 1_555 1_555
H28 C25 1_555 1_555
C26 C25 1_555 1_555
H29 C26 1_555 1_555
C27 C26 1_555 1_555
H30 C27 1_555 1_555
C28 C27 1_555 1_555
H31 C28 1_555 1_555
C29 C24 1_555 1_555
H32 C29 1_555 1_555
C30 N1 1_555 1_555
H33 C30 1_555 1_555
H34 C30 1_555 1_555
C31 C30 1_555 1_555
C32 C31 1_555 1_555
H35 C32 1_555 1_555
C33 C32 1_555 1_555
H36 C33 1_555 1_555
C34 C33 1_555 1_555
H37 C34 1_555 1_555
C35 C34 1_555 1_555
H38 C35 1_555 1_555
C36 C31 1_555 1_555
H39 C36 1_555 1_555
C7 C8 1_555 1_555
C8 C9 1_555 1_555
C16 C17 1_555 1_555
C18 C23 1_555 1_555
C22 C23 1_555 1_555
C28 C29 1_555 1_555
C35 C36 1_555 1_555

#END
