
#######################################################################
#
#                 Cambridge Crystallographic Data Centre
#                                CCDC 
#
#######################################################################
#
# If this CIF has been generated from an entry in the Cambridge 
# Structural Database, then it will include bibliographic, chemical, 
# crystal, experimental, refinement or atomic coordinate data resulting 
# from the CCDC's data processing and validation procedures.
#
#######################################################################

data_NEXVIY
_chemical_formula_moiety         'C20 H27 N1 O1 Se1'
_chemical_name_systematic        
5-benzylidene-3-butyl-4-cyclohexyl-1,3-selenazolidin-2-one
_symmetry_cell_setting           monoclinic
_symmetry_space_group_name_H-M   'P 21/n'
_symmetry_Int_Tables_number      14
_space_group_name_Hall           '-P 2yn'
loop_
_symmetry_equiv_pos_site_id
_symmetry_equiv_pos_as_xyz
1 x,y,z
2 1/2-x,1/2+y,1/2-z
3 -x,-y,-z
4 1/2+x,1/2-y,1/2+z
_cell_length_a                   11.6481(3)
_cell_length_b                   9.3616(3)
_cell_length_c                   16.6420(4)
_cell_angle_alpha                90
_cell_angle_beta                 93.0179(10)
_cell_angle_gamma                90
_cell_volume                     1812.21
_exptl_crystal_colour            colorless
_exptl_crystal_description       prism
_cell_formula_units_Z            4
loop_
_atom_site_label
_atom_site_type_symbol
_atom_site_fract_x
_atom_site_fract_y
_atom_site_fract_z
C1 C 0.44306(13) 0.60537(16) 0.16018(9)
C2 C 0.36924(12) 0.37881(15) 0.20506(9)
H1 H 0.2929 0.3326 0.1928
C3 C 0.36191(12) 0.46156(15) 0.28260(9)
C4 C 0.29728(12) 0.42113(16) 0.34221(9)
H2 H 0.2561 0.3343 0.3339
C5 C 0.28145(13) 0.49353(16) 0.41906(9)
C6 C 0.17584(13) 0.47891(17) 0.45459(9)
H3 H 0.1173 0.4213 0.4292
C7 C 0.15559(14) 0.54725(19) 0.52617(10)
H4 H 0.0828 0.5380 0.5489
C8 C 0.24042(15) 0.62890(18) 0.56487(10)
H5 H 0.2260 0.6766 0.6137
C9 C 0.34628(15) 0.64056(18) 0.53188(10)
H6 H 0.4057 0.6941 0.5591
C10 C 0.36676(14) 0.57468(18) 0.45913(9)
H7 H 0.4395 0.5851 0.4366
C11 C 0.37755(14) 0.43292(17) 0.05681(9)
H8 H 0.3398 0.3381 0.0553
H9 H 0.4554 0.4211 0.0365
C12 C 0.30908(14) 0.53362(19) 0.00112(10)
H10 H 0.3487 0.6272 0.0009
H11 H 0.3079 0.4949 -0.0543
C13 C 0.18716(16) 0.5564(2) 0.02415(12)
H12 H 0.1877 0.5943 0.0797
H13 H 0.1465 0.4635 0.0234
C14 C 0.12233(18) 0.6597(2) -0.03249(13)
H14 H 0.1582 0.7543 -0.0282
H15 H 0.0421 0.6663 -0.0178
H16 H 0.1250 0.6251 -0.0879
C15 C 0.46200(12) 0.26073(15) 0.20644(9)
H17 H 0.4584 0.2166 0.1516
C16 C 0.58496(13) 0.31542(16) 0.22186(9)
H18 H 0.6012 0.3900 0.1818
H19 H 0.5930 0.3590 0.2761
C17 C 0.67159(15) 0.19377(18) 0.21612(11)
H20 H 0.6694 0.1573 0.1602
H21 H 0.7500 0.2305 0.2295
C18 C 0.64547(16) 0.07206(18) 0.27324(11)
H22 H 0.6991 -0.0080 0.2649
H23 H 0.6579 0.1053 0.3295
C19 C 0.52264(16) 0.01958(17) 0.25982(11)
H24 H 0.5129 -0.0248 0.2059
H25 H 0.5070 -0.0542 0.3004
C20 C 0.43733(13) 0.14064(16) 0.26597(10)
H26 H 0.4418 0.1791 0.3215
H27 H 0.3585 0.1039 0.2545
N1 N 0.38866(11) 0.48229(13) 0.14089(7)
O1 O 0.48432(10) 0.69044(12) 0.11493(7)
Se1 Se 0.44517(2) 0.63530(2) 0.27647(2)
loop_
_geom_bond_atom_site_label_1
_geom_bond_atom_site_label_2
_geom_bond_site_symmetry_1
_geom_bond_site_symmetry_2
C1 N1 1_555 1_555
C2 H1 1_555 1_555
C3 C2 1_555 1_555
C4 C3 1_555 1_555
H2 C4 1_555 1_555
C5 C4 1_555 1_555
C6 C5 1_555 1_555
H3 C6 1_555 1_555
C7 C6 1_555 1_555
H4 C7 1_555 1_555
C8 C7 1_555 1_555
H5 C8 1_555 1_555
C9 C8 1_555 1_555
H6 C9 1_555 1_555
C10 C5 1_555 1_555
H7 C10 1_555 1_555
C11 H8 1_555 1_555
H9 C11 1_555 1_555
C12 C11 1_555 1_555
H10 C12 1_555 1_555
H11 C12 1_555 1_555
C13 C12 1_555 1_555
H12 C13 1_555 1_555
H13 C13 1_555 1_555
C14 C13 1_555 1_555
H14 C14 1_555 1_555
H15 C14 1_555 1_555
H16 C14 1_555 1_555
C15 C2 1_555 1_555
H17 C15 1_555 1_555
C16 C15 1_555 1_555
H18 C16 1_555 1_555
H19 C16 1_555 1_555
C17 C16 1_555 1_555
H20 C17 1_555 1_555
H21 C17 1_555 1_555
C18 C17 1_555 1_555
H22 C18 1_555 1_555
H23 C18 1_555 1_555
C19 C18 1_555 1_555
H24 C19 1_555 1_555
H25 C19 1_555 1_555
C20 C15 1_555 1_555
H26 C20 1_555 1_555
H27 C20 1_555 1_555
N1 C2 1_555 1_555
O1 C1 1_555 1_555
Se1 C1 1_555 1_555
C3 Se1 1_555 1_555
C9 C10 1_555 1_555
C11 N1 1_555 1_555
C19 C20 1_555 1_555

#END
