
#######################################################################
#
#                 Cambridge Crystallographic Data Centre
#                                CCDC 
#
#######################################################################
#
# If this CIF has been generated from an entry in the Cambridge 
# Structural Database, then it will include bibliographic, chemical, 
# crystal, experimental, refinement or atomic coordinate data resulting 
# from the CCDC's data processing and validation procedures.
#
#######################################################################

data_NEYCAW01
_chemical_formula_moiety         'C18 H15 N5'
_chemical_name_systematic        
rac-cis-(4R,5S)-2,4,5-tris(2-Pyridyl)-4,5-dihydro-1H-imidazole
_symmetry_cell_setting           monoclinic
_symmetry_space_group_name_H-M   'P 21/c'
_symmetry_Int_Tables_number      14
_space_group_name_Hall           '-P 2ybc'
loop_
_symmetry_equiv_pos_site_id
_symmetry_equiv_pos_as_xyz
1 x,y,z
2 -x,1/2+y,1/2-z
3 -x,-y,-z
4 x,1/2-y,1/2+z
_cell_length_a                   8.9544(3)
_cell_length_b                   15.1425(5)
_cell_length_c                   11.4455(3)
_cell_angle_alpha                90
_cell_angle_beta                 101.594(2)
_cell_angle_gamma                90
_cell_volume                     1520.25
_exptl_crystal_colour            'pale yellow'
_exptl_crystal_description       plate
_chemical_melting_point          '418 K'
_cell_formula_units_Z            4
_exptl_crystal_recrystallization_method ethanol
loop_
_atom_site_label
_atom_site_type_symbol
_atom_site_fract_x
_atom_site_fract_y
_atom_site_fract_z
N1 N 0.26171(15) 0.22716(9) 0.94460(12)
H1 H 0.298(2) 0.2511(13) 0.8838(17)
C1 C 0.18348(16) 0.14891(10) 0.93312(14)
N2 N 0.18409(14) 0.10440(9) 1.02902(11)
C2 C 0.27755(17) 0.15504(10) 1.12677(14)
H2 H 0.2090(17) 0.1830(10) 1.1731(13)
C3 C 0.35543(17) 0.23066(11) 1.06438(14)
H3 H 0.3437(18) 0.2855(12) 1.1049(15)
N3 N 0.12530(14) 0.16418(9) 0.72056(12)
C4 C 0.09610(16) 0.12027(10) 0.81526(14)
C5 C -0.00946(18) 0.05181(12) 0.80610(15)
H4 H -0.025(2) 0.0197(12) 0.8771(17)
C6 C -0.0888(2) 0.02873(12) 0.69366(16)
H5 H -0.167(2) -0.0195(13) 0.6845(16)
C7 C -0.06048(19) 0.07361(12) 0.59526(16)
H6 H -0.116(2) 0.0607(13) 0.5128(18)
C8 C 0.04763(18) 0.14011(11) 0.61293(15)
H7 H 0.072(2) 0.1741(12) 0.5422(16)
N4 N 0.42925(15) 0.12694(9) 1.32223(12)
C9 C 0.38890(16) 0.09804(10) 1.20940(13)
C10 C 0.44976(18) 0.02254(11) 1.16880(15)
H8 H 0.415(2) 0.0061(13) 1.0879(17)
C11 C 0.55571(19) -0.02638(12) 1.24734(16)
H9 H 0.599(2) -0.0796(13) 1.2209(16)
C12 C 0.59928(19) 0.00328(12) 1.36315(16)
H10 H 0.674(2) -0.0292(13) 1.4210(17)
C13 C 0.53453(19) 0.07980(12) 1.39645(15)
H11 H 0.566(2) 0.1030(12) 1.4798(17)
N5 N 0.56654(15) 0.17544(9) 0.97846(13)
C14 C 0.52414(17) 0.21627(10) 1.07014(14)
C15 C 0.62700(19) 0.24155(12) 1.17285(15)
H12 H 0.588(2) 0.2737(12) 1.2372(16)
C16 C 0.7793(2) 0.22065(13) 1.18287(18)
H13 H 0.854(2) 0.2361(14) 1.2556(19)
C17 C 0.8243(2) 0.17750(13) 1.08943(18)
H14 H 0.929(2) 0.1613(14) 1.0927(18)
C18 C 0.71584(19) 0.15768(12) 0.99005(17)
H15 H 0.744(2) 0.1283(13) 0.9209(17)
loop_
_geom_bond_atom_site_label_1
_geom_bond_atom_site_label_2
_geom_bond_site_symmetry_1
_geom_bond_site_symmetry_2
N1 H1 1_555 1_555
C1 N1 1_555 1_555
N2 C1 1_555 1_555
C2 N2 1_555 1_555
H2 C2 1_555 1_555
C3 N1 1_555 1_555
H3 C3 1_555 1_555
N3 C4 1_555 1_555
C4 C1 1_555 1_555
C5 C4 1_555 1_555
H4 C5 1_555 1_555
C6 C5 1_555 1_555
H5 C6 1_555 1_555
C7 C6 1_555 1_555
H6 C7 1_555 1_555
C8 N3 1_555 1_555
H7 C8 1_555 1_555
N4 C9 1_555 1_555
C9 C2 1_555 1_555
C10 C9 1_555 1_555
H8 C10 1_555 1_555
C11 C10 1_555 1_555
H9 C11 1_555 1_555
C12 C11 1_555 1_555
H10 C12 1_555 1_555
C13 N4 1_555 1_555
H11 C13 1_555 1_555
N5 C14 1_555 1_555
C14 C3 1_555 1_555
C15 C14 1_555 1_555
H12 C15 1_555 1_555
C16 C15 1_555 1_555
H13 C16 1_555 1_555
C17 C16 1_555 1_555
H14 C17 1_555 1_555
C18 N5 1_555 1_555
H15 C18 1_555 1_555
C2 C3 1_555 1_555
C7 C8 1_555 1_555
C12 C13 1_555 1_555
C17 C18 1_555 1_555

#END
