
#######################################################################
#
#                 Cambridge Crystallographic Data Centre
#                                CCDC 
#
#######################################################################
#
# If this CIF has been generated from an entry in the Cambridge 
# Structural Database, then it will include bibliographic, chemical, 
# crystal, experimental, refinement or atomic coordinate data resulting 
# from the CCDC's data processing and validation procedures.
#
#######################################################################

data_NEYDAY
_chemical_formula_moiety         'C35 H32 N2 O7 S1'
_chemical_name_systematic        
'Methyl 2-((4-benzyl-5-oxo-2-phenyl-4,5-dihydro-1,3-oxazol-4-yl)methyl)-3-(4-methoxyphenyl)-3-(((4-methylphenyl)sulfonyl)amino)acrylate'
_symmetry_cell_setting           monoclinic
_symmetry_space_group_name_H-M   'P 21/c'
_symmetry_Int_Tables_number      14
_space_group_name_Hall           '-P 2ybc'
loop_
_symmetry_equiv_pos_site_id
_symmetry_equiv_pos_as_xyz
1 x,y,z
2 -x,1/2+y,1/2-z
3 -x,-y,-z
4 x,1/2-y,1/2+z
_cell_length_a                   16.382(5)
_cell_length_b                   15.394(5)
_cell_length_c                   13.096(4)
_cell_angle_alpha                90
_cell_angle_beta                 106.878(3)
_cell_angle_gamma                90
_cell_volume                     3160.35
_exptl_crystal_colour            colorless
_exptl_crystal_description       block
_cell_formula_units_Z            4
loop_
_atom_site_label
_atom_site_type_symbol
_atom_site_fract_x
_atom_site_fract_y
_atom_site_fract_z
C1 C 0.3155(2) 0.5531(3) 1.1356(3)
H1 H 0.3046 0.6038 1.0954
C2 C 0.2869(3) 0.5451(3) 1.2235(4)
H2 H 0.2572 0.5907 1.2427
C3 C 0.3015(3) 0.4704(4) 1.2838(4)
H3 H 0.2811 0.4649 1.3427
C4 C 0.3465(3) 0.4048(3) 1.2557(4)
H4 H 0.3574 0.3541 1.2961
C5 C 0.3760(3) 0.4131(3) 1.1676(3)
H5 H 0.4069 0.3681 1.1495
C6 C 0.3602(2) 0.4867(3) 1.1065(3)
C7 C 0.3928(2) 0.4953(3) 1.0105(3)
H6 H 0.4417 0.4572 1.0204
H7 H 0.4126 0.5544 1.0078
C8 C 0.3280(2) 0.4739(2) 0.9017(3)
C9 C 0.2933(2) 0.3837(3) 0.9099(3)
C10 C 0.1916(2) 0.4826(3) 0.8853(3)
C11 C 0.1039(2) 0.5100(3) 0.8772(3)
C12 C 0.0911(2) 0.5917(3) 0.9116(3)
H8 H 0.1370 0.6297 0.9349
C13 C 0.0110(3) 0.6176(3) 0.9118(3)
H9 H 0.0025 0.6725 0.9365
C14 C -0.0567(3) 0.5612(4) 0.8752(4)
H10 H -0.1110 0.5783 0.8758
C15 C -0.0451(3) 0.4810(4) 0.8380(4)
H11 H -0.0914 0.4443 0.8109
C16 C 0.0360(3) 0.4545(3) 0.8409(3)
H12 H 0.0446 0.3989 0.8181
C17 C 0.3729(2) 0.4821(2) 0.8134(3)
H13 H 0.4151 0.5280 0.8340
H14 H 0.4034 0.4284 0.8118
C18 C 0.3178(2) 0.5009(2) 0.7009(3)
C19 C 0.2666(3) 0.4292(3) 0.6409(4)
C20 C 0.2206(3) 0.2841(3) 0.6528(4)
H15 H 0.1620 0.2987 0.6190
H16 H 0.2236 0.2403 0.7059
H17 H 0.2460 0.2625 0.6003
C21 C 0.3215(2) 0.5782(3) 0.6533(3)
C22 C 0.3737(2) 0.6538(2) 0.7046(3)
C23 C 0.4326(2) 0.6882(3) 0.6585(3)
H18 H 0.4380 0.6642 0.5956
C24 C 0.4832(2) 0.7572(3) 0.7040(3)
H19 H 0.5227 0.7792 0.6722
C25 C 0.4755(2) 0.7938(2) 0.7961(3)
C26 C 0.4173(2) 0.7612(3) 0.8434(3)
H20 H 0.4118 0.7860 0.9058
C27 C 0.3667(2) 0.6909(2) 0.7976(3)
H21 H 0.3276 0.6686 0.8299
C28 C 0.5251(3) 0.9017(3) 0.9296(4)
H22 H 0.4674 0.9191 0.9222
H23 H 0.5616 0.9518 0.9438
H24 H 0.5434 0.8613 0.9876
C29 C 0.1350(2) 0.6726(3) 0.5395(3)
C30 C 0.0636(3) 0.6237(3) 0.4925(3)
H25 H 0.0625 0.5874 0.4354
C31 C -0.0062(3) 0.6288(3) 0.5307(4)
H26 H -0.0543 0.5957 0.4987
C32 C -0.0064(3) 0.6820(3) 0.6153(3)
C33 C 0.0677(3) 0.7276(3) 0.6641(3)
H27 H 0.0700 0.7617 0.7235
C34 C 0.1380(3) 0.7235(3) 0.6265(3)
H28 H 0.1869 0.7550 0.6598
C35 C -0.0856(3) 0.6931(3) 0.6503(4)
H29 H -0.1252 0.7299 0.6006
H30 H -0.0707 0.7190 0.7200
H31 H -0.1113 0.6374 0.6527
N1 N 0.25388(17) 0.53016(19) 0.8834(2)
N2 N 0.28138(18) 0.58779(19) 0.5428(2)
H32 H 0.2890 0.5470 0.5017
O1 O 0.32733(18) 0.31470(19) 0.9270(2)
O2 O 0.20753(15) 0.39338(17) 0.8998(2)
O3 O 0.22853(19) 0.42808(18) 0.5463(2)
O4 O 0.26624(17) 0.36102(19) 0.7031(2)
O5 O 0.52940(17) 0.86196(19) 0.8347(2)
O6 O 0.26831(16) 0.74881(17) 0.5140(2)
O7 O 0.18960(16) 0.64470(19) 0.37629(19)
S1 S 0.22134(7) 0.67027(7) 0.48592(8)
loop_
_geom_bond_atom_site_label_1
_geom_bond_atom_site_label_2
_geom_bond_site_symmetry_1
_geom_bond_site_symmetry_2
C1 H1 1_555 1_555
C2 C1 1_555 1_555
H2 C2 1_555 1_555
C3 C2 1_555 1_555
H3 C3 1_555 1_555
C4 C3 1_555 1_555
H4 C4 1_555 1_555
C5 C4 1_555 1_555
H5 C5 1_555 1_555
C6 C1 1_555 1_555
C7 C6 1_555 1_555
H6 C7 1_555 1_555
H7 C7 1_555 1_555
C8 C7 1_555 1_555
C9 C8 1_555 1_555
C10 C11 1_555 1_555
C11 C12 1_555 1_555
C12 H8 1_555 1_555
C13 C12 1_555 1_555
H9 C13 1_555 1_555
C14 C13 1_555 1_555
H10 C14 1_555 1_555
C15 C14 1_555 1_555
H11 C15 1_555 1_555
C16 C11 1_555 1_555
H12 C16 1_555 1_555
C17 C8 1_555 1_555
H13 C17 1_555 1_555
H14 C17 1_555 1_555
C18 C17 1_555 1_555
C19 C18 1_555 1_555
C20 H15 1_555 1_555
H16 C20 1_555 1_555
H17 C20 1_555 1_555
C21 C18 1_555 1_555
C22 C21 1_555 1_555
C23 C22 1_555 1_555
H18 C23 1_555 1_555
C24 C23 1_555 1_555
H19 C24 1_555 1_555
C25 C24 1_555 1_555
C26 C25 1_555 1_555
H20 C26 1_555 1_555
C27 C22 1_555 1_555
H21 C27 1_555 1_555
C28 H22 1_555 1_555
H23 C28 1_555 1_555
H24 C28 1_555 1_555
C29 C30 1_555 1_555
C30 H25 1_555 1_555
C31 C30 1_555 1_555
H26 C31 1_555 1_555
C32 C31 1_555 1_555
C33 C32 1_555 1_555
H27 C33 1_555 1_555
C34 C29 1_555 1_555
H28 C34 1_555 1_555
C35 C32 1_555 1_555
H29 C35 1_555 1_555
H30 C35 1_555 1_555
H31 C35 1_555 1_555
N1 C8 1_555 1_555
N2 C21 1_555 1_555
H32 N2 1_555 1_555
O1 C9 1_555 1_555
O2 C9 1_555 1_555
O3 C19 1_555 1_555
O4 C19 1_555 1_555
O5 C25 1_555 1_555
O6 S1 1_555 1_555
O7 S1 1_555 1_555
S1 C29 1_555 1_555
C5 C6 1_555 1_555
C10 N1 1_555 1_555
C10 O2 1_555 1_555
C15 C16 1_555 1_555
C20 O4 1_555 1_555
C26 C27 1_555 1_555
C28 O5 1_555 1_555
C33 C34 1_555 1_555
N2 S1 1_555 1_555

#END
