
#######################################################################
#
#                 Cambridge Crystallographic Data Centre
#                                CCDC 
#
#######################################################################
#
# If this CIF has been generated from an entry in the Cambridge 
# Structural Database, then it will include bibliographic, chemical, 
# crystal, experimental, refinement or atomic coordinate data resulting 
# from the CCDC's data processing and validation procedures.
#
#######################################################################

data_NEYJAF
_chemical_formula_moiety         'C37 H26 Br2 O2'
_chemical_name_systematic        
2-[2-(4-bromobenzene-1-carbonyl)-3-(9H-fluoren-9-yl)-2,3-dihydro-1H-inden-1-yl]-1-(4-bromophenyl)ethan-1-one
_symmetry_cell_setting           triclinic
_symmetry_space_group_name_H-M   'P -1'
_symmetry_Int_Tables_number      2
_space_group_name_Hall           '-P 1'
loop_
_symmetry_equiv_pos_site_id
_symmetry_equiv_pos_as_xyz
1 x,y,z
2 -x,-y,-z
_cell_length_a                   11.2199(11)
_cell_length_b                   12.3102(11)
_cell_length_c                   12.4491(11)
_cell_angle_alpha                100.397(3)
_cell_angle_beta                 112.310(3)
_cell_angle_gamma                105.844(3)
_cell_volume                     1450.24
_cell_formula_units_Z            2
loop_
_atom_site_label
_atom_site_type_symbol
_atom_site_fract_x
_atom_site_fract_y
_atom_site_fract_z
Br1 Br 0.41499(16) -0.55224(11) 0.65505(15)
O1 O 1.1260(5) 0.3690(5) 1.0119(5)
C1 C 1.0292(8) 0.2920(6) 0.9209(7)
O2 O 0.9122(7) -0.0033(5) 0.8484(6)
C2 C 0.8064(9) 0.0489(6) 0.9732(7)
H1 H 0.8180 0.0194 1.0423
H2 H 0.7131 0.0492 0.9379
C3 C 0.5847(8) 0.2218(7) 0.6512(7)
C4 C 0.8911(7) 0.2406(6) 0.9202(6)
H3 H 0.8216 0.1842 0.8393
C5 C 0.9105(8) 0.1769(6) 1.0201(7)
H4 H 1.0050 0.1772 1.0540
C6 C 0.8948(8) 0.2563(6) 1.1184(6)
C7 C 0.8420(7) 0.3445(6) 0.9582(6)
H5 H 0.9083 0.4200 0.9660
C8 C 0.6953(7) 0.3289(6) 0.8654(6)
H6 H 0.6711 0.3945 0.8963
C9 C 0.7210(8) -0.1633(6) 0.8275(7)
C10 C 0.6884(8) 0.3280(6) 0.7413(6)
C11 C 0.6336(10) -0.3577(8) 0.6826(8)
H7 H 0.6364 -0.4086 0.6194
C12 C 0.9706(10) 0.1749(8) 0.5955(8)
H8 H 0.8996 0.1475 0.5158
C13 C 1.0490(7) 0.2495(6) 0.8116(6)
C14 C 0.5817(7) 0.2118(6) 0.8352(6)
C15 C 0.5201(8) 0.1504(6) 0.7089(7)
C16 C 0.8199(9) -0.0360(6) 0.8785(7)
C17 C 0.8380(9) 0.4272(7) 1.1642(7)
H9 H 0.8115 0.4882 1.1419
C18 C 0.8561(7) 0.3462(6) 1.0841(6)
C19 C 0.5337(8) 0.1622(7) 0.9091(7)
H10 H 0.5708 0.2045 0.9917
C20 C 0.4134(9) 0.0365(7) 0.6600(8)
H11 H 0.3731 -0.0054 0.5769
C21 C 1.2074(10) 0.2243(8) 0.7320(8)
H12 H 1.2955 0.2268 0.7451
C22 C 0.9444(8) 0.2050(7) 0.6934(7)
H13 H 0.8541 0.1952 0.6796
C23 C 1.1038(9) 0.1858(7) 0.6168(7)
C24 C 1.1829(8) 0.2596(7) 0.8293(7)
H14 H 1.2559 0.2907 0.9082
C25 C 0.4315(10) 0.0508(8) 0.8610(9)
H15 H 0.4026 0.0162 0.9119
C26 C 0.6202(9) -0.2027(7) 0.8651(8)
H16 H 0.6123 -0.1498 0.9232
C27 C 0.6418(12) 0.2842(10) 0.5013(9)
H17 H 0.6286 0.2706 0.4209
C28 C 0.5377(9) -0.3986(7) 0.7255(7)
C29 C 0.3701(9) -0.0116(7) 0.7351(8)
H18 H 0.2993 -0.0863 0.7030
C30 C 0.5298(11) -0.3229(8) 0.8152(9)
H19 H 0.4650 -0.3508 0.8431
C31 C 0.7240(9) -0.2407(7) 0.7349(7)
H20 H 0.7889 -0.2133 0.7070
C32 C 0.7456(11) 0.3914(8) 0.5926(8)
H21 H 0.7986 0.4480 0.5716
C33 C 0.9141(9) 0.2428(8) 1.2322(8)
H22 H 0.9372 0.1808 1.2554
C34 C 0.5595(10) 0.1990(8) 0.5293(7)
H23 H 0.4902 0.1293 0.4690
Br2 Br 1.13880(17) 0.14335(14) 0.48456(12)
C35 C 0.8964(11) 0.3295(10) 1.3098(8)
H24 H 0.9111 0.3254 1.3874
C36 C 0.7679(9) 0.4116(7) 0.7120(7)
H25 H 0.8365 0.4816 0.7725
C37 C 0.8600(10) 0.4150(8) 1.2766(8)
H26 H 0.8488 0.4692 1.3309
loop_
_geom_bond_atom_site_label_1
_geom_bond_atom_site_label_2
_geom_bond_site_symmetry_1
_geom_bond_site_symmetry_2
Br1 C28 1_555 1_555
O1 C1 1_555 1_555
C1 C4 1_555 1_555
O2 C16 1_555 1_555
C2 H1 1_555 1_555
H2 C2 1_555 1_555
C3 C10 1_555 1_555
C4 H3 1_555 1_555
C5 C2 1_555 1_555
H4 C5 1_555 1_555
C6 C5 1_555 1_555
C7 C4 1_555 1_555
H5 C7 1_555 1_555
C8 C7 1_555 1_555
H6 C8 1_555 1_555
C9 C16 1_555 1_555
C10 C8 1_555 1_555
C11 H7 1_555 1_555
C12 H8 1_555 1_555
C13 C1 1_555 1_555
C14 C8 1_555 1_555
C15 C3 1_555 1_555
C16 C2 1_555 1_555
C17 H9 1_555 1_555
C18 C6 1_555 1_555
C19 C14 1_555 1_555
H10 C19 1_555 1_555
C20 C15 1_555 1_555
H11 C20 1_555 1_555
C21 H12 1_555 1_555
C22 C12 1_555 1_555
H13 C22 1_555 1_555
C23 C12 1_555 1_555
C24 C13 1_555 1_555
H14 C24 1_555 1_555
C25 C19 1_555 1_555
H15 C25 1_555 1_555
C26 C9 1_555 1_555
H16 C26 1_555 1_555
C27 H17 1_555 1_555
C28 C11 1_555 1_555
C29 C20 1_555 1_555
H18 C29 1_555 1_555
C30 C26 1_555 1_555
H19 C30 1_555 1_555
C31 C9 1_555 1_555
H20 C31 1_555 1_555
C32 C27 1_555 1_555
H21 C32 1_555 1_555
C33 C6 1_555 1_555
H22 C33 1_555 1_555
C34 C3 1_555 1_555
H23 C34 1_555 1_555
Br2 C23 1_555 1_555
C35 C33 1_555 1_555
H24 C35 1_555 1_555
C36 C10 1_555 1_555
H25 C36 1_555 1_555
C37 C17 1_555 1_555
H26 C37 1_555 1_555
C4 C5 1_555 1_555
C7 C18 1_555 1_555
C11 C31 1_555 1_555
C13 C22 1_555 1_555
C14 C15 1_555 1_555
C17 C18 1_555 1_555
C21 C23 1_555 1_555
C21 C24 1_555 1_555
C25 C29 1_555 1_555
C27 C34 1_555 1_555
C28 C30 1_555 1_555
C32 C36 1_555 1_555
C35 C37 1_555 1_555

#END
