
#######################################################################
#
#                 Cambridge Crystallographic Data Centre
#                                CCDC 
#
#######################################################################
#
# If this CIF has been generated from an entry in the Cambridge 
# Structural Database, then it will include bibliographic, chemical, 
# crystal, experimental, refinement or atomic coordinate data resulting 
# from the CCDC's data processing and validation procedures.
#
#######################################################################

data_NEYLIP
_chemical_formula_moiety         'C26 H33 N3 O4'
_chemical_name_systematic        
3-{[6-hydroxy-3-(2-methylbut-3-en-2-yl)-7-(3-methylbut-2-en-1-yl)-2-oxo-2,3-dihydro-1H-indol-3-yl]methyl}hexahydropyrrolo[1,2-a]pyrazine-1,4-dione
_symmetry_cell_setting           monoclinic
_symmetry_space_group_name_H-M   'P 21'
_symmetry_Int_Tables_number      4
_space_group_name_Hall           'P 2yb'
loop_
_symmetry_equiv_pos_site_id
_symmetry_equiv_pos_as_xyz
1 x,y,z
2 -x,1/2+y,-z
_cell_length_a                   10.5401(4)
_cell_length_b                   8.6652(2)
_cell_length_c                   14.2068(5)
_cell_angle_alpha                90
_cell_angle_beta                 111.123(4)
_cell_angle_gamma                90
_cell_volume                     1210.35
_exptl_crystal_colour            colorless
_exptl_crystal_description       block
_cell_formula_units_Z            2
loop_
_atom_site_label
_atom_site_type_symbol
_atom_site_fract_x
_atom_site_fract_y
_atom_site_fract_z
O1 O 0.5551(2) 0.0058(2) 0.28931(16)
O2 O 0.4758(2) 0.6203(3) 0.38365(18)
O3 O 0.1459(2) 0.4055(3) 0.14308(18)
O4 O 0.9774(3) 0.6284(3) 0.1642(2)
H1 H 1.029444 0.561261 0.159294
N1 N 0.6370(2) 0.6909(3) 0.31807(19)
H2 H 0.612502 0.785112 0.302930
N2 N 0.3515(2) 0.0651(3) 0.17071(18)
N3 N 0.3657(2) 0.3594(3) 0.2416(2)
H3 H 0.365641 0.438615 0.278028
C1 C 0.4694(3) 0.1015(3) 0.2435(2)
C2 C 0.5808(3) 0.5948(3) 0.3674(2)
C3 C 0.7570(3) 0.4668(3) 0.3339(2)
C4 C 0.4939(3) 0.2741(3) 0.2658(2)
H4 H 0.541665 0.314703 0.223331
C5 C 0.2491(3) 0.3232(3) 0.1673(2)
C6 C 0.7405(3) 0.6167(3) 0.2948(2)
C7 C 0.6690(3) 0.8710(3) 0.1188(2)
H5 H 0.597697 0.803848 0.112985
C8 C 0.5852(3) 0.2997(3) 0.3769(2)
H6 H 0.528256 0.300615 0.417417
H7 H 0.646863 0.212781 0.398921
C9 C 0.6692(3) 0.4481(3) 0.3978(2)
C10 C 0.6440(3) 0.9812(4) 0.0492(2)
C11 C 0.8440(3) 0.3675(3) 0.3117(2)
H8 H 0.855158 0.266975 0.336196
C12 C 0.2459(3) 0.1743(3) 0.1131(2)
H9 H 0.257214 0.196351 0.048958
C13 C 0.8148(3) 0.6763(3) 0.2399(2)
C14 C 0.7596(3) 0.4619(4) 0.5162(2)
C15 C 0.9035(3) 0.5728(4) 0.2190(2)
C16 C 0.8004(3) 0.8432(3) 0.2059(2)
H10 H 0.803517 0.909073 0.261941
H11 H 0.876184 0.870780 0.185871
C17 C 0.1164(3) 0.0812(4) 0.0921(3)
H12 H 0.043632 0.119670 0.033019
H13 H 0.087004 0.083215 0.149414
C18 C 0.9158(4) 0.4193(4) 0.2516(3)
H14 H 0.971651 0.351625 0.233533
C19 C 0.3060(3) -0.0963(4) 0.1480(2)
H15 H 0.309613 -0.150477 0.208682
H16 H 0.361738 -0.150913 0.117466
C20 C 0.1596(3) -0.0815(4) 0.0741(3)
H17 H 0.101768 -0.158684 0.087673
H18 H 0.155004 -0.093127 0.005015
C21 C 0.6688(4) 0.4612(4) 0.5795(3)
H19 H 0.598486 0.537227 0.553819
H20 H 0.722610 0.484808 0.648448
H21 H 0.628366 0.361062 0.576073
C22 C 0.8587(4) 0.3286(5) 0.5447(3)
H22 H 0.939179 0.342039 0.532862
C23 C 0.5048(4) 0.9992(5) -0.0309(3)
H23 H 0.453197 0.906640 -0.034486
H24 H 0.513542 1.017522 -0.094893
H25 H 0.459044 1.084818 -0.014231
C24 C 0.8408(4) 0.6135(4) 0.5365(3)
H26 H 0.875885 0.630942 0.483711
H27 H 0.914945 0.606731 0.600115
H28 H 0.782395 0.697544 0.538340
C25 C 0.7461(4) 1.0972(5) 0.0465(3)
H29 H 0.831289 1.076421 0.099819
H30 H 0.715261 1.198508 0.055250
H31 H 0.757952 1.091642 -0.017330
C26 C 0.8439(5) 0.1955(7) 0.5843(4)
H32 H 0.765356 0.175734 0.597713
H33 H 0.912014 0.121279 0.598831
loop_
_geom_bond_atom_site_label_1
_geom_bond_atom_site_label_2
_geom_bond_site_symmetry_1
_geom_bond_site_symmetry_2
O1 C1 1_555 1_555
O2 C2 1_555 1_555
O3 C5 1_555 1_555
O4 H1 1_555 1_555
N1 H2 1_555 1_555
N2 C1 1_555 1_555
N3 H3 1_555 1_555
C1 C4 1_555 1_555
C2 N1 1_555 1_555
C3 C6 1_555 1_555
C4 N3 1_555 1_555
H4 C4 1_555 1_555
C5 N3 1_555 1_555
C6 N1 1_555 1_555
C7 H5 1_555 1_555
C8 C4 1_555 1_555
H6 C8 1_555 1_555
H7 C8 1_555 1_555
C9 C2 1_555 1_555
C10 C7 1_555 1_555
C11 C3 1_555 1_555
H8 C11 1_555 1_555
C12 N2 1_555 1_555
H9 C12 1_555 1_555
C13 C6 1_555 1_555
C14 C9 1_555 1_555
C15 O4 1_555 1_555
C16 C7 1_555 1_555
H10 C16 1_555 1_555
H11 C16 1_555 1_555
C17 C12 1_555 1_555
H12 C17 1_555 1_555
H13 C17 1_555 1_555
C18 C11 1_555 1_555
H14 C18 1_555 1_555
C19 N2 1_555 1_555
H15 C19 1_555 1_555
H16 C19 1_555 1_555
C20 C17 1_555 1_555
H17 C20 1_555 1_555
H18 C20 1_555 1_555
C21 C14 1_555 1_555
H19 C21 1_555 1_555
H20 C21 1_555 1_555
H21 C21 1_555 1_555
C22 C14 1_555 1_555
H22 C22 1_555 1_555
C23 C10 1_555 1_555
H23 C23 1_555 1_555
H24 C23 1_555 1_555
H25 C23 1_555 1_555
C24 C14 1_555 1_555
H26 C24 1_555 1_555
H27 C24 1_555 1_555
H28 C24 1_555 1_555
C25 C10 1_555 1_555
H29 C25 1_555 1_555
H30 C25 1_555 1_555
H31 C25 1_555 1_555
C26 C22 1_555 1_555
H32 C26 1_555 1_555
H33 C26 1_555 1_555
C3 C9 1_555 1_555
C5 C12 1_555 1_555
C8 C9 1_555 1_555
C13 C15 1_555 1_555
C13 C16 1_555 1_555
C15 C18 1_555 1_555
C19 C20 1_555 1_555

#END
