
#######################################################################
#
#                 Cambridge Crystallographic Data Centre
#                                CCDC 
#
#######################################################################
#
# If this CIF has been generated from an entry in the Cambridge 
# Structural Database, then it will include bibliographic, chemical, 
# crystal, experimental, refinement or atomic coordinate data resulting 
# from the CCDC's data processing and validation procedures.
#
#######################################################################

data_NEYTOB
_chemical_formula_moiety         'C19 H33 N1 O4 Si1'
_chemical_name_systematic        
(E)-1,3-bis(t-butoxycarbonyl)-3-cyano-5-(trimethylsilyl)pentene
_symmetry_cell_setting           orthorhombic
_symmetry_space_group_name_H-M   'P 21 21 21'
_symmetry_Int_Tables_number      19
_space_group_name_Hall           'P 2ac 2ab'
loop_
_symmetry_equiv_pos_site_id
_symmetry_equiv_pos_as_xyz
1 x,y,z
2 1/2+x,1/2-y,-z
3 -x,1/2+y,1/2-z
4 1/2-x,-y,1/2+z
_cell_length_a                   6.32501(11)
_cell_length_b                   15.6014(3)
_cell_length_c                   22.1928(4)
_cell_angle_alpha                90
_cell_angle_beta                 90
_cell_angle_gamma                90
_cell_volume                     2189.96
_exptl_crystal_colour            colorless
_exptl_crystal_description       platelet
_cell_formula_units_Z            4
_exptl_crystal_recrystallization_method ether
loop_
_atom_site_label
_atom_site_type_symbol
_atom_site_fract_x
_atom_site_fract_y
_atom_site_fract_z
Si1 Si 0.58095(12) 0.75142(4) 0.89592(3)
O1 O 0.3908(3) 1.00772(12) 1.15745(7)
O2 O 0.5263(3) 1.16630(11) 0.93562(8)
O3 O 0.7322(3) 1.02088(13) 1.12690(8)
O4 O 0.6244(3) 1.08891(12) 0.85405(8)
N1 N 0.0722(3) 1.01878(16) 0.93779(11)
C1 C 0.5469(4) 1.25141(16) 0.90497(11)
C2 C 0.4482(4) 1.01602(15) 1.05527(11)
C3 C 0.4874(3) 1.01548(15) 0.94198(11)
C4 C 0.2534(4) 1.01725(16) 0.94021(11)
C5 C 0.5598(4) 1.09449(15) 0.90468(11)
C6 C 0.5450(4) 1.01550(15) 1.11637(10)
C7 C 0.5681(4) 1.01946(15) 1.00595(10)
C8 C 0.4849(4) 0.84914(16) 0.93760(11)
C9 C 0.4383(4) 1.00015(18) 1.22291(11)
C10 C 0.4763(5) 0.65330(18) 0.93291(14)
C11 C 0.5670(4) 0.93283(15) 0.91018(11)
C12 C 0.4829(5) 0.7569(2) 0.81669(13)
C13 C 0.8759(4) 0.7504(2) 0.89665(14)
C14 C 0.5541(6) 0.9159(2) 1.23341(14)
C15 C 0.5633(6) 1.0760(2) 1.24515(14)
C16 C 0.4912(6) 1.31401(18) 0.95460(14)
C17 C 0.7724(5) 1.26461(19) 0.88457(15)
C18 C 0.3888(5) 1.2549(2) 0.85363(14)
C19 C 0.2191(6) 0.9974(2) 1.25012(14)
H1 H 0.2987 1.0139 1.0514
H2 H 0.7165 1.0249 1.0115
H3 H 0.5756 0.6342 0.9640
H4 H 0.4589 0.6079 0.9028
H5 H 0.3392 0.6661 0.9514
H6 H 0.3450 0.7285 0.8140
H7 H 0.5835 0.7280 0.7900
H8 H 0.4687 0.8170 0.8045
H9 H 0.9292 0.7809 0.8612
H10 H 0.9263 0.6910 0.8959
H11 H 0.9270 0.7787 0.9333
H12 H 0.4511 0.8705 1.2417
H13 H 0.6496 0.9220 1.2679
H14 H 0.6361 0.9011 1.1974
H15 H 0.7147 1.0642 1.2408
H16 H 0.5304 1.0863 1.2877
H17 H 0.5261 1.1268 1.2214
H18 H 0.3387 1.3250 0.9541
H19 H 0.5675 1.3679 0.9482
H20 H 0.5315 1.2897 0.9937
H21 H 0.8529 1.2928 0.9167
H22 H 0.7740 1.3007 0.8484
H23 H 0.8367 1.2090 0.8754
H24 H 0.4548 1.2328 0.8168
H25 H 0.3442 1.3143 0.8472
H26 H 0.2654 1.2197 0.8637
H27 H 0.1722 1.0559 1.2592
H28 H 0.2221 0.9637 1.2873
H29 H 0.1209 0.9710 1.2214
H30 H 0.3284 0.8498 0.9372
H31 H 0.5314 0.8456 0.9801
H32 H 0.5241 0.9351 0.8673
H33 H 0.7234 0.9322 0.9115
loop_
_geom_bond_atom_site_label_1
_geom_bond_atom_site_label_2
_geom_bond_site_symmetry_1
_geom_bond_site_symmetry_2
Si1 C8 1_555 1_555
O1 C6 1_555 1_555
O2 C1 1_555 1_555
O3 C6 1_555 1_555
O4 C5 1_555 1_555
N1 C4 1_555 1_555
C1 C16 1_555 1_555
C2 C6 1_555 1_555
C3 C4 1_555 1_555
C5 O2 1_555 1_555
C7 C2 1_555 1_555
C8 C11 1_555 1_555
C9 O1 1_555 1_555
C10 Si1 1_555 1_555
C11 C3 1_555 1_555
C12 Si1 1_555 1_555
C13 Si1 1_555 1_555
C14 C9 1_555 1_555
C15 C9 1_555 1_555
C16 H18 1_555 1_555
C17 C1 1_555 1_555
C18 C1 1_555 1_555
C19 C9 1_555 1_555
H1 C2 1_555 1_555
H2 C7 1_555 1_555
H3 C10 1_555 1_555
H4 C10 1_555 1_555
H5 C10 1_555 1_555
H6 C12 1_555 1_555
H7 C12 1_555 1_555
H8 C12 1_555 1_555
H9 C13 1_555 1_555
H10 C13 1_555 1_555
H11 C13 1_555 1_555
H12 C14 1_555 1_555
H13 C14 1_555 1_555
H14 C14 1_555 1_555
H15 C15 1_555 1_555
H16 C15 1_555 1_555
H17 C15 1_555 1_555
H19 C16 1_555 1_555
H20 C16 1_555 1_555
H21 C17 1_555 1_555
H22 C17 1_555 1_555
H23 C17 1_555 1_555
H24 C18 1_555 1_555
H25 C18 1_555 1_555
H26 C18 1_555 1_555
H27 C19 1_555 1_555
H28 C19 1_555 1_555
H29 C19 1_555 1_555
H30 C8 1_555 1_555
H31 C8 1_555 1_555
H32 C11 1_555 1_555
H33 C11 1_555 1_555
C3 C5 1_555 1_555
C3 C7 1_555 1_555

#END
