
#######################################################################
#
#                 Cambridge Crystallographic Data Centre
#                                CCDC 
#
#######################################################################
#
# If this CIF has been generated from an entry in the Cambridge 
# Structural Database, then it will include bibliographic, chemical, 
# crystal, experimental, refinement or atomic coordinate data resulting 
# from the CCDC's data processing and validation procedures.
#
#######################################################################

data_NEYTIV
_chemical_formula_moiety         'C22 H28 Br1 N1 O4'
_chemical_name_systematic        
(E)-5-(4-Bromophenyl)-1,3-bis(t-butoxycarbonyl)-3-cyanopentene
_symmetry_cell_setting           orthorhombic
_symmetry_space_group_name_H-M   'P 21 21 21'
_symmetry_Int_Tables_number      19
_space_group_name_Hall           'P 2ac 2ab'
loop_
_symmetry_equiv_pos_site_id
_symmetry_equiv_pos_as_xyz
1 x,y,z
2 1/2+x,1/2-y,-z
3 -x,1/2+y,1/2-z
4 1/2-x,-y,1/2+z
_cell_length_a                   11.9583(3)
_cell_length_b                   18.0650(3)
_cell_length_c                   21.9228(5)
_cell_angle_alpha                90
_cell_angle_beta                 90
_cell_angle_gamma                90
_cell_volume                     4735.91
_exptl_crystal_colour            colorless
_exptl_crystal_description       platelet
_cell_formula_units_Z            8
_exptl_crystal_recrystallization_method hexane
loop_
_atom_site_label
_atom_site_type_symbol
_atom_site_fract_x
_atom_site_fract_y
_atom_site_fract_z
Br1 Br 0.37045(8) -0.11847(4) -0.19169(3)
O1 O 0.1971(4) 0.3981(2) -0.0414(2)
O2 O 0.3662(3) 0.36479(18) -0.07107(17)
O3 O 0.5465(3) 0.3012(2) 0.13076(17)
O4 O 0.4118(3) 0.3286(2) 0.19871(15)
N1 N 0.0826(4) 0.2691(3) 0.0509(2)
C1 C 0.2747(4) 0.2843(2) -0.0044(2)
C2 C 0.2727(4) 0.3568(2) -0.0416(2)
C3 C 0.3930(5) 0.4270(3) -0.1114(2)
C4 C 0.3919(12) 0.4952(4) -0.0755(4)
C5 C 0.5076(6) 0.4071(4) -0.1357(3)
C6 C 0.3093(7) 0.4243(6) -0.1626(3)
C7 C 0.1650(4) 0.2773(3) 0.0264(2)
C8 C 0.2944(4) 0.2173(2) -0.04794(19)
C9 C 0.2938(5) 0.1437(2) -0.0150(2)
C10 C 0.3149(4) 0.0804(2) -0.0577(2)
C11 C 0.4198(5) 0.0524(3) -0.0682(2)
C12 C 0.4367(5) -0.0069(3) -0.1089(2)
C13 C 0.3485(5) -0.0378(2) -0.1392(2)
C14 C 0.2449(6) -0.0108(3) -0.1308(2)
C15 C 0.2264(5) 0.0483(3) -0.0891(3)
C16 C 0.3675(3) 0.2910(2) 0.0427(2)
C17 C 0.3553(4) 0.3002(2) 0.1015(2)
C18 C 0.4495(5) 0.3093(2) 0.1432(2)
C19 C 0.4844(5) 0.3388(3) 0.2528(2)
C20 C 0.5701(6) 0.3960(3) 0.2412(2)
C21 C 0.4011(8) 0.3662(6) 0.3001(2)
C22 C 0.5368(9) 0.2665(3) 0.2682(3)
H2 H 0.4421 0.2882 0.0279
H6 H 0.5100 -0.0256 -0.1154
H8 H 0.4822 0.0734 -0.0476
H9 H 0.1526 0.0660 -0.0826
H11 H 0.1838 -0.0312 -0.1528
H12 H 0.2817 0.3010 0.1178
H13 H 0.2354 0.2170 -0.0796
H14 H 0.3673 0.2236 -0.0688
H17 H 0.3521 0.1440 0.0170
H18 H 0.2205 0.1367 0.0051
H36 H 0.5651 0.4274 -0.1086
H37 H 0.5168 0.4280 -0.1767
H38 H 0.5150 0.3532 -0.1376
H42 H 0.4896 0.2401 0.2976
H43 H 0.6108 0.2750 0.2862
H44 H 0.5447 0.2367 0.2311
H45 H 0.3970 0.4204 0.2985
H46 H 0.4254 0.3507 0.3408
H47 H 0.3272 0.3453 0.2914
H48 H 0.3161 0.5159 -0.0752
H49 H 0.4436 0.5311 -0.0937
H50 H 0.4153 0.4844 -0.0336
H51 H 0.6371 0.3727 0.2241
H52 H 0.5892 0.4207 0.2796
H53 H 0.5408 0.4324 0.2122
H54 H 0.3387 0.3937 -0.1958
H55 H 0.2955 0.4746 -0.1777
H56 H 0.2391 0.4030 -0.1477
Br2 Br 0.44332(9) 0.11145(4) 0.18300(4)
O5 O 0.1364(3) -0.3693(2) 0.05577(18)
O6 O 0.3239(3) -0.37275(18) 0.06962(16)
O7 O 0.5407(3) -0.3312(2) -0.11406(15)
O8 O 0.4248(2) -0.31342(18) -0.19474(14)
N2 N 0.0771(4) -0.2484(3) -0.0597(2)
C23 C 0.2570(3) -0.2812(2) 0.0042(2)
C24 C 0.2296(4) -0.3475(2) 0.0459(2)
C25 C 0.3251(5) -0.4285(2) 0.1190(2)
C26 C 0.4489(6) -0.4340(4) 0.1318(3)
C27 C 0.2609(6) -0.4016(3) 0.1731(2)
C28 C 0.2766(7) -0.5009(3) 0.0934(3)
C29 C 0.1547(4) -0.2639(2) -0.0308(2)
C30 C 0.2878(4) -0.2152(2) 0.04619(19)
C31 C 0.3049(5) -0.1427(2) 0.0108(2)
C32 C 0.3379(4) -0.0809(2) 0.0528(2)
C33 C 0.2607(5) -0.0472(2) 0.0911(2)
C34 C 0.2936(5) 0.0099(3) 0.1302(2)
C35 C 0.4025(5) 0.0338(3) 0.1302(2)
C36 C 0.4774(5) 0.0029(3) 0.0915(2)
C37 C 0.4464(5) -0.0550(3) 0.0537(2)
C38 C 0.3524(4) -0.2989(2) -0.0381(2)
C39 C 0.3499(4) -0.2967(2) -0.0988(2)
C40 C 0.4493(4) -0.3148(2) -0.1356(2)
C41 C 0.5071(5) -0.3291(2) -0.2431(2)
C42 C 0.6030(5) -0.2733(3) -0.2378(3)
C43 C 0.4415(6) -0.3180(4) -0.2998(2)
C44 C 0.5486(6) -0.4070(3) -0.2375(2)
H1 H 0.4212 -0.3130 -0.0198
H3 H 0.2825 -0.2831 -0.1188
H4 H 0.5008 -0.0772 0.0280
H5 H 0.1850 -0.0631 0.0908
H7 H 0.5518 0.0212 0.0902
H10 H 0.2406 0.0322 0.1568
H15 H 0.2276 -0.2081 0.0766
H16 H 0.3574 -0.2272 0.0686
H19 H 0.3639 -0.1498 -0.0203
H20 H 0.2347 -0.1294 -0.0105
H21 H 0.4067 -0.3649 -0.3118
H22 H 0.4913 -0.3010 -0.3324
H23 H 0.3833 -0.2808 -0.2926
H24 H 0.6140 -0.4082 -0.2106
H25 H 0.5695 -0.4256 -0.2780
H26 H 0.4894 -0.4383 -0.2204
H27 H 0.1955 -0.5016 0.0998
H28 H 0.3106 -0.5431 0.1146
H29 H 0.2928 -0.5042 0.0497
H30 H 0.5861 -0.2296 -0.2626
H31 H 0.6724 -0.2962 -0.2523
H32 H 0.6119 -0.2585 -0.1950
H33 H 0.4819 -0.4724 0.1058
H34 H 0.4604 -0.4469 0.1748
H35 H 0.4846 -0.3864 0.1231
H39 H 0.3113 -0.3749 0.2006
H40 H 0.2282 -0.4440 0.1946
H41 H 0.2011 -0.3684 0.1596
loop_
_geom_bond_atom_site_label_1
_geom_bond_atom_site_label_2
_geom_bond_site_symmetry_1
_geom_bond_site_symmetry_2
Br1 C13 1_555 1_555
Br2 C35 1_555 1_555
O1 C2 1_555 1_555
O2 C2 1_555 1_555
O3 C18 1_555 1_555
O4 C18 1_555 1_555
O5 C24 1_555 1_555
O6 C24 1_555 1_555
O7 C40 1_555 1_555
O8 C40 1_555 1_555
N1 C7 1_555 1_555
N2 C29 1_555 1_555
C1 C2 1_555 1_555
C3 O2 1_555 1_555
C4 C3 1_555 1_555
C5 C3 1_555 1_555
C6 C3 1_555 1_555
C7 C1 1_555 1_555
C8 C1 1_555 1_555
C9 C8 1_555 1_555
C10 C9 1_555 1_555
C11 C10 1_555 1_555
C12 C11 1_555 1_555
C13 C12 1_555 1_555
C14 C13 1_555 1_555
C15 C10 1_555 1_555
C16 C1 1_555 1_555
C17 C16 1_555 1_555
C18 C17 1_555 1_555
C19 O4 1_555 1_555
C20 C19 1_555 1_555
C21 C19 1_555 1_555
C22 C19 1_555 1_555
C23 C24 1_555 1_555
C25 O6 1_555 1_555
C26 C25 1_555 1_555
C27 C25 1_555 1_555
C28 C25 1_555 1_555
C29 C23 1_555 1_555
C30 C23 1_555 1_555
C31 C30 1_555 1_555
C32 C31 1_555 1_555
C33 C32 1_555 1_555
C34 C33 1_555 1_555
C35 C34 1_555 1_555
C36 C35 1_555 1_555
C37 C32 1_555 1_555
C38 C23 1_555 1_555
C39 C38 1_555 1_555
C40 C39 1_555 1_555
C41 O8 1_555 1_555
C42 C41 1_555 1_555
C43 C41 1_555 1_555
C44 C41 1_555 1_555
H1 C38 1_555 1_555
H2 C16 1_555 1_555
H3 C39 1_555 1_555
H4 C37 1_555 1_555
H5 C33 1_555 1_555
H6 C12 1_555 1_555
H7 C36 1_555 1_555
H8 C11 1_555 1_555
H9 C15 1_555 1_555
H10 C34 1_555 1_555
H11 C14 1_555 1_555
H12 C17 1_555 1_555
H13 C8 1_555 1_555
H14 C8 1_555 1_555
H15 C30 1_555 1_555
H16 C30 1_555 1_555
H17 C9 1_555 1_555
H18 C9 1_555 1_555
H19 C31 1_555 1_555
H20 C31 1_555 1_555
H21 C43 1_555 1_555
H22 C43 1_555 1_555
H23 C43 1_555 1_555
H24 C44 1_555 1_555
H25 C44 1_555 1_555
H26 C44 1_555 1_555
H27 C28 1_555 1_555
H28 C28 1_555 1_555
H29 C28 1_555 1_555
H30 C42 1_555 1_555
H31 C42 1_555 1_555
H32 C42 1_555 1_555
H33 C26 1_555 1_555
H34 C26 1_555 1_555
H35 C26 1_555 1_555
H36 C5 1_555 1_555
H37 C5 1_555 1_555
H38 C5 1_555 1_555
H39 C27 1_555 1_555
H40 C27 1_555 1_555
H41 C27 1_555 1_555
H42 C22 1_555 1_555
H43 C22 1_555 1_555
H44 C22 1_555 1_555
H45 C21 1_555 1_555
H46 C21 1_555 1_555
H47 C21 1_555 1_555
H48 C4 1_555 1_555
H49 C4 1_555 1_555
H50 C4 1_555 1_555
H51 C20 1_555 1_555
H52 C20 1_555 1_555
H53 C20 1_555 1_555
H54 C6 1_555 1_555
H55 C6 1_555 1_555
H56 C6 1_555 1_555
C14 C15 1_555 1_555
C36 C37 1_555 1_555

#END
