
#######################################################################
#
#                 Cambridge Crystallographic Data Centre
#                                CCDC 
#
#######################################################################
#
# If this CIF has been generated from an entry in the Cambridge 
# Structural Database, then it will include bibliographic, chemical, 
# crystal, experimental, refinement or atomic coordinate data resulting 
# from the CCDC's data processing and validation procedures.
#
#######################################################################

data_NEYWAQ
_chemical_formula_moiety         'C33 H49 N2 O2 1+,Br1 1-,C4 H10 O2'
_chemical_name_systematic        
'1,3-bis(4,6-Di-t-butyl-2-hydroxybenzyl)imidazolium bromide 1,2-dimethoxyethane solvate'
_symmetry_cell_setting           monoclinic
_symmetry_space_group_name_H-M   'P 21/c'
_symmetry_Int_Tables_number      14
_space_group_name_Hall           '-P 2ybc'
loop_
_symmetry_equiv_pos_site_id
_symmetry_equiv_pos_as_xyz
1 x,y,z
2 -x,1/2+y,1/2-z
3 -x,-y,-z
4 x,1/2-y,1/2+z
_cell_length_a                   17.085(5)
_cell_length_b                   18.308(5)
_cell_length_c                   12.316(4)
_cell_angle_alpha                90
_cell_angle_beta                 96.799(4)
_cell_angle_gamma                90
_cell_volume                     3825.26
_exptl_crystal_colour            colorless
_exptl_crystal_description       prism
_cell_formula_units_Z            4
loop_
_atom_site_label
_atom_site_type_symbol
_atom_site_fract_x
_atom_site_fract_y
_atom_site_fract_z
Br1 Br -0.11803(2) 0.655980(10) 0.15035(2)
O1 O -0.11529(12) 0.52420(11) 0.3215(2)
O2 O 0.20813(13) 0.42894(10) 0.0580(2)
N1 N -0.01867(12) 0.40927(11) 0.1674(2)
N2 N 0.08607(12) 0.34207(11) 0.1738(2)
C1 C -0.1700(1) 0.47171(13) 0.2837(2)
C2 C -0.2342(2) 0.45653(13) 0.3426(2)
C3 C -0.2836(1) 0.39987(13) 0.3040(2)
C4 C -0.2738(1) 0.35792(13) 0.2111(2)
C5 C -0.2108(1) 0.37510(13) 0.1550(2)
C6 C -0.1588(1) 0.43197(13) 0.1899(2)
C7 C -0.0915(2) 0.4480(1) 0.1246(2)
C8 C 0.0240(2) 0.3674(1) 0.1092(2)
C9 C 0.0173(2) 0.4109(2) 0.2737(2)
C10 C 0.0821(2) 0.3685(2) 0.2780(2)
C11 C 0.1496(1) 0.29547(13) 0.1406(2)
C12 C 0.2558(2) 0.39164(13) 0.1373(2)
C13 C 0.2294(2) 0.32666(13) 0.1809(2)
C14 C 0.2764(1) 0.29055(13) 0.2641(2)
C15 C 0.3494(2) 0.31759(13) 0.3062(2)
C16 C 0.3740(2) 0.38294(13) 0.2614(2)
C17 C 0.3293(2) 0.42095(13) 0.1770(2)
C18 C -0.2482(2) 0.5000(2) 0.4452(2)
C19 C -0.3234(2) 0.4755(2) 0.4917(3)
C20 C -0.2556(3) 0.5815(2) 0.4204(3)
C21 C -0.1794(3) 0.4865(2) 0.5348(3)
C22 C -0.3331(2) 0.29738(13) 0.1757(2)
C23 C -0.4144(2) 0.3318(2) 0.1451(3)
C24 C -0.3100(2) 0.2545(2) 0.0774(2)
C25 C -0.3383(2) 0.2434(2) 0.2697(2)
C26 C 0.4022(2) 0.2764(2) 0.3946(3)
C27 C 0.3535(2) 0.2417(2) 0.4789(3)
C28 C 0.4433(2) 0.2147(2) 0.3388(3)
C29 C 0.4638(2) 0.3259(2) 0.4550(4)
C30 C 0.3611(2) 0.4900(1) 0.1271(3)
C31 C 0.3060(2) 0.5549(1) 0.1335(3)
C32 C 0.4418(2) 0.5131(2) 0.1871(3)
C33 C 0.3718(3) 0.4747(2) 0.0062(3)
H1 H -0.117(2) 0.554(2) 0.272(3)
H2 H 0.193(2) 0.403(2) 0.013(3)
H3 H 0.016(2) 0.360(2) 0.038(3)
H4 H -0.3278(1) 0.38855(13) 0.3438(2)
H5 H -0.2025(1) 0.34749(13) 0.0901(2)
H6 H -0.0813(2) 0.5001(1) 0.1279(2)
H7 H -0.1063(2) 0.4336(1) 0.0492(2)
H8 H 0.1450(1) 0.24695(13) 0.1709(2)
H9 H 0.1442(1) 0.29255(13) 0.0614(2)
H10 H 0.2577(1) 0.24534(13) 0.2930(2)
H11 H 0.4245(2) 0.40301(13) 0.2911(2)
H12 H -0.3296(2) 0.5031(2) 0.5574(3)
H13 H -0.3683(2) 0.4843(2) 0.4374(3)
H14 H -0.3202(2) 0.4238(2) 0.5090(3)
H15 H -0.2085(3) 0.5982(2) 0.3911(3)
H16 H -0.3012(3) 0.5899(2) 0.3671(3)
H17 H -0.2617(3) 0.6082(2) 0.4870(3)
H18 H -0.1765(3) 0.4349(2) 0.5526(3)
H19 H -0.1307(3) 0.5018(2) 0.5083(3)
H20 H -0.1873(3) 0.5143(2) 0.5996(3)
H21 H -0.4304(2) 0.3574(2) 0.2079(3)
H22 H -0.4118(2) 0.3660(2) 0.0855(3)
H23 H -0.4524(2) 0.2939(2) 0.1224(3)
H24 H -0.3496(2) 0.2175(2) 0.0561(2)
H25 H -0.3064(2) 0.2876(2) 0.0167(2)
H26 H -0.2594(2) 0.2312(2) 0.0973(2)
H27 H -0.3535(2) 0.2694(2) 0.3326(2)
H28 H -0.3774(2) 0.2063(2) 0.2471(2)
H29 H -0.2874(2) 0.2205(2) 0.2889(2)
H30 H -0.0008(2) 0.4374(2) 0.3342(2)
H31 H 0.1194(2) 0.3585(2) 0.3420(2)
H32 H 0.3277(2) 0.2799(2) 0.5161(3)
H33 H 0.3141(2) 0.2095(2) 0.4415(3)
H34 H 0.3880(2) 0.2140(2) 0.5320(3)
H35 H 0.4038(2) 0.1826(2) 0.3013(3)
H36 H 0.4747(2) 0.2359(2) 0.2863(3)
H37 H 0.4771(2) 0.1870(2) 0.3927(3)
H38 H 0.4978(2) 0.2978(2) 0.5082(4)
H39 H 0.4953(2) 0.3483(2) 0.4033(4)
H40 H 0.4374(2) 0.3637(2) 0.4922(4)
H41 H 0.3015(2) 0.5657(1) 0.2096(3)
H42 H 0.3267(2) 0.5972(1) 0.0992(3)
H43 H 0.2544(2) 0.5428(1) 0.0962(3)
H44 H 0.4793(2) 0.4736(2) 0.1843(3)
H45 H 0.4608(2) 0.5561(2) 0.1525(3)
H46 H 0.4357(2) 0.5240(2) 0.2627(3)
H47 H 0.3207(3) 0.4623(2) -0.0323(3)
H48 H 0.3922(3) 0.5178(2) -0.0266(3)
H49 H 0.4079(3) 0.4343(2) 0.0015(3)
O3 O -0.1068(2) 0.35049(12) -0.1100(2)
O5 O -0.0808(2) 0.2230(2) 0.0376(3)
C34 C -0.1009(2) 0.4068(2) -0.1875(3)
C35 C -0.0982(2) 0.2796(2) -0.1536(3)
C36 C -0.1183(3) 0.2225(2) -0.0731(3)
C37 C -0.0289(8) 0.1705(7) 0.0609(11)
H50 H -0.0496(2) 0.4047(2) -0.2138(3)
H51 H -0.1417(2) 0.4006(2) -0.2485(3)
H52 H -0.1072(2) 0.4538(2) -0.1532(3)
H53 H -0.1330(2) 0.2745(2) -0.2213(3)
H54 H -0.0441(2) 0.2728(2) -0.1678(3)
O4? O -0.0291(4) 0.2233(3) -0.0127(5)
C38? C -0.0086(5) 0.1762(5) 0.0441(7)
loop_
_geom_bond_atom_site_label_1
_geom_bond_atom_site_label_2
_geom_bond_site_symmetry_1
_geom_bond_site_symmetry_2
O1 C1 1_555 1_555
O2 C12 1_555 1_555
O3 C34 1_555 1_555
O5 C36 1_555 1_555
N1 C7 1_555 1_555
N2 C8 1_555 1_555
C1 C2 1_555 1_555
C2 C3 1_555 1_555
C3 C4 1_555 1_555
C4 C5 1_555 1_555
C5 C6 1_555 1_555
C6 C1 1_555 1_555
C7 C6 1_555 1_555
C8 N1 1_555 1_555
C9 N1 1_555 1_555
C10 N2 1_555 1_555
C11 N2 1_555 1_555
C12 C13 1_555 1_555
C13 C11 1_555 1_555
C14 C13 1_555 1_555
C15 C14 1_555 1_555
C16 C15 1_555 1_555
C17 C12 1_555 1_555
C18 C2 1_555 1_555
C19 C18 1_555 1_555
C20 C18 1_555 1_555
C21 C18 1_555 1_555
C22 C4 1_555 1_555
C23 C22 1_555 1_555
C24 C22 1_555 1_555
C25 C22 1_555 1_555
C26 C15 1_555 1_555
C27 C26 1_555 1_555
C28 C26 1_555 1_555
C29 C26 1_555 1_555
C30 C17 1_555 1_555
C31 C30 1_555 1_555
C32 C30 1_555 1_555
C33 C30 1_555 1_555
C34 H50 1_555 1_555
C35 O3 1_555 1_555
C36 C35 1_555 1_555
C37 O5 1_555 1_555
H1 O1 1_555 1_555
H2 O2 1_555 1_555
H3 C8 1_555 1_555
H4 C3 1_555 1_555
H5 C5 1_555 1_555
H6 C7 1_555 1_555
H7 C7 1_555 1_555
H8 C11 1_555 1_555
H9 C11 1_555 1_555
H10 C14 1_555 1_555
H11 C16 1_555 1_555
H12 C19 1_555 1_555
H13 C19 1_555 1_555
H14 C19 1_555 1_555
H15 C20 1_555 1_555
H16 C20 1_555 1_555
H17 C20 1_555 1_555
H18 C21 1_555 1_555
H19 C21 1_555 1_555
H20 C21 1_555 1_555
H21 C23 1_555 1_555
H22 C23 1_555 1_555
H23 C23 1_555 1_555
H24 C24 1_555 1_555
H25 C24 1_555 1_555
H26 C24 1_555 1_555
H27 C25 1_555 1_555
H28 C25 1_555 1_555
H29 C25 1_555 1_555
H30 C9 1_555 1_555
H31 C10 1_555 1_555
H32 C27 1_555 1_555
H33 C27 1_555 1_555
H34 C27 1_555 1_555
H35 C28 1_555 1_555
H36 C28 1_555 1_555
H37 C28 1_555 1_555
H38 C29 1_555 1_555
H39 C29 1_555 1_555
H40 C29 1_555 1_555
H41 C31 1_555 1_555
H42 C31 1_555 1_555
H43 C31 1_555 1_555
H44 C32 1_555 1_555
H45 C32 1_555 1_555
H46 C32 1_555 1_555
H47 C33 1_555 1_555
H48 C33 1_555 1_555
H49 C33 1_555 1_555
H51 C34 1_555 1_555
H52 C34 1_555 1_555
H53 C35 1_555 1_555
H54 C35 1_555 1_555
C9 C10 1_555 1_555
C16 C17 1_555 1_555

#END
