
#######################################################################
#
#                 Cambridge Crystallographic Data Centre
#                                CCDC 
#
#######################################################################
#
# If this CIF has been generated from an entry in the Cambridge 
# Structural Database, then it will include bibliographic, chemical, 
# crystal, experimental, refinement or atomic coordinate data resulting 
# from the CCDC's data processing and validation procedures.
#
#######################################################################

data_NEZFAB
_chemical_formula_moiety         'C7 H18 O3 P2,H2 O1'
_chemical_name_systematic        
'Ethyl (2-(trimethylphosphonio)ethyl)phosphonate monohydrate'
_symmetry_cell_setting           monoclinic
_symmetry_space_group_name_H-M   'P 21/c'
_symmetry_Int_Tables_number      14
_space_group_name_Hall           '-P 2ybc'
loop_
_symmetry_equiv_pos_site_id
_symmetry_equiv_pos_as_xyz
1 x,y,z
2 -x,1/2+y,1/2-z
3 -x,-y,-z
4 x,1/2-y,1/2+z
_cell_length_a                   8.8559(11)
_cell_length_b                   23.483(3)
_cell_length_c                   17.042(2)
_cell_angle_alpha                90
_cell_angle_beta                 90.122(2)
_cell_angle_gamma                90
_cell_volume                     3544.1
_exptl_crystal_colour            colorless
_exptl_crystal_description       needle
_cell_formula_units_Z            12
loop_
_atom_site_label
_atom_site_type_symbol
_atom_site_fract_x
_atom_site_fract_y
_atom_site_fract_z
C1 C 1.0456(2) 0.22838(8) 0.56599(11)
H1 H 1.0294 0.2012 0.6095
H2 H 1.0275 0.2671 0.5868
C2 C 0.92841(19) 0.21620(8) 0.50123(11)
H3 H 0.9177 0.1745 0.4942
H4 H 0.9637 0.2326 0.4510
C3 C 1.2795(2) 0.27995(9) 0.46833(12)
H5 H 1.3850 0.2772 0.4516
H6 H 1.2629 0.3167 0.4942
H7 H 1.2131 0.2769 0.4224
C4 C 1.3530(2) 0.22969(8) 0.62009(11)
H8 H 1.3296 0.1986 0.6564
H9 H 1.3334 0.2663 0.6458
H10 H 1.4596 0.2276 0.6050
C5 C 1.2731(2) 0.15719(8) 0.48888(12)
H11 H 1.2507 0.1261 0.5255
H12 H 1.3793 0.1551 0.4731
H13 H 1.2085 0.1537 0.4424
C6 C 0.7785(3) 0.33695(11) 0.43647(14)
H14 H 0.8403 0.3124 0.4039
H15 H 0.6764 0.3357 0.4158
C7 C 0.8309(8) 0.3915(2) 0.4298(3)
H16 H 0.8282 0.4031 0.3746
H17 H 0.9350 0.3934 0.4493
H18 H 0.7671 0.4171 0.4608
O1 O 0.77666(16) 0.31411(6) 0.51502(8)
O2 O 0.72143(14) 0.23996(6) 0.61283(7)
O3 O 0.63042(14) 0.22620(6) 0.47007(8)
P1 P 1.23833(5) 0.22357(2) 0.53539(3)
P2 P 0.74725(5) 0.24664(2) 0.52651(3)
C9 C 0.8061(2) 0.32429(8) 0.77182(11)
H24 H 0.8385 0.3242 0.8275
H25 H 0.8323 0.2868 0.7491
C10 C 0.8928(2) 0.37083(8) 0.72779(11)
H26 H 0.8526 0.4087 0.7427
H27 H 0.8781 0.3659 0.6706
C11 C 0.5503(2) 0.38654(9) 0.83647(12)
H28 H 0.4406 0.3918 0.8341
H29 H 0.6007 0.4226 0.8239
H30 H 0.5794 0.3744 0.8894
C12 C 0.5147(2) 0.26849(8) 0.79235(11)
H31 H 0.4049 0.2735 0.7900
H32 H 0.5443 0.2572 0.8456
H33 H 0.5451 0.2388 0.7552
C13 C 0.5483(2) 0.35806(8) 0.67275(11)
H34 H 0.4384 0.3630 0.6716
H35 H 0.5779 0.3300 0.6331
H36 H 0.5974 0.3946 0.6615
C14 C 1.1631(3) 0.41277(11) 0.61339(13)
H37 H 1.1196 0.3754 0.5987
H38 H 1.2686 0.4139 0.5943
C15 C 1.0776(4) 0.4575(2) 0.5755(2)
H39 H 1.0806 0.4521 0.5185
H40 H 1.1216 0.4946 0.5888
H41 H 0.9726 0.4562 0.5934
O4 O 1.16313(16) 0.41798(6) 0.69635(8)
O5 O 1.11646(15) 0.38838(6) 0.83214(8)
O6 O 1.15439(15) 0.31170(6) 0.72652(9)
P3 P 0.60501(5) 0.33365(2) 0.76745(3)
P4 P 1.09280(5) 0.36764(2) 0.75069(3)
C16 C -0.00272(19) 0.53727(8) 0.80349(11)
H42 H 0.0131 0.4955 0.8042
H43 H 0.0386 0.5522 0.7536
C17 C 0.08180(19) 0.56437(8) 0.87275(11)
H44 H 0.0334 0.5520 0.9222
H45 H 0.0718 0.6063 0.8692
C18 C 0.3849(2) 0.60104(8) 0.92339(12)
H46 H 0.4919 0.5904 0.9248
H47 H 0.3480 0.6063 0.9771
H48 H 0.3731 0.6367 0.8941
C19 C 0.3058(2) 0.48243(8) 0.93091(11)
H49 H 0.4135 0.4730 0.9326
H50 H 0.2500 0.4514 0.9056
H51 H 0.2684 0.4877 0.9845
C20 C 0.3519(2) 0.53656(9) 0.77999(11)
H52 H 0.4593 0.5267 0.7830
H53 H 0.3396 0.5719 0.7500
H54 H 0.2966 0.5057 0.7539
C21 C -0.2707(3) 0.55748(11) 0.65710(13)
H55 H -0.1667 0.5640 0.6378
H56 H -0.3181 0.5949 0.6672
C22 C -0.3607(3) 0.52513(14) 0.59699(15)
H57 H -0.3649 0.5471 0.5481
H58 H -0.4634 0.5190 0.6166
H59 H -0.3125 0.4883 0.5871
O7 O -0.26708(15) 0.52437(6) 0.72792(8)
O8 O -0.22524(15) 0.61541(6) 0.80642(8)
O9 O -0.27308(14) 0.51835(6) 0.87272(8)
P5 P 0.27936(5) 0.54633(2) 0.87658(3)
P6 P -0.20317(5) 0.55242(2) 0.80824(3)
H60 H 0.110(4) 0.2626(15) 0.2681(19)
H61 H 0.129(3) 0.3209(13) 0.2611(17)
O10 O 0.09051(18) 0.29849(8) 0.28580(9)
H62 H 0.122(4) 0.6797(13) 0.7455(18)
H63 H 0.224(3) 0.6895(12) 0.8000(17)
O11 O 0.20618(19) 0.66920(6) 0.76341(9)
H64 H 0.839(3) 0.4511(13) 0.9124(17)
H65 H 0.950(3) 0.4155(11) 0.9048(16)
O12 O 0.88211(19) 0.42427(7) 0.93399(9)
H19? H 0.8804 0.3517 0.4240
H20? H 0.7532 0.3067 0.3982
C8? C 0.6703(7) 0.3819(2) 0.4316(3)
H21? H 0.6702 0.3977 0.3784
H22? H 0.6967 0.4119 0.4693
H23? H 0.5697 0.3670 0.4438
loop_
_geom_bond_atom_site_label_1
_geom_bond_atom_site_label_2
_geom_bond_site_symmetry_1
_geom_bond_site_symmetry_2
C1 H1 1_555 1_555
H2 C1 1_555 1_555
C2 C1 1_555 1_555
H3 C2 1_555 1_555
H4 C2 1_555 1_555
C3 H5 1_555 1_555
H6 C3 1_555 1_555
H7 C3 1_555 1_555
C4 H8 1_555 1_555
H9 C4 1_555 1_555
H10 C4 1_555 1_555
C5 H11 1_555 1_555
H12 C5 1_555 1_555
H13 C5 1_555 1_555
C6 H14 1_555 1_555
H15 C6 1_555 1_555
C7 C6 1_555 1_555
H16 C7 1_555 1_555
H17 C7 1_555 1_555
H18 C7 1_555 1_555
O1 C6 1_555 1_555
O2 P2 1_555 1_555
O3 P2 1_555 1_555
P1 C1 1_555 1_555
P2 C2 1_555 1_555
C9 H24 1_555 1_555
H25 C9 1_555 1_555
C10 C9 1_555 1_555
H26 C10 1_555 1_555
H27 C10 1_555 1_555
C11 H28 1_555 1_555
H29 C11 1_555 1_555
H30 C11 1_555 1_555
C12 H31 1_555 1_555
H32 C12 1_555 1_555
H33 C12 1_555 1_555
C13 H34 1_555 1_555
H35 C13 1_555 1_555
H36 C13 1_555 1_555
C14 H37 1_555 1_555
H38 C14 1_555 1_555
C15 C14 1_555 1_555
H39 C15 1_555 1_555
H40 C15 1_555 1_555
H41 C15 1_555 1_555
O4 C14 1_555 1_555
O5 P4 1_555 1_555
O6 P4 1_555 1_555
P3 C9 1_555 1_555
P4 C10 1_555 1_555
C16 H42 1_555 1_555
H43 C16 1_555 1_555
C17 C16 1_555 1_555
H44 C17 1_555 1_555
H45 C17 1_555 1_555
C18 H46 1_555 1_555
H47 C18 1_555 1_555
H48 C18 1_555 1_555
C19 H49 1_555 1_555
H50 C19 1_555 1_555
H51 C19 1_555 1_555
C20 H52 1_555 1_555
H53 C20 1_555 1_555
H54 C20 1_555 1_555
C21 H55 1_555 1_555
H56 C21 1_555 1_555
C22 C21 1_555 1_555
H57 C22 1_555 1_555
H58 C22 1_555 1_555
H59 C22 1_555 1_555
O7 C21 1_555 1_555
O8 P6 1_555 1_555
O9 P6 1_555 1_555
P5 C17 1_555 1_555
P6 C16 1_555 1_555
H60 O10 1_555 1_555
H61 O10 1_555 1_555
H62 O11 1_555 1_555
H63 O11 1_555 1_555
H64 O12 1_555 1_555
H65 O12 1_555 1_555
C3 P1 1_555 1_555
C4 P1 1_555 1_555
C5 P1 1_555 1_555
O1 P2 1_555 1_555
C11 P3 1_555 1_555
C12 P3 1_555 1_555
C13 P3 1_555 1_555
O4 P4 1_555 1_555
C18 P5 1_555 1_555
C19 P5 1_555 1_555
C20 P5 1_555 1_555
O7 P6 1_555 1_555

#END
