
#######################################################################
#
#                 Cambridge Crystallographic Data Centre
#                                CCDC 
#
#######################################################################
#
# If this CIF has been generated from an entry in the Cambridge 
# Structural Database, then it will include bibliographic, chemical, 
# crystal, experimental, refinement or atomic coordinate data resulting 
# from the CCDC's data processing and validation procedures.
#
#######################################################################

data_NEZGUU
_chemical_formula_moiety         'C27 H29 As1 O6 S1'
_chemical_name_systematic        
5-Deoxy-5-diphenylarsino-1,2-O-isopropylidene-3-O-p-tosyl-\a-D-xylofuranose
_symmetry_cell_setting           monoclinic
_symmetry_space_group_name_H-M   'P 21'
_symmetry_Int_Tables_number      4
_space_group_name_Hall           'P 2yb'
loop_
_symmetry_equiv_pos_site_id
_symmetry_equiv_pos_as_xyz
1 x,y,z
2 -x,1/2+y,-z
_cell_length_a                   11.2939(11)
_cell_length_b                   5.4661(7)
_cell_length_c                   22.043(4)
_cell_angle_alpha                90
_cell_angle_beta                 99.199(11)
_cell_angle_gamma                90
_cell_volume                     1343.29
_exptl_crystal_colour            colorless
_chemical_melting_point          135-137deg.C
_cell_formula_units_Z            2
_exptl_crystal_recrystallization_method 'ethyl acetate/hexane'
loop_
_atom_site_label
_atom_site_type_symbol
_atom_site_fract_x
_atom_site_fract_y
_atom_site_fract_z
As1 As 0.2066(1) 1.0192(1) 0.2216(1)
S1 S 0.5946(1) 0.4970(3) 0.3766(1)
O1 O 0.4650(3) 0.9341(4) 0.2089(1)
O2 O 0.5531(3) 0.8222(5) 0.1256(2)
O3 O 0.6153(3) 0.4683(5) 0.1718(2)
O4 O 0.5604(3) 0.6701(5) 0.3197(1)
O5 O 0.6259(4) 0.2631(7) 0.3557(2)
O6 O 0.6776(3) 0.6327(8) 0.4189(2)
C1 C 0.5718(4) 0.8733(8) 0.1884(3)
C2 C 0.6175(4) 0.6352(7) 0.2193(2)
C3 C 0.5224(3) 0.5684(8) 0.2591(2)
C4 C 0.4147(3) 0.7081(6) 0.2269(2)
C5 C 0.3131(4) 0.7600(7) 0.2621(2)
C6 C 0.6116(5) 0.5963(9) 0.1164(3)
C7 C 0.7362(6) 0.6470(12) 0.1027(3)
C8 C 0.5355(6) 0.4564(11) 0.0665(3)
C9 C 0.4600(4) 0.4716(8) 0.4055(2)
C10 C 0.4277(6) 0.6418(9) 0.4446(3)
C11 C 0.3150(8) 0.6138(15) 0.4659(3)
C12 C 0.2436(7) 0.4236(20) 0.4472(4)
C13 C 0.2774(9) 0.2636(15) 0.4079(4)
C14 C 0.3846(7) 0.2810(10) 0.3875(3)
C15 C 0.1278(7) 0.3999(17) 0.4737(3)
C16 C 0.0681(4) 0.9707(9) 0.2638(2)
C17 C 0.0542(5) 0.7928(12) 0.3052(3)
C18 C -0.0411(6) 0.7855(13) 0.3360(3)
C19 C -0.1295(5) 0.9538(14) 0.3250(3)
C20 C -0.1194(6) 1.1196(12) 0.2837(4)
C21 C -0.0241(6) 1.1308(9) 0.2526(4)
C22 C 0.1582(4) 0.8369(8) 0.1453(2)
C23 C 0.0743(5) 0.6519(9) 0.1379(3)
C24 C 0.0523(4) 0.5248(15) 0.0845(3)
C25 C 0.1118(6) 0.5619(17) 0.0377(3)
C26 C 0.1929(7) 0.7454(18) 0.0430(3)
C27 C 0.2161(5) 0.8797(11) 0.0967(3)
loop_
_geom_bond_atom_site_label_1
_geom_bond_atom_site_label_2
_geom_bond_site_symmetry_1
_geom_bond_site_symmetry_2
As1 C5 1_555 1_555
S1 O4 1_555 1_555
O1 C1 1_555 1_555
O2 C1 1_555 1_555
O3 C2 1_555 1_555
O4 C3 1_555 1_555
O5 S1 1_555 1_555
O6 S1 1_555 1_555
C1 C2 1_555 1_555
C2 C3 1_555 1_555
C3 C4 1_555 1_555
C4 O1 1_555 1_555
C5 C4 1_555 1_555
C6 O2 1_555 1_555
C7 C6 1_555 1_555
C8 C6 1_555 1_555
C9 S1 1_555 1_555
C10 C9 1_555 1_555
C11 C10 1_555 1_555
C12 C11 1_555 1_555
C13 C12 1_555 1_555
C14 C9 1_555 1_555
C15 C12 1_555 1_555
C16 As1 1_555 1_555
C17 C16 1_555 1_555
C18 C17 1_555 1_555
C19 C18 1_555 1_555
C20 C19 1_555 1_555
C21 C16 1_555 1_555
C22 As1 1_555 1_555
C23 C22 1_555 1_555
C24 C23 1_555 1_555
C25 C24 1_555 1_555
C26 C25 1_555 1_555
C27 C22 1_555 1_555
O3 C6 1_555 1_555
C13 C14 1_555 1_555
C20 C21 1_555 1_555
C26 C27 1_555 1_555

#END
