
#######################################################################
#
#                 Cambridge Crystallographic Data Centre
#                                CCDC 
#
#######################################################################
#
# If this CIF has been generated from an entry in the Cambridge 
# Structural Database, then it will include bibliographic, chemical, 
# crystal, experimental, refinement or atomic coordinate data resulting 
# from the CCDC's data processing and validation procedures.
#
#######################################################################

data_NEZJEJ
_chemical_formula_moiety         'C18 H25 Cl1 O2'
_chemical_name_systematic        
(1S,2R,3R,5R)-2-(2-(4-Chlorophenyl)ethyl)-1,4,4-trimethyl-8-oxabicyclo[3.2.1]octan-3-ol
_symmetry_cell_setting           monoclinic
_symmetry_space_group_name_H-M   'P 21'
_symmetry_Int_Tables_number      4
_space_group_name_Hall           'P 2yb'
loop_
_symmetry_equiv_pos_site_id
_symmetry_equiv_pos_as_xyz
1 x,y,z
2 -x,1/2+y,-z
_cell_length_a                   7.4991(4)
_cell_length_b                   6.1575(3)
_cell_length_c                   18.1797(9)
_cell_angle_alpha                90
_cell_angle_beta                 96.017(2)
_cell_angle_gamma                90
_cell_volume                     834.836
_exptl_crystal_colour            colorless
_exptl_crystal_description       plate
_chemical_melting_point          '112-114 deg.C'
_cell_formula_units_Z            2
loop_
_atom_site_label
_atom_site_type_symbol
_atom_site_fract_x
_atom_site_fract_y
_atom_site_fract_z
C1 C 0.83261(14) 0.0807(2) 0.57743(5)
C2 C 0.85691(15) -0.1041(2) 0.53668(6)
H1 H 0.9268 -0.2215 0.5578
C3 C 0.77738(16) -0.1156(2) 0.46420(7)
H2 H 0.7936 -0.2423 0.4358
C4 C 0.67420(14) 0.0551(2) 0.43225(6)
C5 C 0.65329(15) 0.2402(2) 0.47463(6)
H3 H 0.5842 0.3583 0.4536
C6 C 0.73220(16) 0.2546(2) 0.54736(6)
H4 H 0.7175 0.3814 0.5759
C7 C 0.59047(15) 0.0409(2) 0.35316(6)
H5 H 0.4880 0.1428 0.3460
H6 H 0.5435 -0.1078 0.3435
C8 C 0.72454(13) 0.0950(2) 0.29719(5)
H7 H 0.8287 -0.0041 0.3052
H8 H 0.7687 0.2453 0.3058
C9 C 0.63903(13) 0.0734(2) 0.21626(5)
H9 H 0.5250 -0.0097 0.2181
C10 C 0.58628(13) 0.2934(2) 0.17938(6)
C11 C 0.48693(15) 0.4434(2) 0.22775(6)
H10 H 0.5659 0.4818 0.2723
H11 H 0.3801 0.3693 0.2420
H12 H 0.4509 0.5757 0.2001
C12 C 0.48889(14) 0.2622(2) 0.10071(6)
H13 H 0.4022 0.3812 0.0881
H14 H 0.4243 0.1219 0.0967
C13 C 0.64116(15) 0.2664(2) 0.04937(6)
H15 H 0.6428 0.1308 0.0202
H16 H 0.6277 0.3917 0.0151
C14 C 0.81158(14) 0.2879(2) 0.10351(6)
H17 H 0.9022 0.3771 0.0804
C15 C 0.89775(13) 0.0742(2) 0.13228(5)
C16 C 0.75728(14) -0.0633(2) 0.16838(6)
H18 H 0.8232 -0.1736 0.2012
C17 C 0.97134(16) -0.0517(2) 0.06920(6)
H19 H 0.8730 -0.0859 0.0311
H20 H 1.0271 -0.1868 0.0886
H21 H 1.0609 0.0371 0.0476
C18 C 1.05633(14) 0.1273(3) 0.18987(6)
H22 H 1.1455 0.2123 0.1665
H23 H 1.1111 -0.0080 0.2096
H24 H 1.0136 0.2115 0.2303
Cl1 Cl 0.93071(4) 0.09696(7) 0.668578(14)
O1 O 0.75032(10) 0.40596(15) 0.16514(4)
O2 O 0.64315(12) -0.17738(15) 0.11279(5)
H25 H 0.6620 -0.3115 0.1171
loop_
_geom_bond_atom_site_label_1
_geom_bond_atom_site_label_2
_geom_bond_site_symmetry_1
_geom_bond_site_symmetry_2
C1 C2 1_555 1_555
C2 H1 1_555 1_555
C3 C2 1_555 1_555
H2 C3 1_555 1_555
C4 C3 1_555 1_555
C5 C4 1_555 1_555
H3 C5 1_555 1_555
C6 C1 1_555 1_555
H4 C6 1_555 1_555
C7 C4 1_555 1_555
H5 C7 1_555 1_555
H6 C7 1_555 1_555
C8 C7 1_555 1_555
H7 C8 1_555 1_555
H8 C8 1_555 1_555
C9 C8 1_555 1_555
H9 C9 1_555 1_555
C10 C9 1_555 1_555
C11 C10 1_555 1_555
H10 C11 1_555 1_555
H11 C11 1_555 1_555
H12 C11 1_555 1_555
C12 C10 1_555 1_555
H13 C12 1_555 1_555
H14 C12 1_555 1_555
C13 C12 1_555 1_555
H15 C13 1_555 1_555
H16 C13 1_555 1_555
C14 C13 1_555 1_555
H17 C14 1_555 1_555
C15 C14 1_555 1_555
C16 C9 1_555 1_555
H18 C16 1_555 1_555
C17 C15 1_555 1_555
H19 C17 1_555 1_555
H20 C17 1_555 1_555
H21 C17 1_555 1_555
C18 C15 1_555 1_555
H22 C18 1_555 1_555
H23 C18 1_555 1_555
H24 C18 1_555 1_555
Cl1 C1 1_555 1_555
O1 C10 1_555 1_555
O2 C16 1_555 1_555
H25 O2 1_555 1_555
C5 C6 1_555 1_555
C14 O1 1_555 1_555
C15 C16 1_555 1_555

#END
