
#######################################################################
#
#                 Cambridge Crystallographic Data Centre
#                                CCDC 
#
#######################################################################
#
# If this CIF has been generated from an entry in the Cambridge 
# Structural Database, then it will include bibliographic, chemical, 
# crystal, experimental, refinement or atomic coordinate data resulting 
# from the CCDC's data processing and validation procedures.
#
#######################################################################

data_NEZJIN
_chemical_formula_moiety         'C19 H28 O3,0.5(H2 O1)'
_chemical_name_systematic        
'syn-2-(2-(4-Methoxyphenyl)ethyl)-1,4,4-trimethyl-8-oxabicyclo[3.2.1]octan-3-ol hemihydrate'
_symmetry_cell_setting           monoclinic
_symmetry_space_group_name_H-M   'P 21/c'
_symmetry_Int_Tables_number      14
_space_group_name_Hall           '-P 2ybc'
loop_
_symmetry_equiv_pos_site_id
_symmetry_equiv_pos_as_xyz
1 x,y,z
2 -x,1/2+y,1/2-z
3 -x,-y,-z
4 x,1/2-y,1/2+z
_cell_length_a                   8.8718(2)
_cell_length_b                   41.4262(9)
_cell_length_c                   9.5153(2)
_cell_angle_alpha                90
_cell_angle_beta                 94.5870(10)
_cell_angle_gamma                90
_cell_volume                     3485.91
_exptl_crystal_colour            colorless
_exptl_crystal_description       prism
_cell_formula_units_Z            8
loop_
_atom_site_label
_atom_site_type_symbol
_atom_site_fract_x
_atom_site_fract_y
_atom_site_fract_z
C1 C 0.14272(14) 0.08234(3) 0.76101(12)
H1 H 0.2552 0.0799 0.7700
C2 C 0.07304(14) 0.04849(3) 0.72982(13)
C3 C 0.16723(16) 0.03105(3) 0.62463(14)
H2 H 0.1248 0.0095 0.6048
H3 H 0.2719 0.0290 0.6650
H4 H 0.1651 0.0435 0.5369
C4 C 0.07433(16) 0.02764(3) 0.86282(14)
H5 H 0.0130 0.0380 0.9312
H6 H 0.1785 0.0252 0.9042
H7 H 0.0323 0.0063 0.8382
C5 C -0.08967(14) 0.05198(3) 0.66280(12)
H8 H -0.1330 0.0302 0.6391
C6 C -0.19687(15) 0.07084(3) 0.75083(13)
H9 H -0.1681 0.0682 0.8529
H10 H -0.3026 0.0636 0.7304
C7 C -0.17763(15) 0.10613(3) 0.70475(14)
H11 H -0.2757 0.1155 0.6681
H12 H -0.1349 0.1195 0.7845
C8 C -0.06750(14) 0.10420(3) 0.58796(13)
C9 C -0.11168(16) 0.12630(3) 0.46438(14)
H13 H -0.0360 0.1247 0.3951
H14 H -0.1169 0.1486 0.4979
H15 H -0.2107 0.1198 0.4203
C10 C 0.10110(14) 0.10677(3) 0.64130(13)
H16 H 0.1593 0.1000 0.5605
C11 C 0.15428(15) 0.14112(3) 0.67935(14)
H17 H 0.1269 0.1556 0.5984
H18 H 0.1006 0.1488 0.7602
C12 C 0.32512(16) 0.14324(3) 0.71741(15)
H19 H 0.3506 0.1301 0.8030
H20 H 0.3780 0.1336 0.6397
C13 C 0.38380(15) 0.17707(3) 0.74386(14)
C14 C 0.34163(16) 0.19508(3) 0.85849(14)
H21 H 0.2729 0.1861 0.9193
C15 C 0.39805(16) 0.22585(3) 0.88519(14)
H22 H 0.3678 0.2377 0.9636
C16 C 0.49898(15) 0.23941(3) 0.79722(14)
C17 C 0.54173(16) 0.22219(4) 0.68241(15)
H23 H 0.6101 0.2313 0.6216
C18 C 0.48339(16) 0.19129(3) 0.65684(15)
H24 H 0.5126 0.1796 0.5775
C19 C 0.6526(2) 0.28433(4) 0.74566(17)
H25 H 0.7445 0.2712 0.7495
H26 H 0.6778 0.3061 0.7800
H27 H 0.6082 0.2855 0.6481
O1 O 0.09879(11) 0.09605(2) 0.88921(9)
H28 H 0.1485 0.0874 0.9580
O2 O -0.08850(10) 0.07122(2) 0.53658(9)
O3 O 0.54698(12) 0.27012(2) 0.83175(11)
C20 C 0.36473(13) 0.07720(3) 0.25252(12)
H29 H 0.3161 0.0823 0.3411
C21 C 0.46399(14) 0.04672(3) 0.28074(13)
C22 C 0.54594(15) 0.04930(3) 0.42889(14)
H30 H 0.4712 0.0510 0.4990
H31 H 0.6106 0.0685 0.4339
H32 H 0.6083 0.0300 0.4482
C23 C 0.36672(15) 0.01616(3) 0.27539(14)
H33 H 0.4316 -0.0027 0.2949
H34 H 0.3136 0.0140 0.1815
H35 H 0.2928 0.0176 0.3463
C24 C 0.58444(14) 0.04456(3) 0.17336(14)
H36 H 0.6495 0.0252 0.1939
C25 C 0.52423(16) 0.04447(3) 0.01728(13)
H37 H 0.4243 0.0338 0.0043
H38 H 0.5954 0.0334 -0.0416
C26 C 0.51167(14) 0.08060(3) -0.01946(12)
H39 H 0.4047 0.0869 -0.0409
H40 H 0.5690 0.0857 -0.1017
C27 C 0.58043(14) 0.09796(3) 0.11376(13)
C28 C 0.68199(15) 0.12591(3) 0.08173(14)
H41 H 0.7190 0.1365 0.1700
H42 H 0.6247 0.1415 0.0211
H43 H 0.7680 0.1179 0.0334
C29 C 0.46021(14) 0.10686(3) 0.21596(13)
H44 H 0.5167 0.1139 0.3059
C30 C 0.36231(14) 0.13547(3) 0.16386(13)
H45 H 0.4288 0.1543 0.1520
H46 H 0.3125 0.1301 0.0700
C31 C 0.24088(16) 0.14507(4) 0.26109(15)
H47 H 0.1733 0.1264 0.2735
H48 H 0.2895 0.1510 0.3548
C32 C 0.14908(15) 0.17317(3) 0.20115(15)
C33 C 0.03307(16) 0.16835(3) 0.09513(16)
H49 H 0.0087 0.1470 0.0647
C34 C -0.04705(16) 0.19408(4) 0.03357(17)
H50 H -0.1263 0.1903 -0.0378
C35 C -0.01105(16) 0.22538(3) 0.07657(17)
C36 C 0.10425(17) 0.23080(3) 0.18032(17)
H51 H 0.1295 0.2522 0.2096
C37 C 0.18314(17) 0.20463(4) 0.24155(16)
H52 H 0.2623 0.2084 0.3128
C38 C -0.0649(14) 0.2820(2) 0.0568(15)
H53 H -0.0806 0.2824 0.1575
H54 H -0.1350 0.2971 0.0063
H55 H 0.0394 0.2883 0.0432
O4 O -0.0918(19) 0.2502(4) 0.0033(17)
O5 O 0.24634(10) 0.07182(2) 0.14332(9)
H56 H 0.1682 0.0654 0.1794
O6 O 0.67610(10) 0.07325(2) 0.18309(9)
O8 O 0.98267(10) 0.05795(3) 0.26179(10)
H60 H 0.8967 0.0642 0.2227
H61 H 0.9739 0.0602 0.3507
C39? C -0.051(3) 0.2806(5) 0.038(2)
H57? H -0.0622 0.2886 0.1331
H58? H -0.1075 0.2944 -0.0312
H59? H 0.0566 0.2808 0.0198
O7? O -0.109(3) 0.2472(7) 0.025(3)
loop_
_geom_bond_atom_site_label_1
_geom_bond_atom_site_label_2
_geom_bond_site_symmetry_1
_geom_bond_site_symmetry_2
C1 H1 1_555 1_555
C2 C1 1_555 1_555
C3 C2 1_555 1_555
H2 C3 1_555 1_555
H3 C3 1_555 1_555
H4 C3 1_555 1_555
C4 C2 1_555 1_555
H5 C4 1_555 1_555
H6 C4 1_555 1_555
H7 C4 1_555 1_555
C5 C2 1_555 1_555
H8 C5 1_555 1_555
C6 C5 1_555 1_555
H9 C6 1_555 1_555
H10 C6 1_555 1_555
C7 C6 1_555 1_555
H11 C7 1_555 1_555
H12 C7 1_555 1_555
C8 C7 1_555 1_555
C9 C8 1_555 1_555
H13 C9 1_555 1_555
H14 C9 1_555 1_555
H15 C9 1_555 1_555
C10 C1 1_555 1_555
H16 C10 1_555 1_555
C11 C10 1_555 1_555
H17 C11 1_555 1_555
H18 C11 1_555 1_555
C12 C11 1_555 1_555
H19 C12 1_555 1_555
H20 C12 1_555 1_555
C13 C12 1_555 1_555
C14 C13 1_555 1_555
H21 C14 1_555 1_555
C15 C14 1_555 1_555
H22 C15 1_555 1_555
C16 C15 1_555 1_555
C17 C16 1_555 1_555
H23 C17 1_555 1_555
C18 C13 1_555 1_555
H24 C18 1_555 1_555
C19 H25 1_555 1_555
H26 C19 1_555 1_555
H27 C19 1_555 1_555
O1 C1 1_555 1_555
H28 O1 1_555 1_555
O2 C5 1_555 1_555
O3 C16 1_555 1_555
C20 H29 1_555 1_555
C21 C20 1_555 1_555
C22 C21 1_555 1_555
H30 C22 1_555 1_555
H31 C22 1_555 1_555
H32 C22 1_555 1_555
C23 C21 1_555 1_555
H33 C23 1_555 1_555
H34 C23 1_555 1_555
H35 C23 1_555 1_555
C24 C21 1_555 1_555
H36 C24 1_555 1_555
C25 C24 1_555 1_555
H37 C25 1_555 1_555
H38 C25 1_555 1_555
C26 C25 1_555 1_555
H39 C26 1_555 1_555
H40 C26 1_555 1_555
C27 C26 1_555 1_555
C28 C27 1_555 1_555
H41 C28 1_555 1_555
H42 C28 1_555 1_555
H43 C28 1_555 1_555
C29 C20 1_555 1_555
H44 C29 1_555 1_555
C30 C29 1_555 1_555
H45 C30 1_555 1_555
H46 C30 1_555 1_555
C31 C30 1_555 1_555
H47 C31 1_555 1_555
H48 C31 1_555 1_555
C32 C31 1_555 1_555
C33 C32 1_555 1_555
H49 C33 1_555 1_555
C34 C33 1_555 1_555
H50 C34 1_555 1_555
C35 C34 1_555 1_555
C36 C35 1_555 1_555
H51 C36 1_555 1_555
C37 C32 1_555 1_555
H52 C37 1_555 1_555
C38 H53 1_555 1_555
H54 C38 1_555 1_555
H55 C38 1_555 1_555
O4 C35 1_555 1_555
O5 C20 1_555 1_555
H56 O5 1_555 1_555
O6 C24 1_555 1_555
O8 H60 1_555 1_555
H61 O8 1_555 1_555
C8 C10 1_555 1_555
C8 O2 1_555 1_555
C17 C18 1_555 1_555
C19 O3 1_555 1_555
C27 C29 1_555 1_555
C27 O6 1_555 1_555
C36 C37 1_555 1_555
C38 O4 1_555 1_555

#END
