
#######################################################################
#
#                 Cambridge Crystallographic Data Centre
#                                CCDC 
#
#######################################################################
#
# If this CIF has been generated from an entry in the Cambridge 
# Structural Database, then it will include bibliographic, chemical, 
# crystal, experimental, refinement or atomic coordinate data resulting 
# from the CCDC's data processing and validation procedures.
#
#######################################################################

data_NEZLIP
_chemical_compound_source        'bark of Ilex rotunda Thunb'
_chemical_name_common            'Pedunculoside methanol solvate'
_chemical_formula_moiety         'C36 H58 O10,0.75(C1 H4 O1)'
_chemical_name_systematic        
'3,4,5-Trihydroxy-6-(hydroxymethyl)tetrahydro-2H-pyran-2-yl 3\b,19\a,23-trihydroxyurs-12-en-28-oate methanol solvate'
_symmetry_cell_setting           orthorhombic
_symmetry_space_group_name_H-M   'P 21 21 21'
_symmetry_Int_Tables_number      19
_space_group_name_Hall           'P 2ac 2ab'
loop_
_symmetry_equiv_pos_site_id
_symmetry_equiv_pos_as_xyz
1 x,y,z
2 1/2-x,-y,1/2+z
3 -x,1/2+y,1/2-z
4 1/2+x,1/2-y,-z
_cell_length_a                   13.046(3)
_cell_length_b                   21.038(4)
_cell_length_c                   28.413(6)
_cell_angle_alpha                90
_cell_angle_beta                 90
_cell_angle_gamma                90
_cell_volume                     7798.28
_exptl_crystal_colour            colorless
_exptl_crystal_description       block
_cell_formula_units_Z            8
loop_
_atom_site_label
_atom_site_type_symbol
_atom_site_fract_x
_atom_site_fract_y
_atom_site_fract_z
O11 O 0.14821(19) 0.06050(13) 0.65796(9)
H59 H 0.1455 0.0232 0.6475
O12 O 0.2501(2) -0.06847(12) 0.71681(10)
H60 H 0.2612 -0.1029 0.7309
O13 O 0.82695(16) 0.04841(10) 0.85327(8)
H61 H 0.8262 0.0539 0.8240
O14 O 0.59046(19) 0.18311(10) 0.96525(8)
O15 O 0.57912(17) 0.09203(10) 1.00644(7)
O16 O 0.56905(17) 0.15221(11) 1.07205(8)
O17 O 0.38009(19) 0.04386(11) 1.02239(8)
H62 H 0.3658 0.0062 1.0296
O18 O 0.3111(2) 0.05832(12) 1.11838(9)
H63 H 0.2742 0.0765 1.1385
O19 O 0.36159(19) 0.17724(14) 1.15641(9)
H64 H 0.3895 0.1919 1.1807
O20 O 0.6335(2) 0.18499(13) 1.16741(9)
H65 H 0.6714 0.1530 1.1645
C37 C 0.3535(3) 0.13987(16) 0.72823(11)
H66 H 0.3745 0.1850 0.7299
H67 H 0.4116 0.1155 0.7149
C38 C 0.5081(2) 0.12161(15) 1.03743(11)
H68 H 0.4660 0.1536 1.0200
C39 C 0.2623(3) 0.13408(17) 0.69527(12)
H69 H 0.2818 0.1487 0.6634
H70 H 0.2055 0.1613 0.7067
C40 C 0.4401(2) 0.07136(15) 1.05849(10)
H71 H 0.4830 0.0379 1.0739
C41 C 0.2266(2) 0.06450(17) 0.69306(11)
H72 H 0.2859 0.0384 0.6820
C42 C 0.3738(2) 0.10441(16) 1.09518(11)
H73 H 0.3271 0.1343 1.0782
C43 C 0.1941(2) 0.03901(16) 0.74145(12)
C44 C 0.4339(3) 0.14271(16) 1.13036(11)
H74 H 0.4739 0.1139 1.1515
C45 C 0.2848(3) 0.04799(15) 0.77567(11)
H75 H 0.3407 0.0212 0.7620
C46 C 0.5057(3) 0.18730(15) 1.10404(12)
H76 H 0.4634 0.2181 1.0856
C47 C 0.2702(2) 0.02141(16) 0.82557(11)
H77 H 0.2350 -0.0202 0.8239
H78 H 0.2267 0.0507 0.8441
C48 C 0.5773(3) 0.22466(17) 1.13623(13)
H79 H 0.6260 0.2493 1.1167
H80 H 0.5365 0.2553 1.1549
C49 C 0.3749(2) 0.01339(15) 0.85009(11)
H81 H 0.4141 -0.0200 0.8334
H82 H 0.3630 -0.0018 0.8826
C50 C 0.4419(2) 0.07466(15) 0.85234(11)
C51 C 0.4393(2) 0.10866(15) 0.80350(10)
H83 H 0.4800 0.0805 0.7822
C52 C 0.3322(2) 0.11584(15) 0.77834(11)
C53 C 0.5009(2) 0.17066(14) 0.80612(12)
H84 H 0.5239 0.1820 0.7740
H85 H 0.4551 0.2050 0.8173
C54 C 0.5922(2) 0.16808(14) 0.83748(11)
H86 H 0.6337 0.2051 0.8389
C55 C 0.6216(2) 0.11858(14) 0.86391(10)
C56 C 0.5577(2) 0.05742(14) 0.86320(10)
C57 C 0.5645(2) 0.01993(14) 0.90977(11)
H87 H 0.5107 0.0359 0.9313
H88 H 0.5492 -0.0253 0.9031
C58 C 0.6685(2) 0.02365(14) 0.93531(10)
H89 H 0.7215 0.0019 0.9163
H90 H 0.6636 0.0016 0.9660
C59 C 0.7000(2) 0.09348(14) 0.94328(10)
C60 C 0.7169(2) 0.12724(14) 0.89546(10)
H91 H 0.7190 0.1736 0.9030
C61 C 0.8229(2) 0.11233(15) 0.87217(11)
C62 C 0.9112(2) 0.11848(15) 0.90772(11)
H92 H 0.9140 0.1640 0.9177
C63 C 0.8913(2) 0.07929(15) 0.95148(11)
H93 H 0.8875 0.0338 0.9429
H94 H 0.9490 0.0848 0.9738
C64 C 0.7924(3) 0.09902(15) 0.97512(11)
H95 H 0.7815 0.0721 1.0033
H96 H 0.7988 0.1436 0.9858
C65 C 0.1669(3) -0.03212(17) 0.73600(12)
H97 H 0.1481 -0.0497 0.7672
H98 H 0.1065 -0.0362 0.7151
C66 C 0.0928(3) 0.0683(2) 0.75892(12)
H99 H 0.1022 0.1140 0.7642
H100 H 0.0724 0.0479 0.7885
H101 H 0.0392 0.0617 0.7352
C67 C 0.2605(3) 0.16456(16) 0.80226(12)
H102 H 0.2045 0.1755 0.7807
H103 H 0.2993 0.2030 0.8101
H104 H 0.2321 0.1461 0.8311
C68 C 0.3980(3) 0.11830(17) 0.89116(11)
H105 H 0.3264 0.1285 0.8839
H106 H 0.4381 0.1576 0.8926
H107 H 0.4015 0.0964 0.9216
C69 C 0.6060(2) 0.01302(15) 0.82459(11)
H108 H 0.6774 0.0037 0.8328
H109 H 0.6037 0.0344 0.7940
H110 H 0.5671 -0.0268 0.8229
C70 C 0.6165(2) 0.12856(15) 0.97030(10)
C71 C 0.8400(3) 0.15879(16) 0.83151(11)
H111 H 0.9063 0.1499 0.8166
H112 H 0.8398 0.2024 0.8436
H113 H 0.7851 0.1538 0.8083
C72 C 1.0166(2) 0.10164(18) 0.88743(12)
H114 H 1.0689 0.1068 0.9119
H115 H 1.0321 0.1299 0.8610
H116 H 1.0162 0.0575 0.8765
O1 O 0.8321(2) 0.04317(13) 0.74285(9)
H1 H 0.8306 0.0055 0.7527
O2 O 0.7408(4) -0.07680(17) 0.65741(13)
H2 H 0.6857 -0.0718 0.6722
O3 O 0.16029(18) 0.08041(10) 0.55158(8)
H3 H 0.1576 0.0815 0.5811
O4 O 0.4055(2) 0.21321(11) 0.44360(8)
O5 O 0.40531(17) 0.12636(11) 0.39690(7)
O6 O 0.44283(17) 0.18998(11) 0.33495(7)
O7 O 0.5924(2) 0.06462(12) 0.38731(8)
H4 H 0.6172 0.0303 0.3775
O8 O 0.68147(19) 0.07423(11) 0.29457(8)
H5 H 0.7329 0.0948 0.2853
O9 O 0.66673(18) 0.20361(12) 0.25824(9)
H6 H 0.6460 0.2139 0.2313
O10 O 0.3983(2) 0.22728(13) 0.24191(8)
H7 H 0.3506 0.2085 0.2561
C1 C 0.7881(3) 0.03857(17) 0.65802(12)
C2 C 0.6960(2) 0.05520(15) 0.62449(11)
H8 H 0.6391 0.0268 0.6352
C3 C 0.6515(2) 0.12361(15) 0.62909(11)
C4 C 0.6280(3) 0.13527(17) 0.68047(11)
H9 H 0.5669 0.1099 0.6891
H10 H 0.6098 0.1806 0.6844
C5 C 0.7135(3) 0.11945(18) 0.71471(12)
H11 H 0.7710 0.1495 0.7099
H12 H 0.6881 0.1250 0.7473
C6 C 0.7523(2) 0.05232(17) 0.70871(11)
H13 H 0.6950 0.0225 0.7164
C7 C 0.8150(4) -0.03193(19) 0.65326(16)
H14 H 0.8475 -0.0377 0.6221
H15 H 0.8680 -0.0415 0.6772
C8 C 0.8883(3) 0.0728(2) 0.64606(13)
H16 H 0.9456 0.0512 0.6616
H17 H 0.8846 0.1169 0.6570
H18 H 0.8989 0.0721 0.6119
C9 C 0.7249(3) 0.17508(18) 0.61226(13)
H19 H 0.7718 0.1864 0.6379
H20 H 0.6858 0.2127 0.6027
H21 H 0.7644 0.1592 0.5854
C10 C 0.7113(2) 0.03805(18) 0.57248(12)
H22 H 0.7551 0.0705 0.5572
H23 H 0.7464 -0.0035 0.5701
C11 C 0.6089(3) 0.03475(16) 0.54744(11)
H24 H 0.5687 -0.0008 0.5608
H25 H 0.6211 0.0253 0.5138
C12 C 0.5451(2) 0.09638(14) 0.55119(10)
C13 C 0.5463(2) 0.12204(16) 0.60173(11)
H26 H 0.5019 0.0922 0.6200
C14 C 0.4275(2) 0.08190(14) 0.53928(10)
C15 C 0.3674(2) 0.14515(14) 0.54111(10)
C16 C 0.3993(3) 0.18969(14) 0.57001(11)
H27 H 0.3614 0.2283 0.5702
C17 C 0.4900(3) 0.18608(17) 0.60310(13)
H28 H 0.4658 0.1939 0.6356
H29 H 0.5390 0.2203 0.5949
C18 C 0.5917(3) 0.14379(16) 0.51536(11)
H30 H 0.6635 0.1520 0.5235
H31 H 0.5531 0.1837 0.5163
H32 H 0.5880 0.1256 0.4837
C19 C 0.3787(3) 0.03586(15) 0.57454(11)
H33 H 0.3071 0.0282 0.5658
H34 H 0.3815 0.0544 0.6062
H35 H 0.4163 -0.0045 0.5742
C20 C 0.4214(2) 0.04887(16) 0.49044(11)
H36 H 0.4747 0.0672 0.4697
H37 H 0.4371 0.0031 0.4945
C21 C 0.3168(2) 0.05525(14) 0.46601(11)
H38 H 0.3197 0.0350 0.4346
H39 H 0.2637 0.0332 0.4848
C22 C 0.2887(2) 0.12561(14) 0.46074(10)
C23 C 0.2738(2) 0.15756(14) 0.50931(10)
H40 H 0.2749 0.2043 0.5029
C24 C 0.1929(3) 0.13343(15) 0.42875(11)
H41 H 0.1874 0.1784 0.4187
H42 H 0.2017 0.1071 0.4002
C25 C 0.0951(2) 0.11421(15) 0.45335(11)
H43 H 0.0985 0.0685 0.4613
H44 H 0.0365 0.1205 0.4317
C26 C 0.0768(3) 0.15247(17) 0.49822(12)
H45 H 0.0752 0.1983 0.4889
C27 C 0.1669(2) 0.14456(15) 0.53345(11)
C28 C -0.0280(3) 0.13688(19) 0.51879(14)
H46 H -0.0807 0.1428 0.4946
H47 H -0.0420 0.1652 0.5454
H48 H -0.0287 0.0926 0.5296
C29 C 0.1499(3) 0.19160(17) 0.57365(12)
H49 H 0.0835 0.1832 0.5885
H50 H 0.1507 0.2351 0.5612
H51 H 0.2047 0.1868 0.5970
C30 C 0.3726(3) 0.16106(15) 0.43477(11)
C31 C 0.4880(2) 0.15250(15) 0.37012(11)
H52 H 0.5328 0.1793 0.3907
C32 C 0.5491(3) 0.09830(16) 0.34942(12)
H53 H 0.5029 0.0697 0.3309
C33 C 0.6302(2) 0.12587(15) 0.31769(10)
H54 H 0.6812 0.1493 0.3375
C34 C 0.5845(2) 0.17210(15) 0.28186(11)
H55 H 0.5420 0.1482 0.2585
C35 C 0.5190(3) 0.22125(16) 0.30650(12)
H56 H 0.5634 0.2483 0.3270
C36 C 0.4606(3) 0.26293(18) 0.27291(12)
H57 H 0.4169 0.2926 0.2911
H58 H 0.5097 0.2886 0.2543
loop_
_geom_bond_atom_site_label_1
_geom_bond_atom_site_label_2
_geom_bond_site_symmetry_1
_geom_bond_site_symmetry_2
O1 H1 1_555 1_555
O2 H2 1_555 1_555
O3 H3 1_555 1_555
O4 C30 1_555 1_555
O5 C30 1_555 1_555
O6 C31 1_555 1_555
O7 H4 1_555 1_555
O8 H5 1_555 1_555
O9 H6 1_555 1_555
O10 H7 1_555 1_555
C1 C2 1_555 1_555
C2 H8 1_555 1_555
C3 C2 1_555 1_555
C4 C3 1_555 1_555
H9 C4 1_555 1_555
H10 C4 1_555 1_555
C5 C4 1_555 1_555
H11 C5 1_555 1_555
H12 C5 1_555 1_555
C6 O1 1_555 1_555
H13 C6 1_555 1_555
C7 O2 1_555 1_555
H14 C7 1_555 1_555
H15 C7 1_555 1_555
C8 C1 1_555 1_555
H16 C8 1_555 1_555
H17 C8 1_555 1_555
H18 C8 1_555 1_555
C9 C3 1_555 1_555
H19 C9 1_555 1_555
H20 C9 1_555 1_555
H21 C9 1_555 1_555
C10 C2 1_555 1_555
H22 C10 1_555 1_555
H23 C10 1_555 1_555
C11 C10 1_555 1_555
H24 C11 1_555 1_555
H25 C11 1_555 1_555
C12 C11 1_555 1_555
C13 C3 1_555 1_555
H26 C13 1_555 1_555
C14 C12 1_555 1_555
C15 C14 1_555 1_555
C16 C15 1_555 1_555
H27 C16 1_555 1_555
C17 C13 1_555 1_555
H28 C17 1_555 1_555
H29 C17 1_555 1_555
C18 C12 1_555 1_555
H30 C18 1_555 1_555
H31 C18 1_555 1_555
H32 C18 1_555 1_555
C19 C14 1_555 1_555
H33 C19 1_555 1_555
H34 C19 1_555 1_555
H35 C19 1_555 1_555
C20 C14 1_555 1_555
H36 C20 1_555 1_555
H37 C20 1_555 1_555
C21 C20 1_555 1_555
H38 C21 1_555 1_555
H39 C21 1_555 1_555
C22 C21 1_555 1_555
C23 C15 1_555 1_555
H40 C23 1_555 1_555
C24 C22 1_555 1_555
H41 C24 1_555 1_555
H42 C24 1_555 1_555
C25 C24 1_555 1_555
H43 C25 1_555 1_555
H44 C25 1_555 1_555
C26 C25 1_555 1_555
H45 C26 1_555 1_555
C27 O3 1_555 1_555
C28 C26 1_555 1_555
H46 C28 1_555 1_555
H47 C28 1_555 1_555
H48 C28 1_555 1_555
C29 C27 1_555 1_555
H49 C29 1_555 1_555
H50 C29 1_555 1_555
H51 C29 1_555 1_555
C30 C22 1_555 1_555
C31 O5 1_555 1_555
H52 C31 1_555 1_555
C32 O7 1_555 1_555
H53 C32 1_555 1_555
C33 O8 1_555 1_555
H54 C33 1_555 1_555
C34 O9 1_555 1_555
H55 C34 1_555 1_555
C35 O6 1_555 1_555
H56 C35 1_555 1_555
C36 O10 1_555 1_555
H57 C36 1_555 1_555
H58 C36 1_555 1_555
O11 H59 1_555 1_555
O12 H60 1_555 1_555
O13 H61 1_555 1_555
O14 C70 1_555 1_555
O15 C38 1_555 1_555
O16 C38 1_555 1_555
O17 H62 1_555 1_555
O18 H63 1_555 1_555
O19 H64 1_555 1_555
O20 H65 1_555 1_555
C37 H66 1_555 1_555
H67 C37 1_555 1_555
C38 H68 1_555 1_555
C39 C37 1_555 1_555
H69 C39 1_555 1_555
H70 C39 1_555 1_555
C40 O17 1_555 1_555
H71 C40 1_555 1_555
C41 O11 1_555 1_555
H72 C41 1_555 1_555
C42 O18 1_555 1_555
H73 C42 1_555 1_555
C43 C41 1_555 1_555
C44 O19 1_555 1_555
H74 C44 1_555 1_555
C45 C43 1_555 1_555
H75 C45 1_555 1_555
C46 O16 1_555 1_555
H76 C46 1_555 1_555
C47 C45 1_555 1_555
H77 C47 1_555 1_555
H78 C47 1_555 1_555
C48 O20 1_555 1_555
H79 C48 1_555 1_555
H80 C48 1_555 1_555
C49 C47 1_555 1_555
H81 C49 1_555 1_555
H82 C49 1_555 1_555
C50 C49 1_555 1_555
C51 C50 1_555 1_555
H83 C51 1_555 1_555
C52 C37 1_555 1_555
C53 C51 1_555 1_555
H84 C53 1_555 1_555
H85 C53 1_555 1_555
C54 C53 1_555 1_555
H86 C54 1_555 1_555
C55 C54 1_555 1_555
C56 C50 1_555 1_555
C57 C56 1_555 1_555
H87 C57 1_555 1_555
H88 C57 1_555 1_555
C58 C57 1_555 1_555
H89 C58 1_555 1_555
H90 C58 1_555 1_555
C59 C58 1_555 1_555
C60 C55 1_555 1_555
H91 C60 1_555 1_555
C61 O13 1_555 1_555
C62 C61 1_555 1_555
H92 C62 1_555 1_555
C63 C62 1_555 1_555
H93 C63 1_555 1_555
H94 C63 1_555 1_555
C64 C59 1_555 1_555
H95 C64 1_555 1_555
H96 C64 1_555 1_555
C65 O12 1_555 1_555
H97 C65 1_555 1_555
H98 C65 1_555 1_555
C66 C43 1_555 1_555
H99 C66 1_555 1_555
H100 C66 1_555 1_555
H101 C66 1_555 1_555
C67 C52 1_555 1_555
H102 C67 1_555 1_555
H103 C67 1_555 1_555
H104 C67 1_555 1_555
C68 C50 1_555 1_555
H105 C68 1_555 1_555
H106 C68 1_555 1_555
H107 C68 1_555 1_555
C69 C56 1_555 1_555
H108 C69 1_555 1_555
H109 C69 1_555 1_555
H110 C69 1_555 1_555
C70 O15 1_555 1_555
C71 C61 1_555 1_555
H111 C71 1_555 1_555
H112 C71 1_555 1_555
H113 C71 1_555 1_555
C72 C62 1_555 1_555
H114 C72 1_555 1_555
H115 C72 1_555 1_555
H116 C72 1_555 1_555
C1 C6 1_555 1_555
C1 C7 1_555 1_555
C5 C6 1_555 1_555
C12 C13 1_555 1_555
C16 C17 1_555 1_555
C22 C23 1_555 1_555
C23 C27 1_555 1_555
C26 C27 1_555 1_555
C31 C32 1_555 1_555
C32 C33 1_555 1_555
C33 C34 1_555 1_555
C34 C35 1_555 1_555
C35 C36 1_555 1_555
C38 C40 1_555 1_555
C39 C41 1_555 1_555
C40 C42 1_555 1_555
C42 C44 1_555 1_555
C43 C65 1_555 1_555
C44 C46 1_555 1_555
C45 C52 1_555 1_555
C46 C48 1_555 1_555
C51 C52 1_555 1_555
C55 C56 1_555 1_555
C59 C60 1_555 1_555
C59 C70 1_555 1_555
C60 C61 1_555 1_555
C63 C64 1_555 1_555

#END
