
#######################################################################
#
#                 Cambridge Crystallographic Data Centre
#                                CCDC 
#
#######################################################################
#
# If this CIF has been generated from an entry in the Cambridge 
# Structural Database, then it will include bibliographic, chemical, 
# crystal, experimental, refinement or atomic coordinate data resulting 
# from the CCDC's data processing and validation procedures.
#
#######################################################################

data_NEZYOI
_chemical_formula_moiety         'C17 H13 F3 N2 O1'
_chemical_name_systematic        
4-(2-Methylphenyl)-1-phenyl-3-(trifluoromethyl)-1H-pyrazol-5-ol
_symmetry_cell_setting           monoclinic
_symmetry_space_group_name_H-M   'P 21/c'
_symmetry_Int_Tables_number      14
_space_group_name_Hall           '-P 2ybc'
loop_
_symmetry_equiv_pos_site_id
_symmetry_equiv_pos_as_xyz
1 x,y,z
2 -x,1/2+y,1/2-z
3 -x,-y,-z
4 x,1/2-y,1/2+z
_cell_length_a                   18.3444(10)
_cell_length_b                   20.8512(11)
_cell_length_c                   18.2354(10)
_cell_angle_alpha                90
_cell_angle_beta                 116.9840(10)
_cell_angle_gamma                90
_cell_volume                     6215.74
_exptl_crystal_colour            colorless
_exptl_crystal_description       block
_cell_formula_units_Z            16
loop_
_atom_site_label
_atom_site_type_symbol
_atom_site_fract_x
_atom_site_fract_y
_atom_site_fract_z
N1 N 0.40095(16) 0.89242(12) 0.21313(16)
N2 N 0.41056(16) 0.86697(13) 0.14884(17)
O1 O 0.40406(19) 0.98870(13) 0.27592(18)
F1 F 0.51029(16) 0.93255(13) 0.05045(16)
F2 F 0.38299(18) 0.93673(15) -0.02590(15)
F3 F 0.4410(2) 0.84699(12) 0.02223(17)
C1 C 0.4118(2) 0.95655(15) 0.2169(2)
C2 C 0.4284(2) 0.97538(15) 0.1539(2)
C3 C 0.4264(2) 0.91747(16) 0.1138(2)
C4 C 0.4403(3) 0.90825(19) 0.0402(3)
C5 C 0.3767(2) 0.85147(15) 0.2620(2)
C6 C 0.3185(2) 0.80584(17) 0.2229(3)
H1 H 0.2956 0.8012 0.1661
C7 C 0.2942(3) 0.7670(2) 0.2680(4)
H2 H 0.2552 0.7354 0.2418
C8 C 0.3256(4) 0.7740(2) 0.3486(4)
H3 H 0.3074 0.7478 0.3782
C9 C 0.3847(4) 0.8193(2) 0.3896(3)
H4 H 0.4075 0.8231 0.4465
C10 C 0.4098(3) 0.85918(19) 0.3448(3)
H5 H 0.4488 0.8908 0.3710
C11 C 0.4465(3) 1.04128(17) 0.1363(3)
C12 C 0.5296(3) 1.0634(2) 0.1834(3)
H6 H 0.5692 1.0365 0.2213
C13 C 0.5491(4) 1.1251(3) 0.1715(4)
H7 H 0.6022 1.1404 0.2015
C14 C 0.4919(5) 1.1621(3) 0.1171(4)
H8 H 0.5067 1.2034 0.1102
C15 C 0.4132(4) 1.1443(2) 0.0706(4)
H9 H 0.3754 1.1728 0.0334
C16 C 0.3892(3) 1.0799(2) 0.0802(3)
C17 C 0.3066(4) 1.0588(3) 0.0290(3)
H10 H 0.3004 1.0153 0.0424
H11 H 0.2951 1.0614 -0.0278
H12 H 0.2692 1.0858 0.0383
H13 H 0.411(2) 1.022(2) 0.276(2)
N3 N 0.49273(16) 0.64308(12) 0.15564(17)
N4 N 0.56932(16) 0.61790(12) 0.20020(18)
O2 O 0.42355(17) 0.73853(13) 0.12578(19)
F4 F 0.72982(16) 0.68756(15) 0.36228(19)
F5 F 0.74868(16) 0.67977(19) 0.2587(2)
F6 F 0.72366(15) 0.59796(12) 0.3090(2)
C18 C 0.4931(2) 0.70727(15) 0.16630(19)
C19 C 0.5716(2) 0.72571(15) 0.2187(2)
C20 C 0.6153(2) 0.66828(15) 0.2376(2)
C21 C 0.7033(2) 0.65873(19) 0.2913(3)
C22 C 0.4267(2) 0.60203(15) 0.1041(2)
C23 C 0.4417(3) 0.55409(18) 0.0618(2)
H14 H 0.4936 0.5487 0.0655
C24 C 0.3779(3) 0.5134(2) 0.0131(3)
H15 H 0.3876 0.4802 -0.0155
C25 C 0.3015(3) 0.5216(2) 0.0065(3)
H16 H 0.2592 0.4943 -0.0265
C26 C 0.2879(3) 0.5696(2) 0.0483(3)
H17 H 0.2356 0.5749 0.0437
C27 C 0.3489(2) 0.61093(18) 0.0973(2)
H18 H 0.3383 0.6440 0.1253
C28 C 0.6016(2) 0.79168(16) 0.2484(3)
C29 C 0.5953(3) 0.8141(2) 0.3198(3)
H19 H 0.5737 0.7880 0.3465
C30 C 0.6220(3) 0.8747(2) 0.3477(4)
H20 H 0.6191 0.8903 0.3941
C31 C 0.6526(3) 0.9119(2) 0.3072(4)
H21 H 0.6698 0.9531 0.3271
C32 C 0.6601(3) 0.8930(2) 0.2394(4)
H22 H 0.6812 0.9204 0.2135
C33 C 0.6340(2) 0.82900(19) 0.2091(3)
C34 C 0.6419(3) 0.8073(3) 0.1385(3)
H23 H 0.6223 0.7640 0.1258
H24 H 0.6984 0.8088 0.1500
H25 H 0.6104 0.8345 0.0924
H26 H 0.425(2) 0.7700(19) 0.139(2)
N5 N -0.02670(17) 0.58427(12) 0.15625(16)
N6 N 0.04985(18) 0.60961(13) 0.19434(17)
O3 O -0.09370(16) 0.48700(13) 0.11495(18)
F7 F 0.21103(16) 0.62601(13) 0.2863(2)
F8 F 0.22213(17) 0.5563(2) 0.2084(2)
F9 F 0.22569(16) 0.52948(16) 0.3193(2)
C35 C -0.02379(19) 0.51901(15) 0.15334(19)
C36 C 0.0560(2) 0.50078(15) 0.1904(2)
C37 C 0.0987(2) 0.55905(16) 0.2143(2)
C38 C 0.1885(3) 0.5682(2) 0.2570(3)
C39 C -0.0965(2) 0.62503(16) 0.1213(2)
C40 C -0.1662(2) 0.6105(2) 0.1283(3)
H27 H -0.1683 0.5744 0.1573
C41 C -0.2335(3) 0.6510(3) 0.0912(4)
H28 H -0.2815 0.6421 0.0947
C42 C -0.2283(5) 0.7053(3) 0.0486(4)
H29 H -0.2734 0.7322 0.0234
C43 C -0.1593(5) 0.7191(3) 0.0435(3)
H30 H -0.1569 0.7555 0.0151
C44 C -0.0922(3) 0.67980(19) 0.0801(2)
H31 H -0.0441 0.6898 0.0773
C45 C 0.0882(2) 0.43378(17) 0.2039(3)
C46 C 0.0911(3) 0.4006(2) 0.2730(3)
H32 H 0.0749 0.4211 0.3085
C47 C 0.1169(4) 0.3399(3) 0.2873(5)
H33 H 0.1179 0.3176 0.3319
C48 C 0.1420(3) 0.3109(3) 0.2350(6)
H34 H 0.1608 0.2688 0.2456
C49 C 0.1405(3) 0.3410(3) 0.1689(5)
H35 H 0.1578 0.3197 0.1348
C50 C 0.1124(3) 0.4053(2) 0.1516(3)
C51 C 0.1106(4) 0.4377(3) 0.0808(4)
H36 H 0.0905 0.4806 0.0782
H37 H 0.0753 0.4149 0.0317
H38 H 0.1648 0.4392 0.0855
H39 H -0.090(2) 0.4526(19) 0.117(2)
N7 N 0.10148(16) 0.82956(12) 0.30272(17)
N8 N 0.10328(16) 0.85263(13) 0.37355(17)
O4 O 0.0863(2) 0.73617(14) 0.23135(19)
F10 F 0.1636(2) 0.79037(17) 0.55213(16)
F11 F 0.08019(19) 0.86723(13) 0.50730(16)
F12 F 0.0358(2) 0.77276(16) 0.49634(19)
C52 C 0.0887(2) 0.76545(15) 0.2966(2)
C53 C 0.0818(2) 0.74470(15) 0.3644(2)
C54 C 0.0915(2) 0.80105(16) 0.4095(2)
C55 C 0.0919(3) 0.8077(2) 0.4899(3)
C56 C 0.1210(2) 0.87026(16) 0.2511(2)
C57 C 0.0789(3) 0.8639(2) 0.1669(3)
H40 H 0.0370 0.8339 0.1433
C58 C 0.1000(4) 0.9033(2) 0.1177(3)
H41 H 0.0716 0.9004 0.0606
C59 C 0.1635(4) 0.9465(2) 0.1543(4)
H42 H 0.1790 0.9717 0.1217
C60 C 0.2032(3) 0.9525(2) 0.2369(4)
H43 H 0.2442 0.9831 0.2604
C61 C 0.1838(2) 0.91388(18) 0.2869(3)
H44 H 0.2127 0.9172 0.3438
C62 C 0.0661(3) 0.67735(18) 0.3797(2)
C63 C -0.0175(3) 0.6557(2) 0.3431(3)
H45 H -0.0599 0.6844 0.3150
C64 C -0.0342(4) 0.5921(3) 0.3500(4)
H46 H -0.0877 0.5769 0.3262
C65 C 0.0296(4) 0.5524(3) 0.3925(3)
H47 H 0.0176 0.5097 0.3971
C66 C 0.1083(4) 0.5694(2) 0.4285(3)
H48 H 0.1493 0.5395 0.4561
C67 C 0.1279(3) 0.6365(2) 0.4229(3)
C68 C 0.2106(3) 0.6569(3) 0.4635(3)
H49 H 0.2134 0.7020 0.4545
H50 H 0.2420 0.6339 0.4419
H51 H 0.2325 0.6488 0.5214
H52 H 0.078(2) 0.7070(17) 0.227(2)
loop_
_geom_bond_atom_site_label_1
_geom_bond_atom_site_label_2
_geom_bond_site_symmetry_1
_geom_bond_site_symmetry_2
N1 N2 1_555 1_555
N2 C3 1_555 1_555
O1 C1 1_555 1_555
F1 C4 1_555 1_555
F2 C4 1_555 1_555
F3 C4 1_555 1_555
C1 N1 1_555 1_555
C2 C1 1_555 1_555
C3 C2 1_555 1_555
C4 C3 1_555 1_555
C5 N1 1_555 1_555
C6 C5 1_555 1_555
H1 C6 1_555 1_555
C7 C6 1_555 1_555
H2 C7 1_555 1_555
C8 C7 1_555 1_555
H3 C8 1_555 1_555
C9 C8 1_555 1_555
H4 C9 1_555 1_555
C10 C5 1_555 1_555
H5 C10 1_555 1_555
C11 C2 1_555 1_555
C12 C11 1_555 1_555
H6 C12 1_555 1_555
C13 C12 1_555 1_555
H7 C13 1_555 1_555
C14 C13 1_555 1_555
H8 C14 1_555 1_555
C15 C14 1_555 1_555
H9 C15 1_555 1_555
C16 C11 1_555 1_555
C17 C16 1_555 1_555
H10 C17 1_555 1_555
H11 C17 1_555 1_555
H12 C17 1_555 1_555
H13 O1 1_555 1_555
N3 N4 1_555 1_555
N4 C20 1_555 1_555
O2 C18 1_555 1_555
F4 C21 1_555 1_555
F5 C21 1_555 1_555
F6 C21 1_555 1_555
C18 N3 1_555 1_555
C19 C18 1_555 1_555
C20 C19 1_555 1_555
C21 C20 1_555 1_555
C22 N3 1_555 1_555
C23 C22 1_555 1_555
H14 C23 1_555 1_555
C24 C23 1_555 1_555
H15 C24 1_555 1_555
C25 C24 1_555 1_555
H16 C25 1_555 1_555
C26 C25 1_555 1_555
H17 C26 1_555 1_555
C27 C22 1_555 1_555
H18 C27 1_555 1_555
C28 C19 1_555 1_555
C29 C28 1_555 1_555
H19 C29 1_555 1_555
C30 C29 1_555 1_555
H20 C30 1_555 1_555
C31 C30 1_555 1_555
H21 C31 1_555 1_555
C32 C31 1_555 1_555
H22 C32 1_555 1_555
C33 C28 1_555 1_555
C34 C33 1_555 1_555
H23 C34 1_555 1_555
H24 C34 1_555 1_555
H25 C34 1_555 1_555
H26 O2 1_555 1_555
N5 N6 1_555 1_555
N6 C37 1_555 1_555
O3 C35 1_555 1_555
F7 C38 1_555 1_555
F8 C38 1_555 1_555
F9 C38 1_555 1_555
C35 N5 1_555 1_555
C36 C35 1_555 1_555
C37 C36 1_555 1_555
C38 C37 1_555 1_555
C39 N5 1_555 1_555
C40 C39 1_555 1_555
H27 C40 1_555 1_555
C41 C40 1_555 1_555
H28 C41 1_555 1_555
C42 C41 1_555 1_555
H29 C42 1_555 1_555
C43 C42 1_555 1_555
H30 C43 1_555 1_555
C44 C39 1_555 1_555
H31 C44 1_555 1_555
C45 C36 1_555 1_555
C46 C45 1_555 1_555
H32 C46 1_555 1_555
C47 C46 1_555 1_555
H33 C47 1_555 1_555
C48 C47 1_555 1_555
H34 C48 1_555 1_555
C49 C48 1_555 1_555
H35 C49 1_555 1_555
C50 C45 1_555 1_555
C51 C50 1_555 1_555
H36 C51 1_555 1_555
H37 C51 1_555 1_555
H38 C51 1_555 1_555
H39 O3 1_555 1_555
N7 N8 1_555 1_555
N8 C54 1_555 1_555
O4 C52 1_555 1_555
F10 C55 1_555 1_555
F11 C55 1_555 1_555
F12 C55 1_555 1_555
C52 N7 1_555 1_555
C53 C52 1_555 1_555
C54 C53 1_555 1_555
C55 C54 1_555 1_555
C56 N7 1_555 1_555
C57 C56 1_555 1_555
H40 C57 1_555 1_555
C58 C57 1_555 1_555
H41 C58 1_555 1_555
C59 C58 1_555 1_555
H42 C59 1_555 1_555
C60 C59 1_555 1_555
H43 C60 1_555 1_555
C61 C56 1_555 1_555
H44 C61 1_555 1_555
C62 C53 1_555 1_555
C63 C62 1_555 1_555
H45 C63 1_555 1_555
C64 C63 1_555 1_555
H46 C64 1_555 1_555
C65 C64 1_555 1_555
H47 C65 1_555 1_555
C66 C65 1_555 1_555
H48 C66 1_555 1_555
C67 C62 1_555 1_555
C68 C67 1_555 1_555
H49 C68 1_555 1_555
H50 C68 1_555 1_555
H51 C68 1_555 1_555
H52 O4 1_555 1_555
C9 C10 1_555 1_555
C15 C16 1_555 1_555
C26 C27 1_555 1_555
C32 C33 1_555 1_555
C43 C44 1_555 1_555
C49 C50 1_555 1_555
C60 C61 1_555 1_555
C66 C67 1_555 1_555

#END
