
#######################################################################
#
#                 Cambridge Crystallographic Data Centre
#                                CCDC 
#
#######################################################################
#
# If this CIF has been generated from an entry in the Cambridge 
# Structural Database, then it will include bibliographic, chemical, 
# crystal, experimental, refinement or atomic coordinate data resulting 
# from the CCDC's data processing and validation procedures.
#
#######################################################################

data_NIBBIM
_chemical_formula_moiety         'C15 H14 Cl1 N1 O4'
_chemical_name_systematic        
8-(((2-chlorophenyl)amino)methylene)-6,10-dioxaspiro[4.5]decane-7,9-dione
_symmetry_cell_setting           monoclinic
_symmetry_space_group_name_H-M   'P 21/c'
_symmetry_Int_Tables_number      14
_space_group_name_Hall           '-P 2ybc'
loop_
_symmetry_equiv_pos_site_id
_symmetry_equiv_pos_as_xyz
1 x,y,z
2 -x,1/2+y,1/2-z
3 -x,-y,-z
4 x,1/2-y,1/2+z
_cell_length_a                   13.159(3)
_cell_length_b                   6.2197(12)
_cell_length_c                   17.750(4)
_cell_angle_alpha                90
_cell_angle_beta                 96.46(3)
_cell_angle_gamma                90
_cell_volume                     1443.53
_exptl_crystal_colour            yellow
_exptl_crystal_description       block
_cell_formula_units_Z            4
loop_
_atom_site_label
_atom_site_type_symbol
_atom_site_fract_x
_atom_site_fract_y
_atom_site_fract_z
Cl1 Cl 0.28188(7) 0.0709(2) 0.26305(6)
C1 C 0.16455(14) 0.3751(3) 0.44613(11)
H1 H 0.1051 0.3400 0.4672
N1 N 0.19139(12) 0.2515(3) 0.39144(9)
H2 H 0.2457 0.2887 0.3719
C2 C 0.14118(14) 0.0652(3) 0.36143(11)
O1 O 0.22989(12) 0.8601(2) 0.55498(10)
C3 C 0.21859(14) 0.5529(3) 0.47429(11)
O2 O 0.34450(14) 0.5384(3) 0.38956(10)
O3 O 0.35320(12) 0.8073(3) 0.47157(9)
O4 O 0.09494(13) 0.6496(3) 0.55483(11)
C4 C 0.30841(16) 0.6244(3) 0.44192(12)
C5 C 0.17534(15) 0.6818(3) 0.53060(12)
C6 C 0.0530(2) -0.3117(4) 0.30017(15)
H3 H 0.0240 -0.4392 0.2806
C7 C 0.05615(18) -0.0209(4) 0.38929(13)
H4 H 0.0281 0.0477 0.4287
C8 C 0.17931(18) -0.0397(4) 0.30128(14)
C9 C 0.0125(2) -0.2085(4) 0.35892(15)
H5 H -0.0446 -0.2656 0.3782
C10 C 0.3771(2) 1.0865(4) 0.56560(15)
H6 H 0.4193 1.1346 0.5275
H7 H 0.3207 1.1865 0.5669
C11 C 0.1351(2) -0.2265(5) 0.27115(17)
H8 H 0.1616 -0.2940 0.2309
C12 C 0.33694(16) 0.8599(3) 0.54747(12)
C13 C 0.3950(2) 0.7118(4) 0.60547(14)
H9 H 0.3504 0.6015 0.6221
H10 H 0.4520 0.6436 0.5847
C14 C 0.4373(3) 1.0747(6) 0.63984(19)
H11 H 0.5080 1.1116 0.6352
H12 H 0.4109 1.1761 0.6743
C15 C 0.4315(4) 0.8593(8) 0.6691(2)
H13 H 0.3847 0.8553 0.7075
H14 H 0.4984 0.8140 0.6921
loop_
_geom_bond_atom_site_label_1
_geom_bond_atom_site_label_2
_geom_bond_site_symmetry_1
_geom_bond_site_symmetry_2
Cl1 C8 1_555 1_555
C1 H1 1_555 1_555
N1 C1 1_555 1_555
H2 N1 1_555 1_555
C2 N1 1_555 1_555
O1 C5 1_555 1_555
C3 C1 1_555 1_555
O2 C4 1_555 1_555
O3 C4 1_555 1_555
O4 C5 1_555 1_555
C4 C3 1_555 1_555
C5 C3 1_555 1_555
C6 H3 1_555 1_555
C7 C2 1_555 1_555
H4 C7 1_555 1_555
C8 C2 1_555 1_555
C9 C6 1_555 1_555
H5 C9 1_555 1_555
C10 H6 1_555 1_555
H7 C10 1_555 1_555
C11 C6 1_555 1_555
H8 C11 1_555 1_555
C12 O1 1_555 1_555
C13 C12 1_555 1_555
H9 C13 1_555 1_555
H10 C13 1_555 1_555
C14 C10 1_555 1_555
H11 C14 1_555 1_555
H12 C14 1_555 1_555
C15 C13 1_555 1_555
H13 C15 1_555 1_555
H14 C15 1_555 1_555
O3 C12 1_555 1_555
C7 C9 1_555 1_555
C8 C11 1_555 1_555
C10 C12 1_555 1_555
C14 C15 1_555 1_555

#END
