
#######################################################################
#
#                 Cambridge Crystallographic Data Centre
#                                CCDC 
#
#######################################################################
#
# If this CIF has been generated from an entry in the Cambridge 
# Structural Database, then it will include bibliographic, chemical, 
# crystal, experimental, refinement or atomic coordinate data resulting 
# from the CCDC's data processing and validation procedures.
#
#######################################################################

data_NIBFEM
_chemical_formula_moiety         'C14 H15 N1 O2 S1'
_chemical_name_systematic        N-(1-phenylethyl)benzenesulfonamide
_symmetry_cell_setting           monoclinic
_symmetry_space_group_name_H-M   'P 21'
_symmetry_Int_Tables_number      4
_space_group_name_Hall           'P 2yb'
loop_
_symmetry_equiv_pos_site_id
_symmetry_equiv_pos_as_xyz
1 x,y,z
2 -x,1/2+y,-z
_cell_length_a                   8.4454(12)
_cell_length_b                   7.2057(10)
_cell_length_c                   10.9962(16)
_cell_angle_alpha                90
_cell_angle_beta                 96.797(2)
_cell_angle_gamma                90
_cell_volume                     664.471
_exptl_crystal_colour            colorless
_exptl_crystal_description       prism
_cell_formula_units_Z            2
loop_
_atom_site_label
_atom_site_type_symbol
_atom_site_fract_x
_atom_site_fract_y
_atom_site_fract_z
S1 S 0.01136(4) 1.00254(5) 0.87287(3)
O1 O -0.01922(13) 1.0136(2) 0.99906(10)
O2 O -0.05093(15) 1.14255(18) 0.78765(12)
N1 N -0.06279(16) 0.8050(2) 0.82531(12)
H1 H -0.0958 0.7276 0.8788
C1 C 0.5425(2) 0.9508(3) 0.8624(3)
H2 H 0.6536 0.9362 0.8587
C2 C 0.4751(2) 0.8856(3) 0.9639(2)
H3 H 0.5403 0.8279 1.0295
C3 C 0.3126(2) 0.9052(3) 0.96896(17)
H4 H 0.2652 0.8600 1.0374
C4 C 0.21980(16) 0.9922(3) 0.87198(13)
C5 C -0.07690(18) 0.7504(2) 0.69527(14)
H5 H -0.1153 0.8606 0.6449
C6 C 0.07805(18) 0.6841(2) 0.65165(14)
C7 C 0.19077(19) 0.5814(2) 0.72682(14)
H6 H 0.1718 0.5518 0.8080
C8 C 0.33047(19) 0.5220(3) 0.68381(15)
H7 H 0.4076 0.4550 0.7364
C9 C 0.3579(2) 0.5606(3) 0.56376(16)
H8 H 0.4530 0.5191 0.5342
C10 C 0.2452(2) 0.6599(3) 0.48780(15)
H9 H 0.2626 0.6852 0.4056
C11 C 0.10683(19) 0.7226(2) 0.53186(14)
H10 H 0.0312 0.7924 0.4798
C12 C -0.2055(2) 0.5999(3) 0.67660(19)
H11 H -0.1703 0.4903 0.7252
H12 H -0.2236 0.5660 0.5898
H13 H -0.3049 0.6470 0.7029
C13 C 0.2861(2) 1.0593(3) 0.77050(17)
H14 H 0.2215 1.1191 0.7055
C14 C 0.4487(2) 1.0368(3) 0.7666(2)
H15 H 0.4960 1.0807 0.6978
loop_
_geom_bond_atom_site_label_1
_geom_bond_atom_site_label_2
_geom_bond_site_symmetry_1
_geom_bond_site_symmetry_2
S1 O1 1_555 1_555
O2 S1 1_555 1_555
N1 S1 1_555 1_555
H1 N1 1_555 1_555
C1 H2 1_555 1_555
C2 C1 1_555 1_555
H3 C2 1_555 1_555
C3 C2 1_555 1_555
H4 C3 1_555 1_555
C4 S1 1_555 1_555
C5 N1 1_555 1_555
H5 C5 1_555 1_555
C6 C5 1_555 1_555
C7 C6 1_555 1_555
H6 C7 1_555 1_555
C8 C7 1_555 1_555
H7 C8 1_555 1_555
C9 C8 1_555 1_555
H8 C9 1_555 1_555
C10 C9 1_555 1_555
H9 C10 1_555 1_555
C11 C6 1_555 1_555
H10 C11 1_555 1_555
C12 C5 1_555 1_555
H11 C12 1_555 1_555
H12 C12 1_555 1_555
H13 C12 1_555 1_555
C13 C4 1_555 1_555
H14 C13 1_555 1_555
C14 C1 1_555 1_555
H15 C14 1_555 1_555
C3 C4 1_555 1_555
C10 C11 1_555 1_555
C13 C14 1_555 1_555

#END
