
#######################################################################
#
#                 Cambridge Crystallographic Data Centre
#                                CCDC 
#
#######################################################################
#
# If this CIF has been generated from an entry in the Cambridge 
# Structural Database, then it will include bibliographic, chemical, 
# crystal, experimental, refinement or atomic coordinate data resulting 
# from the CCDC's data processing and validation procedures.
#
#######################################################################

data_NIBHAJ
_chemical_formula_moiety         'C17 H17 N1 O3,H2 O1'
_chemical_name_systematic        
'N-(2-(1-Hydroxy-4-oxocyclohexa-2,5-dien-1-yl)ethyl)-3-phenylacrylamide monohydrate'
_symmetry_cell_setting           monoclinic
_symmetry_space_group_name_H-M   'P 21/n'
_symmetry_Int_Tables_number      14
_space_group_name_Hall           '-P 2yn'
loop_
_symmetry_equiv_pos_site_id
_symmetry_equiv_pos_as_xyz
1 x,y,z
2 1/2-x,1/2+y,1/2-z
3 -x,-y,-z
4 1/2+x,1/2-y,1/2+z
_cell_length_a                   8.6116(3)
_cell_length_b                   10.3693(3)
_cell_length_c                   17.8352(6)
_cell_angle_alpha                90
_cell_angle_beta                 101.7160(10)
_cell_angle_gamma                90
_cell_volume                     1559.44
_exptl_crystal_colour            colorless
_cell_formula_units_Z            4
loop_
_atom_site_label
_atom_site_type_symbol
_atom_site_fract_x
_atom_site_fract_y
_atom_site_fract_z
O1 O 0.55901(11) 1.17320(8) 0.08842(5)
O2 O 0.17608(9) 0.78535(8) 0.09453(4)
H1 H 0.1959 0.7073 0.1049
O3 O 0.27401(10) 1.03834(8) 0.36639(4)
N1 N 0.43582(11) 0.86931(9) 0.36036(5)
H2 H 0.4885 0.8035 0.3842
C1 C 0.47893(14) 1.08008(11) 0.10064(6)
C2 C 0.53622(13) 0.94699(11) 0.09960(6)
H3 H 0.6361 0.9309 0.0866
C3 C 0.45052(13) 0.84836(11) 0.11654(6)
H4 H 0.4900 0.7635 0.1129
C4 C 0.29487(13) 0.86421(11) 0.14104(6)
C5 C 0.31264(13) 0.82274(11) 0.22582(6)
H5 H 0.2105 0.8373 0.2418
H6 H 0.3355 0.7291 0.2299
C6 C 0.44349(13) 0.89476(11) 0.28095(6)
H7 H 0.5483 0.8675 0.2718
H8 H 0.4323 0.9886 0.2709
C7 C 0.35037(13) 0.94399(10) 0.39764(6)
C8 C 0.34813(13) 0.90498(11) 0.47734(6)
H9 H 0.4140 0.8362 0.5002
C9 C 0.25503(13) 0.96512(11) 0.51724(6)
H10 H 0.1938 1.0347 0.4922
C10 C 0.23609(13) 0.93626(11) 0.59543(6)
C11 C 0.12648(13) 1.00785(11) 0.62587(7)
H11 H 0.0672 1.0739 0.5960
C12 C 0.10302(14) 0.98371(12) 0.69935(7)
H12 H 0.0265 1.0320 0.7191
C13 C 0.19075(15) 0.88952(12) 0.74385(7)
H13 H 0.1757 0.8738 0.7943
C14 C 0.31906(14) 1.09843(11) 0.11509(7)
H14 H 0.2755 1.1829 0.1128
C15 C 0.23346(14) 0.99957(11) 0.13140(6)
H15 H 0.1280 1.0156 0.1372
C16 C 0.30081(14) 0.81815(12) 0.71453(7)
H16 H 0.3613 0.7536 0.7452
C17 C 0.32331(13) 0.84016(11) 0.64074(6)
H17 H 0.3980 0.7900 0.6209
O4 O 0.63019(10) 0.66437(9) 0.43629(5)
H18 H 0.6399 0.6740 0.4864
H19 H 0.7341 0.6695 0.4314
loop_
_geom_bond_atom_site_label_1
_geom_bond_atom_site_label_2
_geom_bond_site_symmetry_1
_geom_bond_site_symmetry_2
O1 C1 1_555 1_555
O2 H1 1_555 1_555
O3 C7 1_555 1_555
N1 H2 1_555 1_555
C1 C2 1_555 1_555
C2 H3 1_555 1_555
C3 C2 1_555 1_555
H4 C3 1_555 1_555
C4 O2 1_555 1_555
C5 C4 1_555 1_555
H5 C5 1_555 1_555
H6 C5 1_555 1_555
C6 N1 1_555 1_555
H7 C6 1_555 1_555
H8 C6 1_555 1_555
C7 N1 1_555 1_555
C8 C7 1_555 1_555
H9 C8 1_555 1_555
C9 C8 1_555 1_555
H10 C9 1_555 1_555
C10 C9 1_555 1_555
C11 C10 1_555 1_555
H11 C11 1_555 1_555
C12 C11 1_555 1_555
H12 C12 1_555 1_555
C13 C12 1_555 1_555
H13 C13 1_555 1_555
C14 C1 1_555 1_555
H14 C14 1_555 1_555
C15 C4 1_555 1_555
H15 C15 1_555 1_555
C16 C13 1_555 1_555
H16 C16 1_555 1_555
C17 C10 1_555 1_555
H17 C17 1_555 1_555
O4 H18 1_555 1_555
H19 O4 1_555 1_555
C3 C4 1_555 1_555
C5 C6 1_555 1_555
C14 C15 1_555 1_555
C16 C17 1_555 1_555

#END
