
#######################################################################
#
#                 Cambridge Crystallographic Data Centre
#                                CCDC 
#
#######################################################################
#
# If this CIF has been generated from an entry in the Cambridge 
# Structural Database, then it will include bibliographic, chemical, 
# crystal, experimental, refinement or atomic coordinate data resulting 
# from the CCDC's data processing and validation procedures.
#
#######################################################################

data_NIBXOL
_chemical_formula_moiety         'C15 H16 O6 S1'
_chemical_name_systematic        
'Methyl 4,6-O-benzylidene-2,3-S,O-carbonyl-2-thio-\b-D-mannose'
_symmetry_cell_setting           orthorhombic
_symmetry_space_group_name_H-M   'P 21 21 21'
_symmetry_Int_Tables_number      19
_space_group_name_Hall           'P 2ac 2ab'
loop_
_symmetry_equiv_pos_site_id
_symmetry_equiv_pos_as_xyz
1 x,y,z
2 1/2-x,-y,1/2+z
3 1/2+x,1/2-y,-z
4 -x,1/2+y,1/2-z
_cell_length_a                   11.277(5)
_cell_length_b                   15.727(7)
_cell_length_c                   8.488(3)
_cell_angle_alpha                90
_cell_angle_beta                 90
_cell_angle_gamma                90
_cell_volume                     1505.38
_exptl_crystal_colour            colorless
_exptl_crystal_description       needles
_chemical_melting_point          211-213deg.C
_cell_formula_units_Z            4
_exptl_crystal_recrystallization_method 'ethyl acetate/hexane'
loop_
_atom_site_label
_atom_site_type_symbol
_atom_site_fract_x
_atom_site_fract_y
_atom_site_fract_z
S1 S 0.7107(2) 0.1367(1) 0.1132(3)
O1 O 0.8635(5) 0.2820(3) 0.1519(8)
O2 O 0.9815(4) 0.1922(3) 0.0112(7)
O3 O 0.8011(6) -0.0095(3) 0.1899(7)
O4 O 0.6174(5) -0.0159(4) 0.091(1)
O5 O 1.0339(4) -0.0354(3) 0.0353(6)
O6 O 1.1757(4) 0.0253(3) -0.1329(8)
C1 C 0.9326(7) 0.2086(5) 0.160(1)
C2 C 0.8505(7) 0.1370(6) 0.218(1)
C3 C 0.8994(8) 0.0467(6) 0.190(1)
C4 C 0.9664(7) 0.0418(5) 0.036(1)
C5 C 1.0504(6) 0.1163(5) 0.015(1)
C6 C 1.1141(7) 0.1055(5) -0.138(1)
C7 C 0.9305(7) 0.3578(6) 0.128(1)
C8 C 0.703(1) 0.0255(5) 0.127(1)
C9 C 1.0975(7) -0.0429(5) -0.110(1)
C10 C 1.1688(6) -0.1242(5) -0.102(1)
C11 C 1.2725(7) -0.1270(5) -0.016(1)
C12 C 1.3365(7) -0.2032(6) -0.008(1)
C13 C 1.2963(9) -0.2729(5) -0.087(1)
C14 C 1.1952(8) -0.2693(5) -0.175(1)
C15 C 1.1311(8) -0.1940(6) -0.181(1)
H1 H 0.9968 0.2150 0.2422
H2 H 0.8352 0.1464 0.3299
H3 H 0.9577 0.0339 0.2756
H4 H 0.9099 0.0427 -0.0518
H5 H 1.1077 0.1173 0.1032
H6 H 1.1700 0.1530 -0.1600
H7 H 1.0585 0.1081 -0.2275
H8 H 0.9843 0.3672 0.2177
H9 H 0.9809 0.3539 0.0367
H10 H 0.8823 0.4065 0.1190
H11 H 1.0414 -0.0468 -0.2007
H12 H 1.3029 -0.0763 0.0374
H13 H 1.4131 -0.2051 0.0540
H14 H 1.3412 -0.3260 -0.0764
H15 H 1.1661 -0.3194 -0.2320
H16 H 1.0582 -0.1916 -0.2496
loop_
_geom_bond_atom_site_label_1
_geom_bond_atom_site_label_2
_geom_bond_site_symmetry_1
_geom_bond_site_symmetry_2
S1 C2 1_555 1_555
O1 C1 1_555 1_555
O2 C1 1_555 1_555
O3 C3 1_555 1_555
O4 C8 1_555 1_555
O5 C4 1_555 1_555
O6 C6 1_555 1_555
C1 C2 1_555 1_555
C2 C3 1_555 1_555
C3 C4 1_555 1_555
C4 C5 1_555 1_555
C5 O2 1_555 1_555
C6 C5 1_555 1_555
C7 O1 1_555 1_555
C8 S1 1_555 1_555
C9 O5 1_555 1_555
C10 C9 1_555 1_555
C11 C10 1_555 1_555
C12 C11 1_555 1_555
C13 C12 1_555 1_555
C14 C13 1_555 1_555
C15 C10 1_555 1_555
H1 C1 1_555 1_555
H2 C2 1_555 1_555
H3 C3 1_555 1_555
H4 C4 1_555 1_555
H5 C5 1_555 1_555
H6 C6 1_555 1_555
H7 C6 1_555 1_555
H8 C7 1_555 1_555
H9 C7 1_555 1_555
H10 C7 1_555 1_555
H11 C9 1_555 1_555
H12 C11 1_555 1_555
H13 C12 1_555 1_555
H14 C13 1_555 1_555
H15 C14 1_555 1_555
H16 C15 1_555 1_555
O3 C8 1_555 1_555
O6 C9 1_555 1_555
C14 C15 1_555 1_555

#END
