
#######################################################################
#
#                 Cambridge Crystallographic Data Centre
#                                CCDC 
#
#######################################################################
#
# If this CIF has been generated from an entry in the Cambridge 
# Structural Database, then it will include bibliographic, chemical, 
# crystal, experimental, refinement or atomic coordinate data resulting 
# from the CCDC's data processing and validation procedures.
#
#######################################################################

data_NIBYOM
_chemical_formula_moiety         'C16 H24 O4'
_chemical_name_systematic        
(1R*,3R*,8S*,12S*)-1-Methoxycarbonyl-3,12-dimethylbicyclo(6.4.0)dodeca-2,10-dione
_symmetry_cell_setting           monoclinic
_symmetry_space_group_name_H-M   'P 21/n'
_symmetry_Int_Tables_number      14
_space_group_name_Hall           '-P 2yn'
loop_
_symmetry_equiv_pos_site_id
_symmetry_equiv_pos_as_xyz
1 x,y,z
2 1/2-x,1/2+y,1/2-z
3 -x,-y,-z
4 1/2+x,1/2-y,1/2+z
_cell_length_a                   7.3841(20)
_cell_length_b                   15.415(4)
_cell_length_c                   13.535(3)
_cell_angle_alpha                90
_cell_angle_beta                 102.322(20)
_cell_angle_gamma                90
_cell_volume                     1505.14
_chemical_melting_point          106-107deg.C
_cell_formula_units_Z            4
_exptl_crystal_recrystallization_method hexane
loop_
_atom_site_label
_atom_site_type_symbol
_atom_site_fract_x
_atom_site_fract_y
_atom_site_fract_z
C1 C 0.7293(3) 0.18177(17) 0.15510(20)
C2 C 0.5422(4) 0.16016(20) 0.07929(22)
C3 C 0.5694(5) 0.15302(24) -0.03045(24)
C4 C 0.7236(4) 0.09328(20) -0.03806(21)
C5 C 0.9036(4) 0.11441(21) 0.03376(22)
C6 C 0.8785(4) 0.11288(17) 0.14466(20)
C7 C 0.8477(4) 0.01919(19) 0.17722(24)
C8 C 0.9610(5) -0.00291(23) 0.2834(3)
C9 C 0.9500(5) 0.06261(25) 0.3669(3)
C10 C 0.7625(5) 0.0737(3) 0.3933(3)
C11 C 0.6062(4) 0.11247(22) 0.31020(23)
C12 C 0.6817(4) 0.18980(19) 0.26162(21)
C13 C 0.8053(4) 0.27061(18) 0.13496(21)
C14 C 1.0626(6) 0.36415(25) 0.1813(4)
C15 C 0.3843(5) 0.2220(3) 0.0851(4)
C16 C 0.4445(6) 0.1407(4) 0.3567(4)
O1 O 0.7073(4) 0.03123(16) -0.09490(17)
O2 O 0.6987(3) 0.25944(14) 0.30346(17)
O3 O 0.7252(3) 0.32548(14) 0.07899(18)
O4 O 0.9791(3) 0.28103(12) 0.18846(16)
H1 H 0.508(4) 0.0982(18) 0.0992(20)
H2 H 0.601(4) 0.2094(22) -0.0531(24)
H3 H 0.463(5) 0.1290(24) -0.068(3)
H4 H 1.007(5) 0.0705(21) 0.0280(24)
H5 H 0.931(4) 0.1735(21) 0.0170(22)
H6 H 0.996(4) 0.1356(18) 0.1835(21)
H7 H 0.701(5) 0.0062(21) 0.1667(24)
H8 H 0.903(5) -0.0222(24) 0.135(3)
H9 H 1.110(6) -0.0099(25) 0.282(3)
H10 H 0.929(5) -0.0629(25) 0.306(3)
H11 H 1.054(6) 0.042(3) 0.430(3)
H12 H 1.003(4) 0.1191(2) 0.3548(24)
H13 H 0.716(5) 0.0103(23) 0.409(3)
H14 H 0.777(6) 0.112(3) 0.451(3)
H15 H 0.554(5) 0.0663(22) 0.256(3)
H16 H 1.085(7) 0.382(3) 0.127(4)
H17 H 1.198(8) 0.362(3) 0.216(4)
H18 H 1.001(5) 0.4022(25) 0.209(3)
H19 H 0.337(5) 0.221(3) 0.143(3)
H20 H 0.292(6) 0.204(3) 0.049(3)
H21 H 0.418(6) 0.291(3) 0.079(3)
H22 H 0.460(7) 0.198(3) 0.391(4)
H23 H 0.385(7) 0.099(3) 0.379(4)
H24 H 0.332(6) 0.170(3) 0.304(3)
loop_
_geom_bond_atom_site_label_1
_geom_bond_atom_site_label_2
_geom_bond_site_symmetry_1
_geom_bond_site_symmetry_2
C1 C2 1_555 1_555
C2 C3 1_555 1_555
C3 C4 1_555 1_555
C4 C5 1_555 1_555
C5 C6 1_555 1_555
C6 C1 1_555 1_555
C7 C6 1_555 1_555
C8 C7 1_555 1_555
C9 C8 1_555 1_555
C10 C9 1_555 1_555
C11 C10 1_555 1_555
C12 C1 1_555 1_555
C13 C1 1_555 1_555
C14 O4 1_555 1_555
C15 C2 1_555 1_555
C16 C11 1_555 1_555
O1 C4 1_555 1_555
O2 C12 1_555 1_555
O3 C13 1_555 1_555
O4 C13 1_555 1_555
H1 C2 1_555 1_555
H2 C3 1_555 1_555
H3 C3 1_555 1_555
H4 C5 1_555 1_555
H5 C5 1_555 1_555
H6 C6 1_555 1_555
H7 C7 1_555 1_555
H8 C7 1_555 1_555
H9 C8 1_555 1_555
H10 C8 1_555 1_555
H11 C9 1_555 1_555
H12 C9 1_555 1_555
H13 C10 1_555 1_555
H14 C10 1_555 1_555
H15 C11 1_555 1_555
H16 C14 1_555 1_555
H17 C14 1_555 1_555
H18 C14 1_555 1_555
H19 C15 1_555 1_555
H20 C15 1_555 1_555
H21 C15 1_555 1_555
H22 C16 1_555 1_555
H23 C16 1_555 1_555
H24 C16 1_555 1_555
C11 C12 1_555 1_555

#END
