
#######################################################################
#
#                 Cambridge Crystallographic Data Centre
#                                CCDC 
#
#######################################################################
#
# If this CIF has been generated from an entry in the Cambridge 
# Structural Database, then it will include bibliographic, chemical, 
# crystal, experimental, refinement or atomic coordinate data resulting 
# from the CCDC's data processing and validation procedures.
#
#######################################################################

data_NICJUH
_chemical_formula_moiety         'C16 H23 N1 O2'
_chemical_name_systematic        
't-butyl 2-methyl-2-phenylpyrrolidine-1-carboxylate'
_symmetry_cell_setting           orthorhombic
_symmetry_space_group_name_H-M   'P 21 21 21'
_symmetry_Int_Tables_number      19
_space_group_name_Hall           'P 2ac 2ab'
loop_
_symmetry_equiv_pos_site_id
_symmetry_equiv_pos_as_xyz
1 x,y,z
2 1/2-x,-y,1/2+z
3 -x,1/2+y,1/2-z
4 1/2+x,1/2-y,-z
_cell_length_a                   6.4315(2)
_cell_length_b                   10.2343(3)
_cell_length_c                   22.1045(6)
_cell_angle_alpha                90
_cell_angle_beta                 90
_cell_angle_gamma                90
_cell_volume                     1454.96
_exptl_crystal_colour            colorless
_exptl_crystal_description       plate
_cell_formula_units_Z            4
loop_
_atom_site_label
_atom_site_type_symbol
_atom_site_fract_x
_atom_site_fract_y
_atom_site_fract_z
O1 O 0.71019(17) 0.44709(10) 0.63390(4)
O2 O 0.93780(17) 0.35070(10) 0.69942(5)
N1 N 0.73532(19) 0.51996(11) 0.72875(5)
C1 C 0.7729(3) 0.23808(16) 0.58299(7)
H1 H 0.8535 0.2043 0.6172
H2 H 0.8239 0.1988 0.5454
H3 H 0.6259 0.2161 0.5885
C2 C 0.7971(3) 0.38546(16) 0.57971(7)
C3 C 0.8057(2) 0.43270(14) 0.68795(6)
C4 C 0.8072(2) 0.50981(15) 0.79163(6)
H4 H 0.9521 0.5411 0.7957
H5 H 0.7991 0.4185 0.8062
C5 C 0.6576(3) 0.59750(16) 0.82635(7)
H6 H 0.7272 0.6391 0.8613
H7 H 0.5354 0.5477 0.8409
C6 C 0.5945(2) 0.69892(15) 0.77922(7)
H8 H 0.7031 0.7669 0.7750
H9 H 0.4618 0.7414 0.7905
C7 C 0.5703(2) 0.62069(14) 0.71993(7)
C8 C 0.6156(2) 0.70603(15) 0.66456(7)
C9 C 0.8127(3) 0.76110(15) 0.65731(7)
H10 H 0.9159 0.7469 0.6874
C10 C 0.8601(3) 0.83613(16) 0.60699(7)
H11 H 0.9955 0.8720 0.6027
C11 C 0.7112(3) 0.85919(16) 0.56296(7)
H12 H 0.7442 0.9099 0.5283
C12 C 0.5140(3) 0.80749(17) 0.57007(7)
H13 H 0.4103 0.8240 0.5404
C13 C 0.4666(2) 0.73133(15) 0.62043(7)
H14 H 0.3307 0.6962 0.6247
C14 C 0.6619(3) 0.44239(19) 0.52994(7)
H15 H 0.5162 0.4197 0.5375
H16 H 0.7052 0.4066 0.4908
H17 H 0.6771 0.5377 0.5294
C15 C 1.0226(3) 0.42656(19) 0.57123(7)
H18 H 1.0331 0.5219 0.5739
H19 H 1.0716 0.3975 0.5315
H20 H 1.1083 0.3867 0.6029
C16 C 0.3561(2) 0.55552(16) 0.71783(7)
H21 H 0.3464 0.5003 0.6817
H22 H 0.2479 0.6229 0.7164
H23 H 0.3369 0.5017 0.7541
loop_
_geom_bond_atom_site_label_1
_geom_bond_atom_site_label_2
_geom_bond_site_symmetry_1
_geom_bond_site_symmetry_2
O1 C2 1_555 1_555
O2 C3 1_555 1_555
N1 C3 1_555 1_555
C1 H1 1_555 1_555
H2 C1 1_555 1_555
H3 C1 1_555 1_555
C2 C1 1_555 1_555
C3 O1 1_555 1_555
C4 N1 1_555 1_555
H4 C4 1_555 1_555
H5 C4 1_555 1_555
C5 C4 1_555 1_555
H6 C5 1_555 1_555
H7 C5 1_555 1_555
C6 C5 1_555 1_555
H8 C6 1_555 1_555
H9 C6 1_555 1_555
C7 N1 1_555 1_555
C8 C7 1_555 1_555
C9 C8 1_555 1_555
H10 C9 1_555 1_555
C10 C9 1_555 1_555
H11 C10 1_555 1_555
C11 C10 1_555 1_555
H12 C11 1_555 1_555
C12 C11 1_555 1_555
H13 C12 1_555 1_555
C13 C8 1_555 1_555
H14 C13 1_555 1_555
C14 C2 1_555 1_555
H15 C14 1_555 1_555
H16 C14 1_555 1_555
H17 C14 1_555 1_555
C15 C2 1_555 1_555
H18 C15 1_555 1_555
H19 C15 1_555 1_555
H20 C15 1_555 1_555
C16 C7 1_555 1_555
H21 C16 1_555 1_555
H22 C16 1_555 1_555
H23 C16 1_555 1_555
C6 C7 1_555 1_555
C12 C13 1_555 1_555

#END
