
#######################################################################
#
#                 Cambridge Crystallographic Data Centre
#                                CCDC 
#
#######################################################################
#
# If this CIF has been generated from an entry in the Cambridge 
# Structural Database, then it will include bibliographic, chemical, 
# crystal, experimental, refinement or atomic coordinate data resulting 
# from the CCDC's data processing and validation procedures.
#
#######################################################################

data_NICJEP
_chemical_formula_moiety         'C13 H12 O3'
_chemical_name_systematic        7-Hydroxy-7,8,9,10-tetrahydrobenzo(h)coumarin
_symmetry_cell_setting           monoclinic
_symmetry_space_group_name_H-M   'C c'
_symmetry_Int_Tables_number      9
_space_group_name_Hall           'C -2yc'
loop_
_symmetry_equiv_pos_site_id
_symmetry_equiv_pos_as_xyz
1 x,y,z
2 x,-y,1/2+z
3 1/2+x,1/2+y,z
4 1/2+x,1/2-y,1/2+z
_cell_length_a                   25.765(3)
_cell_length_b                   7.2986(8)
_cell_length_c                   22.733(3)
_cell_angle_alpha                90
_cell_angle_beta                 107.486(4)
_cell_angle_gamma                90
_cell_volume                     4077.36
_exptl_crystal_colour            colorless
_chemical_melting_point          '160-162 deg.C'
_cell_formula_units_Z            16
loop_
_atom_site_label
_atom_site_type_symbol
_atom_site_fract_x
_atom_site_fract_y
_atom_site_fract_z
O1 O 0.39998(19) -0.5997(8) 0.8821(3)
O2 O 0.44017(16) -0.4339(6) 0.8261(2)
O3 O 0.5694(2) 0.0244(8) 0.7124(3)
H1 H 0.5999 -0.0194 0.7193
C1 C 0.4116(2) -0.4465(12) 0.8672(3)
C2 C 0.3959(3) -0.2769(13) 0.8903(3)
H5 H 0.3767 -0.2779 0.9190
C3 C 0.4095(3) -0.1199(10) 0.8693(3)
H6 H 0.3982 -0.0117 0.8832
C4 C 0.4399(2) -0.1060(9) 0.8277(3)
C5 C 0.4549(2) -0.2709(10) 0.8049(3)
C6 C 0.4830(2) -0.2786(9) 0.7630(3)
C7 C 0.4990(2) -0.1190(10) 0.7434(3)
C8 C 0.4855(2) 0.0487(9) 0.7647(3)
H7 H 0.4967 0.1581 0.7515
C9 C 0.4556(2) 0.0502(10) 0.8052(3)
H8 H 0.4456 0.1625 0.8178
C10 C 0.4948(2) -0.4624(10) 0.7408(3)
H9 H 0.4616 -0.5345 0.7297
H10 H 0.5211 -0.5249 0.7744
C11 C 0.5167(3) -0.4553(11) 0.6858(3)
H11 H 0.4875 -0.4295 0.6483
H12 H 0.5330 -0.5717 0.6808
C12 C 0.5596(2) -0.3015(11) 0.6985(3)
H13 H 0.5786 -0.3042 0.6677
H14 H 0.5860 -0.3194 0.7387
C13 C 0.5308(3) -0.1152(10) 0.6966(3)
H45 H 0.5053(16) -0.059(6) 0.6611(16)
O4 O 0.8952(2) 0.4049(8) 0.6005(3)
O5 O 0.85507(17) 0.5644(7) 0.6531(2)
O6 O 0.72451(18) 1.0285(7) 0.7656(3)
H2 H 0.6938 0.9886 0.7608
C14 C 0.8857(3) 0.5549(11) 0.6121(3)
C15 C 0.8992(3) 0.7255(13) 0.5908(4)
H15 H 0.9200 0.7234 0.5638
C16 C 0.8846(2) 0.8866(12) 0.6063(3)
H16 H 0.8930 0.9935 0.5889
C17 C 0.8546(2) 0.8925(10) 0.6518(3)
C18 C 0.8418(2) 0.7312(9) 0.6722(3)
C19 C 0.8122(2) 0.7176(9) 0.7155(3)
C20 C 0.7960(2) 0.8836(8) 0.7355(3)
C21 C 0.8099(3) 1.0469(11) 0.7145(3)
H17 H 0.7994 1.1550 0.7295
C22 C 0.8385(3) 1.0587(10) 0.6726(4)
H18 H 0.8469 1.1712 0.6586
C23 C 0.7995(2) 0.5352(9) 0.7374(3)
H19 H 0.8327 0.4638 0.7514
H20 H 0.7745 0.4702 0.7033
C24 C 0.7747(3) 0.5517(9) 0.7890(4)
H21 H 0.7552 0.4393 0.7909
H22 H 0.8038 0.5625 0.8275
C25 C 0.7382(3) 0.7023(11) 0.7846(4)
H23 H 0.7257 0.7032 0.8208
H24 H 0.7067 0.6849 0.7488
C26 C 0.7629(3) 0.8796(9) 0.7795(3)
H46 H 0.7856(13) 0.893(5) 0.8243(16)
O7 O 0.8165(2) 0.5586(10) 0.4598(3)
O8 O 0.76625(17) 0.4214(8) 0.5079(2)
O9 O 0.64703(17) 0.0104(7) 0.6520(2)
H3 H 0.6243 0.0224 0.6703
C27 C 0.8034(3) 0.4160(12) 0.4745(3)
C28 C 0.8190(3) 0.2389(14) 0.4611(3)
H25 H 0.8451 0.2287 0.4405
C29 C 0.7977(3) 0.0837(11) 0.4766(3)
H26 H 0.8075 -0.0306 0.4653
C30 C 0.7593(2) 0.1004(10) 0.5115(3)
C31 C 0.7453(2) 0.2684(8) 0.5256(3)
C32 C 0.7079(2) 0.2935(9) 0.5587(3)
C33 C 0.6858(3) 0.1390(9) 0.5778(3)
C34 C 0.6996(3) -0.0308(10) 0.5614(3)
H27 H 0.6828 -0.1331 0.5718
C35 C 0.7370(3) -0.0567(10) 0.5303(3)
H28 H 0.7473 -0.1737 0.5220
C36 C 0.6960(3) 0.4840(10) 0.5721(3)
H29 H 0.6868 0.5547 0.5342
H30 H 0.7283 0.5379 0.6005
C37 C 0.6487(3) 0.4962(12) 0.6004(4)
H31 H 0.6504 0.6129 0.6214
H32 H 0.6144 0.4906 0.5678
C38 C 0.6510(3) 0.3415(10) 0.6461(3)
H33 H 0.6858 0.3433 0.6782
H34 H 0.6224 0.3567 0.6652
C39 C 0.6440(3) 0.1624(11) 0.6118(3)
H47 H 0.6067(10) 0.198(6) 0.5863(17)
O10 O 0.4786(2) 0.5594(9) 1.0204(3)
O11 O 0.52907(15) 0.4228(7) 0.9710(2)
O12 O 0.6472(2) 0.0142(7) 0.8275(3)
H4 H 0.6422 0.0539 0.7925
C40 C 0.4935(3) 0.4145(13) 1.0052(3)
C41 C 0.4774(3) 0.2327(13) 1.0192(3)
H35 H 0.4527 0.2212 1.0415
C42 C 0.4963(3) 0.0897(12) 1.0015(3)
H36 H 0.4841 -0.0234 1.0108
C43 C 0.5353(2) 0.0921(9) 0.9682(3)
C44 C 0.5513(2) 0.2659(9) 0.9536(3)
C45 C 0.5878(2) 0.2958(9) 0.9211(3)
C46 C 0.6098(2) 0.1428(9) 0.9030(3)
C47 C 0.5939(3) -0.0336(10) 0.9145(3)
H37 H 0.6077 -0.1356 0.8997
C48 C 0.5583(3) -0.0548(10) 0.9474(3)
H38 H 0.5491 -0.1726 0.9562
C49 C 0.6025(2) 0.4881(8) 0.9064(3)
H39 H 0.5708 0.5441 0.8775
H40 H 0.6121 0.5605 0.9439
C50 C 0.6485(3) 0.4937(10) 0.8795(4)
H41 H 0.6472 0.6085 0.8576
H42 H 0.6825 0.4902 0.9127
C51 C 0.6475(3) 0.3431(10) 0.8374(4)
H43 H 0.6776 0.3566 0.8204
H44 H 0.6140 0.3482 0.8036
C52 C 0.6515(3) 0.1607(9) 0.8685(3)
H48 H 0.6910(11) 0.132(4) 0.9022(14)
loop_
_geom_bond_atom_site_label_1
_geom_bond_atom_site_label_2
_geom_bond_site_symmetry_1
_geom_bond_site_symmetry_2
O1 C1 1_555 1_555
O2 C1 1_555 1_555
O3 H1 1_555 1_555
O4 C14 1_555 1_555
O5 C14 1_555 1_555
O6 H2 1_555 1_555
O7 C27 1_555 1_555
O8 C27 1_555 1_555
O9 H3 1_555 1_555
O10 C40 1_555 1_555
O11 C40 1_555 1_555
O12 H4 1_555 1_555
C1 C2 1_555 1_555
C2 H5 1_555 1_555
C3 C2 1_555 1_555
H6 C3 1_555 1_555
C4 C3 1_555 1_555
C5 O2 1_555 1_555
C6 C5 1_555 1_555
C7 C6 1_555 1_555
C8 C7 1_555 1_555
H7 C8 1_555 1_555
C9 C4 1_555 1_555
H8 C9 1_555 1_555
C10 C6 1_555 1_555
H9 C10 1_555 1_555
H10 C10 1_555 1_555
C11 C10 1_555 1_555
H11 C11 1_555 1_555
H12 C11 1_555 1_555
C12 C11 1_555 1_555
H13 C12 1_555 1_555
H14 C12 1_555 1_555
C13 O3 1_555 1_555
C14 C15 1_555 1_555
C15 H15 1_555 1_555
C16 C15 1_555 1_555
H16 C16 1_555 1_555
C17 C16 1_555 1_555
C18 O5 1_555 1_555
C19 C18 1_555 1_555
C20 C19 1_555 1_555
C21 C20 1_555 1_555
H17 C21 1_555 1_555
C22 C17 1_555 1_555
H18 C22 1_555 1_555
C23 C19 1_555 1_555
H19 C23 1_555 1_555
H20 C23 1_555 1_555
C24 C23 1_555 1_555
H21 C24 1_555 1_555
H22 C24 1_555 1_555
C25 C24 1_555 1_555
H23 C25 1_555 1_555
H24 C25 1_555 1_555
C26 O6 1_555 1_555
C27 C28 1_555 1_555
C28 H25 1_555 1_555
C29 C28 1_555 1_555
H26 C29 1_555 1_555
C30 C29 1_555 1_555
C31 O8 1_555 1_555
C32 C31 1_555 1_555
C33 C32 1_555 1_555
C34 C33 1_555 1_555
H27 C34 1_555 1_555
C35 C30 1_555 1_555
H28 C35 1_555 1_555
C36 C32 1_555 1_555
H29 C36 1_555 1_555
H30 C36 1_555 1_555
C37 C36 1_555 1_555
H31 C37 1_555 1_555
H32 C37 1_555 1_555
C38 C37 1_555 1_555
H33 C38 1_555 1_555
H34 C38 1_555 1_555
C39 O9 1_555 1_555
C40 C41 1_555 1_555
C41 H35 1_555 1_555
C42 C41 1_555 1_555
H36 C42 1_555 1_555
C43 C42 1_555 1_555
C44 O11 1_555 1_555
C45 C44 1_555 1_555
C46 C45 1_555 1_555
C47 C46 1_555 1_555
H37 C47 1_555 1_555
C48 C43 1_555 1_555
H38 C48 1_555 1_555
C49 C45 1_555 1_555
H39 C49 1_555 1_555
H40 C49 1_555 1_555
C50 C49 1_555 1_555
H41 C50 1_555 1_555
H42 C50 1_555 1_555
C51 C50 1_555 1_555
H43 C51 1_555 1_555
H44 C51 1_555 1_555
C52 O12 1_555 1_555
H45 C13 1_555 1_555
H46 C26 1_555 1_555
H47 C39 1_555 1_555
H48 C52 1_555 1_555
C4 C5 1_555 1_555
C7 C13 1_555 1_555
C8 C9 1_555 1_555
C12 C13 1_555 1_555
C17 C18 1_555 1_555
C20 C26 1_555 1_555
C21 C22 1_555 1_555
C25 C26 1_555 1_555
C30 C31 1_555 1_555
C33 C39 1_555 1_555
C34 C35 1_555 1_555
C38 C39 1_555 1_555
C43 C44 1_555 1_555
C46 C52 1_555 1_555
C47 C48 1_555 1_555
C51 C52 1_555 1_555

#END
