
#######################################################################
#
#                 Cambridge Crystallographic Data Centre
#                                CCDC 
#
#######################################################################
#
# If this CIF has been generated from an entry in the Cambridge 
# Structural Database, then it will include bibliographic, chemical, 
# crystal, experimental, refinement or atomic coordinate data resulting 
# from the CCDC's data processing and validation procedures.
#
#######################################################################

data_NICJIV
_chemical_formula_moiety         'C15 H20 Br1 N1 O2'
_chemical_name_systematic        
't-butyl 2-(4-bromophenyl)pyrrolidine-1-carboxylate'
_symmetry_cell_setting           monoclinic
_symmetry_space_group_name_H-M   'P 21'
_symmetry_Int_Tables_number      4
_space_group_name_Hall           'P 2yb'
loop_
_symmetry_equiv_pos_site_id
_symmetry_equiv_pos_as_xyz
1 x,y,z
2 -x,1/2+y,-z
_cell_length_a                   8.3662(4)
_cell_length_b                   11.0924(5)
_cell_length_c                   8.7666(4)
_cell_angle_alpha                90
_cell_angle_beta                 111.0450(10)
_cell_angle_gamma                90
_cell_volume                     759.286
_exptl_crystal_colour            colorless
_exptl_crystal_description       needle
_cell_formula_units_Z            2
loop_
_atom_site_label
_atom_site_type_symbol
_atom_site_fract_x
_atom_site_fract_y
_atom_site_fract_z
Br1 Br 0.20177(3) 0.13799(3) 0.68131(3)
O1 O 0.2762(2) 0.86124(17) 0.6443(2)
O2 O 0.4116(2) 0.68415(18) 0.7486(2)
N1 N 0.2139(3) 0.7567(2) 0.8383(3)
C1 C 0.2123(3) 0.2998(2) 0.7576(3)
C2 C 0.3358(3) 0.3272(3) 0.9080(3)
H1 H 0.4130 0.2671 0.9695
C3 C 0.3448(3) 0.4439(3) 0.9670(3)
H2 H 0.4308 0.4639 1.0688
C4 C 0.2305(3) 0.5320(3) 0.8802(3)
C5 C 0.1069(3) 0.5016(3) 0.7289(3)
H3 H 0.0281 0.5611 0.6682
C6 C 0.0977(3) 0.3865(3) 0.6661(3)
H4 H 0.0146 0.3668 0.5625
C7 C 0.2376(3) 0.6552(3) 0.9533(3)
H5 H 0.3498 0.6650 1.0453
C8 C 0.0909(4) 0.6783(3) 1.0180(4)
H6 H -0.0186 0.6444 0.9432
H7 H 0.1177 0.6432 1.1282
C9 C 0.0833(4) 0.8158(3) 1.0232(4)
H8 H -0.0285 0.8436 1.0249
H9 H 0.1760 0.8483 1.1202
C10 C 0.1074(4) 0.8535(3) 0.8655(4)
H10 H -0.0041 0.8586 0.7738
H11 H 0.1661 0.9324 0.8785
C11 C 0.2992(3) 0.7744(2) 0.7348(3)
C12 C 0.4974(4) 0.6703(2) 0.6290(3)
C13 C 0.6197(4) 0.7748(3) 0.6446(4)
H12 H 0.5541 0.8495 0.6096
H13 H 0.6872 0.7597 0.5755
H14 H 0.6966 0.7826 0.7587
C14 C 0.3644(4) 0.6587(3) 0.4577(3)
H15 H 0.2839 0.5940 0.4559
H16 H 0.4215 0.6397 0.3807
H17 H 0.3019 0.7349 0.4261
C15 C 0.5935(4) 0.5528(3) 0.6829(4)
H18 H 0.6774 0.5617 0.7940
H19 H 0.6529 0.5320 0.6084
H20 H 0.5124 0.4886 0.6812
loop_
_geom_bond_atom_site_label_1
_geom_bond_atom_site_label_2
_geom_bond_site_symmetry_1
_geom_bond_site_symmetry_2
Br1 C1 1_555 1_555
O1 C11 1_555 1_555
O2 C11 1_555 1_555
N1 C7 1_555 1_555
C1 C2 1_555 1_555
C2 H1 1_555 1_555
C3 C2 1_555 1_555
H2 C3 1_555 1_555
C4 C3 1_555 1_555
C5 C4 1_555 1_555
H3 C5 1_555 1_555
C6 C1 1_555 1_555
H4 C6 1_555 1_555
C7 C4 1_555 1_555
H5 C7 1_555 1_555
C8 C7 1_555 1_555
H6 C8 1_555 1_555
H7 C8 1_555 1_555
C9 C8 1_555 1_555
H8 C9 1_555 1_555
H9 C9 1_555 1_555
C10 N1 1_555 1_555
H10 C10 1_555 1_555
H11 C10 1_555 1_555
C11 N1 1_555 1_555
C12 O2 1_555 1_555
C13 C12 1_555 1_555
H12 C13 1_555 1_555
H13 C13 1_555 1_555
H14 C13 1_555 1_555
C14 C12 1_555 1_555
H15 C14 1_555 1_555
H16 C14 1_555 1_555
H17 C14 1_555 1_555
C15 C12 1_555 1_555
H18 C15 1_555 1_555
H19 C15 1_555 1_555
H20 C15 1_555 1_555
C5 C6 1_555 1_555
C9 C10 1_555 1_555

#END
