
#######################################################################
#
#                 Cambridge Crystallographic Data Centre
#                                CCDC 
#
#######################################################################
#
# If this CIF has been generated from an entry in the Cambridge 
# Structural Database, then it will include bibliographic, chemical, 
# crystal, experimental, refinement or atomic coordinate data resulting 
# from the CCDC's data processing and validation procedures.
#
#######################################################################

data_NICJIT
_chemical_formula_moiety         'C14 H12 O2'
_chemical_name_systematic        4-Methyl-9,10-dihydrobenzo(h)coumarin
_symmetry_cell_setting           monoclinic
_symmetry_space_group_name_H-M   'P 21/c'
_symmetry_Int_Tables_number      14
_space_group_name_Hall           '-P 2ybc'
loop_
_symmetry_equiv_pos_site_id
_symmetry_equiv_pos_as_xyz
1 x,y,z
2 -x,1/2+y,1/2-z
3 -x,-y,-z
4 x,1/2-y,1/2+z
_cell_length_a                   7.3063(11)
_cell_length_b                   20.333(3)
_cell_length_c                   7.3063(11)
_cell_angle_alpha                90
_cell_angle_beta                 96.507(3)
_cell_angle_gamma                90
_cell_volume                     1078.42
_exptl_crystal_colour            colorless
_chemical_melting_point          '150-152 deg.C'
_cell_formula_units_Z            4
loop_
_atom_site_label
_atom_site_type_symbol
_atom_site_fract_x
_atom_site_fract_y
_atom_site_fract_z
O1 O -0.07158(19) 0.16090(7) 0.1038(2)
O2 O 0.06681(16) 0.25519(6) 0.16975(18)
C1 C 0.0694(3) 0.18787(10) 0.1664(3)
C2 C 0.2385(3) 0.15610(11) 0.2363(3)
C3 C 0.3904(3) 0.18905(10) 0.3021(2)
C4 C 0.3842(2) 0.26012(9) 0.3045(2)
C5 C 0.2200(2) 0.29130(9) 0.2392(2)
C6 C 0.1973(3) 0.35876(9) 0.2356(2)
C7 C 0.3509(3) 0.39756(10) 0.2978(3)
C8 C 0.5173(3) 0.36717(11) 0.3631(3)
C9 C 0.5345(3) 0.30050(11) 0.3675(3)
C10 C 0.3298(4) 0.46901(11) 0.2935(3)
C11 C 0.1666(4) 0.49761(12) 0.2705(4)
C12 C -0.0066(3) 0.45805(11) 0.2477(4)
C13 C 0.0192(3) 0.39140(10) 0.1597(3)
C14 C 0.5644(4) 0.15378(15) 0.3714(4)
H1 H 0.234(2) 0.1090(13) 0.229(2)
H2 H 0.616(3) 0.3981(11) 0.407(3)
H3 H 0.652(3) 0.2817(10) 0.415(3)
H4 H 0.443(4) 0.4960(12) 0.314(3)
H5 H 0.155(4) 0.5423(16) 0.275(4)
H6 H -0.042(3) 0.4523(10) 0.377(3)
H7 H -0.099(3) 0.4778(13) 0.174(3)
H8 H 0.016(3) 0.3980(9) 0.020(3)
H9 H -0.079(3) 0.3639(12) 0.167(3)
H10 H 0.662(4) 0.1621(12) 0.293(3)
H11 H 0.614(3) 0.1664(11) 0.497(4)
H12 H 0.546(4) 0.1079(18) 0.366(4)
loop_
_geom_bond_atom_site_label_1
_geom_bond_atom_site_label_2
_geom_bond_site_symmetry_1
_geom_bond_site_symmetry_2
O1 C1 1_555 1_555
O2 C1 1_555 1_555
C1 C2 1_555 1_555
C2 C3 1_555 1_555
C3 C4 1_555 1_555
C4 C5 1_555 1_555
C5 O2 1_555 1_555
C6 C5 1_555 1_555
C7 C6 1_555 1_555
C8 C7 1_555 1_555
C9 C4 1_555 1_555
C10 C7 1_555 1_555
C11 C10 1_555 1_555
C12 C11 1_555 1_555
C13 C6 1_555 1_555
C14 C3 1_555 1_555
H1 C2 1_555 1_555
H2 C8 1_555 1_555
H3 C9 1_555 1_555
H4 C10 1_555 1_555
H5 C11 1_555 1_555
H6 C12 1_555 1_555
H7 C12 1_555 1_555
H8 C13 1_555 1_555
H9 C13 1_555 1_555
H10 C14 1_555 1_555
H11 C14 1_555 1_555
H12 C14 1_555 1_555
C8 C9 1_555 1_555
C12 C13 1_555 1_555

#END
