
#######################################################################
#
#                 Cambridge Crystallographic Data Centre
#                                CCDC 
#
#######################################################################
#
# If this CIF has been generated from an entry in the Cambridge 
# Structural Database, then it will include bibliographic, chemical, 
# crystal, experimental, refinement or atomic coordinate data resulting 
# from the CCDC's data processing and validation procedures.
#
#######################################################################

data_NICJER
_chemical_formula_moiety         'C68 H68 N12 O4,2(C1 H1 Cl3)'
_chemical_name_systematic        
'13,24,37,48-tetrakis(hexyloxy)-2,3,10,11,26,27,34,35,51,52,55,56-dodeca-azaundecacyclo[43.3.1.1^2,5^.1^8,11^.1^12,16^.1^21,25^.1^26,29^.1^32,35^.1^36,40^.0^4,9^.0^28,33^]hexapentaconta-1(49),3,5(56),6,8(55),9,12(54),13,15,21(53),22,24,27,29(52),30,32(51),33,36(50),37,39,45,47-docosaene-17,19,41,43-tetrayne chloroform solvate'
_symmetry_cell_setting           triclinic
_symmetry_space_group_name_H-M   'P -1'
_symmetry_Int_Tables_number      2
_space_group_name_Hall           '-P 1'
loop_
_symmetry_equiv_pos_site_id
_symmetry_equiv_pos_as_xyz
1 x,y,z
2 -x,-y,-z
_cell_length_a                   11.1142(4)
_cell_length_b                   13.0030(5)
_cell_length_c                   13.8223(5)
_cell_angle_alpha                66.511(4)
_cell_angle_beta                 88.482(3)
_cell_angle_gamma                67.769(4)
_cell_volume                     1677.58
_exptl_crystal_colour            'light yellow'
_exptl_crystal_description       needle
_cell_formula_units_Z            1
loop_
_atom_site_label
_atom_site_type_symbol
_atom_site_fract_x
_atom_site_fract_y
_atom_site_fract_z
Cl1 Cl 0.97656(12) 0.84952(13) 0.47554(11)
Cl2 Cl 0.96868(14) 0.84296(13) 0.68712(11)
Cl3 Cl 0.94235(14) 0.64925(12) 0.64853(13)
C1 C 0.9087(5) 0.8059(5) 0.5943(4)
H1 H 0.8132 0.8518 0.5776
O1 O 0.6790(2) 0.6028(2) 0.2993(2)
O2 O 0.3796(2) 0.8056(2) 0.89471(19)
N1 N 0.5001(3) 0.8702(3) 0.7144(2)
N2 N 0.6702(3) 0.8037(2) 0.4396(2)
N3 N 0.6378(3) 0.7907(3) 0.3533(2)
N4 N 0.3776(3) 0.8900(3) 0.6816(2)
N5 N 0.5913(3) 0.8464(2) 0.6509(2)
N6 N 0.5126(3) 0.8067(3) 0.3335(2)
C2 C 0.5568(3) 0.8288(3) 0.4792(2)
C3 C 0.5210(3) 0.8498(3) 0.5715(2)
C4 C 0.3895(3) 0.8755(3) 0.5907(2)
C5 C 0.4588(3) 0.8311(3) 0.4138(3)
C6 C 0.9009(3) 0.8112(3) 0.1867(3)
C7 C 0.7513(3) 0.6688(3) 0.2564(3)
C8 C 0.6822(3) 0.9188(3) 0.9008(3)
C9 C 0.5378(3) 0.8760(3) 0.8095(2)
C10 C 0.8050(3) 0.8360(3) 0.2514(3)
H2 H 0.7904 0.8996 0.2715
C11 C 0.6398(3) 0.9116(3) 0.8100(3)
H3 H 0.6808 0.9309 0.7498
C12 C 0.9817(3) 0.8792(3) 0.1565(3)
C13 C 0.4757(3) 0.8425(3) 0.9013(3)
C14 C 0.7318(3) 0.7656(3) 0.2856(2)
C15 C 0.3255(3) 0.8575(3) 0.4351(3)
H4 H 0.2637 0.8589 0.3900
C16 C 0.8446(3) 0.6470(3) 0.1897(3)
H5 H 0.8578 0.5848 0.1681
C17 C 0.5201(3) 0.8485(3) 0.9914(3)
H6 H 0.4812 0.8266 1.0525
C18 C 1.0536(3) 0.9326(3) 0.1361(3)
C19 C 0.2909(3) 0.8803(3) 0.5213(3)
H7 H 0.2049 0.8988 0.5357
C20 C 1.2181(3) 1.0350(3) 0.1046(3)
C21 C 0.6211(3) 0.8865(3) 0.9918(3)
H8 H 0.6485 0.8906 1.0527
C22 C 1.1396(3) 0.9898(3) 0.1175(3)
C23 C 0.9175(3) 0.7171(3) 0.1552(3)
H9 H 0.9789 0.7017 0.1103
C24 C 0.6781(4) 0.5139(3) 0.2623(3)
H10 H 0.7660 0.4514 0.2747
H11 H 0.6456 0.5529 0.1866
C25 C 0.5881(4) 0.4585(3) 0.3254(3)
H12 H 0.6239 0.4185 0.4005
H13 H 0.5859 0.3963 0.3044
C26 C 0.3599(4) 0.5009(3) 0.3818(3)
H14 H 0.3976 0.4687 0.4556
H15 H 0.3572 0.4334 0.3694
C27 C 0.4481(4) 0.5520(3) 0.3100(3)
H16 H 0.4514 0.6189 0.3232
H17 H 0.4094 0.5853 0.2364
C28 C 0.2207(4) 0.5952(4) 0.3640(3)
H18 H 0.2243 0.6652 0.3713
H19 H 0.1814 0.6231 0.2915
C29 C 0.3047(4) 0.7839(4) 0.9810(3)
H20 H 0.2608 0.8577 0.9921
H21 H 0.3613 0.7197 1.0464
C30 C 0.2046(4) 0.7453(5) 0.9493(4)
H22 H 0.1486 0.8116 0.8845
H23 H 0.1495 0.7329 1.0048
C31 C 0.1331(4) 0.5493(4) 0.4395(4)
H24 H 0.0442 0.6094 0.4169
H25 H 0.1623 0.5350 0.5102
H26 H 0.1370 0.4743 0.4394
C32 C 0.2633(5) 0.6295(4) 0.9308(4)
H27 H 0.3189 0.6426 0.8757
H28 H 0.1919 0.6188 0.9028
C33 C 0.3457(6) 0.5072(5) 1.0280(5)
H29 H 0.3887 0.4449 1.0022
H30 H 0.4139 0.5187 1.0594
C34 C 0.1691(8) 0.4278(7) 1.0746(6)
H31 H 0.1065 0.4992 1.0178
H32 H 0.1246 0.3972 1.1327
H33 H 0.2122 0.3660 1.0493
C35 C 0.2707(9) 0.4610(6) 1.1126(5)
H34 H 0.2265 0.5231 1.1384
H35 H 0.3315 0.3893 1.1718
O1A O 1.3210(2) 1.3972(2) 0.7007(2)
O2A O 1.6204(2) 1.1944(2) 0.10529(19)
N1A N 1.4999(3) 1.1298(3) 0.2856(2)
N2A N 1.3298(3) 1.1963(2) 0.5604(2)
N3A N 1.3622(3) 1.2093(3) 0.6467(2)
N4A N 1.6224(3) 1.1100(3) 0.3184(2)
N5A N 1.4087(3) 1.1536(2) 0.3491(2)
N6A N 1.4874(3) 1.1933(3) 0.6665(2)
C2A C 1.4432(3) 1.1712(3) 0.5208(2)
C3A C 1.4790(3) 1.1502(3) 0.4285(2)
C4A C 1.6105(3) 1.1245(3) 0.4093(2)
C5A C 1.5412(3) 1.1689(3) 0.5862(3)
C6A C 1.0991(3) 1.1888(3) 0.8133(3)
C7A C 1.2487(3) 1.3312(3) 0.7436(3)
C8A C 1.3178(3) 1.0812(3) 0.0992(3)
C9A C 1.4622(3) 1.1240(3) 0.1905(2)
C10A C 1.1950(3) 1.1640(3) 0.7486(3)
H2A H 1.2096 1.1004 0.7285
C11A C 1.3602(3) 1.0884(3) 0.1900(3)
H3A H 1.3192 1.0691 0.2502
C12A C 1.0183(3) 1.1208(3) 0.8435(3)
C13A C 1.5243(3) 1.1575(3) 0.0987(3)
C14A C 1.2682(3) 1.2344(3) 0.7144(2)
C15A C 1.6745(3) 1.1425(3) 0.5649(3)
H4A H 1.7363 1.1411 0.6100
C16A C 1.1554(3) 1.3530(3) 0.8103(3)
H5A H 1.1422 1.4152 0.8319
C17A C 1.4799(3) 1.1515(3) 0.0086(3)
H6A H 1.5188 1.1734 -0.0525
C18A C 0.9464(3) 1.0674(3) 0.8639(3)
C19A C 1.7091(3) 1.1197(3) 0.4787(3)
H7A H 1.7951 1.1012 0.4643
C20A C 0.7819(3) 0.9650(3) 0.8954(3)
C21A C 1.3789(3) 1.1135(3) 0.0082(3)
H8A H 1.3515 1.1094 -0.0527
C22A C 0.8604(3) 1.0102(3) 0.8825(3)
C23A C 1.0825(3) 1.2829(3) 0.8448(3)
H9A H 1.0211 1.2983 0.8897
C24A C 1.3219(4) 1.4861(3) 0.7377(3)
H10A H 1.2340 1.5486 0.7253
H11A H 1.3544 1.4471 0.8134
C25A C 1.4119(4) 1.5415(3) 0.6746(3)
H12A H 1.3761 1.5815 0.5995
H13A H 1.4141 1.6037 0.6956
C26A C 1.6401(4) 1.4991(3) 0.6182(3)
H14A H 1.6024 1.5313 0.5444
H15A H 1.6428 1.5666 0.6306
C27A C 1.5519(4) 1.4480(3) 0.6900(3)
H16A H 1.5486 1.3811 0.6768
H17A H 1.5906 1.4147 0.7636
C28A C 1.7793(4) 1.4048(4) 0.6360(3)
H18A H 1.7757 1.3348 0.6287
H19A H 1.8186 1.3769 0.7085
C29A C 1.6953(4) 1.2161(4) 0.0190(3)
H20A H 1.7392 1.1423 0.0079
H21A H 1.6387 1.2803 -0.0464
C30A C 1.7954(4) 1.2547(5) 0.0507(4)
H22A H 1.8514 1.1884 0.1155
H23A H 1.8505 1.2671 -0.0048
C31A C 1.8669(4) 1.4507(4) 0.5605(4)
H24A H 1.9558 1.3906 0.5831
H25A H 1.8377 1.4650 0.4898
H26A H 1.8630 1.5257 0.5606
C32A C 1.7367(5) 1.3705(4) 0.0692(4)
H27A H 1.6811 1.3574 0.1243
H28A H 1.8081 1.3812 0.0972
C33A C 1.6543(6) 1.4928(5) -0.0280(5)
H29A H 1.6113 1.5551 -0.0022
H30A H 1.5861 1.4813 -0.0594
C34A C 1.8309(8) 1.5722(7) -0.0746(6)
H31A H 1.8935 1.5008 -0.0178
H32A H 1.8754 1.6028 -0.1327
H33A H 1.7878 1.6340 -0.0493
C35A C 1.7293(9) 1.5390(6) -0.1126(5)
H34A H 1.7735 1.4769 -0.1384
H35A H 1.6685 1.6107 -0.1718
loop_
_geom_bond_atom_site_label_1
_geom_bond_atom_site_label_2
_geom_bond_site_symmetry_1
_geom_bond_site_symmetry_2
Cl1 C1 1_555 1_555
Cl2 C1 1_555 1_555
Cl3 C1 1_555 1_555
C1 H1 1_555 1_555
O1 C7 1_555 1_555
O2 C13 1_555 1_555
N1 N4 1_555 1_555
N2 N3 1_555 1_555
N3 N6 1_555 1_555
N4 C4 1_555 1_555
N5 N1 1_555 1_555
N6 C5 1_555 1_555
C2 N2 1_555 1_555
C3 N5 1_555 1_555
C4 C3 1_555 1_555
C5 C2 1_555 1_555
C6 C10 1_555 1_555
C7 C14 1_555 1_555
C8 C11 1_555 1_555
C9 N1 1_555 1_555
C10 H2 1_555 1_555
C11 C9 1_555 1_555
H3 C11 1_555 1_555
C12 C6 1_555 1_555
C13 C9 1_555 1_555
C14 N3 1_555 1_555
C15 C5 1_555 1_555
H4 C15 1_555 1_555
C16 C7 1_555 1_555
H5 C16 1_555 1_555
C17 C13 1_555 1_555
H6 C17 1_555 1_555
C18 C12 1_555 1_555
C19 C4 1_555 1_555
H7 C19 1_555 1_555
C20 C22 1_555 1_555
C21 C8 1_555 1_555
H8 C21 1_555 1_555
C22 C18 1_555 1_555
C23 C6 1_555 1_555
H9 C23 1_555 1_555
C24 O1 1_555 1_555
H10 C24 1_555 1_555
H11 C24 1_555 1_555
C25 C24 1_555 1_555
H12 C25 1_555 1_555
H13 C25 1_555 1_555
C26 H14 1_555 1_555
H15 C26 1_555 1_555
C27 C25 1_555 1_555
H16 C27 1_555 1_555
H17 C27 1_555 1_555
C28 C26 1_555 1_555
H18 C28 1_555 1_555
H19 C28 1_555 1_555
C29 O2 1_555 1_555
H20 C29 1_555 1_555
H21 C29 1_555 1_555
C30 C29 1_555 1_555
H22 C30 1_555 1_555
H23 C30 1_555 1_555
C31 C28 1_555 1_555
H24 C31 1_555 1_555
H25 C31 1_555 1_555
H26 C31 1_555 1_555
C32 C30 1_555 1_555
H27 C32 1_555 1_555
H28 C32 1_555 1_555
C33 C32 1_555 1_555
H29 C33 1_555 1_555
H30 C33 1_555 1_555
C34 H31 1_555 1_555
H32 C34 1_555 1_555
H33 C34 1_555 1_555
C35 C33 1_555 1_555
H34 C35 1_555 1_555
H35 C35 1_555 1_555
O1A C7A 1_555 1_555
O2A C13A 1_555 1_555
N1A N4A 1_555 1_555
N2A N3A 1_555 1_555
N3A N6A 1_555 1_555
N4A C4A 1_555 1_555
N5A N1A 1_555 1_555
N6A C5A 1_555 1_555
C2A N2A 1_555 1_555
C3A N5A 1_555 1_555
C4A C3A 1_555 1_555
C5A C2A 1_555 1_555
C6A C10A 1_555 1_555
C7A C14A 1_555 1_555
C8A C20 1_555 1_555
C9A N1A 1_555 1_555
C10A H2A 1_555 1_555
C11A C8A 1_555 1_555
H3A C11A 1_555 1_555
C12A C6A 1_555 1_555
C13A C9A 1_555 1_555
C14A N3A 1_555 1_555
C15A C5A 1_555 1_555
H4A C15A 1_555 1_555
C16A C7A 1_555 1_555
H5A C16A 1_555 1_555
C17A C13A 1_555 1_555
H6A C17A 1_555 1_555
C18A C12A 1_555 1_555
C19A C4A 1_555 1_555
H7A C19A 1_555 1_555
C20A C8 1_555 1_555
C21A C8A 1_555 1_555
H8A C21A 1_555 1_555
C22A C18A 1_555 1_555
C23A C6A 1_555 1_555
H9A C23A 1_555 1_555
C24A O1A 1_555 1_555
H10A C24A 1_555 1_555
H11A C24A 1_555 1_555
C25A C24A 1_555 1_555
H12A C25A 1_555 1_555
H13A C25A 1_555 1_555
C26A H14A 1_555 1_555
H15A C26A 1_555 1_555
C27A C25A 1_555 1_555
H16A C27A 1_555 1_555
H17A C27A 1_555 1_555
C28A C26A 1_555 1_555
H18A C28A 1_555 1_555
H19A C28A 1_555 1_555
C29A O2A 1_555 1_555
H20A C29A 1_555 1_555
H21A C29A 1_555 1_555
C30A C29A 1_555 1_555
H22A C30A 1_555 1_555
H23A C30A 1_555 1_555
C31A C28A 1_555 1_555
H24A C31A 1_555 1_555
H25A C31A 1_555 1_555
H26A C31A 1_555 1_555
C32A C30A 1_555 1_555
H27A C32A 1_555 1_555
H28A C32A 1_555 1_555
C33A C32A 1_555 1_555
H29A C33A 1_555 1_555
H30A C33A 1_555 1_555
C34A H31A 1_555 1_555
H32A C34A 1_555 1_555
H33A C34A 1_555 1_555
C35A C33A 1_555 1_555
H34A C35A 1_555 1_555
H35A C35A 1_555 1_555
C2 C3 1_555 1_555
C10 C14 1_555 1_555
C15 C19 1_555 1_555
C16 C23 1_555 1_555
C17 C21 1_555 1_555
C26 C27 1_555 1_555
C34 C35 1_555 1_555
C2A C3A 1_555 1_555
C9A C11A 1_555 1_555
C10A C14A 1_555 1_555
C15A C19A 1_555 1_555
C16A C23A 1_555 1_555
C17A C21A 1_555 1_555
C20A C22A 1_555 1_555
C26A C27A 1_555 1_555
C34A C35A 1_555 1_555

#END
