
#######################################################################
#
#                 Cambridge Crystallographic Data Centre
#                                CCDC 
#
#######################################################################
#
# If this CIF has been generated from an entry in the Cambridge 
# Structural Database, then it will include bibliographic, chemical, 
# crystal, experimental, refinement or atomic coordinate data resulting 
# from the CCDC's data processing and validation procedures.
#
#######################################################################

data_NICNOE
_chemical_compound_source        'fungus Perenniporia sp.'
_chemical_name_common            'Perenniporide A'
_chemical_formula_moiety         'C17 H18 O7'
_chemical_name_systematic        
6'-Ethyl-4,5'-dihydroxy-2',7'-dimethoxy-3,4-dihydro-4'H,5H-spiro[furan-2,1'-naphthalene]-4',5-dione
_chemical_properties_biological  'antifungal activity'
_symmetry_cell_setting           orthorhombic
_symmetry_space_group_name_H-M   'P 21 21 21'
_symmetry_Int_Tables_number      19
_space_group_name_Hall           'P 2ac 2ab'
loop_
_symmetry_equiv_pos_site_id
_symmetry_equiv_pos_as_xyz
1 x,y,z
2 1/2-x,-y,1/2+z
3 -x,1/2+y,1/2-z
4 1/2+x,1/2-y,-z
_cell_length_a                   6.2340(12)
_cell_length_b                   11.064(2)
_cell_length_c                   22.677(5)
_cell_angle_alpha                90
_cell_angle_beta                 90
_cell_angle_gamma                90
_cell_volume                     1564.1
_cell_formula_units_Z            4
_exptl_crystal_recrystallization_method acetone
loop_
_atom_site_label
_atom_site_type_symbol
_atom_site_fract_x
_atom_site_fract_y
_atom_site_fract_z
C1 C 0.5001(5) 0.5576(3) 0.04306(14)
C2 C 0.3132(5) 0.6464(2) 0.03936(14)
H1 H 0.2372 0.6369 0.0008
C3 C 0.1668(5) 0.6050(2) 0.09013(13)
H2 H 0.0138 0.6170 0.0801
H3 H 0.1998 0.6494 0.1269
C4 C 0.2205(5) 0.4690(3) 0.09642(14)
C5 C 0.2193(5) 0.4274(3) 0.16044(13)
C6 C 0.3728(5) 0.4754(3) 0.19815(13)
H4 H 0.4781 0.5303 0.1840
C7 C 0.3683(5) 0.4408(3) 0.25744(14)
C8 C 0.2166(5) 0.3603(3) 0.28005(14)
C9 C 0.0643(5) 0.3151(3) 0.24102(15)
C10 C 0.0633(5) 0.3469(3) 0.18055(13)
C11 C -0.0876(5) 0.2881(3) 0.13984(14)
C12 C -0.0649(5) 0.3130(3) 0.07712(14)
H5 H -0.1540 0.2713 0.0499
C13 C 0.0773(5) 0.3927(3) 0.05678(14)
C14 C -0.0346(5) 0.3734(3) -0.04469(14)
H6 H -0.0199 0.2852 -0.0458
H7 H 0.0006 0.4069 -0.0835
H8 H -0.1825 0.3946 -0.0344
C15 C 0.6651(5) 0.5710(3) 0.27901(14)
H9 H 0.7522 0.5384 0.2467
H10 H 0.7586 0.5927 0.3121
H11 H 0.5883 0.6430 0.2653
C16 C 0.2140(5) 0.3227(3) 0.34348(14)
H12 H 0.3588 0.3335 0.3606
H13 H 0.1759 0.2360 0.3463
C17 C 0.0508(5) 0.3983(3) 0.37851(13)
H14 H 0.0983 0.4827 0.3798
H15 H 0.0398 0.3667 0.4188
H16 H -0.0898 0.3937 0.3593
O1 O 0.6775(3) 0.56879(19) 0.02413(9)
O2 O 0.4422(3) 0.45839(17) 0.07439(9)
O3 O 0.3960(3) 0.76494(17) 0.04455(10)
H17 H 0.3160 0.8133 0.0264
O4 O 0.1114(3) 0.42293(18) -0.00062(9)
O5 O -0.2275(3) 0.2160(2) 0.15741(10)
O6 O -0.0839(4) 0.2366(2) 0.26289(9)
H18 H -0.1696 0.2168 0.2360
O7 O 0.5135(4) 0.48148(18) 0.29784(9)
loop_
_geom_bond_atom_site_label_1
_geom_bond_atom_site_label_2
_geom_bond_site_symmetry_1
_geom_bond_site_symmetry_2
C1 C2 1_555 1_555
C2 H1 1_555 1_555
C3 C2 1_555 1_555
H2 C3 1_555 1_555
H3 C3 1_555 1_555
C4 C3 1_555 1_555
C5 C4 1_555 1_555
C6 C5 1_555 1_555
H4 C6 1_555 1_555
C7 C6 1_555 1_555
C8 C7 1_555 1_555
C9 C8 1_555 1_555
C10 C5 1_555 1_555
C11 C10 1_555 1_555
C12 C11 1_555 1_555
H5 C12 1_555 1_555
C13 C4 1_555 1_555
C14 H6 1_555 1_555
H7 C14 1_555 1_555
H8 C14 1_555 1_555
C15 H9 1_555 1_555
H10 C15 1_555 1_555
H11 C15 1_555 1_555
C16 C8 1_555 1_555
H12 C16 1_555 1_555
H13 C16 1_555 1_555
C17 C16 1_555 1_555
H14 C17 1_555 1_555
H15 C17 1_555 1_555
H16 C17 1_555 1_555
O1 C1 1_555 1_555
O2 C1 1_555 1_555
O3 C2 1_555 1_555
H17 O3 1_555 1_555
O4 C13 1_555 1_555
O5 C11 1_555 1_555
O6 C9 1_555 1_555
H18 O6 1_555 1_555
O7 C7 1_555 1_555
C4 O2 1_555 1_555
C9 C10 1_555 1_555
C12 C13 1_555 1_555
C14 O4 1_555 1_555
C15 O7 1_555 1_555

#END
