
#######################################################################
#
#                 Cambridge Crystallographic Data Centre
#                                CCDC 
#
#######################################################################
#
# If this CIF has been generated from an entry in the Cambridge 
# Structural Database, then it will include bibliographic, chemical, 
# crystal, experimental, refinement or atomic coordinate data resulting 
# from the CCDC's data processing and validation procedures.
#
#######################################################################

data_NICQIC
_chemical_formula_moiety         'C13 H10 N4 O7'
_chemical_name_systematic        
5-[(2,4-dinitrophenyl)methylidene]-1,3-dimethylpyrimidine-2,4,6(1H,3H,5H)-trione
_symmetry_cell_setting           orthorhombic
_symmetry_space_group_name_H-M   'P 21 21 21'
_symmetry_Int_Tables_number      19
_space_group_name_Hall           'P 2ac 2ab'
loop_
_symmetry_equiv_pos_site_id
_symmetry_equiv_pos_as_xyz
1 x,y,z
2 1/2+x,1/2-y,-z
3 -x,1/2+y,1/2-z
4 1/2-x,-y,1/2+z
_cell_length_a                   7.5143(3)
_cell_length_b                   12.9125(4)
_cell_length_c                   13.9610(5)
_cell_angle_alpha                90
_cell_angle_beta                 90
_cell_angle_gamma                90
_cell_volume                     1354.61
_exptl_crystal_colour            colorless
_exptl_crystal_description       prism
_cell_formula_units_Z            4
loop_
_atom_site_label
_atom_site_type_symbol
_atom_site_fract_x
_atom_site_fract_y
_atom_site_fract_z
C1 C 0.2473(2) 0.39699(11) -0.07825(10)
C2 C 0.4859(2) 0.35505(10) 0.03631(10)
C3 C 0.37619(19) 0.40182(10) 0.11239(9)
C4 C 0.20243(19) 0.45014(11) 0.08846(10)
C5 C -0.0321(2) 0.47763(15) -0.03019(13)
H1 H -0.1100 0.4748 0.0260
H2 H -0.0830 0.4354 -0.0817
H3 H -0.0211 0.5495 -0.0519
C6 C 0.5151(3) 0.30953(15) -0.13285(12)
H4 H 0.6421 0.3091 -0.1169
H5 H 0.4966 0.3482 -0.1924
H6 H 0.4733 0.2382 -0.1412
C7 C 0.41969(19) 0.39795(11) 0.20577(10)
H7 H 0.3296 0.4199 0.2490
C8 C 0.58878(19) 0.36419(10) 0.25041(9)
C9 C 0.7335(2) 0.43254(11) 0.24734(10)
H8 H 0.7265 0.4927 0.2083
C10 C 0.8868(2) 0.41414(11) 0.30016(10)
H9 H 0.9830 0.4618 0.2987
C11 C 0.89680(18) 0.32469(11) 0.35517(9)
C12 C 0.76003(19) 0.25336(10) 0.35943(9)
H10 H 0.7704 0.1916 0.3960
C13 C 0.60693(18) 0.27589(10) 0.30806(9)
N1 N 0.14446(17) 0.43751(10) -0.00481(9)
N2 N 0.41518(18) 0.35904(10) -0.05505(8)
N3 N 0.45982(17) 0.20176(10) 0.31696(9)
N4 N 1.05927(18) 0.30355(10) 0.40985(9)
O1 O 0.1941(2) 0.39592(10) -0.16040(8)
O2 O 0.63077(18) 0.31506(11) 0.05150(9)
O3 O 0.11356(17) 0.49764(11) 0.14661(8)
O4 O 0.47266(19) 0.13218(10) 0.37629(10)
O5 O 0.32989(18) 0.21341(12) 0.26473(10)
O6 O 1.07358(19) 0.21955(10) 0.44914(10)
O7 O 1.17401(18) 0.37170(11) 0.41361(10)
loop_
_geom_bond_atom_site_label_1
_geom_bond_atom_site_label_2
_geom_bond_site_symmetry_1
_geom_bond_site_symmetry_2
C1 N1 1_555 1_555
C2 C3 1_555 1_555
C3 C4 1_555 1_555
C4 N1 1_555 1_555
C5 H1 1_555 1_555
H2 C5 1_555 1_555
H3 C5 1_555 1_555
C6 H4 1_555 1_555
H5 C6 1_555 1_555
H6 C6 1_555 1_555
C7 C3 1_555 1_555
H7 C7 1_555 1_555
C8 C7 1_555 1_555
C9 C8 1_555 1_555
H8 C9 1_555 1_555
C10 C9 1_555 1_555
H9 C10 1_555 1_555
C11 C10 1_555 1_555
C12 C11 1_555 1_555
H10 C12 1_555 1_555
C13 C8 1_555 1_555
N1 C5 1_555 1_555
N2 C1 1_555 1_555
N3 C13 1_555 1_555
N4 C11 1_555 1_555
O1 C1 1_555 1_555
O2 C2 1_555 1_555
O3 C4 1_555 1_555
O4 N3 1_555 1_555
O5 N3 1_555 1_555
O6 N4 1_555 1_555
O7 N4 1_555 1_555
C2 N2 1_555 1_555
C6 N2 1_555 1_555
C12 C13 1_555 1_555

#END
