
#######################################################################
#
#                 Cambridge Crystallographic Data Centre
#                                CCDC 
#
#######################################################################
#
# If this CIF has been generated from an entry in the Cambridge 
# Structural Database, then it will include bibliographic, chemical, 
# crystal, experimental, refinement or atomic coordinate data resulting 
# from the CCDC's data processing and validation procedures.
#
#######################################################################

data_NICREY
_chemical_formula_moiety         'C26 H15 Br3'
_chemical_name_systematic        
2-Bromo-10-(2,5-dibromophenyl)-9-phenylanthracene
_symmetry_cell_setting           triclinic
_symmetry_space_group_name_H-M   'P -1'
_symmetry_Int_Tables_number      2
_space_group_name_Hall           '-P 1'
loop_
_symmetry_equiv_pos_site_id
_symmetry_equiv_pos_as_xyz
1 x,y,z
2 -x,-y,-z
_cell_length_a                   8.2522(11)
_cell_length_b                   11.0428(15)
_cell_length_c                   13.1003(18)
_cell_angle_alpha                74.589(3)
_cell_angle_beta                 80.480(3)
_cell_angle_gamma                69.189(3)
_cell_volume                     1072.44
_exptl_crystal_colour            colorless
_exptl_crystal_description       block
_cell_formula_units_Z            2
loop_
_atom_site_label
_atom_site_type_symbol
_atom_site_fract_x
_atom_site_fract_y
_atom_site_fract_z
C1 C 0.6890(5) 0.3140(3) 0.7414(3)
Br1 Br 0.23031(7) -0.02924(6) 0.93542(4)
Br2 Br 0.37462(7) 0.78890(5) 0.50708(4)
Br3 Br 0.73560(8) 0.40918(5) 0.93942(4)
C2 C 1.0238(6) -0.3763(4) 0.7456(5)
H1 H 1.0709 -0.4664 0.7457
C3 C 0.9720(6) 0.3354(4) 0.6538(4)
H2 H 0.9306 0.4263 0.6507
C4 C 0.9678(8) -0.2870(5) 0.6552(5)
H3 H 0.9741 -0.3156 0.5935
C5 C 1.0116(8) -0.3349(5) 0.8366(5)
H4 H 1.0488 -0.3968 0.8989
C6 C 1.1368(6) 0.2795(5) 0.6156(4)
H5 H 1.2084 0.3313 0.5884
C7 C 0.3101(6) 0.2114(4) 0.8736(4)
H6 H 0.1976 0.2486 0.9020
C8 C 0.9432(7) -0.1997(4) 0.8364(4)
H7 H 0.9353 -0.1722 0.8988
C9 C 0.8588(5) 0.2579(4) 0.6991(3)
C10 C 0.6277(5) 0.5182(4) 0.8148(3)
C11 C 0.6195(5) 0.4599(3) 0.7349(3)
C12 C 0.5845(5) 0.2348(3) 0.7865(3)
C13 C 0.5420(6) 0.5437(4) 0.6432(3)
H8 H 0.5352 0.5080 0.5878
C14 C 0.6503(5) 0.0943(3) 0.7869(3)
C15 C 0.9236(5) 0.1181(4) 0.7004(3)
C16 C 0.5583(6) 0.6543(4) 0.8072(4)
H9 H 0.5626 0.6902 0.8629
C17 C 1.0997(6) 0.0645(4) 0.6572(4)
H10 H 1.1449 -0.0254 0.6568
C18 C 0.4758(5) 0.6789(4) 0.6346(3)
C19 C 0.4110(6) 0.2893(4) 0.8321(4)
H11 H 0.3674 0.3790 0.8332
C20 C 1.2004(6) 0.1419(5) 0.6172(4)
H12 H 1.3137 0.1042 0.5902
C21 C 0.5362(5) 0.0186(4) 0.8329(3)
H13 H 0.5751 -0.0718 0.8343
C22 C 0.3741(6) 0.0747(4) 0.8742(4)
C23 C 0.9004(8) -0.1517(4) 0.6547(4)
H14 H 0.8634 -0.0906 0.5920
C24 C 0.4826(6) 0.7357(4) 0.7156(4)
H15 H 0.4369 0.8273 0.7085
C25 C 0.8875(5) -0.1067(4) 0.7453(3)
C26 C 0.8198(5) 0.0390(3) 0.7431(3)
loop_
_geom_bond_atom_site_label_1
_geom_bond_atom_site_label_2
_geom_bond_site_symmetry_1
_geom_bond_site_symmetry_2
C1 C9 1_555 1_555
Br1 C22 1_555 1_555
Br2 C18 1_555 1_555
Br3 C10 1_555 1_555
C2 H1 1_555 1_555
C3 H2 1_555 1_555
C4 C2 1_555 1_555
H3 C4 1_555 1_555
C5 C2 1_555 1_555
H4 C5 1_555 1_555
C6 C3 1_555 1_555
H5 C6 1_555 1_555
C7 H6 1_555 1_555
C8 C5 1_555 1_555
H7 C8 1_555 1_555
C9 C3 1_555 1_555
C10 C11 1_555 1_555
C11 C1 1_555 1_555
C12 C1 1_555 1_555
C13 C11 1_555 1_555
H8 C13 1_555 1_555
C14 C12 1_555 1_555
C15 C9 1_555 1_555
C16 C10 1_555 1_555
H9 C16 1_555 1_555
C17 C15 1_555 1_555
H10 C17 1_555 1_555
C18 C13 1_555 1_555
C19 C7 1_555 1_555
H11 C19 1_555 1_555
C20 C6 1_555 1_555
H12 C20 1_555 1_555
C21 C14 1_555 1_555
H13 C21 1_555 1_555
C22 C7 1_555 1_555
C23 C4 1_555 1_555
H14 C23 1_555 1_555
C24 C16 1_555 1_555
H15 C24 1_555 1_555
C25 C8 1_555 1_555
C26 C14 1_555 1_555
C12 C19 1_555 1_555
C15 C26 1_555 1_555
C17 C20 1_555 1_555
C18 C24 1_555 1_555
C21 C22 1_555 1_555
C23 C25 1_555 1_555
C25 C26 1_555 1_555

#END
