
#######################################################################
#
#                 Cambridge Crystallographic Data Centre
#                                CCDC 
#
#######################################################################
#
# If this CIF has been generated from an entry in the Cambridge 
# Structural Database, then it will include bibliographic, chemical, 
# crystal, experimental, refinement or atomic coordinate data resulting 
# from the CCDC's data processing and validation procedures.
#
#######################################################################

data_NICRID
_chemical_formula_moiety         'C19 H25 I1 O3'
_chemical_name_systematic        
4-[2-(2-iodo-5-methoxy-4-methylphenyl)ethyl]-3-methoxy-8-methyl-2-oxabicyclo[2.2.2]oct-5-ene
_symmetry_cell_setting           orthorhombic
_symmetry_space_group_name_H-M   'P 21 21 21'
_symmetry_Int_Tables_number      19
_space_group_name_Hall           'P 2ac 2ab'
loop_
_symmetry_equiv_pos_site_id
_symmetry_equiv_pos_as_xyz
1 x,y,z
2 1/2-x,-y,1/2+z
3 -x,1/2+y,1/2-z
4 1/2+x,1/2-y,-z
_cell_length_a                   7.5257(10)
_cell_length_b                   13.6770(17)
_cell_length_c                   17.867(2)
_cell_angle_alpha                90
_cell_angle_beta                 90
_cell_angle_gamma                90
_cell_volume                     1839.03
_exptl_crystal_colour            'light colorless'
_exptl_crystal_description       block
_cell_formula_units_Z            4
loop_
_atom_site_label
_atom_site_type_symbol
_atom_site_fract_x
_atom_site_fract_y
_atom_site_fract_z
I1 I 0.42123(10) 0.55221(5) 0.62447(4)
O1 O 0.4982(10) 0.1159(5) 0.5274(4)
O2 O 0.8774(9) 0.6559(6) 0.4295(4)
O3 O 0.7839(9) 0.7189(5) 0.3147(4)
C1 C 0.4845(12) 0.2132(7) 0.5433(5)
C2 C 0.4942(13) 0.2368(7) 0.6194(6)
C3 C 0.5827(17) 0.4942(8) 0.2583(6)
H1 H 0.5120 0.4840 0.2129
H2 H 0.5790 0.4351 0.2893
H3 H 0.7059 0.5085 0.2445
C4 C 1.0609(15) 0.6664(9) 0.4186(7)
H4 H 1.0837 0.7239 0.3873
H5 H 1.1078 0.6080 0.3938
H6 H 1.1196 0.6747 0.4672
C5 C 0.4636(12) 0.2861(7) 0.4895(5)
H7 H 0.4602 0.2686 0.4381
C6 C 0.4477(12) 0.3847(6) 0.5098(5)
C7 C 0.5057(15) 0.5807(7) 0.3028(6)
H8 H 0.3780 0.5657 0.3133
C8 C 0.4537(13) 0.4073(7) 0.5865(5)
C9 C 0.4308(13) 0.4617(7) 0.4491(5)
H9 H 0.3457 0.5125 0.4656
H10 H 0.3829 0.4310 0.4032
C10 C 0.5113(17) 0.6763(9) 0.2561(6)
H11 H 0.5768 0.6651 0.2088
H12 H 0.3890 0.6975 0.2436
C11 C 0.5988(12) 0.5989(6) 0.3794(5)
C12 C 0.4786(13) 0.3335(8) 0.6396(5)
H13 H 0.4848 0.3505 0.6910
C13 C 0.7889(13) 0.6349(7) 0.3626(5)
H14 H 0.8546 0.5815 0.3363
C14 C 0.4744(16) 0.0868(8) 0.4513(6)
H15 H 0.5691 0.1151 0.4205
H16 H 0.3588 0.1099 0.4333
H17 H 0.4791 0.0153 0.4479
C15 C 0.6097(12) 0.5098(7) 0.4313(5)
H18 H 0.6880 0.4604 0.4078
H19 H 0.6660 0.5302 0.4788
C16 C 0.6045(15) 0.7547(8) 0.3025(6)
H20 H 0.6070 0.8182 0.2748
C17 C 0.5067(13) 0.6849(7) 0.4164(6)
H21 H 0.4521 0.6812 0.4642
C18 C 0.5175(17) 0.1583(9) 0.6767(6)
H22 H 0.4354 0.1045 0.6661
H23 H 0.4924 0.1849 0.7265
H24 H 0.6400 0.1341 0.6751
C19 C 0.5099(13) 0.7661(8) 0.3753(7)
H25 H 0.4568 0.8258 0.3908
loop_
_geom_bond_atom_site_label_1
_geom_bond_atom_site_label_2
_geom_bond_site_symmetry_1
_geom_bond_site_symmetry_2
I1 C8 1_555 1_555
O1 C1 1_555 1_555
O2 C4 1_555 1_555
O3 C13 1_555 1_555
C1 C2 1_555 1_555
C2 C12 1_555 1_555
C3 H1 1_555 1_555
H2 C3 1_555 1_555
H3 C3 1_555 1_555
C4 H4 1_555 1_555
H5 C4 1_555 1_555
H6 C4 1_555 1_555
C5 C1 1_555 1_555
H7 C5 1_555 1_555
C6 C5 1_555 1_555
C7 C3 1_555 1_555
H8 C7 1_555 1_555
C8 C6 1_555 1_555
C9 C6 1_555 1_555
H9 C9 1_555 1_555
H10 C9 1_555 1_555
C10 C7 1_555 1_555
H11 C10 1_555 1_555
H12 C10 1_555 1_555
C11 C7 1_555 1_555
C12 C8 1_555 1_555
H13 C12 1_555 1_555
C13 O2 1_555 1_555
H14 C13 1_555 1_555
C14 O1 1_555 1_555
H15 C14 1_555 1_555
H16 C14 1_555 1_555
H17 C14 1_555 1_555
C15 C9 1_555 1_555
H18 C15 1_555 1_555
H19 C15 1_555 1_555
C16 O3 1_555 1_555
H20 C16 1_555 1_555
C17 C11 1_555 1_555
H21 C17 1_555 1_555
C18 C2 1_555 1_555
H22 C18 1_555 1_555
H23 C18 1_555 1_555
H24 C18 1_555 1_555
C19 C16 1_555 1_555
H25 C19 1_555 1_555
C10 C16 1_555 1_555
C11 C13 1_555 1_555
C11 C15 1_555 1_555
C17 C19 1_555 1_555

#END
