
#######################################################################
#
#                 Cambridge Crystallographic Data Centre
#                                CCDC 
#
#######################################################################
#
# If this CIF has been generated from an entry in the Cambridge 
# Structural Database, then it will include bibliographic, chemical, 
# crystal, experimental, refinement or atomic coordinate data resulting 
# from the CCDC's data processing and validation procedures.
#
#######################################################################

data_NICWII
_chemical_formula_moiety         'C21 H19 N1 O3,0.5(C1 H1 Cl3)'
_chemical_name_systematic        
'9-hydroxy-2-methyl-9a-phenyl-9,9a-dihydro-1H-cyclopenta[b]quinolin-3-yl acetate chloroform solvate'
_symmetry_cell_setting           triclinic
_symmetry_space_group_name_H-M   'P -1'
_symmetry_Int_Tables_number      2
_space_group_name_Hall           '-P 1'
loop_
_symmetry_equiv_pos_site_id
_symmetry_equiv_pos_as_xyz
1 x,y,z
2 -x,-y,-z
_cell_length_a                   11.282(7)
_cell_length_b                   11.457(7)
_cell_length_c                   14.934(9)
_cell_angle_alpha                84.071(19)
_cell_angle_beta                 88.539(15)
_cell_angle_gamma                84.074(13)
_cell_volume                     1909.54
_exptl_crystal_colour            colorless
_exptl_crystal_description       tablet
_cell_formula_units_Z            4
loop_
_atom_site_label
_atom_site_type_symbol
_atom_site_fract_x
_atom_site_fract_y
_atom_site_fract_z
C1 C 0.8091(3) 0.4161(2) 0.61655(17)
H1 H 0.7454 0.3789 0.6536
C2 C 1.0340(3) 0.3893(2) 0.62267(17)
C3 C 1.1420(3) 0.3181(3) 0.63341(18)
H2 H 1.2152 0.3523 0.6256
C4 C 1.1426(3) 0.1976(3) 0.65545(19)
H3 H 1.2162 0.1498 0.6634
C5 C 1.0366(3) 0.1463(3) 0.66595(19)
H4 H 1.0375 0.0637 0.6811
C6 C 0.9286(3) 0.2164(3) 0.65428(18)
H5 H 0.8561 0.1808 0.6612
C7 C 0.9253(3) 0.3383(2) 0.63262(17)
C8 C 0.8239(2) 0.5360(2) 0.65168(17)
C9 C 0.7305(3) 0.6404(2) 0.61925(19)
H6 H 0.6905 0.6241 0.5643
H7 H 0.6695 0.6552 0.6667
C10 C 0.8032(3) 0.7440(2) 0.59996(18)
C11 C 0.9185(3) 0.7053(2) 0.59377(17)
C12 C 0.9402(2) 0.5786(2) 0.61331(17)
C13 C 1.0952(3) 0.7868(2) 0.6226(2)
C14 C 1.1874(3) 0.8595(3) 0.5768(2)
H8 H 1.2401 0.8816 0.6220
H9 H 1.1476 0.9310 0.5443
H10 H 1.2345 0.8133 0.5342
C15 C 0.7494(3) 0.8689(3) 0.5881(2)
H11 H 0.8128 0.9216 0.5846
H12 H 0.6964 0.8847 0.6394
H13 H 0.7036 0.8824 0.5324
C16 C 0.8248(2) 0.5219(2) 0.75550(17)
C17 C 0.9217(3) 0.5472(2) 0.80432(18)
H14 H 0.9919 0.5696 0.7736
C18 C 0.9153(3) 0.5394(3) 0.89771(19)
H15 H 0.9812 0.5575 0.9302
C19 C 0.8147(3) 0.5057(2) 0.94440(19)
H16 H 0.8114 0.5007 1.0083
C20 C 0.7188(3) 0.4793(3) 0.89649(19)
H17 H 0.6498 0.4547 0.9277
C21 C 0.7236(3) 0.4888(3) 0.80340(19)
H18 H 0.6565 0.4724 0.7714
N1 N 1.0375(2) 0.5136(2) 0.59956(14)
O1 O 1.00703(17) 0.77792(16) 0.56353(12)
O2 O 1.09590(19) 0.74173(19) 0.69872(13)
O3 O 0.77450(17) 0.42757(17) 0.52484(12)
H19 H 0.8332 0.4427 0.4915
C22 C 0.5704(3) 0.2013(2) 0.88141(17)
H20 H 0.6051 0.2683 0.8453
C23 C 0.6533(3) 0.0905(3) 0.87207(18)
C24 C 0.7742(3) 0.0932(3) 0.85277(19)
H21 H 0.8070 0.1668 0.8446
C25 C 0.8475(3) -0.0103(3) 0.8453(2)
H22 H 0.9299 -0.0071 0.8316
C26 C 0.8010(3) -0.1188(3) 0.85763(19)
H23 H 0.8514 -0.1895 0.8523
C27 C 0.6802(3) -0.1232(3) 0.87789(18)
H24 H 0.6485 -0.1971 0.8878
C28 C 0.4120(2) 0.0670(2) 0.88158(17)
C29 C 0.2844(3) 0.0843(2) 0.89705(17)
C30 C 0.2410(3) 0.1975(3) 0.88423(18)
C31 C 0.3415(3) 0.2731(2) 0.86053(19)
H25 H 0.3587 0.3168 0.9117
H26 H 0.3211 0.3304 0.8076
C32 C 0.4503(3) 0.1851(2) 0.83892(17)
C33 C 0.1145(3) 0.2474(3) 0.8955(2)
H27 H 0.0639 0.1829 0.9081
H28 H 0.0883 0.2956 0.8401
H29 H 0.1082 0.2965 0.9458
O4 O 0.21828(17) -0.00783(16) 0.93042(12)
C34 C 0.2042(2) -0.0905(2) 0.87274(19)
C35 C 0.4696(2) 0.1847(2) 0.73689(17)
C36 C 0.4974(3) 0.2884(3) 0.68614(18)
H30 H 0.5021 0.3576 0.7153
C37 C 0.5183(3) 0.2915(3) 0.59376(19)
H31 H 0.5382 0.3623 0.5605
C38 C 0.5102(3) 0.1921(3) 0.55043(19)
H32 H 0.5248 0.1936 0.4874
C39 C 0.4804(3) 0.0896(3) 0.60012(18)
H33 H 0.4737 0.0211 0.5705
C40 C 0.4604(3) 0.0859(2) 0.69226(18)
H34 H 0.4402 0.0150 0.7251
C41 C 0.6058(2) -0.0191(2) 0.88361(17)
N2 N 0.4816(2) -0.02757(19) 0.90259(14)
O5 O 0.55780(19) 0.22916(17) 0.97266(12)
H35 H 0.5566 0.1666 1.0073
O6 O 0.23493(18) -0.07896(17) 0.79547(13)
C42 C 0.1463(3) -0.1920(3) 0.9203(2)
H36 H 0.1192 -0.2402 0.8758
H37 H 0.0778 -0.1618 0.9559
H38 H 0.2039 -0.2402 0.9602
C43 C 0.3645(3) 0.6718(2) 0.75043(19)
H39 H 0.2846 0.7182 0.7535
Cl1 Cl 0.36972(9) 0.59082(7) 0.65624(6)
Cl2 Cl 0.38617(8) 0.57709(8) 0.85096(5)
Cl3 Cl 0.47550(7) 0.77029(7) 0.73925(6)
loop_
_geom_bond_atom_site_label_1
_geom_bond_atom_site_label_2
_geom_bond_site_symmetry_1
_geom_bond_site_symmetry_2
C1 H1 1_555 1_555
C2 C3 1_555 1_555
C3 H2 1_555 1_555
C4 C3 1_555 1_555
H3 C4 1_555 1_555
C5 C4 1_555 1_555
H4 C5 1_555 1_555
C6 C5 1_555 1_555
H5 C6 1_555 1_555
C7 C1 1_555 1_555
C8 C1 1_555 1_555
C9 C8 1_555 1_555
H6 C9 1_555 1_555
H7 C9 1_555 1_555
C10 C9 1_555 1_555
C11 C10 1_555 1_555
C12 C8 1_555 1_555
C13 C14 1_555 1_555
C14 H8 1_555 1_555
H9 C14 1_555 1_555
H10 C14 1_555 1_555
C15 C10 1_555 1_555
H11 C15 1_555 1_555
H12 C15 1_555 1_555
H13 C15 1_555 1_555
C16 C8 1_555 1_555
C17 C16 1_555 1_555
H14 C17 1_555 1_555
C18 C17 1_555 1_555
H15 C18 1_555 1_555
C19 C18 1_555 1_555
H16 C19 1_555 1_555
C20 C19 1_555 1_555
H17 C20 1_555 1_555
C21 C16 1_555 1_555
H18 C21 1_555 1_555
N1 C2 1_555 1_555
O1 C11 1_555 1_555
O2 C13 1_555 1_555
O3 C1 1_555 1_555
H19 O3 1_555 1_555
C22 H20 1_555 1_555
C23 C22 1_555 1_555
C24 C23 1_555 1_555
H21 C24 1_555 1_555
C25 C24 1_555 1_555
H22 C25 1_555 1_555
C26 C25 1_555 1_555
H23 C26 1_555 1_555
C27 C26 1_555 1_555
H24 C27 1_555 1_555
C28 C29 1_555 1_555
C29 C30 1_555 1_555
C30 C31 1_555 1_555
C31 H25 1_555 1_555
H26 C31 1_555 1_555
C32 C22 1_555 1_555
C33 C30 1_555 1_555
H27 C33 1_555 1_555
H28 C33 1_555 1_555
H29 C33 1_555 1_555
O4 C29 1_555 1_555
C34 O4 1_555 1_555
C35 C32 1_555 1_555
C36 C35 1_555 1_555
H30 C36 1_555 1_555
C37 C36 1_555 1_555
H31 C37 1_555 1_555
C38 C37 1_555 1_555
H32 C38 1_555 1_555
C39 C38 1_555 1_555
H33 C39 1_555 1_555
C40 C35 1_555 1_555
H34 C40 1_555 1_555
C41 C23 1_555 1_555
N2 C28 1_555 1_555
O5 C22 1_555 1_555
H35 O5 1_555 1_555
O6 C34 1_555 1_555
C42 C34 1_555 1_555
H36 C42 1_555 1_555
H37 C42 1_555 1_555
H38 C42 1_555 1_555
C43 H39 1_555 1_555
Cl1 C43 1_555 1_555
Cl2 C43 1_555 1_555
Cl3 C43 1_555 1_555
C2 C7 1_555 1_555
C6 C7 1_555 1_555
C11 C12 1_555 1_555
C12 N1 1_555 1_555
C13 O1 1_555 1_555
C20 C21 1_555 1_555
C27 C41 1_555 1_555
C28 C32 1_555 1_555
C31 C32 1_555 1_555
C39 C40 1_555 1_555
C41 N2 1_555 1_555

#END
