
#######################################################################
#
#                 Cambridge Crystallographic Data Centre
#                                CCDC 
#
#######################################################################
#
# If this CIF has been generated from an entry in the Cambridge 
# Structural Database, then it will include bibliographic, chemical, 
# crystal, experimental, refinement or atomic coordinate data resulting 
# from the CCDC's data processing and validation procedures.
#
#######################################################################

data_NICXOP
_chemical_name_common            
'2,6,8,12-tetraoxa-1,7(1,4)-tetrazina-4,10(1,4)-dibenzenacyclododecaphane tetrahomocorona[2]arene[2]tetrazine'
_chemical_formula_moiety         'C20 H16 N8 O4'
_chemical_name_systematic        
2,9,14,21-tetraoxa-11,12,23,24,25,26,29,30-octaazapentacyclo[20.2.2.2^4,7^.2^10,13^.2^16,19^]dotriaconta-1(24),4,6,10,12,16,18,22,25,27,29,31-dodecaene
_symmetry_cell_setting           monoclinic
_symmetry_space_group_name_H-M   'P 21/n'
_symmetry_Int_Tables_number      14
_space_group_name_Hall           '-P 2yn'
loop_
_symmetry_equiv_pos_site_id
_symmetry_equiv_pos_as_xyz
1 x,y,z
2 1/2-x,1/2+y,1/2-z
3 -x,-y,-z
4 1/2+x,1/2-y,1/2+z
_cell_length_a                   10.808(3)
_cell_length_b                   5.5363(14)
_cell_length_c                   16.658(4)
_cell_angle_alpha                90
_cell_angle_beta                 90.448(4)
_cell_angle_gamma                90
_cell_volume                     996.723
_exptl_crystal_colour            pink
_exptl_crystal_description       prism
_cell_formula_units_Z            2
loop_
_atom_site_label
_atom_site_type_symbol
_atom_site_fract_x
_atom_site_fract_y
_atom_site_fract_z
C1 C 0.58684(13) 0.6804(3) 0.69729(8)
C2 C 0.69610(14) 0.5565(3) 0.68182(10)
H1 H 0.714742 0.412507 0.710451
C3 C 0.77801(14) 0.6425(3) 0.62473(10)
H2 H 0.853512 0.559344 0.615630
C4 C 0.75049(15) 0.8482(3) 0.58102(9)
C5 C 0.64135(17) 0.9690(3) 0.59594(11)
H3 H 0.621112 1.109387 0.565792
C6 C 0.56104(15) 0.8877(3) 0.65442(10)
H4 H 0.487479 0.975551 0.665101
C7 C 0.31431(13) 0.5558(3) 0.68890(9)
C8 C 0.18438(14) 0.3520(3) 0.58243(9)
C9 C 0.16114(19) 0.0550(4) 0.48045(11)
H5 H 0.093579 -0.033198 0.452706
H6 H 0.205347 -0.061002 0.515623
N1 N 0.20148(12) 0.6503(3) 0.67446(8)
N2 N 0.13392(12) 0.5436(3) 0.61902(8)
N3 N 0.29771(12) 0.2670(3) 0.59344(8)
N4 N 0.36659(11) 0.3757(2) 0.64967(7)
O1 O 0.37531(9) 0.6666(2) 0.74828(6)
O2 O 0.10808(11) 0.2458(3) 0.52961(7)
C10 C 0.50194(14) 0.5909(3) 0.76222(9)
H7 H 0.505404 0.412300 0.764307
H8 H 0.530734 0.653676 0.814783
C1B C 0.41316(13) 0.3196(3) 0.30271(8)
C2B C 0.30390(14) 0.4435(3) 0.31818(10)
H1B H 0.285258 0.587493 0.289549
C3B C 0.22199(14) 0.3575(3) 0.37527(10)
H2B H 0.146488 0.440656 0.384370
C4B C 0.24951(15) 0.1518(3) 0.41898(9)
C5B C 0.35865(17) 0.0310(3) 0.40406(11)
H3B H 0.378888 -0.109387 0.434208
C6B C 0.43896(15) 0.1123(3) 0.34558(10)
H4B H 0.512521 0.024449 0.334899
C7B C 0.68569(13) 0.4442(3) 0.31110(9)
C8B C 0.81562(14) 0.6480(3) 0.41757(9)
C9B C 0.83886(19) 0.9450(4) 0.51955(11)
H5B H 0.906421 1.033198 0.547294
H6B H 0.794653 1.061002 0.484377
N1B N 0.79852(12) 0.3497(3) 0.32554(8)
N2B N 0.86608(12) 0.4564(3) 0.38098(8)
N3B N 0.70229(12) 0.7330(3) 0.40656(8)
N4B N 0.63341(11) 0.6243(2) 0.35033(7)
O1B O 0.62469(9) 0.3334(2) 0.25172(6)
O2B O 0.89192(11) 0.7542(3) 0.47039(7)
C10B C 0.49806(14) 0.4091(3) 0.23778(9)
H7B H 0.494596 0.587700 0.235693
H8B H 0.469266 0.346324 0.185217
loop_
_geom_bond_atom_site_label_1
_geom_bond_atom_site_label_2
_geom_bond_site_symmetry_1
_geom_bond_site_symmetry_2
C1 C2 1_555 1_555
C2 H1 1_555 1_555
C3 C2 1_555 1_555
H2 C3 1_555 1_555
C4 C3 1_555 1_555
C5 C4 1_555 1_555
H3 C5 1_555 1_555
C6 C1 1_555 1_555
H4 C6 1_555 1_555
C7 N1 1_555 1_555
C8 N2 1_555 1_555
C9 H5 1_555 1_555
H6 C9 1_555 1_555
N1 N2 1_555 1_555
N3 C8 1_555 1_555
N4 C7 1_555 1_555
O1 C7 1_555 1_555
O2 C8 1_555 1_555
C10 C1 1_555 1_555
H7 C10 1_555 1_555
H8 C10 1_555 1_555
C1B C2B 1_555 1_555
C2B H1B 1_555 1_555
C3B C2B 1_555 1_555
H2B C3B 1_555 1_555
C4B C9 1_555 1_555
C5B C4B 1_555 1_555
H3B C5B 1_555 1_555
C6B C1B 1_555 1_555
H4B C6B 1_555 1_555
C7B N1B 1_555 1_555
C8B N2B 1_555 1_555
C9B C4 1_555 1_555
H5B C9B 1_555 1_555
H6B C9B 1_555 1_555
N1B N2B 1_555 1_555
N3B C8B 1_555 1_555
N4B C7B 1_555 1_555
O1B C7B 1_555 1_555
O2B C8B 1_555 1_555
C10B C1B 1_555 1_555
H7B C10B 1_555 1_555
H8B C10B 1_555 1_555
C5 C6 1_555 1_555
C9 O2 1_555 1_555
N3 N4 1_555 1_555
O1 C10 1_555 1_555
C3B C4B 1_555 1_555
C5B C6B 1_555 1_555
C9B O2B 1_555 1_555
N3B N4B 1_555 1_555
O1B C10B 1_555 1_555

#END
