
#######################################################################
#
#                 Cambridge Crystallographic Data Centre
#                                CCDC 
#
#######################################################################
#
# If this CIF has been generated from an entry in the Cambridge 
# Structural Database, then it will include bibliographic, chemical, 
# crystal, experimental, refinement or atomic coordinate data resulting 
# from the CCDC's data processing and validation procedures.
#
#######################################################################

data_NICYEG
_chemical_name_common            
'2,6,8,12-tetraoxa-1,7(1,4)-tetrazina-4(1,3),10(1,4)-dibenzenacyclododecaphane tetrahomocorona[2]arene[2]tetrazine acetonitrile solvate'
_chemical_formula_moiety         'C20 H16 N8 O4,C2 H3 N1'
_chemical_name_systematic        
'2,9,14,22-tetraoxa-11,12,24,25,26,27,29,30-octaazapentacyclo[21.2.2.2^4,7^.2^10,13^.1^16,20^]dotriaconta-1(25),4,6,10,12,16(28),17,19,23,26,29,31-dodecaene acetonitrile solvate'
_symmetry_cell_setting           triclinic
_symmetry_space_group_name_H-M   'P -1'
_symmetry_Int_Tables_number      2
_space_group_name_Hall           '-P 1'
loop_
_symmetry_equiv_pos_site_id
_symmetry_equiv_pos_as_xyz
1 x,y,z
2 -x,-y,-z
_cell_length_a                   10.381(3)
_cell_length_b                   10.618(3)
_cell_length_c                   11.642(3)
_cell_angle_alpha                92.1450(10)
_cell_angle_beta                 105.049(4)
_cell_angle_gamma                117.489(3)
_cell_volume                     1080.64
_exptl_crystal_colour            red
_exptl_crystal_description       block
_cell_formula_units_Z            2
loop_
_atom_site_label
_atom_site_type_symbol
_atom_site_fract_x
_atom_site_fract_y
_atom_site_fract_z
O1 O 0.14676(11) 0.42930(11) 0.44431(9)
C1 C 0.09221(14) 0.51193(14) 0.39323(12)
N1 N 0.14255(13) 0.63666(13) 0.46699(10)
N2 N 0.10039(13) 0.72813(13) 0.42109(10)
O2 O -0.03219(11) 0.77925(11) 0.25374(9)
C2 C 0.01010(14) 0.68830(14) 0.30594(12)
O3 O 0.65433(13) 1.05003(11) 0.15195(9)
N3 N -0.05162(13) 0.55940(13) 0.23664(10)
C3 C 0.06251(16) 0.93266(15) 0.30931(15)
H1 H 0.076504 0.943911 0.397204
H2 H 0.010170 0.986400 0.273621
C4 C 0.21597(15) 0.99429(14) 0.28945(12)
O4 O 0.66671(11) 0.62059(11) 0.34517(9)
N4 N -0.00841(13) 0.46680(12) 0.28252(10)
N5 N 0.72637(14) 0.96358(13) 0.32248(11)
C5 C 0.34871(16) 1.04575(15) 0.38612(12)
H3 H 0.343290 1.044032 0.466300
N6 N 0.72983(13) 0.85302(13) 0.36858(10)
C6 C 0.48960(15) 1.09983(15) 0.36672(12)
H4 H 0.580113 1.134862 0.433541
N7 N 0.61489(13) 0.71024(12) 0.17103(10)
C7 C 0.49849(15) 1.10281(13) 0.24983(12)
N8 N 0.61253(14) 0.82208(13) 0.12484(10)
C8 C 0.36549(17) 1.05299(15) 0.15278(12)
H5 H 0.370844 1.055969 0.072623
C9 C 0.22554(16) 0.99916(15) 0.17270(13)
H6 H 0.135092 0.965187 0.105998
C10 C 0.65063(17) 1.16103(15) 0.22793(15)
H7 H 0.669353 1.245443 0.187562
H8 H 0.732793 1.193550 0.306334
C11 C 0.66256(15) 0.94195(14) 0.20323(12)
C12 C 0.66656(14) 0.72855(14) 0.29111(12)
C13 C 0.59425(17) 0.47783(15) 0.27042(14)
H9 H 0.624950 0.414910 0.317372
H10 H 0.630391 0.486432 0.198835
C14 C 0.42287(16) 0.40934(14) 0.22906(12)
C15 C 0.34465(16) 0.38212(14) 0.31377(12)
H11 H 0.400259 0.407050 0.397590
C16 C 0.18592(16) 0.31880(14) 0.27734(12)
C17 C 0.10535(17) 0.27920(15) 0.15461(13)
H12 H -0.003028 0.234770 0.128776
C18 C 0.18225(18) 0.30415(17) 0.06950(13)
H13 H 0.126410 0.275981 -0.014347
C19 C 0.34015(18) 0.37002(16) 0.10657(13)
H14 H 0.392418 0.388506 0.047952
C20 C 0.10503(17) 0.29353(15) 0.37115(13)
H15 H -0.006820 0.240523 0.330561
H16 H 0.131660 0.232952 0.424449
N9 N 0.34639(17) 0.71422(16) 0.28359(14)
C21 C 0.29063(17) 0.69439(16) 0.18193(16)
C22 C 0.2206(2) 0.6698(2) 0.05275(17)
H17 H 0.227433 0.590844 0.013471
H18 H 0.273986 0.757915 0.021907
H19 H 0.113000 0.644125 0.035217
loop_
_geom_bond_atom_site_label_1
_geom_bond_atom_site_label_2
_geom_bond_site_symmetry_1
_geom_bond_site_symmetry_2
O1 C1 1_555 1_555
C1 N1 1_555 1_555
N1 N2 1_555 1_555
N2 C2 1_555 1_555
O2 C2 1_555 1_555
C2 N3 1_555 1_555
O3 C10 1_555 1_555
N3 N4 1_555 1_555
C3 O2 1_555 1_555
H1 C3 1_555 1_555
H2 C3 1_555 1_555
C4 C3 1_555 1_555
O4 C12 1_555 1_555
N4 C1 1_555 1_555
N5 N6 1_555 1_555
C5 C4 1_555 1_555
H3 C5 1_555 1_555
N6 C12 1_555 1_555
C6 C5 1_555 1_555
H4 C6 1_555 1_555
N7 N8 1_555 1_555
C7 C6 1_555 1_555
N8 C11 1_555 1_555
C8 C7 1_555 1_555
H5 C8 1_555 1_555
C9 C4 1_555 1_555
H6 C9 1_555 1_555
C10 C7 1_555 1_555
H7 C10 1_555 1_555
H8 C10 1_555 1_555
C11 O3 1_555 1_555
C12 N7 1_555 1_555
C13 O4 1_555 1_555
H9 C13 1_555 1_555
H10 C13 1_555 1_555
C14 C13 1_555 1_555
C15 C14 1_555 1_555
H11 C15 1_555 1_555
C16 C15 1_555 1_555
C17 C16 1_555 1_555
H12 C17 1_555 1_555
C18 C17 1_555 1_555
H13 C18 1_555 1_555
C19 C14 1_555 1_555
H14 C19 1_555 1_555
C20 O1 1_555 1_555
H15 C20 1_555 1_555
H16 C20 1_555 1_555
N9 C21 1_555 1_555
C21 C22 1_555 1_555
C22 H17 1_555 1_555
H18 C22 1_555 1_555
H19 C22 1_555 1_555
N5 C11 1_555 1_555
C8 C9 1_555 1_555
C16 C20 1_555 1_555
C18 C19 1_555 1_555

#END
