
#######################################################################
#
#                 Cambridge Crystallographic Data Centre
#                                CCDC 
#
#######################################################################
#
# If this CIF has been generated from an entry in the Cambridge 
# Structural Database, then it will include bibliographic, chemical, 
# crystal, experimental, refinement or atomic coordinate data resulting 
# from the CCDC's data processing and validation procedures.
#
#######################################################################

data_NIDHUG
_chemical_formula_moiety         'C12 H10 F8'
_chemical_name_systematic        
7,7,8,8,9,9,10,10-octafluorotetracyclo[4.2.2.2^2,5^.0^1,6^]dodecane
_symmetry_cell_setting           monoclinic
_symmetry_space_group_name_H-M   'C 2/c'
_symmetry_Int_Tables_number      15
_space_group_name_Hall           '-C 2yn'
loop_
_symmetry_equiv_pos_site_id
_symmetry_equiv_pos_as_xyz
1 x,y,z
2 -x,y,1/2-z
3 1/2+x,1/2+y,z
4 1/2-x,1/2+y,1/2-z
5 -x,-y,-z
6 x,-y,1/2+z
7 1/2-x,1/2-y,-z
8 1/2+x,1/2-y,1/2+z
_cell_length_a                   13.810(2)
_cell_length_b                   7.5381(12)
_cell_length_c                   21.724(3)
_cell_angle_alpha                90
_cell_angle_beta                 100.838(2)
_cell_angle_gamma                90
_cell_volume                     2221.15
_exptl_crystal_colour            colorless
_exptl_crystal_description       plate
_cell_formula_units_Z            8
loop_
_atom_site_label
_atom_site_type_symbol
_atom_site_fract_x
_atom_site_fract_y
_atom_site_fract_z
F1 F 0.00559(13) 0.4815(2) 0.67366(8)
F2 F -0.08066(11) 0.2556(3) 0.68961(8)
F3 F -0.11490(12) 0.1746(3) 0.56941(8)
F4 F -0.05167(13) 0.4249(3) 0.55057(8)
F5 F -0.01848(15) -0.0999(2) 0.55677(8)
F6 F 0.13919(15) -0.1070(2) 0.57840(8)
F7 F -0.02713(12) -0.0552(3) 0.67667(8)
F8 F 0.12805(12) -0.1115(2) 0.69925(8)
C1 C 0.18856(17) 0.2600(3) 0.68966(11)
H1 H 0.2030 0.2515 0.7364
C2 C 0.08388(16) 0.1935(3) 0.66268(11)
C3 C -0.01012(18) 0.3098(4) 0.65830(13)
C4 C -0.03414(19) 0.2792(4) 0.58637(13)
C5 C 0.06701(17) 0.1867(3) 0.58886(11)
C6 C 0.15095(18) 0.2843(3) 0.56570(11)
H2 H 0.1373 0.2940 0.5190
C7 C 0.25042(19) 0.1916(4) 0.58938(13)
H3 H 0.3049 0.2685 0.5815
H4 H 0.2531 0.0792 0.5662
C8 C 0.26367(18) 0.1519(4) 0.66070(12)
H5 H 0.2538 0.0237 0.6672
H6 H 0.3315 0.1834 0.6817
C9 C 0.20108(19) 0.4523(3) 0.66778(12)
H7 H 0.1638 0.5341 0.6903
H8 H 0.2716 0.4860 0.6780
C10 C 0.1635(2) 0.4700(3) 0.59656(12)
H9 H 0.2111 0.5405 0.5778
H10 H 0.0995 0.5331 0.5887
C11 C 0.0600(2) -0.0195(4) 0.59140(13)
C12 C 0.06073(19) -0.0096(4) 0.66264(12)
loop_
_geom_bond_atom_site_label_1
_geom_bond_atom_site_label_2
_geom_bond_site_symmetry_1
_geom_bond_site_symmetry_2
F1 C3 1_555 1_555
F2 C3 1_555 1_555
F3 C4 1_555 1_555
F4 C4 1_555 1_555
F5 C11 1_555 1_555
F6 C11 1_555 1_555
F7 C12 1_555 1_555
F8 C12 1_555 1_555
C1 H1 1_555 1_555
C2 C1 1_555 1_555
C3 C2 1_555 1_555
C4 C3 1_555 1_555
C5 C2 1_555 1_555
C6 C5 1_555 1_555
H2 C6 1_555 1_555
C7 C6 1_555 1_555
H3 C7 1_555 1_555
H4 C7 1_555 1_555
C8 C1 1_555 1_555
H5 C8 1_555 1_555
H6 C8 1_555 1_555
C9 C1 1_555 1_555
H7 C9 1_555 1_555
H8 C9 1_555 1_555
C10 C6 1_555 1_555
H9 C10 1_555 1_555
H10 C10 1_555 1_555
C11 C5 1_555 1_555
C12 C2 1_555 1_555
C4 C5 1_555 1_555
C7 C8 1_555 1_555
C9 C10 1_555 1_555
C11 C12 1_555 1_555

#END
