
#######################################################################
#
#                 Cambridge Crystallographic Data Centre
#                                CCDC 
#
#######################################################################
#
# If this CIF has been generated from an entry in the Cambridge 
# Structural Database, then it will include bibliographic, chemical, 
# crystal, experimental, refinement or atomic coordinate data resulting 
# from the CCDC's data processing and validation procedures.
#
#######################################################################

data_NIDNIX
_chemical_formula_moiety         'C8 H10 O4 S2'
_chemical_name_systematic        'Dimethyl 1,3-dithiolan-2-ylidenemalonate'
_symmetry_cell_setting           monoclinic
_symmetry_space_group_name_H-M   'P 21/a'
_symmetry_Int_Tables_number      14
_space_group_name_Hall           '-P 2yab'
loop_
_symmetry_equiv_pos_site_id
_symmetry_equiv_pos_as_xyz
1 x,y,z
2 1/2-x,1/2+y,-z
3 -x,-y,-z
4 1/2+x,1/2-y,z
_cell_length_a                   10.943(3)
_cell_length_b                   6.744(2)
_cell_length_c                   14.331(5)
_cell_angle_alpha                90
_cell_angle_beta                 90.30(2)
_cell_angle_gamma                90
_cell_volume                     1057.61
_cell_formula_units_Z            4
loop_
_atom_site_label
_atom_site_type_symbol
_atom_site_fract_x
_atom_site_fract_y
_atom_site_fract_z
S1 S 0.88611(11) 0.1447(2) 0.76639(8)
S2 S 0.80605(12) 0.4292(2) 0.90755(7)
O1 O 0.8223(3) 0.3010(6) 0.5921(2)
O2 O 0.6277(2) 0.3926(4) 0.5866(2)
O3 O 0.6517(3) 0.6915(5) 0.8276(2)
O4 O 0.6374(3) 0.7448(4) 0.6750(2)
C1 C 0.9019(6) 0.0681(11) 0.8856(4)
H1 H 0.8292(6) -0.0021(11) 0.9055(4)
H2 H 0.9715(6) -0.0197(11) 0.8926(4)
C2 C 0.9197(6) 0.2498(12) 0.9427(3)
H3 H 1.0010(6) 0.3029(12) 0.9329(3)
H4 H 0.9109(6) 0.2188(12) 1.0084(3)
C3 C 0.8010(3) 0.3570(6) 0.7907(3)
C4 C 0.7366(3) 0.4562(6) 0.7238(2)
C5 C 0.7357(4) 0.3774(6) 0.6275(3)
C6 C 0.6712(3) 0.6395(6) 0.7490(3)
C7 C 0.6181(5) 0.3160(8) 0.4927(3)
H5 H 0.5362(5) 0.3341(8) 0.4699(3)
H6 H 0.6379(5) 0.1773(8) 0.4926(3)
H7 H 0.6740(5) 0.3857(8) 0.4530(3)
C8 C 0.5691(5) 0.9232(7) 0.6946(4)
H8 H 0.5489(5) 0.9887(7) 0.6370(4)
H9 H 0.6176(5) 1.0101(7) 0.7328(4)
H10 H 0.4953(5) 0.8895(7) 0.7269(4)
loop_
_geom_bond_atom_site_label_1
_geom_bond_atom_site_label_2
_geom_bond_site_symmetry_1
_geom_bond_site_symmetry_2
S1 C1 1_555 1_555
S2 C2 1_555 1_555
O1 C5 1_555 1_555
O2 C5 1_555 1_555
O3 C6 1_555 1_555
O4 C6 1_555 1_555
C1 H1 1_555 1_555
H2 C1 1_555 1_555
C2 C1 1_555 1_555
H3 C2 1_555 1_555
H4 C2 1_555 1_555
C3 S1 1_555 1_555
C4 C3 1_555 1_555
C5 C4 1_555 1_555
C6 C4 1_555 1_555
C7 O2 1_555 1_555
H5 C7 1_555 1_555
H6 C7 1_555 1_555
H7 C7 1_555 1_555
C8 O4 1_555 1_555
H8 C8 1_555 1_555
H9 C8 1_555 1_555
H10 C8 1_555 1_555
S2 C3 1_555 1_555

#END
