
#######################################################################
#
#                 Cambridge Crystallographic Data Centre
#                                CCDC 
#
#######################################################################
#
# If this CIF has been generated from an entry in the Cambridge 
# Structural Database, then it will include bibliographic, chemical, 
# crystal, experimental, refinement or atomic coordinate data resulting 
# from the CCDC's data processing and validation procedures.
#
#######################################################################

data_NIDPAU
_chemical_formula_moiety         'C68 H50 O12,3(C1 H1 Cl3)'
_chemical_name_systematic        
'2-methoxy-5-[5,11,12,17,18-pentakis(3-formyl-4-methoxyphenyl)pentacyclo[6.6.6.0^2,7^.0^9,14^.0^15,20^]icosa-2,4,6,9,11,13,15,17,19-nonaen-4-yl]benzaldehyde chloroform solvate'
_symmetry_cell_setting           triclinic
_symmetry_space_group_name_H-M   'P -1'
_symmetry_Int_Tables_number      2
_space_group_name_Hall           '-P 1'
loop_
_symmetry_equiv_pos_site_id
_symmetry_equiv_pos_as_xyz
1 x,y,z
2 -x,-y,-z
_cell_length_a                   11.1877(2)
_cell_length_b                   13.8776(3)
_cell_length_c                   23.4581(4)
_cell_angle_alpha                76.1020(10)
_cell_angle_beta                 85.644(2)
_cell_angle_gamma                66.9730(10)
_cell_volume                     3253.08
_exptl_crystal_colour            colorless
_exptl_crystal_description       brick
_cell_formula_units_Z            2
loop_
_atom_site_label
_atom_site_type_symbol
_atom_site_fract_x
_atom_site_fract_y
_atom_site_fract_z
C1 C 0.4221(2) 0.41228(17) 0.28315(9)
H1 H 0.513440 0.363877 0.296120
C2 C 0.1840(2) 0.53842(17) 0.24923(9)
H2 H 0.092665 0.586960 0.236277
C3 C 0.3214(2) 0.39339(18) 0.32704(9)
C4 C 0.3461(2) 0.31607(18) 0.37902(10)
H3 H 0.433371 0.270423 0.390734
C5 C 0.2440(2) 0.30398(18) 0.41487(10)
C6 C 0.1150(2) 0.37281(18) 0.39730(9)
C7 C 0.0916(2) 0.45044(18) 0.34388(9)
H4 H 0.004778 0.496437 0.331643
C8 C 0.1931(2) 0.46073(17) 0.30895(9)
C9 C 0.3825(2) 0.39786(17) 0.22608(9)
C10 C 0.4577(2) 0.32363(18) 0.19494(10)
H5 H 0.544314 0.278308 0.207876
C11 C 0.4084(2) 0.31401(18) 0.14448(9)
C12 C 0.2809(2) 0.38375(18) 0.12454(9)
C13 C 0.2052(2) 0.45975(17) 0.15658(9)
H6 H 0.119353 0.506974 0.143406
C14 C 0.2549(2) 0.46617(17) 0.20714(9)
C15 C 0.3972(2) 0.53096(18) 0.27255(9)
C16 C 0.4877(2) 0.57399(18) 0.27680(9)
H7 H 0.574439 0.527481 0.288903
C17 C 0.4527(2) 0.68565(18) 0.26343(9)
C18 C 0.3226(2) 0.75404(18) 0.24806(9)
C19 C 0.2315(2) 0.70915(18) 0.24387(9)
H8 H 0.143652 0.754956 0.233463
C20 C 0.2688(2) 0.59894(18) 0.25477(9)
C21 C 0.2798(2) 0.21519(19) 0.46914(10)
C22 C 0.3846(3) 0.1972(2) 0.50442(11)
H9 H 0.430448 0.243692 0.494243
C23 C 0.4242(3) 0.1131(3) 0.55417(12)
C24 C 0.3574(3) 0.0439(2) 0.56923(12)
C25 C 0.2532(3) 0.0605(2) 0.53523(13)
H10 H 0.206848 0.014417 0.545669
C26 C 0.2153(3) 0.1450(2) 0.48546(12)
H11 H 0.143893 0.154906 0.462091
C27 C 0.5365(4) 0.0974(3) 0.58956(15)
H12 H 0.560791 0.039248 0.623160
O1 O 0.5995(2) 0.1516(3) 0.57958(11)
O2 O 0.4019(2) -0.03590(19) 0.61920(10)
C28 C 0.3262(3) -0.0975(3) 0.64184(17)
H13 H 0.368120 -0.150452 0.677675
H14 H 0.318779 -0.134785 0.612542
H15 H 0.239409 -0.049780 0.650943
C29 C 0.0005(2) 0.37144(18) 0.43396(10)
C30 C -0.1058(2) 0.36441(18) 0.41121(9)
H16 H -0.103124 0.355142 0.372241
C31 C -0.2168(2) 0.37062(19) 0.44417(10)
C32 C -0.2230(2) 0.38779(19) 0.50119(10)
C33 C -0.1164(2) 0.39386(19) 0.52484(10)
H17 H -0.119162 0.404171 0.563587
C34 C -0.0062(2) 0.38483(18) 0.49164(10)
H18 H 0.066576 0.387781 0.508397
C35 C -0.3242(3) 0.3555(2) 0.42013(12)
H19 H -0.398663 0.361035 0.443544
O3 O -0.32362(19) 0.33646(19) 0.37228(9)
O4 O -0.33552(18) 0.39560(16) 0.52968(8)
C36 C -0.3458(3) 0.4096(3) 0.58858(12)
H20 H -0.431937 0.415126 0.603434
H21 H -0.333438 0.475531 0.589120
H22 H -0.279003 0.347818 0.613538
C37 C 0.4936(2) 0.22737(18) 0.11550(10)
C38 C 0.4525(2) 0.15084(18) 0.10497(10)
H23 H 0.366567 0.156080 0.114706
C39 C 0.6619(2) 0.05906(19) 0.06553(10)
C40 C 0.7033(2) 0.13593(19) 0.07515(10)
H24 H 0.788506 0.132014 0.064746
C41 C 0.6201(2) 0.21861(19) 0.10001(10)
H25 H 0.649744 0.270526 0.106662
C42 C 0.5345(2) 0.06624(19) 0.08041(10)
C43 C 0.4818(5) -0.0112(5) 0.0721(5)
H26 H 0.390410 0.009307 0.075234
O5 O 0.5423(2) -0.09777(16) 0.06164(9)
O6 O 0.73759(17) -0.02520(14) 0.04229(8)
C44 C 0.8655(3) -0.0318(2) 0.02460(13)
H27 H 0.911395 -0.097906 0.010790
H28 H 0.913289 -0.032445 0.058112
H29 H 0.859187 0.030612 -0.007187
C45 C 0.2240(2) 0.37711(17) 0.07092(9)
C46 C 0.1012(2) 0.37514(17) 0.07165(9)
H30 H 0.051031 0.383303 0.106003
C47 C 0.0483(2) 0.36145(18) 0.02317(10)
C48 C 0.1228(2) 0.34910(18) -0.02729(10)
C49 C 0.2447(2) 0.35420(19) -0.02966(10)
H31 H 0.294280 0.347638 -0.064258
C50 C 0.2934(2) 0.36890(18) 0.01868(10)
H32 H 0.376217 0.373563 0.016425
O7 O -0.14542(16) 0.35877(15) 0.07097(8)
C51 C -0.0813(2) 0.3581(2) 0.02661(11)
H33 H -0.117710 0.355229 -0.007941
O8 O 0.06817(16) 0.33272(15) -0.07241(7)
C52 C 0.1523(3) 0.2941(2) -0.11807(11)
H34 H 0.105262 0.275605 -0.144545
H35 H 0.227819 0.230046 -0.100703
H36 H 0.181462 0.350157 -0.140218
C53 C 0.5559(2) 0.72876(19) 0.26368(10)
C54 C 0.6392(2) 0.69624(19) 0.31145(10)
H37 H 0.633008 0.642962 0.344274
C55 C 0.7322(2) 0.7399(2) 0.31259(11)
C56 C 0.7437(2) 0.8170(2) 0.26375(12)
C57 C 0.6620(3) 0.8491(2) 0.21471(11)
H38 H 0.669136 0.901056 0.181348
C58 C 0.5705(2) 0.8045(2) 0.21521(10)
H39 H 0.516003 0.826041 0.181538
O9 O 0.8115(2) 0.63411(16) 0.40728(9)
C59 C 0.8138(3) 0.7052(2) 0.36609(12)
H40 H 0.870597 0.740230 0.368292
O10 O 0.8361(2) 0.85668(17) 0.26768(9)
C60 C 0.8427(3) 0.9415(3) 0.21964(15)
H41 H 0.908702 0.965961 0.228663
H42 H 0.757990 1.001734 0.213874
H43 H 0.865765 0.914417 0.183734
C61 C 0.2757(2) 0.87284(19) 0.23854(10)
C62 C 0.1918(2) 0.94152(19) 0.19238(10)
H44 H 0.167339 0.911818 0.164901
C63 C 0.1420(2) 1.05318(19) 0.18509(10)
C64 C 0.1798(2) 1.09736(19) 0.22498(11)
C65 C 0.2647(3) 1.0293(2) 0.27146(11)
H45 H 0.290726 1.058572 0.298694
C66 C 0.3111(2) 0.9189(2) 0.27781(11)
H46 H 0.368550 0.873308 0.309753
O11 O 0.01633(18) 1.08734(15) 0.10032(8)
C67 C 0.0514(2) 1.1215(2) 0.13581(11)
H47 H 0.018401 1.197183 0.131664
O12 O 0.12955(18) 1.20623(13) 0.21596(8)
C68 C 0.1645(3) 1.2510(2) 0.25813(12)
H48 H 0.119799 1.329508 0.247964
H49 H 0.258628 1.231785 0.257860
H50 H 0.138874 1.222354 0.297361
C70 C 0.9004(3) 0.0599(3) 0.60339(14)
H52 H 0.808345 0.073365 0.614956
Cl1 Cl 0.96324(12) 0.12209(10) 0.64404(5)
Cl2 Cl 0.90251(12) 0.11449(6) 0.52789(3)
Cl3 Cl 0.99134(11) -0.08090(9) 0.62001(6)
C72 C -0.1958(3) 0.3907(2) 0.19564(12)
H54 H -0.129249 0.373231 0.164718
Cl7 Cl -0.19534(7) 0.26883(6) 0.24076(3)
Cl8 Cl -0.15307(8) 0.46352(7) 0.23741(4)
Cl9 Cl -0.34728(6) 0.46971(6) 0.16077(3)
C73 C 0.3374(3) -0.3305(2) 0.09944(12)
H55 H 0.360466 -0.376158 0.140176
Cl10 Cl 0.41638(6) -0.24025(5) 0.08565(3)
Cl11 Cl 0.16720(6) -0.25838(5) 0.09350(3)
Cl12 Cl 0.38853(7) -0.41443(5) 0.04880(3)
C69? C 0.479(4) -0.014(4) 0.081(4)
H51? H 0.541261 -0.081627 0.075948
O13? O 0.3698(19) -0.0109(16) 0.0863(8)
C71? C 0.949(4) 0.0440(19) 0.6017(9)
H53? H 0.853274 0.060999 0.604971
Cl4? Cl 1.003(3) 0.091(2) 0.6544(10)
Cl5? Cl 0.985(3) 0.1099(12) 0.5325(7)
Cl6? Cl 1.038(4) -0.0962(16) 0.6139(11)
C74? C 0.3326(13) -0.295(2) 0.0746(14)
H56? H 0.337698 -0.236983 0.041112
Cl13? Cl 0.4463(18) -0.314(3) 0.1279(10)
loop_
_geom_bond_atom_site_label_1
_geom_bond_atom_site_label_2
_geom_bond_site_symmetry_1
_geom_bond_site_symmetry_2
C1 H1 1_555 1_555
C2 H2 1_555 1_555
C3 C1 1_555 1_555
C4 C3 1_555 1_555
H3 C4 1_555 1_555
C5 C4 1_555 1_555
C6 C5 1_555 1_555
C7 C6 1_555 1_555
H4 C7 1_555 1_555
C8 C2 1_555 1_555
C9 C1 1_555 1_555
C10 C9 1_555 1_555
H5 C10 1_555 1_555
C11 C10 1_555 1_555
C12 C11 1_555 1_555
C13 C12 1_555 1_555
H6 C13 1_555 1_555
C14 C2 1_555 1_555
C15 C1 1_555 1_555
C16 C15 1_555 1_555
H7 C16 1_555 1_555
C17 C16 1_555 1_555
C18 C17 1_555 1_555
C19 C18 1_555 1_555
H8 C19 1_555 1_555
C20 C2 1_555 1_555
C21 C5 1_555 1_555
C22 C21 1_555 1_555
H9 C22 1_555 1_555
C23 C22 1_555 1_555
C24 C23 1_555 1_555
C25 C24 1_555 1_555
H10 C25 1_555 1_555
C26 C21 1_555 1_555
H11 C26 1_555 1_555
C27 C23 1_555 1_555
H12 C27 1_555 1_555
O1 C27 1_555 1_555
O2 C24 1_555 1_555
C28 O2 1_555 1_555
H13 C28 1_555 1_555
H14 C28 1_555 1_555
H15 C28 1_555 1_555
C29 C6 1_555 1_555
C30 C29 1_555 1_555
H16 C30 1_555 1_555
C31 C30 1_555 1_555
C32 C31 1_555 1_555
C33 C32 1_555 1_555
H17 C33 1_555 1_555
C34 C29 1_555 1_555
H18 C34 1_555 1_555
C35 C31 1_555 1_555
H19 C35 1_555 1_555
O3 C35 1_555 1_555
O4 C32 1_555 1_555
C36 O4 1_555 1_555
H20 C36 1_555 1_555
H21 C36 1_555 1_555
H22 C36 1_555 1_555
C37 C11 1_555 1_555
C38 C37 1_555 1_555
H23 C38 1_555 1_555
C39 C40 1_555 1_555
C40 H24 1_555 1_555
C41 C37 1_555 1_555
H25 C41 1_555 1_555
C42 C38 1_555 1_555
C43 C42 1_555 1_555
H26 C43 1_555 1_555
O5 C43 1_555 1_555
O6 C39 1_555 1_555
C44 O6 1_555 1_555
H27 C44 1_555 1_555
H28 C44 1_555 1_555
H29 C44 1_555 1_555
C45 C12 1_555 1_555
C46 C45 1_555 1_555
H30 C46 1_555 1_555
C47 C46 1_555 1_555
C48 C47 1_555 1_555
C49 C48 1_555 1_555
H31 C49 1_555 1_555
C50 C45 1_555 1_555
H32 C50 1_555 1_555
O7 C51 1_555 1_555
C51 C47 1_555 1_555
H33 C51 1_555 1_555
O8 C48 1_555 1_555
C52 O8 1_555 1_555
H34 C52 1_555 1_555
H35 C52 1_555 1_555
H36 C52 1_555 1_555
C53 C17 1_555 1_555
C54 C53 1_555 1_555
H37 C54 1_555 1_555
C55 C54 1_555 1_555
C56 C55 1_555 1_555
C57 C56 1_555 1_555
H38 C57 1_555 1_555
C58 C53 1_555 1_555
H39 C58 1_555 1_555
O9 C59 1_555 1_555
C59 C55 1_555 1_555
H40 C59 1_555 1_555
O10 C56 1_555 1_555
C60 O10 1_555 1_555
H41 C60 1_555 1_555
H42 C60 1_555 1_555
H43 C60 1_555 1_555
C61 C18 1_555 1_555
C62 C61 1_555 1_555
H44 C62 1_555 1_555
C63 C62 1_555 1_555
C64 C63 1_555 1_555
C65 C64 1_555 1_555
H45 C65 1_555 1_555
C66 C61 1_555 1_555
H46 C66 1_555 1_555
O11 C67 1_555 1_555
C67 C63 1_555 1_555
H47 C67 1_555 1_555
O12 C64 1_555 1_555
C68 O12 1_555 1_555
H48 C68 1_555 1_555
H49 C68 1_555 1_555
H50 C68 1_555 1_555
C70 H52 1_555 1_555
Cl1 C70 1_555 1_555
Cl2 C70 1_555 1_555
Cl3 C70 1_555 1_555
C72 H54 1_555 1_555
Cl7 C72 1_555 1_555
Cl8 C72 1_555 1_555
Cl9 C72 1_555 1_555
C73 H55 1_555 1_555
Cl10 C73 1_555 1_555
Cl11 C73 1_555 1_555
Cl12 C73 1_555 1_555
C3 C8 1_555 1_555
C7 C8 1_555 1_555
C9 C14 1_555 1_555
C13 C14 1_555 1_555
C15 C20 1_555 1_555
C19 C20 1_555 1_555
C25 C26 1_555 1_555
C33 C34 1_555 1_555
C39 C42 1_555 1_555
C40 C41 1_555 1_555
C49 C50 1_555 1_555
C57 C58 1_555 1_555
C65 C66 1_555 1_555

#END
