
#######################################################################
#
#                 Cambridge Crystallographic Data Centre
#                                CCDC 
#
#######################################################################
#
# If this CIF has been generated from an entry in the Cambridge 
# Structural Database, then it will include bibliographic, chemical, 
# crystal, experimental, refinement or atomic coordinate data resulting 
# from the CCDC's data processing and validation procedures.
#
#######################################################################

data_NIDRUQ
_chemical_formula_moiety         'C11 H10 O3 S1'
_chemical_name_systematic        'ethyl (2H-1,3-benzoxathiol-2-ylidene)acetate'
_symmetry_cell_setting           monoclinic
_symmetry_space_group_name_H-M   'P 21/c'
_symmetry_Int_Tables_number      14
_space_group_name_Hall           '-P 2ybc'
loop_
_symmetry_equiv_pos_site_id
_symmetry_equiv_pos_as_xyz
1 x,y,z
2 -x,1/2+y,1/2-z
3 -x,-y,-z
4 x,1/2-y,1/2+z
_cell_length_a                   16.2540(10)
_cell_length_b                   5.0706(3)
_cell_length_c                   12.3045(7)
_cell_angle_alpha                90
_cell_angle_beta                 92.216(2)
_cell_angle_gamma                90
_cell_volume                     1013.35
_exptl_crystal_colour            colorless
_exptl_crystal_description       prismatic
_cell_formula_units_Z            4
loop_
_atom_site_label
_atom_site_type_symbol
_atom_site_fract_x
_atom_site_fract_y
_atom_site_fract_z
S1 S 0.77629(2) 0.53336(6) 0.64576(2)
O1 O 0.64482(5) 0.56263(18) 0.51721(7)
O2 O 0.87723(5) 0.9092(2) 0.55601(7)
O3 O 0.84328(5) 1.15957(18) 0.40914(7)
C1 C 0.69235(7) 0.3247(2) 0.66889(9)
C2 C 0.68363(8) 0.1325(3) 0.74785(10)
H1 H 0.7262 0.1002 0.8012
C3 C 0.61098(8) -0.0113(3) 0.74673(10)
H2 H 0.6038 -0.1433 0.8003
C4 C 0.54838(8) 0.0339(3) 0.66871(11)
H3 H 0.4994 -0.0683 0.6694
C5 C 0.55669(8) 0.2269(3) 0.58969(10)
H4 H 0.5142 0.2597 0.5362
C6 C 0.62889(7) 0.3682(2) 0.59218(9)
C7 C 0.72129(7) 0.6719(2) 0.53442(9)
C8 C 0.74643(7) 0.8634(3) 0.46817(10)
H5 H 0.7108 0.9256 0.4108
C9 C 0.82789(8) 0.9750(2) 0.48422(10)
C10 C 0.92452(8) 1.2803(3) 0.41771(11)
H6 H 0.9678 1.1437 0.4131
H7 H 0.9321 1.3732 0.4881
C11 C 0.93008(9) 1.4716(3) 0.32542(12)
H8 H 0.9209 1.3782 0.2563
H9 H 0.9848 1.5529 0.3275
H10 H 0.8881 1.6088 0.3321
loop_
_geom_bond_atom_site_label_1
_geom_bond_atom_site_label_2
_geom_bond_site_symmetry_1
_geom_bond_site_symmetry_2
S1 C1 1_555 1_555
O1 C6 1_555 1_555
O2 C9 1_555 1_555
O3 C9 1_555 1_555
C1 C2 1_555 1_555
C2 H1 1_555 1_555
C3 C2 1_555 1_555
H2 C3 1_555 1_555
C4 C3 1_555 1_555
H3 C4 1_555 1_555
C5 C4 1_555 1_555
H4 C5 1_555 1_555
C6 C1 1_555 1_555
C7 S1 1_555 1_555
C8 C7 1_555 1_555
H5 C8 1_555 1_555
C9 C8 1_555 1_555
C10 O3 1_555 1_555
H6 C10 1_555 1_555
H7 C10 1_555 1_555
C11 C10 1_555 1_555
H8 C11 1_555 1_555
H9 C11 1_555 1_555
H10 C11 1_555 1_555
O1 C7 1_555 1_555
C5 C6 1_555 1_555

#END
