
#######################################################################
#
#                 Cambridge Crystallographic Data Centre
#                                CCDC 
#
#######################################################################
#
# If this CIF has been generated from an entry in the Cambridge 
# Structural Database, then it will include bibliographic, chemical, 
# crystal, experimental, refinement or atomic coordinate data resulting 
# from the CCDC's data processing and validation procedures.
#
#######################################################################

data_NIDRUO
_chemical_formula_moiety         'C24 H27 P1'
_chemical_name_systematic        tris(2,4-Dimethylphenyl)phosphine
_symmetry_cell_setting           hexagonal
_symmetry_space_group_name_H-M   'P 63/m'
_symmetry_Int_Tables_number      176
_space_group_name_Hall           '-P 6c'
loop_
_symmetry_equiv_pos_site_id
_symmetry_equiv_pos_as_xyz
1 x,y,z
2 -y,x-y,z
3 -x+y,-x,z
4 x-y,x,1/2+z
5 y,-x+y,1/2+z
6 -x,-y,1/2+z
7 -x,-y,-z
8 y,-x+y,-z
9 x-y,x,-z
10 -x+y,-x,1/2-z
11 -y,x-y,1/2-z
12 x,y,1/2-z
_cell_length_a                   24.9150(8)
_cell_length_b                   24.9150(8)
_cell_length_c                   5.6590(2)
_cell_angle_alpha                90
_cell_angle_beta                 90
_cell_angle_gamma                120
_cell_volume                     3042.23
_exptl_crystal_colour            colorless
_exptl_crystal_description       prism
_cell_formula_units_Z            6
loop_
_atom_site_label
_atom_site_type_symbol
_atom_site_fract_x
_atom_site_fract_y
_atom_site_fract_z
C1 C 0.44281(19) 0.23417(19) 0.0162(9)
C2 C 0.5032(2) 0.2649(2) 0.1073(9)
C3 C 0.5470(2) 0.2526(2) -0.0007(10)
H1 H 0.5862 0.2675 0.0731
C4 C 0.53300(19) 0.21350(19) -0.25
C5 C 0.47337(17) 0.18427(16) -0.25
H2 H 0.4568 0.1447 -0.3219
C6 C 0.4291(2) 0.1947(2) -0.1766(9)
H3 H 0.3897 0.1762 -0.2517
C7 C 0.5824(2) 0.2026(3) -0.25
H4 H 0.6214 0.2423 -0.25
H5 H 0.5804 0.179 -0.3914
C8 C 0.5227(2) 0.3105(2) 0.2500
H7 H 0.566 0.3248 0.2911
H8 H 0.4974 0.2974 0.1063
H9 H 0.5197 0.3444 0.1748
C9 C 0.39815(19) 0.31996(19) 0.0153(9)
C10 C 0.3658(2) 0.3492(2) 0.0908(9)
C11 C 0.3779(2) 0.4044(2) -0.0123(11)
H10 H 0.3607 0.4271 0.0571
C12 C 0.4208(2) 0.4321(2) -0.25
C13 C 0.45216(18) 0.40256(18) -0.25
H11 H 0.4914 0.4252 -0.3248
C14 C 0.4408(2) 0.3472(2) -0.1672(9)
H12 H 0.4615 0.3272 -0.2319
C15 C 0.4310(2) 0.4916(2) -0.25
H13 H 0.3912 0.4906 -0.25
H14 H 0.4546 0.5133 -0.3914
H15 H 0.4546 0.5133 -0.1086
C16 C 0.3175(2) 0.3217(2) 0.2500
H16 H 0.3011 0.3495 0.281
H17 H 0.3325 0.3134 0.1021
C17 C 0.3128(2) 0.1892(2) 0.0126(9)
C18 C 0.2834(2) 0.1282(2) 0.0976(9)
C19 C 0.2281(2) 0.0846(2) -0.0095(11)
H19 H 0.2051 0.0447 0.0608
C20 C 0.20103(19) 0.09869(19) -0.25
C21 C 0.23120(18) 0.15898(19) -0.25
H20 H 0.2077 0.1754 -0.3195
C22 C 0.2863(2) 0.20341(19) -0.1780(8)
H21 H 0.3068 0.2429 -0.252
C23 C 0.1404(2) 0.0495(2) -0.25
H22 H 0.1406 0.0103 -0.25
H23 H 0.1189 0.0517 -0.3914
C24 C 0.3101(2) 0.1074(2) 0.2500
H25 H 0.2816 0.0635 0.2839
H26 H 0.32 0.1313 0.103
P1 P 0.38419(5) 0.24779(5) 0.1589(2)
C2K C 0.5032(2) 0.2649(2) 0.3927(9)
C3K C 0.5470(2) 0.2526(2) -0.4993(10)
H2K H 0.4568 0.1447 -0.1781
C6K C 0.4291(2) 0.1947(2) -0.3234(9)
H5K H 0.5804 0.179 -0.1086
H7K H 0.566 0.3248 0.2089
H8K H 0.4974 0.2974 0.3937
H9K H 0.5197 0.3444 0.3252
C10K C 0.3658(2) 0.3492(2) 0.4092(9)
C11K C 0.3779(2) 0.4044(2) -0.4877(11)
H11K H 0.4914 0.4252 -0.1752
C14K C 0.4408(2) 0.3472(2) -0.3328(9)
H12K H 0.4615 0.3272 -0.2681
H16K H 0.3011 0.3495 0.219
H17K H 0.3325 0.3134 0.3979
C18K C 0.2834(2) 0.1282(2) 0.4024(9)
C19K C 0.2281(2) 0.0846(2) -0.4905(11)
H20K H 0.2077 0.1754 -0.1805
C22K C 0.2863(2) 0.20341(19) -0.3220(8)
H23K H 0.1189 0.0517 -0.1086
H25K H 0.2816 0.0635 0.2161
H26K H 0.32 0.1313 0.397
P1K P 0.38419(5) 0.24779(5) 0.3411(2)
H6? H 0.5804 0.179 -0.1086
H18? H 0.2846 0.2826 0.1841
H24? H 0.1189 0.0517 -0.1086
H27? H 0.3483 0.1122 0.1804
loop_
_geom_bond_atom_site_label_1
_geom_bond_atom_site_label_2
_geom_bond_site_symmetry_1
_geom_bond_site_symmetry_2
C1 C2 1_555 1_555
C2 C3 1_555 1_555
C3 H1 1_555 1_555
C4 C3 1_555 1_555
C5 C4 1_555 1_555
H2 C5 1_555 1_555
C6 C1 1_555 1_555
H3 C6 1_555 1_555
C7 C4 1_555 1_555
H4 C7 1_555 1_555
H5 C7 1_555 1_555
C8 C2 1_555 1_555
H7 C8 1_555 1_555
H8 C2 1_555 1_555
H9 C8 1_555 1_555
C9 C10 1_555 1_555
C10 C11 1_555 1_555
C11 H10 1_555 1_555
C12 C11 1_555 1_555
C13 C12 1_555 1_555
H11 C13 1_555 1_555
C14 C9 1_555 1_555
H12 C14 1_555 1_555
C15 C12 1_555 1_555
H13 C15 1_555 1_555
H14 C15 1_555 1_555
H15 C15 1_555 1_555
C16 C10 1_555 1_555
H16 C16 1_555 1_555
H17 C10 1_555 1_555
C17 C18 1_555 1_555
C18 C19 1_555 1_555
C19 H19 1_555 1_555
C20 C19 1_555 1_555
C21 C20 1_555 1_555
H20 C21 1_555 1_555
C22 C17 1_555 1_555
H21 C22 1_555 1_555
C23 C20 1_555 1_555
H22 C23 1_555 1_555
H23 C23 1_555 1_555
C24 C18 1_555 1_555
H25 C24 1_555 1_555
H26 C18 1_555 1_555
P1 C1 1_555 1_555
C2K C2 1_555 1_555
C3K C4 1_555 1_555
H2K C5 1_555 1_555
C6K C5 1_555 1_555
H5K C7 1_555 1_555
H7K C8 1_555 1_555
H8K C8 1_555 1_555
H9K C8 1_555 1_555
C10K C16 1_555 1_555
C11K C12 1_555 1_555
H11K C13 1_555 1_555
C14K C13 1_555 1_555
H12K C14 1_555 1_555
H16K C16 1_555 1_555
H17K C16 1_555 1_555
C18K C18 1_555 1_555
C19K C20 1_555 1_555
H20K C21 1_555 1_555
C22K C21 1_555 1_555
H23K C23 1_555 1_555
H25K C24 1_555 1_555
H26K C24 1_555 1_555
P1K P1 1_555 1_555
C5 C6 1_555 1_555
H2 H2K 1_555 1_555
C6 C6K 1_555 1_555
H3 C6K 1_555 1_555
C8 H8 1_555 1_555
C8 C2K 1_555 1_555
H7 H7K 1_555 1_555
H9 H9K 1_555 1_555
C9 P1 1_555 1_555
C13 C14 1_555 1_555
H11 H11K 1_555 1_555
C14 C14K 1_555 1_555
H12 C14K 1_555 1_555
H12 H12K 1_555 1_555
C16 H17 1_555 1_555
H16 H16K 1_555 1_555
C17 P1 1_555 1_555
C21 C22 1_555 1_555
H20 H20K 1_555 1_555
C22 C22K 1_555 1_555
H21 C22K 1_555 1_555
C24 H26 1_555 1_555
C24 C18K 1_555 1_555
H25 H25K 1_555 1_555
C2K H8K 1_555 1_555
C10K H17K 1_555 1_555
C14K H12K 1_555 1_555
C18K H26K 1_555 1_555

#END
