
#######################################################################
#
#                 Cambridge Crystallographic Data Centre
#                                CCDC 
#
#######################################################################
#
# If this CIF has been generated from an entry in the Cambridge 
# Structural Database, then it will include bibliographic, chemical, 
# crystal, experimental, refinement or atomic coordinate data resulting 
# from the CCDC's data processing and validation procedures.
#
#######################################################################

data_NIDTUS
_chemical_formula_moiety         'C28 H22 O2'
_chemical_name_systematic        
'13-(diphenylmethylidene)-6,7-dihydro-13H-dibenzo[e,h][1,4]dioxonine unknown solvate'
_symmetry_cell_setting           monoclinic
_symmetry_space_group_name_H-M   'P 21/n'
_symmetry_Int_Tables_number      14
_space_group_name_Hall           '-P 2yn'
loop_
_symmetry_equiv_pos_site_id
_symmetry_equiv_pos_as_xyz
1 x,y,z
2 1/2-x,1/2+y,1/2-z
3 -x,-y,-z
4 1/2+x,1/2-y,1/2+z
_cell_length_a                   9.1319(3)
_cell_length_b                   19.4605(5)
_cell_length_c                   12.3122(4)
_cell_angle_alpha                90
_cell_angle_beta                 97.242(3)
_cell_angle_gamma                90
_cell_volume                     2170.56
_exptl_crystal_description       block
_cell_formula_units_Z            4
loop_
_atom_site_label
_atom_site_type_symbol
_atom_site_fract_x
_atom_site_fract_y
_atom_site_fract_z
O1 O -0.22929(13) 0.16728(7) 0.68124(11)
O2 O -0.07512(13) 0.29911(6) 0.74890(11)
C1 C 0.14831(18) 0.23435(9) 0.80457(13)
C2 C 0.06535(17) 0.16849(9) 0.79193(14)
C3 C -0.0529(2) 0.16252(9) 0.96496(15)
H1 H 0.0411 0.1632 1.0041
C4 C 0.2600(2) 0.16259(9) 0.59665(15)
H2 H 0.1971 0.2003 0.5860
C5 C 0.32966(19) 0.05561(9) 0.68609(15)
H3 H 0.3124 0.0207 0.7344
C6 C 0.07605(18) 0.29695(9) 0.78238(14)
C7 C 0.1498(2) 0.35883(10) 0.79916(16)
H4 H 0.0985 0.3999 0.7859
C8 C -0.3331(2) 0.16041(10) 0.84913(19)
H5 H -0.4270 0.1592 0.8099
C9 C 0.10354(17) 0.11363(8) 0.73461(13)
C10 C -0.1527(2) -0.02595(11) 0.61281(17)
H6 H -0.2005 -0.0377 0.5441
C11 C -0.21081(19) 0.16496(9) 0.79413(16)
C12 C 0.23322(17) 0.11136(8) 0.67200(14)
C13 C -0.06837(18) 0.16523(8) 0.85051(14)
C14 C -0.05971(19) 0.03068(9) 0.62471(15)
H7 H -0.0451 0.0562 0.5632
C15 C 0.29880(19) 0.23584(10) 0.84197(15)
H8 H 0.3494 0.1948 0.8571
C16 C 0.01210(17) 0.05015(9) 0.72630(14)
C17 C 0.3748(2) 0.29800(10) 0.85702(16)
H9 H 0.4754 0.2981 0.8813
C18 C -0.3167(2) 0.15756(11) 0.96185(19)
H10 H -0.3995 0.1548 0.9986
C19 C -0.1751(2) 0.15879(10) 1.02120(17)
H11 H -0.1633 0.1571 1.0973
C20 C 0.3805(2) 0.15726(10) 0.53768(16)
H12 H 0.3959 0.1908 0.4865
C21 C -0.2609(2) 0.23417(11) 0.63575(16)
H13 H -0.3310 0.2572 0.6764
H14 H -0.3058 0.2296 0.5604
C22 C 0.3003(2) 0.36004(10) 0.83573(16)
H15 H 0.3504 0.4016 0.8458
C23 C 0.4517(2) 0.05154(10) 0.62860(18)
H16 H 0.5160 0.0145 0.6400
C24 C -0.0093(2) 0.01039(9) 0.81744(16)
H17 H 0.0379 0.0220 0.8864
C25 C 0.4774(2) 0.10232(10) 0.55493(17)
H18 H 0.5591 0.0997 0.5171
C26 C -0.1739(2) -0.06499(10) 0.7037(2)
H19 H -0.2361 -0.1030 0.6965
C27 C -0.1024(2) -0.04711(10) 0.80451(18)
H20 H -0.1160 -0.0736 0.8653
C28 C -0.1224(2) 0.27729(10) 0.63956(16)
H21 H -0.0449 0.2506 0.6126
H22 H -0.1418 0.3171 0.5926
loop_
_geom_bond_atom_site_label_1
_geom_bond_atom_site_label_2
_geom_bond_site_symmetry_1
_geom_bond_site_symmetry_2
O1 C11 1_555 1_555
O2 C6 1_555 1_555
C1 C2 1_555 1_555
C2 C9 1_555 1_555
C3 H1 1_555 1_555
C4 H2 1_555 1_555
C5 H3 1_555 1_555
C6 C1 1_555 1_555
C7 C6 1_555 1_555
H4 C7 1_555 1_555
C8 H5 1_555 1_555
C9 C12 1_555 1_555
C10 H6 1_555 1_555
C11 C8 1_555 1_555
C12 C4 1_555 1_555
C13 C2 1_555 1_555
C14 C10 1_555 1_555
H7 C14 1_555 1_555
C15 C1 1_555 1_555
H8 C15 1_555 1_555
C16 C9 1_555 1_555
C17 C15 1_555 1_555
H9 C17 1_555 1_555
C18 C8 1_555 1_555
H10 C18 1_555 1_555
C19 C3 1_555 1_555
H11 C19 1_555 1_555
C20 C4 1_555 1_555
H12 C20 1_555 1_555
C21 O1 1_555 1_555
H13 C21 1_555 1_555
H14 C21 1_555 1_555
C22 C7 1_555 1_555
H15 C22 1_555 1_555
C23 C5 1_555 1_555
H16 C23 1_555 1_555
C24 C16 1_555 1_555
H17 C24 1_555 1_555
C25 C20 1_555 1_555
H18 C25 1_555 1_555
C26 C10 1_555 1_555
H19 C26 1_555 1_555
C27 C24 1_555 1_555
H20 C27 1_555 1_555
C28 O2 1_555 1_555
H21 C28 1_555 1_555
H22 C28 1_555 1_555
C3 C13 1_555 1_555
C5 C12 1_555 1_555
C11 C13 1_555 1_555
C14 C16 1_555 1_555
C17 C22 1_555 1_555
C18 C19 1_555 1_555
C21 C28 1_555 1_555
C23 C25 1_555 1_555
C26 C27 1_555 1_555

#END
