
#######################################################################
#
#                 Cambridge Crystallographic Data Centre
#                                CCDC 
#
#######################################################################
#
# If this CIF has been generated from an entry in the Cambridge 
# Structural Database, then it will include bibliographic, chemical, 
# crystal, experimental, refinement or atomic coordinate data resulting 
# from the CCDC's data processing and validation procedures.
#
#######################################################################

data_NIDVAA
_chemical_formula_moiety         'C29 H24 O2'
_chemical_name_systematic        
14-(diphenylmethylidene)-7,8-dihydro-6H,14H-dibenzo[f,i][1,5]dioxecine
_symmetry_cell_setting           monoclinic
_symmetry_space_group_name_H-M   'P 21/c'
_symmetry_Int_Tables_number      14
_space_group_name_Hall           '-P 2ybc'
loop_
_symmetry_equiv_pos_site_id
_symmetry_equiv_pos_as_xyz
1 x,y,z
2 -x,1/2+y,1/2-z
3 -x,-y,-z
4 x,1/2-y,1/2+z
_cell_length_a                   14.1335(4)
_cell_length_b                   9.1220(2)
_cell_length_c                   17.8477(5)
_cell_angle_alpha                90
_cell_angle_beta                 109.798(3)
_cell_angle_gamma                90
_cell_volume                     2165.02
_exptl_crystal_description       block
_cell_formula_units_Z            4
loop_
_atom_site_label
_atom_site_type_symbol
_atom_site_fract_x
_atom_site_fract_y
_atom_site_fract_z
O1 O 0.70921(8) 0.67088(13) 1.01023(7)
O2 O 0.61329(9) 0.92550(14) 1.02546(7)
C1 C 0.80025(11) 0.92991(17) 0.99681(9)
C2 C 0.86041(11) 0.79426(18) 1.02734(9)
C3 C 0.77945(12) 1.02106(17) 1.05947(9)
C4 C 0.79416(12) 0.87617(18) 0.85925(9)
C5 C 0.70823(11) 1.10125(17) 0.88625(9)
C6 C 0.83969(16) 1.1973(2) 1.16787(11)
H1 H 0.8916 1.2543 1.2010
C7 C 0.86616(13) 0.53997(19) 1.06965(10)
H2 H 0.8327 0.4553 1.0755
C8 C 0.85236(13) 0.9339(2) 0.81727(10)
H3 H 0.8743 1.0306 0.8254
C9 C 0.85543(14) 1.11017(18) 1.10881(10)
H4 H 0.9179 1.1116 1.1022
C10 C 0.68636(13) 1.01712(18) 1.07183(10)
C11 C 0.76931(11) 0.96928(17) 0.91955(9)
C12 C 0.96582(12) 0.79258(19) 1.04986(10)
H5 H 0.9996 0.8760 1.0426
C13 C 0.81187(12) 0.66577(18) 1.03780(9)
C14 C 0.73002(13) 1.23985(18) 0.92060(10)
H6 H 0.7853 1.2516 0.9668
C15 C 0.75917(15) 0.7320(2) 0.84457(11)
H7 H 0.7189 0.6933 0.8715
C16 C 1.02033(14) 0.6665(2) 1.08305(11)
H8 H 1.0901 0.6668 1.0987
C17 C 0.66947(15) 1.1084(2) 1.12888(11)
H9 H 0.6066 1.1092 1.1349
C18 C 0.67140(15) 1.3600(2) 0.88761(11)
H10 H 0.6873 1.4511 0.9120
C19 C 0.74517(16) 1.1976(2) 1.17652(11)
H11 H 0.7331 1.2578 1.2143
C20 C 0.97005(14) 0.5407(2) 1.09267(11)
H12 H 1.0063 0.4569 1.1146
C21 C 0.62538(13) 1.0884(2) 0.81592(11)
H13 H 0.6101 0.9978 0.7909
C22 C 0.65695(13) 0.6026(2) 1.05790(12)
H14 H 0.6947 0.6145 1.1141
H15 H 0.6479 0.4987 1.0461
C23 C 0.56364(14) 0.8346(2) 1.06847(13)
H16 H 0.4970 0.8727 1.0610
H17 H 0.6020 0.8357 1.1250
C24 C 0.87788(16) 0.8458(3) 0.76253(11)
H18 H 0.9179 0.8833 0.7350
C25 C 0.58944(15) 1.3464(2) 0.81879(12)
H19 H 0.5503 1.4275 0.7963
C26 C 0.56633(14) 1.2076(2) 0.78332(13)
H20 H 0.5106 1.1963 0.7374
C27 C 0.55610(13) 0.6785(2) 1.03673(13)
H21 H 0.5128 0.6221 1.0580
H22 H 0.5250 0.6806 0.9792
C28 C 0.78437(17) 0.6469(2) 0.79015(11)
H23 H 0.7612 0.5509 0.7809
C29 C 0.84316(18) 0.7028(3) 0.74968(12)
H24 H 0.8599 0.6443 0.7133
loop_
_geom_bond_atom_site_label_1
_geom_bond_atom_site_label_2
_geom_bond_site_symmetry_1
_geom_bond_site_symmetry_2
O1 C13 1_555 1_555
O2 C10 1_555 1_555
C1 C2 1_555 1_555
C2 C12 1_555 1_555
C3 C1 1_555 1_555
C4 C8 1_555 1_555
C5 C11 1_555 1_555
C6 H1 1_555 1_555
C7 H2 1_555 1_555
C8 H3 1_555 1_555
C9 C3 1_555 1_555
H4 C9 1_555 1_555
C10 C3 1_555 1_555
C11 C1 1_555 1_555
C12 H5 1_555 1_555
C13 C2 1_555 1_555
C14 C5 1_555 1_555
H6 C14 1_555 1_555
C15 C4 1_555 1_555
H7 C15 1_555 1_555
C16 C12 1_555 1_555
H8 C16 1_555 1_555
C17 C10 1_555 1_555
H9 C17 1_555 1_555
C18 C14 1_555 1_555
H10 C18 1_555 1_555
C19 C6 1_555 1_555
H11 C19 1_555 1_555
C20 C7 1_555 1_555
H12 C20 1_555 1_555
C21 C5 1_555 1_555
H13 C21 1_555 1_555
C22 O1 1_555 1_555
H14 C22 1_555 1_555
H15 C22 1_555 1_555
C23 O2 1_555 1_555
H16 C23 1_555 1_555
H17 C23 1_555 1_555
C24 C8 1_555 1_555
H18 C24 1_555 1_555
C25 C18 1_555 1_555
H19 C25 1_555 1_555
C26 C21 1_555 1_555
H20 C26 1_555 1_555
C27 C22 1_555 1_555
H21 C27 1_555 1_555
H22 C27 1_555 1_555
C28 C15 1_555 1_555
H23 C28 1_555 1_555
C29 C24 1_555 1_555
H24 C29 1_555 1_555
C4 C11 1_555 1_555
C6 C9 1_555 1_555
C7 C13 1_555 1_555
C16 C20 1_555 1_555
C17 C19 1_555 1_555
C23 C27 1_555 1_555
C25 C26 1_555 1_555
C28 C29 1_555 1_555

#END
