
#######################################################################
#
#                 Cambridge Crystallographic Data Centre
#                                CCDC 
#
#######################################################################
#
# If this CIF has been generated from an entry in the Cambridge 
# Structural Database, then it will include bibliographic, chemical, 
# crystal, experimental, refinement or atomic coordinate data resulting 
# from the CCDC's data processing and validation procedures.
#
#######################################################################

data_NIFBOW
_chemical_formula_moiety         'C20 H21 N2 O1 1+,Cl1 1-'
_chemical_name_systematic        
'2-(1-acetamido-2-phenylethyl)-4-methylquinolin-1-ium chloride'
_symmetry_cell_setting           monoclinic
_symmetry_space_group_name_H-M   'C 2'
_symmetry_Int_Tables_number      5
_space_group_name_Hall           'C 2y'
loop_
_symmetry_equiv_pos_site_id
_symmetry_equiv_pos_as_xyz
1 x,y,z
2 -x,y,-z
3 1/2+x,1/2+y,z
4 1/2-x,1/2+y,-z
_cell_length_a                   16.8258(4)
_cell_length_b                   7.3541(2)
_cell_length_c                   14.9892(4)
_cell_angle_alpha                90
_cell_angle_beta                 106.2635(10)
_cell_angle_gamma                90
_cell_volume                     1780.52
_exptl_crystal_colour            colorless
_exptl_crystal_description       block
_cell_formula_units_Z            4
loop_
_atom_site_label
_atom_site_type_symbol
_atom_site_fract_x
_atom_site_fract_y
_atom_site_fract_z
Cl1 Cl 0.5000 0.40007(13) 0.5000
Cl2 Cl 0.5000 0.30473(11) 0.0000
O1 O 0.50359(11) 0.7653(2) 0.26981(11)
N1 N 0.63125(10) 0.3896(3) 0.38988(11)
H1 H 0.6010(17) 0.414(4) 0.4246(19)
N2 N 0.48261(10) 0.5099(2) 0.18409(12)
H2 H 0.4792(15) 0.464(4) 0.1288(19)
C1 C 0.50251(12) 0.3909(3) 0.26445(13)
H3 H 0.4818 0.4474 0.3144
C2 C 0.48523(12) 0.6909(3) 0.19338(14)
C3 C 0.46114(13) 0.7956(3) 0.10342(14)
H4 H 0.5049 0.8828 0.1024
H5 H 0.4093 0.8611 0.0982
H6 H 0.4535 0.7111 0.0512
C4 C 0.59535(12) 0.3660(3) 0.30042(14)
C5 C 0.64308(12) 0.3159(3) 0.24114(14)
H7 H 0.6169 0.2972 0.1769
C6 C 0.72732(12) 0.2935(3) 0.27519(15)
C7 C 0.76587(12) 0.3248(3) 0.37119(15)
C8 C 0.85240(13) 0.3110(4) 0.41379(16)
H8 H 0.8883 0.2790 0.3773
C9 C 0.88439(13) 0.3430(4) 0.50626(17)
H9 H 0.9424 0.3327 0.5335
C10 C 0.83313(14) 0.3909(4) 0.56230(16)
H10 H 0.8568 0.4139 0.6267
C11 C 0.74904(13) 0.4047(3) 0.52431(14)
H11 H 0.7142 0.4358 0.5620
C12 C 0.71551(12) 0.3722(3) 0.42939(14)
C13 C 0.77759(15) 0.2412(4) 0.21032(17)
H12 H 0.7409 0.2285 0.1471
H13 H 0.8057 0.1253 0.2304
H14 H 0.8189 0.3357 0.2113
C14 C 0.46168(13) 0.2051(3) 0.23999(17)
H15 H 0.4834 0.1471 0.1920
H16 H 0.4767 0.1266 0.2959
C15 C 0.36842(13) 0.2175(3) 0.20442(16)
C16 C 0.32952(15) 0.2149(4) 0.11040(17)
H17 H 0.3616 0.2086 0.0675
C17 C 0.24381(16) 0.2212(6) 0.07790(19)
H18 H 0.2174 0.2176 0.0130
C18 C 0.19685(16) 0.2329(5) 0.1402(2)
H19 H 0.1382 0.2379 0.1181
C19 C 0.23492(15) 0.2372(4) 0.23366(19)
H20 H 0.2026 0.2458 0.2763
C20 C 0.32079(14) 0.2290(4) 0.26658(17)
H21 H 0.3469 0.2312 0.3316
loop_
_geom_bond_atom_site_label_1
_geom_bond_atom_site_label_2
_geom_bond_site_symmetry_1
_geom_bond_site_symmetry_2
O1 C2 1_555 1_555
N1 H1 1_555 1_555
N2 H2 1_555 1_555
C1 N2 1_555 1_555
H3 C1 1_555 1_555
C2 N2 1_555 1_555
C3 C2 1_555 1_555
H4 C3 1_555 1_555
H5 C3 1_555 1_555
H6 C3 1_555 1_555
C4 N1 1_555 1_555
C5 C4 1_555 1_555
H7 C5 1_555 1_555
C6 C5 1_555 1_555
C7 C6 1_555 1_555
C8 C7 1_555 1_555
H8 C8 1_555 1_555
C9 C8 1_555 1_555
H9 C9 1_555 1_555
C10 C9 1_555 1_555
H10 C10 1_555 1_555
C11 C10 1_555 1_555
H11 C11 1_555 1_555
C12 N1 1_555 1_555
C13 C6 1_555 1_555
H12 C13 1_555 1_555
H13 C13 1_555 1_555
H14 C13 1_555 1_555
C14 C1 1_555 1_555
H15 C14 1_555 1_555
H16 C14 1_555 1_555
C15 C14 1_555 1_555
C16 C15 1_555 1_555
H17 C16 1_555 1_555
C17 C16 1_555 1_555
H18 C17 1_555 1_555
C18 C17 1_555 1_555
H19 C18 1_555 1_555
C19 C18 1_555 1_555
H20 C19 1_555 1_555
C20 C15 1_555 1_555
H21 C20 1_555 1_555
C1 C4 1_555 1_555
C7 C12 1_555 1_555
C11 C12 1_555 1_555
C19 C20 1_555 1_555

#END
