
#######################################################################
#
#                 Cambridge Crystallographic Data Centre
#                                CCDC 
#
#######################################################################
#
# If this CIF has been generated from an entry in the Cambridge 
# Structural Database, then it will include bibliographic, chemical, 
# crystal, experimental, refinement or atomic coordinate data resulting 
# from the CCDC's data processing and validation procedures.
#
#######################################################################

data_NIFCOV
_chemical_formula_moiety         'C17 H11 N5 O2 S1,C2 H6 O1 S1'
_chemical_name_systematic        
'11-thiosemicarbazonoindeno(1,2-b)quinoxaline-8-carboxylic acid dimethylsulfoxide solvate'
_symmetry_cell_setting           monoclinic
_symmetry_space_group_name_H-M   'P 21/c'
_symmetry_Int_Tables_number      14
_space_group_name_Hall           '-P 2ybc'
loop_
_symmetry_equiv_pos_site_id
_symmetry_equiv_pos_as_xyz
1 x,y,z
2 -x,1/2+y,1/2-z
3 -x,-y,-z
4 x,1/2-y,1/2+z
_cell_length_a                   14.876(2)
_cell_length_b                   25.205(3)
_cell_length_c                   11.0201(15)
_cell_angle_alpha                90
_cell_angle_beta                 95.775(3)
_cell_angle_gamma                90
_cell_volume                     4111.01
_exptl_crystal_colour            yellow
_exptl_crystal_description       block
_cell_formula_units_Z            8
loop_
_atom_site_label
_atom_site_type_symbol
_atom_site_fract_x
_atom_site_fract_y
_atom_site_fract_z
S1 S 0.24586(9) 0.74512(5) 0.94383(12)
O5 O 0.3139(2) 0.78780(12) 0.9794(3)
C35 C 0.2086(7) 0.7220(3) 1.0792(7)
C36 C 0.3075(5) 0.6881(3) 0.9071(8)
S2 S 0.24527(11) 0.29402(6) 0.40349(11)
O6 O 0.1697(2) 0.29926(12) 0.4872(3)
C37 C 0.2878(4) 0.2273(2) 0.4219(5)
C38 C 0.1898(4) 0.2855(2) 0.2531(4)
N1 N -0.0339(2) 0.61471(15) 0.6245(3)
H1 H -0.0535 0.5838 0.6017
H2 H -0.0523 0.6424 0.5836
N2 N 0.0507(2) 0.57418(13) 0.7820(3)
H3 H 0.0874 0.5761 0.8474
N3 N 0.0204(2) 0.52559(13) 0.7415(3)
N4 N 0.13007(19) 0.52554(11) 0.9956(3)
N5 N 0.1421(2) 0.41785(12) 1.0816(3)
O1 O 0.2779(2) 0.63300(12) 1.3327(3)
H7 H 0.2940 0.6551 1.3849
O2 O 0.3298(2) 0.57660(12) 1.4791(3)
S5 S 0.06694(10) 0.67658(5) 0.77726(13)
C1 C 0.0248(3) 0.61963(16) 0.7224(4)
C2 C 0.0437(2) 0.48613(16) 0.8122(4)
C3 C 0.0197(3) 0.43073(17) 0.7843(4)
C4 C -0.0273(3) 0.40903(19) 0.6791(4)
H9 H -0.0483 0.4306 0.6137
C5 C -0.0416(3) 0.3553(2) 0.6751(6)
H10 H -0.0719 0.3402 0.6056
C6 C -0.0116(4) 0.3230(2) 0.7735(6)
H11 H -0.0233 0.2867 0.7690
C7 C 0.0357(3) 0.34383(18) 0.8793(5)
H12 H 0.0554 0.3221 0.9450
C8 C 0.0523(3) 0.39833(16) 0.8825(4)
C9 C 0.0995(2) 0.43138(15) 0.9757(4)
C10 C 0.0951(2) 0.48527(15) 0.9334(3)
C11 C 0.1742(2) 0.51258(14) 1.1071(3)
C12 C 0.1806(3) 0.45922(15) 1.1484(3)
C13 C 0.2272(3) 0.44885(17) 1.2644(4)
H13 H 0.2332 0.4141 1.2923
C14 C 0.2633(3) 0.48922(17) 1.3356(4)
H14 H 0.2935 0.4816 1.4116
C15 C 0.2557(2) 0.54232(16) 1.2961(3)
C16 C 0.2118(2) 0.55346(15) 1.1823(3)
H15 H 0.2072 0.5884 1.1553
C17 C 0.2914(3) 0.58507(17) 1.3783(4)
N6 N 0.5545(2) 0.34561(14) 0.3731(3)
H4 H 0.5718 0.3760 0.4021
H5 H 0.5772 0.3171 0.4061
N7 N 0.4613(2) 0.38960(11) 0.2319(3)
H6 H 0.4222 0.3901 0.1688
N8 N 0.49081(19) 0.43564(12) 0.2853(3)
N9 N 0.37777(18) 0.45074(11) 0.0357(2)
N10 N 0.37666(19) 0.56254(11) -0.0212(3)
O3 O 0.1741(2) 0.42962(13) -0.4565(2)
O4 O 0.2167(2) 0.36383(11) -0.3284(2)
H8 H 0.1962 0.3455 -0.3862
S6 S 0.45768(10) 0.28637(5) 0.21016(13)
C18 C 0.4934(3) 0.34274(15) 0.2781(3)
C19 C 0.4676(2) 0.47900(14) 0.2286(3)
C20 C 0.4953(2) 0.53187(14) 0.2728(3)
C21 C 0.5442(2) 0.54663(16) 0.3814(3)
H16 H 0.5641 0.5213 0.4393
C22 C 0.5626(3) 0.59962(17) 0.4015(4)
H17 H 0.5948 0.6102 0.4742
C23 C 0.5337(3) 0.63772(18) 0.3143(4)
H18 H 0.5472 0.6733 0.3295
C24 C 0.4850(3) 0.62332(16) 0.2053(4)
H19 H 0.4658 0.6488 0.1474
C25 C 0.4657(2) 0.57004(14) 0.1849(3)
C26 C 0.4162(2) 0.54262(14) 0.0815(3)
C27 C 0.4160(2) 0.48737(14) 0.1083(3)
C28 C 0.3352(2) 0.47041(14) -0.0723(3)
C29 C 0.3351(2) 0.52530(14) -0.0997(3)
C30 C 0.2910(2) 0.54193(15) -0.2124(3)
H20 H 0.2896 0.5778 -0.2324
C31 C 0.2506(2) 0.50632(17) -0.2914(3)
H21 H 0.2218 0.5182 -0.3652
C32 C 0.2509(2) 0.45140(15) -0.2652(3)
C33 C 0.2926(2) 0.43428(15) -0.1562(3)
H22 H 0.2928 0.3983 -0.1374
C34 C 0.2103(3) 0.41428(18) -0.3589(3)
S3? S 0.3110(16) 0.7249(8) 1.010(2)
S4? S 0.1896(15) 0.2639(9) 0.4082(17)
loop_
_geom_bond_atom_site_label_1
_geom_bond_atom_site_label_2
_geom_bond_site_symmetry_1
_geom_bond_site_symmetry_2
S1 O5 1_555 1_555
S2 O6 1_555 1_555
N1 H1 1_555 1_555
H2 N1 1_555 1_555
N2 H3 1_555 1_555
N3 N2 1_555 1_555
N4 C10 1_555 1_555
N5 C9 1_555 1_555
N6 H4 1_555 1_555
H5 N6 1_555 1_555
N7 H6 1_555 1_555
N8 N7 1_555 1_555
N9 C27 1_555 1_555
N10 C26 1_555 1_555
O1 H7 1_555 1_555
O2 C17 1_555 1_555
O3 C34 1_555 1_555
O4 H8 1_555 1_555
S5 C1 1_555 1_555
S6 C18 1_555 1_555
C1 N1 1_555 1_555
C2 N3 1_555 1_555
C3 C2 1_555 1_555
C4 C3 1_555 1_555
H9 C4 1_555 1_555
C5 C4 1_555 1_555
H10 C5 1_555 1_555
C6 C5 1_555 1_555
H11 C6 1_555 1_555
C7 C6 1_555 1_555
H12 C7 1_555 1_555
C8 C3 1_555 1_555
C9 C8 1_555 1_555
C10 C2 1_555 1_555
C11 N4 1_555 1_555
C12 N5 1_555 1_555
C13 C12 1_555 1_555
H13 C13 1_555 1_555
C14 C13 1_555 1_555
H14 C14 1_555 1_555
C15 C14 1_555 1_555
C16 C11 1_555 1_555
H15 C16 1_555 1_555
C17 O1 1_555 1_555
C18 N6 1_555 1_555
C19 N8 1_555 1_555
C20 C19 1_555 1_555
C21 C20 1_555 1_555
H16 C21 1_555 1_555
C22 C21 1_555 1_555
H17 C22 1_555 1_555
C23 C22 1_555 1_555
H18 C23 1_555 1_555
C24 C23 1_555 1_555
H19 C24 1_555 1_555
C25 C20 1_555 1_555
C26 C25 1_555 1_555
C27 C19 1_555 1_555
C28 N9 1_555 1_555
C29 N10 1_555 1_555
C30 C29 1_555 1_555
H20 C30 1_555 1_555
C31 C30 1_555 1_555
H21 C31 1_555 1_555
C32 C31 1_555 1_555
C33 C28 1_555 1_555
H22 C33 1_555 1_555
C34 O4 1_555 1_555
C35 S1 1_555 1_555
C36 S1 1_555 1_555
C37 S2 1_555 1_555
C38 S2 1_555 1_555
N2 C1 1_555 1_555
N7 C18 1_555 1_555
C7 C8 1_555 1_555
C9 C10 1_555 1_555
C11 C12 1_555 1_555
C15 C16 1_555 1_555
C15 C17 1_555 1_555
C24 C25 1_555 1_555
C26 C27 1_555 1_555
C28 C29 1_555 1_555
C32 C33 1_555 1_555
C32 C34 1_555 1_555

#END
