
#######################################################################
#
#                 Cambridge Crystallographic Data Centre
#                                CCDC 
#
#######################################################################
#
# If this CIF has been generated from an entry in the Cambridge 
# Structural Database, then it will include bibliographic, chemical, 
# crystal, experimental, refinement or atomic coordinate data resulting 
# from the CCDC's data processing and validation procedures.
#
#######################################################################

data_NIFDAI
_chemical_formula_moiety         'C10 H18 N1 1+,N3 1-'
_chemical_name_systematic        'Amantadinium azide'
_symmetry_cell_setting           monoclinic
_symmetry_space_group_name_H-M   'P 21/n'
_symmetry_Int_Tables_number      14
_space_group_name_Hall           '-P 2yn'
loop_
_symmetry_equiv_pos_site_id
_symmetry_equiv_pos_as_xyz
1 x,y,z
2 1/2-x,1/2+y,1/2-z
3 -x,-y,-z
4 1/2+x,1/2-y,1/2+z
_cell_length_a                   8.524(5)
_cell_length_b                   13.069(7)
_cell_length_c                   10.013(6)
_cell_angle_alpha                90
_cell_angle_beta                 104.037(7)
_cell_angle_gamma                90
_cell_volume                     1082.14
_exptl_crystal_colour            colorless
_exptl_crystal_description       block
_cell_formula_units_Z            4
loop_
_atom_site_label
_atom_site_type_symbol
_atom_site_fract_x
_atom_site_fract_y
_atom_site_fract_z
N1 N 0.00540(17) 0.11217(11) 0.36198(15)
H1 H -0.0562 0.1668 0.3343
H2 H 0.0411 0.1134 0.4532
H3 H -0.0525 0.0557 0.3369
C1 C 0.1470(2) 0.11312(13) 0.29695(17)
C2 C 0.0849(2) 0.11057(15) 0.14103(19)
H4 H 0.0173 0.1698 0.1102
H5 H 0.0204 0.0495 0.1136
C3 C 0.2509(2) 0.01921(15) 0.3462(2)
H6 H 0.1876 -0.0424 0.3199
H7 H 0.2881 0.0204 0.4458
C4 C 0.2454(2) 0.21027(14) 0.3403(2)
H8 H 0.2829 0.2126 0.4398
H9 H 0.1785 0.2700 0.3104
C5 C 0.2299(3) 0.11080(18) 0.0758(2)
H10 H 0.1914 0.1089 -0.0247
C6 C 0.3348(3) 0.0170(2) 0.1248(3)
H11 H 0.4260 0.0163 0.0827
H12 H 0.2722 -0.0447 0.0972
C7 C 0.3960(3) 0.01944(17) 0.2814(3)
H13 H 0.4636 -0.0407 0.3125
C8 C 0.4945(3) 0.11661(19) 0.3237(3)
H14 H 0.5874 0.1167 0.2838
H15 H 0.5336 0.1186 0.4231
C9 C 0.3904(2) 0.21073(17) 0.2748(2)
H16 H 0.4546 0.2728 0.3022
C10 C 0.3299(3) 0.20765(18) 0.1186(2)
H17 H 0.4211 0.2084 0.0766
H18 H 0.2640 0.2675 0.0871
N2 N 0.1359(2) 0.08765(14) 0.65720(18)
N3 N 0.23433(19) 0.14675(13) 0.70858(16)
N4 N 0.3317(3) 0.20559(17) 0.7586(2)
loop_
_geom_bond_atom_site_label_1
_geom_bond_atom_site_label_2
_geom_bond_site_symmetry_1
_geom_bond_site_symmetry_2
N1 H1 1_555 1_555
H2 N1 1_555 1_555
H3 N1 1_555 1_555
C1 N1 1_555 1_555
C2 C1 1_555 1_555
H4 C2 1_555 1_555
H5 C2 1_555 1_555
C3 C1 1_555 1_555
H6 C3 1_555 1_555
H7 C3 1_555 1_555
C4 C1 1_555 1_555
H8 C4 1_555 1_555
H9 C4 1_555 1_555
C5 C2 1_555 1_555
H10 C5 1_555 1_555
C6 C5 1_555 1_555
H11 C6 1_555 1_555
H12 C6 1_555 1_555
C7 C3 1_555 1_555
H13 C7 1_555 1_555
C8 C7 1_555 1_555
H14 C8 1_555 1_555
H15 C8 1_555 1_555
C9 C4 1_555 1_555
H16 C9 1_555 1_555
C10 C5 1_555 1_555
H17 C10 1_555 1_555
H18 C10 1_555 1_555
N2 N3 1_555 1_555
N3 N4 1_555 1_555
C6 C7 1_555 1_555
C8 C9 1_555 1_555
C9 C10 1_555 1_555

#END
