
#######################################################################
#
#                 Cambridge Crystallographic Data Centre
#                                CCDC 
#
#######################################################################
#
# If this CIF has been generated from an entry in the Cambridge 
# Structural Database, then it will include bibliographic, chemical, 
# crystal, experimental, refinement or atomic coordinate data resulting 
# from the CCDC's data processing and validation procedures.
#
#######################################################################

data_NIFFUG
_chemical_formula_moiety         'C22 H13 N3 S1'
_chemical_name_systematic        
{[4-(10H-phenothiazin-10-yl)phenyl]methylidene}propanedinitrile
_symmetry_cell_setting           monoclinic
_symmetry_space_group_name_H-M   'P 21/n'
_symmetry_Int_Tables_number      14
_space_group_name_Hall           '-P 2yn'
loop_
_symmetry_equiv_pos_site_id
_symmetry_equiv_pos_as_xyz
1 x,y,z
2 1/2-x,1/2+y,1/2-z
3 -x,-y,-z
4 1/2+x,1/2-y,1/2+z
_cell_length_a                   11.117(4)
_cell_length_b                   11.603(3)
_cell_length_c                   13.774(4)
_cell_angle_alpha                90
_cell_angle_beta                 106.902(8)
_cell_angle_gamma                90
_cell_volume                     1699.97
_exptl_crystal_colour            colorless
_exptl_crystal_description       Prism
_cell_formula_units_Z            4
loop_
_atom_site_label
_atom_site_type_symbol
_atom_site_fract_x
_atom_site_fract_y
_atom_site_fract_z
S1 S 0.05048(3) 0.23033(3) 0.10106(3)
N1 N 0.28441(9) 0.30006(8) 0.05751(7)
N2 N 0.86371(12) 0.77176(9) 0.47157(9)
N3 N 0.63034(10) 0.82115(10) 0.16731(9)
C1 C 0.27811(11) 0.17911(10) 0.07476(8)
C2 C 0.37372(11) 0.10549(10) 0.06773(9)
H1 H 0.4443 0.1350 0.0502
C3 C 0.36577(12) -0.01134(11) 0.08645(9)
H2 H 0.4325 -0.0615 0.0842
C4 C 0.26048(13) -0.05505(11) 0.10852(10)
H3 H 0.2556 -0.1350 0.1216
C5 C 0.16262(13) 0.01709(11) 0.11160(10)
H4 H 0.0894 -0.0135 0.1244
C6 C 0.17202(11) 0.13494(10) 0.09576(9)
C7 C 0.05793(11) 0.32199(10) 0.00095(9)
C8 C -0.05161(11) 0.36745(11) -0.06432(10)
H5 H -0.1309 0.3491 -0.0553
C9 C -0.04471(13) 0.43963(11) -0.14264(10)
H6 H -0.1191 0.4734 -0.1856
C10 C 0.07047(13) 0.46268(11) -0.15842(9)
H7 H 0.0745 0.5108 -0.2132
C11 C 0.18009(12) 0.41580(10) -0.09469(9)
H8 H 0.2585 0.4298 -0.1071
C12 C 0.17464(11) 0.34824(9) -0.01250(8)
C13 C 0.37918(10) 0.36706(10) 0.12013(8)
C14 C 0.39118(11) 0.48491(10) 0.10059(9)
H9 H 0.3324 0.5200 0.0441
C15 C 0.48641(11) 0.54999(10) 0.16190(9)
H10 H 0.4931 0.6290 0.1462
C16 C 0.57448(10) 0.50246(10) 0.24757(8)
C17 C 0.55889(11) 0.38579(10) 0.26849(9)
H11 H 0.6149 0.3518 0.3271
C18 C 0.46511(11) 0.31930(10) 0.20684(9)
H12 H 0.4582 0.2404 0.2229
C19 C 0.67207(11) 0.56597(10) 0.31847(9)
H13 H 0.7176 0.5240 0.3768
C20 C 0.70934(10) 0.67728(10) 0.31491(8)
C21 C 0.79694(12) 0.72872(10) 0.40172(9)
C22 C 0.66251(11) 0.75527(10) 0.23171(9)
loop_
_geom_bond_atom_site_label_1
_geom_bond_atom_site_label_2
_geom_bond_site_symmetry_1
_geom_bond_site_symmetry_2
S1 C6 1_555 1_555
N1 C1 1_555 1_555
N2 C21 1_555 1_555
N3 C22 1_555 1_555
C1 C2 1_555 1_555
C2 H1 1_555 1_555
C3 C2 1_555 1_555
H2 C3 1_555 1_555
C4 C3 1_555 1_555
H3 C4 1_555 1_555
C5 C4 1_555 1_555
H4 C5 1_555 1_555
C6 C1 1_555 1_555
C7 S1 1_555 1_555
C8 C7 1_555 1_555
H5 C8 1_555 1_555
C9 C8 1_555 1_555
H6 C9 1_555 1_555
C10 C9 1_555 1_555
H7 C10 1_555 1_555
C11 C10 1_555 1_555
H8 C11 1_555 1_555
C12 N1 1_555 1_555
C13 N1 1_555 1_555
C14 C13 1_555 1_555
H9 C14 1_555 1_555
C15 C14 1_555 1_555
H10 C15 1_555 1_555
C16 C15 1_555 1_555
C17 C16 1_555 1_555
H11 C17 1_555 1_555
C18 C13 1_555 1_555
H12 C18 1_555 1_555
C19 C16 1_555 1_555
H13 C19 1_555 1_555
C20 C19 1_555 1_555
C21 C20 1_555 1_555
C22 C20 1_555 1_555
C5 C6 1_555 1_555
C7 C12 1_555 1_555
C11 C12 1_555 1_555
C17 C18 1_555 1_555

#END
