
#######################################################################
#
#                 Cambridge Crystallographic Data Centre
#                                CCDC 
#
#######################################################################
#
# If this CIF has been generated from an entry in the Cambridge 
# Structural Database, then it will include bibliographic, chemical, 
# crystal, experimental, refinement or atomic coordinate data resulting 
# from the CCDC's data processing and validation procedures.
#
#######################################################################

data_NIFFOY
_chemical_compound_source        'Angelica polymorpha'
_chemical_formula_moiety         'C15 H20 O3'
_chemical_name_systematic        
3-Hydroxy-3,6-dimethyl-2-(3-methylbut-2-enylidene)-3,3a,7,7a-tetrahydrobenzofuran-4(2H)-one
_chemical_properties_biological  'Antifeedant activity'
_symmetry_cell_setting           orthorhombic
_symmetry_space_group_name_H-M   'P 21 21 21'
_symmetry_Int_Tables_number      19
_space_group_name_Hall           'P 2ac 2ab'
loop_
_symmetry_equiv_pos_site_id
_symmetry_equiv_pos_as_xyz
1 x,y,z
2 1/2-x,-y,1/2+z
3 -x,1/2+y,1/2-z
4 1/2+x,1/2-y,-z
_cell_length_a                   6.9797(11)
_cell_length_b                   9.0174(14)
_cell_length_c                   22.840(4)
_cell_angle_alpha                90
_cell_angle_beta                 90
_cell_angle_gamma                90
_cell_volume                     1437.52
_exptl_crystal_colour            colorless
_exptl_crystal_description       plate
_cell_formula_units_Z            4
_exptl_crystal_recrystallization_method methanol
loop_
_atom_site_label
_atom_site_type_symbol
_atom_site_fract_x
_atom_site_fract_y
_atom_site_fract_z
C1 C 0.9568(4) 0.6484(4) 0.22512(13)
H1 H 1.0231 0.5594 0.2112
C2 C 1.0072(5) 0.7777(4) 0.18612(16)
H2 H 0.9919 0.8686 0.2084
H3 H 1.1412 0.7698 0.1754
C3 C 0.8915(6) 0.7897(4) 0.13172(15)
C4 C 0.7185(5) 0.7263(4) 0.12712(14)
H4 H 0.6499 0.7400 0.0926
C5 C 0.6334(5) 0.6381(3) 0.17280(13)
C6 C 0.7421(4) 0.6173(3) 0.22880(12)
H5 H 0.7243 0.5148 0.2419
C7 C 0.9765(7) 0.8828(5) 0.08408(19)
H6 H 0.8968 0.8774 0.0499
H7 H 1.1023 0.8469 0.0748
H8 H 0.9848 0.9839 0.0970
C8 C 0.6780(4) 0.7213(4) 0.27827(13)
C9 C 0.8597(4) 0.7356(3) 0.31434(13)
C10 C 0.5086(4) 0.6627(5) 0.31343(17)
H9 H 0.4841 0.7276 0.3459
H10 H 0.5377 0.5651 0.3277
H11 H 0.3973 0.6583 0.2888
C11 C 0.8786(5) 0.8000(4) 0.36580(13)
H12 H 0.7680 0.8346 0.3839
C12 C 1.0591(5) 0.8210(4) 0.39641(14)
H13 H 1.1666 0.7778 0.3794
C13 C 1.0875(6) 0.8944(5) 0.44550(16)
C14 C 1.2835(7) 0.9062(6) 0.47239(19)
H14 H 1.3730 0.8494 0.4497
H15 H 1.2800 0.8686 0.5117
H16 H 1.3228 1.0082 0.4730
C15 C 0.9326(9) 0.9748(6) 0.4781(2)
H17 H 0.8143 0.9670 0.4569
H18 H 0.9669 1.0774 0.4821
H19 H 0.9175 0.9316 0.5163
O1 O 0.4750(3) 0.5810(3) 0.16660(10)
O2 O 0.6331(4) 0.8598(3) 0.25136(10)
H20 H 0.611(7) 0.928(5) 0.2772(16)
O3 O 1.0125(3) 0.6779(3) 0.28456(9)
loop_
_geom_bond_atom_site_label_1
_geom_bond_atom_site_label_2
_geom_bond_site_symmetry_1
_geom_bond_site_symmetry_2
C1 H1 1_555 1_555
C2 C1 1_555 1_555
H2 C2 1_555 1_555
H3 C2 1_555 1_555
C3 C2 1_555 1_555
C4 C3 1_555 1_555
H4 C4 1_555 1_555
C5 C4 1_555 1_555
C6 C1 1_555 1_555
H5 C6 1_555 1_555
C7 C3 1_555 1_555
H6 C7 1_555 1_555
H7 C7 1_555 1_555
H8 C7 1_555 1_555
C8 C6 1_555 1_555
C9 C8 1_555 1_555
C10 C8 1_555 1_555
H9 C10 1_555 1_555
H10 C10 1_555 1_555
H11 C10 1_555 1_555
C11 C9 1_555 1_555
H12 C11 1_555 1_555
C12 C11 1_555 1_555
H13 C12 1_555 1_555
C13 C12 1_555 1_555
C14 C13 1_555 1_555
H14 C14 1_555 1_555
H15 C14 1_555 1_555
H16 C14 1_555 1_555
C15 C13 1_555 1_555
H17 C15 1_555 1_555
H18 C15 1_555 1_555
H19 C15 1_555 1_555
O1 C5 1_555 1_555
O2 C8 1_555 1_555
H20 O2 1_555 1_555
O3 C1 1_555 1_555
C5 C6 1_555 1_555
C9 O3 1_555 1_555

#END
