
#######################################################################
#
#                 Cambridge Crystallographic Data Centre
#                                CCDC 
#
#######################################################################
#
# If this CIF has been generated from an entry in the Cambridge 
# Structural Database, then it will include bibliographic, chemical, 
# crystal, experimental, refinement or atomic coordinate data resulting 
# from the CCDC's data processing and validation procedures.
#
#######################################################################

data_NIFHEP
_chemical_formula_moiety         'C13 H21 N1 O2 Se1'
_chemical_name_systematic        
(3aR-(3a\a,4\a,7\a,7a\a))-2-Acetyl-4,8,8-trimethylperhydro-4,7-methano-1,2-benzisoselenazol-3a(4H)-ol
_chemical_properties_biological  'glutathione peroxidase mimetic activity'
_symmetry_cell_setting           orthorhombic
_symmetry_space_group_name_H-M   'P 21 21 21'
_symmetry_Int_Tables_number      19
_space_group_name_Hall           'P 2ac 2ab'
loop_
_symmetry_equiv_pos_site_id
_symmetry_equiv_pos_as_xyz
1 x,y,z
2 1/2-x,-y,1/2+z
3 1/2+x,1/2-y,-z
4 -x,1/2+y,1/2-z
_cell_length_a                   6.8684(10)
_cell_length_b                   11.537(2)
_cell_length_c                   17.079(3)
_cell_angle_alpha                90
_cell_angle_beta                 90
_cell_angle_gamma                90
_cell_volume                     1353.35
_exptl_crystal_colour            colorless
_exptl_crystal_description       needle
_cell_formula_units_Z            4
loop_
_atom_site_label
_atom_site_type_symbol
_atom_site_fract_x
_atom_site_fract_y
_atom_site_fract_z
Se1 Se 0.52873(6) 0.22740(4) 0.81771(2)
O1 O 0.3243(4) -0.0642(3) 0.7847(2)
O2 O -0.0274(5) 0.3323(3) 0.7998(2)
N1 N 0.2616(5) 0.2398(3) 0.7999(2)
C1 C 0.1818(7) 0.1254(4) 0.7815(2)
C2 C 0.2777(5) 0.0325(3) 0.8331(2)
C3 C 0.4741(6) 0.0794(3) 0.8675(2)
C4 C 0.4428(6) 0.0750(3) 0.9565(2)
C5 C 0.2895(7) 0.1644(4) 0.9798(2)
C6 C 0.0994(6) 0.1096(3) 0.9490(3)
C7 C 0.1660(5) -0.0036(3) 0.9089(2)
C8 C 0.3324(6) -0.0413(4) 0.9657(3)
C9 C 0.0032(6) -0.0891(4) 0.8952(3)
C10 C 0.2664(9) -0.0637(5) 1.0502(3)
C11 C 0.4487(7) -0.1487(4) 0.9406(3)
C12 C 0.1519(6) 0.3358(4) 0.8091(3)
C13 C 0.2536(7) 0.4458(4) 0.8311(3)
H1 H 0.2115 -0.0878 0.7567
H2 H 0.2045 0.1081 0.7279
H3 H 0.0451 0.1255 0.7901
H4 H 0.5750 0.0267 0.8542
H5 H 0.5596 0.0796 0.9862
H6 H 0.3138 0.2371 0.9556
H7 H 0.2853 0.1746 1.0349
H8 H 0.0123 0.0937 0.9908
H9 H 0.0369 0.1595 0.9126
H10 H 0.0537 -0.1565 0.8705
H11 H -0.0928 -0.0548 0.8625
H12 H -0.0538 -0.1099 0.9439
H13 H 0.1934 0.0008 1.0685
H14 H 0.3773 -0.0744 1.0827
H15 H 0.1876 -0.1313 1.0518
H16 H 0.4927 -0.1390 0.8883
H17 H 0.3677 -0.2153 0.9437
H18 H 0.5575 -0.1582 0.9743
H19 H 0.3895 0.4317 0.8354
H20 H 0.2049 0.4728 0.8798
H21 H 0.2311 0.5026 0.7919
loop_
_geom_bond_atom_site_label_1
_geom_bond_atom_site_label_2
_geom_bond_site_symmetry_1
_geom_bond_site_symmetry_2
Se1 N1 1_555 1_555
O1 C2 1_555 1_555
O2 C12 1_555 1_555
N1 C1 1_555 1_555
C1 C2 1_555 1_555
C2 C3 1_555 1_555
C3 Se1 1_555 1_555
C4 C3 1_555 1_555
C5 C4 1_555 1_555
C6 C5 1_555 1_555
C7 C2 1_555 1_555
C8 C4 1_555 1_555
C9 C7 1_555 1_555
C10 C8 1_555 1_555
C11 C8 1_555 1_555
C12 N1 1_555 1_555
C13 C12 1_555 1_555
H1 O1 1_555 1_555
H2 C1 1_555 1_555
H3 C1 1_555 1_555
H4 C3 1_555 1_555
H5 C4 1_555 1_555
H6 C5 1_555 1_555
H7 C5 1_555 1_555
H8 C6 1_555 1_555
H9 C6 1_555 1_555
H10 C9 1_555 1_555
H11 C9 1_555 1_555
H12 C9 1_555 1_555
H13 C10 1_555 1_555
H14 C10 1_555 1_555
H15 C10 1_555 1_555
H16 C11 1_555 1_555
H17 C11 1_555 1_555
H18 C11 1_555 1_555
H19 C13 1_555 1_555
H20 C13 1_555 1_555
H21 C13 1_555 1_555
C6 C7 1_555 1_555
C7 C8 1_555 1_555

#END
