
#######################################################################
#
#                 Cambridge Crystallographic Data Centre
#                                CCDC 
#
#######################################################################
#
# If this CIF has been generated from an entry in the Cambridge 
# Structural Database, then it will include bibliographic, chemical, 
# crystal, experimental, refinement or atomic coordinate data resulting 
# from the CCDC's data processing and validation procedures.
#
#######################################################################

data_NIFJUH
_chemical_formula_moiety         'C18 H12 Cl1 N5'
_chemical_name_systematic        
3,5-bis(2-Pyridyl)-4-p-chlorophenyl-4H-1,2,4-triazole
_symmetry_cell_setting           triclinic
_symmetry_space_group_name_H-M   'P -1'
_symmetry_Int_Tables_number      2
_space_group_name_Hall           '-P 1'
loop_
_symmetry_equiv_pos_site_id
_symmetry_equiv_pos_as_xyz
1 x,y,z
2 -x,-y,-z
_cell_length_a                   8.949(2)
_cell_length_b                   11.593(2)
_cell_length_c                   8.6175(9)
_cell_angle_alpha                97.89(1)
_cell_angle_beta                 110.715(9)
_cell_angle_gamma                100.44(2)
_cell_volume                     802.441
_exptl_crystal_colour            white
_exptl_crystal_description       block
_cell_formula_units_Z            2
_exptl_crystal_recrystallization_method acetone
loop_
_atom_site_label
_atom_site_type_symbol
_atom_site_fract_x
_atom_site_fract_y
_atom_site_fract_z
Cl1 Cl 0.18026(10) 0.46836(6) 0.33178(9)
N1 N 0.2246(3) 0.9978(2) 0.4849(3)
N2 N -0.0785(2) 0.8920(1) 0.1798(2)
N3 N -0.0894(3) 1.0776(2) 0.1609(3)
N4 N -0.2399(3) 1.0025(2) 0.0537(3)
N5 N -0.3426(2) 0.6807(2) -0.0564(3)
C1 C 0.3741(4) 1.0450(3) 0.6060(3)
C2 C 0.4745(4) 1.1517(3) 0.6149(4)
C3 C 0.4187(4) 1.2149(3) 0.4916(5)
C4 C 0.2655(4) 1.1693(2) 0.3646(3)
C5 C 0.1730(3) 1.0601(2) 0.3655(3)
C6 C 0.0054(3) 1.0108(2) 0.2353(3)
C7 C -0.2318(3) 0.8920(2) 0.0673(3)
C8 C -0.3736(3) 0.7877(2) -0.0217(3)
C9 C -0.5316(3) 0.8039(2) -0.0687(3)
C10 C -0.6629(3) 0.7070(3) -0.1537(4)
C11 C -0.6331(3) 0.5966(3) -0.1898(3)
C12 C -0.4727(3) 0.5883(2) -0.1386(4)
C13 C -0.0146(2) 0.7891(2) 0.2188(3)
C14 C -0.0243(3) 0.7442(2) 0.3553(3)
C15 C 0.0374(3) 0.6458(2) 0.3915(3)
C16 C 0.1060(3) 0.5939(2) 0.2894(3)
C17 C 0.1157(3) 0.6386(2) 0.1522(3)
C18 C 0.0559(3) 0.7382(2) 0.1174(3)
H1 H 0.4136 1.0018 0.6917
H2 H 0.5803 1.1815 0.7043
H3 H 0.4856 1.2894 0.4945
H4 H 0.2238 1.2114 0.2781
H5 H -0.5487 0.8815 -0.0421
H6 H -0.7726 0.7159 -0.1871
H7 H -0.7216 0.5275 -0.2490
H8 H -0.4534 0.5113 -0.1636
H9 H -0.0730 0.7806 0.4242
H10 H 0.0325 0.6144 0.4863
H11 H 0.1629 0.6015 0.0822
H12 H 0.0634 0.7710 0.0246
loop_
_geom_bond_atom_site_label_1
_geom_bond_atom_site_label_2
_geom_bond_site_symmetry_1
_geom_bond_site_symmetry_2
Cl1 C16 1_555 1_555
N1 C1 1_555 1_555
N2 C6 1_555 1_555
N3 N4 1_555 1_555
N4 C7 1_555 1_555
N5 C8 1_555 1_555
C1 C2 1_555 1_555
C2 C3 1_555 1_555
C3 C4 1_555 1_555
C4 C5 1_555 1_555
C5 N1 1_555 1_555
C6 N3 1_555 1_555
C7 N2 1_555 1_555
C8 C7 1_555 1_555
C9 C8 1_555 1_555
C10 C9 1_555 1_555
C11 C10 1_555 1_555
C12 N5 1_555 1_555
C13 N2 1_555 1_555
C14 C13 1_555 1_555
C15 C14 1_555 1_555
C16 C15 1_555 1_555
C17 C16 1_555 1_555
C18 C13 1_555 1_555
H1 C1 1_555 1_555
H2 C2 1_555 1_555
H3 C3 1_555 1_555
H4 C4 1_555 1_555
H5 C9 1_555 1_555
H6 C10 1_555 1_555
H7 C11 1_555 1_555
H8 C12 1_555 1_555
H9 C14 1_555 1_555
H10 C15 1_555 1_555
H11 C17 1_555 1_555
H12 C18 1_555 1_555
C5 C6 1_555 1_555
C11 C12 1_555 1_555
C17 C18 1_555 1_555

#END
