
#######################################################################
#
#                 Cambridge Crystallographic Data Centre
#                                CCDC 
#
#######################################################################
#
# If this CIF has been generated from an entry in the Cambridge 
# Structural Database, then it will include bibliographic, chemical, 
# crystal, experimental, refinement or atomic coordinate data resulting 
# from the CCDC's data processing and validation procedures.
#
#######################################################################

data_NIFZAG
_chemical_name_common            
1-{[2-(chloromethyl)-4,4-dimethyl-1-oxo-5-phenyl-3,4-dihydro-2H-1lambda$5!-pyrrol-2-yl]oxy}-2,2,6,6-tetramethylpiperidine
_chemical_formula_moiety         'C22 H33 Cl1 N2 O2'
_chemical_name_systematic        
2-(chloromethyl)-4,4-dimethyl-5-phenyl-2-((2,2,6,6-tetramethylpiperidin-1-yl)oxy)-3,4-dihydro-2H-1\l^5^-pyrrol-1-ol
_symmetry_cell_setting           monoclinic
_symmetry_space_group_name_H-M   'P 21/c'
_symmetry_Int_Tables_number      14
_space_group_name_Hall           '-P 2ybc'
loop_
_symmetry_equiv_pos_site_id
_symmetry_equiv_pos_as_xyz
1 x,y,z
2 -x,1/2+y,1/2-z
3 -x,-y,-z
4 x,1/2-y,1/2+z
_cell_length_a                   12.3159(9)
_cell_length_b                   13.7842(10)
_cell_length_c                   12.9818(9)
_cell_angle_alpha                90
_cell_angle_beta                 90.700(6)
_cell_angle_gamma                90
_cell_volume                     2203.69
_exptl_crystal_colour            colorless
_exptl_crystal_description       block
_cell_formula_units_Z            4
loop_
_atom_site_label
_atom_site_type_symbol
_atom_site_fract_x
_atom_site_fract_y
_atom_site_fract_z
Cl1 Cl 0.28493(9) 0.01131(7) 0.75386(8)
O1 O 0.34073(18) 0.17793(16) 0.95183(15)
O2 O 0.19002(16) 0.27420(15) 0.82318(15)
N1 N 0.3627(2) 0.19886(18) 0.85699(19)
N2 N 0.1862(2) 0.37286(19) 0.78295(19)
C1 C 0.5731(3) 0.0919(3) 0.9103(2)
H1 H 0.5193 0.0456 0.8989
C2 C 0.6664(3) 0.0658(3) 0.9633(3)
H2 H 0.6756 0.0027 0.9874
C3 C 0.7456(4) 0.1346(4) 0.9800(3)
H3 H 0.8083 0.1180 1.0165
C4 C 0.7335(3) 0.2270(4) 0.9439(3)
H4 H 0.7883 0.2724 0.9549
C5 C 0.6389(3) 0.2534(3) 0.8903(3)
H5 H 0.6306 0.3165 0.8659
C6 C 0.5575(3) 0.1856(3) 0.8735(2)
C7 C 0.4575(2) 0.2080(2) 0.8151(2)
C8 C 0.4498(3) 0.2320(2) 0.7019(2)
C9 C 0.5025(3) 0.1512(3) 0.6394(2)
H6 H 0.5780 0.1464 0.6578
H7 H 0.4954 0.1656 0.5672
H8 H 0.4671 0.0907 0.6537
C10 C 0.5057(3) 0.3274(3) 0.6750(3)
H9 H 0.4796 0.3779 0.7193
H10 H 0.4897 0.3438 0.6046
H11 H 0.5827 0.3205 0.6843
C11 C 0.3261(2) 0.2388(2) 0.6833(2)
H12 H 0.3062 0.3045 0.6642
H13 H 0.3044 0.1957 0.6277
C12 C 0.2700(2) 0.2100(2) 0.7818(2)
C13 C 0.2066(3) 0.1152(2) 0.7833(3)
H14 H 0.1469 0.1197 0.7340
H15 H 0.1757 0.1068 0.8511
C14 C 0.0773(3) 0.3816(3) 0.7298(3)
C15 C 0.0674(3) 0.4876(3) 0.6962(3)
H16 H 0.1211 0.5003 0.6438
H17 H -0.0038 0.4974 0.6650
C16 C 0.0825(3) 0.5595(3) 0.7818(3)
H18 H 0.0259 0.5514 0.8325
H19 H 0.0783 0.6250 0.7549
C17 C 0.1932(3) 0.5421(3) 0.8314(3)
H20 H 0.2031 0.5873 0.8880
H21 H 0.2489 0.5554 0.7811
C18 C 0.2084(3) 0.4388(2) 0.8720(2)
C19 C 0.0812(3) 0.3195(3) 0.6311(3)
H22 H 0.1421 0.3389 0.5906
H23 H 0.0154 0.3285 0.5919
H24 H 0.0885 0.2523 0.6495
C20 C -0.0217(3) 0.3497(3) 0.7911(3)
H25 H -0.0049 0.2912 0.8282
H26 H -0.0817 0.3380 0.7448
H27 H -0.0408 0.3998 0.8390
C21 C 0.1394(3) 0.4202(3) 0.9685(3)
H28 H 0.0659 0.4403 0.9551
H29 H 0.1686 0.4566 1.0255
H30 H 0.1406 0.3523 0.9848
C22 C 0.3270(3) 0.4261(3) 0.9037(3)
H31 H 0.3368 0.3637 0.9353
H32 H 0.3472 0.4759 0.9518
H33 H 0.3718 0.4305 0.8438
loop_
_geom_bond_atom_site_label_1
_geom_bond_atom_site_label_2
_geom_bond_site_symmetry_1
_geom_bond_site_symmetry_2
Cl1 C13 1_555 1_555
O1 N1 1_555 1_555
O2 N2 1_555 1_555
N1 C7 1_555 1_555
N2 C14 1_555 1_555
C1 H1 1_555 1_555
C2 C1 1_555 1_555
H2 C2 1_555 1_555
C3 C2 1_555 1_555
H3 C3 1_555 1_555
C4 C3 1_555 1_555
H4 C4 1_555 1_555
C5 C4 1_555 1_555
H5 C5 1_555 1_555
C6 C1 1_555 1_555
C7 C6 1_555 1_555
C8 C7 1_555 1_555
C9 C8 1_555 1_555
H6 C9 1_555 1_555
H7 C9 1_555 1_555
H8 C9 1_555 1_555
C10 C8 1_555 1_555
H9 C10 1_555 1_555
H10 C10 1_555 1_555
H11 C10 1_555 1_555
C11 C8 1_555 1_555
H12 C11 1_555 1_555
H13 C11 1_555 1_555
C12 O2 1_555 1_555
C13 C12 1_555 1_555
H14 C13 1_555 1_555
H15 C13 1_555 1_555
C14 C15 1_555 1_555
C15 H16 1_555 1_555
H17 C15 1_555 1_555
C16 C15 1_555 1_555
H18 C16 1_555 1_555
H19 C16 1_555 1_555
C17 C16 1_555 1_555
H20 C17 1_555 1_555
H21 C17 1_555 1_555
C18 N2 1_555 1_555
C19 C14 1_555 1_555
H22 C19 1_555 1_555
H23 C19 1_555 1_555
H24 C19 1_555 1_555
C20 C14 1_555 1_555
H25 C20 1_555 1_555
H26 C20 1_555 1_555
H27 C20 1_555 1_555
C21 C18 1_555 1_555
H28 C21 1_555 1_555
H29 C21 1_555 1_555
H30 C21 1_555 1_555
C22 C18 1_555 1_555
H31 C22 1_555 1_555
H32 C22 1_555 1_555
H33 C22 1_555 1_555
N1 C12 1_555 1_555
C5 C6 1_555 1_555
C11 C12 1_555 1_555
C17 C18 1_555 1_555

#END
