
#######################################################################
#
#                 Cambridge Crystallographic Data Centre
#                                CCDC 
#
#######################################################################
#
# If this CIF has been generated from an entry in the Cambridge 
# Structural Database, then it will include bibliographic, chemical, 
# crystal, experimental, refinement or atomic coordinate data resulting 
# from the CCDC's data processing and validation procedures.
#
#######################################################################

data_NIFZEK
_chemical_formula_moiety         'C10 H7 Cl2 N1 O1'
_chemical_name_systematic        
5-(chloromethyl)-3-(4-chlorophenyl)-1,2-oxazole
_symmetry_cell_setting           monoclinic
_symmetry_space_group_name_H-M   'P 21/c'
_symmetry_Int_Tables_number      14
_space_group_name_Hall           '-P 2ybc'
loop_
_symmetry_equiv_pos_site_id
_symmetry_equiv_pos_as_xyz
1 x,y,z
2 -x,1/2+y,1/2-z
3 -x,-y,-z
4 x,1/2-y,1/2+z
_cell_length_a                   7.4260(11)
_cell_length_b                   14.1096(10)
_cell_length_c                   10.4115(12)
_cell_angle_alpha                90
_cell_angle_beta                 110.720(14)
_cell_angle_gamma                90
_cell_volume                     1020.34
_exptl_crystal_colour            colorless
_exptl_crystal_description       block
_cell_formula_units_Z            4
loop_
_atom_site_label
_atom_site_type_symbol
_atom_site_fract_x
_atom_site_fract_y
_atom_site_fract_z
Cl1 Cl 0.23031(15) 0.04647(6) 0.01016(11)
Cl2 Cl 0.11268(15) 0.78781(6) -0.07769(10)
O1 O 0.4009(3) 0.24821(14) 0.1471(2)
N1 N 0.3645(4) 0.34518(17) 0.1563(3)
C1 C 0.2586(4) 0.4782(2) 0.0032(3)
C2 C 0.3055(4) 0.3771(2) 0.0301(3)
C3 C 0.3011(4) 0.3030(2) -0.0626(3)
H1 H 0.2642 0.3072 -0.1576
C4 C 0.3603(5) 0.2266(2) 0.0142(3)
C5 C 0.1973(5) 0.5138(2) -0.1277(3)
H2 H 0.1856 0.4730 -0.2004
C6 C 0.1692(5) 0.6681(2) -0.0473(4)
C7 C 0.2747(5) 0.5404(2) 0.1091(3)
H3 H 0.3165 0.5182 0.1989
C8 C 0.1525(5) 0.6085(2) -0.1548(3)
H4 H 0.1117 0.6313 -0.2443
C9 C 0.2296(5) 0.6353(2) 0.0835(4)
H5 H 0.2407 0.6764 0.1558
C10 C 0.3976(5) 0.12732(19) -0.0153(3)
H6 H 0.5266 0.1097 0.0438
H7 H 0.3917 0.1229 -0.1097
loop_
_geom_bond_atom_site_label_1
_geom_bond_atom_site_label_2
_geom_bond_site_symmetry_1
_geom_bond_site_symmetry_2
Cl1 C10 1_555 1_555
Cl2 C6 1_555 1_555
O1 N1 1_555 1_555
N1 C2 1_555 1_555
C1 C2 1_555 1_555
C2 C3 1_555 1_555
C3 H1 1_555 1_555
C4 O1 1_555 1_555
C5 C1 1_555 1_555
H2 C5 1_555 1_555
C6 C8 1_555 1_555
C7 C1 1_555 1_555
H3 C7 1_555 1_555
C8 C5 1_555 1_555
H4 C8 1_555 1_555
C9 C6 1_555 1_555
H5 C9 1_555 1_555
C10 C4 1_555 1_555
H6 C10 1_555 1_555
H7 C10 1_555 1_555
C3 C4 1_555 1_555
C7 C9 1_555 1_555

#END
