
#######################################################################
#
#                 Cambridge Crystallographic Data Centre
#                                CCDC 
#
#######################################################################
#
# If this CIF has been generated from an entry in the Cambridge 
# Structural Database, then it will include bibliographic, chemical, 
# crystal, experimental, refinement or atomic coordinate data resulting 
# from the CCDC's data processing and validation procedures.
#
#######################################################################

data_NIGMEY
_chemical_formula_moiety         'C28 H21 N1 O3 S1'
_chemical_name_systematic        
'methyl 6-(3-methylphenyl)-7-oxo-5a,6,7,13-tetrahydroindeno[1,2-b]phenothiazine-12-carboxylate'
_symmetry_cell_setting           monoclinic
_symmetry_space_group_name_H-M   'P 21/c'
_symmetry_Int_Tables_number      14
_space_group_name_Hall           '-P 2ybc'
loop_
_symmetry_equiv_pos_site_id
_symmetry_equiv_pos_as_xyz
1 x,y,z
2 -x,1/2+y,1/2-z
3 -x,-y,-z
4 x,1/2-y,1/2+z
_cell_length_a                   15.946(5)
_cell_length_b                   14.891(4)
_cell_length_c                   9.637(2)
_cell_angle_alpha                90
_cell_angle_beta                 94.965(10)
_cell_angle_gamma                90
_cell_volume                     2279.74
_exptl_crystal_colour            red
_exptl_crystal_description       block
_cell_formula_units_Z            4
loop_
_atom_site_label
_atom_site_type_symbol
_atom_site_fract_x
_atom_site_fract_y
_atom_site_fract_z
C1 C 0.4452(4) 0.3835(4) -0.1948(6)
C2 C 0.5015(4) 0.4304(4) -0.2737(7)
H1 H 0.5080 0.4921 -0.2618
C3 C 0.5461(5) 0.3874(6) -0.3662(8)
H2 H 0.5837 0.4193 -0.4160
C4 C 0.5363(4) 0.2965(6) -0.3871(7)
H3 H 0.5668 0.2678 -0.4522
C5 C 0.4808(4) 0.2459(4) -0.3116(6)
H4 H 0.4748 0.1843 -0.3249
C6 C 0.4354(3) 0.2912(4) -0.2165(5)
C7 C 0.3009(3) 0.3680(3) -0.0582(5)
H5 H 0.2627 0.3826 -0.1403
C8 C 0.3190(3) 0.2685(3) -0.0633(5)
C9 C 0.2690(3) 0.2075(3) 0.0015(5)
C10 C 0.2922(4) 0.1122(4) 0.0016(5)
C11 C 0.2733(5) -0.0296(3) 0.1087(7)
H6 H 0.2460 -0.0552 0.0252
H7 H 0.2495 -0.0547 0.1882
H8 H 0.3324 -0.0429 0.1138
C12 C 0.2008(3) 0.2423(3) 0.0771(5)
C13 C 0.1257(3) 0.1945(4) 0.1266(5)
C14 C 0.0889(4) 0.1125(4) 0.0966(6)
H9 H 0.1131 0.0724 0.0377
C15 C 0.0141(4) 0.0897(4) 0.1558(6)
H10 H -0.0116 0.0347 0.1347
C16 C -0.0214(4) 0.1484(5) 0.2450(7)
H11 H -0.0692 0.1310 0.2872
C17 C 0.0130(4) 0.2330(4) 0.2729(6)
H12 H -0.0117 0.2732 0.3312
C18 C 0.0854(3) 0.2553(4) 0.2107(5)
C19 C 0.1298(3) 0.3449(4) 0.2065(5)
C20 C 0.1966(3) 0.3308(3) 0.1132(5)
C21 C 0.2585(3) 0.3995(3) 0.0706(5)
H13 H 0.3025 0.4063 0.1475
C22 C 0.2186(4) 0.4927(3) 0.0406(5)
C23 C 0.2542(4) 0.5699(4) 0.0969(6)
H14 H 0.3018 0.5661 0.1597
C24 C 0.2198(5) 0.6554(4) 0.0610(8)
C25 C 0.2602(6) 0.7379(4) 0.1279(10)
H15 H 0.2603 0.7852 0.0603
H16 H 0.3171 0.7243 0.1624
H17 H 0.2291 0.7567 0.2037
C26 C 0.1505(5) 0.6584(5) -0.0335(9)
H18 H 0.1284 0.7140 -0.0609
C27 C 0.1129(5) 0.5832(5) -0.0882(7)
H19 H 0.0647 0.5876 -0.1494
C28 C 0.1469(4) 0.4989(4) -0.0525(7)
H20 H 0.1217 0.4472 -0.0907
N1 N 0.3803(3) 0.2405(3) -0.1420(4)
H21 H 0.3864 0.1833 -0.1469
O1 O 0.3367(3) 0.0752(2) -0.0781(4)
O2 O 0.2614(2) 0.0668(2) 0.1070(4)
O3 O 0.1127(3) 0.4129(3) 0.2675(4)
S1 S 0.39462(10) 0.43731(9) -0.06514(17)
loop_
_geom_bond_atom_site_label_1
_geom_bond_atom_site_label_2
_geom_bond_site_symmetry_1
_geom_bond_site_symmetry_2
C1 C2 1_555 1_555
C2 H1 1_555 1_555
C3 C2 1_555 1_555
H2 C3 1_555 1_555
C4 C3 1_555 1_555
H3 C4 1_555 1_555
C5 C4 1_555 1_555
H4 C5 1_555 1_555
C6 C1 1_555 1_555
C7 H5 1_555 1_555
C8 C7 1_555 1_555
C9 C8 1_555 1_555
C10 C9 1_555 1_555
C11 H6 1_555 1_555
H7 C11 1_555 1_555
H8 C11 1_555 1_555
C12 C9 1_555 1_555
C13 C12 1_555 1_555
C14 C13 1_555 1_555
H9 C14 1_555 1_555
C15 C14 1_555 1_555
H10 C15 1_555 1_555
C16 C15 1_555 1_555
H11 C16 1_555 1_555
C17 C16 1_555 1_555
H12 C17 1_555 1_555
C18 C13 1_555 1_555
C19 C18 1_555 1_555
C20 C12 1_555 1_555
C21 C7 1_555 1_555
H13 C21 1_555 1_555
C22 C21 1_555 1_555
C23 C22 1_555 1_555
H14 C23 1_555 1_555
C24 C23 1_555 1_555
C25 C24 1_555 1_555
H15 C25 1_555 1_555
H16 C25 1_555 1_555
H17 C25 1_555 1_555
C26 C24 1_555 1_555
H18 C26 1_555 1_555
C27 C26 1_555 1_555
H19 C27 1_555 1_555
C28 C22 1_555 1_555
H20 C28 1_555 1_555
N1 C6 1_555 1_555
H21 N1 1_555 1_555
O1 C10 1_555 1_555
O2 C10 1_555 1_555
O3 C19 1_555 1_555
S1 C1 1_555 1_555
C5 C6 1_555 1_555
C7 S1 1_555 1_555
C8 N1 1_555 1_555
C11 O2 1_555 1_555
C17 C18 1_555 1_555
C19 C20 1_555 1_555
C20 C21 1_555 1_555
C27 C28 1_555 1_555

#END
