
#######################################################################
#
#                 Cambridge Crystallographic Data Centre
#                                CCDC 
#
#######################################################################
#
# If this CIF has been generated from an entry in the Cambridge 
# Structural Database, then it will include bibliographic, chemical, 
# crystal, experimental, refinement or atomic coordinate data resulting 
# from the CCDC's data processing and validation procedures.
#
#######################################################################

data_NIGTUV
_chemical_formula_moiety         'C14 H26 O2'
_chemical_name_systematic        
5-(hydroxymethyl)-3,5-dimethyl-7-(propan-2-yl)bicyclo[2.2.2]octan-2-ol
_symmetry_cell_setting           tetragonal
_symmetry_space_group_name_H-M   'P 41 21 2'
_symmetry_Int_Tables_number      92
_space_group_name_Hall           'P 4abw 2nw'
loop_
_symmetry_equiv_pos_site_id
_symmetry_equiv_pos_as_xyz
1 x,y,z
2 1/2-y,1/2+x,1/4+z
3 -x,-y,1/2+z
4 1/2+y,1/2-x,3/4+z
5 1/2+x,1/2-y,3/4-z
6 y,x,-z
7 1/2-x,1/2+y,1/4-z
8 -y,-x,1/2-z
_cell_length_a                   8.3271(8)
_cell_length_b                   8.3271(8)
_cell_length_c                   37.926(6)
_cell_angle_alpha                90
_cell_angle_beta                 90
_cell_angle_gamma                90
_cell_volume                     2629.81
_exptl_crystal_colour            colorless
_cell_formula_units_Z            8
loop_
_atom_site_label
_atom_site_type_symbol
_atom_site_fract_x
_atom_site_fract_y
_atom_site_fract_z
O1 O 0.85858(18) 0.56414(18) 0.52451(4)
H1 H 0.825(4) 0.653(4) 0.5345(7)
O2 O 0.7034(2) -0.15407(18) 0.54119(4)
H2 H 0.652(4) -0.155(4) 0.5212(8)
C1 C 0.8241(2) 0.0868(2) 0.56755(4)
C2 C 0.8924(3) 0.1542(2) 0.53272(5)
H3 H 0.9071 0.0644 0.5155
C3 C 1.0542(3) 0.2337(3) 0.53987(6)
H4 H 1.0902 0.2921 0.5186
H5 H 1.1352 0.1505 0.5455
C4 C 1.0396(2) 0.3511(3) 0.57083(6)
H6 H 1.0612 0.2779 0.5912
C5 C 0.8614(2) 0.3873(2) 0.57635(5)
H7 H 0.8484 0.4772 0.5936
C6 C 0.7792(2) 0.2351(2) 0.59044(5)
H8 H 0.6613 0.2501 0.5902
H9 H 0.8129 0.2162 0.6151
C7 C 0.7777(3) 0.2801(3) 0.51697(5)
H10 H 0.6668 0.2341 0.5179
C8 C 0.7798(2) 0.4305(2) 0.54132(5)
H11 H 0.6662 0.4619 0.5464
C9 C 0.9450(3) -0.0229(3) 0.58615(5)
H12 H 0.8946 -0.0708 0.6070
H13 H 1.0388 0.0401 0.5934
H14 H 0.9789 -0.1082 0.5700
C10 C 0.6721(3) -0.0131(2) 0.56192(6)
H15 H 0.6282 -0.0456 0.5851
H16 H 0.5903 0.0534 0.5499
C11 C 1.1589(3) 0.4673(4) 0.57584(9)
H17 H 1.1413 0.5416 0.5555
C12 C 1.1475(3) 0.5786(3) 0.60721(7)
H18 H 1.0377 0.6201 0.6091
H19 H 1.2223 0.6684 0.6041
H20 H 1.1750 0.5196 0.6287
C13 C 1.3312(3) 0.4124(4) 0.57035(8)
H21 H 1.3564 0.3266 0.5871
H22 H 1.4041 0.5031 0.5741
H23 H 1.3439 0.3721 0.5462
C14 C 0.8157(5) 0.3144(3) 0.47849(6)
H24 H 0.9242 0.3594 0.4766
H25 H 0.7378 0.3916 0.4691
H26 H 0.8098 0.2144 0.4649
loop_
_geom_bond_atom_site_label_1
_geom_bond_atom_site_label_2
_geom_bond_site_symmetry_1
_geom_bond_site_symmetry_2
O1 H1 1_555 1_555
O2 H2 1_555 1_555
C1 C2 1_555 1_555
C2 H3 1_555 1_555
C3 C2 1_555 1_555
H4 C3 1_555 1_555
H5 C3 1_555 1_555
C4 C3 1_555 1_555
H6 C4 1_555 1_555
C5 C4 1_555 1_555
H7 C5 1_555 1_555
C6 C1 1_555 1_555
H8 C6 1_555 1_555
H9 C6 1_555 1_555
C7 C2 1_555 1_555
H10 C7 1_555 1_555
C8 O1 1_555 1_555
H11 C8 1_555 1_555
C9 C1 1_555 1_555
H12 C9 1_555 1_555
H13 C9 1_555 1_555
H14 C9 1_555 1_555
C10 O2 1_555 1_555
H15 C10 1_555 1_555
H16 C10 1_555 1_555
C11 C4 1_555 1_555
H17 C11 1_555 1_555
C12 C11 1_555 1_555
H18 C12 1_555 1_555
H19 C12 1_555 1_555
H20 C12 1_555 1_555
C13 C11 1_555 1_555
H21 C13 1_555 1_555
H22 C13 1_555 1_555
H23 C13 1_555 1_555
C14 C7 1_555 1_555
H24 C14 1_555 1_555
H25 C14 1_555 1_555
H26 C14 1_555 1_555
C1 C10 1_555 1_555
C5 C6 1_555 1_555
C5 C8 1_555 1_555
C7 C8 1_555 1_555

#END
