
#######################################################################
#
#                 Cambridge Crystallographic Data Centre
#                                CCDC 
#
#######################################################################
#
# If this CIF has been generated from an entry in the Cambridge 
# Structural Database, then it will include bibliographic, chemical, 
# crystal, experimental, refinement or atomic coordinate data resulting 
# from the CCDC's data processing and validation procedures.
#
#######################################################################

data_NIGVEG
_chemical_formula_moiety         'C22 H17 N3 O1'
_chemical_name_systematic        
2,3-Dihydro-1H-benzo[g]pyrimido[1,2-a][1,8]naphthyridin-5-yl(phenyl)methanone
_symmetry_cell_setting           monoclinic
_symmetry_space_group_name_H-M   'P 21/n'
_symmetry_Int_Tables_number      14
_space_group_name_Hall           '-P 2yn'
loop_
_symmetry_equiv_pos_site_id
_symmetry_equiv_pos_as_xyz
1 x,y,z
2 1/2-x,1/2+y,1/2-z
3 -x,-y,-z
4 1/2+x,1/2-y,1/2+z
_cell_length_a                   12.3869(16)
_cell_length_b                   5.4576(7)
_cell_length_c                   24.843(3)
_cell_angle_alpha                90
_cell_angle_beta                 101.217(2)
_cell_angle_gamma                90
_cell_volume                     1647.37
_exptl_crystal_colour            yellow
_exptl_crystal_description       block
_cell_formula_units_Z            4
loop_
_atom_site_label
_atom_site_type_symbol
_atom_site_fract_x
_atom_site_fract_y
_atom_site_fract_z
N1 N 0.68996(12) 0.5086(3) 0.05552(7)
N2 N 0.75147(12) 0.2080(3) 0.11982(7)
N3 N 0.81375(13) -0.1238(3) 0.18091(8)
O1 O 1.08497(12) -0.1916(3) 0.13917(6)
C1 C 0.83451(17) 0.9394(4) -0.02196(8)
H1 H 0.9051 0.9771 -0.0270
C2 C 0.74754(18) 1.0705(4) -0.04904(9)
H2 H 0.7587 1.1985 -0.0721
C3 C 0.64096(18) 1.0122(4) -0.04213(9)
H3 H 0.5817 1.1033 -0.0605
C4 C 0.62274(17) 0.8242(4) -0.00896(9)
H4 H 0.5512 0.7851 -0.0058
C5 C 0.71145(15) 0.6889(4) 0.02058(8)
C6 C 0.81936(16) 0.7468(4) 0.01372(8)
C7 C 0.90614(16) 0.6075(4) 0.04406(8)
H5 H 0.9781 0.6389 0.0404
C8 C 0.88576(15) 0.4264(4) 0.07892(8)
C9 C 0.77402(15) 0.3871(4) 0.08349(8)
C10 C 0.63610(15) 0.1666(4) 0.12400(9)
H6 H 0.6019 0.0553 0.0953
H7 H 0.5962 0.3205 0.1191
C11 C 0.63022(17) 0.0604(4) 0.17882(9)
H8 H 0.5547 0.0176 0.1799
H9 H 0.6549 0.1809 0.2073
C12 C 0.70128(17) -0.1632(5) 0.18909(11)
H10 H 0.7039 -0.2179 0.2265
H11 H 0.6679 -0.2929 0.1647
C13 C 0.83183(15) 0.0518(4) 0.14972(8)
C14 C 0.94564(15) 0.0938(4) 0.14269(8)
C15 C 0.96944(15) 0.2720(4) 0.10954(9)
H12 H 1.0423 0.2958 0.1064
C16 C 1.03546(15) -0.0788(4) 0.16943(9)
C17 C 1.07053(14) -0.0955(3) 0.22979(8)
C18 C 1.04182(16) 0.0807(4) 0.26432(9)
H13 H 0.9943 0.2070 0.2502
C19 C 1.08389(19) 0.0685(4) 0.31995(9)
H14 H 1.0652 0.1885 0.3431
C20 C 1.15296(18) -0.1188(4) 0.34145(10)
H15 H 1.1810 -0.1256 0.3790
C21 C 1.18056(17) -0.2970(4) 0.30701(10)
H16 H 1.2263 -0.4259 0.3214
C22 C 1.14066(16) -0.2842(4) 0.25155(9)
H17 H 1.1607 -0.4026 0.2284
loop_
_geom_bond_atom_site_label_1
_geom_bond_atom_site_label_2
_geom_bond_site_symmetry_1
_geom_bond_site_symmetry_2
N1 C5 1_555 1_555
N2 C9 1_555 1_555
N3 C12 1_555 1_555
O1 C16 1_555 1_555
C1 H1 1_555 1_555
C2 C1 1_555 1_555
H2 C2 1_555 1_555
C3 C2 1_555 1_555
H3 C3 1_555 1_555
C4 C3 1_555 1_555
H4 C4 1_555 1_555
C5 C4 1_555 1_555
C6 C1 1_555 1_555
C7 C6 1_555 1_555
H5 C7 1_555 1_555
C8 C7 1_555 1_555
C9 N1 1_555 1_555
C10 N2 1_555 1_555
H6 C10 1_555 1_555
H7 C10 1_555 1_555
C11 C10 1_555 1_555
H8 C11 1_555 1_555
H9 C11 1_555 1_555
C12 C11 1_555 1_555
H10 C12 1_555 1_555
H11 C12 1_555 1_555
C13 N2 1_555 1_555
C14 C13 1_555 1_555
C15 C8 1_555 1_555
H12 C15 1_555 1_555
C16 C14 1_555 1_555
C17 C16 1_555 1_555
C18 C17 1_555 1_555
H13 C18 1_555 1_555
C19 C18 1_555 1_555
H14 C19 1_555 1_555
C20 C19 1_555 1_555
H15 C20 1_555 1_555
C21 C20 1_555 1_555
H16 C21 1_555 1_555
C22 C17 1_555 1_555
H17 C22 1_555 1_555
N3 C13 1_555 1_555
C5 C6 1_555 1_555
C8 C9 1_555 1_555
C14 C15 1_555 1_555
C21 C22 1_555 1_555

#END
