
#######################################################################
#
#                 Cambridge Crystallographic Data Centre
#                                CCDC 
#
#######################################################################
#
# If this CIF has been generated from an entry in the Cambridge 
# Structural Database, then it will include bibliographic, chemical, 
# crystal, experimental, refinement or atomic coordinate data resulting 
# from the CCDC's data processing and validation procedures.
#
#######################################################################

data_NIGVEE
_chemical_formula_moiety         'C30 H30 N6 2+,2(Cl1 O4 1-),2(C3 H6 O1)'
_chemical_name_systematic        
"N,N,N',N'-(bis(2-Pyridinium-methyl)-bis(2-pyridylmethyl))benzene-1,4-diamine diperchlorate acetone solvate"
_symmetry_cell_setting           triclinic
_symmetry_space_group_name_H-M   'P -1'
_symmetry_Int_Tables_number      2
_space_group_name_Hall           '-P 1'
loop_
_symmetry_equiv_pos_site_id
_symmetry_equiv_pos_as_xyz
1 x,y,z
2 -x,-y,-z
_cell_length_a                   8.0672(4)
_cell_length_b                   11.1468(3)
_cell_length_c                   11.4683(3)
_cell_angle_alpha                77.1468(3)
_cell_angle_beta                 70.772(2)
_cell_angle_gamma                83.086(2)
_cell_volume                     948.097
_exptl_crystal_colour            yellow
_cell_formula_units_Z            1
_exptl_crystal_recrystallization_method 'acetone ethyl acetate'
loop_
_atom_site_label
_atom_site_type_symbol
_atom_site_fract_x
_atom_site_fract_y
_atom_site_fract_z
N1 N 0.0639(3) 0.5861(2) 0.1945(3)
C1 C 0.1100(4) 0.7125(3) 0.1748(3)
C2 C 0.2985(4) 0.7363(3) 0.0943(3)
C3 C 0.3452(5) 0.8472(3) 0.0141(4)
C4 C 0.5204(6) 0.8654(3) -0.0519(4)
C5 C 0.6454(5) 0.7731(4) -0.0379(4)
C6 C 0.5914(5) 0.6641(4) 0.0411(4)
N2 N 0.4208(3) 0.6462(2) 0.1068(3)
C7 C 0.0331(4) 0.5093(3) 0.3179(3)
C8 C 0.1669(4) 0.4028(3) 0.3247(3)
C9 C 0.1241(5) 0.2885(4) 0.3966(3)
C10 C 0.2559(6) 0.1973(4) 0.4012(4)
C11 C 0.4275(6) 0.2221(4) 0.3346(4)
C12 C 0.4636(5) 0.3367(4) 0.2642(4)
N3 N 0.3356(3) 0.4249(3) 0.2586(3)
C13 C 0.0320(4) 0.5435(3) 0.0988(3)
C14 C -0.0306(4) 0.4269(3) 0.1172(3)
C15 C 0.0624(4) 0.6149(3) -0.0226(3)
H1 H 0.0974(4) 0.7377(3) 0.2398(3)
H2 H 0.0419(4) 0.7647(3) 0.1398(3)
H3 H 0.2588(5) 0.9051(3) 0.0200(4)
H4 H 0.5538(6) 0.9419(3) -0.1199(4)
H5 H 0.7595(5) 0.7847(4) -0.0801(4)
H6 H 0.6746(5) 0.5944(4) 0.0599(4)
H7 H 0.3985(3) 0.5804(2) 0.1397(3)
H8 H -0.0766(4) 0.4773(3) 0.3403(3)
H9 H 0.0471(4) 0.5644(3) 0.3603(3)
H10 H 0.0056(5) 0.2785(4) 0.4402(3)
H11 H 0.2203(6) 0.1187(4) 0.4404(4)
H12 H 0.5159(6) 0.1602(4) 0.3202(4)
H13 H 0.5762(5) 0.3671(4) 0.197(4)
H15 H -0.0502(4) 0.3739(3) 0.2004(3)
H16 H 0.1040(4) 0.6986(3) -0.0402(3)
C15A C -0.0624(4) 0.3851(3) 0.0226(3)
C13A C -0.0320(4) 0.4565(3) -0.0988(3)
N1A N -0.0639(3) 0.4139(2) -0.1945(3)
C1A C -0.1100(4) 0.2875(3) -0.1748(3)
C2A C -0.2985(4) 0.2637(3) -0.0943(3)
C3A C -0.3452(5) 0.1528(3) -0.0141(4)
C4A C -0.5204(6) 0.1346(3) 0.0519(4)
C5A C -0.6454(5) 0.2269(4) 0.0379(4)
C6A C -0.5914(5) 0.3359(4) -0.0411(4)
N2A N -0.4208(3) 0.3538(2) -0.1068(3)
H7A H -0.3985(3) 0.4196(2) -0.1397(3)
H6A H -0.6746(5) 0.4056(4) -0.0599(4)
H5A H -0.7595(5) 0.2153(4) 0.0801(4)
H4A H -0.5538(6) 0.0581(3) 0.1199(4)
H3A H -0.2588(5) 0.0949(3) -0.0200(4)
H1A H -0.0974(4) 0.2623(3) -0.2398(3)
H2A H -0.0419(4) 0.2353(3) -0.1398(3)
C7A C -0.0331(4) 0.4907(3) -0.3179(3)
C8A C -0.1669(4) 0.5972(3) -0.3247(3)
C9A C -0.1241(5) 0.7115(4) -0.3966(3)
C10A C -0.2559(6) 0.8027(4) -0.4012(4)
C11A C -0.4275(6) 0.7779(4) -0.3346(4)
C12A C -0.4636(5) 0.6633(4) -0.2642(4)
N3A N -0.3356(3) 0.5751(3) -0.2586(3)
H13A H -0.5762(5) 0.6329(4) -0.197(4)
H12A H -0.5159(6) 0.8398(4) -0.3202(4)
H11A H -0.2203(6) 0.8813(4) -0.4404(4)
H10A H -0.0056(5) 0.7215(4) -0.4402(3)
H8A H 0.0766(4) 0.5227(3) -0.3403(3)
H9A H -0.0471(4) 0.4356(3) -0.3603(3)
C14A C 0.0306(4) 0.5731(3) -0.1172(3)
H15A H 0.0502(4) 0.6261(3) -0.2004(3)
H16A H -0.1040(4) 0.3014(3) 0.0402(3)
Cl1 Cl -0.0900(1) 0.03749(8) 0.2591(1)
O1 O -0.2258(8) -0.0341(5) 0.2917(8)
O2 O -0.1407(7) 0.1549(4) 0.2816(6)
O3 O -0.011(1) 0.0550(7) 0.1262(5)
O4 O 0.041(1) -0.0173(7) 0.2998(9)
C16 C 0.6066(6) 0.6582(6) 0.3648(6)
C17 C 0.4206(5) 0.7076(4) 0.3906(4)
O5 O 0.3017(4) 0.6384(3) 0.4267(3)
C18 C 0.3869(8) 0.8415(5) 0.3718(7)
H17 H 0.658(2) 0.685(3) 0.418(3)
H18 H 0.671(1) 0.688(3) 0.278(1)
H19 H 0.6098(7) 0.5699(6) 0.381(4)
H20 H 0.469(3) 0.8791(6) 0.294(2)
H21 H 0.400(5) 0.8716(7) 0.440(2)
H22 H 0.269(2) 0.8614(5) 0.368(4)
H14? H 0.3647(3) 0.4979(3) 0.2199(3)
loop_
_geom_bond_atom_site_label_1
_geom_bond_atom_site_label_2
_geom_bond_site_symmetry_1
_geom_bond_site_symmetry_2
N1 C1 1_555 1_555
C1 C2 1_555 1_555
C2 C3 1_555 1_555
C3 C4 1_555 1_555
C4 C5 1_555 1_555
C5 C6 1_555 1_555
C6 N2 1_555 1_555
N2 C2 1_555 1_555
C7 N1 1_555 1_555
C8 C7 1_555 1_555
C9 C8 1_555 1_555
C10 C9 1_555 1_555
C11 C10 1_555 1_555
C12 C11 1_555 1_555
N3 C8 1_555 1_555
C13 N1 1_555 1_555
C14 C13 1_555 1_555
C15 C13 1_555 1_555
Cl1 O1 1_555 1_555
O2 Cl1 1_555 1_555
O3 Cl1 1_555 1_555
O4 Cl1 1_555 1_555
C16 C17 1_555 1_555
C17 O5 1_555 1_555
C18 C17 1_555 1_555
H1 C1 1_555 1_555
H2 C1 1_555 1_555
H3 C3 1_555 1_555
H4 C4 1_555 1_555
H5 C5 1_555 1_555
H6 C6 1_555 1_555
H7 N2 1_555 1_555
H8 C7 1_555 1_555
H9 C7 1_555 1_555
H10 C9 1_555 1_555
H11 C10 1_555 1_555
H12 C11 1_555 1_555
H13 C12 1_555 1_555
H15 C14 1_555 1_555
H16 C15 1_555 1_555
H17 C16 1_555 1_555
H18 C16 1_555 1_555
H19 C16 1_555 1_555
H20 C18 1_555 1_555
H21 C18 1_555 1_555
H22 C18 1_555 1_555
C15A C14 1_555 1_555
C13A C15A 1_555 1_555
N1A C13A 1_555 1_555
C1A N1A 1_555 1_555
C2A C1A 1_555 1_555
C3A C2A 1_555 1_555
C4A C3A 1_555 1_555
C5A C4A 1_555 1_555
C6A C5A 1_555 1_555
N2A C2A 1_555 1_555
H7A N2A 1_555 1_555
H6A C6A 1_555 1_555
H5A C5A 1_555 1_555
H4A C4A 1_555 1_555
H3A C3A 1_555 1_555
H1A C1A 1_555 1_555
H2A C1A 1_555 1_555
C7A N1A 1_555 1_555
C8A C7A 1_555 1_555
C9A C8A 1_555 1_555
C10A C9A 1_555 1_555
C11A C10A 1_555 1_555
C12A C11A 1_555 1_555
N3A C8A 1_555 1_555
H13A C12A 1_555 1_555
H12A C11A 1_555 1_555
H11A C10A 1_555 1_555
H10A C9A 1_555 1_555
H8A C7A 1_555 1_555
H9A C7A 1_555 1_555
C14A C15 1_555 1_555
H15A C14A 1_555 1_555
H16A C15A 1_555 1_555
C12 N3 1_555 1_555
C13A C14A 1_555 1_555
C6A N2A 1_555 1_555
C12A N3A 1_555 1_555

#END
