
#######################################################################
#
#                 Cambridge Crystallographic Data Centre
#                                CCDC 
#
#######################################################################
#
# If this CIF has been generated from an entry in the Cambridge 
# Structural Database, then it will include bibliographic, chemical, 
# crystal, experimental, refinement or atomic coordinate data resulting 
# from the CCDC's data processing and validation procedures.
#
#######################################################################

data_NIGWUY
_chemical_formula_moiety         'C31 H34 F4 I1 N3 O5'
_chemical_name_systematic        
N-{2,4-bis(2-methylpropoxy)-5-[(2,3,4,6-tetrafluoro-5-iodobenzene-1-carbonyl)amino]phenyl}-4-(2-methylpropoxy)pyridine-3-carboxamide
_symmetry_cell_setting           monoclinic
_symmetry_space_group_name_H-M   'P 21/n'
_symmetry_Int_Tables_number      14
_space_group_name_Hall           '-P 2yn'
loop_
_symmetry_equiv_pos_site_id
_symmetry_equiv_pos_as_xyz
1 x,y,z
2 1/2-x,1/2+y,1/2-z
3 -x,-y,-z
4 1/2+x,1/2-y,1/2+z
_cell_length_a                   11.730(2)
_cell_length_b                   17.145(4)
_cell_length_c                   16.837(3)
_cell_angle_alpha                90
_cell_angle_beta                 103.410(3)
_cell_angle_gamma                90
_cell_volume                     3293.78
_exptl_crystal_colour            colorless
_exptl_crystal_description       block
_cell_formula_units_Z            4
loop_
_atom_site_label
_atom_site_type_symbol
_atom_site_fract_x
_atom_site_fract_y
_atom_site_fract_z
I1 I 0.34034(3) 0.83333(2) 1.16207(2)
F1 F 0.4902(2) 0.71694(18) 1.07769(16)
F2 F 0.1176(2) 0.83397(17) 1.0113(2)
F3 F 0.0714(2) 0.76354(18) 0.86522(18)
F4 F 0.2300(2) 0.66914(16) 0.82334(16)
N1 N 0.4288(3) 0.5713(2) 0.8994(2)
N2 N 0.8045(3) 0.4313(2) 0.9368(2)
N3 N 1.1193(3) 0.3990(3) 1.1772(2)
O1 O 0.5572(3) 0.6716(2) 0.9282(3)
O2 O 0.7941(2) 0.47026(19) 1.06402(17)
O3 O 1.0135(3) 0.3760(2) 0.9248(2)
O4 O 0.7340(3) 0.3687(2) 0.79220(18)
O5 O 0.3520(3) 0.4962(2) 0.7565(2)
C1 C 0.5043(3) 0.5166(3) 0.8721(2)
C2 C 0.6152(3) 0.5006(3) 0.9199(2)
H1 H 0.6400 0.5242 0.9714
C3 C 0.6895(3) 0.4500(2) 0.8920(2)
C4 C 0.6519(3) 0.4156(3) 0.8156(3)
C5 C 0.5399(4) 0.4289(3) 0.7686(3)
H2 H 0.5145 0.4045 0.7176
C6 C 0.4649(4) 0.4791(3) 0.7981(3)
C7 C 0.4620(4) 0.6429(3) 0.9247(3)
C8 C 0.3657(4) 0.6909(3) 0.9486(3)
C9 C 0.3857(3) 0.7284(3) 1.0250(3)
C10 C 0.3054(3) 0.7762(3) 1.0485(3)
C11 C 0.2000(4) 0.7868(3) 0.9933(3)
C12 C 0.1746(3) 0.7515(3) 0.9182(3)
C13 C 0.2582(4) 0.7032(3) 0.8974(3)
C14 C 0.8492(3) 0.4401(2) 1.0171(2)
C15 C 1.0121(4) 0.4187(3) 1.1350(3)
H3 H 0.9597 0.4381 1.1648
C16 C 0.9716(3) 0.4130(2) 1.0509(3)
C17 C 1.0518(3) 0.3832(3) 1.0067(3)
C18 C 1.1642(4) 0.3642(3) 1.0501(3)
H4 H 1.2199 0.3458 1.0225
C19 C 1.1932(4) 0.3723(3) 1.1326(3)
H5 H 1.2696 0.3586 1.1605
C20 C 1.0965(5) 0.3614(4) 0.8742(3)
H6 H 1.1704 0.3879 0.8985
H7 H 1.0657 0.3840 0.8201
C21 C 1.1206(6) 0.2776(4) 0.8648(4)
H8 H 1.1509 0.2541 0.9193
C22 C 1.2170(8) 0.2748(7) 0.8159(6)
H9 H 1.1853 0.2931 0.7607
H10 H 1.2444 0.2215 0.8142
H11 H 1.2820 0.3079 0.8422
C23 C 1.0119(8) 0.2326(5) 0.8200(5)
H12 H 0.9503 0.2382 0.8492
H13 H 1.0314 0.1778 0.8171
H14 H 0.9853 0.2532 0.7651
C24 C 0.7118(4) 0.3401(3) 0.7098(3)
H15 H 0.6311 0.3206 0.6942
H16 H 0.7644 0.2961 0.7077
C25 C 0.7288(4) 0.4011(3) 0.6490(3)
H17 H 0.6736 0.4446 0.6501
C26 C 0.8536(5) 0.4334(4) 0.6696(4)
H18 H 0.8672 0.4615 0.7209
H19 H 0.8639 0.4684 0.6265
H20 H 0.9090 0.3906 0.6744
C27 C 0.6987(7) 0.3640(6) 0.5638(4)
H21 H 0.7514 0.3207 0.5622
H22 H 0.7070 0.4026 0.5235
H23 H 0.6185 0.3452 0.5520
C28 C 0.3049(4) 0.4554(4) 0.6823(3)
H24 H 0.3130 0.3990 0.6915
H25 H 0.3474 0.4699 0.6408
C29 C 0.1762(4) 0.4768(4) 0.6534(3)
H26 H 0.1361 0.4617 0.6967
C30 C 0.1232(5) 0.4300(5) 0.5780(4)
H27 H 0.0411 0.4435 0.5591
H28 H 0.1303 0.3748 0.5909
H29 H 0.1642 0.4416 0.5355
C31 C 0.1595(6) 0.5620(5) 0.6393(4)
H30 H 0.1980 0.5783 0.5969
H31 H 0.1931 0.5899 0.6894
H32 H 0.0764 0.5735 0.6223
H33 H 0.3599(19) 0.559(2) 0.903(2)
H34 H 0.842(4) 0.412(3) 0.904(2)
loop_
_geom_bond_atom_site_label_1
_geom_bond_atom_site_label_2
_geom_bond_site_symmetry_1
_geom_bond_site_symmetry_2
I1 C10 1_555 1_555
F1 C9 1_555 1_555
F2 C11 1_555 1_555
F3 C12 1_555 1_555
F4 C13 1_555 1_555
N1 C1 1_555 1_555
N2 C3 1_555 1_555
N3 C15 1_555 1_555
O1 C7 1_555 1_555
O2 C14 1_555 1_555
O3 C17 1_555 1_555
O4 C4 1_555 1_555
O5 C6 1_555 1_555
C1 C2 1_555 1_555
C2 H1 1_555 1_555
C3 C2 1_555 1_555
C4 C3 1_555 1_555
C5 C4 1_555 1_555
H2 C5 1_555 1_555
C6 C1 1_555 1_555
C7 N1 1_555 1_555
C8 C7 1_555 1_555
C9 C8 1_555 1_555
C10 C9 1_555 1_555
C11 C10 1_555 1_555
C12 C11 1_555 1_555
C13 C8 1_555 1_555
C14 N2 1_555 1_555
C15 H3 1_555 1_555
C16 C14 1_555 1_555
C17 C16 1_555 1_555
C18 C17 1_555 1_555
H4 C18 1_555 1_555
C19 N3 1_555 1_555
H5 C19 1_555 1_555
C20 O3 1_555 1_555
H6 C20 1_555 1_555
H7 C20 1_555 1_555
C21 C20 1_555 1_555
H8 C21 1_555 1_555
C22 C21 1_555 1_555
H9 C22 1_555 1_555
H10 C22 1_555 1_555
H11 C22 1_555 1_555
C23 C21 1_555 1_555
H12 C23 1_555 1_555
H13 C23 1_555 1_555
H14 C23 1_555 1_555
C24 O4 1_555 1_555
H15 C24 1_555 1_555
H16 C24 1_555 1_555
C25 C24 1_555 1_555
H17 C25 1_555 1_555
C26 C25 1_555 1_555
H18 C26 1_555 1_555
H19 C26 1_555 1_555
H20 C26 1_555 1_555
C27 C25 1_555 1_555
H21 C27 1_555 1_555
H22 C27 1_555 1_555
H23 C27 1_555 1_555
C28 O5 1_555 1_555
H24 C28 1_555 1_555
H25 C28 1_555 1_555
C29 C28 1_555 1_555
H26 C29 1_555 1_555
C30 C29 1_555 1_555
H27 C30 1_555 1_555
H28 C30 1_555 1_555
H29 C30 1_555 1_555
C31 C29 1_555 1_555
H30 C31 1_555 1_555
H31 C31 1_555 1_555
H32 C31 1_555 1_555
H33 N1 1_555 1_555
H34 N2 1_555 1_555
C5 C6 1_555 1_555
C12 C13 1_555 1_555
C15 C16 1_555 1_555
C18 C19 1_555 1_555

#END
