
#######################################################################
#
#                 Cambridge Crystallographic Data Centre
#                                CCDC 
#
#######################################################################
#
# If this CIF has been generated from an entry in the Cambridge 
# Structural Database, then it will include bibliographic, chemical, 
# crystal, experimental, refinement or atomic coordinate data resulting 
# from the CCDC's data processing and validation procedures.
#
#######################################################################

data_NIGWUW
_chemical_formula_moiety         'C26 H22 N4 O4'
_chemical_name_systematic        
1-methyl-1,4,5,5a,6,7,8,8a-octahydro-6,8-dioxo-4-(2,5-dioxo-1-phenyl-3-pyrrolyl)-7-phenylpyrrolo(3,4-g)benzimidazole
_symmetry_cell_setting           monoclinic
_symmetry_space_group_name_H-M   'P 21/c'
_symmetry_Int_Tables_number      14
_space_group_name_Hall           '-P 2ybc'
loop_
_symmetry_equiv_pos_site_id
_symmetry_equiv_pos_as_xyz
1 x,y,z
2 -x,1/2+y,1/2-z
3 -x,-y,-z
4 x,1/2-y,1/2+z
_cell_length_a                   12.5202(18)
_cell_length_b                   16.7045(19)
_cell_length_c                   11.4429(17)
_cell_angle_alpha                90
_cell_angle_beta                 113.381(10)
_cell_angle_gamma                90
_cell_volume                     2196.69
_exptl_crystal_colour            colorless
_exptl_crystal_description       rods
_cell_formula_units_Z            4
loop_
_atom_site_label
_atom_site_type_symbol
_atom_site_fract_x
_atom_site_fract_y
_atom_site_fract_z
O1 O 0.54879(14) -0.34368(9) 0.39092(19)
O2 O 0.89937(13) -0.38543(9) 0.36932(15)
O3 O 0.74209(16) 0.11872(9) 0.39040(14)
O4 O 0.61469(13) -0.06195(8) 0.60020(14)
N1 N 0.93353(14) -0.18606(10) 0.39585(17)
N2 N 0.85224(15) -0.10173(10) 0.48702(17)
N3 N 0.73023(13) -0.37873(9) 0.40249(16)
N4 N 0.67996(13) 0.04183(8) 0.51572(14)
C1 C 0.94769(19) -0.12295(14) 0.4733(2)
H1 H 1.0184 -0.0967 0.5135
C2 C 0.76979(16) -0.15515(11) 0.41175(18)
C3 C 0.64310(16) -0.15278(11) 0.38505(18)
H2 H 0.6306 -0.1822 0.4527
C4 C 0.57822(17) -0.19619(11) 0.25920(19)
H3 H 0.5801 -0.1636 0.1899
H4 H 0.4975 -0.2030 0.2467
C5 C 0.63119(17) -0.27825(12) 0.2555(2)
H5 H 0.5865 -0.3021 0.1720
C6 C 0.76002(16) -0.27779(11) 0.27536(19)
H6 H 0.7691 -0.2778 0.1942
C7 C 0.81757(16) -0.20735(11) 0.35497(18)
C8 C 0.80779(18) -0.35341(12) 0.35045(19)
C9 C 0.62689(18) -0.33527(12) 0.3556(2)
C10 C 0.75462(17) -0.44422(11) 0.4905(2)
C11 C 0.8573(2) -0.44608(14) 0.5963(2)
H7 H 0.9089 -0.4034 0.6139
C12 C 0.8835(2) -0.51108(16) 0.6761(2)
H8 H 0.9538 -0.5127 0.7468
C13 C 0.8073(2) -0.57348(15) 0.6530(2)
H9 H 0.8259 -0.6175 0.7072
C14 C 0.7039(2) -0.57072(14) 0.5498(3)
H10 H 0.6508 -0.6123 0.5350
C15 C 0.6776(2) -0.50652(13) 0.4673(2)
H11 H 0.6077 -0.5055 0.3961
C16 C 1.01870(19) -0.21947(15) 0.3525(2)
H12 H 1.0906 -0.1906 0.3909
H13 H 0.9903 -0.2150 0.2616
H14 H 1.0315 -0.2748 0.3766
C17 C 0.59689(16) -0.06741(11) 0.38090(18)
H15 H 0.5117 -0.0696 0.3405
C18 C 0.63061(16) -0.03232(11) 0.51205(19)
C19 C 0.69316(17) 0.05940(11) 0.40363(18)
C20 C 0.63792(17) -0.00536(11) 0.31001(18)
H16 H 0.6936 -0.0288 0.2804
H17 H 0.5726 0.0153 0.2372
C21 C 0.71860(16) 0.09401(10) 0.62350(18)
C22 C 0.67162(17) 0.16997(11) 0.6107(2)
H18 H 0.6159 0.1866 0.5328
C23 C 0.7074(2) 0.22083(13) 0.7131(2)
H19 H 0.6761 0.2721 0.7048
C24 C 0.7889(2) 0.19609(14) 0.8272(2)
H20 H 0.8129 0.2307 0.8966
C25 C 0.8359(2) 0.12060(15) 0.8408(2)
H21 H 0.8911 0.1043 0.9192
C26 C 0.80118(18) 0.06852(12) 0.73768(19)
H22 H 0.8332 0.0175 0.7458
loop_
_geom_bond_atom_site_label_1
_geom_bond_atom_site_label_2
_geom_bond_site_symmetry_1
_geom_bond_site_symmetry_2
O1 C9 1_555 1_555
O2 C8 1_555 1_555
O3 C19 1_555 1_555
O4 C18 1_555 1_555
N1 C1 1_555 1_555
N2 C1 1_555 1_555
N3 C8 1_555 1_555
N4 C18 1_555 1_555
C1 H1 1_555 1_555
C2 N2 1_555 1_555
C3 C2 1_555 1_555
H2 C3 1_555 1_555
C4 C3 1_555 1_555
H3 C4 1_555 1_555
H4 C4 1_555 1_555
C5 C4 1_555 1_555
H5 C5 1_555 1_555
C6 C5 1_555 1_555
H6 C6 1_555 1_555
C7 N1 1_555 1_555
C8 C6 1_555 1_555
C9 N3 1_555 1_555
C10 N3 1_555 1_555
C11 C10 1_555 1_555
H7 C11 1_555 1_555
C12 C11 1_555 1_555
H8 C12 1_555 1_555
C13 C12 1_555 1_555
H9 C13 1_555 1_555
C14 C13 1_555 1_555
H10 C14 1_555 1_555
C15 C10 1_555 1_555
H11 C15 1_555 1_555
C16 N1 1_555 1_555
H12 C16 1_555 1_555
H13 C16 1_555 1_555
H14 C16 1_555 1_555
C17 C3 1_555 1_555
H15 C17 1_555 1_555
C18 C17 1_555 1_555
C19 N4 1_555 1_555
C20 C17 1_555 1_555
H16 C20 1_555 1_555
H17 C20 1_555 1_555
C21 N4 1_555 1_555
C22 C21 1_555 1_555
H18 C22 1_555 1_555
C23 C22 1_555 1_555
H19 C23 1_555 1_555
C24 C23 1_555 1_555
H20 C24 1_555 1_555
C25 C24 1_555 1_555
H21 C25 1_555 1_555
C26 C21 1_555 1_555
H22 C26 1_555 1_555
C2 C7 1_555 1_555
C5 C9 1_555 1_555
C6 C7 1_555 1_555
C14 C15 1_555 1_555
C19 C20 1_555 1_555
C25 C26 1_555 1_555

#END
