
#######################################################################
#
#                 Cambridge Crystallographic Data Centre
#                                CCDC 
#
#######################################################################
#
# If this CIF has been generated from an entry in the Cambridge 
# Structural Database, then it will include bibliographic, chemical, 
# crystal, experimental, refinement or atomic coordinate data resulting 
# from the CCDC's data processing and validation procedures.
#
#######################################################################

data_NIGXIN
_chemical_formula_moiety         'C34 H46 N4 O6,C2 F4 I2'
_chemical_name_systematic        
'4,6-bis(2-methylpropoxy)-N^1^,N^3^-bis[4-(2-methylpropoxy)pyridin-3-yl]benzene-1,3-dicarboxamide 1,1,2,2-tetrafluoro-1,2-diiodoethane'
_symmetry_cell_setting           monoclinic
_symmetry_space_group_name_H-M   'I 2/a'
_symmetry_Int_Tables_number      15
_space_group_name_Hall           '-I 2ya'
loop_
_symmetry_equiv_pos_site_id
_symmetry_equiv_pos_as_xyz
1 x,y,z
2 1/2-x,y,-z
3 1/2+x,1/2+y,1/2+z
4 -x,1/2+y,1/2-z
5 -x,-y,-z
6 1/2+x,-y,z
7 1/2-x,1/2-y,1/2-z
8 x,1/2-y,1/2+z
_cell_length_a                   26.2642(4)
_cell_length_b                   10.0441(2)
_cell_length_c                   29.9715(4)
_cell_angle_alpha                90
_cell_angle_beta                 99.2410(10)
_cell_angle_gamma                90
_cell_volume                     7803.88
_exptl_crystal_colour            'light colorless'
_exptl_crystal_description       block
_cell_formula_units_Z            8
loop_
_atom_site_label
_atom_site_type_symbol
_atom_site_fract_x
_atom_site_fract_y
_atom_site_fract_z
I1 I 0.38799(2) 0.38134(3) 0.89709(2)
I2 I 0.43951(2) 0.37919(2) 1.07022(2)
F1 F 0.34643(10) 0.3874(3) 0.98172(9)
F2 F 0.40054(11) 0.5499(3) 0.97744(8)
F3 F 0.48007(10) 0.3680(3) 0.98571(8)
F4 F 0.42542(11) 0.2094(3) 0.99058(8)
C1 C 0.39284(15) 0.4194(5) 0.96908(13)
C2 C 0.43412(16) 0.3404(4) 0.99828(12)
O1 O 0.17448(9) 0.2542(3) 0.82909(8)
O2 O 0.24053(10) 0.4692(3) 0.70632(8)
O3 O 0.24229(12) 0.5422(4) 0.84331(9)
O4 O 0.37984(10) 0.7618(3) 0.70584(8)
O5 O 0.37209(11) 0.8777(3) 0.83861(9)
O6 O 0.47251(10) 1.0825(3) 0.80502(8)
N1 N 0.12591(12) 0.1750(4) 0.69366(10)
N2 N 0.21180(12) 0.3994(3) 0.77039(10)
H1 H 0.215216 0.412677 0.799063
N3 N 0.40333(11) 0.9218(4) 0.75922(10)
H2 H 0.401864 0.944817 0.786629
N4 N 0.45443(14) 1.0886(4) 0.66518(11)
C3 C 0.10681(15) 0.1051(4) 0.72455(14)
H3 H 0.082819 0.038950 0.714809
C4 C 0.12075(16) 0.1254(4) 0.77099(14)
H4 H 0.106300 0.074405 0.791630
C5 C 0.15658(13) 0.2234(4) 0.78551(12)
C6 C 0.17697(13) 0.2996(4) 0.75317(12)
C7 C 0.16050(13) 0.2707(4) 0.70791(12)
H5 H 0.174073 0.319988 0.686320
C8 C 0.48776(15) 1.1710(5) 0.68916(13)
H6 H 0.506500 1.228839 0.673799
C9 C 0.49597(14) 1.1747(5) 0.73627(12)
H7 H 0.519928 1.233307 0.751797
C10 C 0.46840(15) 1.0912(4) 0.75938(13)
C11 C 0.43271(13) 1.0028(4) 0.73493(11)
C12 C 0.42729(14) 1.0073(4) 0.68785(12)
H8 H 0.403445 0.950435 0.671276
C13 C 0.27500(14) 0.5785(4) 0.77511(12)
C14 C 0.30957(14) 0.6474(4) 0.75325(12)
H9 H 0.310433 0.626260 0.723166
C15 C 0.34316(13) 0.7462(4) 0.77314(11)
C16 C 0.33972(14) 0.7798(4) 0.81818(12)
C17 C 0.30564(16) 0.7138(4) 0.84060(12)
H10 H 0.303447 0.738301 0.870159
C18 C 0.27451(17) 0.6123(4) 0.82066(14)
C19 C 0.24103(13) 0.4783(4) 0.74743(11)
C20 C 0.37675(13) 0.8096(4) 0.74344(12)
C21 C 0.16141(15) 0.1660(4) 0.86376(12)
H11 H 0.167860 0.074220 0.856269
H12 H 0.125197 0.175095 0.866216
C22 C 0.19469(14) 0.2041(4) 0.90794(12)
H13 H 0.188433 0.298079 0.914048
C23 C 0.25158(15) 0.1867(5) 0.90543(14)
H14 H 0.258448 0.094810 0.899870
H15 H 0.271785 0.213921 0.933518
H16 H 0.260492 0.240310 0.881311
C24 C 0.17908(19) 0.1203(4) 0.94621(15)
H17 H 0.142733 0.129918 0.946319
H18 H 0.197789 0.150000 0.974632
H19 H 0.186924 0.028420 0.941679
C25 C 0.24305(16) 0.5571(5) 0.89163(12)
H20 H 0.274572 0.601777 0.904991
H21 H 0.242613 0.469817 0.905445
C26 C 0.19723(17) 0.6362(5) 0.90094(15)
H22 H 0.166069 0.595575 0.884030
C27 C 0.19882(18) 0.7817(5) 0.88642(15)
H23 H 0.226835 0.826197 0.905060
H24 H 0.166904 0.824273 0.889668
H25 H 0.203722 0.785971 0.855391
C28 C 0.1937(2) 0.6280(6) 0.95113(16)
H26 H 0.188883 0.536922 0.959239
H27 H 0.165103 0.680366 0.957297
H28 H 0.225045 0.661407 0.968473
C29 C 0.35992(15) 0.9370(5) 0.88002(12)
H29 H 0.322750 0.943350 0.877794
H30 H 0.373810 1.026616 0.882905
C30 C 0.38135(16) 0.8582(4) 0.92236(13)
H31 H 0.372229 0.764193 0.917183
C31 C 0.4396(2) 0.8696(6) 0.93351(18)
H32 H 0.454635 0.845815 0.907448
H33 H 0.452223 0.810651 0.958026
H34 H 0.448886 0.959529 0.942120
C32 C 0.35630(18) 0.9091(6) 0.96167(15)
H35 H 0.360907 1.003718 0.964391
H36 H 0.372125 0.866840 0.989155
H37 H 0.320124 0.888711 0.956163
C33 C 0.50532(15) 1.1803(5) 0.83140(12)
H38 H 0.489148 1.267355 0.828175
H39 H 0.538273 1.185807 0.820817
C34 C 0.51320(15) 1.1379(4) 0.88005(13)
H40 H 0.479470 1.122572 0.889145
C35 C 0.54035(15) 1.2513(5) 0.90836(13)
H41 H 0.571854 1.272957 0.897610
H42 H 0.547968 1.224163 0.939433
H43 H 0.518289 1.328034 0.905843
C36 C 0.54457(15) 1.0118(4) 0.88744(15)
H44 H 0.528414 0.943436 0.867692
H45 H 0.546592 0.983656 0.918281
H46 H 0.578693 1.028111 0.881050
loop_
_geom_bond_atom_site_label_1
_geom_bond_atom_site_label_2
_geom_bond_site_symmetry_1
_geom_bond_site_symmetry_2
I1 C1 1_555 1_555
I2 C2 1_555 1_555
F1 C1 1_555 1_555
F2 C1 1_555 1_555
F3 C2 1_555 1_555
F4 C2 1_555 1_555
C1 C2 1_555 1_555
O1 C5 1_555 1_555
O2 C19 1_555 1_555
O3 C18 1_555 1_555
O4 C20 1_555 1_555
O5 C16 1_555 1_555
O6 C10 1_555 1_555
N1 C3 1_555 1_555
N2 H1 1_555 1_555
N3 H2 1_555 1_555
N4 C8 1_555 1_555
C3 H3 1_555 1_555
C4 C3 1_555 1_555
H4 C4 1_555 1_555
C5 C4 1_555 1_555
C6 N2 1_555 1_555
C7 N1 1_555 1_555
H5 C7 1_555 1_555
C8 H6 1_555 1_555
C9 C8 1_555 1_555
H7 C9 1_555 1_555
C10 C9 1_555 1_555
C11 N3 1_555 1_555
C12 N4 1_555 1_555
H8 C12 1_555 1_555
C13 C14 1_555 1_555
C14 H9 1_555 1_555
C15 C14 1_555 1_555
C16 C15 1_555 1_555
C17 C16 1_555 1_555
H10 C17 1_555 1_555
C18 C13 1_555 1_555
C19 N2 1_555 1_555
C20 N3 1_555 1_555
C21 O1 1_555 1_555
H11 C21 1_555 1_555
H12 C21 1_555 1_555
C22 C21 1_555 1_555
H13 C22 1_555 1_555
C23 C22 1_555 1_555
H14 C23 1_555 1_555
H15 C23 1_555 1_555
H16 C23 1_555 1_555
C24 C22 1_555 1_555
H17 C24 1_555 1_555
H18 C24 1_555 1_555
H19 C24 1_555 1_555
C25 O3 1_555 1_555
H20 C25 1_555 1_555
H21 C25 1_555 1_555
C26 C25 1_555 1_555
H22 C26 1_555 1_555
C27 C26 1_555 1_555
H23 C27 1_555 1_555
H24 C27 1_555 1_555
H25 C27 1_555 1_555
C28 C26 1_555 1_555
H26 C28 1_555 1_555
H27 C28 1_555 1_555
H28 C28 1_555 1_555
C29 O5 1_555 1_555
H29 C29 1_555 1_555
H30 C29 1_555 1_555
C30 C29 1_555 1_555
H31 C30 1_555 1_555
C31 C30 1_555 1_555
H32 C31 1_555 1_555
H33 C31 1_555 1_555
H34 C31 1_555 1_555
C32 C30 1_555 1_555
H35 C32 1_555 1_555
H36 C32 1_555 1_555
H37 C32 1_555 1_555
C33 O6 1_555 1_555
H38 C33 1_555 1_555
H39 C33 1_555 1_555
C34 C33 1_555 1_555
H40 C34 1_555 1_555
C35 C34 1_555 1_555
H41 C35 1_555 1_555
H42 C35 1_555 1_555
H43 C35 1_555 1_555
C36 C34 1_555 1_555
H44 C36 1_555 1_555
H45 C36 1_555 1_555
H46 C36 1_555 1_555
C5 C6 1_555 1_555
C6 C7 1_555 1_555
C10 C11 1_555 1_555
C11 C12 1_555 1_555
C13 C19 1_555 1_555
C15 C20 1_555 1_555
C17 C18 1_555 1_555

#END
