
#######################################################################
#
#                 Cambridge Crystallographic Data Centre
#                                CCDC 
#
#######################################################################
#
# If this CIF has been generated from an entry in the Cambridge 
# Structural Database, then it will include bibliographic, chemical, 
# crystal, experimental, refinement or atomic coordinate data resulting 
# from the CCDC's data processing and validation procedures.
#
#######################################################################

data_NIGXAF
_chemical_formula_moiety         'C41 H55 F2 I1 N4 O8'
_chemical_name_systematic        
N^1^-[5-{[difluoro(iodo)acetyl]amino}-2,4-bis(2-methylpropoxy)phenyl]-4,6-bis(2-methylpropoxy)-N^3^-[4-(2-methylpropoxy)pyridin-3-yl]benzene-1,3-dicarboxamide
_symmetry_cell_setting           monoclinic
_symmetry_space_group_name_H-M   'P 21/c'
_symmetry_Int_Tables_number      14
_space_group_name_Hall           '-P 2ybc'
loop_
_symmetry_equiv_pos_site_id
_symmetry_equiv_pos_as_xyz
1 x,y,z
2 -x,1/2+y,1/2-z
3 -x,-y,-z
4 x,1/2-y,1/2+z
_cell_length_a                   15.955(4)
_cell_length_b                   17.450(5)
_cell_length_c                   16.451(5)
_cell_angle_alpha                90
_cell_angle_beta                 92.537(4)
_cell_angle_gamma                90
_cell_volume                     4575.71
_exptl_crystal_colour            purple
_exptl_crystal_description       block
_cell_formula_units_Z            4
loop_
_atom_site_label
_atom_site_type_symbol
_atom_site_fract_x
_atom_site_fract_y
_atom_site_fract_z
I1 I 0.20765(2) 0.56427(2) 0.80702(2)
F1 F 0.05464(12) 0.60674(13) 0.71688(13)
F2 F 0.16403(17) 0.66179(12) 0.66919(14)
N1 N 0.07013(15) 0.49402(13) 0.61790(14)
H1 H 0.0290(17) 0.504(2) 0.6475(19)
N2 N 0.15051(14) 0.30156(14) 0.41666(13)
H2 H 0.131(2) 0.2802(19) 0.3748(15)
N3 N 0.52506(16) 0.06728(16) 0.40217(16)
H3 H 0.504(2) 0.045(2) 0.367(3)
N4 N 0.70220(16) 0.02304(17) 0.54889(17)
O1 O 0.20538(15) 0.52687(18) 0.59612(17)
O2 O -0.00534(13) 0.24737(12) 0.41594(12)
O3 O -0.08095(13) 0.44014(12) 0.61177(13)
O4 O 0.25385(15) 0.29090(16) 0.51416(13)
O5 O 0.50669(14) 0.16626(15) 0.48876(14)
O6 O 0.42721(14) 0.07774(14) 0.26367(13)
O7 O 0.18044(12) 0.23407(12) 0.27467(11)
O8 O 0.57781(15) -0.06506(13) 0.34408(14)
C1 C 0.1356(2) 0.59509(18) 0.69784(19)
C2 C 0.14069(19) 0.53403(18) 0.63079(18)
C3 C 0.05334(16) 0.43317(14) 0.56271(15)
C4 C 0.11257(16) 0.40088(15) 0.51370(15)
H4 H 0.1671 0.4213 0.5135
C5 C 0.09124(16) 0.33866(15) 0.46521(15)
C6 C 0.00990(16) 0.30996(15) 0.46370(15)
C7 C -0.05063(17) 0.34364(16) 0.51026(16)
H5 H -0.1061 0.3252 0.5078
C8 C -0.02813(16) 0.40490(16) 0.56053(15)
C9 C 0.22720(16) 0.27752(16) 0.44476(15)
C10 C 0.27751(16) 0.23063(15) 0.38813(15)
C11 C 0.35455(16) 0.20472(16) 0.41974(15)
H6 H 0.3730 0.2225 0.4714
C12 C 0.40602(16) 0.15431(16) 0.37992(16)
C13 C 0.37860(17) 0.12885(17) 0.30241(16)
C14 C 0.30328(17) 0.15586(17) 0.26752(16)
H7 H 0.2857 0.1394 0.2151
C15 C 0.25373(16) 0.20663(16) 0.30894(15)
C16 C 0.48415(17) 0.13074(18) 0.42759(17)
C17 C 0.6368(2) 0.05955(19) 0.51155(19)
H8 H 0.6189 0.1062 0.5334
C18 C 0.59467(17) 0.03135(18) 0.44225(17)
C19 C 0.62170(18) -0.03830(18) 0.41000(17)
C20 C 0.6897(2) -0.07461(19) 0.4477(2)
H9 H 0.7101 -0.1208 0.4268
C21 C 0.72709(19) -0.04232(19) 0.5162(2)
H10 H 0.7730 -0.0680 0.5416
C22 C -0.0700(2) 0.19600(18) 0.4395(2)
H11 H -0.1252 0.2188 0.4272
H12 H -0.0645 0.1863 0.4982
C23 C -0.0619(2) 0.12151(19) 0.3933(2)
H13 H -0.0717 0.1318 0.3345
C24 C -0.1303(3) 0.0674(2) 0.4212(3)
H14 H -0.1278 0.0195 0.3915
H15 H -0.1849 0.0909 0.4109
H16 H -0.1218 0.0575 0.4790
C25 C 0.0247(3) 0.0872(3) 0.4070(5)
H17 H 0.0660 0.1211 0.3847
H18 H 0.0268 0.0378 0.3802
H19 H 0.0369 0.0808 0.4649
C26 C -0.16150(19) 0.4058(2) 0.6224(2)
H20 H -0.1550 0.3510 0.6341
H21 H -0.1970 0.4115 0.5726
C27 C -0.2019(2) 0.4459(3) 0.6931(2)
H22 H -0.1599 0.4486 0.7392
C28 C -0.2259(4) 0.5256(3) 0.6697(3)
H23 H -0.2749 0.5244 0.6326
H24 H -0.1798 0.5500 0.6432
H25 H -0.2388 0.5544 0.7180
C29 C -0.2754(4) 0.3991(4) 0.7196(4)
H26 H -0.3020 0.4252 0.7637
H27 H -0.2559 0.3492 0.7381
H28 H -0.3156 0.3929 0.6741
C30 C 0.4009(2) 0.0500(2) 0.18348(18)
H29 H 0.3407 0.0389 0.1828
H30 H 0.4302 0.0018 0.1733
C31 C 0.4174(2) 0.1054(3) 0.1154(2)
H31 H 0.3809 0.1508 0.1211
C32 C 0.3919(3) 0.0644(3) 0.0359(2)
H32 H 0.4268 0.0195 0.0298
H33 H 0.3990 0.0989 -0.0095
H34 H 0.3335 0.0490 0.0370
C33 C 0.5061(3) 0.1315(4) 0.1147(3)
H35 H 0.5215 0.1563 0.1660
H36 H 0.5123 0.1676 0.0705
H37 H 0.5424 0.0877 0.1071
C34 C 0.1604(2) 0.2161(2) 0.18998(16)
H38 H 0.1498 0.1611 0.1837
H39 H 0.2075 0.2300 0.1566
C35 C 0.08294(19) 0.26111(19) 0.16281(17)
H40 H 0.0712 0.2485 0.1047
C36 C 0.0066(2) 0.2370(2) 0.20765(19)
H41 H 0.0008 0.1817 0.2050
H42 H -0.0430 0.2609 0.1826
H43 H 0.0131 0.2529 0.2641
C37 C 0.0975(2) 0.3468(2) 0.1672(2)
H44 H 0.1115 0.3615 0.2230
H45 H 0.0469 0.3734 0.1482
H46 H 0.1432 0.3605 0.1331
C38 C 0.5899(2) -0.1453(2) 0.3240(2)
H47 H 0.5818 -0.1772 0.3721
H48 H 0.6470 -0.1534 0.3064
C39 C 0.5272(2) -0.1672(2) 0.2568(2)
H49 H 0.5329 -0.2231 0.2481
C40 C 0.5470(3) -0.1280(3) 0.1775(2)
H50 H 0.5474 -0.0729 0.1853
H51 H 0.5046 -0.1415 0.1358
H52 H 0.6016 -0.1447 0.1607
C41 C 0.4389(3) -0.1529(3) 0.2814(3)
H53 H 0.4296 -0.1792 0.3321
H54 H 0.3997 -0.1720 0.2394
H55 H 0.4304 -0.0983 0.2884
loop_
_geom_bond_atom_site_label_1
_geom_bond_atom_site_label_2
_geom_bond_site_symmetry_1
_geom_bond_site_symmetry_2
I1 C1 1_555 1_555
F1 C1 1_555 1_555
F2 C1 1_555 1_555
N1 H1 1_555 1_555
N2 H2 1_555 1_555
N3 H3 1_555 1_555
N4 C17 1_555 1_555
O1 C2 1_555 1_555
O2 C6 1_555 1_555
O3 C8 1_555 1_555
O4 C9 1_555 1_555
O5 C16 1_555 1_555
O6 C13 1_555 1_555
O7 C15 1_555 1_555
O8 C19 1_555 1_555
C1 C2 1_555 1_555
C2 N1 1_555 1_555
C3 N1 1_555 1_555
C4 C3 1_555 1_555
H4 C4 1_555 1_555
C5 N2 1_555 1_555
C6 C5 1_555 1_555
C7 C6 1_555 1_555
H5 C7 1_555 1_555
C8 C3 1_555 1_555
C9 N2 1_555 1_555
C10 C9 1_555 1_555
C11 C10 1_555 1_555
H6 C11 1_555 1_555
C12 C11 1_555 1_555
C13 C12 1_555 1_555
C14 C13 1_555 1_555
H7 C14 1_555 1_555
C15 C10 1_555 1_555
C16 N3 1_555 1_555
C17 H8 1_555 1_555
C18 N3 1_555 1_555
C19 C18 1_555 1_555
C20 C19 1_555 1_555
H9 C20 1_555 1_555
C21 N4 1_555 1_555
H10 C21 1_555 1_555
C22 O2 1_555 1_555
H11 C22 1_555 1_555
H12 C22 1_555 1_555
C23 C22 1_555 1_555
H13 C23 1_555 1_555
C24 C23 1_555 1_555
H14 C24 1_555 1_555
H15 C24 1_555 1_555
H16 C24 1_555 1_555
C25 C23 1_555 1_555
H17 C25 1_555 1_555
H18 C25 1_555 1_555
H19 C25 1_555 1_555
C26 O3 1_555 1_555
H20 C26 1_555 1_555
H21 C26 1_555 1_555
C27 C26 1_555 1_555
H22 C27 1_555 1_555
C28 C27 1_555 1_555
H23 C28 1_555 1_555
H24 C28 1_555 1_555
H25 C28 1_555 1_555
C29 C27 1_555 1_555
H26 C29 1_555 1_555
H27 C29 1_555 1_555
H28 C29 1_555 1_555
C30 O6 1_555 1_555
H29 C30 1_555 1_555
H30 C30 1_555 1_555
C31 C30 1_555 1_555
H31 C31 1_555 1_555
C32 C31 1_555 1_555
H32 C32 1_555 1_555
H33 C32 1_555 1_555
H34 C32 1_555 1_555
C33 C31 1_555 1_555
H35 C33 1_555 1_555
H36 C33 1_555 1_555
H37 C33 1_555 1_555
C34 O7 1_555 1_555
H38 C34 1_555 1_555
H39 C34 1_555 1_555
C35 C34 1_555 1_555
H40 C35 1_555 1_555
C36 C35 1_555 1_555
H41 C36 1_555 1_555
H42 C36 1_555 1_555
H43 C36 1_555 1_555
C37 C35 1_555 1_555
H44 C37 1_555 1_555
H45 C37 1_555 1_555
H46 C37 1_555 1_555
C38 O8 1_555 1_555
H47 C38 1_555 1_555
H48 C38 1_555 1_555
C39 C38 1_555 1_555
H49 C39 1_555 1_555
C40 C39 1_555 1_555
H50 C40 1_555 1_555
H51 C40 1_555 1_555
H52 C40 1_555 1_555
C41 C39 1_555 1_555
H53 C41 1_555 1_555
H54 C41 1_555 1_555
H55 C41 1_555 1_555
C4 C5 1_555 1_555
C7 C8 1_555 1_555
C12 C16 1_555 1_555
C14 C15 1_555 1_555
C17 C18 1_555 1_555
C20 C21 1_555 1_555

#END
