
#######################################################################
#
#                 Cambridge Crystallographic Data Centre
#                                CCDC 
#
#######################################################################
#
# If this CIF has been generated from an entry in the Cambridge 
# Structural Database, then it will include bibliographic, chemical, 
# crystal, experimental, refinement or atomic coordinate data resulting 
# from the CCDC's data processing and validation procedures.
#
#######################################################################

data_NIGYUA
_chemical_formula_moiety         'C32 H23 F5 N1 O2 P1'
_chemical_name_systematic        
(R)-2-{[(2',6'-dimethoxy[1,1'-biphenyl]-2-yl)(phenyl)phosphanyl](pentafluorophenyl)methyl}pyridine
_symmetry_cell_setting           triclinic
_symmetry_space_group_name_H-M   'P -1'
_symmetry_Int_Tables_number      2
_space_group_name_Hall           '-P 1'
loop_
_symmetry_equiv_pos_site_id
_symmetry_equiv_pos_as_xyz
1 x,y,z
2 -x,-y,-z
_cell_length_a                   8.5783(8)
_cell_length_b                   10.9621(12)
_cell_length_c                   15.2182(16)
_cell_angle_alpha                75.353(9)
_cell_angle_beta                 84.555(8)
_cell_angle_gamma                81.508(9)
_cell_volume                     1366.9
_exptl_crystal_colour            colorless
_exptl_crystal_description       block
_cell_formula_units_Z            2
loop_
_atom_site_label
_atom_site_type_symbol
_atom_site_fract_x
_atom_site_fract_y
_atom_site_fract_z
F1 F 0.4217(3) 0.6640(3) 0.51854(16)
F2 F 0.4605(4) 0.9028(3) 0.4289(2)
F3 F 0.2666(4) 1.1024(3) 0.4695(2)
F4 F 0.0293(4) 1.0601(2) 0.59976(19)
F5 F -0.0108(3) 0.8211(2) 0.69005(16)
O1 O 0.1032(3) 0.9769(2) 0.80838(19)
O2 O 0.2571(3) 0.5740(2) 0.99141(16)
P1 P 0.20782(10) 0.56521(8) 0.78626(6)
N1 N -0.0219(3) 0.4626(3) 0.7049(2)
C1 C 0.3536(4) 0.6727(3) 0.7877(2)
C2 C 0.3215(4) 0.7622(3) 0.8406(2)
C3 C 0.4348(4) 0.8423(3) 0.8395(3)
H1 H 0.4147 0.9022 0.8742
C4 C 0.5747(4) 0.8346(3) 0.7884(3)
H2 H 0.6480 0.8891 0.7887
C5 C 0.6073(4) 0.7465(3) 0.7366(3)
H3 H 0.7024 0.7408 0.7021
C6 C 0.4972(4) 0.6669(3) 0.7365(2)
H4 H 0.5192 0.6076 0.7014
C7 C 0.1742(4) 0.7735(3) 0.8998(2)
C8 C 0.0647(4) 0.8832(3) 0.8831(3)
C9 C -0.0715(5) 0.8946(4) 0.9390(3)
H5 H -0.1442 0.9677 0.9266
C10 C -0.0969(5) 0.7964(4) 1.0127(3)
H6 H -0.1887 0.8035 1.0498
C11 C 0.0087(4) 0.6881(4) 1.0335(3)
H7 H -0.0099 0.6233 1.0846
C12 C 0.1438(4) 0.6771(3) 0.9769(2)
C13 C 0.0017(5) 1.0949(4) 0.7904(3)
H8 H -0.0990 1.0816 0.7743
H9 H 0.0481 1.1545 0.7410
H10 H -0.0123 1.1279 0.8437
C14 C 0.2371(5) 0.4731(3) 1.0710(3)
H11 H 0.2343 0.5052 1.1244
H12 H 0.3237 0.4064 1.0724
H13 H 0.1399 0.4403 1.0695
C15 C 0.1838(4) 0.5995(3) 0.6582(2)
H14 H 0.2678 0.5443 0.6336
C16 C 0.2039(4) 0.7343(4) 0.6089(2)
C17 C 0.3224(5) 0.7603(4) 0.5410(3)
C18 C 0.3445(6) 0.8840(5) 0.4944(3)
C19 C 0.2462(6) 0.9834(5) 0.5158(3)
C20 C 0.1283(6) 0.9616(4) 0.5811(3)
C21 C 0.1084(5) 0.8392(4) 0.6267(3)
C22 C 0.0270(4) 0.5612(3) 0.6416(3)
C23 C -0.0546(4) 0.6202(4) 0.5647(3)
H15 H -0.0188 0.6890 0.5222
C24 C -0.1904(5) 0.5743(5) 0.5526(3)
H16 H -0.2474 0.6122 0.5015
C25 C -0.2411(5) 0.4728(5) 0.6160(4)
H17 H -0.3320 0.4406 0.6084
C26 C -0.1557(5) 0.4205(4) 0.6899(4)
H18 H -0.1907 0.3517 0.7328
C27 C 0.3402(4) 0.4138(3) 0.8026(2)
C28 C 0.4456(4) 0.3826(3) 0.8706(3)
H19 H 0.4544 0.4417 0.9036
C29 C 0.5381(4) 0.2657(4) 0.8906(3)
H20 H 0.6086 0.2471 0.9364
C30 C 0.5258(5) 0.1769(4) 0.8426(3)
H21 H 0.5882 0.0984 0.8556
C31 C 0.4219(5) 0.2047(4) 0.7760(3)
H22 H 0.4131 0.1446 0.7438
C32 C 0.3290(4) 0.3217(3) 0.7557(3)
H23 H 0.2581 0.3390 0.7102
loop_
_geom_bond_atom_site_label_1
_geom_bond_atom_site_label_2
_geom_bond_site_symmetry_1
_geom_bond_site_symmetry_2
F1 C17 1_555 1_555
F2 C18 1_555 1_555
F3 C19 1_555 1_555
F4 C20 1_555 1_555
F5 C21 1_555 1_555
O1 C8 1_555 1_555
O2 C12 1_555 1_555
P1 C1 1_555 1_555
N1 C22 1_555 1_555
C1 C2 1_555 1_555
C2 C3 1_555 1_555
C3 H1 1_555 1_555
C4 C3 1_555 1_555
H2 C4 1_555 1_555
C5 C4 1_555 1_555
H3 C5 1_555 1_555
C6 C1 1_555 1_555
H4 C6 1_555 1_555
C7 C2 1_555 1_555
C8 C7 1_555 1_555
C9 C8 1_555 1_555
H5 C9 1_555 1_555
C10 C9 1_555 1_555
H6 C10 1_555 1_555
C11 C10 1_555 1_555
H7 C11 1_555 1_555
C12 C7 1_555 1_555
C13 O1 1_555 1_555
H8 C13 1_555 1_555
H9 C13 1_555 1_555
H10 C13 1_555 1_555
C14 O2 1_555 1_555
H11 C14 1_555 1_555
H12 C14 1_555 1_555
H13 C14 1_555 1_555
C15 P1 1_555 1_555
H14 C15 1_555 1_555
C16 C15 1_555 1_555
C17 C16 1_555 1_555
C18 C17 1_555 1_555
C19 C18 1_555 1_555
C20 C19 1_555 1_555
C21 C16 1_555 1_555
C22 C15 1_555 1_555
C23 C22 1_555 1_555
H15 C23 1_555 1_555
C24 C23 1_555 1_555
H16 C24 1_555 1_555
C25 C24 1_555 1_555
H17 C25 1_555 1_555
C26 N1 1_555 1_555
H18 C26 1_555 1_555
C27 P1 1_555 1_555
C28 C27 1_555 1_555
H19 C28 1_555 1_555
C29 C28 1_555 1_555
H20 C29 1_555 1_555
C30 C29 1_555 1_555
H21 C30 1_555 1_555
C31 C30 1_555 1_555
H22 C31 1_555 1_555
C32 C27 1_555 1_555
H23 C32 1_555 1_555
C5 C6 1_555 1_555
C11 C12 1_555 1_555
C20 C21 1_555 1_555
C25 C26 1_555 1_555
C31 C32 1_555 1_555

#END
