
#######################################################################
#
#                 Cambridge Crystallographic Data Centre
#                                CCDC 
#
#######################################################################
#
# If this CIF has been generated from an entry in the Cambridge 
# Structural Database, then it will include bibliographic, chemical, 
# crystal, experimental, refinement or atomic coordinate data resulting 
# from the CCDC's data processing and validation procedures.
#
#######################################################################

data_NIHDAM
_chemical_formula_moiety         'C104 H70 N12'
_chemical_name_systematic        
'N^1^,N^1^,N^3^,N^3^,N^6^,N^6^,N^8^,N^8^-octakis[4-(pyridin-4-yl)phenyl]pyrene-1,3,6,8-tetramine unknown solvate'
_symmetry_cell_setting           triclinic
_symmetry_space_group_name_H-M   'P -1'
_symmetry_Int_Tables_number      2
_space_group_name_Hall           '-P 1'
loop_
_symmetry_equiv_pos_site_id
_symmetry_equiv_pos_as_xyz
1 x,y,z
2 -x,-y,-z
_cell_length_a                   14.594(4)
_cell_length_b                   15.377(4)
_cell_length_c                   15.584(4)
_cell_angle_alpha                93.6740(10)
_cell_angle_beta                 117.5410(10)
_cell_angle_gamma                117.376(3)
_cell_volume                     2578.02
_exptl_crystal_colour            red
_exptl_crystal_description       plate
_cell_formula_units_Z            1
loop_
_atom_site_label
_atom_site_type_symbol
_atom_site_fract_x
_atom_site_fract_y
_atom_site_fract_z
N1 N -0.2427(2) 0.06973(17) 0.02528(18)
N2 N 0.3779(2) 0.26940(16) 0.17871(19)
C1 C -0.0897(2) 0.04572(18) 0.0219(2)
C2 C 0.0107(3) 0.14973(19) 0.0941(2)
H1 H -0.0058 0.1921 0.1213
N3 N -0.1801(3) 0.5754(2) -0.1976(2)
C3 C -0.2125(3) 0.00556(19) -0.0114(2)
C4 C 0.1285(3) 0.18759(19) 0.1235(2)
H2 H 0.1911 0.2558 0.1694
C5 C 0.1591(2) 0.12464(18) 0.0853(2)
N4 N 0.4046(3) 0.7372(2) -0.0958(3)
C6 C -0.3069(3) -0.09751(19) -0.0774(2)
H3 H -0.3880 -0.1232 -0.0978
C7 C 0.0615(2) 0.01948(17) 0.01552(19)
C8 C 0.2802(2) 0.16209(19) 0.1130(2)
C9 C -0.2715(2) 0.04987(19) 0.0997(2)
C10 C 0.4778(3) 0.2912(2) 0.2751(2)
C11 C -0.2380(2) 0.15170(19) -0.0133(2)
C12 C -0.1921(3) 0.3267(2) 0.0120(2)
H4 H -0.1672 0.3889 0.0547
C13 C -0.2550(3) -0.0188(2) 0.2367(2)
H5 H -0.2209 -0.0479 0.2819
C14 C -0.3397(3) -0.0007(2) 0.2400(2)
C15 C 0.3792(2) 0.34695(19) 0.1328(2)
C16 C 0.5966(3) 0.3792(2) 0.3177(2)
H6 H 0.6103 0.4246 0.2819
C17 C -0.2002(3) 0.2465(2) 0.0494(2)
H7 H -0.1806 0.2553 0.1166
C18 C 0.6938(3) 0.3991(2) 0.4126(2)
H8 H 0.7723 0.4585 0.4400
C19 C 0.3864(3) 0.5020(2) 0.0451(2)
C20 C -0.3850(3) 0.0458(2) 0.1734(2)
H9 H -0.4390 0.0606 0.1756
C21 C -0.2077(3) 0.4057(2) -0.1257(2)
C22 C -0.2222(3) 0.0055(2) 0.1684(2)
H10 H -0.1664 -0.0076 0.1674
C23 C -0.3527(3) 0.0705(2) 0.1044(2)
H11 H -0.3852 0.1013 0.0605
C24 C 0.6780(3) 0.3326(2) 0.4689(2)
C25 C 0.3904(3) 0.5833(2) -0.0028(3)
C26 C -0.2657(3) 0.1412(2) -0.1119(2)
H12 H -0.2900 0.0791 -0.1542
C27 C 0.4235(3) 0.5205(2) 0.1478(2)
H13 H 0.4511 0.5853 0.1879
C28 C 0.5592(3) 0.2457(2) 0.4258(2)
H14 H 0.5457 0.2001 0.4615
C29 C 0.4607(3) 0.2249(2) 0.3317(2)
H15 H 0.3820 0.1663 0.3053
C30 C -0.2203(3) 0.3173(2) -0.0884(2)
C31 C 0.4203(3) 0.4456(2) 0.1913(2)
H16 H 0.4456 0.4600 0.2601
N5 N -0.4638(4) -0.0898(3) 0.4420(3)
C32 C 0.7859(3) 0.3550(3) 0.5703(2)
C33 C -0.2580(3) 0.2227(2) -0.1495(2)
H17 H -0.2785 0.2134 -0.2169
C34 C -0.1196(3) 0.5886(2) -0.0979(3)
H18 H -0.0662 0.6568 -0.0510
C35 C -0.1295(3) 0.5093(2) -0.0580(3)
H19 H -0.0846 0.5247 0.0131
C36 C -0.3784(3) -0.0299(2) 0.3123(2)
C37 C 0.3436(3) 0.4030(2) -0.0130(3)
H20 H 0.3165 0.3879 -0.0822
C38 C 0.3407(3) 0.3269(2) 0.0310(2)
H21 H 0.3125 0.2617 -0.0089
C39 C -0.2732(3) 0.3902(2) -0.2308(3)
H22 H -0.3277 0.3230 -0.2797
C40 C 0.4746(3) 0.6889(2) 0.0544(3)
H23 H 0.5292 0.7113 0.1256
C41 C 0.4777(3) 0.7618(3) 0.0049(3)
H24 H 0.5350 0.8323 0.0455
C42 C -0.4219(3) 0.0199(3) 0.3452(3)
H25 H -0.4230 0.0751 0.3247
C43 C -0.2563(4) 0.4762(3) -0.2615(3)
H26 H -0.3014 0.4637 -0.3320
C44 C 0.3120(3) 0.5580(2) -0.1071(3)
H27 H 0.2514 0.4882 -0.1493
C45 C 0.7883(3) 0.2783(3) 0.6106(3)
H28 H 0.7217 0.2088 0.5743
C46 C 0.3225(3) 0.6356(3) -0.1500(3)
H29 H 0.2688 0.6153 -0.2210
C47 C -0.4631(4) -0.0124(3) 0.4078(3)
H30 H -0.4923 0.0220 0.4275
C48 C 0.8893(3) 0.4571(3) 0.6295(3)
H31 H 0.8925 0.5119 0.6060
N6 N 0.9916(4) 0.4035(3) 0.7642(3)
C49 C -0.3797(4) -0.1112(3) 0.3464(3)
H32 H -0.3535 -0.1485 0.3261
C50 C -0.4211(4) -0.1366(3) 0.4122(3)
H33 H -0.4184 -0.1897 0.4363
C51 C 0.8918(4) 0.3064(4) 0.7058(3)
H34 H 0.8916 0.2533 0.7312
C52 C 0.9865(4) 0.4753(4) 0.7229(3)
H35 H 1.0547 0.5440 0.7607
N1A N 0.2427(2) -0.06973(17) -0.02528(18)
N2A N -0.3779(2) -0.26940(16) -0.17871(19)
C1A C 0.0897(2) -0.04572(18) -0.0219(2)
C2A C -0.0107(3) -0.14973(19) -0.0941(2)
H1A H 0.0058 -0.1921 -0.1213
N3A N 0.1801(3) -0.5754(2) 0.1976(2)
C3A C 0.2125(3) -0.00556(19) 0.0114(2)
C4A C -0.1285(3) -0.18759(19) -0.1235(2)
H2A H -0.1911 -0.2558 -0.1694
C5A C -0.1591(2) -0.12464(18) -0.0853(2)
N4A N -0.4046(3) -0.7372(2) 0.0958(3)
C6A C 0.3069(3) 0.09751(19) 0.0774(2)
H3A H 0.3880 0.1232 0.0978
C7A C -0.0615(2) -0.01948(17) -0.01552(19)
C8A C -0.2802(2) -0.16209(19) -0.1130(2)
C9A C 0.2715(2) -0.04987(19) -0.0997(2)
C10A C -0.4778(3) -0.2912(2) -0.2751(2)
C11A C 0.2380(2) -0.15170(19) 0.0133(2)
C12A C 0.1921(3) -0.3267(2) -0.0120(2)
H4A H 0.1672 -0.3889 -0.0547
C13A C 0.2550(3) 0.0188(2) -0.2367(2)
H5A H 0.2209 0.0479 -0.2819
C14A C 0.3397(3) 0.0007(2) -0.2400(2)
C15A C -0.3792(2) -0.34695(19) -0.1328(2)
C16A C -0.5966(3) -0.3792(2) -0.3177(2)
H6A H -0.6103 -0.4246 -0.2819
C17A C 0.2002(3) -0.2465(2) -0.0494(2)
H7A H 0.1806 -0.2553 -0.1166
C18A C -0.6938(3) -0.3991(2) -0.4126(2)
H8A H -0.7723 -0.4585 -0.4400
C19A C -0.3864(3) -0.5020(2) -0.0451(2)
C20A C 0.3850(3) -0.0458(2) -0.1734(2)
H9A H 0.4390 -0.0606 -0.1756
C21A C 0.2077(3) -0.4057(2) 0.1257(2)
C22A C 0.2222(3) -0.0055(2) -0.1684(2)
H10A H 0.1664 0.0076 -0.1674
C23A C 0.3527(3) -0.0705(2) -0.1044(2)
H11A H 0.3852 -0.1013 -0.0605
C24A C -0.6780(3) -0.3326(2) -0.4689(2)
C25A C -0.3904(3) -0.5833(2) 0.0028(3)
C26A C 0.2657(3) -0.1412(2) 0.1119(2)
H12A H 0.2900 -0.0791 0.1542
C27A C -0.4235(3) -0.5205(2) -0.1478(2)
H13A H -0.4511 -0.5853 -0.1879
C28A C -0.5592(3) -0.2457(2) -0.4258(2)
H14A H -0.5457 -0.2001 -0.4615
C29A C -0.4607(3) -0.2249(2) -0.3317(2)
H15A H -0.3820 -0.1663 -0.3053
C30A C 0.2203(3) -0.3173(2) 0.0884(2)
C31A C -0.4203(3) -0.4456(2) -0.1913(2)
H16A H -0.4456 -0.4600 -0.2601
N5A N 0.4638(4) 0.0898(3) -0.4420(3)
C32A C -0.7859(3) -0.3550(3) -0.5703(2)
C33A C 0.2580(3) -0.2227(2) 0.1495(2)
H17A H 0.2785 -0.2134 0.2169
C34A C 0.1196(3) -0.5886(2) 0.0979(3)
H18A H 0.0662 -0.6568 0.0510
C35A C 0.1295(3) -0.5093(2) 0.0580(3)
H19A H 0.0846 -0.5247 -0.0131
C36A C 0.3784(3) 0.0299(2) -0.3123(2)
C37A C -0.3436(3) -0.4030(2) 0.0130(3)
H20A H -0.3165 -0.3879 0.0822
C38A C -0.3407(3) -0.3269(2) -0.0310(2)
H21A H -0.3125 -0.2617 0.0089
C39A C 0.2732(3) -0.3902(2) 0.2308(3)
H22A H 0.3277 -0.3230 0.2797
C40A C -0.4746(3) -0.6889(2) -0.0544(3)
H23A H -0.5292 -0.7113 -0.1256
C41A C -0.4777(3) -0.7618(3) -0.0049(3)
H24A H -0.5350 -0.8323 -0.0455
C42A C 0.4219(3) -0.0199(3) -0.3452(3)
H25A H 0.4230 -0.0751 -0.3247
C43A C 0.2563(4) -0.4762(3) 0.2615(3)
H26A H 0.3014 -0.4637 0.3320
C44A C -0.3120(3) -0.5580(2) 0.1071(3)
H27A H -0.2514 -0.4882 0.1493
C45A C -0.7883(3) -0.2783(3) -0.6106(3)
H28A H -0.7217 -0.2088 -0.5743
C46A C -0.3225(3) -0.6356(3) 0.1500(3)
H29A H -0.2688 -0.6153 0.2210
C47A C 0.4631(4) 0.0124(3) -0.4078(3)
H30A H 0.4923 -0.0220 -0.4275
C48A C -0.8893(3) -0.4571(3) -0.6295(3)
H31A H -0.8925 -0.5119 -0.6060
N6A N -0.9916(4) -0.4035(3) -0.7642(3)
C49A C 0.3797(4) 0.1112(3) -0.3464(3)
H32A H 0.3535 0.1485 -0.3261
C50A C 0.4211(4) 0.1366(3) -0.4122(3)
H33A H 0.4184 0.1897 -0.4363
C51A C -0.8918(4) -0.3064(4) -0.7058(3)
H34A H -0.8916 -0.2533 -0.7312
C52A C -0.9865(4) -0.4753(4) -0.7229(3)
H35A H -1.0547 -0.5440 -0.7607
loop_
_geom_bond_atom_site_label_1
_geom_bond_atom_site_label_2
_geom_bond_site_symmetry_1
_geom_bond_site_symmetry_2
N1 C3 1_555 1_555
N2 C8 1_555 1_555
C1 C2 1_555 1_555
C2 H1 1_555 1_555
N3 C34 1_555 1_555
C3 C1 1_555 1_555
C4 C2 1_555 1_555
H2 C4 1_555 1_555
C5 C4 1_555 1_555
N4 C41 1_555 1_555
C6 C3 1_555 1_555
H3 C6 1_555 1_555
C7 C5 1_555 1_555
C8 C5 1_555 1_555
C9 N1 1_555 1_555
C10 N2 1_555 1_555
C11 N1 1_555 1_555
C12 H4 1_555 1_555
C13 H5 1_555 1_555
C14 C13 1_555 1_555
C15 N2 1_555 1_555
C16 C10 1_555 1_555
H6 C16 1_555 1_555
C17 C11 1_555 1_555
H7 C17 1_555 1_555
C18 C16 1_555 1_555
H8 C18 1_555 1_555
C19 C25 1_555 1_555
C20 C14 1_555 1_555
H9 C20 1_555 1_555
C21 C30 1_555 1_555
C22 C9 1_555 1_555
H10 C22 1_555 1_555
C23 C9 1_555 1_555
H11 C23 1_555 1_555
C24 C18 1_555 1_555
C25 C40 1_555 1_555
C26 C11 1_555 1_555
H12 C26 1_555 1_555
C27 C19 1_555 1_555
H13 C27 1_555 1_555
C28 C24 1_555 1_555
H14 C28 1_555 1_555
C29 C10 1_555 1_555
H15 C29 1_555 1_555
C30 C12 1_555 1_555
C31 C15 1_555 1_555
H16 C31 1_555 1_555
N5 C47 1_555 1_555
C32 C24 1_555 1_555
C33 C26 1_555 1_555
H17 C33 1_555 1_555
C34 H18 1_555 1_555
C35 C21 1_555 1_555
H19 C35 1_555 1_555
C36 C14 1_555 1_555
C37 C19 1_555 1_555
H20 C37 1_555 1_555
C38 C15 1_555 1_555
H21 C38 1_555 1_555
C39 C21 1_555 1_555
H22 C39 1_555 1_555
C40 H23 1_555 1_555
C41 C40 1_555 1_555
H24 C41 1_555 1_555
C42 C36 1_555 1_555
H25 C42 1_555 1_555
C43 N3 1_555 1_555
H26 C43 1_555 1_555
C44 C25 1_555 1_555
H27 C44 1_555 1_555
C45 C32 1_555 1_555
H28 C45 1_555 1_555
C46 N4 1_555 1_555
H29 C46 1_555 1_555
C47 C42 1_555 1_555
H30 C47 1_555 1_555
C48 C32 1_555 1_555
H31 C48 1_555 1_555
N6 C51 1_555 1_555
C49 C36 1_555 1_555
H32 C49 1_555 1_555
C50 N5 1_555 1_555
H33 C50 1_555 1_555
C51 C45 1_555 1_555
H34 C51 1_555 1_555
C52 C48 1_555 1_555
H35 C52 1_555 1_555
N1A C3A 1_555 1_555
N2A C8A 1_555 1_555
C1A C7 1_555 1_555
C2A C1A 1_555 1_555
H1A C2A 1_555 1_555
N3A C34A 1_555 1_555
C3A C1A 1_555 1_555
C4A C2A 1_555 1_555
H2A C4A 1_555 1_555
C5A C4A 1_555 1_555
N4A C41A 1_555 1_555
C6A C8 1_555 1_555
H3A C6A 1_555 1_555
C7A C1 1_555 1_555
C8A C6 1_555 1_555
C9A N1A 1_555 1_555
C10A N2A 1_555 1_555
C11A N1A 1_555 1_555
C12A H4A 1_555 1_555
C13A H5A 1_555 1_555
C14A C13A 1_555 1_555
C15A N2A 1_555 1_555
C16A C10A 1_555 1_555
H6A C16A 1_555 1_555
C17A C11A 1_555 1_555
H7A C17A 1_555 1_555
C18A C16A 1_555 1_555
H8A C18A 1_555 1_555
C19A C25A 1_555 1_555
C20A C14A 1_555 1_555
H9A C20A 1_555 1_555
C21A C30A 1_555 1_555
C22A C9A 1_555 1_555
H10A C22A 1_555 1_555
C23A C9A 1_555 1_555
H11A C23A 1_555 1_555
C24A C18A 1_555 1_555
C25A C40A 1_555 1_555
C26A C11A 1_555 1_555
H12A C26A 1_555 1_555
C27A C19A 1_555 1_555
H13A C27A 1_555 1_555
C28A C24A 1_555 1_555
H14A C28A 1_555 1_555
C29A C10A 1_555 1_555
H15A C29A 1_555 1_555
C30A C12A 1_555 1_555
C31A C15A 1_555 1_555
H16A C31A 1_555 1_555
N5A C47A 1_555 1_555
C32A C24A 1_555 1_555
C33A C26A 1_555 1_555
H17A C33A 1_555 1_555
C34A H18A 1_555 1_555
C35A C21A 1_555 1_555
H19A C35A 1_555 1_555
C36A C14A 1_555 1_555
C37A C19A 1_555 1_555
H20A C37A 1_555 1_555
C38A C15A 1_555 1_555
H21A C38A 1_555 1_555
C39A C21A 1_555 1_555
H22A C39A 1_555 1_555
C40A H23A 1_555 1_555
C41A C40A 1_555 1_555
H24A C41A 1_555 1_555
C42A C36A 1_555 1_555
H25A C42A 1_555 1_555
C43A N3A 1_555 1_555
H26A C43A 1_555 1_555
C44A C25A 1_555 1_555
H27A C44A 1_555 1_555
C45A C32A 1_555 1_555
H28A C45A 1_555 1_555
C46A N4A 1_555 1_555
H29A C46A 1_555 1_555
C47A C42A 1_555 1_555
H30A C47A 1_555 1_555
C48A C32A 1_555 1_555
H31A C48A 1_555 1_555
N6A C51A 1_555 1_555
C49A C36A 1_555 1_555
H32A C49A 1_555 1_555
C50A N5A 1_555 1_555
H33A C50A 1_555 1_555
C51A C45A 1_555 1_555
H34A C51A 1_555 1_555
C52A C48A 1_555 1_555
H35A C52A 1_555 1_555
C7 C7A 1_555 1_555
C12 C17 1_555 1_555
C13 C22 1_555 1_555
C20 C23 1_555 1_555
C27 C31 1_555 1_555
C28 C29 1_555 1_555
C30 C33 1_555 1_555
C34 C35 1_555 1_555
C37 C38 1_555 1_555
C39 C43 1_555 1_555
C44 C46 1_555 1_555
N6 C52 1_555 1_555
C49 C50 1_555 1_555
C3A C6A 1_555 1_555
C5A C7A 1_555 1_555
C5A C8A 1_555 1_555
C12A C17A 1_555 1_555
C13A C22A 1_555 1_555
C20A C23A 1_555 1_555
C27A C31A 1_555 1_555
C28A C29A 1_555 1_555
C30A C33A 1_555 1_555
C34A C35A 1_555 1_555
C37A C38A 1_555 1_555
C39A C43A 1_555 1_555
C44A C46A 1_555 1_555
N6A C52A 1_555 1_555
C49A C50A 1_555 1_555

#END
