
#######################################################################
#
#                 Cambridge Crystallographic Data Centre
#                                CCDC 
#
#######################################################################
#
# If this CIF has been generated from an entry in the Cambridge 
# Structural Database, then it will include bibliographic, chemical, 
# crystal, experimental, refinement or atomic coordinate data resulting 
# from the CCDC's data processing and validation procedures.
#
#######################################################################

data_NIHDUG
_chemical_formula_moiety         'C19 H21 N1 O1'
_chemical_name_systematic        
3-[(3,5-dimethylphenyl)methyl]-1,3-dimethyl-1,3-dihydro-2H-indol-2-one
_symmetry_cell_setting           monoclinic
_symmetry_space_group_name_H-M   'P 21'
_symmetry_Int_Tables_number      4
_space_group_name_Hall           'P 2yb'
loop_
_symmetry_equiv_pos_site_id
_symmetry_equiv_pos_as_xyz
1 x,y,z
2 -x,1/2+y,-z
_cell_length_a                   9.0808(3)
_cell_length_b                   14.9109(4)
_cell_length_c                   12.3558(4)
_cell_angle_alpha                90
_cell_angle_beta                 106.119(2)
_cell_angle_gamma                90
_cell_volume                     1607.24
_exptl_crystal_colour            colorless
_exptl_crystal_description       acicular
_cell_formula_units_Z            4
loop_
_atom_site_label
_atom_site_type_symbol
_atom_site_fract_x
_atom_site_fract_y
_atom_site_fract_z
O1 O 0.7258(3) 0.12519(18) 0.7303(3)
N1 N 0.6802(3) 0.17874(16) 0.5510(2)
C1 C 0.6853(5) 0.0938(3) 0.4945(4)
H1 H 0.6933 0.0456 0.5472
H2 H 0.7726 0.0930 0.4650
H3 H 0.5934 0.0868 0.4338
C2 C 0.6567(3) 0.26235(19) 0.4979(2)
C3 C 0.6330(3) 0.2817(3) 0.3849(3)
H4 H 0.6335 0.2369 0.3327
C4 C 0.6084(4) 0.3709(3) 0.3529(3)
H5 H 0.5909 0.3864 0.2775
C5 C 0.6096(3) 0.4361(3) 0.4301(3)
H6 H 0.5927 0.4953 0.4063
C6 C 0.6353(3) 0.4162(2) 0.5432(3)
H7 H 0.6365 0.4615 0.5951
C7 C 0.6590(3) 0.32836(18) 0.5777(2)
C8 C 0.6927(3) 0.28638(19) 0.6924(2)
C9 C 0.7021(3) 0.1870(2) 0.6644(3)
C10 C 0.8483(3) 0.3165(3) 0.7692(3)
H8 H 0.9263 0.3068 0.7315
H9 H 0.8721 0.2825 0.8378
H10 H 0.8440 0.3791 0.7862
C11 C 0.5697(3) 0.3037(2) 0.7546(2)
H11 H 0.6004 0.2726 0.8264
H12 H 0.5692 0.3674 0.7707
C12 C 0.4072(3) 0.27574(19) 0.6946(2)
C13 C 0.3532(3) 0.1911(2) 0.7117(2)
H13 H 0.4196 0.1503 0.7576
C14 C 0.2019(3) 0.1662(2) 0.6617(3)
C15 C 0.1429(4) 0.0758(2) 0.6836(4)
H14 H 0.0505 0.0831 0.7060
H15 H 0.2187 0.0462 0.7427
H16 H 0.1219 0.0403 0.6162
C16 C 0.1062(3) 0.2272(2) 0.5923(3)
H17 H 0.0051 0.2110 0.5582
C17 C 0.1555(3) 0.3116(2) 0.5717(3)
C18 C 0.0486(4) 0.3761(3) 0.4950(3)
H18 H 0.1032 0.4299 0.4879
H19 H -0.0345 0.3905 0.5259
H20 H 0.0088 0.3492 0.4221
C19 C 0.3069(3) 0.33496(19) 0.6242(2)
H21 H 0.3417 0.3916 0.6118
O2 O 0.7028(3) 0.54534(17) 0.7773(2)
N2 N 0.7336(3) 0.6950(2) 0.7504(2)
C20 C 0.7271(4) 0.6912(4) 0.6321(3)
H22 H 0.8270 0.7031 0.6232
H23 H 0.6560 0.7353 0.5915
H24 H 0.6941 0.6326 0.6031
C21 C 0.7572(3) 0.7727(2) 0.8169(3)
C22 C 0.7659(4) 0.8606(3) 0.7835(4)
H25 H 0.7586 0.8749 0.7089
C23 C 0.7856(4) 0.9256(3) 0.8639(6)
H26 H 0.7902 0.9852 0.8431
C24 C 0.7988(4) 0.9056(3) 0.9733(6)
H27 H 0.8130 0.9517 1.0259
C25 C 0.7914(3) 0.8167(3) 1.0086(4)
H28 H 0.8007 0.8031 1.0837
C26 C 0.7697(3) 0.7502(2) 0.9280(3)
C27 C 0.7562(3) 0.65030(19) 0.9355(2)
C28 C 0.7259(3) 0.6212(2) 0.8133(3)
C29 C 0.9099(3) 0.6082(3) 1.0025(3)
H29 H 0.9901 0.6281 0.9714
H30 H 0.9023 0.5441 0.9978
H31 H 0.9328 0.6264 1.0799
C30 C 0.6270(3) 0.6174(2) 0.9847(3)
H32 H 0.6291 0.5524 0.9863
H33 H 0.6497 0.6379 1.0621
C31 C 0.4664(3) 0.64691(19) 0.9236(2)
C32 C 0.4143(3) 0.7321(2) 0.9394(3)
H34 H 0.4815 0.7724 0.9855
C33 C 0.2652(3) 0.7588(2) 0.8884(3)
C34 C 0.2114(5) 0.8519(3) 0.9073(4)
H35 H 0.2977 0.8874 0.9471
H36 H 0.1391 0.8481 0.9509
H37 H 0.1634 0.8793 0.8360
C35 C 0.1663(3) 0.6974(2) 0.8209(3)
H38 H 0.0656 0.7143 0.7867
C36 C 0.2128(3) 0.6120(2) 0.8029(3)
C37 C 0.3640(4) 0.5880(2) 0.8549(3)
H39 H 0.3973 0.5308 0.8432
C38 C 0.1011(5) 0.5457(3) 0.7320(4)
H40 H 0.0294 0.5271 0.7719
H41 H 0.1560 0.4944 0.7168
H42 H 0.0468 0.5735 0.6622
loop_
_geom_bond_atom_site_label_1
_geom_bond_atom_site_label_2
_geom_bond_site_symmetry_1
_geom_bond_site_symmetry_2
O1 C9 1_555 1_555
N1 C1 1_555 1_555
C1 H1 1_555 1_555
H2 C1 1_555 1_555
H3 C1 1_555 1_555
C2 N1 1_555 1_555
C3 C2 1_555 1_555
H4 C3 1_555 1_555
C4 C3 1_555 1_555
H5 C4 1_555 1_555
C5 C4 1_555 1_555
H6 C5 1_555 1_555
C6 C5 1_555 1_555
H7 C6 1_555 1_555
C7 C2 1_555 1_555
C8 C7 1_555 1_555
C9 N1 1_555 1_555
C10 C8 1_555 1_555
H8 C10 1_555 1_555
H9 C10 1_555 1_555
H10 C10 1_555 1_555
C11 C8 1_555 1_555
H11 C11 1_555 1_555
H12 C11 1_555 1_555
C12 C11 1_555 1_555
C13 C12 1_555 1_555
H13 C13 1_555 1_555
C14 C13 1_555 1_555
C15 C14 1_555 1_555
H14 C15 1_555 1_555
H15 C15 1_555 1_555
H16 C15 1_555 1_555
C16 C14 1_555 1_555
H17 C16 1_555 1_555
C17 C16 1_555 1_555
C18 C17 1_555 1_555
H18 C18 1_555 1_555
H19 C18 1_555 1_555
H20 C18 1_555 1_555
C19 C12 1_555 1_555
H21 C19 1_555 1_555
O2 C28 1_555 1_555
N2 C20 1_555 1_555
C20 H22 1_555 1_555
H23 C20 1_555 1_555
H24 C20 1_555 1_555
C21 N2 1_555 1_555
C22 C21 1_555 1_555
H25 C22 1_555 1_555
C23 C22 1_555 1_555
H26 C23 1_555 1_555
C24 C23 1_555 1_555
H27 C24 1_555 1_555
C25 C24 1_555 1_555
H28 C25 1_555 1_555
C26 C21 1_555 1_555
C27 C26 1_555 1_555
C28 N2 1_555 1_555
C29 C27 1_555 1_555
H29 C29 1_555 1_555
H30 C29 1_555 1_555
H31 C29 1_555 1_555
C30 C27 1_555 1_555
H32 C30 1_555 1_555
H33 C30 1_555 1_555
C31 C30 1_555 1_555
C32 C31 1_555 1_555
H34 C32 1_555 1_555
C33 C32 1_555 1_555
C34 C33 1_555 1_555
H35 C34 1_555 1_555
H36 C34 1_555 1_555
H37 C34 1_555 1_555
C35 C33 1_555 1_555
H38 C35 1_555 1_555
C36 C35 1_555 1_555
C37 C31 1_555 1_555
H39 C37 1_555 1_555
C38 C36 1_555 1_555
H40 C38 1_555 1_555
H41 C38 1_555 1_555
H42 C38 1_555 1_555
C6 C7 1_555 1_555
C8 C9 1_555 1_555
C17 C19 1_555 1_555
C25 C26 1_555 1_555
C27 C28 1_555 1_555
C36 C37 1_555 1_555

#END
