
#######################################################################
#
#                 Cambridge Crystallographic Data Centre
#                                CCDC 
#
#######################################################################
#
# If this CIF has been generated from an entry in the Cambridge 
# Structural Database, then it will include bibliographic, chemical, 
# crystal, experimental, refinement or atomic coordinate data resulting 
# from the CCDC's data processing and validation procedures.
#
#######################################################################

data_NIHGUI
_chemical_formula_moiety         'C28 H24 O5'
_chemical_name_systematic        
Phenyl(1-(3,4,5-trimethoxyphenyl)-1,2-dihydronaphtho[2,1-b]furan-2-yl)methanone
_symmetry_cell_setting           monoclinic
_symmetry_space_group_name_H-M   'P 21/c'
_symmetry_Int_Tables_number      14
_space_group_name_Hall           '-P 2ybc'
loop_
_symmetry_equiv_pos_site_id
_symmetry_equiv_pos_as_xyz
1 x,y,z
2 -x,1/2+y,1/2-z
3 -x,-y,-z
4 x,1/2-y,1/2+z
_cell_length_a                   15.598(8)
_cell_length_b                   5.885(7)
_cell_length_c                   24.320(3)
_cell_angle_alpha                90
_cell_angle_beta                 99.165(10)
_cell_angle_gamma                90
_cell_volume                     2203.94
_exptl_crystal_colour            colorless
_exptl_crystal_description       block
_cell_formula_units_Z            4
loop_
_atom_site_label
_atom_site_type_symbol
_atom_site_fract_x
_atom_site_fract_y
_atom_site_fract_z
C1 C 0.32094(14) 0.6226(4) 0.04058(9)
H1 H 0.3143 0.5290 0.0094
C2 C 0.39329(14) 0.5991(4) 0.08177(9)
C3 C 0.40199(14) 0.7324(4) 0.12986(9)
C4 C 0.33872(14) 0.8918(4) 0.13509(9)
C5 C 0.26843(14) 0.9219(4) 0.09305(9)
H2 H 0.2276 1.0341 0.0964
C6 C 0.25901(14) 0.7851(4) 0.04610(9)
C7 C 0.44977(19) 0.2794(5) 0.03913(13)
H3 H 0.3997 0.1903 0.0435
H4 H 0.5004 0.1840 0.0441
H5 H 0.4417 0.3446 0.0025
C8 C 0.4801(2) 0.5220(5) 0.20375(13)
H6 H 0.4323 0.5186 0.2242
H7 H 0.5338 0.5249 0.2293
H8 H 0.4783 0.3891 0.1807
C9 C 0.28693(18) 1.1733(5) 0.19099(12)
H9 H 0.2834 1.2868 0.1624
H10 H 0.3014 1.2444 0.2268
H11 H 0.2320 1.0976 0.1887
C10 C 0.17833(13) 0.8186(4) 0.00212(9)
H12 H 0.1607 0.9785 0.0016
C11 C 0.19002(13) 0.7476(4) -0.05569(9)
C12 C 0.24594(14) 0.8350(4) -0.09086(9)
C13 C 0.29933(16) 1.0271(4) -0.07727(10)
H13 H 0.2971 1.1053 -0.0443
C14 C 0.35399(18) 1.0985(5) -0.11209(12)
H14 H 0.3892 1.2246 -0.1026
C15 C 0.35755(19) 0.9839(6) -0.16185(12)
H15 H 0.3957 1.0329 -0.1851
C16 C 0.30610(18) 0.8024(6) -0.17653(11)
H16 H 0.3084 0.7302 -0.2103
C17 C 0.24899(15) 0.7204(5) -0.14165(10)
C18 C 0.19701(17) 0.5272(5) -0.15516(10)
H17 H 0.1994 0.4530 -0.1887
C19 C 0.14348(16) 0.4449(5) -0.12103(10)
H18 H 0.1092 0.3172 -0.1306
C20 C 0.14193(14) 0.5600(4) -0.07097(9)
C21 C 0.09871(14) 0.6642(4) 0.00946(9)
H19 H 0.0458 0.7564 0.0023
C22 C 0.10405(14) 0.5555(4) 0.06610(10)
C23 C 0.08501(14) 0.6943(4) 0.11360(9)
C24 C 0.04292(16) 0.9012(4) 0.10735(11)
H20 H 0.0255 0.9604 0.0719
C25 C 0.02640(18) 1.0210(5) 0.15336(13)
H21 H -0.0026 1.1594 0.1488
C26 C 0.05269(19) 0.9363(6) 0.20547(13)
H22 H 0.0419 1.0179 0.2364
C27 C 0.09481(19) 0.7323(6) 0.21256(12)
H23 H 0.1131 0.6761 0.2482
C28 C 0.11008(16) 0.6104(5) 0.16700(10)
H24 H 0.1376 0.4699 0.1720
O1 O 0.46075(11) 0.4543(3) 0.07920(7)
O2 O 0.47408(10) 0.7171(3) 0.17017(7)
O3 O 0.35173(11) 1.0132(3) 0.18377(7)
O4 O 0.09316(10) 0.4883(3) -0.03203(6)
O5 O 0.12524(12) 0.3585(3) 0.07251(7)
loop_
_geom_bond_atom_site_label_1
_geom_bond_atom_site_label_2
_geom_bond_site_symmetry_1
_geom_bond_site_symmetry_2
C1 H1 1_555 1_555
C2 C1 1_555 1_555
C3 C2 1_555 1_555
C4 C3 1_555 1_555
C5 C4 1_555 1_555
H2 C5 1_555 1_555
C6 C1 1_555 1_555
C7 H3 1_555 1_555
H4 C7 1_555 1_555
H5 C7 1_555 1_555
C8 H6 1_555 1_555
H7 C8 1_555 1_555
H8 C8 1_555 1_555
C9 H9 1_555 1_555
H10 C9 1_555 1_555
H11 C9 1_555 1_555
C10 C6 1_555 1_555
H12 C10 1_555 1_555
C11 C10 1_555 1_555
C12 C11 1_555 1_555
C13 C12 1_555 1_555
H13 C13 1_555 1_555
C14 C13 1_555 1_555
H14 C14 1_555 1_555
C15 C14 1_555 1_555
H15 C15 1_555 1_555
C16 C15 1_555 1_555
H16 C16 1_555 1_555
C17 C12 1_555 1_555
C18 C17 1_555 1_555
H17 C18 1_555 1_555
C19 C18 1_555 1_555
H18 C19 1_555 1_555
C20 C11 1_555 1_555
C21 C10 1_555 1_555
H19 C21 1_555 1_555
C22 C21 1_555 1_555
C23 C22 1_555 1_555
C24 C23 1_555 1_555
H20 C24 1_555 1_555
C25 C24 1_555 1_555
H21 C25 1_555 1_555
C26 C25 1_555 1_555
H22 C26 1_555 1_555
C27 C26 1_555 1_555
H23 C27 1_555 1_555
C28 C23 1_555 1_555
H24 C28 1_555 1_555
O1 C2 1_555 1_555
O2 C3 1_555 1_555
O3 C4 1_555 1_555
O4 C20 1_555 1_555
O5 C22 1_555 1_555
C5 C6 1_555 1_555
C7 O1 1_555 1_555
C8 O2 1_555 1_555
C9 O3 1_555 1_555
C16 C17 1_555 1_555
C19 C20 1_555 1_555
C21 O4 1_555 1_555
C27 C28 1_555 1_555

#END
