
#######################################################################
#
#                 Cambridge Crystallographic Data Centre
#                                CCDC 
#
#######################################################################
#
# If this CIF has been generated from an entry in the Cambridge 
# Structural Database, then it will include bibliographic, chemical, 
# crystal, experimental, refinement or atomic coordinate data resulting 
# from the CCDC's data processing and validation procedures.
#
#######################################################################

data_NIHSAA
_chemical_formula_moiety         'C18 H14 O3'
_chemical_name_systematic        
5-(4-Methyl-5-phenyl-2-furyl)-1,3-benzodioxole
_symmetry_cell_setting           monoclinic
_symmetry_space_group_name_H-M   'P 21/n'
_symmetry_Int_Tables_number      14
_space_group_name_Hall           '-P 2yn'
loop_
_symmetry_equiv_pos_site_id
_symmetry_equiv_pos_as_xyz
1 x,y,z
2 1/2-x,1/2+y,1/2-z
3 -x,-y,-z
4 1/2+x,1/2-y,1/2+z
_cell_length_a                   5.5563(5)
_cell_length_b                   23.1971(19)
_cell_length_c                   10.5069(8)
_cell_angle_alpha                90
_cell_angle_beta                 96.804(9)
_cell_angle_gamma                90
_cell_volume                     1344.7
_exptl_crystal_colour            colorless
_exptl_crystal_description       block
_cell_formula_units_Z            4
loop_
_atom_site_label
_atom_site_type_symbol
_atom_site_fract_x
_atom_site_fract_y
_atom_site_fract_z
O1 O 0.7809(2) 0.03434(6) -0.15577(11)
O2 O 1.1292(2) 0.08729(6) -0.17454(12)
O3 O 0.7983(2) 0.14414(4) 0.37341(10)
C1 C 0.9650(3) 0.04569(8) -0.23653(17)
H1 H 0.8910 0.0608 -0.3203
H2 H 1.0529 0.0097 -0.2517
C2 C 1.0488(3) 0.09809(7) -0.05793(16)
C3 C 1.1447(3) 0.13486(8) 0.03637(17)
H3 H 1.2844 0.1574 0.0272
C4 C 1.0279(3) 0.13784(7) 0.14677(16)
H4 H 1.0913 0.1627 0.2144
C5 C 0.8216(3) 0.10550(7) 0.16107(15)
C6 C 0.7239(3) 0.06888(7) 0.06018(15)
H5 H 0.5819 0.0467 0.0664
C7 C 0.8421(3) 0.06669(7) -0.04636(15)
C8 C 0.7081(3) 0.10636(7) 0.27859(15)
C9 C 0.5259(3) 0.07557(7) 0.31992(15)
H6 H 0.4334 0.0466 0.2727
C10 C 0.4964(3) 0.09400(7) 0.44640(16)
C11 C 0.6660(3) 0.13623(7) 0.47625(15)
C12 C 0.7388(3) 0.17263(7) 0.58792(15)
C13 C 0.9445(3) 0.20758(7) 0.59267(17)
H7 H 1.0354 0.2086 0.5216
C14 C 1.0172(3) 0.24069(7) 0.69957(18)
H8 H 1.1571 0.2643 0.7009
C15 C 0.8896(4) 0.23992(7) 0.80421(18)
H9 H 0.9416 0.2625 0.8778
C16 C 0.6845(4) 0.20575(8) 0.80055(17)
H10 H 0.5948 0.2051 0.8721
C17 C 0.6089(3) 0.17262(7) 0.69383(16)
H11 H 0.4671 0.1496 0.6926
C18 C 0.3143(3) 0.06961(8) 0.52635(17)
H12 H 0.3962 0.0584 0.6104
H13 H 0.2368 0.0357 0.4834
H14 H 0.1909 0.0988 0.5374
loop_
_geom_bond_atom_site_label_1
_geom_bond_atom_site_label_2
_geom_bond_site_symmetry_1
_geom_bond_site_symmetry_2
O1 C1 1_555 1_555
O2 C1 1_555 1_555
O3 C8 1_555 1_555
C1 H1 1_555 1_555
H2 C1 1_555 1_555
C2 O2 1_555 1_555
C3 C2 1_555 1_555
H3 C3 1_555 1_555
C4 C3 1_555 1_555
H4 C4 1_555 1_555
C5 C4 1_555 1_555
C6 C5 1_555 1_555
H5 C6 1_555 1_555
C7 O1 1_555 1_555
C8 C5 1_555 1_555
C9 C8 1_555 1_555
H6 C9 1_555 1_555
C10 C9 1_555 1_555
C11 O3 1_555 1_555
C12 C11 1_555 1_555
C13 C12 1_555 1_555
H7 C13 1_555 1_555
C14 C13 1_555 1_555
H8 C14 1_555 1_555
C15 C14 1_555 1_555
H9 C15 1_555 1_555
C16 C15 1_555 1_555
H10 C16 1_555 1_555
C17 C12 1_555 1_555
H11 C17 1_555 1_555
C18 C10 1_555 1_555
H12 C18 1_555 1_555
H13 C18 1_555 1_555
H14 C18 1_555 1_555
C2 C7 1_555 1_555
C6 C7 1_555 1_555
C10 C11 1_555 1_555
C16 C17 1_555 1_555

#END
