
#######################################################################
#
#                 Cambridge Crystallographic Data Centre
#                                CCDC 
#
#######################################################################
#
# If this CIF has been generated from an entry in the Cambridge 
# Structural Database, then it will include bibliographic, chemical, 
# crystal, experimental, refinement or atomic coordinate data resulting 
# from the CCDC's data processing and validation procedures.
#
#######################################################################

data_NIHSUU
_chemical_formula_moiety         'C28 H22 N2 O1'
_chemical_name_systematic        
N'-(1,3,3-Triphenylprop-2-en-1-ylidene)benzohydrazide
_symmetry_cell_setting           triclinic
_symmetry_space_group_name_H-M   'P -1'
_symmetry_Int_Tables_number      2
_space_group_name_Hall           '-P 1'
loop_
_symmetry_equiv_pos_site_id
_symmetry_equiv_pos_as_xyz
1 x,y,z
2 -x,-y,-z
_cell_length_a                   10.7757(6)
_cell_length_b                   11.1883(7)
_cell_length_c                   19.7287(12)
_cell_angle_alpha                80.672(3)
_cell_angle_beta                 74.688(3)
_cell_angle_gamma                68.604(2)
_cell_volume                     2130.26
_exptl_crystal_colour            colorless
_exptl_crystal_description       plate
_cell_formula_units_Z            4
loop_
_atom_site_label
_atom_site_type_symbol
_atom_site_fract_x
_atom_site_fract_y
_atom_site_fract_z
C1 C 1.03915(15) 0.16911(15) 0.09979(9)
C2 C 0.92958(15) 0.12938(16) 0.08607(9)
C3 C 0.94326(18) 0.00040(17) 0.09974(10)
H1 H 1.0182 -0.0579 0.1181
C4 C 0.84781(19) -0.04388(18) 0.08666(11)
H2 H 0.8566 -0.1321 0.0970
C5 C 0.74051(17) 0.03931(18) 0.05876(10)
H3 H 0.6755 0.0084 0.0498
C6 C 0.72721(17) 0.16680(18) 0.04382(10)
H4 H 0.6534 0.2238 0.0241
C7 C 0.82123(16) 0.21305(17) 0.05735(10)
H5 H 0.8116 0.3015 0.0470
C8 C 1.07623(14) 0.46778(15) 0.10340(8)
C9 C 1.18914(15) 0.51359(15) 0.10466(9)
C10 C 1.32503(15) 0.43132(16) 0.09144(9)
H6 H 1.3467 0.3451 0.0810
C11 C 1.42814(16) 0.47605(17) 0.09355(9)
H7 H 1.5204 0.4199 0.0846
C12 C 1.39816(16) 0.60113(16) 0.10843(10)
H8 H 1.4696 0.6309 0.1097
C13 C 1.26422(17) 0.68298(17) 0.12149(10)
H9 H 1.2431 0.7692 0.1318
C14 C 1.16021(16) 0.63896(16) 0.11948(10)
H10 H 1.0681 0.6956 0.1284
C15 C 0.94273(15) 0.56729(15) 0.09718(9)
H11 H 0.9438 0.6280 0.0575
C16 C 0.82035(15) 0.58117(15) 0.14134(9)
C17 C 0.69594(14) 0.68824(14) 0.12710(9)
C18 C 0.67837(15) 0.73041(15) 0.05872(9)
H12 H 0.7461 0.6895 0.0199
C19 C 0.56287(16) 0.83164(16) 0.04674(10)
H13 H 0.5519 0.8591 -0.0001
C20 C 0.46320(16) 0.89309(16) 0.10281(10)
H14 H 0.3840 0.9620 0.0945
C21 C 0.48061(16) 0.85273(16) 0.17081(10)
H15 H 0.4136 0.8951 0.2094
C22 C 0.59520(16) 0.75084(16) 0.18298(9)
H16 H 0.6053 0.7233 0.2300
C23 C 0.80244(15) 0.49503(15) 0.20626(9)
C24 C 0.88890(17) 0.46382(17) 0.25315(9)
H17 H 0.9600 0.4992 0.2443
C25 C 0.87076(18) 0.38118(19) 0.31257(10)
H18 H 0.9296 0.3601 0.3443
C26 C 0.7674(2) 0.32932(19) 0.32573(10)
H19 H 0.7563 0.2720 0.3662
C27 C 0.68054(19) 0.36044(18) 0.28030(10)
H20 H 0.6094 0.3250 0.2896
C28 C 0.69724(17) 0.44328(17) 0.22120(10)
H21 H 0.6365 0.4653 0.1904
N1 N 1.01018(13) 0.29905(13) 0.09788(8)
H22 H 0.925(2) 0.3529(18) 0.0964(10)
N2 N 1.10808(12) 0.34507(13) 0.10392(7)
O1 O 1.14634(12) 0.09099(11) 0.11102(8)
C29 C 0.88418(15) 0.28903(15) 0.52072(9)
C30 C 0.83223(15) 0.35712(16) 0.58727(9)
C31 C 0.7496(2) 0.3209(2) 0.64769(10)
H23 H 0.7269 0.2460 0.6490
C32 C 0.6999(2) 0.3923(2) 0.70584(11)
H24 H 0.6425 0.3667 0.7466
C33 C 0.73297(18) 0.50031(18) 0.70527(10)
H25 H 0.6987 0.5494 0.7454
C34 C 0.8159(2) 0.53623(19) 0.64621(11)
H26 H 0.8400 0.6102 0.6455
C35 C 0.86476(19) 0.46546(18) 0.58762(10)
H27 H 0.9216 0.4918 0.5469
C36 C 0.84350(15) 0.01861(16) 0.47101(9)
C37 C 0.87782(15) -0.04866(16) 0.40601(9)
C38 C 0.95281(18) -0.00870(18) 0.34292(10)
H28 H 0.9832 0.0615 0.3416
C39 C 0.9830(2) -0.0704(2) 0.28262(11)
H29 H 1.0341 -0.0426 0.2400
C40 C 0.9390(2) -0.1729(2) 0.28388(11)
H30 H 0.9599 -0.2151 0.2421
C41 C 0.86517(18) -0.21361(19) 0.34549(11)
H31 H 0.8355 -0.2842 0.3464
C42 C 0.83386(16) -0.15129(17) 0.40657(10)
H32 H 0.7821 -0.1791 0.4489
C43 C 0.78363(16) -0.03946(16) 0.53878(9)
H33 H 0.8378 -0.1226 0.5541
C44 C 0.66014(15) 0.01373(15) 0.58088(9)
C45 C 0.61885(16) -0.04803(15) 0.65166(9)
C46 C 0.71530(17) -0.11713(16) 0.69204(9)
H34 H 0.8086 -0.1253 0.6737
C47 C 0.67673(19) -0.17353(17) 0.75809(10)
H35 H 0.7432 -0.2199 0.7849
C48 C 0.54104(19) -0.16240(18) 0.78514(10)
H36 H 0.5146 -0.2016 0.8305
C49 C 0.44369(18) -0.09432(17) 0.74633(10)
H37 H 0.3506 -0.0870 0.7650
C50 C 0.48212(17) -0.03703(17) 0.68038(9)
H38 H 0.4147 0.0104 0.6543
C51 C 0.56114(15) 0.13772(16) 0.55863(9)
C52 C 0.53552(17) 0.16060(19) 0.49127(10)
H39 H 0.5774 0.0946 0.4594
C53 C 0.4491(2) 0.2795(2) 0.47053(12)
H40 H 0.4310 0.2942 0.4248
C54 C 0.3892(2) 0.3768(2) 0.51621(14)
H41 H 0.3324 0.4589 0.5013
C55 C 0.4122(2) 0.35441(19) 0.58339(13)
H42 H 0.3703 0.4209 0.6150
C56 C 0.49577(17) 0.23563(17) 0.60485(11)
H43 H 0.5090 0.2203 0.6516
N3 N 0.84571(14) 0.18433(14) 0.52311(8)
H44 H 0.801(2) 0.158(2) 0.5643(12)
N4 N 0.87719(13) 0.12046(13) 0.46375(7)
O2 O 0.95391(12) 0.32553(12) 0.46797(6)
loop_
_geom_bond_atom_site_label_1
_geom_bond_atom_site_label_2
_geom_bond_site_symmetry_1
_geom_bond_site_symmetry_2
C1 C2 1_555 1_555
C2 C3 1_555 1_555
C3 H1 1_555 1_555
C4 C3 1_555 1_555
H2 C4 1_555 1_555
C5 C4 1_555 1_555
H3 C5 1_555 1_555
C6 C5 1_555 1_555
H4 C6 1_555 1_555
C7 C2 1_555 1_555
H5 C7 1_555 1_555
C8 C9 1_555 1_555
C9 C10 1_555 1_555
C10 H6 1_555 1_555
C11 C10 1_555 1_555
H7 C11 1_555 1_555
C12 C11 1_555 1_555
H8 C12 1_555 1_555
C13 C12 1_555 1_555
H9 C13 1_555 1_555
C14 C9 1_555 1_555
H10 C14 1_555 1_555
C15 C8 1_555 1_555
H11 C15 1_555 1_555
C16 C15 1_555 1_555
C17 C16 1_555 1_555
C18 C17 1_555 1_555
H12 C18 1_555 1_555
C19 C18 1_555 1_555
H13 C19 1_555 1_555
C20 C19 1_555 1_555
H14 C20 1_555 1_555
C21 C20 1_555 1_555
H15 C21 1_555 1_555
C22 C17 1_555 1_555
H16 C22 1_555 1_555
C23 C16 1_555 1_555
C24 C23 1_555 1_555
H17 C24 1_555 1_555
C25 C24 1_555 1_555
H18 C25 1_555 1_555
C26 C25 1_555 1_555
H19 C26 1_555 1_555
C27 C26 1_555 1_555
H20 C27 1_555 1_555
C28 C23 1_555 1_555
H21 C28 1_555 1_555
N1 C1 1_555 1_555
H22 N1 1_555 1_555
N2 C8 1_555 1_555
O1 C1 1_555 1_555
C29 C30 1_555 1_555
C30 C31 1_555 1_555
C31 H23 1_555 1_555
C32 C31 1_555 1_555
H24 C32 1_555 1_555
C33 C32 1_555 1_555
H25 C33 1_555 1_555
C34 C33 1_555 1_555
H26 C34 1_555 1_555
C35 C30 1_555 1_555
H27 C35 1_555 1_555
C36 C37 1_555 1_555
C37 C38 1_555 1_555
C38 H28 1_555 1_555
C39 C38 1_555 1_555
H29 C39 1_555 1_555
C40 C39 1_555 1_555
H30 C40 1_555 1_555
C41 C40 1_555 1_555
H31 C41 1_555 1_555
C42 C37 1_555 1_555
H32 C42 1_555 1_555
C43 C36 1_555 1_555
H33 C43 1_555 1_555
C44 C43 1_555 1_555
C45 C44 1_555 1_555
C46 C45 1_555 1_555
H34 C46 1_555 1_555
C47 C46 1_555 1_555
H35 C47 1_555 1_555
C48 C47 1_555 1_555
H36 C48 1_555 1_555
C49 C48 1_555 1_555
H37 C49 1_555 1_555
C50 C45 1_555 1_555
H38 C50 1_555 1_555
C51 C44 1_555 1_555
C52 C51 1_555 1_555
H39 C52 1_555 1_555
C53 C52 1_555 1_555
H40 C53 1_555 1_555
C54 C53 1_555 1_555
H41 C54 1_555 1_555
C55 C54 1_555 1_555
H42 C55 1_555 1_555
C56 C51 1_555 1_555
H43 C56 1_555 1_555
N3 C29 1_555 1_555
H44 N3 1_555 1_555
N4 C36 1_555 1_555
O2 C29 1_555 1_555
C6 C7 1_555 1_555
C13 C14 1_555 1_555
C21 C22 1_555 1_555
C27 C28 1_555 1_555
N1 N2 1_555 1_555
C34 C35 1_555 1_555
C41 C42 1_555 1_555
C49 C50 1_555 1_555
C55 C56 1_555 1_555
N3 N4 1_555 1_555

#END
