
#######################################################################
#
#                 Cambridge Crystallographic Data Centre
#                                CCDC 
#
#######################################################################
#
# If this CIF has been generated from an entry in the Cambridge 
# Structural Database, then it will include bibliographic, chemical, 
# crystal, experimental, refinement or atomic coordinate data resulting 
# from the CCDC's data processing and validation procedures.
#
#######################################################################

data_NIHTAB
_chemical_formula_moiety         'C27 H22 N2'
_chemical_name_systematic        1,3,5,5-Tetraphenyl-4,5-dihydro-1H-pyrazole
_symmetry_cell_setting           monoclinic
_symmetry_space_group_name_H-M   'C 2/c'
_symmetry_Int_Tables_number      15
_space_group_name_Hall           '-C 2yn'
loop_
_symmetry_equiv_pos_site_id
_symmetry_equiv_pos_as_xyz
1 x,y,z
2 -x,y,1/2-z
3 1/2+x,1/2+y,z
4 1/2-x,1/2+y,1/2-z
5 -x,-y,-z
6 x,-y,1/2+z
7 1/2-x,1/2-y,-z
8 1/2+x,1/2-y,1/2+z
_cell_length_a                   35.073(4)
_cell_length_b                   8.2110(9)
_cell_length_c                   14.1590(14)
_cell_angle_alpha                90
_cell_angle_beta                 106.809(3)
_cell_angle_gamma                90
_cell_volume                     3903.35
_exptl_crystal_colour            yellow
_exptl_crystal_description       block
_cell_formula_units_Z            8
loop_
_atom_site_label
_atom_site_type_symbol
_atom_site_fract_x
_atom_site_fract_y
_atom_site_fract_z
C1 C 0.10783(4) 0.62385(17) 0.76973(10)
C2 C 0.16998(4) 0.65666(16) 0.73280(11)
C3 C 0.13094(4) 0.56764(18) 0.69630(11)
H1 H 0.1350 0.4482 0.6992
H2 H 0.1166 0.5994 0.6278
C4 C 0.07182(4) 0.72590(18) 0.71481(10)
C5 C 0.06819(5) 0.89001(19) 0.73482(11)
H3 H 0.0887 0.9426 0.7842
C6 C 0.03474(5) 0.9780(2) 0.68310(12)
H4 H 0.0326 1.0900 0.6975
C7 C 0.00472(5) 0.9033(2) 0.61095(12)
H5 H -0.0183 0.9632 0.5767
C8 C 0.00825(4) 0.7408(2) 0.58872(12)
H6 H -0.0122 0.6893 0.5387
C9 C 0.04173(4) 0.6532(2) 0.63959(11)
H7 H 0.0442 0.5424 0.6231
C10 C 0.09710(4) 0.47818(17) 0.82516(10)
C11 C 0.05871(4) 0.44841(18) 0.83091(11)
H8 H 0.0374 0.5168 0.7964
C12 C 0.05140(5) 0.31901(19) 0.88696(12)
H9 H 0.0251 0.2993 0.8898
C13 C 0.08199(5) 0.21938(19) 0.93836(13)
H10 H 0.0769 0.1324 0.9772
C14 C 0.12033(5) 0.24705(19) 0.93297(13)
H11 H 0.1415 0.1781 0.9676
C15 C 0.12769(4) 0.37542(18) 0.87701(12)
H12 H 0.1541 0.3937 0.8739
C16 C 0.13970(4) 0.77818(16) 0.93401(10)
C17 C 0.10556(4) 0.77236(17) 0.96677(11)
H13 H 0.0813 0.7301 0.9249
C18 C 0.10728(5) 0.82836(18) 1.06040(11)
H14 H 0.0842 0.8217 1.0824
C19 C 0.14180(5) 0.89361(19) 1.12236(12)
H15 H 0.1425 0.9330 1.1859
C20 C 0.17553(5) 0.90028(18) 1.08949(11)
H16 H 0.1995 0.9450 1.1313
C21 C 0.17481(4) 0.84291(17) 0.99692(11)
H17 H 0.1982 0.8476 0.9761
C22 C 0.20215(4) 0.65082(16) 0.68597(10)
C23 C 0.23600(4) 0.74788(18) 0.72066(11)
H18 H 0.2380 0.8202 0.7743
C24 C 0.26665(4) 0.73928(19) 0.67717(11)
H19 H 0.2896 0.8059 0.7011
C25 C 0.26402(4) 0.63411(18) 0.59907(12)
H20 H 0.2852 0.6280 0.5698
C26 C 0.23056(4) 0.53799(18) 0.56374(11)
H21 H 0.2287 0.4664 0.5099
C27 C 0.19968(4) 0.54587(17) 0.60681(10)
H22 H 0.1768 0.4795 0.5823
N1 N 0.13872(3) 0.72598(15) 0.83922(9)
N2 N 0.17331(3) 0.73899(14) 0.81221(9)
loop_
_geom_bond_atom_site_label_1
_geom_bond_atom_site_label_2
_geom_bond_site_symmetry_1
_geom_bond_site_symmetry_2
C1 C3 1_555 1_555
C2 C3 1_555 1_555
C3 H1 1_555 1_555
H2 C3 1_555 1_555
C4 C1 1_555 1_555
C5 C4 1_555 1_555
H3 C5 1_555 1_555
C6 C5 1_555 1_555
H4 C6 1_555 1_555
C7 C6 1_555 1_555
H5 C7 1_555 1_555
C8 C7 1_555 1_555
H6 C8 1_555 1_555
C9 C4 1_555 1_555
H7 C9 1_555 1_555
C10 C1 1_555 1_555
C11 C10 1_555 1_555
H8 C11 1_555 1_555
C12 C11 1_555 1_555
H9 C12 1_555 1_555
C13 C12 1_555 1_555
H10 C13 1_555 1_555
C14 C13 1_555 1_555
H11 C14 1_555 1_555
C15 C10 1_555 1_555
H12 C15 1_555 1_555
C16 C17 1_555 1_555
C17 H13 1_555 1_555
C18 C17 1_555 1_555
H14 C18 1_555 1_555
C19 C18 1_555 1_555
H15 C19 1_555 1_555
C20 C19 1_555 1_555
H16 C20 1_555 1_555
C21 C16 1_555 1_555
H17 C21 1_555 1_555
C22 C2 1_555 1_555
C23 C22 1_555 1_555
H18 C23 1_555 1_555
C24 C23 1_555 1_555
H19 C24 1_555 1_555
C25 C24 1_555 1_555
H20 C25 1_555 1_555
C26 C25 1_555 1_555
H21 C26 1_555 1_555
C27 C22 1_555 1_555
H22 C27 1_555 1_555
N1 C1 1_555 1_555
N2 C2 1_555 1_555
C8 C9 1_555 1_555
C14 C15 1_555 1_555
C16 N1 1_555 1_555
C20 C21 1_555 1_555
C26 C27 1_555 1_555
N1 N2 1_555 1_555

#END
