
#######################################################################
#
#                 Cambridge Crystallographic Data Centre
#                                CCDC 
#
#######################################################################
#
# If this CIF has been generated from an entry in the Cambridge 
# Structural Database, then it will include bibliographic, chemical, 
# crystal, experimental, refinement or atomic coordinate data resulting 
# from the CCDC's data processing and validation procedures.
#
#######################################################################

data_NIHZAF
_chemical_formula_moiety         'C24 H28 Br2 O2'
_chemical_name_systematic        
(1\a,8\a,9\a,13\a,14\a,15\a,16\a,17\a,18\a,19\a,20\a,20\a,24\a,25\a,26\a)-endo-2,endo-7-Dibromo-11,22-dioxadecacyclo-(13.9.2.0^3,19^.0^4,25^.0^5,17^.0^6,14^.0^8,16^.0^9,13^.0^18,26^.0^20,24^)-hexaeicosane
_symmetry_cell_setting           orthorhombic
_symmetry_space_group_name_H-M   'P b c a'
_symmetry_Int_Tables_number      61
_space_group_name_Hall           '-P 2ac 2ab'
loop_
_symmetry_equiv_pos_site_id
_symmetry_equiv_pos_as_xyz
1 x,y,z
2 1/2-x,-y,1/2+z
3 1/2+x,1/2-y,-z
4 -x,1/2+y,1/2-z
5 -x,-y,-z
6 1/2+x,y,1/2-z
7 1/2-x,1/2+y,z
8 x,1/2-y,1/2+z
_cell_length_a                   11.403(5)
_cell_length_b                   15.0307(21)
_cell_length_c                   23.192(9)
_cell_angle_alpha                90
_cell_angle_beta                 90
_cell_angle_gamma                90
_cell_volume                     3974.99
_exptl_crystal_colour            white
_chemical_melting_point          213-214deg.C
_cell_formula_units_Z            8
loop_
_atom_site_label
_atom_site_type_symbol
_atom_site_fract_x
_atom_site_fract_y
_atom_site_fract_z
Br1 Br 0.17894(7) 0.40879(7) 0.18348(4)
Br2 Br -0.50674(7) 0.41078(6) 0.12699(4)
O1 O 0.1070(4) 0.6696(3) 0.27650(22)
O2 O -0.4060(5) 0.2511(4) -0.0321(3)
C1 C 0.0686(5) 0.5080(4) 0.1985(3)
C2 C 0.0656(5) 0.5777(5) 0.1508(3)
C3 C -0.0347(5) 0.5547(4) 0.10796(25)
C4 C -0.0434(5) 0.4563(4) 0.0963(3)
C5 C -0.0935(5) 0.4176(4) 0.15473(25)
C6 C -0.0578(5) 0.4785(4) 0.2052(3)
C7 C -0.1311(5) 0.5660(4) 0.20154(25)
C8 C -0.1546(5) 0.5775(4) 0.13741(24)
C9 C -0.2491(5) 0.5129(4) 0.1161(3)
C10 C -0.2273(5) 0.4205(4) 0.14564(25)
C11 C -0.2672(5) 0.3467(4) 0.10268(25)
C12 C -0.1749(5) 0.3408(4) 0.0534(3)
C13 C -0.1284(5) 0.4354(4) 0.04853(25)
C14 C -0.2399(6) 0.4939(4) 0.05280(25)
C15 C -0.3473(6) 0.4426(4) 0.0295(3)
C16 C -0.3806(5) 0.3727(4) 0.0738(3)
C17 C -0.0161(6) 0.6560(4) 0.2814(3)
C18 C -0.0677(5) 0.6507(4) 0.2214(3)
C19 C 0.0376(6) 0.6677(4) 0.1802(3)
C20 C 0.1305(6) 0.7039(5) 0.2216(3)
C21 C -0.2926(7) 0.2306(5) -0.0140(3)
C22 C -0.2244(6) 0.3174(4) -0.0064(3)
C23 C -0.3119(7) 0.3907(4) -0.0246(3)
C24 C -0.4095(8) 0.3372(6) -0.0548(4)
H1 H 0.095 0.534 0.233
H2 H 0.139 0.580 0.131
H3 H -0.026 0.588 0.073
H4 H 0.031 0.432 0.089
H5 H -0.067 0.358 0.161
H6 H -0.070 0.449 0.241
H7 H -0.203 0.559 0.222
H8 H -0.177 0.637 0.129
H9 H -0.325 0.534 0.126
H10 H -0.269 0.416 0.181
H11 H -0.274 0.291 0.122
H12 H -0.114 0.300 0.063
H13 H -0.092 0.444 0.012
H14 H -0.229 0.548 0.032
H15 H -0.411 0.481 0.022
H16 H -0.412 0.322 0.054
H17 H -0.032 0.603 0.302
H18 H -0.051 0.703 0.303
H19 H -0.121 0.699 0.217
H20 H 0.017 0.711 0.152
H21 H 0.129 0.767 0.222
H22 H 0.206 0.686 0.209
H23 H -0.293 0.198 0.021
H24 H -0.255 0.193 -0.041
H25 H -0.161 0.317 -0.033
H26 H -0.274 0.430 -0.051
H27 H -0.400 0.337 -0.095
H28 H -0.483 0.365 -0.049
loop_
_geom_bond_atom_site_label_1
_geom_bond_atom_site_label_2
_geom_bond_site_symmetry_1
_geom_bond_site_symmetry_2
Br1 C1 1_555 1_555
Br2 C16 1_555 1_555
O1 C17 1_555 1_555
O2 C21 1_555 1_555
C1 C2 1_555 1_555
C2 C3 1_555 1_555
C3 C4 1_555 1_555
C4 C5 1_555 1_555
C5 C6 1_555 1_555
C6 C1 1_555 1_555
C7 C6 1_555 1_555
C8 C3 1_555 1_555
C9 C8 1_555 1_555
C10 C5 1_555 1_555
C11 C10 1_555 1_555
C12 C11 1_555 1_555
C13 C4 1_555 1_555
C14 C9 1_555 1_555
C15 C14 1_555 1_555
C16 C11 1_555 1_555
C17 C18 1_555 1_555
C18 C7 1_555 1_555
C19 C2 1_555 1_555
C20 O1 1_555 1_555
C21 C22 1_555 1_555
C22 C12 1_555 1_555
C23 C15 1_555 1_555
C24 O2 1_555 1_555
H1 C1 1_555 1_555
H2 C2 1_555 1_555
H3 C3 1_555 1_555
H4 C4 1_555 1_555
H5 C5 1_555 1_555
H6 C6 1_555 1_555
H7 C7 1_555 1_555
H8 C8 1_555 1_555
H9 C9 1_555 1_555
H10 C10 1_555 1_555
H11 C11 1_555 1_555
H12 C12 1_555 1_555
H13 C13 1_555 1_555
H14 C14 1_555 1_555
H15 C15 1_555 1_555
H16 C16 1_555 1_555
H17 C17 1_555 1_555
H18 C17 1_555 1_555
H19 C18 1_555 1_555
H20 C19 1_555 1_555
H21 C20 1_555 1_555
H22 C20 1_555 1_555
H23 C21 1_555 1_555
H24 C21 1_555 1_555
H25 C22 1_555 1_555
H26 C23 1_555 1_555
H27 C24 1_555 1_555
H28 C24 1_555 1_555
C7 C8 1_555 1_555
C9 C10 1_555 1_555
C12 C13 1_555 1_555
C13 C14 1_555 1_555
C15 C16 1_555 1_555
C18 C19 1_555 1_555
C19 C20 1_555 1_555
C22 C23 1_555 1_555
C23 C24 1_555 1_555

#END
