
#######################################################################
#
#                 Cambridge Crystallographic Data Centre
#                                CCDC 
#
#######################################################################
#
# If this CIF has been generated from an entry in the Cambridge 
# Structural Database, then it will include bibliographic, chemical, 
# crystal, experimental, refinement or atomic coordinate data resulting 
# from the CCDC's data processing and validation procedures.
#
#######################################################################

data_NIJCUE
_chemical_formula_moiety         'C12 H15 N3 O3'
_chemical_name_systematic        'Trimethyl 1,3,5-benzenetricarboxamide'
_symmetry_cell_setting           monoclinic
_symmetry_space_group_name_H-M   'P 21'
_symmetry_Int_Tables_number      4
_space_group_name_Hall           'P 2yb'
loop_
_symmetry_equiv_pos_site_id
_symmetry_equiv_pos_as_xyz
1 x,y,z
2 -x,1/2+y,-z
_cell_length_a                   8.050(1)
_cell_length_b                   6.862(1)
_cell_length_c                   11.8587(8)
_cell_angle_alpha                90
_cell_angle_beta                 107.860(8)
_cell_angle_gamma                90
_cell_volume                     623.496
_cell_formula_units_Z            2
loop_
_atom_site_label
_atom_site_type_symbol
_atom_site_fract_x
_atom_site_fract_y
_atom_site_fract_z
O1 O 0.876072 0.243687 0.966568
O2 O 0.957158 -0.391982 0.596592
O3 O 0.563166 0.131634 0.342335
N1 N 0.674761 0.447032 0.855912
N2 N 1.060078 -0.357201 0.793805
N3 N 0.699289 0.415031 0.410673
C1 C 0.780902 0.183660 0.759060
C2 C 0.862040 0.002094 0.774535
C3 C 0.871600 -0.105586 0.677313
C4 C 0.797697 -0.029094 0.564534
C5 C 0.720378 0.152854 0.548036
C6 C 0.711942 0.259639 0.644959
C7 C 0.779759 0.293929 0.868602
C8 C 0.674729 0.569493 0.954902
C9 C 0.964609 -0.298235 0.686630
C10 C 1.163558 -0.535067 0.810213
C11 C 0.652418 0.231828 0.424354
C12 C 0.652546 0.506678 0.295330
H1 H 0.912963 -0.044630 0.850289
H2 H 0.803213 -0.086808 0.504625
H3 H 0.652175 0.381186 0.635334
H4 H 0.604053 0.479083 0.783453
H5 H 0.628383 0.519363 1.004141
H6 H 0.587898 0.679939 0.920453
H7 H 0.782665 0.621750 0.994875
H8 H 1.069556 -0.284789 0.865807
H9 H 1.210429 -0.565350 0.889926
H10 H 1.267260 -0.492800 0.768850
H11 H 1.088606 -0.635832 0.772903
H12 H 0.780432 0.467650 0.473172
H13 H 0.533800 0.472119 0.257306
H14 H 0.630793 0.626093 0.302556
H15 H 0.743904 0.512917 0.262097
loop_
_geom_bond_atom_site_label_1
_geom_bond_atom_site_label_2
_geom_bond_site_symmetry_1
_geom_bond_site_symmetry_2
O1 C7 1_555 1_555
O2 C9 1_555 1_555
O3 C11 1_555 1_555
N1 C7 1_555 1_555
N2 C9 1_555 1_555
N3 C11 1_555 1_555
C1 C2 1_555 1_555
C2 C3 1_555 1_555
C3 C4 1_555 1_555
C4 C5 1_555 1_555
C5 C6 1_555 1_555
C6 C1 1_555 1_555
C7 C1 1_555 1_555
C8 N1 1_555 1_555
C9 C3 1_555 1_555
C10 N2 1_555 1_555
C11 C5 1_555 1_555
C12 N3 1_555 1_555
H1 C2 1_555 1_555
H2 C4 1_555 1_555
H3 C6 1_555 1_555
H4 N1 1_555 1_555
H5 C8 1_555 1_555
H6 C8 1_555 1_555
H7 C8 1_555 1_555
H8 N2 1_555 1_555
H9 C10 1_555 1_555
H10 C10 1_555 1_555
H11 C10 1_555 1_555
H12 N3 1_555 1_555
H13 C12 1_555 1_555
H14 C12 1_555 1_555
H15 C12 1_555 1_555

#END
