
#######################################################################
#
#                 Cambridge Crystallographic Data Centre
#                                CCDC 
#
#######################################################################
#
# If this CIF has been generated from an entry in the Cambridge 
# Structural Database, then it will include bibliographic, chemical, 
# crystal, experimental, refinement or atomic coordinate data resulting 
# from the CCDC's data processing and validation procedures.
#
#######################################################################

data_NIJHAQ
_chemical_formula_moiety         'C50 H54 N4 O6,2(C1 H2 Cl2)'
_chemical_name_systematic        
"3,3'-Dihydroxy-3,3'-bis(4-(((1-oxy-2,2,6,6-tetramethylpiperidin-4-yl)imino)methyl)phenyl)-2,2'-bi-indene-1,1'(3H,3'H)-dione dichloromethane solvate"
_symmetry_cell_setting           monoclinic
_symmetry_space_group_name_H-M   'P 21/c'
_symmetry_Int_Tables_number      14
_space_group_name_Hall           '-P 2ybc'
loop_
_symmetry_equiv_pos_site_id
_symmetry_equiv_pos_as_xyz
1 x,y,z
2 -x,1/2+y,1/2-z
3 -x,-y,-z
4 x,1/2-y,1/2+z
_cell_length_a                   8.5321(13)
_cell_length_b                   29.469(5)
_cell_length_c                   10.2948(16)
_cell_angle_alpha                90
_cell_angle_beta                 105.032(3)
_cell_angle_gamma                90
_cell_volume                     2499.87
_cell_formula_units_Z            2
_chemical_properties_physical    light-sensitive
_exptl_crystal_preparation       'photochromic; photomagnetic'
loop_
_atom_site_label
_atom_site_type_symbol
_atom_site_fract_x
_atom_site_fract_y
_atom_site_fract_z
O1 O 0.3643(3) 0.53932(8) 1.6732(2)
O2 O 0.3042(3) 0.46084(7) 1.2749(2)
H1 H 0.3901 0.4515 1.2633
O3 O 0.4877(4) 0.72279(11) 0.3835(3)
N1 N 0.4869(4) 0.62787(10) 0.8422(3)
N2 N 0.4867(4) 0.70122(11) 0.4910(3)
C1 C 0.4250(4) 0.50807(11) 1.4737(3)
C2 C 0.3221(4) 0.53053(11) 1.5531(3)
C3 C 0.1639(4) 0.53929(11) 1.4613(3)
C4 C 0.0265(5) 0.55849(12) 1.4899(4)
H2 H 0.0301 0.5700 1.5747
C5 C -0.1132(5) 0.55971(14) 1.3882(5)
H3 H -0.2057 0.5729 1.4039
C6 C -0.1201(5) 0.54179(15) 1.2624(4)
H4 H -0.2174 0.5425 1.1957
C7 C 0.0155(5) 0.52286(13) 1.2349(4)
H5 H 0.0104 0.5107 1.1506
C8 C 0.1599(4) 0.52235(11) 1.3355(3)
C9 C 0.3254(4) 0.50552(11) 1.3258(3)
C10 C 0.3848(4) 0.53831(11) 1.2338(3)
C11 C 0.3696(4) 0.52745(11) 1.1002(3)
H6 H 0.3345 0.4986 1.0690
C12 C 0.4058(4) 0.55884(12) 1.0130(3)
H7 H 0.3948 0.5508 0.9237
C13 C 0.4584(4) 0.60227(12) 1.0558(3)
C14 C 0.4746(4) 0.61327(12) 1.1892(3)
H8 H 0.5094 0.6421 1.2204
C15 C 0.4390(4) 0.58140(12) 1.2772(3)
H9 H 0.4519 0.5892 1.3669
C16 C 0.4826(4) 0.63697(12) 0.9599(3)
H10 H 0.4953 0.6670 0.9881
C17 C 0.4909(5) 0.66562(12) 0.7504(3)
H11 H 0.4968 0.6947 0.7974
C18 C 0.6353(5) 0.65970(13) 0.6925(4)
H12 H 0.6286 0.6301 0.6504
H13 H 0.7335 0.6604 0.7655
C19 C 0.6482(4) 0.69561(12) 0.5895(3)
C20 C 0.7683(5) 0.67990(17) 0.5122(4)
H14 H 0.7270 0.6533 0.4611
H15 H 0.8705 0.6730 0.5744
H16 H 0.7832 0.7035 0.4524
C21 C 0.7043(5) 0.74120(14) 0.6563(4)
H17 H 0.7050 0.7635 0.5884
H18 H 0.8117 0.7381 0.7145
H19 H 0.6313 0.7507 0.7081
C22 C 0.3276(5) 0.69823(13) 0.5244(3)
C23 C 0.2805(5) 0.74472(14) 0.5661(4)
H20 H 0.3534 0.7532 0.6503
H21 H 0.1716 0.7436 0.5758
H22 H 0.2866 0.7666 0.4986
C24 C 0.2020(5) 0.68286(16) 0.3974(4)
H23 H 0.1912 0.7056 0.3289
H24 H 0.0993 0.6784 0.4174
H25 H 0.2368 0.6549 0.3660
C25 C 0.3375(5) 0.66297(14) 0.6352(4)
H26 H 0.2442 0.6667 0.6716
H27 H 0.3310 0.6330 0.5955
O1B O 0.6357(3) 0.46068(8) 1.3268(2)
O2B O 0.6958(3) 0.53916(7) 1.7251(2)
H1B H 0.6099 0.5485 1.7367
O3B O 0.5123(4) 0.27721(11) 2.6165(3)
N1B N 0.5131(4) 0.37213(10) 2.1578(3)
N2B N 0.5133(4) 0.29878(11) 2.5090(3)
C1B C 0.5750(4) 0.49193(11) 1.5263(3)
C2B C 0.6779(4) 0.46947(11) 1.4469(3)
C3B C 0.8361(4) 0.46071(11) 1.5387(3)
C4B C 0.9735(5) 0.44151(12) 1.5101(4)
H2B H 0.9699 0.4300 1.4253
C5B C 1.1132(5) 0.44029(14) 1.6118(5)
H3B H 1.2057 0.4271 1.5961
C6B C 1.1201(5) 0.45821(15) 1.7376(4)
H4B H 1.2174 0.4575 1.8043
C7B C 0.9845(5) 0.47714(13) 1.7651(4)
H5B H 0.9896 0.4893 1.8494
C8B C 0.8401(4) 0.47765(11) 1.6645(3)
C9B C 0.6746(4) 0.49448(11) 1.6742(3)
C10B C 0.6152(4) 0.46169(11) 1.7662(3)
C11B C 0.6304(4) 0.47255(11) 1.8998(3)
H6B H 0.6655 0.5014 1.9310
C12B C 0.5942(4) 0.44116(12) 1.9870(3)
H7B H 0.6052 0.4492 2.0763
C13B C 0.5416(4) 0.39773(12) 1.9442(3)
C14B C 0.5254(4) 0.38673(12) 1.8108(3)
H8B H 0.4906 0.3579 1.7796
C15B C 0.5610(4) 0.41860(12) 1.7228(3)
H9B H 0.5481 0.4108 1.6331
C16B C 0.5174(4) 0.36303(12) 2.0401(3)
H10B H 0.5047 0.3330 2.0119
C17B C 0.5091(5) 0.33438(12) 2.2496(3)
H11B H 0.5032 0.3053 2.2026
C18B C 0.3647(5) 0.34030(13) 2.3075(4)
H12B H 0.3714 0.3699 2.3496
H13B H 0.2665 0.3396 2.2345
C19B C 0.3518(4) 0.30439(12) 2.4105(3)
C20B C 0.2317(5) 0.32010(17) 2.4878(4)
H14B H 0.2730 0.3467 2.5389
H15B H 0.1295 0.3270 2.4256
H16B H 0.2168 0.2965 2.5476
C21B C 0.2957(5) 0.25880(14) 2.3437(4)
H17B H 0.2950 0.2365 2.4116
H18B H 0.1883 0.2619 2.2855
H19B H 0.3687 0.2493 2.2919
C22B C 0.6724(5) 0.30177(13) 2.4756(3)
C23B C 0.7195(5) 0.25528(14) 2.4339(4)
H20B H 0.6466 0.2468 2.3497
H21B H 0.8284 0.2564 2.4242
H22B H 0.7134 0.2334 2.5014
C24B C 0.7980(5) 0.31714(16) 2.6026(4)
H23B H 0.8088 0.2944 2.6711
H24B H 0.9007 0.3216 2.5826
H25B H 0.7632 0.3451 2.6340
C25B C 0.6625(5) 0.33703(14) 2.3648(4)
H26B H 0.7558 0.3333 2.3284
H27B H 0.6690 0.3670 2.4045
C26 C -0.0256(15) 0.6100(3) 0.9767(10)
H28 H 0.0493 0.5893 1.0351
H29 H -0.1209 0.5927 0.9316
Cl1 Cl 0.0646(9) 0.6309(2) 0.8577(6)
Cl2 Cl -0.0824(6) 0.6513(2) 1.0739(5)
C27? C 0.069(2) 0.6280(6) 1.037(2)
H30? H 0.1627 0.6384 1.0083
H31? H 0.1065 0.6138 1.1244
Cl3? Cl -0.0401(12) 0.5901(3) 0.9233(9)
Cl4? Cl -0.0568(19) 0.6730(4) 1.0449(15)
C28? C 0.051(5) 0.6591(6) 0.942(3)
H32? H 0.1573 0.6734 0.9696
H33? H -0.0270 0.6816 0.8974
Cl5? Cl 0.056(3) 0.6141(6) 0.8345(18)
Cl6? Cl -0.002(2) 0.6379(7) 1.0810(15)
loop_
_geom_bond_atom_site_label_1
_geom_bond_atom_site_label_2
_geom_bond_site_symmetry_1
_geom_bond_site_symmetry_2
O1 C2 1_555 1_555
O2 H1 1_555 1_555
O3 N2 1_555 1_555
N1 C16 1_555 1_555
N2 C19 1_555 1_555
C1 C2 1_555 1_555
C2 C3 1_555 1_555
C3 C4 1_555 1_555
C4 H2 1_555 1_555
C5 C4 1_555 1_555
H3 C5 1_555 1_555
C6 C5 1_555 1_555
H4 C6 1_555 1_555
C7 C6 1_555 1_555
H5 C7 1_555 1_555
C8 C3 1_555 1_555
C9 O2 1_555 1_555
C10 C9 1_555 1_555
C11 C10 1_555 1_555
H6 C11 1_555 1_555
C12 C11 1_555 1_555
H7 C12 1_555 1_555
C13 C12 1_555 1_555
C14 C13 1_555 1_555
H8 C14 1_555 1_555
C15 C10 1_555 1_555
H9 C15 1_555 1_555
C16 C13 1_555 1_555
H10 C16 1_555 1_555
C17 N1 1_555 1_555
H11 C17 1_555 1_555
C18 C17 1_555 1_555
H12 C18 1_555 1_555
H13 C18 1_555 1_555
C19 C18 1_555 1_555
C20 C19 1_555 1_555
H14 C20 1_555 1_555
H15 C20 1_555 1_555
H16 C20 1_555 1_555
C21 C19 1_555 1_555
H17 C21 1_555 1_555
H18 C21 1_555 1_555
H19 C21 1_555 1_555
C22 N2 1_555 1_555
C23 C22 1_555 1_555
H20 C23 1_555 1_555
H21 C23 1_555 1_555
H22 C23 1_555 1_555
C24 C22 1_555 1_555
H23 C24 1_555 1_555
H24 C24 1_555 1_555
H25 C24 1_555 1_555
C25 C17 1_555 1_555
H26 C25 1_555 1_555
H27 C25 1_555 1_555
C26 H28 1_555 1_555
H29 C26 1_555 1_555
Cl1 C26 1_555 1_555
Cl2 C26 1_555 1_555
O1B C2B 1_555 1_555
O2B H1B 1_555 1_555
O3B N2B 1_555 1_555
N1B C16B 1_555 1_555
N2B C19B 1_555 1_555
C1B C1 1_555 1_555
C2B C1B 1_555 1_555
C3B C2B 1_555 1_555
C4B C3B 1_555 1_555
H2B C4B 1_555 1_555
C5B C4B 1_555 1_555
H3B C5B 1_555 1_555
C6B C5B 1_555 1_555
H4B C6B 1_555 1_555
C7B C6B 1_555 1_555
H5B C7B 1_555 1_555
C8B C3B 1_555 1_555
C9B O2B 1_555 1_555
C10B C9B 1_555 1_555
C11B C10B 1_555 1_555
H6B C11B 1_555 1_555
C12B C11B 1_555 1_555
H7B C12B 1_555 1_555
C13B C12B 1_555 1_555
C14B C13B 1_555 1_555
H8B C14B 1_555 1_555
C15B C10B 1_555 1_555
H9B C15B 1_555 1_555
C16B C13B 1_555 1_555
H10B C16B 1_555 1_555
C17B N1B 1_555 1_555
H11B C17B 1_555 1_555
C18B C17B 1_555 1_555
H12B C18B 1_555 1_555
H13B C18B 1_555 1_555
C19B C18B 1_555 1_555
C20B C19B 1_555 1_555
H14B C20B 1_555 1_555
H15B C20B 1_555 1_555
H16B C20B 1_555 1_555
C21B C19B 1_555 1_555
H17B C21B 1_555 1_555
H18B C21B 1_555 1_555
H19B C21B 1_555 1_555
C22B N2B 1_555 1_555
C23B C22B 1_555 1_555
H20B C23B 1_555 1_555
H21B C23B 1_555 1_555
H22B C23B 1_555 1_555
C24B C22B 1_555 1_555
H23B C24B 1_555 1_555
H24B C24B 1_555 1_555
H25B C24B 1_555 1_555
C25B C17B 1_555 1_555
H26B C25B 1_555 1_555
H27B C25B 1_555 1_555
C1 C9 1_555 1_555
C7 C8 1_555 1_555
C8 C9 1_555 1_555
C14 C15 1_555 1_555
C22 C25 1_555 1_555
C1B C9B 1_555 1_555
C7B C8B 1_555 1_555
C8B C9B 1_555 1_555
C14B C15B 1_555 1_555
C22B C25B 1_555 1_555

#END
