
#######################################################################
#
#                 Cambridge Crystallographic Data Centre
#                                CCDC 
#
#######################################################################
#
# If this CIF has been generated from an entry in the Cambridge 
# Structural Database, then it will include bibliographic, chemical, 
# crystal, experimental, refinement or atomic coordinate data resulting 
# from the CCDC's data processing and validation procedures.
#
#######################################################################

data_NIJJUL
_chemical_formula_moiety         'C17 H17 N1 O3 S1'
_chemical_name_systematic        
'rel-(5S,7R,10S)-Methyl 7-methyl-2-oxo-1-phenyl-6-thia-1-azaspiro(4.5)deca-3,8-diene-10-carboxylate'
_symmetry_cell_setting           triclinic
_symmetry_space_group_name_H-M   'P -1'
_symmetry_Int_Tables_number      2
_space_group_name_Hall           '-P 1'
loop_
_symmetry_equiv_pos_site_id
_symmetry_equiv_pos_as_xyz
1 x,y,z
2 -x,-y,-z
_cell_length_a                   9.563(1)
_cell_length_b                   9.898(1)
_cell_length_c                   9.2646(7)
_cell_angle_alpha                93.697(9)
_cell_angle_beta                 98.123(9)
_cell_angle_gamma                65.058(7)
_cell_volume                     787.16
_exptl_crystal_colour            colorless
_exptl_crystal_description       prismatic
_chemical_melting_point          135.5-137.0deg.C
_cell_formula_units_Z            2
loop_
_atom_site_label
_atom_site_type_symbol
_atom_site_fract_x
_atom_site_fract_y
_atom_site_fract_z
S1 S 0.10428(6) -0.15488(5) 0.11216(5)
O1 O 0.1565(2) -0.2530(2) 0.5986(1)
O2 O 0.1395(2) -0.6658(2) 0.1820(2)
O3 O 0.3536(2) -0.6486(2) 0.2893(2)
N1 N 0.1026(2) -0.2889(2) 0.3530(1)
C1 C 0.1977(2) -0.2850(2) 0.4781(2)
C2 C 0.3529(2) -0.3285(2) 0.4340(2)
C3 C 0.3469(2) -0.3546(2) 0.2926(2)
C4 C 0.1851(2) -0.3250(2) 0.2251(2)
C5 C 0.2184(2) -0.2171(2) -0.0412(2)
C6 C 0.2627(3) -0.3777(2) -0.0762(2)
C7 C 0.2408(2) -0.4767(2) -0.0071(2)
C8 C 0.1661(2) -0.4509(2) 0.1319(2)
C9 C 0.3541(3) -0.1734(4) -0.0250(3)
C10 C 0.2322(2) -0.5973(2) 0.2136(2)
C11 C 0.1874(4) -0.8109(3) 0.2468(5)
C12 C -0.0617(2) -0.2424(2) 0.3505(2)
C13 C -0.1597(2) -0.0928(2) 0.3504(2)
C14 C -0.3172(3) -0.0489(3) 0.3530(3)
C15 C -0.3756(3) -0.1541(3) 0.3556(3)
C16 C -0.2784(3) -0.3022(3) 0.3567(2)
C17 C -0.1210(2) -0.3475(2) 0.3540(2)
H1 H 0.439(2) -0.337(2) 0.502(2)
H2 H 0.429(2) -0.388(2) 0.238(2)
H3 H 0.141(2) -0.160(2) -0.120(2)
H4 H 0.305(2) -0.406(2) -0.165(2)
H5 H 0.273(2) -0.576(2) -0.046(2)
H6 H 0.053(2) -0.422(2) 0.105(2)
H7 H 0.315(3) -0.064(2) -0.020(2)
H8 H 0.427(2) -0.219(2) 0.056(2)
H9 H 0.407(3) -0.208(2) -0.106(2)
H10 H 0.284(3) -0.871(3) 0.213(3)
H11 H 0.231(4) -0.818(3) 0.338(3)
H12 H 0.131(3) -0.854(3) 0.192(3)
H13 H -0.117(2) -0.023(2) 0.352(2)
H14 H -0.380(2) 0.053(2) 0.351(2)
H15 H -0.484(2) -0.120(2) 0.355(2)
H16 H -0.316(2) -0.379(2) 0.361(2)
H17 H -0.050(2) -0.450(2) 0.359(2)
loop_
_geom_bond_atom_site_label_1
_geom_bond_atom_site_label_2
_geom_bond_site_symmetry_1
_geom_bond_site_symmetry_2
S1 C4 1_555 1_555
O1 C1 1_555 1_555
O2 C10 1_555 1_555
O3 C10 1_555 1_555
N1 C1 1_555 1_555
C1 C2 1_555 1_555
C2 C3 1_555 1_555
C3 C4 1_555 1_555
C4 N1 1_555 1_555
C5 S1 1_555 1_555
C6 C5 1_555 1_555
C7 C6 1_555 1_555
C8 C4 1_555 1_555
C9 C5 1_555 1_555
C10 C8 1_555 1_555
C11 O2 1_555 1_555
C12 N1 1_555 1_555
C13 C12 1_555 1_555
C14 C13 1_555 1_555
C15 C14 1_555 1_555
C16 C15 1_555 1_555
C17 C12 1_555 1_555
H1 C2 1_555 1_555
H2 C3 1_555 1_555
H3 C5 1_555 1_555
H4 C6 1_555 1_555
H5 C7 1_555 1_555
H6 C8 1_555 1_555
H7 C9 1_555 1_555
H8 C9 1_555 1_555
H9 C9 1_555 1_555
H10 C11 1_555 1_555
H11 C11 1_555 1_555
H12 C11 1_555 1_555
H13 C13 1_555 1_555
H14 C14 1_555 1_555
H15 C15 1_555 1_555
H16 C16 1_555 1_555
H17 C17 1_555 1_555
C7 C8 1_555 1_555
C16 C17 1_555 1_555

#END
