
#######################################################################
#
#                 Cambridge Crystallographic Data Centre
#                                CCDC 
#
#######################################################################
#
# If this CIF has been generated from an entry in the Cambridge 
# Structural Database, then it will include bibliographic, chemical, 
# crystal, experimental, refinement or atomic coordinate data resulting 
# from the CCDC's data processing and validation procedures.
#
#######################################################################

data_NIJKOH
_chemical_formula_moiety         'C18 H12 N4 S1'
_chemical_name_systematic        2,5-bis(1-(7-Azaindolyl))thiophene
_symmetry_cell_setting           trigonal
_symmetry_space_group_name_H-M   'P 31 2 1'
_symmetry_Int_Tables_number      152
_space_group_name_Hall           'P 31 2"'
loop_
_symmetry_equiv_pos_site_id
_symmetry_equiv_pos_as_xyz
1 x,y,z
2 -y,x-y,1/3+z
3 -x+y,-x,2/3+z
4 y,x,-z
5 x-y,-y,2/3-z
6 -x,-x+y,1/3-z
_cell_length_a                   7.0505(3)
_cell_length_b                   7.0505(3)
_cell_length_c                   25.151(3)
_cell_angle_alpha                90
_cell_angle_beta                 90
_cell_angle_gamma                120
_cell_volume                     1082.74
_exptl_crystal_colour            'pale pink'
_exptl_crystal_description       block
_cell_formula_units_Z            3
_exptl_crystal_recrystallization_method hexane/dichloromethane
loop_
_atom_site_label
_atom_site_type_symbol
_atom_site_fract_x
_atom_site_fract_y
_atom_site_fract_z
S1 S 0.33373(7) 0.33373(7) 0.0000
N1 N 0.2882(2) 0.0034(2) 0.08318(5)
N2 N 0.6432(2) 0.2740(2) 0.05081(5)
C1 C 0.1872(3) -0.1838(3) 0.11126(6)
H1 H 0.0367 -0.2484 0.1161
C2 C 0.2923(3) -0.2880(3) 0.13360(6)
H2 H 0.2118 -0.4173 0.1526
C3 C 0.5159(3) -0.1995(3) 0.12752(6)
H3 H 0.5880 -0.2681 0.1416
C4 C 0.6293(2) -0.0029(2) 0.09936(6)
C5 C 0.8513(3) 0.1394(3) 0.08346(6)
H4 H 0.9711 0.1230 0.0915
C6 C 0.8539(2) 0.3030(3) 0.05437(6)
H5 H 0.9783 0.4181 0.0390
C7 C 0.5032(2) 0.0854(2) 0.07844(5)
C8 C 0.5935(2) 0.4236(2) 0.02623(5)
C9 C 0.7350(2) 0.6366(3) 0.01512(5)
H6 H 0.8805 0.7105 0.0260
N1C N 0.0034(2) 0.2882(2) -0.08318(5)
N2C N 0.2740(2) 0.6432(2) -0.05081(5)
C1C C -0.1838(3) 0.1872(3) -0.11126(6)
H1C H -0.2484 0.0367 -0.1161
C2C C -0.2880(3) 0.2923(3) -0.13360(6)
H2C H -0.4173 0.2118 -0.1526
C3C C -0.1995(3) 0.5159(3) -0.12752(6)
H3C H -0.2681 0.5880 -0.1416
C4C C -0.0029(2) 0.6293(2) -0.09936(6)
C5C C 0.1394(3) 0.8513(3) -0.08346(6)
H4C H 0.1230 0.9711 -0.0915
C6C C 0.3030(3) 0.8539(2) -0.05437(6)
H5C H 0.4181 0.9783 -0.0390
C7C C 0.0854(2) 0.5032(2) -0.07844(5)
C8C C 0.4236(2) 0.5935(2) -0.02623(5)
C9C C 0.6366(3) 0.7350(2) -0.01512(5)
H6C H 0.7105 0.8805 -0.0260
loop_
_geom_bond_atom_site_label_1
_geom_bond_atom_site_label_2
_geom_bond_site_symmetry_1
_geom_bond_site_symmetry_2
S1 C8 1_555 1_555
N1 C1 1_555 1_555
N2 C6 1_555 1_555
C1 H1 1_555 1_555
C2 C1 1_555 1_555
H2 C2 1_555 1_555
C3 C2 1_555 1_555
H3 C3 1_555 1_555
C4 C3 1_555 1_555
C5 C4 1_555 1_555
H4 C5 1_555 1_555
C6 C5 1_555 1_555
H5 C6 1_555 1_555
C7 N1 1_555 1_555
C8 N2 1_555 1_555
C9 C8 1_555 1_555
H6 C9 1_555 1_555
N1C C1C 1_555 1_555
N2C C6C 1_555 1_555
C1C H1C 1_555 1_555
C2C C1C 1_555 1_555
H2C C2C 1_555 1_555
C3C C2C 1_555 1_555
H3C C3C 1_555 1_555
C4C C3C 1_555 1_555
C5C C4C 1_555 1_555
H4C C5C 1_555 1_555
C6C C5C 1_555 1_555
H5C C6C 1_555 1_555
C7C N1C 1_555 1_555
C8C S1 1_555 1_555
C9C C9 1_555 1_555
H6C C9C 1_555 1_555
N2 C7 1_555 1_555
C4 C7 1_555 1_555
N2C C7C 1_555 1_555
N2C C8C 1_555 1_555
C4C C7C 1_555 1_555
C8C C9C 1_555 1_555

#END
