
#######################################################################
#
#                 Cambridge Crystallographic Data Centre
#                                CCDC 
#
#######################################################################
#
# If this CIF has been generated from an entry in the Cambridge 
# Structural Database, then it will include bibliographic, chemical, 
# crystal, experimental, refinement or atomic coordinate data resulting 
# from the CCDC's data processing and validation procedures.
#
#######################################################################

data_NIJKEW
_chemical_formula_moiety         'C17 H17 N1 O3 S1'
_chemical_name_systematic        
'rel-(1R,3R)-Methyl 3-methyl-9-oxo-8-phenyl-2-thia-8-azabicyclo(5.3.0)deca-4,6-diene-6-carboxylate'
_symmetry_cell_setting           monoclinic
_symmetry_space_group_name_H-M   'P c'
_symmetry_Int_Tables_number      7
_space_group_name_Hall           'P -2yc'
loop_
_symmetry_equiv_pos_site_id
_symmetry_equiv_pos_as_xyz
1 x,y,z
2 x,-y,1/2+z
_cell_length_a                   9.1877(8)
_cell_length_b                   9.531(2)
_cell_length_c                   9.4087(8)
_cell_angle_alpha                90
_cell_angle_beta                 109.272(7)
_cell_angle_gamma                90
_cell_volume                     777.731
_exptl_crystal_colour            colorless
_exptl_crystal_description       prismatic
_chemical_melting_point          193-193.8deg.C
_cell_formula_units_Z            2
loop_
_atom_site_label
_atom_site_type_symbol
_atom_site_fract_x
_atom_site_fract_y
_atom_site_fract_z
S1 S 0.7811 0.22018(9) 0.3083
O1 O 0.6667(3) 0.3008(3) -0.1913(3)
O2 O 0.1294(3) 0.3059(3) 0.1219(3)
O3 O 0.1986(3) 0.4026(3) -0.0625(3)
N1 N 0.5030(3) 0.2941(3) -0.0503(3)
C1 C 0.6422(3) 0.3235(3) -0.0754(3)
C2 C 0.7516(4) 0.3866(4) 0.0659(4)
C3 C 0.6763(3) 0.3597(3) 0.1856(3)
C4 C 0.5095(3) 0.3239(3) 0.0968(3)
C5 C 0.3949(3) 0.3325(3) 0.1566(3)
C6 C 0.4341(4) 0.3432(4) 0.3215(4)
C7 C 0.5432(4) 0.2693(4) 0.4208(4)
C8 C 0.6315(4) 0.1535(4) 0.3809(4)
C9 C 0.7130(6) 0.0576(6) 0.5120(5)
C10 C 0.2278(3) 0.3406(3) 0.0714(4)
C11 C 0.0387(5) 0.4101(7) -0.1566(5)
C12 C 0.3809(3) 0.2225(3) -0.1643(3)
C13 C 0.3228(4) 0.0984(4) -0.1300(4)
C14 C 0.2073(4) 0.0294(4) -0.2421(4)
C15 C 0.1525(4) 0.0846(4) -0.3853(4)
C16 C 0.2109(4) 0.2082(4) -0.4185(4)
C17 C 0.3250(4) 0.2781(4) -0.3083(4)
H1 H 0.758(4) 0.475(4) 0.053(4)
H2 H 0.859(4) 0.343(3) 0.092(3)
H3 H 0.676(3) 0.439(3) 0.245(3)
H4 H 0.374(3) 0.405(3) 0.354(3)
H5 H 0.562(4) 0.282(4) 0.537(4)
H6 H 0.559(4) 0.099(3) 0.291(4)
H7 H 0.799(5) 0.114(4) 0.594(5)
H8 H 0.786(5) -0.009(5) 0.486(5)
H9 H 0.655(5) 0.024(5) 0.553(5)
H10 H -0.017(5) 0.313(5) -0.155(5)
H11 H -0.013(6) 0.466(6) -0.109(6)
H12 H 0.034(5) 0.426(6) -0.254(6)
H13 H 0.358(3) 0.065(3) -0.032(3)
H14 H 0.172(4) -0.052(4) -0.218(4)
H15 H 0.073(4) 0.040(3) -0.459(4)
H16 H 0.172(4) 0.248(4) -0.521(4)
H17 H 0.370(4) 0.356(4) -0.323(4)
loop_
_geom_bond_atom_site_label_1
_geom_bond_atom_site_label_2
_geom_bond_site_symmetry_1
_geom_bond_site_symmetry_2
S1 C3 1_555 1_555
O1 C1 1_555 1_555
O2 C10 1_555 1_555
O3 C10 1_555 1_555
N1 C1 1_555 1_555
C1 C2 1_555 1_555
C2 C3 1_555 1_555
C3 C4 1_555 1_555
C4 N1 1_555 1_555
C5 C4 1_555 1_555
C6 C5 1_555 1_555
C7 C6 1_555 1_555
C8 S1 1_555 1_555
C9 C8 1_555 1_555
C10 C5 1_555 1_555
C11 O3 1_555 1_555
C12 N1 1_555 1_555
C13 C12 1_555 1_555
C14 C13 1_555 1_555
C15 C14 1_555 1_555
C16 C15 1_555 1_555
C17 C12 1_555 1_555
H1 C2 1_555 1_555
H2 C2 1_555 1_555
H3 C3 1_555 1_555
H4 C6 1_555 1_555
H5 C7 1_555 1_555
H6 C8 1_555 1_555
H7 C9 1_555 1_555
H8 C9 1_555 1_555
H9 C9 1_555 1_555
H10 C11 1_555 1_555
H11 C11 1_555 1_555
H12 C11 1_555 1_555
H13 C13 1_555 1_555
H14 C14 1_555 1_555
H15 C15 1_555 1_555
H16 C16 1_555 1_555
H17 C17 1_555 1_555
C7 C8 1_555 1_555
C16 C17 1_555 1_555

#END
