
#######################################################################
#
#                 Cambridge Crystallographic Data Centre
#                                CCDC 
#
#######################################################################
#
# If this CIF has been generated from an entry in the Cambridge 
# Structural Database, then it will include bibliographic, chemical, 
# crystal, experimental, refinement or atomic coordinate data resulting 
# from the CCDC's data processing and validation procedures.
#
#######################################################################

data_NIJKOG
_chemical_formula_moiety         'C22 H20 N1 O1 S2 1+,Cl1 O4 1-'
_chemical_name_systematic        
'5-(2-Acetamido-4,5-dimethylphenyl)thianthreniumyl perchlorate'
_symmetry_cell_setting           monoclinic
_symmetry_space_group_name_H-M   'P 21/n'
_symmetry_Int_Tables_number      14
_space_group_name_Hall           '-P 2yn'
loop_
_symmetry_equiv_pos_site_id
_symmetry_equiv_pos_as_xyz
1 x,y,z
2 1/2-x,1/2+y,1/2-z
3 -x,-y,-z
4 1/2+x,1/2-y,1/2+z
_cell_length_a                   12.262(2)
_cell_length_b                   15.046(2)
_cell_length_c                   12.284(2)
_cell_angle_alpha                90
_cell_angle_beta                 104.21(3)
_cell_angle_gamma                90
_cell_volume                     2196.98
_exptl_crystal_colour            colorless
_cell_formula_units_Z            4
loop_
_atom_site_label
_atom_site_type_symbol
_atom_site_fract_x
_atom_site_fract_y
_atom_site_fract_z
Cl1 Cl 0.2351 0.1718 0.7695
O1 O 0.1867 0.1651 0.6540
O2 O 0.1616 0.1308 0.8289
O3 O 0.3416 0.1338 0.8006
O4 O 0.2465 0.2635 0.7968
S1 S 0.1102 0.3040 0.2570
S2 S 0.0711 0.1487 0.0677
O5 O -0.1479 0.0757 -0.0308
N1 N -0.1866 0.2041 0.0489
C1 C 0.2053 0.1979 0.1202
C2 C 0.2931 0.1644 0.0794
C3 C 0.3987 0.2088 0.1134
C4 C 0.4109 0.2821 0.1850
C5 C 0.3223 0.3118 0.2288
C6 C 0.2192 0.2675 0.1976
C7 C 0.0488 0.2016 0.2759
C8 C 0.0164 0.1879 0.3765
C9 C -0.0271 0.1047 0.3954
C10 C -0.0371 0.0358 0.3185
C11 C -0.0069 0.0492 0.2173
C12 C 0.0324 0.1330 0.1971
C13 C -0.0066 0.2447 0.0022
C14 C 0.0521 0.3027 -0.0517
C15 C 0.0015 0.3800 -0.1022
C16 C -0.1106 0.3993 -0.0977
C17 C -0.1676 0.3396 -0.0454
C18 C -0.1187 0.2608 0.0020
C19 C -0.2040 0.1165 0.0225
C20 C -0.2979 0.0735 0.0643
C21 C -0.1699 0.4838 -0.1484
C22 C 0.0672 0.4422 -0.1613
loop_
_geom_bond_atom_site_label_1
_geom_bond_atom_site_label_2
_geom_bond_site_symmetry_1
_geom_bond_site_symmetry_2
Cl1 O1 1_555 1_555
O2 Cl1 1_555 1_555
O3 Cl1 1_555 1_555
O4 Cl1 1_555 1_555
S1 C6 1_555 1_555
S2 C1 1_555 1_555
O5 C19 1_555 1_555
N1 C18 1_555 1_555
C1 C2 1_555 1_555
C2 C3 1_555 1_555
C3 C4 1_555 1_555
C4 C5 1_555 1_555
C5 C6 1_555 1_555
C6 C1 1_555 1_555
C7 S1 1_555 1_555
C8 C7 1_555 1_555
C9 C8 1_555 1_555
C10 C9 1_555 1_555
C11 C10 1_555 1_555
C12 S2 1_555 1_555
C13 S2 1_555 1_555
C14 C13 1_555 1_555
C15 C14 1_555 1_555
C16 C15 1_555 1_555
C17 C16 1_555 1_555
C18 C13 1_555 1_555
C19 N1 1_555 1_555
C20 C19 1_555 1_555
C21 C16 1_555 1_555
C22 C15 1_555 1_555
C7 C12 1_555 1_555
C11 C12 1_555 1_555
C17 C18 1_555 1_555

#END
