
#######################################################################
#
#                 Cambridge Crystallographic Data Centre
#                                CCDC 
#
#######################################################################
#
# If this CIF has been generated from an entry in the Cambridge 
# Structural Database, then it will include bibliographic, chemical, 
# crystal, experimental, refinement or atomic coordinate data resulting 
# from the CCDC's data processing and validation procedures.
#
#######################################################################

data_NIJNOK
_chemical_formula_moiety         'C13 H7 F3 N4'
_chemical_name_systematic        
5,6,8-Trifluoro-2-phenylpyrido(3,4-d)pyrimidin-4-ylamine
_symmetry_cell_setting           orthorhombic
_symmetry_space_group_name_H-M   'F d d 2'
_symmetry_Int_Tables_number      43
_space_group_name_Hall           'F 2 -2d'
loop_
_symmetry_equiv_pos_site_id
_symmetry_equiv_pos_as_xyz
1 x,y,z
2 -x,-y,z
3 1/4+x,1/4-y,1/4+z
4 1/4-x,1/4+y,1/4+z
5 x,1/2+y,1/2+z
6 -x,1/2-y,1/2+z
7 1/4+x,3/4-y,3/4+z
8 1/4-x,3/4+y,3/4+z
9 1/2+x,y,1/2+z
10 1/2-x,-y,1/2+z
11 3/4+x,1/4-y,3/4+z
12 3/4-x,1/4+y,3/4+z
13 1/2+x,1/2+y,z
14 1/2-x,1/2-y,z
15 3/4+x,3/4-y,1/4+z
16 3/4-x,3/4+y,1/4+z
_cell_length_a                   25.0648(3)
_cell_length_b                   25.7841(3)
_cell_length_c                   6.9063(1)
_cell_angle_alpha                90
_cell_angle_beta                 90
_cell_angle_gamma                90
_cell_volume                     4463.36
_exptl_crystal_colour            colorless
_exptl_crystal_description       plate
_chemical_melting_point          220-223deg.C
_cell_formula_units_Z            16
_exptl_crystal_recrystallization_method acetonitrile
loop_
_atom_site_label
_atom_site_type_symbol
_atom_site_fract_x
_atom_site_fract_y
_atom_site_fract_z
F1 F 0.43797(4) 0.05775(4) 0.26795(19)
F2 F 0.39983(4) 0.15507(4) 0.28695(17)
F3 F 0.28224(4) -0.01222(4) 0.4555(2)
N1 N 0.35855(5) 0.02374(5) 0.3592(2)
N2 N 0.23047(5) 0.08073(5) 0.4743(2)
N3 N 0.23512(5) 0.17333(5) 0.4474(2)
N4 N 0.31068(5) 0.21622(5) 0.3495(3)
C1 C 0.38704(6) 0.06579(6) 0.3177(2)
C2 C 0.36717(6) 0.11516(6) 0.3258(2)
C3 C 0.31356(6) 0.12245(6) 0.3759(2)
C4 C 0.28237(6) 0.07856(6) 0.4194(2)
C5 C 0.30912(7) 0.03033(6) 0.4081(3)
C6 C 0.20969(6) 0.12780(5) 0.4874(2)
C7 C 0.28588(6) 0.17168(6) 0.3907(2)
C8 C 0.15299(6) 0.13163(6) 0.5476(2)
C9 C 0.12939(6) 0.17963(6) 0.5856(2)
C10 C 0.07559(6) 0.18308(7) 0.6346(3)
C11 C 0.04485(6) 0.13836(7) 0.6473(3)
C12 C 0.06811(6) 0.09031(7) 0.6142(3)
C13 C 0.12192(6) 0.08667(6) 0.5637(3)
H1 H 0.2956(9) 0.2469(10) 0.371(4)
H2 H 0.3397(9) 0.2176(9) 0.291(4)
H3 H 0.1511(9) 0.2130(9) 0.583(4)
H4 H 0.0600(10) 0.2167(10) 0.656(4)
H5 H 0.0062(10) 0.1413(10) 0.682(5)
H6 H 0.0464(9) 0.0566(9) 0.628(4)
H7 H 0.1381(8) 0.0524(8) 0.539(4)
loop_
_geom_bond_atom_site_label_1
_geom_bond_atom_site_label_2
_geom_bond_site_symmetry_1
_geom_bond_site_symmetry_2
F1 C1 1_555 1_555
F2 C2 1_555 1_555
F3 C5 1_555 1_555
N1 C1 1_555 1_555
N2 C4 1_555 1_555
N3 C6 1_555 1_555
N4 C7 1_555 1_555
C1 C2 1_555 1_555
C2 C3 1_555 1_555
C3 C4 1_555 1_555
C4 C5 1_555 1_555
C5 N1 1_555 1_555
C6 N2 1_555 1_555
C7 N3 1_555 1_555
C8 C6 1_555 1_555
C9 C8 1_555 1_555
C10 C9 1_555 1_555
C11 C10 1_555 1_555
C12 C11 1_555 1_555
C13 C8 1_555 1_555
H1 N4 1_555 1_555
H2 N4 1_555 1_555
H3 C9 1_555 1_555
H4 C10 1_555 1_555
H5 C11 1_555 1_555
H6 C12 1_555 1_555
H7 C13 1_555 1_555
C3 C7 1_555 1_555
C12 C13 1_555 1_555

#END
