
#######################################################################
#
#                 Cambridge Crystallographic Data Centre
#                                CCDC 
#
#######################################################################
#
# If this CIF has been generated from an entry in the Cambridge 
# Structural Database, then it will include bibliographic, chemical, 
# crystal, experimental, refinement or atomic coordinate data resulting 
# from the CCDC's data processing and validation procedures.
#
#######################################################################

data_NIJNIE
_chemical_formula_moiety         'C13 H7 F3 N4'
_chemical_name_systematic        
N-(4-Cyano-3,5,6-trifluoropyridine-2-yl)benzamidine
_symmetry_cell_setting           triclinic
_symmetry_space_group_name_H-M   'P -1'
_symmetry_Int_Tables_number      2
_space_group_name_Hall           '-P 1'
loop_
_symmetry_equiv_pos_site_id
_symmetry_equiv_pos_as_xyz
1 x,y,z
2 -x,-y,-z
_cell_length_a                   6.7260(8)
_cell_length_b                   8.175(1)
_cell_length_c                   10.908(1)
_cell_angle_alpha                94.362(4)
_cell_angle_beta                 90.065(4)
_cell_angle_gamma                104.964(4)
_cell_volume                     577.625
_exptl_crystal_colour            colorless
_exptl_crystal_description       needle
_chemical_melting_point          123-124deg.C
_cell_formula_units_Z            2
_exptl_crystal_recrystallization_method acetonitrile
loop_
_atom_site_label
_atom_site_type_symbol
_atom_site_fract_x
_atom_site_fract_y
_atom_site_fract_z
N1 N 0.3103(3) 0.7473(2) 0.56832(17)
N2 N 0.2279(3) 0.4445(2) 0.51737(17)
N3 N 0.2965(3) 0.5960(3) 0.3389(2)
N4 N 0.2991(4) 0.6385(2) 1.0454(2)
F1 F 0.3895(2) 1.03087(14) 0.61645(12)
F2 F 0.3824(2) 0.98821(15) 0.86150(12)
F3 F 0.2177(2) 0.39766(14) 0.75998(12)
C1 C 0.3476(4) 0.8727(3) 0.6551(2)
C2 C 0.3436(3) 0.8544(3) 0.7774(2)
C3 C 0.2997(4) 0.6897(3) 0.8150(2)
C4 C 0.2598(4) 0.5571(3) 0.7244(2)
C5 C 0.2658(3) 0.5839(3) 0.5993(2)
C6 C 0.2435(3) 0.4531(3) 0.3984(2)
C7 C 0.1969(4) 0.2878(3) 0.3221(2)
C8 C 0.1524(4) 0.1371(3) 0.3818(2)
C9 C 0.1096(4) -0.0195(3) 0.3145(2)
C10 C 0.1119(4) -0.0276(3) 0.1880(2)
C11 C 0.1578(4) 0.1198(3) 0.1273(2)
C12 C 0.1989(4) 0.2769(3) 0.1947(2)
C13 C 0.2975(4) 0.6602(3) 0.9425(2)
H1 H 0.347(4) 0.691(3) 0.383(2)
H2 H 0.305(3) 0.593(3) 0.255(2)
H3 H 0.159(3) 0.148(3) 0.468(2)
H4 H 0.083(3) -0.121(2) 0.354(2)
H5 H 0.084(3) -0.132(3) 0.141(2)
H6 H 0.154(3) 0.117(2) 0.040(2)
H7 H 0.225(3) 0.379(3) 0.150(2)
loop_
_geom_bond_atom_site_label_1
_geom_bond_atom_site_label_2
_geom_bond_site_symmetry_1
_geom_bond_site_symmetry_2
N1 C1 1_555 1_555
N2 C5 1_555 1_555
N3 C6 1_555 1_555
N4 C13 1_555 1_555
F1 C1 1_555 1_555
F2 C2 1_555 1_555
F3 C4 1_555 1_555
C1 C2 1_555 1_555
C2 C3 1_555 1_555
C3 C4 1_555 1_555
C4 C5 1_555 1_555
C5 N1 1_555 1_555
C6 N2 1_555 1_555
C7 C6 1_555 1_555
C8 C7 1_555 1_555
C9 C8 1_555 1_555
C10 C9 1_555 1_555
C11 C10 1_555 1_555
C12 C7 1_555 1_555
C13 C3 1_555 1_555
H1 N3 1_555 1_555
H2 N3 1_555 1_555
H3 C8 1_555 1_555
H4 C9 1_555 1_555
H5 C10 1_555 1_555
H6 C11 1_555 1_555
H7 C12 1_555 1_555
C11 C12 1_555 1_555

#END
