
#######################################################################
#
#                 Cambridge Crystallographic Data Centre
#                                CCDC 
#
#######################################################################
#
# If this CIF has been generated from an entry in the Cambridge 
# Structural Database, then it will include bibliographic, chemical, 
# crystal, experimental, refinement or atomic coordinate data resulting 
# from the CCDC's data processing and validation procedures.
#
#######################################################################

data_NIJQOO
_chemical_formula_moiety         'C36 H35 N5 O2,C2 H6 O1'
_chemical_name_systematic        
'9-((2-(1H-Indol-3-yl)ethyl)amino)-10-(((2-(1H-indol-3-yl)ethyl)imino)methyl)-2,3,6,7-tetrahydro-1H,5H,11H-pyrano[2,3-f]pyrido[3,2,1-ij]quinolin-11-one ethanol'
_symmetry_cell_setting           triclinic
_symmetry_space_group_name_H-M   'P -1'
_symmetry_Int_Tables_number      2
_space_group_name_Hall           '-P 1'
loop_
_symmetry_equiv_pos_site_id
_symmetry_equiv_pos_as_xyz
1 x,y,z
2 -x,-y,-z
_cell_length_a                   10.1792(9)
_cell_length_b                   11.8174(9)
_cell_length_c                   13.9668(11)
_cell_angle_alpha                90.426(6)
_cell_angle_beta                 90.494(7)
_cell_angle_gamma                102.848(7)
_cell_volume                     1637.89
_exptl_crystal_colour            yellow
_exptl_crystal_description       prismatic
_cell_formula_units_Z            2
loop_
_atom_site_label
_atom_site_type_symbol
_atom_site_fract_x
_atom_site_fract_y
_atom_site_fract_z
O1 O 0.28018(15) 0.55576(13) 0.48060(11)
O2 O 0.29732(18) 0.67380(15) 0.35891(13)
N1 N 0.1967(8) 0.2774(8) 0.7282(7)
N2 N 0.6531(2) 0.88229(17) 0.44211(16)
N3 N 0.8610(2) 1.34481(18) 0.28300(17)
H1 H 0.9299 1.4017 0.2787
N4 N 0.6426(2) 0.74217(16) 0.59360(15)
H2 H 0.6732 0.8036 0.5609
N5 N 0.7304(2) 1.10410(19) 0.72199(19)
H3 H 0.6986 1.1616 0.7025
C1 C 0.3518(2) 0.65089(18) 0.43410(16)
C2 C 0.4767(2) 0.71173(17) 0.47261(16)
C3 C 0.5277(2) 0.67744(17) 0.56019(15)
C4 C 0.4499(2) 0.57327(17) 0.60575(15)
C5 C 0.4850(2) 0.52305(19) 0.69073(17)
H4 H 0.5672 0.5556 0.7202
C6 C 0.4027(3) 0.4277(2) 0.73211(17)
C7 C 0.2763(2) 0.37842(19) 0.69057(17)
C8 C 0.2384(2) 0.42322(18) 0.60442(17)
C9 C 0.3262(2) 0.51871(17) 0.56502(15)
C10 C 0.4427(10) 0.3821(8) 0.8237(7)
H5 H 0.4303 0.4344 0.8750
H6 H 0.5379 0.3823 0.8214
C11 C 0.3662(6) 0.2612(5) 0.8479(4)
H7 H 0.3823 0.2437 0.9142
H8 H 0.3940 0.2042 0.8071
C12 C 0.2179(13) 0.2600(18) 0.8312(10)
H9 H 0.1625 0.1864 0.8512
H10 H 0.1927 0.3215 0.8683
C13 C 0.0560(3) 0.2432(3) 0.6971(2)
H11 H 0.0049 0.2949 0.7254
H12 H 0.0173 0.1648 0.7179
C14 C 0.0493(3) 0.2492(3) 0.5903(2)
H13 H -0.0435 0.2236 0.5689
H14 H 0.1008 0.1975 0.5625
C15 C 0.1052(2) 0.3723(2) 0.55611(19)
H15 H 0.1170 0.3716 0.4873
H16 H 0.0416 0.4201 0.5704
C16 C 0.5456(2) 0.80909(19) 0.41664(16)
H17 H 0.5086 0.8195 0.3571
C17 C 0.7047(3) 0.9761(2) 0.3757(2)
H18 H 0.6719 0.9524 0.3116
H19 H 0.8023 0.9908 0.3751
C18 C 0.6620(3) 1.0867(2) 0.40295(19)
H20 H 0.5645 1.0726 0.3996
H21 H 0.6892 1.1067 0.4688
C19 C 0.7200(2) 1.18765(19) 0.34073(18)
C20 C 0.6673(2) 1.2175(2) 0.25173(17)
C21 C 0.5504(3) 1.1723(3) 0.1989(2)
H22 H 0.4896 1.1066 0.2199
C22 C 0.5258(3) 1.2254(4) 0.1158(2)
H23 H 0.4480 1.1953 0.0803
C23 C 0.6174(4) 1.3253(4) 0.0838(2)
H24 H 0.5981 1.3611 0.0280
C24 C 0.7338(3) 1.3704(3) 0.1332(2)
H25 H 0.7953 1.4347 0.1107
C25 C 0.7579(2) 1.3176(2) 0.21798(18)
C26 C 0.8369(3) 1.2671(2) 0.35588(19)
H26 H 0.8931 1.2683 0.4089
C27 C 0.7263(2) 0.7277(2) 0.67596(18)
H27 H 0.7588 0.6570 0.6686
H28 H 0.6737 0.7219 0.7340
C28 C 0.8465(2) 0.8330(2) 0.6831(2)
H29 H 0.9134 0.8146 0.7266
H30 H 0.8873 0.8469 0.6206
C29 C 0.8096(2) 0.9409(2) 0.71711(19)
C30 C 0.7642(3) 1.0206(2) 0.6647(2)
H31 H 0.7570 1.0189 0.5982
C31 C 0.7556(3) 1.0810(2) 0.8149(2)
C32 C 0.7388(4) 1.1395(3) 0.8985(3)
H32 H 0.7058 1.2068 0.8969
C33 C 0.7723(5) 1.0957(4) 0.9839(3)
H33 H 0.7614 1.1333 1.0411
C34 C 0.8233(5) 0.9939(4) 0.9854(3)
H34 H 0.8467 0.9656 1.0436
C35 C 0.8389(4) 0.9361(3) 0.9024(2)
H35 H 0.8719 0.8688 0.9047
C36 C 0.8054(2) 0.9781(2) 0.81451(19)
O3 O 0.1188(2) 0.5032(2) 0.25655(19)
H44 H 0.1702 0.5521 0.2891
C40 C 0.1431(5) 0.5265(4) 0.1596(3)
H45 H 0.2309 0.5782 0.1531
H46 H 0.0762 0.5660 0.1349
C41 C 0.1390(8) 0.4224(6) 0.1029(4)
H47 H 0.2048 0.3827 0.1271
H48 H 0.1584 0.4432 0.0374
H49 H 0.0509 0.3723 0.1067
N6? N 0.1836(12) 0.2995(12) 0.7411(10)
C37? C 0.4518(13) 0.3758(12) 0.8244(7)
H36? H 0.4984 0.3152 0.8080
H37? H 0.5131 0.4357 0.8609
C38? C 0.3261(8) 0.3261(9) 0.8826(6)
H38? H 0.3519 0.2870 0.9382
H39? H 0.2879 0.3895 0.9053
C39? C 0.2203(11) 0.2420(16) 0.8262(8)
H40? H 0.2549 0.1750 0.8074
H41? H 0.1414 0.2154 0.8653
H42? H -0.0138 0.2781 0.7234
H43? H 0.0356 0.1622 0.7153
loop_
_geom_bond_atom_site_label_1
_geom_bond_atom_site_label_2
_geom_bond_site_symmetry_1
_geom_bond_site_symmetry_2
O1 C1 1_555 1_555
O2 C1 1_555 1_555
N1 C7 1_555 1_555
N2 C16 1_555 1_555
N3 H1 1_555 1_555
N4 H2 1_555 1_555
N5 H3 1_555 1_555
C1 C2 1_555 1_555
C2 C3 1_555 1_555
C3 N4 1_555 1_555
C4 C3 1_555 1_555
C5 C4 1_555 1_555
H4 C5 1_555 1_555
C6 C5 1_555 1_555
C7 C6 1_555 1_555
C8 C7 1_555 1_555
C9 O1 1_555 1_555
C10 C6 1_555 1_555
H5 C10 1_555 1_555
H6 C10 1_555 1_555
C11 C10 1_555 1_555
H7 C11 1_555 1_555
H8 C11 1_555 1_555
C12 N1 1_555 1_555
H9 C12 1_555 1_555
H10 C12 1_555 1_555
C13 N1 1_555 1_555
H11 C13 1_555 1_555
H12 C13 1_555 1_555
C14 C13 1_555 1_555
H13 C14 1_555 1_555
H14 C14 1_555 1_555
C15 C8 1_555 1_555
H15 C15 1_555 1_555
H16 C15 1_555 1_555
C16 C2 1_555 1_555
H17 C16 1_555 1_555
C17 N2 1_555 1_555
H18 C17 1_555 1_555
H19 C17 1_555 1_555
C18 C17 1_555 1_555
H20 C18 1_555 1_555
H21 C18 1_555 1_555
C19 C18 1_555 1_555
C20 C19 1_555 1_555
C21 C20 1_555 1_555
H22 C21 1_555 1_555
C22 C21 1_555 1_555
H23 C22 1_555 1_555
C23 C22 1_555 1_555
H24 C23 1_555 1_555
C24 C23 1_555 1_555
H25 C24 1_555 1_555
C25 N3 1_555 1_555
C26 N3 1_555 1_555
H26 C26 1_555 1_555
C27 N4 1_555 1_555
H27 C27 1_555 1_555
H28 C27 1_555 1_555
C28 C27 1_555 1_555
H29 C28 1_555 1_555
H30 C28 1_555 1_555
C29 C28 1_555 1_555
C30 N5 1_555 1_555
H31 C30 1_555 1_555
C31 N5 1_555 1_555
C32 C31 1_555 1_555
H32 C32 1_555 1_555
C33 C32 1_555 1_555
H33 C33 1_555 1_555
C34 C33 1_555 1_555
H34 C34 1_555 1_555
C35 C34 1_555 1_555
H35 C35 1_555 1_555
C36 C29 1_555 1_555
O3 H44 1_555 1_555
C40 O3 1_555 1_555
H45 C40 1_555 1_555
H46 C40 1_555 1_555
C41 C40 1_555 1_555
H47 C41 1_555 1_555
H48 C41 1_555 1_555
H49 C41 1_555 1_555
C4 C9 1_555 1_555
C8 C9 1_555 1_555
C11 C12 1_555 1_555
C14 C15 1_555 1_555
C19 C26 1_555 1_555
C20 C25 1_555 1_555
C24 C25 1_555 1_555
C29 C30 1_555 1_555
C31 C36 1_555 1_555
C35 C36 1_555 1_555

#END
