
#######################################################################
#
#                 Cambridge Crystallographic Data Centre
#                                CCDC 
#
#######################################################################
#
# If this CIF has been generated from an entry in the Cambridge 
# Structural Database, then it will include bibliographic, chemical, 
# crystal, experimental, refinement or atomic coordinate data resulting 
# from the CCDC's data processing and validation procedures.
#
#######################################################################

data_NIJQUV
_chemical_name_common            
'caffeine bis(myricetin) methanol solvate monohydrate'
_chemical_formula_moiety         '2(C15 H10 O8),C8 H10 N4 O2,C1 H4 O1,H2 O1'
_chemical_name_systematic        
'1,3,7-trimethyl-3,7-dihydro-1H-purine-2,6-dione bis(3,5,7-trihydroxy-2-(3,4,5-trihydroxyphenyl)-4H-1-benzopyran-4-one) methanol solvate monohydrate'
_chemical_properties_biological  
'antiinflammatory, antiallergic, antiplatelet aggregation, and antioxidant effects'
_symmetry_cell_setting           triclinic
_symmetry_space_group_name_H-M   'P -1'
_symmetry_Int_Tables_number      2
_space_group_name_Hall           '-P 1'
loop_
_symmetry_equiv_pos_site_id
_symmetry_equiv_pos_as_xyz
1 x,y,z
2 -x,-y,-z
_cell_length_a                   11.0802(18)
_cell_length_b                   12.2517(19)
_cell_length_c                   15.674(3)
_cell_angle_alpha                110.273(4)
_cell_angle_beta                 99.189(4)
_cell_angle_gamma                103.523(4)
_cell_volume                     1871.81
_exptl_crystal_colour            colorless
_exptl_crystal_description       prismatic
_cell_formula_units_Z            2
loop_
_atom_site_label
_atom_site_type_symbol
_atom_site_fract_x
_atom_site_fract_y
_atom_site_fract_z
N1 N 0.9762(5) 0.8873(4) 0.8178(3)
N2 N 1.0065(5) 0.7479(4) 0.8845(3)
N3 N 0.8956(6) 0.5351(4) 0.7851(4)
N4 N 0.8090(5) 0.5669(4) 0.6569(3)
O1 O 0.8497(4) 0.8230(4) 0.6668(3)
O2 O 1.1088(4) 0.9507(4) 0.9637(3)
C1 C 0.8966(6) 0.7968(5) 0.7311(4)
C2 C 1.0352(6) 0.8671(5) 0.8924(4)
C3 C 0.9279(6) 0.6546(5) 0.8030(4)
C4 C 0.8776(6) 0.6770(5) 0.7279(4)
C5 C 0.8207(8) 0.4839(6) 0.6944(5)
H1 H 0.7813 0.4000 0.6614
C6 C 0.9986(7) 1.0154(5) 0.8291(5)
H2 H 1.0500 1.0691 0.8918
H3 H 0.9175 1.0307 0.8186
H4 H 1.0428 1.0299 0.7842
C7 C 1.0608(7) 0.7224(6) 0.9645(4)
H5 H 0.9968 0.7086 0.9975
H6 H 1.1336 0.7911 1.0065
H7 H 1.0874 0.6508 0.9419
C8 C 0.7361(7) 0.5378(7) 0.5633(4)
H8 H 0.6620 0.5654 0.5664
H9 H 0.7088 0.4507 0.5280
H10 H 0.7887 0.5776 0.5330
O3 O 0.6515(5) 0.5343(3) -0.0639(3)
H11 H 0.6540 0.4683 -0.0998
O4 O 0.6930(5) 0.7559(3) 0.0804(3)
H12 H 0.6632 0.7365 0.0239
O5 O 0.7482(5) 0.7777(3) 0.2621(2)
H13 H 0.7267 0.8260 0.2424
O6 O 0.7792(4) 0.3876(3) 0.2531(2)
O7 O 0.5603(4) 0.1915(3) 0.0267(3)
H14 H 0.5283 0.1168 0.0036
O8 O 0.6105(4) 0.0250(3) 0.0953(2)
O9 O 0.9817(5) 0.3237(3) 0.5084(3)
H15 H 0.9954 0.2689 0.5234
O10 O 0.7197(4) -0.0202(3) 0.2329(3)
H16 H 0.6784 -0.0347 0.1797
C9 C 0.6678(6) 0.4380(4) 0.0460(4)
H17 H 0.6495 0.3613 -0.0022
C10 C 0.6692(6) 0.5382(5) 0.0253(4)
C11 C 0.6915(6) 0.6530(5) 0.0967(4)
C12 C 0.7185(6) 0.6667(4) 0.1890(4)
C13 C 0.7182(6) 0.5661(4) 0.2111(4)
H18 H 0.7343 0.5752 0.2737
C14 C 0.6940(5) 0.4525(4) 0.1397(4)
C15 C 0.7000(5) 0.3482(5) 0.1650(4)
C16 C 0.6409(6) 0.2274(4) 0.1122(4)
C17 C 0.6624(5) 0.1367(4) 0.1458(4)
C18 C 0.7461(5) 0.1819(4) 0.2383(4)
C19 C 0.8006(5) 0.3067(4) 0.2911(4)
C20 C 0.8802(6) 0.3546(5) 0.3809(4)
H19 H 0.9168 0.4388 0.4143
C21 C 0.9044(6) 0.2744(5) 0.4203(4)
C22 C 0.8518(6) 0.1484(5) 0.3701(4)
H20 H 0.8701 0.0954 0.3971
C23 C 0.7735(5) 0.1030(4) 0.2815(4)
O11 O 0.2715(4) 0.1767(3) 0.0766(2)
H21 H 0.2409 0.1048 0.0393
O12 O 0.3966(4) 0.4029(3) 0.2125(3)
H22 H 0.3571 0.3831 0.1578
O13 O 0.5458(5) 0.4321(3) 0.3786(3)
H23 H 0.5417 0.4831 0.3564
O14 O 0.5415(4) 0.0405(3) 0.3698(2)
O15 O 0.2982(4) -0.1690(3) 0.1561(3)
H24 H 0.2501 -0.2360 0.1475
O16 O 0.3840(4) -0.3249(3) 0.2205(3)
O17 O 0.8049(4) -0.0037(3) 0.6108(3)
H25 H 0.8198 -0.0565 0.6279
O18 O 0.5166(5) -0.3584(3) 0.3550(3)
H26 H 0.4490 -0.3822 0.3678
C24 C 0.3543(5) 0.0827(4) 0.1772(4)
H27 H 0.3136 0.0039 0.1312
C25 C 0.3417(5) 0.1837(4) 0.1589(3)
C26 C 0.4058(5) 0.3009(4) 0.2263(4)
C27 C 0.4794(6) 0.3175(4) 0.3113(4)
C28 C 0.4920(6) 0.2193(4) 0.3315(4)
H28 H 0.5431 0.2321 0.3894
C29 C 0.4278(5) 0.1002(4) 0.2643(3)
C30 C 0.4480(5) -0.0024(4) 0.2871(4)
C31 C 0.3897(5) -0.1259(4) 0.2373(3)
C32 C 0.4316(6) -0.2115(5) 0.2693(4)
C33 C 0.5227(6) -0.1620(5) 0.3583(4)
C34 C 0.5774(5) -0.0359(4) 0.4062(4)
C35 C 0.6706(6) 0.0177(5) 0.4911(4)
H29 H 0.7048 0.1024 0.5218
C36 C 0.7115(6) -0.0571(5) 0.5293(4)
C37 C 0.6576(6) -0.1849(5) 0.4840(4)
H30 H 0.6845 -0.2349 0.5108
C38 C 0.5664(6) -0.2348(4) 0.4012(4)
O19 O 0.1085(5) 0.6360(4) 0.1307(4)
H31 H 0.1315 0.5894 0.1518
C39 C 0.0210(10) 0.6782(10) 0.1748(9)
H32 H 0.0602 0.7212 0.2413
H33 H -0.0523 0.6103 0.1638
H34 H -0.0060 0.7327 0.1501
O20 O 0.0285(9) 0.1558(6) 0.5763(4)
H35 H 0.100(3) 0.177(5) 0.612(3)
H36 H -0.020(5) 0.187(7) 0.603(4)
loop_
_geom_bond_atom_site_label_1
_geom_bond_atom_site_label_2
_geom_bond_site_symmetry_1
_geom_bond_site_symmetry_2
N1 C1 1_555 1_555
N2 C2 1_555 1_555
N3 C3 1_555 1_555
N4 C4 1_555 1_555
O1 C1 1_555 1_555
O2 C2 1_555 1_555
C1 C4 1_555 1_555
C2 N1 1_555 1_555
C3 N2 1_555 1_555
C4 C3 1_555 1_555
C5 N3 1_555 1_555
H1 C5 1_555 1_555
C6 N1 1_555 1_555
H2 C6 1_555 1_555
H3 C6 1_555 1_555
H4 C6 1_555 1_555
C7 N2 1_555 1_555
H5 C7 1_555 1_555
H6 C7 1_555 1_555
H7 C7 1_555 1_555
C8 N4 1_555 1_555
H8 C8 1_555 1_555
H9 C8 1_555 1_555
H10 C8 1_555 1_555
O3 H11 1_555 1_555
O4 H12 1_555 1_555
O5 H13 1_555 1_555
O6 C15 1_555 1_555
O7 H14 1_555 1_555
O8 C17 1_555 1_555
O9 H15 1_555 1_555
O10 H16 1_555 1_555
C9 H17 1_555 1_555
C10 O3 1_555 1_555
C11 O4 1_555 1_555
C12 O5 1_555 1_555
C13 C12 1_555 1_555
H18 C13 1_555 1_555
C14 C9 1_555 1_555
C15 C14 1_555 1_555
C16 O7 1_555 1_555
C17 C16 1_555 1_555
C18 C17 1_555 1_555
C19 O6 1_555 1_555
C20 C19 1_555 1_555
H19 C20 1_555 1_555
C21 O9 1_555 1_555
C22 C21 1_555 1_555
H20 C22 1_555 1_555
C23 O10 1_555 1_555
O11 H21 1_555 1_555
O12 H22 1_555 1_555
O13 H23 1_555 1_555
O14 C30 1_555 1_555
O15 H24 1_555 1_555
O16 C32 1_555 1_555
O17 H25 1_555 1_555
O18 H26 1_555 1_555
C24 H27 1_555 1_555
C25 O11 1_555 1_555
C26 O12 1_555 1_555
C27 O13 1_555 1_555
C28 C27 1_555 1_555
H28 C28 1_555 1_555
C29 C24 1_555 1_555
C30 C29 1_555 1_555
C31 O15 1_555 1_555
C32 C31 1_555 1_555
C33 C32 1_555 1_555
C34 O14 1_555 1_555
C35 C34 1_555 1_555
H29 C35 1_555 1_555
C36 O17 1_555 1_555
C37 C36 1_555 1_555
H30 C37 1_555 1_555
C38 O18 1_555 1_555
O19 H31 1_555 1_555
C39 O19 1_555 1_555
H32 C39 1_555 1_555
H33 C39 1_555 1_555
H34 C39 1_555 1_555
O20 H35 1_555 1_555
H36 O20 1_555 1_555
N4 C5 1_555 1_555
C9 C10 1_555 1_555
C10 C11 1_555 1_555
C11 C12 1_555 1_555
C13 C14 1_555 1_555
C15 C16 1_555 1_555
C18 C19 1_555 1_555
C18 C23 1_555 1_555
C20 C21 1_555 1_555
C22 C23 1_555 1_555
C24 C25 1_555 1_555
C25 C26 1_555 1_555
C26 C27 1_555 1_555
C28 C29 1_555 1_555
C30 C31 1_555 1_555
C33 C34 1_555 1_555
C33 C38 1_555 1_555
C35 C36 1_555 1_555
C37 C38 1_555 1_555

#END
