
#######################################################################
#
#                 Cambridge Crystallographic Data Centre
#                                CCDC 
#
#######################################################################
#
# If this CIF has been generated from an entry in the Cambridge 
# Structural Database, then it will include bibliographic, chemical, 
# crystal, experimental, refinement or atomic coordinate data resulting 
# from the CCDC's data processing and validation procedures.
#
#######################################################################

data_NIJWAG
_chemical_formula_moiety         'C22 H15 N1 S1'
_chemical_name_systematic        
N-(Pyren-1-ylmethylene)-1-(2-thienyl)methanamine
_symmetry_cell_setting           monoclinic
_symmetry_space_group_name_H-M   'P 21/c'
_symmetry_Int_Tables_number      14
_space_group_name_Hall           '-P 2ybc'
loop_
_symmetry_equiv_pos_site_id
_symmetry_equiv_pos_as_xyz
1 x,y,z
2 -x,1/2+y,1/2-z
3 -x,-y,-z
4 x,1/2-y,1/2+z
_cell_length_a                   12.6935(18)
_cell_length_b                   9.3300(12)
_cell_length_c                   13.2778(17)
_cell_angle_alpha                90
_cell_angle_beta                 95.550(10)
_cell_angle_gamma                90
_cell_volume                     1565.12
_exptl_crystal_colour            colorless
_exptl_crystal_description       prism
_cell_formula_units_Z            4
loop_
_atom_site_label
_atom_site_type_symbol
_atom_site_fract_x
_atom_site_fract_y
_atom_site_fract_z
C1 C 0.5894(2) 0.0910(3) 0.68419(19)
C2 C 0.6447(2) 0.1943(3) 0.63376(19)
H1 H 0.7167 0.2133 0.6563
C3 C 0.5970(2) 0.2692(3) 0.5521(2)
H2 H 0.6362 0.3400 0.5203
C4 C 0.4923(2) 0.2426(3) 0.51552(19)
C5 C 0.4411(2) 0.3142(3) 0.4281(2)
H3 H 0.4787 0.3865 0.3960
C6 C 0.3422(2) 0.2823(3) 0.3907(2)
H4 H 0.3115 0.3320 0.3327
C7 C 0.2816(2) 0.1747(3) 0.43611(19)
C8 C 0.1799(2) 0.1356(3) 0.3971(2)
H5 H 0.1481 0.1827 0.3384
C9 C 0.1241(2) 0.0301(3) 0.4418(2)
H6 H 0.0551 0.0049 0.4133
C10 C 0.1684(2) -0.0396(3) 0.5281(2)
H7 H 0.1291 -0.1117 0.5585
C11 C 0.2699(2) -0.0045(3) 0.5706(2)
C12 C 0.3202(2) -0.0753(3) 0.6581(2)
H8 H 0.2817 -0.1459 0.6909
C13 C 0.4202(2) -0.0453(3) 0.69565(19)
H9 H 0.4501 -0.0958 0.7537
C14 C 0.4833(2) 0.0610(3) 0.65029(18)
C15 C 0.4338(2) 0.1361(3) 0.56415(18)
C16 C 0.3285(2) 0.1033(3) 0.52474(19)
C17 C 0.6461(2) 0.0143(3) 0.7706(2)
N1 N 0.73173(19) 0.0623(2) 0.81526(17)
C18 C 0.7844(2) -0.0255(4) 0.8970(2)
H10 H 0.7450 -0.1163 0.9022
H11 H 0.7840 0.0261 0.9621
C19 C 0.8966(4) -0.0582(6) 0.8777(5)
S1 S 0.98181(12) 0.07865(14) 0.85988(12)
C20 C 1.0826(4) -0.0389(5) 0.8400(6)
H12 H 1.1517 -0.0104 0.8262
C21 C 1.0508(5) -0.1771(6) 0.8464(6)
H13 H 1.0954 -0.2573 0.8386
C22 C 0.9434(10) -0.1881(11) 0.8660(13)
H14 H 0.9075 -0.2768 0.8707
H15 H 0.615(3) -0.081(4) 0.793(3)
H16? H 0.7838 0.0230 0.9632
H17? H 0.7498 -0.1202 0.9003
C23? C 0.891(2) -0.040(3) 0.869(3)
S2? S 0.9353(14) -0.2114(15) 0.868(2)
C24? C 1.058(2) -0.154(3) 0.839(4)
H18? H 1.1145 -0.2170 0.8281
C25? C 1.064(2) -0.010(3) 0.834(4)
H19? H 1.1279 0.0415 0.8265
C26? C 0.964(3) 0.057(3) 0.843(3)
H20? H 0.9499 0.1561 0.8312
loop_
_geom_bond_atom_site_label_1
_geom_bond_atom_site_label_2
_geom_bond_site_symmetry_1
_geom_bond_site_symmetry_2
C1 C2 1_555 1_555
C2 H1 1_555 1_555
C3 C2 1_555 1_555
H2 C3 1_555 1_555
C4 C3 1_555 1_555
C5 C4 1_555 1_555
H3 C5 1_555 1_555
C6 C5 1_555 1_555
H4 C6 1_555 1_555
C7 C6 1_555 1_555
C8 C7 1_555 1_555
H5 C8 1_555 1_555
C9 C8 1_555 1_555
H6 C9 1_555 1_555
C10 C9 1_555 1_555
H7 C10 1_555 1_555
C11 C10 1_555 1_555
C12 C11 1_555 1_555
H8 C12 1_555 1_555
C13 C12 1_555 1_555
H9 C13 1_555 1_555
C14 C1 1_555 1_555
C15 C4 1_555 1_555
C16 C7 1_555 1_555
C17 C1 1_555 1_555
N1 C17 1_555 1_555
C18 N1 1_555 1_555
H10 C18 1_555 1_555
H11 C18 1_555 1_555
C19 C18 1_555 1_555
S1 C19 1_555 1_555
C20 S1 1_555 1_555
H12 C20 1_555 1_555
C21 C20 1_555 1_555
H13 C21 1_555 1_555
C22 C19 1_555 1_555
H14 C22 1_555 1_555
H15 C17 1_555 1_555
C11 C16 1_555 1_555
C13 C14 1_555 1_555
C14 C15 1_555 1_555
C15 C16 1_555 1_555
C21 C22 1_555 1_555

#END
