
#######################################################################
#
#                 Cambridge Crystallographic Data Centre
#                                CCDC 
#
#######################################################################
#
# If this CIF has been generated from an entry in the Cambridge 
# Structural Database, then it will include bibliographic, chemical, 
# crystal, experimental, refinement or atomic coordinate data resulting 
# from the CCDC's data processing and validation procedures.
#
#######################################################################

data_NIJWEK
_chemical_formula_moiety         'C20 H15 N1 S1'
_chemical_name_systematic        
N-(9-Anthrylmethylene)-1-(2-thienyl)methanamine
_symmetry_cell_setting           monoclinic
_symmetry_space_group_name_H-M   'P 21/n'
_symmetry_Int_Tables_number      14
_space_group_name_Hall           '-P 2yn'
loop_
_symmetry_equiv_pos_site_id
_symmetry_equiv_pos_as_xyz
1 x,y,z
2 1/2-x,1/2+y,1/2-z
3 -x,-y,-z
4 1/2+x,1/2-y,1/2+z
_cell_length_a                   4.3718(4)
_cell_length_b                   13.1396(12)
_cell_length_c                   25.912(2)
_cell_angle_alpha                90
_cell_angle_beta                 93.433(5)
_cell_angle_gamma                90
_cell_volume                     1485.81
_exptl_crystal_colour            colorless
_exptl_crystal_description       prism
_cell_formula_units_Z            4
loop_
_atom_site_label
_atom_site_type_symbol
_atom_site_fract_x
_atom_site_fract_y
_atom_site_fract_z
C1 C 0.6609(4) 0.29530(13) 0.88883(6)
C2 C 0.7434(4) 0.34453(13) 0.84341(6)
C3 C 0.9471(4) 0.42948(13) 0.84417(7)
H1 H 1.038(4) 0.4540(14) 0.8771(7)
C4 C 1.0162(4) 0.47750(14) 0.79981(7)
H2 H 1.158(4) 0.5334(15) 0.8013(7)
C5 C 0.8847(4) 0.44433(14) 0.75132(7)
H3 H 0.937(4) 0.4780(14) 0.7209(7)
C6 C 0.6903(4) 0.36373(14) 0.74871(7)
H4 H 0.598(4) 0.3401(14) 0.7158(7)
C7 C 0.6138(4) 0.31076(13) 0.79414(7)
C8 C 0.4136(4) 0.22832(13) 0.79222(7)
H5 H 0.325(4) 0.2062(14) 0.7587(7)
C9 C 0.3352(4) 0.17749(13) 0.83665(7)
C10 C 0.1306(4) 0.09285(14) 0.83408(8)
H6 H 0.050(4) 0.0754(14) 0.8000(8)
C11 C 0.0570(4) 0.04285(14) 0.87715(8)
H7 H -0.085(5) -0.0118(16) 0.8754(8)
C12 C 0.1861(4) 0.07386(14) 0.92628(8)
H8 H 0.128(4) 0.0367(16) 0.9582(8)
C13 C 0.3791(4) 0.15525(14) 0.93074(7)
H9 H 0.458(4) 0.1743(15) 0.9646(8)
C14 C 0.4601(4) 0.21118(13) 0.88633(7)
C15 C 0.7944(4) 0.33346(13) 0.93931(6)
H10 H 1.013(4) 0.3357(14) 0.9437(7)
N1 N 0.6245(3) 0.36189(11) 0.97466(5)
C16 C 0.7836(4) 0.39651(13) 1.02310(7)
H11 H 0.730(4) 0.4692(15) 1.0280(7)
H12 H 1.010(4) 0.3911(13) 1.0214(6)
C17 C 0.6799(4) 0.33840(13) 1.06839(6)
C18 C 0.5276(4) 0.37322(15) 1.10894(7)
H13 H 0.466(4) 0.4417(16) 1.1117(7)
C19 C 0.4718(4) 0.29702(15) 1.14593(7)
H14 H 0.361(5) 0.3105(16) 1.1767(8)
C20 C 0.5816(4) 0.20524(16) 1.13288(7)
H15 H 0.574(5) 0.1428(17) 1.1495(8)
S1 S 0.75335(11) 0.20977(3) 1.075132(18)
loop_
_geom_bond_atom_site_label_1
_geom_bond_atom_site_label_2
_geom_bond_site_symmetry_1
_geom_bond_site_symmetry_2
C1 C2 1_555 1_555
C2 C3 1_555 1_555
C3 H1 1_555 1_555
C4 C3 1_555 1_555
H2 C4 1_555 1_555
C5 C4 1_555 1_555
H3 C5 1_555 1_555
C6 C5 1_555 1_555
H4 C6 1_555 1_555
C7 C2 1_555 1_555
C8 C7 1_555 1_555
H5 C8 1_555 1_555
C9 C8 1_555 1_555
C10 C9 1_555 1_555
H6 C10 1_555 1_555
C11 C10 1_555 1_555
H7 C11 1_555 1_555
C12 C11 1_555 1_555
H8 C12 1_555 1_555
C13 C12 1_555 1_555
H9 C13 1_555 1_555
C14 C1 1_555 1_555
C15 C1 1_555 1_555
H10 C15 1_555 1_555
N1 C15 1_555 1_555
C16 N1 1_555 1_555
H11 C16 1_555 1_555
H12 C16 1_555 1_555
C17 C16 1_555 1_555
C18 C17 1_555 1_555
H13 C18 1_555 1_555
C19 C18 1_555 1_555
H14 C19 1_555 1_555
C20 C19 1_555 1_555
H15 C20 1_555 1_555
S1 C17 1_555 1_555
C6 C7 1_555 1_555
C9 C14 1_555 1_555
C13 C14 1_555 1_555
C20 S1 1_555 1_555

#END
