
#######################################################################
#
#                 Cambridge Crystallographic Data Centre
#                                CCDC 
#
#######################################################################
#
# If this CIF has been generated from an entry in the Cambridge 
# Structural Database, then it will include bibliographic, chemical, 
# crystal, experimental, refinement or atomic coordinate data resulting 
# from the CCDC's data processing and validation procedures.
#
#######################################################################

data_NIJYUC
_chemical_formula_moiety         'C8 H7 Cl1 N4 O2'
_chemical_name_systematic        
6-Chloro-7-hydrazino-4-hydroxyphthalazin-1(2H)-one
_symmetry_cell_setting           monoclinic
_symmetry_space_group_name_H-M   'P 21/c'
_symmetry_Int_Tables_number      14
_space_group_name_Hall           '-P 2ybc'
loop_
_symmetry_equiv_pos_site_id
_symmetry_equiv_pos_as_xyz
1 x,y,z
2 -x,1/2+y,1/2-z
3 -x,-y,-z
4 x,1/2-y,1/2+z
_cell_length_a                   13.175(3)
_cell_length_b                   18.284(4)
_cell_length_c                   7.2832(15)
_cell_angle_alpha                90
_cell_angle_beta                 90.66(3)
_cell_angle_gamma                90
_cell_volume                     1754.35
_exptl_crystal_colour            yellow
_exptl_crystal_description       COLUMNAR
_cell_formula_units_Z            8
loop_
_atom_site_label
_atom_site_type_symbol
_atom_site_fract_x
_atom_site_fract_y
_atom_site_fract_z
N1 N 0.88257(16) -0.34241(11) 0.1191(3)
H1 H 0.8387 -0.3745 0.0840
N2 N 0.97272(16) -0.36924(11) 0.1905(3)
N3 N 0.96095(17) -0.01912(12) 0.2042(4)
H2 H 1.0081 0.0109 0.2367
N4 N 0.86825(19) 0.00836(13) 0.1437(4)
O1 O 0.77299(14) -0.25448(10) 0.0270(3)
O2 O 1.12867(13) -0.34451(10) 0.3128(3)
H3 H 1.1300 -0.3893 0.3127
Cl1 Cl 1.15815(5) -0.05530(4) 0.37197(11)
C1 C 0.97931(19) -0.09317(13) 0.2133(4)
C2 C 0.90953(19) -0.14453(13) 0.1496(4)
H4 H 0.8482 -0.1291 0.0984
C3 C 0.93093(19) -0.21894(13) 0.1618(4)
C4 C 1.02318(18) -0.24356(13) 0.2345(3)
C5 C 1.09543(19) -0.19223(13) 0.2966(4)
H5 H 1.1578 -0.2075 0.3438
C6 C 1.07222(19) -0.11916(14) 0.2860(4)
C7 C 0.85538(19) -0.27197(13) 0.0981(4)
C8 C 1.03905(19) -0.32137(14) 0.2446(4)
H6 H 0.859(2) -0.0029(17) 0.031(4)
H7 H 0.817(3) -0.014(2) 0.221(5)
N5 N 0.62254(16) -0.15274(12) 0.3858(3)
H8 H 0.6661 -0.1840 0.4266
N6 N 0.52837(16) -0.18003(12) 0.3349(3)
N7 N 0.55525(18) 0.16762(12) 0.2212(4)
H9 H 0.5121 0.1962 0.1681
N8 N 0.6449(2) 0.19659(14) 0.2887(6)
O3 O 0.74205(13) -0.06524(9) 0.4273(3)
O4 O 0.36939(14) -0.15492(10) 0.2262(3)
H10 H 0.3652 -0.1993 0.2412
Cl2 Cl 0.34598(5) 0.13036(4) 0.10723(10)
C9 C 0.5327(2) 0.09382(13) 0.2365(4)
C10 C 0.60366(19) 0.04329(13) 0.2997(4)
H11 H 0.6682 0.0589 0.3348
C11 C 0.57901(19) -0.03020(13) 0.3108(4)
C12 C 0.48250(18) -0.05525(14) 0.2575(4)
C13 C 0.41040(19) -0.00462(14) 0.1946(4)
H12 H 0.3458 -0.0202 0.1597
C14 C 0.43548(19) 0.06797(14) 0.1846(4)
C15 C 0.65331(19) -0.08276(13) 0.3782(4)
C16 C 0.46265(19) -0.13224(14) 0.2745(4)
H13 H 0.657(3) 0.177(2) 0.411(6)
H14 H 0.685(3) 0.1815(19) 0.212(5)
loop_
_geom_bond_atom_site_label_1
_geom_bond_atom_site_label_2
_geom_bond_site_symmetry_1
_geom_bond_site_symmetry_2
N1 H1 1_555 1_555
N2 N1 1_555 1_555
N3 H2 1_555 1_555
N4 N3 1_555 1_555
O1 C7 1_555 1_555
O2 H3 1_555 1_555
Cl1 C6 1_555 1_555
C1 N3 1_555 1_555
C2 C1 1_555 1_555
H4 C2 1_555 1_555
C3 C2 1_555 1_555
C4 C3 1_555 1_555
C5 C4 1_555 1_555
H5 C5 1_555 1_555
C6 C1 1_555 1_555
C7 N1 1_555 1_555
C8 N2 1_555 1_555
H6 N4 1_555 1_555
H7 N4 1_555 1_555
N5 H8 1_555 1_555
N6 N5 1_555 1_555
N7 H9 1_555 1_555
N8 N7 1_555 1_555
O3 C15 1_555 1_555
O4 H10 1_555 1_555
Cl2 C14 1_555 1_555
C9 N7 1_555 1_555
C10 C9 1_555 1_555
H11 C10 1_555 1_555
C11 C10 1_555 1_555
C12 C11 1_555 1_555
C13 C12 1_555 1_555
H12 C13 1_555 1_555
C14 C9 1_555 1_555
C15 N5 1_555 1_555
C16 N6 1_555 1_555
H13 N8 1_555 1_555
H14 N8 1_555 1_555
O2 C8 1_555 1_555
C3 C7 1_555 1_555
C4 C8 1_555 1_555
C5 C6 1_555 1_555
O4 C16 1_555 1_555
C11 C15 1_555 1_555
C12 C16 1_555 1_555
C13 C14 1_555 1_555

#END
