
#######################################################################
#
#                 Cambridge Crystallographic Data Centre
#                                CCDC 
#
#######################################################################
#
# If this CIF has been generated from an entry in the Cambridge 
# Structural Database, then it will include bibliographic, chemical, 
# crystal, experimental, refinement or atomic coordinate data resulting 
# from the CCDC's data processing and validation procedures.
#
#######################################################################

data_NIKFIX
_chemical_formula_moiety         'C22 H24 N2 O1'
_chemical_name_systematic        4-(2',4'-Di-t-butylphenoxy)phthalonitrile
_symmetry_cell_setting           triclinic
_symmetry_space_group_name_H-M   'P -1'
_symmetry_Int_Tables_number      2
_space_group_name_Hall           '-P 1'
loop_
_symmetry_equiv_pos_site_id
_symmetry_equiv_pos_as_xyz
1 x,y,z
2 -x,-y,-z
_cell_length_a                   10.4220(14)
_cell_length_b                   10.7590(15)
_cell_length_c                   11.3100(12)
_cell_angle_alpha                62.982(5)
_cell_angle_beta                 63.137(4)
_cell_angle_gamma                72.372(4)
_cell_volume                     1000.25
_cell_formula_units_Z            2
_exptl_crystal_recrystallization_method methanol
loop_
_atom_site_label
_atom_site_type_symbol
_atom_site_fract_x
_atom_site_fract_y
_atom_site_fract_z
O1 O 0.83675(16) 0.00824(15) 0.53317(16)
N1 N 0.2888(3) -0.0373(3) 1.0329(3)
N2 N 0.4314(4) -0.4396(3) 1.1514(3)
H1 H 0.582(3) 0.073(3) 0.716(3)
H2 H 0.903(3) -0.248(3) 0.643(3)
H3 H 0.758(3) -0.416(3) 0.868(3)
H4 H 0.770(4) 0.446(4) 0.239(4)
H5 H 0.798(3) 0.391(3) 0.601(3)
H6 H 0.825(3) 0.141(3) 0.674(3)
H7 H 0.952(5) 0.004(5) 0.296(5)
H8 H 0.945(4) 0.048(4) 0.144(4)
H9 H 1.026(4) 0.152(4) 0.167(4)
H10 H 0.775(4) 0.253(4) 0.067(4)
H11 H 0.845(3) 0.349(3) 0.081(3)
H12 H 0.681(5) 0.358(5) 0.154(4)
H13 H 0.573(4) 0.143(4) 0.375(4)
H14 H 0.667(4) 0.008(4) 0.438(4)
H15 H 0.661(4) 0.038(4) 0.282(4)
C1 C 0.5885(3) -0.2661(2) 0.9164(2)
C2 C 0.5371(2) -0.1238(2) 0.8738(2)
C3 C 0.6177(2) -0.0276(2) 0.7459(2)
C4 C 0.7512(2) -0.0751(2) 0.6622(2)
C5 C 0.8037(2) -0.2174(2) 0.7039(3)
C6 C 0.7228(3) -0.3115(2) 0.8296(3)
C7 C 0.5008(3) -0.3634(3) 1.0484(3)
C8 C 0.3984(3) -0.0746(3) 0.9619(3)
C9 C 0.8116(2) 0.1551(2) 0.4933(2)
C10 C 0.7973(2) 0.2378(2) 0.3620(2)
C11 C 0.7853(2) 0.3823(2) 0.3245(2)
C12 C 0.7860(2) 0.4448(2) 0.4093(3)
C13 C 0.7991(3) 0.3565(3) 0.5392(3)
C14 C 0.8136(2) 0.2115(2) 0.5812(2)
C15 C 0.7944(3) 0.1754(2) 0.2647(3)
C16 C 0.9380(3) 0.0850(4) 0.2171(4)
C17 C 0.7720(5) 0.2902(4) 0.1289(4)
C18 C 0.6668(4) 0.0877(4) 0.3435(4)
C19 C 0.7729(3) 0.6043(3) 0.3597(3)
C26 C 0.6470(19) 0.6761(16) 0.312(3)
C27 C 0.7683(18) 0.6494(12) 0.4787(13)
C28 C 0.9227(19) 0.6516(13) 0.2275(17)
C20? C 0.786(2) 0.6819(12) 0.1983(13)
C21? C 0.6105(14) 0.6550(13) 0.4535(17)
C22? C 0.8924(14) 0.6506(12) 0.3603(16)
C23? C 0.714(2) 0.6847(17) 0.216(2)
C24? C 0.656(2) 0.6586(17) 0.4728(17)
C25? C 0.938(2) 0.641(2) 0.287(3)
C29? C 0.6174(15) 0.6630(14) 0.383(2)
C30? C 0.828(2) 0.6431(13) 0.4559(15)
C31? C 0.869(3) 0.6689(16) 0.2051(16)
loop_
_geom_bond_atom_site_label_1
_geom_bond_atom_site_label_2
_geom_bond_site_symmetry_1
_geom_bond_site_symmetry_2
O1 C4 1_555 1_555
N1 C8 1_555 1_555
N2 C7 1_555 1_555
H1 C3 1_555 1_555
H2 C5 1_555 1_555
H3 C6 1_555 1_555
H4 C11 1_555 1_555
H5 C13 1_555 1_555
H6 C14 1_555 1_555
H7 C16 1_555 1_555
H8 C16 1_555 1_555
H9 C16 1_555 1_555
H10 C17 1_555 1_555
H11 C17 1_555 1_555
H12 C17 1_555 1_555
H13 C18 1_555 1_555
H14 C18 1_555 1_555
H15 C18 1_555 1_555
C1 C2 1_555 1_555
C2 C3 1_555 1_555
C3 C4 1_555 1_555
C4 C5 1_555 1_555
C5 C6 1_555 1_555
C6 C1 1_555 1_555
C7 C1 1_555 1_555
C8 C2 1_555 1_555
C9 O1 1_555 1_555
C10 C9 1_555 1_555
C11 C10 1_555 1_555
C12 C11 1_555 1_555
C13 C12 1_555 1_555
C14 C9 1_555 1_555
C15 C10 1_555 1_555
C16 C15 1_555 1_555
C17 C15 1_555 1_555
C18 C15 1_555 1_555
C19 C12 1_555 1_555
C26 C19 1_555 1_555
C27 C19 1_555 1_555
C28 C19 1_555 1_555
C13 C14 1_555 1_555

#END
