
#######################################################################
#
#                 Cambridge Crystallographic Data Centre
#                                CCDC 
#
#######################################################################
#
# If this CIF has been generated from an entry in the Cambridge 
# Structural Database, then it will include bibliographic, chemical, 
# crystal, experimental, refinement or atomic coordinate data resulting 
# from the CCDC's data processing and validation procedures.
#
#######################################################################

data_NIKFAP
_chemical_formula_moiety         'C14 H16 N2 O2'
_chemical_name_systematic        3,6-Di(iso-propoxy)phthalonitrile
_symmetry_cell_setting           monoclinic
_symmetry_space_group_name_H-M   'C 2/c'
_symmetry_Int_Tables_number      15
_space_group_name_Hall           '-C 2yn'
loop_
_symmetry_equiv_pos_site_id
_symmetry_equiv_pos_as_xyz
1 x,y,z
2 1/2+x,1/2+y,z
3 -x,y,1/2-z
4 1/2-x,1/2+y,1/2-z
5 -x,-y,-z
6 1/2-x,1/2-y,-z
7 x,-y,1/2+z
8 1/2+x,1/2-y,1/2+z
_cell_length_a                   24.262(5)
_cell_length_b                   7.7832(15)
_cell_length_c                   7.3511(17)
_cell_angle_alpha                90
_cell_angle_beta                 104.062(3)
_cell_angle_gamma                90
_cell_volume                     1346.55
_exptl_crystal_colour            colorless
_exptl_crystal_description       platelet
_chemical_melting_point          '464 K'
_cell_formula_units_Z            4
_exptl_crystal_recrystallization_method methanol
loop_
_atom_site_label
_atom_site_type_symbol
_atom_site_fract_x
_atom_site_fract_y
_atom_site_fract_z
O1 O 0.38844(4) 0.59614(13) 0.27651(16)
N1 N 0.42041(6) 0.17205(16) 0.25107(19)
H1 H 0.3643(9) 0.843(3) 0.029(3)
H2 H 0.3764(7) 0.828(2) 0.355(2)
H3 H 0.2853(9) 0.599(3) 0.287(3)
H4 H 0.3105(8) 0.727(3) 0.010(2)
H5 H 0.3207(10) 0.639(3) 0.483(3)
H6 H 0.2795(10) 0.781(3) 0.359(3)
H7 H 0.3100(11) 0.915(3) 0.089(3)
H8 H 0.4533(7) 0.867(2) 0.261(2)
C1 C 0.47208(5) 0.76301(18) 0.2556(2)
C2 C 0.44274(5) 0.61142(16) 0.26125(16)
C3 C 0.47135(5) 0.45906(15) 0.25440(14)
C4 C 0.35384(5) 0.74648(19) 0.2762(2)
C5 C 0.33379(7) 0.8136(3) 0.0820(3)
C6 C 0.30642(7) 0.6888(3) 0.3627(3)
C7 C 0.44241(5) 0.30011(16) 0.25464(16)
O1B O 0.61156(4) 0.59614(13) 0.22349(16)
N1B N 0.57959(6) 0.17205(16) 0.24893(19)
H1B H 0.6357(9) 0.843(3) 0.471(3)
H2B H 0.6236(7) 0.828(2) 0.145(2)
H3B H 0.7147(9) 0.599(3) 0.213(3)
H4B H 0.6895(8) 0.727(3) 0.490(2)
H5B H 0.6793(10) 0.639(3) 0.017(3)
H6B H 0.7205(10) 0.781(3) 0.141(3)
H7B H 0.6900(11) 0.915(3) 0.411(3)
H8B H 0.5467(7) 0.867(2) 0.239(2)
C1B C 0.52792(5) 0.76301(18) 0.2444(2)
C2B C 0.55726(5) 0.61142(16) 0.23875(16)
C3B C 0.52865(5) 0.45906(15) 0.24560(14)
C4B C 0.64616(5) 0.74648(19) 0.2238(2)
C5B C 0.66621(7) 0.8136(3) 0.4180(3)
C6B C 0.69358(7) 0.6888(3) 0.1373(3)
C7B C 0.55759(5) 0.30011(16) 0.24536(16)
loop_
_geom_bond_atom_site_label_1
_geom_bond_atom_site_label_2
_geom_bond_site_symmetry_1
_geom_bond_site_symmetry_2
O1 C2 1_555 1_555
N1 C7 1_555 1_555
H1 C5 1_555 1_555
H2 C4 1_555 1_555
H3 C6 1_555 1_555
H4 C5 1_555 1_555
H5 C6 1_555 1_555
H6 C6 1_555 1_555
H7 C5 1_555 1_555
H8 C1 1_555 1_555
C1 C2 1_555 1_555
C2 C3 1_555 1_555
C3 C7 1_555 1_555
C4 O1 1_555 1_555
C5 C4 1_555 1_555
C6 C4 1_555 1_555
O1B C2B 1_555 1_555
N1B C7B 1_555 1_555
H1B C5B 1_555 1_555
H2B C4B 1_555 1_555
H3B C6B 1_555 1_555
H4B C5B 1_555 1_555
H5B C6B 1_555 1_555
H6B C6B 1_555 1_555
H7B C5B 1_555 1_555
H8B C1B 1_555 1_555
C1B C1 1_555 1_555
C2B C1B 1_555 1_555
C3B C3 1_555 1_555
C4B O1B 1_555 1_555
C5B C4B 1_555 1_555
C6B C4B 1_555 1_555
C7B C3B 1_555 1_555
C2B C3B 1_555 1_555

#END
