
#######################################################################
#
#                 Cambridge Crystallographic Data Centre
#                                CCDC 
#
#######################################################################
#
# If this CIF has been generated from an entry in the Cambridge 
# Structural Database, then it will include bibliographic, chemical, 
# crystal, experimental, refinement or atomic coordinate data resulting 
# from the CCDC's data processing and validation procedures.
#
#######################################################################

data_NIKGEW
_chemical_formula_moiety         'C69 H54 O6,4.28(C6 H12),0.22(C1 H1 Cl3)'
_chemical_name_systematic        
'(rac)-(O-Methyl)~6~-2,6-helic[6]arene chloroform cyclohexane solvate'
_symmetry_cell_setting           triclinic
_symmetry_space_group_name_H-M   'P -1'
_symmetry_Int_Tables_number      2
_space_group_name_Hall           '-P 1'
loop_
_symmetry_equiv_pos_site_id
_symmetry_equiv_pos_as_xyz
1 x,y,z
2 -x,-y,-z
_cell_length_a                   12.555(2)
_cell_length_b                   17.818(3)
_cell_length_c                   17.840(3)
_cell_angle_alpha                73.987(4)
_cell_angle_beta                 89.554(5)
_cell_angle_gamma                87.329(5)
_cell_volume                     3831.83
_exptl_crystal_colour            colorless
_exptl_crystal_description       needle
_cell_formula_units_Z            2
loop_
_atom_site_label
_atom_site_type_symbol
_atom_site_fract_x
_atom_site_fract_y
_atom_site_fract_z
C70 C 0.3365(6) -0.0037(4) 0.6980(4)
H55 H 0.387741 0.003168 0.654429
H56 H 0.274064 0.032522 0.679094
C71 C 0.2986(7) -0.0899(5) 0.7198(5)
H57 H 0.250738 -0.097288 0.678801
H58 H 0.360586 -0.127532 0.725531
C72 C 0.2389(9) -0.1022(8) 0.7977(6)
H59 H 0.213048 -0.155871 0.814190
H60 H 0.176184 -0.065043 0.790580
C73 C 0.3132(8) -0.0893(5) 0.8620(5)
H61 H 0.280768 -0.107538 0.914297
H62 H 0.383576 -0.116801 0.862228
C74 C 0.3229(9) -0.0026(5) 0.8387(5)
H63 H 0.360064 0.013618 0.879958
H64 H 0.251343 0.024147 0.830423
C75 C 0.3871(7) 0.0187(6) 0.7625(5)
H65 H 0.396271 0.075752 0.746527
H66 H 0.458886 -0.007627 0.772430
C76 C 0.6558(9) 0.1925(6) 0.8134(6)
H67 H 0.604117 0.200266 0.770013
H68 H 0.699456 0.239073 0.802401
C77 C 0.5948(9) 0.1870(6) 0.8878(6)
H69 H 0.643765 0.198060 0.926311
H70 H 0.537268 0.228464 0.876893
C78 C 0.5466(9) 0.1113(6) 0.9240(7)
H71 H 0.477130 0.111206 0.898259
H72 H 0.532104 0.108040 0.979449
C79 C 0.6122(10) 0.0377(6) 0.9208(6)
H73 H 0.663912 0.023706 0.964612
H74 H 0.563968 -0.006025 0.927579
C80 C 0.6719(9) 0.0480(6) 0.8451(6)
H75 H 0.725644 0.004130 0.852006
H76 H 0.620785 0.043609 0.804667
C81 C 0.7271(9) 0.1225(6) 0.8153(7)
H77 H 0.753405 0.126314 0.761945
H78 H 0.789612 0.122025 0.848906
C82 C 0.0910(10) 0.6537(6) 0.0892(6)
H79 H 0.038005 0.632664 0.130050
H80 H 0.161863 0.649924 0.114284
C83 C 0.0602(9) 0.7399(6) 0.0461(6)
H81 H -0.008364 0.742987 0.018212
H82 H 0.051764 0.770981 0.084181
C84 C 0.1480(12) 0.7724(9) -0.0118(9)
H83 H 0.210259 0.750931 0.018967
H84 H 0.157039 0.821541 -0.049853
C85 C 0.1512(13) 0.7148(8) -0.0615(8)
H85 H 0.078554 0.711907 -0.081433
H86 H 0.197822 0.734613 -0.107050
C86 C 0.1916(10) 0.6337(8) -0.0172(7)
H87 H 0.212340 0.601384 -0.052595
H88 H 0.252213 0.634866 0.017502
C87 C 0.0936(10) 0.6064(7) 0.0274(7)
H89 H 0.099119 0.549454 0.052572
H90 H 0.029536 0.619070 -0.006529
C88 C 0.9977(19) 0.0211(15) 0.9165(15)
H91 H 0.928450 0.051222 0.907719
H92 H 1.030175 0.027698 0.864434
C89 C 0.972(2) -0.0645(15) 0.9464(17)
H93 H 1.035290 -0.100003 0.947542
H94 H 0.913761 -0.078478 0.916218
C90 C 1.068(2) 0.062310 0.9606(16)
H95 H 1.074584 0.116931 0.928500
H96 H 1.140680 0.036695 0.964992
C88A C 1.0023(19) -0.0211(15) 1.0835(15)
H91A H 1.071550 -0.051222 1.092281
H92A H 0.969825 -0.027698 1.135566
C89A C 1.028(2) 0.0645(15) 1.0536(17)
H93A H 0.964710 0.100003 1.052458
H94A H 1.086239 0.078478 1.083782
C90A C 0.932(2) -0.062310 1.0394(16)
H95A H 0.925416 -0.116931 1.071500
H96A H 0.859320 -0.036695 1.035008
C91 C 0.5988(11) 0.3981(9) 0.3630(9)
H97 H 0.527509 0.403244 0.338327
H98 H 0.600316 0.434983 0.395486
C92 C 0.6841(11) 0.4172(8) 0.3005(8)
H99 H 0.751449 0.423980 0.325922
H100 H 0.663320 0.468136 0.263445
C93 C 0.7076(14) 0.3574(9) 0.2527(9)
H101 H 0.640847 0.341589 0.233372
H102 H 0.754391 0.379252 0.207752
C94 C 0.7639(12) 0.2885(9) 0.3119(9)
H103 H 0.824556 0.305171 0.337534
H104 H 0.789018 0.247051 0.287775
C95 C 0.6719(11) 0.2620(8) 0.3687(8)
H105 H 0.614390 0.247364 0.338478
H106 H 0.697656 0.213419 0.407395
C96 C 0.6202(12) 0.3141(8) 0.4140(9)
H107 H 0.667301 0.314718 0.458087
H108 H 0.551991 0.292206 0.435988
C1 C 0.8920(3) 0.4711(2) 0.4565(2)
C2 C 0.9692(3) 0.4468(2) 0.4109(2)
C3 C 1.0027(3) 0.3682(2) 0.4324(2)
H1 H 1.054291 0.349862 0.401548
C4 C 0.9624(3) 0.3162(2) 0.4979(2)
C5 C 0.9936(3) 0.2286(2) 0.5318(2)
H2 H 1.048793 0.209176 0.500015
C6 C 1.0307(3) 0.2202(2) 0.6153(2)
C7 C 1.1266(3) 0.1894(2) 0.6487(2)
H3 H 1.178570 0.168845 0.619748
C8 C 1.1472(4) 0.1885(3) 0.7267(3)
H4 H 1.214215 0.168758 0.749991
C9 C 1.0700(4) 0.2162(3) 0.7690(3)
H5 H 1.084108 0.214730 0.821589
C10 C 0.9723(4) 0.2461(3) 0.7358(2)
H6 H 0.919783 0.265015 0.765529
C11 C 0.9513(3) 0.2483(2) 0.6593(2)
C12 C 0.8494(3) 0.2787(2) 0.6133(2)
H7 H 0.793375 0.297679 0.644722
C13 C 0.8838(3) 0.3427(2) 0.5418(2)
C14 C 0.8480(3) 0.4198(2) 0.5209(2)
H8 H 0.793848 0.437680 0.550150
C15 C 0.8915(3) 0.1850(2) 0.5397(2)
C16 C 0.8714(3) 0.1224(2) 0.5100(2)
H9 H 0.924423 0.103130 0.480939
C17 C 0.7735(3) 0.0886(2) 0.5233(2)
C18 C 0.6947(3) 0.1152(2) 0.5668(2)
C19 C 0.7166(3) 0.1775(2) 0.5959(2)
H10 H 0.663824 0.196874 0.625098
C20 C 0.8138(3) 0.2116(2) 0.5832(2)
C21 C 0.7836(4) 0.5789(3) 0.4744(3)
H11 H 0.774618 0.635811 0.453440
H12 H 0.803261 0.565976 0.529716
H13 H 0.716464 0.554949 0.468856
C22 C 0.8303(4) -0.0210(3) 0.4771(3)
H14 H 0.864032 0.006535 0.428066
H15 H 0.801662 -0.069458 0.471741
H16 H 0.883386 -0.033324 0.519228
C23 C 0.5885(3) 0.0760(2) 0.5827(2)
H17 H 0.567665 0.071055 0.637491
H18 H 0.596712 0.022767 0.575985
C24 C 0.4998(3) 0.1223(2) 0.5282(2)
C25 C 0.4354(3) 0.1786(2) 0.5487(2)
C26 C 0.3547(3) 0.2214(2) 0.4987(2)
H19 H 0.310404 0.259470 0.513604
C27 C 0.4056(3) 0.1508(2) 0.4048(2)
C28 C 0.4837(3) 0.1088(2) 0.4550(2)
H20 H 0.527184 0.070289 0.440080
C29 C 0.3412(3) 0.2065(2) 0.4265(2)
C30 C 0.2607(3) 0.2493(2) 0.3640(2)
H21 H 0.215149 0.289802 0.379911
C31 C 0.3253(3) 0.2829(2) 0.2905(2)
C32 C 0.3213(3) 0.3595(2) 0.2454(2)
H22 H 0.279397 0.397825 0.261737
C33 C 0.3784(3) 0.3810(2) 0.1760(2)
C34 C 0.4386(3) 0.3236(2) 0.1534(2)
C35 C 0.4457(3) 0.2464(2) 0.1991(2)
H23 H 0.488688 0.208225 0.183399
C36 C 0.3885(3) 0.2265(2) 0.2680(2)
C37 C 0.3788(3) 0.1443(2) 0.3229(2)
H24 H 0.424695 0.103867 0.307191
C38 C 0.2606(3) 0.1291(2) 0.3231(2)
C39 C 0.2147(3) 0.0683(3) 0.3021(2)
H25 H 0.258203 0.028798 0.289034
C40 C 0.1049(4) 0.0662(3) 0.3005(3)
H26 H 0.073292 0.024461 0.286624
C41 C 0.0395(4) 0.1240(3) 0.3189(3)
H27 H -0.035862 0.122533 0.316095
C42 C 0.0861(3) 0.1842(3) 0.3416(2)
H28 H 0.042575 0.223328 0.355312
C43 C 0.1958(3) 0.1863(2) 0.3440(2)
C44 C 0.4128(4) 0.2591(3) 0.6361(3)
H29 H 0.437250 0.304748 0.596315
H30 H 0.436759 0.260966 0.687622
H31 H 0.334706 0.259426 0.634968
C45 C 0.5264(4) 0.2903(3) 0.0462(2)
H32 H 0.550967 0.315941 -0.006551
H33 H 0.468026 0.256581 0.043194
H34 H 0.585516 0.258610 0.076513
C46 C 0.3695(3) 0.4652(2) 0.1233(2)
H35 H 0.372226 0.463939 0.068181
H36 H 0.299274 0.489060 0.131816
C47 C 0.4553(3) 0.5161(2) 0.1368(2)
C48 C 0.4426(4) 0.5591(2) 0.1910(2)
C49 C 0.5202(4) 0.6078(3) 0.2025(2)
H37 H 0.508502 0.637995 0.238406
C50 C 0.6153(3) 0.6123(2) 0.1609(2)
C51 C 0.6303(3) 0.5684(2) 0.1078(2)
C52 C 0.5514(3) 0.5202(2) 0.0964(2)
H38 H 0.563131 0.489811 0.060682
C53 C 0.7107(3) 0.6593(2) 0.1678(2)
H39 H 0.699669 0.690116 0.206583
C54 C 0.7311(3) 0.7101(3) 0.0861(2)
C55 C 0.7470(3) 0.6661(3) 0.0320(2)
C56 C 0.7396(3) 0.5785(3) 0.0678(2)
H40 H 0.750621 0.547309 0.029381
C57 C 0.8193(3) 0.5559(3) 0.1358(2)
C58 C 0.8046(3) 0.5994(2) 0.1888(2)
C59 C 0.7335(4) 0.7899(3) 0.0602(3)
H41 H 0.722143 0.820086 0.096196
C60 C 0.7522(4) 0.8274(3) -0.0174(3)
H42 H 0.753679 0.882809 -0.034364
C61 C 0.7687(4) 0.7842(3) -0.0697(3)
H43 H 0.781541 0.810173 -0.122832
C62 C 0.7670(3) 0.7031(3) -0.0462(3)
H44 H 0.779113 0.673593 -0.082661
C63 C 0.8968(3) 0.4952(3) 0.1483(2)
H45 H 0.906755 0.465264 0.112014
C64 C 0.9599(3) 0.4796(2) 0.2159(2)
C65 C 0.9490(3) 0.5234(2) 0.2681(2)
C66 C 0.8694(3) 0.5849(2) 0.2539(2)
H46 H 0.860685 0.616070 0.289196
C67 C 0.3272(6) 0.5926(5) 0.2858(5)
H47 H 0.332538 0.648641 0.260711
H48 H 0.380634 0.575649 0.327573
H49 H 0.255822 0.582758 0.307845
C68 C 1.0493(4) 0.3715(3) 0.1838(3)
H50 H 1.069263 0.403359 0.131906
H51 H 0.981922 0.347087 0.180190
H52 H 1.105253 0.330871 0.203890
C69 C 1.0168(3) 0.5053(2) 0.3414(2)
H53 H 1.027084 0.554551 0.355309
H54 H 1.087825 0.484472 0.330230
O1 O 0.8639(2) 0.55051(16) 0.43339(16)
O2 O 0.7463(2) 0.02737(16) 0.49470(16)
O3 O 0.4556(2) 0.18982(16) 0.62048(15)
O4 O 0.4901(2) 0.34754(17) 0.08280(15)
O5 O 0.3456(3) 0.55053(19) 0.23001(18)
O6 O 1.0372(2) 0.41911(18) 0.23419(16)
C97? C 0.538(2) 0.4333(12) 0.4465(14)
H109? H 0.599703 0.453942 0.412664
Cl1? Cl 0.5802(7) 0.3627(6) 0.5182(5)
Cl2? Cl 0.4368(6) 0.4158(4) 0.3881(4)
Cl3? Cl 0.500000 0.500000 0.500000
loop_
_geom_bond_atom_site_label_1
_geom_bond_atom_site_label_2
_geom_bond_site_symmetry_1
_geom_bond_site_symmetry_2
C1 C2 1_555 1_555
C2 C3 1_555 1_555
C3 H1 1_555 1_555
C4 C3 1_555 1_555
C5 C4 1_555 1_555
H2 C5 1_555 1_555
C6 C5 1_555 1_555
C7 C6 1_555 1_555
H3 C7 1_555 1_555
C8 C7 1_555 1_555
H4 C8 1_555 1_555
C9 C8 1_555 1_555
H5 C9 1_555 1_555
C10 C9 1_555 1_555
H6 C10 1_555 1_555
C11 C6 1_555 1_555
C12 C11 1_555 1_555
H7 C12 1_555 1_555
C13 C4 1_555 1_555
C14 C1 1_555 1_555
H8 C14 1_555 1_555
C15 C5 1_555 1_555
C16 C15 1_555 1_555
H9 C16 1_555 1_555
C17 C16 1_555 1_555
C18 C17 1_555 1_555
C19 C18 1_555 1_555
H10 C19 1_555 1_555
C20 C12 1_555 1_555
C21 H11 1_555 1_555
H12 C21 1_555 1_555
H13 C21 1_555 1_555
C22 H14 1_555 1_555
H15 C22 1_555 1_555
H16 C22 1_555 1_555
C23 C18 1_555 1_555
H17 C23 1_555 1_555
H18 C23 1_555 1_555
C24 C23 1_555 1_555
C25 C24 1_555 1_555
C26 C25 1_555 1_555
H19 C26 1_555 1_555
C27 C28 1_555 1_555
C28 C24 1_555 1_555
H20 C28 1_555 1_555
C29 C26 1_555 1_555
C30 C29 1_555 1_555
H21 C30 1_555 1_555
C31 C30 1_555 1_555
C32 C31 1_555 1_555
H22 C32 1_555 1_555
C33 C32 1_555 1_555
C34 C33 1_555 1_555
C35 C34 1_555 1_555
H23 C35 1_555 1_555
C36 C31 1_555 1_555
C37 C27 1_555 1_555
H24 C37 1_555 1_555
C38 C37 1_555 1_555
C39 C38 1_555 1_555
H25 C39 1_555 1_555
C40 C39 1_555 1_555
H26 C40 1_555 1_555
C41 C40 1_555 1_555
H27 C41 1_555 1_555
C42 C41 1_555 1_555
H28 C42 1_555 1_555
C43 C30 1_555 1_555
C44 H29 1_555 1_555
H30 C44 1_555 1_555
H31 C44 1_555 1_555
C45 H32 1_555 1_555
H33 C45 1_555 1_555
H34 C45 1_555 1_555
C46 C33 1_555 1_555
H35 C46 1_555 1_555
H36 C46 1_555 1_555
C47 C46 1_555 1_555
C48 C47 1_555 1_555
C49 C48 1_555 1_555
H37 C49 1_555 1_555
C50 C49 1_555 1_555
C51 C50 1_555 1_555
C52 C47 1_555 1_555
H38 C52 1_555 1_555
C53 C50 1_555 1_555
H39 C53 1_555 1_555
C54 C53 1_555 1_555
C55 C54 1_555 1_555
C56 C51 1_555 1_555
H40 C56 1_555 1_555
C57 C56 1_555 1_555
C58 C53 1_555 1_555
C59 C54 1_555 1_555
H41 C59 1_555 1_555
C60 C59 1_555 1_555
H42 C60 1_555 1_555
C61 C60 1_555 1_555
H43 C61 1_555 1_555
C62 C55 1_555 1_555
H44 C62 1_555 1_555
C63 C57 1_555 1_555
H45 C63 1_555 1_555
C64 C63 1_555 1_555
C65 C64 1_555 1_555
C66 C58 1_555 1_555
H46 C66 1_555 1_555
C67 H47 1_555 1_555
H48 C67 1_555 1_555
H49 C67 1_555 1_555
C68 H50 1_555 1_555
H51 C68 1_555 1_555
H52 C68 1_555 1_555
C69 C2 1_555 1_555
H53 C69 1_555 1_555
H54 C69 1_555 1_555
O1 C1 1_555 1_555
O2 C17 1_555 1_555
O3 C25 1_555 1_555
O4 C34 1_555 1_555
O5 C48 1_555 1_555
O6 C64 1_555 1_555
C70 H55 1_555 1_555
H56 C70 1_555 1_555
C71 C70 1_555 1_555
H57 C71 1_555 1_555
H58 C71 1_555 1_555
C72 C71 1_555 1_555
H59 C72 1_555 1_555
H60 C72 1_555 1_555
C73 C72 1_555 1_555
H61 C73 1_555 1_555
H62 C73 1_555 1_555
C74 C73 1_555 1_555
H63 C74 1_555 1_555
H64 C74 1_555 1_555
C75 C70 1_555 1_555
H65 C75 1_555 1_555
H66 C75 1_555 1_555
C76 H67 1_555 1_555
H68 C76 1_555 1_555
C77 C76 1_555 1_555
H69 C77 1_555 1_555
H70 C77 1_555 1_555
C78 C77 1_555 1_555
H71 C78 1_555 1_555
H72 C78 1_555 1_555
C79 C78 1_555 1_555
H73 C79 1_555 1_555
H74 C79 1_555 1_555
C80 C79 1_555 1_555
H75 C80 1_555 1_555
H76 C80 1_555 1_555
C81 C76 1_555 1_555
H77 C81 1_555 1_555
H78 C81 1_555 1_555
C82 H79 1_555 1_555
H80 C82 1_555 1_555
C83 C82 1_555 1_555
H81 C83 1_555 1_555
H82 C83 1_555 1_555
C84 C83 1_555 1_555
H83 C84 1_555 1_555
H84 C84 1_555 1_555
C85 C84 1_555 1_555
H85 C85 1_555 1_555
H86 C85 1_555 1_555
C86 C85 1_555 1_555
H87 C86 1_555 1_555
H88 C86 1_555 1_555
C87 C82 1_555 1_555
H89 C87 1_555 1_555
H90 C87 1_555 1_555
C88 H91 1_555 1_555
H92 C88 1_555 1_555
C89 C88 1_555 1_555
H93 C89 1_555 1_555
H94 C89 1_555 1_555
C90 C88 1_555 1_555
H95 C90 1_555 1_555
H96 C90 1_555 1_555
C91 H97 1_555 1_555
H98 C91 1_555 1_555
C92 C91 1_555 1_555
H99 C92 1_555 1_555
H100 C92 1_555 1_555
C93 C92 1_555 1_555
H101 C93 1_555 1_555
H102 C93 1_555 1_555
C94 C93 1_555 1_555
H103 C94 1_555 1_555
H104 C94 1_555 1_555
C95 C94 1_555 1_555
H105 C95 1_555 1_555
H106 C95 1_555 1_555
C96 C91 1_555 1_555
H107 C96 1_555 1_555
H108 C96 1_555 1_555
C88A H91A 1_555 1_555
H92A C88A 1_555 1_555
C89A C90 1_555 1_555
H93A C89A 1_555 1_555
H94A C89A 1_555 1_555
C90A C89 1_555 1_555
H95A C90A 1_555 1_555
H96A C90A 1_555 1_555
C10 C11 1_555 1_555
C12 C13 1_555 1_555
C13 C14 1_555 1_555
C15 C20 1_555 1_555
C19 C20 1_555 1_555
C21 O1 1_555 1_555
C22 O2 1_555 1_555
C27 C29 1_555 1_555
C35 C36 1_555 1_555
C36 C37 1_555 1_555
C38 C43 1_555 1_555
C42 C43 1_555 1_555
C44 O3 1_555 1_555
C45 O4 1_555 1_555
C51 C52 1_555 1_555
C55 C56 1_555 1_555
C57 C58 1_555 1_555
C61 C62 1_555 1_555
C65 C66 1_555 1_555
C65 C69 1_555 1_555
C67 O5 1_555 1_555
C68 O6 1_555 1_555
C74 C75 1_555 1_555
C80 C81 1_555 1_555
C86 C87 1_555 1_555
C95 C96 1_555 1_555
C88A C89A 1_555 1_555
C88A C90A 1_555 1_555

#END
