
#######################################################################
#
#                 Cambridge Crystallographic Data Centre
#                                CCDC 
#
#######################################################################
#
# If this CIF has been generated from an entry in the Cambridge 
# Structural Database, then it will include bibliographic, chemical, 
# crystal, experimental, refinement or atomic coordinate data resulting 
# from the CCDC's data processing and validation procedures.
#
#######################################################################

data_NIKGAS
_chemical_formula_moiety         'C63 H36 Br6 O6'
_chemical_name_systematic        
'(+)-P-Hexabromo-2,6-helic[6]arene unknown solvate'
_symmetry_cell_setting           orthorhombic
_symmetry_space_group_name_H-M   'P 21 21 21'
_symmetry_Int_Tables_number      19
_space_group_name_Hall           'P 2ac 2ab'
loop_
_symmetry_equiv_pos_site_id
_symmetry_equiv_pos_as_xyz
1 x,y,z
2 1/2-x,-y,1/2+z
3 1/2+x,1/2-y,-z
4 -x,1/2+y,1/2-z
_cell_length_a                   11.0266(4)
_cell_length_b                   24.2582(11)
_cell_length_c                   26.2224(10)
_cell_angle_alpha                90
_cell_angle_beta                 90
_cell_angle_gamma                90
_cell_volume                     7014.11
_exptl_crystal_colour            colorless
_exptl_crystal_description       rod
_cell_formula_units_Z            4
loop_
_atom_site_label
_atom_site_type_symbol
_atom_site_fract_x
_atom_site_fract_y
_atom_site_fract_z
Br1 Br 0.12980(16) 0.43583(7) 0.12733(6)
Br2 Br -0.28396(15) 0.16191(8) 0.17851(8)
Br3 Br 0.52691(13) 0.24805(6) 0.27638(5)
Br4 Br -0.04040(12) 0.09803(6) 0.41315(5)
Br5 Br 0.22980(13) 0.47058(7) 0.40173(7)
Br6 Br -0.45351(12) 0.34636(6) 0.39319(5)
O1 O -0.0558(8) 0.4909(4) 0.1987(3)
H1 H 0.004741 0.502238 0.182317
O2 O -0.0374(8) 0.1013(4) 0.1896(4)
H2 H -0.110665 0.092948 0.193709
O3 O 0.3884(8) 0.2121(4) 0.1809(3)
H3 H 0.448239 0.232145 0.181865
O4 O -0.0348(7) 0.2006(3) 0.4833(3)
H4 H -0.088042 0.178991 0.472213
O5 O 0.2889(7) 0.3645(3) 0.4595(3)
H5 H 0.315184 0.393982 0.448870
O6 O -0.4447(8) 0.3855(4) 0.2821(3)
H6 H -0.493228 0.369547 0.301905
C1 C -0.2100(12) 0.4222(5) 0.1969(4)
C2 C -0.0895(13) 0.4393(6) 0.1808(5)
C3 C -0.0221(11) 0.4071(6) 0.1489(4)
C4 C -0.0599(13) 0.3565(5) 0.1347(4)
C5 C -0.1790(12) 0.3388(6) 0.1491(4)
C6 C -0.2457(12) 0.3719(5) 0.1795(4)
H7 H -0.323560 0.359176 0.189563
C7 C -0.2142(13) 0.2828(6) 0.1274(5)
H8 H -0.297008 0.270166 0.137664
C8 C -0.1120(13) 0.2430(6) 0.1426(5)
C9 C 0.0018(11) 0.2594(6) 0.1291(5)
C10 C 0.0083(12) 0.3157(5) 0.0996(4)
H9 H 0.091514 0.327560 0.089117
C11 C -0.0826(16) 0.3051(6) 0.0548(5)
C12 C -0.1970(17) 0.2886(6) 0.0695(6)
C13 C -0.2899(17) 0.2758(6) 0.0343(6)
H10 H -0.367375 0.264155 0.045949
C14 C -0.266(2) 0.2805(10) -0.0186(7)
C15 C -0.148(2) 0.2972(7) -0.0321(6)
H11 H -0.129781 0.298097 -0.067517
C16 C -0.0518(17) 0.3131(7) 0.0025(5)
C17 C -0.1261(13) 0.1895(7) 0.1627(5)
C18 C -0.0290(13) 0.1563(5) 0.1705(4)
C19 C 0.0866(12) 0.1732(6) 0.1587(4)
C20 C 0.1044(15) 0.2264(6) 0.1376(4)
H12 H 0.183420 0.239289 0.129459
C21 C 0.1978(12) 0.1358(6) 0.1668(4)
H13 H 0.172597 0.096689 0.164815
H14 H 0.257845 0.142641 0.139474
C22 C 0.2563(11) 0.1468(5) 0.2187(4)
C23 C 0.3489(11) 0.1836(5) 0.2243(5)
C24 C 0.3999(10) 0.1964(5) 0.2731(5)
C25 C 0.3591(10) 0.1687(5) 0.3153(4)
C26 C 0.2669(11) 0.1296(5) 0.3103(4)
C27 C 0.2170(11) 0.1182(5) 0.2616(4)
H15 H 0.156074 0.090759 0.258231
C28 C 0.2349(12) 0.0994(5) 0.3594(4)
H16 H 0.170803 0.070716 0.354525
C29 C 0.1955(11) 0.1461(5) 0.3955(4)
C30 C 0.2833(10) 0.1854(5) 0.4020(4)
C31 C 0.4005(10) 0.1756(5) 0.3695(4)
H17 H 0.463115 0.204994 0.373927
C32 C 0.4435(11) 0.1178(5) 0.3875(4)
C33 C 0.5583(12) 0.1039(6) 0.4063(4)
H18 H 0.619490 0.131267 0.409113
C34 C 0.5824(13) 0.0496(6) 0.4209(5)
H19 H 0.657886 0.040447 0.436070
C35 C 0.4982(13) 0.0106(6) 0.4132(5)
H20 H 0.516705 -0.026365 0.422318
C36 C 0.3845(13) 0.0222(6) 0.3925(4)
H21 H 0.327607 -0.006665 0.387101
C37 C 0.3552(11) 0.0756(5) 0.3798(4)
C38 C 0.0885(10) 0.1498(5) 0.4209(4)
C39 C 0.0678(9) 0.1951(5) 0.4552(4)
C40 C 0.1569(10) 0.2345(5) 0.4628(4)
C41 C 0.2679(10) 0.2282(4) 0.4349(4)
H22 H 0.331390 0.254171 0.439428
C42 C 0.1395(10) 0.2820(4) 0.5000(4)
H23 H 0.085455 0.269749 0.527967
H24 H 0.218996 0.291458 0.515280
C43 C 0.0871(10) 0.3323(5) 0.4761(4)
C44 C 0.1639(10) 0.3729(6) 0.4545(4)
C45 C 0.1187(11) 0.4200(5) 0.4311(4)
C46 C -0.0027(10) 0.4289(5) 0.4284(4)
C47 C -0.0829(10) 0.3892(6) 0.4506(5)
C48 C -0.0360(10) 0.3427(5) 0.4731(4)
H25 H -0.090505 0.316509 0.487221
C49 C -0.0721(10) 0.4780(5) 0.4044(4)
H26 H -0.017712 0.505881 0.388085
C50 C -0.1624(10) 0.4519(5) 0.3671(4)
C51 C -0.2437(10) 0.4145(5) 0.3896(4)
C52 C -0.2162(12) 0.4044(5) 0.4468(4)
H27 H -0.271419 0.376834 0.463041
C53 C -0.2281(11) 0.4641(5) 0.4701(4)
C54 C -0.3108(12) 0.4795(6) 0.5072(5)
H28 H -0.366388 0.453193 0.520455
C55 C -0.3122(15) 0.5338(7) 0.5253(6)
H29 H -0.364947 0.544657 0.552120
C56 C -0.2366(15) 0.5701(8) 0.5033(5)
H30 H -0.241085 0.607283 0.514448
C57 C -0.1471(14) 0.5570(6) 0.4632(5)
H31 H -0.093613 0.583655 0.449038
C58 C -0.1485(12) 0.5015(5) 0.4480(4)
C59 C -0.1749(10) 0.4661(5) 0.3154(4)
H32 H -0.118718 0.490720 0.300006
C60 C -0.2702(10) 0.4441(5) 0.2867(4)
C61 C -0.3537(11) 0.4072(6) 0.3091(4)
C62 C -0.3363(10) 0.3942(5) 0.3615(4)
C63 C -0.2871(11) 0.4592(5) 0.2316(4)
H33 H -0.263601 0.498193 0.226396
H34 H -0.373685 0.455312 0.222277
loop_
_geom_bond_atom_site_label_1
_geom_bond_atom_site_label_2
_geom_bond_site_symmetry_1
_geom_bond_site_symmetry_2
Br1 C3 1_555 1_555
Br2 C17 1_555 1_555
Br3 C24 1_555 1_555
Br4 C38 1_555 1_555
Br5 C45 1_555 1_555
Br6 C62 1_555 1_555
O1 H1 1_555 1_555
O2 H2 1_555 1_555
O3 H3 1_555 1_555
O4 H4 1_555 1_555
O5 H5 1_555 1_555
O6 H6 1_555 1_555
C1 C2 1_555 1_555
C2 O1 1_555 1_555
C3 C2 1_555 1_555
C4 C3 1_555 1_555
C5 C4 1_555 1_555
C6 C1 1_555 1_555
H7 C6 1_555 1_555
C7 C5 1_555 1_555
H8 C7 1_555 1_555
C8 C7 1_555 1_555
C9 C8 1_555 1_555
C10 C4 1_555 1_555
H9 C10 1_555 1_555
C11 C10 1_555 1_555
C12 C7 1_555 1_555
C13 C12 1_555 1_555
H10 C13 1_555 1_555
C14 C13 1_555 1_555
C15 C14 1_555 1_555
H11 C15 1_555 1_555
C16 C11 1_555 1_555
C17 C8 1_555 1_555
C18 O2 1_555 1_555
C19 C18 1_555 1_555
C20 C9 1_555 1_555
H12 C20 1_555 1_555
C21 C19 1_555 1_555
H13 C21 1_555 1_555
H14 C21 1_555 1_555
C22 C21 1_555 1_555
C23 O3 1_555 1_555
C24 C23 1_555 1_555
C25 C24 1_555 1_555
C26 C25 1_555 1_555
C27 C22 1_555 1_555
H15 C27 1_555 1_555
C28 C26 1_555 1_555
H16 C28 1_555 1_555
C29 C28 1_555 1_555
C30 C29 1_555 1_555
C31 C25 1_555 1_555
H17 C31 1_555 1_555
C32 C31 1_555 1_555
C33 C32 1_555 1_555
H18 C33 1_555 1_555
C34 C33 1_555 1_555
H19 C34 1_555 1_555
C35 C34 1_555 1_555
H20 C35 1_555 1_555
C36 C35 1_555 1_555
H21 C36 1_555 1_555
C37 C28 1_555 1_555
C38 C29 1_555 1_555
C39 O4 1_555 1_555
C40 C39 1_555 1_555
C41 C30 1_555 1_555
H22 C41 1_555 1_555
C42 C40 1_555 1_555
H23 C42 1_555 1_555
H24 C42 1_555 1_555
C43 C42 1_555 1_555
C44 O5 1_555 1_555
C45 C44 1_555 1_555
C46 C45 1_555 1_555
C47 C46 1_555 1_555
C48 C43 1_555 1_555
H25 C48 1_555 1_555
C49 C46 1_555 1_555
H26 C49 1_555 1_555
C50 C49 1_555 1_555
C51 C50 1_555 1_555
C52 C47 1_555 1_555
H27 C52 1_555 1_555
C53 C52 1_555 1_555
C54 C53 1_555 1_555
H28 C54 1_555 1_555
C55 C54 1_555 1_555
H29 C55 1_555 1_555
C56 C55 1_555 1_555
H30 C56 1_555 1_555
C57 C56 1_555 1_555
H31 C57 1_555 1_555
C58 C49 1_555 1_555
C59 C50 1_555 1_555
H32 C59 1_555 1_555
C60 C59 1_555 1_555
C61 O6 1_555 1_555
C62 C51 1_555 1_555
C63 C1 1_555 1_555
H33 C63 1_555 1_555
H34 C63 1_555 1_555
C5 C6 1_555 1_555
C9 C10 1_555 1_555
C11 C12 1_555 1_555
C15 C16 1_555 1_555
C17 C18 1_555 1_555
C19 C20 1_555 1_555
C22 C23 1_555 1_555
C26 C27 1_555 1_555
C30 C31 1_555 1_555
C32 C37 1_555 1_555
C36 C37 1_555 1_555
C38 C39 1_555 1_555
C40 C41 1_555 1_555
C43 C44 1_555 1_555
C47 C48 1_555 1_555
C51 C52 1_555 1_555
C53 C58 1_555 1_555
C57 C58 1_555 1_555
C60 C61 1_555 1_555
C60 C63 1_555 1_555
C61 C62 1_555 1_555

#END
