
#######################################################################
#
#                 Cambridge Crystallographic Data Centre
#                                CCDC 
#
#######################################################################
#
# If this CIF has been generated from an entry in the Cambridge 
# Structural Database, then it will include bibliographic, chemical, 
# crystal, experimental, refinement or atomic coordinate data resulting 
# from the CCDC's data processing and validation procedures.
#
#######################################################################

data_NIKJID
_chemical_formula_moiety         'C8 H9 N1 O2'
_chemical_name_systematic        2-[(hydroxyimino)methyl]-5-methylphenol
_symmetry_cell_setting           monoclinic
_symmetry_space_group_name_H-M   'P 21/n'
_symmetry_Int_Tables_number      14
_space_group_name_Hall           '-P 2yn'
loop_
_symmetry_equiv_pos_site_id
_symmetry_equiv_pos_as_xyz
1 x,y,z
2 1/2-x,1/2+y,1/2-z
3 -x,-y,-z
4 1/2+x,1/2-y,1/2+z
_cell_length_a                   6.5507(2)
_cell_length_b                   7.2523(2)
_cell_length_c                   15.5478(4)
_cell_angle_alpha                90
_cell_angle_beta                 96.737(3)
_cell_angle_gamma                90
_cell_volume                     733.539
_exptl_crystal_colour            brown
_exptl_crystal_description       plate
_cell_formula_units_Z            4
loop_
_atom_site_label
_atom_site_type_symbol
_atom_site_fract_x
_atom_site_fract_y
_atom_site_fract_z
O1 O 0.62147(10) 0.55213(9) 0.38936(4)
H1 H 0.520(3) 0.516(2) 0.4176(11)
O2 O 0.11027(10) 0.35295(10) 0.46255(4)
H2 H 0.155(2) 0.389(2) 0.5139(11)
N1 N 0.27030(11) 0.40720(11) 0.41612(5)
C1 C 0.38496(13) 0.41353(12) 0.27677(5)
C2 C 0.57244(13) 0.50209(12) 0.30486(5)
C3 C 0.71163(13) 0.54354(12) 0.24671(6)
H3 H 0.837332 0.603208 0.266799
C4 C 0.66904(13) 0.49864(12) 0.15934(6)
C5 C 0.48296(14) 0.41041(12) 0.13081(6)
H4 H 0.451750 0.379046 0.071398
C6 C 0.34460(13) 0.36875(12) 0.18861(6)
H5 H 0.219471 0.308503 0.168196
C7 C 0.23470(13) 0.36707(12) 0.33550(6)
H6 H 0.110265 0.306989 0.313953
C8 C 0.81701(14) 0.54974(13) 0.09625(6)
H7 H 0.814596 0.454650 0.051360
H8 H 0.956069 0.559362 0.126945
H9 H 0.776779 0.668498 0.069346
loop_
_geom_bond_atom_site_label_1
_geom_bond_atom_site_label_2
_geom_bond_site_symmetry_1
_geom_bond_site_symmetry_2
O1 H1 1_555 1_555
O2 H2 1_555 1_555
N1 O2 1_555 1_555
C1 C2 1_555 1_555
C2 O1 1_555 1_555
C3 C2 1_555 1_555
H3 C3 1_555 1_555
C4 C3 1_555 1_555
C5 C4 1_555 1_555
H4 C5 1_555 1_555
C6 C1 1_555 1_555
H5 C6 1_555 1_555
C7 N1 1_555 1_555
H6 C7 1_555 1_555
C8 C4 1_555 1_555
H7 C8 1_555 1_555
H8 C8 1_555 1_555
H9 C8 1_555 1_555
C1 C7 1_555 1_555
C5 C6 1_555 1_555

#END
