
#######################################################################
#
#                 Cambridge Crystallographic Data Centre
#                                CCDC 
#
#######################################################################
#
# If this CIF has been generated from an entry in the Cambridge 
# Structural Database, then it will include bibliographic, chemical, 
# crystal, experimental, refinement or atomic coordinate data resulting 
# from the CCDC's data processing and validation procedures.
#
#######################################################################

data_NIKKUQ
_chemical_name_common            
"3,3',4',5,5',7-hexahydroxyflavone tris(isonicotinatmide) methanol solvate"
_chemical_formula_moiety         'C15 H10 O8,3(C6 H6 N2 O1),2(C1 H4 O1)'
_chemical_name_systematic        
'myricetin tris(isonicotinamide) methanol solvate'
_chemical_properties_biological  
'myricetin has anti-inflammatory, anti-allergic, antiplatelet aggregation and antioxidant activity'
_symmetry_cell_setting           triclinic
_symmetry_space_group_name_H-M   'P -1'
_symmetry_Int_Tables_number      2
_space_group_name_Hall           '-P 1'
loop_
_symmetry_equiv_pos_site_id
_symmetry_equiv_pos_as_xyz
1 x,y,z
2 -x,-y,-z
_cell_length_a                   8.0124(19)
_cell_length_b                   13.880(3)
_cell_length_c                   17.168(4)
_cell_angle_alpha                68.659(5)
_cell_angle_beta                 83.225(5)
_cell_angle_gamma                77.397(5)
_cell_volume                     1733.96
_exptl_crystal_colour            colorless
_exptl_crystal_description       prismatic
_cell_formula_units_Z            2
loop_
_atom_site_label
_atom_site_type_symbol
_atom_site_fract_x
_atom_site_fract_y
_atom_site_fract_z
N1 N 0.9207(5) 0.5208(3) 0.2442(2)
N2 N 0.9819(5) 0.1940(2) 0.1718(2)
H1 H 0.9834 0.1471 0.1498
H2 H 1.0118 0.1751 0.2225
O1 O 0.8898(4) 0.3265(2) 0.05580(16)
C1 C 0.9336(5) 0.2947(3) 0.1278(2)
C2 C 0.9342(5) 0.3715(3) 0.1703(2)
C3 C 0.9348(7) 0.3437(3) 0.2559(3)
H3 H 0.9387 0.2739 0.2906
C4 C 0.9293(8) 0.4205(4) 0.2892(3)
H4 H 0.9319 0.4004 0.3471
C5 C 0.9182(5) 0.5476(3) 0.1629(3)
H5 H 0.9122 0.6182 0.1300
C6 C 0.9240(5) 0.4765(3) 0.1240(2)
H6 H 0.9210 0.4995 0.0660
N3 N 0.4127(4) 0.3509(3) 0.0712(2)
N4 N 0.4259(6) 0.5777(3) 0.2409(2)
H7 H 0.4266 0.6047 0.2787
H8 H 0.4297 0.6163 0.1888
O2 O 0.4134(7) 0.4191(3) 0.33521(19)
C7 C 0.4191(7) 0.4784(3) 0.2626(3)
C8 C 0.4159(5) 0.4374(3) 0.1937(2)
C9 C 0.3522(5) 0.4975(3) 0.1168(2)
H9 H 0.3091 0.5691 0.1044
C10 C 0.3521(5) 0.4523(3) 0.0586(3)
H10 H 0.3070 0.4947 0.0070
C11 C 0.4752(6) 0.2928(3) 0.1457(3)
H11 H 0.5198 0.2218 0.1559
C12 C 0.4776(6) 0.3315(3) 0.2081(3)
H12 H 0.5204 0.2871 0.2597
N5 N 0.2627(4) 0.8820(3) 0.5919(2)
N6 N 0.9069(4) 0.8665(3) 0.56184(18)
H13 H 1.0113 0.8679 0.5678
H14 H 0.8820 0.8495 0.5218
O3 O 0.8172(3) 0.9150(2) 0.67206(15)
C13 C 0.7858(4) 0.8903(3) 0.6137(2)
C14 C 0.6030(4) 0.8871(3) 0.60300(19)
C15 C 0.4741(5) 0.9358(3) 0.6445(2)
H15 H 0.4994 0.9709 0.6773
C16 C 0.3078(5) 0.9315(3) 0.6364(3)
H16 H 0.2217 0.9655 0.6639
C17 C 0.3869(6) 0.8363(4) 0.5521(3)
H17 H 0.3576 0.8017 0.5199
C18 C 0.5578(5) 0.8368(3) 0.5556(2)
H18 H 0.6408 0.8036 0.5263
O4 O 0.1991(3) 0.99942(17) 0.09627(13)
O5 O 0.4488(4) 1.29229(19) -0.06593(15)
H19 H 0.4356 1.3028 -0.0214
O6 O 0.3794(4) 1.0546(2) -0.18944(15)
H20 H 0.3374 1.0022 -0.1791
O7 O 0.2311(3) 0.89621(19) -0.09745(14)
O8 O 0.1155(3) 0.77834(18) 0.05475(14)
H21 H 0.1346 0.7656 0.0111
O9 O -0.1270(5) 0.6469(2) 0.33368(18)
H22 H -0.1135 0.6167 0.2997
O10 O -0.0920(4) 0.7426(2) 0.44226(15)
H23 H -0.1177 0.6849 0.4532
O11 O 0.0686(4) 0.9014(2) 0.39575(15)
H24 H 0.0963 0.9591 0.3735
C19 C 0.2683(4) 1.0561(2) 0.02215(19)
C20 C 0.3197(4) 1.1461(3) 0.0177(2)
H25 H 0.3062 1.1675 0.0638
C21 C 0.3914(4) 1.2032(3) -0.0564(2)
C22 C 0.4112(5) 1.1736(3) -0.1264(2)
H26 H 0.4603 1.2141 -0.1760
C23 C 0.3580(4) 1.0842(3) -0.1221(2)
C24 C 0.2827(4) 1.0232(2) -0.0469(2)
C25 C 0.2264(4) 0.9287(3) -0.0378(2)
C26 C 0.1630(4) 0.8700(2) 0.0438(2)
C27 C 0.1513(4) 0.9056(2) 0.1087(2)
C28 C 0.0915(4) 0.8584(2) 0.19525(19)
C29 C 0.0132(5) 0.7714(3) 0.2220(2)
H27 H 0.0004 0.7397 0.1843
C30 C -0.0456(5) 0.7314(3) 0.3037(2)
C31 C -0.0322(5) 0.7775(3) 0.3615(2)
C32 C 0.0496(5) 0.8624(3) 0.3359(2)
C33 C 0.1104(5) 0.9026(3) 0.2542(2)
H28 H 0.1648 0.9600 0.2381
O12 O 0.5115(9) 0.6801(4) 0.3441(3)
H29 H 0.5190 0.6219 0.3810
C34 C 0.4661(12) 0.7494(9) 0.3759(6)
H30 H 0.5074 0.7236 0.4314
H31 H 0.3434 0.7676 0.3783
H32 H 0.5125 0.8106 0.3424
O13 O 0.2523(8) 0.4198(3) 0.4820(3)
H33 H 0.2759 0.4235 0.4334
C35 C 0.2365(11) 0.5185(5) 0.4876(5)
H34 H 0.1300 0.5349 0.5164
H35 H 0.2389 0.5702 0.4324
H36 H 0.3296 0.5187 0.5179
loop_
_geom_bond_atom_site_label_1
_geom_bond_atom_site_label_2
_geom_bond_site_symmetry_1
_geom_bond_site_symmetry_2
N1 C4 1_555 1_555
N2 H1 1_555 1_555
H2 N2 1_555 1_555
O1 C1 1_555 1_555
C1 N2 1_555 1_555
C2 C1 1_555 1_555
C3 C2 1_555 1_555
H3 C3 1_555 1_555
C4 C3 1_555 1_555
H4 C4 1_555 1_555
C5 N1 1_555 1_555
H5 C5 1_555 1_555
C6 C2 1_555 1_555
H6 C6 1_555 1_555
N3 C10 1_555 1_555
N4 H7 1_555 1_555
H8 N4 1_555 1_555
O2 C7 1_555 1_555
C7 N4 1_555 1_555
C8 C7 1_555 1_555
C9 C8 1_555 1_555
H9 C9 1_555 1_555
C10 C9 1_555 1_555
H10 C10 1_555 1_555
C11 N3 1_555 1_555
H11 C11 1_555 1_555
C12 C8 1_555 1_555
H12 C12 1_555 1_555
N5 C16 1_555 1_555
N6 H13 1_555 1_555
H14 N6 1_555 1_555
O3 C13 1_555 1_555
C13 N6 1_555 1_555
C14 C13 1_555 1_555
C15 C14 1_555 1_555
H15 C15 1_555 1_555
C16 C15 1_555 1_555
H16 C16 1_555 1_555
C17 N5 1_555 1_555
H17 C17 1_555 1_555
C18 C14 1_555 1_555
H18 C18 1_555 1_555
O4 C19 1_555 1_555
O5 H19 1_555 1_555
O6 H20 1_555 1_555
O7 C25 1_555 1_555
O8 H21 1_555 1_555
O9 H22 1_555 1_555
O10 H23 1_555 1_555
O11 H24 1_555 1_555
C19 C20 1_555 1_555
C20 H25 1_555 1_555
C21 O5 1_555 1_555
C22 C21 1_555 1_555
H26 C22 1_555 1_555
C23 O6 1_555 1_555
C24 C19 1_555 1_555
C25 C24 1_555 1_555
C26 O8 1_555 1_555
C27 O4 1_555 1_555
C28 C27 1_555 1_555
C29 C28 1_555 1_555
H27 C29 1_555 1_555
C30 O9 1_555 1_555
C31 O10 1_555 1_555
C32 O11 1_555 1_555
C33 C28 1_555 1_555
H28 C33 1_555 1_555
O12 H29 1_555 1_555
C34 O12 1_555 1_555
H30 C34 1_555 1_555
H31 C34 1_555 1_555
H32 C34 1_555 1_555
O13 H33 1_555 1_555
C35 O13 1_555 1_555
H34 C35 1_555 1_555
H35 C35 1_555 1_555
H36 C35 1_555 1_555
C5 C6 1_555 1_555
C11 C12 1_555 1_555
C17 C18 1_555 1_555
C20 C21 1_555 1_555
C22 C23 1_555 1_555
C23 C24 1_555 1_555
C25 C26 1_555 1_555
C26 C27 1_555 1_555
C29 C30 1_555 1_555
C30 C31 1_555 1_555
C31 C32 1_555 1_555
C32 C33 1_555 1_555

#END
