
#######################################################################
#
#                 Cambridge Crystallographic Data Centre
#                                CCDC 
#
#######################################################################
#
# If this CIF has been generated from an entry in the Cambridge 
# Structural Database, then it will include bibliographic, chemical, 
# crystal, experimental, refinement or atomic coordinate data resulting 
# from the CCDC's data processing and validation procedures.
#
#######################################################################

data_NIKMOM
_chemical_formula_moiety         'C18 H10 N2 O1'
_chemical_name_systematic        
(2-phenyl-4H-1-benzopyran-4-ylidene)propanedinitrile
_symmetry_cell_setting           triclinic
_symmetry_space_group_name_H-M   'P -1'
_symmetry_Int_Tables_number      2
_space_group_name_Hall           '-P 1'
loop_
_symmetry_equiv_pos_site_id
_symmetry_equiv_pos_as_xyz
1 x,y,z
2 -x,-y,-z
_cell_length_a                   7.4925(4)
_cell_length_b                   9.5061(5)
_cell_length_c                   10.1328(6)
_cell_angle_alpha                76.219(3)
_cell_angle_beta                 73.540(3)
_cell_angle_gamma                83.242(3)
_cell_volume                     671.226
_exptl_crystal_colour            colorless
_exptl_crystal_description       block
_cell_formula_units_Z            2
loop_
_atom_site_label
_atom_site_type_symbol
_atom_site_fract_x
_atom_site_fract_y
_atom_site_fract_z
O1 O 0.20634(17) 0.66611(12) 0.45964(12)
C1 C 0.2138(2) 0.52245(17) 0.52728(17)
C2 C 0.4104(2) 0.60957(19) 0.25266(19)
H1 H 0.4748 0.6422 0.1590
C3 C 0.1053(2) 0.49164(19) 0.66562(18)
H2 H 0.0369 0.5655 0.7069
C4 C 0.3215(2) 0.41597(17) 0.46103(18)
C5 C 0.4342(2) 0.45979(18) 0.31639(18)
N1 N 0.7541(3) 0.4772(2) -0.0105(2)
C6 C 0.2993(2) 0.70574(18) 0.32169(18)
C7 C 0.3096(3) 0.27232(19) 0.54204(19)
H3 H 0.3768 0.1972 0.5021
C8 C 0.5604(2) 0.37132(19) 0.23974(19)
C9 C 0.2621(2) 0.85907(19) 0.2615(2)
C10 C 0.1003(3) 0.3515(2) 0.7404(2)
H4 H 0.0290 0.3295 0.8335
C11 C 0.6087(3) 0.2226(2) 0.2871(2)
C12 C 0.2018(3) 0.2416(2) 0.6773(2)
H5 H 0.1959 0.1461 0.7281
C13 C 0.6669(3) 0.4311(2) 0.1002(2)
C14 C 0.2038(3) 0.9589(2) 0.3465(2)
H6 H 0.1916 0.9294 0.4429
N2 N 0.6566(3) 0.1033(2) 0.3188(3)
C15 C 0.1636(4) 1.1024(2) 0.2891(3)
H7 H 0.1252 1.1689 0.3470
C16 C 0.2778(4) 0.9051(2) 0.1188(2)
H8 H 0.3158 0.8392 0.0602
C17 C 0.1800(4) 1.1469(3) 0.1479(3)
H9 H 0.1525 1.2434 0.1096
C18 C 0.2372(4) 1.0487(3) 0.0629(3)
H10 H 0.2488 1.0789 -0.0333
loop_
_geom_bond_atom_site_label_1
_geom_bond_atom_site_label_2
_geom_bond_site_symmetry_1
_geom_bond_site_symmetry_2
O1 C1 1_555 1_555
C1 C3 1_555 1_555
C2 H1 1_555 1_555
C3 H2 1_555 1_555
C4 C1 1_555 1_555
C5 C2 1_555 1_555
N1 C13 1_555 1_555
C6 O1 1_555 1_555
C7 C4 1_555 1_555
H3 C7 1_555 1_555
C8 C5 1_555 1_555
C9 C6 1_555 1_555
C10 C3 1_555 1_555
H4 C10 1_555 1_555
C11 C8 1_555 1_555
C12 C7 1_555 1_555
H5 C12 1_555 1_555
C13 C8 1_555 1_555
C14 C9 1_555 1_555
H6 C14 1_555 1_555
N2 C11 1_555 1_555
C15 C14 1_555 1_555
H7 C15 1_555 1_555
C16 C9 1_555 1_555
H8 C16 1_555 1_555
C17 C15 1_555 1_555
H9 C17 1_555 1_555
C18 C16 1_555 1_555
H10 C18 1_555 1_555
C2 C6 1_555 1_555
C4 C5 1_555 1_555
C10 C12 1_555 1_555
C17 C18 1_555 1_555

#END
