
#######################################################################
#
#                 Cambridge Crystallographic Data Centre
#                                CCDC 
#
#######################################################################
#
# If this CIF has been generated from an entry in the Cambridge 
# Structural Database, then it will include bibliographic, chemical, 
# crystal, experimental, refinement or atomic coordinate data resulting 
# from the CCDC's data processing and validation procedures.
#
#######################################################################

data_NIKQUW
_chemical_compound_source        'Premna fulva'
_chemical_name_common            'Premnafulvol E'
_chemical_formula_moiety         'C20 H34 O3'
_chemical_name_systematic        pimar-8(14)-ene-15,16,18-triol
_symmetry_cell_setting           monoclinic
_symmetry_space_group_name_H-M   'P 21'
_symmetry_Int_Tables_number      4
_space_group_name_Hall           'P 2yb'
loop_
_symmetry_equiv_pos_site_id
_symmetry_equiv_pos_as_xyz
1 x,y,z
2 -x,1/2+y,-z
_cell_length_a                   13.3146(4)
_cell_length_b                   6.6630(2)
_cell_length_c                   20.8292(6)
_cell_angle_alpha                90
_cell_angle_beta                 94.4460(10)
_cell_angle_gamma                90
_cell_volume                     1842.31
_exptl_crystal_colour            colorless
_exptl_crystal_description       prism
_cell_formula_units_Z            4
loop_
_atom_site_label
_atom_site_type_symbol
_atom_site_fract_x
_atom_site_fract_y
_atom_site_fract_z
O1 O 0.97095(8) 0.79032(19) 0.13693(5)
H1 H 0.9477 0.8488 0.1033
O2 O 0.52013(8) 0.5474(2) 0.55737(5)
H2 H 0.5174 0.6547 0.5783
O3 O 0.57092(8) 0.69536(18) 0.43520(5)
H3 H 0.5415 0.8066 0.4310
C1 C 1.04323(11) 0.9171(3) 0.17128(7)
H4 H 1.0156 1.0548 0.1729
H5 H 1.1049 0.9228 0.1477
C2 C 1.07116(11) 0.8436(2) 0.24040(7)
C3 C 0.97296(10) 0.8049(2) 0.27529(6)
H6 H 0.9306 0.7159 0.2455
C4 C 0.98628(10) 0.6878(2) 0.34000(6)
C5 C 0.87819(10) 0.6215(2) 0.35717(6)
H7 H 0.8481 0.5416 0.3198
C6 C 0.81174(10) 0.8029(3) 0.36340(7)
C7 C 0.75839(10) 0.8378(3) 0.41390(7)
H8 H 0.7219 0.9602 0.4145
C8 C 0.75179(11) 0.6967(3) 0.47017(7)
C9 C 0.64149(11) 0.7010(3) 0.49022(7)
H9 H 0.6314 0.8294 0.5138
C10 C 0.61740(12) 0.5274(3) 0.53420(7)
H10 H 0.6208 0.3996 0.5102
H11 H 0.6687 0.5223 0.5712
C11 C 0.78111(11) 0.4854(3) 0.44886(7)
H12 H 0.7870 0.3959 0.4869
H13 H 0.7270 0.4320 0.4183
C12 C 0.88030(11) 0.4835(3) 0.41687(7)
H14 H 0.8952 0.3444 0.4038
H15 H 0.9352 0.5273 0.4485
C13 C 0.82095(11) 0.7731(3) 0.52745(7)
H16 H 0.8912 0.7681 0.5165
H17 H 0.8128 0.6882 0.5651
H18 H 0.8030 0.9118 0.5373
C14 C 0.80619(11) 0.9414(3) 0.30569(7)
H19 H 0.7718 1.0669 0.3169
H20 H 0.7649 0.8768 0.2699
C15 C 0.90958(11) 0.9939(3) 0.28270(7)
H21 H 0.9005 1.0645 0.2408
H22 H 0.9454 1.0855 0.3141
C16 C 1.04919(11) 0.4992(3) 0.32979(7)
H23 H 1.0619 0.4287 0.3715
H24 H 1.0101 0.4077 0.2999
C17 C 1.14988(11) 0.5456(3) 0.30261(7)
H25 H 1.1903 0.6351 0.3325
H26 H 1.1882 0.4198 0.2979
C18 C 1.13112(11) 0.6471(3) 0.23728(7)
H27 H 1.0937 0.5535 0.2072
H28 H 1.1967 0.6760 0.2199
C19 C 1.03612(11) 0.8141(3) 0.39567(7)
H29 H 1.0503 0.7286 0.4336
H30 H 0.9905 0.9227 0.4062
H31 H 1.0992 0.8715 0.3827
C20 C 1.14005(11) 1.0087(3) 0.27049(7)
H32 H 1.1820 0.9533 0.3070
H33 H 1.0988 1.1184 0.2855
H34 H 1.1833 1.0598 0.2382
O4 O 0.48637(8) 0.38278(19) 0.37434(5)
H35 H 0.5036 0.4788 0.3989
O5 O 0.98422(8) -0.08270(19) -0.08769(5)
H36 H 1.0000 0.0284 -0.1031
O6 O 0.94488(7) 0.06150(17) 0.03805(5)
H37 H 0.9614 0.1692 0.0570
C21 C 0.55553(12) 0.3664(3) 0.32514(7)
H38 H 0.6041 0.2571 0.3363
H39 H 0.5939 0.4932 0.3228
C22 C 0.49984(10) 0.3229(3) 0.25937(6)
C23 C 0.58412(10) 0.2846(2) 0.21235(6)
H40 H 0.6329 0.1926 0.2365
C24 C 0.55234(10) 0.1712(2) 0.14852(6)
C25 C 0.65116(10) 0.0935(2) 0.12112(6)
H41 H 0.6854 0.0051 0.1549
C26 C 0.72309(10) 0.2645(2) 0.11029(7)
C27 C 0.77125(10) 0.2839(3) 0.05693(7)
H42 H 0.8108 0.4012 0.0529
C28 C 0.76805(10) 0.1338(3) 0.00214(7)
C29 C 0.87770(10) 0.1038(3) -0.01703(7)
H43 H 0.9002 0.2301 -0.0375
C30 C 0.88678(11) -0.0681(3) -0.06395(7)
H44 H 0.8715 -0.1955 -0.0423
H45 H 0.8360 -0.0501 -0.1008
C31 C 0.43676(11) 0.1313(3) 0.26635(7)
H46 H 0.4783 0.0301 0.2910
H47 H 0.3784 0.1633 0.2912
C32 C 0.39878(11) 0.0419(3) 0.20164(7)
H48 H 0.3587 -0.0802 0.2086
H49 H 0.3548 0.1399 0.1773
C33 C 0.48803(11) -0.0109(3) 0.16336(7)
H50 H 0.4627 -0.0747 0.1223
H51 H 0.5309 -0.1100 0.1880
C34 C 0.74196(11) 0.4083(3) 0.16607(7)
H52 H 0.7747 0.5306 0.1506
H53 H 0.7894 0.3450 0.1990
C35 C 0.64604(11) 0.4696(3) 0.19771(7)
H54 H 0.6647 0.5433 0.2381
H55 H 0.6051 0.5601 0.1685
C36 C 0.72551(11) -0.0654(3) 0.02469(7)
H56 H 0.7094 -0.1528 -0.0131
H57 H 0.7774 -0.1340 0.0534
C37 C 0.63108(11) -0.0362(3) 0.06044(7)
H58 H 0.6054 -0.1690 0.0729
H59 H 0.5784 0.0285 0.0313
C38 C 0.70343(12) 0.2232(3) -0.05552(7)
H60 H 0.6343 0.2427 -0.0437
H61 H 0.7032 0.1311 -0.0922
H62 H 0.7317 0.3526 -0.0673
C39 C 0.49447(11) 0.3065(3) 0.09816(7)
H63 H 0.4595 0.2227 0.0648
H64 H 0.5420 0.3954 0.0784
H65 H 0.4451 0.3874 0.1193
C40 C 0.43026(12) 0.5006(3) 0.24167(7)
H66 H 0.3916 0.5342 0.2784
H67 H 0.3839 0.4647 0.2046
H68 H 0.4707 0.6167 0.2307
loop_
_geom_bond_atom_site_label_1
_geom_bond_atom_site_label_2
_geom_bond_site_symmetry_1
_geom_bond_site_symmetry_2
O1 H1 1_555 1_555
O2 H2 1_555 1_555
O3 H3 1_555 1_555
C1 O1 1_555 1_555
H4 C1 1_555 1_555
H5 C1 1_555 1_555
C2 C1 1_555 1_555
C3 C2 1_555 1_555
H6 C3 1_555 1_555
C4 C3 1_555 1_555
C5 C4 1_555 1_555
H7 C5 1_555 1_555
C6 C5 1_555 1_555
C7 C6 1_555 1_555
H8 C7 1_555 1_555
C8 C7 1_555 1_555
C9 O3 1_555 1_555
H9 C9 1_555 1_555
C10 O2 1_555 1_555
H10 C10 1_555 1_555
H11 C10 1_555 1_555
C11 C8 1_555 1_555
H12 C11 1_555 1_555
H13 C11 1_555 1_555
C12 C5 1_555 1_555
H14 C12 1_555 1_555
H15 C12 1_555 1_555
C13 C8 1_555 1_555
H16 C13 1_555 1_555
H17 C13 1_555 1_555
H18 C13 1_555 1_555
C14 C6 1_555 1_555
H19 C14 1_555 1_555
H20 C14 1_555 1_555
C15 C3 1_555 1_555
H21 C15 1_555 1_555
H22 C15 1_555 1_555
C16 C4 1_555 1_555
H23 C16 1_555 1_555
H24 C16 1_555 1_555
C17 C16 1_555 1_555
H25 C17 1_555 1_555
H26 C17 1_555 1_555
C18 C2 1_555 1_555
H27 C18 1_555 1_555
H28 C18 1_555 1_555
C19 C4 1_555 1_555
H29 C19 1_555 1_555
H30 C19 1_555 1_555
H31 C19 1_555 1_555
C20 C2 1_555 1_555
H32 C20 1_555 1_555
H33 C20 1_555 1_555
H34 C20 1_555 1_555
O4 H35 1_555 1_555
O5 H36 1_555 1_555
O6 H37 1_555 1_555
C21 O4 1_555 1_555
H38 C21 1_555 1_555
H39 C21 1_555 1_555
C22 C21 1_555 1_555
C23 C22 1_555 1_555
H40 C23 1_555 1_555
C24 C23 1_555 1_555
C25 C24 1_555 1_555
H41 C25 1_555 1_555
C26 C25 1_555 1_555
C27 C26 1_555 1_555
H42 C27 1_555 1_555
C28 C27 1_555 1_555
C29 O6 1_555 1_555
H43 C29 1_555 1_555
C30 O5 1_555 1_555
H44 C30 1_555 1_555
H45 C30 1_555 1_555
C31 C22 1_555 1_555
H46 C31 1_555 1_555
H47 C31 1_555 1_555
C32 C31 1_555 1_555
H48 C32 1_555 1_555
H49 C32 1_555 1_555
C33 C24 1_555 1_555
H50 C33 1_555 1_555
H51 C33 1_555 1_555
C34 C26 1_555 1_555
H52 C34 1_555 1_555
H53 C34 1_555 1_555
C35 C23 1_555 1_555
H54 C35 1_555 1_555
H55 C35 1_555 1_555
C36 C28 1_555 1_555
H56 C36 1_555 1_555
H57 C36 1_555 1_555
C37 C25 1_555 1_555
H58 C37 1_555 1_555
H59 C37 1_555 1_555
C38 C28 1_555 1_555
H60 C38 1_555 1_555
H61 C38 1_555 1_555
H62 C38 1_555 1_555
C39 C24 1_555 1_555
H63 C39 1_555 1_555
H64 C39 1_555 1_555
H65 C39 1_555 1_555
C40 C22 1_555 1_555
H66 C40 1_555 1_555
H67 C40 1_555 1_555
H68 C40 1_555 1_555
C8 C9 1_555 1_555
C9 C10 1_555 1_555
C11 C12 1_555 1_555
C14 C15 1_555 1_555
C17 C18 1_555 1_555
C28 C29 1_555 1_555
C29 C30 1_555 1_555
C32 C33 1_555 1_555
C34 C35 1_555 1_555
C36 C37 1_555 1_555

#END
