
#######################################################################
#
#                 Cambridge Crystallographic Data Centre
#                                CCDC 
#
#######################################################################
#
# If this CIF has been generated from an entry in the Cambridge 
# Structural Database, then it will include bibliographic, chemical, 
# crystal, experimental, refinement or atomic coordinate data resulting 
# from the CCDC's data processing and validation procedures.
#
#######################################################################

data_NIKSAE
_chemical_formula_moiety         'C20 H22 O5 S1'
_chemical_name_systematic        
'ethyl 5-(3-ethoxy-2-methyl-3-oxoprop-1-en-1-yl)-4-(methylsulfanyl)-2-phenylfuran-3-carboxylate'
_symmetry_cell_setting           triclinic
_symmetry_space_group_name_H-M   'P -1'
_symmetry_Int_Tables_number      2
_space_group_name_Hall           '-P 1'
loop_
_symmetry_equiv_pos_site_id
_symmetry_equiv_pos_as_xyz
1 x,y,z
2 -x,-y,-z
_cell_length_a                   10.0038(6)
_cell_length_b                   10.8197(6)
_cell_length_c                   18.6560(10)
_cell_angle_alpha                86.152(4)
_cell_angle_beta                 79.111(5)
_cell_angle_gamma                86.870(5)
_cell_volume                     1976.65
_exptl_crystal_colour            colorless
_exptl_crystal_description       prismatic
_cell_formula_units_Z            4
loop_
_atom_site_label
_atom_site_type_symbol
_atom_site_fract_x
_atom_site_fract_y
_atom_site_fract_z
S1 S 0.10550(9) 0.04030(8) 0.90937(4)
O1 O 0.27925(17) 0.04139(16) 0.70282(9)
O2 O -0.0188(3) 0.2980(3) 0.84563(14)
O3 O -0.0501(2) 0.3018(2) 0.73149(12)
O4 O 0.6345(3) -0.3103(3) 0.75470(18)
O5 O 0.5041(3) -0.2710(3) 0.86130(17)
C1 C 0.1879(2) 0.1388(2) 0.69720(14)
C2 C 0.1159(3) 0.1612(2) 0.76532(14)
C3 C 0.1666(3) 0.0727(2) 0.81593(14)
C4 C 0.2663(3) 0.0019(2) 0.77532(14)
C5 C 0.3561(3) -0.0956(3) 0.79675(15)
H1 H 0.3450 -0.1156 0.8467
C6 C 0.4536(3) -0.1617(3) 0.75475(16)
C7 C 0.4885(4) -0.1497(3) 0.67369(18)
H2 H 0.4089 -0.1619 0.6537
H3 H 0.5582 -0.2109 0.6566
H4 H 0.5208 -0.0684 0.6584
C8 C 0.1942(2) 0.1882(2) 0.62122(14)
C9 C 0.2192(3) 0.1075(3) 0.56541(16)
H5 H 0.2299 0.0229 0.5765
C10 C 0.2284(3) 0.1511(4) 0.49322(17)
H6 H 0.2439 0.0955 0.4563
C11 C 0.2150(3) 0.2736(4) 0.47603(19)
H7 H 0.2219 0.3022 0.4274
C12 C 0.1912(3) 0.3565(3) 0.5303(2)
H8 H 0.1823 0.4409 0.5182
C13 C 0.1804(3) 0.3146(3) 0.60337(17)
H9 H 0.1640 0.3708 0.6400
C14 C 0.0091(3) 0.2592(3) 0.78600(16)
C15 C -0.1441(4) 0.4101(3) 0.7440(2)
H10 H -0.2356 0.3832 0.7630
H11 H -0.1174 0.4598 0.7799
C16 C -0.1427(7) 0.4822(5) 0.6780(3)
H12 H -0.0573 0.5219 0.6643
H13 H -0.2158 0.5441 0.6847
H14 H -0.1540 0.4298 0.6403
C17 C 0.1750(4) 0.1619(4) 0.95031(19)
H15 H 0.2727 0.1558 0.9382
H16 H 0.1466 0.1539 1.0025
H17 H 0.1429 0.2410 0.9321
C18 C 0.5396(4) -0.2551(3) 0.7895(2)
C19 C 0.5359(11) -0.3995(10) 0.9079(7)
H18 H 0.4636 -0.4199 0.9488
H19 H 0.5612 -0.4699 0.8778
C20 C 0.6508(10) -0.3452(11) 0.9289(6)
H20 H 0.7164 -0.3233 0.8860
H21 H 0.6921 -0.4040 0.9599
H22 H 0.6201 -0.2722 0.9549
S2 S 0.61726(9) 0.02644(8) 0.91153(4)
O6 O 0.79059(17) 0.02927(16) 0.70450(9)
O7 O 0.4751(4) 0.2709(3) 0.84794(15)
O8 O 0.4894(3) 0.3116(2) 0.73225(13)
O9 O 1.1299(3) -0.3391(3) 0.75390(18)
O10 O 1.0169(4) -0.2844(3) 0.86126(16)
C21 C 0.6945(3) 0.1223(2) 0.69912(14)
C22 C 0.6217(3) 0.1436(2) 0.76719(14)
C23 C 0.6756(3) 0.0577(2) 0.81780(14)
C24 C 0.7790(3) -0.0098(2) 0.77715(14)
C25 C 0.8695(3) -0.1071(3) 0.79814(15)
H23 H 0.8612 -0.1253 0.8482
C26 C 0.9640(3) -0.1751(3) 0.75581(16)
C27 C 0.9967(4) -0.1637(4) 0.67502(19)
H24 H 0.9179 -0.1810 0.6556
H25 H 1.0699 -0.2216 0.6578
H26 H 1.0236 -0.0809 0.6592
C28 C 0.6988(3) 0.1735(2) 0.62357(14)
C29 C 0.8233(3) 0.1947(3) 0.57931(15)
H27 H 0.9030 0.1772 0.5975
C30 C 0.8303(3) 0.2418(3) 0.50819(17)
H28 H 0.9146 0.2577 0.4792
C31 C 0.7138(3) 0.2653(3) 0.47999(16)
H29 H 0.7190 0.2970 0.4320
C32 C 0.5902(3) 0.2420(3) 0.52271(18)
H30 H 0.5111 0.2571 0.5035
C33 C 0.5816(3) 0.1961(3) 0.59449(16)
H31 H 0.4970 0.1803 0.6232
C34 C 0.5189(3) 0.2453(3) 0.78770(17)
C35 C 0.3967(4) 0.4199(3) 0.7442(2)
H32 H 0.4135 0.4631 0.7853
H33 H 0.3030 0.3950 0.7545
C36 C 0.4214(4) 0.5010(4) 0.6770(3)
H34 H 0.5142 0.5252 0.6674
H35 H 0.3615 0.5735 0.6830
H36 H 0.4045 0.4572 0.6367
C37 C 0.6841(4) 0.1508(4) 0.95080(19)
H37 H 0.7813 0.1496 0.9358
H38 H 0.6613 0.1409 1.0031
H39 H 0.6454 0.2284 0.9345
C38 C 1.0459(4) -0.2739(3) 0.7895(2)
C39 C 1.0531(10) -0.4029(9) 0.9040(6)
H40 H 0.9794 -0.4273 0.9433
H41 H 1.0812 -0.4713 0.8726
C40 C 1.1640(10) -0.3565(12) 0.9303(6)
H42 H 1.2370 -0.3395 0.8900
H43 H 1.1951 -0.4171 0.9642
H44 H 1.1347 -0.2815 0.9546
C41? C 0.6112(11) -0.3471(12) 0.8851(6)
H45? H 0.6988 -0.3111 0.8671
H46? H 0.6138 -0.4296 0.8673
C42? C 0.5800(17) -0.3520(17) 0.9639(7)
H47? H 0.6175 -0.2824 0.9812
H48? H 0.6188 -0.4275 0.9829
H49? H 0.4830 -0.3494 0.9801
C43? C 1.1327(14) -0.3635(15) 0.8826(7)
H50? H 1.1325 -0.4475 0.8674
H51? H 1.2199 -0.3285 0.8624
C44? C 1.1002(16) -0.3593(18) 0.9644(7)
H52? H 1.1404 -0.2886 0.9788
H53? H 1.1362 -0.4335 0.9862
H54? H 1.0032 -0.3530 0.9804
loop_
_geom_bond_atom_site_label_1
_geom_bond_atom_site_label_2
_geom_bond_site_symmetry_1
_geom_bond_site_symmetry_2
S1 C3 1_555 1_555
O1 C1 1_555 1_555
O2 C14 1_555 1_555
O3 C14 1_555 1_555
O4 C18 1_555 1_555
O5 C18 1_555 1_555
C1 C2 1_555 1_555
C2 C3 1_555 1_555
C3 C4 1_555 1_555
C4 O1 1_555 1_555
C5 C4 1_555 1_555
H1 C5 1_555 1_555
C6 C5 1_555 1_555
C7 C6 1_555 1_555
H2 C7 1_555 1_555
H3 C7 1_555 1_555
H4 C7 1_555 1_555
C8 C1 1_555 1_555
C9 C8 1_555 1_555
H5 C9 1_555 1_555
C10 C9 1_555 1_555
H6 C10 1_555 1_555
C11 C10 1_555 1_555
H7 C11 1_555 1_555
C12 C11 1_555 1_555
H8 C12 1_555 1_555
C13 C8 1_555 1_555
H9 C13 1_555 1_555
C14 C2 1_555 1_555
C15 O3 1_555 1_555
H10 C15 1_555 1_555
H11 C15 1_555 1_555
C16 C15 1_555 1_555
H12 C16 1_555 1_555
H13 C16 1_555 1_555
H14 C16 1_555 1_555
C17 S1 1_555 1_555
H15 C17 1_555 1_555
H16 C17 1_555 1_555
H17 C17 1_555 1_555
C18 C6 1_555 1_555
C19 O5 1_555 1_555
H18 C19 1_555 1_555
H19 C19 1_555 1_555
C20 C19 1_555 1_555
H20 C20 1_555 1_555
H21 C20 1_555 1_555
H22 C20 1_555 1_555
S2 C23 1_555 1_555
O6 C21 1_555 1_555
O7 C34 1_555 1_555
O8 C34 1_555 1_555
O9 C38 1_555 1_555
O10 C38 1_555 1_555
C21 C22 1_555 1_555
C22 C23 1_555 1_555
C23 C24 1_555 1_555
C24 O6 1_555 1_555
C25 C24 1_555 1_555
H23 C25 1_555 1_555
C26 C25 1_555 1_555
C27 C26 1_555 1_555
H24 C27 1_555 1_555
H25 C27 1_555 1_555
H26 C27 1_555 1_555
C28 C21 1_555 1_555
C29 C28 1_555 1_555
H27 C29 1_555 1_555
C30 C29 1_555 1_555
H28 C30 1_555 1_555
C31 C30 1_555 1_555
H29 C31 1_555 1_555
C32 C31 1_555 1_555
H30 C32 1_555 1_555
C33 C28 1_555 1_555
H31 C33 1_555 1_555
C34 C22 1_555 1_555
C35 O8 1_555 1_555
H32 C35 1_555 1_555
H33 C35 1_555 1_555
C36 C35 1_555 1_555
H34 C36 1_555 1_555
H35 C36 1_555 1_555
H36 C36 1_555 1_555
C37 S2 1_555 1_555
H37 C37 1_555 1_555
H38 C37 1_555 1_555
H39 C37 1_555 1_555
C38 C26 1_555 1_555
C39 O10 1_555 1_555
H40 C39 1_555 1_555
H41 C39 1_555 1_555
C40 C39 1_555 1_555
H42 C40 1_555 1_555
H43 C40 1_555 1_555
H44 C40 1_555 1_555
C12 C13 1_555 1_555
C32 C33 1_555 1_555

#END
