
#######################################################################
#
#                 Cambridge Crystallographic Data Centre
#                                CCDC 
#
#######################################################################
#
# If this CIF has been generated from an entry in the Cambridge 
# Structural Database, then it will include bibliographic, chemical, 
# crystal, experimental, refinement or atomic coordinate data resulting 
# from the CCDC's data processing and validation procedures.
#
#######################################################################

data_NIKTEH
_chemical_formula_moiety         'C20 H12 N4 O4'
_chemical_name_systematic        2,3-bis(3-Nitrophenyl)quinoxaline
_symmetry_cell_setting           orthorhombic
_symmetry_space_group_name_H-M   'P b c a'
_symmetry_Int_Tables_number      61
_space_group_name_Hall           '-P 2ac 2ab'
loop_
_symmetry_equiv_pos_site_id
_symmetry_equiv_pos_as_xyz
1 x,y,z
2 1/2-x,-y,1/2+z
3 -x,1/2+y,1/2-z
4 1/2+x,1/2-y,-z
5 -x,-y,-z
6 1/2+x,y,1/2-z
7 x,1/2-y,1/2+z
8 1/2-x,1/2+y,z
_cell_length_a                   12.807(3)
_cell_length_b                   7.6160(15)
_cell_length_c                   34.430(7)
_cell_angle_alpha                90
_cell_angle_beta                 90
_cell_angle_gamma                90
_cell_volume                     3358.24
_exptl_crystal_colour            colorless
_exptl_crystal_description       plate
_chemical_melting_point          '484 K'
_cell_formula_units_Z            8
_exptl_crystal_recrystallization_method chloroform/ethanol
loop_
_atom_site_label
_atom_site_type_symbol
_atom_site_fract_x
_atom_site_fract_y
_atom_site_fract_z
O1 O 0.7566(4) 1.1964(7) -0.02595(10)
O2 O 0.8690(3) 1.0826(5) 0.01110(10)
O3 O 0.2285(3) 0.8632(5) 0.18938(10)
O4 O 0.1405(3) 0.7078(6) 0.14923(13)
N1 N 0.7804(4) 1.1237(5) 0.00377(10)
N2 N 0.7785(2) 0.8778(4) 0.13906(8)
N3 N 0.6311(2) 0.7105(4) 0.18590(8)
N4 N 0.2227(3) 0.7670(6) 0.16106(13)
C1 C 0.7236(3) 0.9972(5) 0.06500(10)
H1 H 0.7902 0.9501 0.0677
C2 C 0.6987(3) 1.0903(5) 0.03248(11)
C3 C 0.6010(4) 1.1591(5) 0.02666(13)
H2 H 0.5843 1.2163 0.0036
C4 C 0.5285(3) 1.1413(5) 0.05580(13)
H3 H 0.4625 1.1908 0.0531
C5 C 0.5536(3) 1.0506(5) 0.08894(12)
H4 H 0.5040 1.0413 0.1086
C6 C 0.6500(3) 0.9724(5) 0.09413(10)
C7 C 0.6801(3) 0.8727(4) 0.12936(9)
C8 C 0.8071(3) 0.7959(5) 0.17225(10)
C9 C 0.9120(3) 0.7918(5) 0.18301(12)
H5 H 0.9621 0.8434 0.1671
C10 C 0.9413(3) 0.7126(6) 0.21664(12)
H6 H 1.0115 0.7093 0.2235
C11 C 0.8674(4) 0.6365(6) 0.24082(12)
H7 H 0.8884 0.5825 0.2637
C12 C 0.7646(3) 0.6403(5) 0.23127(10)
H8 H 0.7156 0.5899 0.2478
C13 C 0.7320(3) 0.7196(5) 0.19665(9)
C14 C 0.6066(3) 0.7777(5) 0.15223(10)
C15 C 0.5015(3) 0.7331(5) 0.13689(10)
C16 C 0.4938(3) 0.6437(5) 0.10190(11)
H9 H 0.5544 0.6162 0.0883
C17 C 0.3983(4) 0.5947(6) 0.08668(12)
H10 H 0.3946 0.5342 0.0633
C18 C 0.3105(4) 0.6358(6) 0.10632(13)
H11 H 0.2456 0.6047 0.0964
C19 C 0.3170(3) 0.7230(5) 0.14073(12)
C20 C 0.4127(3) 0.7711(5) 0.15701(11)
H12 H 0.4158 0.8274 0.1809
loop_
_geom_bond_atom_site_label_1
_geom_bond_atom_site_label_2
_geom_bond_site_symmetry_1
_geom_bond_site_symmetry_2
O1 N1 1_555 1_555
O2 N1 1_555 1_555
O3 N4 1_555 1_555
O4 N4 1_555 1_555
N1 C2 1_555 1_555
N2 C7 1_555 1_555
N3 C13 1_555 1_555
N4 C19 1_555 1_555
C1 H1 1_555 1_555
C2 C1 1_555 1_555
C3 C2 1_555 1_555
H2 C3 1_555 1_555
C4 C3 1_555 1_555
H3 C4 1_555 1_555
C5 C4 1_555 1_555
H4 C5 1_555 1_555
C6 C1 1_555 1_555
C7 C6 1_555 1_555
C8 N2 1_555 1_555
C9 C8 1_555 1_555
H5 C9 1_555 1_555
C10 C9 1_555 1_555
H6 C10 1_555 1_555
C11 C10 1_555 1_555
H7 C11 1_555 1_555
C12 C11 1_555 1_555
H8 C12 1_555 1_555
C13 C8 1_555 1_555
C14 N3 1_555 1_555
C15 C14 1_555 1_555
C16 C15 1_555 1_555
H9 C16 1_555 1_555
C17 C16 1_555 1_555
H10 C17 1_555 1_555
C18 C17 1_555 1_555
H11 C18 1_555 1_555
C19 C18 1_555 1_555
C20 C15 1_555 1_555
H12 C20 1_555 1_555
C5 C6 1_555 1_555
C7 C14 1_555 1_555
C12 C13 1_555 1_555
C19 C20 1_555 1_555

#END
