
#######################################################################
#
#                 Cambridge Crystallographic Data Centre
#                                CCDC 
#
#######################################################################
#
# If this CIF has been generated from an entry in the Cambridge 
# Structural Database, then it will include bibliographic, chemical, 
# crystal, experimental, refinement or atomic coordinate data resulting 
# from the CCDC's data processing and validation procedures.
#
#######################################################################

data_NIKYIR
_chemical_name_common            'Epibisdehydroneotuberostemonine J'
_chemical_formula_moiety         'C22 H29 N1 O4'
_chemical_name_systematic        
8-Ethyl-11-methyl-2-(4-methyl-5-oxotetrahydrofuran-2-yl)-5,6,7,7a,8,8a,11,11a-octahydroazepino[3,2,1-hi]furo[3,2-e]indol-10(4H)-one
_symmetry_cell_setting           monoclinic
_symmetry_space_group_name_H-M   'P 21'
_symmetry_Int_Tables_number      4
_space_group_name_Hall           'P 2yb'
loop_
_symmetry_equiv_pos_site_id
_symmetry_equiv_pos_as_xyz
1 x,y,z
2 -x,1/2+y,-z
_cell_length_a                   6.3596(19)
_cell_length_b                   18.495(3)
_cell_length_c                   8.3875(15)
_cell_angle_alpha                90
_cell_angle_beta                 92.521(18)
_cell_angle_gamma                90
_cell_volume                     985.59
_exptl_crystal_colour            colorless
_exptl_crystal_description       prism
_cell_formula_units_Z            2
loop_
_atom_site_label
_atom_site_type_symbol
_atom_site_fract_x
_atom_site_fract_y
_atom_site_fract_z
O1 O 0.5763(4) 0.32620(15) 0.2326(4)
O2 O 0.6531(5) 0.36723(17) -0.0073(4)
O3 O 0.4293(4) 0.02284(15) -0.1869(3)
O4 O 0.5576(4) -0.01361(17) -0.4150(3)
C1 C 0.2603(6) 0.2093(2) 0.1225(5)
C2 C 0.1727(6) 0.1714(2) -0.0118(5)
H1 H 0.0781 0.1903 -0.0886
C3 C 0.2514(6) 0.1021(2) -0.0095(5)
N1 N 0.3821(5) 0.09614(16) 0.1254(4)
C4 C 0.5164(6) 0.0346(2) 0.1696(5)
H2 H 0.4792 -0.0063 0.1015
H3 H 0.4929 0.0208 0.2790
C5 C 0.7464(6) 0.0528(2) 0.1536(5)
H4 H 0.8247 0.0079 0.1468
H5 H 0.7611 0.0785 0.0540
C6 C 0.8456(6) 0.0977(2) 0.2873(5)
H6 H 0.9952 0.1014 0.2707
H7 H 0.8298 0.0720 0.3868
C7 C 0.7586(6) 0.1742(2) 0.3066(5)
H8 H 0.7729 0.2005 0.2076
H9 H 0.8419 0.1991 0.3892
C8 C 0.3875(6) 0.1609(2) 0.2037(5)
C9 C 0.5259(6) 0.1751(2) 0.3501(4)
H10 H 0.5059 0.1348 0.4236
C10 C 0.4468(7) 0.2435(2) 0.4320(5)
H11 H 0.3150 0.2295 0.4798
C11 C 0.3881(7) 0.3036(2) 0.3145(5)
H12 H 0.3360 0.3449 0.3742
C12 C 0.2296(6) 0.2868(2) 0.1766(5)
H13 H 0.0855 0.2939 0.2102
C13 C 0.2864(7) 0.3445(2) 0.0563(5)
H14 H 0.2310 0.3903 0.0954
C14 C 0.5207(8) 0.3479(2) 0.0821(6)
C15 C 0.2115(7) 0.3382(3) -0.1162(6)
H15 H 0.2599 0.3792 -0.1745
H16 H 0.0605 0.3368 -0.1232
H17 H 0.2665 0.2947 -0.1608
C16 C 0.5885(7) 0.2711(3) 0.5694(5)
H18 H 0.5235 0.3133 0.6154
H19 H 0.7215 0.2863 0.5279
C17 C 0.6320(8) 0.2152(3) 0.7012(6)
H20 H 0.7226 0.2360 0.7836
H21 H 0.6990 0.1736 0.6573
H22 H 0.5016 0.2009 0.7454
C18 C 0.2231(5) 0.0417(2) -0.1246(5)
H23 H 0.1681 -0.0004 -0.0688
C19 C 0.0829(7) 0.0565(2) -0.2721(5)
H24 H -0.0591 0.0393 -0.2578
H25 H 0.0778 0.1078 -0.2957
C20 C 0.1851(6) 0.0151(3) -0.4045(5)
H26 H 0.1825 0.0449 -0.5011
C21 C 0.4088(6) 0.0065(2) -0.3421(5)
C22 C 0.0893(7) -0.0577(3) -0.4437(7)
H27 H 0.1641 -0.0799 -0.5278
H28 H -0.0558 -0.0516 -0.4776
H29 H 0.0985 -0.0879 -0.3507
loop_
_geom_bond_atom_site_label_1
_geom_bond_atom_site_label_2
_geom_bond_site_symmetry_1
_geom_bond_site_symmetry_2
O1 C11 1_555 1_555
O2 C14 1_555 1_555
O3 C18 1_555 1_555
O4 C21 1_555 1_555
C1 C2 1_555 1_555
C2 H1 1_555 1_555
C3 C2 1_555 1_555
N1 C3 1_555 1_555
C4 N1 1_555 1_555
H2 C4 1_555 1_555
H3 C4 1_555 1_555
C5 C4 1_555 1_555
H4 C5 1_555 1_555
H5 C5 1_555 1_555
C6 C5 1_555 1_555
H6 C6 1_555 1_555
H7 C6 1_555 1_555
C7 C6 1_555 1_555
H8 C7 1_555 1_555
H9 C7 1_555 1_555
C8 C1 1_555 1_555
C9 C7 1_555 1_555
H10 C9 1_555 1_555
C10 C9 1_555 1_555
H11 C10 1_555 1_555
C11 C10 1_555 1_555
H12 C11 1_555 1_555
C12 C1 1_555 1_555
H13 C12 1_555 1_555
C13 C12 1_555 1_555
H14 C13 1_555 1_555
C14 O1 1_555 1_555
C15 C13 1_555 1_555
H15 C15 1_555 1_555
H16 C15 1_555 1_555
H17 C15 1_555 1_555
C16 C10 1_555 1_555
H18 C16 1_555 1_555
H19 C16 1_555 1_555
C17 C16 1_555 1_555
H20 C17 1_555 1_555
H21 C17 1_555 1_555
H22 C17 1_555 1_555
C18 C3 1_555 1_555
H23 C18 1_555 1_555
C19 C18 1_555 1_555
H24 C19 1_555 1_555
H25 C19 1_555 1_555
C20 C19 1_555 1_555
H26 C20 1_555 1_555
C21 O3 1_555 1_555
C22 C20 1_555 1_555
H27 C22 1_555 1_555
H28 C22 1_555 1_555
H29 C22 1_555 1_555
N1 C8 1_555 1_555
C8 C9 1_555 1_555
C11 C12 1_555 1_555
C13 C14 1_555 1_555
C20 C21 1_555 1_555

#END
