
#######################################################################
#
#                 Cambridge Crystallographic Data Centre
#                                CCDC 
#
#######################################################################
#
# If this CIF has been generated from an entry in the Cambridge 
# Structural Database, then it will include bibliographic, chemical, 
# crystal, experimental, refinement or atomic coordinate data resulting 
# from the CCDC's data processing and validation procedures.
#
#######################################################################

data_NIKYAI
_chemical_formula_moiety         'C15 H22 O11 S2'
_chemical_name_systematic        
'2,3,4,6-Tetra-O-acetyl-\b-D-glucopyranosyl methanethiosulfonate'
_symmetry_cell_setting           monoclinic
_symmetry_space_group_name_H-M   'P 21'
_symmetry_Int_Tables_number      4
_space_group_name_Hall           'P 2yb'
loop_
_symmetry_equiv_pos_site_id
_symmetry_equiv_pos_as_xyz
1 x,y,z
2 -x,1/2+y,-z
_cell_length_a                   8.7903(12)
_cell_length_b                   12.7736(17)
_cell_length_c                   9.6066(13)
_cell_angle_alpha                90
_cell_angle_beta                 113.60(2)
_cell_angle_gamma                90
_cell_volume                     988.449
_exptl_crystal_colour            colorless
_exptl_crystal_description       block
_chemical_melting_point          '149-151 deg.C'
_cell_formula_units_Z            2
loop_
_atom_site_label
_atom_site_type_symbol
_atom_site_fract_x
_atom_site_fract_y
_atom_site_fract_z
S1 S 0.28414(4) 0.34872(3) 0.81363(3)
S2 S 0.06556(4) 0.36922(2) 0.84538(4)
O1 O 0.14481(11) 0.37737(7) 0.51842(10)
O2 O 0.50028(12) 0.52882(7) 0.76942(11)
O3 O 0.54359(11) 0.52743(8) 0.49567(11)
O4 O 0.19751(12) 0.54680(8) 0.23579(10)
O5 O -0.17649(11) 0.36850(8) 0.25684(11)
O6 O 0.10295(15) 0.32162(10) 0.99107(12)
O7 O 0.01565(16) 0.47710(9) 0.82085(15)
O8 O 0.69179(14) 0.40388(9) 0.88366(13)
O9 O 0.51032(14) 0.69845(8) 0.42874(13)
O10 O 0.40543(14) 0.50775(9) 0.16276(12)
O11 O -0.14949(13) 0.20111(8) 0.33942(13)
C1 C 0.24347(16) 0.43350(10) 0.65143(14)
H1 H 0.1852 0.4985 0.6608
C2 C 0.41015(16) 0.46021(10) 0.64499(14)
H2 H 0.4754 0.3953 0.6496
C3 C 0.38235(16) 0.52245(10) 0.50120(15)
H3 H 0.3440 0.5947 0.5107
C4 C 0.25656(16) 0.47036(10) 0.35710(14)
H4 H 0.3069 0.4088 0.3274
C5 C 0.10087(16) 0.43812(10) 0.38220(14)
H5 H 0.0394 0.5021 0.3897
C6 C -0.01283(15) 0.36910(12) 0.25482(14)
H6 H -0.0192 0.3959 0.1560
H7 H 0.0317 0.2970 0.2681
C7 C -0.0851(2) 0.29375(14) 0.70247(18)
H8 H -0.1939 0.3050 0.7057
H9 H -0.0556 0.2195 0.7195
H10 H -0.0895 0.3149 0.6029
C8 C 0.64028(17) 0.49088(11) 0.88283(15)
C9 C 0.7138(2) 0.57264(13) 1.00338(18)
H11 H 0.6545 0.5729 1.0707
H12 H 0.7036 0.6415 0.9556
H13 H 0.8313 0.5569 1.0626
C10 C 0.59393(17) 0.62019(11) 0.45883(15)
C11 C 0.76435(18) 0.60824(13) 0.46095(19)
H14 H 0.7601 0.5604 0.3798
H15 H 0.8393 0.5798 0.5593
H16 H 0.8052 0.6767 0.4451
C12 C 0.28675(17) 0.56022(11) 0.14824(15)
C13 C 0.2206(2) 0.64938(12) 0.03972(17)
H17 H 0.2801 0.7137 0.0862
H18 H 0.1020 0.6583 0.0155
H19 H 0.2365 0.6346 -0.0537
C14 C -0.23138(16) 0.27938(11) 0.29680(14)
C15 C -0.40677(18) 0.29307(12) 0.28192(19)
H20 H -0.4555 0.2243 0.2838
H21 H -0.4719 0.3283 0.1857
H22 H -0.4075 0.3356 0.3666
loop_
_geom_bond_atom_site_label_1
_geom_bond_atom_site_label_2
_geom_bond_site_symmetry_1
_geom_bond_site_symmetry_2
S1 S2 1_555 1_555
S2 O6 1_555 1_555
O1 C1 1_555 1_555
O2 C2 1_555 1_555
O3 C3 1_555 1_555
O4 C4 1_555 1_555
O5 C6 1_555 1_555
O7 S2 1_555 1_555
O8 C8 1_555 1_555
O9 C10 1_555 1_555
O10 C12 1_555 1_555
O11 C14 1_555 1_555
C1 S1 1_555 1_555
H1 C1 1_555 1_555
C2 C1 1_555 1_555
H2 C2 1_555 1_555
C3 C2 1_555 1_555
H3 C3 1_555 1_555
C4 C3 1_555 1_555
H4 C4 1_555 1_555
C5 O1 1_555 1_555
H5 C5 1_555 1_555
C6 C5 1_555 1_555
H6 C6 1_555 1_555
H7 C6 1_555 1_555
C7 S2 1_555 1_555
H8 C7 1_555 1_555
H9 C7 1_555 1_555
H10 C7 1_555 1_555
C8 O2 1_555 1_555
C9 C8 1_555 1_555
H11 C9 1_555 1_555
H12 C9 1_555 1_555
H13 C9 1_555 1_555
C10 O3 1_555 1_555
C11 C10 1_555 1_555
H14 C11 1_555 1_555
H15 C11 1_555 1_555
H16 C11 1_555 1_555
C12 O4 1_555 1_555
C13 C12 1_555 1_555
H17 C13 1_555 1_555
H18 C13 1_555 1_555
H19 C13 1_555 1_555
C14 O5 1_555 1_555
C15 C14 1_555 1_555
H20 C15 1_555 1_555
H21 C15 1_555 1_555
H22 C15 1_555 1_555
C4 C5 1_555 1_555

#END
