
#######################################################################
#
#                 Cambridge Crystallographic Data Centre
#                                CCDC 
#
#######################################################################
#
# If this CIF has been generated from an entry in the Cambridge 
# Structural Database, then it will include bibliographic, chemical, 
# crystal, experimental, refinement or atomic coordinate data resulting 
# from the CCDC's data processing and validation procedures.
#
#######################################################################

data_NIKZUF
_chemical_compound_source        'aerial parts of Premna fulva'
_chemical_name_common            'Premnafulvol B'
_chemical_formula_moiety         'C20 H32 O2'
_chemical_name_systematic        14,15-cyclopimar-8-ene-16,18-diol
_chemical_properties_biological  
'tested for activity on estrogen biosynthesis by modulating the expression of aromatase'
_symmetry_cell_setting           monoclinic
_symmetry_space_group_name_H-M   'P 21'
_symmetry_Int_Tables_number      4
_space_group_name_Hall           'P 2yb'
loop_
_symmetry_equiv_pos_site_id
_symmetry_equiv_pos_as_xyz
1 x,y,z
2 -x,1/2+y,-z
_cell_length_a                   9.6923(2)
_cell_length_b                   7.42890(10)
_cell_length_c                   12.0788(2)
_cell_angle_alpha                90
_cell_angle_beta                 92.3450(10)
_cell_angle_gamma                90
_cell_volume                     868.983
_exptl_crystal_colour            colorless
_exptl_crystal_description       prism
_cell_formula_units_Z            2
loop_
_atom_site_label
_atom_site_type_symbol
_atom_site_fract_x
_atom_site_fract_y
_atom_site_fract_z
O1 O -0.03329(9) 0.99344(14) 0.60016(8)
H1 H -0.0670 0.9134 0.5581
O2 O 0.84423(9) 0.69692(15) 0.50142(8)
H2 H 0.8949 0.6282 0.4657
C1 C -0.07353(13) 0.9612(2) 0.71083(11)
H3 H -0.1159 0.8403 0.7143
H4 H -0.1448 1.0505 0.7296
C2 C 0.04642(13) 0.9722(2) 0.79826(11)
C3 C 0.17040(13) 0.86130(18) 0.75921(10)
H5 H 0.1956 0.9205 0.6885
C4 C 0.30397(13) 0.8732(2) 0.83422(10)
C5 C 0.41970(13) 0.7732(2) 0.77689(10)
C6 C 0.39637(13) 0.6575(2) 0.69324(10)
C7 C 0.51231(13) 0.5685(2) 0.63641(11)
H6 H 0.4859 0.4629 0.5887
C8 C 0.63660(12) 0.6776(2) 0.59933(10)
H7 H 0.6334 0.8089 0.6174
C9 C 0.70501(13) 0.6328(2) 0.49351(11)
H8 H 0.7041 0.5010 0.4816
H9 H 0.6546 0.6907 0.4300
C10 C 0.09303(13) 1.1692(2) 0.81073(10)
H10 H 0.1098 1.2189 0.7364
H11 H 0.0177 1.2399 0.8426
C11 C 0.22417(14) 1.1912(2) 0.88451(11)
H12 H 0.2038 1.1586 0.9616
H13 H 0.2533 1.3189 0.8841
C12 C 0.34254(14) 1.0733(2) 0.84567(11)
H14 H 0.4222 1.0850 0.8992
H15 H 0.3718 1.1182 0.7731
C13 C 0.56642(13) 0.8070(2) 0.82124(11)
H16 H 0.5647 0.8456 0.8996
H17 H 0.6081 0.9052 0.7784
C14 C 0.65420(13) 0.6378(2) 0.81299(11)
H18 H 0.7509 0.6679 0.8352
H19 H 0.6214 0.5475 0.8662
C15 C 0.65137(13) 0.5545(2) 0.69859(11)
C16 C 0.25388(14) 0.6017(2) 0.65188(11)
H20 H 0.2502 0.4687 0.6468
H21 H 0.2362 0.6506 0.5764
C17 C 0.14037(13) 0.66645(19) 0.72639(10)
H22 H 0.0494 0.6583 0.6864
H23 H 0.1381 0.5900 0.7934
C18 C 0.73143(15) 0.3809(2) 0.69277(13)
H24 H 0.7133 0.3245 0.6203
H25 H 0.7026 0.2993 0.7512
H26 H 0.8304 0.4061 0.7030
C19 C 0.29177(14) 0.7865(2) 0.95033(10)
H27 H 0.2451 0.6699 0.9426
H28 H 0.2383 0.8658 0.9972
H29 H 0.3843 0.7689 0.9845
C20 C -0.01722(14) 0.9057(2) 0.90581(11)
H30 H 0.0377 0.9507 0.9699
H31 H -0.0177 0.7738 0.9069
H32 H -0.1121 0.9504 0.9090
loop_
_geom_bond_atom_site_label_1
_geom_bond_atom_site_label_2
_geom_bond_site_symmetry_1
_geom_bond_site_symmetry_2
O1 H1 1_555 1_555
O2 H2 1_555 1_555
C1 O1 1_555 1_555
H3 C1 1_555 1_555
H4 C1 1_555 1_555
C2 C1 1_555 1_555
C3 C2 1_555 1_555
H5 C3 1_555 1_555
C4 C3 1_555 1_555
C5 C4 1_555 1_555
C6 C5 1_555 1_555
C7 C6 1_555 1_555
H6 C7 1_555 1_555
C8 C7 1_555 1_555
H7 C8 1_555 1_555
C9 O2 1_555 1_555
H8 C9 1_555 1_555
H9 C9 1_555 1_555
C10 C2 1_555 1_555
H10 C10 1_555 1_555
H11 C10 1_555 1_555
C11 C10 1_555 1_555
H12 C11 1_555 1_555
H13 C11 1_555 1_555
C12 C4 1_555 1_555
H14 C12 1_555 1_555
H15 C12 1_555 1_555
C13 C5 1_555 1_555
H16 C13 1_555 1_555
H17 C13 1_555 1_555
C14 C13 1_555 1_555
H18 C14 1_555 1_555
H19 C14 1_555 1_555
C15 C7 1_555 1_555
C16 C6 1_555 1_555
H20 C16 1_555 1_555
H21 C16 1_555 1_555
C17 C3 1_555 1_555
H22 C17 1_555 1_555
H23 C17 1_555 1_555
C18 C15 1_555 1_555
H24 C18 1_555 1_555
H25 C18 1_555 1_555
H26 C18 1_555 1_555
C19 C4 1_555 1_555
H27 C19 1_555 1_555
H28 C19 1_555 1_555
H29 C19 1_555 1_555
C20 C2 1_555 1_555
H30 C20 1_555 1_555
H31 C20 1_555 1_555
H32 C20 1_555 1_555
C8 C9 1_555 1_555
C8 C15 1_555 1_555
C11 C12 1_555 1_555
C14 C15 1_555 1_555
C16 C17 1_555 1_555

#END
