
#######################################################################
#
#                 Cambridge Crystallographic Data Centre
#                                CCDC 
#
#######################################################################
#
# If this CIF has been generated from an entry in the Cambridge 
# Structural Database, then it will include bibliographic, chemical, 
# crystal, experimental, refinement or atomic coordinate data resulting 
# from the CCDC's data processing and validation procedures.
#
#######################################################################

data_NILBES
_chemical_compound_source        
'isolated from the aerial parts of Premna fulva'
_chemical_name_common            'Premnafulvol A'
_chemical_formula_moiety         'C20 H32 O4'
_chemical_name_systematic        
7b-hydroxy-1,4-bis(hydroxymethyl)-4,7a,9a-trimethyltetradecahydro-2H-benzo[a]cyclopropa[f]azulen-2-one
_symmetry_cell_setting           monoclinic
_symmetry_space_group_name_H-M   'P 21'
_symmetry_Int_Tables_number      4
_space_group_name_Hall           'P 2yb'
loop_
_symmetry_equiv_pos_site_id
_symmetry_equiv_pos_as_xyz
1 x,y,z
2 -x,1/2+y,-z
_cell_length_a                   6.36330(10)
_cell_length_b                   10.7816(2)
_cell_length_c                   13.2863(3)
_cell_angle_alpha                90
_cell_angle_beta                 101.6770(10)
_cell_angle_gamma                90
_cell_volume                     892.662
_exptl_crystal_colour            colorless
_exptl_crystal_description       block
_cell_formula_units_Z            2
loop_
_atom_site_label
_atom_site_type_symbol
_atom_site_fract_x
_atom_site_fract_y
_atom_site_fract_z
O1 O 0.9471(2) 0.16412(16) 1.07824(11)
H1 H 0.9332 0.2374 1.0973
O2 O 0.1653(3) 0.90124(16) 0.85799(11)
H2 H 0.2173 0.9364 0.9139
O3 O 0.6020(2) 0.51946(16) 0.97115(11)
O4 O 0.2066(2) 0.48158(15) 0.79705(11)
H3 H 0.1981 0.5454 0.8323
C1 C 0.9086(3) 0.1594(2) 0.96828(15)
H4 H 0.8734 0.0732 0.9452
H5 H 1.0408 0.1840 0.9449
C2 C 0.7275(3) 0.2438(2) 0.92000(15)
H6 H 0.5989 0.2399 0.9524
C3 C 0.7692(3) 0.3707(2) 0.87881(15)
H7 H 0.9245 0.3869 0.8803
C4 C 0.6437(3) 0.4859(2) 0.88934(15)
C5 C 0.5728(3) 0.5564(2) 0.79085(15)
H8 H 0.6822 0.5419 0.7477
C6 C 0.5410(3) 0.6982(2) 0.79720(16)
H9 H 0.5473 0.7245 0.8692
H10 H 0.6526 0.7435 0.7697
C7 C 0.3170(3) 0.7228(2) 0.73100(14)
H11 H 0.2184 0.7063 0.7793
C8 C 0.2520(3) 0.8538(2) 0.69001(15)
C9 C 0.2736(3) 0.9439(2) 0.78001(17)
H12 H 0.4276 0.9557 0.8105
H13 H 0.2139 1.0254 0.7543
C10 C 0.3878(3) 0.9097(2) 0.61781(16)
H14 H 0.3630 0.9994 0.6121
H15 H 0.3467 0.8717 0.5497
H16 H 0.5401 0.8938 0.6456
C11 C 0.0139(3) 0.8452(2) 0.63563(16)
H17 H -0.0746 0.8349 0.6884
H18 H -0.0284 0.9244 0.5995
C12 C -0.0362(3) 0.7388(2) 0.55810(16)
H19 H 0.0381 0.7542 0.5006
H20 H -0.1924 0.7373 0.5295
C13 C 0.0335(3) 0.6119(2) 0.60625(16)
H21 H -0.0503 0.5922 0.6594
H22 H 0.0045 0.5468 0.5527
C14 C 0.2738(3) 0.6134(2) 0.65501(15)
C15 C 0.4049(3) 0.6157(2) 0.56929(16)
H23 H 0.3754 0.5403 0.5276
H24 H 0.5583 0.6197 0.6002
H25 H 0.3644 0.6886 0.5256
C16 C 0.3520(3) 0.5039(2) 0.72977(15)
C17 C 0.3707(3) 0.3791(2) 0.67877(16)
H26 H 0.4767 0.3863 0.6339
H27 H 0.2304 0.3582 0.6346
C18 C 0.4387(3) 0.2727(2) 0.75514(16)
H28 H 0.3550 0.2790 0.8102
H29 H 0.3996 0.1932 0.7188
C19 C 0.6761(3) 0.2683(2) 0.80505(16)
C20 C 0.8169(4) 0.2145(2) 0.73637(17)
H30 H 0.7894 0.2584 0.6704
H31 H 0.7842 0.1263 0.7247
H32 H 0.9682 0.2243 0.7696
loop_
_geom_bond_atom_site_label_1
_geom_bond_atom_site_label_2
_geom_bond_site_symmetry_1
_geom_bond_site_symmetry_2
O1 H1 1_555 1_555
O2 H2 1_555 1_555
O3 C4 1_555 1_555
O4 H3 1_555 1_555
C1 O1 1_555 1_555
H4 C1 1_555 1_555
H5 C1 1_555 1_555
C2 C1 1_555 1_555
H6 C2 1_555 1_555
C3 C2 1_555 1_555
H7 C3 1_555 1_555
C4 C3 1_555 1_555
C5 C4 1_555 1_555
H8 C5 1_555 1_555
C6 C5 1_555 1_555
H9 C6 1_555 1_555
H10 C6 1_555 1_555
C7 C6 1_555 1_555
H11 C7 1_555 1_555
C8 C7 1_555 1_555
C9 O2 1_555 1_555
H12 C9 1_555 1_555
H13 C9 1_555 1_555
C10 C8 1_555 1_555
H14 C10 1_555 1_555
H15 C10 1_555 1_555
H16 C10 1_555 1_555
C11 C8 1_555 1_555
H17 C11 1_555 1_555
H18 C11 1_555 1_555
C12 C11 1_555 1_555
H19 C12 1_555 1_555
H20 C12 1_555 1_555
C13 C12 1_555 1_555
H21 C13 1_555 1_555
H22 C13 1_555 1_555
C14 C7 1_555 1_555
C15 C14 1_555 1_555
H23 C15 1_555 1_555
H24 C15 1_555 1_555
H25 C15 1_555 1_555
C16 O4 1_555 1_555
C17 C16 1_555 1_555
H26 C17 1_555 1_555
H27 C17 1_555 1_555
C18 C17 1_555 1_555
H28 C18 1_555 1_555
H29 C18 1_555 1_555
C19 C2 1_555 1_555
C20 C19 1_555 1_555
H30 C20 1_555 1_555
H31 C20 1_555 1_555
H32 C20 1_555 1_555
C3 C19 1_555 1_555
C5 C16 1_555 1_555
C8 C9 1_555 1_555
C13 C14 1_555 1_555
C14 C16 1_555 1_555
C18 C19 1_555 1_555

#END
