
#######################################################################
#
#                 Cambridge Crystallographic Data Centre
#                                CCDC 
#
#######################################################################
#
# If this CIF has been generated from an entry in the Cambridge 
# Structural Database, then it will include bibliographic, chemical, 
# crystal, experimental, refinement or atomic coordinate data resulting 
# from the CCDC's data processing and validation procedures.
#
#######################################################################

data_NILCIX
_chemical_formula_moiety         'C6 H6 N12 O12,C4 H4 N4 O4'
_chemical_name_systematic        
'1,3,4,7,8,10-hexanitrooctahydro-1H-5,2,6-(epiminomethanetriylimino)imidazo[4,5-b]pyrazine 1-methyl-4,5-dinitro-1H-imidazole'
_symmetry_cell_setting           orthorhombic
_symmetry_space_group_name_H-M   'P b c a'
_symmetry_Int_Tables_number      61
_space_group_name_Hall           '-P 2ac 2ab'
loop_
_symmetry_equiv_pos_site_id
_symmetry_equiv_pos_as_xyz
1 x,y,z
2 1/2-x,-y,1/2+z
3 -x,1/2+y,1/2-z
4 1/2+x,1/2-y,-z
5 -x,-y,-z
6 1/2+x,y,1/2-z
7 x,1/2-y,1/2+z
8 1/2-x,1/2+y,z
_cell_length_a                   9.6296(10)
_cell_length_b                   12.7999(14)
_cell_length_c                   34.952(4)
_cell_angle_alpha                90
_cell_angle_beta                 90
_cell_angle_gamma                90
_cell_volume                     4308.11
_exptl_crystal_colour            colorless
_exptl_crystal_description       block
_cell_formula_units_Z            8
loop_
_atom_site_label
_atom_site_type_symbol
_atom_site_fract_x
_atom_site_fract_y
_atom_site_fract_z
O1 O 0.7023(5) 0.7354(5) 0.41995(17)
O2 O 0.8534(4) 0.8051(4) 0.38294(12)
O3 O 0.5432(6) 0.9292(5) 0.43008(12)
O4 O 0.4532(8) 1.0543(5) 0.39683(16)
O5 O 0.8382(4) 1.0192(4) 0.33156(13)
O6 O 0.6736(5) 1.1242(3) 0.31351(12)
O7 O 0.3122(4) 0.9462(3) 0.25432(11)
O8 O 0.4195(5) 0.8096(4) 0.23308(12)
O9 O 0.5446(8) 0.6246(5) 0.2603(2)
O10 O 0.3619(8) 0.5890(5) 0.2942(2)
O11 O 0.1321(6) 0.7237(5) 0.33751(18)
O12 O 0.0949(5) 0.8883(6) 0.33531(16)
N1 N 0.6356(4) 0.7975(3) 0.36344(13)
N2 N 0.7380(5) 0.7784(4) 0.39113(15)
N3 N 0.4263(5) 0.8921(4) 0.37780(13)
N4 N 0.4767(7) 0.9647(5) 0.40349(15)
N5 N 0.6189(4) 0.9613(3) 0.33227(12)
N6 N 0.7192(5) 1.0416(4) 0.32423(12)
N7 N 0.5088(4) 0.8953(4) 0.28148(11)
N8 N 0.4050(4) 0.8825(4) 0.25483(12)
N9 N 0.5019(5) 0.7216(4) 0.30997(16)
N10 N 0.4601(8) 0.6361(5) 0.2861(2)
N11 N 0.3126(4) 0.8310(4) 0.32677(13)
N12 N 0.1651(6) 0.8151(6) 0.33478(17)
C1 C 0.6700(5) 0.8542(4) 0.32970(13)
H1 H 0.772338 0.852841 0.324877
C2 C 0.5878(5) 0.8040(4) 0.29537(15)
H2 H 0.652645 0.777365 0.275265
C3 C 0.4918(5) 0.7894(4) 0.37297(16)
H3 H 0.478595 0.745569 0.396366
C4 C 0.4074(6) 0.7454(5) 0.33925(19)
H4 H 0.353760 0.682037 0.347105
C5 C 0.4837(5) 0.9699(4) 0.31395(14)
H5 H 0.463892 1.042424 0.304860
C6 C 0.3673(6) 0.9271(4) 0.34186(15)
H6 H 0.292283 0.979975 0.345992
O15 O 0.5570(10) 0.5562(6) 0.4078(2)
O16 O 0.3303(9) 0.5502(6) 0.4050(3)
O17 O 0.7477(8) 0.3664(6) 0.4905(2)
O18 O 0.6557(9) 0.5191(7) 0.4798(2)
N13 N 0.3476(4) 0.3458(3) 0.42311(12)
N14 N 0.4944(4) 0.2724(3) 0.46424(11)
N15 N 0.6488(6) 0.4203(4) 0.47987(15)
N16 N 0.4340(6) 0.5210(4) 0.41944(18)
C7 C 0.5327(5) 0.3741(4) 0.46042(13)
C8 C 0.4404(5) 0.4172(4) 0.43498(14)
C9 C 0.3840(5) 0.2601(4) 0.44122(16)
H7 H 0.336567 0.195499 0.438312
C10 C 0.5580(7) 0.1889(4) 0.48720(17)
H8 H 0.655185 0.180000 0.479579
H9 H 0.507541 0.123360 0.482974
H10 H 0.553529 0.207536 0.514368
O13? O 0.6649(13) 0.3715(9) 0.5136(3)
O14? O 0.6967(19) 0.4912(17) 0.4704(6)
O19? O 0.4515(12) 0.5948(7) 0.4473(3)
O20? O 0.3992(18) 0.5447(11) 0.3895(4)
loop_
_geom_bond_atom_site_label_1
_geom_bond_atom_site_label_2
_geom_bond_site_symmetry_1
_geom_bond_site_symmetry_2
O1 N2 1_555 1_555
O2 N2 1_555 1_555
O3 N4 1_555 1_555
O4 N4 1_555 1_555
O5 N6 1_555 1_555
O6 N6 1_555 1_555
O7 N8 1_555 1_555
O8 N8 1_555 1_555
O9 N10 1_555 1_555
O10 N10 1_555 1_555
O11 N12 1_555 1_555
O12 N12 1_555 1_555
N1 N2 1_555 1_555
N3 N4 1_555 1_555
N5 N6 1_555 1_555
N7 N8 1_555 1_555
N9 N10 1_555 1_555
N11 N12 1_555 1_555
C1 N1 1_555 1_555
H1 C1 1_555 1_555
C2 N7 1_555 1_555
H2 C2 1_555 1_555
C3 N1 1_555 1_555
H3 C3 1_555 1_555
C4 N9 1_555 1_555
H4 C4 1_555 1_555
C5 N5 1_555 1_555
H5 C5 1_555 1_555
C6 N3 1_555 1_555
H6 C6 1_555 1_555
O15 N16 1_555 1_555
O16 N16 1_555 1_555
O17 N15 1_555 1_555
O18 N15 1_555 1_555
N13 C8 1_555 1_555
N14 C7 1_555 1_555
N15 C7 1_555 1_555
N16 C8 1_555 1_555
C7 C8 1_555 1_555
C9 N13 1_555 1_555
H7 C9 1_555 1_555
C10 N14 1_555 1_555
H8 C10 1_555 1_555
H9 C10 1_555 1_555
H10 C10 1_555 1_555
N3 C3 1_555 1_555
N5 C1 1_555 1_555
N7 C5 1_555 1_555
N9 C2 1_555 1_555
N11 C4 1_555 1_555
N11 C6 1_555 1_555
C1 C2 1_555 1_555
C3 C4 1_555 1_555
C5 C6 1_555 1_555
N14 C9 1_555 1_555

#END
