
#######################################################################
#
#                 Cambridge Crystallographic Data Centre
#                                CCDC 
#
#######################################################################
#
# If this CIF has been generated from an entry in the Cambridge 
# Structural Database, then it will include bibliographic, chemical, 
# crystal, experimental, refinement or atomic coordinate data resulting 
# from the CCDC's data processing and validation procedures.
#
#######################################################################

data_NILCET
_chemical_formula_moiety         'C6 H6 N12 O12,C4 H4 N4 O4'
_chemical_name_systematic        
'1,3,4,7,8,10-hexanitrooctahydro-1H-5,2,6-(epiminomethanetriylimino)imidazo[4,5-b]pyrazine 1-methyl-2,4-dinitro-1H-imidazole'
_symmetry_cell_setting           monoclinic
_symmetry_space_group_name_H-M   'P 21/n'
_symmetry_Int_Tables_number      14
_space_group_name_Hall           '-P 2yn'
loop_
_symmetry_equiv_pos_site_id
_symmetry_equiv_pos_as_xyz
1 x,y,z
2 1/2-x,1/2+y,1/2-z
3 -x,-y,-z
4 1/2+x,1/2-y,1/2+z
_cell_length_a                   12.2085(13)
_cell_length_b                   12.6524(14)
_cell_length_c                   14.2920(15)
_cell_angle_alpha                90
_cell_angle_beta                 100.468(2)
_cell_angle_gamma                90
_cell_volume                     2170.9
_exptl_crystal_colour            colorless
_exptl_crystal_description       block
_cell_formula_units_Z            4
loop_
_atom_site_label
_atom_site_type_symbol
_atom_site_fract_x
_atom_site_fract_y
_atom_site_fract_z
O1 O 0.52764(13) 0.64081(13) 0.30393(11)
O2 O 0.49137(14) 0.49366(12) 0.22654(12)
O3 O 0.21026(13) 0.44262(11) 0.18448(11)
O4 O 0.11333(12) 0.56798(12) 0.23582(11)
O5 O 0.02799(11) 0.67622(11) -0.05630(10)
O6 O 0.12148(12) 0.52845(11) -0.05402(10)
O7 O 0.53193(12) 0.60866(12) -0.01461(12)
O8 O 0.55884(11) 0.77850(12) 0.00785(12)
O9 O 0.02724(11) 0.88126(11) 0.03463(11)
O10 O 0.03882(12) 0.80431(13) 0.17263(11)
O11 O 0.53418(11) 0.87564(12) 0.22853(10)
O12 O 0.48757(12) 0.96793(11) 0.09865(10)
N1 N 0.41606(12) 0.64428(11) 0.16019(10)
N2 N 0.48180(13) 0.58789(13) 0.23780(12)
N3 N 0.22652(12) 0.60955(11) 0.13504(10)
N4 N 0.18094(13) 0.53418(13) 0.19081(11)
N5 N 0.21210(12) 0.68148(12) -0.03891(11)
N6 N 0.11348(12) 0.62434(12) -0.04972(11)
N7 N 0.38812(12) 0.71456(12) -0.01423(11)
N8 N 0.50078(13) 0.69928(13) -0.00557(12)
N9 N 0.18059(12) 0.79043(12) 0.09502(11)
N10 N 0.07386(12) 0.82734(12) 0.10075(12)
N11 N 0.38302(12) 0.82875(11) 0.12287(10)
N12 N 0.47648(12) 0.89540(12) 0.15185(11)
C1 C 0.32818(14) 0.58245(13) 0.10035(12)
H1 H 0.343880 0.504861 0.104770
C2 C 0.31634(14) 0.62486(13) -0.00585(12)
H2 H 0.327589 0.566897 -0.050715
C3 C 0.21627(14) 0.78860(13) 0.00417(12)
H3 H 0.173657 0.840842 -0.040857
C4 C 0.34486(14) 0.81266(13) 0.02166(12)
H4 H 0.361480 0.875526 -0.015796
C5 C 0.23542(14) 0.72004(13) 0.16824(12)
H5 H 0.205089 0.728511 0.228263
C6 C 0.36481(14) 0.74385(13) 0.18549(12)
H6 H 0.393157 0.763047 0.253448
O13 O 0.29307(14) 0.71602(12) 0.38897(11)
O14 O 0.30940(13) 0.54550(12) 0.37860(10)
O15 O 0.26184(14) 0.49793(13) 0.80016(10)
O16 O 0.21733(13) 0.38229(11) 0.68699(10)
N13 N 0.26515(12) 0.52478(12) 0.55715(11)
N14 N 0.29603(12) 0.69849(11) 0.58278(11)
N15 N 0.29651(13) 0.62610(13) 0.42244(11)
N16 N 0.24596(13) 0.47181(13) 0.71605(11)
C7 C 0.28511(14) 0.61609(14) 0.52047(12)
C8 C 0.26339(14) 0.55090(14) 0.64848(13)
C9 C 0.28247(15) 0.65641(15) 0.66690(13)
H7 H 0.285496 0.692066 0.725811
C10 C 0.31947(17) 0.81092(15) 0.56868(16)
H8 H 0.379978 0.817076 0.532358
H9 H 0.341595 0.845278 0.630686
H10 H 0.252458 0.845247 0.533594
loop_
_geom_bond_atom_site_label_1
_geom_bond_atom_site_label_2
_geom_bond_site_symmetry_1
_geom_bond_site_symmetry_2
O1 N2 1_555 1_555
O2 N2 1_555 1_555
O3 N4 1_555 1_555
O4 N4 1_555 1_555
O5 N6 1_555 1_555
O6 N6 1_555 1_555
O7 N8 1_555 1_555
O8 N8 1_555 1_555
O9 N10 1_555 1_555
O10 N10 1_555 1_555
O11 N12 1_555 1_555
O12 N12 1_555 1_555
N1 N2 1_555 1_555
N3 N4 1_555 1_555
N5 N6 1_555 1_555
N7 N8 1_555 1_555
N9 N10 1_555 1_555
N11 N12 1_555 1_555
C1 N1 1_555 1_555
H1 C1 1_555 1_555
C2 N5 1_555 1_555
H2 C2 1_555 1_555
C3 N5 1_555 1_555
H3 C3 1_555 1_555
C4 N7 1_555 1_555
H4 C4 1_555 1_555
C5 N3 1_555 1_555
H5 C5 1_555 1_555
C6 N1 1_555 1_555
H6 C6 1_555 1_555
O13 N15 1_555 1_555
O14 N15 1_555 1_555
O15 N16 1_555 1_555
O16 N16 1_555 1_555
N13 C7 1_555 1_555
N14 C7 1_555 1_555
N15 C7 1_555 1_555
N16 C8 1_555 1_555
C8 N13 1_555 1_555
C9 N14 1_555 1_555
H7 C9 1_555 1_555
C10 N14 1_555 1_555
H8 C10 1_555 1_555
H9 C10 1_555 1_555
H10 C10 1_555 1_555
N3 C1 1_555 1_555
N7 C2 1_555 1_555
N9 C3 1_555 1_555
N9 C5 1_555 1_555
N11 C4 1_555 1_555
N11 C6 1_555 1_555
C1 C2 1_555 1_555
C3 C4 1_555 1_555
C5 C6 1_555 1_555
C8 C9 1_555 1_555

#END
