
#######################################################################
#
#                 Cambridge Crystallographic Data Centre
#                                CCDC 
#
#######################################################################
#
# If this CIF has been generated from an entry in the Cambridge 
# Structural Database, then it will include bibliographic, chemical, 
# crystal, experimental, refinement or atomic coordinate data resulting 
# from the CCDC's data processing and validation procedures.
#
#######################################################################

data_NILCOD
_chemical_formula_moiety         'C58 H56 B2'
_chemical_name_systematic        
'[ethyne-1,2-diylbis(naphthalene-8,1-diyl)]bis[bis(2,4,6-trimethylphenyl)borane]'
_symmetry_cell_setting           monoclinic
_symmetry_space_group_name_H-M   'I 2/c'
_symmetry_Int_Tables_number      15
_space_group_name_Hall           '-I 2yc'
loop_
_symmetry_equiv_pos_site_id
_symmetry_equiv_pos_as_xyz
1 x,y,z
2 -x,y,1/2-z
3 1/2+x,1/2+y,1/2+z
4 1/2-x,1/2+y,-z
5 -x,-y,-z
6 x,-y,1/2+z
7 1/2-x,1/2-y,1/2-z
8 1/2+x,1/2-y,z
_cell_length_a                   12.5774(18)
_cell_length_b                   27.825(4)
_cell_length_c                   14.3055(11)
_cell_angle_alpha                90
_cell_angle_beta                 97.726(12)
_cell_angle_gamma                90
_cell_volume                     4960.99
_exptl_crystal_colour            colorless
_exptl_crystal_description       block
_cell_formula_units_Z            4
loop_
_atom_site_label
_atom_site_type_symbol
_atom_site_fract_x
_atom_site_fract_y
_atom_site_fract_z
C1 C 0.4878(3) 0.62555(14) 0.2081(2)
C2 C 0.4874(3) 0.63681(15) 0.1102(3)
C3 C 0.5643(3) 0.66976(16) 0.0930(3)
H1 H 0.6072 0.6833 0.1442
C4 C 0.5805(4) 0.68366(18) 0.0024(3)
H2 H 0.6325 0.7063 -0.0066
C5 C 0.5190(4) 0.66343(18) -0.0722(3)
H3 H 0.5307 0.6716 -0.1330
C6 C 0.3288(3) 0.58602(15) 0.0428(2)
C7 C 0.4166(3) 0.61727(15) 0.0328(2)
C8 C 0.4377(4) 0.63037(17) -0.0594(3)
C9 C 0.3743(4) 0.61052(19) -0.1385(3)
H4 H 0.3879 0.6194 -0.1985
C10 C 0.2942(4) 0.57890(19) -0.1303(3)
H5 H 0.2541 0.5656 -0.1834
C11 C 0.2734(4) 0.56675(16) -0.0387(3)
H6 H 0.2195 0.5445 -0.0327
C12 C 0.2416(3) 0.61342(15) 0.2020(3)
C13 C 0.2024(3) 0.65937(18) 0.1724(3)
C14 C 0.1620(3) 0.69005(17) 0.2360(4)
H7 H 0.1380 0.7203 0.2152
C15 C 0.1559(4) 0.6775(2) 0.3285(4)
C16 C 0.1949(3) 0.63340(19) 0.3571(3)
H8 H 0.1925 0.6243 0.4193
C17 C 0.2379(3) 0.60158(15) 0.2979(3)
C18 C 0.2843(4) 0.55557(16) 0.3408(3)
H9 H 0.2353 0.5296 0.3233
H10 H 0.2957 0.5586 0.4083
H11 H 0.3514 0.5491 0.3184
C19 C 0.1106(4) 0.7122(2) 0.3950(4)
H12 H 0.1635 0.7182 0.4487
H13 H 0.0478 0.6984 0.4157
H14 H 0.0920 0.7419 0.3627
C20 C 0.1971(4) 0.67717(17) 0.0713(3)
H15 H 0.2684 0.6824 0.0567
H16 H 0.1575 0.7068 0.0644
H17 H 0.1619 0.6536 0.0290
C21 C 0.2220(4) 0.52273(16) 0.1326(2)
C22 C 0.1102(4) 0.51608(19) 0.1309(3)
C23 C 0.0684(5) 0.4697(2) 0.1286(3)
H18 H -0.0049 0.4658 0.1288
C24 C 0.1316(6) 0.4296(2) 0.1260(3)
C25 C 0.2399(6) 0.4357(2) 0.1256(3)
H19 H 0.2834 0.4089 0.1234
C26 C 0.2866(4) 0.48177(19) 0.1284(2)
C27 C 0.4067(4) 0.48541(18) 0.1302(3)
H20 H 0.4233 0.4883 0.0669
H21 H 0.4403 0.4571 0.1590
H22 H 0.4329 0.5132 0.1660
C28 C 0.0322(4) 0.5576(2) 0.1239(3)
H23 H 0.0460 0.5771 0.1796
H24 H -0.0399 0.5454 0.1182
H25 H 0.0407 0.5767 0.0695
C29 C 0.0811(6) 0.3792(2) 0.1256(4)
H26 H 0.0572 0.3732 0.1855
H27 H 0.1335 0.3556 0.1145
H28 H 0.0211 0.3775 0.0766
B1 B 0.2708(4) 0.57471(18) 0.1313(3)
C1A C 0.5122(3) 0.62555(14) 0.2919(2)
C2A C 0.5126(3) 0.63681(15) 0.3898(3)
C3A C 0.4357(3) 0.66976(16) 0.4070(3)
H1A H 0.3928 0.6833 0.3558
C4A C 0.4195(4) 0.68366(18) 0.4976(3)
H2A H 0.3675 0.7063 0.5066
C5A C 0.4810(4) 0.66343(18) 0.5722(3)
H3A H 0.4693 0.6716 0.6330
C6A C 0.6712(3) 0.58602(15) 0.4572(2)
C7A C 0.5834(3) 0.61727(15) 0.4672(2)
C8A C 0.5623(4) 0.63037(17) 0.5594(3)
C9A C 0.6257(4) 0.61052(19) 0.6385(3)
H4A H 0.6121 0.6194 0.6985
C10A C 0.7058(4) 0.57890(19) 0.6303(3)
H5A H 0.7459 0.5656 0.6834
C11A C 0.7266(4) 0.56675(16) 0.5387(3)
H6A H 0.7805 0.5445 0.5327
C12A C 0.7584(3) 0.61342(15) 0.2980(3)
C13A C 0.7976(3) 0.65937(18) 0.3276(3)
C14A C 0.8380(3) 0.69005(17) 0.2640(4)
H7A H 0.8620 0.7203 0.2848
C15A C 0.8441(4) 0.6775(2) 0.1715(4)
C16A C 0.8051(3) 0.63340(19) 0.1429(3)
H8A H 0.8075 0.6243 0.0807
C17A C 0.7621(3) 0.60158(15) 0.2021(3)
C18A C 0.7157(4) 0.55557(16) 0.1592(3)
H9A H 0.7647 0.5296 0.1767
H10A H 0.7043 0.5586 0.0917
H11A H 0.6486 0.5491 0.1816
C19A C 0.8894(4) 0.7122(2) 0.1050(4)
H12A H 0.8365 0.7182 0.0513
H13A H 0.9522 0.6984 0.0843
H14A H 0.9080 0.7419 0.1373
C20A C 0.8029(4) 0.67717(17) 0.4287(3)
H15A H 0.7316 0.6824 0.4433
H16A H 0.8425 0.7068 0.4356
H17A H 0.8381 0.6536 0.4710
C21A C 0.7780(4) 0.52273(16) 0.3674(2)
C22A C 0.8898(4) 0.51608(19) 0.3691(3)
C23A C 0.9316(5) 0.4697(2) 0.3714(3)
H18A H 1.0049 0.4658 0.3712
C24A C 0.8684(6) 0.4296(2) 0.3740(3)
C25A C 0.7601(6) 0.4357(2) 0.3744(3)
H19A H 0.7166 0.4089 0.3766
C26A C 0.7134(4) 0.48177(19) 0.3716(2)
C27A C 0.5933(4) 0.48541(18) 0.3698(3)
H20A H 0.5767 0.4883 0.4331
H21A H 0.5597 0.4571 0.3410
H22A H 0.5671 0.5132 0.3340
C28A C 0.9678(4) 0.5576(2) 0.3761(3)
H23A H 0.9540 0.5771 0.3204
H24A H 1.0399 0.5454 0.3818
H25A H 0.9593 0.5767 0.4305
C29A C 0.9189(6) 0.3792(2) 0.3744(4)
H26A H 0.9428 0.3732 0.3145
H27A H 0.8665 0.3556 0.3855
H28A H 0.9789 0.3775 0.4234
B1A B 0.7292(4) 0.57471(18) 0.3687(3)
loop_
_geom_bond_atom_site_label_1
_geom_bond_atom_site_label_2
_geom_bond_site_symmetry_1
_geom_bond_site_symmetry_2
C1 C2 1_555 1_555
C2 C3 1_555 1_555
C3 H1 1_555 1_555
C4 C3 1_555 1_555
H2 C4 1_555 1_555
C5 C4 1_555 1_555
H3 C5 1_555 1_555
C6 C7 1_555 1_555
C7 C2 1_555 1_555
C8 C5 1_555 1_555
C9 C8 1_555 1_555
H4 C9 1_555 1_555
C10 C9 1_555 1_555
H5 C10 1_555 1_555
C11 C6 1_555 1_555
H6 C11 1_555 1_555
C12 C13 1_555 1_555
C13 C14 1_555 1_555
C14 H7 1_555 1_555
C15 C14 1_555 1_555
C16 C15 1_555 1_555
H8 C16 1_555 1_555
C17 C12 1_555 1_555
C18 C17 1_555 1_555
H9 C18 1_555 1_555
H10 C18 1_555 1_555
H11 C18 1_555 1_555
C19 C15 1_555 1_555
H12 C19 1_555 1_555
H13 C19 1_555 1_555
H14 C19 1_555 1_555
C20 C13 1_555 1_555
H15 C20 1_555 1_555
H16 C20 1_555 1_555
H17 C20 1_555 1_555
C21 C22 1_555 1_555
C22 C23 1_555 1_555
C23 H18 1_555 1_555
C24 C23 1_555 1_555
C25 C24 1_555 1_555
H19 C25 1_555 1_555
C26 C21 1_555 1_555
C27 C26 1_555 1_555
H20 C27 1_555 1_555
H21 C27 1_555 1_555
H22 C27 1_555 1_555
C28 C22 1_555 1_555
H23 C28 1_555 1_555
H24 C28 1_555 1_555
H25 C28 1_555 1_555
C29 C24 1_555 1_555
H26 C29 1_555 1_555
H27 C29 1_555 1_555
H28 C29 1_555 1_555
B1 C6 1_555 1_555
C1A C1 1_555 1_555
C2A C1A 1_555 1_555
C3A C2A 1_555 1_555
H1A C3A 1_555 1_555
C4A C3A 1_555 1_555
H2A C4A 1_555 1_555
C5A C4A 1_555 1_555
H3A C5A 1_555 1_555
C6A C7A 1_555 1_555
C7A C2A 1_555 1_555
C8A C5A 1_555 1_555
C9A C8A 1_555 1_555
H4A C9A 1_555 1_555
C10A C9A 1_555 1_555
H5A C10A 1_555 1_555
C11A C6A 1_555 1_555
H6A C11A 1_555 1_555
C12A C13A 1_555 1_555
C13A C14A 1_555 1_555
C14A H7A 1_555 1_555
C15A C14A 1_555 1_555
C16A C15A 1_555 1_555
H8A C16A 1_555 1_555
C17A C12A 1_555 1_555
C18A C17A 1_555 1_555
H9A C18A 1_555 1_555
H10A C18A 1_555 1_555
H11A C18A 1_555 1_555
C19A C15A 1_555 1_555
H12A C19A 1_555 1_555
H13A C19A 1_555 1_555
H14A C19A 1_555 1_555
C20A C13A 1_555 1_555
H15A C20A 1_555 1_555
H16A C20A 1_555 1_555
H17A C20A 1_555 1_555
C21A C22A 1_555 1_555
C22A C23A 1_555 1_555
C23A H18A 1_555 1_555
C24A C23A 1_555 1_555
C25A C24A 1_555 1_555
H19A C25A 1_555 1_555
C26A C21A 1_555 1_555
C27A C26A 1_555 1_555
H20A C27A 1_555 1_555
H21A C27A 1_555 1_555
H22A C27A 1_555 1_555
C28A C22A 1_555 1_555
H23A C28A 1_555 1_555
H24A C28A 1_555 1_555
H25A C28A 1_555 1_555
C29A C24A 1_555 1_555
H26A C29A 1_555 1_555
H27A C29A 1_555 1_555
H28A C29A 1_555 1_555
B1A C6A 1_555 1_555
C7 C8 1_555 1_555
C10 C11 1_555 1_555
C12 B1 1_555 1_555
C16 C17 1_555 1_555
C21 B1 1_555 1_555
C25 C26 1_555 1_555
C7A C8A 1_555 1_555
C10A C11A 1_555 1_555
C12A B1A 1_555 1_555
C16A C17A 1_555 1_555
C21A B1A 1_555 1_555
C25A C26A 1_555 1_555

#END
