
#######################################################################
#
#                 Cambridge Crystallographic Data Centre
#                                CCDC 
#
#######################################################################
#
# If this CIF has been generated from an entry in the Cambridge 
# Structural Database, then it will include bibliographic, chemical, 
# crystal, experimental, refinement or atomic coordinate data resulting 
# from the CCDC's data processing and validation procedures.
#
#######################################################################

data_NILDUK
_chemical_formula_moiety         
'C52 H52 B2 2-,2(C18 H36 K1 N2 O6 1+),3(C4 H8 O1)'
_chemical_name_systematic        
"bis(([2.2.2]-cryptand)-potassium) 8,8'-(ethene-1,2-diylidene)bis[7,7-bis(2,4,6-trimethylphenyl)-7-boratabicyclo[4.2.0]octa-1,3,5-triene] tetrahydrofuran solvate"
_symmetry_cell_setting           orthorhombic
_symmetry_space_group_name_H-M   'P 21 21 2'
_symmetry_Int_Tables_number      18
_space_group_name_Hall           'P 2 2ab'
loop_
_symmetry_equiv_pos_site_id
_symmetry_equiv_pos_as_xyz
1 x,y,z
2 -x,-y,z
3 1/2-x,1/2+y,-z
4 1/2+x,1/2-y,-z
_cell_length_a                   16.63(3)
_cell_length_b                   21.37(3)
_cell_length_c                   13.941(15)
_cell_angle_alpha                90
_cell_angle_beta                 90
_cell_angle_gamma                90
_cell_volume                     4954.4
_exptl_crystal_colour            orange
_exptl_crystal_description       block
_cell_formula_units_Z            2
loop_
_atom_site_label
_atom_site_type_symbol
_atom_site_fract_x
_atom_site_fract_y
_atom_site_fract_z
K1 K 0.27482(14) 0.45018(11) 0.23464(15)
O1 O 0.3906(5) 0.4743(4) 0.0918(4)
O2 O 0.4171(5) 0.3812(4) 0.2322(8)
O3 O 0.1443(5) 0.4204(5) 0.1155(6)
O4 O 0.1702(6) 0.3533(4) 0.2887(9)
O5 O 0.2447(5) 0.5822(4) 0.2697(7)
O6 O 0.3002(6) 0.5094(8) 0.4201(6)
N1 N 0.2320(7) 0.5353(5) 0.0716(6)
N2 N 0.3146(8) 0.3733(7) 0.4116(11)
C1 C 0.3813(11) 0.3296(10) 0.3811(19)
H1 H 0.3577 0.2955 0.3422
H2 H 0.4051 0.3105 0.4392
C2 C 0.4482(9) 0.3603(8) 0.3235(14)
H3 H 0.4701 0.3964 0.3594
H4 H 0.4924 0.3300 0.3130
C3 C 0.4793(8) 0.4049(6) 0.1713(10)
H5 H 0.5215 0.3727 0.1624
H6 H 0.5043 0.4423 0.2009
C4 C 0.4435(8) 0.4215(7) 0.0778(9)
H7 H 0.4863 0.4324 0.0314
H8 H 0.4128 0.3855 0.0519
C5 C 0.3535(9) 0.4905(9) 0.0013(8)
H9 H 0.3956 0.4981 -0.0476
H10 H 0.3193 0.4555 -0.0210
C6 C 0.3059(9) 0.5455(8) 0.0136(9)
H11 H 0.2901 0.5614 -0.0504
H12 H 0.3390 0.5781 0.0450
C7 C 0.1683(9) 0.5049(9) 0.0119(9)
H13 H 0.1405 0.5373 -0.0264
H14 H 0.1940 0.4752 -0.0333
C8 C 0.1099(10) 0.4717(8) 0.0692(9)
H15 H 0.0869 0.5005 0.1176
H16 H 0.0655 0.4571 0.0274
C9 C 0.0883(9) 0.3741(8) 0.1525(12)
H17 H 0.0620 0.3518 0.0988
H18 H 0.0461 0.3948 0.1912
C10 C 0.1343(10) 0.3290(7) 0.2131(12)
H19 H 0.0970 0.2959 0.2353
H20 H 0.1756 0.3086 0.1726
C11 C 0.2081(10) 0.3046(7) 0.3526(12)
H21 H 0.1669 0.2744 0.3746
H22 H 0.2500 0.2813 0.3169
C12 C 0.2452(12) 0.3374(9) 0.4375(13)
H23 H 0.2046 0.3655 0.4668
H24 H 0.2606 0.3059 0.4862
C13 C 0.3293(16) 0.4180(12) 0.4947(10)
H25 H 0.3175 0.3951 0.5548
H26 H 0.3874 0.4282 0.4954
C14 C 0.2860(11) 0.4757(11) 0.4979(12)
H27 H 0.2276 0.4671 0.5029
H28 H 0.3024 0.4997 0.5554
C15 C 0.2702(11) 0.5713(9) 0.4288(11)
H29 H 0.2962 0.5919 0.4843
H30 H 0.2116 0.5697 0.4412
C16 C 0.2849(10) 0.6077(9) 0.3438(11)
H31 H 0.2666 0.6513 0.3540
H32 H 0.3432 0.6084 0.3296
C17 C 0.2467(11) 0.6200(6) 0.1786(10)
H33 H 0.2246 0.6622 0.1915
H34 H 0.3033 0.6250 0.1578
C18 C 0.2028(10) 0.5923(7) 0.1047(12)
H35 H 0.1469 0.5860 0.1272
H36 H 0.2009 0.6218 0.0501
O7 O 0.0493(19) 0.5771(13) 0.690(3)
C19 C 0.081(3) 0.6047(16) 0.788(2)
H37 H 0.0370 0.6243 0.8242
H38 H 0.1054 0.5711 0.8275
C20 C 0.136(3) 0.647(2) 0.765(3)
H39 H 0.1828 0.6419 0.8091
H40 H 0.1135 0.6890 0.7757
C21 C 0.165(2) 0.6416(17) 0.665(2)
H41 H 0.1581 0.6816 0.6298
H42 H 0.2218 0.6285 0.6616
C22 C 0.117(2) 0.5979(12) 0.630(2)
H43 H 0.1500 0.5608 0.6146
H44 H 0.0942 0.6135 0.5686
O8 O 0.0000 0.5000 0.2900(9)
C23 C 0.0688(10) 0.4989(10) 0.3497(11)
H45 H 0.1060 0.4653 0.3290
H46 H 0.0976 0.5394 0.3462
C24 C 0.0421(12) 0.4878(15) 0.4432(16)
H47 H 0.0758 0.5104 0.4905
H48 H 0.0432 0.4425 0.4583
C23A C -0.0688(10) 0.5011(10) 0.3497(11)
H45A H -0.1060 0.5347 0.3290
H46A H -0.0976 0.4606 0.3462
C24A C -0.0421(12) 0.5122(15) 0.4432(16)
H47A H -0.0758 0.4896 0.4905
H48A H -0.0432 0.5575 0.4583
C25 C 0.4351(6) 0.4249(4) 0.7811(6)
C26 C 0.3470(6) 0.4220(5) 0.7683(6)
C27 C 0.2846(7) 0.4651(4) 0.7625(6)
H49 H 0.2935 0.5086 0.7714
C28 C 0.2083(6) 0.4412(5) 0.7429(6)
H50 H 0.1634 0.4686 0.7394
C29 C 0.1979(6) 0.3776(5) 0.7287(7)
H51 H 0.1455 0.3620 0.7156
C30 C 0.3385(6) 0.3582(4) 0.7555(6)
C31 C 0.2624(7) 0.3358(5) 0.7332(6)
H52 H 0.2542 0.2926 0.7210
C32 C 0.4790(6) 0.4759(4) 0.7955(5)
C33 C 0.4743(7) 0.3145(4) 0.8660(6)
C34 C 0.5588(7) 0.3180(5) 0.8838(7)
C35 C 0.5937(8) 0.2909(5) 0.9647(8)
H53 H 0.6504 0.2934 0.9724
C36 C 0.5489(9) 0.2604(5) 1.0341(8)
C37 C 0.4669(8) 0.2571(5) 1.0191(7)
H54 H 0.4353 0.2356 1.0652
C38 C 0.4270(6) 0.2838(5) 0.9393(7)
C39 C 0.3379(7) 0.2824(5) 0.9392(7)
H55 H 0.3172 0.3253 0.9379
H56 H 0.3187 0.2612 0.9971
H57 H 0.3189 0.2598 0.8824
C40 C 0.6131(7) 0.3519(6) 0.8153(8)
H58 H 0.6126 0.3305 0.7531
H59 H 0.6680 0.3523 0.8408
H60 H 0.5941 0.3950 0.8072
C41 C 0.5901(10) 0.2294(7) 1.1186(9)
H61 H 0.6126 0.1891 1.0984
H62 H 0.5510 0.2226 1.1701
H63 H 0.6335 0.2564 1.1420
C42 C 0.4761(7) 0.3154(4) 0.6697(6)
C43 C 0.4634(7) 0.2509(5) 0.6537(7)
C44 C 0.4955(8) 0.2210(5) 0.5739(7)
H64 H 0.4851 0.1776 0.5658
C45 C 0.5410(8) 0.2506(6) 0.5068(8)
C46 C 0.5525(7) 0.3132(6) 0.5209(7)
H65 H 0.5839 0.3355 0.4753
C47 C 0.5208(7) 0.3462(5) 0.5984(7)
C48 C 0.5363(8) 0.4157(5) 0.5998(8)
H66 H 0.4850 0.4381 0.6045
H67 H 0.5640 0.4280 0.5407
H68 H 0.5700 0.4262 0.6552
C49 C 0.4133(7) 0.2128(4) 0.7206(8)
H69 H 0.4418 0.2078 0.7817
H70 H 0.4034 0.1716 0.6923
H71 H 0.3619 0.2341 0.7318
C50 C 0.5762(9) 0.2177(6) 0.4202(8)
H72 H 0.6350 0.2207 0.4221
H73 H 0.5562 0.2375 0.3615
H74 H 0.5603 0.1735 0.4210
B1 B 0.4369(7) 0.3460(5) 0.7673(8)
C25A C 0.5649(6) 0.5751(4) 0.7811(6)
C26A C 0.6530(6) 0.5780(5) 0.7683(6)
C27A C 0.7154(7) 0.5349(4) 0.7625(6)
H49A H 0.7065 0.4914 0.7714
C28A C 0.7917(6) 0.5588(5) 0.7429(6)
H50A H 0.8366 0.5314 0.7394
C29A C 0.8021(6) 0.6224(5) 0.7287(7)
H51A H 0.8545 0.6380 0.7156
C30A C 0.6615(6) 0.6418(4) 0.7555(6)
C31A C 0.7376(7) 0.6642(5) 0.7332(6)
H52A H 0.7458 0.7074 0.7210
C32A C 0.5210(6) 0.5241(4) 0.7955(5)
C33A C 0.5257(7) 0.6855(4) 0.8660(6)
C34A C 0.4412(7) 0.6820(5) 0.8838(7)
C35A C 0.4063(8) 0.7091(5) 0.9647(8)
H53A H 0.3496 0.7066 0.9724
C36A C 0.4511(9) 0.7396(5) 1.0341(8)
C37A C 0.5331(8) 0.7429(5) 1.0191(7)
H54A H 0.5647 0.7644 1.0652
C38A C 0.5730(6) 0.7162(5) 0.9393(7)
C39A C 0.6621(7) 0.7176(5) 0.9392(7)
H55A H 0.6828 0.6747 0.9379
H56A H 0.6813 0.7388 0.9971
H57A H 0.6811 0.7402 0.8824
C40A C 0.3869(7) 0.6481(6) 0.8153(8)
H58A H 0.3874 0.6695 0.7531
H59A H 0.3320 0.6477 0.8408
H60A H 0.4059 0.6050 0.8072
C41A C 0.4099(10) 0.7706(7) 1.1186(9)
H61A H 0.3874 0.8109 1.0984
H62A H 0.4490 0.7774 1.1701
H63A H 0.3665 0.7436 1.1420
C42A C 0.5239(7) 0.6846(4) 0.6697(6)
C43A C 0.5366(7) 0.7491(5) 0.6537(7)
C44A C 0.5045(8) 0.7790(5) 0.5739(7)
H64A H 0.5149 0.8224 0.5658
C45A C 0.4590(8) 0.7494(6) 0.5068(8)
C46A C 0.4475(7) 0.6868(6) 0.5209(7)
H65A H 0.4161 0.6645 0.4753
C47A C 0.4792(7) 0.6538(5) 0.5984(7)
C48A C 0.4637(8) 0.5843(5) 0.5998(8)
H66A H 0.5150 0.5619 0.6045
H67A H 0.4360 0.5720 0.5407
H68A H 0.4300 0.5738 0.6552
C49A C 0.5867(7) 0.7872(4) 0.7206(8)
H69A H 0.5582 0.7922 0.7817
H70A H 0.5966 0.8284 0.6923
H71A H 0.6381 0.7659 0.7318
C50A C 0.4238(9) 0.7823(6) 0.4202(8)
H72A H 0.3650 0.7793 0.4221
H73A H 0.4438 0.7625 0.3615
H74A H 0.4397 0.8265 0.4210
B1A B 0.5631(7) 0.6540(5) 0.7673(8)
loop_
_geom_bond_atom_site_label_1
_geom_bond_atom_site_label_2
_geom_bond_site_symmetry_1
_geom_bond_site_symmetry_2
K1 O1 1_555 1_555
O1 C4 1_555 1_555
O2 K1 1_555 1_555
O3 K1 1_555 1_555
O4 K1 1_555 1_555
O5 K1 1_555 1_555
O6 K1 1_555 1_555
N1 K1 1_555 1_555
N2 K1 1_555 1_555
C1 N2 1_555 1_555
H1 C1 1_555 1_555
H2 C1 1_555 1_555
C2 O2 1_555 1_555
H3 C2 1_555 1_555
H4 C2 1_555 1_555
C3 O2 1_555 1_555
H5 C3 1_555 1_555
H6 C3 1_555 1_555
C4 C3 1_555 1_555
H7 C4 1_555 1_555
H8 C4 1_555 1_555
C5 O1 1_555 1_555
H9 C5 1_555 1_555
H10 C5 1_555 1_555
C6 N1 1_555 1_555
H11 C6 1_555 1_555
H12 C6 1_555 1_555
C7 N1 1_555 1_555
H13 C7 1_555 1_555
H14 C7 1_555 1_555
C8 O3 1_555 1_555
H15 C8 1_555 1_555
H16 C8 1_555 1_555
C9 O3 1_555 1_555
H17 C9 1_555 1_555
H18 C9 1_555 1_555
C10 O4 1_555 1_555
H19 C10 1_555 1_555
H20 C10 1_555 1_555
C11 O4 1_555 1_555
H21 C11 1_555 1_555
H22 C11 1_555 1_555
C12 N2 1_555 1_555
H23 C12 1_555 1_555
H24 C12 1_555 1_555
C13 N2 1_555 1_555
H25 C13 1_555 1_555
H26 C13 1_555 1_555
C14 O6 1_555 1_555
H27 C14 1_555 1_555
H28 C14 1_555 1_555
C15 O6 1_555 1_555
H29 C15 1_555 1_555
H30 C15 1_555 1_555
C16 O5 1_555 1_555
H31 C16 1_555 1_555
H32 C16 1_555 1_555
C17 O5 1_555 1_555
H33 C17 1_555 1_555
H34 C17 1_555 1_555
C18 N1 1_555 1_555
H35 C18 1_555 1_555
H36 C18 1_555 1_555
O7 C19 1_555 1_555
C19 H37 1_555 1_555
H38 C19 1_555 1_555
C20 C19 1_555 1_555
H39 C20 1_555 1_555
H40 C20 1_555 1_555
C21 C20 1_555 1_555
H41 C21 1_555 1_555
H42 C21 1_555 1_555
C22 O7 1_555 1_555
H43 C22 1_555 1_555
H44 C22 1_555 1_555
O8 C23 1_555 1_555
C23 H45 1_555 1_555
H46 C23 1_555 1_555
C24 C23 1_555 1_555
H47 C24 1_555 1_555
H48 C24 1_555 1_555
C25 C26 1_555 1_555
C26 C27 1_555 1_555
C27 H49 1_555 1_555
C28 C27 1_555 1_555
H50 C28 1_555 1_555
C29 C28 1_555 1_555
H51 C29 1_555 1_555
C30 C26 1_555 1_555
C31 C29 1_555 1_555
H52 C31 1_555 1_555
C32 C25 1_555 1_555
C33 C34 1_555 1_555
C34 C35 1_555 1_555
C35 H53 1_555 1_555
C36 C35 1_555 1_555
C37 C36 1_555 1_555
H54 C37 1_555 1_555
C38 C33 1_555 1_555
C39 C38 1_555 1_555
H55 C39 1_555 1_555
H56 C39 1_555 1_555
H57 C39 1_555 1_555
C40 C34 1_555 1_555
H58 C40 1_555 1_555
H59 C40 1_555 1_555
H60 C40 1_555 1_555
C41 C36 1_555 1_555
H61 C41 1_555 1_555
H62 C41 1_555 1_555
H63 C41 1_555 1_555
C42 C43 1_555 1_555
C43 C44 1_555 1_555
C44 H64 1_555 1_555
C45 C44 1_555 1_555
C46 C45 1_555 1_555
H65 C46 1_555 1_555
C47 C42 1_555 1_555
C48 C47 1_555 1_555
H66 C48 1_555 1_555
H67 C48 1_555 1_555
H68 C48 1_555 1_555
C49 C43 1_555 1_555
H69 C49 1_555 1_555
H70 C49 1_555 1_555
H71 C49 1_555 1_555
C50 C45 1_555 1_555
H72 C50 1_555 1_555
H73 C50 1_555 1_555
H74 C50 1_555 1_555
B1 C25 1_555 1_555
C23A O8 1_555 1_555
H45A C23A 1_555 1_555
H46A C23A 1_555 1_555
C24A C24 1_555 1_555
H47A C24A 1_555 1_555
H48A C24A 1_555 1_555
C25A C26A 1_555 1_555
C26A C27A 1_555 1_555
C27A H49A 1_555 1_555
C28A C27A 1_555 1_555
H50A C28A 1_555 1_555
C29A C28A 1_555 1_555
H51A C29A 1_555 1_555
C30A C26A 1_555 1_555
C31A C29A 1_555 1_555
H52A C31A 1_555 1_555
C32A C32 1_555 1_555
C33A C34A 1_555 1_555
C34A C35A 1_555 1_555
C35A H53A 1_555 1_555
C36A C35A 1_555 1_555
C37A C36A 1_555 1_555
H54A C37A 1_555 1_555
C38A C33A 1_555 1_555
C39A C38A 1_555 1_555
H55A C39A 1_555 1_555
H56A C39A 1_555 1_555
H57A C39A 1_555 1_555
C40A C34A 1_555 1_555
H58A C40A 1_555 1_555
H59A C40A 1_555 1_555
H60A C40A 1_555 1_555
C41A C36A 1_555 1_555
H61A C41A 1_555 1_555
H62A C41A 1_555 1_555
H63A C41A 1_555 1_555
C42A C43A 1_555 1_555
C43A C44A 1_555 1_555
C44A H64A 1_555 1_555
C45A C44A 1_555 1_555
C46A C45A 1_555 1_555
H65A C46A 1_555 1_555
C47A C42A 1_555 1_555
C48A C47A 1_555 1_555
H66A C48A 1_555 1_555
H67A C48A 1_555 1_555
H68A C48A 1_555 1_555
C49A C43A 1_555 1_555
H69A C49A 1_555 1_555
H70A C49A 1_555 1_555
H71A C49A 1_555 1_555
C50A C45A 1_555 1_555
H72A C50A 1_555 1_555
H73A C50A 1_555 1_555
H74A C50A 1_555 1_555
B1A C25A 1_555 1_555
C1 C2 1_555 1_555
C5 C6 1_555 1_555
C7 C8 1_555 1_555
C9 C10 1_555 1_555
C11 C12 1_555 1_555
C13 C14 1_555 1_555
C15 C16 1_555 1_555
C17 C18 1_555 1_555
C21 C22 1_555 1_555
C30 C31 1_555 1_555
C30 B1 1_555 1_555
C33 B1 1_555 1_555
C37 C38 1_555 1_555
C42 B1 1_555 1_555
C46 C47 1_555 1_555
C23A C24A 1_555 1_555
C25A C32A 1_555 1_555
C30A C31A 1_555 1_555
C30A B1A 1_555 1_555
C33A B1A 1_555 1_555
C37A C38A 1_555 1_555
C42A B1A 1_555 1_555
C46A C47A 1_555 1_555

#END
