
#######################################################################
#
#                 Cambridge Crystallographic Data Centre
#                                CCDC 
#
#######################################################################
#
# If this CIF has been generated from an entry in the Cambridge 
# Structural Database, then it will include bibliographic, chemical, 
# crystal, experimental, refinement or atomic coordinate data resulting 
# from the CCDC's data processing and validation procedures.
#
#######################################################################

data_NILDIY
_chemical_formula_moiety         
'0.38(C66 H92 B2 Na2 O4),0.62(C66 H92 B2 Na2 O4)'
_chemical_name_systematic        
"(\m-8,8,8',8'-tetrakis(2,4,6-trimethylphenyl)-8,8'-dibora[7,7'-bi(bicyclo[4.2.0]octane)]-1,1',3,3',5,5',7(7')-heptaene-8,8'-diido)-tetrakis(diethyl ether)-di-sodium (\m-5,5,10,10-tetrakis(2,4,6-trimethylphenyl)-5,10-dihydro[1]benzoborolo[3,2-b][1]benzoborol-5,10-diido)-tetrakis(diethyl ether)-di-sodium"
_symmetry_cell_setting           monoclinic
_symmetry_space_group_name_H-M   'P 21/n'
_symmetry_Int_Tables_number      14
_space_group_name_Hall           '-P 2yn'
loop_
_symmetry_equiv_pos_site_id
_symmetry_equiv_pos_as_xyz
1 x,y,z
2 1/2-x,1/2+y,1/2-z
3 -x,-y,-z
4 1/2+x,1/2-y,1/2+z
_cell_length_a                   13.1302(9)
_cell_length_b                   13.3967(6)
_cell_length_c                   17.6535(8)
_cell_angle_alpha                90
_cell_angle_beta                 105.534(6)
_cell_angle_gamma                90
_cell_volume                     2991.84
_exptl_crystal_colour            yellow
_exptl_crystal_description       needle
_cell_formula_units_Z            2
loop_
_atom_site_label
_atom_site_type_symbol
_atom_site_fract_x
_atom_site_fract_y
_atom_site_fract_z
Na1 Na 0.68365(8) 0.24262(7) -0.07156(6)
B1 B 0.6682(2) 0.4847(2) 0.01058(15)
O1 O 0.81072(14) 0.11406(13) -0.02737(12)
C1 C 0.6576(3) 0.3756(2) 0.05331(15)
C2 C 0.7123(2) 0.2913(2) 0.08434(17)
H1 H 0.7856 0.2915 0.0947
C3 C 0.73760(17) 0.57831(16) 0.05969(12)
C4 C 0.76071(17) 0.58714(17) 0.14255(12)
C5 C 0.81632(17) 0.66908(18) 0.18216(13)
H2 H 0.8301 0.6716 0.2366
C6 C 0.85155(18) 0.74617(17) 0.14439(13)
C7 C 0.83033(17) 0.73821(17) 0.06360(13)
H3 H 0.8536 0.7887 0.0361
C8 C 0.77564(17) 0.65782(16) 0.02145(12)
C9 C 0.7282(2) 0.5085(2) 0.19255(13)
H4 H 0.6578 0.4862 0.1673
H5 H 0.7300 0.5362 0.2431
H6 H 0.7760 0.4530 0.1992
C10 C 0.9076(2) 0.8356(2) 0.18811(17)
H7 H 0.8602 0.8915 0.1797
H8 H 0.9678 0.8516 0.1692
H9 H 0.9307 0.8208 0.2433
C11 C 0.7625(2) 0.66099(18) -0.06669(13)
H10 H 0.8151 0.6193 -0.0795
H11 H 0.7709 0.7284 -0.0825
H12 H 0.6934 0.6373 -0.0938
C12 C 0.71686(18) 0.44767(16) -0.06349(12)
C13 C 0.65908(17) 0.43625(16) -0.14299(12)
C14 C 0.70623(19) 0.40125(17) -0.19976(13)
H13 H 0.6647 0.3948 -0.2512
C15 C 0.81199(19) 0.37558(18) -0.18308(13)
C16 C 0.86975(19) 0.38528(17) -0.10475(14)
H14 H 0.9409 0.3679 -0.0909
C17 C 0.82550(18) 0.41993(17) -0.04625(12)
C18 C 0.90030(18) 0.4317(2) 0.03454(13)
H15 H 0.8627 0.4209 0.0736
H16 H 0.9294 0.4978 0.0401
H17 H 0.9564 0.3837 0.0414
C19 C 0.54357(19) 0.4636(2) -0.17071(13)
H18 H 0.5176 0.4494 -0.2258
H19 H 0.5352 0.5335 -0.1619
H20 H 0.5044 0.4254 -0.1421
C20 C 0.8623(2) 0.3415(2) -0.24583(16)
H21 H 0.8580 0.2702 -0.2502
H22 H 0.9351 0.3617 -0.2322
H23 H 0.8258 0.3710 -0.2952
C21 C 0.9211(2) 0.1392(2) -0.0055(2)
H24 H 0.9291 0.2057 -0.0248
H25 H 0.9578 0.0933 -0.0316
C22 C 0.9730(3) 0.1363(3) 0.0807(2)
H26 H 1.0433 0.1626 0.0908
H27 H 0.9760 0.0686 0.0990
H28 H 0.9329 0.1758 0.1079
C23 C 0.7933(3) 0.0103(2) -0.0182(3)
H29 H 0.8232 -0.0087 0.0363
H30 H 0.8288 -0.0281 -0.0502
C24 C 0.6802(2) -0.0129(2) -0.0415(2)
H31 H 0.6504 0.0068 -0.0951
H32 H 0.6456 0.0227 -0.0082
H33 H 0.6703 -0.0833 -0.0364
C25 C 0.5431(5) 0.4746(11) 0.0050(4)
C26 C 0.3989(4) 0.1136(4) -0.1180(3)
H34 H 0.3938 0.0561 -0.1514
H35 H 0.3313 0.1268 -0.1090
H36 H 0.4499 0.1011 -0.0687
C27 C 0.5457(3) 0.37159(19) 0.03892(14)
C28 C 0.4967(2) 0.2857(2) 0.05389(17)
H37 H 0.4234 0.2832 0.0426
C29 C 0.5557(2) 0.20370(19) 0.08541(15)
H38 H 0.5224 0.1463 0.0964
C30 C 0.6634(2) 0.20624(19) 0.10073(14)
H39 H 0.7034 0.1507 0.1221
O2 O 0.5366(4) 0.1904(3) -0.1683(2)
C31 C 0.5322(6) 0.1327(4) -0.2378(3)
H40 H 0.4811 0.1622 -0.2823
H41 H 0.5091 0.0654 -0.2307
C32 C 0.6388(14) 0.1292(13) -0.2542(8)
H42 H 0.6352 0.0872 -0.2989
H43 H 0.6899 0.1028 -0.2092
H44 H 0.6592 0.1954 -0.2650
C33 C 0.4329(8) 0.2017(7) -0.1569(6)
H45 H 0.3824 0.2123 -0.2076
H46 H 0.4320 0.2605 -0.1250
B1B B 0.3318(2) 0.5153(2) -0.01058(15)
C1B C 0.3424(3) 0.6244(2) -0.05331(15)
C2B C 0.2877(2) 0.7087(2) -0.08434(17)
H1B H 0.2144 0.7085 -0.0947
C3B C 0.26240(17) 0.42169(16) -0.05969(12)
C4B C 0.23929(17) 0.41286(17) -0.14255(12)
C5B C 0.18368(17) 0.33092(18) -0.18216(13)
H2B H 0.1699 0.3284 -0.2366
C6B C 0.14845(18) 0.25383(17) -0.14439(13)
C7B C 0.16967(17) 0.26179(17) -0.06360(13)
H3B H 0.1464 0.2113 -0.0361
C8B C 0.22436(17) 0.34218(16) -0.02145(12)
C9B C 0.2718(2) 0.4915(2) -0.19255(13)
H4B H 0.3422 0.5138 -0.1673
H5B H 0.2700 0.4638 -0.2431
H6B H 0.2240 0.5470 -0.1992
C10B C 0.0924(2) 0.1644(2) -0.18811(17)
H7B H 0.1398 0.1085 -0.1797
H8B H 0.0322 0.1484 -0.1692
H9B H 0.0693 0.1792 -0.2433
C11B C 0.2375(2) 0.33901(18) 0.06669(13)
H10B H 0.1849 0.3807 0.0795
H11B H 0.2291 0.2716 0.0825
H12B H 0.3066 0.3627 0.0938
C12B C 0.28314(18) 0.55233(16) 0.06349(12)
C13B C 0.34092(17) 0.56375(16) 0.14299(12)
C14B C 0.29377(19) 0.59875(17) 0.19976(13)
H13B H 0.3353 0.6052 0.2512
C15B C 0.18801(19) 0.62442(18) 0.18308(13)
C16B C 0.13025(19) 0.61472(17) 0.10475(14)
H14B H 0.0591 0.6321 0.0909
C17B C 0.17450(18) 0.58007(17) 0.04625(12)
C18B C 0.09970(18) 0.5683(2) -0.03454(13)
H15B H 0.1373 0.5791 -0.0736
H16B H 0.0706 0.5022 -0.0401
H17B H 0.0436 0.6163 -0.0414
C19B C 0.45643(19) 0.5364(2) 0.17071(13)
H18B H 0.4824 0.5506 0.2258
H19B H 0.4648 0.4665 0.1619
H20B H 0.4956 0.5746 0.1421
C20B C 0.1377(2) 0.6585(2) 0.24583(16)
H21B H 0.1420 0.7298 0.2502
H22B H 0.0649 0.6383 0.2322
H23B H 0.1742 0.6290 0.2952
C25B C 0.4569(5) 0.5254(11) -0.0050(4)
C27B C 0.4543(3) 0.62841(19) -0.03892(14)
C28B C 0.5033(2) 0.7143(2) -0.05389(17)
H37B H 0.5766 0.7168 -0.0426
C29B C 0.4443(2) 0.79630(19) -0.08541(15)
H38B H 0.4776 0.8537 -0.0964
C30B C 0.3366(2) 0.79376(19) -0.10073(14)
H39B H 0.2966 0.8493 -0.1221
Na1B Na 0.31635(8) 0.75738(7) 0.07156(6)
O1B O 0.18928(14) 0.88594(13) 0.02737(12)
C21B C 0.0789(2) 0.8608(2) 0.0055(2)
H24B H 0.0709 0.7943 0.0248
H25B H 0.0422 0.9067 0.0316
C22B C 0.0270(3) 0.8637(3) -0.0807(2)
H26B H -0.0433 0.8374 -0.0908
H27B H 0.0240 0.9314 -0.0990
H28B H 0.0671 0.8242 -0.1079
C23B C 0.2067(3) 0.9897(2) 0.0182(3)
H29B H 0.1768 1.0087 -0.0363
H30B H 0.1712 1.0281 0.0502
C24B C 0.3198(2) 1.0129(2) 0.0415(2)
H31B H 0.3496 0.9932 0.0951
H32B H 0.3544 0.9773 0.0082
H33B H 0.3297 1.0833 0.0364
C26B C 0.6011(4) 0.8864(4) 0.1180(3)
H34B H 0.6062 0.9439 0.1514
H35B H 0.6687 0.8732 0.1090
H36B H 0.5501 0.8989 0.0687
O2B O 0.4634(4) 0.8096(3) 0.1683(2)
C31B C 0.4678(6) 0.8673(4) 0.2378(3)
H40B H 0.5189 0.8378 0.2823
H41B H 0.4909 0.9346 0.2307
C32B C 0.3612(14) 0.8708(13) 0.2542(8)
H42B H 0.3648 0.9128 0.2989
H43B H 0.3101 0.8972 0.2092
H44B H 0.3408 0.8046 0.2650
C33B C 0.5671(8) 0.7983(7) 0.1569(6)
H45B H 0.6176 0.7877 0.2076
H46B H 0.5680 0.7395 0.1250
C34? C 0.4661(6) 0.4663(12) 0.0127(5)
C35? C 0.441(3) 0.183(3) -0.1345(14)
H47? H 0.3650 0.1824 -0.1489
H48? H 0.4657 0.2460 -0.1101
H49? H 0.4674 0.1299 -0.0983
C36? C 0.637(3) 0.140(3) -0.2467(13)
H50? H 0.6257 0.1959 -0.2828
H51? H 0.6042 0.0813 -0.2754
O3? O 0.5905(8) 0.1606(6) -0.1829(6)
C37? C 0.7574(10) 0.1216(8) -0.2122(6)
H52? H 0.7896 0.1106 -0.2543
H53? H 0.7680 0.0639 -0.1787
H54? H 0.7889 0.1788 -0.1823
C38? C 0.4824(14) 0.1689(14) -0.2129(12)
H55? H 0.4528 0.1092 -0.2415
H56? H 0.4641 0.2261 -0.2476
loop_
_geom_bond_atom_site_label_1
_geom_bond_atom_site_label_2
_geom_bond_site_symmetry_1
_geom_bond_site_symmetry_2
Na1 O1 1_555 1_555
B1 C1 1_555 1_555
O1 C21 1_555 1_555
C1 Na1 1_555 1_555
C2 Na1 1_555 1_555
H1 C2 1_555 1_555
C3 B1 1_555 1_555
C4 C3 1_555 1_555
C5 C4 1_555 1_555
H2 C5 1_555 1_555
C6 C5 1_555 1_555
C7 C6 1_555 1_555
H3 C7 1_555 1_555
C8 C3 1_555 1_555
C9 C4 1_555 1_555
H4 C9 1_555 1_555
H5 C9 1_555 1_555
H6 C9 1_555 1_555
C10 C6 1_555 1_555
H7 C10 1_555 1_555
H8 C10 1_555 1_555
H9 C10 1_555 1_555
C11 C8 1_555 1_555
H10 C11 1_555 1_555
H11 C11 1_555 1_555
H12 C11 1_555 1_555
C12 Na1 1_555 1_555
C13 Na1 1_555 1_555
C14 C13 1_555 1_555
H13 C14 1_555 1_555
C15 C14 1_555 1_555
C16 C15 1_555 1_555
H14 C16 1_555 1_555
C17 Na1 1_555 1_555
C18 C17 1_555 1_555
H15 C18 1_555 1_555
H16 C18 1_555 1_555
H17 C18 1_555 1_555
C19 C13 1_555 1_555
H18 C19 1_555 1_555
H19 C19 1_555 1_555
H20 C19 1_555 1_555
C20 C15 1_555 1_555
H21 C20 1_555 1_555
H22 C20 1_555 1_555
H23 C20 1_555 1_555
C21 H24 1_555 1_555
H25 C21 1_555 1_555
C22 C21 1_555 1_555
H26 C22 1_555 1_555
H27 C22 1_555 1_555
H28 C22 1_555 1_555
C23 O1 1_555 1_555
H29 C23 1_555 1_555
H30 C23 1_555 1_555
C24 C23 1_555 1_555
H31 C24 1_555 1_555
H32 C24 1_555 1_555
H33 C24 1_555 1_555
C25 B1 1_555 1_555
C26 H34 1_555 1_555
H35 C26 1_555 1_555
H36 C26 1_555 1_555
C27 C1 1_555 1_555
C28 C27 1_555 1_555
H37 C28 1_555 1_555
C29 C28 1_555 1_555
H38 C29 1_555 1_555
C30 C2 1_555 1_555
H39 C30 1_555 1_555
O2 Na1 1_555 1_555
C31 O2 1_555 1_555
H40 C31 1_555 1_555
H41 C31 1_555 1_555
C32 C31 1_555 1_555
H42 C32 1_555 1_555
H43 C32 1_555 1_555
H44 C32 1_555 1_555
C33 C26 1_555 1_555
H45 C33 1_555 1_555
H46 C33 1_555 1_555
B1B C1B 1_555 1_555
C1B C2B 1_555 1_555
C2B H1B 1_555 1_555
C3B B1B 1_555 1_555
C4B C3B 1_555 1_555
C5B C4B 1_555 1_555
H2B C5B 1_555 1_555
C6B C5B 1_555 1_555
C7B C6B 1_555 1_555
H3B C7B 1_555 1_555
C8B C3B 1_555 1_555
C9B C4B 1_555 1_555
H4B C9B 1_555 1_555
H5B C9B 1_555 1_555
H6B C9B 1_555 1_555
C10B C6B 1_555 1_555
H7B C10B 1_555 1_555
H8B C10B 1_555 1_555
H9B C10B 1_555 1_555
C11B C8B 1_555 1_555
H10B C11B 1_555 1_555
H11B C11B 1_555 1_555
H12B C11B 1_555 1_555
C12B B1B 1_555 1_555
C13B C12B 1_555 1_555
C14B C13B 1_555 1_555
H13B C14B 1_555 1_555
C15B C14B 1_555 1_555
C16B C15B 1_555 1_555
H14B C16B 1_555 1_555
C17B C12B 1_555 1_555
C18B C17B 1_555 1_555
H15B C18B 1_555 1_555
H16B C18B 1_555 1_555
H17B C18B 1_555 1_555
C19B C13B 1_555 1_555
H18B C19B 1_555 1_555
H19B C19B 1_555 1_555
H20B C19B 1_555 1_555
C20B C15B 1_555 1_555
H21B C20B 1_555 1_555
H22B C20B 1_555 1_555
H23B C20B 1_555 1_555
C25B C25 1_555 1_555
C27B C1B 1_555 1_555
C28B C27B 1_555 1_555
H37B C28B 1_555 1_555
C29B C28B 1_555 1_555
H38B C29B 1_555 1_555
C30B C2B 1_555 1_555
H39B C30B 1_555 1_555
Na1B C1B 1_555 1_555
O1B Na1B 1_555 1_555
C21B O1B 1_555 1_555
H24B C21B 1_555 1_555
H25B C21B 1_555 1_555
C22B C21B 1_555 1_555
H26B C22B 1_555 1_555
H27B C22B 1_555 1_555
H28B C22B 1_555 1_555
C23B O1B 1_555 1_555
H29B C23B 1_555 1_555
H30B C23B 1_555 1_555
C24B C23B 1_555 1_555
H31B C24B 1_555 1_555
H32B C24B 1_555 1_555
H33B C24B 1_555 1_555
C26B H34B 1_555 1_555
H35B C26B 1_555 1_555
H36B C26B 1_555 1_555
O2B Na1B 1_555 1_555
C31B O2B 1_555 1_555
H40B C31B 1_555 1_555
H41B C31B 1_555 1_555
C32B C31B 1_555 1_555
H42B C32B 1_555 1_555
H43B C32B 1_555 1_555
H44B C32B 1_555 1_555
C33B C26B 1_555 1_555
H45B C33B 1_555 1_555
H46B C33B 1_555 1_555
B1 C12 1_555 1_555
C1 C2 1_555 1_555
C7 C8 1_555 1_555
C12 C13 1_555 1_555
C12 C17 1_555 1_555
C16 C17 1_555 1_555
C25 C27 1_555 1_555
C29 C30 1_555 1_555
O2 C33 1_555 1_555
B1B C25B 1_555 1_555
C2B Na1B 1_555 1_555
C7B C8B 1_555 1_555
C12B Na1B 1_555 1_555
C13B Na1B 1_555 1_555
C16B C17B 1_555 1_555
C17B Na1B 1_555 1_555
C25B C27B 1_555 1_555
C29B C30B 1_555 1_555
O2B C33B 1_555 1_555

#END
