
#######################################################################
#
#                 Cambridge Crystallographic Data Centre
#                                CCDC 
#
#######################################################################
#
# If this CIF has been generated from an entry in the Cambridge 
# Structural Database, then it will include bibliographic, chemical, 
# crystal, experimental, refinement or atomic coordinate data resulting 
# from the CCDC's data processing and validation procedures.
#
#######################################################################

data_NILDOE
_chemical_formula_moiety         'C62 H60 B2'
_chemical_name_systematic        
'[acenaphthylene-1,2-diylidenebis(methylylidene-2,1-phenylene)]bis[bis(2,4,6-trimethylphenyl)borane]'
_symmetry_cell_setting           monoclinic
_symmetry_space_group_name_H-M   'C 2/c'
_symmetry_Int_Tables_number      15
_space_group_name_Hall           '-C 2yn'
loop_
_symmetry_equiv_pos_site_id
_symmetry_equiv_pos_as_xyz
1 x,y,z
2 -x,y,1/2-z
3 1/2+x,1/2+y,z
4 1/2-x,1/2+y,1/2-z
5 -x,-y,-z
6 x,-y,1/2+z
7 1/2-x,1/2-y,-z
8 1/2+x,1/2-y,1/2+z
_cell_length_a                   21.0183(5)
_cell_length_b                   12.2183(4)
_cell_length_c                   18.4646(5)
_cell_angle_alpha                90
_cell_angle_beta                 101.402(2)
_cell_angle_gamma                90
_cell_volume                     4648.27
_exptl_crystal_colour            yellowish
_exptl_crystal_description       block
_cell_formula_units_Z            4
loop_
_atom_site_label
_atom_site_type_symbol
_atom_site_fract_x
_atom_site_fract_y
_atom_site_fract_z
C1 C 0.74462(9) 0.51228(16) 0.38877(10)
C2 C 0.78236(9) 0.43207(17) 0.43328(11)
C3 C 0.83296(9) 0.46397(18) 0.49003(11)
H1 H 0.8583 0.4091 0.5188
C4 C 0.84755(9) 0.57287(18) 0.50594(11)
C5 C 0.81169(9) 0.65115(18) 0.46095(11)
H2 H 0.8216 0.7263 0.4702
C6 C 0.76158(9) 0.62290(17) 0.40260(11)
C7 C 0.72576(10) 0.71429(17) 0.35661(12)
H3 H 0.7409 0.7199 0.3099
H4 H 0.7340 0.7835 0.3837
H5 H 0.6791 0.6988 0.3465
C8 C 0.77134(10) 0.31196(18) 0.41876(12)
H6 H 0.7284 0.2916 0.4275
H7 H 0.8047 0.2700 0.4519
H8 H 0.7737 0.2959 0.3674
C9 C 0.90011(10) 0.6037(2) 0.57056(12)
H9 H 0.8850 0.5903 0.6167
H10 H 0.9107 0.6815 0.5673
H11 H 0.9389 0.5596 0.5698
C10 C 0.62739(9) 0.40940(16) 0.35136(10)
C11 C 0.59143(9) 0.45221(17) 0.40222(10)
C12 C 0.54580(9) 0.38720(18) 0.42665(11)
H12 H 0.5217 0.4175 0.4602
C13 C 0.53413(10) 0.27981(19) 0.40389(12)
C14 C 0.56756(10) 0.23966(18) 0.35205(11)
H13 H 0.5596 0.1667 0.3349
C15 C 0.61253(9) 0.30271(17) 0.32420(11)
C16 C 0.64347(10) 0.25316(18) 0.26464(12)
H14 H 0.6179 0.2725 0.2160
H15 H 0.6449 0.1734 0.2700
H16 H 0.6877 0.2814 0.2692
C17 C 0.59869(10) 0.57008(17) 0.42684(11)
H17 H 0.6447 0.5863 0.4455
H18 H 0.5742 0.5824 0.4661
H19 H 0.5819 0.6180 0.3849
C18 C 0.48709(13) 0.2092(2) 0.43547(15)
H20 H 0.5033 0.1989 0.4885
H21 H 0.4829 0.1378 0.4107
H22 H 0.4446 0.2451 0.4276
C19 C 0.68173(9) 0.50753(16) 0.24462(10)
C20 C 0.73986(9) 0.50924(17) 0.21860(11)
H23 H 0.7796 0.5004 0.2530
C21 C 0.74165(10) 0.52330(17) 0.14460(11)
H24 H 0.7819 0.5221 0.1285
C22 C 0.68441(10) 0.53909(17) 0.09451(11)
H25 H 0.6849 0.5482 0.0435
C23 C 0.62579(10) 0.54166(18) 0.11892(11)
H26 H 0.5866 0.5546 0.0844
C24 C 0.62358(9) 0.52564(16) 0.19266(11)
C25 C 0.56088(9) 0.52943(17) 0.21819(11)
H27 H 0.5408 0.4613 0.2244
C26 C 0.53000(8) 0.62006(17) 0.23328(10)
C27 C 0.54566(9) 0.73613(17) 0.22212(10)
C28 C 0.59112(9) 0.78933(19) 0.19031(11)
H28 H 0.6225 0.7489 0.1707
C29 C 0.59032(10) 0.90429(19) 0.18732(12)
H29 H 0.6210 0.9404 0.1641
C30 C 0.54728(10) 0.96660(19) 0.21643(12)
H30 H 0.5491 1.0442 0.2142
C31 C 0.5000 0.9146(2) 0.2500
C32 C 0.5000 0.8010(2) 0.2500
B1 B 0.68364(10) 0.47863(18) 0.32767(12)
C1A C 0.25538(9) 0.51228(16) 0.11123(10)
C2A C 0.21764(9) 0.43207(17) 0.06672(11)
C3A C 0.16704(9) 0.46397(18) 0.00997(11)
H1A H 0.1417 0.4091 -0.0188
C4A C 0.15245(9) 0.57287(18) -0.00594(11)
C5A C 0.18831(9) 0.65115(18) 0.03905(11)
H2A H 0.1784 0.7263 0.0298
C6A C 0.23842(9) 0.62290(17) 0.09740(11)
C7A C 0.27424(10) 0.71429(17) 0.14339(12)
H3A H 0.2591 0.7199 0.1901
H4A H 0.2660 0.7835 0.1163
H5A H 0.3209 0.6988 0.1535
C8A C 0.22866(10) 0.31196(18) 0.08124(12)
H6A H 0.2716 0.2916 0.0725
H7A H 0.1953 0.2700 0.0481
H8A H 0.2263 0.2959 0.1326
C9A C 0.09989(10) 0.6037(2) -0.07056(12)
H9A H 0.1150 0.5903 -0.1167
H10A H 0.0893 0.6815 -0.0673
H11A H 0.0611 0.5596 -0.0698
C10A C 0.37261(9) 0.40940(16) 0.14864(10)
C11A C 0.40857(9) 0.45221(17) 0.09778(10)
C12A C 0.45420(9) 0.38720(18) 0.07335(11)
H12A H 0.4783 0.4175 0.0398
C13A C 0.46587(10) 0.27981(19) 0.09611(12)
C14A C 0.43244(10) 0.23966(18) 0.14795(11)
H13A H 0.4404 0.1667 0.1651
C15A C 0.38747(9) 0.30271(17) 0.17580(11)
C16A C 0.35653(10) 0.25316(18) 0.23536(12)
H14A H 0.3821 0.2725 0.2840
H15A H 0.3551 0.1734 0.2300
H16A H 0.3123 0.2814 0.2308
C17A C 0.40131(10) 0.57008(17) 0.07316(11)
H17A H 0.3553 0.5863 0.0545
H18A H 0.4258 0.5824 0.0339
H19A H 0.4181 0.6180 0.1151
C18A C 0.51291(13) 0.2092(2) 0.06453(15)
H20A H 0.4967 0.1989 0.0115
H21A H 0.5171 0.1378 0.0893
H22A H 0.5554 0.2451 0.0724
C19A C 0.31827(9) 0.50753(16) 0.25538(10)
C20A C 0.26014(9) 0.50924(17) 0.28140(11)
H23A H 0.2204 0.5004 0.2470
C21A C 0.25835(10) 0.52330(17) 0.35540(11)
H24A H 0.2181 0.5221 0.3715
C22A C 0.31559(10) 0.53909(17) 0.40549(11)
H25A H 0.3151 0.5482 0.4565
C23A C 0.37421(10) 0.54166(18) 0.38108(11)
H26A H 0.4134 0.5546 0.4156
C24A C 0.37642(9) 0.52564(16) 0.30734(11)
C25A C 0.43912(9) 0.52943(17) 0.28181(11)
H27A H 0.4592 0.4613 0.2756
C26A C 0.47000(8) 0.62006(17) 0.26672(10)
C27A C 0.45434(9) 0.73613(17) 0.27788(10)
C28A C 0.40888(9) 0.78933(19) 0.30969(11)
H28A H 0.3775 0.7489 0.3293
C29A C 0.40968(10) 0.90429(19) 0.31268(12)
H29A H 0.3790 0.9404 0.3359
C30A C 0.45272(10) 0.96660(19) 0.28357(12)
H30A H 0.4509 1.0442 0.2858
B1A B 0.31636(10) 0.47863(18) 0.17233(12)
loop_
_geom_bond_atom_site_label_1
_geom_bond_atom_site_label_2
_geom_bond_site_symmetry_1
_geom_bond_site_symmetry_2
C1 C2 1_555 1_555
C2 C3 1_555 1_555
C3 H1 1_555 1_555
C4 C3 1_555 1_555
C5 C4 1_555 1_555
H2 C5 1_555 1_555
C6 C1 1_555 1_555
C7 C6 1_555 1_555
H3 C7 1_555 1_555
H4 C7 1_555 1_555
H5 C7 1_555 1_555
C8 C2 1_555 1_555
H6 C8 1_555 1_555
H7 C8 1_555 1_555
H8 C8 1_555 1_555
C9 C4 1_555 1_555
H9 C9 1_555 1_555
H10 C9 1_555 1_555
H11 C9 1_555 1_555
C10 C11 1_555 1_555
C11 C12 1_555 1_555
C12 H12 1_555 1_555
C13 C12 1_555 1_555
C14 C13 1_555 1_555
H13 C14 1_555 1_555
C15 C10 1_555 1_555
C16 C15 1_555 1_555
H14 C16 1_555 1_555
H15 C16 1_555 1_555
H16 C16 1_555 1_555
C17 C11 1_555 1_555
H17 C17 1_555 1_555
H18 C17 1_555 1_555
H19 C17 1_555 1_555
C18 C13 1_555 1_555
H20 C18 1_555 1_555
H21 C18 1_555 1_555
H22 C18 1_555 1_555
C19 C20 1_555 1_555
C20 H23 1_555 1_555
C21 C20 1_555 1_555
H24 C21 1_555 1_555
C22 C21 1_555 1_555
H25 C22 1_555 1_555
C23 C22 1_555 1_555
H26 C23 1_555 1_555
C24 C19 1_555 1_555
C25 C24 1_555 1_555
H27 C25 1_555 1_555
C26 C25 1_555 1_555
C27 C26 1_555 1_555
C28 C27 1_555 1_555
H28 C28 1_555 1_555
C29 C28 1_555 1_555
H29 C29 1_555 1_555
C30 C29 1_555 1_555
H30 C30 1_555 1_555
C31 C30 1_555 1_555
C32 C27 1_555 1_555
B1 C1 1_555 1_555
C1A C2A 1_555 1_555
C2A C3A 1_555 1_555
C3A H1A 1_555 1_555
C4A C3A 1_555 1_555
C5A C4A 1_555 1_555
H2A C5A 1_555 1_555
C6A C1A 1_555 1_555
C7A C6A 1_555 1_555
H3A C7A 1_555 1_555
H4A C7A 1_555 1_555
H5A C7A 1_555 1_555
C8A C2A 1_555 1_555
H6A C8A 1_555 1_555
H7A C8A 1_555 1_555
H8A C8A 1_555 1_555
C9A C4A 1_555 1_555
H9A C9A 1_555 1_555
H10A C9A 1_555 1_555
H11A C9A 1_555 1_555
C10A C11A 1_555 1_555
C11A C12A 1_555 1_555
C12A H12A 1_555 1_555
C13A C12A 1_555 1_555
C14A C13A 1_555 1_555
H13A C14A 1_555 1_555
C15A C10A 1_555 1_555
C16A C15A 1_555 1_555
H14A C16A 1_555 1_555
H15A C16A 1_555 1_555
H16A C16A 1_555 1_555
C17A C11A 1_555 1_555
H17A C17A 1_555 1_555
H18A C17A 1_555 1_555
H19A C17A 1_555 1_555
C18A C13A 1_555 1_555
H20A C18A 1_555 1_555
H21A C18A 1_555 1_555
H22A C18A 1_555 1_555
C19A C20A 1_555 1_555
C20A H23A 1_555 1_555
C21A C20A 1_555 1_555
H24A C21A 1_555 1_555
C22A C21A 1_555 1_555
H25A C22A 1_555 1_555
C23A C22A 1_555 1_555
H26A C23A 1_555 1_555
C24A C19A 1_555 1_555
C25A C24A 1_555 1_555
H27A C25A 1_555 1_555
C26A C26 1_555 1_555
C27A C32 1_555 1_555
C28A C27A 1_555 1_555
H28A C28A 1_555 1_555
C29A C28A 1_555 1_555
H29A C29A 1_555 1_555
C30A C31 1_555 1_555
H30A C30A 1_555 1_555
B1A C1A 1_555 1_555
C5 C6 1_555 1_555
C10 B1 1_555 1_555
C14 C15 1_555 1_555
C19 B1 1_555 1_555
C23 C24 1_555 1_555
C31 C32 1_555 1_555
C5A C6A 1_555 1_555
C10A B1A 1_555 1_555
C14A C15A 1_555 1_555
C19A B1A 1_555 1_555
C23A C24A 1_555 1_555
C25A C26A 1_555 1_555
C26A C27A 1_555 1_555
C29A C30A 1_555 1_555

#END
