
#######################################################################
#
#                 Cambridge Crystallographic Data Centre
#                                CCDC 
#
#######################################################################
#
# If this CIF has been generated from an entry in the Cambridge 
# Structural Database, then it will include bibliographic, chemical, 
# crystal, experimental, refinement or atomic coordinate data resulting 
# from the CCDC's data processing and validation procedures.
#
#######################################################################

data_NILDEU
_chemical_formula_moiety         'C62 H58 B2'
_chemical_name_systematic        
{naphthalene-1,8-diylbis[(ethyne-2,1-diyl)-2,1-phenylene]}bis[bis(2,4,6-trimethylphenyl)borane]
_symmetry_cell_setting           monoclinic
_symmetry_space_group_name_H-M   'P 21/n'
_symmetry_Int_Tables_number      14
_space_group_name_Hall           '-P 2yn'
loop_
_symmetry_equiv_pos_site_id
_symmetry_equiv_pos_as_xyz
1 x,y,z
2 1/2-x,1/2+y,1/2-z
3 -x,-y,-z
4 1/2+x,1/2-y,1/2+z
_cell_length_a                   14.1665(9)
_cell_length_b                   14.8565(9)
_cell_length_c                   22.7151(13)
_cell_angle_alpha                90
_cell_angle_beta                 99.931(3)
_cell_angle_gamma                90
_cell_volume                     4709.09
_exptl_crystal_colour            colorless
_exptl_crystal_description       block
_cell_formula_units_Z            4
loop_
_atom_site_label
_atom_site_type_symbol
_atom_site_fract_x
_atom_site_fract_y
_atom_site_fract_z
C1 C 0.44016(18) 0.57867(18) 0.73880(10)
C2 C 0.50204(17) 0.65359(16) 0.75620(9)
C3 C 0.46544(19) 0.73988(17) 0.74419(10)
H1 H 0.4005 0.7473 0.7256
C4 C 0.5224(2) 0.81486(18) 0.75895(11)
H2 H 0.4960 0.8734 0.7519
C5 C 0.6174(2) 0.80454(17) 0.78379(11)
H3 H 0.6568 0.8559 0.7940
C6 C 0.59953(17) 0.64108(16) 0.78245(10)
C7 C 0.65522(18) 0.71868(16) 0.79388(10)
H4 H 0.7217 0.7125 0.8092
C8 C 0.75369(17) 0.54083(16) 0.78813(10)
C9 C 0.76983(17) 0.54607(16) 0.72891(11)
C10 C 0.86259(19) 0.55276(17) 0.71710(12)
H5 H 0.8722 0.5554 0.6768
C11 C 0.94122(19) 0.55575(17) 0.76237(13)
C12 C 0.92568(18) 0.54826(17) 0.82052(13)
H6 H 0.9792 0.5488 0.8521
C13 C 0.83383(18) 0.53989(16) 0.83436(11)
C14 C 0.8226(2) 0.53252(19) 0.89899(11)
H7 H 0.7766 0.5777 0.9077
H8 H 0.8847 0.5428 0.9246
H9 H 0.7993 0.4723 0.9066
C15 C 0.6877(2) 0.5423(2) 0.67726(11)
H10 H 0.6288 0.5262 0.6920
H11 H 0.7010 0.4969 0.6485
H12 H 0.6796 0.6012 0.6577
C16 C 1.0417(2) 0.5674(2) 0.74844(16)
H13 H 1.0526 0.5228 0.7185
H14 H 1.0887 0.5587 0.7850
H15 H 1.0484 0.6280 0.7328
C17 C 0.59928(16) 0.47278(16) 0.83481(10)
C18 C 0.54579(17) 0.49466(16) 0.88035(10)
C19 C 0.50666(18) 0.42630(17) 0.91057(11)
H16 H 0.4715 0.4423 0.9410
C20 C 0.51686(17) 0.33641(18) 0.89814(11)
C21 C 0.56752(17) 0.31496(17) 0.85350(11)
H17 H 0.5747 0.2534 0.8439
C22 C 0.60843(17) 0.37994(17) 0.82207(11)
C23 C 0.6609(2) 0.34783(19) 0.77348(13)
H18 H 0.6337 0.3768 0.7356
H19 H 0.6543 0.2824 0.7693
H20 H 0.7290 0.3635 0.7841
C24 C 0.5310(2) 0.58997(18) 0.90002(12)
H21 H 0.5921 0.6224 0.9055
H22 H 0.5067 0.5890 0.9379
H23 H 0.4846 0.6204 0.8695
C25 C 0.4739(2) 0.2646(2) 0.93229(14)
H24 H 0.5245 0.2365 0.9613
H25 H 0.4430 0.2188 0.9044
H26 H 0.4262 0.2917 0.9534
C26 C 0.38279(18) 0.52125(19) 0.71949(10)
C27 C 0.32414(17) 0.44366(17) 0.70342(10)
C28 C 0.35426(19) 0.36383(18) 0.73193(11)
H27 H 0.4131 0.3624 0.7593
C29 C 0.2998(2) 0.28514(19) 0.72129(12)
H28 H 0.3217 0.2311 0.7416
C30 C 0.2160(2) 0.28564(18) 0.68219(11)
H29 H 0.1793 0.2319 0.6756
C31 C 0.18225(17) 0.36499(17) 0.65105(10)
C32 C 0.09487(19) 0.36399(19) 0.61031(11)
H30 H 0.0582 0.3102 0.6048
C33 C 0.06281(19) 0.43857(19) 0.57908(12)
H31 H 0.0042 0.4368 0.5516
C34 C 0.11555(18) 0.51807(18) 0.58713(11)
H32 H 0.0921 0.5697 0.5646
C35 C 0.20066(16) 0.52437(16) 0.62676(10)
C36 C 0.23655(17) 0.44657(16) 0.66083(10)
C37 C 0.24834(17) 0.61024(19) 0.62855(10)
C38 C 0.27425(17) 0.68464(18) 0.61750(10)
C39 C 0.30065(16) 0.77574(16) 0.60550(10)
C40 C 0.25967(18) 0.84537(18) 0.63388(11)
H33 H 0.2176 0.8313 0.6609
C41 C 0.2794(2) 0.93444(18) 0.62322(12)
H34 H 0.2498 0.9811 0.6421
C42 C 0.34177(19) 0.95539(18) 0.58528(12)
H35 H 0.3554 1.0165 0.5778
C43 C 0.38464(17) 0.88732(17) 0.55808(10)
H36 H 0.4292 0.9030 0.5329
C44 C 0.36523(16) 0.79602(16) 0.56602(10)
C45 C 0.50949(17) 0.74796(16) 0.50914(10)
C46 C 0.58812(17) 0.77545(16) 0.55319(10)
C47 C 0.67377(18) 0.80139(17) 0.53664(11)
H37 H 0.7258 0.8178 0.5669
C48 C 0.68622(18) 0.80423(17) 0.47767(11)
C49 C 0.61024(18) 0.77631(16) 0.43481(11)
H38 H 0.6176 0.7770 0.3940
C50 C 0.52345(17) 0.74730(16) 0.44908(10)
C51 C 0.5833(2) 0.7764(2) 0.61914(10)
H39 H 0.5613 0.8356 0.6302
H40 H 0.6471 0.7642 0.6422
H41 H 0.5384 0.7301 0.6278
C52 C 0.78064(19) 0.8340(2) 0.46151(13)
H42 H 0.8072 0.8834 0.4878
H43 H 0.7703 0.8545 0.4199
H44 H 0.8256 0.7833 0.4663
C53 C 0.44632(19) 0.71929(18) 0.39775(10)
H45 H 0.4115 0.6673 0.4098
H46 H 0.4758 0.7030 0.3632
H47 H 0.4017 0.7694 0.3870
C54 C 0.35051(17) 0.63683(16) 0.50713(9)
C55 C 0.38420(17) 0.55090(16) 0.52739(10)
C56 C 0.32869(18) 0.47501(17) 0.50993(11)
H48 H 0.3514 0.4178 0.5249
C57 C 0.24179(18) 0.47986(17) 0.47172(10)
C58 C 0.20881(18) 0.56439(17) 0.45186(10)
H49 H 0.1497 0.5691 0.4250
C59 C 0.25999(17) 0.64267(16) 0.47016(10)
C60 C 0.21547(18) 0.73171(17) 0.45009(11)
H50 H 0.1953 0.7623 0.4841
H51 H 0.1596 0.7219 0.4187
H52 H 0.2624 0.7690 0.4343
C61 C 0.47561(18) 0.54161(18) 0.57166(11)
H53 H 0.5255 0.5790 0.5590
H54 H 0.4961 0.4785 0.5737
H55 H 0.4649 0.5613 0.6112
C62 C 0.1833(2) 0.39711(18) 0.45367(12)
H56 H 0.2130 0.3624 0.4250
H57 H 0.1183 0.4147 0.4351
H58 H 0.1805 0.3602 0.4891
B1 B 0.6481(2) 0.54783(19) 0.80141(11)
B2 B 0.4100(2) 0.72451(19) 0.52797(11)
loop_
_geom_bond_atom_site_label_1
_geom_bond_atom_site_label_2
_geom_bond_site_symmetry_1
_geom_bond_site_symmetry_2
C1 C2 1_555 1_555
C2 C3 1_555 1_555
C3 H1 1_555 1_555
C4 C3 1_555 1_555
H2 C4 1_555 1_555
C5 C4 1_555 1_555
H3 C5 1_555 1_555
C6 C2 1_555 1_555
C7 C5 1_555 1_555
H4 C7 1_555 1_555
C8 C9 1_555 1_555
C9 C10 1_555 1_555
C10 H5 1_555 1_555
C11 C10 1_555 1_555
C12 C11 1_555 1_555
H6 C12 1_555 1_555
C13 C8 1_555 1_555
C14 C13 1_555 1_555
H7 C14 1_555 1_555
H8 C14 1_555 1_555
H9 C14 1_555 1_555
C15 C9 1_555 1_555
H10 C15 1_555 1_555
H11 C15 1_555 1_555
H12 C15 1_555 1_555
C16 C11 1_555 1_555
H13 C16 1_555 1_555
H14 C16 1_555 1_555
H15 C16 1_555 1_555
C17 C18 1_555 1_555
C18 C19 1_555 1_555
C19 H16 1_555 1_555
C20 C19 1_555 1_555
C21 C20 1_555 1_555
H17 C21 1_555 1_555
C22 C17 1_555 1_555
C23 C22 1_555 1_555
H18 C23 1_555 1_555
H19 C23 1_555 1_555
H20 C23 1_555 1_555
C24 C18 1_555 1_555
H21 C24 1_555 1_555
H22 C24 1_555 1_555
H23 C24 1_555 1_555
C25 C20 1_555 1_555
H24 C25 1_555 1_555
H25 C25 1_555 1_555
H26 C25 1_555 1_555
C26 C1 1_555 1_555
C27 C26 1_555 1_555
C28 C27 1_555 1_555
H27 C28 1_555 1_555
C29 C28 1_555 1_555
H28 C29 1_555 1_555
C30 C29 1_555 1_555
H29 C30 1_555 1_555
C31 C30 1_555 1_555
C32 C31 1_555 1_555
H30 C32 1_555 1_555
C33 C32 1_555 1_555
H31 C33 1_555 1_555
C34 C33 1_555 1_555
H32 C34 1_555 1_555
C35 C34 1_555 1_555
C36 C27 1_555 1_555
C37 C35 1_555 1_555
C38 C37 1_555 1_555
C39 C38 1_555 1_555
C40 C39 1_555 1_555
H33 C40 1_555 1_555
C41 C40 1_555 1_555
H34 C41 1_555 1_555
C42 C41 1_555 1_555
H35 C42 1_555 1_555
C43 C42 1_555 1_555
H36 C43 1_555 1_555
C44 C39 1_555 1_555
C45 C46 1_555 1_555
C46 C47 1_555 1_555
C47 H37 1_555 1_555
C48 C47 1_555 1_555
C49 C48 1_555 1_555
H38 C49 1_555 1_555
C50 C45 1_555 1_555
C51 C46 1_555 1_555
H39 C51 1_555 1_555
H40 C51 1_555 1_555
H41 C51 1_555 1_555
C52 C48 1_555 1_555
H42 C52 1_555 1_555
H43 C52 1_555 1_555
H44 C52 1_555 1_555
C53 C50 1_555 1_555
H45 C53 1_555 1_555
H46 C53 1_555 1_555
H47 C53 1_555 1_555
C54 C55 1_555 1_555
C55 C56 1_555 1_555
C56 H48 1_555 1_555
C57 C56 1_555 1_555
C58 C57 1_555 1_555
H49 C58 1_555 1_555
C59 C54 1_555 1_555
C60 C59 1_555 1_555
H50 C60 1_555 1_555
H51 C60 1_555 1_555
H52 C60 1_555 1_555
C61 C55 1_555 1_555
H53 C61 1_555 1_555
H54 C61 1_555 1_555
H55 C61 1_555 1_555
C62 C57 1_555 1_555
H56 C62 1_555 1_555
H57 C62 1_555 1_555
H58 C62 1_555 1_555
B1 C6 1_555 1_555
B2 C44 1_555 1_555
C6 C7 1_555 1_555
C8 B1 1_555 1_555
C12 C13 1_555 1_555
C17 B1 1_555 1_555
C21 C22 1_555 1_555
C31 C36 1_555 1_555
C35 C36 1_555 1_555
C43 C44 1_555 1_555
C45 B2 1_555 1_555
C49 C50 1_555 1_555
C54 B2 1_555 1_555
C58 C59 1_555 1_555

#END
