
#######################################################################
#
#                 Cambridge Crystallographic Data Centre
#                                CCDC 
#
#######################################################################
#
# If this CIF has been generated from an entry in the Cambridge 
# Structural Database, then it will include bibliographic, chemical, 
# crystal, experimental, refinement or atomic coordinate data resulting 
# from the CCDC's data processing and validation procedures.
#
#######################################################################

data_NILGEX
_chemical_formula_moiety         'C22 H19 N1 O3 S2'
_chemical_name_systematic        
N-[(4-methylphenyl)sulfonyl]-2-phenyl-3-(phenylsulfanyl)prop-2-enamide
_symmetry_cell_setting           monoclinic
_symmetry_space_group_name_H-M   'P 21/c'
_symmetry_Int_Tables_number      14
_space_group_name_Hall           '-P 2ybc'
loop_
_symmetry_equiv_pos_site_id
_symmetry_equiv_pos_as_xyz
1 x,y,z
2 -x,1/2+y,1/2-z
3 -x,-y,-z
4 x,1/2-y,1/2+z
_cell_length_a                   10.5107(7)
_cell_length_b                   24.7612(12)
_cell_length_c                   8.1138(7)
_cell_angle_alpha                90
_cell_angle_beta                 107.871(9)
_cell_angle_gamma                90
_cell_volume                     2009.79
_exptl_crystal_description       block
_cell_formula_units_Z            4
loop_
_atom_site_label
_atom_site_type_symbol
_atom_site_fract_x
_atom_site_fract_y
_atom_site_fract_z
C1 C 0.83856(16) 0.58029(7) 0.3508(2)
H1 H 0.8771 0.6051 0.4377
C2 C 0.70432(15) 0.58482(6) 0.2554(2)
C3 C 0.64677(15) 0.54768(8) 0.1254(2)
H2 H 0.5570 0.5507 0.0616
C4 C 0.7235(2) 0.50601(8) 0.0908(3)
H3 H 0.6850 0.4812 0.0039
C5 C 0.8577(2) 0.50148(7) 0.1862(4)
H4 H 0.9090 0.4736 0.1631
C6 C 0.91525(14) 0.53862(8) 0.3162(3)
H5 H 1.0051 0.5356 0.3800
S1 S 0.31731(6) 0.55606(2) 0.37913(8)
S2 S 0.59435(7) 0.74165(3) 0.31918(10)
O1 O 0.33959(19) 0.50239(7) 0.4485(3)
O2 O 0.40819(19) 0.66005(7) 0.2845(3)
O3 O 0.21252(18) 0.56477(8) 0.2216(3)
N1 N 0.4628(2) 0.57196(9) 0.3524(3)
C7 C 0.2966(2) 0.60105(10) 0.5358(3)
C8 C 0.6240(2) 0.63157(10) 0.2849(3)
C9 C 0.6729(3) 0.68204(10) 0.2935(3)
H6 H 0.7587 0.6854 0.2846
C10 C 0.4895(2) 0.62377(10) 0.3039(3)
C11 C 0.7331(3) 0.78658(11) 0.3681(4)
C12 C 0.1843(3) 0.63358(11) 0.4937(4)
H7 H 0.1202 0.6311 0.3856
C13 C 0.2661(3) 0.67595(11) 0.7760(4)
C14 C 0.3930(3) 0.60434(12) 0.6963(4)
H8 H 0.4669 0.5816 0.7241
C15 C 0.1696(3) 0.66992(12) 0.6160(4)
H9 H 0.0927 0.6910 0.5903
C16 C 0.8508(3) 0.77561(12) 0.4991(4)
H10 H 0.8610 0.7432 0.5596
C17 C 0.3774(3) 0.64208(13) 0.8144(4)
H11 H 0.4424 0.6449 0.9217
C18 C 0.7179(3) 0.83512(12) 0.2785(4)
H12 H 0.6401 0.8422 0.1887
C19 C 0.2530(4) 0.71912(14) 0.9000(5)
H13 H 0.2970 0.7514 0.8804
H14 H 0.2936 0.7070 1.0168
H15 H 0.1601 0.7266 0.8821
C20 C 0.9526(4) 0.81337(14) 0.5388(5)
H16 H 1.0325 0.8057 0.6244
C21 C 0.8207(4) 0.87305(13) 0.3247(6)
H17 H 0.8100 0.9061 0.2677
C22 C 0.9373(4) 0.86213(15) 0.4533(6)
H18 H 1.0057 0.8875 0.4826
loop_
_geom_bond_atom_site_label_1
_geom_bond_atom_site_label_2
_geom_bond_site_symmetry_1
_geom_bond_site_symmetry_2
C1 H1 1_555 1_555
C2 C1 1_555 1_555
C3 C2 1_555 1_555
H2 C3 1_555 1_555
C4 C3 1_555 1_555
H3 C4 1_555 1_555
C5 C4 1_555 1_555
H4 C5 1_555 1_555
C6 C1 1_555 1_555
H5 C6 1_555 1_555
S1 O1 1_555 1_555
S2 C9 1_555 1_555
O2 C10 1_555 1_555
O3 S1 1_555 1_555
N1 S1 1_555 1_555
C7 S1 1_555 1_555
C8 C2 1_555 1_555
C9 C8 1_555 1_555
H6 C9 1_555 1_555
C10 N1 1_555 1_555
C11 S2 1_555 1_555
C12 C7 1_555 1_555
H7 C12 1_555 1_555
C13 C15 1_555 1_555
C14 C7 1_555 1_555
H8 C14 1_555 1_555
C15 C12 1_555 1_555
H9 C15 1_555 1_555
C16 C11 1_555 1_555
H10 C16 1_555 1_555
C17 C13 1_555 1_555
H11 C17 1_555 1_555
C18 C11 1_555 1_555
H12 C18 1_555 1_555
C19 C13 1_555 1_555
H13 C19 1_555 1_555
H14 C19 1_555 1_555
H15 C19 1_555 1_555
C20 C16 1_555 1_555
H16 C20 1_555 1_555
C21 C18 1_555 1_555
H17 C21 1_555 1_555
C22 C20 1_555 1_555
H18 C22 1_555 1_555
C5 C6 1_555 1_555
C8 C10 1_555 1_555
C14 C17 1_555 1_555
C21 C22 1_555 1_555

#END
