
#######################################################################
#
#                 Cambridge Crystallographic Data Centre
#                                CCDC 
#
#######################################################################
#
# If this CIF has been generated from an entry in the Cambridge 
# Structural Database, then it will include bibliographic, chemical, 
# crystal, experimental, refinement or atomic coordinate data resulting 
# from the CCDC's data processing and validation procedures.
#
#######################################################################

data_NILLIG
_chemical_formula_moiety         'C21 H31 N3 O3'
_chemical_name_systematic        
'methyl 3a-[(2,2,6,6-tetramethylpiperidin-1-yl)oxy]-3,3a,8,8a-tetrahydropyrrolo[2,3-b]indole-1(2H)-carboxylate'
_symmetry_cell_setting           orthorhombic
_symmetry_space_group_name_H-M   'P 21 21 2'
_symmetry_Int_Tables_number      18
_space_group_name_Hall           'P 2 2ab'
loop_
_symmetry_equiv_pos_site_id
_symmetry_equiv_pos_as_xyz
1 x,y,z
2 -x,-y,z
3 1/2-x,1/2+y,-z
4 1/2+x,1/2-y,-z
_cell_length_a                   19.9729(4)
_cell_length_b                   10.88812(17)
_cell_length_c                   9.57079(13)
_cell_angle_alpha                90
_cell_angle_beta                 90
_cell_angle_gamma                90
_cell_volume                     2081.33
_exptl_crystal_colour            colorless
_exptl_crystal_description       block
_cell_formula_units_Z            4
loop_
_atom_site_label
_atom_site_type_symbol
_atom_site_fract_x
_atom_site_fract_y
_atom_site_fract_z
O1 O 0.64527(11) 0.20797(19) 0.3091(2)
O2 O 0.45293(12) 0.1798(2) 0.7364(3)
O3 O 0.44915(13) 0.3544(2) 0.6099(4)
N1 N 0.61349(12) 0.3013(2) 0.2224(3)
N2 N 0.53873(14) 0.2282(2) 0.5995(3)
N3 N 0.61173(18) 0.4039(2) 0.5848(4)
H1 H 0.5920 0.4703 0.6143
C1 C 0.47832(16) 0.2621(3) 0.6458(4)
C2 C 0.69616(16) 0.2713(3) 0.5338(3)
C3 C 0.67788(19) 0.3782(3) 0.6048(3)
C4 C 0.61777(16) 0.0924(3) 0.5158(3)
H2 H 0.5915 0.0455 0.4478
H3 H 0.6582 0.0459 0.5397
C5 C 0.76017(17) 0.2254(3) 0.5426(3)
H4 H 0.7717 0.1523 0.4961
C6 C 0.63576(14) 0.2200(3) 0.4584(3)
C7 C 0.57855(17) 0.3071(3) 0.5085(3)
H5 H 0.5520 0.3394 0.4294
C8 C 0.70390(19) 0.4474(3) 0.2610(4)
H6 H 0.6710 0.4894 0.3183
H7 H 0.7325 0.5075 0.2158
H8 H 0.7309 0.3941 0.3195
C9 C 0.66809(15) 0.3706(3) 0.1499(3)
C10 C 0.57675(18) 0.1204(3) 0.6451(4)
H9 H 0.5471 0.0520 0.6693
H10 H 0.6054 0.1396 0.7253
C11 C 0.63418(19) 0.4612(4) 0.0491(4)
H11 H 0.6095 0.5226 0.1036
H12 H 0.6688 0.5044 -0.0043
C12 C 0.72049(18) 0.2932(4) 0.0742(4)
H13 H 0.7340 0.2254 0.1336
H14 H 0.7592 0.3437 0.0528
H15 H 0.7016 0.2613 -0.0118
C13 C 0.7256(3) 0.4404(4) 0.6839(4)
H16 H 0.7142 0.5127 0.7322
C14 C 0.56380(18) 0.2355(4) 0.1324(4)
C15 C 0.7896(2) 0.3939(4) 0.6900(4)
H17 H 0.8220 0.4358 0.7431
C16 C 0.5867(2) 0.4000(4) -0.0512(4)
H18 H 0.5650 0.4619 -0.1102
H19 H 0.6113 0.3433 -0.1119
C17 C 0.38647(19) 0.2050(4) 0.7848(5)
H20 H 0.3561 0.2083 0.7058
H21 H 0.3859 0.2832 0.8333
H22 H 0.3724 0.1405 0.8482
C18 C 0.5906(2) 0.1229(4) 0.0536(4)
H23 H 0.6217 0.1495 -0.0183
H24 H 0.5536 0.0793 0.0107
H25 H 0.6135 0.0689 0.1185
C19 C 0.5060(2) 0.1925(5) 0.2255(5)
H26 H 0.5225 0.1329 0.2926
H27 H 0.4716 0.1549 0.1681
H28 H 0.4873 0.2623 0.2748
C20 C 0.8077(2) 0.2884(4) 0.6210(4)
H29 H 0.8519 0.2589 0.6267
C21 C 0.53459(19) 0.3308(4) 0.0307(5)
H30 H 0.5047 0.2888 -0.0349
H31 H 0.5076 0.3898 0.0838
loop_
_geom_bond_atom_site_label_1
_geom_bond_atom_site_label_2
_geom_bond_site_symmetry_1
_geom_bond_site_symmetry_2
O1 N1 1_555 1_555
O2 C1 1_555 1_555
O3 C1 1_555 1_555
N1 C9 1_555 1_555
N2 C1 1_555 1_555
N3 H1 1_555 1_555
C2 C3 1_555 1_555
C3 N3 1_555 1_555
C4 H2 1_555 1_555
H3 C4 1_555 1_555
C5 C2 1_555 1_555
H4 C5 1_555 1_555
C6 O1 1_555 1_555
C7 N2 1_555 1_555
H5 C7 1_555 1_555
C8 H6 1_555 1_555
H7 C8 1_555 1_555
H8 C8 1_555 1_555
C9 C8 1_555 1_555
C10 N2 1_555 1_555
H9 C10 1_555 1_555
H10 C10 1_555 1_555
C11 C9 1_555 1_555
H11 C11 1_555 1_555
H12 C11 1_555 1_555
C12 C9 1_555 1_555
H13 C12 1_555 1_555
H14 C12 1_555 1_555
H15 C12 1_555 1_555
C13 C3 1_555 1_555
H16 C13 1_555 1_555
C14 N1 1_555 1_555
C15 C13 1_555 1_555
H17 C15 1_555 1_555
C16 C11 1_555 1_555
H18 C16 1_555 1_555
H19 C16 1_555 1_555
C17 O2 1_555 1_555
H20 C17 1_555 1_555
H21 C17 1_555 1_555
H22 C17 1_555 1_555
C18 C14 1_555 1_555
H23 C18 1_555 1_555
H24 C18 1_555 1_555
H25 C18 1_555 1_555
C19 C14 1_555 1_555
H26 C19 1_555 1_555
H27 C19 1_555 1_555
H28 C19 1_555 1_555
C20 C5 1_555 1_555
H29 C20 1_555 1_555
C21 C14 1_555 1_555
H30 C21 1_555 1_555
H31 C21 1_555 1_555
N3 C7 1_555 1_555
C2 C6 1_555 1_555
C4 C6 1_555 1_555
C4 C10 1_555 1_555
C6 C7 1_555 1_555
C15 C20 1_555 1_555
C16 C21 1_555 1_555

#END
