
#######################################################################
#
#                 Cambridge Crystallographic Data Centre
#                                CCDC 
#
#######################################################################
#
# If this CIF has been generated from an entry in the Cambridge 
# Structural Database, then it will include bibliographic, chemical, 
# crystal, experimental, refinement or atomic coordinate data resulting 
# from the CCDC's data processing and validation procedures.
#
#######################################################################

data_NILNUU
_chemical_formula_moiety         'C19 H14 N2'
_chemical_name_systematic        2-phenyl-1-(pyridin-2-yl)-1H-indole
_symmetry_cell_setting           monoclinic
_symmetry_space_group_name_H-M   'P 21/c'
_symmetry_Int_Tables_number      14
_space_group_name_Hall           '-P 2ybc'
loop_
_symmetry_equiv_pos_site_id
_symmetry_equiv_pos_as_xyz
1 x,y,z
2 -x,1/2+y,1/2-z
3 -x,-y,-z
4 x,1/2-y,1/2+z
_cell_length_a                   12.6225(7)
_cell_length_b                   11.0261(4)
_cell_length_c                   11.4992(7)
_cell_angle_alpha                90
_cell_angle_beta                 114.099(7)
_cell_angle_gamma                90
_cell_volume                     1460.93
_exptl_crystal_colour            colorless
_exptl_crystal_description       prism
_cell_formula_units_Z            4
loop_
_atom_site_label
_atom_site_type_symbol
_atom_site_fract_x
_atom_site_fract_y
_atom_site_fract_z
C1 C 0.34088(18) 1.10582(19) 0.65944(19)
H1 H 0.4064 1.1547 0.6948
C2 C 0.2714(2) 1.0864(2) 0.7231(2)
H2 H 0.2893 1.1238 0.8014
C3 C 0.1747(2) 1.0119(2) 0.6726(2)
H3 H 0.1288 1.0007 0.7177
C4 C 0.14492(17) 0.95398(18) 0.55720(18)
H4 H 0.0805 0.9034 0.5243
C5 C 0.21472(14) 0.97411(15) 0.49219(16)
C6 C 0.31216(15) 1.05119(16) 0.54067(17)
C7 C 0.35984(15) 1.05450(16) 0.44868(19)
H5 H 0.4247 1.0990 0.4554
C8 C 0.29585(14) 0.98229(15) 0.34911(17)
C9 C 0.31904(14) 0.95042(18) 0.23796(17)
C10 C 0.35006(19) 1.0419(2) 0.1752(2)
H6 H 0.3504 1.1222 0.2002
C11 C 0.3803(2) 1.0147(3) 0.0764(3)
H7 H 0.4020 1.0768 0.0359
C12 C 0.3790(2) 0.8988(4) 0.0369(2)
H8 H 0.3977 0.8817 -0.0317
C13 C 0.35008(19) 0.8067(3) 0.0986(2)
H9 H 0.3512 0.7268 0.0732
C14 C 0.31918(16) 0.8320(2) 0.19891(19)
H10 H 0.2986 0.7694 0.2397
C15 C 0.10583(13) 0.87228(14) 0.28277(15)
C16 C 0.06245(15) 0.76831(15) 0.31341(17)
H11 H 0.0994 0.7324 0.3931
C17 C -0.03741(17) 0.71912(17) 0.2225(2)
H12 H -0.0702 0.6500 0.2404
C18 C -0.08791(16) 0.77350(18) 0.10491(19)
H13 H -0.1551 0.7419 0.0418
C19 C -0.03688(15) 0.87513(17) 0.08305(17)
H14 H -0.0704 0.9104 0.0027
N1 N 0.20634(11) 0.93047(12) 0.37462(13)
N2 N 0.05843(11) 0.92718(12) 0.17016(13)
loop_
_geom_bond_atom_site_label_1
_geom_bond_atom_site_label_2
_geom_bond_site_symmetry_1
_geom_bond_site_symmetry_2
C1 H1 1_555 1_555
C2 C1 1_555 1_555
H2 C2 1_555 1_555
C3 C2 1_555 1_555
H3 C3 1_555 1_555
C4 C3 1_555 1_555
H4 C4 1_555 1_555
C5 C4 1_555 1_555
C6 C1 1_555 1_555
C7 C6 1_555 1_555
H5 C7 1_555 1_555
C8 C7 1_555 1_555
C9 C8 1_555 1_555
C10 C9 1_555 1_555
H6 C10 1_555 1_555
C11 C10 1_555 1_555
H7 C11 1_555 1_555
C12 C11 1_555 1_555
H8 C12 1_555 1_555
C13 C12 1_555 1_555
H9 C13 1_555 1_555
C14 C9 1_555 1_555
H10 C14 1_555 1_555
C15 C16 1_555 1_555
C16 H11 1_555 1_555
C17 C16 1_555 1_555
H12 C17 1_555 1_555
C18 C17 1_555 1_555
H13 C18 1_555 1_555
C19 C18 1_555 1_555
H14 C19 1_555 1_555
N1 C5 1_555 1_555
N2 C15 1_555 1_555
C5 C6 1_555 1_555
C8 N1 1_555 1_555
C13 C14 1_555 1_555
C15 N1 1_555 1_555
C19 N2 1_555 1_555

#END
