
#######################################################################
#
#                 Cambridge Crystallographic Data Centre
#                                CCDC 
#
#######################################################################
#
# If this CIF has been generated from an entry in the Cambridge 
# Structural Database, then it will include bibliographic, chemical, 
# crystal, experimental, refinement or atomic coordinate data resulting 
# from the CCDC's data processing and validation procedures.
#
#######################################################################

data_NILNEE
_chemical_formula_moiety         'C19 H17 N1 O4'
_chemical_name_systematic        
"methyl (2S,4'S,5'R)-3-oxo-4'-phenyl-3H-spiro[1-benzofuran-2,3'-pyrrolidine]-5'-carboxylate"
_symmetry_cell_setting           orthorhombic
_symmetry_space_group_name_H-M   'P 21 21 21'
_symmetry_Int_Tables_number      19
_space_group_name_Hall           'P 2ac 2ab'
loop_
_symmetry_equiv_pos_site_id
_symmetry_equiv_pos_as_xyz
1 x,y,z
2 1/2-x,-y,1/2+z
3 1/2+x,1/2-y,-z
4 -x,1/2+y,1/2-z
_cell_length_a                   6.50908(6)
_cell_length_b                   8.44660(10)
_cell_length_c                   29.2131(3)
_cell_angle_alpha                90
_cell_angle_beta                 90
_cell_angle_gamma                90
_cell_volume                     1606.12
_exptl_crystal_colour            colorless
_exptl_crystal_description       block
_cell_formula_units_Z            4
_exptl_crystal_recrystallization_method 2-propanol/hexane
loop_
_atom_site_label
_atom_site_type_symbol
_atom_site_fract_x
_atom_site_fract_y
_atom_site_fract_z
O1 O -0.3305(3) -0.8623(2) -0.05031(7)
O2 O -0.7573(3) -1.1068(2) -0.07508(7)
O3 O -1.1385(4) -0.6294(3) -0.15260(8)
C1 C -0.6206(5) -1.3748(4) -0.07210(10)
H1 H -0.7459 -1.4220 -0.0790
C2 C -0.5988(5) -1.2116(3) -0.06874(9)
C3 C -0.7473(5) -1.1022(4) -0.17644(11)
H2 H -0.8782 -1.1149 -0.1643
N1 N -0.9213(4) -0.7396(3) -0.07431(9)
C4 C -0.2552(6) -1.3941(4) -0.05386(11)
H3 H -0.1408 -1.4580 -0.0491
C5 C -0.6847(5) -0.8713(3) -0.12195(9)
H4 H -0.5912 -0.7804 -0.1224
O4 O -0.8130(4) -0.6064(3) -0.17731(9)
C6 C -0.4270(5) -0.9636(4) -0.17937(10)
H5 H -0.3412 -0.8831 -0.1691
C7 C -0.6215(5) -0.9801(3) -0.16065(9)
C8 C -0.9407(5) -0.6716(3) -0.15432(10)
C9 C -0.3586(6) -1.0662(4) -0.21339(10)
H6 H -0.2281 -1.0535 -0.2258
C10 C -0.6783(6) -1.2050(4) -0.21025(11)
H7 H -0.7630 -1.2863 -0.2205
C11 C -0.4139(5) -1.1410(3) -0.05824(9)
C12 C -0.6684(5) -0.9486(3) -0.07356(10)
C13 C -0.4842(6) -1.1869(4) -0.22878(11)
H8 H -0.4384 -1.2556 -0.2515
C14 C -0.9030(5) -0.8063(3) -0.12098(10)
H9 H -1.0032 -0.8914 -0.1256
C15 C -0.4486(5) -0.9712(3) -0.05875(9)
C16 C -0.4447(6) -1.4629(4) -0.06456(11)
H10 H -0.4527 -1.5725 -0.0667
C17 C -0.7976(5) -0.8397(4) -0.04339(10)
H11 H -0.8864 -0.9016 -0.0236
H12 H -0.7094 -0.7745 -0.0244
C18 C -0.2375(5) -1.2317(4) -0.05030(10)
H13 H -0.1129 -1.1843 -0.0429
C19 C -1.1971(6) -0.4909(4) -0.17883(12)
H14 H -1.1573 -0.5051 -0.2102
H15 H -1.1296 -0.3992 -0.1665
H16 H -1.3432 -0.4768 -0.1771
H17 H -1.052(6) -0.742(4) -0.0672(12)
loop_
_geom_bond_atom_site_label_1
_geom_bond_atom_site_label_2
_geom_bond_site_symmetry_1
_geom_bond_site_symmetry_2
O1 C15 1_555 1_555
O2 C2 1_555 1_555
O3 C8 1_555 1_555
C1 H1 1_555 1_555
C2 C1 1_555 1_555
C3 H2 1_555 1_555
N1 C14 1_555 1_555
C4 H3 1_555 1_555
C5 H4 1_555 1_555
O4 C8 1_555 1_555
C6 H5 1_555 1_555
C7 C3 1_555 1_555
C8 C14 1_555 1_555
C9 C6 1_555 1_555
H6 C9 1_555 1_555
C10 C3 1_555 1_555
H7 C10 1_555 1_555
C11 C2 1_555 1_555
C12 O2 1_555 1_555
C13 C9 1_555 1_555
H8 C13 1_555 1_555
C14 C5 1_555 1_555
H9 C14 1_555 1_555
C15 C11 1_555 1_555
C16 C1 1_555 1_555
H10 C16 1_555 1_555
C17 N1 1_555 1_555
H11 C17 1_555 1_555
H12 C17 1_555 1_555
C18 C4 1_555 1_555
H13 C18 1_555 1_555
C19 O3 1_555 1_555
H14 C19 1_555 1_555
H15 C19 1_555 1_555
H16 C19 1_555 1_555
H17 N1 1_555 1_555
C4 C16 1_555 1_555
C5 C7 1_555 1_555
C5 C12 1_555 1_555
C6 C7 1_555 1_555
C10 C13 1_555 1_555
C11 C18 1_555 1_555
C12 C15 1_555 1_555
C12 C17 1_555 1_555

#END
