
#######################################################################
#
#                 Cambridge Crystallographic Data Centre
#                                CCDC 
#
#######################################################################
#
# If this CIF has been generated from an entry in the Cambridge 
# Structural Database, then it will include bibliographic, chemical, 
# crystal, experimental, refinement or atomic coordinate data resulting 
# from the CCDC's data processing and validation procedures.
#
#######################################################################

data_NILNAA
_chemical_formula_moiety         'C26 H22 Cl1 N1 O4'
_chemical_name_systematic        
"methyl (2S,4'S,5'R)-5'-benzyl-4'-(2-chlorophenyl)-3-oxo-3H-spiro[1-benzofuran-2,3'-pyrrolidine]-5'-carboxylate"
_symmetry_cell_setting           orthorhombic
_symmetry_space_group_name_H-M   'P 21 21 21'
_symmetry_Int_Tables_number      19
_space_group_name_Hall           'P 2ac 2ab'
loop_
_symmetry_equiv_pos_site_id
_symmetry_equiv_pos_as_xyz
1 x,y,z
2 1/2-x,-y,1/2+z
3 -x,1/2+y,1/2-z
4 1/2+x,1/2-y,-z
_cell_length_a                   9.82226(11)
_cell_length_b                   14.71407(18)
_cell_length_c                   30.9505(3)
_cell_angle_alpha                90
_cell_angle_beta                 90
_cell_angle_gamma                90
_cell_volume                     4473.13
_exptl_crystal_colour            colorless
_exptl_crystal_description       block
_cell_formula_units_Z            8
_exptl_crystal_recrystallization_method 'ethyl acetate/hexane'
loop_
_atom_site_label
_atom_site_type_symbol
_atom_site_fract_x
_atom_site_fract_y
_atom_site_fract_z
Cl1 Cl 0.14275(6) 0.75658(4) 0.78454(2)
O1 O 0.33341(17) 0.58802(12) 0.74169(6)
O2 O -0.12198(17) 0.43508(11) 0.78011(6)
O3 O -0.24748(18) 0.65886(12) 0.76593(6)
O4 O 0.22728(18) 0.62793(13) 0.68052(6)
N1 N 0.0227(2) 0.50798(16) 0.69208(7)
H1 H 0.038(3) 0.551(2) 0.6732(10)
C1 C 0.0863(2) 0.58073(17) 0.80826(8)
C2 C 0.2673(3) 0.38148(16) 0.71167(8)
C3 C -0.2289(2) 0.57986(17) 0.77513(8)
C4 C -0.2415(2) 0.43545(17) 0.80259(8)
C5 C 0.1427(3) 0.66450(16) 0.82050(8)
C6 C -0.3099(2) 0.51810(18) 0.80183(8)
C7 C -0.1104(2) 0.52246(16) 0.75803(8)
C8 C 0.1178(2) 0.52023(16) 0.72823(8)
C9 C 0.2313(2) 0.58433(16) 0.71343(8)
C10 C -0.1176(2) 0.50699(17) 0.70880(8)
H2 H -0.1604 0.4490 0.7026
H3 H -0.1708 0.5547 0.6953
C11 C 0.0927(2) 0.51123(17) 0.83890(8)
H4 H 0.0574 0.4544 0.8320
C12 C 0.0287(2) 0.56871(16) 0.76346(8)
H5 H 0.0155 0.6306 0.7526
C13 C 0.2109(3) 0.33801(18) 0.67606(9)
H6 H 0.1170 0.3381 0.6722
C14 C 0.4434(3) 0.6486(2) 0.72939(9)
H7 H 0.4874 0.6255 0.7039
H8 H 0.5082 0.6523 0.7525
H9 H 0.4073 0.7080 0.7235
C15 C 0.2004(3) 0.6787(2) 0.86073(9)
H10 H 0.2368 0.7352 0.8677
C16 C 0.1767(2) 0.42846(16) 0.74419(8)
H11 H 0.2284 0.4391 0.7704
H12 H 0.1017 0.3883 0.7514
C17 C -0.4340(3) 0.5282(2) 0.82352(9)
H13 H -0.4797 0.5835 0.8235
C18 C -0.2921(3) 0.36002(18) 0.82437(9)
H14 H -0.2454 0.3050 0.8249
C19 C 0.4075(3) 0.37913(18) 0.71731(9)
H15 H 0.4462 0.4077 0.7411
C20 C 0.1502(3) 0.52433(19) 0.87949(8)
H16 H 0.1527 0.4767 0.8992
C21 C 0.2039(3) 0.6086(2) 0.89057(9)
H17 H 0.2418 0.6178 0.9178
C22 C -0.4867(3) 0.4537(2) 0.84493(9)
H18 H -0.5697 0.4585 0.8592
C23 C 0.4335(4) 0.2929(2) 0.65198(10)
H19 H 0.4889 0.2640 0.6319
C24 C -0.4157(3) 0.3710(2) 0.84531(9)
H20 H -0.4529 0.3219 0.8601
C25 C 0.2937(4) 0.2944(2) 0.64618(9)
H21 H 0.2553 0.2661 0.6222
C26 C 0.4907(3) 0.3346(2) 0.68782(11)
H22 H 0.5843 0.3329 0.6921
O5 O 0.38921(18) 0.59706(12) 0.52747(6)
O6 O 0.84839(19) 0.45362(13) 0.57203(6)
O7 O 0.73267(19) 0.40624(13) 0.63014(6)
O8 O 0.2698(2) 0.37359(13) 0.54669(6)
N2 N 0.5318(2) 0.52954(16) 0.61855(7)
H23 H 0.546(3) 0.484(2) 0.6362(10)
C27 C 0.7412(3) 0.45337(17) 0.59846(8)
C28 C 0.4021(3) 0.51287(17) 0.55207(8)
C29 C 0.9121(3) 0.66642(19) 0.59351(10)
H24 H 0.9530 0.6401 0.5695
C30 C 0.5412(2) 0.46662(17) 0.54807(8)
H25 H 0.5270 0.4055 0.5598
C31 C 0.2719(3) 0.59203(19) 0.50392(8)
C32 C 0.6285(3) 0.51657(16) 0.58320(7)
C33 C 0.6012(3) 0.45092(18) 0.50379(8)
C34 C 0.2859(3) 0.45249(18) 0.53596(8)
C35 C 0.7721(3) 0.65842(17) 0.59947(9)
C36 C 0.0835(3) 0.4942(2) 0.48485(9)
H26 H 0.0391 0.4385 0.4865
C37 C 0.3938(3) 0.53523(19) 0.60083(8)
H27 H 0.3573 0.5959 0.6050
H28 H 0.3345 0.4922 0.6153
C38 C 0.7131(3) 0.69917(18) 0.63546(9)
H29 H 0.6194 0.6953 0.6395
C39 C 0.6585(3) 0.36672(19) 0.49333(9)
C40 C 0.6863(3) 0.60776(17) 0.56657(8)
H30 H 0.7414 0.5961 0.5412
H31 H 0.6111 0.6464 0.5579
C41 C 0.6070(3) 0.51794(18) 0.47181(8)
H32 H 0.5709 0.5751 0.4776
C42 C 0.9315(3) 0.7527(2) 0.65949(10)
H33 H 0.9847 0.7836 0.6796
C43 C 0.2045(3) 0.50929(18) 0.50710(8)
C44 C 0.6650(3) 0.5016(2) 0.43170(8)
H34 H 0.6665 0.5472 0.4109
C45 C 0.7921(3) 0.7456(2) 0.66553(9)
H35 H 0.7514 0.7717 0.6897
C46 C 0.0312(3) 0.5641(2) 0.46032(10)
H36 H -0.0509 0.5564 0.4459
C47 C 0.9913(3) 0.7137(2) 0.62344(10)
H37 H 1.0847 0.7191 0.6192
C48 C 0.2225(3) 0.6622(2) 0.47875(10)
H38 H 0.2684 0.7172 0.4764
C49 C 0.1012(3) 0.6466(2) 0.45708(11)
H39 H 0.0653 0.6925 0.4398
C50 C 0.9576(3) 0.3931(2) 0.58516(10)
H40 H 1.0321 0.3984 0.5652
H41 H 0.9251 0.3316 0.5853
H42 H 0.9879 0.4093 0.6136
C51 C 0.7187(4) 0.3497(2) 0.45368(10)
H43 H 0.7575 0.2933 0.4480
C52 C 0.7208(4) 0.4171(2) 0.42264(9)
H44 H 0.7594 0.4059 0.3957
Cl2 Cl 0.65819(10) 0.27773(5) 0.53083(2)
loop_
_geom_bond_atom_site_label_1
_geom_bond_atom_site_label_2
_geom_bond_site_symmetry_1
_geom_bond_site_symmetry_2
Cl1 C5 1_555 1_555
O1 C9 1_555 1_555
O2 C4 1_555 1_555
O3 C3 1_555 1_555
O4 C9 1_555 1_555
N1 H1 1_555 1_555
C1 C5 1_555 1_555
C2 C13 1_555 1_555
C3 C6 1_555 1_555
C4 C6 1_555 1_555
C5 C15 1_555 1_555
C6 C17 1_555 1_555
C7 O2 1_555 1_555
C8 N1 1_555 1_555
C9 C8 1_555 1_555
C10 N1 1_555 1_555
H2 C10 1_555 1_555
H3 C10 1_555 1_555
C11 C1 1_555 1_555
H4 C11 1_555 1_555
C12 C1 1_555 1_555
H5 C12 1_555 1_555
C13 H6 1_555 1_555
C14 O1 1_555 1_555
H7 C14 1_555 1_555
H8 C14 1_555 1_555
H9 C14 1_555 1_555
C15 H10 1_555 1_555
C16 C2 1_555 1_555
H11 C16 1_555 1_555
H12 C16 1_555 1_555
C17 H13 1_555 1_555
C18 C4 1_555 1_555
H14 C18 1_555 1_555
C19 C2 1_555 1_555
H15 C19 1_555 1_555
C20 C11 1_555 1_555
H16 C20 1_555 1_555
C21 C15 1_555 1_555
H17 C21 1_555 1_555
C22 C17 1_555 1_555
H18 C22 1_555 1_555
C23 H19 1_555 1_555
C24 C18 1_555 1_555
H20 C24 1_555 1_555
C25 C13 1_555 1_555
H21 C25 1_555 1_555
C26 C19 1_555 1_555
H22 C26 1_555 1_555
O5 C28 1_555 1_555
O6 C27 1_555 1_555
O7 C27 1_555 1_555
O8 C34 1_555 1_555
N2 H23 1_555 1_555
C27 C32 1_555 1_555
C28 C30 1_555 1_555
C29 H24 1_555 1_555
C30 H25 1_555 1_555
C31 O5 1_555 1_555
C32 N2 1_555 1_555
C33 C30 1_555 1_555
C34 C28 1_555 1_555
C35 C29 1_555 1_555
C36 H26 1_555 1_555
C37 N2 1_555 1_555
H27 C37 1_555 1_555
H28 C37 1_555 1_555
C38 C35 1_555 1_555
H29 C38 1_555 1_555
C39 C33 1_555 1_555
C40 C32 1_555 1_555
H30 C40 1_555 1_555
H31 C40 1_555 1_555
C41 C33 1_555 1_555
H32 C41 1_555 1_555
C42 H33 1_555 1_555
C43 C31 1_555 1_555
C44 C41 1_555 1_555
H34 C44 1_555 1_555
C45 C38 1_555 1_555
H35 C45 1_555 1_555
C46 C36 1_555 1_555
H36 C46 1_555 1_555
C47 C29 1_555 1_555
H37 C47 1_555 1_555
C48 C31 1_555 1_555
H38 C48 1_555 1_555
C49 C46 1_555 1_555
H39 C49 1_555 1_555
C50 O6 1_555 1_555
H40 C50 1_555 1_555
H41 C50 1_555 1_555
H42 C50 1_555 1_555
C51 C39 1_555 1_555
H43 C51 1_555 1_555
C52 C44 1_555 1_555
H44 C52 1_555 1_555
Cl2 C39 1_555 1_555
C3 C7 1_555 1_555
C7 C10 1_555 1_555
C7 C12 1_555 1_555
C8 C12 1_555 1_555
C8 C16 1_555 1_555
C20 C21 1_555 1_555
C22 C24 1_555 1_555
C23 C25 1_555 1_555
C23 C26 1_555 1_555
C28 C37 1_555 1_555
C30 C32 1_555 1_555
C34 C43 1_555 1_555
C35 C40 1_555 1_555
C36 C43 1_555 1_555
C42 C45 1_555 1_555
C42 C47 1_555 1_555
C48 C49 1_555 1_555
C51 C52 1_555 1_555

#END
