
#######################################################################
#
#                 Cambridge Crystallographic Data Centre
#                                CCDC 
#
#######################################################################
#
# If this CIF has been generated from an entry in the Cambridge 
# Structural Database, then it will include bibliographic, chemical, 
# crystal, experimental, refinement or atomic coordinate data resulting 
# from the CCDC's data processing and validation procedures.
#
#######################################################################

data_NILPUW
_chemical_name_common            
'(1-(2-Benzo[1,3]dioxol-5-ylvinyl)-5,6-dimethoxyindan-2-yl)phenylmethanol tetrahydrofuran solvate'
_chemical_formula_moiety         'C27 H26 O5,C4 H8 O1'
_chemical_name_systematic        
'(1-(2-(2H-1,3-benzodioxol-5-yl)ethenyl)-5,6-dimethoxy-2,3-dihydro-1H-inden-2-yl)(phenyl)methanol tetrahydrofuran solvate'
_symmetry_cell_setting           monoclinic
_symmetry_space_group_name_H-M   'P 21/c'
_symmetry_Int_Tables_number      14
_space_group_name_Hall           '-P 2ybc'
loop_
_symmetry_equiv_pos_site_id
_symmetry_equiv_pos_as_xyz
1 x,y,z
2 -x,1/2+y,1/2-z
3 -x,-y,-z
4 x,1/2-y,1/2+z
_cell_length_a                   11.796(3)
_cell_length_b                   17.150(5)
_cell_length_c                   13.523(4)
_cell_angle_alpha                90
_cell_angle_beta                 110.944(7)
_cell_angle_gamma                90
_cell_volume                     2554.97
_exptl_crystal_colour            colorless
_exptl_crystal_description       prism
_cell_formula_units_Z            4
loop_
_atom_site_label
_atom_site_type_symbol
_atom_site_fract_x
_atom_site_fract_y
_atom_site_fract_z
O1 O 0.87035(17) 0.43358(10) 0.88788(15)
O2 O 0.47715(16) 0.59691(11) 0.05729(14)
O3 O 0.41468(16) 0.61346(11) 0.21919(15)
O4 O 0.83682(18) 0.51748(11) 1.00857(15)
O5 O 1.16769(17) 0.61401(11) 0.43381(16)
H1 H 1.237(3) 0.6317(19) 0.474(3)
C1 C 0.8384(3) 0.43710(15) 0.9812(2)
H2 H 0.7576 0.4134 0.9668
H3 H 0.8987 0.4083 1.0401
C2 C 0.8517(2) 0.50767(14) 0.8476(2)
C3 C 0.8535(2) 0.53225(15) 0.7518(2)
H4 H 0.8654 0.4966 0.7027
C4 C 0.8371(2) 0.61250(15) 0.7291(2)
C5 C 0.8404(2) 0.64455(14) 0.6294(2)
H5 H 0.8362 0.6997 0.6226
C6 C 0.8488(2) 0.60512(14) 0.5478(2)
H6 H 0.8501 0.5498 0.5520
C7 C 0.8564(2) 0.64157(14) 0.4495(2)
H7 H 0.8654 0.6992 0.4606
C8 C 0.9622(2) 0.61158(14) 0.4172(2)
H8 H 0.9770 0.5557 0.4392
C9 C 1.0814(2) 0.65518(14) 0.4666(2)
H9 H 1.0714 0.7088 0.4358
C10 C 1.1211(2) 0.66223(14) 0.5856(2)
C11 C 1.1131(2) 0.73372(15) 0.6307(2)
H10 H 1.0867 0.7783 0.5868
C12 C 1.1430(2) 0.74065(15) 0.7392(2)
H11 H 1.1371 0.7898 0.7695
C13 C 1.1815(2) 0.67574(16) 0.8032(2)
H12 H 1.2024 0.6804 0.8777
C14 C 0.5080(3) 0.59979(18) -0.0351(2)
H13 H 0.5510 0.6486 -0.0357
H14 H 0.4339 0.5973 -0.0981
H15 H 0.5605 0.5555 -0.0351
C15 C 0.5714(2) 0.60482(14) 0.1520(2)
C16 C 0.6924(2) 0.60278(14) 0.1638(2)
H16 H 0.7158 0.5944 0.1043
C17 C 0.7799(2) 0.61320(14) 0.2640(2)
C18 C 0.9156(2) 0.61431(15) 0.2949(2)
H17 H 0.9429 0.6624 0.2697
H18 H 0.9442 0.5685 0.2659
C19 C 0.7463(2) 0.62612(14) 0.3506(2)
C20 C 0.6246(2) 0.62658(13) 0.3398(2)
H19 H 0.6018 0.6346 0.3997
C21 C 0.5371(2) 0.61522(14) 0.2406(2)
C22 C 0.3785(2) 0.62207(16) 0.3085(2)
H20 H 0.4145 0.5802 0.3594
H21 H 0.2898 0.6192 0.2854
H22 H 0.4062 0.6727 0.3421
C23 C 0.8317(2) 0.55806(15) 0.9195(2)
C24 C 0.8167(3) 0.63567(15) 0.9001(2)
H23 H 0.8051 0.6705 0.9504
C25 C 0.8189(3) 0.66228(15) 0.8034(2)
H24 H 0.8077 0.7163 0.7876
C26 C 1.1608(2) 0.59755(14) 0.6508(2)
H25 H 1.1681 0.5486 0.6209
C27 C 1.1896(2) 0.60397(15) 0.7590(2)
H26 H 1.2149 0.5593 0.8030
O6 O 0.40875(17) 0.64706(11) 0.54090(15)
C28 C 0.4783(3) 0.67780(16) 0.7209(2)
H27 H 0.4054 0.6879 0.7389
H28 H 0.5499 0.7012 0.7760
C29 C 0.4964(3) 0.58992(16) 0.7098(2)
H29 H 0.5807 0.5742 0.7521
H30 H 0.4397 0.5592 0.7334
C30 C 0.4699(3) 0.57832(16) 0.5927(2)
H31 H 0.5463 0.5709 0.5792
H32 H 0.4179 0.5319 0.5666
C31 C 0.4627(3) 0.70959(16) 0.6124(2)
H33 H 0.4091 0.7559 0.5959
H34 H 0.5421 0.7243 0.6085
loop_
_geom_bond_atom_site_label_1
_geom_bond_atom_site_label_2
_geom_bond_site_symmetry_1
_geom_bond_site_symmetry_2
O1 C1 1_555 1_555
O2 C14 1_555 1_555
O3 C21 1_555 1_555
O4 C1 1_555 1_555
O5 H1 1_555 1_555
C1 H2 1_555 1_555
H3 C1 1_555 1_555
C2 O1 1_555 1_555
C3 C2 1_555 1_555
H4 C3 1_555 1_555
C4 C3 1_555 1_555
C5 C4 1_555 1_555
H5 C5 1_555 1_555
C6 C5 1_555 1_555
H6 C6 1_555 1_555
C7 C6 1_555 1_555
H7 C7 1_555 1_555
C8 C7 1_555 1_555
H8 C8 1_555 1_555
C9 O5 1_555 1_555
H9 C9 1_555 1_555
C10 C9 1_555 1_555
C11 C10 1_555 1_555
H10 C11 1_555 1_555
C12 C11 1_555 1_555
H11 C12 1_555 1_555
C13 C12 1_555 1_555
H12 C13 1_555 1_555
C14 H13 1_555 1_555
H14 C14 1_555 1_555
H15 C14 1_555 1_555
C15 O2 1_555 1_555
C16 C15 1_555 1_555
H16 C16 1_555 1_555
C17 C16 1_555 1_555
C18 C8 1_555 1_555
H17 C18 1_555 1_555
H18 C18 1_555 1_555
C19 C7 1_555 1_555
C20 C19 1_555 1_555
H19 C20 1_555 1_555
C21 C15 1_555 1_555
C22 O3 1_555 1_555
H20 C22 1_555 1_555
H21 C22 1_555 1_555
H22 C22 1_555 1_555
C23 O4 1_555 1_555
C24 C23 1_555 1_555
H23 C24 1_555 1_555
C25 C4 1_555 1_555
H24 C25 1_555 1_555
C26 C10 1_555 1_555
H25 C26 1_555 1_555
C27 C13 1_555 1_555
H26 C27 1_555 1_555
O6 C30 1_555 1_555
C28 H27 1_555 1_555
H28 C28 1_555 1_555
C29 C28 1_555 1_555
H29 C29 1_555 1_555
H30 C29 1_555 1_555
C30 C29 1_555 1_555
H31 C30 1_555 1_555
H32 C30 1_555 1_555
C31 O6 1_555 1_555
H33 C31 1_555 1_555
H34 C31 1_555 1_555
C2 C23 1_555 1_555
C8 C9 1_555 1_555
C17 C18 1_555 1_555
C17 C19 1_555 1_555
C20 C21 1_555 1_555
C24 C25 1_555 1_555
C26 C27 1_555 1_555
C28 C31 1_555 1_555

#END
