
#######################################################################
#
#                 Cambridge Crystallographic Data Centre
#                                CCDC 
#
#######################################################################
#
# If this CIF has been generated from an entry in the Cambridge 
# Structural Database, then it will include bibliographic, chemical, 
# crystal, experimental, refinement or atomic coordinate data resulting 
# from the CCDC's data processing and validation procedures.
#
#######################################################################

data_NILQAB
_chemical_formula_moiety         'C44 H30 N2 O1'
_chemical_name_systematic        
2-Phenyl-5-(4-(2,3,4,5-tetraphenyl)phenyl)phenyl-(1,3,4)oxadiazole
_symmetry_cell_setting           triclinic
_symmetry_space_group_name_H-M   'P -1'
_symmetry_Int_Tables_number      2
_space_group_name_Hall           '-P 1'
loop_
_symmetry_equiv_pos_site_id
_symmetry_equiv_pos_as_xyz
1 x,y,z
2 -x,-y,-z
_cell_length_a                   9.405(3)
_cell_length_b                   10.934(4)
_cell_length_c                   17.343(6)
_cell_angle_alpha                84.339(5)
_cell_angle_beta                 86.416(6)
_cell_angle_gamma                70.879(5)
_cell_volume                     1675.98
_exptl_crystal_colour            white
_cell_formula_units_Z            2
_exptl_crystal_recrystallization_method hexane/dichloromethane
loop_
_atom_site_label
_atom_site_type_symbol
_atom_site_fract_x
_atom_site_fract_y
_atom_site_fract_z
O1 O 0.7577(2) 0.64437(19) 0.49333(11)
N1 N 0.7772(3) 0.8404(2) 0.49443(16)
N2 N 0.8802(3) 0.7726(3) 0.43802(16)
C1 C 0.1815(3) 0.8739(3) 0.72597(16)
C2 C 0.0627(4) 0.9759(3) 0.69384(16)
H1 H 0.0805 1.0200 0.6475
C3 C -0.0811(3) 1.0149(3) 0.72776(15)
C4 C -0.1075(3) 0.9518(3) 0.79949(15)
C5 C 0.0117(3) 0.8505(3) 0.83391(15)
C6 C 0.1553(3) 0.8091(3) 0.79726(15)
C7 C -0.2008(3) 1.1214(3) 0.68496(17)
C8 C -0.2165(4) 1.1139(3) 0.60652(18)
H2 H -0.1548 1.0424 0.5821
C9 C -0.3229(5) 1.2117(4) 0.5645(2)
H3 H -0.3321 1.2055 0.5121
C10 C -0.4142(5) 1.3171(4) 0.5993(3)
H4 H -0.4854 1.3826 0.5706
C11 C -0.4009(4) 1.3265(3) 0.6767(2)
H5 H -0.4637 1.3982 0.7006
C12 C -0.2945(4) 1.2298(3) 0.71945(19)
H6 H -0.2857 1.2374 0.7717
C13 C -0.2617(4) 0.9951(3) 0.83747(16)
C14 C -0.3854(4) 0.9861(3) 0.80177(18)
H7 H -0.3715 0.9457 0.7559
C15 C -0.5303(4) 1.0368(3) 0.8337(2)
H8 H -0.6123 1.0306 0.8090
C16 C -0.5515(5) 1.0958(3) 0.9016(2)
H9 H -0.6481 1.1301 0.9230
C17 C -0.4299(5) 1.1043(3) 0.9380(2)
H10 H -0.4447 1.1448 0.9839
C18 C -0.2854(4) 1.0531(3) 0.90698(18)
H11 H -0.2038 1.0576 0.9329
C19 C -0.0131(3) 0.7868(3) 0.91243(16)
C20 C -0.1061(3) 0.7118(3) 0.92399(17)
H12 H -0.1562 0.6997 0.8823
C21 C -0.1262(4) 0.6540(3) 0.99665(19)
H13 H -0.1895 0.6036 1.0033
C22 C -0.0541(4) 0.6705(3) 1.05841(19)
H14 H -0.0688 0.6324 1.1073
C23 C 0.0401(4) 0.7435(4) 1.04808(18)
H15 H 0.0904 0.7545 1.0900
C24 C 0.0608(4) 0.8011(3) 0.97540(17)
H16 H 0.1256 0.8501 0.9690
C25 C 0.2790(3) 0.6943(3) 0.83147(15)
C26 C 0.2683(4) 0.5711(3) 0.83431(18)
H17 H 0.1822 0.5599 0.8168
C27 C 0.3830(5) 0.4643(3) 0.8627(2)
H18 H 0.3751 0.3816 0.8631
C28 C 0.5093(5) 0.4801(4) 0.8904(2)
H19 H 0.5861 0.4083 0.9104
C29 C 0.5214(4) 0.6019(5) 0.8884(2)
H20 H 0.6068 0.6126 0.9071
C30 C 0.4073(4) 0.7090(4) 0.85884(19)
H21 H 0.4167 0.7913 0.8573
C31 C 0.3277(3) 0.8393(3) 0.68106(15)
C32 C 0.4044(4) 0.7132(3) 0.66203(16)
H22 H 0.3697 0.6458 0.6825
C33 C 0.5311(3) 0.6862(3) 0.61331(16)
H23 H 0.5810 0.6012 0.6016
C34 C 0.5839(3) 0.7853(3) 0.58190(16)
C35 C 0.5113(4) 0.9108(3) 0.60207(17)
H24 H 0.5480 0.9775 0.5830
C36 C 0.3848(3) 0.9367(3) 0.65041(16)
H25 H 0.3363 1.0216 0.6628
C37 C 0.7079(3) 0.7618(3) 0.52446(17)
C38 C 0.8641(4) 0.6604(3) 0.43938(18)
C39 C 0.9425(4) 0.5541(3) 0.39163(19)
C40 C 0.9169(4) 0.4364(4) 0.4030(2)
H26 H 0.8483 0.4231 0.4412
C41 C 0.9956(5) 0.3376(4) 0.3563(3)
H27 H 0.9789 0.2579 0.3629
C42 C 1.0976(5) 0.3576(5) 0.3007(3)
H28 H 1.1505 0.2907 0.2704
C43 C 1.1227(5) 0.4733(5) 0.2892(2)
H29 H 1.1912 0.4862 0.2508
C44 C 1.0464(4) 0.5711(4) 0.3347(2)
H30 H 1.0644 0.6503 0.3274
loop_
_geom_bond_atom_site_label_1
_geom_bond_atom_site_label_2
_geom_bond_site_symmetry_1
_geom_bond_site_symmetry_2
O1 C37 1_555 1_555
N1 N2 1_555 1_555
N2 C38 1_555 1_555
C1 C2 1_555 1_555
C2 H1 1_555 1_555
C3 C2 1_555 1_555
C4 C3 1_555 1_555
C5 C4 1_555 1_555
C6 C1 1_555 1_555
C7 C3 1_555 1_555
C8 C7 1_555 1_555
H2 C8 1_555 1_555
C9 C8 1_555 1_555
H3 C9 1_555 1_555
C10 C9 1_555 1_555
H4 C10 1_555 1_555
C11 C10 1_555 1_555
H5 C11 1_555 1_555
C12 C7 1_555 1_555
H6 C12 1_555 1_555
C13 C4 1_555 1_555
C14 C13 1_555 1_555
H7 C14 1_555 1_555
C15 C14 1_555 1_555
H8 C15 1_555 1_555
C16 C15 1_555 1_555
H9 C16 1_555 1_555
C17 C16 1_555 1_555
H10 C17 1_555 1_555
C18 C13 1_555 1_555
H11 C18 1_555 1_555
C19 C5 1_555 1_555
C20 C19 1_555 1_555
H12 C20 1_555 1_555
C21 C20 1_555 1_555
H13 C21 1_555 1_555
C22 C21 1_555 1_555
H14 C22 1_555 1_555
C23 C22 1_555 1_555
H15 C23 1_555 1_555
C24 C19 1_555 1_555
H16 C24 1_555 1_555
C25 C6 1_555 1_555
C26 C25 1_555 1_555
H17 C26 1_555 1_555
C27 C26 1_555 1_555
H18 C27 1_555 1_555
C28 C27 1_555 1_555
H19 C28 1_555 1_555
C29 C28 1_555 1_555
H20 C29 1_555 1_555
C30 C25 1_555 1_555
H21 C30 1_555 1_555
C31 C1 1_555 1_555
C32 C31 1_555 1_555
H22 C32 1_555 1_555
C33 C32 1_555 1_555
H23 C33 1_555 1_555
C34 C33 1_555 1_555
C35 C34 1_555 1_555
H24 C35 1_555 1_555
C36 C31 1_555 1_555
H25 C36 1_555 1_555
C37 N1 1_555 1_555
C38 O1 1_555 1_555
C39 C38 1_555 1_555
C40 C39 1_555 1_555
H26 C40 1_555 1_555
C41 C40 1_555 1_555
H27 C41 1_555 1_555
C42 C41 1_555 1_555
H28 C42 1_555 1_555
C43 C42 1_555 1_555
H29 C43 1_555 1_555
C44 C39 1_555 1_555
H30 C44 1_555 1_555
C5 C6 1_555 1_555
C11 C12 1_555 1_555
C17 C18 1_555 1_555
C23 C24 1_555 1_555
C29 C30 1_555 1_555
C34 C37 1_555 1_555
C35 C36 1_555 1_555
C43 C44 1_555 1_555

#END
