
#######################################################################
#
#                 Cambridge Crystallographic Data Centre
#                                CCDC 
#
#######################################################################
#
# If this CIF has been generated from an entry in the Cambridge 
# Structural Database, then it will include bibliographic, chemical, 
# crystal, experimental, refinement or atomic coordinate data resulting 
# from the CCDC's data processing and validation procedures.
#
#######################################################################

data_NILREI
_chemical_formula_moiety         'C18 H21 Cl1 N2 O3'
_chemical_name_systematic        
(R,E)-2-t-butyl-4-(4-(2-chlorophenyl)-4-oxobut-2-en-1-yl)-4-hydroxy-5-methyl-2,4-dihydro-3H-pyrazol-3-one
_symmetry_cell_setting           monoclinic
_symmetry_space_group_name_H-M   'P 21'
_symmetry_Int_Tables_number      4
_space_group_name_Hall           'P 2yb'
loop_
_symmetry_equiv_pos_site_id
_symmetry_equiv_pos_as_xyz
1 x,y,z
2 -x,1/2+y,-z
_cell_length_a                   6.4257(7)
_cell_length_b                   8.6814(9)
_cell_length_c                   15.9381(16)
_cell_angle_alpha                90
_cell_angle_beta                 100.193(6)
_cell_angle_gamma                90
_cell_volume                     875.06
_exptl_crystal_colour            colorless
_exptl_crystal_description       block
_cell_formula_units_Z            2
loop_
_atom_site_label
_atom_site_type_symbol
_atom_site_fract_x
_atom_site_fract_y
_atom_site_fract_z
Cl1 Cl 0.74178(7) 0.30115(7) 0.19088(3)
O1 O 0.4601(2) 0.77269(16) 0.39329(9)
O2 O 0.6041(2) 0.54188(16) 0.52606(8)
H1 H 0.5852 0.4614 0.5506
O3 O 0.2011(2) 0.07139(18) 0.16785(10)
N1 N 0.7457(3) 0.66091(19) 0.34665(11)
N2 N 0.8657(2) 0.52217(19) 0.36185(10)
C1 C 0.5871(3) 0.6670(2) 0.39159(12)
C2 C 0.2789(3) 0.1960(2) 0.19052(12)
C3 C 0.3193(3) 0.2389(2) 0.28143(13)
H2 H 0.3175 0.1609 0.3213
C4 C 0.7814(3) 0.4396(2) 0.41347(12)
C5 C 0.5874(3) 0.5132(2) 0.43774(12)
C6 C 0.3233(3) 0.3081(3) 0.12365(11)
C7 C 0.5226(3) 0.3641(2) 0.11878(12)
C8 C 0.7935(3) 0.7748(2) 0.28248(13)
C9 C 0.3838(3) 0.4234(2) 0.40298(12)
H3 H 0.3822 0.3297 0.4360
H4 H 0.2633 0.4850 0.4114
C10 C 0.5563(4) 0.4639(3) 0.05425(14)
H5 H 0.6913 0.5002 0.0519
C11 C 0.3580(3) 0.3813(2) 0.31030(12)
H6 H 0.3698 0.4589 0.2712
C12 C 0.5967(3) 0.7907(3) 0.21399(13)
H7 H 0.5624 0.6927 0.1873
H8 H 0.6230 0.8640 0.1720
H9 H 0.4806 0.8256 0.2396
C13 C 0.3855(4) 0.5080(3) -0.00617(14)
H10 H 0.4054 0.5762 -0.0490
C14 C 0.8636(3) 0.2853(2) 0.44280(12)
H11 H 0.9794 0.2587 0.4149
H12 H 0.7532 0.2102 0.4291
H13 H 0.9114 0.2873 0.5034
C15 C 0.1852(4) 0.4520(3) -0.00385(14)
H14 H 0.0714 0.4820 -0.0451
C16 C 0.8489(4) 0.9284(3) 0.32703(15)
H15 H 0.7325 0.9625 0.3526
H16 H 0.8770 1.0033 0.2862
H17 H 0.9721 0.9161 0.3704
C17 C 0.1550(4) 0.3514(3) 0.06010(13)
H18 H 0.0208 0.3119 0.0608
C18 C 0.9790(4) 0.7175(3) 0.24342(15)
H19 H 1.1013 0.7066 0.2873
H20 H 1.0086 0.7903 0.2017
H21 H 0.9442 0.6196 0.2166
loop_
_geom_bond_atom_site_label_1
_geom_bond_atom_site_label_2
_geom_bond_site_symmetry_1
_geom_bond_site_symmetry_2
Cl1 C7 1_555 1_555
O1 C1 1_555 1_555
O2 H1 1_555 1_555
O3 C2 1_555 1_555
N1 N2 1_555 1_555
N2 C4 1_555 1_555
C1 N1 1_555 1_555
C2 C3 1_555 1_555
C3 H2 1_555 1_555
C4 C5 1_555 1_555
C5 O2 1_555 1_555
C6 C2 1_555 1_555
C7 C6 1_555 1_555
C8 N1 1_555 1_555
C9 C5 1_555 1_555
H3 C9 1_555 1_555
H4 C9 1_555 1_555
C10 C7 1_555 1_555
H5 C10 1_555 1_555
C11 C3 1_555 1_555
H6 C11 1_555 1_555
C12 C8 1_555 1_555
H7 C12 1_555 1_555
H8 C12 1_555 1_555
H9 C12 1_555 1_555
C13 C10 1_555 1_555
H10 C13 1_555 1_555
C14 C4 1_555 1_555
H11 C14 1_555 1_555
H12 C14 1_555 1_555
H13 C14 1_555 1_555
C15 C13 1_555 1_555
H14 C15 1_555 1_555
C16 C8 1_555 1_555
H15 C16 1_555 1_555
H16 C16 1_555 1_555
H17 C16 1_555 1_555
C17 C6 1_555 1_555
H18 C17 1_555 1_555
C18 C8 1_555 1_555
H19 C18 1_555 1_555
H20 C18 1_555 1_555
H21 C18 1_555 1_555
C1 C5 1_555 1_555
C9 C11 1_555 1_555
C15 C17 1_555 1_555

#END
