
#######################################################################
#
#                 Cambridge Crystallographic Data Centre
#                                CCDC 
#
#######################################################################
#
# If this CIF has been generated from an entry in the Cambridge 
# Structural Database, then it will include bibliographic, chemical, 
# crystal, experimental, refinement or atomic coordinate data resulting 
# from the CCDC's data processing and validation procedures.
#
#######################################################################

data_NILSOS
_chemical_formula_moiety         'C46 H58 Mg1 N2 O3'
_chemical_name_systematic        
(N-(2,6-Diisopropylphenyl)-N'-(2,6-dimethylphenyl)phenanthrene-9,10-diaminato)-tris(tetrahydrofuran)-magnesium
_symmetry_cell_setting           orthorhombic
_symmetry_space_group_name_H-M   'F d d 2'
_symmetry_Int_Tables_number      43
_space_group_name_Hall           'F 2 -2d'
loop_
_symmetry_equiv_pos_site_id
_symmetry_equiv_pos_as_xyz
1 x,y,z
2 -x,-y,z
3 1/4+x,1/4-y,1/4+z
4 1/4-x,1/4+y,1/4+z
5 x,1/2+y,1/2+z
6 -x,1/2-y,1/2+z
7 1/4+x,3/4-y,3/4+z
8 1/4-x,3/4+y,3/4+z
9 1/2+x,y,1/2+z
10 1/2-x,-y,1/2+z
11 3/4+x,1/4-y,3/4+z
12 3/4-x,1/4+y,3/4+z
13 1/2+x,1/2+y,z
14 1/2-x,1/2-y,z
15 3/4+x,3/4-y,1/4+z
16 3/4-x,3/4+y,1/4+z
_cell_length_a                   36.2536(19)
_cell_length_b                   38.964(2)
_cell_length_c                   11.3133(6)
_cell_angle_alpha                90
_cell_angle_beta                 90
_cell_angle_gamma                90
_cell_volume                     15981
_exptl_crystal_colour            red
_exptl_crystal_description       block
_cell_formula_units_Z            16
loop_
_atom_site_label
_atom_site_type_symbol
_atom_site_fract_x
_atom_site_fract_y
_atom_site_fract_z
C1 C 0.09501(5) 0.13505(5) 0.9111(2)
C2 C 0.06587(6) 0.15367(5) 0.9738(2)
C3 C 0.05368(6) 0.14417(6) 1.0882(3)
H1 H 0.0637 0.1241 1.1236
C4 C 0.02789(6) 0.16278(6) 1.1498(3)
H2 H 0.0205 0.1556 1.2266
C5 C 0.01266(7) 0.19209(7) 1.0996(3)
H3 H -0.0056 0.2047 1.1410
C6 C 0.02406(7) 0.20257(6) 0.9909(3)
H4 H 0.0136 0.2228 0.9584
C7 C 0.05070(6) 0.18464(5) 0.9246(3)
C8 C 0.06397(6) 0.19695(5) 0.8124(3)
C9 C 0.04683(7) 0.22402(6) 0.7495(3)
H5 H 0.0257 0.2348 0.7826
C10 C 0.05978(8) 0.23502(7) 0.6427(3)
H6 H 0.0480 0.2535 0.6030
C11 C 0.09046(8) 0.21898(7) 0.5919(3)
H7 H 0.0995 0.2265 0.5174
C12 C 0.10749(7) 0.19250(6) 0.6495(3)
H8 H 0.1281 0.1817 0.6134
C13 C 0.09532(6) 0.18074(5) 0.7611(2)
C14 C 0.11302(6) 0.15187(5) 0.8183(2)
C15 C 0.09345(6) 0.08130(5) 1.0274(2)
C16 C 0.05890(6) 0.06504(6) 1.0107(3)
C17 C 0.04740(7) 0.04023(6) 1.0922(3)
H9 H 0.0240 0.0296 1.0820
C18 C 0.06893(8) 0.03074(7) 1.1866(3)
H10 H 0.0610 0.0133 1.2393
C19 C 0.10253(7) 0.04711(6) 1.2036(3)
H11 H 0.1175 0.0407 1.2689
C20 C 0.11468(6) 0.07247(6) 1.1278(3)
C21 C 0.03418(6) 0.07293(6) 0.9058(3)
H12 H 0.0457 0.0922 0.8607
C22 C -0.00457(7) 0.08442(9) 0.9436(3)
H13 H -0.0167 0.0658 0.9870
H14 H -0.0191 0.0901 0.8733
H15 H -0.0026 0.1047 0.9946
C23 C 0.03117(8) 0.04199(7) 0.8221(3)
H16 H 0.0559 0.0348 0.7975
H17 H 0.0167 0.0484 0.7523
H18 H 0.0190 0.0230 0.8631
C24 C 0.14991(7) 0.09231(6) 1.1544(3)
H19 H 0.1632 0.0956 1.0778
C25 C 0.14130(7) 0.12792(7) 1.2034(3)
H20 H 0.1272 0.1410 1.1448
H21 H 0.1644 0.1400 1.2207
H22 H 0.1268 0.1257 1.2761
C26 C 0.17647(8) 0.07414(8) 1.2390(3)
H23 H 0.1994 0.0874 1.2450
H24 H 0.1820 0.0511 1.2088
H25 H 0.1651 0.0723 1.3173
C27 C 0.17461(6) 0.16018(5) 0.7430(2)
C28 C 0.19397(7) 0.15513(6) 0.6357(3)
C29 C 0.22331(7) 0.17642(7) 0.6054(3)
H26 H 0.2363 0.1725 0.5338
C30 C 0.23383(7) 0.20320(7) 0.6777(3)
H27 H 0.2535 0.2179 0.6554
C31 C 0.21550(7) 0.20836(6) 0.7821(3)
H28 H 0.2228 0.2268 0.8317
C32 C 0.18622(6) 0.18724(5) 0.8181(3)
C33 C 0.18195(8) 0.12806(7) 0.5492(3)
H29 H 0.1572 0.1335 0.5202
H30 H 0.1816 0.1056 0.5885
H31 H 0.1992 0.1274 0.4826
C34 C 0.16891(7) 0.19277(6) 0.9375(3)
H32 H 0.1851 0.2072 0.9858
H33 H 0.1654 0.1706 0.9766
H34 H 0.1450 0.2041 0.9277
C35 C 0.14094(7) 0.03822(6) 0.6003(3)
H35 H 0.1512 0.0189 0.6466
H36 H 0.1598 0.0463 0.5435
C36 C 0.10637(8) 0.02769(7) 0.5375(3)
H37 H 0.0912 0.0122 0.5869
H38 H 0.1120 0.0163 0.4614
C37 C 0.08711(9) 0.06220(7) 0.5181(3)
H39 H 0.0959 0.0733 0.4445
H40 H 0.0600 0.0592 0.5134
C38 C 0.09761(6) 0.08293(6) 0.6243(3)
H41 H 0.1041 0.1066 0.6009
H42 H 0.0769 0.0839 0.6812
C39 C 0.12764(7) 0.01047(6) 0.8936(3)
H43 H 0.1179 0.0066 0.8130
H44 H 0.1072 0.0180 0.9453
C40 C 0.14514(9) -0.02203(7) 0.9416(4)
H45 H 0.1270 -0.0360 0.9859
H46 H 0.1559 -0.0361 0.8774
C41 C 0.17466(10) -0.00791(7) 1.0222(3)
H47 H 0.1642 -0.0007 1.0992
H48 H 0.1944 -0.0250 1.0359
C42 C 0.18870(8) 0.02240(6) 0.9535(3)
H49 H 0.1993 0.0399 1.0073
H50 H 0.2080 0.0152 0.8966
C43 C 0.23561(8) 0.07365(8) 0.7550(4)
H51 H 0.2258 0.0715 0.6736
H52 H 0.2431 0.0506 0.7831
C44 C 0.26726(8) 0.09758(9) 0.7577(4)
H53 H 0.2677 0.1117 0.6850
H54 H 0.2907 0.0846 0.7629
C45 C 0.26267(8) 0.11981(8) 0.8633(4)
H55 H 0.2611 0.1443 0.8399
H56 H 0.2837 0.1169 0.9182
C46 C 0.22743(7) 0.10845(6) 0.9204(3)
H57 H 0.2327 0.0945 0.9916
H58 H 0.2125 0.1286 0.9441
Mg1 Mg 0.150282(19) 0.087657(17) 0.82907(8)
N1 N 0.10934(5) 0.10343(4) 0.94305(19)
N2 N 0.14580(5) 0.13779(4) 0.77335(19)
O1 O 0.12932(4) 0.06572(4) 0.67715(18)
O2 O 0.15692(4) 0.03602(4) 0.89175(18)
O3 O 0.20802(4) 0.08817(4) 0.83262(19)
loop_
_geom_bond_atom_site_label_1
_geom_bond_atom_site_label_2
_geom_bond_site_symmetry_1
_geom_bond_site_symmetry_2
C1 C2 1_555 1_555
C2 C3 1_555 1_555
C3 H1 1_555 1_555
C4 C3 1_555 1_555
H2 C4 1_555 1_555
C5 C4 1_555 1_555
H3 C5 1_555 1_555
C6 C5 1_555 1_555
H4 C6 1_555 1_555
C7 C2 1_555 1_555
C8 C7 1_555 1_555
C9 C8 1_555 1_555
H5 C9 1_555 1_555
C10 C9 1_555 1_555
H6 C10 1_555 1_555
C11 C10 1_555 1_555
H7 C11 1_555 1_555
C12 C11 1_555 1_555
H8 C12 1_555 1_555
C13 C8 1_555 1_555
C14 C1 1_555 1_555
C15 C16 1_555 1_555
C16 C17 1_555 1_555
C17 H9 1_555 1_555
C18 C17 1_555 1_555
H10 C18 1_555 1_555
C19 C18 1_555 1_555
H11 C19 1_555 1_555
C20 C15 1_555 1_555
C21 C16 1_555 1_555
H12 C21 1_555 1_555
C22 C21 1_555 1_555
H13 C22 1_555 1_555
H14 C22 1_555 1_555
H15 C22 1_555 1_555
C23 C21 1_555 1_555
H16 C23 1_555 1_555
H17 C23 1_555 1_555
H18 C23 1_555 1_555
C24 C20 1_555 1_555
H19 C24 1_555 1_555
C25 C24 1_555 1_555
H20 C25 1_555 1_555
H21 C25 1_555 1_555
H22 C25 1_555 1_555
C26 C24 1_555 1_555
H23 C26 1_555 1_555
H24 C26 1_555 1_555
H25 C26 1_555 1_555
C27 C28 1_555 1_555
C28 C29 1_555 1_555
C29 H26 1_555 1_555
C30 C29 1_555 1_555
H27 C30 1_555 1_555
C31 C30 1_555 1_555
H28 C31 1_555 1_555
C32 C27 1_555 1_555
C33 C28 1_555 1_555
H29 C33 1_555 1_555
H30 C33 1_555 1_555
H31 C33 1_555 1_555
C34 C32 1_555 1_555
H32 C34 1_555 1_555
H33 C34 1_555 1_555
H34 C34 1_555 1_555
C35 H35 1_555 1_555
H36 C35 1_555 1_555
C36 C35 1_555 1_555
H37 C36 1_555 1_555
H38 C36 1_555 1_555
C37 C36 1_555 1_555
H39 C37 1_555 1_555
H40 C37 1_555 1_555
C38 C37 1_555 1_555
H41 C38 1_555 1_555
H42 C38 1_555 1_555
C39 H43 1_555 1_555
H44 C39 1_555 1_555
C40 C39 1_555 1_555
H45 C40 1_555 1_555
H46 C40 1_555 1_555
C41 C40 1_555 1_555
H47 C41 1_555 1_555
H48 C41 1_555 1_555
C42 C41 1_555 1_555
H49 C42 1_555 1_555
H50 C42 1_555 1_555
C43 H51 1_555 1_555
H52 C43 1_555 1_555
C44 C43 1_555 1_555
H53 C44 1_555 1_555
H54 C44 1_555 1_555
C45 C44 1_555 1_555
H55 C45 1_555 1_555
H56 C45 1_555 1_555
C46 C45 1_555 1_555
H57 C46 1_555 1_555
H58 C46 1_555 1_555
Mg1 N1 1_555 1_555
N1 C1 1_555 1_555
N2 C14 1_555 1_555
O1 C35 1_555 1_555
O2 C39 1_555 1_555
O3 C43 1_555 1_555
C6 C7 1_555 1_555
C12 C13 1_555 1_555
C13 C14 1_555 1_555
C15 N1 1_555 1_555
C19 C20 1_555 1_555
C27 N2 1_555 1_555
C31 C32 1_555 1_555
C38 O1 1_555 1_555
C42 O2 1_555 1_555
C46 O3 1_555 1_555
Mg1 N2 1_555 1_555
Mg1 O1 1_555 1_555
Mg1 O2 1_555 1_555
Mg1 O3 1_555 1_555

#END
