
#######################################################################
#
#                 Cambridge Crystallographic Data Centre
#                                CCDC 
#
#######################################################################
#
# If this CIF has been generated from an entry in the Cambridge 
# Structural Database, then it will include bibliographic, chemical, 
# crystal, experimental, refinement or atomic coordinate data resulting 
# from the CCDC's data processing and validation procedures.
#
#######################################################################

data_NILTEJ
_chemical_formula_moiety         'C60 H66 Mg2 N2 O6,C4 H8 O1'
_chemical_name_systematic        
'bis(\m~2~-10-((2,6-Diisopropylphenyl)amino)phenanthren-9-olato radical anion)-tetrakis(tetrahydrofuran)-di-magnesium tetrahydrofuran solvate'
_symmetry_cell_setting           monoclinic
_symmetry_space_group_name_H-M   'P 21/n'
_symmetry_Int_Tables_number      14
_space_group_name_Hall           '-P 2yn'
loop_
_symmetry_equiv_pos_site_id
_symmetry_equiv_pos_as_xyz
1 x,y,z
2 1/2-x,1/2+y,1/2-z
3 -x,-y,-z
4 1/2+x,1/2-y,1/2+z
_cell_length_a                   12.5579(10)
_cell_length_b                   21.5689(16)
_cell_length_c                   20.7460(16)
_cell_angle_alpha                90
_cell_angle_beta                 98.633(2)
_cell_angle_gamma                90
_cell_volume                     5555.6
_exptl_crystal_colour            red
_exptl_crystal_description       block
_cell_formula_units_Z            4
loop_
_atom_site_label
_atom_site_type_symbol
_atom_site_fract_x
_atom_site_fract_y
_atom_site_fract_z
C3 C 0.9299(9) 0.2983(4) 0.3545(5)
H5 H 0.9603 0.3216 0.3204
H6 H 0.8747 0.2693 0.3329
C4 C 0.8829(7) 0.3402(4) 0.3960(3)
H7 H 0.8084 0.3274 0.3998
H8 H 0.8813 0.3829 0.3784
C5 C 1.1855(2) 0.30005(13) 0.63884(14)
C6 C 1.2762(2) 0.33168(14) 0.67650(14)
C7 C 1.3761(2) 0.30145(15) 0.69776(15)
H9 H 1.3833 0.2587 0.6882
C8 C 1.4622(3) 0.33232(16) 0.73166(16)
H10 H 1.5273 0.3106 0.7459
C9 C 1.4551(3) 0.39508(16) 0.74530(16)
H11 H 1.5163 0.4172 0.7658
C10 C 1.3588(3) 0.42442(16) 0.72878(15)
H12 H 1.3538 0.4671 0.7395
C11 C 1.2666(2) 0.39449(14) 0.69669(14)
C12 C 1.1631(2) 0.42498(14) 0.68509(14)
C13 C 1.1447(3) 0.48659(14) 0.70467(15)
H13 H 1.2040 0.5105 0.7247
C14 C 1.0446(3) 0.51248(15) 0.69566(16)
H14 H 1.0347 0.5533 0.7109
C15 C 0.9565(3) 0.47922(15) 0.66402(16)
H15 H 0.8871 0.4978 0.6566
C16 C 0.9706(2) 0.41993(14) 0.64383(15)
H16 H 0.9106 0.3978 0.6217
C17 C 1.0730(2) 0.39057(13) 0.65526(14)
C18 C 1.0856(2) 0.32812(13) 0.63510(14)
C19 C 1.2818(2) 0.21345(13) 0.59720(15)
C20 C 1.3134(3) 0.15650(15) 0.62790(17)
C21 C 1.4048(3) 0.12673(16) 0.6133(2)
H17 H 1.4269 0.0889 0.6348
C22 C 1.4644(3) 0.15051(18) 0.5685(2)
H18 H 1.5265 0.1292 0.5590
C23 C 1.4329(3) 0.20564(18) 0.53762(18)
H19 H 1.4736 0.2221 0.5065
C24 C 1.3422(2) 0.23765(15) 0.55137(15)
C25 C 1.3102(3) 0.29757(16) 0.51700(17)
H20 H 1.2332 0.2965 0.4997
H21 H 1.3519 0.3032 0.4811
H22 H 1.3247 0.3321 0.5478
C26 C 1.2520(3) 0.13033(17) 0.67857(19)
H23 H 1.2823 0.0899 0.6931
H24 H 1.1761 0.1253 0.6598
H25 H 1.2577 0.1587 0.7158
C27 C 0.8242(2) 0.15078(13) 0.55794(14)
C28 C 0.7879(2) 0.12576(14) 0.49501(15)
C29 C 0.8140(2) 0.15473(15) 0.43801(15)
H26 H 0.8534 0.1925 0.4418
C30 C 0.7833(3) 0.12916(17) 0.37761(17)
H27 H 0.8017 0.1490 0.3399
C31 C 0.7250(3) 0.07384(17) 0.37173(18)
H28 H 0.7046 0.0557 0.3300
C32 C 0.6973(3) 0.04588(16) 0.42572(17)
H29 H 0.6571 0.0084 0.4207
C33 C 0.7262(2) 0.07049(14) 0.48847(15)
C34 C 0.6939(2) 0.04362(13) 0.54672(16)
C35 C 0.6304(2) -0.01057(14) 0.54333(17)
H30 H 0.6133 -0.0311 0.5026
C36 C 0.5925(3) -0.03451(15) 0.59641(19)
H31 H 0.5503 -0.0712 0.5926
C37 C 0.6166(3) -0.00436(16) 0.65645(18)
H32 H 0.5895 -0.0202 0.6935
C38 C 0.6793(2) 0.04811(15) 0.66204(17)
H33 H 0.6941 0.0681 0.7032
C39 C 0.7224(2) 0.07331(13) 0.60857(15)
C40 C 0.7918(2) 0.12818(13) 0.61411(14)
C41 C 0.8391(2) 0.13470(14) 0.73213(15)
C42 C 0.9128(3) 0.08553(15) 0.74666(16)
C43 C 0.9280(3) 0.05993(17) 0.80862(18)
H34 H 0.9771 0.0265 0.8181
C44 C 0.8733(3) 0.0821(2) 0.85705(19)
H35 H 0.8839 0.0639 0.8992
C45 C 0.8032(3) 0.13089(18) 0.84305(17)
H36 H 0.7663 0.1466 0.8763
C46 C 0.7849(3) 0.15789(16) 0.78150(16)
C47 C 0.7034(3) 0.20925(18) 0.76624(19)
H37 H 0.7386 0.2458 0.7508
H38 H 0.6732 0.2199 0.8057
H39 H 0.6455 0.1954 0.7323
C48 C 0.9753(3) 0.06160(15) 0.69534(17)
H40 H 1.0403 0.0403 0.7164
H41 H 0.9958 0.0964 0.6694
H42 H 0.9305 0.0325 0.6668
O1 O 1.09180(16) 0.14938(9) 0.50561(10)
C49 C 1.0603(3) 0.08631(14) 0.51681(17)
H43 H 0.9882 0.0852 0.5307
H44 H 1.1128 0.0665 0.5510
C50 C 1.0583(3) 0.05331(16) 0.45165(18)
H45 H 0.9835 0.0484 0.4291
H46 H 1.0923 0.0119 0.4579
C51 C 1.1227(3) 0.09567(16) 0.41299(17)
H47 H 1.1787 0.0721 0.3945
H48 H 1.0751 0.1165 0.3771
C52 C 1.1731(3) 0.14228(16) 0.46324(17)
H49 H 1.2413 0.1263 0.4876
H50 H 1.1872 0.1822 0.4425
O2 O 1.01114(16) 0.27806(9) 0.46454(10)
C53 C 1.0195(3) 0.26236(18) 0.39779(16)
H51 H 1.0100 0.2172 0.3907
H52 H 1.0911 0.2744 0.3873
C54 C 0.9572(4) 0.33668(19) 0.4642(2)
H53 H 1.0098 0.3711 0.4692
H54 H 0.9135 0.3389 0.5001
C55 C 1.0547(3) 0.23352(18) 0.76641(18)
H55 H 1.1188 0.2527 0.7520
H56 H 1.0486 0.1901 0.7508
C56 C 1.0621(4) 0.2362(2) 0.8393(2)
H57 H 1.0298 0.1987 0.8559
H58 H 1.1382 0.2393 0.8601
C57 C 1.0014(4) 0.2924(2) 0.8531(2)
H59 H 1.0503 0.3234 0.8771
H60 H 0.9449 0.2817 0.8798
C58 C 0.9521(4) 0.31730(18) 0.78853(18)
H61 H 0.8763 0.3293 0.7893
H62 H 0.9923 0.3541 0.7769
C59 C 0.7204(3) 0.35997(16) 0.66584(19)
H63 H 0.7815 0.3866 0.6845
H64 H 0.6818 0.3459 0.7014
C60 C 0.6456(3) 0.39440(18) 0.6147(2)
H65 H 0.5903 0.4176 0.6342
H66 H 0.6857 0.4236 0.5904
C61 C 0.5961(3) 0.3433(2) 0.5715(2)
H67 H 0.5316 0.3265 0.5877
H68 H 0.5750 0.3582 0.5263
C62 C 0.6819(4) 0.2958(2) 0.5747(3)
H69 H 0.6506 0.2538 0.5769
H70 H 0.7176 0.2982 0.5354
Mg1 Mg 1.03844(7) 0.22693(4) 0.55039(5)
Mg2 Mg 0.88623(8) 0.24802(5) 0.64729(5)
N1 N 0.82238(19) 0.16299(11) 0.67049(12)
N2 N 1.18539(18) 0.24204(11) 0.60957(12)
O3 O 0.99745(15) 0.29562(9) 0.60759(10)
O4 O 0.89182(15) 0.20083(9) 0.56364(10)
O5 O 0.95799(18) 0.26828(10) 0.74241(10)
O6 O 0.75792(17) 0.30734(10) 0.63160(12)
C63 C 0.3399(3) 1.01240(19) 0.9801(2)
H75 H 0.3938 1.0155 1.0200
H76 H 0.3783 1.0106 0.9418
C64 C 0.2710(4) 0.9559(2) 0.9827(2)
H77 H 0.2711 0.9422 1.0282
H78 H 0.2965 0.9213 0.9575
C65 C 0.1593(3) 0.9774(2) 0.9520(2)
H79 H 0.1313 0.9517 0.9136
H80 H 0.1081 0.9756 0.9838
C66 C 0.1772(4) 1.0430(2) 0.9322(3)
H81 H 0.1904 1.0448 0.8864
H82 H 0.1139 1.0691 0.9368
O7 O 0.2693(3) 1.06340(14) 0.97521(17)
C1? C 0.9710(12) 0.3177(7) 0.3604(7)
H1? H 1.0151 0.3296 0.3266
H2? H 0.8973 0.3079 0.3386
C2? C 0.9682(15) 0.3617(6) 0.4003(6)
H3? H 0.9066 0.3893 0.3850
H4? H 1.0352 0.3864 0.4033
H71? H 0.9786 0.2241 0.3841
H72? H 1.0956 0.2565 0.3918
H73? H 0.9923 0.3639 0.4995
H74? H 0.8805 0.3313 0.4690
loop_
_geom_bond_atom_site_label_1
_geom_bond_atom_site_label_2
_geom_bond_site_symmetry_1
_geom_bond_site_symmetry_2
C3 H5 1_555 1_555
H6 C3 1_555 1_555
C4 C3 1_555 1_555
H7 C4 1_555 1_555
H8 C4 1_555 1_555
C5 C6 1_555 1_555
C6 C7 1_555 1_555
C7 H9 1_555 1_555
C8 C7 1_555 1_555
H10 C8 1_555 1_555
C9 C8 1_555 1_555
H11 C9 1_555 1_555
C10 C9 1_555 1_555
H12 C10 1_555 1_555
C11 C6 1_555 1_555
C12 C11 1_555 1_555
C13 C12 1_555 1_555
H13 C13 1_555 1_555
C14 C13 1_555 1_555
H14 C14 1_555 1_555
C15 C14 1_555 1_555
H15 C15 1_555 1_555
C16 C15 1_555 1_555
H16 C16 1_555 1_555
C17 C12 1_555 1_555
C18 C5 1_555 1_555
C19 C20 1_555 1_555
C20 C21 1_555 1_555
C21 H17 1_555 1_555
C22 C21 1_555 1_555
H18 C22 1_555 1_555
C23 C22 1_555 1_555
H19 C23 1_555 1_555
C24 C19 1_555 1_555
C25 C24 1_555 1_555
H20 C25 1_555 1_555
H21 C25 1_555 1_555
H22 C25 1_555 1_555
C26 C20 1_555 1_555
H23 C26 1_555 1_555
H24 C26 1_555 1_555
H25 C26 1_555 1_555
C27 C28 1_555 1_555
C28 C29 1_555 1_555
C29 H26 1_555 1_555
C30 C29 1_555 1_555
H27 C30 1_555 1_555
C31 C30 1_555 1_555
H28 C31 1_555 1_555
C32 C31 1_555 1_555
H29 C32 1_555 1_555
C33 C28 1_555 1_555
C34 C33 1_555 1_555
C35 C34 1_555 1_555
H30 C35 1_555 1_555
C36 C35 1_555 1_555
H31 C36 1_555 1_555
C37 C36 1_555 1_555
H32 C37 1_555 1_555
C38 C37 1_555 1_555
H33 C38 1_555 1_555
C39 C34 1_555 1_555
C40 C27 1_555 1_555
C41 C42 1_555 1_555
C42 C43 1_555 1_555
C43 H34 1_555 1_555
C44 C43 1_555 1_555
H35 C44 1_555 1_555
C45 C44 1_555 1_555
H36 C45 1_555 1_555
C46 C41 1_555 1_555
C47 C46 1_555 1_555
H37 C47 1_555 1_555
H38 C47 1_555 1_555
H39 C47 1_555 1_555
C48 C42 1_555 1_555
H40 C48 1_555 1_555
H41 C48 1_555 1_555
H42 C48 1_555 1_555
O1 C49 1_555 1_555
C49 H43 1_555 1_555
H44 C49 1_555 1_555
C50 C49 1_555 1_555
H45 C50 1_555 1_555
H46 C50 1_555 1_555
C51 C50 1_555 1_555
H47 C51 1_555 1_555
H48 C51 1_555 1_555
C52 O1 1_555 1_555
H49 C52 1_555 1_555
H50 C52 1_555 1_555
O2 C53 1_555 1_555
C53 C3 1_555 1_555
H51 C53 1_555 1_555
H52 C53 1_555 1_555
C54 C4 1_555 1_555
H53 C54 1_555 1_555
H54 C54 1_555 1_555
C55 H55 1_555 1_555
H56 C55 1_555 1_555
C56 C55 1_555 1_555
H57 C56 1_555 1_555
H58 C56 1_555 1_555
C57 C56 1_555 1_555
H59 C57 1_555 1_555
H60 C57 1_555 1_555
C58 C57 1_555 1_555
H61 C58 1_555 1_555
H62 C58 1_555 1_555
C59 H63 1_555 1_555
H64 C59 1_555 1_555
C60 C59 1_555 1_555
H65 C60 1_555 1_555
H66 C60 1_555 1_555
C61 C60 1_555 1_555
H67 C61 1_555 1_555
H68 C61 1_555 1_555
C62 C61 1_555 1_555
H69 C62 1_555 1_555
H70 C62 1_555 1_555
Mg1 O1 1_555 1_555
Mg2 N1 1_555 1_555
N1 C40 1_555 1_555
N2 C5 1_555 1_555
O3 C18 1_555 1_555
O4 C27 1_555 1_555
O5 C55 1_555 1_555
O6 C59 1_555 1_555
C63 H75 1_555 1_555
H76 C63 1_555 1_555
C64 C63 1_555 1_555
H77 C64 1_555 1_555
H78 C64 1_555 1_555
C65 C64 1_555 1_555
H79 C65 1_555 1_555
H80 C65 1_555 1_555
C66 C65 1_555 1_555
H81 C66 1_555 1_555
H82 C66 1_555 1_555
O7 C63 1_555 1_555
C10 C11 1_555 1_555
C16 C17 1_555 1_555
C17 C18 1_555 1_555
C19 N2 1_555 1_555
C23 C24 1_555 1_555
C32 C33 1_555 1_555
C38 C39 1_555 1_555
C39 C40 1_555 1_555
C41 N1 1_555 1_555
C45 C46 1_555 1_555
C51 C52 1_555 1_555
O2 C54 1_555 1_555
O2 Mg1 1_555 1_555
C58 O5 1_555 1_555
C62 O6 1_555 1_555
Mg1 N2 1_555 1_555
Mg1 O3 1_555 1_555
Mg1 O4 1_555 1_555
Mg2 O3 1_555 1_555
Mg2 O4 1_555 1_555
Mg2 O5 1_555 1_555
Mg2 O6 1_555 1_555
C66 O7 1_555 1_555

#END
