
#######################################################################
#
#                 Cambridge Crystallographic Data Centre
#                                CCDC 
#
#######################################################################
#
# If this CIF has been generated from an entry in the Cambridge 
# Structural Database, then it will include bibliographic, chemical, 
# crystal, experimental, refinement or atomic coordinate data resulting 
# from the CCDC's data processing and validation procedures.
#
#######################################################################

data_NILTEK
_chemical_formula_moiety         'C20 H20 O2'
_chemical_name_systematic        
'(Z)-3,5-dimethyl-2,4-diphenylhexa-2,4-dienoic acid'
_symmetry_cell_setting           monoclinic
_symmetry_space_group_name_H-M   'P 21/c'
_symmetry_Int_Tables_number      14
_space_group_name_Hall           '-P 2ybc'
loop_
_symmetry_equiv_pos_site_id
_symmetry_equiv_pos_as_xyz
1 x,y,z
2 -x,1/2+y,1/2-z
3 -x,-y,-z
4 x,1/2-y,1/2+z
_cell_length_a                   12.5350(8)
_cell_length_b                   7.6169(5)
_cell_length_c                   17.5468(10)
_cell_angle_alpha                90
_cell_angle_beta                 90.243(4)
_cell_angle_gamma                90
_cell_volume                     1675.32
_exptl_crystal_colour            colorless
_chemical_melting_point          '115-117 deg.C'
_cell_formula_units_Z            4
loop_
_atom_site_label
_atom_site_type_symbol
_atom_site_fract_x
_atom_site_fract_y
_atom_site_fract_z
C1 C 0.65042(18) 0.5363(2) 0.25996(9)
H1 H 0.6436 0.6104 0.2167
C2 C 0.56588(18) 0.4357(3) 0.28287(10)
H2 H 0.5005 0.4398 0.2553
C3 C 0.57543(15) 0.3280(2) 0.34616(9)
H3 H 0.5163 0.2586 0.3615
C4 C 0.67001(13) 0.31994(18) 0.38760(8)
C5 C 0.68027(11) 0.21149(17) 0.45836(8)
C6 C 0.71827(12) 0.31570(16) 0.52548(8)
C7 C 0.81535(12) 0.30060(17) 0.55745(8)
C8 C 0.85137(12) 0.41060(17) 0.62343(8)
C9 C 0.81909(13) 0.37668(18) 0.69766(8)
H4 H 0.7707 0.2834 0.7074
C10 C 0.85680(13) 0.47769(19) 0.75750(8)
H5 H 0.8339 0.4536 0.8080
C11 C 0.92740(13) 0.6131(2) 0.74447(9)
H6 H 0.9544 0.6804 0.7858
C12 C 0.74547(17) 0.5301(2) 0.29973(9)
H7 H 0.8045 0.5984 0.2834
C13 C 0.75477(14) 0.42369(18) 0.36382(9)
H8 H 0.8199 0.4219 0.3917
C14 C 0.63687(13) 0.44366(18) 0.55518(9)
H9 H 0.5786 0.3791 0.5795
H10 H 0.6085 0.5135 0.5128
H11 H 0.6706 0.5217 0.5926
C15 C 0.95851(15) 0.6500(2) 0.67090(9)
H12 H 1.0059 0.7448 0.6614
C16 C 0.92078(14) 0.5492(2) 0.61066(9)
H13 H 0.9427 0.5754 0.5602
C17 C 0.89507(12) 0.17136(17) 0.52925(8)
C18 C 0.65540(13) 0.04086(19) 0.46305(8)
C19 C 0.62230(15) -0.0693(2) 0.39586(10)
H14 H 0.6332 -0.0026 0.3488
H15 H 0.5467 -0.1004 0.4005
H16 H 0.6654 -0.1766 0.3945
C20 C 0.66411(15) -0.06130(19) 0.53603(9)
H17 H 0.7262 -0.1393 0.5337
H18 H 0.5993 -0.1314 0.5431
H19 H 0.6725 0.0201 0.5789
O1 O 0.95899(12) 0.11566(18) 0.58304(7)
H20 H 1.0012 0.0409 0.5650
O2 O 0.90280(9) 0.12101(14) 0.46385(6)
loop_
_geom_bond_atom_site_label_1
_geom_bond_atom_site_label_2
_geom_bond_site_symmetry_1
_geom_bond_site_symmetry_2
C1 H1 1_555 1_555
C2 C1 1_555 1_555
H2 C2 1_555 1_555
C3 C2 1_555 1_555
H3 C3 1_555 1_555
C4 C3 1_555 1_555
C5 C4 1_555 1_555
C6 C5 1_555 1_555
C7 C6 1_555 1_555
C8 C7 1_555 1_555
C9 C8 1_555 1_555
H4 C9 1_555 1_555
C10 C9 1_555 1_555
H5 C10 1_555 1_555
C11 C10 1_555 1_555
H6 C11 1_555 1_555
C12 C1 1_555 1_555
H7 C12 1_555 1_555
C13 C4 1_555 1_555
H8 C13 1_555 1_555
C14 C6 1_555 1_555
H9 C14 1_555 1_555
H10 C14 1_555 1_555
H11 C14 1_555 1_555
C15 C11 1_555 1_555
H12 C15 1_555 1_555
C16 C8 1_555 1_555
H13 C16 1_555 1_555
C17 C7 1_555 1_555
C18 C5 1_555 1_555
C19 C18 1_555 1_555
H14 C19 1_555 1_555
H15 C19 1_555 1_555
H16 C19 1_555 1_555
C20 C18 1_555 1_555
H17 C20 1_555 1_555
H18 C20 1_555 1_555
H19 C20 1_555 1_555
O1 C17 1_555 1_555
H20 O1 1_555 1_555
O2 C17 1_555 1_555
C12 C13 1_555 1_555
C15 C16 1_555 1_555

#END
