
#######################################################################
#
#                 Cambridge Crystallographic Data Centre
#                                CCDC 
#
#######################################################################
#
# If this CIF has been generated from an entry in the Cambridge 
# Structural Database, then it will include bibliographic, chemical, 
# crystal, experimental, refinement or atomic coordinate data resulting 
# from the CCDC's data processing and validation procedures.
#
#######################################################################

data_NILWIR
_chemical_formula_moiety         'C33 H36 O8 S1'
_chemical_name_systematic        
'phenyl 2,3-di-O-benzoyl-4,6-O-(1,1-diethyl-1-hydroxyethylidene)-1-thio-\b-D-galactopyranoside'
_symmetry_cell_setting           monoclinic
_symmetry_space_group_name_H-M   'P 21'
_symmetry_Int_Tables_number      4
_space_group_name_Hall           'P 2yb'
loop_
_symmetry_equiv_pos_site_id
_symmetry_equiv_pos_as_xyz
1 x,y,z
2 -x,1/2+y,-z
_cell_length_a                   12.119(5)
_cell_length_b                   9.992(5)
_cell_length_c                   12.795(6)
_cell_angle_alpha                90
_cell_angle_beta                 103.08(2)
_cell_angle_gamma                90
_cell_volume                     1509.19
_cell_formula_units_Z            2
loop_
_atom_site_label
_atom_site_type_symbol
_atom_site_fract_x
_atom_site_fract_y
_atom_site_fract_z
S1 S 0.99485(5) 0.39086(6) 0.43420(5)
O1 O 0.58458(13) 0.44947(17) 0.34578(13)
O2 O 0.88666(14) 0.64543(17) 0.30451(12)
O3 O 0.80173(13) 0.41861(16) 0.49338(13)
O4 O 0.52841(13) 0.39255(19) 0.50352(13)
O5 O 0.33047(15) 0.3101(2) 0.41710(16)
H1 H 0.355925 0.337584 0.479978
O6 O 0.64719(13) 0.67643(16) 0.25391(12)
O7 O 0.59569(15) 0.86287(18) 0.32913(13)
O8 O 0.85651(17) 0.5533(2) 0.14012(14)
C1 C 0.3852(3) 0.3610(4) 0.1434(2)
H2 H 0.355530 0.452130 0.129755
H3 H 0.356700 0.305365 0.079954
H4 H 0.468163 0.363230 0.158856
C2 C 0.3467(2) 0.3025(3) 0.2391(2)
H5 H 0.372817 0.208443 0.248507
H6 H 0.262875 0.301362 0.222211
C3 C 0.38843(19) 0.3760(3) 0.3457(2)
C4 C 0.51841(19) 0.3587(2) 0.39420(19)
C5 C 0.63733(19) 0.5538(2) 0.41446(18)
H7 H 0.578180 0.613688 0.432533
C6 C 0.71176(19) 0.6332(2) 0.35713(18)
H8 H 0.740872 0.713804 0.401093
C7 C 0.81151(18) 0.5527(2) 0.33853(18)
H9 H 0.786528 0.480847 0.283934
C8 C 0.9009(2) 0.6374(3) 0.20294(19)
C9 C 0.9762(2) 0.7448(3) 0.17991(19)
C10 C 1.03026(19) 0.8333(3) 0.25747(19)
H10 H 1.020389 0.826330 0.328843
C11 C 1.0991(2) 0.9326(3) 0.2308(2)
H11 H 1.135739 0.994234 0.283966
C12 C 1.1144(2) 0.9421(3) 0.1277(2)
H12 H 1.161675 1.010053 0.109700
C13 C 0.8161(3) 0.0454(3) 0.2343(3)
H13 H 0.777406 -0.025867 0.192245
C14 C 0.8720(3) 0.1402(4) 0.1878(3)
H14 H 0.873524 0.132372 0.114161
C15 C 0.9263(3) 0.2474(3) 0.2475(2)
H15 H 0.963864 0.313403 0.214904
C16 C 0.9247(2) 0.2565(3) 0.3554(2)
C17 C 0.87579(19) 0.4945(2) 0.44557(18)
H16 H 0.905246 0.570818 0.494570
C18 C 0.7116(2) 0.4974(3) 0.51716(19)
H17 H 0.742917 0.571464 0.567797
C19 C 0.63993(19) 0.4030(3) 0.56833(19)
H18 H 0.675566 0.313376 0.577401
H19 H 0.636556 0.437028 0.640222
C20 C 0.3572(2) 0.5247(3) 0.3375(2)
H20 H 0.381103 0.565689 0.409561
H21 H 0.400085 0.569205 0.289963
C21 C 0.2311(2) 0.5513(3) 0.2944(3)
H22 H 0.209150 0.523930 0.219022
H23 H 0.215761 0.646938 0.300304
H24 H 0.187331 0.499942 0.336364
C22 C 0.5628(2) 0.2201(3) 0.3809(2)
H25 H 0.640550 0.212104 0.423726
H26 H 0.562085 0.204528 0.305081
H27 H 0.514699 0.153549 0.405142
C23 C 0.58584(19) 0.7893(3) 0.25333(19)
C24 C 0.5054(2) 0.8096(3) 0.14892(19)
C25 C 0.4776(2) 0.7060(3) 0.0757(2)
H28 H 0.513621 0.621395 0.090062
C26 C 0.3969(2) 0.7266(3) -0.0188(2)
H29 H 0.377113 0.655772 -0.069045
C27 C 0.3456(2) 0.8493(3) -0.0398(2)
H30 H 0.290425 0.862925 -0.104590
C28 C 0.3737(2) 0.9532(3) 0.0327(2)
H31 H 0.338656 1.038204 0.017300
C29 C 0.4529(2) 0.9331(3) 0.1279(2)
H32 H 0.471284 1.003623 0.178609
C30 C 1.0614(3) 0.8534(4) 0.0513(3)
H33 H 1.071965 0.860326 -0.019852
C31 C 0.9927(3) 0.7542(4) 0.0763(2)
H34 H 0.956769 0.692464 0.022888
C32 C 0.8709(2) 0.1584(3) 0.4025(2)
H35 H 0.871704 0.163255 0.476783
C33 C 0.8164(2) 0.0538(3) 0.3418(3)
H36 H 0.778881 -0.012543 0.374121
loop_
_geom_bond_atom_site_label_1
_geom_bond_atom_site_label_2
_geom_bond_site_symmetry_1
_geom_bond_site_symmetry_2
S1 C16 1_555 1_555
O1 C4 1_555 1_555
O2 C7 1_555 1_555
O3 C17 1_555 1_555
O4 C4 1_555 1_555
O5 H1 1_555 1_555
O6 C6 1_555 1_555
O7 C23 1_555 1_555
O8 C8 1_555 1_555
C1 H2 1_555 1_555
H3 C1 1_555 1_555
H4 C1 1_555 1_555
C2 C1 1_555 1_555
H5 C2 1_555 1_555
H6 C2 1_555 1_555
C3 O5 1_555 1_555
C4 C3 1_555 1_555
C5 O1 1_555 1_555
H7 C5 1_555 1_555
C6 C5 1_555 1_555
H8 C6 1_555 1_555
C7 C6 1_555 1_555
H9 C7 1_555 1_555
C8 O2 1_555 1_555
C9 C8 1_555 1_555
C10 C9 1_555 1_555
H10 C10 1_555 1_555
C11 C10 1_555 1_555
H11 C11 1_555 1_555
C12 C11 1_555 1_555
H12 C12 1_555 1_555
C13 H13 1_555 1_555
C14 C13 1_555 1_555
H14 C14 1_555 1_555
C15 C14 1_555 1_555
H15 C15 1_555 1_555
C16 C15 1_555 1_555
C17 S1 1_555 1_555
H16 C17 1_555 1_555
C18 O3 1_555 1_555
H17 C18 1_555 1_555
C19 O4 1_555 1_555
H18 C19 1_555 1_555
H19 C19 1_555 1_555
C20 C3 1_555 1_555
H20 C20 1_555 1_555
H21 C20 1_555 1_555
C21 C20 1_555 1_555
H22 C21 1_555 1_555
H23 C21 1_555 1_555
H24 C21 1_555 1_555
C22 C4 1_555 1_555
H25 C22 1_555 1_555
H26 C22 1_555 1_555
H27 C22 1_555 1_555
C23 O6 1_555 1_555
C24 C23 1_555 1_555
C25 C24 1_555 1_555
H28 C25 1_555 1_555
C26 C25 1_555 1_555
H29 C26 1_555 1_555
C27 C26 1_555 1_555
H30 C27 1_555 1_555
C28 C27 1_555 1_555
H31 C28 1_555 1_555
C29 C24 1_555 1_555
H32 C29 1_555 1_555
C30 C12 1_555 1_555
H33 C30 1_555 1_555
C31 C9 1_555 1_555
H34 C31 1_555 1_555
C32 C16 1_555 1_555
H35 C32 1_555 1_555
C33 C13 1_555 1_555
H36 C33 1_555 1_555
C2 C3 1_555 1_555
C5 C18 1_555 1_555
C7 C17 1_555 1_555
C18 C19 1_555 1_555
C28 C29 1_555 1_555
C30 C31 1_555 1_555
C32 C33 1_555 1_555

#END
