
#######################################################################
#
#                 Cambridge Crystallographic Data Centre
#                                CCDC 
#
#######################################################################
#
# If this CIF has been generated from an entry in the Cambridge 
# Structural Database, then it will include bibliographic, chemical, 
# crystal, experimental, refinement or atomic coordinate data resulting 
# from the CCDC's data processing and validation procedures.
#
#######################################################################

data_NILXOV
_chemical_formula_moiety         'C11 H18 N1 1+,0.5(O4 S1 2-),H2 O1'
_chemical_name_systematic        'Mephentermine hemisulfate monohydrate'
_chemical_properties_biological  'adrenergic agent'
_symmetry_cell_setting           monoclinic
_symmetry_space_group_name_H-M   'P 21/c'
_symmetry_Int_Tables_number      14
_space_group_name_Hall           '-P 2ybc'
loop_
_symmetry_equiv_pos_site_id
_symmetry_equiv_pos_as_xyz
1 x,y,z
2 -x,1/2+y,1/2-z
3 -x,-y,-z
4 x,1/2-y,1/2+z
_cell_length_a                   30.150(10)
_cell_length_b                   6.644(2)
_cell_length_c                   12.685(7)
_cell_angle_alpha                90
_cell_angle_beta                 102.60(4)
_cell_angle_gamma                90
_cell_volume                     2479.82
_exptl_crystal_colour            colorless
_exptl_crystal_description       needle
_cell_formula_units_Z            8
loop_
_atom_site_label
_atom_site_type_symbol
_atom_site_fract_x
_atom_site_fract_y
_atom_site_fract_z
S1 S 0.2534(4) 0.74398(10) 0.2511(3)
O1 O 0.2234(2) 0.6155(6) 0.3061(3)
O2 O 0.2752(3) 0.6148(6) 0.1902(3)
O3 O 0.2813(3) 0.8729(5) 0.3290(3)
O4 O 0.2215(3) 0.8700(6) 0.1718(2)
C1 C 0.4073(3) 1.1070(7) 0.5810(5)
C2 C 0.4259(4) 1.1733(9) 0.6853(6)
H1 H 0.4103(4) 1.1520(9) 0.7400(6)
C3 C 0.4674(6) 1.2709(12) 0.7080(9)
H2 H 0.4797(6) 1.3152(12) 0.7779(9)
C4 C 0.4907(4) 1.3025(9) 0.6269(6)
H3 H 0.5187(4) 1.3677(9) 0.6421(6)
C5 C 0.4723(6) 1.2366(11) 0.5224(9)
H4 H 0.4879(6) 1.2580(11) 0.4678(9)
C6 C 0.4307(5) 1.1393(10) 0.4996(6)
H5 H 0.4184(5) 1.0954(10) 0.4297(6)
C7 C 0.3616(4) 1.0023(8) 0.5526(5)
H6 H 0.3432(4) 1.0441(8) 0.6026(5)
H7 H 0.3459(4) 1.0413(8) 0.4804(5)
N1 N 0.3177(4) 0.7045(8) 0.5365(4)
H8 H 0.3055(4) 0.7593(8) 0.5885(4)
H9 H 0.3034(4) 0.7612(8) 0.4738(4)
C8 C 0.3674(6) 0.7764(12) 0.5576(6)
C9 C 0.3883(5) 0.6750(9) 0.4819(6)
H10 H 0.3893(5) 0.5331(9) 0.4965(6)
H11 H 0.4187(5) 0.7247(9) 0.4885(6)
H12 H 0.3711(5) 0.6991(9) 0.4100(6)
C10 C 0.3044(2) 0.4861(5) 0.5300(4)
H13 H 0.2719(2) 0.4750(5) 0.5161(4)
H14 H 0.3176(2) 0.4210(5) 0.5971(4)
H15 H 0.3154(2) 0.4229(5) 0.4725(4)
C11 C 0.3825(3) 0.7041(5) 0.6753(3)
H16 H 0.3668(3) 0.7801(5) 0.7204(3)
H17 H 0.4147(3) 0.7232(5) 0.6995(3)
H18 H 0.3754(3) 0.5639(5) 0.6795(3)
C12 C 0.0902(3) 1.1034(5) 0.9250(3)
C13 C 0.0724(3) 1.1741(5) 0.8213(3)
H19 H 0.0882(3) 1.1550(5) 0.7669(3)
C14 C 0.0307(4) 1.2733(10) 0.7990(5)
H20 H 0.0188(4) 1.3208(10) 0.7296(5)
C15 C 0.0069(4) 1.3016(9) 0.8799(6)
H21 H -0.0209(4) 1.3678(9) 0.8647(6)
C16 C 0.0246(6) 1.2316(11) 0.9835(8)
H22 H 0.0087(6) 1.2506(11) 1.0378(8)
C17 C 0.0663(6) 1.1327(13) 1.0060(8)
H23 H 0.0783(6) 1.0859(13) 1.0755(8)
C18 C 0.1362(4) 0.9997(10) 0.9454(5)
H24 H 0.1519(4) 1.0327(10) 1.0185(5)
H25 H 0.1534(4) 1.0600(10) 0.8973(5)
N2 N 0.1888(5) 0.7120(8) 0.9680(5)
H26 H 0.2043(5) 0.7711(8) 0.9234(5)
H27 H 0.1996(5) 0.7595(8) 1.0351(5)
C19 C 0.1387(6) 0.7634(10) 0.9324(6)
C20 C 0.1112(5) 0.6730(9) 1.0142(5)
H28 H 0.1261(5) 0.7086(9) 1.0867(5)
H29 H 0.1100(5) 0.5291(9) 1.0073(5)
H30 H 0.0809(5) 0.7264(9) 0.9984(5)
C21 C 0.1146(3) 0.7051(7) 0.8178(4)
H31 H 0.1310(3) 0.7590(7) 0.7673(4)
H32 H 0.0843(3) 0.7584(7) 0.8025(4)
H33 H 0.1134(3) 0.5611(7) 0.8116(4)
C22 C 0.1956(3) 0.4901(7) 0.9668(4)
H34 H 0.2274(3) 0.4601(7) 0.9894(4)
H35 H 0.1844(3) 0.4398(7) 0.8950(4)
H36 H 0.1794(3) 0.4274(7) 1.0153(4)
O5 O 0.1756(5) 0.2510(5) 0.2130(3)
H37 H 0.2004 0.3479 0.2417
H38 H 0.2004 0.1479 0.2020
O6 O 0.3184(5) 1.2515(6) 0.2884(4)
H39 H 0.3004 1.3457 0.2587
H40 H 0.3004 1.1494 0.2977
loop_
_geom_bond_atom_site_label_1
_geom_bond_atom_site_label_2
_geom_bond_site_symmetry_1
_geom_bond_site_symmetry_2
S1 O1 1_555 1_555
O2 S1 1_555 1_555
O3 S1 1_555 1_555
O4 S1 1_555 1_555
C1 C2 1_555 1_555
C2 H1 1_555 1_555
C3 C2 1_555 1_555
H2 C3 1_555 1_555
C4 C3 1_555 1_555
H3 C4 1_555 1_555
C5 C4 1_555 1_555
H4 C5 1_555 1_555
C6 C1 1_555 1_555
H5 C6 1_555 1_555
C7 C1 1_555 1_555
H6 C7 1_555 1_555
H7 C7 1_555 1_555
N1 H8 1_555 1_555
H9 N1 1_555 1_555
C8 C7 1_555 1_555
C9 C8 1_555 1_555
H10 C9 1_555 1_555
H11 C9 1_555 1_555
H12 C9 1_555 1_555
C10 N1 1_555 1_555
H13 C10 1_555 1_555
H14 C10 1_555 1_555
H15 C10 1_555 1_555
C11 C8 1_555 1_555
H16 C11 1_555 1_555
H17 C11 1_555 1_555
H18 C11 1_555 1_555
C12 C13 1_555 1_555
C13 H19 1_555 1_555
C14 C13 1_555 1_555
H20 C14 1_555 1_555
C15 C14 1_555 1_555
H21 C15 1_555 1_555
C16 C15 1_555 1_555
H22 C16 1_555 1_555
C17 C12 1_555 1_555
H23 C17 1_555 1_555
C18 C12 1_555 1_555
H24 C18 1_555 1_555
H25 C18 1_555 1_555
N2 H26 1_555 1_555
H27 N2 1_555 1_555
C19 C18 1_555 1_555
C20 C19 1_555 1_555
H28 C20 1_555 1_555
H29 C20 1_555 1_555
H30 C20 1_555 1_555
C21 C19 1_555 1_555
H31 C21 1_555 1_555
H32 C21 1_555 1_555
H33 C21 1_555 1_555
C22 N2 1_555 1_555
H34 C22 1_555 1_555
H35 C22 1_555 1_555
H36 C22 1_555 1_555
O5 H37 1_555 1_555
H38 O5 1_555 1_555
O6 H39 1_555 1_555
H40 O6 1_555 1_555
C5 C6 1_555 1_555
N1 C8 1_555 1_555
C16 C17 1_555 1_555
N2 C19 1_555 1_555

#END
