
#######################################################################
#
#                 Cambridge Crystallographic Data Centre
#                                CCDC 
#
#######################################################################
#
# If this CIF has been generated from an entry in the Cambridge 
# Structural Database, then it will include bibliographic, chemical, 
# crystal, experimental, refinement or atomic coordinate data resulting 
# from the CCDC's data processing and validation procedures.
#
#######################################################################

data_NILXEN
_chemical_formula_moiety         'C13 H13 N1 O1'
_chemical_name_systematic        1-(6-(Methylamino)-2-naphthyl)ethanone
_symmetry_cell_setting           monoclinic
_symmetry_space_group_name_H-M   'P 21/c'
_symmetry_Int_Tables_number      14
_space_group_name_Hall           '-P 2ybc'
loop_
_symmetry_equiv_pos_site_id
_symmetry_equiv_pos_as_xyz
1 x,y,z
2 -x,1/2+y,1/2-z
3 -x,-y,-z
4 x,1/2-y,1/2+z
_cell_length_a                   6.3141(13)
_cell_length_b                   7.7819(16)
_cell_length_c                   22.078(4)
_cell_angle_alpha                90
_cell_angle_beta                 94.29(3)
_cell_angle_gamma                90
_cell_volume                     1081.78
_exptl_crystal_colour            colorless
_exptl_crystal_description       plate
_cell_formula_units_Z            4
loop_
_atom_site_label
_atom_site_type_symbol
_atom_site_fract_x
_atom_site_fract_y
_atom_site_fract_z
C1 C -0.1181(6) 0.7769(6) 0.48100(17)
H1 H -0.1364 0.7886 0.5236
H2 H -0.2287 0.7053 0.4626
H3 H -0.1248 0.8882 0.4622
C2 C 0.0938(6) 0.6967(4) 0.47266(15)
C3 C 0.1643(5) 0.6677(4) 0.41098(14)
C4 C 0.3575(5) 0.5803(4) 0.40431(14)
H4 H 0.4335 0.5364 0.4386
C5 C 0.4352(5) 0.5589(4) 0.34856(15)
H5 H 0.5632 0.5015 0.3456
C6 C 0.3228(5) 0.6232(4) 0.29496(14)
C7 C 0.1268(5) 0.7092(4) 0.30116(14)
C8 C 0.0521(5) 0.7295(4) 0.35935(14)
H6 H -0.0761 0.7859 0.3631
C9 C 0.0129(6) 0.7735(5) 0.24784(15)
H7 H -0.1147 0.8313 0.2510
C10 C 0.0887(5) 0.7512(5) 0.19229(14)
H8 H 0.0125 0.7954 0.1581
C11 C 0.2816(5) 0.6620(4) 0.18528(13)
C12 C 0.3976(5) 0.6009(4) 0.23625(14)
H9 H 0.5257 0.5446 0.2322
C13 C 0.5408(6) 0.5635(6) 0.11439(17)
H10 H 0.6544 0.6305 0.1337
H11 H 0.5532 0.5618 0.0713
H12 H 0.5486 0.4482 0.1299
N1 N 0.3403(5) 0.6384(4) 0.12688(13)
H13 H 0.2541 0.6697 0.0969
O1 O 0.2092(5) 0.6557(4) 0.51757(11)
loop_
_geom_bond_atom_site_label_1
_geom_bond_atom_site_label_2
_geom_bond_site_symmetry_1
_geom_bond_site_symmetry_2
C1 H1 1_555 1_555
H2 C1 1_555 1_555
H3 C1 1_555 1_555
C2 C1 1_555 1_555
C3 C2 1_555 1_555
C4 C3 1_555 1_555
H4 C4 1_555 1_555
C5 C4 1_555 1_555
H5 C5 1_555 1_555
C6 C5 1_555 1_555
C7 C6 1_555 1_555
C8 C3 1_555 1_555
H6 C8 1_555 1_555
C9 C7 1_555 1_555
H7 C9 1_555 1_555
C10 C9 1_555 1_555
H8 C10 1_555 1_555
C11 C10 1_555 1_555
C12 C6 1_555 1_555
H9 C12 1_555 1_555
C13 H10 1_555 1_555
H11 C13 1_555 1_555
H12 C13 1_555 1_555
N1 C11 1_555 1_555
H13 N1 1_555 1_555
O1 C2 1_555 1_555
C7 C8 1_555 1_555
C11 C12 1_555 1_555
C13 N1 1_555 1_555

#END
