
#######################################################################
#
#                 Cambridge Crystallographic Data Centre
#                                CCDC 
#
#######################################################################
#
# If this CIF has been generated from an entry in the Cambridge 
# Structural Database, then it will include bibliographic, chemical, 
# crystal, experimental, refinement or atomic coordinate data resulting 
# from the CCDC's data processing and validation procedures.
#
#######################################################################

data_NILYUE
_chemical_formula_moiety         'C13 H16 O4'
_chemical_name_systematic        
6,8-Dimethoxytricyclo[5.3.1.0^1,5^]undec-8-ene-10,11-dione
_symmetry_cell_setting           triclinic
_symmetry_space_group_name_H-M   'P -1'
_symmetry_Int_Tables_number      2
_space_group_name_Hall           '-P 1'
loop_
_symmetry_equiv_pos_site_id
_symmetry_equiv_pos_as_xyz
1 x,y,z
2 -x,-y,-z
_cell_length_a                   10.569(2)
_cell_length_b                   11.470(2)
_cell_length_c                   11.7872(18)
_cell_angle_alpha                72.487(9)
_cell_angle_beta                 64.856(8)
_cell_angle_gamma                69.056(10)
_cell_volume                     1189.14
_exptl_crystal_colour            colorless
_cell_formula_units_Z            4
loop_
_atom_site_label
_atom_site_type_symbol
_atom_site_fract_x
_atom_site_fract_y
_atom_site_fract_z
O1 O 0.5480(2) 0.36784(19) 0.2629(2)
O2 O 0.6284(2) -0.0725(2) 0.4044(2)
O3 O 0.8776(2) 0.2063(2) 0.2396(2)
O4 O 0.7548(3) 0.0217(3) 0.0043(2)
C1 C 0.6271(3) 0.0253(3) 0.3288(3)
C2 C 0.5264(3) 0.2449(3) 0.3139(3)
H1 H 0.4452 0.2466 0.3955
C3 C 0.4920(3) 0.2028(3) 0.2215(3)
H2 H 0.5193 0.2567 0.1376
C4 C 0.6619(3) 0.1407(3) 0.3325(3)
H3 H 0.6720 0.1359 0.4128
C5 C 0.7968(3) 0.1532(3) 0.2182(3)
C6 C 0.8279(3) 0.1153(3) 0.1101(3)
H4 H 0.9131 0.1231 0.0419
C7 C 0.7283(3) 0.0618(3) 0.0992(3)
C8 C 0.5582(4) 0.4237(3) 0.3503(4)
H5 H 0.5712 0.5070 0.3104
H6 H 0.6394 0.3721 0.3754
H7 H 0.4708 0.4296 0.4240
C9 C 1.0107(4) 0.2234(4) 0.1379(4)
H8 H 1.0582 0.2616 0.1649
H9 H 0.9895 0.2776 0.0647
H10 H 1.0731 0.1426 0.1163
C10 C 0.3364(4) 0.1952(4) 0.2615(4)
H11 H 0.2754 0.2323 0.3375
H12 H 0.2984 0.2434 0.1944
C11 C 0.5859(3) 0.0624(3) 0.2119(3)
C12 C 0.4895(4) -0.0091(3) 0.2109(4)
H13 H 0.5115 -0.0964 0.2536
H14 H 0.5001 -0.0076 0.1246
C13 C 0.3573(10) 0.0916(7) 0.1951(15)
H15 H 0.2734 0.0578 0.2338
H16 H 0.3721 0.1241 0.1056
O5 O 0.8700(2) 0.5044(2) 0.8949(2)
O6 O 1.0944(2) 0.2450(2) 0.7948(2)
O7 O 0.8149(2) 0.5086(2) 0.5484(2)
O8 O 0.5604(2) 0.3049(2) 0.8711(2)
C15 C 0.9291(3) 0.2150(3) 0.7216(3)
H19 H 0.9033 0.1678 0.8090
C16 C 1.0293(3) 0.2941(3) 0.7020(3)
H20 H 1.1048 0.2918 0.6172
C17 C 0.7053(3) 0.4038(3) 0.8962(3)
H21 H 0.6430 0.4169 0.9781
C18 C 0.8253(3) 0.4451(3) 0.8418(3)
C19 C 0.9287(3) 0.4312(3) 0.7090(3)
H22 H 0.9819 0.4964 0.6687
C20 C 0.8381(3) 0.4325(3) 0.6380(3)
C21 C 0.6718(3) 0.3391(3) 0.8287(3)
C22 C 0.7885(3) 0.3117(3) 0.6998(3)
C23 C 0.7528(4) 0.2589(4) 0.6171(4)
H23 H 0.7075 0.3264 0.5624
H24 H 0.6891 0.2042 0.6684
C24 C 0.9842(4) 0.1244(3) 0.6285(4)
H25 H 1.0873 0.1130 0.5814
H26 H 0.9673 0.0423 0.6738
C25 C 1.2091(4) 0.2977(4) 0.7680(4)
H27 H 1.2494 0.2612 0.8341
H28 H 1.1724 0.3878 0.7641
H29 H 1.2829 0.2796 0.6878
C26 C 0.9009(5) 0.1841(4) 0.5395(4)
H30 H 0.8911 0.1195 0.5087
H31 H 0.9501 0.2399 0.4670
C27 C 0.7799(5) 0.5272(4) 1.0220(4)
H32 H 0.8234 0.5685 1.0499
H33 H 0.7703 0.4480 1.0781
H34 H 0.6859 0.5804 1.0228
C14? C 0.3329(10) 0.0673(13) 0.286(3)
H17? H 0.2623 0.0614 0.2573
H18? H 0.3066 0.0337 0.3765
loop_
_geom_bond_atom_site_label_1
_geom_bond_atom_site_label_2
_geom_bond_site_symmetry_1
_geom_bond_site_symmetry_2
O1 C2 1_555 1_555
O2 C1 1_555 1_555
O3 C5 1_555 1_555
O4 C7 1_555 1_555
C1 C4 1_555 1_555
C2 H1 1_555 1_555
C3 C2 1_555 1_555
H2 C3 1_555 1_555
C4 C2 1_555 1_555
H3 C4 1_555 1_555
C5 C4 1_555 1_555
C6 C5 1_555 1_555
H4 C6 1_555 1_555
C7 C6 1_555 1_555
C8 O1 1_555 1_555
H5 C8 1_555 1_555
H6 C8 1_555 1_555
H7 C8 1_555 1_555
C9 O3 1_555 1_555
H8 C9 1_555 1_555
H9 C9 1_555 1_555
H10 C9 1_555 1_555
C10 C3 1_555 1_555
H11 C10 1_555 1_555
H12 C10 1_555 1_555
C11 C1 1_555 1_555
C12 C11 1_555 1_555
H13 C12 1_555 1_555
H14 C12 1_555 1_555
C13 C10 1_555 1_555
H15 C13 1_555 1_555
H16 C13 1_555 1_555
O5 C18 1_555 1_555
O6 C16 1_555 1_555
O7 C20 1_555 1_555
O8 C21 1_555 1_555
C15 H19 1_555 1_555
C16 C15 1_555 1_555
H20 C16 1_555 1_555
C17 H21 1_555 1_555
C18 C17 1_555 1_555
C19 C16 1_555 1_555
H22 C19 1_555 1_555
C20 C19 1_555 1_555
C21 C17 1_555 1_555
C22 C15 1_555 1_555
C23 C22 1_555 1_555
H23 C23 1_555 1_555
H24 C23 1_555 1_555
C24 C15 1_555 1_555
H25 C24 1_555 1_555
H26 C24 1_555 1_555
C25 O6 1_555 1_555
H27 C25 1_555 1_555
H28 C25 1_555 1_555
H29 C25 1_555 1_555
C26 C23 1_555 1_555
H30 C26 1_555 1_555
H31 C26 1_555 1_555
C27 O5 1_555 1_555
H32 C27 1_555 1_555
H33 C27 1_555 1_555
H34 C27 1_555 1_555
C3 C11 1_555 1_555
C7 C11 1_555 1_555
C12 C13 1_555 1_555
C18 C19 1_555 1_555
C20 C22 1_555 1_555
C21 C22 1_555 1_555
C24 C26 1_555 1_555

#END
