
#######################################################################
#
#                 Cambridge Crystallographic Data Centre
#                                CCDC 
#
#######################################################################
#
# If this CIF has been generated from an entry in the Cambridge 
# Structural Database, then it will include bibliographic, chemical, 
# crystal, experimental, refinement or atomic coordinate data resulting 
# from the CCDC's data processing and validation procedures.
#
#######################################################################

data_NIMBAP
_chemical_formula_moiety         'C26 H24 F3 N3 O1'
_chemical_name_systematic        
3-{(2-t-butylhydrazinylidene)[4-(trifluoromethyl)phenyl]methyl}-3-phenyl-2,3-dihydro-1H-isoindol-1-one
_symmetry_cell_setting           monoclinic
_symmetry_space_group_name_H-M   'P 21/c'
_symmetry_Int_Tables_number      14
_space_group_name_Hall           '-P 2ybc'
loop_
_symmetry_equiv_pos_site_id
_symmetry_equiv_pos_as_xyz
1 x,y,z
2 -x,1/2+y,1/2-z
3 -x,-y,-z
4 x,1/2-y,1/2+z
_cell_length_a                   9.9773(4)
_cell_length_b                   10.2635(4)
_cell_length_c                   23.7959(9)
_cell_angle_alpha                90
_cell_angle_beta                 97.184(4)
_cell_angle_gamma                90
_cell_volume                     2417.62
_exptl_crystal_colour            colorless
_exptl_crystal_description       block
_cell_formula_units_Z            4
loop_
_atom_site_label
_atom_site_type_symbol
_atom_site_fract_x
_atom_site_fract_y
_atom_site_fract_z
N1 N 0.3920(2) 0.1530(2) 0.13920(8)
N2 N 0.0863(2) 0.0803(2) 0.06182(9)
H1 H 0.0824 0.0930 0.0259
N3 N 0.5271(2) 0.1540(2) 0.13218(9)
H2 H 0.5553 0.1416 0.0999
O1 O -0.0338(2) -0.1123(2) 0.05769(9)
C1 C 0.3409(2) 0.2051(2) 0.03831(10)
C2 C 0.1283(2) 0.1029(2) 0.15898(10)
C3 C 0.0937(3) 0.3058(3) 0.09813(11)
C4 C 0.1548(2) 0.1687(2) 0.10397(10)
C5 C 0.3047(2) 0.1742(2) 0.09613(10)
C6 C 0.0564(3) -0.0103(3) 0.14710(11)
C7 C 0.3579(3) 0.1064(3) 0.00042(11)
H3 H 0.3412 0.0207 0.0101
C8 C 0.1618(3) 0.1423(3) 0.21478(11)
H4 H 0.2107 0.2182 0.2235
C9 C 0.4242(3) 0.2589(3) -0.06649(11)
C10 C 0.6193(3) 0.1783(3) 0.18482(11)
C11 C 0.0291(3) -0.0241(3) 0.08474(12)
C12 C 0.0475(3) -0.0483(3) 0.24471(13)
H5 H 0.0204 -0.0981 0.2739
C13 C 0.3635(3) 0.3318(3) 0.02245(12)
H6 H 0.3508 0.3998 0.0470
C14 C 0.1200(3) 0.0650(3) 0.25701(12)
H7 H 0.1413 0.0900 0.2946
C15 C 0.0150(3) -0.0879(3) 0.18931(13)
H8 H -0.0331 -0.1643 0.1806
C16 C 0.3993(3) 0.1327(3) -0.05173(12)
H9 H 0.4102 0.0650 -0.0768
C17 C 0.1574(3) 0.4103(3) 0.12778(13)
H10 H 0.2376 0.3969 0.1515
C18 C -0.0258(3) 0.3289(3) 0.06298(14)
H11 H -0.0697 0.2606 0.0426
F1 F 0.5654(4) 0.2065(4) -0.13484(13)
C19 C 0.4050(3) 0.3585(3) -0.02967(13)
H12 H 0.4200 0.4442 -0.0399
C20 C 0.1024(4) 0.5336(3) 0.12223(16)
H13 H 0.1457 0.6028 0.1421
F2 F 0.5198(6) 0.4015(3) -0.12636(13)
F3 F 0.3802(4) 0.2689(5) -0.16483(10)
C21 C 0.7601(3) 0.1813(4) 0.16675(18)
H14 H 0.8253 0.1969 0.1992
H15 H 0.7651 0.2498 0.1396
H16 H 0.7787 0.0993 0.1500
C22 C 0.6050(4) 0.0686(4) 0.22553(16)
H17 H 0.6644 0.0832 0.2599
H18 H 0.6281 -0.0122 0.2088
H19 H 0.5134 0.0647 0.2338
C23 C 0.5876(4) 0.3067(4) 0.21145(17)
H20 H 0.6487 0.3201 0.2454
H21 H 0.4965 0.3052 0.2205
H22 H 0.5974 0.3763 0.1853
C24 C -0.0797(4) 0.4525(4) 0.05825(19)
H23 H -0.1603 0.4667 0.0349
C25 C -0.0164(5) 0.5545(4) 0.08734(18)
H24 H -0.0535 0.6376 0.0836
C26 C 0.4721(5) 0.2864(4) -0.12206(15)
loop_
_geom_bond_atom_site_label_1
_geom_bond_atom_site_label_2
_geom_bond_site_symmetry_1
_geom_bond_site_symmetry_2
N1 N3 1_555 1_555
N2 H1 1_555 1_555
N3 H2 1_555 1_555
O1 C11 1_555 1_555
C1 C5 1_555 1_555
C2 C4 1_555 1_555
C3 C4 1_555 1_555
C4 N2 1_555 1_555
C5 N1 1_555 1_555
C6 C2 1_555 1_555
C7 C1 1_555 1_555
H3 C7 1_555 1_555
C8 C2 1_555 1_555
H4 C8 1_555 1_555
C9 C16 1_555 1_555
C10 N3 1_555 1_555
C11 N2 1_555 1_555
C12 H5 1_555 1_555
C13 C1 1_555 1_555
H6 C13 1_555 1_555
C14 C8 1_555 1_555
H7 C14 1_555 1_555
C15 C6 1_555 1_555
H8 C15 1_555 1_555
C16 C7 1_555 1_555
H9 C16 1_555 1_555
C17 C3 1_555 1_555
H10 C17 1_555 1_555
C18 C3 1_555 1_555
H11 C18 1_555 1_555
F1 C26 1_555 1_555
C19 C9 1_555 1_555
H12 C19 1_555 1_555
C20 C17 1_555 1_555
H13 C20 1_555 1_555
F2 C26 1_555 1_555
F3 C26 1_555 1_555
C21 C10 1_555 1_555
H14 C21 1_555 1_555
H15 C21 1_555 1_555
H16 C21 1_555 1_555
C22 C10 1_555 1_555
H17 C22 1_555 1_555
H18 C22 1_555 1_555
H19 C22 1_555 1_555
C23 C10 1_555 1_555
H20 C23 1_555 1_555
H21 C23 1_555 1_555
H22 C23 1_555 1_555
C24 C18 1_555 1_555
H23 C24 1_555 1_555
C25 C20 1_555 1_555
H24 C25 1_555 1_555
C26 C9 1_555 1_555
C4 C5 1_555 1_555
C6 C11 1_555 1_555
C12 C14 1_555 1_555
C12 C15 1_555 1_555
C13 C19 1_555 1_555
C24 C25 1_555 1_555

#END
