
#######################################################################
#
#                 Cambridge Crystallographic Data Centre
#                                CCDC 
#
#######################################################################
#
# If this CIF has been generated from an entry in the Cambridge 
# Structural Database, then it will include bibliographic, chemical, 
# crystal, experimental, refinement or atomic coordinate data resulting 
# from the CCDC's data processing and validation procedures.
#
#######################################################################

data_NIMBOD
_chemical_formula_moiety         'C23 H20 O2'
_chemical_name_systematic        
'2,3-bis(4-methylphenyl)-3-phenylprop-2-enoic acid'
_symmetry_cell_setting           triclinic
_symmetry_space_group_name_H-M   'P -1'
_symmetry_Int_Tables_number      2
_space_group_name_Hall           '-P 1'
loop_
_symmetry_equiv_pos_site_id
_symmetry_equiv_pos_as_xyz
1 x,y,z
2 -x,-y,-z
_cell_length_a                   5.6571(2)
_cell_length_b                   9.2094(3)
_cell_length_c                   17.7075(6)
_cell_angle_alpha                98.8250(10)
_cell_angle_beta                 91.5140(10)
_cell_angle_gamma                96.3060(10)
_cell_volume                     905.217
_exptl_crystal_colour            colorless
_exptl_crystal_description       Tabular
_cell_formula_units_Z            2
loop_
_atom_site_label
_atom_site_type_symbol
_atom_site_fract_x
_atom_site_fract_y
_atom_site_fract_z
O1 O 0.81509(15) 0.88171(9) 0.05333(5)
H1 H 0.863(3) 0.8947(17) 0.0044(9)
O2 O 1.06193(15) 1.09067(9) 0.08543(4)
C1 C 0.4564(2) 1.49461(14) 0.33175(9)
H2 H 0.4719 1.5007 0.3874
H3 H 0.2875 1.4829 0.3156
H4 H 0.5354 1.5854 0.3169
C2 C 0.5710(2) 1.36358(12) 0.29382(7)
C3 C 0.4729(2) 1.28042(12) 0.22580(7)
H5 H 0.3322 1.3063 0.2033
C4 C 0.5779(2) 1.16018(12) 0.19045(6)
H6 H 0.5101 1.1059 0.1435
C5 C 0.78186(19) 1.11773(11) 0.22291(6)
C6 C 0.87910(18) 0.98203(12) 0.18527(6)
C7 C 0.92138(18) 0.86378(12) 0.21799(6)
C8 C 0.87074(19) 0.85047(11) 0.29902(6)
C9 C 1.0285(2) 0.78420(12) 0.34144(6)
H7 H 1.1643 0.7482 0.3180
C10 C 0.9900(2) 0.77010(13) 0.41714(6)
H8 H 1.1009 0.7258 0.4449
C11 C 0.7918(2) 0.81967(12) 0.45310(6)
C12 C 0.7512(3) 0.80497(15) 0.53553(7)
H9 H 0.8160 0.7163 0.5474
H10 H 0.5800 0.7966 0.5439
H11 H 0.8310 0.8924 0.5688
C13 C 0.7801(2) 1.32440(13) 0.32452(7)
H12 H 0.8524 1.3818 0.3701
C14 C 0.8847(2) 1.20333(12) 0.28985(6)
H13 H 1.0271 1.1787 0.3118
C15 C 0.66965(19) 0.89846(12) 0.33492(6)
H14 H 0.5576 0.9419 0.3072
C16 C 0.6321(2) 0.88332(12) 0.41045(6)
H15 H 0.4945 0.9170 0.4337
C17 C 1.02807(19) 0.73700(12) 0.17406(6)
C18 C 1.2422(2) 0.75767(13) 0.13789(7)
H16 H 1.3265 0.8539 0.1426
C19 C 1.3338(2) 0.63868(14) 0.09496(7)
H17 H 1.4796 0.6540 0.0704
C20 C 1.2123(2) 0.49786(13) 0.08804(7)
H18 H 1.2732 0.4169 0.0580
C21 C 1.0012(2) 0.47535(13) 0.12515(7)
H19 H 0.9186 0.3787 0.1209
C22 C 0.9109(2) 0.59356(12) 0.16838(6)
H20 H 0.7680 0.5771 0.1944
C23 C 0.92859(19) 0.98762(12) 0.10300(6)
loop_
_geom_bond_atom_site_label_1
_geom_bond_atom_site_label_2
_geom_bond_site_symmetry_1
_geom_bond_site_symmetry_2
O1 H1 1_555 1_555
O2 C23 1_555 1_555
C1 H2 1_555 1_555
H3 C1 1_555 1_555
H4 C1 1_555 1_555
C2 C1 1_555 1_555
C3 C2 1_555 1_555
H5 C3 1_555 1_555
C4 C3 1_555 1_555
H6 C4 1_555 1_555
C5 C4 1_555 1_555
C6 C5 1_555 1_555
C7 C6 1_555 1_555
C8 C7 1_555 1_555
C9 C8 1_555 1_555
H7 C9 1_555 1_555
C10 C9 1_555 1_555
H8 C10 1_555 1_555
C11 C10 1_555 1_555
C12 C11 1_555 1_555
H9 C12 1_555 1_555
H10 C12 1_555 1_555
H11 C12 1_555 1_555
C13 C2 1_555 1_555
H12 C13 1_555 1_555
C14 C5 1_555 1_555
H13 C14 1_555 1_555
C15 C8 1_555 1_555
H14 C15 1_555 1_555
C16 C11 1_555 1_555
H15 C16 1_555 1_555
C17 C7 1_555 1_555
C18 C17 1_555 1_555
H16 C18 1_555 1_555
C19 C18 1_555 1_555
H17 C19 1_555 1_555
C20 C19 1_555 1_555
H18 C20 1_555 1_555
C21 C20 1_555 1_555
H19 C21 1_555 1_555
C22 C17 1_555 1_555
H20 C22 1_555 1_555
C23 O1 1_555 1_555
C6 C23 1_555 1_555
C13 C14 1_555 1_555
C15 C16 1_555 1_555
C21 C22 1_555 1_555

#END
