
#######################################################################
#
#                 Cambridge Crystallographic Data Centre
#                                CCDC 
#
#######################################################################
#
# If this CIF has been generated from an entry in the Cambridge 
# Structural Database, then it will include bibliographic, chemical, 
# crystal, experimental, refinement or atomic coordinate data resulting 
# from the CCDC's data processing and validation procedures.
#
#######################################################################

data_NIMCOD
_chemical_formula_moiety         'C36 H28 Br2 N2 O4'
_chemical_name_systematic        
5,12-Dibromo-2,9-dicyclohexylisoquinolino[4',5',6':6,5,10]anthra[2,1,9-def]isoquinoline-1,3,8,10(2H,9H)-tetrone
_symmetry_cell_setting           monoclinic
_symmetry_space_group_name_H-M   'P 21/c'
_symmetry_Int_Tables_number      14
_space_group_name_Hall           '-P 2ybc'
loop_
_symmetry_equiv_pos_site_id
_symmetry_equiv_pos_as_xyz
1 x,y,z
2 -x,1/2+y,1/2-z
3 -x,-y,-z
4 x,1/2-y,1/2+z
_cell_length_a                   15.2582(4)
_cell_length_b                   11.8210(3)
_cell_length_c                   16.0098(11)
_cell_angle_alpha                90
_cell_angle_beta                 103.389(7)
_cell_angle_gamma                90
_cell_volume                     2809.16
_exptl_crystal_colour            orange
_exptl_crystal_description       Block
_cell_formula_units_Z            4
loop_
_atom_site_label
_atom_site_type_symbol
_atom_site_fract_x
_atom_site_fract_y
_atom_site_fract_z
C1 C 0.19571(10) 1.00677(13) 0.06777(10)
C2 C 0.13855(10) 1.09890(13) 0.06924(10)
H1 H 0.0754 1.0908 0.0477
C3 C 0.17353(10) 1.20078(13) 0.10175(9)
C4 C 0.30275(10) 1.32078(13) 0.15843(9)
C5 C 0.39431(10) 1.33654(13) 0.17957(10)
H2 H 0.4185 1.4066 0.2035
C6 C 0.45226(10) 1.25023(13) 0.16618(10)
H3 H 0.5153 1.2643 0.1792
C7 C 0.56873(10) 1.06144(13) 0.10986(10)
C8 C 0.62264(10) 0.96752(14) 0.10364(10)
H4 H 0.6818 0.9784 0.0956
C9 C 0.59091(10) 0.86018(13) 0.10901(10)
C10 C 0.47091(10) 0.73456(13) 0.12767(10)
C11 C 0.38550(10) 0.71871(13) 0.14004(10)
H5 H 0.3670 0.6459 0.1543
C12 C 0.32610(10) 0.80999(13) 0.13151(10)
H6 H 0.2665 0.7976 0.1379
C13 C 0.35194(10) 0.91877(13) 0.11389(9)
C14 C 0.28897(10) 1.01398(13) 0.09793(9)
C15 C 0.32598(10) 1.12448(12) 0.11837(9)
C16 C 0.26769(10) 1.21539(13) 0.12591(9)
C17 C 0.42095(10) 1.14445(13) 0.13449(9)
C18 C 0.48006(10) 1.05212(13) 0.11875(9)
C19 C 0.44457(10) 0.93913(13) 0.11566(9)
C20 C 0.50144(10) 0.84447(13) 0.11631(9)
C21 C 0.11136(10) 1.29384(13) 0.11078(9)
O1 O 0.03036(7) 1.28344(10) 0.08616(7)
N1 N 0.14982(9) 1.39372(11) 0.15008(8)
C22 C 0.24244(10) 1.41443(13) 0.17066(10)
O2 O 0.27213(7) 1.50637(9) 0.19809(7)
C23 C 0.65179(10) 0.76280(14) 0.10755(10)
O3 O 0.72823(8) 0.77573(10) 0.09932(9)
N2 N 0.61712(9) 0.65531(11) 0.11618(9)
C24 C 0.53139(10) 0.63619(13) 0.13095(10)
O4 O 0.50780(8) 0.54162(10) 0.14580(10)
Br1 Br 0.134393(10) 0.874842(13) 0.017145(11)
Br2 Br 0.628789(10) 1.199474(13) 0.100227(11)
C25 C 0.08638(10) 1.48166(13) 0.16808(10)
H7 H 0.0252 1.4461 0.1543
C26 C 0.08025(11) 1.58479(14) 0.10966(11)
H8 H 0.0666 1.5602 0.0489
H9 H 0.1387 1.6251 0.1220
C27 C 0.00601(11) 1.66454(14) 0.12454(11)
H10 H 0.0057 1.7340 0.0900
H11 H -0.0533 1.6272 0.1051
C28 C 0.02007(13) 1.69636(15) 0.21894(12)
H12 H -0.0315 1.7425 0.2269
H13 H 0.0753 1.7429 0.2363
C29 C 0.02886(12) 1.59186(16) 0.27600(11)
H14 H -0.0286 1.5494 0.2627
H15 H 0.0409 1.6156 0.3369
C30 C 0.10508(11) 1.51483(15) 0.26269(10)
H16 H 0.1635 1.5550 0.2794
H17 H 0.1083 1.4463 0.2988
C31 C 0.67401(10) 0.55371(13) 0.11395(10)
H18 H 0.6353 0.4869 0.1187
C32 C 0.70224(11) 0.53991(14) 0.02932(10)
H19 H 0.7445 0.6011 0.0228
H20 H 0.6487 0.5447 -0.0192
C33 C 0.74771(11) 0.42523(14) 0.02890(10)
H21 H 0.7025 0.3648 0.0277
H22 H 0.7705 0.4185 -0.0239
C34 C 0.82534(11) 0.40787(15) 0.10657(11)
H23 H 0.8754 0.4592 0.1023
H24 H 0.8475 0.3291 0.1066
C35 C 0.79787(11) 0.43053(14) 0.19083(11)
H25 H 0.8517 0.4262 0.2391
H26 H 0.7548 0.3717 0.1998
C36 C 0.75438(11) 0.54692(14) 0.19035(10)
H27 H 0.7344 0.5585 0.2443
H28 H 0.7986 0.6067 0.1860
loop_
_geom_bond_atom_site_label_1
_geom_bond_atom_site_label_2
_geom_bond_site_symmetry_1
_geom_bond_site_symmetry_2
C1 C2 1_555 1_555
C2 H1 1_555 1_555
C3 C2 1_555 1_555
C4 C5 1_555 1_555
C5 H2 1_555 1_555
C6 C5 1_555 1_555
H3 C6 1_555 1_555
C7 C8 1_555 1_555
C8 H4 1_555 1_555
C9 C8 1_555 1_555
C10 C11 1_555 1_555
C11 H5 1_555 1_555
C12 C11 1_555 1_555
H6 C12 1_555 1_555
C13 C12 1_555 1_555
C14 C1 1_555 1_555
C15 C14 1_555 1_555
C16 C3 1_555 1_555
C17 C6 1_555 1_555
C18 C7 1_555 1_555
C19 C13 1_555 1_555
C20 C9 1_555 1_555
C21 C3 1_555 1_555
O1 C21 1_555 1_555
N1 C21 1_555 1_555
C22 C4 1_555 1_555
O2 C22 1_555 1_555
C23 C9 1_555 1_555
O3 C23 1_555 1_555
N2 C23 1_555 1_555
C24 C10 1_555 1_555
O4 C24 1_555 1_555
Br1 C1 1_555 1_555
Br2 C7 1_555 1_555
C25 N1 1_555 1_555
H7 C25 1_555 1_555
C26 C25 1_555 1_555
H8 C26 1_555 1_555
H9 C26 1_555 1_555
C27 C26 1_555 1_555
H10 C27 1_555 1_555
H11 C27 1_555 1_555
C28 C27 1_555 1_555
H12 C28 1_555 1_555
H13 C28 1_555 1_555
C29 C28 1_555 1_555
H14 C29 1_555 1_555
H15 C29 1_555 1_555
C30 C25 1_555 1_555
H16 C30 1_555 1_555
H17 C30 1_555 1_555
C31 N2 1_555 1_555
H18 C31 1_555 1_555
C32 C31 1_555 1_555
H19 C32 1_555 1_555
H20 C32 1_555 1_555
C33 C32 1_555 1_555
H21 C33 1_555 1_555
H22 C33 1_555 1_555
C34 C33 1_555 1_555
H23 C34 1_555 1_555
H24 C34 1_555 1_555
C35 C34 1_555 1_555
H25 C35 1_555 1_555
H26 C35 1_555 1_555
C36 C31 1_555 1_555
H27 C36 1_555 1_555
H28 C36 1_555 1_555
C4 C16 1_555 1_555
C10 C20 1_555 1_555
C13 C14 1_555 1_555
C15 C16 1_555 1_555
C15 C17 1_555 1_555
C17 C18 1_555 1_555
C18 C19 1_555 1_555
C19 C20 1_555 1_555
N1 C22 1_555 1_555
N2 C24 1_555 1_555
C29 C30 1_555 1_555
C35 C36 1_555 1_555

#END
