
#######################################################################
#
#                 Cambridge Crystallographic Data Centre
#                                CCDC 
#
#######################################################################
#
# If this CIF has been generated from an entry in the Cambridge 
# Structural Database, then it will include bibliographic, chemical, 
# crystal, experimental, refinement or atomic coordinate data resulting 
# from the CCDC's data processing and validation procedures.
#
#######################################################################

data_NIMDAR
_chemical_formula_moiety         'C14 H17 N1 O2'
_chemical_name_systematic        
3-benzylidene-4-(hydroxymethyl)-1,4-dimethylpyrrolidin-2-one
_symmetry_cell_setting           orthorhombic
_symmetry_space_group_name_H-M   'P 21 21 21'
_symmetry_Int_Tables_number      19
_space_group_name_Hall           'P 2ac 2ab'
loop_
_symmetry_equiv_pos_site_id
_symmetry_equiv_pos_as_xyz
1 x,y,z
2 1/2-x,-y,1/2+z
3 -x,1/2+y,1/2-z
4 1/2+x,1/2-y,-z
_cell_length_a                   8.2246(4)
_cell_length_b                   11.1146(5)
_cell_length_c                   13.3192(6)
_cell_angle_alpha                90
_cell_angle_beta                 90
_cell_angle_gamma                90
_cell_volume                     1217.55
_exptl_crystal_colour            colorless
_exptl_crystal_description       Block
_cell_formula_units_Z            4
loop_
_atom_site_label
_atom_site_type_symbol
_atom_site_fract_x
_atom_site_fract_y
_atom_site_fract_z
O1 O 0.39181(13) 0.41312(10) 0.79115(8)
O2 O 0.46962(13) 0.81584(9) 0.53695(8)
H1 H 0.520(3) 0.850(2) 0.5881(17)
N1 N 0.58720(14) 0.52847(11) 0.71572(9)
C1 C 0.44087(17) 0.47461(12) 0.71938(10)
C2 C 0.35322(17) 0.50550(12) 0.62473(10)
C3 C 0.45673(17) 0.59735(12) 0.56812(10)
C4 C 0.62029(18) 0.59528(13) 0.62424(11)
H2 H 0.7049 0.5546 0.5837
H3 H 0.6571 0.6780 0.6399
C5 C 0.71226(18) 0.51627(14) 0.79163(11)
H4 H 0.8101 0.4813 0.7614
H5 H 0.6731 0.4636 0.8455
H6 H 0.7382 0.5956 0.8194
C6 C 0.4799(2) 0.56742(14) 0.45717(11)
H7 H 0.3743 0.5693 0.4231
H8 H 0.5275 0.4870 0.4507
H9 H 0.5527 0.6267 0.4265
C7 C 0.37559(17) 0.72125(12) 0.57942(10)
H10 H 0.2678 0.7194 0.5464
H11 H 0.3582 0.7380 0.6516
C8 C 0.20868(17) 0.46874(13) 0.58835(10)
H12 H 0.1822 0.5081 0.5272
C9 C 0.08161(17) 0.38350(12) 0.61890(11)
C10 C -0.04986(19) 0.37087(14) 0.55247(12)
H13 H -0.0528 0.4185 0.4933
C11 C -0.1755(2) 0.29063(15) 0.57099(12)
H14 H -0.2632 0.2837 0.5249
C12 C -0.17265(19) 0.22045(14) 0.65717(12)
H15 H -0.2576 0.1646 0.6700
C13 C -0.04487(19) 0.23235(13) 0.72451(12)
H16 H -0.0434 0.1849 0.7838
C14 C 0.08100(18) 0.31296(13) 0.70614(11)
H17 H 0.1673 0.3203 0.7531
loop_
_geom_bond_atom_site_label_1
_geom_bond_atom_site_label_2
_geom_bond_site_symmetry_1
_geom_bond_site_symmetry_2
O1 C1 1_555 1_555
O2 H1 1_555 1_555
N1 C1 1_555 1_555
C1 C2 1_555 1_555
C2 C3 1_555 1_555
C3 C4 1_555 1_555
C4 N1 1_555 1_555
H2 C4 1_555 1_555
H3 C4 1_555 1_555
C5 N1 1_555 1_555
H4 C5 1_555 1_555
H5 C5 1_555 1_555
H6 C5 1_555 1_555
C6 C3 1_555 1_555
H7 C6 1_555 1_555
H8 C6 1_555 1_555
H9 C6 1_555 1_555
C7 O2 1_555 1_555
H10 C7 1_555 1_555
H11 C7 1_555 1_555
C8 C2 1_555 1_555
H12 C8 1_555 1_555
C9 C8 1_555 1_555
C10 C9 1_555 1_555
H13 C10 1_555 1_555
C11 C10 1_555 1_555
H14 C11 1_555 1_555
C12 C11 1_555 1_555
H15 C12 1_555 1_555
C13 C12 1_555 1_555
H16 C13 1_555 1_555
C14 C9 1_555 1_555
H17 C14 1_555 1_555
C3 C7 1_555 1_555
C13 C14 1_555 1_555

#END
