
#######################################################################
#
#                 Cambridge Crystallographic Data Centre
#                                CCDC 
#
#######################################################################
#
# If this CIF has been generated from an entry in the Cambridge 
# Structural Database, then it will include bibliographic, chemical, 
# crystal, experimental, refinement or atomic coordinate data resulting 
# from the CCDC's data processing and validation procedures.
#
#######################################################################

data_NIMFIB
_chemical_formula_moiety         'C25 H20 S1'
_chemical_name_systematic        
2-[4-(2,2-diphenylethenyl)phenyl]-5-methylthiophene
_symmetry_cell_setting           orthorhombic
_symmetry_space_group_name_H-M   'P 21 21 21'
_symmetry_Int_Tables_number      19
_space_group_name_Hall           'P 2ac 2ab'
loop_
_symmetry_equiv_pos_site_id
_symmetry_equiv_pos_as_xyz
1 x,y,z
2 1/2-x,-y,1/2+z
3 -x,1/2+y,1/2-z
4 1/2+x,1/2-y,-z
_cell_length_a                   5.988(3)
_cell_length_b                   7.360(4)
_cell_length_c                   45.02(2)
_cell_angle_alpha                90
_cell_angle_beta                 90
_cell_angle_gamma                90
_cell_volume                     1984.11
_exptl_crystal_colour            colorless
_exptl_crystal_description       block
_cell_formula_units_Z            4
loop_
_atom_site_label
_atom_site_type_symbol
_atom_site_fract_x
_atom_site_fract_y
_atom_site_fract_z
C1 C 0.2868(17) -0.0562(14) 0.17262(17)
H1 H 0.1581 -0.0406 0.1602
H2 H 0.3367 -0.1799 0.1715
H3 H 0.4040 0.0230 0.1660
C2 C 0.2263(19) -0.0102(15) 0.2045(2)
C3 C 0.0394(16) 0.0682(16) 0.2157(2)
H4 H -0.0808 0.1077 0.2043
C4 C 0.052(7) 0.082(6) 0.2479(7)
H5 H -0.0631 0.1313 0.2592
C5 C 0.241(6) 0.020(6) 0.2602(2)
S1 S 0.4137(13) -0.0649(9) 0.23260(9)
C6 C 0.3182(8) 0.0088(6) 0.29182(10)
C7 C 0.5206(8) -0.0600(7) 0.30215(10)
H6 H 0.6245 -0.1040 0.2886
C8 C 0.5708(9) -0.0643(7) 0.33232(10)
H7 H 0.7064 -0.1135 0.3384
C9 C 0.4232(8) 0.0033(6) 0.35404(9)
C10 C 0.2196(8) 0.0714(8) 0.34312(10)
H8 H 0.1157 0.1169 0.3566
C11 C 0.1684(9) 0.0732(7) 0.31325(10)
H9 H 0.0307 0.1184 0.3072
C12 C 0.4856(9) -0.0101(7) 0.38580(10)
H10 H 0.5947 -0.0964 0.3899
C13 C 0.4105(8) 0.0822(7) 0.40978(10)
C14 C 0.2633(9) 0.2445(7) 0.40750(10)
C15 C 0.0569(10) 0.2569(9) 0.42177(12)
H11 H 0.0046 0.1582 0.4326
C16 C -0.0696(12) 0.4106(12) 0.42011(15)
H12 H -0.2077 0.4140 0.4295
C17 C 0.0028(14) 0.5588(11) 0.40491(17)
H13 H -0.0829 0.6641 0.4044
C18 C 0.2050(14) 0.5517(9) 0.39015(15)
H14 H 0.2537 0.6515 0.3793
C19 C 0.3358(11) 0.3958(8) 0.39153(12)
H15 H 0.4725 0.3925 0.3817
C20 C 0.4826(9) 0.0300(8) 0.44062(11)
C21 C 0.5453(11) -0.1489(9) 0.44703(12)
H16 H 0.5395 -0.2381 0.4324
C22 C 0.6169(13) -0.1913(11) 0.47583(14)
H17 H 0.6584 -0.3101 0.4801
C23 C 0.6278(12) -0.0637(14) 0.49778(14)
H18 H 0.6790 -0.0955 0.5166
C24 C 0.5629(12) 0.1116(12) 0.49204(13)
H19 H 0.5661 0.1990 0.5070
C25 C 0.4915(10) 0.1570(9) 0.46321(12)
H20 H 0.4490 0.2761 0.4592
C26? C -0.038(2) 0.066(2) 0.1836(3)
H21? H 0.0386 0.0579 0.1650
H22? H -0.0962 0.1862 0.1862
H23? H -0.1595 -0.0200 0.1838
C27? C 0.120(3) 0.023(3) 0.2083(3)
C28? C 0.324(3) -0.058(2) 0.2088(3)
H24? H 0.3967 -0.0959 0.1917
C29? C 0.417(8) -0.081(6) 0.2377(7)
H25? H 0.5485 -0.1446 0.2413
C30? C 0.296(8) -0.003(9) 0.2589(3)
S2? S 0.047(3) 0.086(2) 0.2448(3)
loop_
_geom_bond_atom_site_label_1
_geom_bond_atom_site_label_2
_geom_bond_site_symmetry_1
_geom_bond_site_symmetry_2
C1 H1 1_555 1_555
H2 C1 1_555 1_555
H3 C1 1_555 1_555
C2 C1 1_555 1_555
C3 C2 1_555 1_555
H4 C3 1_555 1_555
C4 C3 1_555 1_555
H5 C4 1_555 1_555
C5 C4 1_555 1_555
S1 C2 1_555 1_555
C6 C5 1_555 1_555
C7 C6 1_555 1_555
H6 C7 1_555 1_555
C8 C7 1_555 1_555
H7 C8 1_555 1_555
C9 C8 1_555 1_555
C10 C9 1_555 1_555
H8 C10 1_555 1_555
C11 C6 1_555 1_555
H9 C11 1_555 1_555
C12 C9 1_555 1_555
H10 C12 1_555 1_555
C13 C12 1_555 1_555
C14 C13 1_555 1_555
C15 C14 1_555 1_555
H11 C15 1_555 1_555
C16 C15 1_555 1_555
H12 C16 1_555 1_555
C17 C16 1_555 1_555
H13 C17 1_555 1_555
C18 C17 1_555 1_555
H14 C18 1_555 1_555
C19 C14 1_555 1_555
H15 C19 1_555 1_555
C20 C13 1_555 1_555
C21 C20 1_555 1_555
H16 C21 1_555 1_555
C22 C21 1_555 1_555
H17 C22 1_555 1_555
C23 C22 1_555 1_555
H18 C23 1_555 1_555
C24 C23 1_555 1_555
H19 C24 1_555 1_555
C25 C20 1_555 1_555
H20 C25 1_555 1_555
C5 S1 1_555 1_555
C10 C11 1_555 1_555
C18 C19 1_555 1_555
C24 C25 1_555 1_555

#END
