
#######################################################################
#
#                 Cambridge Crystallographic Data Centre
#                                CCDC 
#
#######################################################################
#
# If this CIF has been generated from an entry in the Cambridge 
# Structural Database, then it will include bibliographic, chemical, 
# crystal, experimental, refinement or atomic coordinate data resulting 
# from the CCDC's data processing and validation procedures.
#
#######################################################################

data_NIMFIB01
_chemical_formula_moiety         'C25 H20 S1'
_chemical_name_systematic        
2-[4-(2,2-diphenylethenyl)phenyl]-5-methylthiophene
_symmetry_cell_setting           triclinic
_symmetry_space_group_name_H-M   'P 1'
_symmetry_Int_Tables_number      1
_space_group_name_Hall           'P 1'
loop_
_symmetry_equiv_pos_site_id
_symmetry_equiv_pos_as_xyz
1 x,y,z
_cell_length_a                   8.886(4)
_cell_length_b                   10.971(5)
_cell_length_c                   11.261(5)
_cell_angle_alpha                64.477(7)
_cell_angle_beta                 78.704(7)
_cell_angle_gamma                77.452(8)
_cell_volume                     960.48
_exptl_crystal_colour            colorless
_exptl_crystal_description       block
_cell_formula_units_Z            2
loop_
_atom_site_label
_atom_site_type_symbol
_atom_site_fract_x
_atom_site_fract_y
_atom_site_fract_z
C1 C 0.7248(13) -0.0358(10) -0.0124(9)
C2 C 0.7125(13) 0.0309(9) -0.1476(11)
H1 H 0.6309 0.1013 -0.1774
C3 C 0.818(2) -0.0049(14) -0.2381(11)
H2 H 0.8077 0.0422 -0.3279
C4 C 0.9385(15) -0.1087(19) -0.1979(18)
H3 H 1.0096 -0.1333 -0.2593
C5 C 0.9522(16) -0.1752(17) -0.0666(17)
H4 H 1.0342 -0.2456 -0.0375
C6 C 0.8450(14) -0.1391(15) 0.0246(13)
H5 H 0.8558 -0.1873 0.1143
C7 C 0.6138(11) 0.0037(8) 0.0856(8)
C8 C 0.6689(9) -0.0362(8) 0.2167(7)
C9 C 0.6308(11) -0.1503(8) 0.3265(9)
H6 H 0.5695 -0.2052 0.3195
C10 C 0.6818(12) -0.1849(10) 0.4466(10)
H7 H 0.6546 -0.2621 0.5198
C11 C 0.7712(12) -0.1062(10) 0.4575(10)
H8 H 0.8065 -0.1291 0.5380
C12 C 0.8085(12) 0.0040(10) 0.3525(10)
H9 H 0.8696 0.0582 0.3607
C13 C 0.7595(10) 0.0399(9) 0.2325(9)
H10 H 0.7883 0.1175 0.1607
C14 C 0.4710(11) 0.0694(9) 0.0577(8)
H11 H 0.4485 0.0796 -0.0236
C15 C 0.3455(10) 0.1274(8) 0.1289(8)
C16 C 0.2160(11) 0.2037(9) 0.0635(9)
H12 H 0.2143 0.2106 -0.0215
C17 C 0.0924(11) 0.2685(9) 0.1171(9)
H13 H 0.0111 0.3197 0.0671
C18 C 0.0845(9) 0.2604(7) 0.2438(8)
C19 C 0.2085(11) 0.1838(8) 0.3128(8)
H14 H 0.2069 0.1747 0.3990
C20 C 0.3330(10) 0.1214(8) 0.2582(8)
H15 H 0.4144 0.0719 0.3086
C21 C -0.0500(10) 0.3317(8) 0.2991(8)
C22 C -0.1753(11) 0.4144(8) 0.2391(8)
H16 H -0.1899 0.4347 0.1527
C23 C -0.2777(13) 0.4646(11) 0.3218(11)
H17 H -0.3684 0.5243 0.2948
C24 C -0.2391(11) 0.4229(9) 0.4403(10)
C25 C -0.3252(13) 0.4462(11) 0.5570(12)
H18 H -0.4194 0.5083 0.5325
H19 H -0.2623 0.4846 0.5883
H20 H -0.3497 0.3610 0.6258
S1 S -0.0683(3) 0.3134(2) 0.4579(2)
C26 C 1.2245(11) 0.2807(9) 0.6709(9)
C27 C 1.2244(12) 0.1407(10) 0.7440(10)
H21 H 1.1536 0.1104 0.8194
C28 C 1.3285(16) 0.0460(11) 0.7059(14)
H22 H 1.3255 -0.0469 0.7550
C29 C 1.4332(15) 0.0874(14) 0.5989(15)
H23 H 1.5031 0.0231 0.5749
C30 C 1.4377(13) 0.2217(14) 0.5260(14)
H24 H 1.5106 0.2493 0.4518
C31 C 1.3339(12) 0.3200(11) 0.5610(12)
H25 H 1.3385 0.4123 0.5100
C32 C 1.1152(10) 0.3836(8) 0.7096(8)
C33 C 1.1677(8) 0.5165(8) 0.6715(8)
C34 C 1.1191(10) 0.6299(9) 0.5651(8)
H26 H 1.0481 0.6263 0.5164
C35 C 1.1749(12) 0.7492(9) 0.5301(9)
H27 H 1.1423 0.8255 0.4562
C36 C 1.2753(11) 0.7592(10) 0.5992(9)
H28 H 1.3112 0.8415 0.5738
C37 C 1.3233(12) 0.6490(11) 0.7054(10)
H29 H 1.3926 0.6549 0.7542
C38 C 1.2695(10) 0.5260(9) 0.7426(9)
H30 H 1.3030 0.4500 0.8162
C39 C 0.9739(10) 0.3536(8) 0.7743(8)
H31 H 0.9539 0.2703 0.7831
C40 C 0.8481(10) 0.4263(8) 0.8325(8)
C41 C 0.7231(10) 0.3561(7) 0.9035(8)
H32 H 0.7235 0.2702 0.9060
C42 C 0.6026(10) 0.4094(8) 0.9680(8)
H33 H 0.5236 0.3576 1.0153
C43 C 0.5901(9) 0.5409(8) 0.9675(8)
C44 C 0.7133(11) 0.6092(8) 0.8944(8)
H34 H 0.7116 0.6964 0.8891
C45 C 0.8376(10) 0.5556(8) 0.8293(8)
H35 H 0.9168 0.6071 0.7819
C46 C 0.4616(16) 0.5882(19) 1.0465(18)
C47 C 0.347(3) 0.521(3) 1.132(3)
H36 H 0.3422 0.4296 1.1545
C48 C 0.2350(17) 0.6048(12) 1.1849(14)
H37 H 0.1479 0.5743 1.2430
C49 C 0.2654(15) 0.7265(13) 1.1446(14)
S2 S 0.4318(5) 0.7490(4) 1.0361(5)
C50 C 0.1772(16) 0.8468(15) 1.1717(15)
H38 H 0.0899 0.8192 1.2370
H39 H 0.1414 0.9175 1.0914
H40 H 0.2440 0.8808 1.2040
C51? C 0.455(4) 0.616(4) 1.016(4)
C52? C 0.444(6) 0.734(5) 1.031(6)
H41? H 0.5145 0.7953 0.9889
C53? C 0.311(5) 0.753(4) 1.119(5)
H42? H 0.2875 0.8268 1.1419
C54? C 0.227(5) 0.659(4) 1.162(5)
S3? S 0.310(3) 0.530(3) 1.112(2)
C55? C 0.083(4) 0.642(3) 1.258(3)
H43? H 0.1065 0.5707 1.3425
H44? H 0.0067 0.6170 1.2258
H45? H 0.0423 0.7257 1.2679
loop_
_geom_bond_atom_site_label_1
_geom_bond_atom_site_label_2
_geom_bond_site_symmetry_1
_geom_bond_site_symmetry_2
C1 C2 1_555 1_555
C2 H1 1_555 1_555
C3 C2 1_555 1_555
H2 C3 1_555 1_555
C4 C3 1_555 1_555
H3 C4 1_555 1_555
C5 C4 1_555 1_555
H4 C5 1_555 1_555
C6 C1 1_555 1_555
H5 C6 1_555 1_555
C7 C1 1_555 1_555
C8 C7 1_555 1_555
C9 C8 1_555 1_555
H6 C9 1_555 1_555
C10 C9 1_555 1_555
H7 C10 1_555 1_555
C11 C10 1_555 1_555
H8 C11 1_555 1_555
C12 C11 1_555 1_555
H9 C12 1_555 1_555
C13 C8 1_555 1_555
H10 C13 1_555 1_555
C14 C7 1_555 1_555
H11 C14 1_555 1_555
C15 C14 1_555 1_555
C16 C15 1_555 1_555
H12 C16 1_555 1_555
C17 C16 1_555 1_555
H13 C17 1_555 1_555
C18 C17 1_555 1_555
C19 C18 1_555 1_555
H14 C19 1_555 1_555
C20 C15 1_555 1_555
H15 C20 1_555 1_555
C21 C18 1_555 1_555
C22 C21 1_555 1_555
H16 C22 1_555 1_555
C23 C22 1_555 1_555
H17 C23 1_555 1_555
C24 C23 1_555 1_555
C25 C24 1_555 1_555
H18 C25 1_555 1_555
H19 C25 1_555 1_555
H20 C25 1_555 1_555
S1 C21 1_555 1_555
C26 C27 1_555 1_555
C27 H21 1_555 1_555
C28 C27 1_555 1_555
H22 C28 1_555 1_555
C29 C28 1_555 1_555
H23 C29 1_555 1_555
C30 C29 1_555 1_555
H24 C30 1_555 1_555
C31 C26 1_555 1_555
H25 C31 1_555 1_555
C32 C26 1_555 1_555
C33 C32 1_555 1_555
C34 C33 1_555 1_555
H26 C34 1_555 1_555
C35 C34 1_555 1_555
H27 C35 1_555 1_555
C36 C35 1_555 1_555
H28 C36 1_555 1_555
C37 C36 1_555 1_555
H29 C37 1_555 1_555
C38 C33 1_555 1_555
H30 C38 1_555 1_555
C39 C32 1_555 1_555
H31 C39 1_555 1_555
C40 C39 1_555 1_555
C41 C40 1_555 1_555
H32 C41 1_555 1_555
C42 C41 1_555 1_555
H33 C42 1_555 1_555
C43 C42 1_555 1_555
C44 C43 1_555 1_555
H34 C44 1_555 1_555
C45 C40 1_555 1_555
H35 C45 1_555 1_555
C46 C43 1_555 1_555
C47 C46 1_555 1_555
H36 C47 1_555 1_555
C48 C47 1_555 1_555
H37 C48 1_555 1_555
C49 C48 1_555 1_555
S2 C46 1_555 1_555
C50 C49 1_555 1_555
H38 C50 1_555 1_555
H39 C50 1_555 1_555
H40 C50 1_555 1_555
C5 C6 1_555 1_555
C12 C13 1_555 1_555
C19 C20 1_555 1_555
C24 S1 1_555 1_555
C30 C31 1_555 1_555
C37 C38 1_555 1_555
C44 C45 1_555 1_555
C49 S2 1_555 1_555

#END
