
#######################################################################
#
#                 Cambridge Crystallographic Data Centre
#                                CCDC 
#
#######################################################################
#
# If this CIF has been generated from an entry in the Cambridge 
# Structural Database, then it will include bibliographic, chemical, 
# crystal, experimental, refinement or atomic coordinate data resulting 
# from the CCDC's data processing and validation procedures.
#
#######################################################################

data_NIMFUN
_chemical_formula_moiety         'C18 H13 N3 O1 S1'
_chemical_name_systematic        
1-{[(1,3-benzothiazol-2(3H)-ylidene)hydrazinylidene]methyl}naphthalen-2-ol
_symmetry_cell_setting           monoclinic
_symmetry_space_group_name_H-M   'P 21/n'
_symmetry_Int_Tables_number      14
_space_group_name_Hall           '-P 2yn'
loop_
_symmetry_equiv_pos_site_id
_symmetry_equiv_pos_as_xyz
1 x,y,z
2 1/2-x,1/2+y,1/2-z
3 -x,-y,-z
4 1/2+x,1/2-y,1/2+z
_cell_length_a                   17.1396(8)
_cell_length_b                   4.0692(2)
_cell_length_c                   22.0699(15)
_cell_angle_alpha                90
_cell_angle_beta                 108.746(6)
_cell_angle_gamma                90
_cell_volume                     1457.6
_exptl_crystal_colour            yellow
_exptl_crystal_description       rod-like
_cell_formula_units_Z            4
loop_
_atom_site_label
_atom_site_type_symbol
_atom_site_fract_x
_atom_site_fract_y
_atom_site_fract_z
S1 S 0.59442(2) 0.60049(10) 0.58615(2)
O1 O 0.44347(8) 1.1575(3) 0.63251(7)
H1 H 0.4856 1.0478 0.6399
N1 N 0.72488(8) 0.3550(3) 0.66772(8)
H2 H 0.7649(10) 0.303(4) 0.7065(8)
N2 N 0.64680(8) 0.6599(3) 0.71662(8)
N3 N 0.57421(8) 0.8435(3) 0.70197(8)
C1 C 0.65836(9) 0.5433(4) 0.66526(9)
C2 C 0.66348(10) 0.3785(4) 0.55778(9)
C3 C 0.65709(11) 0.3096(4) 0.49506(10)
H3 H 0.6129 0.3866 0.4613
C4 C 0.71869(11) 0.1219(4) 0.48406(10)
H4 H 0.7160 0.0737 0.4422
C5 C 0.78430(11) 0.0049(5) 0.53446(10)
H5 H 0.8249 -0.1200 0.5258
C6 C 0.79036(10) 0.0706(4) 0.59728(10)
H6 H 0.8340 -0.0110 0.6309
C7 C 0.72944(9) 0.2618(4) 0.60867(9)
C8 C 0.55563(10) 0.9349(4) 0.75151(9)
H7 H 0.5906 0.8765 0.7918
C9 C 0.48239(10) 1.1254(4) 0.74705(9)
C10 C 0.42949(10) 1.2254(4) 0.68773(10)
C11 C 0.35726(10) 1.4047(4) 0.68270(11)
H8 H 0.3230 1.4724 0.6428
C12 C 0.33756(11) 1.4786(5) 0.73590(11)
H9 H 0.2896 1.5964 0.7317
C13 C 0.38794(11) 1.3813(4) 0.79756(11)
C14 C 0.46215(10) 1.2047(4) 0.80375(10)
C15 C 0.51160(11) 1.1151(4) 0.86610(10)
H10 H 0.5607 1.0030 0.8716
C16 C 0.48896(12) 1.1895(5) 0.91852(11)
H11 H 0.5228 1.1280 0.9590
C17 C 0.41516(13) 1.3577(5) 0.91190(12)
H12 H 0.3997 1.4044 0.9477
C18 C 0.36649(12) 1.4517(5) 0.85262(12)
H13 H 0.3179 1.5651 0.8484
loop_
_geom_bond_atom_site_label_1
_geom_bond_atom_site_label_2
_geom_bond_site_symmetry_1
_geom_bond_site_symmetry_2
S1 C1 1_555 1_555
O1 H1 1_555 1_555
N1 H2 1_555 1_555
N2 N3 1_555 1_555
N3 C8 1_555 1_555
C1 N1 1_555 1_555
C2 S1 1_555 1_555
C3 C2 1_555 1_555
H3 C3 1_555 1_555
C4 C3 1_555 1_555
H4 C4 1_555 1_555
C5 C4 1_555 1_555
H5 C5 1_555 1_555
C6 C5 1_555 1_555
H6 C6 1_555 1_555
C7 N1 1_555 1_555
C8 H7 1_555 1_555
C9 C8 1_555 1_555
C10 O1 1_555 1_555
C11 C10 1_555 1_555
H8 C11 1_555 1_555
C12 C11 1_555 1_555
H9 C12 1_555 1_555
C13 C12 1_555 1_555
C14 C9 1_555 1_555
C15 C14 1_555 1_555
H10 C15 1_555 1_555
C16 C15 1_555 1_555
H11 C16 1_555 1_555
C17 C16 1_555 1_555
H12 C17 1_555 1_555
C18 C13 1_555 1_555
H13 C18 1_555 1_555
N2 C1 1_555 1_555
C2 C7 1_555 1_555
C6 C7 1_555 1_555
C9 C10 1_555 1_555
C13 C14 1_555 1_555
C17 C18 1_555 1_555

#END
