
#######################################################################
#
#                 Cambridge Crystallographic Data Centre
#                                CCDC 
#
#######################################################################
#
# If this CIF has been generated from an entry in the Cambridge 
# Structural Database, then it will include bibliographic, chemical, 
# crystal, experimental, refinement or atomic coordinate data resulting 
# from the CCDC's data processing and validation procedures.
#
#######################################################################

data_NIMGIC
_chemical_formula_moiety         'C13 H11 Cl1 N2 O2'
_chemical_name_systematic        
4-(3-chloro-2-methylphenylamino)pyridinium-3-carboxylate
_symmetry_cell_setting           monoclinic
_symmetry_space_group_name_H-M   'C 2/c'
_symmetry_Int_Tables_number      15
_space_group_name_Hall           '-C 2yn'
loop_
_symmetry_equiv_pos_site_id
_symmetry_equiv_pos_as_xyz
1 x,y,z
2 -x,y,1/2-z
3 1/2+x,1/2+y,z
4 1/2-x,1/2+y,1/2-z
5 -x,-y,-z
6 x,-y,1/2+z
7 1/2-x,1/2-y,-z
8 1/2+x,1/2-y,1/2+z
_cell_length_a                   12.2170(2)
_cell_length_b                   10.6890(2)
_cell_length_c                   18.2180(5)
_cell_angle_alpha                90
_cell_angle_beta                 90.039(1)
_cell_angle_gamma                90
_cell_volume                     2379.04
_exptl_crystal_colour            colorless
_exptl_crystal_description       block
_cell_formula_units_Z            8
loop_
_atom_site_label
_atom_site_type_symbol
_atom_site_fract_x
_atom_site_fract_y
_atom_site_fract_z
Cl1 Cl 0.21602(3) 0.04826(4) 0.48781(2)
N1 N 0.61031(10) 0.53312(11) 0.30172(6)
H1 H 0.6190(14) 0.6053(17) 0.2814(9)
C1 C 0.68404(11) 0.44252(13) 0.28796(7)
H2 H 0.738757 0.457274 0.251954
C2 C 0.68328(11) 0.32980(13) 0.32385(7)
C3 C 0.60122(11) 0.30977(13) 0.37886(7)
C4 C 0.52069(11) 0.40437(13) 0.38841(8)
H3 H 0.461671 0.391462 0.421481
C5 C 0.52812(12) 0.51342(14) 0.35016(8)
H4 H 0.474732 0.576782 0.357586
N2 N 0.60136(10) 0.20573(11) 0.41953(7)
H5 H 0.6512(14) 0.1556(17) 0.4097(9)
C6 C 0.52109(11) 0.17795(13) 0.47424(8)
C7 C 0.41729(12) 0.13571(13) 0.45309(8)
C8 C 0.34510(12) 0.10719(13) 0.51022(8)
C9 C 0.37133(13) 0.12128(13) 0.58377(8)
H6 H 0.319319 0.101654 0.620756
C10 C 0.47454(13) 0.16442(14) 0.60254(8)
H7 H 0.493840 0.174763 0.652697
C11 C 0.54979(12) 0.19252(14) 0.54778(8)
H8 H 0.620780 0.221653 0.560485
C12 C 0.76885(11) 0.23254(13) 0.30496(7)
O1 O 0.76923(9) 0.13254(10) 0.34134(6)
O2 O 0.83393(8) 0.25843(9) 0.25348(6)
C13 C 0.38475(13) 0.12151(15) 0.37383(8)
H9 H 0.359296 0.035842 0.365104
H10 H 0.448011 0.138952 0.342402
H11 H 0.325752 0.180493 0.362361
loop_
_geom_bond_atom_site_label_1
_geom_bond_atom_site_label_2
_geom_bond_site_symmetry_1
_geom_bond_site_symmetry_2
Cl1 C8 1_555 1_555
N1 H1 1_555 1_555
C1 N1 1_555 1_555
H2 C1 1_555 1_555
C2 C1 1_555 1_555
C3 C2 1_555 1_555
C4 C3 1_555 1_555
H3 C4 1_555 1_555
C5 N1 1_555 1_555
H4 C5 1_555 1_555
N2 C3 1_555 1_555
H5 N2 1_555 1_555
C6 N2 1_555 1_555
C7 C6 1_555 1_555
C8 C7 1_555 1_555
C9 C8 1_555 1_555
H6 C9 1_555 1_555
C10 C9 1_555 1_555
H7 C10 1_555 1_555
C11 C6 1_555 1_555
H8 C11 1_555 1_555
C12 C2 1_555 1_555
O1 C12 1_555 1_555
O2 C12 1_555 1_555
C13 C7 1_555 1_555
H9 C13 1_555 1_555
H10 C13 1_555 1_555
H11 C13 1_555 1_555
C4 C5 1_555 1_555
C10 C11 1_555 1_555

#END
