
#######################################################################
#
#                 Cambridge Crystallographic Data Centre
#                                CCDC 
#
#######################################################################
#
# If this CIF has been generated from an entry in the Cambridge 
# Structural Database, then it will include bibliographic, chemical, 
# crystal, experimental, refinement or atomic coordinate data resulting 
# from the CCDC's data processing and validation procedures.
#
#######################################################################

data_NIMGIZ
_chemical_formula_moiety         'C36 H50 S4'
_chemical_name_systematic        
3',4''-Didecyl-2,2';5',2'';5'',2'''-quaterthiophene
_symmetry_cell_setting           monoclinic
_symmetry_space_group_name_H-M   'C 2/c'
_symmetry_Int_Tables_number      15
_space_group_name_Hall           '-C 2yn'
loop_
_symmetry_equiv_pos_site_id
_symmetry_equiv_pos_as_xyz
1 x,y,z
2 1/2+x,1/2+y,z
3 -x,y,1/2-z
4 1/2-x,1/2+y,1/2-z
5 -x,-y,-z
6 1/2-x,1/2-y,-z
7 x,-y,1/2+z
8 1/2+x,1/2-y,1/2+z
_cell_length_a                   36.149(11)
_cell_length_b                   5.4710(10)
_cell_length_c                   18.673(7)
_cell_angle_alpha                90
_cell_angle_beta                 109.47(3)
_cell_angle_gamma                90
_cell_volume                     3481.8
_exptl_crystal_colour            light-red
_exptl_crystal_description       platelet
_cell_formula_units_Z            4
loop_
_atom_site_label
_atom_site_type_symbol
_atom_site_fract_x
_atom_site_fract_y
_atom_site_fract_z
S1 S 0.2598(1) 0.1582(1) 0.1189(1)
C1 C 0.2622(1) 0.2932(4) 0.0372(1)
C2 C 0.2891(1) 0.4780(4) 0.0543(1)
H1 H 0.2941 0.5730 0.0173
C3 C 0.3087(1) 0.5134(4) 0.1331(2)
C4 C 0.2957(1) 0.3498(4) 0.1757(2)
S2 S 0.3404(1) 0.5001(3) 0.3214(1)
C5 C 0.3372(3) 0.3309(17) 0.3957(3)
H2 H 0.3524 0.3635 0.4458
C6 C 0.3114(4) 0.148(2) 0.3766(4)
H3 H 0.3055 0.0449 0.4109
C7 C 0.2942(4) 0.135(2) 0.2974(6)
H4 H 0.2756 0.0169 0.2739
C8 C 0.3066(2) 0.3079(14) 0.2563(3)
C13 C 0.3404(1) 0.6994(4) 0.1655(1)
H8 H 0.3636 0.6149 0.1978
H9 H 0.3319 0.8093 0.1977
C14 C 0.3522(1) 0.8526(5) 0.1087(1)
H10 H 0.3598 0.7452 0.0746
H11 H 0.3298 0.9481 0.0785
C15 C 0.3860(1) 1.0230(5) 0.1478(1)
H12 H 0.3779 1.1298 0.1814
H13 H 0.4078 0.9254 0.1792
C16 C 0.4004(1) 1.1791(5) 0.0962(2)
H14 H 0.3794 1.2862 0.0671
H15 H 0.4073 1.0744 0.0606
C17 C 0.4356(1) 1.3317(5) 0.1389(2)
H16 H 0.4279 1.4407 0.1725
H17 H 0.4556 1.2235 0.1705
C18 C 0.4535(1) 1.4831(6) 0.0916(2)
H18 H 0.4341 1.5994 0.0621
H19 H 0.4603 1.3768 0.0563
C19 C 0.4899(1) 1.6212(7) 0.1386(2)
H20 H 0.4832 1.7189 0.1758
H21 H 0.5094 1.5030 0.1662
C20 C 0.5080(1) 1.7848(9) 0.0959(3)
H24 H 0.4892 1.9097 0.0703
H25 H 0.5142 1.6902 0.0574
C21 C 0.5454(2) 1.9075(11) 0.1472(3)
H26 H 0.5569 1.8052 0.1915
H27 H 0.5384 2.0621 0.1647
C22 C 0.5763(2) 1.9554(15) 0.1095(5)
H28 H 0.5988 2.0331 0.1452
H29 H 0.5655 2.0600 0.0662
H30 H 0.5842 1.8032 0.0933
C1E C 0.2378(1) 0.2068(4) -0.0372(1)
S1E S 0.2402(1) 0.3418(1) -0.1189(1)
C4E C 0.2043(1) 0.1502(4) -0.1757(2)
C3E C 0.1913(1) -0.0134(4) -0.1331(2)
C2E C 0.2109(1) 0.0220(4) -0.0543(1)
H1E H 0.2059 -0.0730 -0.0173
C13E C 0.1596(1) -0.1994(4) -0.1655(1)
H8E H 0.1364 -0.1149 -0.1978
H9E H 0.1681 -0.3093 -0.1977
C14E C 0.1478(1) -0.3526(5) -0.1087(1)
H10E H 0.1402 -0.2452 -0.0746
H11E H 0.1702 -0.4481 -0.0785
C15E C 0.1140(1) -0.5230(5) -0.1478(1)
H12E H 0.1221 -0.6298 -0.1814
H13E H 0.0922 -0.4254 -0.1792
C16E C 0.0996(1) -0.6791(5) -0.0962(2)
H14E H 0.1206 -0.7862 -0.0671
H15E H 0.0927 -0.5744 -0.0606
C17E C 0.0644(1) -0.8317(5) -0.1389(2)
H16E H 0.0721 -0.9407 -0.1725
H17E H 0.0444 -0.7235 -0.1705
C18E C 0.0465(1) -0.9831(6) -0.0916(2)
H18E H 0.0659 -1.0994 -0.0621
H19E H 0.0397 -0.8768 -0.0563
C19E C 0.0101(1) -1.1212(7) -0.1386(2)
H20E H 0.0168 -1.2189 -0.1758
H21E H -0.0094 -1.0030 -0.1662
C20E C -0.0080(1) -1.2848(9) -0.0959(3)
H24E H 0.0108 -1.4097 -0.0703
H25E H -0.0142 -1.1902 -0.0574
C21E C -0.0454(2) -1.4075(11) -0.1472(3)
H26E H -0.0569 -1.3052 -0.1915
H27E H -0.0384 -1.5621 -0.1647
C22E C -0.0763(2) -1.4554(15) -0.1095(5)
H28E H -0.0988 -1.5331 -0.1452
H29E H -0.0655 -1.5600 -0.0662
H30E H -0.0842 -1.3032 -0.0933
C8E C 0.1934(2) 0.1921(14) -0.2563(3)
S2E S 0.1596(1) -0.0001(3) -0.3214(1)
C5E C 0.1628(3) 0.1691(17) -0.3957(3)
H2E H 0.1476 0.1365 -0.4458
C6E C 0.1886(4) 0.352(2) -0.3766(4)
H3E H 0.1945 0.4551 -0.4109
C7E C 0.2058(4) 0.365(2) -0.2974(6)
H4E H 0.2244 0.4831 -0.2739
S3? S 0.2898(2) 0.0960(12) 0.2952(2)
C9? C 0.3176(6) 0.175(4) 0.3855(8)
H5? H 0.3166 0.0926 0.4284
C10? C 0.3411(6) 0.368(4) 0.3885(8)
H6? H 0.3517 0.4640 0.4317
C11? C 0.3481(3) 0.4119(17) 0.3178(6)
H7? H 0.3705 0.4716 0.3099
C12? C 0.3121(5) 0.340(3) 0.2640(8)
H22? H 0.4815 1.7659 0.1589
H23? H 0.5041 1.5191 0.1814
C23? C 0.5178(3) 1.700(2) 0.0997(6)
H31? H 0.5045 1.8194 0.0615
H32? H 0.5230 1.5587 0.0728
C24? C 0.5573(3) 1.8076(17) 0.1462(6)
H33? H 0.5779 1.6932 0.1472
H34? H 0.5579 1.8319 0.1981
C25? C 0.5654(3) 2.0653(17) 0.1119(6)
H35? H 0.5921 2.1146 0.1375
H36? H 0.5480 2.1872 0.1193
H37? H 0.5612 2.0472 0.0586
loop_
_geom_bond_atom_site_label_1
_geom_bond_atom_site_label_2
_geom_bond_site_symmetry_1
_geom_bond_site_symmetry_2
S1 C1 1_555 1_555
C1 C2 1_555 1_555
C2 H1 1_555 1_555
C3 C2 1_555 1_555
C4 S1 1_555 1_555
S2 C5 1_555 1_555
C5 H2 1_555 1_555
C6 C5 1_555 1_555
H3 C6 1_555 1_555
C7 C6 1_555 1_555
H4 C7 1_555 1_555
C8 C4 1_555 1_555
C13 C3 1_555 1_555
H8 C13 1_555 1_555
H9 C13 1_555 1_555
C14 C13 1_555 1_555
H10 C14 1_555 1_555
H11 C14 1_555 1_555
C15 C14 1_555 1_555
H12 C15 1_555 1_555
H13 C15 1_555 1_555
C16 C15 1_555 1_555
H14 C16 1_555 1_555
H15 C16 1_555 1_555
C17 C16 1_555 1_555
H16 C17 1_555 1_555
H17 C17 1_555 1_555
C18 C17 1_555 1_555
H18 C18 1_555 1_555
H19 C18 1_555 1_555
C19 C18 1_555 1_555
H20 C19 1_555 1_555
H21 C19 1_555 1_555
C20 C19 1_555 1_555
H24 C20 1_555 1_555
H25 C20 1_555 1_555
C21 C20 1_555 1_555
H26 C21 1_555 1_555
H27 C21 1_555 1_555
C22 C21 1_555 1_555
H28 C22 1_555 1_555
H29 C22 1_555 1_555
H30 C22 1_555 1_555
C1E C1 1_555 1_555
S1E C1E 1_555 1_555
C4E S1E 1_555 1_555
C3E C4E 1_555 1_555
C2E C1E 1_555 1_555
H1E C2E 1_555 1_555
C13E C3E 1_555 1_555
H8E C13E 1_555 1_555
H9E C13E 1_555 1_555
C14E C13E 1_555 1_555
H10E C14E 1_555 1_555
H11E C14E 1_555 1_555
C15E C14E 1_555 1_555
H12E C15E 1_555 1_555
H13E C15E 1_555 1_555
C16E C15E 1_555 1_555
H14E C16E 1_555 1_555
H15E C16E 1_555 1_555
C17E C16E 1_555 1_555
H16E C17E 1_555 1_555
H17E C17E 1_555 1_555
C18E C17E 1_555 1_555
H18E C18E 1_555 1_555
H19E C18E 1_555 1_555
C19E C18E 1_555 1_555
H20E C19E 1_555 1_555
H21E C19E 1_555 1_555
C20E C19E 1_555 1_555
H24E C20E 1_555 1_555
H25E C20E 1_555 1_555
C21E C20E 1_555 1_555
H26E C21E 1_555 1_555
H27E C21E 1_555 1_555
C22E C21E 1_555 1_555
H28E C22E 1_555 1_555
H29E C22E 1_555 1_555
H30E C22E 1_555 1_555
C8E C4E 1_555 1_555
S2E C8E 1_555 1_555
C5E S2E 1_555 1_555
H2E C5E 1_555 1_555
C6E C5E 1_555 1_555
H3E C6E 1_555 1_555
C7E C8E 1_555 1_555
H4E C7E 1_555 1_555
C3 C4 1_555 1_555
S2 C8 1_555 1_555
C7 C8 1_555 1_555
C3E C2E 1_555 1_555
C6E C7E 1_555 1_555

#END
