
#######################################################################
#
#                 Cambridge Crystallographic Data Centre
#                                CCDC 
#
#######################################################################
#
# If this CIF has been generated from an entry in the Cambridge 
# Structural Database, then it will include bibliographic, chemical, 
# crystal, experimental, refinement or atomic coordinate data resulting 
# from the CCDC's data processing and validation procedures.
#
#######################################################################

data_NIMJAU
_chemical_formula_moiety         'C52 H56 N4 O8 S4,C2 H3 N1'
_chemical_name_systematic        
"N,N',N'',N'''-Tetratosyl-2,6,9,13-tetra-aza-(14)(9,10)anthracenophane acetonitrile solvate"
_symmetry_cell_setting           triclinic
_symmetry_space_group_name_H-M   'P -1'
_symmetry_Int_Tables_number      2
_space_group_name_Hall           '-P 1'
loop_
_symmetry_equiv_pos_site_id
_symmetry_equiv_pos_as_xyz
1 x,y,z
2 -x,-y,-z
_cell_length_a                   14.450(4)
_cell_length_b                   14.998(6)
_cell_length_c                   15.717(6)
_cell_angle_alpha                94.31(3)
_cell_angle_beta                 114.75(2)
_cell_angle_gamma                116.15(3)
_cell_volume                     2632.07
_exptl_crystal_colour            colorless
_exptl_crystal_description       prismatic
_chemical_melting_point          177-178deg.C
_cell_formula_units_Z            2
loop_
_atom_site_label
_atom_site_type_symbol
_atom_site_fract_x
_atom_site_fract_y
_atom_site_fract_z
S1 S 0.58136(5) 0.29554(5) 0.99360(5)
S2 S 0.34624(5) -0.26072(5) 0.45269(5)
S3 S 0.92351(5) 0.01122(5) 0.71527(5)
S4 S 1.04168(5) 0.33983(7) 0.98282(5)
O1 O 0.2349(2) -0.2924(2) 0.4484(2)
O2 O 0.3737(2) -0.2057(1) 0.3883(1)
O3 O 0.4749(1) 0.2318(2) 0.9953(2)
O4 O 0.5818(2) 0.3604(2) 0.9313(2)
O5 O 1.1058(2) 0.2945(2) 0.9716(2)
O6 O 0.8593(2) -0.0897(1) 0.6425(2)
O7 O 1.0807(2) 0.4472(2) 0.9866(2)
O8 O 0.9701(2) 0.0195(2) 0.8167(2)
N1 N 0.4520(2) -0.1845(2) 0.5655(2)
N2 N 0.9042(2) 0.2664(2) 0.8932(2)
N3 N 0.8332(2) 0.0551(2) 0.6886(2)
N4 N 0.6197(2) 0.2177(2) 0.9610(2)
C3 C 0.4079(2) -0.0872(2) 0.7253(2)
C4 C 0.4371(2) -0.2185(2) 0.6475(2)
C5 C 0.4806(2) -0.1291(2) 0.7339(2)
C6 C 0.2252(2) -0.0873(2) 0.6308(2)
C7 C 0.5500(2) 0.0309(2) 0.8972(2)
C8 C 0.2974(2) -0.1238(2) 0.6371(2)
C9 C 0.7633(2) -0.1006(2) 0.9242(2)
C10 C 0.5865(2) -0.0932(2) 0.8233(2)
C11 C 0.7312(2) 0.0222(2) 0.9956(2)
C12 C 0.4420(2) -0.0075(2) 0.8088(2)
C13 C 0.6625(2) -0.1349(2) 0.8383(2)
C14 C 0.2572(2) -0.0109(2) 0.7119(2)
C15 C 0.3620(2) 0.0273(2) 0.7976(2)
C16 C 0.6228(2) -0.0110(2) 0.9065(2)
C17 C 0.5755(2) -0.1324(2) 0.5828(2)
C18 C 0.3511(2) -0.3750(2) 0.4292(2)
C19 C 0.3204(3) -0.4478(2) 0.4766(2)
C20 C 0.3224(3) -0.5376(2) 0.4560(3)
C21 C 0.5845(2) 0.1176(2) 0.9814(2)
C22 C 1.0276(2) 0.3980(2) 1.1430(2)
C23 C 0.3839(2) -0.3934(2) 0.3629(2)
C24 C 0.8613(2) 0.1599(2) 0.8378(2)
C25 C 0.6171(2) -0.0259(2) 0.5686(2)
C26 C 1.0423(3) 0.2454(2) 1.1250(3)
C27 C 0.3522(2) -0.5587(2) 0.38882(3)
C28 C 0.7319(2) 0.2682(2) 0.9585(2)
C29 C 1.0189(2) 0.3857(3) 1.2257(2)
C30 C 0.6934(2) 0.3795(2) 1.1146(2)
C31 C 0.7423(2) 0.0251(2) 0.5844(2)
C32 C 0.7650(3) 0.4852(2) 1.1323(2)
C33 C 0.8838(2) 0.1610(2) 0.7525(2)
C34 C 0.7075(3) 0.3398(3) 1.1923(2)
C35 C 0.3833(3) -0.4854(2) 0.3428(3)
C36 C 1.0392(2) 0.3278(2) 1.0930(2)
C37 C 1.0325(3) 0.2346(3) 1.2075(3)
C38 C 0.7978(3) -0.0214(2) 1.0046(2)
C39 C 0.7116(2) 0.2558(2) 0.8551(2)
C40 C 0.7918(3) 0.4068(3) 1.2877(2)
C41 C 0.8324(3) 0.5140(3) 1.3070(2)
C42 C 1.0438(2) 0.0958(2) 0.7012(2)
C43 C 1.0285(2) 0.0910(2) 0.6077(2)
C44 C 1.1551(2) 0.1676(2) 0.7831(2)
C45 C 0.8285(2) 0.3112(2) 0.8553(2)
C46 C 1.2489(3) 0.2295(3) 0.7698(3)
C47 C 1.1230(3) 0.1542(3) 0.5971(2)
C48 C 1.0195(3) 0.3013(3) 1.2580(2)
C49 C 0.3521(3) -0.6572(2) 0.3654(4)
C50 C 1.2352(3) 0.2239(3) 0.6776(3)
C51 C 0.8473(3) 0.5507(3) 1.2273(3)
C52 C 0.9500(4) 0.5873(5) 1.4108(4)
C53 C 1.0083(4) 0.2868(4) 1.3462(3)
C54 C 1.3429(4) 0.2885(4) 0.6673(4)
H1 H 0.4791 -0.2531 0.6703
H2 H 0.3537 -0.2663 0.6224
H3 H 0.1515 -0.1126 0.5693
H4 H 0.2749 -0.1747 0.5811
H5 H 0.8111 -0.1304 0.9322
H6 H 0.7588 0.0755 1.0502
H7 H 0.6410 -0.1878 0.7830
H8 H 0.2046 0.0114 0.7091
H9 H 0.3833 0.0803 0.8503
H10 H 0.5785 -0.1756 0.5370
H11 H 0.6283 -0.1243 0.6479
H12 H 0.2962 -0.4358 0.5212
H13 H 0.2979 -0.5882 0.4883
H14 H 0.5168 0.0977 0.9893
H15 H 0.6484 0.1256 1.0402
H16 H 1.0252 0.4549 1.1194
H17 H 0.4074 -0.3422 0.3313
H18 H 0.7774 0.1165 0.8129
H19 H 0.9013 0.1312 0.8803
H20 H 0.6156 0.0177 0.6141
H21 H 0.5638 -0.0337 0.5028
H22 H 1.0501 0.1957 1.0893
H23 H 0.7753 0.2346 0.9885
H24 H 0.7779 0.3396 0.9959
H25 H 1.0146 0.4358 1.2643
H26 H 0.7467 -0.0224 0.5448
H27 H 0.7596 0.0864 0.5647
H28 H 0.7566 0.5135 1.0785
H29 H 0.8488 0.1953 0.7133
H30 H 0.9675 0.1999 0.7780
H31 H 0.6583 0.2648 1.1804
H32 H 0.4050 -0.4984 0.2950
H33 H 1.0336 0.1759 1.2301
H34 H 0.8679 0.0021 1.0659
H35 H 0.6679 0.2885 0.8251
H36 H 0.6685 0.1851 0.8188
H37 H 0.8016 0.3803 1.3434
H38 H 0.927 0.0430 0.5515
H39 H 1.1664 0.1737 0.8494
H40 H 0.8100 0.3068 0.7896
H41 H 0.8726 0.3815 0.8954
H42 H 1.3258 0.2793 0.8262
H43 H 1.1104 0.1496 0.5311
H44 H 0.3270 -0.7010 0.4017
H45 H 0.2955 -0.6975 0.2952
H46 H 0.4281 -0.6431 0.3782
H47 H 0.8925 0.6248 1.2363
H48 H 0.9897 0.6600 1.4070
H49 H 0.9090 0.5909 1.4451
H50 H 1.0083 0.5742 1.4451
H51 H 1.0001 0.3427 1.3738
H52 H 0.9364 0.2223 1.3288
H53 H 1.0741 0.2888 1.3974
H54 H 1.3137 0.2736 0.5951
H55 H 1.3721 0.3616 0.6918
H56 H 1.4012 0.2735 0.6950
C1 C 0.4848(3) 0.4158(3) 0.1783(3)
C2 C 0.4098(4) 0.4037(4) 0.0774(4)
N5 N 0.5477(3) 0.4290(3) 0.2587(3)
loop_
_geom_bond_atom_site_label_1
_geom_bond_atom_site_label_2
_geom_bond_site_symmetry_1
_geom_bond_site_symmetry_2
S1 O3 1_555 1_555
S2 O1 1_555 1_555
S3 O6 1_555 1_555
S4 O5 1_555 1_555
O2 S2 1_555 1_555
O4 S1 1_555 1_555
O7 S4 1_555 1_555
O8 S3 1_555 1_555
C1 C2 1_555 1_555
N1 S2 1_555 1_555
N2 S4 1_555 1_555
N3 S3 1_555 1_555
N4 S1 1_555 1_555
C3 C5 1_555 1_555
C4 N1 1_555 1_555
C5 C4 1_555 1_555
C6 C8 1_555 1_555
C7 C12 1_555 1_555
C8 C3 1_555 1_555
C9 C13 1_555 1_555
C10 C5 1_555 1_555
C11 C16 1_555 1_555
C12 C3 1_555 1_555
C13 C10 1_555 1_555
C14 C6 1_555 1_555
C15 C12 1_555 1_555
C16 C7 1_555 1_555
C17 N1 1_555 1_555
C18 S2 1_555 1_555
C19 C18 1_555 1_555
C20 C19 1_555 1_555
C21 N4 1_555 1_555
C22 C29 1_555 1_555
C23 C18 1_555 1_555
C24 N2 1_555 1_555
C25 C17 1_555 1_555
C26 C36 1_555 1_555
C27 C20 1_555 1_555
C28 N4 1_555 1_555
C29 C48 1_555 1_555
C30 S1 1_555 1_555
C31 N3 1_555 1_555
C32 C30 1_555 1_555
C33 N3 1_555 1_555
C34 C30 1_555 1_555
C35 C23 1_555 1_555
C36 S4 1_555 1_555
C37 C26 1_555 1_555
C38 C9 1_555 1_555
C39 C28 1_555 1_555
C40 C34 1_555 1_555
C41 C40 1_555 1_555
C42 S3 1_555 1_555
C43 C42 1_555 1_555
C44 C42 1_555 1_555
C45 N2 1_555 1_555
C46 C44 1_555 1_555
C47 C43 1_555 1_555
C48 C37 1_555 1_555
C49 C27 1_555 1_555
C50 C46 1_555 1_555
C51 C32 1_555 1_555
C52 C41 1_555 1_555
C53 C48 1_555 1_555
C54 C50 1_555 1_555
N5 C1 1_555 1_555
H1 C4 1_555 1_555
H2 C4 1_555 1_555
H3 C6 1_555 1_555
H4 C8 1_555 1_555
H5 C9 1_555 1_555
H6 C11 1_555 1_555
H7 C13 1_555 1_555
H8 C14 1_555 1_555
H9 C15 1_555 1_555
H10 C17 1_555 1_555
H11 C17 1_555 1_555
H12 C19 1_555 1_555
H13 C20 1_555 1_555
H14 C21 1_555 1_555
H15 C21 1_555 1_555
H16 C22 1_555 1_555
H17 C23 1_555 1_555
H18 C24 1_555 1_555
H19 C24 1_555 1_555
H20 C25 1_555 1_555
H21 C25 1_555 1_555
H22 C26 1_555 1_555
H23 C28 1_555 1_555
H24 C28 1_555 1_555
H25 C29 1_555 1_555
H26 C31 1_555 1_555
H27 C31 1_555 1_555
H28 C32 1_555 1_555
H29 C33 1_555 1_555
H30 C33 1_555 1_555
H31 C34 1_555 1_555
H32 C35 1_555 1_555
H33 C37 1_555 1_555
H34 C38 1_555 1_555
H35 C39 1_555 1_555
H36 C39 1_555 1_555
H37 C40 1_555 1_555
H38 C43 1_555 1_555
H39 C44 1_555 1_555
H40 C45 1_555 1_555
H41 C45 1_555 1_555
H42 C46 1_555 1_555
H43 C47 1_555 1_555
H44 C49 1_555 1_555
H45 C49 1_555 1_555
H46 C49 1_555 1_555
H47 C51 1_555 1_555
H48 C52 1_555 1_555
H49 C52 1_555 1_555
H50 C52 1_555 1_555
H51 C53 1_555 1_555
H52 C53 1_555 1_555
H53 C53 1_555 1_555
H54 C54 1_555 1_555
H55 C54 1_555 1_555
H56 C54 1_555 1_555
C7 C21 1_555 1_555
C10 C16 1_555 1_555
C11 C38 1_555 1_555
C14 C15 1_555 1_555
C22 C36 1_555 1_555
C24 C33 1_555 1_555
C25 C31 1_555 1_555
C27 C35 1_555 1_555
C39 C45 1_555 1_555
C41 C51 1_555 1_555
C47 C50 1_555 1_555

#END
