
#######################################################################
#
#                 Cambridge Crystallographic Data Centre
#                                CCDC 
#
#######################################################################
#
# If this CIF has been generated from an entry in the Cambridge 
# Structural Database, then it will include bibliographic, chemical, 
# crystal, experimental, refinement or atomic coordinate data resulting 
# from the CCDC's data processing and validation procedures.
#
#######################################################################

data_NIMKEC01
_chemical_formula_moiety         'C12 H10 N2 O2'
_chemical_name_systematic        4-anilinopyridin-1-ium-3-carboxylate
_symmetry_cell_setting           monoclinic
_symmetry_space_group_name_H-M   'P 21/c'
_symmetry_Int_Tables_number      14
_space_group_name_Hall           '-P 2ybc'
loop_
_symmetry_equiv_pos_site_id
_symmetry_equiv_pos_as_xyz
1 x,y,z
2 -x,1/2+y,1/2-z
3 -x,-y,-z
4 x,1/2-y,1/2+z
_cell_length_a                   13.8180(2)
_cell_length_b                   11.3050(2)
_cell_length_c                   13.5600(3)
_cell_angle_alpha                90
_cell_angle_beta                 107.6860(9)
_cell_angle_gamma                90
_cell_volume                     2018.12
_exptl_crystal_colour            colorless
_exptl_crystal_description       plate
_cell_formula_units_Z            8
loop_
_atom_site_label
_atom_site_type_symbol
_atom_site_fract_x
_atom_site_fract_y
_atom_site_fract_z
N1 N 0.09425(8) -0.16234(10) 0.68765(9)
H1 H 0.084542 -0.229309 0.716347
C1 C 0.04534(10) -0.06371(11) 0.70136(11)
H2 H 0.000211 -0.068396 0.741918
C2 C 0.05795(10) 0.04324(11) 0.65923(10)
C3 C 0.12707(10) 0.05046(11) 0.59907(10)
C4 C 0.17604(11) -0.05598(11) 0.58536(11)
H3 H 0.221442 -0.055645 0.544963
C5 C 0.15841(10) -0.15825(12) 0.62960(11)
H4 H 0.191891 -0.228555 0.619562
C6 C 0.00061(10) 0.14944(11) 0.68073(11)
O1 O -0.05366(7) 0.13279(8) 0.73936(8)
O2 O 0.01221(7) 0.24680(8) 0.64145(8)
N2 N 0.14249(9) 0.15415(9) 0.55851(9)
H5 H 0.106559 0.214577 0.568766
C7 C 0.21093(10) 0.17706(11) 0.50045(10)
C8 C 0.1752(1) 0.23917(12) 0.40835(11)
H6 H 0.106120 0.263225 0.384169
C9 C 0.24064(11) 0.26609(12) 0.35159(11)
H7 H 0.216087 0.308658 0.288484
C10 C 0.34119(11) 0.23148(12) 0.38611(11)
H8 H 0.385532 0.249215 0.346580
C11 C 0.37684(11) 0.17081(12) 0.47866(11)
H9 H 0.445967 0.146861 0.502445
C12 C 0.31286(11) 0.14443(11) 0.53729(11)
H10 H 0.338287 0.104640 0.601713
N3 N 0.40727(9) -0.38298(10) 0.81562(9)
H11 H 0.429665 -0.451438 0.800607
C13 C 0.43485(10) -0.28246(12) 0.77884(11)
H12 H 0.477169 -0.287250 0.735326
C14 C 0.40438(10) -0.17318(11) 0.80158(10)
C15 C 0.34318(10) -0.16624(11) 0.86976(10)
C16 C 0.31262(11) -0.27470(12) 0.90361(12)
H13 H 0.269152 -0.274255 0.946077
C17 C 0.34512(11) -0.37925(12) 0.87570(12)
H14 H 0.323763 -0.451145 0.898847
C18 C 0.44223(10) -0.06520(12) 0.75850(11)
O3 O 0.49582(8) -0.08352(8) 0.69954(8)
O4 O 0.41982(7) 0.03504(8) 0.78527(8)
N4 N 0.31851(9) -0.06027(9) 0.89966(9)
H15 H 0.333850 0.001724 0.868086
C19 C 0.27029(10) -0.03670(11) 0.97675(11)
C20 C 0.31970(11) 0.03771(12) 1.05779(11)
H16 H 0.385233 0.067656 1.062678
C21 C 0.27335(12) 0.06829(12) 1.13159(11)
H17 H 0.306894 0.120145 1.186458
C22 C 0.17854(12) 0.02377(13) 1.12584(12)
H18 H 0.147218 0.044282 1.176902
C23 C 0.12965(11) -0.05084(12) 1.04521(12)
H19 H 0.064711 -0.081850 1.041370
C24 C 0.17451(10) -0.08091(12) 0.96978(11)
H20 H 0.140085 -0.131158 0.913996
loop_
_geom_bond_atom_site_label_1
_geom_bond_atom_site_label_2
_geom_bond_site_symmetry_1
_geom_bond_site_symmetry_2
N1 H1 1_555 1_555
C1 N1 1_555 1_555
H2 C1 1_555 1_555
C2 C1 1_555 1_555
C3 C2 1_555 1_555
C4 C3 1_555 1_555
H3 C4 1_555 1_555
C5 N1 1_555 1_555
H4 C5 1_555 1_555
C6 C2 1_555 1_555
O1 C6 1_555 1_555
O2 C6 1_555 1_555
N2 C3 1_555 1_555
H5 N2 1_555 1_555
C7 N2 1_555 1_555
C8 C7 1_555 1_555
H6 C8 1_555 1_555
C9 C8 1_555 1_555
H7 C9 1_555 1_555
C10 C9 1_555 1_555
H8 C10 1_555 1_555
C11 C10 1_555 1_555
H9 C11 1_555 1_555
C12 C7 1_555 1_555
H10 C12 1_555 1_555
N3 H11 1_555 1_555
C13 N3 1_555 1_555
H12 C13 1_555 1_555
C14 C13 1_555 1_555
C15 C14 1_555 1_555
C16 C15 1_555 1_555
H13 C16 1_555 1_555
C17 N3 1_555 1_555
H14 C17 1_555 1_555
C18 C14 1_555 1_555
O3 C18 1_555 1_555
O4 C18 1_555 1_555
N4 C15 1_555 1_555
H15 N4 1_555 1_555
C19 N4 1_555 1_555
C20 C19 1_555 1_555
H16 C20 1_555 1_555
C21 C20 1_555 1_555
H17 C21 1_555 1_555
C22 C21 1_555 1_555
H18 C22 1_555 1_555
C23 C22 1_555 1_555
H19 C23 1_555 1_555
C24 C19 1_555 1_555
H20 C24 1_555 1_555
C4 C5 1_555 1_555
C11 C12 1_555 1_555
C16 C17 1_555 1_555
C23 C24 1_555 1_555

#END
