
#######################################################################
#
#                 Cambridge Crystallographic Data Centre
#                                CCDC 
#
#######################################################################
#
# If this CIF has been generated from an entry in the Cambridge 
# Structural Database, then it will include bibliographic, chemical, 
# crystal, experimental, refinement or atomic coordinate data resulting 
# from the CCDC's data processing and validation procedures.
#
#######################################################################

data_NIMKEC
_chemical_formula_moiety         'C12 H10 N2 O2'
_chemical_name_systematic        4-anilinopyridin-1-ium-3-carboxylate
_symmetry_cell_setting           monoclinic
_symmetry_space_group_name_H-M   'P 21/c'
_symmetry_Int_Tables_number      14
_space_group_name_Hall           '-P 2ybc'
loop_
_symmetry_equiv_pos_site_id
_symmetry_equiv_pos_as_xyz
1 x,y,z
2 -x,1/2+y,1/2-z
3 -x,-y,-z
4 x,1/2-y,1/2+z
_cell_length_a                   10.8415(2)
_cell_length_b                   13.7771(4)
_cell_length_c                   6.9369(2)
_cell_angle_alpha                90
_cell_angle_beta                 102.685(1)
_cell_angle_gamma                90
_cell_volume                     1010.84
_exptl_crystal_colour            colorless
_exptl_crystal_description       block
_cell_formula_units_Z            4
loop_
_atom_site_label
_atom_site_type_symbol
_atom_site_fract_x
_atom_site_fract_y
_atom_site_fract_z
N1 N 0.05407(12) 0.12545(9) 0.29447(19)
H1 H 0.005689 0.074500 0.257533
C1 C 0.00741(16) 0.21502(11) 0.2538(2)
H2 H -0.078649 0.221939 0.187516
C2 C 0.07888(15) 0.29720(11) 0.3039(2)
C3 C 0.20871(15) 0.28639(11) 0.3998(2)
C4 C 0.25301(15) 0.19029(11) 0.4456(2)
H3 H 0.337882 0.179763 0.514357
C5 C 0.17474(15) 0.11341(11) 0.3917(2)
H4 H 0.205970 0.049631 0.423407
C6 C 0.01294(15) 0.39378(12) 0.2533(2)
O1 O -0.10061(10) 0.39367(8) 0.17233(18)
O2 O 0.08187(10) 0.46942(8) 0.29992(17)
N2 N 0.28230(12) 0.36554(9) 0.44537(18)
H5 H 0.246033 0.421660 0.408201
C7 C 0.41098(15) 0.36945(11) 0.5459(2)
C8 C 0.44572(16) 0.44114(11) 0.6897(2)
H6 H 0.383955 0.484826 0.717047
C9 C 0.56988(15) 0.44862(12) 0.7923(2)
H7 H 0.592912 0.497539 0.890053
C10 C 0.66124(16) 0.38556(12) 0.7541(3)
H8 H 0.746026 0.389806 0.827620
C11 C 0.62718(16) 0.31610(12) 0.6070(3)
H9 H 0.689449 0.273265 0.578348
C12 C 0.50334(16) 0.30871(11) 0.5018(3)
H10 H 0.481436 0.262011 0.399175
loop_
_geom_bond_atom_site_label_1
_geom_bond_atom_site_label_2
_geom_bond_site_symmetry_1
_geom_bond_site_symmetry_2
N1 H1 1_555 1_555
C1 N1 1_555 1_555
H2 C1 1_555 1_555
C2 C1 1_555 1_555
C3 C2 1_555 1_555
C4 C3 1_555 1_555
H3 C4 1_555 1_555
C5 N1 1_555 1_555
H4 C5 1_555 1_555
C6 C2 1_555 1_555
O1 C6 1_555 1_555
O2 C6 1_555 1_555
N2 C3 1_555 1_555
H5 N2 1_555 1_555
C7 N2 1_555 1_555
C8 C7 1_555 1_555
H6 C8 1_555 1_555
C9 C8 1_555 1_555
H7 C9 1_555 1_555
C10 C9 1_555 1_555
H8 C10 1_555 1_555
C11 C10 1_555 1_555
H9 C11 1_555 1_555
C12 C7 1_555 1_555
H10 C12 1_555 1_555
C4 C5 1_555 1_555
C11 C12 1_555 1_555

#END
