
#######################################################################
#
#                 Cambridge Crystallographic Data Centre
#                                CCDC 
#
#######################################################################
#
# If this CIF has been generated from an entry in the Cambridge 
# Structural Database, then it will include bibliographic, chemical, 
# crystal, experimental, refinement or atomic coordinate data resulting 
# from the CCDC's data processing and validation procedures.
#
#######################################################################

data_NIMLIH
_chemical_formula_moiety         'C17 H18 N2 O2'
_chemical_name_systematic        
2-(2-((2-methylphenoxy)methyl)-1H-benzimidazol-1-yl)ethanol
_symmetry_cell_setting           monoclinic
_symmetry_space_group_name_H-M   'P 21/c'
_symmetry_Int_Tables_number      14
_space_group_name_Hall           '-P 2ybc'
loop_
_symmetry_equiv_pos_site_id
_symmetry_equiv_pos_as_xyz
1 x,y,z
2 -x,1/2+y,1/2-z
3 -x,-y,-z
4 x,1/2-y,1/2+z
_cell_length_a                   11.3505(5)
_cell_length_b                   8.63499(19)
_cell_length_c                   15.9695(5)
_cell_angle_alpha                90
_cell_angle_beta                 108.257(4)
_cell_angle_gamma                90
_cell_volume                     1486.4
_exptl_crystal_colour            colorless
_exptl_crystal_description       block
_cell_formula_units_Z            4
loop_
_atom_site_label
_atom_site_type_symbol
_atom_site_fract_x
_atom_site_fract_y
_atom_site_fract_z
O1 O 0.66345(11) 0.64836(15) -0.08512(9)
O2 O 0.93672(16) 0.48697(16) -0.21941(9)
H1 H 0.9840 0.4595 -0.1715
N1 N 0.92614(12) 0.72860(15) -0.08584(8)
N2 N 0.95168(12) 0.66095(16) 0.05390(9)
C1 C 1.03229(14) 0.80302(18) -0.03543(10)
C2 C 1.04696(14) 0.76030(18) 0.05149(10)
C3 C 1.14653(16) 0.8180(2) 0.11983(11)
H2 H 1.1579 0.7905 0.1781
C4 C 1.22729(17) 0.9168(2) 0.09829(13)
H3 H 1.2944 0.9565 0.1429
C5 C 1.21107(18) 0.9590(2) 0.01099(14)
H4 H 1.2673 1.0267 -0.0012
C6 C 1.11358(16) 0.9026(2) -0.05765(12)
H5 H 1.1029 0.9300 -0.1159
C7 C 0.88255(14) 0.64651(18) -0.02889(10)
C8 C 0.76878(15) 0.5489(2) -0.05873(12)
H6 H 0.7713 0.4843 -0.1078
H7 H 0.7639 0.4821 -0.0111
C9 C 0.54886(16) 0.5779(2) -0.10553(12)
C10 C 0.44786(18) 0.6790(3) -0.12584(14)
C11 C 0.33127(19) 0.6146(4) -0.14210(15)
H8 H 0.2627 0.6798 -0.1548
C12 C 0.3135(2) 0.4579(4) -0.14018(15)
H9 H 0.2341 0.4181 -0.1507
C13 C 0.4130(2) 0.3605(4) -0.12266(16)
H10 H 0.4010 0.2540 -0.1224
C14 C 0.5327(2) 0.4198(3) -0.10518(15)
H11 H 0.6005 0.3536 -0.0935
C15 C 0.87432(16) 0.7401(2) -0.18140(10)
H12 H 0.8739 0.8478 -0.1986
H13 H 0.7891 0.7041 -0.1994
C16 C 0.9466(2) 0.6464(2) -0.22862(12)
H14 H 0.9173 0.6723 -0.2908
H15 H 1.0334 0.6755 -0.2060
C17 C 0.4654(2) 0.8509(3) -0.1282(2)
H16 H 0.5116 0.8869 -0.0703
H17 H 0.3858 0.9008 -0.1471
H18 H 0.5100 0.8750 -0.1686
loop_
_geom_bond_atom_site_label_1
_geom_bond_atom_site_label_2
_geom_bond_site_symmetry_1
_geom_bond_site_symmetry_2
O1 C8 1_555 1_555
O2 H1 1_555 1_555
N1 C1 1_555 1_555
N2 C2 1_555 1_555
C1 C2 1_555 1_555
C2 C3 1_555 1_555
C3 H2 1_555 1_555
C4 C3 1_555 1_555
H3 C4 1_555 1_555
C5 C4 1_555 1_555
H4 C5 1_555 1_555
C6 C1 1_555 1_555
H5 C6 1_555 1_555
C7 N1 1_555 1_555
C8 C7 1_555 1_555
H6 C8 1_555 1_555
H7 C8 1_555 1_555
C9 O1 1_555 1_555
C10 C9 1_555 1_555
C11 C10 1_555 1_555
H8 C11 1_555 1_555
C12 C11 1_555 1_555
H9 C12 1_555 1_555
C13 C12 1_555 1_555
H10 C13 1_555 1_555
C14 C9 1_555 1_555
H11 C14 1_555 1_555
C15 N1 1_555 1_555
H12 C15 1_555 1_555
H13 C15 1_555 1_555
C16 O2 1_555 1_555
H14 C16 1_555 1_555
H15 C16 1_555 1_555
C17 C10 1_555 1_555
H16 C17 1_555 1_555
H17 C17 1_555 1_555
H18 C17 1_555 1_555
N2 C7 1_555 1_555
C5 C6 1_555 1_555
C13 C14 1_555 1_555
C15 C16 1_555 1_555

#END
