
#######################################################################
#
#                 Cambridge Crystallographic Data Centre
#                                CCDC 
#
#######################################################################
#
# If this CIF has been generated from an entry in the Cambridge 
# Structural Database, then it will include bibliographic, chemical, 
# crystal, experimental, refinement or atomic coordinate data resulting 
# from the CCDC's data processing and validation procedures.
#
#######################################################################

data_NIMSAG
_chemical_formula_moiety         'C17 H11 F3 O2'
_chemical_name_systematic        
3-(2,2,2-trifluoro-1-phenylethyl)-4H-1-benzopyran-4-one
_symmetry_cell_setting           orthorhombic
_symmetry_space_group_name_H-M   'P 21 21 21'
_symmetry_Int_Tables_number      19
_space_group_name_Hall           'P 2ac 2ab'
loop_
_symmetry_equiv_pos_site_id
_symmetry_equiv_pos_as_xyz
1 x,y,z
2 1/2-x,-y,1/2+z
3 -x,1/2+y,1/2-z
4 1/2+x,1/2-y,-z
_cell_length_a                   5.94050(10)
_cell_length_b                   7.63410(10)
_cell_length_c                   30.0866(5)
_cell_angle_alpha                90
_cell_angle_beta                 90
_cell_angle_gamma                90
_cell_volume                     1364.44
_exptl_crystal_colour            colorless
_exptl_crystal_description       Bar
_cell_formula_units_Z            4
loop_
_atom_site_label
_atom_site_type_symbol
_atom_site_fract_x
_atom_site_fract_y
_atom_site_fract_z
F1 F 0.7321(2) 0.33561(12) 0.80181(3)
F2 F 0.7302(2) 0.44568(12) 0.86763(3)
F3 F 1.02841(19) 0.31933(13) 0.84269(3)
O1 O 0.3990(2) -0.02048(16) 0.91785(4)
O2 O 0.99194(19) 0.12771(15) 0.97499(3)
C1 C 0.7141(3) 0.1366(2) 0.86135(5)
H1 H 0.5468 0.1418 0.8581
C2 C 1.0008(3) -0.0944(2) 0.83778(5)
H2 H 1.0985 -0.0554 0.8607
C3 C 0.8334(3) 0.04244(19) 1.00006(5)
C4 C 0.5291(3) -0.1303(2) 1.05396(5)
H3 H 0.4248 -0.1892 1.0727
C5 C 0.4761(3) -0.0985(2) 1.01011(5)
H4 H 0.3349 -0.1357 0.9987
C6 C 0.8902(3) 0.0119(2) 1.04446(5)
H5 H 1.0304 0.0504 1.0561
C7 C 0.7909(3) -0.0159(2) 0.83221(5)
C8 C 0.7581(3) 0.10913(19) 0.91049(5)
C9 C 1.0675(3) -0.2297(2) 0.80974(5)
H6 H 1.2108 -0.2828 0.8136
C10 C 0.6290(3) -0.01157(19) 0.98228(5)
C11 C 0.5792(3) 0.02205(19) 0.93521(5)
C12 C 0.9489(3) 0.1555(2) 0.93141(5)
H7 H 1.0620 0.2120 0.9143
C13 C 0.7377(3) -0.0756(2) 1.07097(5)
H8 H 0.7743 -0.0992 1.1011
C14 C 0.7185(4) -0.2105(2) 0.77071(6)
H9 H 0.6211 -0.2499 0.7477
C15 C 0.6508(3) -0.0753(2) 0.79866(6)
H10 H 0.5070 -0.0232 0.7947
C16 C 0.9267(4) -0.2875(2) 0.77623(6)
H11 H 0.9730 -0.3798 0.7571
C17 C 0.8022(3) 0.3092(2) 0.84356(5)
loop_
_geom_bond_atom_site_label_1
_geom_bond_atom_site_label_2
_geom_bond_site_symmetry_1
_geom_bond_site_symmetry_2
F1 C17 1_555 1_555
F2 C17 1_555 1_555
F3 C17 1_555 1_555
O1 C11 1_555 1_555
O2 C3 1_555 1_555
C1 H1 1_555 1_555
C2 H2 1_555 1_555
C3 C6 1_555 1_555
C4 H3 1_555 1_555
C5 C4 1_555 1_555
H4 C5 1_555 1_555
C6 H5 1_555 1_555
C7 C1 1_555 1_555
C8 C1 1_555 1_555
C9 C2 1_555 1_555
H6 C9 1_555 1_555
C10 C3 1_555 1_555
C11 C8 1_555 1_555
C12 O2 1_555 1_555
H7 C12 1_555 1_555
C13 C4 1_555 1_555
H8 C13 1_555 1_555
C14 H9 1_555 1_555
C15 C7 1_555 1_555
H10 C15 1_555 1_555
C16 C9 1_555 1_555
H11 C16 1_555 1_555
C17 C1 1_555 1_555
C2 C7 1_555 1_555
C5 C10 1_555 1_555
C6 C13 1_555 1_555
C8 C12 1_555 1_555
C10 C11 1_555 1_555
C14 C15 1_555 1_555
C14 C16 1_555 1_555

#END
