
#######################################################################
#
#                 Cambridge Crystallographic Data Centre
#                                CCDC 
#
#######################################################################
#
# If this CIF has been generated from an entry in the Cambridge 
# Structural Database, then it will include bibliographic, chemical, 
# crystal, experimental, refinement or atomic coordinate data resulting 
# from the CCDC's data processing and validation procedures.
#
#######################################################################

data_NIMVAJ
_chemical_formula_moiety         'C114 H108 N16 O12'
_chemical_name_systematic        
'6^4^,9^4^,19^6^,21^4^,31^4^,34^4^,44^6^,46^6^,55^6^,60^6^,61^4^,70^6^-dodecahydroxy-1,4,11,14,17,23,26,29,36,39,42,48,53,58,63,68-hexadeca-aza-6,9,19,21,31,34,44,46,55,60,61,70(1,3)-dodecabenzenahexacyclo(30.18.5.5^7,26^.5^8,39^.5^14,33^.0^20,45^)heptacontaphane-4,7,10,17,20(45),22,29,32,35,42,47,53,58,62,68-pentadecaene unknown solvate'
_symmetry_cell_setting           orthorhombic
_symmetry_space_group_name_H-M   'P c c n'
_symmetry_Int_Tables_number      56
_space_group_name_Hall           '-P 2ab 2ac'
loop_
_symmetry_equiv_pos_site_id
_symmetry_equiv_pos_as_xyz
1 x,y,z
2 1/2-x,1/2-y,z
3 -x,1/2+y,1/2-z
4 1/2+x,-y,1/2-z
5 -x,-y,-z
6 1/2+x,1/2+y,-z
7 x,1/2-y,1/2+z
8 1/2-x,y,1/2+z
_cell_length_a                   19.0205(3)
_cell_length_b                   20.3813(4)
_cell_length_c                   30.1755(5)
_cell_angle_alpha                90
_cell_angle_beta                 90
_cell_angle_gamma                90
_cell_volume                     11697.9
_exptl_crystal_colour            'dark red'
_exptl_crystal_description       prism
_cell_formula_units_Z            4
loop_
_atom_site_label
_atom_site_type_symbol
_atom_site_fract_x
_atom_site_fract_y
_atom_site_fract_z
O1 O 0.35796(8) 1.03023(6) 0.55719(5)
H1 H 0.3950 1.0375 0.5702
O2 O 0.56089(7) 0.80214(9) 0.41780(5)
H2 H 0.5691 0.8282 0.4378
O3 O 0.16202(10) 1.03659(7) 0.41001(6)
H3 H 0.1468 1.0426 0.4351
O4 O 0.53663(8) 0.62091(9) 0.56470(6)
H4 H 0.5343 0.5861 0.5782
O5 O 0.34690(10) 0.46993(8) 0.74918(5)
H5 H 0.3340 0.4485 0.7277
N1 N 0.46073(9) 1.00718(8) 0.61229(5)
O6 O 0.51729(9) 0.90709(10) 0.74801(6)
H6 H 0.5487 0.8974 0.7306
N2 N 0.59386(8) 0.92993(9) 0.59922(5)
N3 N 0.57487(8) 0.84556(9) 0.68107(5)
N4 N 0.52948(9) 0.87774(9) 0.48760(5)
N5 N 0.11490(9) 1.00328(9) 0.48803(6)
C1 C 0.29683(8) 0.83560(8) 0.57498(5)
N6 N 0.28795(11) 0.44751(9) 0.67460(6)
C2 C 0.34868(8) 0.72369(8) 0.57666(5)
C3 C 0.28249(8) 0.76344(8) 0.57765(5)
C4 C 0.34981(8) 0.86283(9) 0.60076(5)
H7 H 0.3715 0.8367 0.6220
C5 C 0.16380(9) 0.92590(9) 0.43749(5)
C6 C 0.26495(9) 0.87695(9) 0.54383(5)
H8 H 0.2292 0.8603 0.5261
C7 C 0.34523(9) 0.78394(8) 0.39720(5)
C8 C 0.44293(9) 0.82953(8) 0.43954(5)
C9 C 0.22825(9) 0.84346(8) 0.39629(5)
C10 C 0.37138(9) 0.82210(8) 0.43113(5)
H9 H 0.3396 0.8440 0.4493
C11 C 0.36357(9) 0.67195(9) 0.60476(5)
H10 H 0.3309 0.6606 0.6264
C12 C 0.37197(9) 0.92792(9) 0.59605(5)
C13 C 0.40012(9) 0.73974(9) 0.54510(5)
H11 H 0.3917 0.7745 0.5258
C14 C 0.39437(10) 0.75339(9) 0.36945(5)
H12 H 0.3786 0.7274 0.3461
C15 C 0.27377(9) 0.62089(9) 0.70281(5)
H13 H 0.2432 0.6343 0.6805
C16 C 0.34531(9) 0.78352(10) 0.73345(5)
N7 N 0.39722(12) 0.42688(9) 0.60221(6)
C17 C 0.33845(10) 0.96755(9) 0.56415(6)
C18 C 0.30126(9) 0.66745(10) 0.73092(5)
C19 C 0.18660(9) 0.86142(8) 0.43167(5)
H14 H 0.1734 0.8297 0.4522
C20 C 0.24356(9) 0.89113(9) 0.36474(5)
H15 H 0.2712 0.8799 0.3405
N8 N 0.48946(10) 0.54085(10) 0.62393(6)
C21 C 0.40320(9) 0.77609(10) 0.70641(5)
H16 H 0.4030 0.7429 0.6853
C22 C 0.43252(10) 0.95168(9) 0.62086(6)
H17 H 0.4511 0.9259 0.6434
C23 C 0.28480(9) 0.94141(9) 0.53867(6)
H18 H 0.2620 0.9676 0.5179
C24 C 0.18096(10) 0.97322(9) 0.40542(6)
C25 C 0.46514(10) 0.86912(9) 0.47673(6)
H19 H 0.4307 0.8895 0.4937
C26 C 0.21892(10) 0.95451(9) 0.36840(6)
H20 H 0.2278 0.9847 0.3460
C27 C 0.28351(9) 0.73873(10) 0.72996(5)
C28 C 0.29003(10) 0.55405(10) 0.70650(6)
C29 C 0.46228(9) 0.81670(10) 0.70963(5)
C30 C 0.42602(9) 0.63600(10) 0.60184(6)
C31 C 0.52054(9) 0.80909(10) 0.67888(6)
H21 H 0.5181 0.7769 0.6571
C32 C 0.26638(10) 0.77869(9) 0.39330(5)
C33 C 0.12802(10) 0.94376(10) 0.47816(6)
H22 H 0.1142 0.9108 0.4976
C34 C 0.49084(9) 0.79801(10) 0.41145(6)
C35 C 0.46556(10) 0.76112(9) 0.37600(6)
H23 H 0.4971 0.7415 0.3565
C36 C 0.46245(10) 0.70604(9) 0.54157(6)
H24 H 0.4954 0.7184 0.5204
C37 C 0.27124(11) 0.50772(10) 0.67198(7)
H25 H 0.2464 0.5224 0.6474
C38 C 0.47644(10) 0.65362(11) 0.56953(6)
C39 C 0.34837(10) 0.83269(12) 0.76575(6)
H26 H 0.3104 0.8382 0.7848
C40 C 0.33268(11) 0.53371(11) 0.74228(6)
C41 C 0.34801(10) 0.64540(12) 0.76378(6)
H27 H 0.3700 0.6760 0.7819
C42 C 0.64859(10) 0.90471(11) 0.62901(7)
H28 H 0.6557 0.9358 0.6529
H29 H 0.6924 0.9012 0.6127
C43 C 0.63082(10) 0.83868(11) 0.64852(7)
H30 H 0.6159 0.8091 0.6252
H31 H 0.6722 0.8201 0.6625
C44 C 0.43672(11) 0.57849(11) 0.62940(6)
H32 H 0.4043 0.5689 0.6516
C45 C 0.36196(11) 0.58053(13) 0.76974(7)
H33 H 0.3916 0.5675 0.7926
C46 C 0.60143(11) 0.90267(12) 0.55430(7)
H34 H 0.6025 0.8552 0.5560
H35 H 0.6457 0.9172 0.5417
C47 C 0.58712(12) 1.00121(11) 0.60160(7)
H36 H 0.5777 1.0183 0.5722
H37 H 0.6312 1.0199 0.6118
C48 C 0.46291(10) 0.86624(12) 0.74243(6)
C49 C 0.52826(11) 1.02207(11) 0.63283(7)
H38 H 0.5325 0.9988 0.6607
H39 H 0.5316 1.0687 0.6388
C50 C 0.40503(11) 0.87260(13) 0.77015(6)
H40 H 0.4051 0.9047 0.7921
C51 C 0.54193(13) 0.92358(13) 0.52427(8)
H41 H 0.4993 0.9274 0.5417
H42 H 0.5525 0.9665 0.5122
C52 C 0.28091(15) 0.40403(12) 0.63691(8)
H43 H 0.2607 0.4276 0.6121
H44 H 0.2499 0.3678 0.6443
C53 C 0.38366(16) 0.42657(12) 0.55420(8)
H45 H 0.3333 0.4272 0.5491
H46 H 0.4023 0.3865 0.5415
C54 C 0.08306(13) 1.01510(15) 0.53144(9)
H47 H 0.0888 0.9764 0.5498
H48 H 0.0331 1.0229 0.5278
C55 C 0.35356(16) 0.37779(12) 0.62434(9)
H49 H 0.3774 0.3629 0.6509
H50 H 0.3479 0.3403 0.6049
C56 C 0.49145(15) 0.47799(15) 0.64693(9)
H51 H 0.4589 0.4786 0.6717
H52 H 0.5383 0.4701 0.6584
C57 C 0.47135(16) 0.42383(15) 0.61480(10)
H53 H 0.5002 0.4274 0.5884
H54 H 0.4809 0.3816 0.6284
O1A O 0.14204(8) 0.46977(6) 0.55719(5)
H1A H 0.1050 0.4625 0.5702
O2A O -0.06089(7) 0.69786(9) 0.41780(5)
H2A H -0.0691 0.6718 0.4378
O3A O 0.33798(10) 0.46341(7) 0.41001(6)
H3A H 0.3532 0.4574 0.4351
O4A O -0.03663(8) 0.87909(9) 0.56470(6)
H4A H -0.0343 0.9139 0.5782
O5A O 0.15310(10) 1.03007(8) 0.74918(5)
H5A H 0.1660 1.0515 0.7277
N1A N 0.03927(9) 0.49282(8) 0.61229(5)
O6A O -0.01729(9) 0.59291(10) 0.74801(6)
H6A H -0.0487 0.6026 0.7306
N2A N -0.09386(8) 0.57007(9) 0.59922(5)
N3A N -0.07487(8) 0.65444(9) 0.68107(5)
N4A N -0.02948(9) 0.62226(9) 0.48760(5)
N5A N 0.38510(9) 0.49672(9) 0.48803(6)
C1A C 0.20317(8) 0.66440(8) 0.57498(5)
N6A N 0.21205(11) 1.05249(9) 0.67460(6)
C2A C 0.15132(8) 0.77631(8) 0.57666(5)
C3A C 0.21751(8) 0.73656(8) 0.57765(5)
C4A C 0.15019(8) 0.63717(9) 0.60076(5)
H7A H 0.1285 0.6633 0.6220
C5A C 0.33620(9) 0.57410(9) 0.43749(5)
C6A C 0.23505(9) 0.62305(9) 0.54383(5)
H8A H 0.2708 0.6397 0.5261
C7A C 0.15477(9) 0.71606(8) 0.39720(5)
C8A C 0.05707(9) 0.67047(8) 0.43954(5)
C9A C 0.27175(9) 0.65654(8) 0.39629(5)
C10A C 0.12862(9) 0.67790(8) 0.43113(5)
H9A H 0.1604 0.6560 0.4493
C11A C 0.13643(9) 0.82805(9) 0.60476(5)
H10A H 0.1691 0.8394 0.6264
C12A C 0.12803(9) 0.57208(9) 0.59605(5)
C13A C 0.09988(9) 0.76026(9) 0.54510(5)
H11A H 0.1083 0.7255 0.5258
C14A C 0.10563(10) 0.74661(9) 0.36945(5)
H12A H 0.1214 0.7726 0.3461
C15A C 0.22623(9) 0.87911(9) 0.70281(5)
H13A H 0.2568 0.8657 0.6805
C16A C 0.15469(9) 0.71648(10) 0.73345(5)
N7A N 0.10278(12) 1.07312(9) 0.60221(6)
C17A C 0.16155(10) 0.53245(9) 0.56415(6)
C18A C 0.19874(9) 0.83255(10) 0.73092(5)
C19A C 0.31340(9) 0.63858(8) 0.43167(5)
H14A H 0.3266 0.6703 0.4522
C20A C 0.25644(9) 0.60887(9) 0.36474(5)
H15A H 0.2288 0.6201 0.3405
N8A N 0.01054(10) 0.95915(10) 0.62393(6)
C21A C 0.09680(9) 0.72391(10) 0.70641(5)
H16A H 0.0970 0.7571 0.6853
C22A C 0.06748(10) 0.54832(9) 0.62086(6)
H17A H 0.0489 0.5741 0.6434
C23A C 0.21520(9) 0.55859(9) 0.53867(6)
H18A H 0.2380 0.5324 0.5179
C24A C 0.31904(10) 0.52678(9) 0.40542(6)
C25A C 0.03486(10) 0.63088(9) 0.47673(6)
H19A H 0.0693 0.6105 0.4937
C26A C 0.28108(10) 0.54549(9) 0.36840(6)
H20A H 0.2722 0.5153 0.3460
C27A C 0.21649(9) 0.76127(10) 0.72996(5)
C28A C 0.20997(10) 0.94595(10) 0.70650(6)
C29A C 0.03772(9) 0.68330(10) 0.70963(5)
C30A C 0.07398(9) 0.86400(10) 0.60184(6)
C31A C -0.02054(9) 0.69091(10) 0.67888(6)
H21A H -0.0181 0.7231 0.6571
C32A C 0.23362(10) 0.72131(9) 0.39330(5)
C33A C 0.37198(10) 0.55624(10) 0.47816(6)
H22A H 0.3858 0.5892 0.4976
C34A C 0.00916(9) 0.70199(10) 0.41145(6)
C35A C 0.03444(10) 0.73888(9) 0.37600(6)
H23A H 0.0029 0.7585 0.3565
C36A C 0.03755(10) 0.79396(9) 0.54157(6)
H24A H 0.0046 0.7816 0.5204
C37A C 0.22876(11) 0.99228(10) 0.67198(7)
H25A H 0.2536 0.9776 0.6474
C38A C 0.02356(10) 0.84638(11) 0.56953(6)
C39A C 0.15163(10) 0.66731(12) 0.76575(6)
H26A H 0.1896 0.6618 0.7848
C40A C 0.16732(11) 0.96629(11) 0.74228(6)
C41A C 0.15199(10) 0.85460(12) 0.76378(6)
H27A H 0.1300 0.8240 0.7819
C42A C -0.14859(10) 0.59529(11) 0.62901(7)
H28A H -0.1557 0.5642 0.6529
H29A H -0.1924 0.5988 0.6127
C43A C -0.13082(10) 0.66132(11) 0.64852(7)
H30A H -0.1159 0.6909 0.6252
H31A H -0.1722 0.6799 0.6625
C44A C 0.06328(11) 0.92151(11) 0.62940(6)
H32A H 0.0957 0.9311 0.6516
C45A C 0.13804(11) 0.91947(13) 0.76974(7)
H33A H 0.1084 0.9325 0.7926
C46A C -0.10143(11) 0.59733(12) 0.55430(7)
H34A H -0.1025 0.6448 0.5560
H35A H -0.1457 0.5828 0.5417
C47A C -0.08712(12) 0.49879(11) 0.60160(7)
H36A H -0.0777 0.4817 0.5722
H37A H -0.1312 0.4801 0.6118
C48A C 0.03709(10) 0.63376(12) 0.74243(6)
C49A C -0.02826(11) 0.47793(11) 0.63283(7)
H38A H -0.0325 0.5012 0.6607
H39A H -0.0316 0.4313 0.6388
C50A C 0.09497(11) 0.62740(13) 0.77015(6)
H40A H 0.0949 0.5953 0.7921
C51A C -0.04193(13) 0.57642(13) 0.52427(8)
H41A H 0.0007 0.5726 0.5417
H42A H -0.0525 0.5335 0.5122
C52A C 0.21909(15) 1.09597(12) 0.63691(8)
H43A H 0.2393 1.0724 0.6121
H44A H 0.2501 1.1322 0.6443
C53A C 0.11634(16) 1.07343(12) 0.55420(8)
H45A H 0.1667 1.0728 0.5491
H46A H 0.0977 1.1135 0.5415
C54A C 0.41694(13) 0.48490(15) 0.53144(9)
H47A H 0.4112 0.5236 0.5498
H48A H 0.4669 0.4771 0.5278
C55A C 0.14644(16) 1.12221(12) 0.62434(9)
H49A H 0.1226 1.1371 0.6509
H50A H 0.1521 1.1597 0.6049
C56A C 0.00855(15) 1.02201(15) 0.64693(9)
H51A H 0.0411 1.0214 0.6717
H52A H -0.0383 1.0299 0.6584
C57A C 0.02865(16) 1.07617(15) 0.61480(10)
H53A H -0.0002 1.0726 0.5884
H54A H 0.0191 1.1184 0.6284
loop_
_geom_bond_atom_site_label_1
_geom_bond_atom_site_label_2
_geom_bond_site_symmetry_1
_geom_bond_site_symmetry_2
O1 H1 1_555 1_555
O2 H2 1_555 1_555
O3 H3 1_555 1_555
O4 H4 1_555 1_555
O5 H5 1_555 1_555
N1 C22 1_555 1_555
O6 H6 1_555 1_555
N2 C42 1_555 1_555
N3 C31 1_555 1_555
N4 C25 1_555 1_555
N5 C33 1_555 1_555
C1 C3 1_555 1_555
N6 C37 1_555 1_555
C2 C3 1_555 1_555
C3 C3A 1_555 1_555
C4 C1 1_555 1_555
H7 C4 1_555 1_555
C5 C19 1_555 1_555
C6 C1 1_555 1_555
H8 C6 1_555 1_555
C7 C10 1_555 1_555
C8 C10 1_555 1_555
C9 C19 1_555 1_555
C10 H9 1_555 1_555
C11 C2 1_555 1_555
H10 C11 1_555 1_555
C12 C4 1_555 1_555
C13 C2 1_555 1_555
H11 C13 1_555 1_555
C14 C7 1_555 1_555
H12 C14 1_555 1_555
C15 H13 1_555 1_555
C16 C21 1_555 1_555
N7 C53 1_555 1_555
C17 O1 1_555 1_555
C18 C15 1_555 1_555
C19 H14 1_555 1_555
C20 C9 1_555 1_555
H15 C20 1_555 1_555
N8 C44 1_555 1_555
C21 H16 1_555 1_555
C22 C12 1_555 1_555
H17 C22 1_555 1_555
C23 C6 1_555 1_555
H18 C23 1_555 1_555
C24 O3 1_555 1_555
C25 C8 1_555 1_555
H19 C25 1_555 1_555
C26 C20 1_555 1_555
H20 C26 1_555 1_555
C27 C16 1_555 1_555
C28 C15 1_555 1_555
C29 C21 1_555 1_555
C30 C11 1_555 1_555
C31 C29 1_555 1_555
H21 C31 1_555 1_555
C32 C7 1_555 1_555
C33 C5 1_555 1_555
H22 C33 1_555 1_555
C34 O2 1_555 1_555
C35 C14 1_555 1_555
H23 C35 1_555 1_555
C36 C13 1_555 1_555
H24 C36 1_555 1_555
C37 C28 1_555 1_555
H25 C37 1_555 1_555
C38 O4 1_555 1_555
C39 C16 1_555 1_555
H26 C39 1_555 1_555
C40 O5 1_555 1_555
C41 C18 1_555 1_555
H27 C41 1_555 1_555
C42 H28 1_555 1_555
H29 C42 1_555 1_555
C43 N3 1_555 1_555
H30 C43 1_555 1_555
H31 C43 1_555 1_555
C44 C30 1_555 1_555
H32 C44 1_555 1_555
C45 C40 1_555 1_555
H33 C45 1_555 1_555
C46 N2 1_555 1_555
H34 C46 1_555 1_555
H35 C46 1_555 1_555
C47 N2 1_555 1_555
H36 C47 1_555 1_555
H37 C47 1_555 1_555
C48 O6 1_555 1_555
C49 N1 1_555 1_555
H38 C49 1_555 1_555
H39 C49 1_555 1_555
C50 C39 1_555 1_555
H40 C50 1_555 1_555
C51 N4 1_555 1_555
H41 C51 1_555 1_555
H42 C51 1_555 1_555
C52 N6 1_555 1_555
H43 C52 1_555 1_555
H44 C52 1_555 1_555
C53 H45 1_555 1_555
H46 C53 1_555 1_555
C54 N5 1_555 1_555
H47 C54 1_555 1_555
H48 C54 1_555 1_555
C55 N7 1_555 1_555
H49 C55 1_555 1_555
H50 C55 1_555 1_555
C56 N8 1_555 1_555
H51 C56 1_555 1_555
H52 C56 1_555 1_555
C57 N7 1_555 1_555
H53 C57 1_555 1_555
H54 C57 1_555 1_555
O1A H1A 1_555 1_555
O2A H2A 1_555 1_555
O3A H3A 1_555 1_555
O4A H4A 1_555 1_555
O5A H5A 1_555 1_555
N1A C22A 1_555 1_555
O6A H6A 1_555 1_555
N2A C42A 1_555 1_555
N3A C31A 1_555 1_555
N4A C25A 1_555 1_555
N5A C33A 1_555 1_555
C1A C3A 1_555 1_555
N6A C37A 1_555 1_555
C2A C3A 1_555 1_555
C4A C1A 1_555 1_555
H7A C4A 1_555 1_555
C5A C19A 1_555 1_555
C6A C1A 1_555 1_555
H8A C6A 1_555 1_555
C7A C10A 1_555 1_555
C8A C10A 1_555 1_555
C9A C19A 1_555 1_555
C10A H9A 1_555 1_555
C11A C2A 1_555 1_555
H10A C11A 1_555 1_555
C12A C4A 1_555 1_555
C13A C2A 1_555 1_555
H11A C13A 1_555 1_555
C14A C7A 1_555 1_555
H12A C14A 1_555 1_555
C15A H13A 1_555 1_555
C16A C21A 1_555 1_555
N7A C53A 1_555 1_555
C17A O1A 1_555 1_555
C18A C15A 1_555 1_555
C19A H14A 1_555 1_555
C20A C9A 1_555 1_555
H15A C20A 1_555 1_555
N8A C44A 1_555 1_555
C21A H16A 1_555 1_555
C22A C12A 1_555 1_555
H17A C22A 1_555 1_555
C23A C6A 1_555 1_555
H18A C23A 1_555 1_555
C24A O3A 1_555 1_555
C25A C8A 1_555 1_555
H19A C25A 1_555 1_555
C26A C20A 1_555 1_555
H20A C26A 1_555 1_555
C27A C27 1_555 1_555
C28A C15A 1_555 1_555
C29A C21A 1_555 1_555
C30A C11A 1_555 1_555
C31A C29A 1_555 1_555
H21A C31A 1_555 1_555
C32A C32 1_555 1_555
C33A C5A 1_555 1_555
H22A C33A 1_555 1_555
C34A O2A 1_555 1_555
C35A C14A 1_555 1_555
H23A C35A 1_555 1_555
C36A C13A 1_555 1_555
H24A C36A 1_555 1_555
C37A C28A 1_555 1_555
H25A C37A 1_555 1_555
C38A O4A 1_555 1_555
C39A C16A 1_555 1_555
H26A C39A 1_555 1_555
C40A O5A 1_555 1_555
C41A C18A 1_555 1_555
H27A C41A 1_555 1_555
C42A H28A 1_555 1_555
H29A C42A 1_555 1_555
C43A N3A 1_555 1_555
H30A C43A 1_555 1_555
H31A C43A 1_555 1_555
C44A C30A 1_555 1_555
H32A C44A 1_555 1_555
C45A C40A 1_555 1_555
H33A C45A 1_555 1_555
C46A N2A 1_555 1_555
H34A C46A 1_555 1_555
H35A C46A 1_555 1_555
C47A N2A 1_555 1_555
H36A C47A 1_555 1_555
H37A C47A 1_555 1_555
C48A O6A 1_555 1_555
C49A N1A 1_555 1_555
H38A C49A 1_555 1_555
H39A C49A 1_555 1_555
C50A C39A 1_555 1_555
H40A C50A 1_555 1_555
C51A N4A 1_555 1_555
H41A C51A 1_555 1_555
H42A C51A 1_555 1_555
C52A N6A 1_555 1_555
H43A C52A 1_555 1_555
H44A C52A 1_555 1_555
C53A C54 1_555 1_555
H45A C53A 1_555 1_555
H46A C53A 1_555 1_555
C54A C53 1_555 1_555
H47A C54A 1_555 1_555
H48A C54A 1_555 1_555
C55A N7A 1_555 1_555
H49A C55A 1_555 1_555
H50A C55A 1_555 1_555
C56A N8A 1_555 1_555
H51A C56A 1_555 1_555
H52A C56A 1_555 1_555
C57A N7A 1_555 1_555
H53A C57A 1_555 1_555
H54A C57A 1_555 1_555
C5 C24 1_555 1_555
C8 C34 1_555 1_555
C9 C32 1_555 1_555
C12 C17 1_555 1_555
C17 C23 1_555 1_555
C18 C27 1_555 1_555
C24 C26 1_555 1_555
C28 C40 1_555 1_555
C29 C48 1_555 1_555
C30 C38 1_555 1_555
C34 C35 1_555 1_555
C36 C38 1_555 1_555
C41 C45 1_555 1_555
C42 C43 1_555 1_555
C46 C51 1_555 1_555
C47 C49 1_555 1_555
C48 C50 1_555 1_555
C52 C55 1_555 1_555
C56 C57 1_555 1_555
N5A C54A 1_555 1_555
C5A C24A 1_555 1_555
C7A C32A 1_555 1_555
C8A C34A 1_555 1_555
C9A C32A 1_555 1_555
C12A C17A 1_555 1_555
C16A C27A 1_555 1_555
C17A C23A 1_555 1_555
C18A C27A 1_555 1_555
C24A C26A 1_555 1_555
C28A C40A 1_555 1_555
C29A C48A 1_555 1_555
C30A C38A 1_555 1_555
C34A C35A 1_555 1_555
C36A C38A 1_555 1_555
C41A C45A 1_555 1_555
C42A C43A 1_555 1_555
C46A C51A 1_555 1_555
C47A C49A 1_555 1_555
C48A C50A 1_555 1_555
C52A C55A 1_555 1_555
C56A C57A 1_555 1_555

#END
