
#######################################################################
#
#                 Cambridge Crystallographic Data Centre
#                                CCDC 
#
#######################################################################
#
# If this CIF has been generated from an entry in the Cambridge 
# Structural Database, then it will include bibliographic, chemical, 
# crystal, experimental, refinement or atomic coordinate data resulting 
# from the CCDC's data processing and validation procedures.
#
#######################################################################

data_NIMVIR
_chemical_formula_moiety         'C1 H7 N4 1+,C4 H3 O4 1-'
_chemical_name_systematic        
'amino(hydrazinyl)methaniminium hydrogen maleate'
_symmetry_cell_setting           monoclinic
_symmetry_space_group_name_H-M   'P 21/n'
_symmetry_Int_Tables_number      14
_space_group_name_Hall           '-P 2yn'
loop_
_symmetry_equiv_pos_site_id
_symmetry_equiv_pos_as_xyz
1 x,y,z
2 1/2-x,1/2+y,1/2-z
3 -x,-y,-z
4 1/2+x,1/2-y,1/2+z
_cell_length_a                   11.909(5)
_cell_length_b                   5.638(5)
_cell_length_c                   13.537(5)
_cell_angle_alpha                90
_cell_angle_beta                 114.950(5)
_cell_angle_gamma                90
_cell_volume                     824.091
_exptl_crystal_colour            yellow
_exptl_crystal_description       block
_cell_formula_units_Z            4
loop_
_atom_site_label
_atom_site_type_symbol
_atom_site_fract_x
_atom_site_fract_y
_atom_site_fract_z
C1 C -0.18980(11) -0.6383(2) 0.87323(10)
C2 C -0.09370(11) -0.8163(2) 0.88491(10)
H1 H -0.1122 -0.9699 0.8982
C3 C 0.01466(11) -0.7930(2) 0.87961(10)
H2 H 0.0607 -0.9320 0.8924
C4 C 0.07451(11) -0.5819(2) 0.85666(10)
O1 O -0.17777(9) -0.42240(17) 0.84822(9)
O2 O -0.27946(9) -0.70028(18) 0.88856(9)
O3 O 0.18119(8) -0.60592(19) 0.86566(8)
O4 O 0.01471(10) -0.38946(17) 0.82730(10)
H3 H -0.089(2) -0.402(4) 0.8361(16)
C5 C 0.05641(11) -0.9071(2) 0.63304(9)
N1 N 0.12072(11) -0.7794(2) 0.59397(10)
N2 N 0.10301(13) -1.1068(2) 0.68605(11)
N3 N -0.05415(10) -0.8378(2) 0.62242(9)
N4 N -0.10893(11) -0.6375(2) 0.55776(11)
H4 H 0.1925(16) -0.842(3) 0.5993(12)
H5 H 0.0870(14) -0.659(3) 0.5537(12)
H6 H 0.1768(18) -1.148(3) 0.6940(14)
H7 H 0.0638(15) -1.186(3) 0.7196(13)
H8 H -0.1007(14) -0.943(3) 0.6321(11)
H9 H -0.1305(14) -0.540(3) 0.5954(13)
H10 H -0.1785(17) -0.688(3) 0.5013(14)
loop_
_geom_bond_atom_site_label_1
_geom_bond_atom_site_label_2
_geom_bond_site_symmetry_1
_geom_bond_site_symmetry_2
C1 C2 1_555 1_555
C2 H1 1_555 1_555
C3 C2 1_555 1_555
H2 C3 1_555 1_555
C4 C3 1_555 1_555
O1 C1 1_555 1_555
O2 C1 1_555 1_555
O3 C4 1_555 1_555
O4 C4 1_555 1_555
H3 O1 1_555 1_555
C5 N1 1_555 1_555
N1 H4 1_555 1_555
N2 C5 1_555 1_555
N3 C5 1_555 1_555
N4 N3 1_555 1_555
H5 N1 1_555 1_555
H6 N2 1_555 1_555
H7 N2 1_555 1_555
H8 N3 1_555 1_555
H9 N4 1_555 1_555
H10 N4 1_555 1_555

#END
