
#######################################################################
#
#                 Cambridge Crystallographic Data Centre
#                                CCDC 
#
#######################################################################
#
# If this CIF has been generated from an entry in the Cambridge 
# Structural Database, then it will include bibliographic, chemical, 
# crystal, experimental, refinement or atomic coordinate data resulting 
# from the CCDC's data processing and validation procedures.
#
#######################################################################

data_NIMXUF
_chemical_formula_moiety         'C2 H1 N6 O4 1-,C1 H6 N3 O1 1+'
_chemical_name_systematic        
'2-carbamoylhydrazinium 5-(dinitromethylidene)-1,5-dihydrotetrazol-2-ide'
_symmetry_cell_setting           monoclinic
_symmetry_space_group_name_H-M   'P 21/c'
_symmetry_Int_Tables_number      14
_space_group_name_Hall           '-P 2ybc'
loop_
_symmetry_equiv_pos_site_id
_symmetry_equiv_pos_as_xyz
1 x,y,z
2 -x,1/2+y,1/2-z
3 -x,-y,-z
4 x,1/2-y,1/2+z
_cell_length_a                   4.9044(4)
_cell_length_b                   13.2801(11)
_cell_length_c                   13.6315(14)
_cell_angle_alpha                90
_cell_angle_beta                 90.3420(10)
_cell_angle_gamma                90
_cell_volume                     887.816
_exptl_crystal_colour            yellow
_cell_formula_units_Z            4
loop_
_atom_site_label
_atom_site_type_symbol
_atom_site_fract_x
_atom_site_fract_y
_atom_site_fract_z
N1 N 0.2105(3) 0.58846(11) 0.61058(12)
H1 H 0.0449 0.5709 0.6219
N2 N 0.2866(3) 0.66807(12) 0.55753(13)
N3 N 0.5498(3) 0.66924(12) 0.55740(13)
N4 N 0.6477(3) 0.59033(12) 0.60958(12)
N5 N 0.6361(3) 0.44495(12) 0.77903(11)
N6 N 0.2349(3) 0.38018(10) 0.69752(11)
O1 O 0.7975(3) 0.51624(10) 0.78828(10)
O2 O 0.6559(3) 0.36769(10) 0.83028(10)
O3 O 0.2118(3) 0.30722(10) 0.75418(10)
O4 O 0.0715(3) 0.39123(10) 0.62744(10)
C1 C 0.4319(3) 0.54048(13) 0.64327(13)
C2 C 0.4340(3) 0.45331(13) 0.70714(13)
N7 N -0.0564(3) 0.67643(11) 0.94165(11)
H2 H -0.0729 0.7408 0.9386
N8 N -0.1379(3) 0.63652(11) 1.03427(11)
H3 H -0.2141 0.5763 1.0255
H4 H -0.2579 0.6779 1.0618
H5 H 0.0074 0.6304 1.0732
N9 N 0.3042(3) 0.68930(12) 0.83416(12)
H6 H 0.4576 0.6701 0.8103
H7 H 0.2208 0.7403 0.8093
O5 O 0.3013(3) 0.56662(10) 0.94920(10)
C3 C 0.1954(4) 0.63977(13) 0.90988(13)
loop_
_geom_bond_atom_site_label_1
_geom_bond_atom_site_label_2
_geom_bond_site_symmetry_1
_geom_bond_site_symmetry_2
N1 H1 1_555 1_555
N2 N1 1_555 1_555
N3 N2 1_555 1_555
N4 N3 1_555 1_555
N5 O1 1_555 1_555
N6 O3 1_555 1_555
O2 N5 1_555 1_555
O4 N6 1_555 1_555
C1 N1 1_555 1_555
C2 N5 1_555 1_555
N7 H2 1_555 1_555
N8 N7 1_555 1_555
H3 N8 1_555 1_555
H4 N8 1_555 1_555
H5 N8 1_555 1_555
N9 H6 1_555 1_555
H7 N9 1_555 1_555
O5 C3 1_555 1_555
C3 N7 1_555 1_555
N4 C1 1_555 1_555
N6 C2 1_555 1_555
C1 C2 1_555 1_555
N9 C3 1_555 1_555

#END
