
#######################################################################
#
#                 Cambridge Crystallographic Data Centre
#                                CCDC 
#
#######################################################################
#
# If this CIF has been generated from an entry in the Cambridge 
# Structural Database, then it will include bibliographic, chemical, 
# crystal, experimental, refinement or atomic coordinate data resulting 
# from the CCDC's data processing and validation procedures.
#
#######################################################################

data_NINFEY
_chemical_formula_moiety         'C18 H28 O4 Si1'
_chemical_name_systematic        
4a-hydroxy-1-[(trimethylsilyl)oxy]decahydro-1,5-ethanobenzo[c]indene-3,12(4H)-dione
_symmetry_cell_setting           orthorhombic
_symmetry_space_group_name_H-M   'P b c a'
_symmetry_Int_Tables_number      61
_space_group_name_Hall           '-P 2ac 2ab'
loop_
_symmetry_equiv_pos_site_id
_symmetry_equiv_pos_as_xyz
1 x,y,z
2 1/2-x,-y,1/2+z
3 1/2+x,1/2-y,-z
4 -x,1/2+y,1/2-z
5 -x,-y,-z
6 1/2+x,y,1/2-z
7 1/2-x,1/2+y,z
8 x,1/2-y,1/2+z
_cell_length_a                   9.2091(5)
_cell_length_b                   12.7627(7)
_cell_length_c                   32.2949(14)
_cell_angle_alpha                90
_cell_angle_beta                 90
_cell_angle_gamma                90
_cell_volume                     3795.72
_cell_formula_units_Z            8
loop_
_atom_site_label
_atom_site_type_symbol
_atom_site_fract_x
_atom_site_fract_y
_atom_site_fract_z
Si1 Si 0.81043(7) 0.68961(6) 0.44434(2)
O1 O 0.88545(16) 0.61792(13) 0.40806(4)
O2 O 0.7913(2) 0.77364(14) 0.35893(5)
O3 O 1.13067(17) 0.47121(15) 0.29036(5)
H1 H 1.122(3) 0.471(2) 0.2643(8)
O4 O 0.61472(17) 0.47481(14) 0.29739(5)
C1 C 0.8742(2) 0.59762(18) 0.36562(6)
C2 C 0.8385(2) 0.6973(2) 0.34152(7)
C3 C 0.8610(3) 0.6938(2) 0.29531(6)
H2 H 0.8654 0.7646 0.2844
H3 H 0.7799 0.6582 0.2823
C4 C 1.0018(2) 0.6362(2) 0.28529(6)
H4 H 1.0186 0.6340 0.2553
C5 C 1.0027(2) 0.52570(19) 0.30371(6)
C6 C 0.8722(2) 0.4572(2) 0.29288(6)
H5 H 0.8567 0.4608 0.2632
H6 H 0.8959 0.3851 0.2996
C7 C 0.7324(2) 0.48497(19) 0.31417(7)
C8 C 0.7464(2) 0.52205(19) 0.35803(6)
H7 H 0.7580 0.4615 0.3759
H8 H 0.6569 0.5569 0.3659
C9 C 1.0216(2) 0.54854(18) 0.35032(6)
C10 C 1.0560(2) 0.4516(2) 0.37693(7)
H9 H 1.0136 0.4620 0.4041
H10 H 1.0083 0.3915 0.3646
C11 C 1.2151(3) 0.4251(2) 0.38256(8)
H11 H 1.2541 0.3977 0.3568
H12 H 1.2253 0.3715 0.4036
C12 C 1.2996(3) 0.5219(3) 0.39524(9)
H13 H 1.3996 0.5033 0.4011
H14 H 1.2576 0.5518 0.4201
C13 C 1.2941(2) 0.6014(3) 0.36035(9)
H15 H 1.3360 0.5707 0.3356
H16 H 1.3522 0.6619 0.3678
C14 C 1.1387(2) 0.6371(2) 0.35094(7)
H17 H 1.1104 0.6889 0.3718
C15 C 1.1291(3) 0.6894(2) 0.30765(7)
H18 H 1.1117 0.7641 0.3104
H19 H 1.2187 0.6791 0.2924
C16 C 0.9039(4) 0.8160(2) 0.45000(9)
H20 H 0.8732 0.8492 0.4752
H21 H 0.8805 0.8602 0.4269
H22 H 1.0069 0.8046 0.4509
C17 C 0.6122(3) 0.7076(3) 0.43800(8)
H23 H 0.5928 0.7388 0.4115
H24 H 0.5763 0.7526 0.4595
H25 H 0.5646 0.6408 0.4397
C18 C 0.8429(3) 0.6103(3) 0.49165(8)
H26 H 0.7908 0.5454 0.4896
H27 H 0.8098 0.6484 0.5155
H28 H 0.9449 0.5963 0.4943
loop_
_geom_bond_atom_site_label_1
_geom_bond_atom_site_label_2
_geom_bond_site_symmetry_1
_geom_bond_site_symmetry_2
Si1 O1 1_555 1_555
O1 C1 1_555 1_555
O2 C2 1_555 1_555
O3 H1 1_555 1_555
O4 C7 1_555 1_555
C1 C2 1_555 1_555
C2 C3 1_555 1_555
C3 H2 1_555 1_555
H3 C3 1_555 1_555
C4 C3 1_555 1_555
H4 C4 1_555 1_555
C5 O3 1_555 1_555
C6 C5 1_555 1_555
H5 C6 1_555 1_555
H6 C6 1_555 1_555
C7 C6 1_555 1_555
C8 C1 1_555 1_555
H7 C8 1_555 1_555
H8 C8 1_555 1_555
C9 C1 1_555 1_555
C10 C9 1_555 1_555
H9 C10 1_555 1_555
H10 C10 1_555 1_555
C11 C10 1_555 1_555
H11 C11 1_555 1_555
H12 C11 1_555 1_555
C12 C11 1_555 1_555
H13 C12 1_555 1_555
H14 C12 1_555 1_555
C13 C12 1_555 1_555
H15 C13 1_555 1_555
H16 C13 1_555 1_555
C14 C9 1_555 1_555
H17 C14 1_555 1_555
C15 C4 1_555 1_555
H18 C15 1_555 1_555
H19 C15 1_555 1_555
C16 Si1 1_555 1_555
H20 C16 1_555 1_555
H21 C16 1_555 1_555
H22 C16 1_555 1_555
C17 Si1 1_555 1_555
H23 C17 1_555 1_555
H24 C17 1_555 1_555
H25 C17 1_555 1_555
C18 Si1 1_555 1_555
H26 C18 1_555 1_555
H27 C18 1_555 1_555
H28 C18 1_555 1_555
C4 C5 1_555 1_555
C5 C9 1_555 1_555
C7 C8 1_555 1_555
C13 C14 1_555 1_555
C14 C15 1_555 1_555

#END
