
#######################################################################
#
#                 Cambridge Crystallographic Data Centre
#                                CCDC 
#
#######################################################################
#
# If this CIF has been generated from an entry in the Cambridge 
# Structural Database, then it will include bibliographic, chemical, 
# crystal, experimental, refinement or atomic coordinate data resulting 
# from the CCDC's data processing and validation procedures.
#
#######################################################################

data_NINLII
_chemical_formula_moiety         'C25 H25 F3 O5 S2'
_chemical_name_systematic        
'1-{[(4-methylphenyl)sulfonyl]oxy}-4-[(trifluoromethyl)sulfanyl]hexan-3-yl naphthalene-2-carboxylate'
_symmetry_cell_setting           monoclinic
_symmetry_space_group_name_H-M   'P 21'
_symmetry_Int_Tables_number      4
_space_group_name_Hall           'P 2yb'
loop_
_symmetry_equiv_pos_site_id
_symmetry_equiv_pos_as_xyz
1 x,y,z
2 -x,1/2+y,-z
_cell_length_a                   13.02890(10)
_cell_length_b                   6.078
_cell_length_c                   16.17440(10)
_cell_angle_alpha                90
_cell_angle_beta                 102.1580(10)
_cell_angle_gamma                90
_cell_volume                     1252.12
_exptl_crystal_colour            'whitish colorless'
_exptl_crystal_description       block
_cell_formula_units_Z            2
loop_
_atom_site_label
_atom_site_type_symbol
_atom_site_fract_x
_atom_site_fract_y
_atom_site_fract_z
S1 S -0.77972(5) -0.31734(15) -1.00569(5)
S2 S -1.03542(7) 0.15360(16) -0.71732(5)
O1 O -0.77328(18) -0.3302(5) -0.68299(17)
O2 O -0.83386(17) -0.0365(4) -0.76255(14)
O3 O -0.86013(16) -0.2755(4) -0.94700(14)
C1 C -0.6012(3) -0.3003(8) -0.8830(2)
F1 F -0.8641(2) 0.1268(6) -0.59781(16)
O4 O -0.81560(17) -0.2059(5) -1.08416(14)
C2 C -0.8937(3) -0.0459(7) -0.9394(2)
O5 O -0.76767(18) -0.5502(5) -1.00469(17)
C3 C -0.4843(3) 0.0062(7) -0.5981(2)
C4 C -0.6631(3) -0.0144(6) -0.6793(2)
C5 C -0.9308(2) -0.1518(6) -0.7969(2)
C6 C -0.4793(2) 0.0045(7) -0.8660(2)
C7 C -0.7603(2) -0.1473(6) -0.7066(2)
C8 C -0.4745(3) 0.2210(7) -0.6307(2)
C9 C -0.6630(2) -0.1939(6) -0.9520(2)
C10 C -0.5799(3) -0.1070(7) -0.6234(2)
C11 C -0.3968(3) -0.0847(8) -0.5409(2)
C12 C -0.9724(3) -0.0508(7) -0.8835(2)
C13 C -0.5427(3) 0.1071(7) -0.9354(2)
C14 C -1.0074(3) -0.1351(7) -0.7375(2)
C15 C -0.6540(3) 0.2002(7) -0.7107(2)
C16 C -0.3773(3) 0.3332(9) -0.6064(2)
C17 C -0.6348(3) 0.0102(6) -0.9786(2)
C18 C -0.3796(3) 0.1112(10) -0.8200(3)
C19 C -0.5100(3) -0.1995(8) -0.8413(2)
C20 C -0.5625(3) 0.3123(8) -0.6870(2)
C21 C -1.1756(4) -0.2968(12) -0.7057(4)
F2 F -0.9636(3) 0.3988(6) -0.59025(19)
C22 C -0.2950(3) 0.2389(9) -0.5525(3)
F3 F -1.0056(3) 0.0787(9) -0.55688(18)
C23 C -1.1102(3) -0.2563(8) -0.7719(3)
C24 C -0.3048(3) 0.0288(9) -0.5193(3)
C25 C -0.9637(3) 0.1848(9) -0.6109(2)
H1 H -0.918(2) -0.311(8) -0.803(2)
H2 H -0.835(3) 0.046(6) -0.918(2)
H3 H -0.586(3) -0.259(7) -0.602(2)
H4 H -0.525(3) 0.249(7) -0.954(2)
H5 H -0.925(3) 0.009(6) -0.994(2)
H6 H -0.975(3) -0.201(8) -0.687(3)
H7 H -0.402(4) -0.233(9) -0.513(3)
H8 H -1.094(4) -0.405(10) -0.797(3)
H9 H -0.993(3) 0.090(7) -0.877(2)
H10 H -0.620(3) -0.434(8) -0.866(2)
H11 H -0.470(4) -0.260(8) -0.796(3)
H12 H -0.561(3) 0.445(9) -0.706(3)
H13 H -0.374(3) 0.487(8) -0.630(2)
H14 H -0.235(3) 0.311(7) -0.539(2)
H15 H -1.036(3) -0.133(7) -0.909(2)
H16 H -0.250(4) -0.035(9) -0.482(3)
H17 H -1.150(3) -0.169(9) -0.821(3)
H18 H -0.320(4) 0.050(11) -0.836(3)
H19 H -0.714(3) 0.263(8) -0.748(3)
H20 H -0.675(3) 0.084(8) -1.025(2)
H21 H -1.233(5) -0.365(12) -0.727(4)
H22 H -1.204(4) -0.144(10) -0.683(3)
H23 H -1.143(5) -0.391(11) -0.664(4)
H24 H -0.362(4) 0.080(10) -0.760(4)
H25 H -0.385(6) 0.269(16) -0.823(5)
loop_
_geom_bond_atom_site_label_1
_geom_bond_atom_site_label_2
_geom_bond_site_symmetry_1
_geom_bond_site_symmetry_2
S1 O3 1_555 1_555
S2 C14 1_555 1_555
O1 C7 1_555 1_555
O2 C5 1_555 1_555
O3 C2 1_555 1_555
C1 C9 1_555 1_555
F1 C25 1_555 1_555
O4 S1 1_555 1_555
C2 C12 1_555 1_555
O5 S1 1_555 1_555
C3 C8 1_555 1_555
C4 C7 1_555 1_555
C5 C12 1_555 1_555
C6 C13 1_555 1_555
C7 O2 1_555 1_555
C8 C16 1_555 1_555
C9 S1 1_555 1_555
C10 C3 1_555 1_555
C11 C3 1_555 1_555
C12 H9 1_555 1_555
C13 C17 1_555 1_555
C14 C5 1_555 1_555
C15 C4 1_555 1_555
C16 C22 1_555 1_555
C17 C9 1_555 1_555
C18 C6 1_555 1_555
C19 C1 1_555 1_555
C20 C8 1_555 1_555
C21 C23 1_555 1_555
F2 C25 1_555 1_555
C22 C24 1_555 1_555
F3 C25 1_555 1_555
C23 C14 1_555 1_555
C24 C11 1_555 1_555
C25 S2 1_555 1_555
H1 C5 1_555 1_555
H2 C2 1_555 1_555
H3 C10 1_555 1_555
H4 C13 1_555 1_555
H5 C2 1_555 1_555
H6 C14 1_555 1_555
H7 C11 1_555 1_555
H8 C23 1_555 1_555
H10 C1 1_555 1_555
H11 C19 1_555 1_555
H12 C20 1_555 1_555
H13 C16 1_555 1_555
H14 C22 1_555 1_555
H15 C12 1_555 1_555
H16 C24 1_555 1_555
H17 C23 1_555 1_555
H18 C18 1_555 1_555
H19 C15 1_555 1_555
H20 C17 1_555 1_555
H21 C21 1_555 1_555
H22 C21 1_555 1_555
H23 C21 1_555 1_555
H24 C18 1_555 1_555
H25 C18 1_555 1_555
C4 C10 1_555 1_555
C6 C19 1_555 1_555
C15 C20 1_555 1_555

#END
