
#######################################################################
#
#                 Cambridge Crystallographic Data Centre
#                                CCDC 
#
#######################################################################
#
# If this CIF has been generated from an entry in the Cambridge 
# Structural Database, then it will include bibliographic, chemical, 
# crystal, experimental, refinement or atomic coordinate data resulting 
# from the CCDC's data processing and validation procedures.
#
#######################################################################

data_NINQOS
_chemical_name_common            
4-Cyclopropyl-1-(6'-Deoxy-1',2'-O-isopropylidene-alpha-D-glucofuranosyl)-1H-1,2,3-triazole
_chemical_formula_moiety         'C14 H21 N3 O5'
_chemical_name_systematic        
5-(2-(4-Cyclopropyl-1H-1,2,3-triazol-1-yl)-1-hydroxyethyl)-2,2-dimethyltetrahydrofuro[2,3-d][1,3]dioxol-6-ol
_symmetry_cell_setting           orthorhombic
_symmetry_space_group_name_H-M   'P 21 21 21'
_symmetry_Int_Tables_number      19
_space_group_name_Hall           'P 2ac 2ab'
loop_
_symmetry_equiv_pos_site_id
_symmetry_equiv_pos_as_xyz
1 x,y,z
2 1/2-x,-y,1/2+z
3 -x,1/2+y,1/2-z
4 1/2+x,1/2-y,-z
_cell_length_a                   8.5905(3)
_cell_length_b                   8.7215(3)
_cell_length_c                   20.7373(7)
_cell_angle_alpha                90
_cell_angle_beta                 90
_cell_angle_gamma                90
_cell_volume                     1553.68
_exptl_crystal_colour            colorless
_exptl_crystal_description       prismatic
_cell_formula_units_Z            4
loop_
_atom_site_label
_atom_site_type_symbol
_atom_site_fract_x
_atom_site_fract_y
_atom_site_fract_z
O1 O -0.0805(2) 0.9329(2) 0.39252(9)
O2 O 0.0625(2) 1.0684(2) 0.31968(8)
O3 O 0.2108(2) 1.32136(18) 0.44356(9)
O4 O 0.12445(19) 0.99779(18) 0.46166(8)
O5 O 0.5249(2) 1.1144(2) 0.44763(9)
N1 N 0.4448(2) 0.7779(2) 0.46218(9)
N2 N 0.3396(2) 0.6662(2) 0.45796(11)
N3 N 0.3860(3) 0.5760(2) 0.41084(11)
C1 C -0.0064(3) 1.0493(3) 0.42728(12)
H1 H -0.0800 1.1009 0.4561
C2 C 0.0544(3) 1.1602(3) 0.37614(12)
H2 H -0.0119 1.2508 0.3708
C3 C 0.2187(3) 1.1997(3) 0.39848(11)
H3 H 0.2871 1.2245 0.3621
C4 C 0.2639(2) 1.0486(2) 0.43038(11)
H4 H 0.2922 0.9745 0.3968
C5 C 0.3927(2) 1.0555(2) 0.47975(11)
H5 H 0.3625 1.1273 0.5139
C6 C 0.4246(3) 0.8990(3) 0.51006(11)
H6 H 0.5179 0.9056 0.5363
H7 H 0.3387 0.8723 0.5382
C7 C 0.5573(3) 0.7605(3) 0.41813(13)
H8 H 0.6429 0.8238 0.4115
C8 C 0.5199(4) 0.6308(3) 0.38513(14)
C9 C 0.6279(7) 0.5539(8) 0.3376(4)
H9 H 0.7207 0.6118 0.3247
C10 C 0.5544(9) 0.4602(11) 0.2880(4)
H10 H 0.4419 0.4512 0.2890
H11 H 0.5990 0.4632 0.2450
C11 C 0.6422(10) 0.3805(10) 0.3380(4)
H12 H 0.7418 0.3361 0.3262
H13 H 0.5842 0.3241 0.3703
C12 C -0.0353(3) 0.9372(3) 0.32677(12)
C13 C 0.0573(5) 0.7939(4) 0.31160(18)
H14 H 0.1480 0.7901 0.3386
H15 H 0.0886 0.7957 0.2672
H16 H -0.0060 0.7051 0.3194
C14 C -0.1795(4) 0.9543(5) 0.28580(19)
H17 H -0.2461 0.8672 0.2922
H18 H -0.1503 0.9606 0.2412
H19 H -0.2338 1.0460 0.2980
H20 H 0.591(3) 1.141(4) 0.4739(12)
H21 H 0.266(3) 1.393(3) 0.4302(14)
C15? C 0.5637(10) 0.5566(12) 0.3225(5)
H22? H 0.5328 0.6124 0.2835
C16? C 0.7242(11) 0.4953(13) 0.3224(5)
H23? H 0.7798 0.4917 0.3631
H24? H 0.7883 0.5136 0.2847
C17? C 0.5835(14) 0.3960(15) 0.3149(7)
H25? H 0.5634 0.3524 0.2727
H26? H 0.5550 0.3307 0.3509
loop_
_geom_bond_atom_site_label_1
_geom_bond_atom_site_label_2
_geom_bond_site_symmetry_1
_geom_bond_site_symmetry_2
O1 C1 1_555 1_555
O2 C2 1_555 1_555
O3 C3 1_555 1_555
O4 C1 1_555 1_555
O5 C5 1_555 1_555
N1 N2 1_555 1_555
N2 N3 1_555 1_555
N3 C8 1_555 1_555
C1 H1 1_555 1_555
C2 C1 1_555 1_555
H2 C2 1_555 1_555
C3 C2 1_555 1_555
H3 C3 1_555 1_555
C4 O4 1_555 1_555
H4 C4 1_555 1_555
C5 C4 1_555 1_555
H5 C5 1_555 1_555
C6 N1 1_555 1_555
H6 C6 1_555 1_555
H7 C6 1_555 1_555
C7 N1 1_555 1_555
H8 C7 1_555 1_555
C8 C7 1_555 1_555
C9 C8 1_555 1_555
H9 C9 1_555 1_555
C10 C9 1_555 1_555
H10 C10 1_555 1_555
H11 C10 1_555 1_555
C11 C9 1_555 1_555
H12 C11 1_555 1_555
H13 C11 1_555 1_555
C12 O1 1_555 1_555
C13 C12 1_555 1_555
H14 C13 1_555 1_555
H15 C13 1_555 1_555
H16 C13 1_555 1_555
C14 C12 1_555 1_555
H17 C14 1_555 1_555
H18 C14 1_555 1_555
H19 C14 1_555 1_555
H20 O5 1_555 1_555
H21 O3 1_555 1_555
O2 C12 1_555 1_555
C3 C4 1_555 1_555
C5 C6 1_555 1_555
C10 C11 1_555 1_555

#END
