
#######################################################################
#
#                 Cambridge Crystallographic Data Centre
#                                CCDC 
#
#######################################################################
#
# If this CIF has been generated from an entry in the Cambridge 
# Structural Database, then it will include bibliographic, chemical, 
# crystal, experimental, refinement or atomic coordinate data resulting 
# from the CCDC's data processing and validation procedures.
#
#######################################################################

data_NINRAF
_chemical_name_common            'Lacinilene C 7-methyl ether'
_chemical_formula_moiety         'C16 H20 O3'
_chemical_name_systematic        
1-Hydroxy-4-isopropyl-7-methoxy-1,6-dimethylnaphthalen-2(1H)-one
_symmetry_cell_setting           triclinic
_symmetry_space_group_name_H-M   'P -1'
_symmetry_Int_Tables_number      2
_space_group_name_Hall           '-P 1'
loop_
_symmetry_equiv_pos_site_id
_symmetry_equiv_pos_as_xyz
1 x,y,z
2 -x,-y,-z
_cell_length_a                   8.285(2)
_cell_length_b                   8.987(2)
_cell_length_c                   10.665(3)
_cell_angle_alpha                68.58(2)
_cell_angle_beta                 78.95(2)
_cell_angle_gamma                88.87(2)
_cell_volume                     724.434
_exptl_crystal_colour            white
_exptl_crystal_description       block
_cell_formula_units_Z            2
loop_
_atom_site_label
_atom_site_type_symbol
_atom_site_fract_x
_atom_site_fract_y
_atom_site_fract_z
O1 O 0.17788(19) 0.7003(2) 0.39017(14)
O2 O 0.3720(2) 0.6105(2) 1.03293(16)
O3 O 0.48189(19) 0.6395(2) 0.76954(16)
C1 C 0.2611(2) 0.7114(2) 0.59257(18)
H1 H 0.3710 0.7002 0.5588
C2 C 0.1443(3) 0.7162(2) 0.51528(18)
C3 C -0.0215(3) 0.7362(3) 0.56220(19)
C4 C -0.0648(2) 0.7455(2) 0.69137(19)
H2 H -0.1747 0.7574 0.7244
C5 C 0.0011(2) 0.7369(2) 0.91560(18)
C6 C 0.1106(3) 0.7009(2) 0.99895(19)
H3 H 0.0762 0.6946 1.0891
C7 C 0.2793(3) 0.6715(2) 0.9538(2)
C8 C 0.3471(2) 0.7286(2) 0.79945(19)
C9 C 0.2154(2) 0.7232(2) 0.72078(17)
C10 C 0.0498(2) 0.7378(2) 0.77398(17)
C11 C -0.1470(3) 0.7475(4) 0.4749(2)
H4 H -0.1295 0.8479 0.3985
H5 H -0.2555 0.7405 0.5288
H6 H -0.1361 0.6613 0.4415
C12 C 0.4083(3) 0.9043(3) 0.7538(3)
H7 H 0.4528 0.9453 0.6569
H8 H 0.4922 0.9110 0.8026
H9 H 0.3180 0.9662 0.7735
C13 C 0.3426(3) 0.6738(3) 0.3381(2)
H10 H 0.3478 0.6595 0.2526
H11 H 0.3780 0.5796 0.4030
H12 H 0.4132 0.7644 0.3237
C14 C -0.1737(2) 0.7743(2) 0.9643(2)
H13 H -0.2483 0.7155 0.9353
C15 C -0.2245(3) 0.7260(3) 1.1202(2)
H14 H -0.2059 0.6148 1.1644
H15 H -0.3391 0.7434 1.1438
H16 H -0.1602 0.7895 1.1501
C16 C -0.1950(3) 0.9525(3) 0.8936(3)
H17 H -0.1205 1.0129 0.9180
H18 H -0.3062 0.9764 0.9224
H19 H -0.1715 0.9804 0.7958
H20 H 0.506(4) 0.574(4) 0.846(3)
loop_
_geom_bond_atom_site_label_1
_geom_bond_atom_site_label_2
_geom_bond_site_symmetry_1
_geom_bond_site_symmetry_2
O1 C2 1_555 1_555
O2 C7 1_555 1_555
O3 C8 1_555 1_555
C1 H1 1_555 1_555
C2 C1 1_555 1_555
C3 C2 1_555 1_555
C4 C3 1_555 1_555
H2 C4 1_555 1_555
C5 C6 1_555 1_555
C6 H3 1_555 1_555
C7 C6 1_555 1_555
C8 C7 1_555 1_555
C9 C1 1_555 1_555
C10 C4 1_555 1_555
C11 C3 1_555 1_555
H4 C11 1_555 1_555
H5 C11 1_555 1_555
H6 C11 1_555 1_555
C12 C8 1_555 1_555
H7 C12 1_555 1_555
H8 C12 1_555 1_555
H9 C12 1_555 1_555
C13 O1 1_555 1_555
H10 C13 1_555 1_555
H11 C13 1_555 1_555
H12 C13 1_555 1_555
C14 C5 1_555 1_555
H13 C14 1_555 1_555
C15 C14 1_555 1_555
H14 C15 1_555 1_555
H15 C15 1_555 1_555
H16 C15 1_555 1_555
C16 C14 1_555 1_555
H17 C16 1_555 1_555
H18 C16 1_555 1_555
H19 C16 1_555 1_555
H20 O3 1_555 1_555
C5 C10 1_555 1_555
C8 C9 1_555 1_555
C9 C10 1_555 1_555

#END
