
#######################################################################
#
#                 Cambridge Crystallographic Data Centre
#                                CCDC 
#
#######################################################################
#
# If this CIF has been generated from an entry in the Cambridge 
# Structural Database, then it will include bibliographic, chemical, 
# crystal, experimental, refinement or atomic coordinate data resulting 
# from the CCDC's data processing and validation procedures.
#
#######################################################################

data_NINRIN
_chemical_formula_moiety         'C33 H50 N4 2+,2(Br1 1-),C2 H6 O1,H2 O1'
_chemical_name_systematic        
"1,1'-Methylenebis(3-(2,6-di-isopropylphenyl)-3,4,5,6-tetrahydropyrimidin-1-ium) dibromide ethanol monohydrate"
_symmetry_cell_setting           monoclinic
_symmetry_space_group_name_H-M   'P 21/c'
_symmetry_Int_Tables_number      14
_space_group_name_Hall           '-P 2ybc'
loop_
_symmetry_equiv_pos_site_id
_symmetry_equiv_pos_as_xyz
1 x,y,z
2 -x,1/2+y,1/2-z
3 -x,-y,-z
4 x,1/2-y,1/2+z
_cell_length_a                   13.6267(4)
_cell_length_b                   10.3769(2)
_cell_length_c                   26.9387(6)
_cell_angle_alpha                90
_cell_angle_beta                 91.361(2)
_cell_angle_gamma                90
_cell_volume                     3808.14
_exptl_crystal_colour            colorless
_exptl_crystal_description       prismatic
_cell_formula_units_Z            4
_exptl_crystal_recrystallization_method ethanol
loop_
_atom_site_label
_atom_site_type_symbol
_atom_site_fract_x
_atom_site_fract_y
_atom_site_fract_z
Br1 Br -0.00021(3) 0.39577(3) 0.739687(12)
Br2 Br 0.15358(3) 0.69268(4) 0.506573(13)
O1 O 0.3004(2) 0.4779(3) 0.55638(12)
H1 H 0.2678 0.5316 0.5409
C1 C 0.3869(3) 0.4560(5) 0.53238(17)
H2 H 0.4293 0.5306 0.5364
H3 H 0.3730 0.4445 0.4972
C2 C 0.4385(4) 0.3408(5) 0.55190(18)
H4 H 0.4931 0.3214 0.5313
H5 H 0.3941 0.2690 0.5518
H6 H 0.4617 0.3572 0.5852
O2 O 0.1471(3) 0.6392(4) 0.77111(16)
H7 H 0.112(7) 0.567(7) 0.761(4)
H8 H 0.105(4) 0.709(4) 0.772(2)
N1 N -0.11949(16) 0.62173(19) 0.62054(8)
N2 N 0.01884(16) 0.50715(19) 0.59859(7)
N3 N 0.08481(16) 0.29232(19) 0.60165(8)
N4 N 0.20292(16) 0.17986(19) 0.64720(8)
C3 C -0.0641(2) 0.6922(3) 0.65980(10)
H9 H -0.0663 0.6448 0.6908
H10 H -0.0936 0.7762 0.6649
C4 C 0.0408(2) 0.7081(2) 0.64459(10)
H11 H 0.0786 0.7485 0.6713
H12 H 0.0434 0.7636 0.6157
C5 C 0.0852(2) 0.5776(2) 0.63261(10)
H13 H 0.1483 0.5895 0.6174
H14 H 0.0954 0.5286 0.6629
C6 C -0.0745(2) 0.5337(2) 0.59437(9)
H15 H -0.1119 0.4872 0.5713
C7 C 0.0609(2) 0.4029(2) 0.56977(9)
H16 H 0.1199 0.4330 0.5540
H17 H 0.0144 0.3766 0.5439
C8 C 0.0022(2) 0.2149(3) 0.61961(11)
H18 H -0.0466 0.2039 0.5932
H19 H -0.0284 0.2590 0.6470
C9 C 0.0398(2) 0.0843(3) 0.63669(12)
H20 H -0.0118 0.0384 0.6534
H21 H 0.0588 0.0338 0.6082
C10 C 0.1273(2) 0.1014(3) 0.67170(11)
H22 H 0.1070 0.1438 0.7018
H23 H 0.1543 0.0178 0.6806
C11 C 0.1756(2) 0.2702(2) 0.61571(9)
H24 H 0.2242 0.3220 0.6025
C12 C 0.3050(2) 0.1641(3) 0.66192(10)
C13 C 0.3474(2) 0.2525(3) 0.69526(11)
C14 C 0.4457(2) 0.2335(3) 0.70865(12)
H25 H 0.4765 0.2908 0.7305
C15 C 0.4980(3) 0.1318(3) 0.69028(13)
H26 H 0.5637 0.1215 0.6996
C16 C 0.4540(2) 0.0454(3) 0.65826(13)
H27 H 0.4903 -0.0237 0.6465
C17 C 0.3567(2) 0.0587(3) 0.64302(11)
C18 C 0.3111(2) -0.0400(3) 0.60767(12)
H28 H 0.2449 -0.0105 0.5984
C19 C 0.3022(3) -0.1712(3) 0.63334(15)
H29 H 0.2725 -0.2320 0.6107
H30 H 0.2622 -0.1627 0.6620
H31 H 0.3663 -0.2012 0.6434
C20 C 0.3695(3) -0.0539(4) 0.56023(13)
H32 H 0.4334 -0.0879 0.5683
H33 H 0.3760 0.0289 0.5448
H34 H 0.3356 -0.1115 0.5378
C21 C 0.2922(2) 0.3655(3) 0.71713(11)
H35 H 0.2232 0.3582 0.7064
C22 C 0.2963(3) 0.3628(3) 0.77382(12)
H36 H 0.2691 0.2831 0.7853
H37 H 0.2591 0.4336 0.7865
H38 H 0.3633 0.3699 0.7853
C23 C 0.3311(3) 0.4933(3) 0.69788(13)
H39 H 0.3985 0.5033 0.7083
H40 H 0.2930 0.5628 0.7109
H41 H 0.3263 0.4943 0.6623
C24 C -0.2241(2) 0.6421(3) 0.61480(10)
C25 C -0.2563(2) 0.7541(3) 0.59017(11)
C26 C -0.3565(3) 0.7721(3) 0.58588(13)
H42 H -0.3806 0.8453 0.5698
C27 C -0.4211(3) 0.6851(4) 0.60466(15)
H43 H -0.4883 0.6989 0.6006
C28 C -0.3876(2) 0.5773(3) 0.62942(13)
H44 H -0.4326 0.5195 0.6422
C29 C -0.2878(2) 0.5531(3) 0.63568(11)
C30 C -0.2532(2) 0.4340(3) 0.66426(11)
H45 H -0.1815 0.4383 0.6678
C31 C -0.2952(3) 0.4302(4) 0.71605(13)
H46 H -0.3654 0.4246 0.7135
H47 H -0.2768 0.5072 0.7337
H48 H -0.2698 0.3564 0.7336
C32 C -0.2795(3) 0.3113(3) 0.63574(14)
H49 H -0.3495 0.3055 0.6314
H50 H -0.2559 0.2377 0.6540
H51 H -0.2498 0.3133 0.6038
C33 C -0.1854(3) 0.8498(3) 0.56818(12)
H52 H -0.1210 0.8351 0.5841
C34 C -0.2133(3) 0.9887(3) 0.57786(16)
H53 H -0.1667 1.0449 0.5627
H54 H -0.2133 1.0040 0.6130
H55 H -0.2776 1.0052 0.5640
C35 C -0.1749(4) 0.8245(4) 0.51276(15)
H56 H -0.1561 0.7364 0.5077
H57 H -0.1256 0.8805 0.4998
H58 H -0.2365 0.8407 0.4958
loop_
_geom_bond_atom_site_label_1
_geom_bond_atom_site_label_2
_geom_bond_site_symmetry_1
_geom_bond_site_symmetry_2
O1 H1 1_555 1_555
C1 O1 1_555 1_555
H2 C1 1_555 1_555
H3 C1 1_555 1_555
C2 C1 1_555 1_555
H4 C2 1_555 1_555
H5 C2 1_555 1_555
H6 C2 1_555 1_555
O2 H7 1_555 1_555
H8 O2 1_555 1_555
N1 C3 1_555 1_555
N2 C5 1_555 1_555
N3 C7 1_555 1_555
N4 C10 1_555 1_555
C3 H9 1_555 1_555
H10 C3 1_555 1_555
C4 C3 1_555 1_555
H11 C4 1_555 1_555
H12 C4 1_555 1_555
C5 C4 1_555 1_555
H13 C5 1_555 1_555
H14 C5 1_555 1_555
C6 N1 1_555 1_555
H15 C6 1_555 1_555
C7 N2 1_555 1_555
H16 C7 1_555 1_555
H17 C7 1_555 1_555
C8 N3 1_555 1_555
H18 C8 1_555 1_555
H19 C8 1_555 1_555
C9 C8 1_555 1_555
H20 C9 1_555 1_555
H21 C9 1_555 1_555
C10 C9 1_555 1_555
H22 C10 1_555 1_555
H23 C10 1_555 1_555
C11 N3 1_555 1_555
H24 C11 1_555 1_555
C12 N4 1_555 1_555
C13 C12 1_555 1_555
C14 C13 1_555 1_555
H25 C14 1_555 1_555
C15 C14 1_555 1_555
H26 C15 1_555 1_555
C16 C15 1_555 1_555
H27 C16 1_555 1_555
C17 C12 1_555 1_555
C18 C17 1_555 1_555
H28 C18 1_555 1_555
C19 C18 1_555 1_555
H29 C19 1_555 1_555
H30 C19 1_555 1_555
H31 C19 1_555 1_555
C20 C18 1_555 1_555
H32 C20 1_555 1_555
H33 C20 1_555 1_555
H34 C20 1_555 1_555
C21 C13 1_555 1_555
H35 C21 1_555 1_555
C22 C21 1_555 1_555
H36 C22 1_555 1_555
H37 C22 1_555 1_555
H38 C22 1_555 1_555
C23 C21 1_555 1_555
H39 C23 1_555 1_555
H40 C23 1_555 1_555
H41 C23 1_555 1_555
C24 N1 1_555 1_555
C25 C24 1_555 1_555
C26 C25 1_555 1_555
H42 C26 1_555 1_555
C27 C26 1_555 1_555
H43 C27 1_555 1_555
C28 C27 1_555 1_555
H44 C28 1_555 1_555
C29 C24 1_555 1_555
C30 C29 1_555 1_555
H45 C30 1_555 1_555
C31 C30 1_555 1_555
H46 C31 1_555 1_555
H47 C31 1_555 1_555
H48 C31 1_555 1_555
C32 C30 1_555 1_555
H49 C32 1_555 1_555
H50 C32 1_555 1_555
H51 C32 1_555 1_555
C33 C25 1_555 1_555
H52 C33 1_555 1_555
C34 C33 1_555 1_555
H53 C34 1_555 1_555
H54 C34 1_555 1_555
H55 C34 1_555 1_555
C35 C33 1_555 1_555
H56 C35 1_555 1_555
H57 C35 1_555 1_555
H58 C35 1_555 1_555
N2 C6 1_555 1_555
N4 C11 1_555 1_555
C16 C17 1_555 1_555
C28 C29 1_555 1_555

#END
