
#######################################################################
#
#                 Cambridge Crystallographic Data Centre
#                                CCDC 
#
#######################################################################
#
# If this CIF has been generated from an entry in the Cambridge 
# Structural Database, then it will include bibliographic, chemical, 
# crystal, experimental, refinement or atomic coordinate data resulting 
# from the CCDC's data processing and validation procedures.
#
#######################################################################

data_NINSEJ
_chemical_formula_moiety         'C56 H84 O4 Si2'
_chemical_name_systematic        
5,11,17,23-Tetra-t-butyl-25,27-dihydroxy-26,28-bis(dimethyl(t-butyl)siloxy)calix(4)arene
_symmetry_cell_setting           monoclinic
_symmetry_space_group_name_H-M   'P 21/c'
_symmetry_Int_Tables_number      14
_space_group_name_Hall           '-P 2ybc'
loop_
_symmetry_equiv_pos_site_id
_symmetry_equiv_pos_as_xyz
1 x,y,z
2 -x,1/2+y,1/2-z
3 -x,-y,-z
4 x,1/2-y,1/2+z
_cell_length_a                   21.1457(14)
_cell_length_b                   19.2367(14)
_cell_length_c                   13.9867(10)
_cell_angle_alpha                90
_cell_angle_beta                 96.961(2)
_cell_angle_gamma                90
_cell_volume                     5647.48
_exptl_crystal_colour            colorless
_exptl_crystal_description       Block
_cell_formula_units_Z            4
loop_
_atom_site_label
_atom_site_type_symbol
_atom_site_fract_x
_atom_site_fract_y
_atom_site_fract_z
Si1 Si 0.36752(4) 0.25516(5) 0.83849(7)
Si2 Si 0.05110(4) 0.35792(5) 0.55002(7)
O1 O 0.25889(9) 0.39190(11) 0.61642(14)
H1 H 0.2196 0.3930 0.6023
O2 O 0.11540(8) 0.39655(11) 0.60912(13)
O3 O 0.20270(9) 0.37827(10) 0.81725(14)
H2 H 0.2401 0.3645 0.8257
O4 O 0.32942(8) 0.33039(10) 0.81306(13)
C1 C 0.17987(13) 0.48574(17) 0.4875(2)
H3 H 0.1658 0.4379 0.4731
H4 H 0.1641 0.5149 0.4323
C2 C 0.08435(13) 0.43826(17) 0.7980(2)
H5 H 0.0408 0.4500 0.8093
H6 H 0.0843 0.3906 0.7731
C3 C 0.30152(13) 0.39807(16) 0.9838(2)
H7 H 0.3223 0.4050 1.0496
H8 H 0.2993 0.3479 0.9717
C4 C 0.38825(14) 0.40140(16) 0.6604(2)
H9 H 0.4329 0.3979 0.6486
H10 H 0.3699 0.3546 0.6559
C5 C 0.28649(15) 0.44349(17) 0.5665(2)
C6 C 0.35243(15) 0.44752(17) 0.5849(2)
C7 C 0.38349(15) 0.49674(18) 0.5351(2)
H11 H 0.4282 0.4989 0.5457
C8 C 0.35127(16) 0.54320(17) 0.4699(2)
C9 C 0.28558(15) 0.53754(16) 0.4564(2)
H12 H 0.2623 0.5686 0.4139
C10 C 0.25243(14) 0.48822(17) 0.5027(2)
C11 C 0.38738(17) 0.5975(2) 0.4159(3)
C12 C 0.34489(18) 0.6507(2) 0.3650(4)
H13 H 0.3692 0.6795 0.3256
H14 H 0.3270 0.6796 0.4119
H15 H 0.3107 0.6279 0.3242
C13 C 0.4195(2) 0.5575(2) 0.3366(3)
H16 H 0.4445 0.5190 0.3660
H17 H 0.4472 0.5889 0.3067
H18 H 0.3869 0.5397 0.2881
C14 C 0.44120(18) 0.6307(2) 0.4783(3)
H19 H 0.4696 0.5949 0.5075
H20 H 0.4246 0.6575 0.5284
H21 H 0.4644 0.6611 0.4397
C15 C 0.12237(13) 0.46628(17) 0.6351(2)
C16 C 0.15214(14) 0.51121(19) 0.5769(2)
C17 C 0.16295(14) 0.57954(18) 0.6073(3)
H22 H 0.1824 0.6102 0.5674
C18 C 0.14619(15) 0.60416(19) 0.6939(3)
C19 C 0.11770(14) 0.55682(19) 0.7504(2)
H23 H 0.1054 0.5723 0.8091
C20 C 0.10657(13) 0.48824(18) 0.7245(2)
C21 C 0.16294(19) 0.6772(2) 0.7304(3)
C22 C 0.2113(3) 0.6712(2) 0.8203(4)
H24 H 0.1920 0.6473 0.8705
H25 H 0.2247 0.7173 0.8424
H26 H 0.2481 0.6451 0.8050
C23 C 0.1060(2) 0.7146(2) 0.7582(4)
H27 H 0.0851 0.6858 0.8019
H28 H 0.0766 0.7243 0.7010
H29 H 0.1194 0.7580 0.7899
C24 C 0.1920(3) 0.7215(2) 0.6595(4)
H30 H 0.1956 0.7689 0.6829
H31 H 0.1653 0.7203 0.5980
H32 H 0.2340 0.7038 0.6515
C25 C 0.18976(15) 0.41597(16) 0.8964(2)
C26 C 0.12855(14) 0.44308(16) 0.8919(2)
C27 C 0.11168(14) 0.47905(16) 0.9705(2)
H33 H 0.0698 0.4960 0.9678
C28 C 0.15327(15) 0.49141(16) 1.0532(2)
C29 C 0.21474(14) 0.46449(16) 1.0533(2)
H34 H 0.2446 0.4724 1.1076
C30 C 0.23396(14) 0.42660(16) 0.9771(2)
C31 C 0.13140(15) 0.52926(18) 1.1395(2)
C32 C 0.18777(16) 0.5570(2) 1.2081(2)
H35 H 0.1720 0.5823 1.2603
H36 H 0.2131 0.5878 1.1733
H37 H 0.2139 0.5184 1.2342
C33 C 0.09368(18) 0.47814(19) 1.1954(3)
H38 H 0.0577 0.4602 1.1530
H39 H 0.0785 0.5020 1.2493
H40 H 0.1211 0.4399 1.2192
C34 C 0.08810(15) 0.59105(17) 1.1064(2)
H41 H 0.0511 0.5744 1.0650
H42 H 0.1114 0.6237 1.0712
H43 H 0.0745 0.6140 1.1623
C35 C 0.35432(14) 0.39675(17) 0.8313(2)
C36 C 0.34225(14) 0.43079(18) 0.9146(2)
C37 C 0.36816(15) 0.49653(18) 0.9329(2)
H44 H 0.3613 0.5190 0.9904
C38 C 0.40379(15) 0.53052(18) 0.8697(3)
C39 C 0.40999(14) 0.49612(19) 0.7839(3)
H45 H 0.4324 0.5184 0.7385
C40 C 0.38484(14) 0.43083(18) 0.7616(2)
C41 C 0.43587(19) 0.6010(2) 0.8923(3)
C42 C 0.4264(3) 0.6277(3) 0.9892(4)
H46 H 0.4472 0.6726 0.9994
H47 H 0.4447 0.5953 1.0380
H48 H 0.3812 0.6328 0.9934
C43 C 0.4117(2) 0.6530(2) 0.8145(4)
H49 H 0.4169 0.6339 0.7517
H50 H 0.4358 0.6958 0.8242
H51 H 0.3670 0.6624 0.8179
C44 C 0.50760(19) 0.5932(2) 0.8843(3)
H52 H 0.5133 0.5750 0.8212
H53 H 0.5264 0.5614 0.9335
H54 H 0.5282 0.6382 0.8931
C45 C 0.44059(14) 0.25121(19) 0.7775(3)
H55 H 0.4649 0.2937 0.7901
H56 H 0.4288 0.2461 0.7086
H57 H 0.4663 0.2118 0.8018
C46 C 0.39301(15) 0.24583(18) 0.9698(2)
H58 H 0.4168 0.2867 0.9933
H59 H 0.4198 0.2050 0.9811
H60 H 0.3558 0.2409 1.0034
C47 C 0.30660(15) 0.18899(17) 0.7943(2)
C48 C 0.33704(17) 0.11652(18) 0.7975(3)
H61 H 0.3688 0.1148 0.7529
H62 H 0.3044 0.0819 0.7793
H63 H 0.3572 0.1070 0.8622
C49 C 0.27940(17) 0.20651(18) 0.6905(2)
H64 H 0.3137 0.2080 0.6504
H65 H 0.2585 0.2514 0.6891
H66 H 0.2488 0.1712 0.6664
C50 C 0.25155(16) 0.18850(19) 0.8561(3)
H67 H 0.2318 0.2341 0.8541
H68 H 0.2677 0.1770 0.9221
H69 H 0.2203 0.1541 0.8312
C51 C 0.03799(16) 0.38952(19) 0.4238(2)
H70 H 0.0357 0.4399 0.4235
H71 H -0.0016 0.3705 0.3920
H72 H 0.0730 0.3746 0.3899
C52 C -0.02105(13) 0.37938(18) 0.6072(2)
H73 H -0.0231 0.4292 0.6167
H74 H -0.0191 0.3560 0.6689
H75 H -0.0586 0.3641 0.5658
C53 C 0.07206(15) 0.26387(17) 0.5598(3)
C54 C 0.13144(17) 0.24868(19) 0.5102(3)
H76 H 0.1228 0.2599 0.4423
H77 H 0.1423 0.1998 0.5175
H78 H 0.1667 0.2767 0.5395
C55 C 0.08578(17) 0.24226(19) 0.6657(3)
H79 H 0.0485 0.2510 0.6980
H80 H 0.1215 0.2689 0.6966
H81 H 0.0961 0.1931 0.6696
C56 C 0.01661(17) 0.21916(19) 0.5110(3)
H82 H 0.0088 0.2309 0.4432
H83 H -0.0215 0.2282 0.5413
H84 H 0.0277 0.1703 0.5180
loop_
_geom_bond_atom_site_label_1
_geom_bond_atom_site_label_2
_geom_bond_site_symmetry_1
_geom_bond_site_symmetry_2
Si1 O4 1_555 1_555
Si2 O2 1_555 1_555
O1 H1 1_555 1_555
O2 C15 1_555 1_555
O3 H2 1_555 1_555
O4 C35 1_555 1_555
C1 H3 1_555 1_555
H4 C1 1_555 1_555
C2 H5 1_555 1_555
H6 C2 1_555 1_555
C3 H7 1_555 1_555
H8 C3 1_555 1_555
C4 H9 1_555 1_555
H10 C4 1_555 1_555
C5 O1 1_555 1_555
C6 C4 1_555 1_555
C7 C6 1_555 1_555
H11 C7 1_555 1_555
C8 C7 1_555 1_555
C9 C8 1_555 1_555
H12 C9 1_555 1_555
C10 C1 1_555 1_555
C11 C8 1_555 1_555
C12 C11 1_555 1_555
H13 C12 1_555 1_555
H14 C12 1_555 1_555
H15 C12 1_555 1_555
C13 C11 1_555 1_555
H16 C13 1_555 1_555
H17 C13 1_555 1_555
H18 C13 1_555 1_555
C14 C11 1_555 1_555
H19 C14 1_555 1_555
H20 C14 1_555 1_555
H21 C14 1_555 1_555
C15 C16 1_555 1_555
C16 C1 1_555 1_555
C17 C16 1_555 1_555
H22 C17 1_555 1_555
C18 C17 1_555 1_555
C19 C18 1_555 1_555
H23 C19 1_555 1_555
C20 C2 1_555 1_555
C21 C18 1_555 1_555
C22 C21 1_555 1_555
H24 C22 1_555 1_555
H25 C22 1_555 1_555
H26 C22 1_555 1_555
C23 C21 1_555 1_555
H27 C23 1_555 1_555
H28 C23 1_555 1_555
H29 C23 1_555 1_555
C24 C21 1_555 1_555
H30 C24 1_555 1_555
H31 C24 1_555 1_555
H32 C24 1_555 1_555
C25 O3 1_555 1_555
C26 C2 1_555 1_555
C27 C26 1_555 1_555
H33 C27 1_555 1_555
C28 C27 1_555 1_555
C29 C28 1_555 1_555
H34 C29 1_555 1_555
C30 C3 1_555 1_555
C31 C28 1_555 1_555
C32 C31 1_555 1_555
H35 C32 1_555 1_555
H36 C32 1_555 1_555
H37 C32 1_555 1_555
C33 C31 1_555 1_555
H38 C33 1_555 1_555
H39 C33 1_555 1_555
H40 C33 1_555 1_555
C34 C31 1_555 1_555
H41 C34 1_555 1_555
H42 C34 1_555 1_555
H43 C34 1_555 1_555
C35 C36 1_555 1_555
C36 C3 1_555 1_555
C37 C36 1_555 1_555
H44 C37 1_555 1_555
C38 C37 1_555 1_555
C39 C38 1_555 1_555
H45 C39 1_555 1_555
C40 C4 1_555 1_555
C41 C38 1_555 1_555
C42 C41 1_555 1_555
H46 C42 1_555 1_555
H47 C42 1_555 1_555
H48 C42 1_555 1_555
C43 C41 1_555 1_555
H49 C43 1_555 1_555
H50 C43 1_555 1_555
H51 C43 1_555 1_555
C44 C41 1_555 1_555
H52 C44 1_555 1_555
H53 C44 1_555 1_555
H54 C44 1_555 1_555
C45 Si1 1_555 1_555
H55 C45 1_555 1_555
H56 C45 1_555 1_555
H57 C45 1_555 1_555
C46 Si1 1_555 1_555
H58 C46 1_555 1_555
H59 C46 1_555 1_555
H60 C46 1_555 1_555
C47 Si1 1_555 1_555
C48 C47 1_555 1_555
H61 C48 1_555 1_555
H62 C48 1_555 1_555
H63 C48 1_555 1_555
C49 C47 1_555 1_555
H64 C49 1_555 1_555
H65 C49 1_555 1_555
H66 C49 1_555 1_555
C50 C47 1_555 1_555
H67 C50 1_555 1_555
H68 C50 1_555 1_555
H69 C50 1_555 1_555
C51 Si2 1_555 1_555
H70 C51 1_555 1_555
H71 C51 1_555 1_555
H72 C51 1_555 1_555
C52 Si2 1_555 1_555
H73 C52 1_555 1_555
H74 C52 1_555 1_555
H75 C52 1_555 1_555
C53 Si2 1_555 1_555
C54 C53 1_555 1_555
H76 C54 1_555 1_555
H77 C54 1_555 1_555
H78 C54 1_555 1_555
C55 C53 1_555 1_555
H79 C55 1_555 1_555
H80 C55 1_555 1_555
H81 C55 1_555 1_555
C56 C53 1_555 1_555
H82 C56 1_555 1_555
H83 C56 1_555 1_555
H84 C56 1_555 1_555
C5 C6 1_555 1_555
C5 C10 1_555 1_555
C9 C10 1_555 1_555
C15 C20 1_555 1_555
C19 C20 1_555 1_555
C25 C26 1_555 1_555
C25 C30 1_555 1_555
C29 C30 1_555 1_555
C35 C40 1_555 1_555
C39 C40 1_555 1_555

#END
