
#######################################################################
#
#                 Cambridge Crystallographic Data Centre
#                                CCDC 
#
#######################################################################
#
# If this CIF has been generated from an entry in the Cambridge 
# Structural Database, then it will include bibliographic, chemical, 
# crystal, experimental, refinement or atomic coordinate data resulting 
# from the CCDC's data processing and validation procedures.
#
#######################################################################

data_NINTEL
_chemical_formula_moiety         'C18 H28 O8'
_chemical_name_systematic        
5'-Ethyl-5-ethylidene-2,2,2',2'-tetramethyltetrahydro-6,6a'-bifuro[2,3-d][1,3]dioxole-6,6'(5H)-diol
_symmetry_cell_setting           orthorhombic
_symmetry_space_group_name_H-M   'P 21 21 2'
_symmetry_Int_Tables_number      18
_space_group_name_Hall           'P 2 2ab'
loop_
_symmetry_equiv_pos_site_id
_symmetry_equiv_pos_as_xyz
1 x,y,z
2 -x,-y,z
3 1/2+x,1/2-y,-z
4 1/2-x,1/2+y,-z
_cell_length_a                   21.5802(6)
_cell_length_b                   15.3758(4)
_cell_length_c                   5.73626(14)
_cell_angle_alpha                90
_cell_angle_beta                 90
_cell_angle_gamma                90
_cell_volume                     1903.36
_exptl_crystal_colour            colorless
_exptl_crystal_description       prism
_chemical_melting_point          '398 K'
_cell_formula_units_Z            4
loop_
_atom_site_label
_atom_site_type_symbol
_atom_site_fract_x
_atom_site_fract_y
_atom_site_fract_z
O1 O 0.67974(7) 0.17289(11) 0.8701(3)
O2 O 0.43970(8) 0.11163(12) 0.6552(3)
O3 O 0.63054(6) 0.23737(9) 0.5648(2)
O4 O 0.48323(7) 0.15439(10) 0.9957(3)
O5 O 0.66664(9) 0.40182(11) 0.5529(3)
O6 O 0.53146(7) 0.31495(9) 1.0267(2)
O7 O 0.69581(7) 0.31202(12) 1.0229(3)
O8 O 0.48425(7) 0.23484(9) 0.4771(2)
C1 C 0.65181(9) 0.24742(14) 0.9636(4)
H1 H 0.6260 0.2325 1.0984
C2 C 0.49427(10) 0.15364(13) 0.5914(4)
H2 H 0.5199 0.1155 0.4944
C3 C 0.61210(9) 0.28500(12) 0.7651(3)
C4 C 0.52685(9) 0.17335(13) 0.8211(3)
H3 H 0.5644 0.1382 0.8392
C5 C 0.63097(9) 0.38264(13) 0.7514(3)
H4 H 0.5938 0.4192 0.7538
C6 C 0.54226(9) 0.27154(13) 0.8134(3)
C7 C 0.66772(10) 0.39550(15) 0.9764(4)
H5 H 0.6386 0.4087 1.1025
C8 C 0.49988(9) 0.30348(13) 0.6225(3)
C9 C 0.71713(12) 0.4649(2) 0.9732(5)
C10 C 0.47675(10) 0.38174(15) 0.5919(4)
C11 C 0.69055(13) 0.55472(19) 0.9364(6)
H6 H 0.6581 0.5649 1.0476
H7 H 0.6741 0.5591 0.7814
H8 H 0.7226 0.5973 0.9570
C12 C 0.43255(12) 0.40709(18) 0.4031(5)
H9 H 0.4021 0.4463 0.4648
H10 H 0.4124 0.3560 0.3437
H11 H 0.4548 0.4352 0.2794
C13 C 0.68335(10) 0.18190(16) 0.6219(4)
C14 C 0.42493(10) 0.13080(15) 0.8936(4)
C15 C 0.74382(10) 0.2237(2) 0.5493(5)
H12 H 0.7776 0.1860 0.5890
H13 H 0.7486 0.2782 0.6288
H14 H 0.7436 0.2335 0.3840
C16 C 0.40403(12) 0.04898(16) 1.0145(6)
H15 H 0.4364 0.0063 1.0071
H16 H 0.3676 0.0268 0.9390
H17 H 0.3948 0.0617 1.1746
C17 C 0.67296(12) 0.09468(15) 0.5109(5)
H18 H 0.6340 0.0715 0.5621
H19 H 0.7057 0.0558 0.5552
H20 H 0.6725 0.1010 0.3444
C18 C 0.37906(14) 0.2033(2) 0.9154(7)
H21 H 0.3409 0.1868 0.8420
H22 H 0.3952 0.2545 0.8408
H23 H 0.3717 0.2153 1.0772
H24 H 0.4875(10) 0.4262(15) 0.710(4)
H25 H 0.5069(12) 0.2890(17) 1.101(5)
H26 H 0.6667(15) 0.360(2) 0.465(7)
H27 H 0.7420(12) 0.4587(17) 1.114(5)
H28 H 0.7476(13) 0.4461(19) 0.861(6)
loop_
_geom_bond_atom_site_label_1
_geom_bond_atom_site_label_2
_geom_bond_site_symmetry_1
_geom_bond_site_symmetry_2
O1 C1 1_555 1_555
O2 C2 1_555 1_555
O3 C3 1_555 1_555
O4 C4 1_555 1_555
O5 C5 1_555 1_555
O6 C6 1_555 1_555
O7 C1 1_555 1_555
O8 C2 1_555 1_555
C1 H1 1_555 1_555
C2 H2 1_555 1_555
C3 C1 1_555 1_555
C4 C2 1_555 1_555
H3 C4 1_555 1_555
C5 C3 1_555 1_555
H4 C5 1_555 1_555
C6 C3 1_555 1_555
C7 O7 1_555 1_555
H5 C7 1_555 1_555
C8 O8 1_555 1_555
C9 C7 1_555 1_555
C10 C8 1_555 1_555
C11 C9 1_555 1_555
H6 C11 1_555 1_555
H7 C11 1_555 1_555
H8 C11 1_555 1_555
C12 C10 1_555 1_555
H9 C12 1_555 1_555
H10 C12 1_555 1_555
H11 C12 1_555 1_555
C13 O1 1_555 1_555
C14 O2 1_555 1_555
C15 C13 1_555 1_555
H12 C15 1_555 1_555
H13 C15 1_555 1_555
H14 C15 1_555 1_555
C16 C14 1_555 1_555
H15 C16 1_555 1_555
H16 C16 1_555 1_555
H17 C16 1_555 1_555
C17 C13 1_555 1_555
H18 C17 1_555 1_555
H19 C17 1_555 1_555
H20 C17 1_555 1_555
C18 C14 1_555 1_555
H21 C18 1_555 1_555
H22 C18 1_555 1_555
H23 C18 1_555 1_555
H24 C10 1_555 1_555
H25 O6 1_555 1_555
H26 O5 1_555 1_555
H27 C9 1_555 1_555
H28 C9 1_555 1_555
O3 C13 1_555 1_555
O4 C14 1_555 1_555
C4 C6 1_555 1_555
C5 C7 1_555 1_555
C6 C8 1_555 1_555

#END
