
#######################################################################
#
#                 Cambridge Crystallographic Data Centre
#                                CCDC 
#
#######################################################################
#
# If this CIF has been generated from an entry in the Cambridge 
# Structural Database, then it will include bibliographic, chemical, 
# crystal, experimental, refinement or atomic coordinate data resulting 
# from the CCDC's data processing and validation procedures.
#
#######################################################################

data_NINVOY
_chemical_formula_moiety         'C27 H18 F6 N2 O5 S1'
_chemical_name_systematic        
1-((4-nitrophenyl)sulfonyl)-3,5-bis((4-(trifluoromethyl)phenyl)methylidene)piperidin-4-one
_symmetry_cell_setting           triclinic
_symmetry_space_group_name_H-M   'P -1'
_symmetry_Int_Tables_number      2
_space_group_name_Hall           '-P 1'
loop_
_symmetry_equiv_pos_site_id
_symmetry_equiv_pos_as_xyz
1 x,y,z
2 -x,-y,-z
_cell_length_a                   7.4346(7)
_cell_length_b                   11.6714(11)
_cell_length_c                   14.6479(15)
_cell_angle_alpha                90.825(5)
_cell_angle_beta                 96.884(5)
_cell_angle_gamma                98.971(5)
_cell_volume                     1245.72
_exptl_crystal_colour            yellow
_exptl_crystal_description       block
_cell_formula_units_Z            2
loop_
_atom_site_label
_atom_site_type_symbol
_atom_site_fract_x
_atom_site_fract_y
_atom_site_fract_z
C1 C 0.2697(3) 0.2808(2) 0.99958(18)
H1 H 0.3550 0.3436 1.0356
H2 H 0.3403 0.2411 0.9594
C2 C 0.1802(3) 0.1958(2) 1.06333(18)
C3 C -0.0101(3) 0.1329(2) 1.03293(18)
C4 C -0.0992(4) 0.1547(2) 0.93983(18)
C5 C 0.0042(4) 0.2409(2) 0.88225(18)
H3 H 0.0792 0.2012 0.8444
H4 H -0.0830 0.2778 0.8404
C6 C 0.2579(4) 0.1728(2) 1.14696(18)
H5 H 0.1800 0.1231 1.1815
C7 C 0.4435(3) 0.2119(2) 1.19402(18)
C8 C 0.4688(4) 0.2154(3) 1.29007(19)
H6 H 0.3655 0.1964 1.3225
C9 C 0.6414(4) 0.2460(3) 1.3389(2)
H7 H 0.6561 0.2499 1.4043
C10 C 0.7924(4) 0.2710(2) 1.29146(19)
C11 C 0.7714(4) 0.2664(2) 1.19627(19)
H8 H 0.8758 0.2830 1.1643
C12 C 0.5980(4) 0.2377(2) 1.14770(19)
H9 H 0.5839 0.2354 1.0823
C13 C 0.9797(4) 0.2955(3) 1.3438(2)
C14 C -0.2679(4) 0.0956(2) 0.91185(19)
H10 H -0.3218 0.0480 0.9566
C15 C -0.3797(4) 0.0941(2) 0.82299(19)
C16 C -0.5702(4) 0.0620(2) 0.8190(2)
H11 H -0.6225 0.0434 0.8741
C17 C -0.6826(4) 0.0571(2) 0.7373(2)
H12 H -0.8116 0.0367 0.7362
C18 C -0.6080(4) 0.0817(3) 0.6561(2)
C19 C -0.4201(4) 0.1100(3) 0.6575(2)
H13 H -0.3687 0.1257 0.6018
C20 C -0.3071(4) 0.1154(2) 0.7399(2)
H14 H -0.1780 0.1339 0.7402
C21 C -0.7317(5) 0.0732(3) 0.5674(3)
C22 C 0.2910(3) 0.4401(2) 0.80587(18)
C23 C 0.4795(4) 0.4413(2) 0.82156(19)
H15 H 0.5426 0.4528 0.8821
C24 C 0.5737(4) 0.4254(2) 0.7475(2)
H16 H 0.7028 0.4268 0.7562
C25 C 0.4765(4) 0.4076(2) 0.6611(2)
C26 C 0.2900(4) 0.4064(2) 0.6445(2)
H17 H 0.2278 0.3947 0.5838
C27 C 0.1952(4) 0.4224(2) 0.71799(19)
H18 H 0.0663 0.4214 0.7086
F1 F 1.1028(2) 0.35879(16) 1.29868(14)
F2 F 1.0477(2) 0.19669(19) 1.36152(16)
F3 F 0.9829(3) 0.3491(3) 1.42395(16)
F4 F -0.6494(4) 0.1212(3) 0.49823(18)
F5 F -0.8768(4) 0.1228(3) 0.5723(2)
F6 F -0.7900(3) -0.03590(19) 0.53857(15)
N1 N 0.1234(3) 0.32961(18) 0.94353(15)
N2 N 0.5775(4) 0.3884(2) 0.5824(2)
O1 O -0.0883(2) 0.06280(16) 1.08281(13)
O2 O 0.2915(2) 0.52922(15) 0.96959(12)
O3 O -0.0020(2) 0.48987(16) 0.86577(13)
O4 O 0.7417(3) 0.3840(2) 0.59848(18)
O5 O 0.4897(4) 0.3747(2) 0.50595(18)
S1 S 0.16976(9) 0.45813(6) 0.90097(5)
loop_
_geom_bond_atom_site_label_1
_geom_bond_atom_site_label_2
_geom_bond_site_symmetry_1
_geom_bond_site_symmetry_2
C1 H1 1_555 1_555
H2 C1 1_555 1_555
C2 C1 1_555 1_555
C3 C2 1_555 1_555
C4 C3 1_555 1_555
C5 C4 1_555 1_555
H3 C5 1_555 1_555
H4 C5 1_555 1_555
C6 C2 1_555 1_555
H5 C6 1_555 1_555
C7 C6 1_555 1_555
C8 C7 1_555 1_555
H6 C8 1_555 1_555
C9 C8 1_555 1_555
H7 C9 1_555 1_555
C10 C9 1_555 1_555
C11 C10 1_555 1_555
H8 C11 1_555 1_555
C12 C7 1_555 1_555
H9 C12 1_555 1_555
C13 C10 1_555 1_555
C14 C4 1_555 1_555
H10 C14 1_555 1_555
C15 C14 1_555 1_555
C16 C15 1_555 1_555
H11 C16 1_555 1_555
C17 C16 1_555 1_555
H12 C17 1_555 1_555
C18 C17 1_555 1_555
C19 C18 1_555 1_555
H13 C19 1_555 1_555
C20 C15 1_555 1_555
H14 C20 1_555 1_555
C21 C18 1_555 1_555
C22 C23 1_555 1_555
C23 H15 1_555 1_555
C24 C23 1_555 1_555
H16 C24 1_555 1_555
C25 C24 1_555 1_555
C26 C25 1_555 1_555
H17 C26 1_555 1_555
C27 C22 1_555 1_555
H18 C27 1_555 1_555
F1 C13 1_555 1_555
F2 C13 1_555 1_555
F3 C13 1_555 1_555
F4 C21 1_555 1_555
F5 C21 1_555 1_555
F6 C21 1_555 1_555
N1 C1 1_555 1_555
N2 C25 1_555 1_555
O1 C3 1_555 1_555
O2 S1 1_555 1_555
O3 S1 1_555 1_555
O4 N2 1_555 1_555
O5 N2 1_555 1_555
S1 C22 1_555 1_555
C5 N1 1_555 1_555
C11 C12 1_555 1_555
C19 C20 1_555 1_555
C26 C27 1_555 1_555
N1 S1 1_555 1_555

#END
