
#######################################################################
#
#                 Cambridge Crystallographic Data Centre
#                                CCDC 
#
#######################################################################
#
# If this CIF has been generated from an entry in the Cambridge 
# Structural Database, then it will include bibliographic, chemical, 
# crystal, experimental, refinement or atomic coordinate data resulting 
# from the CCDC's data processing and validation procedures.
#
#######################################################################

data_NINVEO
_chemical_formula_moiety         'C28 H21 F6 N1 O3 S1,C1 H2 Cl2'
_chemical_name_systematic        
'1-((4-methylphenyl)sulfonyl)-3,5-bis((4-(trifluoromethyl)phenyl)methylidene)piperidin-4-one dichloromethane solvate'
_symmetry_cell_setting           monoclinic
_symmetry_space_group_name_H-M   'P 21/n'
_symmetry_Int_Tables_number      14
_space_group_name_Hall           '-P 2yn'
loop_
_symmetry_equiv_pos_site_id
_symmetry_equiv_pos_as_xyz
1 x,y,z
2 1/2-x,1/2+y,1/2-z
3 -x,-y,-z
4 1/2+x,1/2-y,1/2+z
_cell_length_a                   8.6718(5)
_cell_length_b                   23.5083(12)
_cell_length_c                   14.3939(9)
_cell_angle_alpha                90
_cell_angle_beta                 102.962(2)
_cell_angle_gamma                90
_cell_volume                     2859.56
_exptl_crystal_colour            yellow
_exptl_crystal_description       block
_cell_formula_units_Z            4
loop_
_atom_site_label
_atom_site_type_symbol
_atom_site_fract_x
_atom_site_fract_y
_atom_site_fract_z
O1 O 0.6042(2) 0.09574(8) 0.02605(13)
C1 C 0.2119(3) 0.02787(10) 0.00437(17)
H1 H 0.2169 -0.0110 -0.0211
H2 H 0.1468 0.0265 0.0527
C2 C 0.3771(3) 0.04750(9) 0.05106(16)
C3 C 0.4690(3) 0.07967(10) -0.00795(17)
C4 C 0.3932(3) 0.09152(10) -0.11067(17)
C5 C 0.2261(3) 0.07064(10) -0.14871(17)
H3 H 0.1707 0.0971 -0.1986
H4 H 0.2296 0.0329 -0.1785
C6 C 0.4445(3) 0.04187(10) 0.14446(17)
H5 H 0.5488 0.0566 0.1639
C7 C 0.3796(3) 0.01625(10) 0.22028(17)
C8 C 0.4273(3) 0.03902(11) 0.31209(18)
H6 H 0.5014 0.0694 0.3232
C9 C 0.3683(3) 0.01808(11) 0.38682(18)
H7 H 0.3993 0.0348 0.4483
C10 C 0.2636(3) -0.02744(10) 0.37199(18)
C11 C 0.2186(3) -0.05167(10) 0.28188(17)
H8 H 0.1489 -0.0834 0.2720
C12 C 0.2746(3) -0.02990(10) 0.20634(17)
H9 H 0.2418 -0.0463 0.1448
C13 C 0.2037(3) -0.05211(11) 0.45243(19)
C14 C 0.4793(3) 0.12141(10) -0.16082(17)
H10 H 0.5802 0.1337 -0.1262
C15 C 0.4379(3) 0.13748(10) -0.26189(17)
C16 C 0.5050(3) 0.18706(12) -0.28977(19)
H11 H 0.5766 0.2086 -0.2434
C17 C 0.4692(4) 0.20519(12) -0.3833(2)
H12 H 0.5156 0.2389 -0.4010
C18 C 0.3644(3) 0.17365(11) -0.45169(18)
C19 C 0.3013(3) 0.12340(10) -0.42675(18)
H13 H 0.2331 0.1013 -0.4740
C20 C 0.3378(3) 0.10541(10) -0.33248(17)
H14 H 0.2943 0.0708 -0.3157
C21 C 0.3248(4) 0.19397(14) -0.5530(2)
C22 C 0.1810(3) 0.17179(9) 0.01432(16)
C23 C 0.2330(3) 0.16704(10) 0.11316(17)
H15 H 0.1926 0.1380 0.1470
C24 C 0.3443(3) 0.20520(10) 0.16107(17)
H16 H 0.3798 0.2022 0.2283
C25 C 0.4053(3) 0.24791(10) 0.11270(19)
C26 C 0.3515(3) 0.25165(10) 0.01411(19)
H17 H 0.3920 0.2807 -0.0197
C27 C 0.2402(3) 0.21396(10) -0.03562(17)
H18 H 0.2049 0.2169 -0.1029
C28 C 0.5273(4) 0.28894(13) 0.1653(2)
H19 H 0.5058 0.2972 0.2280
H20 H 0.5227 0.3243 0.1287
H21 H 0.6328 0.2721 0.1736
F1 F 0.2185(2) -0.01731(8) 0.52703(12)
F2 F 0.0510(2) -0.06637(10) 0.42708(13)
F3 F 0.2815(3) -0.09948(8) 0.48702(14)
F4 F 0.193(3) 0.1743(11) -0.6004(16)
F5 F 0.4359(17) 0.1789(8) -0.5972(8)
F6 F 0.3157(16) 0.2480(4) -0.5636(7)
N1 N 0.1363(2) 0.06618(8) -0.07383(13)
O2 O -0.0492(2) 0.10275(8) 0.01773(13)
O3 O -0.0339(2) 0.14734(7) -0.13659(13)
S1 S 0.04238(7) 0.12239(2) -0.04711(4)
C29 C 0.8703(3) 0.13523(12) 0.2147(2)
H22 H 0.8038 0.1310 0.1495
H23 H 0.9529 0.1639 0.2124
Cl1 Cl 0.96073(11) 0.06994(3) 0.25227(7)
Cl2 Cl 0.75207(10) 0.15934(4) 0.29150(6)
F7? F 0.255(4) 0.2452(7) -0.5575(10)
F8? F 0.226(3) 0.1614(10) -0.6123(15)
F9? F 0.4461(11) 0.1994(9) -0.5910(7)
loop_
_geom_bond_atom_site_label_1
_geom_bond_atom_site_label_2
_geom_bond_site_symmetry_1
_geom_bond_site_symmetry_2
O1 C3 1_555 1_555
C1 H1 1_555 1_555
H2 C1 1_555 1_555
C2 C1 1_555 1_555
C3 C2 1_555 1_555
C4 C3 1_555 1_555
C5 C4 1_555 1_555
H3 C5 1_555 1_555
H4 C5 1_555 1_555
C6 C2 1_555 1_555
H5 C6 1_555 1_555
C7 C6 1_555 1_555
C8 C7 1_555 1_555
H6 C8 1_555 1_555
C9 C8 1_555 1_555
H7 C9 1_555 1_555
C10 C9 1_555 1_555
C11 C10 1_555 1_555
H8 C11 1_555 1_555
C12 C7 1_555 1_555
H9 C12 1_555 1_555
C13 C10 1_555 1_555
C14 C4 1_555 1_555
H10 C14 1_555 1_555
C15 C14 1_555 1_555
C16 C15 1_555 1_555
H11 C16 1_555 1_555
C17 C16 1_555 1_555
H12 C17 1_555 1_555
C18 C17 1_555 1_555
C19 C18 1_555 1_555
H13 C19 1_555 1_555
C20 C15 1_555 1_555
H14 C20 1_555 1_555
C21 C18 1_555 1_555
C22 C23 1_555 1_555
C23 H15 1_555 1_555
C24 C23 1_555 1_555
H16 C24 1_555 1_555
C25 C24 1_555 1_555
C26 C25 1_555 1_555
H17 C26 1_555 1_555
C27 C22 1_555 1_555
H18 C27 1_555 1_555
C28 C25 1_555 1_555
H19 C28 1_555 1_555
H20 C28 1_555 1_555
H21 C28 1_555 1_555
F1 C13 1_555 1_555
F2 C13 1_555 1_555
F3 C13 1_555 1_555
F4 C21 1_555 1_555
F5 C21 1_555 1_555
F6 C21 1_555 1_555
N1 C1 1_555 1_555
O2 S1 1_555 1_555
O3 S1 1_555 1_555
S1 C22 1_555 1_555
C29 H22 1_555 1_555
H23 C29 1_555 1_555
Cl1 C29 1_555 1_555
Cl2 C29 1_555 1_555
C5 N1 1_555 1_555
C11 C12 1_555 1_555
C19 C20 1_555 1_555
C26 C27 1_555 1_555
N1 S1 1_555 1_555

#END
