
#######################################################################
#
#                 Cambridge Crystallographic Data Centre
#                                CCDC 
#
#######################################################################
#
# If this CIF has been generated from an entry in the Cambridge 
# Structural Database, then it will include bibliographic, chemical, 
# crystal, experimental, refinement or atomic coordinate data resulting 
# from the CCDC's data processing and validation procedures.
#
#######################################################################

data_NINYOB
_chemical_formula_moiety         'C21 H15 N3 O3'
_chemical_name_systematic        
2-(4-nitrophenyl)-3-(4-((pyridin-4-yl)methoxy)phenyl)prop-2-enenitrile
_symmetry_cell_setting           monoclinic
_symmetry_space_group_name_H-M   'P 21/c'
_symmetry_Int_Tables_number      14
_space_group_name_Hall           '-P 2ybc'
loop_
_symmetry_equiv_pos_site_id
_symmetry_equiv_pos_as_xyz
1 x,y,z
2 -x,1/2+y,1/2-z
3 -x,-y,-z
4 x,1/2-y,1/2+z
_cell_length_a                   10.1759(15)
_cell_length_b                   23.521(4)
_cell_length_c                   7.4038(11)
_cell_angle_alpha                90
_cell_angle_beta                 95.674(2)
_cell_angle_gamma                90
_cell_volume                     1763.4
_exptl_crystal_colour            yellow
_exptl_crystal_description       block
_cell_formula_units_Z            4
loop_
_atom_site_label
_atom_site_type_symbol
_atom_site_fract_x
_atom_site_fract_y
_atom_site_fract_z
O1 O -0.00447(10) 0.29351(4) 0.96989(17)
C1 C 0.42900(13) 0.49128(6) 0.78063(18)
C2 C 0.55184(13) 0.51786(6) 0.72667(18)
C3 C 0.29350(13) 0.40227(6) 0.83428(18)
C4 C 0.40641(13) 0.43488(6) 0.78435(18)
H1 H 0.4751 0.4128 0.7487
C5 C 0.07328(14) 0.38986(6) 0.9266(2)
H2 H -0.0051 0.4059 0.9573
C6 C 0.66288(14) 0.48595(6) 0.6962(2)
H3 H 0.6602 0.4466 0.7070
C7 C 0.33306(14) 0.53124(6) 0.8334(2)
C8 C 0.77981(15) 0.57002(7) 0.6351(2)
C9 C 0.17420(14) 0.42453(6) 0.8797(2)
H4 H 0.1622 0.4637 0.8785
C10 C 0.08860(14) 0.33152(6) 0.9280(2)
C11 C -0.21847(13) 0.26665(6) 1.03973(19)
C12 C 0.30583(15) 0.34322(6) 0.8376(2)
H5 H 0.3842 0.3270 0.8077
C13 C -0.18182(15) 0.21070(6) 1.0301(2)
H6 H -0.0952 0.2010 1.0136
C14 C -0.12520(14) 0.31518(6) 1.0222(2)
H7 H -0.1632 0.3419 0.9317
H8 H -0.1095 0.3350 1.1372
C15 C 0.67248(17) 0.60273(7) 0.6613(2)
H9 H 0.6758 0.6420 0.6486
C16 C 0.20650(16) 0.30814(6) 0.8833(3)
H10 H 0.2181 0.2689 0.8843
C17 C 0.77684(15) 0.51182(7) 0.6501(2)
H11 H 0.8504 0.4902 0.6296
C18 C 0.55913(15) 0.57655(6) 0.7070(2)
H12 H 0.4858 0.5987 0.7251
N1 N 0.90163(15) 0.59837(8) 0.5910(2)
N2 N 0.26154(15) 0.56478(6) 0.8779(2)
N3 N -0.40049(15) 0.17881(7) 1.0732(2)
C19 C -0.34893(15) 0.27792(7) 1.0658(2)
H13 H -0.3785 0.3152 1.0724
O2 O 0.99589(15) 0.56935(8) 0.5654(3)
C20 C -0.43400(16) 0.23323(8) 1.0816(2)
H14 H -0.5211 0.2417 1.0994
O3 O 0.90200(15) 0.65022(7) 0.5838(2)
C21 C -0.27535(18) 0.16909(7) 1.0453(3)
H15 H -0.2491 0.1314 1.0354
loop_
_geom_bond_atom_site_label_1
_geom_bond_atom_site_label_2
_geom_bond_site_symmetry_1
_geom_bond_site_symmetry_2
O1 C10 1_555 1_555
C1 C2 1_555 1_555
C2 C6 1_555 1_555
C3 C4 1_555 1_555
C4 C1 1_555 1_555
H1 C4 1_555 1_555
C5 H2 1_555 1_555
C6 H3 1_555 1_555
C7 C1 1_555 1_555
C8 C15 1_555 1_555
C9 C3 1_555 1_555
H4 C9 1_555 1_555
C10 C5 1_555 1_555
C11 C13 1_555 1_555
C12 C3 1_555 1_555
H5 C12 1_555 1_555
C13 H6 1_555 1_555
C14 O1 1_555 1_555
H7 C14 1_555 1_555
H8 C14 1_555 1_555
C15 H9 1_555 1_555
C16 C10 1_555 1_555
H10 C16 1_555 1_555
C17 C6 1_555 1_555
H11 C17 1_555 1_555
C18 C2 1_555 1_555
H12 C18 1_555 1_555
N1 C8 1_555 1_555
N2 C7 1_555 1_555
N3 C20 1_555 1_555
C19 C11 1_555 1_555
H13 C19 1_555 1_555
O2 N1 1_555 1_555
C20 C19 1_555 1_555
H14 C20 1_555 1_555
O3 N1 1_555 1_555
C21 C13 1_555 1_555
H15 C21 1_555 1_555
C5 C9 1_555 1_555
C8 C17 1_555 1_555
C11 C14 1_555 1_555
C12 C16 1_555 1_555
C15 C18 1_555 1_555
N3 C21 1_555 1_555

#END
