
#######################################################################
#
#                 Cambridge Crystallographic Data Centre
#                                CCDC 
#
#######################################################################
#
# If this CIF has been generated from an entry in the Cambridge 
# Structural Database, then it will include bibliographic, chemical, 
# crystal, experimental, refinement or atomic coordinate data resulting 
# from the CCDC's data processing and validation procedures.
#
#######################################################################

data_NINZOC
_chemical_formula_moiety         'C19 H32 N2 O1,2(H2 O1)'
_chemical_name_systematic        
'(5\a,17E)-17-hydrazonoandrostan-3-ol dihydrate'
_symmetry_cell_setting           monoclinic
_symmetry_space_group_name_H-M   'P 21'
_symmetry_Int_Tables_number      4
_space_group_name_Hall           'P 2yb'
loop_
_symmetry_equiv_pos_site_id
_symmetry_equiv_pos_as_xyz
1 x,y,z
2 -x,1/2+y,-z
_cell_length_a                   7.2600(2)
_cell_length_b                   9.9010(2)
_cell_length_c                   26.7004(6)
_cell_angle_alpha                90
_cell_angle_beta                 94.024(2)
_cell_angle_gamma                90
_cell_volume                     1914.53
_exptl_crystal_colour            colorless
_exptl_crystal_description       plate
_chemical_melting_point          '195-199 deg.C'
_cell_formula_units_Z            4
_exptl_crystal_recrystallization_method methanol/water
loop_
_atom_site_label
_atom_site_type_symbol
_atom_site_fract_x
_atom_site_fract_y
_atom_site_fract_z
O1 O 0.4740(3) 0.1305(2) 0.28761(7)
H1 H 0.370(4) 0.120(3) 0.2984(10)
H2 H 0.491(6) 0.218(5) 0.2876(15)
O2 O 0.0248(3) 0.8782(2) 0.20008(7)
H3 H 0.133(5) 0.884(4) 0.1878(11)
H4 H 0.018(4) 0.949(4) 0.2202(11)
O3 O 0.0545(3) 0.6387(3) 0.25763(8)
H5 H 0.009(6) 0.571(5) 0.2479(15)
H6 H 0.021(5) 0.706(4) 0.2364(13)
O4 O 0.4296(4) 0.6256(3) 0.24938(10)
H7 H 0.463(6) 0.708(5) 0.2454(15)
H8 H 0.315(6) 0.631(4) 0.2524(13)
O5 O 0.6045(2) 0.41414(19) 0.28843(5)
H9 H 0.545(5) 0.481(4) 0.2744(12)
N1 N 0.9066(3) 0.5492(2) 0.68865(6)
N2 N 1.0308(3) 0.5909(2) 0.72935(7)
H10 H 1.151(5) 0.594(3) 0.7196(11)
H11 H 1.004(4) 0.673(4) 0.7374(11)
C1 C 0.5528(3) 0.4798(2) 0.42683(7)
H12 H 0.4442 0.4689 0.4469
H13 H 0.5935 0.5751 0.4298
C2 C 0.4953(3) 0.4489(3) 0.37158(7)
H14 H 0.4419 0.3570 0.3689
H15 H 0.3989 0.5138 0.3592
C3 C 0.6587(3) 0.4581(2) 0.33897(7)
H16 H 0.7002 0.5543 0.3379
C4 C 0.8198(3) 0.3715(3) 0.35935(7)
H17 H 0.9272 0.3875 0.3393
H18 H 0.7857 0.2749 0.3561
C5 C 0.8737(3) 0.4036(2) 0.41465(7)
H19 H 0.9097 0.5011 0.4161
C6 C 1.0435(3) 0.3236(2) 0.43420(8)
H20 H 1.0146 0.2259 0.4328
H21 H 1.1456 0.3405 0.4123
C7 C 1.1054(3) 0.3625(2) 0.48804(7)
H22 H 1.1530 0.4563 0.4884
H23 H 1.2079 0.3025 0.5004
C8 C 0.9497(3) 0.3526(2) 0.52358(7)
H24 H 0.9145 0.2556 0.5270
C9 C 0.7778(3) 0.4333(2) 0.50260(7)
H25 H 0.8188 0.5292 0.4996
C10 C 0.7097(3) 0.3875(2) 0.44863(7)
C11 C 0.6257(3) 0.4336(2) 0.54008(7)
H26 H 0.5798 0.3403 0.5439
H27 H 0.5210 0.4897 0.5263
C12 C 0.6946(3) 0.4889(2) 0.59225(7)
H28 H 0.7305 0.5848 0.5892
H29 H 0.5941 0.4835 0.6154
C13 C 0.8595(3) 0.4071(2) 0.61333(7)
C14 C 1.0114(3) 0.4081(2) 0.57540(7)
H30 H 1.0423 0.5052 0.5702
C15 C 1.1793(3) 0.3470(3) 0.60541(8)
H31 H 1.2958 0.3712 0.5904
H32 H 1.1696 0.2474 0.6074
C16 C 1.1685(3) 0.4129(3) 0.65789(8)
H33 H 1.1949 0.3456 0.6849
H34 H 1.2579 0.4881 0.6625
C17 C 0.9721(3) 0.4644(2) 0.65837(7)
C18 C 0.7993(3) 0.2630(2) 0.62720(8)
H35 H 0.9028 0.2163 0.6453
H36 H 0.7615 0.2130 0.5965
H37 H 0.6953 0.2683 0.6486
C19 C 0.6396(3) 0.2407(2) 0.44929(8)
H38 H 0.6197 0.2074 0.4148
H39 H 0.5229 0.2374 0.4656
H40 H 0.7314 0.1839 0.4679
O6 O 0.9006(2) 0.37428(19) 0.23295(5)
N3 N 0.5961(3) 0.3784(2) -0.17198(6)
H41 H 0.807(4) 0.386(3) 0.2481(10)
N4 N 0.4726(3) 0.3983(2) -0.21497(7)
H42 H 0.354(4) 0.414(3) -0.2082(9)
H43 H 0.501(4) 0.473(4) -0.2309(11)
C20 C 0.9590(3) 0.3647(2) 0.09446(7)
H44 H 1.0695 0.3445 0.0761
H45 H 0.9215 0.4589 0.0865
C21 C 1.0106(3) 0.3538(2) 0.15115(7)
H46 H 1.0612 0.2628 0.1590
H47 H 1.1072 0.4211 0.1611
C22 C 0.8423(3) 0.3782(2) 0.18050(7)
H48 H 0.7935 0.4706 0.1722
C23 C 0.6926(3) 0.2758(3) 0.16555(7)
H49 H 0.5838 0.2917 0.1851
H50 H 0.7389 0.1834 0.1730
C24 C 0.6368(3) 0.2888(2) 0.10924(7)
H51 H 0.5954 0.3844 0.1039
C25 C 0.4707(3) 0.2007(3) 0.09216(8)
H52 H 0.5053 0.1042 0.0953
H53 H 0.3685 0.2178 0.1140
C26 C 0.4062(3) 0.2318(3) 0.03772(7)
H54 H 0.3521 0.3236 0.0360
H55 H 0.3078 0.1671 0.0265
C27 C 0.5612(3) 0.2239(2) 0.00171(7)
H56 H 0.6005 0.1275 -0.0012
C28 C 0.7300(3) 0.3092(2) 0.02132(7)
H57 H 0.6841 0.4041 0.0237
C29 C 0.8013(3) 0.2688(2) 0.07562(7)
C30 C 0.8802(3) 0.3128(2) -0.01690(7)
H58 H 0.9343 0.2215 -0.0194
H59 H 0.9800 0.3749 -0.0044
C31 C 0.8058(3) 0.3592(2) -0.06980(7)
H60 H 0.7652 0.4545 -0.0684
H61 H 0.9054 0.3535 -0.0932
C32 C 0.6444(3) 0.2712(2) -0.08897(7)
C33 C 0.4951(3) 0.2758(2) -0.05027(7)
H62 H 0.4642 0.3733 -0.0459
C34 C 0.3258(3) 0.2116(2) -0.07841(7)
H63 H 0.2106 0.2375 -0.0631
H64 H 0.3358 0.1119 -0.0788
C35 C 0.3316(3) 0.2707(3) -0.13184(8)
H65 H 0.2972 0.2013 -0.1575
H66 H 0.2458 0.3481 -0.1366
C36 C 0.5297(3) 0.3161(2) -0.13559(7)
C37 C 0.7110(3) 0.1268(2) -0.09992(8)
H67 H 0.6083 0.0744 -0.1158
H68 H 0.7556 0.0833 -0.0684
H69 H 0.8115 0.1311 -0.1225
C38 C 0.8736(3) 0.1227(2) 0.07756(7)
H70 H 0.9813 0.1155 0.0576
H71 H 0.7765 0.0616 0.0639
H72 H 0.9089 0.0979 0.1125
loop_
_geom_bond_atom_site_label_1
_geom_bond_atom_site_label_2
_geom_bond_site_symmetry_1
_geom_bond_site_symmetry_2
O1 H1 1_555 1_555
H2 O1 1_555 1_555
O2 H3 1_555 1_555
H4 O2 1_555 1_555
O3 H5 1_555 1_555
H6 O3 1_555 1_555
O4 H7 1_555 1_555
H8 O4 1_555 1_555
O5 H9 1_555 1_555
N1 N2 1_555 1_555
N2 H10 1_555 1_555
H11 N2 1_555 1_555
C1 H12 1_555 1_555
H13 C1 1_555 1_555
C2 C1 1_555 1_555
H14 C2 1_555 1_555
H15 C2 1_555 1_555
C3 O5 1_555 1_555
H16 C3 1_555 1_555
C4 C3 1_555 1_555
H17 C4 1_555 1_555
H18 C4 1_555 1_555
C5 C4 1_555 1_555
H19 C5 1_555 1_555
C6 C5 1_555 1_555
H20 C6 1_555 1_555
H21 C6 1_555 1_555
C7 C6 1_555 1_555
H22 C7 1_555 1_555
H23 C7 1_555 1_555
C8 C7 1_555 1_555
H24 C8 1_555 1_555
C9 C8 1_555 1_555
H25 C9 1_555 1_555
C10 C1 1_555 1_555
C11 C9 1_555 1_555
H26 C11 1_555 1_555
H27 C11 1_555 1_555
C12 C11 1_555 1_555
H28 C12 1_555 1_555
H29 C12 1_555 1_555
C13 C12 1_555 1_555
C14 C8 1_555 1_555
H30 C14 1_555 1_555
C15 C14 1_555 1_555
H31 C15 1_555 1_555
H32 C15 1_555 1_555
C16 C15 1_555 1_555
H33 C16 1_555 1_555
H34 C16 1_555 1_555
C17 N1 1_555 1_555
C18 C13 1_555 1_555
H35 C18 1_555 1_555
H36 C18 1_555 1_555
H37 C18 1_555 1_555
C19 C10 1_555 1_555
H38 C19 1_555 1_555
H39 C19 1_555 1_555
H40 C19 1_555 1_555
O6 H41 1_555 1_555
N3 N4 1_555 1_555
N4 H42 1_555 1_555
H43 N4 1_555 1_555
C20 H44 1_555 1_555
H45 C20 1_555 1_555
C21 C20 1_555 1_555
H46 C21 1_555 1_555
H47 C21 1_555 1_555
C22 O6 1_555 1_555
H48 C22 1_555 1_555
C23 C22 1_555 1_555
H49 C23 1_555 1_555
H50 C23 1_555 1_555
C24 C23 1_555 1_555
H51 C24 1_555 1_555
C25 C24 1_555 1_555
H52 C25 1_555 1_555
H53 C25 1_555 1_555
C26 C25 1_555 1_555
H54 C26 1_555 1_555
H55 C26 1_555 1_555
C27 C26 1_555 1_555
H56 C27 1_555 1_555
C28 C27 1_555 1_555
H57 C28 1_555 1_555
C29 C20 1_555 1_555
C30 C28 1_555 1_555
H58 C30 1_555 1_555
H59 C30 1_555 1_555
C31 C30 1_555 1_555
H60 C31 1_555 1_555
H61 C31 1_555 1_555
C32 C31 1_555 1_555
C33 C27 1_555 1_555
H62 C33 1_555 1_555
C34 C33 1_555 1_555
H63 C34 1_555 1_555
H64 C34 1_555 1_555
C35 C34 1_555 1_555
H65 C35 1_555 1_555
H66 C35 1_555 1_555
C36 N3 1_555 1_555
C37 C32 1_555 1_555
H67 C37 1_555 1_555
H68 C37 1_555 1_555
H69 C37 1_555 1_555
C38 C29 1_555 1_555
H70 C38 1_555 1_555
H71 C38 1_555 1_555
H72 C38 1_555 1_555
C2 C3 1_555 1_555
C5 C10 1_555 1_555
C9 C10 1_555 1_555
C13 C14 1_555 1_555
C13 C17 1_555 1_555
C16 C17 1_555 1_555
C21 C22 1_555 1_555
C24 C29 1_555 1_555
C28 C29 1_555 1_555
C32 C33 1_555 1_555
C32 C36 1_555 1_555
C35 C36 1_555 1_555

#END
