
#######################################################################
#
#                 Cambridge Crystallographic Data Centre
#                                CCDC 
#
#######################################################################
#
# If this CIF has been generated from an entry in the Cambridge 
# Structural Database, then it will include bibliographic, chemical, 
# crystal, experimental, refinement or atomic coordinate data resulting 
# from the CCDC's data processing and validation procedures.
#
#######################################################################

data_NINZIW
_chemical_formula_moiety         'C19 H32 N2 O1,3(H2 O1)'
_chemical_name_systematic        
'(5\a,17E)-17-hydrazonoandrostan-3-ol trihydrate'
_symmetry_cell_setting           orthorhombic
_symmetry_space_group_name_H-M   'P 21 21 21'
_symmetry_Int_Tables_number      19
_space_group_name_Hall           'P 2ac 2ab'
loop_
_symmetry_equiv_pos_site_id
_symmetry_equiv_pos_as_xyz
1 x,y,z
2 1/2-x,-y,1/2+z
3 -x,1/2+y,1/2-z
4 1/2+x,1/2-y,-z
_cell_length_a                   5.9299(2)
_cell_length_b                   12.3916(4)
_cell_length_c                   28.1777(9)
_cell_angle_alpha                90
_cell_angle_beta                 90
_cell_angle_gamma                90
_cell_volume                     2070.52
_exptl_crystal_colour            colorless
_exptl_crystal_description       block
_chemical_melting_point          '187-192 deg.C'
_cell_formula_units_Z            4
_exptl_crystal_recrystallization_method 'moist methanol'
loop_
_atom_site_label
_atom_site_type_symbol
_atom_site_fract_x
_atom_site_fract_y
_atom_site_fract_z
O1 O 0.8097(3) 0.05565(15) 0.07067(5)
H1 H 0.770(6) -0.003(3) 0.0637(9)
N1 N 1.2085(3) 0.14452(15) 0.44816(6)
N2 N 1.2589(5) 0.1006(2) 0.49325(7)
H2 H 1.393(7) 0.130(2) 0.5030(11)
H3 H 1.256(6) 0.029(3) 0.4937(10)
C1 C 0.8826(4) 0.04685(17) 0.11925(7)
H4 H 1.0025 -0.0097 0.1212
C2 C 0.8581(3) 0.12006(15) 0.22065(7)
C3 C 0.9503(3) 0.10286(16) 0.27197(7)
H5 H 1.0738 0.0483 0.2692
C4 C 0.7732(4) 0.05350(16) 0.30607(7)
H6 H 0.6491 0.1071 0.3107
C5 C 0.7626(4) 0.01020(17) 0.20318(7)
H7 H 0.8907 -0.0422 0.2046
C6 C 1.0517(4) 0.15032(18) 0.18668(7)
H8 H 1.1110 0.2221 0.1958
H9 H 1.1753 0.0974 0.1905
C7 C 0.6875(4) 0.01394(17) 0.15115(7)
H10 H 0.6314 -0.0580 0.1415
H11 H 0.5625 0.0663 0.1476
C8 C 0.9773(4) 0.13868(17) 0.37646(7)
C9 C 0.8879(4) 0.03426(17) 0.35361(7)
H12 H 1.0242 -0.0104 0.3465
C10 C 1.0597(4) 0.09546(18) 0.42385(8)
C11 C 0.6794(4) 0.20915(17) 0.21991(8)
H13 H 0.6044 0.2099 0.1889
H14 H 0.7516 0.2791 0.2255
H15 H 0.5677 0.1954 0.2448
C12 C 1.1562(4) 0.18668(19) 0.34361(7)
H16 H 1.2871 0.1373 0.3418
H17 H 1.2090 0.2564 0.3566
C13 C 0.6720(4) -0.05008(17) 0.28587(7)
H18 H 0.7891 -0.1070 0.2854
H19 H 0.5483 -0.0748 0.3068
C14 C 0.5809(4) -0.03429(18) 0.23590(8)
H20 H 0.4518 0.0163 0.2368
H21 H 0.5262 -0.1042 0.2234
C15 C 1.0587(4) 0.20422(18) 0.29366(7)
H22 H 1.1811 0.2292 0.2724
H23 H 0.9439 0.2621 0.2952
C16 C 0.9821(4) 0.15349(18) 0.13432(8)
H24 H 0.8697 0.2115 0.1294
H25 H 1.1155 0.1699 0.1145
C17 C 0.9326(5) -0.0071(2) 0.43577(8)
H26 H 0.8504 0.0008 0.4662
H27 H 1.0375 -0.0690 0.4384
C18 C 0.7664(5) -0.02378(19) 0.39431(8)
H28 H 0.7448 -0.1013 0.3872
H29 H 0.6182 0.0096 0.4011
C19 C 0.7910(5) 0.22176(19) 0.38743(9)
H30 H 0.7232 0.2467 0.3577
H31 H 0.8565 0.2833 0.4043
H32 H 0.6748 0.1881 0.4072
O2 O 1.0216(4) -0.22025(19) 0.55913(8)
H33 H 0.918(7) -0.170(3) 0.5637(11)
H34 H 0.962(6) -0.264(3) 0.5360(12)
O3 O 0.6676(5) -0.13807(17) 0.04106(8)
H35 H 0.703(8) -0.206(3) 0.0474(13)
H36 H 0.533(7) -0.133(3) 0.0313(13)
O4 O 1.3657(4) -0.13354(17) 0.50709(7)
H37 H 1.459(7) -0.110(3) 0.5264(14)
H38 H 1.238(7) -0.162(3) 0.5267(14)
loop_
_geom_bond_atom_site_label_1
_geom_bond_atom_site_label_2
_geom_bond_site_symmetry_1
_geom_bond_site_symmetry_2
O1 H1 1_555 1_555
N1 N2 1_555 1_555
N2 H2 1_555 1_555
H3 N2 1_555 1_555
C1 O1 1_555 1_555
H4 C1 1_555 1_555
C2 C3 1_555 1_555
C3 H5 1_555 1_555
C4 C3 1_555 1_555
H6 C4 1_555 1_555
C5 C2 1_555 1_555
H7 C5 1_555 1_555
C6 C2 1_555 1_555
H8 C6 1_555 1_555
H9 C6 1_555 1_555
C7 C1 1_555 1_555
H10 C7 1_555 1_555
H11 C7 1_555 1_555
C8 C9 1_555 1_555
C9 C4 1_555 1_555
H12 C9 1_555 1_555
C10 N1 1_555 1_555
C11 C2 1_555 1_555
H13 C11 1_555 1_555
H14 C11 1_555 1_555
H15 C11 1_555 1_555
C12 C8 1_555 1_555
H16 C12 1_555 1_555
H17 C12 1_555 1_555
C13 C4 1_555 1_555
H18 C13 1_555 1_555
H19 C13 1_555 1_555
C14 C5 1_555 1_555
H20 C14 1_555 1_555
H21 C14 1_555 1_555
C15 C3 1_555 1_555
H22 C15 1_555 1_555
H23 C15 1_555 1_555
C16 C1 1_555 1_555
H24 C16 1_555 1_555
H25 C16 1_555 1_555
C17 C10 1_555 1_555
H26 C17 1_555 1_555
H27 C17 1_555 1_555
C18 C9 1_555 1_555
H28 C18 1_555 1_555
H29 C18 1_555 1_555
C19 C8 1_555 1_555
H30 C19 1_555 1_555
H31 C19 1_555 1_555
H32 C19 1_555 1_555
O2 H33 1_555 1_555
H34 O2 1_555 1_555
O3 H35 1_555 1_555
H36 O3 1_555 1_555
O4 H37 1_555 1_555
H38 O4 1_555 1_555
C5 C7 1_555 1_555
C6 C16 1_555 1_555
C8 C10 1_555 1_555
C12 C15 1_555 1_555
C13 C14 1_555 1_555
C17 C18 1_555 1_555

#END
