
#######################################################################
#
#                 Cambridge Crystallographic Data Centre
#                                CCDC 
#
#######################################################################
#
# If this CIF has been generated from an entry in the Cambridge 
# Structural Database, then it will include bibliographic, chemical, 
# crystal, experimental, refinement or atomic coordinate data resulting 
# from the CCDC's data processing and validation procedures.
#
#######################################################################

data_NIPDOH
_chemical_name_common            Fluazinam
_chemical_formula_moiety         'C13 H4 Cl2 F6 N4 O4'
_chemical_name_systematic        
3-Chloro-N-(3-chloro-2,6-dinitro-4-(trifluoromethyl)phenyl)-5-(trifluoromethyl)pyridin-2-amine
_chemical_properties_biological  'Fungicidal properties'
_symmetry_cell_setting           triclinic
_symmetry_space_group_name_H-M   'P -1'
_symmetry_Int_Tables_number      2
_space_group_name_Hall           '-P 1'
loop_
_symmetry_equiv_pos_site_id
_symmetry_equiv_pos_as_xyz
1 x,y,z
2 -x,-y,-z
_cell_length_a                   8.95460(10)
_cell_length_b                   9.07240(10)
_cell_length_c                   10.6818(2)
_cell_angle_alpha                79.5560(10)
_cell_angle_beta                 75.4200(10)
_cell_angle_gamma                83.4510(10)
_cell_volume                     823.79
_exptl_crystal_colour            yellow
_exptl_crystal_description       block
_cell_formula_units_Z            2
_exptl_crystal_recrystallization_method dichloromethane
loop_
_atom_site_label
_atom_site_type_symbol
_atom_site_fract_x
_atom_site_fract_y
_atom_site_fract_z
Cl1 Cl 0.83432(5) 0.72367(4) 0.34806(4)
Cl2 Cl 0.43809(5) 0.32745(5) 0.99480(4)
F1 F 1.06852(11) 0.34123(11) 0.15585(9)
F2 F 0.90981(11) 0.53398(12) 0.12664(9)
F3 F 1.11164(11) 0.55470(11) 0.19484(10)
F4 F 0.25749(13) -0.25110(12) 0.84106(12)
F5 F 0.07528(12) -0.07681(13) 0.86228(14)
F6 F 0.17049(16) -0.17401(14) 1.02625(11)
N1 N 0.63148(15) 0.61200(13) 0.60382(12)
N2 N 0.82927(13) 0.07922(13) 0.58834(12)
N3 N 0.62868(14) 0.31709(14) 0.72658(11)
H1 H 0.6329 0.3764 0.7821
N4 N 0.52522(14) 0.10739(14) 0.69279(12)
O1 O 0.51649(16) 0.65800(18) 0.56501(17)
O2 O 0.6693(2) 0.65407(19) 0.68990(16)
O3 O 0.83309(13) -0.01445(12) 0.51781(11)
O4 O 0.84483(13) 0.05111(13) 0.70083(11)
C1 C 1.00024(17) 0.46373(17) 0.20469(14)
C2 C 0.90782(15) 0.42479(15) 0.34387(13)
C3 C 0.82543(16) 0.53636(15) 0.41309(13)
C4 C 0.73336(15) 0.49449(15) 0.53729(13)
C5 C 0.72421(15) 0.34551(15) 0.60148(13)
C6 C 0.81363(15) 0.23826(15) 0.53006(13)
C7 C 0.90021(16) 0.27574(15) 0.40317(13)
H2 H 0.9548 0.1987 0.3564
C8 C 0.52749(15) 0.20410(15) 0.77180(13)
C9 C 0.42873(16) 0.19730(16) 0.89770(14)
C10 C 0.32506(17) 0.08814(17) 0.94103(14)
H3 H 0.2564 0.0818 1.0253
C11 C 0.32343(17) -0.01298(16) 0.85797(15)
C12 C 0.42492(17) 0.00019(16) 0.73578(15)
H4 H 0.4234 -0.0698 0.6800
C13 C 0.20746(19) -0.12907(18) 0.89734(17)
loop_
_geom_bond_atom_site_label_1
_geom_bond_atom_site_label_2
_geom_bond_site_symmetry_1
_geom_bond_site_symmetry_2
Cl1 C3 1_555 1_555
Cl2 C9 1_555 1_555
F1 C1 1_555 1_555
F2 C1 1_555 1_555
F3 C1 1_555 1_555
F4 C13 1_555 1_555
F5 C13 1_555 1_555
F6 C13 1_555 1_555
N1 O1 1_555 1_555
N2 O3 1_555 1_555
N3 H1 1_555 1_555
N4 C8 1_555 1_555
O2 N1 1_555 1_555
O4 N2 1_555 1_555
C1 C2 1_555 1_555
C2 C3 1_555 1_555
C3 C4 1_555 1_555
C4 N1 1_555 1_555
C5 N3 1_555 1_555
C6 N2 1_555 1_555
C7 C2 1_555 1_555
H2 C7 1_555 1_555
C8 N3 1_555 1_555
C9 C8 1_555 1_555
C10 C9 1_555 1_555
H3 C10 1_555 1_555
C11 C10 1_555 1_555
C12 N4 1_555 1_555
H4 C12 1_555 1_555
C13 C11 1_555 1_555
C4 C5 1_555 1_555
C5 C6 1_555 1_555
C6 C7 1_555 1_555
C11 C12 1_555 1_555

#END
