
#######################################################################
#
#                 Cambridge Crystallographic Data Centre
#                                CCDC 
#
#######################################################################
#
# If this CIF has been generated from an entry in the Cambridge 
# Structural Database, then it will include bibliographic, chemical, 
# crystal, experimental, refinement or atomic coordinate data resulting 
# from the CCDC's data processing and validation procedures.
#
#######################################################################

data_NIPGIF
_chemical_formula_moiety         'C20 H18 Br1 Cl1 N2 O2 S1'
_chemical_name_systematic        
'ethyl 2-[(2-bromo-5-chlorophenyl)amino]-4-methyl-5-(6-methylpyridin-2-yl)thiophene-3-carboxylate'
_symmetry_cell_setting           monoclinic
_symmetry_space_group_name_H-M   'P 21/c'
_symmetry_Int_Tables_number      14
_space_group_name_Hall           '-P 2ybc'
loop_
_symmetry_equiv_pos_site_id
_symmetry_equiv_pos_as_xyz
1 x,y,z
2 -x,1/2+y,1/2-z
3 -x,-y,-z
4 x,1/2-y,1/2+z
_cell_length_a                   7.7040(2)
_cell_length_b                   40.1958(9)
_cell_length_c                   6.8191(2)
_cell_angle_alpha                90
_cell_angle_beta                 111.536(2)
_cell_angle_gamma                90
_cell_volume                     1964.24
_exptl_crystal_colour            silver
_exptl_crystal_description       block
_cell_formula_units_Z            4
loop_
_atom_site_label
_atom_site_type_symbol
_atom_site_fract_x
_atom_site_fract_y
_atom_site_fract_z
Br1 Br 0.28611(7) 0.224687(10) 0.87347(7)
Cl1 Cl 0.70531(18) 0.08982(3) 1.25874(19)
S1 S 0.30237(15) 0.09687(2) 0.48925(15)
O1 O 0.0613(5) 0.20144(7) 0.3449(5)
O2 O -0.0665(4) 0.18365(6) 0.0141(4)
N1 N 0.2781(5) 0.15975(8) 0.6372(5)
H1 H 0.2313 0.1793 0.6031
N2 N 0.2296(5) 0.03215(8) 0.2787(6)
C1 C 0.4048(6) 0.18384(9) 0.9817(6)
C2 C 0.5091(6) 0.18217(10) 1.1939(6)
H2 H 0.5162 0.2006 1.2792
C3 C 0.6036(6) 0.15324(11) 1.2816(7)
H3 H 0.6755 0.1521 1.4248
C4 C 0.5891(6) 0.12641(10) 1.1538(6)
C5 C 0.4834(6) 0.12747(10) 0.9397(6)
H4 H 0.4762 0.1088 0.8563
C6 C 0.3878(5) 0.15649(9) 0.8492(6)
C7 C 0.2298(5) 0.13784(9) 0.4711(6)
C8 C 0.1144(5) 0.14557(9) 0.2657(6)
C9 C 0.0877(5) 0.11799(9) 0.1239(6)
C10 C 0.1836(6) 0.09050(9) 0.2210(6)
C11 C 0.0372(6) 0.17915(9) 0.2172(6)
C12 C -0.1550(6) 0.21572(10) -0.0431(7)
H5 H -0.0620 0.2331 -0.0163
H6 H -0.2331 0.2204 0.0374
C13 C -0.2713(7) 0.21366(12) -0.2751(8)
H7 H -0.3345 0.2344 -0.3217
H8 H -0.3616 0.1962 -0.2991
H9 H -0.1920 0.2091 -0.3524
C14 C -0.0409(6) 0.11840(10) -0.1052(6)
H10 H -0.0359 0.0972 -0.1681
H11 H -0.0022 0.1355 -0.1783
H12 H -0.1664 0.1227 -0.1147
C15 C 0.2045(6) 0.05712(10) 0.1422(7)
C16 C 0.2088(7) 0.05233(12) -0.0577(8)
H13 H 0.1960 0.0702 -0.1486
C17 C 0.2323(8) 0.02084(16) -0.1174(9)
H14 H 0.2338 0.0168 -0.2511
C18 C 0.2539(8) -0.00502(14) 0.0223(11)
H15 H 0.2684 -0.0267 -0.0170
C19 C 0.2539(6) 0.00146(11) 0.2193(9)
C20 C 0.2803(8) -0.02594(12) 0.3774(10)
H16 H 0.2762 -0.0168 0.5057
H17 H 0.3990 -0.0364 0.4056
H18 H 0.1826 -0.0421 0.3220
loop_
_geom_bond_atom_site_label_1
_geom_bond_atom_site_label_2
_geom_bond_site_symmetry_1
_geom_bond_site_symmetry_2
Br1 C1 1_555 1_555
Cl1 C4 1_555 1_555
S1 C7 1_555 1_555
O1 C11 1_555 1_555
O2 C11 1_555 1_555
N1 H1 1_555 1_555
N2 C15 1_555 1_555
C1 C2 1_555 1_555
C2 H2 1_555 1_555
C3 C2 1_555 1_555
H3 C3 1_555 1_555
C4 C3 1_555 1_555
C5 C4 1_555 1_555
H4 C5 1_555 1_555
C6 N1 1_555 1_555
C7 N1 1_555 1_555
C8 C7 1_555 1_555
C9 C8 1_555 1_555
C10 S1 1_555 1_555
C11 C8 1_555 1_555
C12 O2 1_555 1_555
H5 C12 1_555 1_555
H6 C12 1_555 1_555
C13 C12 1_555 1_555
H7 C13 1_555 1_555
H8 C13 1_555 1_555
H9 C13 1_555 1_555
C14 C9 1_555 1_555
H10 C14 1_555 1_555
H11 C14 1_555 1_555
H12 C14 1_555 1_555
C15 C10 1_555 1_555
C16 C15 1_555 1_555
H13 C16 1_555 1_555
C17 C16 1_555 1_555
H14 C17 1_555 1_555
C18 C17 1_555 1_555
H15 C18 1_555 1_555
C19 N2 1_555 1_555
C20 C19 1_555 1_555
H16 C20 1_555 1_555
H17 C20 1_555 1_555
H18 C20 1_555 1_555
C1 C6 1_555 1_555
C5 C6 1_555 1_555
C9 C10 1_555 1_555
C18 C19 1_555 1_555

#END
