
#######################################################################
#
#                 Cambridge Crystallographic Data Centre
#                                CCDC 
#
#######################################################################
#
# If this CIF has been generated from an entry in the Cambridge 
# Structural Database, then it will include bibliographic, chemical, 
# crystal, experimental, refinement or atomic coordinate data resulting 
# from the CCDC's data processing and validation procedures.
#
#######################################################################

data_NIPGID
_chemical_formula_moiety         'C30 H30 N10'
_chemical_name_systematic        
2,8,14,20,26-Pentamethyl-2,8,14,20,26-penta-aza-(2,6-pyridino)calix(5)arene
_symmetry_cell_setting           monoclinic
_symmetry_space_group_name_H-M   'P 21/c'
_symmetry_Int_Tables_number      14
_space_group_name_Hall           '-P 2ybc'
loop_
_symmetry_equiv_pos_site_id
_symmetry_equiv_pos_as_xyz
1 x,y,z
2 -x,1/2+y,1/2-z
3 -x,-y,-z
4 x,1/2-y,1/2+z
_cell_length_a                   17.1305(11)
_cell_length_b                   12.4187(5)
_cell_length_c                   14.0272(2)
_cell_angle_alpha                90
_cell_angle_beta                 113.46(3)
_cell_angle_gamma                90
_cell_volume                     2737.45
_chemical_melting_point          '225-227 deg.C'
_cell_formula_units_Z            4
loop_
_atom_site_label
_atom_site_type_symbol
_atom_site_fract_x
_atom_site_fract_y
_atom_site_fract_z
C1 C 0.41393(19) 0.9892(3) 0.3334(2)
C2 C 0.4770(2) 0.9831(3) 0.2938(3)
H1 H 0.4950 1.0440 0.2696
C3 C 0.5112(2) 0.8833(4) 0.2921(3)
H2 H 0.5527 0.8759 0.2655
C4 C 0.4846(2) 0.7945(4) 0.3293(3)
H3 H 0.5066 0.7266 0.3267
C5 C 0.4237(2) 0.8083(3) 0.3710(3)
C6 C 0.3345(3) 0.7320(3) 0.4575(3)
C7 C 0.3502(3) 0.6838(3) 0.5522(3)
H4 H 0.4021 0.6503 0.5894
C8 C 0.2880(3) 0.6864(3) 0.5898(3)
H5 H 0.2967 0.6527 0.6524
C9 C 0.2124(3) 0.7388(3) 0.5353(3)
H6 H 0.1691 0.7402 0.5594
C10 C 0.2029(2) 0.7899(3) 0.4425(3)
C11 C 0.13144(19) 0.9391(3) 0.3218(2)
C12 C 0.1546(2) 0.9268(3) 0.2382(2)
H7 H 0.1748 0.8615 0.2247
C13 C 0.1463(2) 1.0159(3) 0.1758(2)
H8 H 0.1600 1.0101 0.1182
C14 C 0.1181(2) 1.1133(3) 0.1974(2)
H9 H 0.1113 1.1729 0.1546
C15 C 0.10020(19) 1.1188(3) 0.2864(2)
C16 C 0.1051(2) 1.3168(3) 0.3171(3)
C17 C 0.0818(3) 1.4066(4) 0.3608(3)
H10 H 0.0437 1.4008 0.3928
C18 C 0.1179(3) 1.5034(4) 0.3541(4)
H11 H 0.1033 1.5645 0.3817
C19 C 0.1750(3) 1.5133(3) 0.3081(4)
H12 H 0.1997 1.5792 0.3049
C20 C 0.1942(2) 1.4197(3) 0.2662(3)
C21 C 0.2752(2) 1.3189(3) 0.1884(3)
C22 C 0.2588(2) 1.2926(4) 0.0865(3)
H13 H 0.2296 1.3397 0.0324
C23 C 0.2872(2) 1.1937(4) 0.0679(3)
H14 H 0.2785 1.1743 0.0004
C24 C 0.3280(2) 1.1241(3) 0.1483(2)
H15 H 0.3467 1.0572 0.1362
C25 C 0.34095(18) 1.1563(3) 0.2496(2)
C26 C 0.4445(5) 0.6205(4) 0.4319(6)
H16 H 0.4185 0.5682 0.4604
H17 H 0.5019 0.6334 0.4803
H18 H 0.4448 0.5940 0.3678
C27 C 0.0623(2) 0.8553(3) 0.4263(3)
H19 H 0.0165 0.8993 0.3809
H20 H 0.0845 0.8857 0.4949
H21 H 0.0417 0.7839 0.4285
C28 C 0.0183(3) 1.1993(4) 0.3793(4)
H22 H 0.0000 1.1256 0.3743
H23 H -0.0305 1.2455 0.3518
H24 H 0.0509 1.2171 0.4509
C29 C 0.2627(4) 1.5169(4) 0.1647(5)
H25 H 0.3030 1.5024 0.1344
H26 H 0.2839 1.5738 0.2148
H27 H 0.2095 1.5384 0.1112
C30 C 0.3475(3) 1.1060(3) 0.4220(3)
H28 H 0.3758 1.0555 0.4768
H29 H 0.2871 1.0957 0.3968
H30 H 0.3615 1.1780 0.4481
N1 N 0.39010(17) 0.9054(2) 0.3737(2)
N2 N 0.3957(2) 0.7222(3) 0.4124(3)
N3 N 0.2622(2) 0.7833(2) 0.4024(2)
N4 N 0.13013(18) 0.8508(2) 0.3871(2)
N5 N 0.10648(16) 1.0330(2) 0.3467(2)
N6 N 0.07173(19) 1.2140(2) 0.3192(2)
N7 N 0.15940(18) 1.3249(2) 0.2705(2)
N8 N 0.2502(2) 1.4197(2) 0.2159(3)
N9 N 0.31767(17) 1.2541(2) 0.2694(2)
N10 N 0.37547(17) 1.0888(2) 0.3367(2)
loop_
_geom_bond_atom_site_label_1
_geom_bond_atom_site_label_2
_geom_bond_site_symmetry_1
_geom_bond_site_symmetry_2
C1 C2 1_555 1_555
C2 H1 1_555 1_555
C3 C2 1_555 1_555
H2 C3 1_555 1_555
C4 C3 1_555 1_555
H3 C4 1_555 1_555
C5 C4 1_555 1_555
C6 C7 1_555 1_555
C7 H4 1_555 1_555
C8 C7 1_555 1_555
H5 C8 1_555 1_555
C9 C8 1_555 1_555
H6 C9 1_555 1_555
C10 C9 1_555 1_555
C11 C12 1_555 1_555
C12 H7 1_555 1_555
C13 C12 1_555 1_555
H8 C13 1_555 1_555
C14 C13 1_555 1_555
H9 C14 1_555 1_555
C15 C14 1_555 1_555
C16 C17 1_555 1_555
C17 H10 1_555 1_555
C18 C17 1_555 1_555
H11 C18 1_555 1_555
C19 C18 1_555 1_555
H12 C19 1_555 1_555
C20 C19 1_555 1_555
C21 C22 1_555 1_555
C22 H13 1_555 1_555
C23 C22 1_555 1_555
H14 C23 1_555 1_555
C24 C23 1_555 1_555
H15 C24 1_555 1_555
C25 C24 1_555 1_555
C26 H16 1_555 1_555
H17 C26 1_555 1_555
H18 C26 1_555 1_555
C27 H19 1_555 1_555
H20 C27 1_555 1_555
H21 C27 1_555 1_555
C28 H22 1_555 1_555
H23 C28 1_555 1_555
H24 C28 1_555 1_555
C29 H25 1_555 1_555
H26 C29 1_555 1_555
H27 C29 1_555 1_555
C30 H28 1_555 1_555
H29 C30 1_555 1_555
H30 C30 1_555 1_555
N1 C1 1_555 1_555
N2 C5 1_555 1_555
N3 C6 1_555 1_555
N4 C10 1_555 1_555
N5 C11 1_555 1_555
N6 C15 1_555 1_555
N7 C16 1_555 1_555
N8 C20 1_555 1_555
N9 C21 1_555 1_555
N10 C1 1_555 1_555
C5 N1 1_555 1_555
C6 N2 1_555 1_555
C10 N3 1_555 1_555
C11 N4 1_555 1_555
C15 N5 1_555 1_555
C16 N6 1_555 1_555
C20 N7 1_555 1_555
C21 N8 1_555 1_555
C25 N9 1_555 1_555
C25 N10 1_555 1_555
C26 N2 1_555 1_555
C27 N4 1_555 1_555
C28 N6 1_555 1_555
C29 N8 1_555 1_555
C30 N10 1_555 1_555

#END
