
#######################################################################
#
#                 Cambridge Crystallographic Data Centre
#                                CCDC 
#
#######################################################################
#
# If this CIF has been generated from an entry in the Cambridge 
# Structural Database, then it will include bibliographic, chemical, 
# crystal, experimental, refinement or atomic coordinate data resulting 
# from the CCDC's data processing and validation procedures.
#
#######################################################################

data_NIPJED
_chemical_formula_moiety         'C31 H28 O5'
_chemical_name_systematic        
3,3-Dimethyl-cis-9a,13a-diphenyl-2,3,9a,11,12,13a-hexahydro-1H-benzo[h][1,4]dioxino[2',3':5,6][1,4]dioxino[2,3-f]chromene
_symmetry_cell_setting           monoclinic
_symmetry_space_group_name_H-M   'P 21/n'
_symmetry_Int_Tables_number      14
_space_group_name_Hall           '-P 2yn'
loop_
_symmetry_equiv_pos_site_id
_symmetry_equiv_pos_as_xyz
1 x,y,z
2 1/2-x,1/2+y,1/2-z
3 -x,-y,-z
4 1/2+x,1/2-y,1/2+z
_cell_length_a                   15.1335(6)
_cell_length_b                   9.6048(2)
_cell_length_c                   16.9739(6)
_cell_angle_alpha                90
_cell_angle_beta                 97.3840(10)
_cell_angle_gamma                90
_cell_volume                     2446.77
_exptl_crystal_colour            colorless
_exptl_crystal_description       slab
_chemical_melting_point          '482-484 K'
_cell_formula_units_Z            4
_exptl_crystal_recrystallization_method ethanol
loop_
_atom_site_label
_atom_site_type_symbol
_atom_site_fract_x
_atom_site_fract_y
_atom_site_fract_z
O1 O 0.07265(9) 0.34146(11) 0.23877(7)
O2 O 0.17388(8) 0.21646(11) -0.00687(7)
O3 O 0.22585(8) -0.04598(11) 0.05583(7)
O4 O 0.16943(9) 0.13692(12) -0.13294(7)
O5 O 0.10415(8) -0.05976(11) -0.03375(7)
C1 C 0.03141(13) 0.46851(17) 0.20263(11)
C2 C 0.09216(14) 0.52936(17) 0.14656(11)
H1 H 0.1507 0.5521 0.1769
H2 H 0.0658 0.6168 0.1232
C3 C 0.10551(14) 0.42770(17) 0.08004(11)
H3 H 0.0510 0.4243 0.0410
H4 H 0.1555 0.4595 0.0522
C4 C 0.12557(12) 0.28463(16) 0.11431(10)
C5 C 0.18803(12) 0.05363(16) 0.10082(10)
C6 C 0.16391(12) 0.18128(17) 0.06989(10)
C7 C 0.17505(12) 0.01886(16) 0.17947(10)
C8 C 0.19548(12) -0.11445(17) 0.21269(10)
H5 H 0.2207 -0.1834 0.1823
C9 C 0.17912(12) -0.14461(18) 0.28843(10)
H6 H 0.1916 -0.2351 0.3095
C10 C 0.14399(13) -0.04266(18) 0.33515(11)
H7 H 0.1342 -0.0639 0.3880
C11 C 0.12390(13) 0.08757(17) 0.30443(10)
H8 H 0.1010 0.1562 0.3366
C12 C 0.13687(12) 0.12094(17) 0.22567(10)
C13 C 0.11111(12) 0.25221(17) 0.19031(10)
C14 C 0.02511(16) 0.56118(19) 0.27419(12)
H9 H 0.0849 0.5773 0.3023
H10 H -0.0118 0.5156 0.3100
H11 H -0.0018 0.6504 0.2564
C15 C -0.06075(14) 0.4327(2) 0.16053(13)
H12 H -0.0552 0.3644 0.1185
H13 H -0.0893 0.5172 0.1371
H14 H -0.0971 0.3933 0.1989
C16 C 0.21410(13) 0.11661(18) -0.05551(10)
C17 C 0.07502(13) 0.10801(18) -0.13920(11)
H15 H 0.0477 0.1202 -0.1950
H16 H 0.0464 0.1745 -0.1058
C18 C 0.05956(14) -0.03797(18) -0.11270(11)
H17 H -0.0051 -0.0544 -0.1136
H18 H 0.0823 -0.1049 -0.1496
C19 C 0.19741(12) -0.03490(17) -0.02661(10)
C20 C 0.31092(13) 0.15683(17) -0.05503(10)
C21 C 0.37148(16) 0.1396(3) 0.01208(12)
H19 H 0.3530 0.0973 0.0578
C22 C 0.45920(16) 0.1832(3) 0.01376(13)
H20 H 0.5001 0.1697 0.0605
C23 C 0.48716(16) 0.2452(2) -0.05084(13)
H21 H 0.5471 0.2755 -0.0494
C24 C 0.42738(15) 0.2634(2) -0.11828(14)
H22 H 0.4464 0.3058 -0.1638
C25 C 0.33982(14) 0.2206(2) -0.12029(13)
H23 H 0.2991 0.2351 -0.1670
C26 C 0.24471(13) -0.15056(17) -0.06662(10)
C27 C 0.27317(14) -0.13653(19) -0.14065(11)
H24 H 0.2670 -0.0496 -0.1674
C28 C 0.31066(14) -0.2488(2) -0.17594(12)
H25 H 0.3301 -0.2380 -0.2266
C29 C 0.31977(15) -0.3756(2) -0.13795(12)
H26 H 0.3456 -0.4520 -0.1622
C30 C 0.29106(15) -0.3912(2) -0.06409(12)
H27 H 0.2971 -0.4786 -0.0377
C31 C 0.25370(13) -0.28000(18) -0.02881(12)
H28 H 0.2339 -0.2916 0.0217
loop_
_geom_bond_atom_site_label_1
_geom_bond_atom_site_label_2
_geom_bond_site_symmetry_1
_geom_bond_site_symmetry_2
O1 C1 1_555 1_555
O2 C6 1_555 1_555
O3 C5 1_555 1_555
O4 C16 1_555 1_555
O5 C18 1_555 1_555
C1 C2 1_555 1_555
C2 H1 1_555 1_555
H2 C2 1_555 1_555
C3 C2 1_555 1_555
H3 C3 1_555 1_555
H4 C3 1_555 1_555
C4 C3 1_555 1_555
C5 C6 1_555 1_555
C6 C4 1_555 1_555
C7 C5 1_555 1_555
C8 C7 1_555 1_555
H5 C8 1_555 1_555
C9 C8 1_555 1_555
H6 C9 1_555 1_555
C10 C9 1_555 1_555
H7 C10 1_555 1_555
C11 C10 1_555 1_555
H8 C11 1_555 1_555
C12 C7 1_555 1_555
C13 O1 1_555 1_555
C14 C1 1_555 1_555
H9 C14 1_555 1_555
H10 C14 1_555 1_555
H11 C14 1_555 1_555
C15 C1 1_555 1_555
H12 C15 1_555 1_555
H13 C15 1_555 1_555
H14 C15 1_555 1_555
C16 O2 1_555 1_555
C17 O4 1_555 1_555
H15 C17 1_555 1_555
H16 C17 1_555 1_555
C18 C17 1_555 1_555
H17 C18 1_555 1_555
H18 C18 1_555 1_555
C19 O3 1_555 1_555
C20 C16 1_555 1_555
C21 C20 1_555 1_555
H19 C21 1_555 1_555
C22 C21 1_555 1_555
H20 C22 1_555 1_555
C23 C22 1_555 1_555
H21 C23 1_555 1_555
C24 C23 1_555 1_555
H22 C24 1_555 1_555
C25 C20 1_555 1_555
H23 C25 1_555 1_555
C26 C19 1_555 1_555
C27 C26 1_555 1_555
H24 C27 1_555 1_555
C28 C27 1_555 1_555
H25 C28 1_555 1_555
C29 C28 1_555 1_555
H26 C29 1_555 1_555
C30 C29 1_555 1_555
H27 C30 1_555 1_555
C31 C26 1_555 1_555
H28 C31 1_555 1_555
O5 C19 1_555 1_555
C4 C13 1_555 1_555
C11 C12 1_555 1_555
C12 C13 1_555 1_555
C16 C19 1_555 1_555
C24 C25 1_555 1_555
C30 C31 1_555 1_555

#END
