
#######################################################################
#
#                 Cambridge Crystallographic Data Centre
#                                CCDC 
#
#######################################################################
#
# If this CIF has been generated from an entry in the Cambridge 
# Structural Database, then it will include bibliographic, chemical, 
# crystal, experimental, refinement or atomic coordinate data resulting 
# from the CCDC's data processing and validation procedures.
#
#######################################################################

data_NIPPIN
_chemical_name_common            
3-(5-(Diphenylamino)-2-thienyl)-1-(pyridin-3-yl)prop-2-en-1-one
_chemical_formula_moiety         'C24 H18 N2 O1 S1'
_chemical_name_systematic        
(E)-3-(5-(Diphenylamino)thiophen-2-yl)-1-(pyridin-3-yl)prop-2-en-1-one
_symmetry_cell_setting           monoclinic
_symmetry_space_group_name_H-M   'P 21/c'
_symmetry_Int_Tables_number      14
_space_group_name_Hall           '-P 2ybc'
loop_
_symmetry_equiv_pos_site_id
_symmetry_equiv_pos_as_xyz
1 x,y,z
2 -x,1/2+y,1/2-z
3 -x,-y,-z
4 x,1/2-y,1/2+z
_cell_length_a                   10.976(5)
_cell_length_b                   18.029(5)
_cell_length_c                   9.697(5)
_cell_angle_alpha                90
_cell_angle_beta                 90.728(5)
_cell_angle_gamma                90
_cell_volume                     1918.75
_exptl_crystal_colour            red
_exptl_crystal_description       block
_cell_formula_units_Z            4
loop_
_atom_site_label
_atom_site_type_symbol
_atom_site_fract_x
_atom_site_fract_y
_atom_site_fract_z
S1 S 0.39364(5) 0.13546(3) 0.84763(5)
O1 O 0.80534(14) 0.06367(10) 1.13966(15)
N1 N 0.23384(15) 0.12744(10) 0.63004(17)
C1 C 0.61524(18) 0.11137(11) 1.0700(2)
H1 H 0.5526 0.1439 1.0917
C2 C 0.41913(19) 0.04995(12) 0.6381(2)
H2 H 0.4065 0.0256 0.5546
C3 C 0.13189(17) 0.15100(11) 0.70872(19)
C4 C 0.70392(18) 0.12875(11) 1.3133(2)
C5 C 0.33940(17) 0.10074(11) 0.69095(19)
C6 C 0.52143(18) 0.03859(11) 0.7228(2)
H3 H 0.5835 0.0058 0.7003
C7 C 0.71424(18) 0.09932(11) 1.1691(2)
C8 C 0.52275(17) 0.07951(11) 0.8412(2)
C9 C 0.22037(18) 0.12040(11) 0.4829(2)
C10 C 0.3006(2) 0.15559(14) 0.3977(2)
H4 H 0.3623 0.1851 0.4348
C11 C 0.08974(19) 0.10913(13) 0.8175(2)
H5 H 0.1278 0.0647 0.8410
C12 C 0.61310(18) 0.07655(11) 0.9487(2)
H6 H 0.6796 0.0461 0.9316
N2 N 0.60796(19) 0.20514(11) 1.4845(2)
C13 C 0.0729(2) 0.21623(12) 0.6732(2)
H7 H 0.1001 0.2440 0.5988
C14 C -0.0099(2) 0.13381(15) 0.8915(2)
H8 H -0.0384 0.1059 0.9650
C15 C 0.7850(2) 0.10299(13) 1.4133(2)
H9 H 0.8449 0.0689 1.3901
C16 C 0.1268(2) 0.07803(13) 0.4276(3)
H10 H 0.0709 0.0552 0.4850
C17 C 0.61859(19) 0.17992(12) 1.3549(2)
H11 H 0.5646 0.1983 1.2885
C18 C -0.0253(2) 0.24017(14) 0.7469(3)
H12 H -0.0641 0.2842 0.7225
C19 C 0.7765(3) 0.12783(14) 1.5463(3)
H13 H 0.8298 0.1110 1.6147
C20 C -0.0670(2) 0.19950(16) 0.8567(3)
H14 H -0.1331 0.2162 0.9071
C21 C 0.1175(3) 0.07000(15) 0.2857(3)
H15 H 0.0553 0.0412 0.2476
C22 C 0.1995(3) 0.10438(18) 0.2009(3)
H16 H 0.1934 0.0985 0.1058
C23 C 0.2895(2) 0.14712(17) 0.2569(2)
H17 H 0.3443 0.1709 0.1993
C24 C 0.6874(2) 0.17810(14) 1.5755(3)
H18 H 0.6821 0.1946 1.6660
loop_
_geom_bond_atom_site_label_1
_geom_bond_atom_site_label_2
_geom_bond_site_symmetry_1
_geom_bond_site_symmetry_2
S1 C5 1_555 1_555
O1 C7 1_555 1_555
N1 C3 1_555 1_555
C1 H1 1_555 1_555
C2 H2 1_555 1_555
C3 C11 1_555 1_555
C4 C7 1_555 1_555
C5 N1 1_555 1_555
C6 C2 1_555 1_555
H3 C6 1_555 1_555
C7 C1 1_555 1_555
C8 S1 1_555 1_555
C9 N1 1_555 1_555
C10 C9 1_555 1_555
H4 C10 1_555 1_555
C11 H5 1_555 1_555
C12 C1 1_555 1_555
H6 C12 1_555 1_555
N2 C17 1_555 1_555
C13 C3 1_555 1_555
H7 C13 1_555 1_555
C14 C11 1_555 1_555
H8 C14 1_555 1_555
C15 C4 1_555 1_555
H9 C15 1_555 1_555
C16 C9 1_555 1_555
H10 C16 1_555 1_555
C17 C4 1_555 1_555
H11 C17 1_555 1_555
C18 C13 1_555 1_555
H12 C18 1_555 1_555
C19 C15 1_555 1_555
H13 C19 1_555 1_555
C20 C14 1_555 1_555
H14 C20 1_555 1_555
C21 C16 1_555 1_555
H15 C21 1_555 1_555
C22 C21 1_555 1_555
H16 C22 1_555 1_555
C23 C10 1_555 1_555
H17 C23 1_555 1_555
C24 N2 1_555 1_555
H18 C24 1_555 1_555
C2 C5 1_555 1_555
C6 C8 1_555 1_555
C8 C12 1_555 1_555
C18 C20 1_555 1_555
C19 C24 1_555 1_555
C22 C23 1_555 1_555

#END
