
#######################################################################
#
#                 Cambridge Crystallographic Data Centre
#                                CCDC 
#
#######################################################################
#
# If this CIF has been generated from an entry in the Cambridge 
# Structural Database, then it will include bibliographic, chemical, 
# crystal, experimental, refinement or atomic coordinate data resulting 
# from the CCDC's data processing and validation procedures.
#
#######################################################################

data_NIPQAH
_chemical_formula_moiety         'C21 H17 I1 N4 O1'
_chemical_name_systematic        
N-[4-(4-iodo-3,5-dimethyl-1H-pyrazol-1-yl)naphthalen-1-yl]pyridine-2-carboxamide
_symmetry_cell_setting           triclinic
_symmetry_space_group_name_H-M   'P -1'
_symmetry_Int_Tables_number      2
_space_group_name_Hall           '-P 1'
loop_
_symmetry_equiv_pos_site_id
_symmetry_equiv_pos_as_xyz
1 x,y,z
2 -x,-y,-z
_cell_length_a                   7.8745(10)
_cell_length_b                   10.6958(14)
_cell_length_c                   12.8183(17)
_cell_angle_alpha                72.5620(10)
_cell_angle_beta                 87.9360(10)
_cell_angle_gamma                68.5840(10)
_cell_volume                     955.595
_exptl_crystal_colour            colorless
_exptl_crystal_description       block
_cell_formula_units_Z            2
loop_
_atom_site_label
_atom_site_type_symbol
_atom_site_fract_x
_atom_site_fract_y
_atom_site_fract_z
I1 I -0.07503(3) 0.27783(3) 0.98027(2)
O1 O 0.7014(5) 0.8850(3) 0.6187(2)
N1 N 0.4708(3) 0.2732(3) 0.96857(19)
N2 N 0.3778(3) 0.3910(2) 0.88328(18)
N3 N 0.6984(3) 0.7029(2) 0.5622(2)
H1 H 0.719(5) 0.680(3) 0.506(3)
N4 N 0.8093(4) 0.8011(3) 0.3722(2)
C1 C 0.1726(4) 0.3067(3) 0.9547(2)
C2 C 0.3440(4) 0.2225(3) 1.0125(2)
C3 C 0.1981(4) 0.4130(3) 0.8721(2)
C4 C 0.0679(5) 0.5314(4) 0.7827(3)
H2 H 0.132053 0.550273 0.716361
H3 H 0.019536 0.616289 0.806033
H4 H -0.033361 0.505300 0.767186
C5 C 0.4728(3) 0.4653(3) 0.8073(2)
C6 C 0.5555(3) 0.4101(3) 0.7217(2)
C7 C 0.6387(3) 0.4890(3) 0.6416(2)
C8 C 0.6296(3) 0.6229(3) 0.6484(2)
C9 C 0.7234(4) 0.8246(3) 0.5500(2)
C10 C 0.7883(4) 0.8782(3) 0.4395(2)
C11 C 0.8703(6) 0.8453(4) 0.2748(3)
H5 H 0.884473 0.791942 0.225424
C12 C 0.9136(5) 0.9640(4) 0.2422(3)
H6 H 0.958286 0.990858 0.172452
C13 C 0.8912(6) 1.0421(4) 0.3115(4)
H7 H 0.919443 1.124910 0.290719
C14 C 0.8266(5) 0.9995(3) 0.4132(3)
H8 H 0.809228 1.052336 0.463134
C15 C 0.5535(4) 0.6695(3) 0.7341(2)
H9 H 0.553208 0.756301 0.739374
C16 C 0.4758(4) 0.5888(3) 0.8145(2)
H10 H 0.424889 0.621019 0.874287
C17 C 0.7231(4) 0.4324(3) 0.5577(2)
H11 H 0.781516 0.482284 0.504326
C18 C 0.7215(4) 0.3066(3) 0.5524(3)
H12 H 0.778185 0.270671 0.495263
C19 C 0.6370(4) 0.2307(3) 0.6305(3)
H13 H 0.636296 0.143820 0.625999
C20 C 0.5555(4) 0.2812(3) 0.7132(2)
H14 H 0.498240 0.229115 0.765617
C21 C 0.3916(5) 0.0912(4) 1.1079(3)
H15 H 0.364160 0.019552 1.086505
H16 H 0.319615 0.112174 1.168739
H17 H 0.522298 0.055697 1.131040
loop_
_geom_bond_atom_site_label_1
_geom_bond_atom_site_label_2
_geom_bond_site_symmetry_1
_geom_bond_site_symmetry_2
I1 C1 1_555 1_555
O1 C9 1_555 1_555
N1 N2 1_555 1_555
N2 C3 1_555 1_555
N3 H1 1_555 1_555
N4 C10 1_555 1_555
C1 C2 1_555 1_555
C2 N1 1_555 1_555
C3 C1 1_555 1_555
C4 C3 1_555 1_555
H2 C4 1_555 1_555
H3 C4 1_555 1_555
H4 C4 1_555 1_555
C5 N2 1_555 1_555
C6 C5 1_555 1_555
C7 C6 1_555 1_555
C8 N3 1_555 1_555
C9 N3 1_555 1_555
C10 C9 1_555 1_555
C11 N4 1_555 1_555
H5 C11 1_555 1_555
C12 C11 1_555 1_555
H6 C12 1_555 1_555
C13 C12 1_555 1_555
H7 C13 1_555 1_555
C14 C10 1_555 1_555
H8 C14 1_555 1_555
C15 C8 1_555 1_555
H9 C15 1_555 1_555
C16 C5 1_555 1_555
H10 C16 1_555 1_555
C17 C7 1_555 1_555
H11 C17 1_555 1_555
C18 C17 1_555 1_555
H12 C18 1_555 1_555
C19 C18 1_555 1_555
H13 C19 1_555 1_555
C20 C6 1_555 1_555
H14 C20 1_555 1_555
C21 C2 1_555 1_555
H15 C21 1_555 1_555
H16 C21 1_555 1_555
H17 C21 1_555 1_555
C7 C8 1_555 1_555
C13 C14 1_555 1_555
C15 C16 1_555 1_555
C19 C20 1_555 1_555

#END
