
#######################################################################
#
#                 Cambridge Crystallographic Data Centre
#                                CCDC 
#
#######################################################################
#
# If this CIF has been generated from an entry in the Cambridge 
# Structural Database, then it will include bibliographic, chemical, 
# crystal, experimental, refinement or atomic coordinate data resulting 
# from the CCDC's data processing and validation procedures.
#
#######################################################################

data_NIPWER
_chemical_formula_moiety         'C14 H18 Cl4 N5 P1 Si1,C4 H8 O1'
_chemical_name_systematic        
'tetrachloro-(N,N-diethyl-2-(pyridin-2-yl)-[1,2,4,3]triazaphospholo[4,5-a]pyridin-3(3H)-amine)-silicon tetrahydrofuran solvate'
_symmetry_cell_setting           monoclinic
_symmetry_space_group_name_H-M   'P 21/n'
_symmetry_Int_Tables_number      14
_space_group_name_Hall           '-P 2yn'
loop_
_symmetry_equiv_pos_site_id
_symmetry_equiv_pos_as_xyz
1 x,y,z
2 1/2-x,1/2+y,1/2-z
3 -x,-y,-z
4 1/2+x,1/2-y,1/2+z
_cell_length_a                   8.5021(4)
_cell_length_b                   16.0538(7)
_cell_length_c                   18.0906(8)
_cell_angle_alpha                90
_cell_angle_beta                 100.2240(10)
_cell_angle_gamma                90
_cell_volume                     2430
_exptl_crystal_colour            yellow
_exptl_crystal_description       prism
_cell_formula_units_Z            4
loop_
_atom_site_label
_atom_site_type_symbol
_atom_site_fract_x
_atom_site_fract_y
_atom_site_fract_z
Si1 Si 0.43866(3) 0.17228(2) 0.35216(2)
P1 P 0.82366(3) 0.32197(2) 0.28672(2)
Cl1 Cl 0.51871(3) 0.09088(2) 0.26546(2)
Cl2 Cl 0.21940(3) 0.19740(2) 0.27503(2)
Cl3 Cl 0.33893(3) 0.06485(2) 0.39993(2)
Cl4 Cl 0.37230(3) 0.25183(2) 0.43946(2)
N1 N 0.71306(10) 0.24794(6) 0.32444(5)
N2 N 0.54671(10) 0.26162(6) 0.31693(5)
N3 N 0.65206(10) 0.15510(6) 0.40996(5)
N4 N 0.64364(11) 0.38173(6) 0.27913(5)
N5 N 0.82343(11) 0.28897(6) 0.20085(6)
C1 C 0.76828(12) 0.19450(6) 0.38184(6)
C2 C 0.93082(13) 0.18017(7) 0.40845(6)
H1 H 1.0106 0.2065 0.3860
C3 C 0.97105(13) 0.12689(7) 0.46808(6)
H2 H 1.0803 0.1160 0.4877
C4 C 0.85113(14) 0.08847(7) 0.50013(7)
H3 H 0.8781 0.0530 0.5425
C5 C 0.69439(13) 0.10298(7) 0.46932(6)
H4 H 0.6130 0.0758 0.4901
C6 C 0.51451(12) 0.34027(7) 0.29562(6)
C7 C 0.36672(13) 0.38299(7) 0.28909(6)
H5 H 0.2755 0.3563 0.3018
C8 C 0.35856(14) 0.46347(7) 0.26406(7)
H6 H 0.2599 0.4925 0.2588
C9 C 0.49383(15) 0.50438(7) 0.24577(7)
H7 H 0.4863 0.5601 0.2277
C10 C 0.63440(14) 0.46260(7) 0.25445(7)
H8 H 0.7270 0.4895 0.2434
C11 C 0.68821(15) 0.24810(8) 0.15261(7)
H9 H 0.6384 0.2878 0.1135
H10 H 0.6070 0.2329 0.1833
C12 C 0.7379(2) 0.17044(9) 0.11498(9)
H11 H 0.6428 0.1430 0.0868
H12 H 0.7931 0.1323 0.1533
H13 H 0.8098 0.1859 0.0805
C13 C 0.95202(14) 0.32156(9) 0.16417(7)
H14 H 0.9978 0.2751 0.1389
H15 H 1.0380 0.3444 0.2030
C14 C 0.89581(17) 0.38881(8) 0.10710(7)
H16 H 0.9883 0.4137 0.0900
H17 H 0.8386 0.4319 0.1302
H18 H 0.8241 0.3645 0.0641
O1 O 0.77505(19) 0.36735(9) 0.46132(8)
C15 C 0.7588(2) 0.33426(11) 0.53329(10)
H19 H 0.8645 0.3180 0.5620
H20 H 0.6884 0.2847 0.5272
C16 C 0.6864(3) 0.40287(12) 0.57341(10)
H21 H 0.7210 0.3990 0.6285
H22 H 0.5682 0.4017 0.5613
C17 C 0.7528(3) 0.47994(12) 0.54202(11)
H23 H 0.8627 0.4922 0.5682
H24 H 0.6840 0.5291 0.5452
C18 C 0.7504(3) 0.45424(13) 0.46140(12)
H25 H 0.6462 0.4685 0.4301
H26 H 0.8359 0.4833 0.4409
loop_
_geom_bond_atom_site_label_1
_geom_bond_atom_site_label_2
_geom_bond_site_symmetry_1
_geom_bond_site_symmetry_2
Si1 Cl1 1_555 1_555
P1 N1 1_555 1_555
Cl2 Si1 1_555 1_555
Cl3 Si1 1_555 1_555
Cl4 Si1 1_555 1_555
N1 N2 1_555 1_555
N2 Si1 1_555 1_555
N3 Si1 1_555 1_555
N4 P1 1_555 1_555
N5 P1 1_555 1_555
C1 N1 1_555 1_555
C2 C1 1_555 1_555
H1 C2 1_555 1_555
C3 C2 1_555 1_555
H2 C3 1_555 1_555
C4 C3 1_555 1_555
H3 C4 1_555 1_555
C5 N3 1_555 1_555
H4 C5 1_555 1_555
C6 N2 1_555 1_555
C7 C6 1_555 1_555
H5 C7 1_555 1_555
C8 C7 1_555 1_555
H6 C8 1_555 1_555
C9 C8 1_555 1_555
H7 C9 1_555 1_555
C10 N4 1_555 1_555
H8 C10 1_555 1_555
C11 N5 1_555 1_555
H9 C11 1_555 1_555
H10 C11 1_555 1_555
C12 C11 1_555 1_555
H11 C12 1_555 1_555
H12 C12 1_555 1_555
H13 C12 1_555 1_555
C13 N5 1_555 1_555
H14 C13 1_555 1_555
H15 C13 1_555 1_555
C14 C13 1_555 1_555
H16 C14 1_555 1_555
H17 C14 1_555 1_555
H18 C14 1_555 1_555
O1 C15 1_555 1_555
C15 H19 1_555 1_555
H20 C15 1_555 1_555
C16 C15 1_555 1_555
H21 C16 1_555 1_555
H22 C16 1_555 1_555
C17 C16 1_555 1_555
H23 C17 1_555 1_555
H24 C17 1_555 1_555
C18 O1 1_555 1_555
H25 C18 1_555 1_555
H26 C18 1_555 1_555
N3 C1 1_555 1_555
N4 C6 1_555 1_555
C4 C5 1_555 1_555
C9 C10 1_555 1_555
C17 C18 1_555 1_555

#END
