
#######################################################################
#
#                 Cambridge Crystallographic Data Centre
#                                CCDC 
#
#######################################################################
#
# If this CIF has been generated from an entry in the Cambridge 
# Structural Database, then it will include bibliographic, chemical, 
# crystal, experimental, refinement or atomic coordinate data resulting 
# from the CCDC's data processing and validation procedures.
#
#######################################################################

data_NIPXOC
_chemical_formula_moiety         '2(C27 H20 N2 O1),C6 Cl4 O2'
_chemical_name_systematic        
'bis(1-(3-phenyl-5-(pyren-1-yl)-4,5-dihydro-1H-pyrazol-1-yl)ethanone) 2,3,5,6-tetrachloro-1,4-benzoquinone'
_symmetry_cell_setting           triclinic
_symmetry_space_group_name_H-M   'P -1'
_symmetry_Int_Tables_number      2
_space_group_name_Hall           '-P 1'
loop_
_symmetry_equiv_pos_site_id
_symmetry_equiv_pos_as_xyz
1 x,y,z
2 -x,-y,-z
_cell_length_a                   9.3980(19)
_cell_length_b                   11.378(2)
_cell_length_c                   11.458(2)
_cell_angle_alpha                86.80(3)
_cell_angle_beta                 82.07(3)
_cell_angle_gamma                84.52(3)
_cell_volume                     1206.82
_cell_formula_units_Z            1
loop_
_atom_site_label
_atom_site_type_symbol
_atom_site_fract_x
_atom_site_fract_y
_atom_site_fract_z
N1 N 0.7332(4) 0.8632(3) 0.5053(3)
O1 O 0.6827(3) 1.0590(2) 0.5121(3)
C1 C 0.6129(5) 0.8288(3) 0.5913(3)
H1 H 0.5231 0.8731 0.5739
N2 N 0.8145(3) 0.7671(3) 0.4515(2)
C2 C 0.6108(4) 0.6978(3) 0.5651(3)
H2 H 0.6076 0.6481 0.6369
H3 H 0.5291 0.6856 0.5253
C3 C 0.7492(4) 0.6737(3) 0.4870(3)
C4 C 0.8084(4) 0.5572(3) 0.4469(3)
C5 C 0.7475(4) 0.4561(3) 0.4973(3)
H4 H 0.6702 0.4630 0.5574
C6 C 0.8010(5) 0.3458(3) 0.4587(3)
H5 H 0.7596 0.2786 0.4921
C7 C 0.9144(5) 0.3360(4) 0.3718(4)
H6 H 0.9512 0.2618 0.3458
C8 C 0.9759(4) 0.4361(4) 0.3213(4)
H7 H 1.0530 0.4288 0.2611
C9 C 0.9237(4) 0.5447(3) 0.3595(3)
H8 H 0.9664 0.6113 0.3262
C10 C 0.7574(5) 0.9757(3) 0.4677(4)
C11 C 0.8809(5) 0.9900(4) 0.3727(4)
H9 H 0.8880 1.0726 0.3530
H10 H 0.8654 0.9507 0.3042
H11 H 0.9686 0.9561 0.3998
C12 C 0.6339(5) 0.8453(3) 0.7189(3)
C13 C 0.7627(5) 0.8748(3) 0.7486(4)
H12 H 0.8376 0.8879 0.6887
C14 C 0.7848(5) 0.8854(4) 0.8634(4)
H13 H 0.8740 0.9047 0.8792
C15 C 0.6772(6) 0.8681(4) 0.9556(4)
C16 C 0.5427(5) 0.8382(3) 0.9284(3)
C17 C 0.5208(5) 0.8269(3) 0.8086(3)
C18 C 0.6965(6) 0.8803(4) 1.0773(4)
H14 H 0.7844 0.8998 1.0958
C19 C 0.5878(8) 0.8635(4) 1.1633(4)
H15 H 0.6017 0.8725 1.2410
C20 C 0.4520(7) 0.8324(4) 1.1401(4)
C21 C 0.4305(6) 0.8202(3) 1.0210(3)
C22 C 0.3394(8) 0.8155(4) 1.2298(4)
H16 H 0.3519 0.8241 1.3079
C23 C 0.2093(8) 0.7858(5) 1.2029(5)
H17 H 0.1352 0.7741 1.2640
C24 C 0.1853(6) 0.7728(4) 1.0884(5)
H18 H 0.0964 0.7523 1.0730
C25 C 0.2953(6) 0.7907(3) 0.9959(4)
C26 C 0.2766(5) 0.7776(4) 0.8756(4)
H19 H 0.1890 0.7563 0.8584
C27 C 0.3827(5) 0.7954(3) 0.7872(4)
H20 H 0.3664 0.7870 0.7100
Cl1 Cl 0.17986(13) 0.45092(12) -0.01034(10)
Cl2 Cl 0.60157(13) 0.53398(11) 0.24386(9)
O2 O 0.3183(3) 0.4843(3) 0.1959(2)
C28 C 0.3554(4) 0.4765(3) -0.0103(3)
C29 C 0.4000(5) 0.4931(3) 0.1072(3)
C30 C 0.5525(5) 0.5164(3) 0.1084(3)
Cl1A Cl 0.82014(13) 0.54908(12) 0.01034(10)
Cl2A Cl 0.39843(13) 0.46602(11) -0.24386(9)
O2A O 0.6817(3) 0.5157(3) -0.1959(2)
C28A C 0.6446(4) 0.5235(3) 0.0103(3)
C29A C 0.6000(5) 0.5069(3) -0.1072(3)
C30A C 0.4475(5) 0.4836(3) -0.1084(3)
loop_
_geom_bond_atom_site_label_1
_geom_bond_atom_site_label_2
_geom_bond_site_symmetry_1
_geom_bond_site_symmetry_2
N1 C1 1_555 1_555
O1 C10 1_555 1_555
C1 H1 1_555 1_555
N2 N1 1_555 1_555
C2 C1 1_555 1_555
H2 C2 1_555 1_555
H3 C2 1_555 1_555
C3 N2 1_555 1_555
C4 C3 1_555 1_555
C5 C4 1_555 1_555
H4 C5 1_555 1_555
C6 C5 1_555 1_555
H5 C6 1_555 1_555
C7 C6 1_555 1_555
H6 C7 1_555 1_555
C8 C7 1_555 1_555
H7 C8 1_555 1_555
C9 C4 1_555 1_555
H8 C9 1_555 1_555
C10 N1 1_555 1_555
C11 C10 1_555 1_555
H9 C11 1_555 1_555
H10 C11 1_555 1_555
H11 C11 1_555 1_555
C12 C1 1_555 1_555
C13 C12 1_555 1_555
H12 C13 1_555 1_555
C14 C13 1_555 1_555
H13 C14 1_555 1_555
C15 C14 1_555 1_555
C16 C15 1_555 1_555
C17 C12 1_555 1_555
C18 C15 1_555 1_555
H14 C18 1_555 1_555
C19 C18 1_555 1_555
H15 C19 1_555 1_555
C20 C19 1_555 1_555
C21 C16 1_555 1_555
C22 C20 1_555 1_555
H16 C22 1_555 1_555
C23 C22 1_555 1_555
H17 C23 1_555 1_555
C24 C23 1_555 1_555
H18 C24 1_555 1_555
C25 C21 1_555 1_555
C26 C25 1_555 1_555
H19 C26 1_555 1_555
C27 C17 1_555 1_555
H20 C27 1_555 1_555
Cl1 C28 1_555 1_555
Cl2 C30 1_555 1_555
O2 C29 1_555 1_555
C28 C29 1_555 1_555
C29 C30 1_555 1_555
C30 C28A 1_555 1_555
Cl1A C28A 1_555 1_555
Cl2A C30A 1_555 1_555
O2A C29A 1_555 1_555
C28A C29A 1_555 1_555
C29A C30A 1_555 1_555
C30A C28 1_555 1_555
C2 C3 1_555 1_555
C8 C9 1_555 1_555
C16 C17 1_555 1_555
C20 C21 1_555 1_555
C24 C25 1_555 1_555
C26 C27 1_555 1_555

#END
