
#######################################################################
#
#                 Cambridge Crystallographic Data Centre
#                                CCDC 
#
#######################################################################
#
# If this CIF has been generated from an entry in the Cambridge 
# Structural Database, then it will include bibliographic, chemical, 
# crystal, experimental, refinement or atomic coordinate data resulting 
# from the CCDC's data processing and validation procedures.
#
#######################################################################

data_NIPYIX
_chemical_formula_moiety         '2(C25 H16 O1),C6 Cl4 O2'
_chemical_name_systematic        
'bis(3-phenyl-1-(pyren-1-yl)prop-2-en-1-one) 2,3,5,6-tetrachloro-1,4-benzoquinone'
_symmetry_cell_setting           triclinic
_symmetry_space_group_name_H-M   'P -1'
_symmetry_Int_Tables_number      2
_space_group_name_Hall           '-P 1'
loop_
_symmetry_equiv_pos_site_id
_symmetry_equiv_pos_as_xyz
1 x,y,z
2 -x,-y,-z
_cell_length_a                   9.9703(10)
_cell_length_b                   10.0007(11)
_cell_length_c                   12.5589(12)
_cell_angle_alpha                76.141(9)
_cell_angle_beta                 69.392(9)
_cell_angle_gamma                62.901(11)
_cell_volume                     1038.72
_exptl_crystal_colour            black
_exptl_crystal_description       block
_cell_formula_units_Z            1
loop_
_atom_site_label
_atom_site_type_symbol
_atom_site_fract_x
_atom_site_fract_y
_atom_site_fract_z
Cl1 Cl 0.96485(11) 0.84924(10) 0.82504(8)
Cl2 Cl 0.76814(11) 0.84167(10) 1.08612(9)
O1 O 1.1632(3) 1.0088(3) 0.7817(2)
C1 C 0.8966(4) 0.9259(3) 1.0337(3)
C2 C 0.9784(4) 0.9296(3) 0.9243(3)
C3 C 1.0889(4) 1.0050(3) 0.8805(3)
Cl1A Cl 1.03515(11) 1.15076(10) 1.17496(8)
Cl2A Cl 1.23186(11) 1.15833(10) 0.91388(9)
O1A O 0.8368(3) 0.9912(3) 1.2183(2)
C1A C 1.1034(4) 1.0741(3) 0.9663(3)
C2A C 1.0216(4) 1.0704(3) 1.0757(3)
C3A C 0.9111(4) 0.9950(3) 1.1195(3)
O2 O 1.0174(4) 0.3564(3) 0.3268(3)
C4 C 1.2404(4) 0.6627(3) 0.1254(3)
C5 C 1.3270(4) 0.6673(3) 0.0083(3)
C6 C 1.3106(4) 0.5985(4) -0.0700(3)
C7 C 1.4307(4) 0.7410(4) -0.0314(4)
C8 C 1.0561(4) 0.5817(4) 0.2818(3)
C9 C 1.1278(4) 0.5144(4) 0.0842(3)
H1 H 1.0631 0.4628 0.1086
C10 C 1.1403(4) 0.5852(3) 0.1659(3)
C11 C 0.7075(5) 0.7176(4) 0.3774(3)
H2 H 0.7648 0.7751 0.3380
C12 C 0.7893(5) 0.5691(4) 0.3867(4)
H3 H 0.7361 0.5098 0.4313
C13 C 1.2090(4) 0.5221(4) -0.0270(3)
H4 H 1.1980 0.4758 -0.0775
C14 C 1.3641(5) 0.8053(4) 0.1602(5)
H5 H 1.3769 0.8510 0.2101
C15 C 0.5384(5) 0.8012(4) 0.4216(3)
C16 C 1.2571(5) 0.7330(4) 0.2033(4)
C17 C 0.9567(5) 0.4927(4) 0.3320(3)
C18 C 1.5151(5) 0.7425(4) -0.1463(4)
H6 H 1.5838 0.7900 -0.1728
C19 C 1.4458(5) 0.8086(4) 0.0500(5)
H7 H 1.5144 0.8560 0.0254
C20 C 1.3974(4) 0.6048(4) -0.1841(4)
H8 H 1.3866 0.5607 -0.2362
C21 C 1.0701(5) 0.6562(5) 0.3557(4)
H9 H 1.0105 0.6578 0.4318
C22 C 0.4407(5) 0.7360(5) 0.4989(4)
H10 H 0.4830 0.6341 0.5244
C23 C 1.1709(5) 0.7271(5) 0.3175(4)
H11 H 1.1817 0.7721 0.3690
C24 C 1.4987(5) 0.6751(5) -0.2211(4)
H12 H 1.5565 0.6769 -0.2975
C25 C 0.4718(5) 0.9527(5) 0.3852(4)
H13 H 0.5353 0.9989 0.3341
C26 C 0.2181(6) 0.9707(6) 0.5011(4)
H14 H 0.1110 1.0278 0.5284
C27 C 0.3127(6) 1.0361(5) 0.4237(4)
H15 H 0.2693 1.1373 0.3970
C28 C 0.2821(6) 0.8202(6) 0.5383(4)
H16 H 0.2180 0.7752 0.5904
loop_
_geom_bond_atom_site_label_1
_geom_bond_atom_site_label_2
_geom_bond_site_symmetry_1
_geom_bond_site_symmetry_2
Cl1 C2 1_555 1_555
Cl2 C1 1_555 1_555
O1 C3 1_555 1_555
C1 C2 1_555 1_555
C2 C3 1_555 1_555
C3 C1A 1_555 1_555
O2 C17 1_555 1_555
C4 C5 1_555 1_555
C5 C6 1_555 1_555
C6 C13 1_555 1_555
C7 C5 1_555 1_555
C8 C10 1_555 1_555
C9 H1 1_555 1_555
C10 C4 1_555 1_555
C11 H2 1_555 1_555
C12 C11 1_555 1_555
H3 C12 1_555 1_555
C13 C9 1_555 1_555
H4 C13 1_555 1_555
C14 H5 1_555 1_555
C15 C11 1_555 1_555
C16 C4 1_555 1_555
C17 C8 1_555 1_555
C18 C7 1_555 1_555
H6 C18 1_555 1_555
C19 C7 1_555 1_555
H7 C19 1_555 1_555
C20 C6 1_555 1_555
H8 C20 1_555 1_555
C21 C8 1_555 1_555
H9 C21 1_555 1_555
C22 C15 1_555 1_555
H10 C22 1_555 1_555
C23 C16 1_555 1_555
H11 C23 1_555 1_555
C24 C18 1_555 1_555
H12 C24 1_555 1_555
C25 C15 1_555 1_555
H13 C25 1_555 1_555
C26 H14 1_555 1_555
C27 C25 1_555 1_555
H15 C27 1_555 1_555
C28 C22 1_555 1_555
H16 C28 1_555 1_555
Cl1A C2A 1_555 1_555
Cl2A C1A 1_555 1_555
O1A C3A 1_555 1_555
C1A C2A 1_555 1_555
C2A C3A 1_555 1_555
C3A C1 1_555 1_555
C9 C10 1_555 1_555
C12 C17 1_555 1_555
C14 C16 1_555 1_555
C14 C19 1_555 1_555
C20 C24 1_555 1_555
C21 C23 1_555 1_555
C26 C27 1_555 1_555
C26 C28 1_555 1_555

#END
