
#######################################################################
#
#                 Cambridge Crystallographic Data Centre
#                                CCDC 
#
#######################################################################
#
# If this CIF has been generated from an entry in the Cambridge 
# Structural Database, then it will include bibliographic, chemical, 
# crystal, experimental, refinement or atomic coordinate data resulting 
# from the CCDC's data processing and validation procedures.
#
#######################################################################

data_NIQDEY
_chemical_formula_moiety         'C34 H26 N2 O1'
_chemical_name_systematic        
2-(4'-(Diphenylamino)biphenyl-4-yl)-3-(4-methoxyphenyl)acrylonitrile
_symmetry_cell_setting           monoclinic
_symmetry_space_group_name_H-M   'P 21/c'
_symmetry_Int_Tables_number      14
_space_group_name_Hall           '-P 2ybc'
loop_
_symmetry_equiv_pos_site_id
_symmetry_equiv_pos_as_xyz
1 x,y,z
2 -x,1/2+y,1/2-z
3 -x,-y,-z
4 x,1/2-y,1/2+z
_cell_length_a                   6.897(3)
_cell_length_b                   45.92(2)
_cell_length_c                   8.080(4)
_cell_angle_alpha                90
_cell_angle_beta                 94.826(7)
_cell_angle_gamma                90
_cell_volume                     2549.95
_exptl_crystal_colour            yellow
_exptl_crystal_description       needle
_cell_formula_units_Z            4
loop_
_atom_site_label
_atom_site_type_symbol
_atom_site_fract_x
_atom_site_fract_y
_atom_site_fract_z
O1 O 0.5985(5) -0.12719(7) 0.2963(5)
N1 N 1.0111(5) 0.17658(8) 1.3219(4)
N2 N 0.1945(5) -0.01395(9) 0.6981(5)
C1 C 0.6245(6) 0.02157(8) 0.8160(5)
C2 C 0.5638(5) -0.00527(8) 0.7281(5)
C3 C 0.5545(6) 0.06374(8) 0.9789(5)
H1 H 0.4636 0.0748 1.0298
C4 C 0.6546(5) -0.05059(8) 0.5685(5)
C5 C 0.7451(6) 0.07256(8) 0.9897(5)
C6 C 0.8123(5) 0.09944(8) 1.0779(5)
C7 C 0.4945(6) 0.03879(8) 0.8940(5)
H2 H 0.3641 0.0334 0.8891
C8 C 0.3551(7) -0.01040(8) 0.7084(5)
C9 C 1.1620(6) 0.19201(8) 1.2494(5)
C10 C 0.6872(6) -0.02389(8) 0.6635(5)
H3 H 0.8175 -0.0188 0.6831
C11 C 0.9578(6) 0.21641(9) 1.5110(5)
H4 H 1.0352 0.2285 1.4516
C12 C 0.8098(6) -0.06170(8) 0.4927(5)
H5 H 0.9268 -0.0515 0.5023
C13 C 1.1393(7) 0.19850(9) 1.0823(5)
H6 H 1.0299 0.1921 1.0174
C14 C 0.9281(6) 0.18775(9) 1.4602(5)
C15 C 0.9419(6) 0.15046(9) 1.2414(5)
C16 C 0.4698(7) -0.09198(9) 0.4606(6)
H7 H 0.3539 -0.1024 0.4509
C17 C 0.4808(6) -0.06677(9) 0.5481(6)
H8 H 0.3712 -0.0600 0.5956
C18 C 0.8743(6) 0.05522(9) 0.9119(6)
H9 H 1.0049 0.0605 0.9175
C19 C 0.8159(6) 0.03067(9) 0.8275(6)
H10 H 0.9073 0.0197 0.7762
C20 C 0.7989(7) -0.08730(9) 0.4028(6)
H11 H 0.9070 -0.0943 0.3539
C21 C 1.0664(6) 0.12774(10) 1.2279(5)
H12 H 1.1948 0.1291 1.2727
C22 C 1.3278(6) 0.20051(10) 1.3400(6)
H13 H 1.3475 0.1953 1.4513
C23 C 1.0010(6) 0.10253(9) 1.1470(5)
H14 H 1.0874 0.0871 1.1390
C24 C 0.7523(7) 0.14785(9) 1.1756(6)
H15 H 0.6662 0.1632 1.1847
C25 C 0.6272(7) -0.10223(9) 0.3867(5)
C26 C 0.6892(6) 0.12264(9) 1.0964(6)
H16 H 0.5599 0.1212 1.0542
C27 C 1.2810(8) 0.21465(10) 1.0120(6)
H17 H 1.2664 0.2192 0.8995
C28 C 1.4410(7) 0.22385(10) 1.1071(7)
H18 H 1.5341 0.2351 1.0602
C29 C 0.8116(7) 0.17051(11) 1.5519(6)
H19 H 0.7886 0.1512 1.5216
C30 C 0.8757(7) 0.22732(11) 1.6467(6)
H20 H 0.8967 0.2467 1.6771
C31 C 1.4652(7) 0.21660(11) 1.2699(7)
H21 H 1.5761 0.2226 1.3341
C32 C 0.7642(7) 0.21021(14) 1.7370(6)
H22 H 0.7118 0.2175 1.8308
C33 C 0.7294(7) 0.18187(13) 1.6882(6)
H23 H 0.6496 0.1702 1.7476
C34 C 0.7558(9) -0.13962(12) 0.2230(8)
H24 H 0.8081 -0.1257 0.1499
H25 H 0.7125 -0.1566 0.1608
H26 H 0.8548 -0.1451 0.3080
loop_
_geom_bond_atom_site_label_1
_geom_bond_atom_site_label_2
_geom_bond_site_symmetry_1
_geom_bond_site_symmetry_2
O1 C25 1_555 1_555
N1 C9 1_555 1_555
N2 C8 1_555 1_555
C1 C2 1_555 1_555
C2 C8 1_555 1_555
C3 H1 1_555 1_555
C4 C10 1_555 1_555
C5 C3 1_555 1_555
C6 C5 1_555 1_555
C7 C1 1_555 1_555
H2 C7 1_555 1_555
C9 C13 1_555 1_555
C10 C2 1_555 1_555
H3 C10 1_555 1_555
C11 H4 1_555 1_555
C12 C4 1_555 1_555
H5 C12 1_555 1_555
C13 H6 1_555 1_555
C14 N1 1_555 1_555
C15 N1 1_555 1_555
C16 H7 1_555 1_555
C17 C4 1_555 1_555
H8 C17 1_555 1_555
C18 C5 1_555 1_555
H9 C18 1_555 1_555
C19 C1 1_555 1_555
H10 C19 1_555 1_555
C20 C12 1_555 1_555
H11 C20 1_555 1_555
C21 C15 1_555 1_555
H12 C21 1_555 1_555
C22 C9 1_555 1_555
H13 C22 1_555 1_555
C23 C6 1_555 1_555
H14 C23 1_555 1_555
C24 C15 1_555 1_555
H15 C24 1_555 1_555
C25 C16 1_555 1_555
C26 C6 1_555 1_555
H16 C26 1_555 1_555
C27 C13 1_555 1_555
H17 C27 1_555 1_555
C28 C27 1_555 1_555
H18 C28 1_555 1_555
C29 C14 1_555 1_555
H19 C29 1_555 1_555
C30 C11 1_555 1_555
H20 C30 1_555 1_555
C31 C22 1_555 1_555
H21 C31 1_555 1_555
C32 C30 1_555 1_555
H22 C32 1_555 1_555
C33 C29 1_555 1_555
H23 C33 1_555 1_555
C34 O1 1_555 1_555
H24 C34 1_555 1_555
H25 C34 1_555 1_555
H26 C34 1_555 1_555
C3 C7 1_555 1_555
C11 C14 1_555 1_555
C16 C17 1_555 1_555
C18 C19 1_555 1_555
C20 C25 1_555 1_555
C21 C23 1_555 1_555
C24 C26 1_555 1_555
C28 C31 1_555 1_555
C32 C33 1_555 1_555

#END
