
#######################################################################
#
#                 Cambridge Crystallographic Data Centre
#                                CCDC 
#
#######################################################################
#
# If this CIF has been generated from an entry in the Cambridge 
# Structural Database, then it will include bibliographic, chemical, 
# crystal, experimental, refinement or atomic coordinate data resulting 
# from the CCDC's data processing and validation procedures.
#
#######################################################################

data_NIQKIK
_chemical_formula_moiety         'C27 H22 F3 N3 O5,1.5(H2 O1)'
_chemical_name_systematic        
"methyl 1',3'-dimethyl-2',4',6'-trioxo-2-phenyl-4-(trifluoromethyl)-1',3',4',6'-tetrahydro-2H,2'H,11bH-spiro[pyrido[2,1-a]isoquinoline-1,5'-pyrimidine]-3-carboxylate sesquihydrate"
_symmetry_cell_setting           monoclinic
_symmetry_space_group_name_H-M   'P 21/c'
_symmetry_Int_Tables_number      14
_space_group_name_Hall           '-P 2ybc'
loop_
_symmetry_equiv_pos_site_id
_symmetry_equiv_pos_as_xyz
1 x,y,z
2 -x,1/2+y,1/2-z
3 -x,-y,-z
4 x,1/2-y,1/2+z
_cell_length_a                   18.703(14)
_cell_length_b                   12.481(10)
_cell_length_c                   23.253(18)
_cell_angle_alpha                90
_cell_angle_beta                 104.088(10)
_cell_angle_gamma                90
_cell_volume                     5264.74
_cell_formula_units_Z            8
loop_
_atom_site_label
_atom_site_type_symbol
_atom_site_fract_x
_atom_site_fract_y
_atom_site_fract_z
C1 C 0.4753(3) 0.3095(4) 0.2335(3)
H1 H 0.4944 0.3827 0.2410
C2 C 0.4127(3) 0.3145(5) 0.1801(3)
C3 C 0.3653(4) 0.4018(6) 0.1711(3)
H2 H 0.3744 0.4598 0.1970
C4 C 0.3055(5) 0.4021(8) 0.1241(4)
H3 H 0.2740 0.4610 0.1179
C5 C 0.2912(5) 0.3182(10) 0.0863(4)
H4 H 0.2497 0.3193 0.0546
C6 C 0.3369(5) 0.2328(8) 0.0944(4)
H5 H 0.3254 0.1747 0.0688
C7 C 0.4008(4) 0.2296(6) 0.1403(3)
C8 C 0.4551(4) 0.1462(5) 0.1465(3)
H6 H 0.4449 0.0850 0.1231
C9 C 0.5189(4) 0.1557(5) 0.1848(3)
H7 H 0.5542 0.1024 0.1867
C10 C 0.5985(3) 0.2428(4) 0.2695(3)
C11 C 0.5958(3) 0.2669(4) 0.3251(3)
C12 C 0.5253(3) 0.2914(4) 0.3431(3)
H8 H 0.5257 0.3692 0.3489
C13 C 0.4559(3) 0.2692(4) 0.2932(2)
C14 C 0.4368(3) 0.1529(4) 0.2863(3)
C15 C 0.3065(4) 0.1986(5) 0.2605(3)
C16 C 0.3940(3) 0.3382(4) 0.3022(3)
C17 C 0.3456(4) 0.0173(5) 0.2457(4)
H9 H 0.3482 0.0097 0.2052
H10 H 0.2964 0.0017 0.2489
H11 H 0.3795 -0.0316 0.2701
C18 C 0.2621(4) 0.3718(5) 0.2835(4)
H12 H 0.2717 0.4117 0.3199
H13 H 0.2179 0.3305 0.2796
H14 H 0.2561 0.4204 0.2507
C19 C 0.5230(4) 0.2444(6) 0.4026(3)
C20 C 0.5500(4) 0.1441(6) 0.4208(3)
H15 H 0.5695 0.0996 0.3963
C21 C 0.5468(5) 0.1120(9) 0.4779(5)
H16 H 0.5652 0.0450 0.4916
C22 C 0.5176(8) 0.1757(13) 0.5141(5)
H17 H 0.5157 0.1522 0.5517
C23 C 0.4925(6) 0.2694(11) 0.4955(4)
H18 H 0.4726 0.3126 0.5202
C24 C 0.4945(5) 0.3068(8) 0.4410(4)
H19 H 0.4765 0.3749 0.4294
C25 C 0.6630(4) 0.2828(6) 0.3739(3)
C26 C 0.7624(4) 0.2033(8) 0.4400(4)
H20 H 0.7979 0.2523 0.4314
H21 H 0.7847 0.1340 0.4490
H22 H 0.7458 0.2290 0.4734
C27 C 0.6689(3) 0.2227(5) 0.2510(3)
F1 F 0.7261(2) 0.2725(3) 0.28503(19)
F2 F 0.6649(2) 0.2558(4) 0.1968(2)
F3 F 0.6862(2) 0.1195(3) 0.2541(2)
N1 N 0.5355(3) 0.2439(3) 0.2232(2)
N2 N 0.3245(3) 0.2993(4) 0.2841(2)
N3 N 0.3648(3) 0.1274(3) 0.2655(2)
O1 O 0.4835(2) 0.0831(3) 0.2954(2)
O2 O 0.2443(3) 0.1737(4) 0.2391(2)
O3 O 0.4054(2) 0.4289(3) 0.3214(2)
O4 O 0.6764(3) 0.3683(4) 0.3979(2)
O5 O 0.7015(3) 0.1951(4) 0.3901(2)
C28 C -0.0105(3) 0.0178(4) 0.2265(2)
H23 H -0.0121 -0.0548 0.2421
C29 C -0.0405(3) 0.0112(4) 0.1611(2)
C30 C -0.0272(4) -0.0782(5) 0.1304(3)
H24 H -0.0029 -0.1369 0.1509
C31 C -0.0496(5) -0.0806(7) 0.0701(3)
H25 H -0.0401 -0.1408 0.0495
C32 C -0.0852(6) 0.0031(9) 0.0401(4)
H26 H -0.0993 0.0014 -0.0011
C33 C -0.1010(5) 0.0921(8) 0.0703(3)
H27 H -0.1259 0.1498 0.0491
C34 C -0.0804(4) 0.0965(6) 0.1317(3)
C35 C -0.1017(4) 0.1803(5) 0.1659(3)
H28 H -0.1235 0.2419 0.1470
C36 C -0.0909(3) 0.1716(5) 0.2241(3)
H29 H -0.1075 0.2258 0.2450
C37 C -0.0331(3) 0.0852(4) 0.3166(2)
C38 C 0.0346(3) 0.0589(4) 0.3451(2)
C39 C 0.0951(3) 0.0313(4) 0.3153(2)
H30 H 0.0983 -0.0470 0.3170
C40 C 0.0738(3) 0.0585(4) 0.2485(2)
C41 C 0.0762(3) 0.1750(4) 0.2349(2)
C42 C 0.1114(3) 0.1302(4) 0.1435(3)
C43 C 0.1185(3) -0.0094(4) 0.2169(2)
C44 C 0.0745(5) 0.3123(4) 0.1600(3)
H31 H 0.0292 0.3185 0.1300
H32 H 0.1148 0.3348 0.1440
H33 H 0.0723 0.3569 0.1931
C45 C 0.1654(4) -0.0409(5) 0.1291(3)
H34 H 0.2003 -0.0870 0.1546
H35 H 0.1904 0.0022 0.1058
H36 H 0.1284 -0.0836 0.1032
C46 C 0.1701(3) 0.0695(5) 0.3482(3)
C47 C 0.1819(4) 0.1722(6) 0.3731(3)
H37 H 0.1433 0.2210 0.3684
C48 C 0.2523(6) 0.1992(9) 0.4049(4)
H38 H 0.2614 0.2667 0.4221
C49 C 0.3096(7) 0.1247(14) 0.4111(5)
H39 H 0.3569 0.1430 0.4324
C50 C 0.2971(5) 0.0288(12) 0.3870(5)
H40 H 0.3358 -0.0195 0.3909
C51 C 0.2293(4) -0.0001(7) 0.3569(3)
H41 H 0.2218 -0.0690 0.3415
C52 C 0.0564(3) 0.0439(5) 0.4104(2)
C53 C 0.0741(5) 0.1269(6) 0.5027(3)
H42 H 0.0323 0.1035 0.5166
H43 H 0.0895 0.1962 0.5190
H44 H 0.1137 0.0768 0.5151
C54 C -0.0947(3) 0.1076(4) 0.3463(3)
F4 F -0.1597(2) 0.0826(4) 0.31293(19)
F5 F -0.0874(2) 0.0523(3) 0.39648(17)
F6 F -0.0980(2) 0.2101(3) 0.36103(18)
N4 N -0.0556(2) 0.0841(3) 0.25443(19)
N5 N 0.0856(3) 0.2000(3) 0.17958(19)
N6 N 0.1304(2) 0.0290(3) 0.16505(18)
O6 O 0.0648(2) 0.2436(3) 0.26787(16)
O7 O 0.1177(3) 0.1566(3) 0.09530(19)
O8 O 0.1381(2) -0.0989(3) 0.23385(18)
O9 O 0.0771(3) -0.0413(3) 0.43310(19)
O10 O 0.0540(3) 0.1332(3) 0.43936(17)
O11 O 0.2972(4) 0.6950(8) 0.4230(3)
H45 H 0.3115 0.7748 0.4230
H46 H 0.3316 0.6745 0.4478
O12 O 0.3468(6) 0.4780(5) 0.4691(3)
H47 H 0.3810 0.4461 0.4878
H48 H 0.3147 0.4619 0.4827
H49? H 0.3240 0.5684 0.4599
H50? H 0.2746 0.6259 0.4113
O13? O 0.3119(15) 0.586(2) 0.4235(11)
loop_
_geom_bond_atom_site_label_1
_geom_bond_atom_site_label_2
_geom_bond_site_symmetry_1
_geom_bond_site_symmetry_2
C1 H1 1_555 1_555
C2 C1 1_555 1_555
C3 C2 1_555 1_555
H2 C3 1_555 1_555
C4 C3 1_555 1_555
H3 C4 1_555 1_555
C5 C4 1_555 1_555
H4 C5 1_555 1_555
C6 C5 1_555 1_555
H5 C6 1_555 1_555
C7 C2 1_555 1_555
C8 C7 1_555 1_555
H6 C8 1_555 1_555
C9 C8 1_555 1_555
H7 C9 1_555 1_555
C10 C11 1_555 1_555
C11 C12 1_555 1_555
C12 H8 1_555 1_555
C13 C1 1_555 1_555
C14 C13 1_555 1_555
C15 N2 1_555 1_555
C16 C13 1_555 1_555
C17 H9 1_555 1_555
H10 C17 1_555 1_555
H11 C17 1_555 1_555
C18 H12 1_555 1_555
H13 C18 1_555 1_555
H14 C18 1_555 1_555
C19 C12 1_555 1_555
C20 C19 1_555 1_555
H15 C20 1_555 1_555
C21 C20 1_555 1_555
H16 C21 1_555 1_555
C22 C21 1_555 1_555
H17 C22 1_555 1_555
C23 C22 1_555 1_555
H18 C23 1_555 1_555
C24 C19 1_555 1_555
H19 C24 1_555 1_555
C25 C11 1_555 1_555
C26 H20 1_555 1_555
H21 C26 1_555 1_555
H22 C26 1_555 1_555
C27 C10 1_555 1_555
F1 C27 1_555 1_555
F2 C27 1_555 1_555
F3 C27 1_555 1_555
N1 C1 1_555 1_555
N2 C16 1_555 1_555
N3 C14 1_555 1_555
O1 C14 1_555 1_555
O2 C15 1_555 1_555
O3 C16 1_555 1_555
O4 C25 1_555 1_555
O5 C25 1_555 1_555
C28 H23 1_555 1_555
C29 C28 1_555 1_555
C30 C29 1_555 1_555
H24 C30 1_555 1_555
C31 C30 1_555 1_555
H25 C31 1_555 1_555
C32 C31 1_555 1_555
H26 C32 1_555 1_555
C33 C32 1_555 1_555
H27 C33 1_555 1_555
C34 C29 1_555 1_555
C35 C34 1_555 1_555
H28 C35 1_555 1_555
C36 C35 1_555 1_555
H29 C36 1_555 1_555
C37 C38 1_555 1_555
C38 C39 1_555 1_555
C39 H30 1_555 1_555
C40 C28 1_555 1_555
C41 C40 1_555 1_555
C42 N5 1_555 1_555
C43 C40 1_555 1_555
C44 H31 1_555 1_555
H32 C44 1_555 1_555
H33 C44 1_555 1_555
C45 H34 1_555 1_555
H35 C45 1_555 1_555
H36 C45 1_555 1_555
C46 C39 1_555 1_555
C47 C46 1_555 1_555
H37 C47 1_555 1_555
C48 C47 1_555 1_555
H38 C48 1_555 1_555
C49 C48 1_555 1_555
H39 C49 1_555 1_555
C50 C49 1_555 1_555
H40 C50 1_555 1_555
C51 C46 1_555 1_555
H41 C51 1_555 1_555
C52 C38 1_555 1_555
C53 H42 1_555 1_555
H43 C53 1_555 1_555
H44 C53 1_555 1_555
C54 C37 1_555 1_555
F4 C54 1_555 1_555
F5 C54 1_555 1_555
F6 C54 1_555 1_555
N4 C28 1_555 1_555
N5 C41 1_555 1_555
N6 C42 1_555 1_555
O6 C41 1_555 1_555
O7 C42 1_555 1_555
O8 C43 1_555 1_555
O9 C52 1_555 1_555
O10 C52 1_555 1_555
O11 H45 1_555 1_555
H46 O11 1_555 1_555
O12 H47 1_555 1_555
H48 O12 1_555 1_555
C6 C7 1_555 1_555
C9 N1 1_555 1_555
C10 N1 1_555 1_555
C12 C13 1_555 1_555
C15 N3 1_555 1_555
C17 N3 1_555 1_555
C18 N2 1_555 1_555
C23 C24 1_555 1_555
C26 O5 1_555 1_555
C33 C34 1_555 1_555
C36 N4 1_555 1_555
C37 N4 1_555 1_555
C39 C40 1_555 1_555
C43 N6 1_555 1_555
C44 N5 1_555 1_555
C45 N6 1_555 1_555
C50 C51 1_555 1_555
C53 O10 1_555 1_555

#END
