
#######################################################################
#
#                 Cambridge Crystallographic Data Centre
#                                CCDC 
#
#######################################################################
#
# If this CIF has been generated from an entry in the Cambridge 
# Structural Database, then it will include bibliographic, chemical, 
# crystal, experimental, refinement or atomic coordinate data resulting 
# from the CCDC's data processing and validation procedures.
#
#######################################################################

data_NIQPUB
_chemical_formula_moiety         'C33 H44 B1 N1'
_chemical_name_systematic        
6-t-butyl-12-[2,4,6-triisopropylphenyl]-7,12-dihydro-5H-[2,1]benzazaborolo[1,2-a][2,1]benzazaborol-6-ium-12-ide
_symmetry_cell_setting           monoclinic
_symmetry_space_group_name_H-M   'P 21/n'
_symmetry_Int_Tables_number      14
_space_group_name_Hall           '-P 2yn'
loop_
_symmetry_equiv_pos_site_id
_symmetry_equiv_pos_as_xyz
1 x,y,z
2 1/2-x,1/2+y,1/2-z
3 -x,-y,-z
4 1/2+x,1/2-y,1/2+z
_cell_length_a                   10.013(6)
_cell_length_b                   19.586(19)
_cell_length_c                   14.240(10)
_cell_angle_alpha                90
_cell_angle_beta                 97.217(19)
_cell_angle_gamma                90
_cell_volume                     2770.55
_exptl_crystal_colour            yellow
_exptl_crystal_description       Block
_cell_formula_units_Z            4
loop_
_atom_site_label
_atom_site_type_symbol
_atom_site_fract_x
_atom_site_fract_y
_atom_site_fract_z
N1 N 0.18675(17) 0.31006(8) 0.60315(13)
C1 C 0.2015(2) 0.44035(10) 0.62969(14)
C2 C 0.2259(2) 0.51006(11) 0.64503(16)
H1 H 0.3159 0.5265 0.6549
C3 C 0.1197(2) 0.55528(11) 0.64589(17)
H2 H 0.1374 0.6024 0.6576
C4 C -0.0113(2) 0.53252(11) 0.62986(17)
H3 H -0.0835 0.5636 0.6326
C5 C -0.0376(2) 0.46460(11) 0.60985(16)
H4 H -0.1278 0.4488 0.5971
C6 C 0.0683(2) 0.41988(10) 0.60856(15)
C7 C 0.0549(2) 0.34759(11) 0.57395(16)
H5 H 0.0334 0.3470 0.5042
H6 H -0.0192 0.3246 0.6015
C8 C 0.3224(2) 0.38226(11) 0.50474(15)
C9 C 0.3678(2) 0.43562(12) 0.45274(16)
H7 H 0.3989 0.4765 0.4842
C10 C 0.3686(2) 0.43025(13) 0.35539(17)
H8 H 0.4016 0.4669 0.3212
C11 C 0.3213(2) 0.37154(14) 0.30813(17)
H9 H 0.3234 0.3676 0.2418
C12 C 0.2712(2) 0.31888(12) 0.35768(16)
H10 H 0.2366 0.2789 0.3256
C13 C 0.2717(2) 0.32490(11) 0.45474(15)
C14 C 0.2207(2) 0.27255(11) 0.51739(16)
H11 H 0.2904 0.2375 0.5356
H12 H 0.1397 0.2497 0.4846
C15 C 0.1712(2) 0.25980(11) 0.68448(18)
C16 C 0.3098(3) 0.23344(13) 0.7260(2)
H13 H 0.3515 0.2095 0.6767
H14 H 0.3000 0.2019 0.7781
H15 H 0.3667 0.2720 0.7497
C17 C 0.0830(3) 0.19871(12) 0.6489(2)
H16 H -0.0023 0.2152 0.6155
H17 H 0.0652 0.1706 0.7029
H18 H 0.1299 0.1713 0.6057
C18 C 0.1048(3) 0.29606(13) 0.76200(18)
H19 H 0.1487 0.3403 0.7761
H20 H 0.1142 0.2679 0.8193
H21 H 0.0091 0.3033 0.7401
C19 C 0.4484(2) 0.37876(10) 0.68994(15)
C20 C 0.4646(2) 0.41211(11) 0.78029(15)
C21 C 0.5915(2) 0.42585(11) 0.82818(16)
H22 H 0.5972 0.4490 0.8872
C22 C 0.7097(2) 0.40748(11) 0.79414(15)
C23 C 0.6950(2) 0.36885(11) 0.71193(15)
H23 H 0.7739 0.3522 0.6889
C24 C 0.5703(2) 0.35316(10) 0.66120(15)
C25 C 0.3480(2) 0.43033(12) 0.83565(16)
H24 H 0.2618 0.4228 0.7933
C26 C 0.3491(3) 0.38312(15) 0.92117(18)
H25 H 0.3496 0.3355 0.9002
H26 H 0.2687 0.3915 0.9522
H27 H 0.4298 0.3921 0.9660
C27 C 0.3503(3) 0.50458(14) 0.87029(19)
H28 H 0.3563 0.5354 0.8168
H29 H 0.4284 0.5115 0.9181
H30 H 0.2676 0.5142 0.8981
C28 C 0.8479(2) 0.42471(11) 0.84457(16)
H31 H 0.9144 0.4151 0.7994
C29 C 0.8846(3) 0.37965(13) 0.93066(19)
H32 H 0.8810 0.3316 0.9112
H33 H 0.8208 0.3875 0.9764
H34 H 0.9758 0.3908 0.9600
C30 C 0.8620(3) 0.49972(13) 0.87164(19)
H35 H 0.8393 0.5280 0.8151
H36 H 0.9549 0.5090 0.8991
H37 H 0.8009 0.5105 0.9182
C31 C 0.5761(2) 0.30491(11) 0.57770(15)
H38 H 0.4816 0.2959 0.5487
C32 C 0.6392(3) 0.23638(12) 0.61051(19)
H39 H 0.6329 0.2047 0.5569
H40 H 0.5910 0.2173 0.6603
H41 H 0.7340 0.2433 0.6354
C33 C 0.6522(2) 0.33533(14) 0.50064(17)
H42 H 0.6446 0.3045 0.4460
H43 H 0.7473 0.3411 0.5256
H44 H 0.6133 0.3798 0.4811
B1 B 0.3070(2) 0.38125(12) 0.61554(18)
loop_
_geom_bond_atom_site_label_1
_geom_bond_atom_site_label_2
_geom_bond_site_symmetry_1
_geom_bond_site_symmetry_2
N1 C7 1_555 1_555
C1 C2 1_555 1_555
C2 H1 1_555 1_555
C3 C2 1_555 1_555
H2 C3 1_555 1_555
C4 C3 1_555 1_555
H3 C4 1_555 1_555
C5 C4 1_555 1_555
H4 C5 1_555 1_555
C6 C1 1_555 1_555
C7 C6 1_555 1_555
H5 C7 1_555 1_555
H6 C7 1_555 1_555
C8 C9 1_555 1_555
C9 H7 1_555 1_555
C10 C9 1_555 1_555
H8 C10 1_555 1_555
C11 C10 1_555 1_555
H9 C11 1_555 1_555
C12 C11 1_555 1_555
H10 C12 1_555 1_555
C13 C8 1_555 1_555
C14 N1 1_555 1_555
H11 C14 1_555 1_555
H12 C14 1_555 1_555
C15 N1 1_555 1_555
C16 C15 1_555 1_555
H13 C16 1_555 1_555
H14 C16 1_555 1_555
H15 C16 1_555 1_555
C17 C15 1_555 1_555
H16 C17 1_555 1_555
H17 C17 1_555 1_555
H18 C17 1_555 1_555
C18 C15 1_555 1_555
H19 C18 1_555 1_555
H20 C18 1_555 1_555
H21 C18 1_555 1_555
C19 C20 1_555 1_555
C20 C21 1_555 1_555
C21 H22 1_555 1_555
C22 C21 1_555 1_555
C23 C22 1_555 1_555
H23 C23 1_555 1_555
C24 C19 1_555 1_555
C25 C20 1_555 1_555
H24 C25 1_555 1_555
C26 C25 1_555 1_555
H25 C26 1_555 1_555
H26 C26 1_555 1_555
H27 C26 1_555 1_555
C27 C25 1_555 1_555
H28 C27 1_555 1_555
H29 C27 1_555 1_555
H30 C27 1_555 1_555
C28 C22 1_555 1_555
H31 C28 1_555 1_555
C29 C28 1_555 1_555
H32 C29 1_555 1_555
H33 C29 1_555 1_555
H34 C29 1_555 1_555
C30 C28 1_555 1_555
H35 C30 1_555 1_555
H36 C30 1_555 1_555
H37 C30 1_555 1_555
C31 C24 1_555 1_555
H38 C31 1_555 1_555
C32 C31 1_555 1_555
H39 C32 1_555 1_555
H40 C32 1_555 1_555
H41 C32 1_555 1_555
C33 C31 1_555 1_555
H42 C33 1_555 1_555
H43 C33 1_555 1_555
H44 C33 1_555 1_555
B1 N1 1_555 1_555
C1 B1 1_555 1_555
C5 C6 1_555 1_555
C8 B1 1_555 1_555
C12 C13 1_555 1_555
C13 C14 1_555 1_555
C19 B1 1_555 1_555
C23 C24 1_555 1_555

#END
