
#######################################################################
#
#                 Cambridge Crystallographic Data Centre
#                                CCDC 
#
#######################################################################
#
# If this CIF has been generated from an entry in the Cambridge 
# Structural Database, then it will include bibliographic, chemical, 
# crystal, experimental, refinement or atomic coordinate data resulting 
# from the CCDC's data processing and validation procedures.
#
#######################################################################

data_NIQQEM
_chemical_formula_moiety         'C35 H40 B1 N1'
_chemical_name_systematic        
6-phenyl-12-[2,4,6-triisopropylphenyl]-7,12-dihydro-5H-[2,1]benzazaborolo[1,2-a][2,1]benzazaborol-6-ium-12-ide
_symmetry_cell_setting           orthorhombic
_symmetry_space_group_name_H-M   'P b c a'
_symmetry_Int_Tables_number      61
_space_group_name_Hall           '-P 2ac 2ab'
loop_
_symmetry_equiv_pos_site_id
_symmetry_equiv_pos_as_xyz
1 x,y,z
2 1/2-x,-y,1/2+z
3 1/2+x,1/2-y,-z
4 -x,1/2+y,1/2-z
5 -x,-y,-z
6 1/2+x,y,1/2-z
7 1/2-x,1/2+y,z
8 x,1/2-y,1/2+z
_cell_length_a                   15.548(3)
_cell_length_b                   18.435(4)
_cell_length_c                   19.394(4)
_cell_angle_alpha                90
_cell_angle_beta                 90
_cell_angle_gamma                90
_cell_volume                     5558.85
_exptl_crystal_colour            yellow
_exptl_crystal_description       Block
_cell_formula_units_Z            8
loop_
_atom_site_label
_atom_site_type_symbol
_atom_site_fract_x
_atom_site_fract_y
_atom_site_fract_z
B1 B 0.47370(13) 0.11926(11) 0.13603(10)
C1 C 0.49577(11) 0.18860(10) 0.08921(9)
N1 N 0.50970(9) 0.15622(8) 0.21699(7)
C2 C 0.47762(12) 0.20170(11) 0.01977(10)
H1 H 0.4444 0.1676 -0.0056
C3 C 0.50744(14) 0.26383(11) -0.01255(11)
H2 H 0.4940 0.2723 -0.0597
C4 C 0.55667(13) 0.31372(11) 0.02339(11)
H3 H 0.5756 0.3569 0.0013
C5 C 0.57838(13) 0.30077(10) 0.09162(11)
H4 H 0.6134 0.3342 0.1162
C6 C 0.54835(11) 0.23833(10) 0.12365(10)
C7 C 0.57392(12) 0.21335(10) 0.19422(10)
H5 H 0.5735 0.2547 0.2268
H6 H 0.6326 0.1926 0.1932
C8 C 0.56121(12) 0.09561(10) 0.24950(9)
H7 H 0.6055 0.1152 0.2811
H8 H 0.5233 0.0623 0.2756
C9 C 0.60228(11) 0.05709(10) 0.18944(9)
C10 C 0.67695(12) 0.01627(11) 0.19233(10)
H9 H 0.7086 0.0122 0.2341
C11 C 0.70464(13) -0.01862(11) 0.13292(11)
H10 H 0.7550 -0.0478 0.1342
C12 C 0.65923(13) -0.01124(11) 0.07154(11)
H11 H 0.6790 -0.0349 0.0310
C13 C 0.58528(12) 0.03052(10) 0.06955(10)
H12 H 0.5550 0.0359 0.0273
C14 C 0.55448(11) 0.06486(9) 0.12897(9)
C15 C 0.37511(11) 0.08685(9) 0.13529(8)
C16 C 0.30338(11) 0.13070(9) 0.11641(8)
C17 C 0.22394(11) 0.09961(10) 0.10122(9)
H13 H 0.1780 0.1306 0.0880
C18 C 0.20881(12) 0.02572(10) 0.10448(9)
C19 C 0.27618(12) -0.01666(10) 0.12749(9)
H14 H 0.2673 -0.0674 0.1321
C20 C 0.35662(11) 0.01165(9) 0.14424(9)
C21 C 0.12211(12) -0.00583(11) 0.08419(10)
H15 H 0.0789 0.0342 0.0875
C22 C 0.09196(14) -0.06655(12) 0.13199(11)
H16 H 0.1291 -0.1091 0.1260
H17 H 0.0325 -0.0796 0.1207
H18 H 0.0950 -0.0500 0.1799
C23 C 0.12316(14) -0.03144(13) 0.00928(11)
H19 H 0.1370 0.0095 -0.0210
H20 H 0.0665 -0.0508 -0.0030
H21 H 0.1667 -0.0694 0.0037
C24 C 0.30286(11) 0.21395(9) 0.11675(9)
H22 H 0.3621 0.2311 0.1286
C25 C 0.24098(13) 0.24114(10) 0.17253(11)
H23 H 0.1816 0.2327 0.1577
H24 H 0.2500 0.2932 0.1799
H25 H 0.2518 0.2150 0.2156
C26 C 0.27737(13) 0.24718(11) 0.04698(10)
H26 H 0.2175 0.2348 0.0366
H27 H 0.3149 0.2279 0.0107
H28 H 0.2835 0.3000 0.0492
C27 C 0.41876(12) -0.04381(10) 0.17516(9)
H29 H 0.4738 -0.0179 0.1855
C28 C 0.38432(13) -0.07420(10) 0.24343(10)
H30 H 0.3324 -0.1028 0.2346
H31 H 0.3704 -0.0340 0.2746
H32 H 0.4282 -0.1051 0.2647
C29 C 0.43956(13) -0.10527(11) 0.12506(11)
H33 H 0.3864 -0.1307 0.1126
H34 H 0.4795 -0.1393 0.1470
H35 H 0.4661 -0.0852 0.0834
C30 C 0.44238(12) 0.18565(10) 0.26270(9)
C31 C 0.42662(13) 0.25954(11) 0.26651(11)
H36 H 0.4583 0.2920 0.2382
C32 C 0.36497(14) 0.28622(13) 0.31137(12)
H37 H 0.3555 0.3371 0.3141
C33 C 0.31714(14) 0.24024(14) 0.35212(11)
H38 H 0.2762 0.2591 0.3837
C34 C 0.32960(14) 0.16630(14) 0.34637(11)
H39 H 0.2957 0.1339 0.3731
C35 C 0.39142(13) 0.13907(12) 0.30179(10)
H40 H 0.3991 0.0881 0.2979
loop_
_geom_bond_atom_site_label_1
_geom_bond_atom_site_label_2
_geom_bond_site_symmetry_1
_geom_bond_site_symmetry_2
B1 C1 1_555 1_555
C1 C2 1_555 1_555
N1 B1 1_555 1_555
C2 H1 1_555 1_555
C3 C2 1_555 1_555
H2 C3 1_555 1_555
C4 C3 1_555 1_555
H3 C4 1_555 1_555
C5 C4 1_555 1_555
H4 C5 1_555 1_555
C6 C1 1_555 1_555
C7 N1 1_555 1_555
H5 C7 1_555 1_555
H6 C7 1_555 1_555
C8 N1 1_555 1_555
H7 C8 1_555 1_555
H8 C8 1_555 1_555
C9 C8 1_555 1_555
C10 C9 1_555 1_555
H9 C10 1_555 1_555
C11 C10 1_555 1_555
H10 C11 1_555 1_555
C12 C11 1_555 1_555
H11 C12 1_555 1_555
C13 C12 1_555 1_555
H12 C13 1_555 1_555
C14 B1 1_555 1_555
C15 B1 1_555 1_555
C16 C15 1_555 1_555
C17 C16 1_555 1_555
H13 C17 1_555 1_555
C18 C17 1_555 1_555
C19 C18 1_555 1_555
H14 C19 1_555 1_555
C20 C15 1_555 1_555
C21 C18 1_555 1_555
H15 C21 1_555 1_555
C22 C21 1_555 1_555
H16 C22 1_555 1_555
H17 C22 1_555 1_555
H18 C22 1_555 1_555
C23 C21 1_555 1_555
H19 C23 1_555 1_555
H20 C23 1_555 1_555
H21 C23 1_555 1_555
C24 C16 1_555 1_555
H22 C24 1_555 1_555
C25 C24 1_555 1_555
H23 C25 1_555 1_555
H24 C25 1_555 1_555
H25 C25 1_555 1_555
C26 C24 1_555 1_555
H26 C26 1_555 1_555
H27 C26 1_555 1_555
H28 C26 1_555 1_555
C27 C20 1_555 1_555
H29 C27 1_555 1_555
C28 C27 1_555 1_555
H30 C28 1_555 1_555
H31 C28 1_555 1_555
H32 C28 1_555 1_555
C29 C27 1_555 1_555
H33 C29 1_555 1_555
H34 C29 1_555 1_555
H35 C29 1_555 1_555
C30 N1 1_555 1_555
C31 C30 1_555 1_555
H36 C31 1_555 1_555
C32 C31 1_555 1_555
H37 C32 1_555 1_555
C33 C32 1_555 1_555
H38 C33 1_555 1_555
C34 C33 1_555 1_555
H39 C34 1_555 1_555
C35 C30 1_555 1_555
H40 C35 1_555 1_555
C5 C6 1_555 1_555
C6 C7 1_555 1_555
C9 C14 1_555 1_555
C13 C14 1_555 1_555
C19 C20 1_555 1_555
C34 C35 1_555 1_555

#END
