
#######################################################################
#
#                 Cambridge Crystallographic Data Centre
#                                CCDC 
#
#######################################################################
#
# If this CIF has been generated from an entry in the Cambridge 
# Structural Database, then it will include bibliographic, chemical, 
# crystal, experimental, refinement or atomic coordinate data resulting 
# from the CCDC's data processing and validation procedures.
#
#######################################################################

data_NIQQAI
_chemical_formula_moiety         'C39 H48 B1 N1'
_chemical_name_systematic        
6-(4-butylphenyl)-12-[2,4,6-triisopropylphenyl]-7,12-dihydro-5H-[2,1]benzazaborolo[1,2-a][2,1]benzazaborol-6-ium-12-ide
_symmetry_cell_setting           triclinic
_symmetry_space_group_name_H-M   'P -1'
_symmetry_Int_Tables_number      2
_space_group_name_Hall           '-P 1'
loop_
_symmetry_equiv_pos_site_id
_symmetry_equiv_pos_as_xyz
1 x,y,z
2 -x,-y,-z
_cell_length_a                   9.507(9)
_cell_length_b                   10.221(11)
_cell_length_c                   17.637(19)
_cell_angle_alpha                77.75(3)
_cell_angle_beta                 87.95(3)
_cell_angle_gamma                75.19(3)
_cell_volume                     1618.84
_exptl_crystal_colour            yellow
_exptl_crystal_description       Block
_cell_formula_units_Z            2
loop_
_atom_site_label
_atom_site_type_symbol
_atom_site_fract_x
_atom_site_fract_y
_atom_site_fract_z
B1 B 0.6371(4) 0.3179(4) 0.3523(2)
C1 C 0.5085(4) 0.2387(4) 0.3689(2)
N1 N 0.7728(3) 0.1816(3) 0.32476(17)
C2 C 0.3660(4) 0.2893(4) 0.3895(2)
H1 H 0.3303 0.3851 0.3894
C3 C 0.2740(4) 0.2003(4) 0.4107(2)
H2 H 0.1763 0.2360 0.4243
C4 C 0.3260(4) 0.0595(4) 0.4119(2)
H3 H 0.2628 0.0000 0.4250
C5 C 0.4673(4) 0.0066(4) 0.3942(2)
H4 H 0.5034 -0.0898 0.3962
C6 C 0.5588(4) 0.0962(3) 0.3731(2)
C7 C 0.7204(4) 0.0530(3) 0.3638(2)
H5 H 0.7449 -0.0175 0.3314
H6 H 0.7691 0.0121 0.4152
C8 C 0.7116(4) 0.2987(3) 0.4366(2)
C9 C 0.6468(4) 0.3386(4) 0.5038(2)
H7 H 0.5476 0.3890 0.5016
C10 C 0.7257(5) 0.3057(4) 0.5740(2)
H8 H 0.6807 0.3349 0.6187
C11 C 0.8702(5) 0.2301(4) 0.5777(2)
H9 H 0.9250 0.2096 0.6246
C12 C 0.9342(4) 0.1845(4) 0.5135(2)
H10 H 1.0321 0.1305 0.5167
C13 C 0.8549(4) 0.2179(4) 0.4435(2)
C14 C 0.9086(4) 0.1766(4) 0.3689(2)
H11 H 0.9742 0.0821 0.3790
H12 H 0.9619 0.2418 0.3392
C15 C 0.7990(4) 0.1939(4) 0.2397(2)
C16 C 0.8661(4) 0.2957(4) 0.2011(2)
H13 H 0.8899 0.3577 0.2287
C17 C 0.8984(5) 0.3072(5) 0.1226(2)
H14 H 0.9481 0.3742 0.0982
C18 C 0.8589(5) 0.2221(5) 0.0787(2)
C19 C 0.7890(5) 0.1241(5) 0.1177(3)
H15 H 0.7614 0.0645 0.0897
C20 C 0.7575(5) 0.1100(5) 0.1969(3)
H16 H 0.7078 0.0430 0.2213
C21 C 0.8864(6) 0.2373(6) -0.0085(3)
H17 H 0.9024 0.1444 -0.0205
H18 H 0.7956 0.2955 -0.0361
C22 C 1.0043(8) 0.2944(10) -0.0423(4)
H19 H 0.9792 0.3927 -0.0380
H20 H 1.0040 0.2938 -0.0983
C23 C 1.1540(7) 0.2340(9) -0.0136(4)
H21 H 1.1817 0.1364 -0.0192
H22 H 1.1557 0.2332 0.0425
C24 C 1.2682(8) 0.3010(10) -0.0506(5)
H23 H 1.3622 0.2321 -0.0457
H24 H 1.2744 0.3753 -0.0248
H25 H 1.2433 0.3396 -0.1056
C25 C 0.5979(4) 0.4706(4) 0.2932(2)
C26 C 0.4814(4) 0.5068(4) 0.2366(2)
C27 C 0.4152(5) 0.6452(4) 0.2063(3)
H26 H 0.3357 0.6668 0.1708
C28 C 0.4599(5) 0.7536(4) 0.2256(3)
C29 C 0.5822(5) 0.7190(4) 0.2717(3)
H27 H 0.6198 0.7912 0.2820
C30 C 0.6543(4) 0.5817(4) 0.3043(2)
C31 C 0.4333(4) 0.4013(4) 0.2002(2)
H28 H 0.4838 0.3066 0.2293
C32 C 0.4855(5) 0.4163(5) 0.1144(3)
H29 H 0.4672 0.3415 0.0926
H30 H 0.5899 0.4109 0.1133
H31 H 0.4321 0.5057 0.0837
C33 C 0.2689(5) 0.4129(6) 0.2016(3)
H32 H 0.2375 0.3948 0.2555
H33 H 0.2477 0.3450 0.1749
H34 H 0.2165 0.5063 0.1753
C34 C 0.3851(7) 0.9068(5) 0.1944(4)
C35 C 0.2248(7) 0.9372(6) 0.2105(4)
H35 H 0.2105 0.9118 0.2665
H36 H 0.1792 0.8836 0.1836
H37 H 0.1803 1.0362 0.1919
C36 C 0.7988(4) 0.5604(4) 0.3455(2)
H38 H 0.8400 0.4585 0.3634
C37 C 0.9091(5) 0.6167(5) 0.2895(3)
H39 H 0.9164 0.5775 0.2429
H40 H 1.0048 0.5903 0.3154
H41 H 0.8761 0.7178 0.2747
C38 C 0.7861(5) 0.6260(5) 0.4174(3)
H42 H 0.7188 0.5890 0.4540
H43 H 0.7494 0.7266 0.4014
H44 H 0.8821 0.6039 0.4424
C39 C 0.4353(12) 0.9538(10) 0.1117(6)
H45 H 0.3894 1.0525 0.0929
H46 H 0.4071 0.9003 0.0775
H47 H 0.5413 0.9387 0.1119
C40? C 0.4342(17) 0.9999(12) 0.1662(13)
H48? H 0.4935 1.0185 0.2050
H49? H 0.3550 1.0823 0.1476
H50? H 0.4949 0.9765 0.1225
loop_
_geom_bond_atom_site_label_1
_geom_bond_atom_site_label_2
_geom_bond_site_symmetry_1
_geom_bond_site_symmetry_2
B1 C1 1_555 1_555
C1 C2 1_555 1_555
N1 B1 1_555 1_555
C2 H1 1_555 1_555
C3 C2 1_555 1_555
H2 C3 1_555 1_555
C4 C3 1_555 1_555
H3 C4 1_555 1_555
C5 C4 1_555 1_555
H4 C5 1_555 1_555
C6 C1 1_555 1_555
C7 N1 1_555 1_555
H5 C7 1_555 1_555
H6 C7 1_555 1_555
C8 B1 1_555 1_555
C9 C8 1_555 1_555
H7 C9 1_555 1_555
C10 C9 1_555 1_555
H8 C10 1_555 1_555
C11 C10 1_555 1_555
H9 C11 1_555 1_555
C12 C11 1_555 1_555
H10 C12 1_555 1_555
C13 C8 1_555 1_555
C14 N1 1_555 1_555
H11 C14 1_555 1_555
H12 C14 1_555 1_555
C15 N1 1_555 1_555
C16 C15 1_555 1_555
H13 C16 1_555 1_555
C17 C16 1_555 1_555
H14 C17 1_555 1_555
C18 C17 1_555 1_555
C19 C18 1_555 1_555
H15 C19 1_555 1_555
C20 C15 1_555 1_555
H16 C20 1_555 1_555
C21 C18 1_555 1_555
H17 C21 1_555 1_555
H18 C21 1_555 1_555
C22 C21 1_555 1_555
H19 C22 1_555 1_555
H20 C22 1_555 1_555
C23 C22 1_555 1_555
H21 C23 1_555 1_555
H22 C23 1_555 1_555
C24 C23 1_555 1_555
H23 C24 1_555 1_555
H24 C24 1_555 1_555
H25 C24 1_555 1_555
C25 B1 1_555 1_555
C26 C25 1_555 1_555
C27 C26 1_555 1_555
H26 C27 1_555 1_555
C28 C27 1_555 1_555
C29 C28 1_555 1_555
H27 C29 1_555 1_555
C30 C25 1_555 1_555
C31 C26 1_555 1_555
H28 C31 1_555 1_555
C32 C31 1_555 1_555
H29 C32 1_555 1_555
H30 C32 1_555 1_555
H31 C32 1_555 1_555
C33 C31 1_555 1_555
H32 C33 1_555 1_555
H33 C33 1_555 1_555
H34 C33 1_555 1_555
C34 C28 1_555 1_555
C35 C34 1_555 1_555
H35 C35 1_555 1_555
H36 C35 1_555 1_555
H37 C35 1_555 1_555
C36 C30 1_555 1_555
H38 C36 1_555 1_555
C37 C36 1_555 1_555
H39 C37 1_555 1_555
H40 C37 1_555 1_555
H41 C37 1_555 1_555
C38 C36 1_555 1_555
H42 C38 1_555 1_555
H43 C38 1_555 1_555
H44 C38 1_555 1_555
C39 C34 1_555 1_555
H45 C39 1_555 1_555
H46 C39 1_555 1_555
H47 C39 1_555 1_555
C5 C6 1_555 1_555
C6 C7 1_555 1_555
C12 C13 1_555 1_555
C13 C14 1_555 1_555
C19 C20 1_555 1_555
C29 C30 1_555 1_555

#END
