
#######################################################################
#
#                 Cambridge Crystallographic Data Centre
#                                CCDC 
#
#######################################################################
#
# If this CIF has been generated from an entry in the Cambridge 
# Structural Database, then it will include bibliographic, chemical, 
# crystal, experimental, refinement or atomic coordinate data resulting 
# from the CCDC's data processing and validation procedures.
#
#######################################################################

data_NIQVIT
_chemical_name_common            'Irbesartan bromide sesquihydrate'
_chemical_formula_moiety         'C25 H29 N6 O1 1+,Br1 1-,1.5(H2 O1)'
_chemical_name_systematic        
"2-n-Butyl-3-(2'-(1H-tetrazol-5-yl)biphenyl-4-ylmethyl)-1-azonia-3-azaspiro(4.4)non-1-en-4-one bromide sesquihydrate"
_chemical_properties_biological  
'The cation, Irbesartan, is an antihypertensive agent that inhibits the renin-angiotensin system by selectively blocking the AT1 subtype of receptors'
_symmetry_cell_setting           monoclinic
_symmetry_space_group_name_H-M   'P 21/c'
_symmetry_Int_Tables_number      14
_space_group_name_Hall           '-P 2ybc'
loop_
_symmetry_equiv_pos_site_id
_symmetry_equiv_pos_as_xyz
1 x,y,z
2 -x,1/2+y,1/2-z
3 -x,-y,-z
4 x,1/2-y,1/2+z
_cell_length_a                   12.482(3)
_cell_length_b                   25.285(5)
_cell_length_c                   8.6938(17)
_cell_angle_alpha                90
_cell_angle_beta                 105.78(3)
_cell_angle_gamma                90
_cell_volume                     2640.42
_exptl_crystal_colour            colorless
_exptl_crystal_description       plate
_cell_formula_units_Z            4
loop_
_atom_site_label
_atom_site_type_symbol
_atom_site_fract_x
_atom_site_fract_y
_atom_site_fract_z
N1 N 0.0224(3) 0.10652(14) 0.6152(4)
N2 N 0.1841(2) 0.14371(11) 0.6523(3)
N3 N 0.6216(2) 0.03416(11) 1.3916(3)
N4 N 0.5717(3) -0.01012(12) 1.3141(4)
N5 N 0.4646(3) -0.00437(11) 1.2715(3)
N6 N 0.4445(2) 0.04420(10) 1.3203(3)
H1 H 0.371(3) 0.0550(14) 1.305(4)
O1 O 0.1343(3) 0.22304(12) 0.5236(4)
C1 C -0.0819(4) 0.19128(18) 0.6060(5)
H6 H -0.1215 0.1697 0.6649
H7 H -0.0394 0.2179 0.6773
C2 C -0.1620(4) 0.2167(2) 0.4636(6)
H8 H -0.2324 0.2247 0.4857
H9 H -0.1312 0.2491 0.4334
C3 C -0.1763(4) 0.1762(3) 0.3367(6)
H10 H -0.2026 0.1923 0.2320
H11 H -0.2299 0.1497 0.3480
C4 C -0.0651(4) 0.1516(2) 0.3560(5)
H12 H -0.0244 0.1700 0.2918
H13 H -0.0727 0.1147 0.3240
C5 C -0.0047(3) 0.15675(14) 0.5355(4)
C6 C 0.1091(3) 0.18060(14) 0.5643(4)
C7 C 0.1278(3) 0.10035(13) 0.6782(4)
C8 C 0.1858(3) 0.05499(18) 0.7725(6)
H14 H 0.2271 0.0369 0.7084
H15 H 0.2400 0.0690 0.8656
C9 C 0.1196(5) 0.0156(2) 0.8278(6)
H16 H 0.0651 0.0004 0.7372
H17 H 0.0804 0.0321 0.8973
C10 C 0.1988(9) -0.0287(4) 0.9208(13)
H18 H 0.2286 -0.0486 0.8465
H19 H 0.2608 -0.0125 0.9988
C12 C 0.1412(8) -0.0645(4) 1.0018(10)
H22 H 0.1921 -0.0910 1.0576
H23 H 0.0807 -0.0811 0.9247
H24 H 0.1126 -0.0449 1.0768
C14 C 0.3046(3) 0.14967(16) 0.6926(4)
H28 H 0.3223 0.1807 0.6385
H29 H 0.3361 0.1191 0.6532
C15 C 0.3579(3) 0.15515(13) 0.8688(4)
C16 C 0.4569(3) 0.12912(13) 0.9378(4)
H30 H 0.4902 0.1088 0.8744
C17 C 0.5066(3) 0.13312(12) 1.0994(4)
H31 H 0.5744 0.1164 1.1433
C18 C 0.4569(3) 0.16183(12) 1.1981(4)
C19 C 0.3577(3) 0.18849(13) 1.1274(4)
H32 H 0.3234 0.2084 1.1906
C20 C 0.3103(3) 0.18558(14) 0.9653(4)
H33 H 0.2453 0.2043 0.9197
C21 C 0.5100(3) 0.16517(12) 1.3729(3)
C22 C 0.5238(3) 0.21398(13) 1.4513(4)
H34 H 0.4935 0.2441 1.3947
C23 C 0.5811(3) 0.21855(14) 1.6101(4)
H35 H 0.5884 0.2514 1.6599
C24 C 0.6275(3) 0.17448(15) 1.6950(4)
H36 H 0.6679 0.1777 1.8016
C25 C 0.6142(3) 0.12572(14) 1.6229(4)
H37 H 0.6449 0.0959 1.6813
C26 C 0.5553(3) 0.12060(12) 1.4634(4)
C27 C 0.5414(3) 0.06719(12) 1.3938(3)
H38 H -0.014(4) 0.0882(16) 0.613(5)
O2 O -0.1488(3) 0.03602(13) 0.5792(5)
H2 H -0.149(6) 0.009(3) 0.610(8)
H3 H -0.215(5) 0.042(2) 0.516(7)
O3 O 0.0459(4) 0.3369(2) 0.4848(6)
H4 H 0.056(8) 0.313(2) 0.559(7)
H5 H 0.074(7) 0.360(2) 0.563(7)
Br1 Br 0.19252(3) 0.083154(16) 1.29277(5)
C11? C 0.1449(16) -0.0210(7) 0.944(2)
H20? H 0.0833 -0.0454 0.9336
H21? H 0.1600 -0.0041 1.0484
C13? C 0.2466(16) -0.0499(6) 0.9276(16)
H25? H 0.2684 -0.0759 1.0107
H26? H 0.3062 -0.0251 0.9360
H27? H 0.2299 -0.0670 0.8253
loop_
_geom_bond_atom_site_label_1
_geom_bond_atom_site_label_2
_geom_bond_site_symmetry_1
_geom_bond_site_symmetry_2
N1 C5 1_555 1_555
N2 C6 1_555 1_555
N3 N4 1_555 1_555
N4 N5 1_555 1_555
N5 N6 1_555 1_555
N6 H1 1_555 1_555
O1 C6 1_555 1_555
O2 H2 1_555 1_555
H3 O2 1_555 1_555
O3 H4 1_555 1_555
H5 O3 1_555 1_555
C1 H6 1_555 1_555
H7 C1 1_555 1_555
C2 C1 1_555 1_555
H8 C2 1_555 1_555
H9 C2 1_555 1_555
C3 C2 1_555 1_555
H10 C3 1_555 1_555
H11 C3 1_555 1_555
C4 C3 1_555 1_555
H12 C4 1_555 1_555
H13 C4 1_555 1_555
C5 C1 1_555 1_555
C6 C5 1_555 1_555
C7 N1 1_555 1_555
C8 C7 1_555 1_555
H14 C8 1_555 1_555
H15 C8 1_555 1_555
C9 C8 1_555 1_555
H16 C9 1_555 1_555
H17 C9 1_555 1_555
C10 C9 1_555 1_555
H18 C10 1_555 1_555
H19 C10 1_555 1_555
C12 C10 1_555 1_555
H22 C12 1_555 1_555
H23 C12 1_555 1_555
H24 C12 1_555 1_555
C14 N2 1_555 1_555
H28 C14 1_555 1_555
H29 C14 1_555 1_555
C15 C14 1_555 1_555
C16 C15 1_555 1_555
H30 C16 1_555 1_555
C17 C16 1_555 1_555
H31 C17 1_555 1_555
C18 C17 1_555 1_555
C19 C18 1_555 1_555
H32 C19 1_555 1_555
C20 C15 1_555 1_555
H33 C20 1_555 1_555
C21 C18 1_555 1_555
C22 C21 1_555 1_555
H34 C22 1_555 1_555
C23 C22 1_555 1_555
H35 C23 1_555 1_555
C24 C23 1_555 1_555
H36 C24 1_555 1_555
C25 C24 1_555 1_555
H37 C25 1_555 1_555
C26 C21 1_555 1_555
C27 N3 1_555 1_555
H38 N1 1_555 1_555
N2 C7 1_555 1_555
N6 C27 1_555 1_555
C4 C5 1_555 1_555
C19 C20 1_555 1_555
C25 C26 1_555 1_555
C26 C27 1_555 1_555

#END
