
#######################################################################
#
#                 Cambridge Crystallographic Data Centre
#                                CCDC 
#
#######################################################################
#
# If this CIF has been generated from an entry in the Cambridge 
# Structural Database, then it will include bibliographic, chemical, 
# crystal, experimental, refinement or atomic coordinate data resulting 
# from the CCDC's data processing and validation procedures.
#
#######################################################################

data_NIQYUK
_chemical_formula_moiety         'C31 H27 N1 O2 S1'
_chemical_name_systematic        
4-(3,5-dimethylphenyl)-1-[(4-methylphenyl)sulfonyl]-2,3-diphenyl-1H-pyrrole
_symmetry_cell_setting           monoclinic
_symmetry_space_group_name_H-M   'P 21/n'
_symmetry_Int_Tables_number      14
_space_group_name_Hall           '-P 2yn'
loop_
_symmetry_equiv_pos_site_id
_symmetry_equiv_pos_as_xyz
1 x,y,z
2 1/2-x,1/2+y,1/2-z
3 -x,-y,-z
4 1/2+x,1/2-y,1/2+z
_cell_length_a                   6.8229(3)
_cell_length_b                   24.8007(12)
_cell_length_c                   15.1265(7)
_cell_angle_alpha                90
_cell_angle_beta                 100.932(4)
_cell_angle_gamma                90
_cell_volume                     2513.15
_exptl_crystal_colour            colorless
_exptl_crystal_description       needle
_cell_formula_units_Z            4
_exptl_crystal_recrystallization_method deuterochloroform
loop_
_atom_site_label
_atom_site_type_symbol
_atom_site_fract_x
_atom_site_fract_y
_atom_site_fract_z
N1 N 0.4833(2) 0.38678(6) 0.80102(10)
C1 C 0.6307(3) 0.34843(8) 0.79612(13)
H1 H 0.721384 0.333980 0.845934
C2 C 0.6229(3) 0.33514(8) 0.70816(12)
C3 C 0.4682(3) 0.36777(8) 0.65566(12)
C4 C 0.3859(3) 0.39969(8) 0.71272(12)
S1 S 0.48768(6) 0.42313(2) 0.89545(3)
O1 O 0.5994(2) 0.39074(6) 0.96527(8)
O2 O 0.28747(19) 0.43776(6) 0.89730(9)
C5 C 0.6267(3) 0.48072(8) 0.88053(12)
C6 C 0.8331(3) 0.47677(8) 0.89940(13)
H2 H 0.896438 0.443738 0.919749
C7 C 0.9447(3) 0.52182(9) 0.88803(13)
H3 H 1.086279 0.519617 0.901338
C8 C 0.8543(3) 0.57029(8) 0.85752(13)
C9 C 0.6472(3) 0.57318(8) 0.83913(14)
H4 H 0.583786 0.606191 0.818634
C10 C 0.5314(3) 0.52853(8) 0.85029(13)
H5 H 0.389868 0.530674 0.837459
C11 C 0.9832(3) 0.61785(10) 0.84424(16)
H6 H 1.097485 0.619744 0.894316
H7 H 0.904744 0.651088 0.842252
H8 H 1.031041 0.613654 0.787502
C12 C 0.7463(3) 0.29346(8) 0.67501(12)
C13 C 0.9396(3) 0.28271(8) 0.72111(13)
H9 H 0.991705 0.302535 0.774104
C14 C 1.0576(3) 0.24356(8) 0.69104(14)
C15 C 0.9824(3) 0.21573(8) 0.61213(14)
H10 H 1.063991 0.189957 0.589918
C16 C 0.7892(3) 0.22502(9) 0.56509(14)
C17 C 0.6727(3) 0.26333(8) 0.59781(13)
H11 H 0.539651 0.269194 0.566922
C18 C 1.2635(3) 0.23202(10) 0.74315(17)
H12 H 1.353195 0.224445 0.701173
H13 H 1.258860 0.200679 0.782149
H14 H 1.312735 0.263413 0.780113
C19 C 0.7061(4) 0.19410(12) 0.48036(17)
H15 H 0.689027 0.156159 0.495352
H16 H 0.798654 0.196717 0.438293
H17 H 0.576623 0.209342 0.452398
C20 C 0.4032(3) 0.36445(8) 0.55642(13)
C21 C 0.5369(4) 0.37648(10) 0.49974(15)
H18 H 0.662730 0.392089 0.524121
C22 C 0.4876(4) 0.36584(12) 0.40835(16)
H19 H 0.578875 0.374389 0.370171
C23 C 0.3066(5) 0.34290(12) 0.37303(16)
H20 H 0.275292 0.333971 0.310873
C24 C 0.1693(4) 0.33272(12) 0.42779(17)
H21 H 0.042322 0.318071 0.402570
C25 C 0.2167(3) 0.34391(10) 0.51985(15)
H22 H 0.121682 0.337467 0.557131
C26 C 0.2269(3) 0.44057(8) 0.68828(12)
C27 C 0.0377(3) 0.43334(8) 0.70807(14)
H23 H 0.011500 0.402982 0.742336
C28 C -0.1130(3) 0.47027(9) 0.67801(14)
H24 H -0.241759 0.464997 0.691900
C29 C -0.0776(3) 0.51460(9) 0.62809(14)
H25 H -0.181265 0.539775 0.607697
C30 C 0.1099(3) 0.52206(9) 0.60805(16)
H26 H 0.135175 0.552561 0.573921
C31 C 0.2613(3) 0.48525(9) 0.63749(14)
H27 H 0.389424 0.490550 0.622925
loop_
_geom_bond_atom_site_label_1
_geom_bond_atom_site_label_2
_geom_bond_site_symmetry_1
_geom_bond_site_symmetry_2
N1 C1 1_555 1_555
C1 H1 1_555 1_555
C2 C1 1_555 1_555
C3 C2 1_555 1_555
C4 N1 1_555 1_555
S1 N1 1_555 1_555
O1 S1 1_555 1_555
O2 S1 1_555 1_555
C5 S1 1_555 1_555
C6 C5 1_555 1_555
H2 C6 1_555 1_555
C7 C6 1_555 1_555
H3 C7 1_555 1_555
C8 C7 1_555 1_555
C9 C8 1_555 1_555
H4 C9 1_555 1_555
C10 C5 1_555 1_555
H5 C10 1_555 1_555
C11 C8 1_555 1_555
H6 C11 1_555 1_555
H7 C11 1_555 1_555
H8 C11 1_555 1_555
C12 C2 1_555 1_555
C13 C12 1_555 1_555
H9 C13 1_555 1_555
C14 C13 1_555 1_555
C15 C14 1_555 1_555
H10 C15 1_555 1_555
C16 C15 1_555 1_555
C17 C12 1_555 1_555
H11 C17 1_555 1_555
C18 C14 1_555 1_555
H12 C18 1_555 1_555
H13 C18 1_555 1_555
H14 C18 1_555 1_555
C19 C16 1_555 1_555
H15 C19 1_555 1_555
H16 C19 1_555 1_555
H17 C19 1_555 1_555
C20 C3 1_555 1_555
C21 C20 1_555 1_555
H18 C21 1_555 1_555
C22 C21 1_555 1_555
H19 C22 1_555 1_555
C23 C22 1_555 1_555
H20 C23 1_555 1_555
C24 C23 1_555 1_555
H21 C24 1_555 1_555
C25 C20 1_555 1_555
H22 C25 1_555 1_555
C26 C4 1_555 1_555
C27 C26 1_555 1_555
H23 C27 1_555 1_555
C28 C27 1_555 1_555
H24 C28 1_555 1_555
C29 C28 1_555 1_555
H25 C29 1_555 1_555
C30 C29 1_555 1_555
H26 C30 1_555 1_555
C31 C26 1_555 1_555
H27 C31 1_555 1_555
C3 C4 1_555 1_555
C9 C10 1_555 1_555
C16 C17 1_555 1_555
C24 C25 1_555 1_555
C30 C31 1_555 1_555

#END
