
#######################################################################
#
#                 Cambridge Crystallographic Data Centre
#                                CCDC 
#
#######################################################################
#
# If this CIF has been generated from an entry in the Cambridge 
# Structural Database, then it will include bibliographic, chemical, 
# crystal, experimental, refinement or atomic coordinate data resulting 
# from the CCDC's data processing and validation procedures.
#
#######################################################################

data_NIRDOK
_chemical_formula_moiety         'C15 H10 Br1 N1 O1'
_chemical_name_systematic        
3-[bromo(phenyl)methylidene]-2,3-dihydro-1H-isoindol-1-one
_symmetry_cell_setting           triclinic
_symmetry_space_group_name_H-M   'P -1'
_symmetry_Int_Tables_number      2
_space_group_name_Hall           '-P 1'
loop_
_symmetry_equiv_pos_site_id
_symmetry_equiv_pos_as_xyz
1 x,y,z
2 -x,-y,-z
_cell_length_a                   13.412(3)
_cell_length_b                   14.379(3)
_cell_length_c                   15.278(3)
_cell_angle_alpha                91.54(3)
_cell_angle_beta                 106.29(3)
_cell_angle_gamma                106.58(3)
_cell_volume                     2692.14
_exptl_crystal_colour            colorless
_exptl_crystal_description       block
_cell_formula_units_Z            8
loop_
_atom_site_label
_atom_site_type_symbol
_atom_site_fract_x
_atom_site_fract_y
_atom_site_fract_z
Br1 Br 0.37559(5) 0.44251(4) 0.32358(4)
N1 N 0.4941(4) 0.5124(4) 0.1765(3)
H1 H 0.431725 0.523083 0.172890
C1 C 0.5563(5) 0.5473(4) 0.1197(4)
O1 O 0.5355(4) 0.6004(3) 0.0606(3)
C2 C 0.6512(5) 0.5101(4) 0.1475(4)
C3 C 0.7381(5) 0.5233(5) 0.1123(5)
H2 H 0.741014 0.557697 0.060396
C4 C 0.8215(5) 0.4846(5) 0.1550(5)
H3 H 0.881987 0.492546 0.132132
C5 C 0.8160(5) 0.4344(4) 0.2312(5)
H4 H 0.873764 0.409209 0.259959
C6 C 0.7279(5) 0.4200(4) 0.2664(4)
H5 H 0.725238 0.385896 0.318519
C7 C 0.6442(5) 0.4573(4) 0.2225(4)
C8 C 0.5419(4) 0.4575(4) 0.2411(4)
C9 C 0.5019(4) 0.4186(4) 0.3079(4)
C10 C 0.5452(5) 0.3517(4) 0.3703(4)
C11 C 0.5996(5) 0.3832(5) 0.4628(4)
H6 H 0.611267 0.448336 0.486821
C12 C 0.6368(5) 0.3188(5) 0.5196(5)
H7 H 0.674995 0.340754 0.582589
C13 C 0.6193(5) 0.2233(5) 0.4862(4)
H8 H 0.644200 0.179701 0.526090
C14 C 0.5645(7) 0.1916(5) 0.3934(5)
H9 H 0.552622 0.126350 0.369451
C15 C 0.5276(6) 0.2560(5) 0.3361(5)
H10 H 0.490035 0.234394 0.272995
Br2 Br 1.01166(5) 0.95946(4) 0.79450(4)
N2 N 0.8963(4) 1.1214(4) 0.7508(3)
H11 H 0.959799 1.129362 0.741254
C16 C 0.8343(5) 1.1832(4) 0.7255(4)
O2 O 0.8594(4) 1.2573(3) 0.6883(3)
C17 C 0.7342(5) 1.1411(4) 0.7509(4)
C18 C 0.6441(5) 1.1742(5) 0.7380(4)
H12 H 0.641248 1.232308 0.710753
C19 C 0.5582(5) 1.1189(5) 0.7666(5)
H13 H 0.494961 1.139062 0.758634
C20 C 0.5641(5) 1.0343(5) 0.8069(4)
H14 H 0.503868 0.997388 0.825183
C21 C 0.6547(5) 1.0021(4) 0.8213(4)
H15 H 0.657518 0.944178 0.849048
C22 C 0.7412(4) 1.0575(4) 0.7936(4)
C23 C 0.8465(5) 1.0441(4) 0.7937(4)
C24 C 0.8849(4) 0.9696(4) 0.8210(4)
C25 C 0.8374(4) 0.8936(4) 0.8742(4)
C26 C 0.8529(5) 0.9203(4) 0.9674(4)
H16 H 0.891999 0.985512 0.994480
C27 C 0.8105(5) 0.8506(4) 1.0199(4)
H17 H 0.821290 0.867910 1.083087
C28 C 0.7523(5) 0.7556(4) 0.9794(4)
H18 H 0.722221 0.708384 1.014850
C29 C 0.7379(5) 0.7294(5) 0.8885(4)
H19 H 0.698049 0.664256 0.861610
C30 C 0.7813(5) 0.7977(4) 0.8356(4)
H20 H 0.772487 0.778793 0.773143
Br3 Br -0.13310(5) 0.29900(4) 0.46765(4)
N3 N 0.0509(4) 0.2768(4) 0.6328(3)
H21 H -0.014687 0.269463 0.637624
C31 C 0.1324(5) 0.2562(5) 0.6991(4)
O3 O 0.1235(4) 0.2206(4) 0.7697(3)
C32 C 0.2287(5) 0.2818(4) 0.6648(4)
C33 C 0.3320(5) 0.2758(4) 0.7051(5)
H22 H 0.350784 0.252996 0.763461
C34 C 0.4079(5) 0.3045(5) 0.6572(5)
H23 H 0.480235 0.302285 0.683351
C35 C 0.3787(5) 0.3364(5) 0.5713(5)
H24 H 0.431570 0.354471 0.539419
C36 C 0.2745(5) 0.3426(5) 0.5306(5)
H25 H 0.255284 0.364550 0.471925
C37 C 0.1996(5) 0.3154(4) 0.5794(4)
C38 C 0.0830(5) 0.3103(4) 0.5573(4)
C39 C 0.0166(5) 0.3264(4) 0.4787(4)
C40 C 0.0486(5) 0.3607(4) 0.3976(4)
C41 C 0.0933(5) 0.4602(4) 0.3936(4)
H26 H 0.106054 0.506430 0.444183
C42 C 0.1195(5) 0.4914(4) 0.3144(5)
H27 H 0.148385 0.559212 0.310740
C43 C 0.1034(5) 0.4240(5) 0.2417(4)
H28 H 0.123218 0.445247 0.188858
C44 C 0.0584(5) 0.3252(5) 0.2459(4)
H29 H 0.046623 0.278808 0.195677
C45 C 0.0306(5) 0.2940(4) 0.3233(4)
H30 H -0.001034 0.226318 0.325527
Br4 Br 0.50192(5) 0.78267(4) 0.92861(4)
N4 N 0.3561(4) 0.6780(4) 1.0445(3)
H31 H 0.418555 0.667191 1.048778
C46 C 0.2844(5) 0.6299(5) 1.0888(4)
O4 O 0.2968(4) 0.5656(4) 1.1388(4)
C47 C 0.1935(5) 0.6714(5) 1.0653(4)
C48 C 0.1007(5) 0.6500(5) 1.0941(4)
H32 H 0.087653 0.601269 1.133832
C49 C 0.0281(5) 0.7022(5) 1.0631(4)
H33 H -0.035857 0.689301 1.081762
C50 C 0.0479(5) 0.7737(4) 1.0043(4)
H34 H -0.003155 0.808651 0.983885
C51 C 0.1399(5) 0.7947(4) 0.9755(4)
H35 H 0.152357 0.843102 0.935349
C52 C 0.2137(5) 0.7432(4) 1.0068(4)
C53 C 0.3193(4) 0.7459(4) 0.9919(4)
C54 C 0.3700(4) 0.8000(4) 0.9366(4)
C55 C 0.3313(4) 0.8720(4) 0.8792(4)
C56 C 0.3505(5) 0.9665(4) 0.9184(4)
H36 H 0.385058 0.984179 0.982450
C57 C 0.3189(5) 1.0349(5) 0.8633(5)
H37 H 0.331445 1.099210 0.890167
C58 C 0.2694(5) 1.0100(4) 0.7699(5)
H38 H 0.249397 1.057368 0.732397
C59 C 0.2493(6) 0.9162(5) 0.7315(5)
H39 H 0.213106 0.898423 0.667623
C60 C 0.2814(5) 0.8470(4) 0.7853(4)
H40 H 0.269214 0.783067 0.757969
loop_
_geom_bond_atom_site_label_1
_geom_bond_atom_site_label_2
_geom_bond_site_symmetry_1
_geom_bond_site_symmetry_2
Br1 C9 1_555 1_555
N1 H1 1_555 1_555
C1 N1 1_555 1_555
O1 C1 1_555 1_555
C2 C1 1_555 1_555
C3 C2 1_555 1_555
H2 C3 1_555 1_555
C4 C3 1_555 1_555
H3 C4 1_555 1_555
C5 C4 1_555 1_555
H4 C5 1_555 1_555
C6 C5 1_555 1_555
H5 C6 1_555 1_555
C7 C2 1_555 1_555
C8 N1 1_555 1_555
C9 C8 1_555 1_555
C10 C9 1_555 1_555
C11 C10 1_555 1_555
H6 C11 1_555 1_555
C12 C11 1_555 1_555
H7 C12 1_555 1_555
C13 C12 1_555 1_555
H8 C13 1_555 1_555
C14 C13 1_555 1_555
H9 C14 1_555 1_555
C15 C10 1_555 1_555
H10 C15 1_555 1_555
Br2 C24 1_555 1_555
N2 H11 1_555 1_555
C16 N2 1_555 1_555
O2 C16 1_555 1_555
C17 C16 1_555 1_555
C18 C17 1_555 1_555
H12 C18 1_555 1_555
C19 C18 1_555 1_555
H13 C19 1_555 1_555
C20 C19 1_555 1_555
H14 C20 1_555 1_555
C21 C20 1_555 1_555
H15 C21 1_555 1_555
C22 C17 1_555 1_555
C23 N2 1_555 1_555
C24 C23 1_555 1_555
C25 C24 1_555 1_555
C26 C25 1_555 1_555
H16 C26 1_555 1_555
C27 C26 1_555 1_555
H17 C27 1_555 1_555
C28 C27 1_555 1_555
H18 C28 1_555 1_555
C29 C28 1_555 1_555
H19 C29 1_555 1_555
C30 C25 1_555 1_555
H20 C30 1_555 1_555
Br3 C39 1_555 1_555
N3 H21 1_555 1_555
C31 N3 1_555 1_555
O3 C31 1_555 1_555
C32 C31 1_555 1_555
C33 C32 1_555 1_555
H22 C33 1_555 1_555
C34 C33 1_555 1_555
H23 C34 1_555 1_555
C35 C34 1_555 1_555
H24 C35 1_555 1_555
C36 C35 1_555 1_555
H25 C36 1_555 1_555
C37 C32 1_555 1_555
C38 N3 1_555 1_555
C39 C38 1_555 1_555
C40 C39 1_555 1_555
C41 C40 1_555 1_555
H26 C41 1_555 1_555
C42 C41 1_555 1_555
H27 C42 1_555 1_555
C43 C42 1_555 1_555
H28 C43 1_555 1_555
C44 C43 1_555 1_555
H29 C44 1_555 1_555
C45 C40 1_555 1_555
H30 C45 1_555 1_555
Br4 C54 1_555 1_555
N4 H31 1_555 1_555
C46 N4 1_555 1_555
O4 C46 1_555 1_555
C47 C46 1_555 1_555
C48 C47 1_555 1_555
H32 C48 1_555 1_555
C49 C48 1_555 1_555
H33 C49 1_555 1_555
C50 C49 1_555 1_555
H34 C50 1_555 1_555
C51 C50 1_555 1_555
H35 C51 1_555 1_555
C52 C47 1_555 1_555
C53 N4 1_555 1_555
C54 C53 1_555 1_555
C55 C54 1_555 1_555
C56 C55 1_555 1_555
H36 C56 1_555 1_555
C57 C56 1_555 1_555
H37 C57 1_555 1_555
C58 C57 1_555 1_555
H38 C58 1_555 1_555
C59 C58 1_555 1_555
H39 C59 1_555 1_555
C60 C55 1_555 1_555
H40 C60 1_555 1_555
C6 C7 1_555 1_555
C7 C8 1_555 1_555
C14 C15 1_555 1_555
C21 C22 1_555 1_555
C22 C23 1_555 1_555
C29 C30 1_555 1_555
C36 C37 1_555 1_555
C37 C38 1_555 1_555
C44 C45 1_555 1_555
C51 C52 1_555 1_555
C52 C53 1_555 1_555
C59 C60 1_555 1_555

#END
