
#######################################################################
#
#                 Cambridge Crystallographic Data Centre
#                                CCDC 
#
#######################################################################
#
# If this CIF has been generated from an entry in the Cambridge 
# Structural Database, then it will include bibliographic, chemical, 
# crystal, experimental, refinement or atomic coordinate data resulting 
# from the CCDC's data processing and validation procedures.
#
#######################################################################

data_NIRDUQ
_chemical_formula_moiety         'C23 H17 N1 O1'
_chemical_name_systematic        
3-(1,3-diphenylprop-2-en-1-ylidene)-2,3-dihydro-1H-isoindol-1-one
_symmetry_cell_setting           monoclinic
_symmetry_space_group_name_H-M   'P 21/c'
_symmetry_Int_Tables_number      14
_space_group_name_Hall           '-P 2ybc'
loop_
_symmetry_equiv_pos_site_id
_symmetry_equiv_pos_as_xyz
1 x,y,z
2 -x,1/2+y,1/2-z
3 -x,-y,-z
4 x,1/2-y,1/2+z
_cell_length_a                   7.4060(15)
_cell_length_b                   13.453(3)
_cell_length_c                   17.441(3)
_cell_angle_alpha                90
_cell_angle_beta                 90.02(3)
_cell_angle_gamma                90
_cell_volume                     1737.7
_exptl_crystal_colour            yellow
_exptl_crystal_description       rod
_cell_formula_units_Z            4
loop_
_atom_site_label
_atom_site_type_symbol
_atom_site_fract_x
_atom_site_fract_y
_atom_site_fract_z
O1 O 0.88419(10) 0.47184(6) 0.40789(5)
C1 C 0.77717(13) 0.52971(7) 0.43913(6)
C2 C 0.60721(12) 0.56975(7) 0.40776(6)
C3 C 0.52461(15) 0.54897(8) 0.33858(7)
H1 H 0.577274 0.504025 0.303023
C4 C 0.36159(16) 0.59613(9) 0.32276(7)
H2 H 0.300397 0.583018 0.275955
C5 C 0.28768(16) 0.66282(9) 0.37565(7)
H3 H 0.176728 0.694710 0.363705
C6 C 0.37134(14) 0.68397(7) 0.44519(7)
H4 H 0.319298 0.729647 0.480354
C7 C 0.53450(12) 0.63598(6) 0.46184(6)
C8 C 0.65556(12) 0.63660(6) 0.52869(6)
N1 N 0.79553(11) 0.56953(6) 0.51042(5)
H5 H 0.900(2) 0.5559(12) 0.5416(9)
C9 C 0.64396(12) 0.68492(6) 0.59723(6)
C10 C 0.50327(12) 0.76316(7) 0.60850(6)
C11 C 0.54414(14) 0.86184(7) 0.59038(7)
H6 H 0.662201 0.878782 0.573575
C12 C 0.41286(15) 0.93543(7) 0.59680(7)
H7 H 0.441415 1.002347 0.584314
C13 C 0.24007(14) 0.91105(8) 0.62147(7)
H8 H 0.150007 0.961084 0.625297
C14 C 0.19935(14) 0.81340(8) 0.64050(7)
H9 H 0.081313 0.796695 0.657461
C15 C 0.33123(13) 0.73971(7) 0.63479(7)
H10 H 0.303386 0.673262 0.648917
C16 C 0.76645(12) 0.66068(7) 0.65928(6)
H11 H 0.862705 0.616457 0.647774
C17 C 0.75670(12) 0.69500(7) 0.73192(6)
H12 H 0.665811 0.742477 0.743589
C18 C 0.87787(12) 0.66349(7) 0.79397(6)
C19 C 0.83636(14) 0.68893(7) 0.87004(7)
H13 H 0.731170 0.727005 0.880468
C20 C 0.94700(15) 0.65921(8) 0.93046(7)
H14 H 0.916522 0.676981 0.981562
C21 C 1.10175(15) 0.60369(8) 0.91636(7)
H15 H 1.176926 0.583073 0.957539
C22 C 1.14533(14) 0.57861(8) 0.84099(7)
H16 H 1.251439 0.541150 0.830904
C23 C 1.03552(13) 0.60774(7) 0.78064(6)
H17 H 1.067083 0.589858 0.729681
loop_
_geom_bond_atom_site_label_1
_geom_bond_atom_site_label_2
_geom_bond_site_symmetry_1
_geom_bond_site_symmetry_2
O1 C1 1_555 1_555
C1 C2 1_555 1_555
C2 C3 1_555 1_555
C3 H1 1_555 1_555
C4 C3 1_555 1_555
H2 C4 1_555 1_555
C5 C4 1_555 1_555
H3 C5 1_555 1_555
C6 C5 1_555 1_555
H4 C6 1_555 1_555
C7 C2 1_555 1_555
C8 C7 1_555 1_555
N1 C1 1_555 1_555
H5 N1 1_555 1_555
C9 C8 1_555 1_555
C10 C9 1_555 1_555
C11 C10 1_555 1_555
H6 C11 1_555 1_555
C12 C11 1_555 1_555
H7 C12 1_555 1_555
C13 C12 1_555 1_555
H8 C13 1_555 1_555
C14 C13 1_555 1_555
H9 C14 1_555 1_555
C15 C10 1_555 1_555
H10 C15 1_555 1_555
C16 C9 1_555 1_555
H11 C16 1_555 1_555
C17 C16 1_555 1_555
H12 C17 1_555 1_555
C18 C17 1_555 1_555
C19 C18 1_555 1_555
H13 C19 1_555 1_555
C20 C19 1_555 1_555
H14 C20 1_555 1_555
C21 C20 1_555 1_555
H15 C21 1_555 1_555
C22 C21 1_555 1_555
H16 C22 1_555 1_555
C23 C18 1_555 1_555
H17 C23 1_555 1_555
C6 C7 1_555 1_555
C8 N1 1_555 1_555
C14 C15 1_555 1_555
C22 C23 1_555 1_555

#END
