
#######################################################################
#
#                 Cambridge Crystallographic Data Centre
#                                CCDC 
#
#######################################################################
#
# If this CIF has been generated from an entry in the Cambridge 
# Structural Database, then it will include bibliographic, chemical, 
# crystal, experimental, refinement or atomic coordinate data resulting 
# from the CCDC's data processing and validation procedures.
#
#######################################################################

data_NIRKOP
_chemical_formula_moiety         'C17 H17 N1 O2'
_chemical_name_systematic        
(R)-1-Phenyl-2-((S)-phenyl-4,5-dihydro-oxazol-4-yl)ethanol
_symmetry_cell_setting           monoclinic
_symmetry_space_group_name_H-M   'P 21'
_symmetry_Int_Tables_number      4
_space_group_name_Hall           'P 2yb'
loop_
_symmetry_equiv_pos_site_id
_symmetry_equiv_pos_as_xyz
1 x,y,z
2 -x,1/2+y,-z
_cell_length_a                   7.8950(3)
_cell_length_b                   9.8913(3)
_cell_length_c                   9.8088(5)
_cell_angle_alpha                90
_cell_angle_beta                 113.617(1)
_cell_angle_gamma                90
_cell_volume                     701.831
_chemical_melting_point          101-103deg.C
_cell_formula_units_Z            2
loop_
_atom_site_label
_atom_site_type_symbol
_atom_site_fract_x
_atom_site_fract_y
_atom_site_fract_z
O1 O 0.50511(17) 0.51396(13) 0.64130(12)
O2 O 0.35772(14) 0.35589(15) 0.14481(12)
H1 H 0.3066 0.3777 0.2020
N1 N 0.33916(17) 0.47289(14) 0.39776(14)
C1 C 0.08439(19) 0.30756(15) 0.47800(15)
H2 H 0.0542 0.3176 0.3746
C2 C -0.02541(19) 0.22837(16) 0.52634(16)
H3 H -0.1291 0.1821 0.4560
C3 C 0.0157(2) 0.21629(16) 0.67785(17)
H4 H -0.0609 0.1629 0.7105
C4 C 0.1687(2) 0.28225(16) 0.78111(16)
H5 H 0.1959 0.2749 0.8843
C5 C 0.2818(2) 0.35896(15) 0.73328(16)
H6 H 0.3882 0.4022 0.8039
C6 C 0.23926(18) 0.37253(14) 0.58154(15)
C7 C 0.35890(19) 0.45440(14) 0.53134(15)
C8 C 0.6043(3) 0.58763(18) 0.5690(2)
H7 H 0.7343 0.5567 0.6050
H8 H 0.6029 0.6859 0.5874
C9 C 0.4983(2) 0.55504(15) 0.40195(18)
H9 H 0.4533 0.6405 0.3443
C10 C 0.61486(19) 0.47484(15) 0.33792(15)
H10 H 0.7272 0.5277 0.3522
H11 H 0.6552 0.3897 0.3949
C11 C 0.51516(19) 0.44033(17) 0.17301(16)
H12 H 0.4731 0.5262 0.1156
C12 C 0.64516(18) 0.36810(16) 0.11835(14)
C13 C 0.6777(2) 0.23018(17) 0.14106(15)
H13 H 0.6110 0.1791 0.1851
C14 C 0.8066(2) 0.16642(17) 0.10009(17)
H14 H 0.8281 0.0721 0.1165
C15 C 0.9042(2) 0.2404(2) 0.03505(19)
H15 H 0.9939 0.1972 0.0082
C16 C 0.8705(3) 0.3766(2) 0.0097(2)
H16 H 0.9359 0.4271 -0.0360
C17 C 0.7413(2) 0.44068(18) 0.05053(17)
H17 H 0.7184 0.5346 0.0321
loop_
_geom_bond_atom_site_label_1
_geom_bond_atom_site_label_2
_geom_bond_site_symmetry_1
_geom_bond_site_symmetry_2
O1 C7 1_555 1_555
O2 H1 1_555 1_555
N1 C7 1_555 1_555
C1 H2 1_555 1_555
C2 C1 1_555 1_555
H3 C2 1_555 1_555
C3 C2 1_555 1_555
H4 C3 1_555 1_555
C4 C3 1_555 1_555
H5 C4 1_555 1_555
C5 C4 1_555 1_555
H6 C5 1_555 1_555
C6 C1 1_555 1_555
C7 C6 1_555 1_555
C8 O1 1_555 1_555
H7 C8 1_555 1_555
H8 C8 1_555 1_555
C9 N1 1_555 1_555
H9 C9 1_555 1_555
C10 C9 1_555 1_555
H10 C10 1_555 1_555
H11 C10 1_555 1_555
C11 O2 1_555 1_555
H12 C11 1_555 1_555
C12 C11 1_555 1_555
C13 C12 1_555 1_555
H13 C13 1_555 1_555
C14 C13 1_555 1_555
H14 C14 1_555 1_555
C15 C14 1_555 1_555
H15 C15 1_555 1_555
C16 C15 1_555 1_555
H16 C16 1_555 1_555
C17 C12 1_555 1_555
H17 C17 1_555 1_555
C5 C6 1_555 1_555
C8 C9 1_555 1_555
C10 C11 1_555 1_555
C16 C17 1_555 1_555

#END
