
#######################################################################
#
#                 Cambridge Crystallographic Data Centre
#                                CCDC 
#
#######################################################################
#
# If this CIF has been generated from an entry in the Cambridge 
# Structural Database, then it will include bibliographic, chemical, 
# crystal, experimental, refinement or atomic coordinate data resulting 
# from the CCDC's data processing and validation procedures.
#
#######################################################################

data_NIRSEP
_chemical_formula_moiety         'C14 H12 Cl1 F3 N2 O3'
_chemical_name_systematic        
'ethyl 3-(4-chlorobenzene-1-carbonyl)-4-(trifluoromethyl)-4,5-dihydro-1H-pyrazole-5-carboxylate'
_symmetry_cell_setting           monoclinic
_symmetry_space_group_name_H-M   'P 21/n'
_symmetry_Int_Tables_number      14
_space_group_name_Hall           '-P 2yn'
loop_
_symmetry_equiv_pos_site_id
_symmetry_equiv_pos_as_xyz
1 x,y,z
2 1/2-x,1/2+y,1/2-z
3 -x,-y,-z
4 1/2+x,1/2-y,1/2+z
_cell_length_a                   9.53160(10)
_cell_length_b                   11.58700(10)
_cell_length_c                   14.7452(3)
_cell_angle_alpha                90
_cell_angle_beta                 104.672(2)
_cell_angle_gamma                90
_cell_volume                     1575.4
_exptl_crystal_colour            colorless
_exptl_crystal_description       block
_cell_formula_units_Z            4
loop_
_atom_site_label
_atom_site_type_symbol
_atom_site_fract_x
_atom_site_fract_y
_atom_site_fract_z
Cl1 Cl 0.94327(8) 0.65780(7) 0.62151(6)
F1 F 0.3910(2) 0.4902(2) 0.07193(15)
F2 F 0.4312(3) 0.3223(2) 0.13265(16)
F3 F 0.2360(3) 0.35623(17) 0.02797(13)
O1 O 0.46197(18) 0.33312(11) 0.33038(13)
O2 O -0.0721(2) 0.41306(19) 0.12016(18)
O3 O -0.0537(2) 0.57080(16) 0.20695(18)
N1 N 0.31672(17) 0.60562(13) 0.26146(12)
N2 N 0.20491(19) 0.62980(14) 0.18977(14)
H1 H 0.174961 0.698889 0.174709
C1 C 0.5907(2) 0.61909(18) 0.41260(15)
H2 H 0.522018 0.666708 0.374255
C2 C 0.7029(3) 0.66737(19) 0.47968(17)
H3 H 0.710317 0.747098 0.486439
C3 C 0.8035(2) 0.5968(2) 0.53637(16)
C4 C 0.7949(3) 0.4792(2) 0.52745(17)
H4 H 0.863903 0.432241 0.566205
C5 C 0.6824(2) 0.43161(19) 0.46009(17)
H5 H 0.675876 0.351796 0.453789
C6 C 0.5789(2) 0.50033(16) 0.40160(13)
C7 C 0.4634(2) 0.43927(16) 0.33073(14)
C8 C 0.3517(2) 0.49736(15) 0.25903(14)
C9 C 0.2539(2) 0.43493(17) 0.17620(15)
H6 H 0.209696 0.367345 0.197788
C10 C 0.1382(2) 0.52819(16) 0.13932(15)
H7 H 0.128225 0.539491 0.072125
C11 C -0.0086(2) 0.49650(19) 0.15481(18)
C12 C -0.1993(4) 0.5543(3) 0.2209(4)
H8 H -0.252990 0.500437 0.174546
H9 H -0.191792 0.521723 0.282542
C13 C -0.2718(5) 0.6570(4) 0.2130(4)
H10 H -0.281804 0.687960 0.151255
H11 H -0.218435 0.710272 0.258716
H12 H -0.366194 0.644889 0.223304
C14 C 0.3292(4) 0.4005(3) 0.1031(2)
loop_
_geom_bond_atom_site_label_1
_geom_bond_atom_site_label_2
_geom_bond_site_symmetry_1
_geom_bond_site_symmetry_2
Cl1 C3 1_555 1_555
F1 C14 1_555 1_555
F2 C14 1_555 1_555
F3 C14 1_555 1_555
O1 C7 1_555 1_555
O2 C11 1_555 1_555
O3 C11 1_555 1_555
N1 N2 1_555 1_555
N2 H1 1_555 1_555
C1 H2 1_555 1_555
C2 C1 1_555 1_555
H3 C2 1_555 1_555
C3 C2 1_555 1_555
C4 C3 1_555 1_555
H4 C4 1_555 1_555
C5 C4 1_555 1_555
H5 C5 1_555 1_555
C6 C1 1_555 1_555
C7 C6 1_555 1_555
C8 N1 1_555 1_555
C9 C8 1_555 1_555
H6 C9 1_555 1_555
C10 N2 1_555 1_555
H7 C10 1_555 1_555
C11 C10 1_555 1_555
C12 O3 1_555 1_555
H8 C12 1_555 1_555
H9 C12 1_555 1_555
C13 C12 1_555 1_555
H10 C13 1_555 1_555
H11 C13 1_555 1_555
H12 C13 1_555 1_555
C14 C9 1_555 1_555
C5 C6 1_555 1_555
C7 C8 1_555 1_555
C9 C10 1_555 1_555

#END
