
#######################################################################
#
#                 Cambridge Crystallographic Data Centre
#                                CCDC 
#
#######################################################################
#
# If this CIF has been generated from an entry in the Cambridge 
# Structural Database, then it will include bibliographic, chemical, 
# crystal, experimental, refinement or atomic coordinate data resulting 
# from the CCDC's data processing and validation procedures.
#
#######################################################################

data_NIRYOC
_chemical_formula_moiety         'C16 H12 S4 Se8'
_chemical_name_systematic        
cis-trans-2,5,7,10-Tetrathia-1,6(2,7)-ditetraselenafulvalenacyclodecaphane
_symmetry_cell_setting           monoclinic
_symmetry_space_group_name_H-M   'P 21/n'
_symmetry_Int_Tables_number      14
_space_group_name_Hall           '-P 2yn'
loop_
_symmetry_equiv_pos_site_id
_symmetry_equiv_pos_as_xyz
1 x,y,z
2 1/2+x,1/2-y,1/2+z
3 -x,-y,-z
4 1/2-x,1/2+y,1/2-z
_cell_length_a                   8.304(3)
_cell_length_b                   22.611(3)
_cell_length_c                   13.678(2)
_cell_angle_alpha                90
_cell_angle_beta                 103.71(2)
_cell_angle_gamma                90
_cell_volume                     2495.03
_exptl_crystal_colour            red
_exptl_crystal_description       rod
_chemical_melting_point          '184 deg.C(dec.)'
_cell_formula_units_Z            4
_exptl_crystal_recrystallization_method 'carbon disulfide/benzene'
loop_
_atom_site_label
_atom_site_type_symbol
_atom_site_fract_x
_atom_site_fract_y
_atom_site_fract_z
Se1 Se 0.4266(3) 0.33576(9) 0.7350(2)
Se2 Se 0.5263(3) 0.45227(9) 0.6328(2)
Se3 Se 0.3473(3) 0.39937(9) 0.4035(2)
Se4 Se 0.2515(3) 0.28031(9) 0.5020(2)
Se5 Se 0.0179(3) 0.42793(9) 0.7049(2)
Se6 Se -0.0986(3) 0.29398(9) 0.7080(2)
Se7 Se -0.1388(3) 0.42729(9) 0.4447(2)
Se8 Se -0.2477(3) 0.29325(10) 0.4609(2)
S1 S 0.6119(7) 0.3828(3) 0.9466(4)
S2 S 0.0956(7) 0.4308(2) 0.9420(4)
S3 S 0.2078(7) 0.3497(2) 0.1892(4)
S4 S -0.2730(7) 0.4231(2) 0.2108(4)
C1 C 0.423(2) 0.3771(7) 0.612(1)
C2 C 0.598(2) 0.4459(8) 0.772(1)
C3 C 0.555(2) 0.3960(8) 0.814(1)
C4 C 0.351(2) 0.3572(8) 0.524(1)
C5 C 0.208(2) 0.2858(8) 0.362(1)
C6 C 0.248(2) 0.3366(8) 0.319(1)
C7 C -0.084(2) 0.3633(8) 0.626(2)
C8 C -0.020(2) 0.3314(9) 0.832(1)
C9 C 0.033(2) 0.3903(9) 0.834(1)
C10 C -0.141(2) 0.3624(7) 0.529(1)
C11 C -0.292(2) 0.3283(9) 0.333(1)
C12 C -0.244(2) 0.3852(9) 0.326(1)
C13 C 0.400(2) 0.3774(8) 0.976(1)
C14 C 0.324(2) 0.4391(8) 0.951(1)
C15 C -0.027(2) 0.3578(8) 0.159(1)
C16 C -0.055(2) 0.4204(7) 0.192(1)
loop_
_geom_bond_atom_site_label_1
_geom_bond_atom_site_label_2
_geom_bond_site_symmetry_1
_geom_bond_site_symmetry_2
Se1 C1 1_555 1_555
Se2 C1 1_555 1_555
Se3 C4 1_555 1_555
Se4 C4 1_555 1_555
Se5 C7 1_555 1_555
Se6 C7 1_555 1_555
Se7 C10 1_555 1_555
Se8 C10 1_555 1_555
S1 C3 1_555 1_555
S2 C9 1_555 1_555
S3 C6 1_555 1_555
S4 C12 1_555 1_555
C1 C4 1_555 1_555
C2 Se2 1_555 1_555
C3 Se1 1_555 1_555
C5 Se4 1_555 1_555
C6 Se3 1_555 1_555
C7 C10 1_555 1_555
C8 Se6 1_555 1_555
C9 Se5 1_555 1_555
C11 Se8 1_555 1_555
C12 Se7 1_555 1_555
C13 S1 1_555 1_555
C14 S2 1_555 1_555
C15 S3 1_555 1_555
C16 S4 1_555 1_555
C2 C3 1_555 1_555
C5 C6 1_555 1_555
C8 C9 1_555 1_555
C11 C12 1_555 1_555
C13 C14 1_555 1_555
C15 C16 1_555 1_555

#END
