
#######################################################################
#
#                 Cambridge Crystallographic Data Centre
#                                CCDC 
#
#######################################################################
#
# If this CIF has been generated from an entry in the Cambridge 
# Structural Database, then it will include bibliographic, chemical, 
# crystal, experimental, refinement or atomic coordinate data resulting 
# from the CCDC's data processing and validation procedures.
#
#######################################################################

data_NIRZIA
_chemical_formula_moiety         'C20 H10 B2 Br2 F2'
_chemical_name_systematic        
5,14-dibromo-2,3-difluoro-5,14-dihydronaphtho[2,3-b]boranthrene
_symmetry_cell_setting           triclinic
_symmetry_space_group_name_H-M   'P -1'
_symmetry_Int_Tables_number      2
_space_group_name_Hall           '-P 1'
loop_
_symmetry_equiv_pos_site_id
_symmetry_equiv_pos_as_xyz
1 x,y,z
2 -x,-y,-z
_cell_length_a                   7.2783(7)
_cell_length_b                   9.6835(8)
_cell_length_c                   12.2806(11)
_cell_angle_alpha                85.371(7)
_cell_angle_beta                 83.085(7)
_cell_angle_gamma                87.911(7)
_cell_volume                     856.118
_exptl_crystal_colour            red
_exptl_crystal_description       plate
_cell_formula_units_Z            2
loop_
_atom_site_label
_atom_site_type_symbol
_atom_site_fract_x
_atom_site_fract_y
_atom_site_fract_z
B1 B 0.8553(4) 0.5719(3) 0.3452(2)
B2 B 0.8115(4) 0.3036(3) 0.4723(2)
Br1 Br 0.86905(5) 0.74665(3) 0.25502(2)
Br2 Br 0.77911(5) 0.12504(3) 0.55542(3)
F1 F 1.1126(3) 0.0758(2) 0.14908(17)
F2 F 1.1570(3) 0.3217(2) 0.03142(16)
C1 C 0.9285(3) 0.4374(3) 0.2903(2)
C2 C 0.9052(3) 0.3080(3) 0.3525(2)
C3 C 0.9669(4) 0.1852(3) 0.3029(2)
H1 H 0.950083 0.097644 0.343024
C4 C 1.0509(4) 0.1931(3) 0.1971(3)
C5 C 1.0742(4) 0.3186(3) 0.1361(2)
C6 C 1.0131(4) 0.4409(3) 0.1816(2)
H2 H 1.028630 0.527011 0.139117
C7 C 0.7658(3) 0.5695(2) 0.4651(2)
C8 C 0.7433(3) 0.4366(2) 0.5292(2)
C9 C 0.6575(3) 0.4315(2) 0.6359(2)
H3 H 0.643094 0.344120 0.676575
C10 C 0.5899(3) 0.5537(2) 0.6870(2)
C11 C 0.5022(4) 0.5489(3) 0.7949(2)
H4 H 0.483640 0.461573 0.835267
C12 C 0.4406(3) 0.6707(3) 0.8452(2)
C13 C 0.3521(4) 0.6683(4) 0.9551(3)
H5 H 0.330625 0.582183 0.996771
C14 C 0.2974(5) 0.7899(4) 1.0014(3)
H6 H 0.241436 0.787309 1.075459
C15 C 0.3234(5) 0.9180(4) 0.9402(3)
H7 H 0.283464 1.000796 0.973555
C16 C 0.4049(4) 0.9261(3) 0.8339(3)
H8 H 0.421409 1.013803 0.793909
C17 C 0.4657(4) 0.8015(3) 0.7826(2)
C18 C 0.5493(4) 0.8060(3) 0.6735(2)
H9 H 0.562829 0.892879 0.631933
C19 C 0.6129(3) 0.6854(2) 0.6246(2)
C20 C 0.7020(3) 0.6885(2) 0.5145(2)
H10 H 0.718119 0.775566 0.473514
loop_
_geom_bond_atom_site_label_1
_geom_bond_atom_site_label_2
_geom_bond_site_symmetry_1
_geom_bond_site_symmetry_2
B1 Br1 1_555 1_555
B2 Br2 1_555 1_555
F1 C4 1_555 1_555
F2 C5 1_555 1_555
C1 B1 1_555 1_555
C2 B2 1_555 1_555
C3 C2 1_555 1_555
H1 C3 1_555 1_555
C4 C3 1_555 1_555
C5 C4 1_555 1_555
C6 C1 1_555 1_555
H2 C6 1_555 1_555
C7 B1 1_555 1_555
C8 B2 1_555 1_555
C9 C8 1_555 1_555
H3 C9 1_555 1_555
C10 C9 1_555 1_555
C11 C10 1_555 1_555
H4 C11 1_555 1_555
C12 C11 1_555 1_555
C13 C12 1_555 1_555
H5 C13 1_555 1_555
C14 C13 1_555 1_555
H6 C14 1_555 1_555
C15 C14 1_555 1_555
H7 C15 1_555 1_555
C16 C15 1_555 1_555
H8 C16 1_555 1_555
C17 C12 1_555 1_555
C18 C17 1_555 1_555
H9 C18 1_555 1_555
C19 C10 1_555 1_555
C20 C7 1_555 1_555
H10 C20 1_555 1_555
C1 C2 1_555 1_555
C5 C6 1_555 1_555
C7 C8 1_555 1_555
C16 C17 1_555 1_555
C18 C19 1_555 1_555
C19 C20 1_555 1_555

#END
