
#######################################################################
#
#                 Cambridge Crystallographic Data Centre
#                                CCDC 
#
#######################################################################
#
# If this CIF has been generated from an entry in the Cambridge 
# Structural Database, then it will include bibliographic, chemical, 
# crystal, experimental, refinement or atomic coordinate data resulting 
# from the CCDC's data processing and validation procedures.
#
#######################################################################

data_NISMUX01
_chemical_name_common            'mucochloric acid'
_chemical_formula_moiety         'C4 H2 Cl2 O3'
_chemical_name_systematic        3,4-dichloro-5-hydroxyfuran-2(5H)-one
_symmetry_cell_setting           triclinic
_symmetry_space_group_name_H-M   'P -1'
_symmetry_Int_Tables_number      2
_space_group_name_Hall           '-P 1'
loop_
_symmetry_equiv_pos_site_id
_symmetry_equiv_pos_as_xyz
1 x,y,z
2 -x,-y,-z
_cell_length_a                   6.228(4)
_cell_length_b                   8.002(5)
_cell_length_c                   12.336(7)
_cell_angle_alpha                99.672(7)
_cell_angle_beta                 102.474(7)
_cell_angle_gamma                90.051(7)
_cell_volume                     591.296
_exptl_crystal_colour            colorless
_exptl_crystal_description       plates
_chemical_melting_point          '400 K'
_cell_formula_units_Z            4
loop_
_atom_site_label
_atom_site_type_symbol
_atom_site_fract_x
_atom_site_fract_y
_atom_site_fract_z
Cl1 Cl 1.1810(2) -0.03389(15) 0.37310(10)
Cl2 Cl 0.7302(2) 0.22310(15) 0.37642(10)
O1 O 0.8193(5) 0.0296(4) 0.0779(3)
O2 O 0.5492(6) 0.2037(4) 0.1133(3)
O3 O 0.9820(5) -0.2211(4) 0.1189(3)
C1 C 0.8230(7) 0.1168(5) 0.2637(4)
C2 C 0.7123(8) 0.1258(6) 0.1477(4)
C3 C 1.0082(8) -0.0483(6) 0.1427(4)
H1 H 1.1499 -0.0099 0.1273
C4 C 0.9930(8) 0.0190(5) 0.2624(4)
H2 H 0.985(9) -0.264(7) 0.041(5)
Cl3 Cl 0.6819(2) 0.72649(15) 0.37369(10)
Cl4 Cl 0.2298(2) 0.47140(15) 0.37600(10)
O4 O 0.3196(5) 0.5117(4) 0.0773(3)
O5 O 0.4803(6) 0.7845(4) 0.1188(3)
O6 O 0.0493(6) 0.3564(4) 0.1133(3)
C5 C 0.5065(8) 0.6234(6) 0.1434(4)
H3 H 0.6487 0.5778 0.1285
C6 C 0.4919(7) 0.6179(6) 0.2625(4)
C7 C 0.3218(8) 0.5206(5) 0.2638(4)
C8 C 0.2124(8) 0.4524(6) 0.1477(4)
H4 H 0.454(12) 0.796(9) 0.039(6)
loop_
_geom_bond_atom_site_label_1
_geom_bond_atom_site_label_2
_geom_bond_site_symmetry_1
_geom_bond_site_symmetry_2
Cl1 C4 1_555 1_555
Cl2 C1 1_555 1_555
O1 C2 1_555 1_555
O2 C2 1_555 1_555
O3 C3 1_555 1_555
C1 C2 1_555 1_555
C3 O1 1_555 1_555
H1 C3 1_555 1_555
C4 C1 1_555 1_555
H2 O3 1_555 1_555
Cl3 C6 1_555 1_555
Cl4 C7 1_555 1_555
O4 C5 1_555 1_555
O5 C5 1_555 1_555
O6 C8 1_555 1_555
C5 H3 1_555 1_555
C6 C5 1_555 1_555
C7 C6 1_555 1_555
C8 O4 1_555 1_555
H4 O5 1_555 1_555
C3 C4 1_555 1_555
C7 C8 1_555 1_555

#END
