
#######################################################################
#
#                 Cambridge Crystallographic Data Centre
#                                CCDC 
#
#######################################################################
#
# If this CIF has been generated from an entry in the Cambridge 
# Structural Database, then it will include bibliographic, chemical, 
# crystal, experimental, refinement or atomic coordinate data resulting 
# from the CCDC's data processing and validation procedures.
#
#######################################################################

data_NISTOZ
_chemical_formula_moiety         'C14 H10 F3 N3 O1'
_chemical_name_systematic        
(6-Methyl-4-(\a,\a,\a-trifluoro-m-tolyl)-3-oxo-2H-pyridazin-2-yl)acetonitrile
_chemical_properties_biological  'herbicidal activity'
_symmetry_cell_setting           monoclinic
_symmetry_space_group_name_H-M   'C 2/c'
_symmetry_Int_Tables_number      15
_space_group_name_Hall           '-C 2yn'
loop_
_symmetry_equiv_pos_site_id
_symmetry_equiv_pos_as_xyz
1 x,y,z
2 1/2+x,1/2+y,z
3 -x,y,1/2-z
4 1/2-x,1/2+y,1/2-z
5 -x,-y,-z
6 1/2-x,1/2-y,-z
7 x,-y,1/2+z
8 1/2+x,1/2-y,1/2+z
_cell_length_a                   16.882(3)
_cell_length_b                   15.752(3)
_cell_length_c                   11.082(2)
_cell_angle_alpha                90
_cell_angle_beta                 113.294(3)
_cell_angle_gamma                90
_cell_volume                     2706.77
_exptl_crystal_colour            colorless
_exptl_crystal_description       block
_chemical_melting_point          106-107deg.C
_cell_formula_units_Z            8
_exptl_crystal_recrystallization_method chloroform/hexane
loop_
_atom_site_label
_atom_site_type_symbol
_atom_site_fract_x
_atom_site_fract_y
_atom_site_fract_z
F1 F 0.0569(3) 0.0184(4) 0.9089(5)
F2 F 0.0495(3) 0.1425(3) 0.9936(7)
F3 F 0.1192(3) 0.0429(4) 1.1178(4)
O1 O 0.39797(10) 0.06260(12) 0.77841(16)
N1 N 0.25818(12) 0.12020(13) 0.45355(18)
N2 N 0.32647(11) 0.09166(12) 0.56167(18)
N3 N 0.45096(16) 0.17486(19) 0.4147(3)
C1 C 0.11695(16) 0.18045(19) 0.3554(2)
H1 H 0.1288 0.1730 0.2782
H2 H 0.1067 0.2394 0.3656
H3 H 0.0668 0.1481 0.3468
C2 C 0.19241(14) 0.15057(15) 0.4732(2)
C3 C 0.19139(14) 0.15478(15) 0.6007(2)
H4 H 0.1435 0.1774 0.6106
C4 C 0.25852(14) 0.12666(14) 0.7075(2)
C5 C 0.33328(14) 0.09159(15) 0.6902(2)
C6 C 0.39737(16) 0.05945(17) 0.5311(2)
H5 H 0.4443 0.0418 0.6115
H6 H 0.3781 0.0102 0.4743
C7 C 0.42807(16) 0.12418(19) 0.4662(3)
C8 C 0.25789(14) 0.12834(14) 0.8414(2)
C9 C 0.32860(15) 0.15547(15) 0.9502(2)
H7 H 0.3782 0.1731 0.9402
C10 C 0.32618(17) 0.15657(17) 1.0731(3)
H8 H 0.3741 0.1748 1.1453
C11 C 0.25279(18) 0.13072(17) 1.0892(2)
H9 H 0.2514 0.1309 1.1722
C12 C 0.18162(16) 0.10461(16) 0.9816(2)
C13 C 0.10133(19) 0.07899(19) 0.9961(3)
C14 C 0.18355(15) 0.10327(15) 0.8577(2)
H10 H 0.1353 0.0857 0.7856
F4? F 0.0340(7) 0.0637(11) 0.8803(9)
F5? F 0.0747(12) 0.1482(9) 1.042(2)
F6? F 0.1116(10) 0.0145(7) 1.0779(12)
F7? F 0.0772(15) -0.0018(8) 0.9562(19)
F8? F 0.0305(8) 0.1243(11) 0.9120(18)
F9? F 0.0987(10) 0.0829(10) 1.1130(11)
H11? H 0.0727 0.2007 0.3822
H12? H 0.0949 0.1343 0.2948
H13? H 0.1348 0.2256 0.3136
loop_
_geom_bond_atom_site_label_1
_geom_bond_atom_site_label_2
_geom_bond_site_symmetry_1
_geom_bond_site_symmetry_2
F1 C13 1_555 1_555
F2 C13 1_555 1_555
F3 C13 1_555 1_555
O1 C5 1_555 1_555
N1 N2 1_555 1_555
N2 C5 1_555 1_555
N3 C7 1_555 1_555
C1 H1 1_555 1_555
H2 C1 1_555 1_555
H3 C1 1_555 1_555
C2 N1 1_555 1_555
C3 C2 1_555 1_555
H4 C3 1_555 1_555
C4 C3 1_555 1_555
C5 C4 1_555 1_555
C6 N2 1_555 1_555
H5 C6 1_555 1_555
H6 C6 1_555 1_555
C7 C6 1_555 1_555
C8 C4 1_555 1_555
C9 C8 1_555 1_555
H7 C9 1_555 1_555
C10 C9 1_555 1_555
H8 C10 1_555 1_555
C11 C10 1_555 1_555
H9 C11 1_555 1_555
C12 C11 1_555 1_555
C13 C12 1_555 1_555
C14 C8 1_555 1_555
H10 C14 1_555 1_555
C1 C2 1_555 1_555
C12 C14 1_555 1_555

#END
