
#######################################################################
#
#                 Cambridge Crystallographic Data Centre
#                                CCDC 
#
#######################################################################
#
# If this CIF has been generated from an entry in the Cambridge 
# Structural Database, then it will include bibliographic, chemical, 
# crystal, experimental, refinement or atomic coordinate data resulting 
# from the CCDC's data processing and validation procedures.
#
#######################################################################

data_NITTIU
_chemical_compound_source        
'roots and aerial parts of Senecio nemorensis L.(Compositae)'
_chemical_formula_moiety         'C19 H24 O6'
_chemical_name_systematic        
6\b-Isobutyryloxy-8\a-hydroxy-1-oxoeremophil-7(11),9-dien-12,8\b-olide
_chemical_properties_biological  
'no significant antimicrobial activity against Staphylococcus aureus and Candida albicans'
_symmetry_cell_setting           orthorhombic
_symmetry_space_group_name_H-M   'P 21 21 21'
_symmetry_Int_Tables_number      19
_space_group_name_Hall           'P 2ac 2ab'
loop_
_symmetry_equiv_pos_site_id
_symmetry_equiv_pos_as_xyz
1 x,y,z
2 1/2-x,-y,1/2+z
3 -x,1/2+y,1/2-z
4 1/2+x,1/2-y,-z
_cell_length_a                   8.3629(2)
_cell_length_b                   10.2469(2)
_cell_length_c                   21.5618(5)
_cell_angle_alpha                90
_cell_angle_beta                 90
_cell_angle_gamma                90
_cell_volume                     1847.71
_exptl_crystal_colour            yellow
_chemical_melting_point          159-160deg.C
_cell_formula_units_Z            4
loop_
_atom_site_label
_atom_site_type_symbol
_atom_site_fract_x
_atom_site_fract_y
_atom_site_fract_z
C1 C 0.0932(3) 0.2684(2) 0.22515(10)
C2 C 0.0565(4) 0.3887(2) 0.18925(11)
H1 H 0.1500 0.4447 0.1895
H2 H -0.0294 0.4352 0.2098
C3 C 0.0080(3) 0.3630(2) 0.12218(12)
H3 H 0.0090 0.4447 0.0995
H4 H -0.1004 0.3294 0.1214
C4 C 0.1182(3) 0.2660(2) 0.08975(9)
H5 H 0.2270 0.3010 0.0927
C5 C 0.1175(2) 0.13157(18) 0.12476(8)
C6 C 0.2329(2) 0.03383(18) 0.09203(7)
H6 H 0.3254 0.0816 0.0757
C7 C 0.2890(2) -0.06608(18) 0.13696(8)
C8 C 0.3832(2) -0.01147(18) 0.19051(8)
C9 C 0.2896(2) 0.09485(19) 0.22082(8)
H7 H 0.3123 0.1171 0.2617
C10 C 0.1749(2) 0.15837(18) 0.19103(8)
C11 C 0.2608(2) -0.19241(18) 0.14549(8)
C12 C 0.3315(2) -0.2281(2) 0.20600(9)
C13 C 0.1733(3) -0.2928(2) 0.10869(10)
H8 H 0.0979 -0.2506 0.0818
H9 H 0.1175 -0.3505 0.1363
H10 H 0.2481 -0.3419 0.0843
C14 C -0.0508(2) 0.0710(2) 0.13011(10)
H11 H -0.0422 -0.0163 0.1459
H12 H -0.1002 0.0691 0.0899
H13 H -0.1147 0.1226 0.1578
C15 C 0.0768(3) 0.2582(2) 0.02082(10)
H14 H -0.0262 0.2183 0.0159
H15 H 0.1560 0.2069 -0.0003
H16 H 0.0747 0.3446 0.0035
C16 C 0.2348(3) -0.0824(2) -0.00353(8)
C17 C 0.1272(3) -0.1413(3) -0.05263(9)
H17 H 0.0290 -0.1710 -0.0322
C18 C 0.2041(4) -0.2573(4) -0.08237(15)
H18 H 0.3033 -0.2315 -0.1011
H19 H 0.1341 -0.2920 -0.1136
H20 H 0.2242 -0.3228 -0.0515
C19 C 0.0821(4) -0.0342(4) -0.09836(13)
H21 H 0.0296 0.0354 -0.0766
H22 H 0.0112 -0.0691 -0.1292
H23 H 0.1769 -0.0015 -0.1181
O1 O 0.33029(19) -0.33376(15) 0.23094(7)
O2 O 0.0667(2) 0.25920(18) 0.28001(8)
O3 O 0.39865(18) -0.12207(15) 0.23292(6)
O4 O 0.53347(17) 0.02700(16) 0.17151(6)
H24 H 0.5765 0.0690 0.1992
O5 O 0.14734(16) -0.02505(13) 0.04132(5)
O6 O 0.37791(18) -0.08343(16) -0.00291(6)
loop_
_geom_bond_atom_site_label_1
_geom_bond_atom_site_label_2
_geom_bond_site_symmetry_1
_geom_bond_site_symmetry_2
C1 C2 1_555 1_555
C2 H1 1_555 1_555
H2 C2 1_555 1_555
C3 C2 1_555 1_555
H3 C3 1_555 1_555
H4 C3 1_555 1_555
C4 C3 1_555 1_555
H5 C4 1_555 1_555
C5 C4 1_555 1_555
C6 C5 1_555 1_555
H6 C6 1_555 1_555
C7 C6 1_555 1_555
C8 C7 1_555 1_555
C9 C8 1_555 1_555
H7 C9 1_555 1_555
C10 C1 1_555 1_555
C11 C7 1_555 1_555
C12 C11 1_555 1_555
C13 C11 1_555 1_555
H8 C13 1_555 1_555
H9 C13 1_555 1_555
H10 C13 1_555 1_555
C14 C5 1_555 1_555
H11 C14 1_555 1_555
H12 C14 1_555 1_555
H13 C14 1_555 1_555
C15 C4 1_555 1_555
H14 C15 1_555 1_555
H15 C15 1_555 1_555
H16 C15 1_555 1_555
C16 C17 1_555 1_555
C17 H17 1_555 1_555
C18 C17 1_555 1_555
H18 C18 1_555 1_555
H19 C18 1_555 1_555
H20 C18 1_555 1_555
C19 C17 1_555 1_555
H21 C19 1_555 1_555
H22 C19 1_555 1_555
H23 C19 1_555 1_555
O1 C12 1_555 1_555
O2 C1 1_555 1_555
O3 C8 1_555 1_555
O4 C8 1_555 1_555
H24 O4 1_555 1_555
O5 C6 1_555 1_555
O6 C16 1_555 1_555
C5 C10 1_555 1_555
C9 C10 1_555 1_555
C12 O3 1_555 1_555
C16 O5 1_555 1_555

#END
