
#######################################################################
#
#                 Cambridge Crystallographic Data Centre
#                                CCDC 
#
#######################################################################
#
# If this CIF has been generated from an entry in the Cambridge 
# Structural Database, then it will include bibliographic, chemical, 
# crystal, experimental, refinement or atomic coordinate data resulting 
# from the CCDC's data processing and validation procedures.
#
#######################################################################

data_NITWAP
_chemical_name_common            
21,22-Etheno-3-ethoxy-5,10,15,20-tetraphenyl-N-confused-porphyrin
_chemical_formula_moiety         'C48 H34 N4 O1'
_chemical_name_systematic        
21,22-Etheno-3-ethoxy-5,10,15,20-tetraphenyl-2-aza-21-carbaporphyrin
_symmetry_cell_setting           triclinic
_symmetry_space_group_name_H-M   'P -1'
_symmetry_Int_Tables_number      2
_space_group_name_Hall           '-P 1'
loop_
_symmetry_equiv_pos_site_id
_symmetry_equiv_pos_as_xyz
1 x,y,z
2 -x,-y,-z
_cell_length_a                   9.648(3)
_cell_length_b                   13.477(4)
_cell_length_c                   15.109(4)
_cell_angle_alpha                82.536(6)
_cell_angle_beta                 74.261(6)
_cell_angle_gamma                82.981(6)
_cell_volume                     1867.09
_exptl_crystal_colour            green
_exptl_crystal_description       plate
_cell_formula_units_Z            2
loop_
_atom_site_label
_atom_site_type_symbol
_atom_site_fract_x
_atom_site_fract_y
_atom_site_fract_z
C1 C 0.7314(6) 0.1328(4) 0.4784(3)
C2 C 0.7855(5) 0.0781(4) 0.3959(3)
C3 C 0.8115(5) 0.1548(4) 0.3225(3)
C4 C 0.7640(5) 0.2479(4) 0.3610(3)
C5 C 0.7531(5) 0.3464(4) 0.3170(3)
C6 C 0.7520(6) 0.3700(4) 0.2228(3)
C7 C 0.7711(6) 0.4665(4) 0.1698(4)
H1 H 0.7867 0.5251 0.1920
C8 C 0.7630(6) 0.4593(4) 0.0828(4)
H2 H 0.7712 0.5116 0.0345
C9 C 0.7395(6) 0.3566(4) 0.0776(3)
C10 C 0.7371(6) 0.3148(4) -0.0017(3)
C11 C 0.7388(5) 0.2101(4) -0.0076(3)
C12 C 0.7545(6) 0.1652(4) -0.0925(4)
H3 H 0.7571 0.1997 -0.1510
C13 C 0.7646(6) 0.0649(4) -0.0716(4)
H4 H 0.7757 0.0165 -0.1131
C14 C 0.7552(6) 0.0450(4) 0.0267(3)
C15 C 0.7673(6) -0.0532(4) 0.0727(3)
C16 C 0.7786(6) -0.0800(4) 0.1637(4)
C17 C 0.7545(6) -0.1742(4) 0.2175(4)
H5 H 0.7327 -0.2314 0.1963
C18 C 0.7677(6) -0.1692(4) 0.3048(4)
H6 H 0.7583 -0.2223 0.3523
C19 C 0.7982(6) -0.0689(4) 0.3112(3)
C20 C 0.7910(5) -0.0272(4) 0.3927(3)
N1 N 0.7168(5) 0.2301(3) 0.4603(3)
N2 N 0.7327(5) 0.3063(3) 0.1637(3)
H7 H 0.7183 0.2432 0.1787
N3 N 0.7357(4) 0.1361(3) 0.0641(3)
N4 N 0.8083(5) -0.0169(3) 0.2221(3)
C21 C 0.9014(6) 0.1410(4) 0.2306(3)
H8 H 0.9637 0.1906 0.2007
C22 C 0.9014(5) 0.0619(4) 0.1856(3)
H9 H 0.9660 0.0578 0.1269
C23 C 0.7326(6) 0.4337(4) 0.3732(4)
C24 C 0.8231(7) 0.4374(4) 0.4310(4)
H10 H 0.8968 0.3857 0.4344
C25 C 0.8030(9) 0.5186(6) 0.4834(4)
H11 H 0.8650 0.5221 0.5211
C26 C 0.6940(11) 0.5930(5) 0.4804(5)
H12 H 0.6814 0.6470 0.5163
C27 C 0.6042(9) 0.5898(5) 0.4262(5)
H13 H 0.5299 0.6415 0.4243
C28 C 0.6222(7) 0.5086(4) 0.3722(4)
H14 H 0.5584 0.5057 0.3355
C29 C 0.7438(6) 0.3833(4) -0.0886(3)
C30 C 0.8750(7) 0.3960(5) -0.1541(4)
H15 H 0.9603 0.3612 -0.1431
C31 C 0.8823(9) 0.4589(6) -0.2352(5)
H16 H 0.9719 0.4670 -0.2784
C32 C 0.7587(9) 0.5090(5) -0.2521(4)
H17 H 0.7631 0.5512 -0.3073
C33 C 0.6300(8) 0.4981(4) -0.1893(4)
H18 H 0.5451 0.5326 -0.2012
C34 C 0.6228(7) 0.4360(4) -0.1076(4)
H19 H 0.5328 0.4301 -0.0642
C35 C 0.7635(6) -0.1401(4) 0.0202(3)
C36 C 0.8777(6) -0.2144(4) 0.0066(3)
H20 H 0.9569 -0.2107 0.0307
C37 C 0.8760(6) -0.2944(4) -0.0426(3)
H21 H 0.9533 -0.3450 -0.0510
C38 C 0.7613(7) -0.2996(4) -0.0791(4)
H22 H 0.7616 -0.3536 -0.1128
C39 C 0.6462(7) -0.2271(5) -0.0670(4)
H23 H 0.5682 -0.2308 -0.0922
C40 C 0.6481(6) -0.1471(4) -0.0159(4)
H24 H 0.5695 -0.0977 -0.0061
C41 C 0.7704(6) -0.0953(4) 0.4802(3)
C42 C 0.6326(6) -0.1223(4) 0.5275(3)
H25 H 0.5549 -0.1027 0.5007
C43 C 0.6087(7) -0.1778(4) 0.6138(4)
H26 H 0.5149 -0.1937 0.6459
C44 C 0.7224(8) -0.2093(4) 0.6519(4)
H27 H 0.7065 -0.2471 0.7100
C45 C 0.8603(8) -0.1856(5) 0.6050(4)
H28 H 0.9386 -0.2077 0.6306
C46 C 0.8820(7) -0.1292(5) 0.5199(4)
H29 H 0.9762 -0.1135 0.4882
O1 O 0.6990(4) 0.0842(3) 0.5631(2)
C47 C 0.6441(8) 0.1458(5) 0.6405(4)
H30 H 0.5539 0.1856 0.6357
H31 H 0.7152 0.1916 0.6414
C48 C 0.6179(9) 0.0715(5) 0.7279(4)
H32 H 0.5513 0.0246 0.7243
H33 H 0.5770 0.1079 0.7817
H34 H 0.7089 0.0348 0.7329
loop_
_geom_bond_atom_site_label_1
_geom_bond_atom_site_label_2
_geom_bond_site_symmetry_1
_geom_bond_site_symmetry_2
C1 C2 1_555 1_555
C2 C3 1_555 1_555
C3 C4 1_555 1_555
C4 C5 1_555 1_555
C5 C6 1_555 1_555
C6 C7 1_555 1_555
C7 H1 1_555 1_555
C8 C7 1_555 1_555
H2 C8 1_555 1_555
C9 C8 1_555 1_555
C10 C9 1_555 1_555
C11 C10 1_555 1_555
C12 C11 1_555 1_555
H3 C12 1_555 1_555
C13 C12 1_555 1_555
H4 C13 1_555 1_555
C14 C13 1_555 1_555
C15 C14 1_555 1_555
C16 C15 1_555 1_555
C17 C16 1_555 1_555
H5 C17 1_555 1_555
C18 C17 1_555 1_555
H6 C18 1_555 1_555
C19 C18 1_555 1_555
C20 C2 1_555 1_555
N1 C1 1_555 1_555
N2 C6 1_555 1_555
H7 N2 1_555 1_555
N3 C11 1_555 1_555
N4 C16 1_555 1_555
C21 C3 1_555 1_555
H8 C21 1_555 1_555
C22 N4 1_555 1_555
H9 C22 1_555 1_555
C23 C5 1_555 1_555
C24 C23 1_555 1_555
H10 C24 1_555 1_555
C25 C24 1_555 1_555
H11 C25 1_555 1_555
C26 C25 1_555 1_555
H12 C26 1_555 1_555
C27 C26 1_555 1_555
H13 C27 1_555 1_555
C28 C23 1_555 1_555
H14 C28 1_555 1_555
C29 C10 1_555 1_555
C30 C29 1_555 1_555
H15 C30 1_555 1_555
C31 C30 1_555 1_555
H16 C31 1_555 1_555
C32 C31 1_555 1_555
H17 C32 1_555 1_555
C33 C32 1_555 1_555
H18 C33 1_555 1_555
C34 C29 1_555 1_555
H19 C34 1_555 1_555
C35 C15 1_555 1_555
C36 C35 1_555 1_555
H20 C36 1_555 1_555
C37 C36 1_555 1_555
H21 C37 1_555 1_555
C38 C37 1_555 1_555
H22 C38 1_555 1_555
C39 C38 1_555 1_555
H23 C39 1_555 1_555
C40 C35 1_555 1_555
H24 C40 1_555 1_555
C41 C20 1_555 1_555
C42 C41 1_555 1_555
H25 C42 1_555 1_555
C43 C42 1_555 1_555
H26 C43 1_555 1_555
C44 C43 1_555 1_555
H27 C44 1_555 1_555
C45 C44 1_555 1_555
H28 C45 1_555 1_555
C46 C41 1_555 1_555
H29 C46 1_555 1_555
O1 C1 1_555 1_555
C47 O1 1_555 1_555
H30 C47 1_555 1_555
H31 C47 1_555 1_555
C48 C47 1_555 1_555
H32 C48 1_555 1_555
H33 C48 1_555 1_555
H34 C48 1_555 1_555
C4 N1 1_555 1_555
C9 N2 1_555 1_555
C14 N3 1_555 1_555
C19 C20 1_555 1_555
C19 N4 1_555 1_555
C21 C22 1_555 1_555
C27 C28 1_555 1_555
C33 C34 1_555 1_555
C39 C40 1_555 1_555
C45 C46 1_555 1_555

#END
