
#######################################################################
#
#                 Cambridge Crystallographic Data Centre
#                                CCDC 
#
#######################################################################
#
# If this CIF has been generated from an entry in the Cambridge 
# Structural Database, then it will include bibliographic, chemical, 
# crystal, experimental, refinement or atomic coordinate data resulting 
# from the CCDC's data processing and validation procedures.
#
#######################################################################

data_NIVGUW
_chemical_formula_moiety         'C23 H16 S1'
_chemical_name_systematic        'Methyl 1-phenylpyren-2-yl sulfide'
_symmetry_cell_setting           monoclinic
_symmetry_space_group_name_H-M   'P 21/c'
_symmetry_Int_Tables_number      14
_space_group_name_Hall           '-P 2ybc'
loop_
_symmetry_equiv_pos_site_id
_symmetry_equiv_pos_as_xyz
1 x,y,z
2 -x,1/2+y,1/2-z
3 -x,-y,-z
4 x,1/2-y,1/2+z
_cell_length_a                   12.7799(3)
_cell_length_b                   12.0694(3)
_cell_length_c                   10.7199(3)
_cell_angle_alpha                90
_cell_angle_beta                 95.423(2)
_cell_angle_gamma                90
_cell_volume                     1646.1
_exptl_crystal_colour            colorless
_cell_formula_units_Z            4
_exptl_crystal_recrystallization_method hexane
loop_
_atom_site_label
_atom_site_type_symbol
_atom_site_fract_x
_atom_site_fract_y
_atom_site_fract_z
C1 C 0.4582(2) 0.7972(4) 0.2908(3)
H1 H 0.3957 0.8344 0.3005
C2 C 0.4833(2) 0.7031(3) 0.3578(3)
H2 H 0.4378 0.6764 0.4136
C3 C 0.57563(18) 0.6471(2) 0.3434(2)
H3 H 0.5921 0.5833 0.3899
C4 C 0.64392(16) 0.68529(18) 0.26013(19)
C5 C 0.74376(14) 0.62623(16) 0.24304(17)
C6 C 0.83316(14) 0.64284(15) 0.32758(17)
C7 C 0.83274(17) 0.71525(16) 0.43437(18)
H4 H 0.7714 0.7527 0.4487
C8 C 0.92001(18) 0.72948(17) 0.51395(19)
H5 H 0.9164 0.7749 0.5835
C9 C 1.01733(16) 0.67767(17) 0.49552(19)
C10 C 1.1095(2) 0.6947(2) 0.5743(2)
H6 H 1.1086 0.7420 0.6427
C11 C 1.2014(2) 0.6424(2) 0.5517(3)
H7 H 1.2621 0.6551 0.6048
C12 C 0.5250(3) 0.8359(3) 0.2099(3)
H8 H 0.5083 0.9004 0.1649
C13 C 0.6172(2) 0.7811(2) 0.1934(2)
H9 H 0.6619 0.8086 0.1371
C14 C 0.74857(16) 0.55333(16) 0.14102(18)
C15 C 0.6609(2) 0.4300(2) -0.0645(2)
H10 H 0.7154 0.4517 -0.1153
H11 H 0.5985 0.4117 -0.1175
H12 H 0.6835 0.3666 -0.0151
C16 C 0.84132(17) 0.49741(18) 0.12487(18)
H13 H 0.8433 0.4483 0.0583
C17 C 0.93113(16) 0.51353(17) 0.20626(18)
C18 C 0.92850(15) 0.58708(16) 0.30890(17)
C19 C 1.02060(15) 0.60532(17) 0.39132(18)
C20 C 1.20506(19) 0.5713(2) 0.4512(3)
H14 H 1.2680 0.5367 0.4379
C21 C 1.11583(17) 0.55067(19) 0.3697(2)
C22 C 1.11505(19) 0.4760(2) 0.2659(2)
H15 H 1.1765 0.4386 0.2518
C23 C 1.02831(18) 0.4588(2) 0.1887(2)
H16 H 1.0310 0.4101 0.1218
S1 S 0.63335(5) 0.54212(5) 0.03704(5)
loop_
_geom_bond_atom_site_label_1
_geom_bond_atom_site_label_2
_geom_bond_site_symmetry_1
_geom_bond_site_symmetry_2
C1 H1 1_555 1_555
C2 C1 1_555 1_555
H2 C2 1_555 1_555
C3 C2 1_555 1_555
H3 C3 1_555 1_555
C4 C3 1_555 1_555
C5 C4 1_555 1_555
C6 C5 1_555 1_555
C7 C6 1_555 1_555
H4 C7 1_555 1_555
C8 C7 1_555 1_555
H5 C8 1_555 1_555
C9 C8 1_555 1_555
C10 C9 1_555 1_555
H6 C10 1_555 1_555
C11 C10 1_555 1_555
H7 C11 1_555 1_555
C12 C1 1_555 1_555
H8 C12 1_555 1_555
C13 C4 1_555 1_555
H9 C13 1_555 1_555
C14 C5 1_555 1_555
C15 H10 1_555 1_555
H11 C15 1_555 1_555
H12 C15 1_555 1_555
C16 C14 1_555 1_555
H13 C16 1_555 1_555
C17 C16 1_555 1_555
C18 C6 1_555 1_555
C19 C9 1_555 1_555
C20 C11 1_555 1_555
H14 C20 1_555 1_555
C21 C19 1_555 1_555
C22 C21 1_555 1_555
H15 C22 1_555 1_555
C23 C17 1_555 1_555
H16 C23 1_555 1_555
S1 C14 1_555 1_555
C12 C13 1_555 1_555
C15 S1 1_555 1_555
C17 C18 1_555 1_555
C18 C19 1_555 1_555
C20 C21 1_555 1_555
C22 C23 1_555 1_555

#END
