
#######################################################################
#
#                 Cambridge Crystallographic Data Centre
#                                CCDC 
#
#######################################################################
#
# If this CIF has been generated from an entry in the Cambridge 
# Structural Database, then it will include bibliographic, chemical, 
# crystal, experimental, refinement or atomic coordinate data resulting 
# from the CCDC's data processing and validation procedures.
#
#######################################################################

data_NIVJEI
_chemical_compound_source        'Hosta plantaginea'
_chemical_formula_moiety         'C17 H17 N1 O6'
_chemical_name_systematic        'Hostasinine A'
_chemical_properties_biological  
'inhibitory activity on acetylcholinesterase and tumour cell lines K562 and A549'
_symmetry_cell_setting           monoclinic
_symmetry_space_group_name_H-M   'P 21'
_symmetry_Int_Tables_number      4
_space_group_name_Hall           'P 2yb'
loop_
_symmetry_equiv_pos_site_id
_symmetry_equiv_pos_as_xyz
1 x,y,z
2 -x,1/2+y,-z
_cell_length_a                   7.631(3)
_cell_length_b                   8.753(4)
_cell_length_c                   11.308(5)
_cell_angle_alpha                90
_cell_angle_beta                 92.860(16)
_cell_angle_gamma                90
_cell_volume                     754.367
_exptl_crystal_colour            colorless
_exptl_crystal_description       needles
_chemical_melting_point          '229-231 deg.C'
_cell_formula_units_Z            2
loop_
_atom_site_label
_atom_site_type_symbol
_atom_site_fract_x
_atom_site_fract_y
_atom_site_fract_z
O1 O 0.5000(3) 0.9429(3) 0.03601(19)
O2 O 0.2566(3) 0.7987(3) 0.07492(18)
O3 O 0.8457(2) 0.4772(2) 0.64203(14)
O4 O 1.0337(2) 0.4111(2) 0.20149(15)
O5 O 0.9193(2) 0.7723(2) 0.40900(16)
O6 O 0.3465(2) 0.3192(2) 0.43841(18)
N1 N 0.7270(2) 0.4735(2) 0.55369(16)
C1 C 0.6123(3) 0.3259(3) 0.2906(2)
H1 H 0.5150 0.2684 0.2654
C2 C 0.7701(3) 0.2841(3) 0.2601(2)
H2 H 0.7775 0.2002 0.2102
C3 C 0.9397(3) 0.3620(3) 0.3002(2)
H3 H 1.0125 0.2873 0.3446
C4 C 0.9162(3) 0.5029(3) 0.3809(2)
H4 H 1.0150 0.5078 0.4396
C5 C 0.7520(3) 0.4822(3) 0.44270(19)
C6 C 0.8964(3) 0.6591(3) 0.3185(2)
H5 H 0.9892 0.6703 0.2623
C7 C 0.7196(3) 0.6836(3) 0.2539(2)
C8 C 0.7065(3) 0.8035(3) 0.1712(2)
H6 H 0.8043 0.8606 0.1528
C9 C 0.5453(4) 0.8331(3) 0.1190(2)
C10 C 0.3991(3) 0.7478(3) 0.1429(2)
C11 C 0.4065(3) 0.6295(3) 0.2222(2)
H7 H 0.3079 0.5714 0.2371
C12 C 0.5707(3) 0.6001(2) 0.2800(2)
C13 C 0.5880(3) 0.4669(3) 0.36637(19)
C14 C 0.4424(3) 0.4549(3) 0.4581(2)
H8 H 0.3635 0.5431 0.4500
C15 C 0.5411(3) 0.4592(3) 0.5792(2)
H9 H 0.5036 0.5458 0.6251
H10 H 0.5208 0.3662 0.6231
C16 C 0.3151(5) 0.9408(4) 0.0279(3)
H11 H 0.2732 0.9512 -0.0541
H12 H 0.2693 1.0253 0.0725
C17 C 1.1179(4) 0.2895(4) 0.1429(3)
H13 H 1.1695 0.2204 0.2007
H14 H 1.2079 0.3303 0.0956
H15 H 1.0332 0.2358 0.0930
H16 H 0.999(5) 0.847(5) 0.385(3)
H17 H 0.269(4) 0.313(4) 0.486(3)
loop_
_geom_bond_atom_site_label_1
_geom_bond_atom_site_label_2
_geom_bond_site_symmetry_1
_geom_bond_site_symmetry_2
O1 C9 1_555 1_555
O2 C10 1_555 1_555
O3 N1 1_555 1_555
O4 C3 1_555 1_555
O5 C6 1_555 1_555
O6 C14 1_555 1_555
N1 C5 1_555 1_555
C1 H1 1_555 1_555
C2 C1 1_555 1_555
H2 C2 1_555 1_555
C3 C2 1_555 1_555
H3 C3 1_555 1_555
C4 C3 1_555 1_555
H4 C4 1_555 1_555
C5 C4 1_555 1_555
C6 C4 1_555 1_555
H5 C6 1_555 1_555
C7 C6 1_555 1_555
C8 C7 1_555 1_555
H6 C8 1_555 1_555
C9 C8 1_555 1_555
C10 C9 1_555 1_555
C11 C10 1_555 1_555
H7 C11 1_555 1_555
C12 C7 1_555 1_555
C13 C1 1_555 1_555
C14 C13 1_555 1_555
H8 C14 1_555 1_555
C15 N1 1_555 1_555
H9 C15 1_555 1_555
H10 C15 1_555 1_555
C16 O1 1_555 1_555
H11 C16 1_555 1_555
H12 C16 1_555 1_555
C17 O4 1_555 1_555
H13 C17 1_555 1_555
H14 C17 1_555 1_555
H15 C17 1_555 1_555
H16 O5 1_555 1_555
H17 O6 1_555 1_555
O2 C16 1_555 1_555
C5 C13 1_555 1_555
C11 C12 1_555 1_555
C12 C13 1_555 1_555
C14 C15 1_555 1_555

#END
