
#######################################################################
#
#                 Cambridge Crystallographic Data Centre
#                                CCDC 
#
#######################################################################
#
# If this CIF has been generated from an entry in the Cambridge 
# Structural Database, then it will include bibliographic, chemical, 
# crystal, experimental, refinement or atomic coordinate data resulting 
# from the CCDC's data processing and validation procedures.
#
#######################################################################

data_NIVKOU
_chemical_formula_moiety         'C35 H55 N5'
_chemical_name_systematic        
8-(3a,5,6,6a,7,10,11,12,12a,13a-Decahydro-3H,4H,9H-dipyrido[2,1-b:3',2',1'-ij]quinazolin-2-yl)hexadecahydro-1H,5H,8H,9H-7a,11c,13b-triazadibenzo[gh,pqr]tetraphene
_symmetry_cell_setting           orthorhombic
_symmetry_space_group_name_H-M   'P 21 21 21'
_symmetry_Int_Tables_number      19
_space_group_name_Hall           'P 2ac 2ab'
loop_
_symmetry_equiv_pos_site_id
_symmetry_equiv_pos_as_xyz
1 x,y,z
2 1/2+x,1/2-y,-z
3 -x,1/2+y,1/2-z
4 1/2-x,-y,1/2+z
_cell_length_a                   9.2966(5)
_cell_length_b                   12.0684(7)
_cell_length_c                   27.4671(16)
_cell_angle_alpha                90
_cell_angle_beta                 90
_cell_angle_gamma                90
_cell_volume                     3081.67
_exptl_crystal_colour            colorless
_exptl_crystal_description       prism
_cell_formula_units_Z            4
loop_
_atom_site_label
_atom_site_type_symbol
_atom_site_fract_x
_atom_site_fract_y
_atom_site_fract_z
C1 C 0.6309(2) 1.05872(17) 1.15517(7)
H1 H 0.5596 1.0292 1.1786
H2 H 0.6408 1.1392 1.1612
C2 C 0.1664(2) 1.05039(16) 0.89461(7)
H3 H 0.1648 1.1213 0.9127
H4 H 0.0917 1.0015 0.9087
N1 N 0.57776(16) 1.04122(13) 1.10546(5)
N2 N 0.37691(16) 1.07351(13) 1.05021(5)
N3 N 0.40917(16) 1.11468(13) 0.96553(5)
N4 N 0.29680(16) 0.76410(13) 0.78354(6)
C3 C 0.7749(2) 1.00279(18) 1.16387(7)
H5 H 0.8090 1.0204 1.1971
H6 H 0.7630 0.9215 1.1615
C4 C 0.43443(19) 1.09313(17) 1.09878(7)
H7 H 0.4459 1.1750 1.1030
C5 C 0.47257(19) 1.12242(15) 1.01421(7)
H8 H 0.4782 1.2032 1.0221
C6 C 0.37898(18) 0.99917(15) 0.95041(6)
H9 H 0.4714 0.9569 0.9495
C7 C 0.31155(18) 0.99682(15) 0.90058(7)
C8 C 0.37890(19) 0.94986(15) 0.86314(6)
H10 H 0.4673 0.9133 0.8697
N5 N 0.33063(16) 0.94977(13) 0.81502(5)
C9 C 0.38008(19) 0.86742(16) 0.78024(6)
H11 H 0.3644 0.8986 0.7469
C10 C 0.54027(19) 0.84207(17) 0.78518(7)
H12 H 0.5960 0.9117 0.7825
H13 H 0.5593 0.8096 0.8177
C11 C 0.5891(2) 0.76129(17) 0.74577(7)
H14 H 0.5802 0.7966 0.7134
H15 H 0.6913 0.7415 0.7509
C12 C 0.4975(2) 0.65796(17) 0.74752(8)
H16 H 0.5157 0.6177 0.7783
H17 H 0.5233 0.6085 0.7201
C13 C 0.3443(2) 0.95669(15) 1.04011(7)
H18 H 0.4354 0.9127 1.0415
C14 C 0.28058(19) 0.94781(15) 0.98899(7)
H19 H 0.1884 0.9905 0.9888
C15 C 0.2442(2) 0.82676(16) 0.97747(7)
H20 H 0.1974 0.8227 0.9451
H21 H 0.3342 0.7831 0.9759
C16 C 0.1452(3) 0.77643(19) 1.01536(8)
H22 H 0.1319 0.6967 1.0083
H23 H 0.0499 0.8127 1.0135
C17 C 0.2056(3) 0.7898(2) 1.06662(8)
H24 H 0.2948 0.7455 1.0698
H25 H 0.1351 0.7613 1.0905
C18 C 0.2385(2) 0.91107(18) 1.07780(7)
H26 H 0.1466 0.9533 1.0741
C19 C 0.2926(2) 0.93080(19) 1.12930(7)
H27 H 0.2191 0.9067 1.1531
H28 H 0.3813 0.8873 1.1350
C20 C 0.3236(2) 1.0532(2) 1.13573(7)
H29 H 0.3600 1.0667 1.1691
H30 H 0.2334 1.0959 1.1316
C21 C 0.4997(2) 1.17647(16) 0.93149(7)
H31 H 0.4969 1.2559 0.9404
H32 H 0.4587 1.1692 0.8984
C22 C 0.6565(2) 1.13861(18) 0.93025(7)
H33 H 0.7123 1.1877 0.9084
H34 H 0.6619 1.0623 0.9172
C23 C 0.7214(2) 1.14155(17) 0.98138(7)
H35 H 0.7307 1.2195 0.9922
H36 H 0.8188 1.1085 0.9806
C24 C 0.62720(18) 1.07758(15) 1.01762(6)
H37 H 0.6266 0.9977 1.0080
C25 C 0.68190(19) 1.08646(15) 1.07006(7)
H38 H 0.6971 1.1666 1.0777
C26 C 0.82576(19) 1.02655(17) 1.07590(7)
H39 H 0.8125 0.9467 1.0690
H40 H 0.8955 1.0564 1.0520
C27 C 0.8858(2) 1.04065(19) 1.12714(7)
H41 H 0.9747 0.9963 1.1308
H42 H 0.9101 1.1194 1.1329
C28 C 0.1319(2) 1.07229(15) 0.84095(7)
H43 H 0.1863 1.1398 0.8306
C29 C -0.0292(2) 1.09485(17) 0.83271(8)
H44 H -0.0615 1.1528 0.8557
H45 H -0.0432 1.1236 0.7993
C30 C -0.1222(2) 0.99180(17) 0.83958(7)
H46 H -0.1179 0.9680 0.8741
H47 H -0.2234 1.0099 0.8318
C31 C -0.07170(19) 0.89718(18) 0.80704(7)
H48 H -0.0877 0.9173 0.7725
H49 H -0.1292 0.8300 0.8142
C32 C 0.08803(19) 0.87179(16) 0.81499(7)
H50 H 0.1016 0.8436 0.8489
C33 C 0.17851(19) 0.97659(15) 0.80834(7)
H51 H 0.1661 1.0014 0.7739
C34 C 0.3396(2) 0.68862(16) 0.74420(7)
H52 H 0.3208 0.7245 0.7124
H53 H 0.2806 0.6204 0.7459
C35 C 0.1418(2) 0.78501(16) 0.77941(7)
H54 H 0.0893 0.7149 0.7852
H55 H 0.1200 0.8097 0.7458
loop_
_geom_bond_atom_site_label_1
_geom_bond_atom_site_label_2
_geom_bond_site_symmetry_1
_geom_bond_site_symmetry_2
C1 H1 1_555 1_555
H2 C1 1_555 1_555
C2 H3 1_555 1_555
H4 C2 1_555 1_555
N1 C1 1_555 1_555
N2 C4 1_555 1_555
N3 C5 1_555 1_555
N4 C9 1_555 1_555
C3 C1 1_555 1_555
H5 C3 1_555 1_555
H6 C3 1_555 1_555
C4 N1 1_555 1_555
H7 C4 1_555 1_555
C5 N2 1_555 1_555
H8 C5 1_555 1_555
C6 N3 1_555 1_555
H9 C6 1_555 1_555
C7 C2 1_555 1_555
C8 C7 1_555 1_555
H10 C8 1_555 1_555
N5 C8 1_555 1_555
C9 N5 1_555 1_555
H11 C9 1_555 1_555
C10 C9 1_555 1_555
H12 C10 1_555 1_555
H13 C10 1_555 1_555
C11 C10 1_555 1_555
H14 C11 1_555 1_555
H15 C11 1_555 1_555
C12 C11 1_555 1_555
H16 C12 1_555 1_555
H17 C12 1_555 1_555
C13 N2 1_555 1_555
H18 C13 1_555 1_555
C14 C6 1_555 1_555
H19 C14 1_555 1_555
C15 C14 1_555 1_555
H20 C15 1_555 1_555
H21 C15 1_555 1_555
C16 C15 1_555 1_555
H22 C16 1_555 1_555
H23 C16 1_555 1_555
C17 C16 1_555 1_555
H24 C17 1_555 1_555
H25 C17 1_555 1_555
C18 C13 1_555 1_555
H26 C18 1_555 1_555
C19 C18 1_555 1_555
H27 C19 1_555 1_555
H28 C19 1_555 1_555
C20 C4 1_555 1_555
H29 C20 1_555 1_555
H30 C20 1_555 1_555
C21 N3 1_555 1_555
H31 C21 1_555 1_555
H32 C21 1_555 1_555
C22 C21 1_555 1_555
H33 C22 1_555 1_555
H34 C22 1_555 1_555
C23 C22 1_555 1_555
H35 C23 1_555 1_555
H36 C23 1_555 1_555
C24 C5 1_555 1_555
H37 C24 1_555 1_555
C25 N1 1_555 1_555
H38 C25 1_555 1_555
C26 C25 1_555 1_555
H39 C26 1_555 1_555
H40 C26 1_555 1_555
C27 C3 1_555 1_555
H41 C27 1_555 1_555
H42 C27 1_555 1_555
C28 C2 1_555 1_555
H43 C28 1_555 1_555
C29 C28 1_555 1_555
H44 C29 1_555 1_555
H45 C29 1_555 1_555
C30 C29 1_555 1_555
H46 C30 1_555 1_555
H47 C30 1_555 1_555
C31 C30 1_555 1_555
H48 C31 1_555 1_555
H49 C31 1_555 1_555
C32 C31 1_555 1_555
H50 C32 1_555 1_555
C33 N5 1_555 1_555
H51 C33 1_555 1_555
C34 N4 1_555 1_555
H52 C34 1_555 1_555
H53 C34 1_555 1_555
C35 N4 1_555 1_555
H54 C35 1_555 1_555
H55 C35 1_555 1_555
C6 C7 1_555 1_555
C12 C34 1_555 1_555
C13 C14 1_555 1_555
C17 C18 1_555 1_555
C19 C20 1_555 1_555
C23 C24 1_555 1_555
C24 C25 1_555 1_555
C26 C27 1_555 1_555
C28 C33 1_555 1_555
C32 C33 1_555 1_555
C32 C35 1_555 1_555

#END
