
#######################################################################
#
#                 Cambridge Crystallographic Data Centre
#                                CCDC 
#
#######################################################################
#
# If this CIF has been generated from an entry in the Cambridge 
# Structural Database, then it will include bibliographic, chemical, 
# crystal, experimental, refinement or atomic coordinate data resulting 
# from the CCDC's data processing and validation procedures.
#
#######################################################################

data_NIVMEM
_chemical_formula_moiety         'C40 H36'
_chemical_name_systematic        
5,6,11,12-tetraphenyl-1,2,3,4,7,8,9,10-octahydrodibenzo[a,e][8]annulene
_symmetry_cell_setting           monoclinic
_symmetry_space_group_name_H-M   'P 21/n'
_symmetry_Int_Tables_number      14
_space_group_name_Hall           '-P 2yn'
loop_
_symmetry_equiv_pos_site_id
_symmetry_equiv_pos_as_xyz
1 x,y,z
2 1/2-x,1/2+y,1/2-z
3 -x,-y,-z
4 1/2+x,1/2-y,1/2+z
_cell_length_a                   12.6639(4)
_cell_length_b                   16.9311(6)
_cell_length_c                   13.6040(4)
_cell_angle_alpha                90
_cell_angle_beta                 92.886(3)
_cell_angle_gamma                90
_cell_volume                     2913.19
_exptl_crystal_colour            colorless
_exptl_crystal_description       block
_cell_formula_units_Z            4
loop_
_atom_site_label
_atom_site_type_symbol
_atom_site_fract_x
_atom_site_fract_y
_atom_site_fract_z
C1 C 0.72602(11) 0.29452(8) 0.96211(10)
C2 C 0.76712(11) 0.21634(8) 0.99764(10)
C3 C 0.70421(11) 0.15688(8) 1.02134(10)
C4 C 0.58671(11) 0.16531(8) 1.01715(10)
C5 C 0.52989(11) 0.17488(8) 0.93223(10)
C6 C 0.58024(11) 0.17655(8) 0.83564(10)
C7 C 0.64319(11) 0.23517(8) 0.80912(10)
C8 C 0.66905(11) 0.30316(8) 0.87614(10)
C9 C 0.75347(11) 0.36250(8) 1.02893(10)
C10 C 0.78951(12) 0.43479(9) 0.99542(11)
H1 H 0.8001 0.4418 0.9273
C11 C 0.81008(13) 0.49651(9) 1.05991(12)
H2 H 0.8347 0.5455 1.0358
C12 C 0.79517(13) 0.48756(9) 1.15901(11)
H3 H 0.8074 0.5307 1.2028
C13 C 0.76246(12) 0.41571(9) 1.19412(11)
H4 H 0.7534 0.4089 1.2625
C14 C 0.74287(11) 0.35369(9) 1.12993(10)
H5 H 0.7218 0.3041 1.1550
C15 C 0.88666(12) 0.20999(9) 1.01199(11)
H6 H 0.9169 0.1999 0.9474
H7 H 0.9151 0.2610 1.0370
C16 C 0.92181(13) 0.14506(10) 1.08276(13)
H8 H 0.9992 0.1374 1.0806
H9 H 0.9057 0.1603 1.1507
C17 C 0.86576(13) 0.06933(10) 1.05544(13)
H10 H 0.8906 0.0268 1.1009
H11 H 0.8827 0.0538 0.9879
C18 C 0.74713(12) 0.07911(9) 1.06067(12)
H12 H 0.7117 0.0357 1.0231
H13 H 0.7285 0.0738 1.1302
C19 C 0.53875(11) 0.16715(8) 1.11569(10)
C20 C 0.50844(11) 0.23867(9) 1.15491(11)
H14 H 0.5159 0.2858 1.1181
C21 C 0.46753(13) 0.24214(9) 1.24690(12)
H15 H 0.4471 0.2916 1.2728
C22 C 0.45604(13) 0.17427(10) 1.30152(11)
H16 H 0.4284 0.1769 1.3651
C23 C 0.48484(12) 0.10285(9) 1.26320(11)
H17 H 0.4766 0.0559 1.3002
C24 C 0.52575(12) 0.09907(9) 1.17092(11)
H18 H 0.5452 0.0493 1.1450
C25 C 0.41187(11) 0.18390(8) 0.92705(10)
C26 C 0.34629(12) 0.13455(9) 0.97854(11)
H19 H 0.3765 0.0925 1.0167
C27 C 0.23806(13) 0.14567(10) 0.97509(12)
H20 H 0.1946 0.1116 1.0111
C28 C 0.19289(13) 0.20613(11) 0.91955(13)
H21 H 0.1186 0.2143 0.9181
C29 C 0.25610(13) 0.25456(10) 0.86620(13)
H22 H 0.2252 0.2959 0.8273
C30 C 0.36491(12) 0.24310(9) 0.86914(11)
H23 H 0.4077 0.2761 0.8311
C31 C 0.55271(12) 0.10720(9) 0.76938(11)
H24 H 0.4766 0.0950 0.7735
H25 H 0.5932 0.0604 0.7935
C32 C 0.57584(14) 0.12152(10) 0.66263(11)
H26 H 0.5743 0.0707 0.6267
H27 H 0.5206 0.1562 0.6318
C33 C 0.68284(14) 0.15980(10) 0.65497(12)
H28 H 0.6975 0.1674 0.5848
H29 H 0.7383 0.1249 0.6849
C34 C 0.68570(12) 0.23893(9) 0.70722(10)
H30 H 0.7596 0.2582 0.7126
H31 H 0.6435 0.2775 0.6671
C35 C 0.62293(12) 0.38091(9) 0.84352(11)
C36 C 0.53774(13) 0.41143(9) 0.89158(13)
H32 H 0.5112 0.3831 0.9454
C37 C 0.49061(16) 0.48194(11) 0.86307(16)
H33 H 0.4325 0.5018 0.8971
C38 C 0.52824(19) 0.52305(11) 0.78540(17)
H34 H 0.4956 0.5713 0.7650
C39 C 0.61297(19) 0.49467(11) 0.73700(14)
H35 H 0.6393 0.5238 0.6838
C40 C 0.66066(15) 0.42343(10) 0.76531(12)
H36 H 0.7189 0.4040 0.7312
loop_
_geom_bond_atom_site_label_1
_geom_bond_atom_site_label_2
_geom_bond_site_symmetry_1
_geom_bond_site_symmetry_2
C1 C2 1_555 1_555
C2 C3 1_555 1_555
C3 C4 1_555 1_555
C4 C5 1_555 1_555
C5 C6 1_555 1_555
C6 C7 1_555 1_555
C7 C8 1_555 1_555
C8 C1 1_555 1_555
C9 C1 1_555 1_555
C10 C9 1_555 1_555
H1 C10 1_555 1_555
C11 C10 1_555 1_555
H2 C11 1_555 1_555
C12 C11 1_555 1_555
H3 C12 1_555 1_555
C13 C12 1_555 1_555
H4 C13 1_555 1_555
C14 C9 1_555 1_555
H5 C14 1_555 1_555
C15 C2 1_555 1_555
H6 C15 1_555 1_555
H7 C15 1_555 1_555
C16 C15 1_555 1_555
H8 C16 1_555 1_555
H9 C16 1_555 1_555
C17 C16 1_555 1_555
H10 C17 1_555 1_555
H11 C17 1_555 1_555
C18 C3 1_555 1_555
H12 C18 1_555 1_555
H13 C18 1_555 1_555
C19 C4 1_555 1_555
C20 C19 1_555 1_555
H14 C20 1_555 1_555
C21 C20 1_555 1_555
H15 C21 1_555 1_555
C22 C21 1_555 1_555
H16 C22 1_555 1_555
C23 C22 1_555 1_555
H17 C23 1_555 1_555
C24 C19 1_555 1_555
H18 C24 1_555 1_555
C25 C5 1_555 1_555
C26 C25 1_555 1_555
H19 C26 1_555 1_555
C27 C26 1_555 1_555
H20 C27 1_555 1_555
C28 C27 1_555 1_555
H21 C28 1_555 1_555
C29 C28 1_555 1_555
H22 C29 1_555 1_555
C30 C25 1_555 1_555
H23 C30 1_555 1_555
C31 C6 1_555 1_555
H24 C31 1_555 1_555
H25 C31 1_555 1_555
C32 C31 1_555 1_555
H26 C32 1_555 1_555
H27 C32 1_555 1_555
C33 C32 1_555 1_555
H28 C33 1_555 1_555
H29 C33 1_555 1_555
C34 C7 1_555 1_555
H30 C34 1_555 1_555
H31 C34 1_555 1_555
C35 C8 1_555 1_555
C36 C35 1_555 1_555
H32 C36 1_555 1_555
C37 C36 1_555 1_555
H33 C37 1_555 1_555
C38 C37 1_555 1_555
H34 C38 1_555 1_555
C39 C38 1_555 1_555
H35 C39 1_555 1_555
C40 C35 1_555 1_555
H36 C40 1_555 1_555
C13 C14 1_555 1_555
C17 C18 1_555 1_555
C23 C24 1_555 1_555
C29 C30 1_555 1_555
C33 C34 1_555 1_555
C39 C40 1_555 1_555

#END
