
#######################################################################
#
#                 Cambridge Crystallographic Data Centre
#                                CCDC 
#
#######################################################################
#
# If this CIF has been generated from an entry in the Cambridge 
# Structural Database, then it will include bibliographic, chemical, 
# crystal, experimental, refinement or atomic coordinate data resulting 
# from the CCDC's data processing and validation procedures.
#
#######################################################################

data_NIVMUA
_chemical_formula_moiety         'C43 H78 N8 O11'
_chemical_name_systematic        
't-Butoxycarbonyl-leucyl-\a-aminoisobutyryl-valyl-\b-alanyl-\g-aminobutyryl-leucyl-\a-aminoisobutyryl-valine methyl ester'
_symmetry_cell_setting           orthorhombic
_symmetry_space_group_name_H-M   'P 21 21 21'
_symmetry_Int_Tables_number      19
_space_group_name_Hall           'P 2ac 2ab'
loop_
_symmetry_equiv_pos_site_id
_symmetry_equiv_pos_as_xyz
1 x,y,z
2 1/2-x,-y,1/2+z
3 1/2+x,1/2-y,-z
4 -x,1/2+y,1/2-z
_cell_length_a                   11.5060(10)
_cell_length_b                   16.6000(10)
_cell_length_c                   27.362(2)
_cell_angle_alpha                90
_cell_angle_beta                 90
_cell_angle_gamma                90
_cell_volume                     5226.13
_exptl_crystal_colour            colorless
_exptl_crystal_description       'thin plate'
_chemical_melting_point          92-93deg.C
_cell_formula_units_Z            4
loop_
_atom_site_label
_atom_site_type_symbol
_atom_site_fract_x
_atom_site_fract_y
_atom_site_fract_z
C1 C 0.2883(9) 1.2782(6) 1.0388(4)
C2 C 0.1762(8) 1.2691(6) 1.0105(3)
C3 C 0.3750(9) 1.3312(5) 1.0133(4)
C4 C 0.2605(10) 1.3090(6) 1.0889(3)
O1 O 0.3385(6) 1.1985(3) 1.0492(2)
C5 C 0.3748(8) 1.1504(6) 1.0128(3)
O2 O 0.3727(5) 1.1679(3) 0.9688(2)
N1 N 0.4100(5) 1.0800(4) 1.0304(2)
C6 C 0.4622(7) 1.0189(5) 0.9985(3)
C7 C 0.3786(8) 0.9902(5) 0.9586(3)
O3 O 0.4185(4) 0.9652(3) 0.9198(2)
C8 C 0.5066(7) 0.9476(5) 1.0281(3)
C9 C 0.6145(10) 0.9614(7) 1.0574(4)
C10 C 0.6414(9) 0.8907(6) 1.0898(3)
C11 C 0.7152(10) 0.9775(9) 1.0305(5)
N2 N 0.2659(5) 0.9940(4) 0.9685(2)
C12 C 0.1778(8) 0.9618(5) 0.9352(3)
C13 C 0.1903(7) 0.9991(5) 0.8825(3)
O4 O 0.1564(5) 0.9610(3) 0.8474(2)
C14 C 0.1839(8) 0.8705(4) 0.9316(2)
C15 C 0.0580(6) 0.9872(5) 0.9543(3)
N3 N 0.2282(6) 1.0755(4) 0.8797(2)
C16 C 0.2331(8) 1.1161(5) 0.8319(3)
C17 C 0.3386(8) 1.0893(4) 0.8019(3)
O5 O 0.3442(5) 1.1062(3) 0.7576(2)
C18 C 0.2266(10) 1.2067(6) 0.8349(3)
C19 C 0.3297(10) 1.2463(6) 0.8567(3)
C20 C 0.1148(10) 1.2331(6) 0.8600(3)
N4 N 0.4238(5) 1.0523(4) 0.8254(2)
C21 C 0.5652(8) 0.9414(6) 0.8179(3)
C22 C 0.4999(9) 0.8810(7) 0.7868(4)
O6 O 0.4554(6) 0.9005(4) 0.7482(2)
C23 C 0.5353(8) 1.0272(6) 0.8063(3)
N5 N 0.4958(7) 0.8048(6) 0.8026(3)
C24 C 0.2377(8) 0.7745(5) 0.8014(3)
C25 C 0.1956(9) 0.8051(6) 0.7519(3)
O7 O 0.1819(7) 0.7615(4) 0.7169(2)
C26 C 0.3295(10) 0.7101(5) 0.7973(3)
C27 C 0.4443(10) 0.7401(6) 0.7756(4)
N6 N 0.1675(6) 0.8837(4) 0.7501(2)
C28 C 0.1071(8) 0.9196(5) 0.7085(3)
C29 C 0.1902(8) 0.9475(5) 0.6665(3)
O8 O 0.1395(5) 0.9646(3) 0.6274(2)
C30 C 0.0360(7) 0.9928(5) 0.7257(3)
C31 C -0.0731(8) 0.9712(6) 0.7559(3)
C32 C -0.1122(9) 1.0447(6) 0.7827(4)
C33 C -0.1660(8) 0.9330(7) 0.7264(3)
N7 N 0.3020(6) 0.9575(4) 0.6749(2)
C34 C 0.3806(8) 0.9832(5) 0.6351(3)
C35 C 0.3284(7) 1.0558(5) 0.6089(3)
O9 O 0.3252(5) 1.0615(3) 0.5639(2)
C36 C 0.4956(6) 1.0096(5) 0.6565(3)
C37 C 0.3985(7) 0.9135(4) 0.5993(3)
N8 N 0.2889(6) 1.1167(4) 0.6368(2)
C38 C 0.2421(9) 1.1881(5) 0.6151(3)
C39 C 0.3269(13) 1.2261(6) 0.5785(4)
O10 O 0.2991(8) 1.2548(4) 0.5397(2)
C40 C 0.2022(9) 1.2507(5) 0.6522(3)
C41 C 0.11096(9) 1.2148(6) 0.6859(4)
C42 C 0.1553(10) 1.3259(5) 0.6282(3)
O11 O 0.4360(8) 1.2227(4) 0.5960(2)
C43 C 0.5228(10) 1.2492(6) 0.5619(4)
H1 H 0.1919 1.2510 0.9778
H2 H 0.1348 1.3193 1.0093
H3 H 0.1300 1.2296 1.0272
H4 H 0.3905 1.3098 0.9814
H5 H 0.4454 1.3314 1.0322
H6 H 0.3462 1.3852 1.0103
H7 H 0.3302 1.3172 1.1075
H8 H 0.2133 1.2690 1.1046
H9 H 0.2181 1.3587 1.0868
H10 H 0.4027 1.0698 1.0626
H11 H 0.5279 1.0431 0.9825
H12 H 0.4445 0.9294 1.0488
H13 H 0.5252 0.9047 1.0059
H14 H 0.6055 1.0100 1.0760
H15 H 0.5792 0.8835 1.1128
H16 H 0.7128 0.8995 1.1072
H17 H 0.6484 0.8433 1.0699
H18 H 0.7838 0.9887 1.0492
H19 H 0.7040 1.0192 1.0066
H20 H 0.7239 0.9266 1.0142
H21 H 0.2421 1.0164 0.9968
H22 H 0.1752 0.8469 0.9635
H23 H 0.2577 0.8552 0.9181
H24 H 0.1227 0.8517 0.9107
H25 H 0.0641 0.9646 0.9862
H26 H -0.0010 0.9678 0.9325
H27 H 0.0539 1.0449 0.9562
H28 H 0.2506 1.1027 0.9066
H29 H 0.1660 1.0983 0.8140
H30 H 0.2206 1.2272 0.8021
H31 H 0.3189 1.3036 0.8583
H32 H 0.3959 1.2344 0.8366
H33 H 0.3422 1.2256 0.8890
H34 H 0.1102 1.2906 0.8633
H35 H 0.1126 1.2088 0.8918
H36 H 0.0503 1.2141 0.8410
H37 H 0.4107 1.0393 0.8569
H38 H 0.5437 0.9324 0.8513
H39 H 0.6473 0.9323 0.8150
H40 H 0.5332 1.0328 0.7714
H41 H 0.5947 1.0622 0.8188
H42 H 0.5257 0.7926 0.8320
H43 H 0.2730 0.8183 0.8189
H44 H 0.1730 0.7559 0.8204
H45 H 0.3453 0.6869 0.8288
H46 H 0.2973 0.6687 0.7769
H47 H 0.4293 0.7600 0.7433
H48 H 0.4979 0.6961 0.7730
H49 H 0.1865 0.9156 0.7754
H50 H 0.0542 0.8803 0.6956
H51 H 0.0850 1.0289 0.7438
H52 H 0.0086 1.0206 0.6972
H53 H -0.0474 0.9331 0.7800
H54 H -0.1773 1.0311 0.8030
H55 H -0.1358 1.0833 0.7586
H56 H -0.0514 1.0673 0.8025
H57 H -0.2292 0.9175 0.7473
H58 H -0.1367 0.8864 0.7097
H59 H -0.1929 0.9717 0.7029
H60 H 0.3302 0.9493 0.7052
H61 H 0.5337 0.9656 0.6726
H62 H 0.4804 1.0517 0.6797
H63 H 0.5447 1.0299 0.6309
H64 H 0.4329 0.8688 0.6162
H65 H 0.4487 0.9300 0.5731
H66 H 0.3246 0.8975 0.5861
H67 H 0.2946 1.1139 0.6695
H68 H 0.1755 1.1714 0.5966
H69 H 0.2682 1.2651 0.6719
H70 H 0.0850 1.2544 0.7093
H71 H 0.1415 1.1692 0.7028
H72 H 0.0442 1.1981 0.6667
H73 H 0.2161 1.3467 0.6077
H74 H 0.1339 1.3659 0.6519
H75 H 0.0890 1.3127 0.6085
H76 H 0.5996 1.2451 0.5754
H77 H 0.5082 1.3039 0.5523
H78 H 0.5169 1.2149 0.5338
loop_
_geom_bond_atom_site_label_1
_geom_bond_atom_site_label_2
_geom_bond_site_symmetry_1
_geom_bond_site_symmetry_2
C1 C2 1_555 1_555
C2 H1 1_555 1_555
C3 C1 1_555 1_555
C4 C1 1_555 1_555
O1 C1 1_555 1_555
C5 O1 1_555 1_555
O2 C5 1_555 1_555
N1 C5 1_555 1_555
C6 N1 1_555 1_555
C7 C6 1_555 1_555
O3 C7 1_555 1_555
C8 C6 1_555 1_555
C9 C8 1_555 1_555
C10 C9 1_555 1_555
C11 C9 1_555 1_555
N2 C7 1_555 1_555
C12 N2 1_555 1_555
C13 C12 1_555 1_555
O4 C13 1_555 1_555
C14 C12 1_555 1_555
C15 C12 1_555 1_555
N3 C13 1_555 1_555
C16 N3 1_555 1_555
C17 C16 1_555 1_555
O5 C17 1_555 1_555
C18 C16 1_555 1_555
C19 C18 1_555 1_555
C20 C18 1_555 1_555
N4 C17 1_555 1_555
C21 C22 1_555 1_555
C22 O6 1_555 1_555
C23 N4 1_555 1_555
N5 C22 1_555 1_555
C24 C25 1_555 1_555
C25 O7 1_555 1_555
C26 C24 1_555 1_555
C27 N5 1_555 1_555
N6 C25 1_555 1_555
C28 N6 1_555 1_555
C29 C28 1_555 1_555
O8 C29 1_555 1_555
C30 C28 1_555 1_555
C31 C30 1_555 1_555
C32 C31 1_555 1_555
C33 C31 1_555 1_555
N7 C29 1_555 1_555
C34 N7 1_555 1_555
C35 C34 1_555 1_555
O9 C35 1_555 1_555
C36 C34 1_555 1_555
C37 C34 1_555 1_555
N8 C35 1_555 1_555
C38 N8 1_555 1_555
C39 C38 1_555 1_555
O10 C39 1_555 1_555
C40 C38 1_555 1_555
C41 C40 1_555 1_555
C42 C40 1_555 1_555
O11 C39 1_555 1_555
C43 O11 1_555 1_555
H2 C2 1_555 1_555
H3 C2 1_555 1_555
H4 C3 1_555 1_555
H5 C3 1_555 1_555
H6 C3 1_555 1_555
H7 C4 1_555 1_555
H8 C4 1_555 1_555
H9 C4 1_555 1_555
H10 N1 1_555 1_555
H11 C6 1_555 1_555
H12 C8 1_555 1_555
H13 C8 1_555 1_555
H14 C9 1_555 1_555
H15 C10 1_555 1_555
H16 C10 1_555 1_555
H17 C10 1_555 1_555
H18 C11 1_555 1_555
H19 C11 1_555 1_555
H20 C11 1_555 1_555
H21 N2 1_555 1_555
H22 C14 1_555 1_555
H23 C14 1_555 1_555
H24 C14 1_555 1_555
H25 C15 1_555 1_555
H26 C15 1_555 1_555
H27 C15 1_555 1_555
H28 N3 1_555 1_555
H29 C16 1_555 1_555
H30 C18 1_555 1_555
H31 C19 1_555 1_555
H32 C19 1_555 1_555
H33 C19 1_555 1_555
H34 C20 1_555 1_555
H35 C20 1_555 1_555
H36 C20 1_555 1_555
H37 N4 1_555 1_555
H38 C21 1_555 1_555
H39 C21 1_555 1_555
H40 C23 1_555 1_555
H41 C23 1_555 1_555
H42 N5 1_555 1_555
H43 C24 1_555 1_555
H44 C24 1_555 1_555
H45 C26 1_555 1_555
H46 C26 1_555 1_555
H47 C27 1_555 1_555
H48 C27 1_555 1_555
H49 N6 1_555 1_555
H50 C28 1_555 1_555
H51 C30 1_555 1_555
H52 C30 1_555 1_555
H53 C31 1_555 1_555
H54 C32 1_555 1_555
H55 C32 1_555 1_555
H56 C32 1_555 1_555
H57 C33 1_555 1_555
H58 C33 1_555 1_555
H59 C33 1_555 1_555
H60 N7 1_555 1_555
H61 C36 1_555 1_555
H62 C36 1_555 1_555
H63 C36 1_555 1_555
H64 C37 1_555 1_555
H65 C37 1_555 1_555
H66 C37 1_555 1_555
H67 N8 1_555 1_555
H68 C38 1_555 1_555
H69 C40 1_555 1_555
H70 C41 1_555 1_555
H71 C41 1_555 1_555
H72 C41 1_555 1_555
H73 C42 1_555 1_555
H74 C42 1_555 1_555
H75 C42 1_555 1_555
H76 C43 1_555 1_555
H77 C43 1_555 1_555
H78 C43 1_555 1_555
C21 C23 1_555 1_555
C26 C27 1_555 1_555

#END
