
#######################################################################
#
#                 Cambridge Crystallographic Data Centre
#                                CCDC 
#
#######################################################################
#
# If this CIF has been generated from an entry in the Cambridge 
# Structural Database, then it will include bibliographic, chemical, 
# crystal, experimental, refinement or atomic coordinate data resulting 
# from the CCDC's data processing and validation procedures.
#
#######################################################################

data_NIVNEN
_chemical_formula_moiety         'C23 H19 N1 O7'
_chemical_name_systematic        
'Ethyl 3-hydroxy-9-methyl-7-(4-nitrophenyl)-6-oxo-7,8-dihydro-6H-benzo[c]chromene-8-carboxylate'
_symmetry_cell_setting           monoclinic
_symmetry_space_group_name_H-M   'P 21/c'
_symmetry_Int_Tables_number      14
_space_group_name_Hall           '-P 2ybc'
loop_
_symmetry_equiv_pos_site_id
_symmetry_equiv_pos_as_xyz
1 x,y,z
2 -x,1/2+y,1/2-z
3 -x,-y,-z
4 x,1/2-y,1/2+z
_cell_length_a                   16.069(3)
_cell_length_b                   7.8940(16)
_cell_length_c                   15.980(3)
_cell_angle_alpha                90
_cell_angle_beta                 90.15(3)
_cell_angle_gamma                90
_cell_volume                     2027.04
_cell_formula_units_Z            4
loop_
_atom_site_label
_atom_site_type_symbol
_atom_site_fract_x
_atom_site_fract_y
_atom_site_fract_z
N1 N 0.97949(17) 0.2904(4) 0.40952(18)
C1 C 0.82219(19) 0.4328(4) 0.56118(18)
H1 H 0.7752 0.5017 0.5619
O1 O 1.0388(2) 0.1971(5) 0.40968(19)
C2 C 0.86630(19) 0.4154(4) 0.48831(19)
H2 H 0.8492 0.4701 0.4397
O2 O 0.95573(19) 0.3570(4) 0.34707(16)
O3 O 0.57739(12) 0.2524(2) 0.64466(16)
C3 C 0.93566(17) 0.3164(4) 0.48842(17)
C4 C 0.96287(18) 0.2347(4) 0.55921(19)
H3 H 1.0106 0.1682 0.5582
O4 O 0.33634(16) 0.5587(4) 0.5871(3)
H4 H 0.3136 0.6484 0.5992
O5 O 0.68594(13) 0.0907(2) 0.66796(15)
C5 C 0.91752(17) 0.2542(4) 0.63163(19)
H5 H 0.9356 0.2013 0.6804
O6 O 0.82429(13) 0.5664(3) 0.91715(12)
C6 C 0.84577(15) 0.3505(3) 0.63350(16)
O7 O 0.74858(14) 0.3452(3) 0.87828(13)
C7 C 0.79454(15) 0.3597(3) 0.71309(16)
H6 H 0.8005 0.2506 0.7417
C8 C 0.82457(16) 0.4971(3) 0.77385(16)
H7 H 0.8855 0.4991 0.7735
C9 C 0.79255(17) 0.6719(3) 0.75047(16)
C10 C 0.71725(17) 0.6853(3) 0.71556(17)
H8 H 0.6960 0.7927 0.7048
C11 C 0.66712(16) 0.5375(3) 0.69376(16)
C12 C 0.70341(16) 0.3827(3) 0.69362(17)
C13 C 0.58108(17) 0.5545(3) 0.66858(18)
C14 C 0.53931(18) 0.4087(4) 0.6433(2)
C15 C 0.65840(17) 0.2322(3) 0.66897(19)
C16 C 0.53648(19) 0.7057(4) 0.6656(2)
H9 H 0.5622 0.8058 0.6821
C17 C 0.4555(2) 0.7101(4) 0.6390(3)
H10 H 0.4268 0.8124 0.6373
C18 C 0.4163(2) 0.5613(5) 0.6144(3)
C19 C 0.4581(2) 0.4097(4) 0.6171(3)
H11 H 0.4318 0.3096 0.6015
C20 C 0.84521(19) 0.8233(4) 0.77032(19)
H12 H 0.8172 0.9242 0.7522
H13 H 0.8977 0.8137 0.7419
H14 H 0.8545 0.8288 0.8296
C21 C 0.79525(17) 0.4590(3) 0.86119(17)
C22 C 0.7848(2) 0.5629(5) 0.99930(18)
H15 H 0.8194 0.6226 1.0394
H16 H 0.7791 0.4465 1.0180
C23 C 0.7015(2) 0.6438(5) 0.9954(2)
H17 H 0.6760 0.6398 1.0497
H18 H 0.6673 0.5842 0.9559
H19 H 0.7074 0.7596 0.9781
loop_
_geom_bond_atom_site_label_1
_geom_bond_atom_site_label_2
_geom_bond_site_symmetry_1
_geom_bond_site_symmetry_2
N1 O1 1_555 1_555
C1 H1 1_555 1_555
C2 C1 1_555 1_555
H2 C2 1_555 1_555
O2 N1 1_555 1_555
O3 C14 1_555 1_555
C3 N1 1_555 1_555
C4 C3 1_555 1_555
H3 C4 1_555 1_555
O4 H4 1_555 1_555
O5 C15 1_555 1_555
C5 C4 1_555 1_555
H5 C5 1_555 1_555
O6 C21 1_555 1_555
C6 C1 1_555 1_555
O7 C21 1_555 1_555
C7 C6 1_555 1_555
H6 C7 1_555 1_555
C8 C7 1_555 1_555
H7 C8 1_555 1_555
C9 C8 1_555 1_555
C10 C9 1_555 1_555
H8 C10 1_555 1_555
C11 C10 1_555 1_555
C12 C7 1_555 1_555
C13 C11 1_555 1_555
C14 C13 1_555 1_555
C15 O3 1_555 1_555
C16 C13 1_555 1_555
H9 C16 1_555 1_555
C17 C16 1_555 1_555
H10 C17 1_555 1_555
C18 O4 1_555 1_555
C19 C14 1_555 1_555
H11 C19 1_555 1_555
C20 C9 1_555 1_555
H12 C20 1_555 1_555
H13 C20 1_555 1_555
H14 C20 1_555 1_555
C21 C8 1_555 1_555
C22 O6 1_555 1_555
H15 C22 1_555 1_555
H16 C22 1_555 1_555
C23 C22 1_555 1_555
H17 C23 1_555 1_555
H18 C23 1_555 1_555
H19 C23 1_555 1_555
C2 C3 1_555 1_555
C5 C6 1_555 1_555
C11 C12 1_555 1_555
C12 C15 1_555 1_555
C17 C18 1_555 1_555
C18 C19 1_555 1_555

#END
