
#######################################################################
#
#                 Cambridge Crystallographic Data Centre
#                                CCDC 
#
#######################################################################
#
# If this CIF has been generated from an entry in the Cambridge 
# Structural Database, then it will include bibliographic, chemical, 
# crystal, experimental, refinement or atomic coordinate data resulting 
# from the CCDC's data processing and validation procedures.
#
#######################################################################

data_NIVPIT
_chemical_formula_moiety         'C15 H9 B1 F2 N2 Se1'
_chemical_name_systematic        
4,4-Difluoro-7-selena-3a,4a-diaza-4-boracyclopenta[a]acephenanthrylene
_symmetry_cell_setting           triclinic
_symmetry_space_group_name_H-M   'P -1'
_symmetry_Int_Tables_number      2
_space_group_name_Hall           '-P 1'
loop_
_symmetry_equiv_pos_site_id
_symmetry_equiv_pos_as_xyz
1 x,y,z
2 -x,-y,-z
_cell_length_a                   7.3600(15)
_cell_length_b                   10.043(2)
_cell_length_c                   17.403(4)
_cell_angle_alpha                85.74(3)
_cell_angle_beta                 89.65(3)
_cell_angle_gamma                89.41(3)
_cell_volume                     1282.73
_exptl_crystal_colour            brown
_exptl_crystal_description       platy
_cell_formula_units_Z            4
loop_
_atom_site_label
_atom_site_type_symbol
_atom_site_fract_x
_atom_site_fract_y
_atom_site_fract_z
Se1 Se 0.14107(5) 0.01430(3) 0.39600(2)
C1 C 0.3431(5) 0.6131(4) 0.2183(2)
H1 H 0.3692 0.7030 0.2274
C2 C 0.3813(5) 0.5573(4) 0.1537(2)
H2 H 0.4340 0.6017 0.1089
C3 C 0.1403(5) 0.0391(4) 0.2876(2)
N1 N 0.2621(4) 0.5252(3) 0.26993(19)
N2 N 0.1779(4) 0.4144(3) 0.39423(18)
C4 C 0.2549(5) 0.4048(3) 0.2353(2)
C5 C 0.1585(5) 0.1624(3) 0.2441(2)
C6 C 0.1920(5) 0.2889(3) 0.2789(2)
C7 C 0.1670(5) 0.2960(4) 0.3582(2)
C8 C 0.1350(5) 0.1608(4) 0.1634(2)
H3 H 0.1359 0.2429 0.1326
C9 C 0.3330(5) 0.4253(3) 0.1612(2)
H4 H 0.3489 0.3611 0.1242
C10 C 0.1108(5) 0.0439(4) 0.1284(2)
H5 H 0.0975 0.0460 0.0741
C11 C 0.1164(5) -0.0801(4) 0.2516(2)
H6 H 0.1075 -0.1624 0.2819
F1 F 0.0206(4) 0.6148(2) 0.34594(15)
F2 F 0.3120(4) 0.6329(3) 0.38692(15)
C12 C 0.1416(5) 0.1923(4) 0.4166(2)
C13 C 0.1373(5) 0.2492(4) 0.4879(2)
H7 H 0.1232 0.2039 0.5375
C14 C 0.1059(5) -0.0782(4) 0.1727(2)
H8 H 0.0953 -0.1593 0.1484
C15 C 0.1581(5) 0.3854(3) 0.47092(19)
H9 H 0.1584 0.4498 0.5082
B1 B 0.1908(6) 0.5522(4) 0.3506(3)
Se2 Se 0.64674(5) -0.07758(4) 0.31283(2)
C16 C 0.8672(5) 0.5283(3) 0.1238(2)
H10 H 0.9180 0.6151 0.1189
F3 F 0.5038(3) 0.2580(2) 0.01401(14)
F4 F 0.7953(4) 0.2075(3) -0.01795(14)
C17 C 0.8178(5) 0.4547(4) 0.0642(2)
H11 H 0.8320 0.4827 0.0111
C18 C 0.6506(5) 0.0959(4) 0.3471(2)
C19 C 0.6380(5) -0.1122(4) 0.1468(2)
H12 H 0.6266 -0.2065 0.1496
N3 N 0.6701(4) 0.1009(3) 0.09852(18)
N4 N 0.7468(4) 0.3380(3) 0.09096(19)
C20 C 0.8312(4) 0.4563(3) 0.1906(2)
H13 H 0.8552 0.4814 0.2411
C21 C 0.7509(5) 0.3361(4) 0.1710(2)
C22 C 0.6429(5) -0.0304(4) 0.2087(2)
C23 C 0.6640(5) 0.2154(4) 0.2992(2)
C24 C 0.6648(5) 0.1026(4) 0.1775(2)
C25 C 0.6328(5) 0.0987(4) 0.4268(2)
H14 H 0.6295 0.0171 0.4581
B2 B 0.6774(6) 0.2263(4) 0.0426(2)
C26 C 0.6398(5) 0.3371(4) 0.3354(2)
H15 H 0.6384 0.4194 0.3046
C27 C 0.6529(5) -0.0275(4) 0.0811(2)
H16 H 0.6514 -0.0556 0.0301
C28 C 0.6183(5) 0.3377(4) 0.4141(3)
H17 H 0.6023 0.4201 0.4369
C29 C 0.6198(5) 0.2174(4) 0.4608(2)
H18 H 0.6120 0.2183 0.5153
C30 C 0.6922(5) 0.2198(4) 0.2161(2)
loop_
_geom_bond_atom_site_label_1
_geom_bond_atom_site_label_2
_geom_bond_site_symmetry_1
_geom_bond_site_symmetry_2
Se1 C3 1_555 1_555
C1 H1 1_555 1_555
C2 C1 1_555 1_555
H2 C2 1_555 1_555
C3 C5 1_555 1_555
N1 C1 1_555 1_555
N2 C7 1_555 1_555
C4 N1 1_555 1_555
C5 C6 1_555 1_555
C6 C4 1_555 1_555
C7 C6 1_555 1_555
C8 C5 1_555 1_555
H3 C8 1_555 1_555
C9 C2 1_555 1_555
H4 C9 1_555 1_555
C10 C8 1_555 1_555
H5 C10 1_555 1_555
C11 C3 1_555 1_555
H6 C11 1_555 1_555
F1 B1 1_555 1_555
F2 B1 1_555 1_555
C12 Se1 1_555 1_555
C13 C12 1_555 1_555
H7 C13 1_555 1_555
C14 C10 1_555 1_555
H8 C14 1_555 1_555
C15 N2 1_555 1_555
H9 C15 1_555 1_555
B1 N1 1_555 1_555
Se2 C18 1_555 1_555
C16 H10 1_555 1_555
F3 B2 1_555 1_555
F4 B2 1_555 1_555
C17 C16 1_555 1_555
H11 C17 1_555 1_555
C18 C23 1_555 1_555
C19 H12 1_555 1_555
N3 C24 1_555 1_555
N4 C17 1_555 1_555
C20 C16 1_555 1_555
H13 C20 1_555 1_555
C21 N4 1_555 1_555
C22 Se2 1_555 1_555
C23 C26 1_555 1_555
C24 C22 1_555 1_555
C25 C18 1_555 1_555
H14 C25 1_555 1_555
B2 N3 1_555 1_555
C26 H15 1_555 1_555
C27 C19 1_555 1_555
H16 C27 1_555 1_555
C28 C26 1_555 1_555
H17 C28 1_555 1_555
C29 C25 1_555 1_555
H18 C29 1_555 1_555
C30 C21 1_555 1_555
N2 B1 1_555 1_555
C4 C9 1_555 1_555
C7 C12 1_555 1_555
C11 C14 1_555 1_555
C13 C15 1_555 1_555
C19 C22 1_555 1_555
N3 C27 1_555 1_555
N4 B2 1_555 1_555
C20 C21 1_555 1_555
C23 C30 1_555 1_555
C24 C30 1_555 1_555
C28 C29 1_555 1_555

#END
