
#######################################################################
#
#                 Cambridge Crystallographic Data Centre
#                                CCDC 
#
#######################################################################
#
# If this CIF has been generated from an entry in the Cambridge 
# Structural Database, then it will include bibliographic, chemical, 
# crystal, experimental, refinement or atomic coordinate data resulting 
# from the CCDC's data processing and validation procedures.
#
#######################################################################

data_NIVSIW
_chemical_formula_moiety         'C6 H6 Cl6 O3'
_chemical_name_systematic        
(2s,4s,6s)-2,4,6-tris(dichloromethyl)-1,3,5-trioxane
_symmetry_cell_setting           hexagonal
_symmetry_space_group_name_H-M   'P 63'
_symmetry_Int_Tables_number      173
_space_group_name_Hall           'P 6c'
loop_
_symmetry_equiv_pos_site_id
_symmetry_equiv_pos_as_xyz
1 x,y,z
2 -y,x-y,z
3 -x+y,-x,z
4 -x,-y,1/2+z
5 y,-x+y,1/2+z
6 x-y,x,1/2+z
_cell_length_a                   10.0762(14)
_cell_length_b                   10.0762(14)
_cell_length_c                   6.9573(14)
_cell_angle_alpha                90
_cell_angle_beta                 90
_cell_angle_gamma                120
_cell_volume                     611.737
_exptl_crystal_colour            colorless
_exptl_crystal_description       block
_cell_formula_units_Z            2
loop_
_atom_site_label
_atom_site_type_symbol
_atom_site_fract_x
_atom_site_fract_y
_atom_site_fract_z
Cl1 Cl -0.09556(6) 0.55645(6) 0.8311(2)
Cl2 Cl 0.11060(7) 0.88634(6) 0.8350(2)
C1 C 0.2115(2) 0.6862(2) 0.8130(5)
H1 H 0.2019 0.6878 0.6701
C2 C 0.0866(3) 0.7061(3) 0.9050(4)
H2 H 0.0949 0.7033 1.0480
O1 O 0.19197(19) 0.54476(19) 0.8683(4)
Cl1A Cl 0.44355(6) 0.34799(8) 0.8311(2)
Cl2A Cl 0.11366(6) 0.22426(9) 0.8350(2)
C1A C 0.3138(2) 0.5253(3) 0.8130(5)
H1A H 0.3122 0.5141 0.6701
C2A C 0.2939(3) 0.3805(4) 0.9050(4)
H2A H 0.2967 0.3916 1.0480
O1A O 0.45524(19) 0.64721(27) 0.8683(4)
Cl1B Cl 0.65201(8) 1.09556(6) 0.8311(2)
Cl2B Cl 0.77574(9) 0.88940(7) 0.8350(2)
C1B C 0.4747(3) 0.7885(2) 0.8130(5)
H1B H 0.4859 0.7981 0.6701
C2B C 0.6195(4) 0.9134(3) 0.9050(4)
H2B H 0.6084 0.9051 1.0480
O1B O 0.35279(27) 0.80803(19) 0.8683(4)
loop_
_geom_bond_atom_site_label_1
_geom_bond_atom_site_label_2
_geom_bond_site_symmetry_1
_geom_bond_site_symmetry_2
Cl1 C2 1_555 1_555
Cl2 C2 1_555 1_555
C1 H1 1_555 1_555
C2 C1 1_555 1_555
H2 C2 1_555 1_555
O1 C1 1_555 1_555
Cl1A C2A 1_555 1_555
Cl2A C2A 1_555 1_555
C1A O1 1_555 1_555
H1A C1A 1_555 1_555
C2A C1A 1_555 1_555
H2A C2A 1_555 1_555
O1A C1A 1_555 1_555
Cl1B C2B 1_555 1_555
Cl2B C2B 1_555 1_555
C1B O1A 1_555 1_555
H1B C1B 1_555 1_555
C2B C1B 1_555 1_555
H2B C2B 1_555 1_555
O1B C1 1_555 1_555
C1B O1B 1_555 1_555

#END
