
#######################################################################
#
#                 Cambridge Crystallographic Data Centre
#                                CCDC 
#
#######################################################################
#
# If this CIF has been generated from an entry in the Cambridge 
# Structural Database, then it will include bibliographic, chemical, 
# crystal, experimental, refinement or atomic coordinate data resulting 
# from the CCDC's data processing and validation procedures.
#
#######################################################################

data_NIVVAR
_chemical_formula_moiety         'C18 H14 N2 O1'
_chemical_name_systematic        4-Phenyl-1-(quinolin-8-yl)azetidin-2-one
_symmetry_cell_setting           monoclinic
_symmetry_space_group_name_H-M   'P 21/c'
_symmetry_Int_Tables_number      14
_space_group_name_Hall           '-P 2ybc'
loop_
_symmetry_equiv_pos_site_id
_symmetry_equiv_pos_as_xyz
1 x,y,z
2 -x,1/2+y,1/2-z
3 -x,-y,-z
4 x,1/2-y,1/2+z
_cell_length_a                   12.2122(14)
_cell_length_b                   9.7378(12)
_cell_length_c                   11.5756(14)
_cell_angle_alpha                90
_cell_angle_beta                 90.414(2)
_cell_angle_gamma                90
_cell_volume                     1376.53
_exptl_crystal_colour            colorless
_exptl_crystal_description       block
_cell_formula_units_Z            4
loop_
_atom_site_label
_atom_site_type_symbol
_atom_site_fract_x
_atom_site_fract_y
_atom_site_fract_z
O1 O 0.60752(8) 0.34791(9) 0.78813(10)
N1 N 0.72865(7) 0.16009(8) 0.80580(7)
N2 N 0.93090(7) 0.02525(8) 0.78919(7)
C1 C 0.63719(10) -0.31174(13) 0.97803(12)
H1 H 0.6224 -0.3880 1.0267
C2 C 0.69077(11) -0.33135(11) 0.87492(11)
H2 H 0.7135 -0.4209 0.8529
C3 C 0.71154(9) -0.21981(10) 0.80311(10)
H3 H 0.7494 -0.2334 0.7326
C4 C 0.67721(8) -0.08839(10) 0.83378(8)
C5 C 0.69453(8) 0.02847(9) 0.75103(8)
H4 H 0.7434 0.0022 0.6857
C6 C 0.81769(8) 0.19871(9) 0.87626(8)
C7 C 0.92084(8) 0.13060(9) 0.86626(8)
C8 C 1.02742(9) -0.03424(10) 0.78075(9)
H5 H 1.0348 -0.1072 0.7269
C9 C 1.12078(8) 0.00326(11) 0.84663(9)
H6 H 1.1885 -0.0431 0.8368
C10 C 0.59001(8) 0.10592(10) 0.70841(9)
H7 H 0.5850 0.1170 0.6235
H8 H 0.5207 0.0703 0.7406
C11 C 0.63597(9) 0.23049(11) 0.77180(10)
C12 C 1.00964(8) 0.17619(10) 0.93661(8)
C13 C 0.99490(9) 0.28726(10) 1.01416(9)
H9 H 1.0543 0.3178 1.0610
C14 C 0.89527(9) 0.35035(11) 1.02144(9)
H10 H 0.8861 0.4251 1.0732
C15 C 0.80596(8) 0.30611(10) 0.95325(9)
H11 H 0.7371 0.3505 0.9603
C16 C 1.11114(8) 0.10761(11) 0.92458(9)
H12 H 1.1723 0.1341 0.9706
C17 C 0.62489(8) -0.06917(12) 0.93869(9)
H13 H 0.6027 0.0203 0.9613
C18 C 0.60482(9) -0.18078(14) 1.01092(11)
H14 H 0.5690 -0.1673 1.0826
loop_
_geom_bond_atom_site_label_1
_geom_bond_atom_site_label_2
_geom_bond_site_symmetry_1
_geom_bond_site_symmetry_2
O1 C11 1_555 1_555
N1 C5 1_555 1_555
N2 C7 1_555 1_555
C1 H1 1_555 1_555
C2 C1 1_555 1_555
H2 C2 1_555 1_555
C3 C2 1_555 1_555
H3 C3 1_555 1_555
C4 C3 1_555 1_555
C5 C4 1_555 1_555
H4 C5 1_555 1_555
C6 N1 1_555 1_555
C7 C6 1_555 1_555
C8 N2 1_555 1_555
H5 C8 1_555 1_555
C9 C8 1_555 1_555
H6 C9 1_555 1_555
C10 C5 1_555 1_555
H7 C10 1_555 1_555
H8 C10 1_555 1_555
C11 N1 1_555 1_555
C12 C7 1_555 1_555
C13 C12 1_555 1_555
H9 C13 1_555 1_555
C14 C13 1_555 1_555
H10 C14 1_555 1_555
C15 C6 1_555 1_555
H11 C15 1_555 1_555
C16 C9 1_555 1_555
H12 C16 1_555 1_555
C17 C4 1_555 1_555
H13 C17 1_555 1_555
C18 C1 1_555 1_555
H14 C18 1_555 1_555
C10 C11 1_555 1_555
C12 C16 1_555 1_555
C14 C15 1_555 1_555
C17 C18 1_555 1_555

#END
