
#######################################################################
#
#                 Cambridge Crystallographic Data Centre
#                                CCDC 
#
#######################################################################
#
# If this CIF has been generated from an entry in the Cambridge 
# Structural Database, then it will include bibliographic, chemical, 
# crystal, experimental, refinement or atomic coordinate data resulting 
# from the CCDC's data processing and validation procedures.
#
#######################################################################

data_NIWCEC
_chemical_formula_moiety         'C8 H10 N7 1+,Cl1 O4 1-'
_chemical_name_systematic        
'(Hydrogen bis(pyrazolecarbimido)amine) perchlorate'
_symmetry_cell_setting           orthorhombic
_symmetry_space_group_name_H-M   'P c c n'
_symmetry_Int_Tables_number      56
_space_group_name_Hall           '-P 2ab 2ac'
loop_
_symmetry_equiv_pos_site_id
_symmetry_equiv_pos_as_xyz
1 x,y,z
2 1/2-x,1/2-y,z
3 -x,1/2+y,1/2-z
4 1/2+x,-y,1/2-z
5 -x,-y,-z
6 1/2+x,1/2+y,-z
7 x,1/2-y,1/2+z
8 1/2-x,y,1/2+z
_cell_length_a                   5.6286(7)
_cell_length_b                   13.1374(16)
_cell_length_c                   17.198(2)
_cell_angle_alpha                90
_cell_angle_beta                 90
_cell_angle_gamma                90
_cell_volume                     1271.71
_exptl_crystal_colour            colorless
_exptl_crystal_description       block
_cell_formula_units_Z            4
loop_
_atom_site_label
_atom_site_type_symbol
_atom_site_fract_x
_atom_site_fract_y
_atom_site_fract_z
N1 N 1.2241(7) 0.6330(3) 0.51929(19)
H1 H 1.337(6) 0.661(3) 0.490(2)
H2 H 1.154(8) 0.576(2) 0.502(2)
N2 N 1.2500 0.7500 0.6218(2)
N3 N 0.9884(5) 0.61781(19) 0.62715(15)
N4 N 0.8776(6) 0.5346(2) 0.59556(17)
C1 C 1.1596(7) 0.6703(3) 0.58584(19)
C2 C 0.9004(7) 0.6410(2) 0.6985(2)
H3 H 0.9494 0.6941 0.7305
C3 C 0.7292(7) 0.5727(3) 0.7141(2)
H4 H 0.6357 0.5686 0.7586
C4 C 0.7224(7) 0.5094(3) 0.6489(2)
H5 H 0.6181 0.4549 0.6439
N1A N 1.2759(7) 0.8670(3) 0.51929(19)
H1A H 1.163(6) 0.839(3) 0.490(2)
H2A H 1.346(8) 0.924(2) 0.502(2)
N3A N 1.5116(5) 0.88219(19) 0.62715(15)
N4A N 1.6224(6) 0.9654(2) 0.59556(17)
C1A C 1.3404(7) 0.8297(3) 0.58584(19)
C2A C 1.5996(7) 0.8590(2) 0.6985(2)
H3A H 1.5506 0.8059 0.7305
C3A C 1.7708(7) 0.9273(3) 0.7141(2)
H4A H 1.8643 0.9314 0.7586
C4A C 1.7776(7) 0.9906(3) 0.6489(2)
H5A H 1.8819 1.0451 0.6439
Cl1 Cl 1.7500 0.7500 0.40933(8)
O3 O 1.521(2) 0.7533(10) 0.3735(7)
O4 O 1.8087(18) 0.8535(6) 0.4246(6)
O3A O 1.979(2) 0.7467(10) 0.3735(7)
O4A O 1.6913(18) 0.6465(6) 0.4246(6)
O1? O 1.7037(17) 0.7095(7) 0.4834(5)
O2? O 1.926(2) 0.7052(9) 0.3613(7)
loop_
_geom_bond_atom_site_label_1
_geom_bond_atom_site_label_2
_geom_bond_site_symmetry_1
_geom_bond_site_symmetry_2
N1 H1 1_555 1_555
H2 N1 1_555 1_555
N2 C1 1_555 1_555
N3 N4 1_555 1_555
N4 C4 1_555 1_555
C1 N1 1_555 1_555
C2 N3 1_555 1_555
H3 C2 1_555 1_555
C3 C2 1_555 1_555
H4 C3 1_555 1_555
C4 C3 1_555 1_555
H5 C4 1_555 1_555
Cl1 O3 1_555 1_555
O4 Cl1 1_555 1_555
N1A H1A 1_555 1_555
H2A N1A 1_555 1_555
N3A N4A 1_555 1_555
N4A C4A 1_555 1_555
C1A N2 1_555 1_555
C2A N3A 1_555 1_555
H3A C2A 1_555 1_555
C3A C2A 1_555 1_555
H4A C3A 1_555 1_555
C4A C3A 1_555 1_555
H5A C4A 1_555 1_555
O3A Cl1 1_555 1_555
O4A Cl1 1_555 1_555
N3 C1 1_555 1_555
N1A C1A 1_555 1_555
N3A C1A 1_555 1_555

#END
