
#######################################################################
#
#                 Cambridge Crystallographic Data Centre
#                                CCDC 
#
#######################################################################
#
# If this CIF has been generated from an entry in the Cambridge 
# Structural Database, then it will include bibliographic, chemical, 
# crystal, experimental, refinement or atomic coordinate data resulting 
# from the CCDC's data processing and validation procedures.
#
#######################################################################

data_NIWCEB
_chemical_formula_moiety         '3(C13 H9 N1),4(C12 H9 N1 S1)'
_chemical_name_systematic        'tris(Acridine) tetrakis(phenothiazine)'
_symmetry_cell_setting           monoclinic
_symmetry_space_group_name_H-M   'C 2/c'
_symmetry_Int_Tables_number      15
_space_group_name_Hall           '-C 2yn'
loop_
_symmetry_equiv_pos_site_id
_symmetry_equiv_pos_as_xyz
1 x,y,z
2 -x,y,1/2-z
3 1/2+x,1/2+y,z
4 1/2-x,1/2+y,1/2-z
5 -x,-y,-z
6 x,-y,1/2+z
7 1/2-x,1/2-y,-z
8 1/2+x,1/2-y,1/2+z
_cell_length_a                   30.194(3)
_cell_length_b                   14.686(3)
_cell_length_c                   15.996(3)
_cell_angle_alpha                90
_cell_angle_beta                 107.930(9)
_cell_angle_gamma                90
_cell_volume                     6748.6
_exptl_crystal_colour            yellow
_exptl_crystal_description       prismatic
_chemical_melting_point          134deg.C
_cell_formula_units_Z            4
loop_
_atom_site_label
_atom_site_type_symbol
_atom_site_fract_x
_atom_site_fract_y
_atom_site_fract_z
S2 S 0.15793(10) 0.0666(2) 0.1242(2)
N2 N 0.0638(2) 0.0943(4) -0.0126(4)
C13 C 0.0850(2) 0.1701(3) 0.0355(3)
C14 C 0.0645(2) 0.2561(4) 0.0174(4)
C15 C 0.0857(3) 0.3301(4) 0.0647(5)
C16 C 0.1275(3) 0.3217(5) 0.1307(5)
C17 C 0.1477(2) 0.2389(5) 0.1485(4)
C18 C 0.1275(2) 0.1608(4) 0.1020(3)
C19 C 0.1190(2) -0.0110(4) 0.0804(4)
C20 C 0.1310(3) -0.1013(6) 0.1041(5)
C21 C 0.1020(4) -0.1717(5) 0.0634(7)
C22 C 0.0615(3) -0.1544(5) -0.0013(6)
C23 C 0.0487(2) -0.0676(5) -0.0248(5)
C24 C 0.0768(2) 0.0058(4) 0.0145(3)
H10 H 0.033(2) 0.103(4) -0.065(4)
H11 H 0.035(2) 0.264(4) -0.032(4)
H12 H 0.068(2) 0.385(5) 0.055(4)
H13 H 0.141(2) 0.381(4) 0.169(4)
H14 H 0.172(2) 0.227(4) 0.186(4)
H15 H 0.155(2) -0.110(5) 0.142(4)
H16 H 0.115(3) -0.228(6) 0.093(5)
H17 H 0.040(2) -0.211(5) -0.041(5)
H18 H 0.018(3) -0.050(6) -0.075(5)
N3 N 0.2468(1) 0.0806(3) 0.3532(3)
C25 C 0.2303(2) 0.1614(4) 0.3683(3)
C26 C 0.2559(2) 0.2411(5) 0.3662(4)
C27 C 0.2396(3) 0.3244(5) 0.3777(5)
C28 C 0.1964(3) 0.3338(5) 0.3935(5)
C29 C 0.1708(2) 0.2596(5) 0.3975(4)
C30 C 0.1868(2) 0.1708(4) 0.3868(3)
C31 C 0.1625(2) 0.0924(5) 0.3890(4)
C32 C 0.1784(2) 0.0083(4) 0.3745(3)
C33 C 0.1550(2) -0.0755(6) 0.3754(5)
C34 C 0.1716(3) -0.1545(5) 0.3573(5)
C35 C 0.2143(3) -0.1564(5) 0.3364(5)
C36 C 0.2382(2) -0.0796(4) 0.3345(4)
C37 C 0.2217(2) 0.0054(4) 0.3543(3)
H19 H 0.280(2) 0.232(4) 0.347(4)
H20 H 0.257(2) 0.370(4) 0.378(4)
H21 H 0.186(3) 0.389(6) 0.407(5)
H22 H 0.142(2) 0.265(4) 0.409(4)
H23 H 0.140(2) 0.095(4) 0.398(4)
H24 H 0.130(2) -0.072(4) 0.388(4)
H25 H 0.153(2) -0.205(5) 0.351(4)
H26 H 0.227(2) -0.213(5) 0.322(5)
H27 H 0.264(2) -0.082(4) 0.308(4)
C38 C 0.0217(3) 0.2906(6) 0.2433(5)
C39 C 0.0427(3) 0.2120(6) 0.2366(5)
C40 C 0.0226(2) 0.1275(4) 0.2426(3)
C41 C 0.0480(2) 0.0458(3) 0.2315(3)
C42 C 0.0221(2) -0.0358(5) 0.2412(4)
C43 C 0.0419(3) -0.1203(7) 0.2321(6)
C44 C 0.0211(3) -0.1999(7) 0.2402(7)
H28 H 0.042(2) 0.336(5) 0.236(5)
H29 H 0.068(2) 0.207(4) 0.232(4)
H30 H 0.066(2) -0.111(5) 0.219(4)
H31 H 0.040(3) -0.250(6) 0.232(5)
C38A C -0.0217(3) 0.2906(6) 0.2567(5)
C39A C -0.0427(3) 0.2120(6) 0.2634(5)
C40A C -0.0226(2) 0.1275(4) 0.2574(3)
C42A C -0.0221(2) -0.0358(5) 0.2588(4)
C41A C -0.0480(2) 0.0458(3) 0.2685(3)
C43A C -0.0419(3) -0.1203(7) 0.2679(6)
C44A C -0.0211(3) -0.1999(7) 0.2598(7)
H31A H -0.040(3) -0.250(6) 0.268(5)
H30A H -0.066(2) -0.111(5) 0.281(4)
H29A H -0.068(2) 0.207(4) 0.268(4)
H28A H -0.042(2) 0.336(5) 0.264(5)
S1 S 0.42401(6) 0.0485(1) 0.2562(1)
N1 N 0.3350(2) 0.0529(3) 0.3079(3)
C1 C 0.3300(2) 0.0741(3) 0.2215(3)
C2 C 0.2857(2) 0.0890(4) 0.1631(4)
C3 C 0.2792(3) 0.1097(5) 0.0744(4)
C4 C 0.3176(3) 0.1171(6) 0.0454(5)
C5 C 0.3614(3) 0.1016(5) 0.1029(5)
C6 C 0.3680(2) 0.0793(4) 0.1894(4)
C7 C 0.4194(2) 0.0720(3) 0.3610(4)
C8 C 0.4593(2) 0.0867(4) 0.4302(5)
C9 C 0.4574(2) 0.0951(4) 0.5145(5)
C10 C 0.4152(2) 0.0906(4) 0.5310(4)
C11 C 0.3740(2) 0.0790(4) 0.4610(4)
C12 C 0.3757(2) 0.0689(3) 0.3759(3)
H1 H 0.311(2) 0.059(4) 0.324(4)
H2 H 0.258(2) 0.086(4) 0.190(4)
H3 H 0.246(2) 0.126(4) 0.030(3)
H4 H 0.312(2) 0.142(5) -0.012(5)
H5 H 0.386(2) 0.105(4) 0.090(4)
H6 H 0.486(2) 0.086(4) 0.411(4)
H7 H 0.482(2) 0.105(4) 0.562(4)
H8 H 0.416(2) 0.095(4) 0.598(4)
H9 H 0.342(2) 0.074(3) 0.474(3)
loop_
_geom_bond_atom_site_label_1
_geom_bond_atom_site_label_2
_geom_bond_site_symmetry_1
_geom_bond_site_symmetry_2
S1 C6 1_555 1_555
S2 C18 1_555 1_555
N1 C1 1_555 1_555
N2 C13 1_555 1_555
N3 C25 1_555 1_555
C1 C2 1_555 1_555
C2 C3 1_555 1_555
C3 C4 1_555 1_555
C4 C5 1_555 1_555
C5 C6 1_555 1_555
C6 C1 1_555 1_555
C7 S1 1_555 1_555
C8 C7 1_555 1_555
C9 C8 1_555 1_555
C10 C9 1_555 1_555
C11 C10 1_555 1_555
C12 N1 1_555 1_555
C13 C14 1_555 1_555
C14 C15 1_555 1_555
C15 C16 1_555 1_555
C16 C17 1_555 1_555
C17 C18 1_555 1_555
C18 C13 1_555 1_555
C19 S2 1_555 1_555
C20 C19 1_555 1_555
C21 C20 1_555 1_555
C22 C21 1_555 1_555
C23 C22 1_555 1_555
C24 N2 1_555 1_555
C25 C26 1_555 1_555
C26 C27 1_555 1_555
C27 C28 1_555 1_555
C28 C29 1_555 1_555
C29 C30 1_555 1_555
C30 C25 1_555 1_555
C31 C30 1_555 1_555
C32 C31 1_555 1_555
C33 C32 1_555 1_555
C34 C33 1_555 1_555
C35 C34 1_555 1_555
C36 C35 1_555 1_555
C37 N3 1_555 1_555
C38 C39 1_555 1_555
C39 C40 1_555 1_555
C40 C41 1_555 1_555
C41 C42 1_555 1_555
C42 C43 1_555 1_555
C43 C44 1_555 1_555
C44 H31 1_555 1_555
H1 N1 1_555 1_555
H2 C2 1_555 1_555
H3 C3 1_555 1_555
H4 C4 1_555 1_555
H5 C5 1_555 1_555
H6 C8 1_555 1_555
H7 C9 1_555 1_555
H8 C10 1_555 1_555
H9 C11 1_555 1_555
H10 N2 1_555 1_555
H11 C14 1_555 1_555
H12 C15 1_555 1_555
H13 C16 1_555 1_555
H14 C17 1_555 1_555
H15 C20 1_555 1_555
H16 C21 1_555 1_555
H17 C22 1_555 1_555
H18 C23 1_555 1_555
H19 C26 1_555 1_555
H20 C27 1_555 1_555
H21 C28 1_555 1_555
H22 C29 1_555 1_555
H23 C31 1_555 1_555
H24 C33 1_555 1_555
H25 C34 1_555 1_555
H26 C35 1_555 1_555
H27 C36 1_555 1_555
H28 C38 1_555 1_555
H29 C39 1_555 1_555
H30 C43 1_555 1_555
C38A C38 1_555 1_555
C39A C38A 1_555 1_555
C40A C40 1_555 1_555
C42A C42 1_555 1_555
C41A C40A 1_555 1_555
C43A C42A 1_555 1_555
C44A C44 1_555 1_555
H31A C44A 1_555 1_555
H30A C43A 1_555 1_555
H29A C39A 1_555 1_555
H28A C38A 1_555 1_555
C7 C12 1_555 1_555
C11 C12 1_555 1_555
C19 C24 1_555 1_555
C23 C24 1_555 1_555
C32 C37 1_555 1_555
C36 C37 1_555 1_555
C39A C40A 1_555 1_555
C42A C41A 1_555 1_555
C43A C44A 1_555 1_555

#END
