
#######################################################################
#
#                 Cambridge Crystallographic Data Centre
#                                CCDC 
#
#######################################################################
#
# If this CIF has been generated from an entry in the Cambridge 
# Structural Database, then it will include bibliographic, chemical, 
# crystal, experimental, refinement or atomic coordinate data resulting 
# from the CCDC's data processing and validation procedures.
#
#######################################################################

data_NIWFAB01
_chemical_name_common            3,4-diaminofurazanofuroxan
_chemical_formula_moiety         'C6 H4 N8 O4'
_chemical_name_systematic        
4,5-bis(4-amino-1,2,5-oxadiazol-3-yl)-1-oxy-1,2,5-oxadiazole
_symmetry_cell_setting           monoclinic
_symmetry_space_group_name_H-M   'P 21/c'
_symmetry_Int_Tables_number      14
_space_group_name_Hall           '-P 2ybc'
loop_
_symmetry_equiv_pos_site_id
_symmetry_equiv_pos_as_xyz
1 x,y,z
2 -x,1/2+y,1/2-z
3 -x,-y,-z
4 x,1/2-y,1/2+z
_cell_length_a                   8.255(3)
_cell_length_b                   9.731(3)
_cell_length_c                   11.958(4)
_cell_angle_alpha                90
_cell_angle_beta                 91.93(3)
_cell_angle_gamma                90
_cell_volume                     960.034
_cell_formula_units_Z            4
loop_
_atom_site_label
_atom_site_type_symbol
_atom_site_fract_x
_atom_site_fract_y
_atom_site_fract_z
O1 O 0.4433(4) 0.0944(4) 0.6172(3)
O2 O 0.3776(5) 0.5874(4) 0.6107(3)
O3 O 0.1647(4) 0.6099(4) 0.7233(3)
O4 O 0.1111(4) 0.1321(4) 0.9850(3)
N1 N 0.5831(5) 0.1744(5) 0.6013(3)
N2 N 0.3261(5) 0.1745(5) 0.6637(3)
N3 N 0.6630(6) 0.3984(6) 0.6495(4)
N4 N 0.2930(5) 0.5301(5) 0.6772(3)
N5 N 0.0866(5) 0.5300(5) 0.7978(3)
N6 N 0.1945(5) 0.1991(5) 0.9046(3)
N7 N -0.0321(5) 0.2041(5) 1.0095(3)
N8 N -0.1532(6) 0.4029(6) 0.9374(4)
C1 C 0.5528(6) 0.2966(6) 0.6416(4)
C2 C 0.3881(5) 0.2956(5) 0.6784(4)
C3 C 0.2896(5) 0.4059(5) 0.7211(4)
C4 C 0.1596(5) 0.4069(5) 0.7974(4)
C5 C 0.1081(5) 0.3056(5) 0.8776(4)
C6 C -0.0349(6) 0.3106(5) 0.9430(4)
loop_
_geom_bond_atom_site_label_1
_geom_bond_atom_site_label_2
_geom_bond_site_symmetry_1
_geom_bond_site_symmetry_2
O1 N1 1_555 1_555
O2 N4 1_555 1_555
O3 N4 1_555 1_555
O4 N6 1_555 1_555
N1 C1 1_555 1_555
N2 O1 1_555 1_555
N3 C1 1_555 1_555
N4 C3 1_555 1_555
N5 O3 1_555 1_555
N6 C5 1_555 1_555
N7 O4 1_555 1_555
N8 C6 1_555 1_555
C1 C2 1_555 1_555
C2 N2 1_555 1_555
C3 C2 1_555 1_555
C4 N5 1_555 1_555
C5 C4 1_555 1_555
C6 N7 1_555 1_555
C3 C4 1_555 1_555
C5 C6 1_555 1_555

#END
