
#######################################################################
#
#                 Cambridge Crystallographic Data Centre
#                                CCDC 
#
#######################################################################
#
# If this CIF has been generated from an entry in the Cambridge 
# Structural Database, then it will include bibliographic, chemical, 
# crystal, experimental, refinement or atomic coordinate data resulting 
# from the CCDC's data processing and validation procedures.
#
#######################################################################

data_NIWQAL01
_chemical_name_common            
'Teaching Subset: Fundamental Chemistry, Symmetry'
_chemical_formula_moiety         'C24 H21 N3 O3'
_chemical_name_systematic        
1,3,5-Tribenzyl-1,3,5-triazine-2,4,6-(1H,3H,5H)-trione
_symmetry_cell_setting           monoclinic
_symmetry_space_group_name_H-M   'P n'
_symmetry_Int_Tables_number      7
_space_group_name_Hall           'P -2yac'
loop_
_symmetry_equiv_pos_site_id
_symmetry_equiv_pos_as_xyz
1 x,y,z
2 1/2+x,-y,1/2+z
_cell_length_a                   11.4057(9)
_cell_length_b                   4.5668(4)
_cell_length_c                   18.9688(14)
_cell_angle_alpha                90
_cell_angle_beta                 90.010(1)
_cell_angle_gamma                90
_cell_volume                     988.038
_exptl_crystal_colour            colorless
_chemical_melting_point          '160.0-160.5 deg.C'
_cell_formula_units_Z            2
_exptl_crystal_recrystallization_method tetrahydrofuran
loop_
_atom_site_label
_atom_site_type_symbol
_atom_site_fract_x
_atom_site_fract_y
_atom_site_fract_z
N1 N 0.16918(9) 0.2849(2) 0.32383(6)
N2 N 0.03520(8) 0.5758(2) 0.26210(5)
N3 N 0.03512(8) 0.5759(2) 0.38558(5)
O1 O 0.16597(9) 0.2910(3) 0.20430(5)
O2 O 0.16596(9) 0.2908(3) 0.44333(5)
O3 O -0.09101(10) 0.8621(2) 0.32391(7)
C1 C -0.01285(11) 0.6843(3) 0.32390(7)
C2 C -0.00996(12) 0.6834(3) 0.45401(7)
H1 H -0.0521 0.8652 0.4464
H2 H 0.0558 0.7251 0.4849
C3 C -0.01022(12) 0.6833(3) 0.19376(7)
H3 H 0.0554 0.7258 0.1629
H4 H -0.0525 0.8646 0.2015
C4 C 0.12597(10) 0.3768(3) 0.25945(7)
C5 C 0.12592(10) 0.3769(3) 0.38832(7)
C6 C 0.38433(10) 0.3078(3) 0.32385(8)
C7 C 0.43275(12) 0.4035(4) 0.38686(9)
H5 H 0.4013 0.3408 0.4295
C8 C 0.57564(13) 0.6843(4) 0.32381(11)
H6 H 0.6402 0.8087 0.3238
C9 C 0.52776(13) 0.5918(4) 0.26136(10)
H7 H 0.5595 0.6562 0.2189
C10 C 0.27904(12) 0.1100(3) 0.32375(9)
H8 H 0.2810 -0.0143 0.2823
H9 H 0.2810 -0.0149 0.3651
C11 C 0.52765(13) 0.5918(4) 0.38637(10)
H10 H 0.5593 0.6565 0.4288
C12 C -0.09002(11) 0.4688(3) 0.15778(7)
C13 C -0.09017(11) 0.4681(3) 0.48991(7)
C14 C -0.19165(13) 0.3715(3) 0.18997(8)
H11 H -0.2099 0.4346 0.2353
C15 C -0.19146(13) 0.3713(3) 0.45778(8)
H12 H -0.2096 0.4342 0.4124
C16 C -0.24074(19) 0.0861(4) 0.08878(11)
H13 H -0.2913 -0.0417 0.0657
C17 C -0.24094(18) 0.0862(4) 0.55902(10)
H14 H -0.2915 -0.0415 0.5821
C18 C -0.26637(15) 0.1817(4) 0.49241(11)
H15 H -0.3346 0.1185 0.4702
C19 C -0.26628(16) 0.1814(4) 0.15542(11)
H16 H -0.3344 0.1178 0.1776
C20 C -0.06513(17) 0.3706(4) 0.09070(8)
H17 H 0.0029 0.4330 0.0683
C21 C -0.06525(16) 0.3706(3) 0.55718(8)
H18 H 0.0027 0.4335 0.5797
C22 C -0.1404(2) 0.1801(4) 0.05637(10)
H19 H -0.1227 0.1157 0.0111
C23 C -0.1405(2) 0.1802(4) 0.59139(10)
H20 H -0.1227 0.1157 0.6366
C24 C 0.43271(12) 0.4037(3) 0.26081(8)
H21 H 0.4012 0.3414 0.2182
loop_
_geom_bond_atom_site_label_1
_geom_bond_atom_site_label_2
_geom_bond_site_symmetry_1
_geom_bond_site_symmetry_2
N1 C4 1_555 1_555
N2 C1 1_555 1_555
N3 C1 1_555 1_555
O1 C4 1_555 1_555
O2 C5 1_555 1_555
O3 C1 1_555 1_555
C2 N3 1_555 1_555
H1 C2 1_555 1_555
H2 C2 1_555 1_555
C3 N2 1_555 1_555
H3 C3 1_555 1_555
H4 C3 1_555 1_555
C4 N2 1_555 1_555
C5 N1 1_555 1_555
C6 C7 1_555 1_555
C7 H5 1_555 1_555
C8 H6 1_555 1_555
C9 C8 1_555 1_555
H7 C9 1_555 1_555
C10 N1 1_555 1_555
H8 C10 1_555 1_555
H9 C10 1_555 1_555
C11 C7 1_555 1_555
H10 C11 1_555 1_555
C12 C3 1_555 1_555
C13 C2 1_555 1_555
C14 C12 1_555 1_555
H11 C14 1_555 1_555
C15 C13 1_555 1_555
H12 C15 1_555 1_555
C16 H13 1_555 1_555
C17 H14 1_555 1_555
C18 C15 1_555 1_555
H15 C18 1_555 1_555
C19 C14 1_555 1_555
H16 C19 1_555 1_555
C20 C12 1_555 1_555
H17 C20 1_555 1_555
C21 C13 1_555 1_555
H18 C21 1_555 1_555
C22 C16 1_555 1_555
H19 C22 1_555 1_555
C23 C17 1_555 1_555
H20 C23 1_555 1_555
C24 C6 1_555 1_555
H21 C24 1_555 1_555
N3 C5 1_555 1_555
C6 C10 1_555 1_555
C8 C11 1_555 1_555
C9 C24 1_555 1_555
C16 C19 1_555 1_555
C17 C18 1_555 1_555
C20 C22 1_555 1_555
C21 C23 1_555 1_555

#END
