
#######################################################################
#
#                 Cambridge Crystallographic Data Centre
#                                CCDC 
#
#######################################################################
#
# If this CIF has been generated from an entry in the Cambridge 
# Structural Database, then it will include bibliographic, chemical, 
# crystal, experimental, refinement or atomic coordinate data resulting 
# from the CCDC's data processing and validation procedures.
#
#######################################################################

data_NIWQOA
_chemical_formula_moiety         'C31 H20 N2 O5,C2 H3 N1'
_chemical_name_systematic        
"3,6-Dihydroxy-2'-((2-hydroxy-1-naphthyl)methyleneamino)xanthene-9-spiro-1'-isoindolin-3'-one acetonitrile solvate"
_symmetry_cell_setting           monoclinic
_symmetry_space_group_name_H-M   'P 21/c'
_symmetry_Int_Tables_number      14
_space_group_name_Hall           '-P 2ybc'
loop_
_symmetry_equiv_pos_site_id
_symmetry_equiv_pos_as_xyz
1 x,y,z
2 -x,1/2+y,1/2-z
3 -x,-y,-z
4 x,1/2-y,1/2+z
_cell_length_a                   18.729(5)
_cell_length_b                   15.572(4)
_cell_length_c                   9.021(2)
_cell_angle_alpha                90
_cell_angle_beta                 98.495(4)
_cell_angle_gamma                90
_cell_volume                     2602.09
_exptl_crystal_colour            yellow
_exptl_crystal_description       block
_cell_formula_units_Z            4
_exptl_crystal_recrystallization_method ethanol/water
loop_
_atom_site_label
_atom_site_type_symbol
_atom_site_fract_x
_atom_site_fract_y
_atom_site_fract_z
C1 C 0.33564(7) 0.42174(9) 0.79315(17)
C2 C 0.35217(9) 0.33479(10) 0.7884(2)
H1 H 0.3272 0.3011 0.7128
C3 C 0.40416(9) 0.29689(10) 0.8916(2)
H2 H 0.4137 0.2385 0.8861
C4 C 0.44199(8) 0.34666(10) 1.00373(18)
C5 C 0.42780(8) 0.43291(9) 1.01071(17)
H3 H 0.4536 0.4667 1.0851
C6 C 0.37473(7) 0.46933(9) 0.90608(16)
C7 C 0.31973(8) 0.59927(9) 0.81305(17)
C8 C 0.32082(8) 0.68757(10) 0.82713(18)
H4 H 0.3494 0.7135 0.9078
C9 C 0.27929(8) 0.73684(10) 0.72100(19)
C10 C 0.23642(8) 0.69775(10) 0.60184(19)
H5 H 0.2083 0.7308 0.5297
C11 C 0.23580(8) 0.60990(10) 0.59104(19)
H6 H 0.2067 0.5842 0.5108
C12 C 0.27727(7) 0.55775(9) 0.69603(17)
C13 C 0.27427(7) 0.46102(9) 0.68603(16)
C14 C 0.26945(8) 0.42604(9) 0.52772(17)
C15 C 0.31751(9) 0.43535(11) 0.4270(2)
H7 H 0.3601 0.4662 0.4521
C16 C 0.30051(11) 0.39730(12) 0.2870(2)
H8 H 0.3318 0.4039 0.2169
C17 C 0.23812(11) 0.34980(12) 0.2495(2)
H9 H 0.2284 0.3243 0.1555
C18 C 0.19056(9) 0.34007(10) 0.34988(18)
H10 H 0.1486 0.3079 0.3256
C19 C 0.20660(8) 0.37939(9) 0.48858(17)
C20 C 0.16357(8) 0.38148(10) 0.61280(17)
C21 C 0.13128(7) 0.42358(9) 0.91136(17)
H11 H 0.1084 0.3753 0.8659
C22 C 0.10663(7) 0.46010(9) 1.04201(16)
C23 C 0.13326(8) 0.53795(10) 1.10112(17)
C24 C 0.10413(10) 0.57803(12) 1.21788(19)
H12 H 0.1220 0.6309 1.2540
C25 C 0.05010(10) 0.54010(13) 1.27822(19)
H13 H 0.0308 0.5679 1.3544
C26 C 0.02242(8) 0.45900(11) 1.22770(18)
C27 C -0.03305(9) 0.41847(14) 1.2928(2)
H14 H -0.0526 0.4462 1.3689
C28 C -0.05798(11) 0.34026(15) 1.2463(2)
H15 H -0.0945 0.3143 1.2900
C29 C -0.02859(9) 0.29812(13) 1.1316(2)
H16 H -0.0452 0.2437 1.1010
C30 C 0.02372(8) 0.33577(11) 1.06483(19)
H17 H 0.0421 0.3069 0.9884
C31 C 0.05084(7) 0.41780(10) 1.10902(17)
N1 N 0.18474(6) 0.45736(8) 0.85739(13)
N2 N 0.20397(6) 0.42793(7) 0.72513(13)
O1 O 0.28347(6) 0.82387(7) 0.73845(14)
H21 H 0.2542 0.8470 0.6743
O2 O 0.36425(6) 0.55596(6) 0.92433(12)
O3 O 0.49339(6) 0.30663(7) 1.10332(14)
H22 H 0.5067 0.3389 1.1738
O4 O 0.18721(6) 0.58052(7) 1.04607(13)
H23 H 0.1992 0.5533 0.9759
O5 O 0.10443(6) 0.35036(8) 0.61789(13)
C32 C 0.54315(12) 0.38827(12) 0.6728(2)
H18 H 0.5930 0.3955 0.7141
H19 H 0.5265 0.3336 0.7028
H20 H 0.5151 0.4332 0.7087
C33 C 0.53548(10) 0.39211(12) 0.5109(3)
N3 N 0.52922(10) 0.39621(12) 0.3840(2)
loop_
_geom_bond_atom_site_label_1
_geom_bond_atom_site_label_2
_geom_bond_site_symmetry_1
_geom_bond_site_symmetry_2
C1 C2 1_555 1_555
C2 H1 1_555 1_555
C3 C2 1_555 1_555
H2 C3 1_555 1_555
C4 C3 1_555 1_555
C5 C4 1_555 1_555
H3 C5 1_555 1_555
C6 C1 1_555 1_555
C7 C8 1_555 1_555
C8 H4 1_555 1_555
C9 C8 1_555 1_555
C10 C9 1_555 1_555
H5 C10 1_555 1_555
C11 C10 1_555 1_555
H6 C11 1_555 1_555
C12 C7 1_555 1_555
C13 C1 1_555 1_555
C14 C13 1_555 1_555
C15 C14 1_555 1_555
H7 C15 1_555 1_555
C16 C15 1_555 1_555
H8 C16 1_555 1_555
C17 C16 1_555 1_555
H9 C17 1_555 1_555
C18 C17 1_555 1_555
H10 C18 1_555 1_555
C19 C14 1_555 1_555
C20 C19 1_555 1_555
C21 H11 1_555 1_555
C22 C21 1_555 1_555
C23 C22 1_555 1_555
C24 C23 1_555 1_555
H12 C24 1_555 1_555
C25 C24 1_555 1_555
H13 C25 1_555 1_555
C26 C25 1_555 1_555
C27 C26 1_555 1_555
H14 C27 1_555 1_555
C28 C27 1_555 1_555
H15 C28 1_555 1_555
C29 C28 1_555 1_555
H16 C29 1_555 1_555
C30 C29 1_555 1_555
H17 C30 1_555 1_555
C31 C22 1_555 1_555
C32 H18 1_555 1_555
H19 C32 1_555 1_555
H20 C32 1_555 1_555
C33 C32 1_555 1_555
N1 C21 1_555 1_555
N2 C13 1_555 1_555
N3 C33 1_555 1_555
O1 C9 1_555 1_555
H21 O1 1_555 1_555
O2 C6 1_555 1_555
O3 C4 1_555 1_555
H22 O3 1_555 1_555
O4 C23 1_555 1_555
H23 O4 1_555 1_555
O5 C20 1_555 1_555
C5 C6 1_555 1_555
C7 O2 1_555 1_555
C11 C12 1_555 1_555
C12 C13 1_555 1_555
C18 C19 1_555 1_555
C20 N2 1_555 1_555
C26 C31 1_555 1_555
C30 C31 1_555 1_555
N1 N2 1_555 1_555

#END
