
#######################################################################
#
#                 Cambridge Crystallographic Data Centre
#                                CCDC 
#
#######################################################################
#
# If this CIF has been generated from an entry in the Cambridge 
# Structural Database, then it will include bibliographic, chemical, 
# crystal, experimental, refinement or atomic coordinate data resulting 
# from the CCDC's data processing and validation procedures.
#
#######################################################################

data_NIWROB
_chemical_formula_moiety         'C14 H11 N3 O3'
_chemical_name_systematic        
(S)-2-(3-Nitrophenyl)-1,2-dihydroquinazolin-4(3H)-one
_symmetry_cell_setting           monoclinic
_symmetry_space_group_name_H-M   'P 21/n'
_symmetry_Int_Tables_number      14
_space_group_name_Hall           '-P 2yn'
loop_
_symmetry_equiv_pos_site_id
_symmetry_equiv_pos_as_xyz
1 x,y,z
2 1/2-x,1/2+y,1/2-z
3 -x,-y,-z
4 1/2+x,1/2-y,1/2+z
_cell_length_a                   10.9766(13)
_cell_length_b                   9.8626(9)
_cell_length_c                   11.7636(14)
_cell_angle_alpha                90
_cell_angle_beta                 109.697(7)
_cell_angle_gamma                90
_cell_volume                     1198.99
_exptl_crystal_colour            yellow
_exptl_crystal_description       block
_chemical_melting_point          210-212deg.C
_cell_formula_units_Z            4
_exptl_crystal_recrystallization_method ethanol
loop_
_atom_site_label
_atom_site_type_symbol
_atom_site_fract_x
_atom_site_fract_y
_atom_site_fract_z
O1 O 0.38313(11) 0.37578(12) 0.01748(10)
O2 O 0.88573(16) 0.82212(18) 0.63964(16)
O3 O 1.00163(13) 0.66568(15) 0.59857(12)
N1 N 0.59073(14) 0.40329(15) 0.13946(12)
H1 H 0.5980(18) 0.4683(15) 0.0939(15)
N2 N 0.69081(13) 0.25348(14) 0.30194(13)
H2 H 0.7543(14) 0.2352(19) 0.3656(12)
N3 N 0.89721(16) 0.71853(17) 0.58678(14)
C1 C 0.47429(16) 0.34319(17) 0.11042(15)
C2 C 0.46290(16) 0.23302(17) 0.19167(14)
C3 C 0.57453(16) 0.19070(17) 0.28587(14)
C4 C 0.56527(17) 0.07855(17) 0.35660(15)
H3 H 0.6379 0.0482 0.4185
C5 C 0.44777(17) 0.01378(18) 0.33363(16)
H4 H 0.4425 -0.0606 0.3803
C6 C 0.33707(18) 0.05748(18) 0.24215(16)
H5 H 0.2584 0.0138 0.2288
C7 C 0.34564(17) 0.16652(18) 0.17147(16)
H6 H 0.2723 0.1958 0.1098
C8 C 0.69237(16) 0.39113(17) 0.25765(14)
H7 H 0.7758 0.4049 0.2459
C9 C 0.67990(15) 0.49851(16) 0.34659(14)
C10 C 0.79123(16) 0.55921(17) 0.42414(15)
H8 H 0.8723 0.5349 0.4220
C11 C 0.77919(17) 0.65619(17) 0.50431(15)
C12 C 0.66122(18) 0.69635(18) 0.51111(16)
H9 H 0.6560 0.7633 0.5649
C13 C 0.55171(18) 0.63387(19) 0.43545(17)
H10 H 0.4711 0.6573 0.4391
C14 C 0.56071(17) 0.53628(18) 0.35387(16)
H11 H 0.4858 0.4954 0.3031
loop_
_geom_bond_atom_site_label_1
_geom_bond_atom_site_label_2
_geom_bond_site_symmetry_1
_geom_bond_site_symmetry_2
O1 C1 1_555 1_555
O2 N3 1_555 1_555
O3 N3 1_555 1_555
N1 H1 1_555 1_555
N2 H2 1_555 1_555
N3 C11 1_555 1_555
C1 N1 1_555 1_555
C2 C1 1_555 1_555
C3 N2 1_555 1_555
C4 C3 1_555 1_555
H3 C4 1_555 1_555
C5 C4 1_555 1_555
H4 C5 1_555 1_555
C6 C5 1_555 1_555
H5 C6 1_555 1_555
C7 C2 1_555 1_555
H6 C7 1_555 1_555
C8 N1 1_555 1_555
H7 C8 1_555 1_555
C9 C8 1_555 1_555
C10 C9 1_555 1_555
H8 C10 1_555 1_555
C11 C10 1_555 1_555
C12 C11 1_555 1_555
H9 C12 1_555 1_555
C13 C12 1_555 1_555
H10 C13 1_555 1_555
C14 C9 1_555 1_555
H11 C14 1_555 1_555
N2 C8 1_555 1_555
C2 C3 1_555 1_555
C6 C7 1_555 1_555
C13 C14 1_555 1_555

#END
