
#######################################################################
#
#                 Cambridge Crystallographic Data Centre
#                                CCDC 
#
#######################################################################
#
# If this CIF has been generated from an entry in the Cambridge 
# Structural Database, then it will include bibliographic, chemical, 
# crystal, experimental, refinement or atomic coordinate data resulting 
# from the CCDC's data processing and validation procedures.
#
#######################################################################

data_NIWSUI
_chemical_formula_moiety         'C24 H23 Br1'
_chemical_name_systematic        
(E)-1-(4-Bromophenyl)-2-(4-t-butylphenyl)-1-phenylethene
_symmetry_cell_setting           triclinic
_symmetry_space_group_name_H-M   'P -1'
_symmetry_Int_Tables_number      2
_space_group_name_Hall           '-P 1'
loop_
_symmetry_equiv_pos_site_id
_symmetry_equiv_pos_as_xyz
1 x,y,z
2 -x,-y,-z
_cell_length_a                   8.2950(4)
_cell_length_b                   10.8173(5)
_cell_length_c                   13.0447(6)
_cell_angle_alpha                112.415(3)
_cell_angle_beta                 94.570(3)
_cell_angle_gamma                105.402(3)
_cell_volume                     1021.47
_exptl_crystal_colour            colorless
_exptl_crystal_description       plate
_cell_formula_units_Z            2
_exptl_crystal_recrystallization_method 2-propanol
loop_
_atom_site_label
_atom_site_type_symbol
_atom_site_fract_x
_atom_site_fract_y
_atom_site_fract_z
Br1 Br -0.32899(6) -0.30686(6) 0.89730(5)
C1 C -0.1190(5) -0.2364(4) 0.8586(4)
C2 C 0.0276(6) -0.1682(5) 0.9382(4)
H1 H 0.0260 -0.1546 1.0129
C3 C 0.1792(5) -0.1190(4) 0.9077(3)
H2 H 0.2794 -0.0724 0.9626
C4 C 0.1849(4) -0.1378(3) 0.7971(3)
C5 C 0.0313(5) -0.2095(4) 0.7184(3)
H3 H 0.0311 -0.2254 0.6431
C6 C -0.1190(5) -0.2572(4) 0.7485(4)
H4 H -0.2203 -0.3033 0.6946
C7 C 0.3451(4) -0.0855(4) 0.7616(3)
C8 C 0.4655(4) 0.0381(4) 0.8294(3)
H5 H 0.4399 0.0874 0.8985
C9 C 0.6311(4) 0.1058(4) 0.8099(3)
C10 C 0.6965(5) 0.2522(4) 0.8553(3)
H6 H 0.6358 0.3055 0.8994
C11 C 0.8495(5) 0.3203(4) 0.8364(3)
H7 H 0.8878 0.4184 0.8671
C12 C 0.9472(5) 0.2481(4) 0.7737(3)
C13 C 0.8849(5) 0.1029(4) 0.7326(4)
H8 H 0.9493 0.0503 0.6921
C14 C 0.7309(5) 0.0323(4) 0.7489(4)
H9 H 0.6937 -0.0658 0.7186
C15 C 1.1138(5) 0.3218(5) 0.7477(4)
C16 C 1.0931(12) 0.2913(18) 0.6235(8)
H10 H 0.9873 0.3013 0.5983
H11 H 1.0926 0.1966 0.5808
H12 H 1.1863 0.3565 0.6124
C17 C 1.2556(9) 0.2679(14) 0.7758(13)
H13 H 1.2267 0.1691 0.7280
H14 H 1.2689 0.2822 0.8537
H15 H 1.3606 0.3186 0.7634
C18 C 1.1673(13) 0.4847(8) 0.8113(11)
H16 H 1.2715 0.5267 0.7926
H17 H 1.1845 0.5112 0.8914
H18 H 1.0791 0.5171 0.7891
C22 C 0.3588(4) -0.1758(4) 0.6450(3)
C23 C 0.3716(5) -0.1263(4) 0.5612(3)
H28 H 0.3756 -0.0338 0.5782
C24 C 0.3785(6) -0.2125(5) 0.4531(4)
H29 H 0.3884 -0.1777 0.3979
C25 C 0.3709(7) -0.3473(6) 0.4275(4)
H30 H 0.3753 -0.4057 0.3545
C26 C 0.3567(8) -0.3979(5) 0.5079(5)
H31 H 0.3514 -0.4910 0.4897
C27 C 0.3503(6) -0.3132(4) 0.6159(4)
H32 H 0.3399 -0.3497 0.6700
C19? C 1.189(6) 0.217(4) 0.670(4)
H19? H 1.2495 0.2567 0.6245
H20? H 1.0985 0.1317 0.6219
H21? H 1.2659 0.1957 0.7148
C20? C 1.236(4) 0.408(6) 0.862(2)
H22? H 1.3447 0.3928 0.8562
H23? H 1.1902 0.3783 0.9175
H24? H 1.2505 0.5061 0.8849
C21? C 1.071(4) 0.400(5) 0.684(5)
H25? H 1.1707 0.4393 0.6594
H26? H 1.0335 0.4746 0.7317
H27? H 0.9820 0.3367 0.6190
loop_
_geom_bond_atom_site_label_1
_geom_bond_atom_site_label_2
_geom_bond_site_symmetry_1
_geom_bond_site_symmetry_2
Br1 C1 1_555 1_555
C1 C2 1_555 1_555
C2 H1 1_555 1_555
C3 C2 1_555 1_555
H2 C3 1_555 1_555
C4 C3 1_555 1_555
C5 C4 1_555 1_555
H3 C5 1_555 1_555
C6 C1 1_555 1_555
H4 C6 1_555 1_555
C7 C4 1_555 1_555
C8 C7 1_555 1_555
H5 C8 1_555 1_555
C9 C8 1_555 1_555
C10 C9 1_555 1_555
H6 C10 1_555 1_555
C11 C10 1_555 1_555
H7 C11 1_555 1_555
C12 C11 1_555 1_555
C13 C12 1_555 1_555
H8 C13 1_555 1_555
C14 C9 1_555 1_555
H9 C14 1_555 1_555
C15 C12 1_555 1_555
C16 C15 1_555 1_555
H10 C16 1_555 1_555
H11 C16 1_555 1_555
H12 C16 1_555 1_555
C17 C15 1_555 1_555
H13 C17 1_555 1_555
H14 C17 1_555 1_555
H15 C17 1_555 1_555
C18 C15 1_555 1_555
H16 C18 1_555 1_555
H17 C18 1_555 1_555
H18 C18 1_555 1_555
C22 C7 1_555 1_555
C23 C22 1_555 1_555
H28 C23 1_555 1_555
C24 C23 1_555 1_555
H29 C24 1_555 1_555
C25 C24 1_555 1_555
H30 C25 1_555 1_555
C26 C25 1_555 1_555
H31 C26 1_555 1_555
C27 C22 1_555 1_555
H32 C27 1_555 1_555
C5 C6 1_555 1_555
C13 C14 1_555 1_555
C26 C27 1_555 1_555

#END
