
#######################################################################
#
#                 Cambridge Crystallographic Data Centre
#                                CCDC 
#
#######################################################################
#
# If this CIF has been generated from an entry in the Cambridge 
# Structural Database, then it will include bibliographic, chemical, 
# crystal, experimental, refinement or atomic coordinate data resulting 
# from the CCDC's data processing and validation procedures.
#
#######################################################################

data_NIWSOC
_chemical_formula_moiety         'C8 H6 Cl1 N1 O4'
_chemical_name_systematic        'Methyl 4-chloro-3-nitrobenzoate'
_symmetry_cell_setting           triclinic
_symmetry_space_group_name_H-M   'P -1'
_symmetry_Int_Tables_number      2
_space_group_name_Hall           '-P 1'
loop_
_symmetry_equiv_pos_site_id
_symmetry_equiv_pos_as_xyz
1 x,y,z
2 -x,-y,-z
_cell_length_a                   7.3380(10)
_cell_length_b                   7.4800(10)
_cell_length_c                   9.715(2)
_cell_angle_alpha                98.39(3)
_cell_angle_beta                 94.89(3)
_cell_angle_gamma                118.95(3)
_cell_volume                     454.069
_exptl_crystal_colour            colorless
_exptl_crystal_description       box
_cell_formula_units_Z            2
_exptl_crystal_recrystallization_method methanol
loop_
_atom_site_label
_atom_site_type_symbol
_atom_site_fract_x
_atom_site_fract_y
_atom_site_fract_z
C1 C -0.2034(5) 0.0805(6) 0.0613(3)
H1 H -0.3435 -0.0080 0.0779
H2 H -0.1832 0.0171 -0.0248
H3 H -0.1857 0.2143 0.0536
C2 C -0.0585(4) 0.1907(4) 0.3056(3)
C3 C 0.1131(4) 0.2225(4) 0.4166(3)
C4 C 0.2701(4) 0.1747(4) 0.3866(3)
H4 H 0.2672 0.1180 0.2941
C5 C 0.4285(4) 0.2108(4) 0.4925(3)
H5 H 0.5306 0.1769 0.4709
C6 C 0.4376(4) 0.2965(4) 0.6299(3)
C7 C 0.2808(4) 0.3452(4) 0.6588(3)
C8 C 0.1197(4) 0.3055(4) 0.5547(3)
H6 H 0.0146 0.3344 0.5771
Cl1 Cl 0.63808(12) 0.33572(14) 0.75859(9)
N1 N 0.2849(4) 0.4450(4) 0.8022(2)
O1 O -0.0490(3) 0.1079(3) 0.1782(2)
O2 O -0.1910(3) 0.2373(3) 0.3279(2)
O3 O 0.4525(4) 0.5930(4) 0.8665(2)
O4 O 0.1169(4) 0.3786(4) 0.8445(2)
loop_
_geom_bond_atom_site_label_1
_geom_bond_atom_site_label_2
_geom_bond_site_symmetry_1
_geom_bond_site_symmetry_2
C1 H1 1_555 1_555
H2 C1 1_555 1_555
H3 C1 1_555 1_555
C2 C3 1_555 1_555
C3 C4 1_555 1_555
C4 H4 1_555 1_555
C5 C4 1_555 1_555
H5 C5 1_555 1_555
C6 C5 1_555 1_555
C7 C6 1_555 1_555
C8 C3 1_555 1_555
H6 C8 1_555 1_555
Cl1 C6 1_555 1_555
N1 C7 1_555 1_555
O1 C1 1_555 1_555
O2 C2 1_555 1_555
O3 N1 1_555 1_555
O4 N1 1_555 1_555
C2 O1 1_555 1_555
C7 C8 1_555 1_555

#END
