
#######################################################################
#
#                 Cambridge Crystallographic Data Centre
#                                CCDC 
#
#######################################################################
#
# If this CIF has been generated from an entry in the Cambridge 
# Structural Database, then it will include bibliographic, chemical, 
# crystal, experimental, refinement or atomic coordinate data resulting 
# from the CCDC's data processing and validation procedures.
#
#######################################################################

data_NIXVEW
_chemical_formula_moiety         'C34 H54 S2'
_chemical_name_systematic        
2,6-bis(Dodecyl)benzo(1,2-b:4,5-b')dithiophene
_symmetry_cell_setting           triclinic
_symmetry_space_group_name_H-M   'P -1'
_symmetry_Int_Tables_number      2
_space_group_name_Hall           '-P 1'
loop_
_symmetry_equiv_pos_site_id
_symmetry_equiv_pos_as_xyz
1 x,y,z
2 -x,-y,-z
_cell_length_a                   4.187(2)
_cell_length_b                   5.900(3)
_cell_length_c                   31.80(1)
_cell_angle_alpha                85.15(1)
_cell_angle_beta                 88.81(2)
_cell_angle_gamma                82.03(1)
_cell_volume                     775.159
_exptl_crystal_colour            colorless
_exptl_crystal_description       platelet
_cell_formula_units_Z            1
loop_
_atom_site_label
_atom_site_type_symbol
_atom_site_fract_x
_atom_site_fract_y
_atom_site_fract_z
S1 S 0.6092(5) 0.6903(3) 0.58600(7)
C1 C 0.534(2) 0.605(1) 0.5366(2)
C2 C 0.356(2) 0.724(1) 0.5049(2)
C3 C 0.684(2) 0.370(1) 0.5336(2)
C4 C 0.851(2) 0.280(1) 0.5704(2)
C5 C 0.832(2) 0.425(1) 0.6021(2)
C6 C 0.963(2) 0.388(1) 0.6453(2)
C7 C 1.129(2) 0.142(1) 0.6575(2)
C8 C 1.226(2) 0.105(1) 0.7027(2)
C9 C 1.378(2) -0.141(1) 0.7160(2)
C10 C 1.479(2) -0.178(1) 0.7620(2)
C11 C 1.624(2) -0.425(1) 0.7759(2)
C12 C 1.718(2) -0.460(1) 0.8222(2)
C13 C 1.862(2) -0.705(1) 0.8360(2)
C14 C 1.961(2) -0.742(1) 0.8818(3)
C15 C 2.101(2) -0.986(1) 0.8970(3)
C16 C 2.194(2) -1.019(1) 0.9425(3)
C17 C 2.324(2) -1.264(1) 0.9572(3)
H1 H 0.2474 0.8822 0.5082
H2 H 0.9702 0.1255 0.5734
H3 H 1.1132 0.4913 0.6489
H4 H 0.7872 0.4193 0.6652
H5 H 0.9831 0.0391 0.6514
H6 H 1.3149 0.1174 0.6398
H7 H 1.0366 0.1382 0.7202
H8 H 1.3737 0.2065 0.7083
H9 H 1.2304 -0.2429 0.7112
H10 H 1.5674 -0.1747 0.6993
H11 H 1.6262 -0.0761 0.7671
H12 H 1.2877 -0.1415 0.7791
H13 H 1.4780 -0.5247 0.7703
H14 H 1.8171 -0.4582 0.7590
H15 H 1.5280 -0.4211 0.8382
H16 H 1.8692 -0.3589 0.8269
H17 H 1.7119 -0.8055 0.8318
H18 H 2.0521 -0.7452 0.8193
H19 H 1.7763 -0.6950 0.8986
H20 H 2.1194 -0.6411 0.8861
H21 H 1.9455 -1.0838 0.8922
H22 H 2.2890 -1.0294 0.8799
H23 H 2.0114 -0.9702 0.9599
H24 H 2.3570 -0.9210 0.9475
H25 H 2.3848 -1.2738 0.9866
H26 H 2.1706 -1.3599 0.9538
H27 H 2.5162 -1.3108 0.9414
S1A S 0.3908(5) 0.3097(3) 0.41400(7)
C1A C 0.466(2) 0.395(1) 0.4634(2)
C2A C 0.644(2) 0.276(1) 0.4951(2)
C3A C 0.316(2) 0.630(1) 0.4664(2)
C4A C 0.149(2) 0.720(1) 0.4296(2)
C5A C 0.168(2) 0.575(1) 0.3979(2)
C6A C 0.037(2) 0.612(1) 0.3547(2)
C7A C -0.129(2) 0.858(1) 0.3425(2)
C8A C -0.226(2) 0.895(1) 0.2973(2)
C9A C -0.378(2) 1.141(1) 0.2840(2)
C10A C -0.479(2) 1.178(1) 0.2380(2)
C11A C -0.624(2) 1.425(1) 0.2241(2)
C12A C -0.718(2) 1.460(1) 0.1778(2)
C13A C -0.862(2) 1.705(1) 0.1640(2)
C14A C -0.961(2) 1.742(1) 0.1182(3)
C15A C -1.101(2) 1.986(1) 0.1030(3)
C16A C -1.194(2) 2.019(1) 0.0575(3)
C17A C -1.324(2) 2.264(1) 0.0428(3)
H1A H 0.7526 0.1178 0.4918
H2A H 0.0298 0.8745 0.4266
H3A H -0.1132 0.5087 0.3511
H4A H 0.2128 0.5807 0.3348
H5A H 0.0169 0.9609 0.3486
H6A H -0.3149 0.8826 0.3602
H7A H -0.0366 0.8618 0.2798
H8A H -0.3737 0.7935 0.2917
H9A H -0.2304 1.2429 0.2888
H10A H -0.5674 1.1747 0.3007
H11A H -0.6262 1.0761 0.2329
H12A H -0.2877 1.1415 0.2209
H13A H -0.4780 1.5247 0.2297
H14A H -0.8171 1.4582 0.2410
H15A H -0.5280 1.4211 0.1618
H16A H -0.8692 1.3589 0.1731
H17A H -0.7119 1.8055 0.1682
H18A H -1.0521 1.7452 0.1807
H19A H -0.7763 1.6950 0.1014
H20A H -1.1194 1.6411 0.1139
H21A H -0.9455 2.0838 0.1078
H22A H -1.2890 2.0294 0.1201
H23A H -1.0114 1.9702 0.0401
H24A H -1.3570 1.9210 0.0525
H25A H -1.3848 2.2738 0.0134
H26A H -1.1706 2.3599 0.0462
H27A H -1.5162 2.3108 0.0586
loop_
_geom_bond_atom_site_label_1
_geom_bond_atom_site_label_2
_geom_bond_site_symmetry_1
_geom_bond_site_symmetry_2
S1 C1 1_555 1_555
C1 C2 1_555 1_555
C2 H1 1_555 1_555
C3 C1 1_555 1_555
C4 C3 1_555 1_555
C5 S1 1_555 1_555
C6 C5 1_555 1_555
C7 C6 1_555 1_555
C8 C7 1_555 1_555
C9 C8 1_555 1_555
C10 C9 1_555 1_555
C11 C10 1_555 1_555
C12 C11 1_555 1_555
C13 C12 1_555 1_555
C14 C13 1_555 1_555
C15 C14 1_555 1_555
C16 C15 1_555 1_555
C17 C16 1_555 1_555
H2 C4 1_555 1_555
H3 C6 1_555 1_555
H4 C6 1_555 1_555
H5 C7 1_555 1_555
H6 C7 1_555 1_555
H7 C8 1_555 1_555
H8 C8 1_555 1_555
H9 C9 1_555 1_555
H10 C9 1_555 1_555
H11 C10 1_555 1_555
H12 C10 1_555 1_555
H13 C11 1_555 1_555
H14 C11 1_555 1_555
H15 C12 1_555 1_555
H16 C12 1_555 1_555
H17 C13 1_555 1_555
H18 C13 1_555 1_555
H19 C14 1_555 1_555
H20 C14 1_555 1_555
H21 C15 1_555 1_555
H22 C15 1_555 1_555
H23 C16 1_555 1_555
H24 C16 1_555 1_555
H25 C17 1_555 1_555
H26 C17 1_555 1_555
H27 C17 1_555 1_555
S1A C1A 1_555 1_555
C1A C2A 1_555 1_555
C2A C3 1_555 1_555
C3A C2 1_555 1_555
C4A C3A 1_555 1_555
C5A S1A 1_555 1_555
C6A C5A 1_555 1_555
C7A C6A 1_555 1_555
C8A C7A 1_555 1_555
C9A C8A 1_555 1_555
C10A C9A 1_555 1_555
C11A C10A 1_555 1_555
C12A C11A 1_555 1_555
C13A C12A 1_555 1_555
C14A C13A 1_555 1_555
C15A C14A 1_555 1_555
C16A C15A 1_555 1_555
C17A C16A 1_555 1_555
H1A C2A 1_555 1_555
H2A C4A 1_555 1_555
H3A C6A 1_555 1_555
H4A C6A 1_555 1_555
H5A C7A 1_555 1_555
H6A C7A 1_555 1_555
H7A C8A 1_555 1_555
H8A C8A 1_555 1_555
H9A C9A 1_555 1_555
H10A C9A 1_555 1_555
H11A C10A 1_555 1_555
H12A C10A 1_555 1_555
H13A C11A 1_555 1_555
H14A C11A 1_555 1_555
H15A C12A 1_555 1_555
H16A C12A 1_555 1_555
H17A C13A 1_555 1_555
H18A C13A 1_555 1_555
H19A C14A 1_555 1_555
H20A C14A 1_555 1_555
H21A C15A 1_555 1_555
H22A C15A 1_555 1_555
H23A C16A 1_555 1_555
H24A C16A 1_555 1_555
H25A C17A 1_555 1_555
H26A C17A 1_555 1_555
H27A C17A 1_555 1_555
C4 C5 1_555 1_555
C1A C3A 1_555 1_555
C4A C5A 1_555 1_555

#END
