
#######################################################################
#
#                 Cambridge Crystallographic Data Centre
#                                CCDC 
#
#######################################################################
#
# If this CIF has been generated from an entry in the Cambridge 
# Structural Database, then it will include bibliographic, chemical, 
# crystal, experimental, refinement or atomic coordinate data resulting 
# from the CCDC's data processing and validation procedures.
#
#######################################################################

data_NIXVUN
_chemical_formula_moiety         'C34 H20 Cl4 N4 O4,C1 H2 Cl2'
_chemical_name_systematic        
"2,9-Di-n-butyl-5,6,12,13-tetrachloro-1,3,8,10-tetraoxo-1,2,3,8,9,10-hexahydroisoquinolino[4',5',6':6,5,10]anthra[2,1,9-def]isoquinoline-4,11-dicarbonitrile dichloromethane solvate"
_symmetry_cell_setting           monoclinic
_symmetry_space_group_name_H-M   'P 21/n'
_symmetry_Int_Tables_number      14
_space_group_name_Hall           '-P 2yn'
loop_
_symmetry_equiv_pos_site_id
_symmetry_equiv_pos_as_xyz
1 x,y,z
2 1/2-x,1/2+y,1/2-z
3 -x,-y,-z
4 1/2+x,1/2-y,1/2+z
_cell_length_a                   18.304(4)
_cell_length_b                   9.949(2)
_cell_length_c                   18.495(4)
_cell_angle_alpha                90
_cell_angle_beta                 108.29(3)
_cell_angle_gamma                90
_cell_volume                     3197.91
_exptl_crystal_colour            orange
_exptl_crystal_description       block
_cell_formula_units_Z            4
loop_
_atom_site_label
_atom_site_type_symbol
_atom_site_fract_x
_atom_site_fract_y
_atom_site_fract_z
Cl1 Cl 0.81998(6) 0.18638(11) 0.16154(7)
Cl2 Cl 0.82543(6) 0.47166(11) 0.22465(7)
Cl3 Cl 0.42925(6) 0.13753(11) 0.19278(7)
Cl4 Cl 0.39869(6) 0.41575(11) 0.11528(7)
O1 O 0.42115(18) 0.3214(3) -0.1614(2)
O2 O 0.6669(2) 0.1946(4) -0.1320(2)
O3 O 0.81089(19) 0.3917(4) 0.5057(2)
O4 O 0.57036(19) 0.2427(4) 0.4830(2)
N1 N 0.5422(2) 0.2448(4) -0.1461(2)
N2 N 0.3094(3) 0.4166(4) -0.0734(3)
N3 N 0.9195(2) 0.4873(4) 0.4134(3)
N4 N 0.6924(2) 0.3109(4) 0.4948(2)
C1 C 0.4782(3) 0.4249(6) -0.4139(3)
H1 H 0.4754 0.3974 -0.4655
H2 H 0.5152 0.4987 -0.3973
H3 H 0.4273 0.4551 -0.4135
C2 C 0.5040(3) 0.3065(5) -0.3599(3)
H4 H 0.4642 0.2354 -0.3744
H5 H 0.5520 0.2690 -0.3657
C3 C 0.5183(3) 0.3436(5) -0.2768(3)
H6 H 0.5676 0.3927 -0.2575
H7 H 0.4767 0.4038 -0.2727
C4 C 0.5209(3) 0.2202(5) -0.2292(3)
H8 H 0.4697 0.1765 -0.2463
H9 H 0.5584 0.1563 -0.2386
C5 C 0.6186(3) 0.2270(5) -0.1021(3)
C6 C 0.6374(3) 0.2461(5) -0.0196(3)
C7 C 0.7106(3) 0.2182(5) 0.0276(3)
H10 H 0.7480 0.1837 0.0068
C8 C 0.7303(2) 0.2406(4) 0.1070(3)
C9 C 0.6781(3) 0.2937(4) 0.1398(3)
C10 C 0.6949(2) 0.3354(4) 0.2191(3)
C11 C 0.7635(3) 0.3942(4) 0.2649(3)
C12 C 0.7820(2) 0.4001(4) 0.3446(3)
C13 C 0.8577(3) 0.4485(5) 0.3874(3)
C14 C 0.7293(3) 0.3550(4) 0.3798(3)
C15 C 0.7494(3) 0.3551(5) 0.4646(3)
C16 C 0.7116(3) 0.3115(5) 0.5786(3)
H11 H 0.7668 0.2895 0.6018
H12 H 0.6813 0.2409 0.5939
C17 C 0.6953(3) 0.4457(5) 0.6088(3)
H13 H 0.6401 0.4675 0.5859
H14 H 0.7254 0.5164 0.5933
C18 C 0.7154(3) 0.4465(6) 0.6949(3)
H15 H 0.7709 0.4267 0.7178
H16 H 0.6863 0.3743 0.7105
C19 C 0.6976(4) 0.5805(7) 0.7260(4)
H17 H 0.6422 0.5977 0.7064
H18 H 0.7253 0.6528 0.7097
H19 H 0.7140 0.5769 0.7817
C20 C 0.6181(3) 0.2725(5) 0.4522(3)
C21 C 0.6008(3) 0.2680(5) 0.3685(3)
C22 C 0.5315(3) 0.2165(5) 0.3239(3)
H20 H 0.4971 0.1769 0.3469
C23 C 0.5120(2) 0.2227(5) 0.2440(3)
C24 C 0.5591(3) 0.2843(4) 0.2074(3)
C25 C 0.5392(3) 0.3111(4) 0.1263(3)
C26 C 0.4665(3) 0.3513(4) 0.0782(3)
C27 C 0.4488(3) 0.3493(4) -0.0019(3)
C28 C 0.3716(3) 0.3856(5) -0.0459(3)
C29 C 0.5038(2) 0.3086(4) -0.0344(3)
C30 C 0.4847(3) 0.2934(5) -0.1182(3)
C31 C 0.5799(3) 0.2853(4) 0.0127(3)
C32 C 0.5989(3) 0.2979(4) 0.0926(3)
C33 C 0.6369(3) 0.3122(4) 0.2543(3)
C34 C 0.6556(3) 0.3130(4) 0.3342(3)
Cl5 Cl 0.8440(5) 0.4520(10) 0.0255(5)
Cl6 Cl 0.8744(7) 0.4532(11) -0.1236(6)
C35 C 0.9115(6) 0.4340(12) -0.0238(6)
H21 H 0.9352 0.3437 -0.0126
H22 H 0.9529 0.5011 -0.0037
C36? C 0.8574(12) 0.3629(18) -0.0626(11)
H23? H 0.9017 0.3065 -0.0341
H24? H 0.8164 0.3030 -0.0938
Cl7? Cl 0.8225(8) 0.4571(14) 0.0030(7)
Cl8? Cl 0.8858(9) 0.4752(11) -0.1215(7)
loop_
_geom_bond_atom_site_label_1
_geom_bond_atom_site_label_2
_geom_bond_site_symmetry_1
_geom_bond_site_symmetry_2
Cl1 C8 1_555 1_555
Cl2 C11 1_555 1_555
Cl3 C23 1_555 1_555
Cl4 C26 1_555 1_555
O1 C30 1_555 1_555
O2 C5 1_555 1_555
O3 C15 1_555 1_555
O4 C20 1_555 1_555
N1 C4 1_555 1_555
N2 C28 1_555 1_555
N3 C13 1_555 1_555
N4 C15 1_555 1_555
C1 H1 1_555 1_555
H2 C1 1_555 1_555
H3 C1 1_555 1_555
C2 C1 1_555 1_555
H4 C2 1_555 1_555
H5 C2 1_555 1_555
C3 C2 1_555 1_555
H6 C3 1_555 1_555
H7 C3 1_555 1_555
C4 C3 1_555 1_555
H8 C4 1_555 1_555
H9 C4 1_555 1_555
C5 N1 1_555 1_555
C6 C5 1_555 1_555
C7 C6 1_555 1_555
H10 C7 1_555 1_555
C8 C7 1_555 1_555
C9 C8 1_555 1_555
C10 C9 1_555 1_555
C11 C10 1_555 1_555
C12 C11 1_555 1_555
C13 C12 1_555 1_555
C14 C12 1_555 1_555
C15 C14 1_555 1_555
C16 N4 1_555 1_555
H11 C16 1_555 1_555
H12 C16 1_555 1_555
C17 C16 1_555 1_555
H13 C17 1_555 1_555
H14 C17 1_555 1_555
C18 C17 1_555 1_555
H15 C18 1_555 1_555
H16 C18 1_555 1_555
C19 C18 1_555 1_555
H17 C19 1_555 1_555
H18 C19 1_555 1_555
H19 C19 1_555 1_555
C20 N4 1_555 1_555
C21 C20 1_555 1_555
C22 C21 1_555 1_555
H20 C22 1_555 1_555
C23 C22 1_555 1_555
C24 C23 1_555 1_555
C25 C24 1_555 1_555
C26 C25 1_555 1_555
C27 C26 1_555 1_555
C28 C27 1_555 1_555
C29 C27 1_555 1_555
C30 N1 1_555 1_555
C31 C6 1_555 1_555
C32 C9 1_555 1_555
C33 C10 1_555 1_555
C34 C14 1_555 1_555
Cl5 C35 1_555 1_555
Cl6 C35 1_555 1_555
C35 H21 1_555 1_555
H22 C35 1_555 1_555
C21 C34 1_555 1_555
C24 C33 1_555 1_555
C25 C32 1_555 1_555
C29 C30 1_555 1_555
C29 C31 1_555 1_555
C31 C32 1_555 1_555
C33 C34 1_555 1_555

#END
