
#######################################################################
#
#                 Cambridge Crystallographic Data Centre
#                                CCDC 
#
#######################################################################
#
# If this CIF has been generated from an entry in the Cambridge 
# Structural Database, then it will include bibliographic, chemical, 
# crystal, experimental, refinement or atomic coordinate data resulting 
# from the CCDC's data processing and validation procedures.
#
#######################################################################

data_NIYDOO01
_chemical_formula_moiety         'C2 H3 N3 S1'
_chemical_name_systematic        2-Amino-1,3,4-thiadiazole
_symmetry_cell_setting           monoclinic
_symmetry_space_group_name_H-M   'P 21/n'
_symmetry_Int_Tables_number      14
_space_group_name_Hall           '-P 2yn'
loop_
_symmetry_equiv_pos_site_id
_symmetry_equiv_pos_as_xyz
1 x,y,z
2 1/2-x,1/2+y,1/2-z
3 -x,-y,-z
4 1/2+x,1/2-y,1/2+z
_cell_length_a                   5.5718(5)
_cell_length_b                   13.4573(17)
_cell_length_c                   5.7875(5)
_cell_angle_alpha                90
_cell_angle_beta                 109.984(6)
_cell_angle_gamma                90
_cell_volume                     407.826
_exptl_crystal_colour            colorless
_exptl_crystal_description       needle
_chemical_melting_point          464-465K
_cell_formula_units_Z            4
_exptl_crystal_recrystallization_method ethanol
loop_
_atom_site_label
_atom_site_type_symbol
_atom_site_fract_x
_atom_site_fract_y
_atom_site_fract_z
S1 S -0.09495(9) 0.66383(5) 0.20459(8)
N1 N 0.3077(3) 0.55639(16) 0.1828(3)
N2 N 0.2533(3) 0.57916(15) 0.5659(3)
N3 N 0.0865(3) 0.62459(16) 0.6651(3)
C1 C 0.1817(3) 0.59265(18) 0.3254(3)
C2 C -0.0989(4) 0.67071(19) 0.5026(4)
H1 H 0.4382 0.5178 0.2485
H2 H 0.2423 0.5705 0.0231
H3 H -0.229(4) 0.709(2) 0.531(4)
loop_
_geom_bond_atom_site_label_1
_geom_bond_atom_site_label_2
_geom_bond_site_symmetry_1
_geom_bond_site_symmetry_2
S1 C1 1_555 1_555
N1 C1 1_555 1_555
N2 N3 1_555 1_555
N3 C2 1_555 1_555
C1 N2 1_555 1_555
C2 S1 1_555 1_555
H1 N1 1_555 1_555
H2 N1 1_555 1_555
H3 C2 1_555 1_555

#END
