
#######################################################################
#
#                 Cambridge Crystallographic Data Centre
#                                CCDC 
#
#######################################################################
#
# If this CIF has been generated from an entry in the Cambridge 
# Structural Database, then it will include bibliographic, chemical, 
# crystal, experimental, refinement or atomic coordinate data resulting 
# from the CCDC's data processing and validation procedures.
#
#######################################################################

data_NIYJEL
_chemical_formula_moiety         'C29 H40 N3 O1 P1'
_chemical_name_systematic        
(Z)-N,N'-Dicyclohexyl-N-(diphenylphosphino)morpholine-4-carboxamidine
_symmetry_cell_setting           monoclinic
_symmetry_space_group_name_H-M   'P 21/c'
_symmetry_Int_Tables_number      14
_space_group_name_Hall           '-P 2ybc'
loop_
_symmetry_equiv_pos_site_id
_symmetry_equiv_pos_as_xyz
1 x,y,z
2 -x,1/2+y,1/2-z
3 -x,-y,-z
4 x,1/2-y,1/2+z
_cell_length_a                   10.1116(5)
_cell_length_b                   9.8929(4)
_cell_length_c                   26.4573(12)
_cell_angle_alpha                90
_cell_angle_beta                 90.047(1)
_cell_angle_gamma                90
_cell_volume                     2646.6
_exptl_crystal_colour            colorless
_exptl_crystal_description       block
_chemical_melting_point          '432.7 K'
_cell_formula_units_Z            4
_chemical_properties_physical    'slightly air-sensitive'
_exptl_crystal_recrystallization_method toluene
loop_
_atom_site_label
_atom_site_type_symbol
_atom_site_fract_x
_atom_site_fract_y
_atom_site_fract_z
P1 P 0.05188(3) 0.82522(3) 0.356230(11)
O1 O 0.24117(9) 0.88225(10) 0.57253(3)
N1 N 0.35062(10) 0.92068(10) 0.39497(4)
N2 N 0.17818(9) 0.75188(10) 0.38873(4)
N3 N 0.26380(10) 0.82555(10) 0.46742(4)
C1 C 0.26813(11) 0.83967(12) 0.41452(4)
C2 C 0.36949(12) 0.92570(13) 0.34024(5)
H1 H 0.3193 0.8497 0.3243
C3 C 0.31653(14) 1.05907(14) 0.31986(5)
H2 H 0.3637 1.1351 0.3362
H3 H 0.2213 1.0672 0.3280
C4 C 0.33531(15) 1.06651(16) 0.26283(5)
H4 H 0.2824 0.9947 0.2464
H5 H 0.3031 1.1549 0.2503
C5 C 0.47952(15) 1.04954(15) 0.24875(5)
H6 H 0.5307 1.1275 0.2618
H7 H 0.4881 1.0484 0.2115
C6 C 0.53636(15) 0.91932(14) 0.27036(5)
H8 H 0.6322 0.9150 0.2629
H9 H 0.4934 0.8410 0.2538
C7 C 0.51537(13) 0.91075(14) 0.32730(5)
H10 H 0.5481 0.8226 0.3399
H11 H 0.5665 0.9831 0.3442
C8 C 0.20029(11) 0.60380(12) 0.39303(4)
H12 H 0.1538 0.5613 0.3637
C9 C 0.34654(12) 0.56961(12) 0.38729(5)
H13 H 0.3817 0.6135 0.3565
H14 H 0.3961 0.6052 0.4167
C10 C 0.36668(13) 0.41720(13) 0.38367(5)
H15 H 0.4623 0.3971 0.3810
H16 H 0.3227 0.3826 0.3528
C11 C 0.30998(14) 0.34597(14) 0.42995(5)
H17 H 0.3177 0.2469 0.4255
H18 H 0.3616 0.3718 0.4603
C12 C 0.16521(13) 0.38353(13) 0.43777(5)
H19 H 0.1330 0.3415 0.4694
H20 H 0.1120 0.3469 0.4095
C13 C 0.14524(12) 0.53613(12) 0.44072(5)
H21 H 0.1911 0.5722 0.4709
H22 H 0.0498 0.5567 0.4440
C14 C 0.36764(12) 0.89695(13) 0.49478(5)
H23 H 0.3533 0.9957 0.4922
H24 H 0.4548 0.8756 0.4798
C15 C 0.36584(13) 0.85473(15) 0.54959(5)
H25 H 0.3848 0.7568 0.5520
H26 H 0.4362 0.9037 0.5681
C16 C 0.13886(13) 0.81325(15) 0.54603(5)
H27 H 0.0526 0.8353 0.5617
H28 H 0.1528 0.7145 0.5492
C17 C 0.13504(12) 0.85108(13) 0.49074(4)
H29 H 0.0662 0.7973 0.4733
H30 H 0.1121 0.9479 0.4872
C18 C -0.09167(12) 0.72441(13) 0.37569(4)
C19 C -0.17216(12) 0.78035(14) 0.41299(5)
H31 H -0.1553 0.8693 0.4249
C20 C -0.27662(13) 0.70679(16) 0.43277(5)
H32 H -0.3305 0.7454 0.4584
C21 C -0.30287(13) 0.57828(15) 0.41564(5)
H33 H -0.3729 0.5274 0.4301
C22 C -0.22699(13) 0.52336(15) 0.37729(5)
H34 H -0.2462 0.4354 0.3649
C23 C -0.12303(12) 0.59674(13) 0.35706(5)
H35 H -0.0726 0.5595 0.3302
C24 C 0.06471(12) 0.76947(13) 0.29035(4)
C25 C 0.16429(13) 0.69239(13) 0.26874(5)
H36 H 0.2334 0.6578 0.2894
C26 C 0.16397(14) 0.66525(14) 0.21717(5)
H37 H 0.2331 0.6129 0.2028
C27 C 0.06402(15) 0.71382(16) 0.18682(5)
H38 H 0.0637 0.6946 0.1516
C28 C -0.03531(15) 0.79043(17) 0.20781(5)
H39 H -0.1046 0.8239 0.1870
C29 C -0.03505(14) 0.81900(14) 0.25891(5)
H40 H -0.1036 0.8730 0.2728
loop_
_geom_bond_atom_site_label_1
_geom_bond_atom_site_label_2
_geom_bond_site_symmetry_1
_geom_bond_site_symmetry_2
P1 N2 1_555 1_555
O1 C15 1_555 1_555
N1 C1 1_555 1_555
N2 C1 1_555 1_555
N3 C1 1_555 1_555
C2 N1 1_555 1_555
H1 C2 1_555 1_555
C3 C2 1_555 1_555
H2 C3 1_555 1_555
H3 C3 1_555 1_555
C4 C3 1_555 1_555
H4 C4 1_555 1_555
H5 C4 1_555 1_555
C5 C4 1_555 1_555
H6 C5 1_555 1_555
H7 C5 1_555 1_555
C6 C5 1_555 1_555
H8 C6 1_555 1_555
H9 C6 1_555 1_555
C7 C2 1_555 1_555
H10 C7 1_555 1_555
H11 C7 1_555 1_555
C8 N2 1_555 1_555
H12 C8 1_555 1_555
C9 C8 1_555 1_555
H13 C9 1_555 1_555
H14 C9 1_555 1_555
C10 C9 1_555 1_555
H15 C10 1_555 1_555
H16 C10 1_555 1_555
C11 C10 1_555 1_555
H17 C11 1_555 1_555
H18 C11 1_555 1_555
C12 C11 1_555 1_555
H19 C12 1_555 1_555
H20 C12 1_555 1_555
C13 C8 1_555 1_555
H21 C13 1_555 1_555
H22 C13 1_555 1_555
C14 N3 1_555 1_555
H23 C14 1_555 1_555
H24 C14 1_555 1_555
C15 C14 1_555 1_555
H25 C15 1_555 1_555
H26 C15 1_555 1_555
C16 O1 1_555 1_555
H27 C16 1_555 1_555
H28 C16 1_555 1_555
C17 N3 1_555 1_555
H29 C17 1_555 1_555
H30 C17 1_555 1_555
C18 P1 1_555 1_555
C19 C18 1_555 1_555
H31 C19 1_555 1_555
C20 C19 1_555 1_555
H32 C20 1_555 1_555
C21 C20 1_555 1_555
H33 C21 1_555 1_555
C22 C21 1_555 1_555
H34 C22 1_555 1_555
C23 C18 1_555 1_555
H35 C23 1_555 1_555
C24 P1 1_555 1_555
C25 C24 1_555 1_555
H36 C25 1_555 1_555
C26 C25 1_555 1_555
H37 C26 1_555 1_555
C27 C26 1_555 1_555
H38 C27 1_555 1_555
C28 C27 1_555 1_555
H39 C28 1_555 1_555
C29 C24 1_555 1_555
H40 C29 1_555 1_555
C6 C7 1_555 1_555
C12 C13 1_555 1_555
C16 C17 1_555 1_555
C22 C23 1_555 1_555
C28 C29 1_555 1_555

#END
