
#######################################################################
#
#                 Cambridge Crystallographic Data Centre
#                                CCDC 
#
#######################################################################
#
# If this CIF has been generated from an entry in the Cambridge 
# Structural Database, then it will include bibliographic, chemical, 
# crystal, experimental, refinement or atomic coordinate data resulting 
# from the CCDC's data processing and validation procedures.
#
#######################################################################

data_NIYJOV
_chemical_formula_moiety         'C26 H35 N2 P1'
_chemical_name_systematic        
(E)-N,N'-Dicyclohexyl-N-(diphenylphosphino)acetamidine
_symmetry_cell_setting           orthorhombic
_symmetry_space_group_name_H-M   'P b c a'
_symmetry_Int_Tables_number      61
_space_group_name_Hall           '-P 2ac 2ab'
loop_
_symmetry_equiv_pos_site_id
_symmetry_equiv_pos_as_xyz
1 x,y,z
2 1/2-x,-y,1/2+z
3 -x,1/2+y,1/2-z
4 1/2+x,1/2-y,-z
5 -x,-y,-z
6 1/2+x,y,1/2-z
7 x,1/2-y,1/2+z
8 1/2-x,1/2+y,z
_cell_length_a                   19.450(2)
_cell_length_b                   10.630(1)
_cell_length_c                   22.218(2)
_cell_angle_alpha                90
_cell_angle_beta                 90
_cell_angle_gamma                90
_cell_volume                     4593.65
_exptl_crystal_colour            colorless
_exptl_crystal_description       plate
_cell_formula_units_Z            8
_chemical_properties_physical    'slightly air-sensitive'
_exptl_crystal_recrystallization_method pentane
loop_
_atom_site_label
_atom_site_type_symbol
_atom_site_fract_x
_atom_site_fract_y
_atom_site_fract_z
P1 P 0.61977(4) 0.50070(8) 0.09985(4)
N1 N 0.66620(12) 0.4995(2) 0.27053(11)
N2 N 0.61442(12) 0.4907(2) 0.17703(11)
C1 C 0.65712(14) 0.5512(3) 0.21964(13)
C2 C 0.70937(15) 0.5610(3) 0.31573(14)
H1 H 0.7088 0.6538 0.3083
C3 C 0.78350(15) 0.5139(3) 0.31059(15)
H2 H 0.7843 0.4214 0.3156
H3 H 0.8015 0.5339 0.2700
C4 C 0.82973(16) 0.5744(4) 0.35810(15)
H4 H 0.8329 0.6661 0.3506
H5 H 0.8766 0.5387 0.3551
C5 C 0.80145(17) 0.5518(3) 0.42140(15)
H6 H 0.8034 0.4608 0.4307
H7 H 0.8304 0.5966 0.4511
C6 C 0.72731(16) 0.5976(3) 0.42676(14)
H8 H 0.7260 0.6902 0.4220
H9 H 0.7093 0.5768 0.4672
C7 C 0.68198(16) 0.5361(3) 0.37865(14)
H10 H 0.6801 0.4443 0.3858
H11 H 0.6346 0.5696 0.3819
C8 C 0.57329(14) 0.3815(3) 0.19985(14)
H12 H 0.5654 0.3958 0.2438
C9 C 0.61170(14) 0.2568(3) 0.19367(14)
H13 H 0.6554 0.2611 0.2164
H14 H 0.6229 0.2419 0.1508
C10 C 0.56818(15) 0.1477(3) 0.21745(15)
H15 H 0.5621 0.1573 0.2614
H16 H 0.5926 0.0674 0.2101
C11 C 0.49754(15) 0.1433(3) 0.18717(16)
H17 H 0.5033 0.1248 0.1438
H18 H 0.4698 0.0750 0.2052
C12 C 0.46000(15) 0.2682(3) 0.19461(16)
H19 H 0.4505 0.2830 0.2378
H20 H 0.4154 0.2646 0.1732
C13 C 0.50280(14) 0.3769(3) 0.16970(15)
H21 H 0.5087 0.3662 0.1257
H22 H 0.4784 0.4573 0.1767
C14 C 0.68605(15) 0.6783(3) 0.20099(14)
H23 H 0.6764 0.7405 0.2325
H24 H 0.6645 0.7050 0.1632
H25 H 0.7359 0.6712 0.1953
C15 C 0.57207(15) 0.6450(3) 0.08163(14)
C16 C 0.53306(15) 0.7079(3) 0.12473(14)
H26 H 0.5354 0.6817 0.1656
C17 C 0.49088(16) 0.8080(3) 0.10932(15)
H27 H 0.4645 0.8495 0.1393
C18 C 0.48740(18) 0.8471(3) 0.05023(16)
H28 H 0.4593 0.9168 0.0396
C19 C 0.52470(19) 0.7850(4) 0.00657(16)
H29 H 0.5221 0.8118 -0.0342
C20 C 0.56609(18) 0.6837(3) 0.02190(15)
H30 H 0.5906 0.6400 -0.0086
C21 C 0.71031(15) 0.5377(3) 0.08624(13)
C22 C 0.75845(15) 0.4515(3) 0.10797(14)
H31 H 0.7432 0.3812 0.1307
C23 C 0.82813(16) 0.4667(3) 0.09703(15)
H32 H 0.8601 0.4076 0.1127
C24 C 0.85146(16) 0.5677(3) 0.06324(15)
H33 H 0.8992 0.5782 0.0557
C25 C 0.80435(17) 0.6532(3) 0.04074(15)
H34 H 0.8199 0.7223 0.0173
C26 C 0.73460(16) 0.6387(3) 0.05200(14)
H35 H 0.7029 0.6982 0.0363
loop_
_geom_bond_atom_site_label_1
_geom_bond_atom_site_label_2
_geom_bond_site_symmetry_1
_geom_bond_site_symmetry_2
P1 N2 1_555 1_555
N1 C1 1_555 1_555
N2 C1 1_555 1_555
C1 C14 1_555 1_555
C2 N1 1_555 1_555
H1 C2 1_555 1_555
C3 C2 1_555 1_555
H2 C3 1_555 1_555
H3 C3 1_555 1_555
C4 C3 1_555 1_555
H4 C4 1_555 1_555
H5 C4 1_555 1_555
C5 C4 1_555 1_555
H6 C5 1_555 1_555
H7 C5 1_555 1_555
C6 C5 1_555 1_555
H8 C6 1_555 1_555
H9 C6 1_555 1_555
C7 C2 1_555 1_555
H10 C7 1_555 1_555
H11 C7 1_555 1_555
C8 N2 1_555 1_555
H12 C8 1_555 1_555
C9 C8 1_555 1_555
H13 C9 1_555 1_555
H14 C9 1_555 1_555
C10 C9 1_555 1_555
H15 C10 1_555 1_555
H16 C10 1_555 1_555
C11 C10 1_555 1_555
H17 C11 1_555 1_555
H18 C11 1_555 1_555
C12 C11 1_555 1_555
H19 C12 1_555 1_555
H20 C12 1_555 1_555
C13 C8 1_555 1_555
H21 C13 1_555 1_555
H22 C13 1_555 1_555
C14 H23 1_555 1_555
H24 C14 1_555 1_555
H25 C14 1_555 1_555
C15 P1 1_555 1_555
C16 C15 1_555 1_555
H26 C16 1_555 1_555
C17 C16 1_555 1_555
H27 C17 1_555 1_555
C18 C17 1_555 1_555
H28 C18 1_555 1_555
C19 C18 1_555 1_555
H29 C19 1_555 1_555
C20 C15 1_555 1_555
H30 C20 1_555 1_555
C21 P1 1_555 1_555
C22 C21 1_555 1_555
H31 C22 1_555 1_555
C23 C22 1_555 1_555
H32 C23 1_555 1_555
C24 C23 1_555 1_555
H33 C24 1_555 1_555
C25 C24 1_555 1_555
H34 C25 1_555 1_555
C26 C21 1_555 1_555
H35 C26 1_555 1_555
C6 C7 1_555 1_555
C12 C13 1_555 1_555
C19 C20 1_555 1_555
C25 C26 1_555 1_555

#END
