
#######################################################################
#
#                 Cambridge Crystallographic Data Centre
#                                CCDC 
#
#######################################################################
#
# If this CIF has been generated from an entry in the Cambridge 
# Structural Database, then it will include bibliographic, chemical, 
# crystal, experimental, refinement or atomic coordinate data resulting 
# from the CCDC's data processing and validation procedures.
#
#######################################################################

data_NIYQET
_chemical_formula_moiety         'C24 H19 F7 N2 O1'
_chemical_name_systematic        
4-(3-(4-fluorophenyl)hexahydro[1,3]oxazolo[3,4-a]pyridin-1-yl)-2,8-bis(trifluoromethyl)quinoline
_symmetry_cell_setting           triclinic
_symmetry_space_group_name_H-M   'P -1'
_symmetry_Int_Tables_number      2
_space_group_name_Hall           '-P 1'
loop_
_symmetry_equiv_pos_site_id
_symmetry_equiv_pos_as_xyz
1 x,y,z
2 -x,-y,-z
_cell_length_a                   9.9344(3)
_cell_length_b                   9.9568(3)
_cell_length_c                   12.3192(5)
_cell_angle_alpha                93.535(2)
_cell_angle_beta                 92.062(2)
_cell_angle_gamma                117.749(2)
_cell_volume                     1073.47
_exptl_crystal_colour            colorless
_exptl_crystal_description       BLOCK
_cell_formula_units_Z            2
loop_
_atom_site_label
_atom_site_type_symbol
_atom_site_fract_x
_atom_site_fract_y
_atom_site_fract_z
F1 F 0.72504(13) 0.74017(13) 0.15150(11)
F2 F 0.15432(14) -0.15916(14) 0.78101(9)
F3 F 0.24182(15) -0.29262(15) 0.69573(11)
O1 O 0.14135(14) 0.15768(13) 0.24656(11)
F4 F 0.02250(16) -0.40204(15) 0.76050(11)
N1 N 0.26112(17) -0.03447(18) 0.58238(13)
N2 N 0.23714(16) 0.03843(16) 0.13671(12)
C1 C 0.2751(2) 0.0961(2) 0.42103(16)
H1 H 0.3338 0.1821 0.3826
C2 C 0.09565(19) -0.08337(19) 0.17090(15)
H2 H 0.0127 -0.1083 0.1127
C3 C -0.0970(2) -0.2584(2) 0.40584(16)
H3 H -0.1457 -0.2549 0.3391
C4 C 0.0513(2) -0.1395(2) 0.44053(15)
C5 C 0.06815(19) 0.00091(19) 0.27017(15)
H4 H -0.0438 -0.0354 0.2736
C6 C 0.0412(2) -0.2715(2) 0.60367(16)
C7 C 0.4927(2) 0.3388(2) 0.18000(15)
H5 H 0.5036 0.2545 0.2022
C8 C 0.1204(2) -0.1456(2) 0.54126(15)
C9 C 0.4606(2) 0.5870(2) 0.11740(17)
H6 H 0.4506 0.6727 0.0973
F5 F 0.58826(16) 0.2449(2) 0.49858(14)
C10 C 0.6199(2) 0.4807(2) 0.18137(16)
H7 H 0.7185 0.4945 0.2033
C11 C 0.20929(19) 0.1685(2) 0.14463(14)
H8 H 0.1348 0.1581 0.0837
C12 C -0.1003(2) -0.3852(2) 0.56667(17)
H9 H -0.1518 -0.4697 0.6082
F6 F 0.47978(17) 0.3266(2) 0.60421(18)
C13 C 0.1342(2) -0.0129(2) 0.37842(15)
C14 C 0.3348(2) 0.4445(2) 0.11454(16)
H10 H 0.2372 0.4316 0.0906
C15 C -0.1697(2) -0.3773(2) 0.46746(16)
H11 H -0.2687 -0.4560 0.4431
C16 C 0.1127(2) -0.2249(2) 0.18370(16)
H12 H 0.0157 -0.3079 0.2046
H13 H 0.1933 -0.2037 0.2418
C17 C 0.2727(2) -0.0017(2) 0.02935(15)
H14 H 0.3664 0.0842 0.0070
H15 H 0.1880 -0.0235 -0.0254
C18 C 0.5999(2) 0.6005(2) 0.15022(16)
C19 C 0.3492(2) 0.3197(2) 0.14614(14)
C20 C 0.2958(2) -0.1418(2) 0.03580(17)
H16 H 0.3855 -0.1167 0.0865
H17 H 0.3159 -0.1730 -0.0371
C21 C 0.1549(2) -0.2732(2) 0.07544(17)
H18 H 0.1753 -0.3603 0.0847
H19 H 0.0683 -0.3068 0.0201
C22 C 0.3314(2) 0.0785(2) 0.52251(16)
F7 F 0.5458(5) 0.1582(6) 0.6488(6)
C23 C 0.4845(2) 0.2015(2) 0.57096(18)
C24 C 0.1147(2) -0.2800(2) 0.70965(17)
F8? F 0.506(2) 0.1947(17) 0.6695(16)
loop_
_geom_bond_atom_site_label_1
_geom_bond_atom_site_label_2
_geom_bond_site_symmetry_1
_geom_bond_site_symmetry_2
F1 C18 1_555 1_555
F2 C24 1_555 1_555
F3 C24 1_555 1_555
O1 C5 1_555 1_555
F4 C24 1_555 1_555
N1 C8 1_555 1_555
N2 C2 1_555 1_555
C1 H1 1_555 1_555
C2 H2 1_555 1_555
C3 H3 1_555 1_555
C4 C3 1_555 1_555
C5 C2 1_555 1_555
H4 C5 1_555 1_555
C6 C8 1_555 1_555
C7 H5 1_555 1_555
C8 C4 1_555 1_555
C9 H6 1_555 1_555
F5 C23 1_555 1_555
C10 C7 1_555 1_555
H7 C10 1_555 1_555
C11 O1 1_555 1_555
H8 C11 1_555 1_555
C12 C6 1_555 1_555
H9 C12 1_555 1_555
F6 C23 1_555 1_555
C13 C1 1_555 1_555
C14 C9 1_555 1_555
H10 C14 1_555 1_555
C15 C3 1_555 1_555
H11 C15 1_555 1_555
C16 C2 1_555 1_555
H12 C16 1_555 1_555
H13 C16 1_555 1_555
C17 N2 1_555 1_555
H14 C17 1_555 1_555
H15 C17 1_555 1_555
C18 C9 1_555 1_555
C19 C7 1_555 1_555
C20 C17 1_555 1_555
H16 C20 1_555 1_555
H17 C20 1_555 1_555
C21 C16 1_555 1_555
H18 C21 1_555 1_555
H19 C21 1_555 1_555
C22 N1 1_555 1_555
F7 C23 1_555 1_555
C23 C22 1_555 1_555
C24 C6 1_555 1_555
N2 C11 1_555 1_555
C1 C22 1_555 1_555
C4 C13 1_555 1_555
C5 C13 1_555 1_555
C10 C18 1_555 1_555
C11 C19 1_555 1_555
C12 C15 1_555 1_555
C14 C19 1_555 1_555
C20 C21 1_555 1_555

#END
