
#######################################################################
#
#                 Cambridge Crystallographic Data Centre
#                                CCDC 
#
#######################################################################
#
# If this CIF has been generated from an entry in the Cambridge 
# Structural Database, then it will include bibliographic, chemical, 
# crystal, experimental, refinement or atomic coordinate data resulting 
# from the CCDC's data processing and validation procedures.
#
#######################################################################

data_NIYTEV
_chemical_formula_moiety         'C13 H13 N5,0.5(H2 O1)'
_chemical_name_systematic        
'2,6-bis(3-Methyl-1H-pyrazol-5-yl)pyridine hemihydrate'
_symmetry_cell_setting           orthorhombic
_symmetry_space_group_name_H-M   'P b a n'
_symmetry_Int_Tables_number      50
_space_group_name_Hall           '-P 2ab 2b'
loop_
_symmetry_equiv_pos_site_id
_symmetry_equiv_pos_as_xyz
1 x,y,z
2 1/2-x,1/2-y,z
3 x,1/2-y,-z
4 1/2-x,y,-z
5 -x,-y,-z
6 1/2+x,1/2+y,-z
7 -x,1/2+y,z
8 1/2+x,-y,z
_cell_length_a                   8.226(2)
_cell_length_b                   24.045(6)
_cell_length_c                   6.477(2)
_cell_angle_alpha                90
_cell_angle_beta                 90
_cell_angle_gamma                90
_cell_volume                     1281.11
_exptl_crystal_colour            colorless
_exptl_crystal_description       prism
_cell_formula_units_Z            4
_exptl_crystal_preparation       photoluminescent
loop_
_atom_site_label
_atom_site_type_symbol
_atom_site_fract_x
_atom_site_fract_y
_atom_site_fract_z
N1 N 0.7500 0.11147(15) 0.5000
N2 N 0.5967(3) 0.17179(12) 0.7985(4)
H1 H 0.6413 0.1910 0.7019
N3 N 0.5189(3) 0.19312(15) 0.9637(5)
C1 C 0.6737(4) 0.08333(15) 0.6495(7)
C2 C 0.5942(4) 0.11679(17) 0.8072(6)
C3 C 0.5097(5) 0.1021(3) 0.9836(9)
H2 H 0.4873 0.0663 1.0292
C4 C 0.4652(5) 0.1512(3) 1.0787(7)
C5 C 0.3781(6) 0.1608(3) 1.2748(7)
H3 H 0.3231 0.1960 1.2692
H4 H 0.4545 0.1610 1.3868
H5 H 0.3001 0.1316 1.2959
C6 C 0.6716(7) 0.02566(18) 0.6518(12)
H6 H 0.6172 0.0066 0.7559
C7 C 0.7500 -0.0026(3) 0.5000
H7 H 0.7500 -0.0413 0.5000
N2C N 0.9033(3) 0.17179(12) 0.2015(4)
H1C H 0.8587 0.1910 0.2981
N3C N 0.9811(3) 0.19312(15) 0.0363(5)
C1C C 0.8263(4) 0.08333(15) 0.3505(7)
C2C C 0.9058(4) 0.11679(17) 0.1928(6)
C3C C 0.9903(5) 0.1021(3) 0.0164(9)
H2C H 1.0127 0.0663 -0.0292
C4C C 1.0348(5) 0.1512(3) -0.0787(7)
C5C C 1.1219(6) 0.1608(3) -0.2748(7)
H3C H 1.1769 0.1960 -0.2692
H4C H 1.0455 0.1610 -0.3868
H5C H 1.1999 0.1316 -0.2959
C6C C 0.8284(7) 0.02566(18) 0.3482(12)
H6C H 0.8828 0.0066 0.2441
O1 O 0.7500 0.2500 0.5000
loop_
_geom_bond_atom_site_label_1
_geom_bond_atom_site_label_2
_geom_bond_site_symmetry_1
_geom_bond_site_symmetry_2
N1 C1 1_555 1_555
N2 H1 1_555 1_555
N3 N2 1_555 1_555
C1 C2 1_555 1_555
C2 N2 1_555 1_555
C3 C2 1_555 1_555
H2 C3 1_555 1_555
C4 N3 1_555 1_555
C5 C4 1_555 1_555
H3 C5 1_555 1_555
H4 C5 1_555 1_555
H5 C5 1_555 1_555
C6 C1 1_555 1_555
H6 C6 1_555 1_555
C7 C6 1_555 1_555
H7 C7 1_555 1_555
N2C H1C 1_555 1_555
N3C N2C 1_555 1_555
C1C N1 1_555 1_555
C2C N2C 1_555 1_555
C3C C2C 1_555 1_555
H2C C3C 1_555 1_555
C4C N3C 1_555 1_555
C5C C4C 1_555 1_555
H3C C5C 1_555 1_555
H4C C5C 1_555 1_555
H5C C5C 1_555 1_555
C6C C7 1_555 1_555
H6C C6C 1_555 1_555
C3 C4 1_555 1_555
C1C C2C 1_555 1_555
C1C C6C 1_555 1_555
C3C C4C 1_555 1_555

#END
