
#######################################################################
#
#                 Cambridge Crystallographic Data Centre
#                                CCDC 
#
#######################################################################
#
# If this CIF has been generated from an entry in the Cambridge 
# Structural Database, then it will include bibliographic, chemical, 
# crystal, experimental, refinement or atomic coordinate data resulting 
# from the CCDC's data processing and validation procedures.
#
#######################################################################

data_NIYXOI
_chemical_formula_moiety         'C38 H69 N7 O10'
_chemical_name_systematic        
't-Butoxycarbonyl-leucyl-\a-aminoisobutyryl-valyl-glycyl-leucyl-\a-aminoisobutyryl-valine methyl ester'
_symmetry_cell_setting           monoclinic
_symmetry_space_group_name_H-M   'P 21'
_symmetry_Int_Tables_number      4
_space_group_name_Hall           'P 2yb'
loop_
_symmetry_equiv_pos_site_id
_symmetry_equiv_pos_as_xyz
1 x,y,z
2 -x,1/2+y,-z
_cell_length_a                   9.958(3)
_cell_length_b                   20.447(3)
_cell_length_c                   11.723(2)
_cell_angle_alpha                90
_cell_angle_beta                 99.74(2)
_cell_angle_gamma                90
_cell_volume                     2352.53
_exptl_crystal_description       rectangular
_cell_formula_units_Z            2
loop_
_atom_site_label
_atom_site_type_symbol
_atom_site_fract_x
_atom_site_fract_y
_atom_site_fract_z
C1 C 0.1906(22) 0.7115(12) 0.2695(21)
C2 C 0.2622(36) 0.6914(12) 0.0663(30)
C3 C 0.0229(21) 0.7064(12) 0.0809(21)
C4 C 0.1685(16) 0.7220(9) 0.1421(19)
O1 O 0.1763(8) 0.7908(5) 0.1183(7)
C5 C 0.2917(10) 0.8249(6) 0.1463(7)
O2 O 0.4015(7) 0.8014(4) 0.1935(5)
N1 N 0.2698(7) 0.8869(5) 0.1194(5)
C6 C 0.3761(9) 0.9343(5) 0.1331(6)
C7 C 0.2940(16) 1.0010(6) 0.1178(13)
C8 C 0.3687(18) 1.0668(7) 0.1466(19)
C9 C 0.4707(35) 1.0849(14) 0.0645(35)
C10 C 0.2731(28) 1.1245(8) 0.1690(32)
C11 C 0.4654(7) 0.9334(4) 0.2528(6)
O3 O 0.5866(5) 0.9442(4) 0.2642(4)
N2 N 0.3985(5) 0.9216 0.3383(4)
C12 C 0.4668(6) 0.9233(6) 0.4605(5)
C13 C 0.3698(8) 0.8906(9) 0.5308(8)
C14 C 0.4913(11) 0.9947(8) 0.4958(10)
C15 C 0.5985(7) 0.8842(7) 0.4756(6)
O4 O 0.7008(5) 0.9035(5) 0.5444(4)
N3 N 0.5977(6) 0.8287(5) 0.4229(7)
C16 C 0.7156(9) 0.7854(6) 0.4404(8)
C17 C 0.6752(13) 0.7183(6) 0.3770(15)
C18 C 0.5789(30) 0.6886(13) 0.4553(28)
C19 C 0.7976(23) 0.6730(13) 0.3742(44)
C20 C 0.8393(9) 0.8139(6) 0.4007(7)
O5 O 0.9557(6) 0.8036(5) 0.4527(5)
N4 N 0.8178(6) 0.8527(5) 0.3063(5)
C21 C 0.9316(8) 0.8838(6) 0.2691(6)
C22 C 0.9972(7) 0.9389(6) 0.3508(6)
O6 O 1.1135(5) 0.9548(5) 0.3433(5)
N5 N 0.9215(6) 0.9624(4) 0.4207(4)
C23 C 0.9692(9) 1.0160(6) 0.5029(7)
C24 C 0.8680(11) 1.0716(6) 0.4927(9)
C25 C 0.8258(14) 1.1016(7) 0.3718(12)
C26 C 0.7269(26) 1.1550(11) 0.3794(21)
C27 C 0.9488(18) 1.1210(12) 0.3205(16)
C28 C 1.0055(9) 0.9915(8) 0.6280(8)
O7 O 1.0193(10) 1.0290(6) 0.7093(6)
N6 N 1.0224(6) 0.9269(6) 0.6414(5)
C29 C 1.0810(9) 0.8963(8) 0.7549(7)
C30 C 1.2218(9) 0.9263(11) 0.7967(8)
C31 C 1.0806(17) 0.8218(9) 0.7313(10)
C32 C 0.9879(8) 0.9047(6) 0.8424(6)
O8 O 1.0363(6) 0.9077(6) 0.9454(4)
N7 N 0.8531(6) 0.9044(5) 0.8071(5)
C33 C 0.7612(10) 0.8997(7) 0.8911(9)
C34 C 0.7069(14) 0.9584(8) 0.9299(10)
C35 C 0.8030(19) 1.0070(9) 0.9869(14)
C36 C 0.6121(18) 0.9905(9) 0.8238(13)
C37 C 0.6663(12) 0.8459(8) 0.8611(12)
O9 O 0.6477(12) 0.8191(7) 0.7681(10)
O10 O 0.5937(14) 0.8277(7) 0.9380(12)
C38 C 0.4897(21) 0.7769(11) 0.9070(24)
H1 H 0.2848 0.7188 0.3010
H2 H 0.1663 0.6674 0.2855
H3 H 0.1351 0.7414 0.3040
H4 H 0.2339 0.7049 -0.0125
H5 H 0.2574 0.6446 0.0711
H6 H 0.3542 0.7055 0.0928
H7 H 0.0163 0.7136 -0.0008
H8 H -0.0406 0.7343 0.1106
H9 H 0.0021 0.6615 0.0946
H10 H 0.1880 0.8993 0.0926
H11 H 0.4321 0.9294 0.0724
H12 H 0.2487 1.0033 0.0379
H13 H 0.2231 0.9982 0.1651
H14 H 0.4265 1.0593 0.2218
H15 H 0.5118 1.1265 0.0870
H16 H 0.4230 1.0875 -0.0137
H17 H 0.5403 1.0520 0.0696
H18 H 0.3260 1.1636 0.1856
H19 H 0.2295 1.1140 0.2338
H20 H 0.2051 1.1312 0.1016
H21 H 0.3130 0.9126 0.3227
H22 H 0.3555 0.8459 0.5066
H23 H 0.2842 0.9134 0.5184
H24 H 0.4085 0.8920 0.6115
H25 H 0.4058 1.0176 0.4852
H26 H 0.5501 1.0145 0.4488
H27 H 0.5332 0.9969 0.5757
H28 H 0.5256 0.8170 0.3762
H29 H 0.7393 0.7766 0.5235
H30 H 0.6256 0.7259 0.2986
H31 H 0.5045 0.7181 0.4583
H32 H 0.6288 0.6821 0.5319
H33 H 0.5441 0.6475 0.4238
H34 H 0.8563 0.6919 0.3260
H35 H 0.7659 0.6312 0.3435
H36 H 0.8472 0.6675 0.4512
H37 H 0.7367 0.8588 0.2690
H38 H 0.9021 0.9020 0.1926
H39 H 1.0003 0.8509 0.2628
H40 H 0.8413 0.9465 0.4194
H41 H 1.0531 1.0334 0.4812
H42 H 0.9063 1.1060 0.5452
H43 H 0.7865 1.0560 0.5190
H44 H 0.7778 1.0676 0.3220
H45 H 0.6524 1.1384 0.4133
H46 H 0.6930 1.1714 0.3033
H47 H 0.7711 1.1897 0.4267
H48 H 1.0072 1.0837 0.3192
H49 H 0.9975 1.1550 0.3665
H50 H 0.9200 1.1365 0.2429
H51 H 0.9987 0.9019 0.5824
H52 H 1.2783 0.9198 0.7389
H53 H 1.2630 0.9055 0.8674
H54 H 1.2124 0.9722 0.8099
H55 H 1.1381 0.8125 0.6754
H56 H 0.9893 0.8077 0.7020
H57 H 1.1141 0.7991 0.8020
H58 H 0.8205 0.9070 0.7344
H59 H 0.8206 0.8837 0.9607
H60 H 0.6484 0.9458 0.9856
H61 H 0.7537 1.0439 1.0095
H62 H 0.8614 1.0212 0.9345
H63 H 0.8571 0.9880 1.0543
H64 H 0.5739 1.0302 0.8481
H65 H 0.5400 0.9607 0.7943
H66 H 0.6644 1.0001 0.7642
H67 H 0.4444 0.7688 0.9717
H68 H 0.5323 0.7374 0.8870
H69 H 0.4244 0.7914 0.8421
loop_
_geom_bond_atom_site_label_1
_geom_bond_atom_site_label_2
_geom_bond_site_symmetry_1
_geom_bond_site_symmetry_2
C1 C4 1_555 1_555
C2 C4 1_555 1_555
C3 C4 1_555 1_555
C4 O1 1_555 1_555
O1 C5 1_555 1_555
C5 O2 1_555 1_555
N1 C5 1_555 1_555
C6 N1 1_555 1_555
C7 C6 1_555 1_555
C8 C7 1_555 1_555
C9 C8 1_555 1_555
C10 C8 1_555 1_555
C11 C6 1_555 1_555
O3 C11 1_555 1_555
N2 C11 1_555 1_555
C12 N2 1_555 1_555
C13 C12 1_555 1_555
C14 C12 1_555 1_555
C15 C12 1_555 1_555
O4 C15 1_555 1_555
N3 C15 1_555 1_555
C16 N3 1_555 1_555
C17 C16 1_555 1_555
C18 C17 1_555 1_555
C19 C17 1_555 1_555
C20 C16 1_555 1_555
O5 C20 1_555 1_555
N4 C20 1_555 1_555
C21 N4 1_555 1_555
C22 C21 1_555 1_555
O6 C22 1_555 1_555
N5 C22 1_555 1_555
C23 N5 1_555 1_555
C24 C23 1_555 1_555
C25 C24 1_555 1_555
C26 C25 1_555 1_555
C27 C25 1_555 1_555
C28 C23 1_555 1_555
O7 C28 1_555 1_555
N6 C28 1_555 1_555
C29 N6 1_555 1_555
C30 C29 1_555 1_555
C31 C29 1_555 1_555
C32 C29 1_555 1_555
O8 C32 1_555 1_555
N7 C32 1_555 1_555
C33 N7 1_555 1_555
C34 C33 1_555 1_555
C35 C34 1_555 1_555
C36 C34 1_555 1_555
C37 C33 1_555 1_555
O9 C37 1_555 1_555
O10 C37 1_555 1_555
C38 O10 1_555 1_555
H1 C1 1_555 1_555
H2 C1 1_555 1_555
H3 C1 1_555 1_555
H4 C2 1_555 1_555
H5 C2 1_555 1_555
H6 C2 1_555 1_555
H7 C3 1_555 1_555
H8 C3 1_555 1_555
H9 C3 1_555 1_555
H10 N1 1_555 1_555
H11 C6 1_555 1_555
H12 C7 1_555 1_555
H13 C7 1_555 1_555
H14 C8 1_555 1_555
H15 C9 1_555 1_555
H16 C9 1_555 1_555
H17 C9 1_555 1_555
H18 C10 1_555 1_555
H19 C10 1_555 1_555
H20 C10 1_555 1_555
H21 N2 1_555 1_555
H22 C13 1_555 1_555
H23 C13 1_555 1_555
H24 C13 1_555 1_555
H25 C14 1_555 1_555
H26 C14 1_555 1_555
H27 C14 1_555 1_555
H28 N3 1_555 1_555
H29 C16 1_555 1_555
H30 C17 1_555 1_555
H31 C18 1_555 1_555
H32 C18 1_555 1_555
H33 C18 1_555 1_555
H34 C19 1_555 1_555
H35 C19 1_555 1_555
H36 C19 1_555 1_555
H37 N4 1_555 1_555
H38 C21 1_555 1_555
H39 C21 1_555 1_555
H40 N5 1_555 1_555
H41 C23 1_555 1_555
H42 C24 1_555 1_555
H43 C24 1_555 1_555
H44 C25 1_555 1_555
H45 C26 1_555 1_555
H46 C26 1_555 1_555
H47 C26 1_555 1_555
H48 C27 1_555 1_555
H49 C27 1_555 1_555
H50 C27 1_555 1_555
H51 N6 1_555 1_555
H52 C30 1_555 1_555
H53 C30 1_555 1_555
H54 C30 1_555 1_555
H55 C31 1_555 1_555
H56 C31 1_555 1_555
H57 C31 1_555 1_555
H58 N7 1_555 1_555
H59 C33 1_555 1_555
H60 C34 1_555 1_555
H61 C35 1_555 1_555
H62 C35 1_555 1_555
H63 C35 1_555 1_555
H64 C36 1_555 1_555
H65 C36 1_555 1_555
H66 C36 1_555 1_555
H67 C38 1_555 1_555
H68 C38 1_555 1_555
H69 C38 1_555 1_555

#END
