
#######################################################################
#
#                 Cambridge Crystallographic Data Centre
#                                CCDC 
#
#######################################################################
#
# If this CIF has been generated from an entry in the Cambridge 
# Structural Database, then it will include bibliographic, chemical, 
# crystal, experimental, refinement or atomic coordinate data resulting 
# from the CCDC's data processing and validation procedures.
#
#######################################################################

data_NIZCAA
_chemical_formula_moiety         'C13 H11 N3 O4'
_chemical_name_systematic        2-(2,4-Dinitrobenzyl)-6-methylpyridine
_symmetry_cell_setting           monoclinic
_symmetry_space_group_name_H-M   'P 21/c'
_symmetry_Int_Tables_number      14
_space_group_name_Hall           '-P 2ybc'
loop_
_symmetry_equiv_pos_site_id
_symmetry_equiv_pos_as_xyz
1 x,y,z
2 -x,1/2+y,1/2-z
3 -x,-y,-z
4 x,1/2-y,1/2+z
_cell_length_a                   7.677(2)
_cell_length_b                   19.705(6)
_cell_length_c                   8.487(3)
_cell_angle_alpha                90
_cell_angle_beta                 96.06(2)
_cell_angle_gamma                90
_cell_volume                     1276.7
_exptl_crystal_colour            colorless
_chemical_melting_point          112-113deg.C
_cell_formula_units_Z            4
loop_
_atom_site_label
_atom_site_type_symbol
_atom_site_fract_x
_atom_site_fract_y
_atom_site_fract_z
C1 C 0.1659(3) 0.1469(1) 0.4534(3)
C2 C 0.3250(3) 0.1123(1) 0.4604(3)
C3 C 0.4798(3) 0.1383(1) 0.5310(3)
C4 C 0.4750(3) 0.2004(1) 0.6035(3)
C5 C 0.3231(4) 0.2371(1) 0.6023(3)
C6 C 0.1704(3) 0.2105(1) 0.5250(4)
N1 N 0.3351(3) 0.0433(1) 0.3955(3)
O1 O 0.4651(2) 0.02881(9) 0.3308(2)
O2 O 0.2174(2) 0.0040(1) 0.4153(3)
N2 N 0.6385(3) 0.2277(1) 0.6838(3)
O3 O 0.6273(3) 0.2775(1) 0.7672(3)
O4 O 0.7763(3) 0.2016(1) 0.6626(3)
C7 C -0.0059(3) 0.1211(2) 0.3723(4)
C8 C -0.0094(3) 0.1075(1) 0.1969(3)
N3 N 0.1433(3) 0.1075(1) 0.1349(2)
C9 C 0.1438(3) 0.0938(1) -0.0202(3)
C10 C -0.0084(4) 0.0815(2) -0.1160(4)
C11 C -0.1650(4) 0.0815(2) -0.0515(4)
C12 C -0.1666(4) 0.0948(2) 0.1077(4)
C13 C 0.3198(4) 0.0914(2) -0.0807(4)
H1 H 0.5867 0.1141 0.5297
H2 H 0.3226 0.2799 0.6535
H3 H 0.0656 0.2364 0.5207
H4 H -0.0053 0.0730 -0.2259
H5 H -0.2711 0.0724 -0.1160
H6 H -0.2734 0.0952 0.1547
H7 H 0.4079 0.1012 0.0033
H8 H 0.3390 0.0473 -0.1212
H9 H 0.3242 0.1239 -0.1626
H10 H -0.0931 0.1574 0.3836
H11 H -0.0359 0.0777 0.4192
loop_
_geom_bond_atom_site_label_1
_geom_bond_atom_site_label_2
_geom_bond_site_symmetry_1
_geom_bond_site_symmetry_2
C1 C2 1_555 1_555
C2 C3 1_555 1_555
C3 C4 1_555 1_555
C4 C5 1_555 1_555
C5 C6 1_555 1_555
C6 C1 1_555 1_555
N1 C2 1_555 1_555
O1 N1 1_555 1_555
O2 N1 1_555 1_555
N2 C4 1_555 1_555
O3 N2 1_555 1_555
O4 N2 1_555 1_555
C7 C1 1_555 1_555
C8 C7 1_555 1_555
N3 C8 1_555 1_555
C9 N3 1_555 1_555
C10 C9 1_555 1_555
C11 C10 1_555 1_555
C12 C8 1_555 1_555
C13 C9 1_555 1_555
H1 C3 1_555 1_555
H2 C5 1_555 1_555
H3 C6 1_555 1_555
H4 C10 1_555 1_555
H5 C11 1_555 1_555
H6 C12 1_555 1_555
H7 C13 1_555 1_555
H8 C13 1_555 1_555
H9 C13 1_555 1_555
H10 C7 1_555 1_555
H11 C7 1_555 1_555
C11 C12 1_555 1_555

#END
