
#######################################################################
#
#                 Cambridge Crystallographic Data Centre
#                                CCDC 
#
#######################################################################
#
# If this CIF has been generated from an entry in the Cambridge 
# Structural Database, then it will include bibliographic, chemical, 
# crystal, experimental, refinement or atomic coordinate data resulting 
# from the CCDC's data processing and validation procedures.
#
#######################################################################

data_NIZCEE
_chemical_formula_moiety         'C19 H12 N4 O4'
_chemical_name_systematic        2-(2,4-Dinitrobenzyl)-1,10-phenanthroline
_symmetry_cell_setting           monoclinic
_symmetry_space_group_name_H-M   'C 2/c'
_symmetry_Int_Tables_number      15
_space_group_name_Hall           '-C 2yn'
loop_
_symmetry_equiv_pos_site_id
_symmetry_equiv_pos_as_xyz
1 x,y,z
2 -x,y,1/2-z
3 1/2+x,1/2+y,z
4 1/2-x,1/2+y,1/2-z
5 -x,-y,-z
6 x,-y,1/2+z
7 1/2-x,1/2-y,-z
8 1/2+x,1/2-y,1/2+z
_cell_length_a                   27.494(8)
_cell_length_b                   8.662(2)
_cell_length_c                   15.581(4)
_cell_angle_alpha                90
_cell_angle_beta                 121.81(2)
_cell_angle_gamma                90
_cell_volume                     3153.32
_exptl_crystal_colour            blue
_cell_formula_units_Z            8
loop_
_atom_site_label
_atom_site_type_symbol
_atom_site_fract_x
_atom_site_fract_y
_atom_site_fract_z
O1 O 0.6393(2) 0.6703(7) 0.4354(3)
O2 O 0.6825(3) 0.826(1) 0.4141(5)
O3 O 0.7658(1) 0.7563(5) 0.2155(3)
O4 O 0.7398(1) 0.5590(5) 0.1176(3)
N1 N 0.5657(1) 0.3246(5) 0.4054(3)
N2 N 0.5088(2) 0.2879(6) 0.5059(3)
N3 N 0.6625(2) 0.7084(6) 0.3942(4)
N4 N 0.7356(2) 0.6431(5) 0.1745(3)
C1 C 0.4827(2) 0.2705(8) 0.5560(4)
C2 C 0.4972(2) 0.1585(8) 0.6298(4)
C3 C 0.5421(2) 0.0636(7) 0.6550(4)
C4 C 0.5727(2) 0.0804(6) 0.6063(4)
C5 C 0.6206(2) -0.0138(6) 0.6306(4)
C6 C 0.6490(2) 0.0052(7) 0.5822(4)
C7 C 0.6319(2) 0.1210(6) 0.5058(4)
C8 C 0.6618(2) 0.1471(7) 0.4566(4)
C9 C 0.6431(2) 0.2582(7) 0.3837(4)
C10 C 0.5946(2) 0.3459(6) 0.3598(4)
C11 C 0.5840(2) 0.2153(6) 0.4788(4)
C12 C 0.5534(2) 0.1943(6) 0.5298(3)
C13 C 0.5716(2) 0.4691(7) 0.2801(3)
C14 C 0.6143(2) 0.5241(7) 0.2532(3)
C15 C 0.6123(2) 0.4648(8) 0.1698(4)
C16 C 0.6516(2) 0.4978(8) 0.1441(4)
C17 C 0.6927(2) 0.6060(6) 0.2011(3)
C18 C 0.6957(2) 0.6786(6) 0.2815(4)
C19 C 0.6563(2) 0.6316(6) 0.3068(4)
H1 H 0.4520 0.3385 0.5407
H2 H 0.4760 0.1487 0.6619
H3 H 0.5527 -0.0135 0.7051
H4 H 0.6327 -0.0907 0.6813
H5 H 0.6808 -0.0591 0.5990
H6 H 0.6948 0.0877 0.4739
H7 H 0.6626 0.2759 0.3494
H8 H 0.5817 0.3968 0.1273
H9 H 0.6506 0.4478 0.0889
H10 H 0.7232 0.7568 0.3182
H11 H 0.5584 0.5563 0.3120
H12 H 0.5392 0.4186 0.2078
loop_
_geom_bond_atom_site_label_1
_geom_bond_atom_site_label_2
_geom_bond_site_symmetry_1
_geom_bond_site_symmetry_2
O1 N3 1_555 1_555
O2 N3 1_555 1_555
O3 N4 1_555 1_555
O4 N4 1_555 1_555
N1 C10 1_555 1_555
N2 C1 1_555 1_555
N3 C19 1_555 1_555
N4 C17 1_555 1_555
C1 C2 1_555 1_555
C2 C3 1_555 1_555
C3 C4 1_555 1_555
C4 C5 1_555 1_555
C5 C6 1_555 1_555
C6 C7 1_555 1_555
C7 C8 1_555 1_555
C8 C9 1_555 1_555
C9 C10 1_555 1_555
C10 C13 1_555 1_555
C11 N1 1_555 1_555
C12 N2 1_555 1_555
C13 C14 1_555 1_555
C14 C15 1_555 1_555
C15 C16 1_555 1_555
C16 C17 1_555 1_555
C17 C18 1_555 1_555
C18 C19 1_555 1_555
C19 C14 1_555 1_555
H1 C1 1_555 1_555
H2 C2 1_555 1_555
H3 C3 1_555 1_555
H4 C5 1_555 1_555
H5 C6 1_555 1_555
H6 C8 1_555 1_555
H7 C9 1_555 1_555
H8 C15 1_555 1_555
H9 C16 1_555 1_555
H10 C18 1_555 1_555
H11 C13 1_555 1_555
H12 C13 1_555 1_555
C4 C12 1_555 1_555
C7 C11 1_555 1_555
C11 C12 1_555 1_555

#END
