
#######################################################################
#
#                 Cambridge Crystallographic Data Centre
#                                CCDC 
#
#######################################################################
#
# If this CIF has been generated from an entry in the Cambridge 
# Structural Database, then it will include bibliographic, chemical, 
# crystal, experimental, refinement or atomic coordinate data resulting 
# from the CCDC's data processing and validation procedures.
#
#######################################################################

data_NIZFUZ
_chemical_formula_moiety         'C24 H19 F7 N2 O1'
_chemical_name_systematic        
4-(3-(2-Fluorophenyl)hexahydro[1,3]oxazolo[3,4-a]pyridin-1-yl)-2,8-bis(trifluoromethyl)quinoline
_symmetry_cell_setting           triclinic
_symmetry_space_group_name_H-M   'P -1'
_symmetry_Int_Tables_number      2
_space_group_name_Hall           '-P 1'
loop_
_symmetry_equiv_pos_site_id
_symmetry_equiv_pos_as_xyz
1 x,y,z
2 -x,-y,-z
_cell_length_a                   9.0573(2)
_cell_length_b                   10.6856(3)
_cell_length_c                   12.6602(3)
_cell_angle_alpha                99.490(2)
_cell_angle_beta                 101.112(2)
_cell_angle_gamma                111.7550(10)
_cell_volume                     1078.49
_exptl_crystal_colour            colorless
_exptl_crystal_description       BLOCK
_cell_formula_units_Z            2
loop_
_atom_site_label
_atom_site_type_symbol
_atom_site_fract_x
_atom_site_fract_y
_atom_site_fract_z
F1 F 0.90728(13) 0.18262(10) 1.23875(8)
F2 F 0.72380(12) -0.00377(9) 0.38159(8)
F3 F 1.08516(14) 0.39094(10) 1.25944(8)
F4 F 1.15405(16) 0.25261(13) 1.34174(8)
O1 O 0.93420(12) 0.08486(10) 0.63921(8)
F5 F 0.6312(12) 0.2814(15) 0.9984(8)
F6 F 0.5831(9) 0.2257(11) 0.8280(3)
F7 F 0.7542(7) 0.4269(4) 0.9210(13)
N1 N 0.91230(15) 0.24899(12) 1.02950(10)
N2 N 1.08568(15) 0.31413(12) 0.65451(10)
C1 C 1.29786(18) 0.12270(15) 1.07225(13)
H1 H 1.3847 0.0926 1.0838
C2 C 1.31419(18) 0.38606(15) 0.82172(13)
H2 H 1.3906 0.3554 0.8661
H3 H 1.2510 0.4134 0.8697
C3 C 0.7572(2) 0.29442(16) 0.58132(12)
H4 H 0.8358 0.3675 0.6433
C4 C 1.09344(16) 0.16549(13) 0.94765(12)
C5 C 1.22544(17) 0.12309(14) 0.96740(12)
H5 H 1.2637 0.0947 0.9069
C6 C 1.03934(17) 0.20847(14) 1.03991(11)
C7 C 0.5266(2) 0.08595(17) 0.39831(13)
H6 H 0.4492 0.0148 0.3348
C8 C 1.01119(17) 0.16723(14) 0.84028(11)
C9 C 0.80204(18) 0.19464(15) 0.52850(11)
C10 C 1.24524(19) 0.16638(15) 1.16361(13)
H7 H 1.2973 0.1662 1.2362
C11 C 1.4124(2) 0.51001(16) 0.78151(14)
H8 H 1.4850 0.4853 0.7409
H9 H 1.4834 0.5902 0.8465
C12 C 1.1751(2) 0.42705(16) 0.60867(13)
H10 H 1.0963 0.4541 0.5628
H11 H 1.2358 0.3958 0.5607
C13 C 0.88186(17) 0.20539(14) 0.83168(12)
H12 H 0.8220 0.2049 0.7611
C14 C 1.19635(17) 0.26785(15) 0.72102(12)
H13 H 1.2621 0.2402 0.6743
C15 C 0.96416(18) 0.18725(14) 0.57436(11)
H14 H 1.0096 0.1606 0.5126
C16 C 1.06900(17) 0.13581(14) 0.73854(11)
H15 H 1.1165 0.0656 0.7447
C17 C 0.68407(19) 0.09442(15) 0.43576(12)
C18 C 1.2963(2) 0.55115(16) 0.70487(14)
H16 H 1.2340 0.5874 0.7482
H17 H 1.3622 0.6265 0.6749
C19 C 0.83876(17) 0.24521(15) 0.92837(12)
C20 C 0.6000(2) 0.28904(18) 0.54517(13)
H18 H 0.5718 0.3581 0.5823
C21 C 1.11960(18) 0.20910(14) 1.14843(12)
C22 C 0.4837(2) 0.18298(18) 0.45496(13)
H19 H 0.3746 0.1772 0.4322
C23 C 1.0662(2) 0.25873(17) 1.24611(13)
C24 C 0.6989(2) 0.29018(19) 0.91839(13)
F8? F 0.6575(14) 0.3129(13) 1.0076(5)
F9? F 0.5589(11) 0.1769(17) 0.8548(19)
F10? F 0.708(3) 0.377(3) 0.8615(18)
loop_
_geom_bond_atom_site_label_1
_geom_bond_atom_site_label_2
_geom_bond_site_symmetry_1
_geom_bond_site_symmetry_2
F1 C23 1_555 1_555
F2 C17 1_555 1_555
F3 C23 1_555 1_555
F4 C23 1_555 1_555
O1 C15 1_555 1_555
F5 C24 1_555 1_555
F6 C24 1_555 1_555
F7 C24 1_555 1_555
N1 C6 1_555 1_555
N2 C12 1_555 1_555
C1 H1 1_555 1_555
C2 H2 1_555 1_555
H3 C2 1_555 1_555
C3 H4 1_555 1_555
C4 C5 1_555 1_555
C5 C1 1_555 1_555
H5 C5 1_555 1_555
C6 C4 1_555 1_555
C7 H6 1_555 1_555
C8 C4 1_555 1_555
C9 C3 1_555 1_555
C10 C1 1_555 1_555
H7 C10 1_555 1_555
C11 C2 1_555 1_555
H8 C11 1_555 1_555
H9 C11 1_555 1_555
C12 H10 1_555 1_555
H11 C12 1_555 1_555
C13 C8 1_555 1_555
H12 C13 1_555 1_555
C14 N2 1_555 1_555
H13 C14 1_555 1_555
C15 N2 1_555 1_555
H14 C15 1_555 1_555
C16 O1 1_555 1_555
H15 C16 1_555 1_555
C17 C7 1_555 1_555
C18 C11 1_555 1_555
H16 C18 1_555 1_555
H17 C18 1_555 1_555
C19 N1 1_555 1_555
C20 C3 1_555 1_555
H18 C20 1_555 1_555
C21 C6 1_555 1_555
C22 C7 1_555 1_555
H19 C22 1_555 1_555
C23 C21 1_555 1_555
C24 C19 1_555 1_555
C2 C14 1_555 1_555
C8 C16 1_555 1_555
C9 C15 1_555 1_555
C9 C17 1_555 1_555
C10 C21 1_555 1_555
C12 C18 1_555 1_555
C13 C19 1_555 1_555
C14 C16 1_555 1_555
C20 C22 1_555 1_555

#END
