
#######################################################################
#
#                 Cambridge Crystallographic Data Centre
#                                CCDC 
#
#######################################################################
#
# If this CIF has been generated from an entry in the Cambridge 
# Structural Database, then it will include bibliographic, chemical, 
# crystal, experimental, refinement or atomic coordinate data resulting 
# from the CCDC's data processing and validation procedures.
#
#######################################################################

data_NIZGIO
_chemical_formula_moiety         'C24 H19 Br1 F6 N2 O1'
_chemical_name_systematic        
4-(3-(4-Bromophenyl)hexahydro[1,3]oxazolo[3,4-a]pyridin-1-yl)-2,8-bis(trifluoromethyl)quinoline
_symmetry_cell_setting           triclinic
_symmetry_space_group_name_H-M   'P -1'
_symmetry_Int_Tables_number      2
_space_group_name_Hall           '-P 1'
loop_
_symmetry_equiv_pos_site_id
_symmetry_equiv_pos_as_xyz
1 x,y,z
2 -x,-y,-z
_cell_length_a                   8.3199(4)
_cell_length_b                   11.1477(5)
_cell_length_c                   13.4781(6)
_cell_angle_alpha                68.956(2)
_cell_angle_beta                 78.840(2)
_cell_angle_gamma                71.932(3)
_cell_volume                     1104.39
_exptl_crystal_colour            colorless
_exptl_crystal_description       slab
_cell_formula_units_Z            2
loop_
_atom_site_label
_atom_site_type_symbol
_atom_site_fract_x
_atom_site_fract_y
_atom_site_fract_z
Br1 Br 0.51656(5) -0.25652(6) 1.19748(3)
F1 F -0.3588(2) 0.74960(18) 0.62430(15)
F2 F -0.5342(2) 0.6277(2) 0.69180(16)
F3 F -0.5490(3) 0.7620(2) 0.53140(17)
N1 N -0.1873(3) 0.4785(3) 0.7240(2)
F4 F 0.0287(3) 0.2937(2) 0.95388(16)
O1 O 0.2717(3) 0.0727(2) 0.69895(17)
F5 F -0.2057(3) 0.4447(3) 0.93602(19)
C1 C 0.4341(5) -0.2000(4) 1.0618(3)
N2 N 0.0873(3) -0.0558(3) 0.7516(2)
F6 F 0.0273(4) 0.4952(2) 0.86650(18)
C2 C -0.0901(4) 0.3635(3) 0.5902(2)
C3 C -0.3204(4) 0.5691(3) 0.5610(3)
C4 C 0.0349(4) 0.2730(3) 0.7567(2)
H1 H 0.1118 0.2091 0.8034
C5 C 0.4685(4) -0.2131(4) 0.8863(3)
H2 H 0.5298 -0.2510 0.8346
C6 C 0.2830(5) -0.1029(3) 1.0413(3)
H3 H 0.2202 -0.0669 1.0938
C7 C -0.1983(4) 0.4682(3) 0.6275(2)
C8 C -0.1377(5) -0.1599(3) 0.7709(3)
H4 H -0.1997 -0.1275 0.8290
H5 H -0.1618 -0.2434 0.7809
C9 C 0.0503(4) -0.1839(3) 0.7745(3)
H6 H 0.0835 -0.2425 0.8446
H7 H 0.1140 -0.2260 0.7221
C10 C 0.1367(4) 0.1405(3) 0.6304(2)
H8 H 0.1853 0.1701 0.5563
C11 C 0.0470(4) 0.0324(3) 0.6442(2)
H9 H 0.1052 -0.0156 0.5935
C12 C -0.0729(4) 0.3839(3) 0.7833(2)
C13 C -0.1988(5) -0.0585(3) 0.6648(3)
H10 H -0.1544 -0.0983 0.6084
H11 H -0.3217 -0.0361 0.6694
C14 C 0.0254(4) 0.2603(3) 0.6606(2)
C15 C -0.1418(4) 0.0683(3) 0.6366(3)
H12 H -0.1679 0.1246 0.5646
H13 H -0.2021 0.1172 0.6853
C16 C 0.2271(4) -0.0601(3) 0.9412(3)
H14 H 0.1252 0.0051 0.9264
C17 C -0.1033(4) 0.3677(3) 0.4854(2)
H15 H -0.0318 0.3010 0.4591
C18 C -0.2191(4) 0.4679(3) 0.4227(2)
H16 H -0.2244 0.4700 0.3538
C19 C -0.0577(5) 0.4045(3) 0.8856(3)
C20 C -0.4396(4) 0.6755(3) 0.6027(3)
C21 C 0.2632(4) -0.0636(3) 0.7522(2)
H17 H 0.3349 -0.1201 0.7105
C22 C 0.5270(5) -0.2583(4) 0.9866(3)
H18 H 0.6262 -0.3261 1.0026
C23 C -0.3305(4) 0.5678(3) 0.4620(3)
H19 H -0.4121 0.6338 0.4198
C24 C 0.3213(4) -0.1132(3) 0.8622(3)
loop_
_geom_bond_atom_site_label_1
_geom_bond_atom_site_label_2
_geom_bond_site_symmetry_1
_geom_bond_site_symmetry_2
Br1 C1 1_555 1_555
F1 C20 1_555 1_555
F2 C20 1_555 1_555
F3 C20 1_555 1_555
N1 C7 1_555 1_555
F4 C19 1_555 1_555
O1 C10 1_555 1_555
F5 C19 1_555 1_555
C1 C6 1_555 1_555
N2 C9 1_555 1_555
F6 C19 1_555 1_555
C2 C7 1_555 1_555
C3 C7 1_555 1_555
C4 H1 1_555 1_555
C5 H2 1_555 1_555
C6 H3 1_555 1_555
C8 H4 1_555 1_555
H5 C8 1_555 1_555
C9 C8 1_555 1_555
H6 C9 1_555 1_555
H7 C9 1_555 1_555
C10 H8 1_555 1_555
C11 N2 1_555 1_555
H9 C11 1_555 1_555
C12 N1 1_555 1_555
C13 C8 1_555 1_555
H10 C13 1_555 1_555
H11 C13 1_555 1_555
C14 C2 1_555 1_555
C15 C11 1_555 1_555
H12 C15 1_555 1_555
H13 C15 1_555 1_555
C16 C6 1_555 1_555
H14 C16 1_555 1_555
C17 C2 1_555 1_555
H15 C17 1_555 1_555
C18 C17 1_555 1_555
H16 C18 1_555 1_555
C19 C12 1_555 1_555
C20 C3 1_555 1_555
C21 O1 1_555 1_555
H17 C21 1_555 1_555
C22 C1 1_555 1_555
H18 C22 1_555 1_555
C23 C3 1_555 1_555
H19 C23 1_555 1_555
C24 C5 1_555 1_555
N2 C21 1_555 1_555
C4 C12 1_555 1_555
C4 C14 1_555 1_555
C5 C22 1_555 1_555
C10 C11 1_555 1_555
C10 C14 1_555 1_555
C13 C15 1_555 1_555
C16 C24 1_555 1_555
C18 C23 1_555 1_555
C21 C24 1_555 1_555

#END
