
#######################################################################
#
#                 Cambridge Crystallographic Data Centre
#                                CCDC 
#
#######################################################################
#
# If this CIF has been generated from an entry in the Cambridge 
# Structural Database, then it will include bibliographic, chemical, 
# crystal, experimental, refinement or atomic coordinate data resulting 
# from the CCDC's data processing and validation procedures.
#
#######################################################################

data_NIZHUZ
_chemical_formula_moiety         'C13 H24 O5 Si1'
_chemical_name_systematic        
(3R,4S,5S)-4-t-Butyldimethylsiloxy-3-hydroxy-8-oxo-1,7-dioxaspiro(4.4)nonane
_symmetry_cell_setting           monoclinic
_symmetry_space_group_name_H-M   'P 21'
_symmetry_Int_Tables_number      4
_space_group_name_Hall           'P 2yb'
loop_
_symmetry_equiv_pos_site_id
_symmetry_equiv_pos_as_xyz
1 x,y,z
2 -x,1/2+y,-z
_cell_length_a                   7.769(2)
_cell_length_b                   14.121(2)
_cell_length_c                   14.8510(10)
_cell_angle_alpha                90
_cell_angle_beta                 97.310(10)
_cell_angle_gamma                90
_cell_volume                     1616
_exptl_crystal_colour            colorless
_cell_formula_units_Z            4
loop_
_atom_site_label
_atom_site_type_symbol
_atom_site_fract_x
_atom_site_fract_y
_atom_site_fract_z
Si1 Si 0.0069(1) 0.1217 0.0924(1)
O1 O -0.0541(4) 0.0411(2) 0.1635(2)
O2 O 0.0992(4) -0.2013(2) 0.2033(2)
O3 O -0.1945(3) -0.1247(2) 0.2700(2)
O4 O -0.5946(4) -0.2427(3) 0.1317(3)
O5 O -0.5300(3) -0.0917(2) 0.1595(2)
C1 C -0.2697(7) 0.2327(4) 0.1341(4)
C2 C 0.0094(10) 0.2498(5) 0.2361(4)
C3 C -0.0265(8) 0.3191(4) 0.0785(5)
C4 C -0.0727(6) 0.2366(3) 0.1368(3)
C5 C -0.0959(7) 0.0961(4) -0.0246(3)
C6 C 0.2471(6) 0.1192(5) 0.0961(4)
C7 C -0.0542(5) -0.0584(3) 0.1514(3)
C8 C 0.0762(5) -0.1042(3) 0.2244(3)
C9 C -0.0218(5) -0.0986(3) 0.3052(3)
C10 C -0.2248(5) -0.0984(3) 0.1760(2)
C11 C -0.3002(5) -0.1849(3) 0.1233(3)
C12 C -0.4887(5) -0.1803(3) 0.1368(3)
C13 C -0.3782(5) -0.0306(3) 0.1621(3)
H1 H 0.1950 -0.2078 0.1820
H2 H -0.3115 0.2907 0.1571
H3 H -0.3206 0.2238 0.0723
H4 H -0.3008 0.1806 0.1704
H5 H -0.0291 0.3081 0.2602
H6 H -0.0235 0.1977 0.2719
H7 H 0.1333 0.2509 0.2380
H8 H -0.0651 0.3783 0.1006
H9 H 0.0973 0.3204 0.0794
H10 H -0.0805 0.3092 0.0174
H11 H -0.0523 0.0372 -0.0446
H12 H -0.2195 0.0919 -0.0255
H13 H -0.0689 0.1461 -0.0643
H14 H 0.2810 0.0598 0.0724
H15 H 0.2853 0.1700 0.0605
H16 H 0.2991 0.1257 0.1580
H17 H -0.0326 -0.0757 0.0913
H18 H 0.1838 -0.0700 0.2339
H19 H 0.0259 -0.1420 0.3516
H20 H -0.0180 -0.0358 0.3301
H21 H -0.2475 -0.2422 0.1483
H22 H -0.2865 -0.1810 0.0601
H23 H -0.3735 0.0128 0.2121
H24 H -0.3794 0.0047 0.1068
Si2 Si -0.4199(2) 0.7042(1) 0.4671(1)
O6 O -0.3681(4) 0.6157(3) 0.4034(2)
O7 O -0.0367(5) 0.6238(3) 0.2505(3)
O8 O -0.2506(5) 0.4581(2) 0.2974(2)
O9 O -0.5481(7) 0.4271(4) 0.0573(3)
O10 O -0.6097(5) 0.4431(3) 0.1981(3)
C14 C -0.3800(11) 0.5738(6) 0.6104(5)
C15 C -0.6787(10) 0.5902(9) 0.5234(6)
C16 C -0.5564(11) 0.7174(7) 0.6321(5)
C17 C -0.5143(7) 0.6432(5) 0.5625(3)
C18 C -0.5755(11) 0.7842(6) 0.3985(5)
C19 C -0.2268(9) 0.7747(5) 0.5094(4)
C20 C -0.3048(5) 0.6191(3) 0.3180(3)
C21 C -0.1103(6) 0.6041(4) 0.3309(3)
C22 C -0.0977(7) 0.4984(4) 0.3474(4)
C23 C -0.3687(6) 0.5311(3) 0.2651(3)
C24 C -0.3813(7) 0.5360(4) 0.1610(3)
C25 C -0.5175(9) 0.4638(4) 0.1310(4)
C26 C -0.5525(7) 0.4990(5) 0.2765(4)
H25 H -0.0429 0.6830 0.2402
H26 H -0.4298 0.5429 0.6586
H27 H -0.3492 0.5271 0.5682
H28 H -0.2781 0.6080 0.6351
H29 H -0.7329 0.5579 0.5692
H30 H -0.7604 0.6331 0.4910
H31 H -0.6415 0.5448 0.4818
H32 H -0.6058 0.6885 0.6814
H33 H -0.4461 0.7448 0.6545
H34 H -0.6328 0.7659 0.6053
H35 H -0.5184 0.8129 0.3517
H36 H -0.6724 0.7475 0.3713
H37 H -0.6157 0.8328 0.4360
H38 H -0.1791 0.8050 0.4603
H39 H -0.2616 0.8219 0.5499
H40 H -0.1408 0.7342 0.5416
H41 H -0.3365 0.6767 0.2858
H42 H -0.0549 0.6389 0.3820
H43 H 0.0046 0.4738 0.3257
H44 H -0.0924 0.4841 0.4109
H45 H -0.2714 0.5206 0.1416
H46 H -0.4170 0.5976 0.1386
H47 H -0.5517 0.4624 0.3309
H48 H -0.6265 0.5531 0.2796
loop_
_geom_bond_atom_site_label_1
_geom_bond_atom_site_label_2
_geom_bond_site_symmetry_1
_geom_bond_site_symmetry_2
Si1 O1 1_555 1_555
O1 C7 1_555 1_555
O2 C8 1_555 1_555
O3 C9 1_555 1_555
O4 C12 1_555 1_555
O5 C12 1_555 1_555
C1 C4 1_555 1_555
C2 C4 1_555 1_555
C3 C4 1_555 1_555
C4 Si1 1_555 1_555
C5 Si1 1_555 1_555
C6 Si1 1_555 1_555
C7 C8 1_555 1_555
C8 C9 1_555 1_555
C9 H19 1_555 1_555
C10 O3 1_555 1_555
C11 C10 1_555 1_555
C12 C11 1_555 1_555
C13 O5 1_555 1_555
Si2 O6 1_555 1_555
O6 C20 1_555 1_555
O7 C21 1_555 1_555
O8 C22 1_555 1_555
O9 C25 1_555 1_555
O10 C25 1_555 1_555
C14 C17 1_555 1_555
C15 C17 1_555 1_555
C16 C17 1_555 1_555
C17 Si2 1_555 1_555
C18 Si2 1_555 1_555
C19 Si2 1_555 1_555
C20 C21 1_555 1_555
C21 C22 1_555 1_555
C22 H43 1_555 1_555
C23 O8 1_555 1_555
C24 C23 1_555 1_555
C25 C24 1_555 1_555
C26 O10 1_555 1_555
H1 O2 1_555 1_555
H2 C1 1_555 1_555
H3 C1 1_555 1_555
H4 C1 1_555 1_555
H5 C2 1_555 1_555
H6 C2 1_555 1_555
H7 C2 1_555 1_555
H8 C3 1_555 1_555
H9 C3 1_555 1_555
H10 C3 1_555 1_555
H11 C5 1_555 1_555
H12 C5 1_555 1_555
H13 C5 1_555 1_555
H14 C6 1_555 1_555
H15 C6 1_555 1_555
H16 C6 1_555 1_555
H17 C7 1_555 1_555
H18 C8 1_555 1_555
H20 C9 1_555 1_555
H21 C11 1_555 1_555
H22 C11 1_555 1_555
H23 C13 1_555 1_555
H24 C13 1_555 1_555
H25 O7 1_555 1_555
H26 C14 1_555 1_555
H27 C14 1_555 1_555
H28 C14 1_555 1_555
H29 C15 1_555 1_555
H30 C15 1_555 1_555
H31 C15 1_555 1_555
H32 C16 1_555 1_555
H33 C16 1_555 1_555
H34 C16 1_555 1_555
H35 C18 1_555 1_555
H36 C18 1_555 1_555
H37 C18 1_555 1_555
H38 C19 1_555 1_555
H39 C19 1_555 1_555
H40 C19 1_555 1_555
H41 C20 1_555 1_555
H42 C21 1_555 1_555
H44 C22 1_555 1_555
H45 C24 1_555 1_555
H46 C24 1_555 1_555
H47 C26 1_555 1_555
H48 C26 1_555 1_555
C7 C10 1_555 1_555
C10 C13 1_555 1_555
C20 C23 1_555 1_555
C23 C26 1_555 1_555

#END
