
#######################################################################
#
#                 Cambridge Crystallographic Data Centre
#                                CCDC 
#
#######################################################################
#
# If this CIF has been generated from an entry in the Cambridge 
# Structural Database, then it will include bibliographic, chemical, 
# crystal, experimental, refinement or atomic coordinate data resulting 
# from the CCDC's data processing and validation procedures.
#
#######################################################################

data_NIZKEO
_chemical_formula_moiety         'C46 H28 N4 O1 S2'
_chemical_name_systematic        
9,9'-(1,3,4-Oxadiazole-2,5-diylbis(thiene-2,3-diyl-4,1-phenylene))bis(9H-carbazole)
_symmetry_cell_setting           orthorhombic
_symmetry_space_group_name_H-M   'P n a 21'
_symmetry_Int_Tables_number      33
_space_group_name_Hall           'P 2c -2n'
loop_
_symmetry_equiv_pos_site_id
_symmetry_equiv_pos_as_xyz
1 x,y,z
2 -x,-y,1/2+z
3 1/2+x,1/2-y,z
4 1/2-x,1/2+y,1/2+z
_cell_length_a                   16.6992(7)
_cell_length_b                   8.3716(3)
_cell_length_c                   49.404(2)
_cell_angle_alpha                90
_cell_angle_beta                 90
_cell_angle_gamma                90
_cell_volume                     6906.63
_exptl_crystal_colour            colorless
_exptl_crystal_description       plate
_cell_formula_units_Z            8
loop_
_atom_site_label
_atom_site_type_symbol
_atom_site_fract_x
_atom_site_fract_y
_atom_site_fract_z
S1 S 0.19627(3) 0.65101(7) 0.005246
S2 S -0.13295(3) 0.22203(7) 0.045099(13)
N1 N 0.12896(10) 0.4507(2) 0.04919(4)
N2 N 0.08468(10) 0.36209(19) 0.06826(4)
N3 N -0.18617(12) 0.1974(2) -0.06641(4)
N4 N 0.14257(10) 0.12820(18) 0.18283(4)
O1 O 0.01139(8) 0.39507(15) 0.03122(3)
C1 C 0.08365(12) 0.4666(2) 0.02805(5)
C2 C 0.01655(13) 0.3321(2) 0.05702(4)
C3 C 0.10620(12) 0.5486(2) 0.00355(5)
C4 C 0.07465(13) 0.5517(2) -0.02235(4)
C5 C 0.12499(15) 0.6373(3) -0.04022(5)
C6 C 0.19145(15) 0.6981(3) -0.02831(5)
C7 C -0.05215(11) 0.2459(2) 0.06675(5)
C8 C -0.06462(12) 0.1680(2) 0.09098(4)
C9 C -0.13970(13) 0.0883(3) 0.09126(5)
C10 C -0.18251(13) 0.1075(2) 0.06821(5)
C11 C 0.00368(13) 0.4638(2) -0.03249(4)
C12 C -0.07150(12) 0.4667(3) -0.02053(4)
C13 C -0.13429(13) 0.3797(3) -0.03163(5)
C14 C -0.12274(13) 0.2885(3) -0.05472(5)
C15 C -0.04874(14) 0.2886(3) -0.06716(5)
C16 C 0.01336(14) 0.3748(2) -0.05623(4)
C17 C -0.01016(12) 0.1611(2) 0.11470(4)
C18 C 0.02792(12) 0.2962(2) 0.12508(4)
C19 C 0.07610(12) 0.2868(2) 0.14800(4)
C20 C 0.09041(12) 0.1402(2) 0.16011(4)
C21 C 0.05333(12) 0.0036(2) 0.14988(4)
C22 C 0.00208(11) 0.0153(2) 0.12801(4)
C23 C -0.17726(14) 0.0391(3) -0.07578(5)
C24 C -0.11813(17) -0.0716(3) -0.06948(6)
C25 C -0.12423(18) -0.2202(3) -0.08162(8)
C26 C -0.18601(19) -0.2569(4) -0.09918(8)
C27 C -0.24413(18) -0.1473(3) -0.10533(5)
C28 C -0.24039(14) 0.0047(3) -0.09356(5)
C29 C -0.28910(14) 0.1451(3) -0.09554(5)
C30 C -0.35696(15) 0.1842(3) -0.11068(5)
C31 C -0.38831(16) 0.3345(3) -0.10857(5)
C32 C -0.35395(15) 0.4486(3) -0.09134(6)
C33 C -0.28625(15) 0.4128(3) -0.07624(5)
C34 C -0.25447(13) 0.2615(3) -0.07841(5)
C35 C 0.21778(12) 0.2009(2) 0.18569(4)
C36 C 0.25943(13) 0.2981(2) 0.16781(5)
C37 C 0.33540(13) 0.3478(2) 0.17534(5)
C38 C 0.36886(13) 0.3038(3) 0.20032(6)
C39 C 0.32697(13) 0.2089(3) 0.21798(5)
C40 C 0.24984(13) 0.1558(2) 0.21088(4)
C41 C 0.19269(13) 0.0534(2) 0.22399(4)
C42 C 0.19019(15) -0.0228(3) 0.24927(5)
C43 C 0.12406(15) -0.1124(3) 0.25585(5)
C44 C 0.06094(15) -0.1292(2) 0.23763(5)
C45 C 0.06117(13) -0.0542(2) 0.21284(4)
C46 C 0.12766(12) 0.0372(2) 0.20601(4)
H1 H 0.113154 0.651164 -0.059095
H2 H 0.231089 0.760243 -0.037643
H3 H -0.158343 0.026545 0.106374
H4 H -0.234546 0.061995 0.065233
H5 H -0.080177 0.529202 -0.004506
H6 H -0.186115 0.382768 -0.023239
H7 H -0.040653 0.22844 -0.083479
H8 H 0.06454 0.373931 -0.065075
H9 H 0.020739 0.397372 0.116255
H10 H 0.099453 0.382006 0.15543
H11 H 0.063437 -0.098468 0.158038
H12 H -0.025669 -0.078294 0.121821
H13 H -0.075154 -0.046371 -0.057308
H14 H -0.084488 -0.299808 -0.077751
H15 H -0.188223 -0.361221 -0.107208
H16 H -0.286788 -0.174265 -0.11753
H17 H -0.381226 0.106649 -0.122409
H18 H -0.434633 0.362371 -0.119062
H19 H -0.37759 0.552841 -0.089976
H20 H -0.262242 0.491243 -0.06461
H21 H 0.236431 0.32978 0.150833
H22 H 0.365795 0.413687 0.163212
H23 H 0.421491 0.340412 0.205074
H24 H 0.350082 0.178986 0.235039
H25 H 0.23393 -0.012499 0.261762
H26 H 0.121315 -0.163971 0.273176
H27 H 0.016069 -0.194853 0.242499
H28 H 0.016744 -0.064713 0.200639
S3 S 0.54387(3) 0.15338(7) 0.243178(12)
S4 S 0.86871(3) -0.28288(7) 0.202602(13)
N5 N 0.60779(10) -0.05078(19) 0.19874(4)
N6 N 0.65184(10) -0.13909(19) 0.17957(4)
N7 N 0.91637(11) -0.3365(2) 0.31398(4)
N8 N 0.59447(10) -0.37378(18) 0.06459(3)
O2 O 0.72494(8) -0.11035(15) 0.21665(3)
C47 C 0.65272(12) -0.0376(2) 0.21990(4)
C48 C 0.71969(13) -0.1711(2) 0.19088(4)
C49 C 0.63112(12) 0.0435(2) 0.24450(4)
C50 C 0.66339(13) 0.0425(2) 0.27049(4)
C51 C 0.61503(14) 0.1338(3) 0.28851(5)
C52 C 0.54985(15) 0.1991(3) 0.27660(5)
C53 C 0.78848(12) -0.2584(2) 0.18098(5)
C54 C 0.80084(12) -0.3365(2) 0.15641(4)
C55 C 0.87577(13) -0.4163(3) 0.15649(5)
C56 C 0.91915(13) -0.3969(2) 0.17946(5)
C57 C 0.73267(13) -0.0510(2) 0.28065(4)
C58 C 0.80792(12) -0.0542(3) 0.26860(4)
C59 C 0.86850(13) -0.1475(3) 0.27955(5)
C60 C 0.85557(13) -0.2369(2) 0.30264(5)
C61 C 0.78155(13) -0.2319(2) 0.31533(5)
C62 C 0.72073(14) -0.1397(2) 0.30424(4)
C63 C 0.74648(12) -0.3426(2) 0.13280(4)
C64 C 0.73467(11) -0.4877(2) 0.11935(4)
C65 C 0.68426(12) -0.4992(2) 0.09741(4)
C66 C 0.64719(12) -0.3631(2) 0.08725(4)
C67 C 0.66143(12) -0.2161(2) 0.09959(4)
C68 C 0.70927(12) -0.2072(3) 0.12217(5)
C69 C 0.98518(13) -0.2791(3) 0.32736(5)
C70 C 1.01908(14) -0.1291(3) 0.32645(5)
C71 C 1.08437(15) -0.1019(3) 0.34313(6)
C72 C 1.11495(16) -0.2207(4) 0.35972(6)
C73 C 1.08208(15) -0.3707(3) 0.36004(5)
C74 C 1.01667(13) -0.4018(3) 0.34345(5)
C75 C 0.96553(14) -0.5401(3) 0.33984(5)
C76 C 0.96545(18) -0.6960(3) 0.35039(5)
C77 C 0.90532(19) -0.7984(3) 0.34315(6)
C78 C 0.84576(18) -0.7514(3) 0.32531(6)
C79 C 0.84374(17) -0.5992(3) 0.31447(5)
C80 C 0.90431(14) -0.4942(3) 0.32200(4)
C81 C 0.60783(12) -0.4643(2) 0.04127(4)
C82 C 0.67396(14) -0.5566(2) 0.03421(5)
C83 C 0.67306(15) -0.6326(2) 0.00936(5)
C84 C 0.60820(16) -0.6159(3) -0.00833(5)
C85 C 0.54255(14) -0.5249(2) -0.00134(5)
C86 C 0.54188(12) -0.4483(2) 0.02391(4)
C87 C 0.48471(12) -0.3462(2) 0.03732(4)
C88 C 0.40811(14) -0.2950(3) 0.03089(5)
C89 C 0.36688(13) -0.1992(3) 0.04870(6)
C90 C 0.40128(13) -0.1555(2) 0.07319(5)
C91 C 0.47762(13) -0.2047(2) 0.08043(4)
C92 C 0.51902(12) -0.3010(2) 0.06233(4)
H29 H 0.627525 0.147704 0.307327
H30 H 0.511375 0.263953 0.28597
H31 H 0.894302 -0.47909 0.141481
H32 H 0.971429 -0.441398 0.182362
H33 H 0.817972 0.008281 0.25267
H34 H 0.920056 -0.149876 0.270957
H35 H 0.772436 -0.291635 0.331631
H36 H 0.669392 -0.136842 0.312971
H37 H 0.762339 -0.581303 0.125557
H38 H 0.674684 -0.601141 0.089118
H39 H 0.637761 -0.120882 0.092298
H40 H 0.71726 -0.105736 0.130808
H41 H 0.998389 -0.047137 0.314794
H42 H 1.109027 0.001732 0.343204
H43 H 1.159905 -0.197558 0.371181
H44 H 1.10378 -0.452675 0.371487
H45 H 1.007006 -0.73013 0.362504
H46 H 0.904361 -0.90449 0.350531
H47 H 0.804833 -0.826387 0.320351
H48 H 0.802125 -0.567157 0.302212
H49 H 0.718825 -0.567096 0.046233
H50 H 0.717714 -0.69801 0.004159
H51 H 0.609418 -0.668445 -0.025599
H52 H 0.498097 -0.514254 -0.013531
H53 H 0.383932 -0.326332 0.014078
H54 H 0.314111 -0.162334 0.044181
H55 H 0.371416 -0.089341 0.085446
H56 H 0.501019 -0.173386 0.097365
loop_
_geom_bond_atom_site_label_1
_geom_bond_atom_site_label_2
_geom_bond_site_symmetry_1
_geom_bond_site_symmetry_2
S1 C3 1_555 1_555
S2 C7 1_555 1_555
N1 N2 1_555 1_555
N2 C2 1_555 1_555
N3 C14 1_555 1_555
N4 C20 1_555 1_555
O1 C1 1_555 1_555
C1 N1 1_555 1_555
C2 O1 1_555 1_555
C3 C1 1_555 1_555
C4 C3 1_555 1_555
C5 C4 1_555 1_555
C6 S1 1_555 1_555
C7 C2 1_555 1_555
C8 C7 1_555 1_555
C9 C8 1_555 1_555
C10 S2 1_555 1_555
C11 C4 1_555 1_555
C12 C11 1_555 1_555
C13 C12 1_555 1_555
C14 C13 1_555 1_555
C15 C14 1_555 1_555
C16 C11 1_555 1_555
C17 C8 1_555 1_555
C18 C17 1_555 1_555
C19 C18 1_555 1_555
C20 C19 1_555 1_555
C21 C20 1_555 1_555
C22 C17 1_555 1_555
C23 N3 1_555 1_555
C24 C23 1_555 1_555
C25 C24 1_555 1_555
C26 C25 1_555 1_555
C27 C26 1_555 1_555
C28 C23 1_555 1_555
C29 C28 1_555 1_555
C30 C29 1_555 1_555
C31 C30 1_555 1_555
C32 C31 1_555 1_555
C33 C32 1_555 1_555
C34 N3 1_555 1_555
C35 N4 1_555 1_555
C36 C35 1_555 1_555
C37 C36 1_555 1_555
C38 C37 1_555 1_555
C39 C38 1_555 1_555
C40 C35 1_555 1_555
C41 C40 1_555 1_555
C42 C41 1_555 1_555
C43 C42 1_555 1_555
C44 C43 1_555 1_555
C45 C44 1_555 1_555
C46 N4 1_555 1_555
H1 C5 1_555 1_555
H2 C6 1_555 1_555
H3 C9 1_555 1_555
H4 C10 1_555 1_555
H5 C12 1_555 1_555
H6 C13 1_555 1_555
H7 C15 1_555 1_555
H8 C16 1_555 1_555
H9 C18 1_555 1_555
H10 C19 1_555 1_555
H11 C21 1_555 1_555
H12 C22 1_555 1_555
H13 C24 1_555 1_555
H14 C25 1_555 1_555
H15 C26 1_555 1_555
H16 C27 1_555 1_555
H17 C30 1_555 1_555
H18 C31 1_555 1_555
H19 C32 1_555 1_555
H20 C33 1_555 1_555
H21 C36 1_555 1_555
H22 C37 1_555 1_555
H23 C38 1_555 1_555
H24 C39 1_555 1_555
H25 C42 1_555 1_555
H26 C43 1_555 1_555
H27 C44 1_555 1_555
H28 C45 1_555 1_555
S3 C49 1_555 1_555
S4 C53 1_555 1_555
N5 N6 1_555 1_555
N6 C48 1_555 1_555
N7 C60 1_555 1_555
N8 C66 1_555 1_555
O2 C47 1_555 1_555
C47 N5 1_555 1_555
C48 O2 1_555 1_555
C49 C47 1_555 1_555
C50 C49 1_555 1_555
C51 C50 1_555 1_555
C52 S3 1_555 1_555
C53 C48 1_555 1_555
C54 C53 1_555 1_555
C55 C54 1_555 1_555
C56 S4 1_555 1_555
C57 C50 1_555 1_555
C58 C57 1_555 1_555
C59 C58 1_555 1_555
C60 C59 1_555 1_555
C61 C60 1_555 1_555
C62 C57 1_555 1_555
C63 C54 1_555 1_555
C64 C63 1_555 1_555
C65 C64 1_555 1_555
C66 C65 1_555 1_555
C67 C66 1_555 1_555
C68 C63 1_555 1_555
C69 N7 1_555 1_555
C70 C69 1_555 1_555
C71 C70 1_555 1_555
C72 C71 1_555 1_555
C73 C72 1_555 1_555
C74 C69 1_555 1_555
C75 C74 1_555 1_555
C76 C75 1_555 1_555
C77 C76 1_555 1_555
C78 C77 1_555 1_555
C79 C78 1_555 1_555
C80 N7 1_555 1_555
C81 N8 1_555 1_555
C82 C81 1_555 1_555
C83 C82 1_555 1_555
C84 C83 1_555 1_555
C85 C84 1_555 1_555
C86 C81 1_555 1_555
C87 C86 1_555 1_555
C88 C87 1_555 1_555
C89 C88 1_555 1_555
C90 C89 1_555 1_555
C91 C90 1_555 1_555
C92 N8 1_555 1_555
H29 C51 1_555 1_555
H30 C52 1_555 1_555
H31 C55 1_555 1_555
H32 C56 1_555 1_555
H33 C58 1_555 1_555
H34 C59 1_555 1_555
H35 C61 1_555 1_555
H36 C62 1_555 1_555
H37 C64 1_555 1_555
H38 C65 1_555 1_555
H39 C67 1_555 1_555
H40 C68 1_555 1_555
H41 C70 1_555 1_555
H42 C71 1_555 1_555
H43 C72 1_555 1_555
H44 C73 1_555 1_555
H45 C76 1_555 1_555
H46 C77 1_555 1_555
H47 C78 1_555 1_555
H48 C79 1_555 1_555
H49 C82 1_555 1_555
H50 C83 1_555 1_555
H51 C84 1_555 1_555
H52 C85 1_555 1_555
H53 C88 1_555 1_555
H54 C89 1_555 1_555
H55 C90 1_555 1_555
H56 C91 1_555 1_555
C5 C6 1_555 1_555
C9 C10 1_555 1_555
C15 C16 1_555 1_555
C21 C22 1_555 1_555
C27 C28 1_555 1_555
C29 C34 1_555 1_555
C33 C34 1_555 1_555
C39 C40 1_555 1_555
C41 C46 1_555 1_555
C45 C46 1_555 1_555
C51 C52 1_555 1_555
C55 C56 1_555 1_555
C61 C62 1_555 1_555
C67 C68 1_555 1_555
C73 C74 1_555 1_555
C75 C80 1_555 1_555
C79 C80 1_555 1_555
C85 C86 1_555 1_555
C87 C92 1_555 1_555
C91 C92 1_555 1_555

#END
