
#######################################################################
#
#                 Cambridge Crystallographic Data Centre
#                                CCDC 
#
#######################################################################
#
# If this CIF has been generated from an entry in the Cambridge 
# Structural Database, then it will include bibliographic, chemical, 
# crystal, experimental, refinement or atomic coordinate data resulting 
# from the CCDC's data processing and validation procedures.
#
#######################################################################

data_NIZKUC
_chemical_formula_moiety         'C8 H14 O6'
_chemical_name_systematic        
'Methyl (3,4-dihydroxy-5-hydroxymethyl-2-furyl)acetate'
_symmetry_cell_setting           orthorhombic
_symmetry_space_group_name_H-M   'P 21 21 21'
_symmetry_Int_Tables_number      19
_space_group_name_Hall           'P 2ac 2ab'
loop_
_symmetry_equiv_pos_site_id
_symmetry_equiv_pos_as_xyz
1 x,y,z
2 1/2-x,-y,1/2+z
3 1/2+x,1/2-y,-z
4 -x,1/2+y,1/2-z
_cell_length_a                   5.566(1)
_cell_length_b                   8.220(1)
_cell_length_c                   21.551(4)
_cell_angle_alpha                90
_cell_angle_beta                 90
_cell_angle_gamma                90
_cell_volume                     986.013
_exptl_crystal_colour            colorless
_exptl_crystal_description       needles
_cell_formula_units_Z            4
loop_
_atom_site_label
_atom_site_type_symbol
_atom_site_fract_x
_atom_site_fract_y
_atom_site_fract_z
O1 O -0.5420(8) 0.3416(5) 0.8417(2)
O2 O -0.7708(10) 0.1520(6) 0.9470(2)
O3 O -0.5823(10) -0.0847(6) 0.9287(3)
O4 O -0.7740(9) 0.4361(6) 0.7279(2)
H1 H -0.7746(9) 0.3331(6) 0.7245(2)
O5 O -0.1052(9) 0.6216(6) 0.7900(2)
H2 H -0.0181(9) 0.5427(6) 0.7779(2)
O6 O 0.0053(8) 0.4587(5) 0.9193(2)
H3 H 0.0825(8) 0.3749(5) 0.9309(2)
C1 C -0.5086(13) 0.5010(8) 0.8154(3)
H4 H -0.6332(13) 0.5712(8) 0.8306(3)
C2 C -0.2601(13) 0.5623(8) 0.8381(3)
H5 H -0.2805(13) 0.6472(8) 0.8683(3)
C3 C -0.1589(11) 0.4134(8) 0.8711(3)
H6 H -0.0812(11) 0.3448(8) 0.8411(3)
C4 C -0.3832(13) 0.3305(8) 0.8942(3)
H7 H -0.4469(13) 0.3902(8) 0.9288(3)
C5 C -0.3596(13) 0.1518(8) 0.9121(3)
H8 H -0.2449(13) 0.1388(8) 0.9450(3)
H9 H -0.3019(13) 0.0934(8) 0.8765(3)
C6 C -0.5939(14) 0.0783(9) 0.9312(3)
C7 C -0.7963(17) -0.1708(10) 0.9483(5)
H10 H -0.7710(17) -0.2861(10) 0.9452(5)
H11 H -0.8331(17) -0.1427(10) 0.9904(5)
H12 H -0.9276(17) -0.1398(10) 0.9219(5)
C8 C -0.5355(13) 0.4894(9) 0.7454(3)
H13 H -0.5039(13) 0.5930(9) 0.7265(3)
H14 H -0.4184(13) 0.4131(9) 0.7304(3)
loop_
_geom_bond_atom_site_label_1
_geom_bond_atom_site_label_2
_geom_bond_site_symmetry_1
_geom_bond_site_symmetry_2
O1 C1 1_555 1_555
O2 C6 1_555 1_555
O3 C6 1_555 1_555
O4 H1 1_555 1_555
O5 H2 1_555 1_555
O6 H3 1_555 1_555
C1 H4 1_555 1_555
C2 O5 1_555 1_555
H5 C2 1_555 1_555
C3 O6 1_555 1_555
H6 C3 1_555 1_555
C4 O1 1_555 1_555
H7 C4 1_555 1_555
C5 C4 1_555 1_555
H8 C5 1_555 1_555
H9 C5 1_555 1_555
C6 C5 1_555 1_555
C7 O3 1_555 1_555
H10 C7 1_555 1_555
H11 C7 1_555 1_555
H12 C7 1_555 1_555
C8 O4 1_555 1_555
H13 C8 1_555 1_555
H14 C8 1_555 1_555
C1 C2 1_555 1_555
C1 C8 1_555 1_555
C2 C3 1_555 1_555
C3 C4 1_555 1_555

#END
