
#######################################################################
#
#                 Cambridge Crystallographic Data Centre
#                                CCDC 
#
#######################################################################
#
# If this CIF has been generated from an entry in the Cambridge 
# Structural Database, then it will include bibliographic, chemical, 
# crystal, experimental, refinement or atomic coordinate data resulting 
# from the CCDC's data processing and validation procedures.
#
#######################################################################

data_NIZYAY
_chemical_formula_moiety         'C14 H20 N8 O4,H2 O1'
_chemical_name_systematic        
"2a,7a,9b,10b-Tetramethyltetrahydro-2,3,4a,5a,7,8,9a,10a-octaazapentaleno[1',6':5,6,7]cycloocta[1,2,3-cd]pentalene-1,4,6,9(2H,3H,7H,8H)-tetrone monohydrate"
_symmetry_cell_setting           orthorhombic
_symmetry_space_group_name_H-M   'P c c n'
_symmetry_Int_Tables_number      56
_space_group_name_Hall           '-P 2ab 2ac'
loop_
_symmetry_equiv_pos_site_id
_symmetry_equiv_pos_as_xyz
1 x,y,z
2 1/2-x,1/2-y,z
3 1/2+x,-y,1/2-z
4 -x,1/2+y,1/2-z
5 -x,-y,-z
6 1/2+x,1/2+y,-z
7 1/2-x,y,1/2+z
8 x,1/2-y,1/2+z
_cell_length_a                   12.822(3)
_cell_length_b                   10.428(2)
_cell_length_c                   12.668(3)
_cell_angle_alpha                90
_cell_angle_beta                 90
_cell_angle_gamma                90
_cell_volume                     1693.81
_exptl_crystal_colour            colorless
_exptl_crystal_description       prism
_cell_formula_units_Z            4
loop_
_atom_site_label
_atom_site_type_symbol
_atom_site_fract_x
_atom_site_fract_y
_atom_site_fract_z
O1 O 0.2500 -0.2500 0.2406(2)
C1 C 0.11096(15) 0.07956(18) 0.34580(14)
C2 C 0.10454(13) 0.24272(16) 0.47317(14)
C3 C -0.00145(14) 0.23869(17) 0.40927(15)
C4 C 0.08184(14) 0.43322(17) 0.37503(14)
C5 C 0.25526(13) 0.07768(18) 0.47455(14)
H1 H 0.2577 -0.0141 0.4580
H2 H 0.2548 0.0861 0.5516
C6 C 0.09211(16) 0.2418(2) 0.59275(15)
H3 H 0.0562 0.3191 0.6150
H4 H 0.1604 0.2385 0.6257
H5 H 0.0519 0.1673 0.6138
C7 C -0.09865(15) 0.2034(2) 0.47060(18)
H6 H -0.1120 0.2682 0.5239
H7 H -0.0886 0.1209 0.5045
H8 H -0.1576 0.1985 0.4228
N1 N 0.15859(11) 0.12963(14) 0.43373(12)
N2 N 0.02190(13) 0.14407(17) 0.32896(14)
H9 H -0.0182 0.1303 0.2747
N3 N 0.15067(11) 0.36275(14) 0.43433(12)
N4 N -0.00855(13) 0.36758(16) 0.36741(15)
H10 H -0.0652 0.3994 0.3402
O2 O 0.14473(11) -0.01114(15) 0.29341(12)
O3 O 0.10028(11) 0.53990(13) 0.33877(12)
C1A C 0.38904(15) 0.42044(18) 0.34580(14)
C2A C 0.39546(13) 0.25728(16) 0.47317(14)
C3A C 0.50145(14) 0.26131(17) 0.40927(15)
C4A C 0.41816(14) 0.06678(17) 0.37503(14)
C5A C 0.24474(13) 0.42232(18) 0.47455(14)
H1A H 0.2423 0.5141 0.4580
H2A H 0.2452 0.4139 0.5516
C6A C 0.40789(16) 0.2582(2) 0.59275(15)
H3A H 0.4438 0.1809 0.6150
H4A H 0.3396 0.2615 0.6257
H5A H 0.4481 0.3327 0.6138
C7A C 0.59865(15) 0.2966(2) 0.47060(18)
H6A H 0.6120 0.2318 0.5239
H7A H 0.5886 0.3791 0.5045
H8A H 0.6576 0.3015 0.4228
N1A N 0.34141(11) 0.37037(14) 0.43373(12)
N2A N 0.47810(13) 0.35593(17) 0.32896(14)
H9A H 0.5182 0.3697 0.2747
N3A N 0.34933(11) 0.13725(14) 0.43433(12)
N4A N 0.50855(13) 0.13242(16) 0.36741(15)
H10A H 0.5652 0.1006 0.3402
O2A O 0.35527(11) 0.51114(15) 0.29341(12)
O3A O 0.39972(11) -0.03990(13) 0.33877(12)
loop_
_geom_bond_atom_site_label_1
_geom_bond_atom_site_label_2
_geom_bond_site_symmetry_1
_geom_bond_site_symmetry_2
C1 N1 1_555 1_555
C2 C3 1_555 1_555
C3 C7 1_555 1_555
C4 N3 1_555 1_555
C5 H1 1_555 1_555
H2 C5 1_555 1_555
C6 C2 1_555 1_555
H3 C6 1_555 1_555
H4 C6 1_555 1_555
H5 C6 1_555 1_555
C7 H6 1_555 1_555
H7 C7 1_555 1_555
H8 C7 1_555 1_555
N1 C2 1_555 1_555
N2 C1 1_555 1_555
H9 N2 1_555 1_555
N3 C2 1_555 1_555
N4 C3 1_555 1_555
H10 N4 1_555 1_555
O2 C1 1_555 1_555
O3 C4 1_555 1_555
C1A N1A 1_555 1_555
C2A C3A 1_555 1_555
C3A C7A 1_555 1_555
C4A N3A 1_555 1_555
C5A N3 1_555 1_555
H1A C5A 1_555 1_555
H2A C5A 1_555 1_555
C6A C2A 1_555 1_555
H3A C6A 1_555 1_555
H4A C6A 1_555 1_555
H5A C6A 1_555 1_555
C7A H6A 1_555 1_555
H7A C7A 1_555 1_555
H8A C7A 1_555 1_555
N1A C2A 1_555 1_555
N2A C1A 1_555 1_555
H9A N2A 1_555 1_555
N3A C5 1_555 1_555
N4A C3A 1_555 1_555
H10A N4A 1_555 1_555
O2A C1A 1_555 1_555
O3A C4A 1_555 1_555
C3 N2 1_555 1_555
C4 N4 1_555 1_555
C5 N1 1_555 1_555
C2A N3A 1_555 1_555
C3A N2A 1_555 1_555
C4A N4A 1_555 1_555
C5A N1A 1_555 1_555

#END
