
#######################################################################
#
#                 Cambridge Crystallographic Data Centre
#                                CCDC 
#
#######################################################################
#
# If this CIF has been generated from an entry in the Cambridge 
# Structural Database, then it will include bibliographic, chemical, 
# crystal, experimental, refinement or atomic coordinate data resulting 
# from the CCDC's data processing and validation procedures.
#
#######################################################################

data_NOBDIT
_chemical_name_common            '3-Hydroxybenzoic acid iloperidone monohydrate'
_chemical_formula_moiety         'C24 H27 F1 N2 O4,C7 H6 O3,H2 O1'
_chemical_name_systematic        
'3-Hydroxybenzoic acid 1-(4-(3-(4-(6-fluoro-1,2-benzoxazol-3-yl)piperidin-1-yl)propoxy)-3-methoxyphenyl)ethanone monohydrate'
_symmetry_cell_setting           monoclinic
_symmetry_space_group_name_H-M   'P 21'
_symmetry_Int_Tables_number      4
_space_group_name_Hall           'P 2yb'
loop_
_symmetry_equiv_pos_site_id
_symmetry_equiv_pos_as_xyz
1 x,y,z
2 -x,1/2+y,-z
_cell_length_a                   7.7620(8)
_cell_length_b                   13.8038(15)
_cell_length_c                   13.8544(15)
_cell_angle_alpha                90
_cell_angle_beta                 104.062(2)
_cell_angle_gamma                90
_cell_volume                     1439.95
_cell_formula_units_Z            2
loop_
_atom_site_label
_atom_site_type_symbol
_atom_site_fract_x
_atom_site_fract_y
_atom_site_fract_z
C1 C -0.2110(4) -0.1758(3) -0.0366(2)
H1 H -0.2836 -0.1549 -0.0966
C2 C -0.0505(5) -0.3044(2) 0.0687(2)
H2 H -0.0191 -0.3695 0.0748
C3 C -0.1463(4) -0.1146(2) 0.04270(19)
C4 C -0.0400(3) -0.14510(18) 0.13258(18)
C5 C -0.0110(3) -0.05817(19) 0.19093(19)
C6 C 0.0868(3) -0.04756(18) 0.29759(18)
H3 H 0.2023 -0.0797 0.3070
C7 C -0.0163(4) -0.09668(18) 0.36462(18)
H4 H -0.1339 -0.0682 0.3528
H5 H -0.0302 -0.1649 0.3478
C8 C 0.1183(4) 0.05754(19) 0.32979(19)
H6 H 0.1882 0.0890 0.2896
H7 H 0.0052 0.0909 0.3189
C9 C 0.2142(4) 0.0650(2) 0.43820(19)
H8 H 0.3299 0.0345 0.4484
H9 H 0.2325 0.1327 0.4565
C10 C 0.0764(4) -0.08639(17) 0.47390(18)
H10 H 0.0031 -0.1151 0.5139
H11 H 0.1880 -0.1214 0.4873
C11 C 0.2053(4) 0.02285(18) 0.61058(19)
H12 H 0.3212 -0.0071 0.6200
H13 H 0.1385 -0.0138 0.6489
C12 C 0.2286(4) 0.1249(2) 0.6497(2)
H14 H 0.1130 0.1524 0.6485
H15 H 0.2824 0.1639 0.6067
C13 C 0.3432(4) 0.12877(19) 0.7543(2)
H16 H 0.2811 0.1014 0.8008
H17 H 0.4526 0.0930 0.7593
C14 C 0.5276(3) 0.35302(18) 0.87501(18)
C15 C 0.4933(4) 0.5096(2) 0.8022(2)
H18 H 0.4453 0.5381 0.8533
H19 H 0.4419 0.5404 0.7397
H20 H 0.6198 0.5182 0.8185
C16 C 0.4875(3) 0.25370(18) 0.86289(18)
C17 C 0.5593(4) 0.1900(2) 0.9386(2)
H21 H 0.5349 0.1241 0.9304
C18 C 0.6675(4) 0.2237(2) 1.0266(2)
H22 H 0.7146 0.1802 1.0774
C19 C 0.6347(3) 0.38561(19) 0.96237(19)
H23 H 0.6603 0.4514 0.9704
C20 C 0.7067(4) 0.32116(19) 1.03996(19)
C21 C 0.8240(4) 0.3591(2) 1.1318(2)
C22 C 0.9025(5) 0.2917(3) 1.2147(2)
H24 H 0.9920 0.3250 1.2634
H25 H 0.9549 0.2375 1.1891
H26 H 0.8111 0.2692 1.2451
C23 C 0.0106(4) -0.2418(2) 0.1468(2)
H27 H 0.0829 -0.2632 0.2067
C24 C -0.1589(4) -0.2699(3) -0.0188(2)
F1 F -0.2192(3) -0.33513(17) -0.09308(16)
N1 N -0.0891(3) 0.01577(17) 0.14121(17)
N2 N 0.1118(3) 0.01746(14) 0.50328(14)
O1 O -0.1782(3) -0.01878(15) 0.04471(14)
O2 O 0.4531(3) 0.40944(13) 0.79509(14)
O3 O 0.3792(3) 0.22924(13) 0.77449(12)
O4 O 0.8575(3) 0.44601(17) 1.14068(17)
C25 C 0.2553(4) 0.6382(2) 0.4764(3)
C26 C 0.4474(4) 0.7669(2) 0.4306(2)
H28 H 0.4116 0.7463 0.3648
C27 C 0.5630(4) 0.8461(3) 0.4562(3)
H29 H 0.6052 0.8782 0.4076
C28 C 0.6133(4) 0.8756(2) 0.5535(3)
H30 H 0.6887 0.9286 0.5704
C29 C 0.5548(4) 0.8288(2) 0.6259(2)
C30 C 0.4425(4) 0.7508(2) 0.6012(2)
H31 H 0.4033 0.7185 0.6508
C31 C 0.3872(3) 0.71983(19) 0.5044(2)
O5 O 0.2088(4) 0.6155(3) 0.3875(2)
O6 O 0.1969(3) 0.6015(2) 0.5404(2)
H32 H 0.2501 0.6147 0.6032
O7 O 0.5950(4) 0.8564(2) 0.72317(17)
H33 H 0.6574 0.9051 0.7302
O8 O 0.2021(4) 0.5099(2) 0.2321(2)
H34 H 0.2022 0.5457 0.2948
H35 H 0.0834 0.4870 0.1934
loop_
_geom_bond_atom_site_label_1
_geom_bond_atom_site_label_2
_geom_bond_site_symmetry_1
_geom_bond_site_symmetry_2
C1 H1 1_555 1_555
C2 H2 1_555 1_555
C3 C1 1_555 1_555
C4 C3 1_555 1_555
C5 C4 1_555 1_555
C6 C5 1_555 1_555
H3 C6 1_555 1_555
C7 C6 1_555 1_555
H4 C7 1_555 1_555
H5 C7 1_555 1_555
C8 C6 1_555 1_555
H6 C8 1_555 1_555
H7 C8 1_555 1_555
C9 C8 1_555 1_555
H8 C9 1_555 1_555
H9 C9 1_555 1_555
C10 C7 1_555 1_555
H10 C10 1_555 1_555
H11 C10 1_555 1_555
C11 H12 1_555 1_555
H13 C11 1_555 1_555
C12 C11 1_555 1_555
H14 C12 1_555 1_555
H15 C12 1_555 1_555
C13 C12 1_555 1_555
H16 C13 1_555 1_555
H17 C13 1_555 1_555
C14 C16 1_555 1_555
C15 H18 1_555 1_555
H19 C15 1_555 1_555
H20 C15 1_555 1_555
C16 C17 1_555 1_555
C17 H21 1_555 1_555
C18 C17 1_555 1_555
H22 C18 1_555 1_555
C19 C14 1_555 1_555
H23 C19 1_555 1_555
C20 C18 1_555 1_555
C21 C20 1_555 1_555
C22 C21 1_555 1_555
H24 C22 1_555 1_555
H25 C22 1_555 1_555
H26 C22 1_555 1_555
C23 C2 1_555 1_555
H27 C23 1_555 1_555
C24 C1 1_555 1_555
F1 C24 1_555 1_555
N1 C5 1_555 1_555
N2 C9 1_555 1_555
O1 C3 1_555 1_555
O2 C14 1_555 1_555
O3 C13 1_555 1_555
O4 C21 1_555 1_555
C25 C31 1_555 1_555
C26 H28 1_555 1_555
C27 C26 1_555 1_555
H29 C27 1_555 1_555
C28 C27 1_555 1_555
H30 C28 1_555 1_555
C29 C28 1_555 1_555
C30 C29 1_555 1_555
H31 C30 1_555 1_555
C31 C26 1_555 1_555
O5 C25 1_555 1_555
O6 C25 1_555 1_555
H32 O6 1_555 1_555
O7 C29 1_555 1_555
H33 O7 1_555 1_555
O8 H34 1_555 1_555
H35 O8 1_555 1_555
C2 C24 1_555 1_555
C4 C23 1_555 1_555
C10 N2 1_555 1_555
C11 N2 1_555 1_555
C15 O2 1_555 1_555
C16 O3 1_555 1_555
C19 C20 1_555 1_555
N1 O1 1_555 1_555
C30 C31 1_555 1_555

#END
