
#######################################################################
#
#                 Cambridge Crystallographic Data Centre
#                                CCDC 
#
#######################################################################
#
# If this CIF has been generated from an entry in the Cambridge 
# Structural Database, then it will include bibliographic, chemical, 
# crystal, experimental, refinement or atomic coordinate data resulting 
# from the CCDC's data processing and validation procedures.
#
#######################################################################

data_NOBDUF
_chemical_formula_moiety         'C24 H28 F1 N2 O4 1+,C7 H5 O4 1-,H2 O1'
_chemical_name_systematic        
'3-(1-(3-(4-Acetyl-2-methoxyphenoxy)propyl)piperidin-4-yl)-6-fluoro-1,2-benzoxazol-2-ium 3,5-dihydroxybenzoate monohydrate'
_symmetry_cell_setting           monoclinic
_symmetry_space_group_name_H-M   'P 21'
_symmetry_Int_Tables_number      4
_space_group_name_Hall           'P 2yb'
loop_
_symmetry_equiv_pos_site_id
_symmetry_equiv_pos_as_xyz
1 x,y,z
2 -x,1/2+y,-z
_cell_length_a                   7.8524(16)
_cell_length_b                   13.865(3)
_cell_length_c                   14.021(3)
_cell_angle_alpha                90
_cell_angle_beta                 105.287(3)
_cell_angle_gamma                90
_cell_volume                     1472.5
_cell_formula_units_Z            2
loop_
_atom_site_label
_atom_site_type_symbol
_atom_site_fract_x
_atom_site_fract_y
_atom_site_fract_z
C1 C 0.4382(3) 0.24774(18) 0.44337(16)
H1 H 0.4020 0.2707 0.3789
C2 C 0.6140(3) 0.13857(19) 0.56259(16)
H2 H 0.6953 0.0884 0.5777
C3 C 0.5481(3) 0.17970(19) 0.63572(16)
C4 C 0.3727(3) 0.28841(17) 0.51711(16)
C5 C 0.4290(3) 0.25572(19) 0.61290(16)
H3 H 0.3873 0.2844 0.6623
C6 C 0.5575(3) 0.17300(18) 0.46709(16)
C7 C 0.2309(3) 0.36498(18) 0.49034(19)
O1 O 0.1520(3) 0.38339(17) 0.55492(14)
O2 O 0.1964(3) 0.40161(17) 0.40808(16)
O3 O 0.5926(3) 0.14577(16) 0.73031(12)
H4 H 0.6556 0.0981 0.7339
O4 O 0.6253(3) 0.12716(17) 0.39916(13)
H5 H 0.6212 0.1634 0.3524
C8 C 0.5039(3) 0.75234(18) 0.86598(16)
C9 C 0.1096(3) 1.05376(18) 0.29870(16)
H6 H 0.2198 1.0904 0.3099
C10 C 0.3618(4) 0.87502(19) 0.75287(17)
H7 H 0.4701 0.9108 0.7582
H8 H 0.3008 0.9028 0.7981
C11 C 0.2194(3) 0.98046(18) 0.60960(16)
H9 H 0.1477 1.0151 0.6450
H10 H 0.3332 1.0124 0.6228
C12 C 0.2461(3) 0.87815(18) 0.64811(17)
H11 H 0.1323 0.8497 0.6460
H12 H 0.3002 0.8403 0.6058
C13 C 0.6401(3) 0.62082(19) 0.96998(16)
H13 H 0.6604 0.5551 0.9801
C14 C 0.0857(3) 1.08718(16) 0.47229(15)
H14 H 0.1920 1.1261 0.4892
H15 H 0.0064 1.1114 0.5094
C15 C -0.0015(3) 1.09674(18) 0.36300(16)
H16 H -0.0223 1.1645 0.3468
H17 H -0.1151 1.0645 0.3479
C16 C 0.1537(4) 0.94994(18) 0.33107(17)
H18 H 0.0458 0.9123 0.3178
H19 H 0.2288 0.9224 0.2932
C17 C 0.2470(3) 0.9447(2) 0.44034(18)
H20 H 0.2759 0.8781 0.4590
H21 H 0.3564 0.9810 0.4534
C18 C 0.0101(3) 1.06326(18) 0.19233(16)
C19 C -0.0300(3) 1.15017(18) 0.13533(16)
C20 C 0.5349(3) 0.65298(18) 0.88135(17)
C21 C 0.5792(4) 0.81692(19) 0.93964(19)
H22 H 0.5585 0.8827 0.9297
C22 C 0.7164(3) 0.6856(2) 1.04461(17)
C23 C -0.1368(3) 1.1191(2) 0.04570(17)
C24 C 0.8335(4) 0.6476(2) 1.13837(19)
C25 C 0.6864(4) 0.7836(2) 1.02891(18)
H23 H 0.7383 0.8273 1.0784
C26 C -0.1677(4) 1.2742(2) -0.0137(2)
C27 C 0.0107(4) 1.2475(2) 0.1506(2)
H24 H 0.0822 1.2695 0.2105
C28 C 0.9212(5) 0.7158(3) 1.2189(2)
H25 H 0.9916 0.6800 1.2739
H26 H 0.8329 0.7518 1.2398
H27 H 0.9953 0.7593 1.1948
C29 C -0.2104(4) 1.1807(2) -0.03205(19)
H28 H -0.2832 1.1593 -0.0918
C30 C -0.0584(4) 1.3105(2) 0.0740(2)
H29 H -0.0326 1.3760 0.0807
C31 C 0.4817(4) 0.4955(2) 0.8107(2)
H30 H 0.4185 0.4649 0.7504
H31 H 0.4390 0.4716 0.8644
H32 H 0.6053 0.4816 0.8232
F1 F -0.2364(3) 1.33913(16) -0.08627(13)
N1 N -0.0630(3) 0.98944(17) 0.14181(16)
H33 H -0.0555 0.9307 0.1621
N2 N 0.1319(2) 0.98504(13) 0.50097(13)
O5 O -0.1584(3) 1.02254(15) 0.04633(13)
O6 O 0.3993(2) 0.77578(13) 0.77489(12)
O7 O 0.4552(3) 0.59660(13) 0.80228(12)
O8 O 0.8591(3) 0.56124(16) 1.14844(15)
O9 O 0.2033(3) 0.48965(16) 0.24068(14)
H34 H 0.1659 0.4528 0.3037
H35 H 0.0909 0.5012 0.2112
loop_
_geom_bond_atom_site_label_1
_geom_bond_atom_site_label_2
_geom_bond_site_symmetry_1
_geom_bond_site_symmetry_2
C1 H1 1_555 1_555
C2 H2 1_555 1_555
C3 C2 1_555 1_555
C4 C1 1_555 1_555
C5 C3 1_555 1_555
H3 C5 1_555 1_555
C6 C1 1_555 1_555
C7 C4 1_555 1_555
O1 C7 1_555 1_555
O2 C7 1_555 1_555
O3 C3 1_555 1_555
H4 O3 1_555 1_555
O4 C6 1_555 1_555
H5 O4 1_555 1_555
C8 C20 1_555 1_555
C9 H6 1_555 1_555
C10 H7 1_555 1_555
H8 C10 1_555 1_555
C11 H9 1_555 1_555
H10 C11 1_555 1_555
C12 C10 1_555 1_555
H11 C12 1_555 1_555
H12 C12 1_555 1_555
C13 H13 1_555 1_555
C14 H14 1_555 1_555
H15 C14 1_555 1_555
C15 C9 1_555 1_555
H16 C15 1_555 1_555
H17 C15 1_555 1_555
C16 C9 1_555 1_555
H18 C16 1_555 1_555
H19 C16 1_555 1_555
C17 C16 1_555 1_555
H20 C17 1_555 1_555
H21 C17 1_555 1_555
C18 C9 1_555 1_555
C19 C18 1_555 1_555
C20 C13 1_555 1_555
C21 C8 1_555 1_555
H22 C21 1_555 1_555
C22 C13 1_555 1_555
C23 C19 1_555 1_555
C24 C22 1_555 1_555
C25 C21 1_555 1_555
H23 C25 1_555 1_555
C26 C29 1_555 1_555
C27 C19 1_555 1_555
H24 C27 1_555 1_555
C28 C24 1_555 1_555
H25 C28 1_555 1_555
H26 C28 1_555 1_555
H27 C28 1_555 1_555
C29 C23 1_555 1_555
H28 C29 1_555 1_555
C30 C26 1_555 1_555
H29 C30 1_555 1_555
C31 H30 1_555 1_555
H31 C31 1_555 1_555
H32 C31 1_555 1_555
F1 C26 1_555 1_555
N1 C18 1_555 1_555
H33 N1 1_555 1_555
N2 C11 1_555 1_555
O5 C23 1_555 1_555
O6 C8 1_555 1_555
O7 C20 1_555 1_555
O8 C24 1_555 1_555
O9 H34 1_555 1_555
H35 O9 1_555 1_555
C2 C6 1_555 1_555
C4 C5 1_555 1_555
C10 O6 1_555 1_555
C11 C12 1_555 1_555
C14 C15 1_555 1_555
C14 N2 1_555 1_555
C17 N2 1_555 1_555
C22 C25 1_555 1_555
C27 C30 1_555 1_555
C31 O7 1_555 1_555
N1 O5 1_555 1_555

#END
