
#######################################################################
#
#                 Cambridge Crystallographic Data Centre
#                                CCDC 
#
#######################################################################
#
# If this CIF has been generated from an entry in the Cambridge 
# Structural Database, then it will include bibliographic, chemical, 
# crystal, experimental, refinement or atomic coordinate data resulting 
# from the CCDC's data processing and validation procedures.
#
#######################################################################

data_NOBFEP
_chemical_formula_moiety         'C36 H24'
_chemical_name_systematic        1,3,5-tris(2'-Naphthyl)benzene
_symmetry_cell_setting           orthorhombic
_symmetry_space_group_name_H-M   'P n a 21'
_symmetry_Int_Tables_number      33
_space_group_name_Hall           'P 2c -2n'
loop_
_symmetry_equiv_pos_site_id
_symmetry_equiv_pos_as_xyz
1 x,y,z
2 -x,-y,1/2+z
3 1/2+x,1/2-y,z
4 1/2-x,1/2+y,1/2+z
_cell_length_a                   7.3174(3)
_cell_length_b                   23.2626(13)
_cell_length_c                   14.4143(6)
_cell_angle_alpha                90
_cell_angle_beta                 90
_cell_angle_gamma                90
_cell_volume                     2453.63
_exptl_crystal_colour            colorless
_exptl_crystal_description       platelet
_cell_formula_units_Z            4
loop_
_atom_site_label
_atom_site_type_symbol
_atom_site_fract_x
_atom_site_fract_y
_atom_site_fract_z
C1 C 0.2238(6) 0.3215(2) 0.0939(4)
C2 C 0.1994(6) 0.3742(2) 0.1406(4)
H1 H 0.1938 0.4079 0.1061
C3 C 0.1837(6) 0.3775(2) 0.2363(4)
C4 C 0.1892(6) 0.3258(2) 0.2861(4)
H2 H 0.1763 0.3267 0.3502
C5 C 0.2134(6) 0.2736(2) 0.2422(4)
C6 C 0.2332(6) 0.2721(2) 0.1466(4)
H3 H 0.2533 0.2370 0.1173
C7 C 0.2480(6) 0.3182(2) -0.0070(4)
C8 C 0.1735(6) 0.2701(2) -0.0595(4)
H4 H 0.1117 0.2408 -0.0287
C9 C 0.1939(7) 0.2677(3) -0.1536(4)
H5 H 0.1442 0.2366 -0.1853
C10 C 0.2852(6) 0.3096(3) -0.2042(4)
C11 C 0.3571(6) 0.3569(3) -0.1553(4)
C12 C 0.3359(6) 0.3602(2) -0.0577(4)
H6 H 0.3830 0.3920 -0.0266
C13 C 0.4514(7) 0.3999(2) -0.2051(4)
H7 H 0.4968 0.4315 -0.1731
C14 C 0.4786(7) 0.3965(3) -0.2995(5)
H8 H 0.5439 0.4249 -0.3307
C15 C 0.4049(8) 0.3490(3) -0.3479(5)
H9 H 0.4200 0.3465 -0.4119
C16 C 0.3104(7) 0.3060(3) -0.3015(4)
H10 H 0.2636 0.2749 -0.3342
C17 C 0.1605(6) 0.4325(2) 0.2837(4)
C18 C 0.0559(6) 0.47817(19) 0.2444(4)
H11 H -0.0002 0.4729 0.1872
C19 C 0.0367(6) 0.52929(19) 0.2892(4)
H12 H -0.0342 0.5581 0.2626
C20 C 0.1221(6) 0.5393(2) 0.3750(4)
C21 C 0.2257(6) 0.4945(2) 0.4176(4)
C22 C 0.2408(6) 0.4416(2) 0.3698(4)
H13 H 0.3068 0.4118 0.3970
C23 C 0.3078(6) 0.5038(2) 0.5052(4)
H14 H 0.3733 0.4745 0.5337
C24 C 0.2906(7) 0.5560(2) 0.5479(4)
H15 H 0.3436 0.5618 0.6057
C25 C 0.1945(7) 0.6005(3) 0.5056(5)
H16 H 0.1856 0.6359 0.5353
C26 C 0.1121(7) 0.5928(2) 0.4203(4)
H17 H 0.0497 0.6231 0.3926
C27 C 0.2239(6) 0.2196(2) 0.2982(4)
C28 C 0.1565(6) 0.1678(2) 0.2595(4)
H18 H 0.1037 0.1682 0.2008
C29 C 0.1688(6) 0.1153(3) 0.3094(4)
H19 H 0.1262 0.0810 0.2841
C30 C 0.2474(6) 0.1169(2) 0.3978(4)
C31 C 0.3107(6) 0.1669(3) 0.4381(4)
C32 C 0.2982(6) 0.2204(2) 0.3847(4)
H20 H 0.3407 0.2547 0.4098
C33 C 0.3958(7) 0.1682(3) 0.5235(4)
H21 H 0.4409 0.2020 0.5493
C34 C 0.4096(8) 0.1143(3) 0.5694(5)
H22 H 0.4671 0.1123 0.6268
C35 C 0.3379(8) 0.0637(3) 0.5295(5)
H23 H 0.3463 0.0297 0.5631
C36 C 0.2577(7) 0.0621(3) 0.4452(4)
H24 H 0.2124 0.0283 0.4195
loop_
_geom_bond_atom_site_label_1
_geom_bond_atom_site_label_2
_geom_bond_site_symmetry_1
_geom_bond_site_symmetry_2
C1 C2 1_555 1_555
C2 H1 1_555 1_555
C3 C2 1_555 1_555
C4 C3 1_555 1_555
H2 C4 1_555 1_555
C5 C4 1_555 1_555
C6 C1 1_555 1_555
H3 C6 1_555 1_555
C7 C1 1_555 1_555
C8 C7 1_555 1_555
H4 C8 1_555 1_555
C9 C8 1_555 1_555
H5 C9 1_555 1_555
C10 C9 1_555 1_555
C11 C10 1_555 1_555
C12 C7 1_555 1_555
H6 C12 1_555 1_555
C13 C11 1_555 1_555
H7 C13 1_555 1_555
C14 C13 1_555 1_555
H8 C14 1_555 1_555
C15 C14 1_555 1_555
H9 C15 1_555 1_555
C16 C10 1_555 1_555
H10 C16 1_555 1_555
C17 C3 1_555 1_555
C18 C17 1_555 1_555
H11 C18 1_555 1_555
C19 C18 1_555 1_555
H12 C19 1_555 1_555
C20 C19 1_555 1_555
C21 C20 1_555 1_555
C22 C17 1_555 1_555
H13 C22 1_555 1_555
C23 C21 1_555 1_555
H14 C23 1_555 1_555
C24 C23 1_555 1_555
H15 C24 1_555 1_555
C25 C24 1_555 1_555
H16 C25 1_555 1_555
C26 C20 1_555 1_555
H17 C26 1_555 1_555
C27 C5 1_555 1_555
C28 C27 1_555 1_555
H18 C28 1_555 1_555
C29 C28 1_555 1_555
H19 C29 1_555 1_555
C30 C29 1_555 1_555
C31 C30 1_555 1_555
C32 C27 1_555 1_555
H20 C32 1_555 1_555
C33 C31 1_555 1_555
H21 C33 1_555 1_555
C34 C33 1_555 1_555
H22 C34 1_555 1_555
C35 C34 1_555 1_555
H23 C35 1_555 1_555
C36 C30 1_555 1_555
H24 C36 1_555 1_555
C5 C6 1_555 1_555
C11 C12 1_555 1_555
C15 C16 1_555 1_555
C21 C22 1_555 1_555
C25 C26 1_555 1_555
C31 C32 1_555 1_555
C35 C36 1_555 1_555

#END
