
#######################################################################
#
#                 Cambridge Crystallographic Data Centre
#                                CCDC 
#
#######################################################################
#
# If this CIF has been generated from an entry in the Cambridge 
# Structural Database, then it will include bibliographic, chemical, 
# crystal, experimental, refinement or atomic coordinate data resulting 
# from the CCDC's data processing and validation procedures.
#
#######################################################################

data_NOBGIW
_chemical_formula_moiety         'C44 H82 Mg3 N4 O6'
_chemical_name_systematic        
(\m~3~-2-(dimethylamino)ethanolato)-tris(\m~2~-2-(dimethylamino)ethanolato)-bis(2,6-di-t-butylphenolato)-tri-magnesium
_symmetry_cell_setting           monoclinic
_symmetry_space_group_name_H-M   'P 21/c'
_symmetry_Int_Tables_number      14
_space_group_name_Hall           '-P 2ybc'
loop_
_symmetry_equiv_pos_site_id
_symmetry_equiv_pos_as_xyz
1 x,y,z
2 -x,1/2+y,1/2-z
3 -x,-y,-z
4 x,1/2-y,1/2+z
_cell_length_a                   16.8271(5)
_cell_length_b                   16.2974(4)
_cell_length_c                   19.0381(6)
_cell_angle_alpha                90
_cell_angle_beta                 108.324(3)
_cell_angle_gamma                90
_cell_volume                     4956.23
_exptl_crystal_colour            colorless
_exptl_crystal_description       block
_cell_formula_units_Z            4
loop_
_atom_site_label
_atom_site_type_symbol
_atom_site_fract_x
_atom_site_fract_y
_atom_site_fract_z
Mg1 Mg 0.14846(4) 0.30713(4) 0.28390(4)
Mg2 Mg 0.34029(4) 0.27921(4) 0.37637(4)
Mg3 Mg 0.27218(4) 0.44788(4) 0.33309(4)
N1 N 0.05277(11) 0.24768(12) 0.33514(11)
N2 N 0.23812(11) 0.55708(11) 0.38866(11)
N3 N 0.40732(11) 0.26654(11) 0.51049(10)
N4 N 0.31878(10) 0.49617(11) 0.24680(10)
O1 O 0.08710(8) 0.28046(9) 0.18338(8)
O2 O 0.41956(8) 0.21864(8) 0.34213(8)
O3 O 0.22581(8) 0.24808(9) 0.37199(8)
O4 O 0.15185(8) 0.42491(9) 0.31295(8)
O5 O 0.36416(8) 0.39681(8) 0.40878(8)
O6 O 0.26788(8) 0.33762(8) 0.27818(7)
C1 C 0.02995(12) 0.25206(14) 0.12351(12)
C2 C -0.03933(13) 0.30234(14) 0.08271(12)
C3 C -0.10129(13) 0.26765(15) 0.02322(12)
H1 H -0.1469 0.2997 -0.0024
C4 C -0.09743(13) 0.18759(15) 0.00096(12)
H2 H -0.1407 0.1655 -0.0377
C5 C -0.02834(13) 0.14107(15) 0.03700(12)
H3 H -0.0249 0.0877 0.0209
C6 C 0.03665(12) 0.17098(13) 0.09673(11)
C7 C -0.04637(14) 0.39311(16) 0.10203(15)
C8 C -0.06307(16) 0.40080(18) 0.17645(16)
H4 H -0.1146 0.3736 0.1735
H5 H -0.0670 0.4577 0.1878
H6 H -0.0180 0.3759 0.2146
C9 C 0.03417(15) 0.43928(16) 0.10439(18)
H7 H 0.0284 0.4962 0.1147
H8 H 0.0437 0.4341 0.0574
H9 H 0.0807 0.4163 0.1424
C10 C -0.11921(17) 0.43709(17) 0.04402(17)
H10 H -0.1713 0.4126 0.0433
H11 H -0.1123 0.4319 -0.0039
H12 H -0.1193 0.4941 0.0567
C11 C 0.11561(13) 0.11829(13) 0.12918(11)
C12 C 0.13084(13) 0.09841(14) 0.21112(12)
H13 H 0.1774 0.0615 0.2281
H14 H 0.0817 0.0732 0.2169
H15 H 0.1429 0.1481 0.2396
C13 C 0.19093(13) 0.16445(14) 0.11897(12)
H16 H 0.1972 0.2163 0.1440
H17 H 0.1819 0.1734 0.0672
H18 H 0.2408 0.1324 0.1393
C14 C 0.11019(14) 0.03562(14) 0.08953(13)
H19 H 0.1614 0.0058 0.1105
H20 H 0.1016 0.0449 0.0379
H21 H 0.0642 0.0045 0.0953
C15 C 0.48726(12) 0.17205(13) 0.36780(11)
C16 C 0.48062(13) 0.08727(13) 0.38365(11)
C17 C 0.55227(13) 0.04665(14) 0.42723(12)
H22 H 0.5477 -0.0073 0.4414
C18 C 0.62972(14) 0.08430(15) 0.44990(13)
H23 H 0.6756 0.0581 0.4827
C19 C 0.63797(13) 0.16144(15) 0.42308(12)
H24 H 0.6910 0.1847 0.4346
C20 C 0.56922(13) 0.20545(13) 0.37925(11)
C21 C 0.39828(13) 0.03959(13) 0.34945(12)
C22 C 0.32805(13) 0.06635(13) 0.38007(12)
H25 H 0.3483 0.0652 0.4332
H26 H 0.2814 0.0295 0.3626
H27 H 0.3105 0.1210 0.3636
C23 C 0.37134(14) 0.05201(15) 0.26511(12)
H28 H 0.3612 0.1092 0.2539
H29 H 0.3211 0.0215 0.2423
H30 H 0.4150 0.0331 0.2466
C24 C 0.41055(15) -0.05287(14) 0.36384(14)
H31 H 0.4564 -0.0716 0.3482
H32 H 0.3604 -0.0814 0.3366
H33 H 0.4225 -0.0635 0.4157
C25 C 0.58182(13) 0.28510(14) 0.34089(12)
C26 C 0.53120(13) 0.27919(14) 0.25828(12)
H34 H 0.5528 0.2353 0.2360
H35 H 0.5357 0.3299 0.2342
H36 H 0.4735 0.2687 0.2531
C27 C 0.55561(13) 0.36131(14) 0.37493(13)
H37 H 0.4978 0.3566 0.3720
H38 H 0.5632 0.4092 0.3484
H39 H 0.5894 0.3659 0.4258
C28 C 0.67403(13) 0.29799(16) 0.34528(14)
H40 H 0.7074 0.3056 0.3960
H41 H 0.6784 0.3457 0.3171
H42 H 0.6936 0.2508 0.3255
C29 C 0.19090(13) 0.20968(14) 0.42140(12)
H43 H 0.1901 0.2478 0.4603
H44 H 0.2250 0.1630 0.4441
C30 C 0.10301(14) 0.18143(15) 0.38125(13)
H45 H 0.1050 0.1349 0.3501
H46 H 0.0764 0.1636 0.4170
C31 C -0.02386(14) 0.21118(17) 0.28469(15)
H47 H -0.0545 0.1844 0.3130
H48 H -0.0092 0.1718 0.2533
H49 H -0.0579 0.2535 0.2548
C32 C 0.02887(15) 0.30747(17) 0.38276(15)
H50 H -0.0071 0.3483 0.3526
H51 H 0.0782 0.3333 0.4148
H52 H -0.0001 0.2798 0.4120
C33 C 0.10355(13) 0.48745(14) 0.33081(15)
H53 H 0.0916 0.4731 0.3759
H54 H 0.0507 0.4927 0.2914
C34 C 0.15006(14) 0.56826(14) 0.34132(13)
H55 H 0.1490 0.5898 0.2935
H56 H 0.1226 0.6076 0.3642
C35 C 0.23893(15) 0.52962(16) 0.46322(13)
H57 H 0.2952 0.5316 0.4966
H58 H 0.2182 0.4744 0.4603
H59 H 0.2039 0.5651 0.4810
C36 C 0.28280(17) 0.63578(16) 0.39701(17)
H60 H 0.2767 0.6583 0.3490
H61 H 0.3411 0.6272 0.4231
H62 H 0.2598 0.6732 0.4244
C37 C 0.41650(14) 0.41291(14) 0.48110(12)
H63 H 0.4053 0.4672 0.4952
H64 H 0.4742 0.4101 0.4833
C38 C 0.39778(17) 0.35022(16) 0.53481(14)
H65 H 0.4360 0.3588 0.5843
H66 H 0.3411 0.3580 0.5361
C39 C 0.37551(17) 0.20862(17) 0.55668(14)
H67 H 0.4097 0.2130 0.6075
H68 H 0.3778 0.1535 0.5397
H69 H 0.3187 0.2224 0.5524
C40 C 0.49717(16) 0.24643(19) 0.52592(15)
H70 H 0.5235 0.2415 0.5784
H71 H 0.5239 0.2893 0.5070
H72 H 0.5022 0.1955 0.5024
C41 C 0.28947(12) 0.34916(13) 0.21271(11)
H73 H 0.2392 0.3600 0.1717
H74 H 0.3148 0.2994 0.2016
C42 C 0.35014(13) 0.42009(13) 0.22094(12)
H75 H 0.4038 0.4052 0.2561
H76 H 0.3586 0.4306 0.1737
C43 C 0.25067(14) 0.53324(15) 0.18545(13)
H77 H 0.2335 0.5841 0.2017
H78 H 0.2039 0.4963 0.1707
H79 H 0.2705 0.5434 0.1442
C44 C 0.38933(14) 0.55516(14) 0.27026(14)
H80 H 0.4104 0.5654 0.2297
H81 H 0.4331 0.5326 0.3111
H82 H 0.3701 0.6057 0.2852
C45? C 0.4673(8) 0.3407(9) 0.5093(7)
H83? H 0.5044 0.3513 0.5589
H84? H 0.5011 0.3276 0.4779
C46? C 0.3518(9) 0.2957(9) 0.5497(8)
H85? H 0.3788 0.2905 0.6020
H86? H 0.3013 0.2638 0.5355
H87? H 0.3384 0.3523 0.5376
C47? C 0.4560(10) 0.1980(10) 0.5371(7)
H88? H 0.4769 0.2002 0.5902
H89? H 0.5022 0.1967 0.5177
H90? H 0.4227 0.1494 0.5220
loop_
_geom_bond_atom_site_label_1
_geom_bond_atom_site_label_2
_geom_bond_site_symmetry_1
_geom_bond_site_symmetry_2
Mg1 N1 1_555 1_555
Mg2 O2 1_555 1_555
Mg3 N2 1_555 1_555
N1 C30 1_555 1_555
N2 C34 1_555 1_555
N3 C38 1_555 1_555
N4 Mg3 1_555 1_555
O1 Mg1 1_555 1_555
O2 C15 1_555 1_555
O3 Mg1 1_555 1_555
O4 Mg1 1_555 1_555
O5 Mg2 1_555 1_555
O6 Mg1 1_555 1_555
C1 O1 1_555 1_555
C2 C1 1_555 1_555
C3 C2 1_555 1_555
H1 C3 1_555 1_555
C4 C3 1_555 1_555
H2 C4 1_555 1_555
C5 C4 1_555 1_555
H3 C5 1_555 1_555
C6 C1 1_555 1_555
C7 C2 1_555 1_555
C8 C7 1_555 1_555
H4 C8 1_555 1_555
H5 C8 1_555 1_555
H6 C8 1_555 1_555
C9 C7 1_555 1_555
H7 C9 1_555 1_555
H8 C9 1_555 1_555
H9 C9 1_555 1_555
C10 C7 1_555 1_555
H10 C10 1_555 1_555
H11 C10 1_555 1_555
H12 C10 1_555 1_555
C11 C6 1_555 1_555
C12 C11 1_555 1_555
H13 C12 1_555 1_555
H14 C12 1_555 1_555
H15 C12 1_555 1_555
C13 C11 1_555 1_555
H16 C13 1_555 1_555
H17 C13 1_555 1_555
H18 C13 1_555 1_555
C14 C11 1_555 1_555
H19 C14 1_555 1_555
H20 C14 1_555 1_555
H21 C14 1_555 1_555
C15 C16 1_555 1_555
C16 C17 1_555 1_555
C17 H22 1_555 1_555
C18 C17 1_555 1_555
H23 C18 1_555 1_555
C19 C18 1_555 1_555
H24 C19 1_555 1_555
C20 C15 1_555 1_555
C21 C16 1_555 1_555
C22 C21 1_555 1_555
H25 C22 1_555 1_555
H26 C22 1_555 1_555
H27 C22 1_555 1_555
C23 C21 1_555 1_555
H28 C23 1_555 1_555
H29 C23 1_555 1_555
H30 C23 1_555 1_555
C24 C21 1_555 1_555
H31 C24 1_555 1_555
H32 C24 1_555 1_555
H33 C24 1_555 1_555
C25 C20 1_555 1_555
C26 C25 1_555 1_555
H34 C26 1_555 1_555
H35 C26 1_555 1_555
H36 C26 1_555 1_555
C27 C25 1_555 1_555
H37 C27 1_555 1_555
H38 C27 1_555 1_555
H39 C27 1_555 1_555
C28 C25 1_555 1_555
H40 C28 1_555 1_555
H41 C28 1_555 1_555
H42 C28 1_555 1_555
C29 O3 1_555 1_555
H43 C29 1_555 1_555
H44 C29 1_555 1_555
C30 C29 1_555 1_555
H45 C30 1_555 1_555
H46 C30 1_555 1_555
C31 N1 1_555 1_555
H47 C31 1_555 1_555
H48 C31 1_555 1_555
H49 C31 1_555 1_555
C32 N1 1_555 1_555
H50 C32 1_555 1_555
H51 C32 1_555 1_555
H52 C32 1_555 1_555
C33 O4 1_555 1_555
H53 C33 1_555 1_555
H54 C33 1_555 1_555
C34 C33 1_555 1_555
H55 C34 1_555 1_555
H56 C34 1_555 1_555
C35 N2 1_555 1_555
H57 C35 1_555 1_555
H58 C35 1_555 1_555
H59 C35 1_555 1_555
C36 N2 1_555 1_555
H60 C36 1_555 1_555
H61 C36 1_555 1_555
H62 C36 1_555 1_555
C37 O5 1_555 1_555
H63 C37 1_555 1_555
H64 C37 1_555 1_555
C38 C37 1_555 1_555
H65 C38 1_555 1_555
H66 C38 1_555 1_555
C39 N3 1_555 1_555
H67 C39 1_555 1_555
H68 C39 1_555 1_555
H69 C39 1_555 1_555
C40 N3 1_555 1_555
H70 C40 1_555 1_555
H71 C40 1_555 1_555
H72 C40 1_555 1_555
C41 O6 1_555 1_555
H73 C41 1_555 1_555
H74 C41 1_555 1_555
C42 N4 1_555 1_555
H75 C42 1_555 1_555
H76 C42 1_555 1_555
C43 N4 1_555 1_555
H77 C43 1_555 1_555
H78 C43 1_555 1_555
H79 C43 1_555 1_555
C44 N4 1_555 1_555
H80 C44 1_555 1_555
H81 C44 1_555 1_555
H82 C44 1_555 1_555
Mg2 O3 1_555 1_555
Mg2 O6 1_555 1_555
Mg3 O4 1_555 1_555
Mg3 O5 1_555 1_555
Mg3 O6 1_555 1_555
C5 C6 1_555 1_555
C19 C20 1_555 1_555
C41 C42 1_555 1_555

#END
