
#######################################################################
#
#                 Cambridge Crystallographic Data Centre
#                                CCDC 
#
#######################################################################
#
# If this CIF has been generated from an entry in the Cambridge 
# Structural Database, then it will include bibliographic, chemical, 
# crystal, experimental, refinement or atomic coordinate data resulting 
# from the CCDC's data processing and validation procedures.
#
#######################################################################

data_NOBGES
_chemical_formula_moiety         'C52 H102 Mg4 N6 O8,2(C6 H6)'
_chemical_name_systematic        
'bis(\m~3~-2-(dimethylamino)ethanolato)-tetrakis(\m~2~-2-(dimethylamino)ethanolato)-bis(2,6-di-t-butylphenolato)-tetra-magnesium benzene solvate'
_symmetry_cell_setting           monoclinic
_symmetry_space_group_name_H-M   'P 21/n'
_symmetry_Int_Tables_number      14
_space_group_name_Hall           '-P 2yn'
loop_
_symmetry_equiv_pos_site_id
_symmetry_equiv_pos_as_xyz
1 x,y,z
2 1/2-x,1/2+y,1/2-z
3 -x,-y,-z
4 1/2+x,1/2-y,1/2+z
_cell_length_a                   13.6279(6)
_cell_length_b                   18.2570(6)
_cell_length_c                   14.4482(6)
_cell_angle_alpha                90
_cell_angle_beta                 110.246(5)
_cell_angle_gamma                90
_cell_volume                     3372.68
_exptl_crystal_colour            colorless
_exptl_crystal_description       block
_cell_formula_units_Z            2
loop_
_atom_site_label
_atom_site_type_symbol
_atom_site_fract_x
_atom_site_fract_y
_atom_site_fract_z
Mg1 Mg 0.00403(6) 0.52532(4) 0.68842(5)
Mg2 Mg 0.07655(7) 0.44064(5) 0.53605(6)
N1 N -0.06107(18) 0.45095(12) 0.78646(15)
N2 N 0.22843(18) 0.38465(13) 0.60296(16)
N3 N 0.2041(5) 0.7205(2) 0.5435(4)
O1 O 0.07342(12) 0.59410(9) 0.79147(11)
O2 O 0.12455(13) 0.44185(10) 0.42018(13)
O3 O 0.03279(15) 0.42414(10) 0.65015(13)
O4 O 0.06886(14) 0.54770(10) 0.57328(13)
C1 C 0.10358(17) 0.63315(12) 0.87323(16)
C2 C 0.20437(18) 0.62192(12) 0.94772(17)
C3 C 0.22859(18) 0.65712(12) 1.03881(17)
H1 H 0.2924 0.6473 1.0879
C4 C 0.16100(19) 0.70600(13) 1.05821(17)
H2 H 0.1777 0.7275 1.1201
C5 C 0.06747(18) 0.72255(13) 0.98341(17)
H3 H 0.0231 0.7570 0.9954
C6 C 0.03793(18) 0.68919(12) 0.89090(16)
C7 C 0.28858(19) 0.57388(14) 0.92884(19)
C8 C 0.2569(2) 0.49262(14) 0.9212(2)
H4 H 0.1953 0.4855 0.8642
H5 H 0.2427 0.4785 0.9793
H6 H 0.3128 0.4632 0.9153
C9 C 0.3054(2) 0.59849(16) 0.8342(2)
H7 H 0.2402 0.5962 0.7801
H8 H 0.3554 0.5668 0.8213
H9 H 0.3311 0.6479 0.8420
C10 C 0.3957(2) 0.58065(18) 1.0124(2)
H10 H 0.4467 0.5522 0.9960
H11 H 0.3901 0.5628 1.0729
H12 H 0.4169 0.6311 1.0202
C11 C -0.06464(18) 0.71383(13) 0.81073(17)
C12 C -0.0459(2) 0.73125(14) 0.71436(18)
H13 H -0.0236 0.6877 0.6900
H14 H 0.0073 0.7681 0.7264
H15 H -0.1095 0.7489 0.6663
C13 C -0.14823(19) 0.65467(15) 0.7951(2)
H16 H -0.2122 0.6708 0.7460
H17 H -0.1598 0.6458 0.8560
H18 H -0.1252 0.6103 0.7734
C14 C -0.1087(2) 0.78456(17) 0.8398(2)
H19 H -0.0560 0.8220 0.8561
H20 H -0.1292 0.7751 0.8959
H21 H -0.1684 0.8006 0.7855
C15 C -0.0005(2) 0.36280(15) 0.6899(2)
H22 H 0.0468 0.3221 0.6947
H23 H -0.0698 0.3483 0.6470
C16 C -0.0028(2) 0.38118(15) 0.79097(19)
H24 H -0.0366 0.3419 0.8139
H25 H 0.0681 0.3862 0.8371
C17 C -0.0403(2) 0.47505(16) 0.88913(19)
H26 H -0.0792 0.5189 0.8891
H27 H 0.0331 0.4847 0.9204
H28 H -0.0611 0.4372 0.9247
C18 C -0.1731(2) 0.43970(16) 0.7379(2)
H29 H -0.1958 0.4003 0.7697
H30 H -0.1874 0.4276 0.6698
H31 H -0.2098 0.4837 0.7423
C19 C 0.2254(2) 0.41396(17) 0.4366(2)
H32 H 0.2599 0.4434 0.4010
H33 H 0.2201 0.3642 0.4119
C20 C 0.2893(2) 0.41496(17) 0.5462(2)
H34 H 0.3525 0.3863 0.5583
H35 H 0.3097 0.4649 0.5672
C21 C 0.2134(3) 0.30509(16) 0.5898(2)
H36 H 0.2803 0.2814 0.6075
H37 H 0.1735 0.2946 0.5221
H38 H 0.1767 0.2873 0.6312
C22 C 0.2815(3) 0.40043(19) 0.7076(2)
H39 H 0.3454 0.3729 0.7316
H40 H 0.2370 0.3870 0.7438
H41 H 0.2971 0.4518 0.7161
C23 C 0.1520(2) 0.59229(16) 0.5655(2)
H42 H 0.1624 0.5817 0.5037
H43 H 0.2162 0.5802 0.6188
C24 C 0.1301(2) 0.67278(16) 0.5700(2)
H44 H 0.0597 0.6829 0.5256
H45 H 0.1331 0.6848 0.6364
C25 C 0.1822(7) 0.7975(3) 0.5322(6)
H46 H 0.1553 0.8136 0.5821
H47 H 0.1312 0.8067 0.4682
H48 H 0.2453 0.8238 0.5389
C26 C 0.3060(9) 0.7314(7) 0.6186(9)
H49 H 0.2981 0.7562 0.6741
H50 H 0.3488 0.7603 0.5920
H51 H 0.3387 0.6847 0.6393
Mg1B Mg -0.00403(6) 0.47468(4) 0.31158(5)
Mg2B Mg -0.07655(7) 0.55936(5) 0.46395(6)
N1B N 0.06107(18) 0.54905(12) 0.21354(15)
N2B N -0.22843(18) 0.61535(13) 0.39704(16)
N3B N -0.2041(5) 0.2795(2) 0.4565(4)
O1B O -0.07342(12) 0.40590(9) 0.20853(11)
O2B O -0.12455(13) 0.55815(10) 0.57982(13)
O3B O -0.03279(15) 0.57586(10) 0.34985(13)
O4B O -0.06886(14) 0.45230(10) 0.42672(13)
C1B C -0.10358(17) 0.36685(12) 0.12677(16)
C2B C -0.20437(18) 0.37808(12) 0.05228(17)
C3B C -0.22859(18) 0.34288(12) -0.03881(17)
H1B H -0.2924 0.3527 -0.0879
C4B C -0.16100(19) 0.29400(13) -0.05821(17)
H2B H -0.1777 0.2725 -0.1201
C5B C -0.06747(18) 0.27745(13) 0.01659(17)
H3B H -0.0231 0.2430 0.0046
C6B C -0.03793(18) 0.31081(12) 0.10910(16)
C7B C -0.28858(19) 0.42612(14) 0.07116(19)
C8B C -0.2569(2) 0.50738(14) 0.0788(2)
H4B H -0.1953 0.5145 0.1358
H5B H -0.2427 0.5215 0.0207
H6B H -0.3128 0.5368 0.0847
C9B C -0.3054(2) 0.40151(16) 0.1658(2)
H7B H -0.2402 0.4038 0.2199
H8B H -0.3554 0.4332 0.1787
H9B H -0.3311 0.3521 0.1580
C10B C -0.3957(2) 0.41935(18) -0.0124(2)
H10B H -0.4467 0.4478 0.0040
H11B H -0.3901 0.4372 -0.0729
H12B H -0.4169 0.3689 -0.0202
C11B C 0.06464(18) 0.28617(13) 0.18927(17)
C12B C 0.0459(2) 0.26875(14) 0.28564(18)
H13B H 0.0236 0.3123 0.3100
H14B H -0.0073 0.2319 0.2736
H15B H 0.1095 0.2511 0.3337
C13B C 0.14823(19) 0.34533(15) 0.2049(2)
H16B H 0.2122 0.3292 0.2540
H17B H 0.1598 0.3542 0.1440
H18B H 0.1252 0.3897 0.2266
C14B C 0.1087(2) 0.21544(17) 0.1602(2)
H19B H 0.0560 0.1780 0.1439
H20B H 0.1292 0.2249 0.1041
H21B H 0.1684 0.1994 0.2145
C15B C 0.0005(2) 0.63720(15) 0.3101(2)
H22B H -0.0468 0.6779 0.3053
H23B H 0.0698 0.6517 0.3530
C16B C 0.0028(2) 0.61882(15) 0.20903(19)
H24B H 0.0366 0.6581 0.1861
H25B H -0.0681 0.6138 0.1629
C17B C 0.0403(2) 0.52495(16) 0.11087(19)
H26B H 0.0792 0.4811 0.1109
H27B H -0.0331 0.5153 0.0796
H28B H 0.0611 0.5628 0.0753
C18B C 0.1731(2) 0.56030(16) 0.2621(2)
H29B H 0.1958 0.5997 0.2303
H30B H 0.1874 0.5724 0.3302
H31B H 0.2098 0.5163 0.2577
C19B C -0.2254(2) 0.58604(17) 0.5634(2)
H32B H -0.2599 0.5566 0.5990
H33B H -0.2201 0.6358 0.5881
C20B C -0.2893(2) 0.58504(17) 0.4538(2)
H34B H -0.3525 0.6137 0.4417
H35B H -0.3097 0.5351 0.4328
C21B C -0.2134(3) 0.69491(16) 0.4102(2)
H36B H -0.2803 0.7186 0.3925
H37B H -0.1735 0.7054 0.4779
H38B H -0.1767 0.7127 0.3688
C22B C -0.2815(3) 0.59957(19) 0.2924(2)
H39B H -0.3454 0.6271 0.2684
H40B H -0.2370 0.6130 0.2562
H41B H -0.2971 0.5482 0.2839
C23B C -0.1520(2) 0.40771(16) 0.4345(2)
H42B H -0.1624 0.4183 0.4963
H43B H -0.2162 0.4198 0.3812
C24B C -0.1301(2) 0.32722(16) 0.4300(2)
H44B H -0.0597 0.3171 0.4744
H45B H -0.1331 0.3152 0.3636
C25B C -0.1822(7) 0.2025(3) 0.4678(6)
H46B H -0.1553 0.1864 0.4179
H47B H -0.1312 0.1933 0.5318
H48B H -0.2453 0.1762 0.4611
C26B C -0.3060(9) 0.2686(7) 0.3814(9)
H49B H -0.2981 0.2438 0.3259
H50B H -0.3488 0.2397 0.4080
H51B H -0.3387 0.3153 0.3607
C27 C 0.4928(7) 0.5853(5) 0.6034(6)
C28 C 0.5330(7) 0.5156(5) 0.6224(7)
C29 C 0.5434(5) 0.5132(5) 0.7135(5)
C30 C 0.5847(3) 0.5786(3) 0.7810(4)
C31 C 0.5404(7) 0.6489(5) 0.7329(9)
C32 C 0.5392(7) 0.6430(7) 0.6496(7)
Mg3? Mg 0.1135(8) 0.4829(7) 0.5280(7)
loop_
_geom_bond_atom_site_label_1
_geom_bond_atom_site_label_2
_geom_bond_site_symmetry_1
_geom_bond_site_symmetry_2
Mg1 N1 1_555 1_555
Mg2 N2 1_555 1_555
N1 C16 1_555 1_555
N2 C20 1_555 1_555
N3 C24 1_555 1_555
O1 Mg1 1_555 1_555
O2 Mg2 1_555 1_555
O3 Mg1 1_555 1_555
O4 Mg1 1_555 1_555
C1 O1 1_555 1_555
C2 C1 1_555 1_555
C3 C2 1_555 1_555
H1 C3 1_555 1_555
C4 C3 1_555 1_555
H2 C4 1_555 1_555
C5 C4 1_555 1_555
H3 C5 1_555 1_555
C6 C1 1_555 1_555
C7 C2 1_555 1_555
C8 C7 1_555 1_555
H4 C8 1_555 1_555
H5 C8 1_555 1_555
H6 C8 1_555 1_555
C9 C7 1_555 1_555
H7 C9 1_555 1_555
H8 C9 1_555 1_555
H9 C9 1_555 1_555
C10 C7 1_555 1_555
H10 C10 1_555 1_555
H11 C10 1_555 1_555
H12 C10 1_555 1_555
C11 C6 1_555 1_555
C12 C11 1_555 1_555
H13 C12 1_555 1_555
H14 C12 1_555 1_555
H15 C12 1_555 1_555
C13 C11 1_555 1_555
H16 C13 1_555 1_555
H17 C13 1_555 1_555
H18 C13 1_555 1_555
C14 C11 1_555 1_555
H19 C14 1_555 1_555
H20 C14 1_555 1_555
H21 C14 1_555 1_555
C15 O3 1_555 1_555
H22 C15 1_555 1_555
H23 C15 1_555 1_555
C16 C15 1_555 1_555
H24 C16 1_555 1_555
H25 C16 1_555 1_555
C17 N1 1_555 1_555
H26 C17 1_555 1_555
H27 C17 1_555 1_555
H28 C17 1_555 1_555
C18 N1 1_555 1_555
H29 C18 1_555 1_555
H30 C18 1_555 1_555
H31 C18 1_555 1_555
C19 O2 1_555 1_555
H32 C19 1_555 1_555
H33 C19 1_555 1_555
C20 C19 1_555 1_555
H34 C20 1_555 1_555
H35 C20 1_555 1_555
C21 N2 1_555 1_555
H36 C21 1_555 1_555
H37 C21 1_555 1_555
H38 C21 1_555 1_555
C22 N2 1_555 1_555
H39 C22 1_555 1_555
H40 C22 1_555 1_555
H41 C22 1_555 1_555
C23 O4 1_555 1_555
H42 C23 1_555 1_555
H43 C23 1_555 1_555
C24 C23 1_555 1_555
H44 C24 1_555 1_555
H45 C24 1_555 1_555
C25 N3 1_555 1_555
H46 C25 1_555 1_555
H47 C25 1_555 1_555
H48 C25 1_555 1_555
C26 N3 1_555 1_555
H49 C26 1_555 1_555
H50 C26 1_555 1_555
H51 C26 1_555 1_555
C27 C28 1_555 1_555
C28 C29 1_555 1_555
C29 C30 1_555 1_555
C30 C31 1_555 1_555
C31 C32 1_555 1_555
C32 C27 1_555 1_555
Mg1B O2 1_555 1_555
Mg2B O4 1_555 1_555
N1B Mg1B 1_555 1_555
N2B Mg2B 1_555 1_555
N3B C24B 1_555 1_555
O1B Mg1B 1_555 1_555
O2B Mg1 1_555 1_555
O3B Mg1B 1_555 1_555
O4B Mg2 1_555 1_555
C1B O1B 1_555 1_555
C2B C1B 1_555 1_555
C3B C2B 1_555 1_555
H1B C3B 1_555 1_555
C4B C3B 1_555 1_555
H2B C4B 1_555 1_555
C5B C4B 1_555 1_555
H3B C5B 1_555 1_555
C6B C1B 1_555 1_555
C7B C2B 1_555 1_555
C8B C7B 1_555 1_555
H4B C8B 1_555 1_555
H5B C8B 1_555 1_555
H6B C8B 1_555 1_555
C9B C7B 1_555 1_555
H7B C9B 1_555 1_555
H8B C9B 1_555 1_555
H9B C9B 1_555 1_555
C10B C7B 1_555 1_555
H10B C10B 1_555 1_555
H11B C10B 1_555 1_555
H12B C10B 1_555 1_555
C11B C6B 1_555 1_555
C12B C11B 1_555 1_555
H13B C12B 1_555 1_555
H14B C12B 1_555 1_555
H15B C12B 1_555 1_555
C13B C11B 1_555 1_555
H16B C13B 1_555 1_555
H17B C13B 1_555 1_555
H18B C13B 1_555 1_555
C14B C11B 1_555 1_555
H19B C14B 1_555 1_555
H20B C14B 1_555 1_555
H21B C14B 1_555 1_555
C15B O3B 1_555 1_555
H22B C15B 1_555 1_555
H23B C15B 1_555 1_555
C16B N1B 1_555 1_555
H24B C16B 1_555 1_555
H25B C16B 1_555 1_555
C17B N1B 1_555 1_555
H26B C17B 1_555 1_555
H27B C17B 1_555 1_555
H28B C17B 1_555 1_555
C18B N1B 1_555 1_555
H29B C18B 1_555 1_555
H30B C18B 1_555 1_555
H31B C18B 1_555 1_555
C19B O2B 1_555 1_555
H32B C19B 1_555 1_555
H33B C19B 1_555 1_555
C20B N2B 1_555 1_555
H34B C20B 1_555 1_555
H35B C20B 1_555 1_555
C21B N2B 1_555 1_555
H36B C21B 1_555 1_555
H37B C21B 1_555 1_555
H38B C21B 1_555 1_555
C22B N2B 1_555 1_555
H39B C22B 1_555 1_555
H40B C22B 1_555 1_555
H41B C22B 1_555 1_555
C23B O4B 1_555 1_555
H42B C23B 1_555 1_555
H43B C23B 1_555 1_555
C24B C23B 1_555 1_555
H44B C24B 1_555 1_555
H45B C24B 1_555 1_555
C25B N3B 1_555 1_555
H46B C25B 1_555 1_555
H47B C25B 1_555 1_555
H48B C25B 1_555 1_555
C26B N3B 1_555 1_555
H49B C26B 1_555 1_555
H50B C26B 1_555 1_555
H51B C26B 1_555 1_555
Mg2 O3 1_555 1_555
Mg2 O4 1_555 1_555
C5 C6 1_555 1_555
Mg1B O4B 1_555 1_555
Mg2B O2B 1_555 1_555
Mg2B O3B 1_555 1_555
Mg2B O4B 1_555 1_555
C5B C6B 1_555 1_555
C15B C16B 1_555 1_555
C19B C20B 1_555 1_555

#END
