
#######################################################################
#
#                 Cambridge Crystallographic Data Centre
#                                CCDC 
#
#######################################################################
#
# If this CIF has been generated from an entry in the Cambridge 
# Structural Database, then it will include bibliographic, chemical, 
# crystal, experimental, refinement or atomic coordinate data resulting 
# from the CCDC's data processing and validation procedures.
#
#######################################################################

data_NOBGOC
_chemical_formula_moiety         'C40 H74 Mg3 N4 O6'
_chemical_name_systematic        
(\m~3~-2-(dimethylamino)ethanolato)-tris(\m~2~-2-(dimethylamino)ethanolato)-bis(2,6-di-isopropylphenolato)-tri-magnesium
_symmetry_cell_setting           monoclinic
_symmetry_space_group_name_H-M   'P 21/n'
_symmetry_Int_Tables_number      14
_space_group_name_Hall           '-P 2yn'
loop_
_symmetry_equiv_pos_site_id
_symmetry_equiv_pos_as_xyz
1 x,y,z
2 1/2-x,1/2+y,1/2-z
3 -x,-y,-z
4 1/2+x,1/2-y,1/2+z
_cell_length_a                   16.0188(2)
_cell_length_b                   17.3708(2)
_cell_length_c                   16.2816(2)
_cell_angle_alpha                90
_cell_angle_beta                 93.8503(13)
_cell_angle_gamma                90
_cell_volume                     4520.28
_exptl_crystal_colour            colorless
_exptl_crystal_description       block
_cell_formula_units_Z            4
loop_
_atom_site_label
_atom_site_type_symbol
_atom_site_fract_x
_atom_site_fract_y
_atom_site_fract_z
Mg1 Mg 0.20858(2) 0.70954(2) 0.30712(2)
Mg2 Mg 0.21672(2) 0.68261(2) 0.49518(2)
Mg3 Mg 0.05357(2) 0.72220(2) 0.39817(2)
N1 N 0.24288(6) 0.81231(6) 0.22859(6)
N2 N 0.32890(6) 0.73915(6) 0.56960(6)
N3 N -0.03716(6) 0.80762(6) 0.44031(6)
N4 N -0.02457(6) 0.62138(6) 0.36723(6)
O1 O 0.21833(5) 0.63430(5) 0.22413(5)
O2 O 0.21214(5) 0.59118(5) 0.56097(5)
O3 O 0.09819(5) 0.76680(5) 0.30130(5)
O4 O 0.28484(5) 0.72444(5) 0.40499(5)
O5 O 0.11784(5) 0.75083(4) 0.50163(5)
O6 O 0.14788(5) 0.64330(4) 0.39251(5)
C1 C 0.25434(7) 0.59539(6) 0.16734(7)
C2 C 0.20776(8) 0.57230(7) 0.09433(7)
C3 C 0.24632(8) 0.52893(7) 0.03560(7)
H1 H 0.2153 0.5135 -0.0119
C4 C 0.32998(8) 0.50830(7) 0.04655(8)
H2 H 0.3548 0.4790 0.0070
C5 C 0.37633(8) 0.53197(7) 0.11729(8)
H3 H 0.4324 0.5181 0.1246
C6 C 0.34085(7) 0.57583(6) 0.17730(7)
C7 C 0.11551(8) 0.59288(7) 0.08301(8)
H4 H 0.1047 0.6334 0.1228
C8 C 0.06170(9) 0.52334(9) 0.10280(9)
H5 H 0.0700 0.4829 0.0640
H6 H 0.0038 0.5381 0.0994
H7 H 0.0775 0.5054 0.1574
C9 C 0.09118(10) 0.62438(9) -0.00298(9)
H8 H 0.1243 0.6690 -0.0129
H9 H 0.0330 0.6382 -0.0067
H10 H 0.1009 0.5857 -0.0434
C10 C 0.39039(8) 0.60378(7) 0.25439(7)
H11 H 0.3702 0.6556 0.2660
C11 C 0.48427(9) 0.61026(10) 0.24520(9)
H12 H 0.5073 0.5599 0.2380
H13 H 0.5107 0.6336 0.2937
H14 H 0.4940 0.6415 0.1981
C12 C 0.37457(8) 0.55389(7) 0.32909(7)
H15 H 0.3155 0.5506 0.3352
H16 H 0.4016 0.5765 0.3777
H17 H 0.3967 0.5032 0.3214
C13 C 0.22849(7) 0.55764(6) 0.63285(7)
C14 C 0.27568(7) 0.48819(7) 0.63830(7)
C15 C 0.29562(7) 0.45526(7) 0.71521(7)
H18 H 0.3275 0.4105 0.7185
C16 C 0.26915(8) 0.48760(7) 0.78691(7)
H19 H 0.2836 0.4651 0.8377
C17 C 0.22075(8) 0.55415(7) 0.78183(7)
H20 H 0.2023 0.5755 0.8297
C18 C 0.19937(7) 0.58946(7) 0.70644(7)
C19 C 0.14594(8) 0.66188(7) 0.70065(7)
H21 H 0.1652 0.6927 0.6552
C20 C 0.05415(9) 0.64211(8) 0.67882(9)
H22 H 0.0495 0.6137 0.6281
H23 H 0.0221 0.6887 0.6727
H24 H 0.0332 0.6114 0.7219
C21 C 0.15340(10) 0.71245(8) 0.77779(8)
H25 H 0.1287 0.6864 0.8221
H26 H 0.1248 0.7603 0.7668
H27 H 0.2114 0.7224 0.7928
C22 C 0.30645(8) 0.45375(7) 0.55988(7)
H28 H 0.2670 0.4690 0.5142
C23 C 0.39207(10) 0.48626(8) 0.54259(9)
H29 H 0.3883 0.5412 0.5371
H30 H 0.4099 0.4645 0.4925
H31 H 0.4318 0.4736 0.5873
C24 C 0.31062(9) 0.36568(7) 0.56074(8)
H32 H 0.3529 0.3492 0.6015
H33 H 0.3242 0.3475 0.5076
H34 H 0.2574 0.3452 0.5736
C25 C 0.09333(8) 0.83216(7) 0.25047(7)
H35 H 0.1023 0.8782 0.2836
H36 H 0.0381 0.8354 0.2223
C26 C 0.15950(8) 0.82700(7) 0.18757(7)
H37 H 0.1452 0.7858 0.1490
H38 H 0.1606 0.8748 0.1569
C27 C 0.30221(9) 0.79545(8) 0.16562(9)
H39 H 0.2827 0.7518 0.1336
H40 H 0.3563 0.7843 0.1920
H41 H 0.3063 0.8393 0.1302
C28 C 0.27255(9) 0.88060(7) 0.27606(8)
H42 H 0.2698 0.9250 0.2409
H43 H 0.3293 0.8726 0.2970
H44 H 0.2378 0.8886 0.3211
C29 C 0.36275(8) 0.75793(8) 0.42550(8)
H45 H 0.3576 0.8136 0.4250
H46 H 0.4020 0.7433 0.3854
C30 C 0.39454(8) 0.73077(8) 0.51070(8)
H47 H 0.4113 0.6772 0.5081
H48 H 0.4432 0.7608 0.5295
C31 C 0.31102(9) 0.82099(8) 0.58410(9)
H49 H 0.2727 0.8254 0.6267
H50 H 0.2866 0.8437 0.5343
H51 H 0.3621 0.8473 0.6007
C32 C 0.35933(8) 0.70370(8) 0.64806(7)
H52 H 0.4106 0.7281 0.6679
H53 H 0.3691 0.6498 0.6398
H54 H 0.3182 0.7101 0.6877
C33 C 0.08639(8) 0.81516(7) 0.54120(7)
H55 H 0.1323 0.8485 0.5603
H56 H 0.0576 0.7986 0.5887
C34 C 0.02616(8) 0.85939(6) 0.48231(7)
H57 H -0.0021 0.8985 0.5127
H58 H 0.0575 0.8851 0.4414
C35 C -0.09550(8) 0.77916(7) 0.50008(8)
H59 H -0.1199 0.8221 0.5269
H60 H -0.0656 0.7475 0.5404
H61 H -0.1390 0.7494 0.4717
C36 C -0.08572(8) 0.85166(8) 0.37582(8)
H62 H -0.1258 0.8183 0.3474
H63 H -0.0485 0.8721 0.3375
H64 H -0.1144 0.8932 0.4007
C37 C 0.11944(7) 0.56765(6) 0.37499(7)
H65 H 0.1134 0.5398 0.4259
H66 H 0.1597 0.5406 0.3437
C38 C 0.03565(8) 0.57185(7) 0.32572(7)
H67 H 0.0438 0.5924 0.2714
H68 H 0.0127 0.5204 0.3189
C39 C -0.09706(8) 0.63632(8) 0.30865(8)
H69 H -0.1230 0.5884 0.2924
H70 H -0.0786 0.6622 0.2610
H71 H -0.1367 0.6681 0.3345
C40 C -0.05384(8) 0.58137(7) 0.44017(8)
H72 H -0.0948 0.6126 0.4648
H73 H -0.0073 0.5727 0.4793
H74 H -0.0784 0.5329 0.4237
loop_
_geom_bond_atom_site_label_1
_geom_bond_atom_site_label_2
_geom_bond_site_symmetry_1
_geom_bond_site_symmetry_2
Mg1 N1 1_555 1_555
Mg2 N2 1_555 1_555
Mg3 N3 1_555 1_555
N1 C26 1_555 1_555
N2 C30 1_555 1_555
N3 C34 1_555 1_555
N4 Mg3 1_555 1_555
O1 Mg1 1_555 1_555
O2 Mg2 1_555 1_555
O3 Mg1 1_555 1_555
O4 Mg1 1_555 1_555
O5 Mg2 1_555 1_555
O6 Mg1 1_555 1_555
C1 O1 1_555 1_555
C2 C1 1_555 1_555
C3 C2 1_555 1_555
H1 C3 1_555 1_555
C4 C3 1_555 1_555
H2 C4 1_555 1_555
C5 C4 1_555 1_555
H3 C5 1_555 1_555
C6 C1 1_555 1_555
C7 C2 1_555 1_555
H4 C7 1_555 1_555
C8 C7 1_555 1_555
H5 C8 1_555 1_555
H6 C8 1_555 1_555
H7 C8 1_555 1_555
C9 C7 1_555 1_555
H8 C9 1_555 1_555
H9 C9 1_555 1_555
H10 C9 1_555 1_555
C10 C6 1_555 1_555
H11 C10 1_555 1_555
C11 C10 1_555 1_555
H12 C11 1_555 1_555
H13 C11 1_555 1_555
H14 C11 1_555 1_555
C12 C10 1_555 1_555
H15 C12 1_555 1_555
H16 C12 1_555 1_555
H17 C12 1_555 1_555
C13 O2 1_555 1_555
C14 C13 1_555 1_555
C15 C14 1_555 1_555
H18 C15 1_555 1_555
C16 C15 1_555 1_555
H19 C16 1_555 1_555
C17 C16 1_555 1_555
H20 C17 1_555 1_555
C18 C13 1_555 1_555
C19 C18 1_555 1_555
H21 C19 1_555 1_555
C20 C19 1_555 1_555
H22 C20 1_555 1_555
H23 C20 1_555 1_555
H24 C20 1_555 1_555
C21 C19 1_555 1_555
H25 C21 1_555 1_555
H26 C21 1_555 1_555
H27 C21 1_555 1_555
C22 C14 1_555 1_555
H28 C22 1_555 1_555
C23 C22 1_555 1_555
H29 C23 1_555 1_555
H30 C23 1_555 1_555
H31 C23 1_555 1_555
C24 C22 1_555 1_555
H32 C24 1_555 1_555
H33 C24 1_555 1_555
H34 C24 1_555 1_555
C25 O3 1_555 1_555
H35 C25 1_555 1_555
H36 C25 1_555 1_555
C26 C25 1_555 1_555
H37 C26 1_555 1_555
H38 C26 1_555 1_555
C27 N1 1_555 1_555
H39 C27 1_555 1_555
H40 C27 1_555 1_555
H41 C27 1_555 1_555
C28 N1 1_555 1_555
H42 C28 1_555 1_555
H43 C28 1_555 1_555
H44 C28 1_555 1_555
C29 O4 1_555 1_555
H45 C29 1_555 1_555
H46 C29 1_555 1_555
C30 C29 1_555 1_555
H47 C30 1_555 1_555
H48 C30 1_555 1_555
C31 N2 1_555 1_555
H49 C31 1_555 1_555
H50 C31 1_555 1_555
H51 C31 1_555 1_555
C32 N2 1_555 1_555
H52 C32 1_555 1_555
H53 C32 1_555 1_555
H54 C32 1_555 1_555
C33 O5 1_555 1_555
H55 C33 1_555 1_555
H56 C33 1_555 1_555
C34 C33 1_555 1_555
H57 C34 1_555 1_555
H58 C34 1_555 1_555
C35 N3 1_555 1_555
H59 C35 1_555 1_555
H60 C35 1_555 1_555
H61 C35 1_555 1_555
C36 N3 1_555 1_555
H62 C36 1_555 1_555
H63 C36 1_555 1_555
H64 C36 1_555 1_555
C37 O6 1_555 1_555
H65 C37 1_555 1_555
H66 C37 1_555 1_555
C38 N4 1_555 1_555
H67 C38 1_555 1_555
H68 C38 1_555 1_555
C39 N4 1_555 1_555
H69 C39 1_555 1_555
H70 C39 1_555 1_555
H71 C39 1_555 1_555
C40 N4 1_555 1_555
H72 C40 1_555 1_555
H73 C40 1_555 1_555
H74 C40 1_555 1_555
Mg2 O4 1_555 1_555
Mg2 O6 1_555 1_555
Mg3 O3 1_555 1_555
Mg3 O5 1_555 1_555
Mg3 O6 1_555 1_555
C5 C6 1_555 1_555
C17 C18 1_555 1_555
C37 C38 1_555 1_555

#END
