
#######################################################################
#
#                 Cambridge Crystallographic Data Centre
#                                CCDC 
#
#######################################################################
#
# If this CIF has been generated from an entry in the Cambridge 
# Structural Database, then it will include bibliographic, chemical, 
# crystal, experimental, refinement or atomic coordinate data resulting 
# from the CCDC's data processing and validation procedures.
#
#######################################################################

data_NOBGUI
_chemical_formula_moiety         'C46 H80 Mg4 O14,2(C1 H2 Cl2)'
_chemical_name_systematic        
'bis(\m~3~-methoxyacetaldehyde)-bis(\m~2~-methoxyacetaldehyde)-bis(\m~2~-2-methoxyethanolato)-bis(2,6-di-t-butylphenolato)-tetra-magnesium dichloromethane solvate'
_symmetry_cell_setting           triclinic
_symmetry_space_group_name_H-M   'P -1'
_symmetry_Int_Tables_number      2
_space_group_name_Hall           '-P 1'
loop_
_symmetry_equiv_pos_site_id
_symmetry_equiv_pos_as_xyz
1 x,y,z
2 -x,-y,-z
_cell_length_a                   9.7974(9)
_cell_length_b                   11.3807(9)
_cell_length_c                   14.2100(6)
_cell_angle_alpha                80.512(5)
_cell_angle_beta                 81.229(6)
_cell_angle_gamma                80.605(7)
_cell_volume                     1528.9
_exptl_crystal_colour            'light colorless'
_exptl_crystal_description       block
_cell_formula_units_Z            1
loop_
_atom_site_label
_atom_site_type_symbol
_atom_site_fract_x
_atom_site_fract_y
_atom_site_fract_z
Cl1 Cl 0.2355(4) 0.6425(4) 0.40307(16)
Cl2 Cl 0.4599(3) 0.7361(4) 0.4559(2)
C1 C 0.3118(10) 0.6739(11) 0.4886(5)
H1 H 0.3326 0.6000 0.5320
H2 H 0.2453 0.7281 0.5248
Mg1 Mg 1.10311(11) -0.08885(9) 0.05883(8)
Mg2 Mg 0.89625(12) 0.10596(9) 0.15743(8)
O1 O 0.8925(3) 0.2472(2) 0.21246(18)
O2 O 1.2322(2) -0.1117(2) -0.06442(17)
O3 O 1.3051(3) -0.1103(3) 0.1036(2)
O4 O 1.0636(3) -0.2770(2) 0.09377(19)
O5 O 0.9553(2) -0.09741(18) -0.03194(16)
O6 O 0.9975(3) -0.0581(2) 0.18621(17)
O7 O 0.7536(4) 0.0152(3) 0.2876(2)
C2 C 0.8897(4) 0.3383(3) 0.2599(2)
C3 C 0.9956(4) 0.3384(3) 0.3186(2)
C4 C 0.9876(5) 0.4368(3) 0.3685(3)
H3 H 1.0558 0.4370 0.4073
C5 C 0.8831(5) 0.5323(3) 0.3619(3)
H4 H 0.8804 0.5958 0.3960
C6 C 0.7818(5) 0.5333(3) 0.3041(3)
H5 H 0.7119 0.5992 0.2990
C7 C 0.7804(4) 0.4389(3) 0.2529(2)
C8 C 1.1165(4) 0.2345(4) 0.3287(3)
C9 C 1.0612(6) 0.1173(4) 0.3743(4)
H6 H 1.0183 0.1243 0.4389
H7 H 1.1370 0.0521 0.3752
H8 H 0.9935 0.1018 0.3373
C10 C 1.2008(5) 0.2207(6) 0.2295(4)
H9 H 1.1413 0.2030 0.1875
H10 H 1.2767 0.1562 0.2365
H11 H 1.2370 0.2942 0.2028
C11 C 1.2208(6) 0.2562(5) 0.3931(4)
H12 H 1.2568 0.3300 0.3674
H13 H 1.2962 0.1907 0.3948
H14 H 1.1741 0.2612 0.4571
C12 C 0.6603(4) 0.4441(4) 0.1938(3)
C13 C 0.5603(6) 0.5634(5) 0.1942(5)
H15 H 0.5246 0.5747 0.2593
H16 H 0.4842 0.5610 0.1595
H17 H 0.6095 0.6289 0.1640
C14 C 0.5755(5) 0.3407(5) 0.2364(4)
H18 H 0.6362 0.2653 0.2380
H19 H 0.5039 0.3408 0.1972
H20 H 0.5335 0.3515 0.3006
C15 C 0.7144(5) 0.4335(4) 0.0874(3)
H21 H 0.7703 0.4960 0.0611
H22 H 0.6367 0.4415 0.0519
H23 H 0.7700 0.3565 0.0829
C16 C 1.3724(4) -0.1077(4) -0.0633(3)
H24 H 1.4331 -0.0787 -0.1156
C17 C 1.4109(4) -0.1567(5) 0.0335(3)
H25 H 1.4203 -0.2438 0.0427
H26 H 1.4997 -0.1336 0.0401
C18 C 1.3390(5) -0.1259(5) 0.1982(3)
H27 H 1.2599 -0.0941 0.2399
H28 H 1.4162 -0.0841 0.1992
H29 H 1.3639 -0.2100 0.2199
C19 C 0.9529(4) -0.3003(3) 0.0475(3)
H30 H 0.8951 -0.3523 0.0915
H31 H 0.9908 -0.3401 -0.0081
C20 C 0.8674(4) -0.1814(3) 0.0168(3)
H32 H 0.7717 -0.1578 0.0461
C21 C 1.1356(5) -0.3821(3) 0.1444(3)
H33 H 1.1821 -0.4347 0.0996
H34 H 1.0699 -0.4229 0.1900
H35 H 1.2031 -0.3591 0.1777
C22 C 0.9482(6) -0.1343(4) 0.2679(3)
H36 H 0.9902 -0.1225 0.3226
H37 H 0.9761 -0.2173 0.2573
C23 C 0.7971(6) -0.1113(4) 0.2896(4)
H38 H 0.7541 -0.1406 0.2425
H39 H 0.7678 -0.1535 0.3527
C24 C 0.7000(16) 0.0550(11) 0.3742(8)
H40 H 0.7637 0.0244 0.4205
H41 H 0.6119 0.0270 0.3969
H42 H 0.6870 0.1414 0.3655
Mg1A Mg 0.89689(11) 0.08885(9) -0.05883(8)
Mg2A Mg 1.10375(12) -0.10596(9) -0.15743(8)
O1A O 1.1075(3) -0.2472(2) -0.21246(18)
O2A O 0.7678(2) 0.1117(2) 0.06442(17)
O3A O 0.6949(3) 0.1103(3) -0.1036(2)
O4A O 0.9364(3) 0.2770(2) -0.09377(19)
O5A O 1.0447(2) 0.09741(18) 0.03194(16)
O6A O 1.0025(3) 0.0581(2) -0.18621(17)
O7A O 1.2464(4) -0.0152(3) -0.2876(2)
C2A C 1.1103(4) -0.3383(3) -0.2599(2)
C3A C 1.0044(4) -0.3384(3) -0.3186(2)
C4A C 1.0124(5) -0.4368(3) -0.3685(3)
H3A H 0.9442 -0.4370 -0.4073
C5A C 1.1169(5) -0.5323(3) -0.3619(3)
H4A H 1.1196 -0.5958 -0.3960
C6A C 1.2182(5) -0.5333(3) -0.3041(3)
H5A H 1.2881 -0.5992 -0.2990
C7A C 1.2196(4) -0.4389(3) -0.2529(2)
C8A C 0.8835(4) -0.2345(4) -0.3287(3)
C9A C 0.9388(6) -0.1173(4) -0.3743(4)
H6A H 0.9817 -0.1243 -0.4389
H7A H 0.8630 -0.0521 -0.3752
H8A H 1.0065 -0.1018 -0.3373
C10A C 0.7992(5) -0.2207(6) -0.2295(4)
H9A H 0.8587 -0.2030 -0.1875
H10A H 0.7233 -0.1562 -0.2365
H11A H 0.7630 -0.2942 -0.2028
C11A C 0.7792(6) -0.2562(5) -0.3931(4)
H12A H 0.7432 -0.3300 -0.3674
H13A H 0.7038 -0.1907 -0.3948
H14A H 0.8259 -0.2612 -0.4571
C12A C 1.3397(4) -0.4441(4) -0.1938(3)
C13A C 1.4397(6) -0.5634(5) -0.1942(5)
H15A H 1.4754 -0.5747 -0.2593
H16A H 1.5158 -0.5610 -0.1595
H17A H 1.3905 -0.6289 -0.1640
C14A C 1.4245(5) -0.3407(5) -0.2364(4)
H18A H 1.3638 -0.2653 -0.2380
H19A H 1.4961 -0.3408 -0.1972
H20A H 1.4665 -0.3515 -0.3006
C15A C 1.2856(5) -0.4335(4) -0.0874(3)
H21A H 1.2297 -0.4960 -0.0611
H22A H 1.3633 -0.4415 -0.0519
H23A H 1.2300 -0.3565 -0.0829
C16A C 0.6276(4) 0.1077(4) 0.0633(3)
H24A H 0.5669 0.0787 0.1156
C17A C 0.5891(4) 0.1567(5) -0.0335(3)
H25A H 0.5797 0.2438 -0.0427
H26A H 0.5003 0.1336 -0.0401
C18A C 0.6610(5) 0.1259(5) -0.1982(3)
H27A H 0.7401 0.0941 -0.2399
H28A H 0.5838 0.0841 -0.1992
H29A H 0.6361 0.2100 -0.2199
C19A C 1.0471(4) 0.3003(3) -0.0475(3)
H30A H 1.1049 0.3523 -0.0915
H31A H 1.0092 0.3401 0.0081
C20A C 1.1326(4) 0.1814(3) -0.0168(3)
H32A H 1.2283 0.1578 -0.0461
C21A C 0.8644(5) 0.3821(3) -0.1444(3)
H33A H 0.8179 0.4347 -0.0996
H34A H 0.9301 0.4229 -0.1900
H35A H 0.7969 0.3591 -0.1777
C22A C 1.0518(6) 0.1343(4) -0.2679(3)
H36A H 1.0098 0.1225 -0.3226
H37A H 1.0239 0.2173 -0.2573
C23A C 1.2029(6) 0.1113(4) -0.2896(4)
H38A H 1.2459 0.1406 -0.2425
H39A H 1.2322 0.1535 -0.3527
C24A C 1.3000(16) -0.0550(11) -0.3742(8)
H40A H 1.2363 -0.0244 -0.4205
H41A H 1.3881 -0.0270 -0.3969
H42A H 1.3130 -0.1414 -0.3655
C25? C 0.6175(15) 0.0321(15) 0.3403(12)
H43? H 0.5794 0.1158 0.3306
H44? H 0.6231 0.0060 0.4075
H45? H 0.5583 -0.0142 0.3182
loop_
_geom_bond_atom_site_label_1
_geom_bond_atom_site_label_2
_geom_bond_site_symmetry_1
_geom_bond_site_symmetry_2
Cl1 C1 1_555 1_555
Cl2 C1 1_555 1_555
C1 H1 1_555 1_555
H2 C1 1_555 1_555
Mg1 O2 1_555 1_555
Mg2 O1 1_555 1_555
O1 C2 1_555 1_555
O2 C16 1_555 1_555
O3 Mg1 1_555 1_555
O4 Mg1 1_555 1_555
O5 Mg1 1_555 1_555
O6 Mg1 1_555 1_555
O7 Mg2 1_555 1_555
C2 C3 1_555 1_555
C3 C4 1_555 1_555
C4 H3 1_555 1_555
C5 C4 1_555 1_555
H4 C5 1_555 1_555
C6 C5 1_555 1_555
H5 C6 1_555 1_555
C7 C2 1_555 1_555
C8 C3 1_555 1_555
C9 C8 1_555 1_555
H6 C9 1_555 1_555
H7 C9 1_555 1_555
H8 C9 1_555 1_555
C10 C8 1_555 1_555
H9 C10 1_555 1_555
H10 C10 1_555 1_555
H11 C10 1_555 1_555
C11 C8 1_555 1_555
H12 C11 1_555 1_555
H13 C11 1_555 1_555
H14 C11 1_555 1_555
C12 C7 1_555 1_555
C13 C12 1_555 1_555
H15 C13 1_555 1_555
H16 C13 1_555 1_555
H17 C13 1_555 1_555
C14 C12 1_555 1_555
H18 C14 1_555 1_555
H19 C14 1_555 1_555
H20 C14 1_555 1_555
C15 C12 1_555 1_555
H21 C15 1_555 1_555
H22 C15 1_555 1_555
H23 C15 1_555 1_555
C16 H24 1_555 1_555
C17 O3 1_555 1_555
H25 C17 1_555 1_555
H26 C17 1_555 1_555
C18 O3 1_555 1_555
H27 C18 1_555 1_555
H28 C18 1_555 1_555
H29 C18 1_555 1_555
C19 O4 1_555 1_555
H30 C19 1_555 1_555
H31 C19 1_555 1_555
C20 O5 1_555 1_555
H32 C20 1_555 1_555
C21 O4 1_555 1_555
H33 C21 1_555 1_555
H34 C21 1_555 1_555
H35 C21 1_555 1_555
C22 O6 1_555 1_555
H36 C22 1_555 1_555
H37 C22 1_555 1_555
C23 O7 1_555 1_555
H38 C23 1_555 1_555
H39 C23 1_555 1_555
C24 O7 1_555 1_555
H40 C24 1_555 1_555
H41 C24 1_555 1_555
H42 C24 1_555 1_555
Mg1A O5 1_555 1_555
Mg2A O2 1_555 1_555
O1A Mg2A 1_555 1_555
O2A Mg2 1_555 1_555
O3A Mg1A 1_555 1_555
O4A Mg1A 1_555 1_555
O5A Mg1 1_555 1_555
O6A Mg1A 1_555 1_555
O7A Mg2A 1_555 1_555
C2A O1A 1_555 1_555
C3A C2A 1_555 1_555
C4A C3A 1_555 1_555
H3A C4A 1_555 1_555
C5A C4A 1_555 1_555
H4A C5A 1_555 1_555
C6A C5A 1_555 1_555
H5A C6A 1_555 1_555
C7A C2A 1_555 1_555
C8A C3A 1_555 1_555
C9A C8A 1_555 1_555
H6A C9A 1_555 1_555
H7A C9A 1_555 1_555
H8A C9A 1_555 1_555
C10A C8A 1_555 1_555
H9A C10A 1_555 1_555
H10A C10A 1_555 1_555
H11A C10A 1_555 1_555
C11A C8A 1_555 1_555
H12A C11A 1_555 1_555
H13A C11A 1_555 1_555
H14A C11A 1_555 1_555
C12A C7A 1_555 1_555
C13A C12A 1_555 1_555
H15A C13A 1_555 1_555
H16A C13A 1_555 1_555
H17A C13A 1_555 1_555
C14A C12A 1_555 1_555
H18A C14A 1_555 1_555
H19A C14A 1_555 1_555
H20A C14A 1_555 1_555
C15A C12A 1_555 1_555
H21A C15A 1_555 1_555
H22A C15A 1_555 1_555
H23A C15A 1_555 1_555
C16A O2A 1_555 1_555
H24A C16A 1_555 1_555
C17A O3A 1_555 1_555
H25A C17A 1_555 1_555
H26A C17A 1_555 1_555
C18A O3A 1_555 1_555
H27A C18A 1_555 1_555
H28A C18A 1_555 1_555
H29A C18A 1_555 1_555
C19A O4A 1_555 1_555
H30A C19A 1_555 1_555
H31A C19A 1_555 1_555
C20A O5A 1_555 1_555
H32A C20A 1_555 1_555
C21A O4A 1_555 1_555
H33A C21A 1_555 1_555
H34A C21A 1_555 1_555
H35A C21A 1_555 1_555
C22A O6A 1_555 1_555
H36A C22A 1_555 1_555
H37A C22A 1_555 1_555
C23A O7A 1_555 1_555
H38A C23A 1_555 1_555
H39A C23A 1_555 1_555
C24A O7A 1_555 1_555
H40A C24A 1_555 1_555
H41A C24A 1_555 1_555
H42A C24A 1_555 1_555
Mg2 O6 1_555 1_555
Mg2 O5A 1_555 1_555
O5 Mg2A 1_555 1_555
C6 C7 1_555 1_555
C16 C17 1_555 1_555
C19 C20 1_555 1_555
C22 C23 1_555 1_555
Mg1A O2A 1_555 1_555
Mg1A O5A 1_555 1_555
Mg2A O6A 1_555 1_555
C6A C7A 1_555 1_555
C16A C17A 1_555 1_555
C19A C20A 1_555 1_555
C22A C23A 1_555 1_555

#END
