
#######################################################################
#
#                 Cambridge Crystallographic Data Centre
#                                CCDC 
#
#######################################################################
#
# If this CIF has been generated from an entry in the Cambridge 
# Structural Database, then it will include bibliographic, chemical, 
# crystal, experimental, refinement or atomic coordinate data resulting 
# from the CCDC's data processing and validation procedures.
#
#######################################################################

data_NOBNEY
_chemical_formula_moiety         'C34 H56 O2'
_chemical_name_systematic        
2,3,3a,3b,4,5,6a,6b-Octa-n-propyl-3a,3b,6a,6b-tetrahydrocyclopenta(3,4)cyclobuta(1,2)cyclopentene-1,6-dione
_symmetry_cell_setting           orthorhombic
_symmetry_space_group_name_H-M   'A b a 2'
_symmetry_Int_Tables_number      41
_space_group_name_Hall           'A 2 -2ab'
loop_
_symmetry_equiv_pos_site_id
_symmetry_equiv_pos_as_xyz
1 x,y,z
2 -x,-y,z
3 1/2+x,1/2-y,z
4 1/2-x,1/2+y,z
5 x,1/2+y,1/2+z
6 -x,1/2-y,1/2+z
7 1/2+x,-y,1/2+z
8 1/2-x,y,1/2+z
_cell_length_a                   19.655(4)
_cell_length_b                   20.326(4)
_cell_length_c                   16.036(3)
_cell_angle_alpha                90
_cell_angle_beta                 90
_cell_angle_gamma                90
_cell_volume                     6406.5
_exptl_crystal_colour            colorless
_exptl_crystal_description       block
_chemical_melting_point          '82.1-83.4 deg.C'
_cell_formula_units_Z            8
loop_
_atom_site_label
_atom_site_type_symbol
_atom_site_fract_x
_atom_site_fract_y
_atom_site_fract_z
O1 O 0.2532(3) 0.41123(19) 0.1063(3)
O2 O 0.1021(2) 0.2501(2) 0.1883(2)
C1 C 0.2426(3) 0.4179(3) 0.1816(4)
C2 C 0.2874(3) 0.4505(2) 0.2402(4)
C3 C 0.2596(3) 0.4480(2) 0.3175(3)
C4 C 0.1895(2) 0.4163(2) 0.3174(3)
C5 C 0.1793(3) 0.3921(3) 0.2264(3)
C6 C 0.1886(3) 0.3172(3) 0.2545(3)
C7 C 0.1227(3) 0.2791(3) 0.2503(4)
C8 C 0.0873(3) 0.2830(3) 0.3299(3)
C9 C 0.1238(3) 0.3183(3) 0.3834(3)
C10 C 0.1914(2) 0.3406(2) 0.3481(3)
C11 C 0.3540(3) 0.4768(3) 0.2113(4)
H1 H 0.3756 0.4443 0.1759
H2 H 0.3831 0.4835 0.2594
C12 C 0.3484(3) 0.5416(3) 0.1632(4)
H3 H 0.3166 0.5359 0.1175
H4 H 0.3303 0.5751 0.1999
C13 C 0.4165(4) 0.5650(4) 0.1283(5)
H5 H 0.4473 0.5736 0.1734
H6 H 0.4097 0.6046 0.0967
H7 H 0.4352 0.5317 0.0927
C14 C 0.2932(2) 0.4732(2) 0.3956(3)
H8 H 0.3370 0.4517 0.4009
H9 H 0.2658 0.4595 0.4428
C15 C 0.3047(3) 0.5466(3) 0.4029(4)
H10 H 0.3330 0.5609 0.3567
H11 H 0.2612 0.5688 0.3978
C16 C 0.3375(4) 0.5674(3) 0.4826(4)
H12 H 0.3094 0.5543 0.5287
H13 H 0.3428 0.6143 0.4831
H14 H 0.3813 0.5469 0.4874
C17 C 0.1367(2) 0.4612(2) 0.3582(3)
H15 H 0.1472 0.4646 0.4171
H16 H 0.0924 0.4403 0.3534
C18 C 0.1315(3) 0.5308(3) 0.3223(5)
H17 H 0.1754 0.5521 0.3273
H18 H 0.1206 0.5278 0.2634
C19 C 0.0794(4) 0.5723(3) 0.3641(6)
H19 H 0.0352 0.5532 0.3561
H20 H 0.0802 0.6157 0.3405
H21 H 0.0892 0.5748 0.4226
C20 C 0.1111(5) 0.4100(3) 0.1820(4)
H22 H 0.0753 0.3976 0.2208
H23 H 0.1102 0.4576 0.1790
C21 C 0.0892(4) 0.3877(5) 0.1035(8)
H24 H 0.1008 0.3416 0.0977
H25 H 0.1135 0.4118 0.0605
C22 C 0.0123(4) 0.3962(6) 0.0896(7)
H26 H -0.0097 0.3542 0.0943
H27 H 0.0044 0.4140 0.0350
H28 H -0.0057 0.4256 0.1309
C23 C 0.2476(3) 0.2803(3) 0.2130(3)
H29 H 0.2462 0.2897 0.1537
H30 H 0.2898 0.2984 0.2344
C24 C 0.2502(5) 0.2068(3) 0.2237(5)
H31 H 0.2514 0.1971 0.2829
H32 H 0.2084 0.1883 0.2015
C25 C 0.3078(4) 0.1737(3) 0.1837(5)
H33 H 0.3496 0.1909 0.2057
H34 H 0.3061 0.1812 0.1246
H35 H 0.3053 0.1273 0.1946
C26 C 0.0194(3) 0.2486(3) 0.3381(4)
H36 H -0.0079 0.2582 0.2893
H37 H -0.0043 0.2660 0.3864
C27 C 0.0261(3) 0.1745(3) 0.3473(4)
H38 H 0.0528 0.1577 0.3011
H39 H 0.0507 0.1649 0.3983
C28 C -0.0416(3) 0.1386(4) 0.3493(5)
H40 H -0.0672 0.1526 0.3971
H41 H -0.0337 0.0920 0.3526
H42 H -0.0667 0.1484 0.2995
C29 C 0.1014(3) 0.3367(3) 0.4716(4)
H43 H 0.1384 0.3605 0.4980
H44 H 0.0633 0.3668 0.4671
C30 C 0.0815(5) 0.2832(4) 0.5268(4)
H45 H 0.1201 0.2541 0.5346
H46 H 0.0455 0.2580 0.5003
C31 C 0.0569(3) 0.3063(4) 0.6111(4)
H47 H 0.0935 0.3277 0.6399
H48 H 0.0418 0.2691 0.6430
H49 H 0.0200 0.3366 0.6039
C32 C 0.2516(3) 0.3213(2) 0.4041(3)
H50 H 0.2517 0.3500 0.4525
H51 H 0.2934 0.3293 0.3737
C33 C 0.2520(4) 0.2492(3) 0.4349(5)
H52 H 0.2163 0.2437 0.4761
H53 H 0.2415 0.2205 0.3882
C34 C 0.3175(4) 0.2281(3) 0.4719(5)
H54 H 0.3527 0.2308 0.4306
H55 H 0.3136 0.1836 0.4912
H56 H 0.3286 0.2564 0.5179
loop_
_geom_bond_atom_site_label_1
_geom_bond_atom_site_label_2
_geom_bond_site_symmetry_1
_geom_bond_site_symmetry_2
O1 C1 1_555 1_555
O2 C7 1_555 1_555
C1 C2 1_555 1_555
C2 C3 1_555 1_555
C3 C4 1_555 1_555
C4 C5 1_555 1_555
C5 C1 1_555 1_555
C6 C5 1_555 1_555
C7 C6 1_555 1_555
C8 C7 1_555 1_555
C9 C8 1_555 1_555
C10 C4 1_555 1_555
C11 C2 1_555 1_555
H1 C11 1_555 1_555
H2 C11 1_555 1_555
C12 C11 1_555 1_555
H3 C12 1_555 1_555
H4 C12 1_555 1_555
C13 C12 1_555 1_555
H5 C13 1_555 1_555
H6 C13 1_555 1_555
H7 C13 1_555 1_555
C14 C3 1_555 1_555
H8 C14 1_555 1_555
H9 C14 1_555 1_555
C15 C14 1_555 1_555
H10 C15 1_555 1_555
H11 C15 1_555 1_555
C16 C15 1_555 1_555
H12 C16 1_555 1_555
H13 C16 1_555 1_555
H14 C16 1_555 1_555
C17 C4 1_555 1_555
H15 C17 1_555 1_555
H16 C17 1_555 1_555
C18 C17 1_555 1_555
H17 C18 1_555 1_555
H18 C18 1_555 1_555
C19 C18 1_555 1_555
H19 C19 1_555 1_555
H20 C19 1_555 1_555
H21 C19 1_555 1_555
C20 C5 1_555 1_555
H22 C20 1_555 1_555
H23 C20 1_555 1_555
C21 C20 1_555 1_555
H24 C21 1_555 1_555
H25 C21 1_555 1_555
C22 C21 1_555 1_555
H26 C22 1_555 1_555
H27 C22 1_555 1_555
H28 C22 1_555 1_555
C23 C6 1_555 1_555
H29 C23 1_555 1_555
H30 C23 1_555 1_555
C24 C23 1_555 1_555
H31 C24 1_555 1_555
H32 C24 1_555 1_555
C25 C24 1_555 1_555
H33 C25 1_555 1_555
H34 C25 1_555 1_555
H35 C25 1_555 1_555
C26 C8 1_555 1_555
H36 C26 1_555 1_555
H37 C26 1_555 1_555
C27 C26 1_555 1_555
H38 C27 1_555 1_555
H39 C27 1_555 1_555
C28 C27 1_555 1_555
H40 C28 1_555 1_555
H41 C28 1_555 1_555
H42 C28 1_555 1_555
C29 C9 1_555 1_555
H43 C29 1_555 1_555
H44 C29 1_555 1_555
C30 C29 1_555 1_555
H45 C30 1_555 1_555
H46 C30 1_555 1_555
C31 C30 1_555 1_555
H47 C31 1_555 1_555
H48 C31 1_555 1_555
H49 C31 1_555 1_555
C32 C10 1_555 1_555
H50 C32 1_555 1_555
H51 C32 1_555 1_555
C33 C32 1_555 1_555
H52 C33 1_555 1_555
H53 C33 1_555 1_555
C34 C33 1_555 1_555
H54 C34 1_555 1_555
H55 C34 1_555 1_555
H56 C34 1_555 1_555
C6 C10 1_555 1_555
C9 C10 1_555 1_555

#END
