
#######################################################################
#
#                 Cambridge Crystallographic Data Centre
#                                CCDC 
#
#######################################################################
#
# If this CIF has been generated from an entry in the Cambridge 
# Structural Database, then it will include bibliographic, chemical, 
# crystal, experimental, refinement or atomic coordinate data resulting 
# from the CCDC's data processing and validation procedures.
#
#######################################################################

data_NOBVEF
_chemical_name_common            Ornidazole
_chemical_formula_moiety         'C7 H10 Cl1 N3 O3'
_chemical_name_systematic        
R-(+)-1-(3-Chloro-2-hydroxypropyl)-2-methyl-5-nitroimidazole
_chemical_properties_biological  'antimicrobial activity'
_symmetry_cell_setting           orthorhombic
_symmetry_space_group_name_H-M   'P 21 21 21'
_symmetry_Int_Tables_number      19
_space_group_name_Hall           'P 2ac 2ab'
loop_
_symmetry_equiv_pos_site_id
_symmetry_equiv_pos_as_xyz
1 x,y,z
2 1/2-x,-y,1/2+z
3 -x,1/2+y,1/2-z
4 1/2+x,1/2-y,-z
_cell_length_a                   7.455(1)
_cell_length_b                   10.497(1)
_cell_length_c                   12.812(1)
_cell_angle_alpha                90
_cell_angle_beta                 90
_cell_angle_gamma                90
_cell_volume                     1002.6
_exptl_crystal_colour            colorless
_exptl_crystal_description       block
_chemical_melting_point          92deg.C
_cell_formula_units_Z            4
_exptl_crystal_recrystallization_method toluene
loop_
_atom_site_label
_atom_site_type_symbol
_atom_site_fract_x
_atom_site_fract_y
_atom_site_fract_z
N1 N -0.3317(2) 0.5988(2) 0.36714(14)
C1 C -0.4825(3) 0.6631(2) 0.3936(2)
C2 C -0.6286(4) 0.6083(4) 0.4587(3)
H1 H -0.5813(10) 0.5842(28) 0.5255(10)
H2 H -0.6774(29) 0.5347(18) 0.4245(12)
H3 H -0.7213(20) 0.6708(11) 0.4680(21)
N2 N -0.4813(3) 0.7810(2) 0.3552(2)
C3 C -0.3263(4) 0.7931(2) 0.3013(2)
H4 H -0.2895(4) 0.8657(2) 0.2656(2)
C4 C -0.2336(3) 0.6827(2) 0.3076(2)
N3 N -0.0638(3) 0.6553(3) 0.2620(2)
O1 O -0.0044(5) 0.7367(3) 0.2027(2)
O2 O 0.0121(3) 0.5551(3) 0.2804(2)
C5 C -0.2795(3) 0.4726(2) 0.4056(2)
H5 H -0.2221(3) 0.4252(2) 0.3499(2)
H6 H -0.3858(3) 0.4261(2) 0.4270(2)
C6 C -0.1519(3) 0.4839(2) 0.4974(2)
H7 H -0.0492(3) 0.5367(2) 0.4771(2)
O3 O -0.2419(2) 0.5423(2) 0.58157(13)
H8 H -0.1735(14) 0.5915(25) 0.6114(17)
C7 C -0.0861(4) 0.3533(2) 0.5282(2)
H9 H -0.0483(4) 0.3072(2) 0.4663(2)
H10 H -0.1830(4) 0.3060(2) 0.5606(2)
Cl1 Cl 0.09793(10) 0.36529(6) 0.61734(5)
loop_
_geom_bond_atom_site_label_1
_geom_bond_atom_site_label_2
_geom_bond_site_symmetry_1
_geom_bond_site_symmetry_2
N1 C1 1_555 1_555
C1 C2 1_555 1_555
C2 H1 1_555 1_555
H2 C2 1_555 1_555
H3 C2 1_555 1_555
N2 C1 1_555 1_555
C3 N2 1_555 1_555
H4 C3 1_555 1_555
C4 N1 1_555 1_555
N3 C4 1_555 1_555
O1 N3 1_555 1_555
O2 N3 1_555 1_555
C5 N1 1_555 1_555
H5 C5 1_555 1_555
H6 C5 1_555 1_555
C6 C5 1_555 1_555
H7 C6 1_555 1_555
O3 C6 1_555 1_555
H8 O3 1_555 1_555
C7 C6 1_555 1_555
H9 C7 1_555 1_555
H10 C7 1_555 1_555
Cl1 C7 1_555 1_555
C3 C4 1_555 1_555

#END
