
#######################################################################
#
#                 Cambridge Crystallographic Data Centre
#                                CCDC 
#
#######################################################################
#
# If this CIF has been generated from an entry in the Cambridge 
# Structural Database, then it will include bibliographic, chemical, 
# crystal, experimental, refinement or atomic coordinate data resulting 
# from the CCDC's data processing and validation procedures.
#
#######################################################################

data_NOBXEH
_chemical_name_common            bis(Tetrathiafulvalenyl)methylmethoxyether
_chemical_formula_moiety         'C14 H10 O1 S8'
_chemical_name_systematic        
"bis(2,2'-Bi(1,3-dithiolylidene)-4-yl)methyl methyl ether"
_symmetry_cell_setting           triclinic
_symmetry_space_group_name_H-M   'P -1'
_symmetry_Int_Tables_number      2
_space_group_name_Hall           '-P 1'
loop_
_symmetry_equiv_pos_site_id
_symmetry_equiv_pos_as_xyz
1 x,y,z
2 -x,-y,-z
_cell_length_a                   6.431(9)
_cell_length_b                   10.843(22)
_cell_length_c                   13.470(25)
_cell_angle_alpha                105.66(16)
_cell_angle_beta                 93.18(14)
_cell_angle_gamma                95.57(14)
_cell_volume                     896.87
_exptl_crystal_colour            orange
_chemical_melting_point          '151-153 deg.C'
_cell_formula_units_Z            2
_exptl_crystal_recrystallization_method hexane/dichloromethane
loop_
_atom_site_label
_atom_site_type_symbol
_atom_site_fract_x
_atom_site_fract_y
_atom_site_fract_z
S1 S 0.0927(6) 0.2392(4) 0.4045(3)
S2 S 0.5200(6) 0.1670(4) 0.4336(3)
S3 S 0.2026(6) 0.4948(4) 0.5999(3)
S4 S 0.6213(6) 0.4173(4) 0.6354(3)
S5 S -0.3341(6) 0.1555(4) 0.0404(3)
S6 S 0.1085(6) 0.1459(4) 0.1088(3)
S7 S -0.1744(6) 0.3256(4) -0.1146(3)
S8 S 0.2637(7) 0.3189(4) -0.0422(3)
O1 O -0.1997(15) -0.0262(9) 0.2951(7)
C1 C 0.3392(24) 0.2790(15) 0.4785(11)
C2 C 0.1519(21) 0.0900(13) 0.3267(10)
C3 C 0.3460(20) 0.0611(13) 0.3439(10)
H1 H 0.3865(20) -0.0169(13) 0.3064(10)
C4 C 0.3871(26) 0.3851(15) 0.5604(10)
C5 C 0.3665(24) 0.5928(12) 0.7018(9)
H2 H 0.3197(24) 0.6659(12) 0.7442(9)
C6 C 0.5586(29) 0.5591(18) 0.7177(12)
H3 H 0.6521(29) 0.6110(18) 0.7712(12)
C7 C -0.0669(21) 0.2014(12) 0.0300(10)
C8 C -0.0907(22) 0.0738(13) 0.1678(10)
C9 C -0.2868(24) 0.0814(15) 0.1361(10)
H4 H -0.3979(24) 0.0475(15) 0.1657(10)
C10 C -0.0076(24) 0.2715(14) -0.0324(9)
C11 C 0.0255(23) 0.4262(14) -0.1487(11)
H5 H -0.0062(23) 0.4805(14) -0.1889(11)
C12 C 0.2200(31) 0.4231(17) -0.1158(12)
H6 H 0.3300(31) 0.4749(17) -0.1315(12)
C13 C -0.0177(24) 0.0101(14) 0.2479(10)
H7 H 0.0380(24) -0.0692(14) 0.2114(10)
C14 C -0.1696(27) -0.1153(15) 0.3521(12)
H8 H -0.2974(27) -0.1336(15) 0.3817(12)
H9 H -0.0593(27) -0.0803(15) 0.4063(12)
H10 H -0.1329(27) -0.1935(15) 0.3067(12)
loop_
_geom_bond_atom_site_label_1
_geom_bond_atom_site_label_2
_geom_bond_site_symmetry_1
_geom_bond_site_symmetry_2
S1 C1 1_555 1_555
S2 C1 1_555 1_555
S3 C4 1_555 1_555
S4 C4 1_555 1_555
S5 C7 1_555 1_555
S6 C7 1_555 1_555
S7 C10 1_555 1_555
S8 C10 1_555 1_555
O1 C13 1_555 1_555
C1 C4 1_555 1_555
C2 S1 1_555 1_555
C3 S2 1_555 1_555
H1 C3 1_555 1_555
C5 S3 1_555 1_555
H2 C5 1_555 1_555
C6 S4 1_555 1_555
H3 C6 1_555 1_555
C7 C10 1_555 1_555
C8 S6 1_555 1_555
C9 S5 1_555 1_555
H4 C9 1_555 1_555
C11 S7 1_555 1_555
H5 C11 1_555 1_555
C12 S8 1_555 1_555
H6 C12 1_555 1_555
C13 C2 1_555 1_555
H7 C13 1_555 1_555
C14 O1 1_555 1_555
H8 C14 1_555 1_555
H9 C14 1_555 1_555
H10 C14 1_555 1_555
C2 C3 1_555 1_555
C5 C6 1_555 1_555
C8 C13 1_555 1_555
C8 C9 1_555 1_555
C11 C12 1_555 1_555

#END
