
#######################################################################
#
#                 Cambridge Crystallographic Data Centre
#                                CCDC 
#
#######################################################################
#
# If this CIF has been generated from an entry in the Cambridge 
# Structural Database, then it will include bibliographic, chemical, 
# crystal, experimental, refinement or atomic coordinate data resulting 
# from the CCDC's data processing and validation procedures.
#
#######################################################################

data_NOCSON
_chemical_formula_moiety         'C28 H50 N2 S2'
_chemical_name_systematic        N,N'-bis(Cyclododecyl)piperazine-2,3-dithione
_symmetry_cell_setting           monoclinic
_symmetry_space_group_name_H-M   'C 2/c'
_symmetry_Int_Tables_number      15
_space_group_name_Hall           '-C 2yn'
loop_
_symmetry_equiv_pos_site_id
_symmetry_equiv_pos_as_xyz
1 x,y,z
2 -x,y,1/2-z
3 1/2+x,1/2+y,z
4 1/2-x,1/2+y,1/2-z
5 -x,-y,-z
6 x,-y,1/2+z
7 1/2-x,1/2-y,-z
8 1/2+x,1/2-y,1/2+z
_cell_length_a                   25.124(4)
_cell_length_b                   6.925(2)
_cell_length_c                   16.424(4)
_cell_angle_alpha                90
_cell_angle_beta                 92.30(2)
_cell_angle_gamma                90
_cell_volume                     2855.21
_cell_formula_units_Z            4
loop_
_atom_site_label
_atom_site_type_symbol
_atom_site_fract_x
_atom_site_fract_y
_atom_site_fract_z
S1 S 0.5223(1) -0.0020(2) 0.1557(1)
C1 C 0.5193(2) 0.1895(6) 0.2154(3)
C2 C 0.5286(3) 0.5242(6) 0.2494(3)
C3 C 0.5896(2) 0.3677(7) 0.1477(3)
C4 C 0.6402(2) 0.4332(9) 0.1910(4)
C5 C 0.6639(3) 0.2816(13) 0.2490(4)
C6 C 0.6786(3) 0.0895(12) 0.2103(4)
C7 C 0.7186(2) 0.1047(12) 0.1455(5)
C8 C 0.7183(2) -0.0640(11) 0.0874(5)
C9 C 0.6728(3) -0.0553(10) 0.0241(5)
C10 C 0.6789(3) 0.0987(10) -0.0423(4)
C11 C 0.6298(2) 0.1569(10) -0.0892(3)
C12 C 0.5866(2) 0.2528(9) -0.0385(3)
C13 C 0.6025(3) 0.4469(8) -0.0006(3)
C14 C 0.5716(3) 0.4951(7) 0.0735(3)
N1 N 0.5463(2) 0.3505(5) 0.2065(2)
H1 H 0.5437 0.5251 0.3047
H2 H 0.5407 0.6389 0.2218
H3 H 0.6330 0.5496 0.2216
H4 H 0.6661 0.4652 0.1509
H5 H 0.6386 0.2564 0.2907
H6 H 0.6957 0.3352 0.2758
H7 H 0.6927 0.0040 0.2527
H8 H 0.6465 0.0307 0.1869
H9 H 0.7539 0.1160 0.1714
H10 H 0.7117 0.2220 0.1145
H11 H 0.7156 -0.1828 0.1183
H12 H 0.7518 -0.0668 0.0600
H13 H 0.6401 -0.0305 0.0516
H14 H 0.6694 -0.1806 -0.0020
H15 H 0.6943 0.2132 -0.0168
H16 H 0.7043 0.0511 -0.0805
H17 H 0.6146 0.0433 -0.1157
H18 H 0.6396 0.2461 -0.1316
H19 H 0.5548 0.2714 -0.0732
H20 H 0.5774 0.1652 0.0049
H21 H 0.6402 0.4443 0.0145
H22 H 0.5967 0.5477 -0.0410
H23 H 0.5339 0.4753 0.0613
H24 H 0.5770 0.6301 0.0872
C1A C 0.4807(2) 0.1895(6) 0.2846(3)
S1A S 0.4777(1) -0.0020(2) 0.3443(1)
N1A N 0.4537(2) 0.3505(5) 0.2935(2)
C2A C 0.4714(3) 0.5242(6) 0.2506(3)
H1A H 0.4563 0.5251 0.1953
H2A H 0.4593 0.6389 0.2782
C3A C 0.4104(2) 0.3677(7) 0.3523(3)
C4A C 0.3598(2) 0.4332(9) 0.3090(4)
C5A C 0.3361(3) 0.2816(13) 0.2510(4)
C6A C 0.3214(3) 0.0895(12) 0.2897(4)
C7A C 0.2814(2) 0.1047(12) 0.3545(5)
C8A C 0.2817(2) -0.0640(11) 0.4126(5)
C9A C 0.3272(3) -0.0553(10) 0.4759(5)
C10A C 0.3211(3) 0.0987(10) 0.5423(4)
C11A C 0.3702(2) 0.1569(10) 0.5892(3)
C12A C 0.4134(2) 0.2528(9) 0.5385(3)
C13A C 0.3975(3) 0.4469(8) 0.5006(3)
C14A C 0.4284(3) 0.4951(7) 0.4265(3)
H23A H 0.4661 0.4753 0.4387
H24A H 0.4230 0.6301 0.4128
H21A H 0.3598 0.4443 0.4855
H22A H 0.4033 0.5477 0.5410
H19A H 0.4452 0.2714 0.5732
H20A H 0.4226 0.1652 0.4951
H17A H 0.3854 0.0433 0.6157
H18A H 0.3604 0.2461 0.6316
H15A H 0.3057 0.2132 0.5168
H16A H 0.2957 0.0511 0.5805
H13A H 0.3599 -0.0305 0.4484
H14A H 0.3306 -0.1806 0.5020
H11A H 0.2844 -0.1828 0.3817
H12A H 0.2482 -0.0668 0.4400
H9A H 0.2461 0.1160 0.3286
H10A H 0.2883 0.2220 0.3855
H7A H 0.3073 0.0040 0.2473
H8A H 0.3535 0.0307 0.3131
H5A H 0.3614 0.2564 0.2093
H6A H 0.3043 0.3352 0.2242
H3A H 0.3670 0.5496 0.2784
H4A H 0.3339 0.4652 0.3491
loop_
_geom_bond_atom_site_label_1
_geom_bond_atom_site_label_2
_geom_bond_site_symmetry_1
_geom_bond_site_symmetry_2
S1 C1 1_555 1_555
C1 N1 1_555 1_555
C2 N1 1_555 1_555
C3 C4 1_555 1_555
C4 C5 1_555 1_555
C5 C6 1_555 1_555
C6 C7 1_555 1_555
C7 C8 1_555 1_555
C8 C9 1_555 1_555
C9 C10 1_555 1_555
C10 C11 1_555 1_555
C11 C12 1_555 1_555
C12 C13 1_555 1_555
C13 C14 1_555 1_555
C14 C3 1_555 1_555
N1 C3 1_555 1_555
H1 C2 1_555 1_555
H2 C2 1_555 1_555
H3 C4 1_555 1_555
H4 C4 1_555 1_555
H5 C5 1_555 1_555
H6 C5 1_555 1_555
H7 C6 1_555 1_555
H8 C6 1_555 1_555
H9 C7 1_555 1_555
H10 C7 1_555 1_555
H11 C8 1_555 1_555
H12 C8 1_555 1_555
H13 C9 1_555 1_555
H14 C9 1_555 1_555
H15 C10 1_555 1_555
H16 C10 1_555 1_555
H17 C11 1_555 1_555
H18 C11 1_555 1_555
H19 C12 1_555 1_555
H20 C12 1_555 1_555
H21 C13 1_555 1_555
H22 C13 1_555 1_555
H23 C14 1_555 1_555
H24 C14 1_555 1_555
C1A C1 1_555 1_555
S1A C1A 1_555 1_555
N1A C1A 1_555 1_555
C2A C2 1_555 1_555
H1A C2A 1_555 1_555
H2A C2A 1_555 1_555
C3A N1A 1_555 1_555
C4A C3A 1_555 1_555
C5A C4A 1_555 1_555
C6A C5A 1_555 1_555
C7A C6A 1_555 1_555
C8A C7A 1_555 1_555
C9A C8A 1_555 1_555
C10A C9A 1_555 1_555
C11A C10A 1_555 1_555
C12A C11A 1_555 1_555
C13A C12A 1_555 1_555
C14A C3A 1_555 1_555
H23A C14A 1_555 1_555
H24A C14A 1_555 1_555
H21A C13A 1_555 1_555
H22A C13A 1_555 1_555
H19A C12A 1_555 1_555
H20A C12A 1_555 1_555
H17A C11A 1_555 1_555
H18A C11A 1_555 1_555
H15A C10A 1_555 1_555
H16A C10A 1_555 1_555
H13A C9A 1_555 1_555
H14A C9A 1_555 1_555
H11A C8A 1_555 1_555
H12A C8A 1_555 1_555
H9A C7A 1_555 1_555
H10A C7A 1_555 1_555
H7A C6A 1_555 1_555
H8A C6A 1_555 1_555
H5A C5A 1_555 1_555
H6A C5A 1_555 1_555
H3A C4A 1_555 1_555
H4A C4A 1_555 1_555
N1A C2A 1_555 1_555
C13A C14A 1_555 1_555

#END
