
#######################################################################
#
#                 Cambridge Crystallographic Data Centre
#                                CCDC 
#
#######################################################################
#
# If this CIF has been generated from an entry in the Cambridge 
# Structural Database, then it will include bibliographic, chemical, 
# crystal, experimental, refinement or atomic coordinate data resulting 
# from the CCDC's data processing and validation procedures.
#
#######################################################################

data_NOCXAG
_chemical_formula_moiety         'C26 H25 Br1 N2 O6'
_chemical_name_systematic        
"Ethyl 5-bromo-4'-(2-ethoxy-2-oxoethyl)-2,2''-dioxo-1,1'',2,2''-tetrahydrodispiro[indole-3,1'-cyclopentane-3',3''-indole]-2'-carboxylate"
_symmetry_cell_setting           orthorhombic
_symmetry_space_group_name_H-M   'P 21 21 21'
_symmetry_Int_Tables_number      19
_space_group_name_Hall           'P 2ac 2ab'
loop_
_symmetry_equiv_pos_site_id
_symmetry_equiv_pos_as_xyz
1 x,y,z
2 1/2-x,-y,1/2+z
3 -x,1/2+y,1/2-z
4 1/2+x,1/2-y,-z
_cell_length_a                   8.7274(11)
_cell_length_b                   14.5874(18)
_cell_length_c                   19.908(3)
_cell_angle_alpha                90
_cell_angle_beta                 90
_cell_angle_gamma                90
_cell_volume                     2534.49
_exptl_crystal_colour            colorless
_exptl_crystal_description       block
_cell_formula_units_Z            4
loop_
_atom_site_label
_atom_site_type_symbol
_atom_site_fract_x
_atom_site_fract_y
_atom_site_fract_z
Br1 Br 0.71562(12) 0.65835(5) 0.85735(3)
O1 O 0.8499(4) 0.8073(2) 0.63739(19)
O2 O 0.2219(4) 0.8682(3) 0.57903(19)
O3 O 0.7145(6) 0.9789(3) 0.70706(17)
O4 O 0.4706(5) 0.9691(3) 0.73734(18)
O5 O 0.4791(6) 0.9401(3) 0.3761(2)
O6 O 0.7101(5) 0.8868(3) 0.40253(17)
N1 N 0.9239(5) 0.9353(3) 0.5811(3)
H1 H 1.0211 0.9292 0.5866
N2 N 0.2072(6) 0.7965(3) 0.6803(2)
H2 H 0.1091 0.7963 0.6843
C1 C 0.5480(11) 0.7016(4) 0.8061(3)
C2 C 0.3954(12) 0.6912(4) 0.8286(3)
H3 H 0.3753 0.6639 0.8699
C3 C 0.2802(10) 0.7208(4) 0.7902(3)
H4 H 0.1798 0.7142 0.8051
C4 C 0.3083(7) 0.7614(3) 0.7282(3)
C5 C 0.4588(7) 0.7735(3) 0.7061(2)
C6 C 0.5824(8) 0.7434(4) 0.7436(3)
H5 H 0.6827 0.7501 0.7286
C7 C 0.2826(6) 0.8304(3) 0.6275(2)
C8 C 0.4542(6) 0.8189(3) 0.6381(2)
C9 C 0.5272(6) 0.7592(3) 0.5806(2)
H6 H 0.6025 0.7173 0.5991
H7 H 0.4487 0.7237 0.5579
C10 C 0.6033(6) 0.8254(3) 0.5316(2)
H8 H 0.6924 0.7948 0.5117
C11 C 0.6615(5) 0.9051(3) 0.5774(2)
C12 C 0.5343(5) 0.9138(3) 0.6310(2)
H9 H 0.4573 0.9549 0.6116
C13 C 0.7002(6) 0.9954(3) 0.5440(2)
C14 C 0.8558(6) 1.0091(4) 0.5468(3)
C15 C 0.8196(6) 0.8754(3) 0.6044(2)
C16 C 0.6111(7) 1.0616(3) 0.5137(3)
H10 H 0.5052 1.0548 0.5119
C17 C 0.6802(9) 1.1381(4) 0.4862(3)
H11 H 0.6202 1.1815 0.4643
C18 C 0.8343(10) 1.1511(5) 0.4905(3)
H12 H 0.8774 1.2048 0.4737
C19 C 0.9267(9) 1.0859(5) 0.5193(3)
H13 H 1.0326 1.0928 0.5204
C20 C 0.4970(6) 0.8552(4) 0.4750(2)
H14 H 0.4382 0.8025 0.4602
H15 H 0.4253 0.9001 0.4925
C21 C 0.5831(7) 0.9576(3) 0.6958(2)
C22 C 0.5182(10) 1.0088(6) 0.8036(4)
H16 H 0.6130 0.9800 0.8177
H17 H 0.5381 1.0738 0.7979
C23 C 0.5779(7) 0.8961(4) 0.4150(2)
C24 C 0.5362(11) 0.9735(6) 0.3114(4)
H18 H 0.4775 0.9482 0.2744
H19 H 0.6435 0.9581 0.3053
C25 C 0.5145(19) 1.0743(10) 0.3165(9)
H20 H 0.4378 1.0874 0.3498
H21 H 0.4821 1.0980 0.2739
H22 H 0.6094 1.1026 0.3293
C26 C 0.4039(18) 0.9967(12) 0.8560(8)
H23 H 0.3143 1.0320 0.8452
H24 H 0.4450 1.0172 0.8981
H25 H 0.3769 0.9331 0.8592
loop_
_geom_bond_atom_site_label_1
_geom_bond_atom_site_label_2
_geom_bond_site_symmetry_1
_geom_bond_site_symmetry_2
Br1 C1 1_555 1_555
O1 C15 1_555 1_555
O2 C7 1_555 1_555
O3 C21 1_555 1_555
O4 C21 1_555 1_555
O5 C23 1_555 1_555
O6 C23 1_555 1_555
N1 H1 1_555 1_555
N2 H2 1_555 1_555
C1 C2 1_555 1_555
C2 H3 1_555 1_555
C3 C2 1_555 1_555
H4 C3 1_555 1_555
C4 N2 1_555 1_555
C5 C4 1_555 1_555
C6 C1 1_555 1_555
H5 C6 1_555 1_555
C7 N2 1_555 1_555
C8 C5 1_555 1_555
C9 C8 1_555 1_555
H6 C9 1_555 1_555
H7 C9 1_555 1_555
C10 C9 1_555 1_555
H8 C10 1_555 1_555
C11 C10 1_555 1_555
C12 C8 1_555 1_555
H9 C12 1_555 1_555
C13 C11 1_555 1_555
C14 N1 1_555 1_555
C15 N1 1_555 1_555
C16 C13 1_555 1_555
H10 C16 1_555 1_555
C17 C16 1_555 1_555
H11 C17 1_555 1_555
C18 C17 1_555 1_555
H12 C18 1_555 1_555
C19 C14 1_555 1_555
H13 C19 1_555 1_555
C20 C10 1_555 1_555
H14 C20 1_555 1_555
H15 C20 1_555 1_555
C21 C12 1_555 1_555
C22 O4 1_555 1_555
H16 C22 1_555 1_555
H17 C22 1_555 1_555
C23 C20 1_555 1_555
C24 O5 1_555 1_555
H18 C24 1_555 1_555
H19 C24 1_555 1_555
C25 C24 1_555 1_555
H20 C25 1_555 1_555
H21 C25 1_555 1_555
H22 C25 1_555 1_555
C26 C22 1_555 1_555
H23 C26 1_555 1_555
H24 C26 1_555 1_555
H25 C26 1_555 1_555
C3 C4 1_555 1_555
C5 C6 1_555 1_555
C7 C8 1_555 1_555
C11 C12 1_555 1_555
C11 C15 1_555 1_555
C13 C14 1_555 1_555
C18 C19 1_555 1_555

#END
