
#######################################################################
#
#                 Cambridge Crystallographic Data Centre
#                                CCDC 
#
#######################################################################
#
# If this CIF has been generated from an entry in the Cambridge 
# Structural Database, then it will include bibliographic, chemical, 
# crystal, experimental, refinement or atomic coordinate data resulting 
# from the CCDC's data processing and validation procedures.
#
#######################################################################

data_NODDOZ
_chemical_formula_moiety         'C17 H24 O6'
_chemical_name_systematic        
exo-1'-Phenyl-3,5-O-ethylidene-2,4,6-tri-O-methyl-myo-inositol
_symmetry_cell_setting           orthorhombic
_symmetry_space_group_name_H-M   'P b c a'
_symmetry_Int_Tables_number      61
_space_group_name_Hall           '-P 2ac 2ab'
loop_
_symmetry_equiv_pos_site_id
_symmetry_equiv_pos_as_xyz
1 x,y,z
2 1/2-x,1/2+y,z
3 x,1/2-y,1/2+z
4 1/2+x,y,1/2-z
5 -x,-y,-z
6 1/2+x,1/2-y,-z
7 -x,1/2+y,1/2-z
8 1/2-x,-y,1/2+z
_cell_length_a                   8.453(3)
_cell_length_b                   22.221(6)
_cell_length_c                   17.399(4)
_cell_angle_alpha                90
_cell_angle_beta                 90
_cell_angle_gamma                90
_cell_volume                     3268.13
_chemical_melting_point          102-104deg.C
_cell_formula_units_Z            8
loop_
_atom_site_label
_atom_site_type_symbol
_atom_site_fract_x
_atom_site_fract_y
_atom_site_fract_z
O1 O 0.69686(19) 0.40035(7) 0.10512(10)
O2 O 1.10451(20) 0.43407(7) 0.15320(9)
O3 O 0.94578(19) 0.41292(7) -0.03748(9)
O4 O 1.20081(18) 0.32144(7) 0.09110(9)
O5 O 0.82133(18) 0.32110(6) -0.00795(8)
O6 O 0.75320(20) 0.28080(7) 0.14131(9)
C1 C 0.8484(3) 0.38529(10) 0.13456(13)
C2 C 0.9781(3) 0.42588(10) 0.10025(13)
C3 C 1.0531(3) 0.40290(10) 0.02577(13)
C4 C 1.0969(3) 0.33646(11) 0.02996(13)
C5 C 0.9433(3) 0.30297(10) 0.04526(12)
C6 C 0.8859(3) 0.31786(10) 0.12554(12)
C7 C 0.8569(3) 0.36378(10) -0.06685(13)
C8 C 0.9429(3) 0.33515(12) -0.13453(14)
C9 C 0.6949(3) 0.38680(10) -0.09087(13)
C10 C 0.5865(3) 0.34647(11) -0.12148(14)
C11 C 0.4359(3) 0.36468(13) -0.14125(15)
C12 C 0.3914(3) 0.42339(15) -0.13066(16)
C13 C 0.4973(4) 0.46370(12) -0.10082(17)
C14 C 0.6485(3) 0.44588(11) -0.08092(15)
C15 C 1.0740(3) 0.47740(13) 0.21054(16)
C16 C 1.3571(3) 0.34360(14) 0.08220(16)
C17 C 0.7023(3) 0.28504(12) 0.21870(14)
H1 H 0.684 0.375 0.064
H2 H 0.847 0.393 0.189
H3 H 0.930 0.464 0.090
H4 H 1.149 0.426 0.017
H5 H 1.141 0.323 -0.019
H6 H 0.961 0.260 0.042
H7 H 0.970 0.308 0.161
H8 H 1.044 0.320 -0.119
H9 H 0.882 0.301 -0.153
H10 H 0.955 0.363 -0.175
H11 H 0.619 0.305 -0.129
H12 H 0.362 0.335 -0.162
H13 H 0.285 0.436 -0.143
H14 H 0.464 0.506 -0.093
H15 H 0.724 0.475 -0.060
H16 H 1.160 0.482 0.245
H17 H 1.052 0.516 0.188
H18 H 0.981 0.467 0.240
H19 H 1.421 0.333 0.126
H20 H 1.406 0.327 0.038
H21 H 1.358 0.386 0.079
H22 H 0.610 0.260 0.227
H23 H 0.782 0.272 0.253
H24 H 0.672 0.326 0.231
loop_
_geom_bond_atom_site_label_1
_geom_bond_atom_site_label_2
_geom_bond_site_symmetry_1
_geom_bond_site_symmetry_2
O1 C1 1_555 1_555
O2 C2 1_555 1_555
O3 C3 1_555 1_555
O4 C4 1_555 1_555
O5 C5 1_555 1_555
O6 C6 1_555 1_555
C1 C2 1_555 1_555
C2 C3 1_555 1_555
C3 C4 1_555 1_555
C4 C5 1_555 1_555
C5 C6 1_555 1_555
C6 C1 1_555 1_555
C7 O3 1_555 1_555
C8 C7 1_555 1_555
C9 C7 1_555 1_555
C10 C9 1_555 1_555
C11 C10 1_555 1_555
C12 C11 1_555 1_555
C13 C12 1_555 1_555
C14 C9 1_555 1_555
C15 O2 1_555 1_555
C16 O4 1_555 1_555
C17 O6 1_555 1_555
H1 O1 1_555 1_555
H2 C1 1_555 1_555
H3 C2 1_555 1_555
H4 C3 1_555 1_555
H5 C4 1_555 1_555
H6 C5 1_555 1_555
H7 C6 1_555 1_555
H8 C8 1_555 1_555
H9 C8 1_555 1_555
H10 C8 1_555 1_555
H11 C10 1_555 1_555
H12 C11 1_555 1_555
H13 C12 1_555 1_555
H14 C13 1_555 1_555
H15 C14 1_555 1_555
H16 C15 1_555 1_555
H17 C15 1_555 1_555
H18 C15 1_555 1_555
H19 C16 1_555 1_555
H20 C16 1_555 1_555
H21 C16 1_555 1_555
H22 C17 1_555 1_555
H23 C17 1_555 1_555
H24 C17 1_555 1_555
O5 C7 1_555 1_555
C13 C14 1_555 1_555

#END
