
#######################################################################
#
#                 Cambridge Crystallographic Data Centre
#                                CCDC 
#
#######################################################################
#
# If this CIF has been generated from an entry in the Cambridge 
# Structural Database, then it will include bibliographic, chemical, 
# crystal, experimental, refinement or atomic coordinate data resulting 
# from the CCDC's data processing and validation procedures.
#
#######################################################################

data_NODJUM
_chemical_compound_source        'Daldinia eschscholzii IFB-TL01'
_chemical_name_common            'Dalesconol B'
_chemical_formula_moiety         'C29 H18 O7'
_chemical_name_systematic        
4,10,15,17-Tetrahydroxy-12a,13-dihydrobenzo-[3,4]naphtho[1',2':1,7]cyclohepta[1,2-a]acenaphthylene-3,11,14(12H)-trione
_chemical_properties_biological  
'immunosuppressive agent on ConA-induced proliferation of mouse spleen cells'
_symmetry_cell_setting           monoclinic
_symmetry_space_group_name_H-M   'P 21/n'
_symmetry_Int_Tables_number      14
_space_group_name_Hall           '-P 2yn'
loop_
_symmetry_equiv_pos_site_id
_symmetry_equiv_pos_as_xyz
1 x,y,z
2 1/2-x,1/2+y,1/2-z
3 -x,-y,-z
4 1/2+x,1/2-y,1/2+z
_cell_length_a                   8.7130(17)
_cell_length_b                   18.567(4)
_cell_length_c                   13.317(3)
_cell_angle_alpha                90
_cell_angle_beta                 94.78(3)
_cell_angle_gamma                90
_cell_volume                     2146.86
_exptl_crystal_colour            red
_exptl_crystal_description       needles
_chemical_melting_point          344-346deg.C
_cell_formula_units_Z            4
_exptl_crystal_recrystallization_method methanol
loop_
_atom_site_label
_atom_site_type_symbol
_atom_site_fract_x
_atom_site_fract_y
_atom_site_fract_z
O1 O -0.1254(9) 0.1953(4) 0.7273(6)
H1 H -0.1489 0.2304 0.6919
O2 O 0.2213(10) 0.1200(4) 0.9921(6)
H2 H 0.2058 0.0797 0.9682
O3 O -0.0889(8) 0.3196(4) 0.6466(5)
O4 O 0.1176(10) 0.3746(6) 0.4399(6)
C1 C 0.0182(11) 0.3320(6) 0.7143(7)
C2 C 0.4323(11) 0.3740(5) 0.9028(7)
C3 C 0.0020(12) 0.2103(6) 0.7874(8)
C4 C 0.3549(12) 0.3773(5) 0.7287(8)
C5 C 0.5368(12) 0.4197(5) 0.8549(8)
C6 C 0.6588(13) 0.4566(6) 0.9052(9)
C7 C 0.0829(12) 0.2746(5) 0.7800(7)
C8 C 0.5029(11) 0.4206(5) 0.7504(8)
C9 C 0.2667(11) 0.2321(5) 0.9128(7)
H3 H 0.3577 0.2382 0.9536
C10 C 0.0510(13) 0.1574(6) 0.8560(8)
H4 H -0.0021 0.1140 0.8574
O5 O 0.7806(10) 0.4834(4) 1.0649(7)
O6 O 0.2148(13) 0.2476(5) 0.4074(6)
H5 H 0.2050 0.2874 0.3810
C11 C 0.2209(11) 0.2857(5) 0.8436(7)
O7 O 0.8673(9) 0.5365(4) 0.8922(10)
H6 H 0.8357 0.5739 0.9158
C12 C 0.1799(12) 0.1692(6) 0.9231(8)
C13 C 0.3293(11) 0.3437(5) 0.8316(7)
C14 C 0.6731(15) 0.4494(6) 1.0143(10)
C15 C 0.4921(15) 0.2033(6) 0.6162(9)
H7 H 0.5622 0.1670 0.6352
C16 C 0.4494(14) 0.3695(5) 1.0112(8)
H8 H 0.3800 0.3428 1.0454
C17 C 0.3754(11) 0.3166(6) 0.6509(7)
C18 C 0.7183(13) 0.5032(6) 0.7432(11)
H9 H 0.7785 0.5326 0.7058
C19 C 0.2205(12) 0.4318(6) 0.6944(8)
H10 H 0.2471 0.4782 0.7263
C20 C 0.5648(14) 0.4038(6) 1.0617(8)
H11 H 0.5771 0.3983 1.1314
C21 C 0.4774(13) 0.2618(5) 0.6775(7)
H12 H 0.5377 0.2646 0.7384
C22 C 0.2869(13) 0.3157(7) 0.5574(8)
C23 C 0.0677(13) 0.4084(6) 0.7309(8)
H13 H 0.0714 0.4179 0.8027
H14 H -0.0120 0.4390 0.6986
C24 C 0.3053(15) 0.2534(8) 0.4968(8)
C25 C 0.2095(15) 0.4436(6) 0.5807(8)
H15 H 0.1210 0.4740 0.5621
H16 H 0.3006 0.4693 0.5634
C26 C 0.5972(13) 0.4625(6) 0.6960(9)
H17 H 0.5800 0.4637 0.6262
C27 C 0.7462(13) 0.4983(6) 0.8481(11)
C28 C 0.1948(14) 0.3764(8) 0.5211(9)
C29 C 0.4034(17) 0.1986(7) 0.5277(10)
H18 H 0.4094 0.1579 0.4876
loop_
_geom_bond_atom_site_label_1
_geom_bond_atom_site_label_2
_geom_bond_site_symmetry_1
_geom_bond_site_symmetry_2
O1 H1 1_555 1_555
O2 H2 1_555 1_555
O3 C1 1_555 1_555
O4 C28 1_555 1_555
C1 C7 1_555 1_555
C2 C5 1_555 1_555
C3 O1 1_555 1_555
C4 C8 1_555 1_555
C5 C6 1_555 1_555
C6 C14 1_555 1_555
C7 C3 1_555 1_555
C8 C5 1_555 1_555
C9 H3 1_555 1_555
C10 C3 1_555 1_555
H4 C10 1_555 1_555
O5 C14 1_555 1_555
O6 H5 1_555 1_555
C11 C7 1_555 1_555
O7 H6 1_555 1_555
C12 O2 1_555 1_555
C13 C2 1_555 1_555
C14 C20 1_555 1_555
C15 H7 1_555 1_555
C16 C2 1_555 1_555
H8 C16 1_555 1_555
C17 C4 1_555 1_555
C18 H9 1_555 1_555
C19 C4 1_555 1_555
H10 C19 1_555 1_555
C20 C16 1_555 1_555
H11 C20 1_555 1_555
C21 C15 1_555 1_555
H12 C21 1_555 1_555
C22 C17 1_555 1_555
C23 C1 1_555 1_555
H13 C23 1_555 1_555
H14 C23 1_555 1_555
C24 O6 1_555 1_555
C25 C19 1_555 1_555
H15 C25 1_555 1_555
H16 C25 1_555 1_555
C26 C8 1_555 1_555
H17 C26 1_555 1_555
C27 C6 1_555 1_555
C28 C22 1_555 1_555
C29 C15 1_555 1_555
H18 C29 1_555 1_555
C4 C13 1_555 1_555
C9 C11 1_555 1_555
C9 C12 1_555 1_555
C10 C12 1_555 1_555
C11 C13 1_555 1_555
O7 C27 1_555 1_555
C17 C21 1_555 1_555
C18 C26 1_555 1_555
C18 C27 1_555 1_555
C19 C23 1_555 1_555
C22 C24 1_555 1_555
C24 C29 1_555 1_555
C25 C28 1_555 1_555

#END
