
#######################################################################
#
#                 Cambridge Crystallographic Data Centre
#                                CCDC 
#
#######################################################################
#
# If this CIF has been generated from an entry in the Cambridge 
# Structural Database, then it will include bibliographic, chemical, 
# crystal, experimental, refinement or atomic coordinate data resulting 
# from the CCDC's data processing and validation procedures.
#
#######################################################################

data_NODJIA
_chemical_name_common            
'rac-bis(4-Bromobenzenesulfonato)-dalexconol A dihydrate'
_chemical_formula_moiety         'C41 H24 Br2 O10 S2,2(H2 O1)'
_chemical_name_systematic        
"rac-10-Hydroxy-3,11,14-trioxo-3,11,12,12a,13,14-hexahydrobenzo-[3,4]naphtho[1',2':1,7]cyclohepta[1,2-a]acenaphthylene-4,15-diyl bis(4-bromobenzenesulfonate) dihydrate"
_symmetry_cell_setting           triclinic
_symmetry_space_group_name_H-M   'P -1'
_symmetry_Int_Tables_number      2
_space_group_name_Hall           '-P 1'
loop_
_symmetry_equiv_pos_site_id
_symmetry_equiv_pos_as_xyz
1 x,y,z
2 -x,-y,-z
_cell_length_a                   12.161(2)
_cell_length_b                   12.794(2)
_cell_length_c                   13.510(2)
_cell_angle_alpha                99.811(3)
_cell_angle_beta                 93.717(3)
_cell_angle_gamma                103.083(2)
_cell_volume                     2005.75
_exptl_crystal_colour            yellow
_chemical_melting_point          171-173deg.C
_cell_formula_units_Z            2
loop_
_atom_site_label
_atom_site_type_symbol
_atom_site_fract_x
_atom_site_fract_y
_atom_site_fract_z
Br1 Br 1.38647(5) 0.57706(5) 0.07672(5)
Br2 Br 0.32554(5) 0.21516(5) 0.87705(5)
C1 C 0.7766(3) 0.1194(3) 0.0788(3)
C2 C 0.9012(4) 0.1312(3) 0.0909(3)
C3 C 0.9704(4) 0.1411(3) 0.0103(3)
C4 C 1.0835(4) 0.1362(3) 0.0210(3)
H1 H 1.1271 0.1407 -0.0329
C5 C 1.1297(3) 0.1244(4) 0.1135(3)
H2 H 1.2048 0.1197 0.1211
C6 C 1.0693(4) 0.1198(4) 0.1917(3)
H3 H 1.1034 0.1139 0.2535
C7 C 0.9560(3) 0.1236(3) 0.1824(3)
C8 C 0.8938(3) 0.1177(3) 0.2734(3)
C9 C 0.8901(3) 0.0396(3) 0.3311(3)
C10 C 0.9302(4) -0.0589(3) 0.3189(3)
H4 H 0.9651 -0.0795 0.2620
C11 C 0.9167(3) -0.1213(3) 0.3909(3)
H5 H 0.9416 -0.1855 0.3825
C12 C 0.8650(3) -0.0899(3) 0.4792(3)
C13 C 0.8202(4) 0.0100(4) 0.4957(3)
C14 C 0.7678(3) 0.0543(3) 0.5745(3)
C15 C 0.7408(3) 0.1490(3) 0.5820(3)
H6 H 0.7107 0.1767 0.6395
C16 C 0.7573(4) 0.2089(3) 0.5034(3)
H7 H 0.7381 0.2759 0.5084
C17 C 0.8035(3) 0.1649(3) 0.4167(3)
C18 C 0.8342(3) 0.0674(3) 0.4194(3)
C19 C 0.8278(3) 0.2021(3) 0.3186(3)
C20 C 0.8996(3) 0.3208(3) 0.3390(3)
C21 C 1.0087(4) 0.3454(4) 0.3608(3)
H8 H 1.0451 0.2899 0.3672
C22 C 1.0711(4) 0.4495(4) 0.3744(4)
H9 H 1.1498 0.4640 0.3860
C23 C 1.0197(4) 0.5340(4) 0.3714(4)
H10 H 1.0639 0.6052 0.3811
C24 C 0.9055(4) 0.5147(3) 0.3545(3)
C25 C 0.8426(3) 0.4042(3) 0.3356(3)
C26 C 0.7218(4) 0.3826(3) 0.3145(3)
C27 C 0.6490(4) 0.2667(3) 0.2956(3)
H11 H 0.5822 0.2606 0.2496
H12 H 0.6241 0.2485 0.3586
C28 C 0.7172(3) 0.1882(3) 0.2503(3)
H13 H 0.6716 0.1138 0.2474
C29 C 0.7317(3) 0.2032(4) 0.1402(3)
H14 H 0.6585 0.2036 0.1074
H15 H 0.7823 0.2741 0.1418
C30 C 1.0364(4) 0.3565(3) -0.0510(3)
C31 C 1.1140(4) 0.3793(4) -0.1132(4)
H16 H 1.0977 0.3486 -0.1817
C32 C 1.2161(4) 0.4464(4) -0.0787(4)
H17 H 1.2698 0.4637 -0.1231
C33 C 1.2419(4) 0.4915(4) 0.0288(4)
C34 C 1.1589(4) 0.4655(4) 0.0893(4)
H18 H 1.1735 0.4953 0.1580
C35 C 1.0569(4) 0.3988(3) 0.0546(3)
H19 H 1.0019 0.3810 0.0976
C36 C 0.5489(3) 0.0024(3) 0.7177(3)
C37 C 0.4752(4) 0.0434(3) 0.6608(3)
H20 H 0.4699 0.0288 0.5906
C38 C 0.4105(4) 0.1060(4) 0.7106(3)
H21 H 0.3617 0.1346 0.6731
C39 C 0.4155(4) 0.1277(3) 0.8135(4)
C40 C 0.4932(4) 0.0913(4) 0.8691(4)
H22 H 0.5018 0.1109 0.9392
C41 C 0.5564(4) 0.0283(4) 0.8240(3)
H23 H 0.6056 0.0015 0.8629
O1 O 0.7151(3) 0.0421(2) 0.0198(2)
O2 O 0.9244(3) 0.1490(2) -0.0844(2)
O3 O 0.8502(3) -0.1517(3) 0.5443(2)
O4 O 0.7517(2) 0.0020(2) 0.66083(19)
O5 O 0.8553(3) 0.5984(2) 0.3554(3)
H24 H 0.7867 0.5743 0.3400
O6 O 0.6698(3) 0.4565(3) 0.3126(3)
O7 O 0.8841(3) 0.2548(3) -0.2031(2)
O8 O 0.8189(3) 0.2875(3) -0.0307(3)
O9 O 0.5805(3) -0.1237(2) 0.5571(2)
O10 O 0.6495(3) -0.1498(3) 0.7277(3)
S1 S 0.90415(8) 0.26558(8) -0.09590(7)
S2 S 0.62997(8) -0.07946(8) 0.65875(7)
O11 O 0.5503(6) 0.3760(6) 0.6249(5)
H25 H 0.4948 0.3982 0.6019
H26 H 0.5296 0.3076 0.6231
O12 O 0.3200(6) 0.3832(7) 0.3977(5)
H27 H 0.3684 0.3816 0.4455
H28 H 0.2803 0.3188 0.3745
O13 O 0.4291(3) 0.4001(3) 0.1581(3)
H29 H 0.3764 0.4013 0.1141
H30 H 0.4813 0.4584 0.1650
loop_
_geom_bond_atom_site_label_1
_geom_bond_atom_site_label_2
_geom_bond_site_symmetry_1
_geom_bond_site_symmetry_2
Br1 C33 1_555 1_555
Br2 C39 1_555 1_555
C1 C2 1_555 1_555
C2 C3 1_555 1_555
C3 C4 1_555 1_555
C4 H1 1_555 1_555
C5 C4 1_555 1_555
H2 C5 1_555 1_555
C6 C5 1_555 1_555
H3 C6 1_555 1_555
C7 C2 1_555 1_555
C8 C7 1_555 1_555
C9 C8 1_555 1_555
C10 C9 1_555 1_555
H4 C10 1_555 1_555
C11 C10 1_555 1_555
H5 C11 1_555 1_555
C12 C11 1_555 1_555
C13 C12 1_555 1_555
C14 C13 1_555 1_555
C15 C14 1_555 1_555
H6 C15 1_555 1_555
C16 C15 1_555 1_555
H7 C16 1_555 1_555
C17 C16 1_555 1_555
C18 C9 1_555 1_555
C19 C8 1_555 1_555
C20 C19 1_555 1_555
C21 C20 1_555 1_555
H8 C21 1_555 1_555
C22 C21 1_555 1_555
H9 C22 1_555 1_555
C23 C22 1_555 1_555
H10 C23 1_555 1_555
C24 C23 1_555 1_555
C25 C20 1_555 1_555
C26 C25 1_555 1_555
C27 C26 1_555 1_555
H11 C27 1_555 1_555
H12 C27 1_555 1_555
C28 C19 1_555 1_555
H13 C28 1_555 1_555
C29 C1 1_555 1_555
H14 C29 1_555 1_555
H15 C29 1_555 1_555
C30 C31 1_555 1_555
C31 H16 1_555 1_555
C32 C31 1_555 1_555
H17 C32 1_555 1_555
C33 C32 1_555 1_555
C34 C33 1_555 1_555
H18 C34 1_555 1_555
C35 C30 1_555 1_555
H19 C35 1_555 1_555
C36 C37 1_555 1_555
C37 H20 1_555 1_555
C38 C37 1_555 1_555
H21 C38 1_555 1_555
C39 C38 1_555 1_555
C40 C39 1_555 1_555
H22 C40 1_555 1_555
C41 C36 1_555 1_555
H23 C41 1_555 1_555
O1 C1 1_555 1_555
O2 C3 1_555 1_555
O3 C12 1_555 1_555
O4 C14 1_555 1_555
O5 C24 1_555 1_555
H24 O5 1_555 1_555
O6 C26 1_555 1_555
O7 S1 1_555 1_555
O8 S1 1_555 1_555
O9 S2 1_555 1_555
O10 S2 1_555 1_555
O11 H25 1_555 1_555
H26 O11 1_555 1_555
O12 H27 1_555 1_555
H28 O12 1_555 1_555
O13 H29 1_555 1_555
H30 O13 1_555 1_555
S1 C30 1_555 1_555
S2 C36 1_555 1_555
C6 C7 1_555 1_555
C13 C18 1_555 1_555
C17 C18 1_555 1_555
C17 C19 1_555 1_555
C24 C25 1_555 1_555
C27 C28 1_555 1_555
C28 C29 1_555 1_555
C34 C35 1_555 1_555
C40 C41 1_555 1_555
O2 S1 1_555 1_555
O4 S2 1_555 1_555

#END
