
#######################################################################
#
#                 Cambridge Crystallographic Data Centre
#                                CCDC 
#
#######################################################################
#
# If this CIF has been generated from an entry in the Cambridge 
# Structural Database, then it will include bibliographic, chemical, 
# crystal, experimental, refinement or atomic coordinate data resulting 
# from the CCDC's data processing and validation procedures.
#
#######################################################################

data_NODJOG
_chemical_compound_source        'Daldinia eschscholzii IFB-TL01'
_chemical_name_common            'rac-Dalesconal A'
_chemical_formula_moiety         'C29 H18 O6'
_chemical_name_systematic        
rac-4,10,15-Trihydroxy-12a,13-dihydrobenzo-[3,4]naphtho[1',2':1,7]cyclohepta[1,2-a]acenaphthylene-3,11,14(12H)-trione
_chemical_properties_biological  
'immunosuppressive agent on ConA-induced proliferation of mouse spleen cells'
_symmetry_cell_setting           monoclinic
_symmetry_space_group_name_H-M   'P 21/c'
_symmetry_Int_Tables_number      14
_space_group_name_Hall           '-P 2ybc'
loop_
_symmetry_equiv_pos_site_id
_symmetry_equiv_pos_as_xyz
1 x,y,z
2 -x,1/2+y,1/2-z
3 -x,-y,-z
4 x,1/2-y,1/2+z
_cell_length_a                   11.607(2)
_cell_length_b                   12.170(2)
_cell_length_c                   15.681(3)
_cell_angle_alpha                90
_cell_angle_beta                 108.12(3)
_cell_angle_gamma                90
_cell_volume                     2105.2
_exptl_crystal_colour            red
_chemical_melting_point          308-309deg.C
_cell_formula_units_Z            4
_exptl_crystal_recrystallization_method methanol
loop_
_atom_site_label
_atom_site_type_symbol
_atom_site_fract_x
_atom_site_fract_y
_atom_site_fract_z
O1 O 0.4684(3) 0.7511(3) 0.1609(2)
O2 O 0.3351(3) 0.8715(3) 0.2272(2)
H1 H 0.3526 0.8382 0.1875
C1 C 0.5163(4) 0.7778(4) 0.3167(3)
O3 O 1.0171(3) 0.4413(3) 0.7292(2)
C2 C 0.5698(4) 0.7978(4) 0.4778(3)
H2 H 0.6210 0.7819 0.5351
C3 C 0.5956(4) 0.7568(3) 0.4031(3)
C4 C 0.3922(4) 0.8877(4) 0.3832(3)
H3 H 0.3261 0.9336 0.3770
O4 O 0.8252(4) 0.3179(3) 0.6384(2)
H4 H 0.8930 0.3272 0.6742
C5 C 0.4693(4) 0.8616(4) 0.4671(3)
H5 H 0.4526 0.8880 0.5177
C6 C 0.8264(4) 0.5882(4) 0.5390(3)
O5 O 0.7191(4) 0.9234(3) 0.2312(2)
O6 O 0.7483(4) 1.1078(3) 0.3120(3)
H6 H 0.7071 1.0681 0.2717
C7 C 0.7196(4) 0.5865(4) 0.4688(3)
C8 C 0.7929(4) 0.9347(4) 0.3892(4)
C9 C 0.8322(4) 0.8780(4) 0.4724(3)
C10 C 0.4149(4) 0.8446(4) 0.3082(3)
C11 C 0.8665(4) 0.5004(4) 0.5990(3)
C12 C 0.6848(5) 0.4058(4) 0.5152(3)
H7 H 0.6356 0.3439 0.5071
C13 C 0.6296(5) 0.6419(4) 0.2531(3)
H8 H 0.6504 0.6314 0.1983
H9 H 0.5976 0.5729 0.2670
C14 C 0.8881(4) 0.6921(4) 0.5483(3)
C15 C 0.9766(5) 0.5145(5) 0.6725(3)
C16 C 0.9983(4) 0.7044(4) 0.6209(3)
H10 H 1.0412 0.7702 0.6286
C17 C 0.8686(4) 0.9401(4) 0.5512(4)
H11 H 0.8957 0.9045 0.6063
C18 C 0.6473(5) 0.4955(4) 0.4566(3)
H12 H 0.5743 0.4930 0.4102
C19 C 0.5330(5) 0.7272(4) 0.2368(3)
C20 C 0.8215(4) 0.7596(4) 0.4812(3)
C21 C 0.7931(5) 0.4075(4) 0.5846(3)
C22 C 0.7142(4) 0.6952(4) 0.4180(3)
C23 C 1.0397(4) 0.6198(5) 0.6783(3)
H13 H 1.1125 0.6291 0.7241
C24 C 0.7434(4) 0.6695(4) 0.3280(3)
H14 H 0.7943 0.6035 0.3391
C25 C 0.7705(5) 0.8778(5) 0.3029(4)
C26 C 0.8223(5) 1.1091(5) 0.4693(5)
H15 H 0.8173 1.1854 0.4686
C27 C 0.8176(5) 0.7621(4) 0.3020(4)
H16 H 0.8998 0.7592 0.3428
H17 H 0.8215 0.7469 0.2422
C28 C 0.8649(5) 1.0545(5) 0.5485(4)
H18 H 0.8920 1.0941 0.6018
C29 C 0.7861(5) 1.0501(5) 0.3891(4)
loop_
_geom_bond_atom_site_label_1
_geom_bond_atom_site_label_2
_geom_bond_site_symmetry_1
_geom_bond_site_symmetry_2
O1 C19 1_555 1_555
O2 H1 1_555 1_555
C1 C3 1_555 1_555
O3 C15 1_555 1_555
C2 H2 1_555 1_555
C3 C2 1_555 1_555
C4 H3 1_555 1_555
O4 H4 1_555 1_555
C5 C2 1_555 1_555
H5 C5 1_555 1_555
C6 C7 1_555 1_555
O5 C25 1_555 1_555
O6 H6 1_555 1_555
C7 C18 1_555 1_555
C8 C9 1_555 1_555
C9 C17 1_555 1_555
C10 O2 1_555 1_555
C11 C6 1_555 1_555
C12 H7 1_555 1_555
C13 H8 1_555 1_555
H9 C13 1_555 1_555
C14 C6 1_555 1_555
C15 C11 1_555 1_555
C16 C14 1_555 1_555
H10 C16 1_555 1_555
C17 H11 1_555 1_555
C18 C12 1_555 1_555
H12 C18 1_555 1_555
C19 C1 1_555 1_555
C20 C9 1_555 1_555
C21 O4 1_555 1_555
C22 C3 1_555 1_555
C23 C15 1_555 1_555
H13 C23 1_555 1_555
C24 C13 1_555 1_555
H14 C24 1_555 1_555
C25 C8 1_555 1_555
C26 H15 1_555 1_555
C27 C24 1_555 1_555
H16 C27 1_555 1_555
H17 C27 1_555 1_555
C28 C17 1_555 1_555
H18 C28 1_555 1_555
C29 O6 1_555 1_555
C1 C10 1_555 1_555
C4 C5 1_555 1_555
C4 C10 1_555 1_555
C7 C22 1_555 1_555
C8 C29 1_555 1_555
C11 C21 1_555 1_555
C12 C21 1_555 1_555
C13 C19 1_555 1_555
C14 C20 1_555 1_555
C16 C23 1_555 1_555
C20 C22 1_555 1_555
C22 C24 1_555 1_555
C25 C27 1_555 1_555
C26 C28 1_555 1_555
C26 C29 1_555 1_555

#END
