
#######################################################################
#
#                 Cambridge Crystallographic Data Centre
#                                CCDC 
#
#######################################################################
#
# If this CIF has been generated from an entry in the Cambridge 
# Structural Database, then it will include bibliographic, chemical, 
# crystal, experimental, refinement or atomic coordinate data resulting 
# from the CCDC's data processing and validation procedures.
#
#######################################################################

data_NODPOM
_chemical_formula_moiety         'C13 H7 N1 S3'
_chemical_name_systematic        2-(Thieno(3,2-b)thiophene-2-yl)benzothiazole
_symmetry_cell_setting           monoclinic
_symmetry_space_group_name_H-M   'P 21/n'
_symmetry_Int_Tables_number      14
_space_group_name_Hall           '-P 2yn'
loop_
_symmetry_equiv_pos_site_id
_symmetry_equiv_pos_as_xyz
1 x,y,z
2 1/2-x,1/2+y,1/2-z
3 -x,-y,-z
4 1/2+x,1/2-y,1/2+z
_cell_length_a                   13.6857(5)
_cell_length_b                   6.0341(2)
_cell_length_c                   14.1529(5)
_cell_angle_alpha                90
_cell_angle_beta                 104.255(2)
_cell_angle_gamma                90
_cell_volume                     1132.77
_exptl_crystal_colour            yellow
_exptl_crystal_description       plate
_cell_formula_units_Z            4
_exptl_crystal_recrystallization_method thf
loop_
_atom_site_label
_atom_site_type_symbol
_atom_site_fract_x
_atom_site_fract_y
_atom_site_fract_z
S1 S -0.06628(4) -0.16127(10) 0.33024(4)
S2 S 0.21417(4) 0.18084(10) 0.31873(4)
S3 S 0.17249(4) 0.64078(11) 0.52411(4)
N1 N 0.07349(12) -0.1916(3) 0.23445(12)
C1 C -0.07586(15) -0.3749(4) 0.24636(15)
C2 C -0.14965(16) -0.5392(4) 0.22042(16)
H1 H -0.2043 -0.5449 0.2484
C3 C -0.13818(16) -0.6922(4) 0.15177(16)
H2 H -0.1858 -0.8040 0.1332
C4 C -0.05653(16) -0.6824(4) 0.10970(16)
H3 H -0.0507 -0.7889 0.0639
C5 C 0.01489(16) -0.5222(4) 0.13352(16)
H4 H 0.0689 -0.5178 0.1045
C6 C 0.00540(15) -0.3650(4) 0.20231(15)
C7 C 0.04526(15) -0.0755(4) 0.30036(15)
C8 C 0.10120(15) 0.1141(4) 0.34789(15)
C9 C 0.07785(16) 0.2533(4) 0.41536(15)
H5 H 0.0204 0.2415 0.4390
C10 C 0.15279(15) 0.4176(4) 0.44429(15)
C11 C 0.23121(15) 0.4014(4) 0.39890(14)
C12 C 0.30700(15) 0.5656(4) 0.42770(15)
H6 H 0.3643 0.5766 0.4038
C13 C 0.28472(16) 0.7038(4) 0.49459(15)
H7 H 0.3258 0.8216 0.5221
loop_
_geom_bond_atom_site_label_1
_geom_bond_atom_site_label_2
_geom_bond_site_symmetry_1
_geom_bond_site_symmetry_2
S1 C1 1_555 1_555
S2 C8 1_555 1_555
S3 C10 1_555 1_555
N1 C6 1_555 1_555
C1 C2 1_555 1_555
C2 H1 1_555 1_555
C3 C2 1_555 1_555
H2 C3 1_555 1_555
C4 C3 1_555 1_555
H3 C4 1_555 1_555
C5 C4 1_555 1_555
H4 C5 1_555 1_555
C6 C1 1_555 1_555
C7 S1 1_555 1_555
C8 C7 1_555 1_555
C9 C8 1_555 1_555
H5 C9 1_555 1_555
C10 C9 1_555 1_555
C11 S2 1_555 1_555
C12 C11 1_555 1_555
H6 C12 1_555 1_555
C13 S3 1_555 1_555
H7 C13 1_555 1_555
N1 C7 1_555 1_555
C5 C6 1_555 1_555
C10 C11 1_555 1_555
C12 C13 1_555 1_555

#END
