
#######################################################################
#
#                 Cambridge Crystallographic Data Centre
#                                CCDC 
#
#######################################################################
#
# If this CIF has been generated from an entry in the Cambridge 
# Structural Database, then it will include bibliographic, chemical, 
# crystal, experimental, refinement or atomic coordinate data resulting 
# from the CCDC's data processing and validation procedures.
#
#######################################################################

data_NODPIG
_chemical_formula_moiety         'C14 H8 N4 S2'
_chemical_name_systematic        2,5-bis(5-Pyrimidinyl)thieno(3,2-b)thiophene
_symmetry_cell_setting           monoclinic
_symmetry_space_group_name_H-M   'P 21/n'
_symmetry_Int_Tables_number      14
_space_group_name_Hall           '-P 2yn'
loop_
_symmetry_equiv_pos_site_id
_symmetry_equiv_pos_as_xyz
1 x,y,z
2 1/2-x,1/2+y,1/2-z
3 -x,-y,-z
4 1/2+x,1/2-y,1/2+z
_cell_length_a                   4.4429(3)
_cell_length_b                   11.0190(9)
_cell_length_c                   12.5860(10)
_cell_angle_alpha                90
_cell_angle_beta                 92.929(2)
_cell_angle_gamma                90
_cell_volume                     615.359
_exptl_crystal_colour            green
_exptl_crystal_description       needle
_cell_formula_units_Z            2
_exptl_crystal_recrystallization_method tetrahydrofuran
loop_
_atom_site_label
_atom_site_type_symbol
_atom_site_fract_x
_atom_site_fract_y
_atom_site_fract_z
S1 S 0.17202(11) 0.34513(5) 0.93248(4)
N1 N 0.7514(4) 0.52830(15) 0.62357(14)
N2 N 0.7849(4) 0.31779(15) 0.66480(14)
C1 C 0.3017(4) 0.46870(17) 0.86107(16)
C2 C 0.2022(4) 0.57863(19) 0.89873(16)
H1 H 0.2491 0.6540 0.8708
C3 C -0.0182(4) 0.43997(16) 1.01380(16)
C4 C 0.4941(4) 0.44894(17) 0.77160(16)
C5 C 0.5742(5) 0.54298(19) 0.70484(17)
H2 H 0.5000 0.6202 0.7177
C6 C 0.8458(5) 0.4150(2) 0.60826(18)
H3 H 0.9681 0.4030 0.5514
C7 C 0.6096(4) 0.33649(18) 0.74635(16)
H4 H 0.5626 0.2704 0.7884
S1B S -0.17202(11) 0.65487(5) 1.06752(4)
N1B N -0.7514(4) 0.47170(15) 1.37643(14)
N2B N -0.7849(4) 0.68221(15) 1.33520(14)
C1B C -0.3017(4) 0.53130(17) 1.13893(16)
C2B C -0.2022(4) 0.42137(19) 1.10127(16)
H1B H -0.2491 0.3460 1.1292
C3B C 0.0182(4) 0.56003(16) 0.98620(16)
C4B C -0.4941(4) 0.55106(17) 1.22840(16)
C5B C -0.5742(5) 0.45702(19) 1.29516(17)
H2B H -0.5000 0.3798 1.2823
C6B C -0.8458(5) 0.5850(2) 1.39174(18)
H3B H -0.9681 0.5970 1.4486
C7B C -0.6096(4) 0.66351(18) 1.25365(16)
H4B H -0.5626 0.7296 1.2116
loop_
_geom_bond_atom_site_label_1
_geom_bond_atom_site_label_2
_geom_bond_site_symmetry_1
_geom_bond_site_symmetry_2
S1 C1 1_555 1_555
N1 C5 1_555 1_555
N2 C6 1_555 1_555
C1 C2 1_555 1_555
C2 H1 1_555 1_555
C3 S1 1_555 1_555
C4 C1 1_555 1_555
C5 C4 1_555 1_555
H2 C5 1_555 1_555
C6 N1 1_555 1_555
H3 C6 1_555 1_555
C7 N2 1_555 1_555
H4 C7 1_555 1_555
S1B C1B 1_555 1_555
N1B C5B 1_555 1_555
N2B C6B 1_555 1_555
C1B C2B 1_555 1_555
C2B C3 1_555 1_555
H1B C2B 1_555 1_555
C3B C2 1_555 1_555
C4B C1B 1_555 1_555
C5B C4B 1_555 1_555
H2B C5B 1_555 1_555
C6B N1B 1_555 1_555
H3B C6B 1_555 1_555
C7B N2B 1_555 1_555
H4B C7B 1_555 1_555
C3 C3B 1_555 1_555
C4 C7 1_555 1_555
S1B C3B 1_555 1_555
C4B C7B 1_555 1_555

#END
