
#######################################################################
#
#                 Cambridge Crystallographic Data Centre
#                                CCDC 
#
#######################################################################
#
# If this CIF has been generated from an entry in the Cambridge 
# Structural Database, then it will include bibliographic, chemical, 
# crystal, experimental, refinement or atomic coordinate data resulting 
# from the CCDC's data processing and validation procedures.
#
#######################################################################

data_NODQED
_chemical_formula_moiety         'C18 H16 N2 O1 S2,H2 O1'
_chemical_name_systematic        
"6-Methyl-8-(4-morpholinyl)thieno[2',3':4,5] thieno[3,2-c]quinoline monohydrate"
_symmetry_cell_setting           monoclinic
_symmetry_space_group_name_H-M   'P 21/n'
_symmetry_Int_Tables_number      14
_space_group_name_Hall           '-P 2yn'
loop_
_symmetry_equiv_pos_site_id
_symmetry_equiv_pos_as_xyz
1 x,y,z
2 1/2-x,1/2+y,1/2-z
3 -x,-y,-z
4 1/2+x,1/2-y,1/2+z
_cell_length_a                   17.056(2)
_cell_length_b                   3.9938(5)
_cell_length_c                   23.829(3)
_cell_angle_alpha                90
_cell_angle_beta                 98.490(12)
_cell_angle_gamma                90
_cell_volume                     1605.4
_exptl_crystal_colour            'pale orange'
_exptl_crystal_description       prism
_chemical_melting_point          201deg.C
_cell_formula_units_Z            4
loop_
_atom_site_label
_atom_site_type_symbol
_atom_site_fract_x
_atom_site_fract_y
_atom_site_fract_z
S1 S 0.64820(3) -0.09004(15) 0.06375(2)
C1 C 0.74185(12) 0.0883(6) 0.08601(9)
C2 C 0.75159(12) 0.1882(6) 0.14139(9)
H1 H 0.7983 0.2888 0.1608
C3 C 0.68226(12) 0.1211(6) 0.16606(9)
S2 S 0.65675(3) 0.20256(16) 0.23290(2)
C4 C 0.56321(12) 0.0304(6) 0.21223(9)
C5 C 0.50213(13) -0.0018(6) 0.24691(9)
C6 C 0.50807(13) 0.1096(6) 0.30367(9)
H2 H 0.5555 0.2136 0.3213
C7 C 0.44601(14) 0.0689(7) 0.33341(10)
H3 H 0.4504 0.1461 0.3715
C8 C 0.37591(15) -0.0864(7) 0.30792(10)
H4 H 0.3334 -0.1166 0.3291
C9 C 0.36798(13) -0.1952(6) 0.25280(10)
H5 H 0.3200 -0.2981 0.2360
C10 C 0.43103(13) -0.1547(6) 0.22073(9)
N1 N 0.41995(10) -0.2668(5) 0.16515(7)
C11 C 0.47785(12) -0.2344(6) 0.13433(9)
C12 C 0.55155(12) -0.0851(6) 0.15631(9)
C13 C 0.62160(12) -0.0266(6) 0.13083(9)
C14 C 0.46363(13) -0.3599(6) 0.07426(9)
H6 H 0.4123 -0.4743 0.0672
H7 H 0.5058 -0.5168 0.0683
H8 H 0.4635 -0.1705 0.0481
N2 N 0.79730(10) 0.0922(5) 0.04847(7)
C15 C 0.87296(12) 0.2522(6) 0.07072(9)
H9 H 0.8933 0.1593 0.1086
H10 H 0.8649 0.4959 0.0749
C16 C 0.93221(12) 0.1912(6) 0.03078(9)
H11 H 0.9825 0.3062 0.0454
H12 H 0.9432 -0.0517 0.0293
O1 O 0.90408(8) 0.3092(4) -0.02505(6)
C17 C 0.83292(12) 0.1354(6) -0.04724(9)
H13 H 0.8442 -0.1072 -0.0491
H14 H 0.8141 0.2147 -0.0863
C18 C 0.76853(12) 0.1908(6) -0.01067(8)
H15 H 0.7530 0.4298 -0.0119
H16 H 0.7212 0.0564 -0.0256
O2 O 0.29345(11) 0.2833(6) 0.12436(9)
H17 H 0.3312(12) 0.409(6) 0.1352(12)
H18 H 0.3132(16) 0.107(4) 0.1381(12)
loop_
_geom_bond_atom_site_label_1
_geom_bond_atom_site_label_2
_geom_bond_site_symmetry_1
_geom_bond_site_symmetry_2
S1 C1 1_555 1_555
C1 C2 1_555 1_555
C2 H1 1_555 1_555
C3 C2 1_555 1_555
S2 C3 1_555 1_555
C4 S2 1_555 1_555
C5 C4 1_555 1_555
C6 C5 1_555 1_555
H2 C6 1_555 1_555
C7 C6 1_555 1_555
H3 C7 1_555 1_555
C8 C7 1_555 1_555
H4 C8 1_555 1_555
C9 C8 1_555 1_555
H5 C9 1_555 1_555
C10 C5 1_555 1_555
N1 C10 1_555 1_555
C11 N1 1_555 1_555
C12 C4 1_555 1_555
C13 S1 1_555 1_555
C14 C11 1_555 1_555
H6 C14 1_555 1_555
H7 C14 1_555 1_555
H8 C14 1_555 1_555
N2 C1 1_555 1_555
C15 N2 1_555 1_555
H9 C15 1_555 1_555
H10 C15 1_555 1_555
C16 C15 1_555 1_555
H11 C16 1_555 1_555
H12 C16 1_555 1_555
O1 C16 1_555 1_555
C17 O1 1_555 1_555
H13 C17 1_555 1_555
H14 C17 1_555 1_555
C18 N2 1_555 1_555
H15 C18 1_555 1_555
H16 C18 1_555 1_555
O2 H17 1_555 1_555
H18 O2 1_555 1_555
C3 C13 1_555 1_555
C9 C10 1_555 1_555
C11 C12 1_555 1_555
C12 C13 1_555 1_555
C17 C18 1_555 1_555

#END
