
#######################################################################
#
#                 Cambridge Crystallographic Data Centre
#                                CCDC 
#
#######################################################################
#
# If this CIF has been generated from an entry in the Cambridge 
# Structural Database, then it will include bibliographic, chemical, 
# crystal, experimental, refinement or atomic coordinate data resulting 
# from the CCDC's data processing and validation procedures.
#
#######################################################################

data_NODTAB01
_chemical_formula_moiety         'C17 H18 N2 O2'
_chemical_name_systematic        
5,5-Dimethyl-3,6-diphenyl-5,6-dihydro-4H-1,2,4-oxadiazin-6-ol
_symmetry_cell_setting           monoclinic
_symmetry_space_group_name_H-M   'C c'
_symmetry_Int_Tables_number      9
_space_group_name_Hall           'C -2yc'
loop_
_symmetry_equiv_pos_site_id
_symmetry_equiv_pos_as_xyz
1 x,y,z
2 x,-y,1/2+z
3 1/2+x,1/2+y,z
4 1/2+x,1/2-y,1/2+z
_cell_length_a                   8.782(4)
_cell_length_b                   19.177(8)
_cell_length_c                   9.362(4)
_cell_angle_alpha                90
_cell_angle_beta                 113.90(2)
_cell_angle_gamma                90
_cell_volume                     1441.48
_chemical_melting_point          '180 deg.C'
_cell_formula_units_Z            4
loop_
_atom_site_label
_atom_site_type_symbol
_atom_site_fract_x
_atom_site_fract_y
_atom_site_fract_z
C1 C 0.5251(2) 0.13063(9) 0.8515(2)
H1 H 0.5544 0.1138 0.9547
C2 C 0.6319(2) 0.17549(10) 0.8202(2)
H2 H 0.7331 0.1898 0.9022
C3 C 0.5903(2) 0.19947(10) 0.6685(2)
H3 H 0.6631 0.2302 0.6468
C4 C 0.4433(2) 0.17848(9) 0.5501(2)
H4 H 0.4157 0.1946 0.4466
C5 C 0.3348(2) 0.13405(9) 0.5804(2)
H5 H 0.2335 0.1200 0.4982
C6 C 0.3759(2) 0.11016(8) 0.7330(2)
C7 C 0.2564(2) 0.06380(8) 0.7704(2)
O1 O 0.17718(15) 0.02146(6) 0.63277(14)
N1 N 0.05030(18) -0.02542(7) 0.63523(17)
C8 C -0.0173(2) -0.00906(9) 0.7313(2)
N2 N 0.01111(18) 0.04961(7) 0.81813(17)
H6 H -0.004(3) 0.0474(11) 0.902(3)
C9 C 0.1166(2) 0.10415(8) 0.7975(2)
C10 C -0.1354(2) -0.06129(9) 0.74601(19)
C11 C -0.1091(2) -0.13199(9) 0.73067(19)
H7 H -0.0172 -0.1465 0.7091
C12 C -0.2163(2) -0.18117(9) 0.7468(2)
H8 H -0.1982 -0.2294 0.7361
C13 C -0.3506(2) -0.15982(10) 0.7787(2)
H9 H -0.4245 -0.1936 0.7893
C14 C -0.3771(2) -0.08973(9) 0.7951(2)
H10 H -0.4686 -0.0755 0.8178
C15 C -0.2705(2) -0.04011(9) 0.7785(2)
H11 H -0.2891 0.0080 0.7891
C16 C 0.0113(2) 0.14834(9) 0.6562(2)
H12 H -0.0341 0.1187 0.5631
H13 H 0.0809 0.1849 0.6401
H14 H -0.0803 0.1699 0.6745
C17 C 0.1862(2) 0.14834(9) 0.9454(2)
H15 H 0.0941 0.1701 0.9629
H16 H 0.2587 0.1847 0.9337
H17 H 0.2505 0.1187 1.0349
O2 O 0.34885(15) 0.02206(6) 0.89864(14)
H18 H 0.291(3) 0.0107(12) 0.947(3)
loop_
_geom_bond_atom_site_label_1
_geom_bond_atom_site_label_2
_geom_bond_site_symmetry_1
_geom_bond_site_symmetry_2
C1 H1 1_555 1_555
C2 C1 1_555 1_555
H2 C2 1_555 1_555
C3 C2 1_555 1_555
H3 C3 1_555 1_555
C4 C3 1_555 1_555
H4 C4 1_555 1_555
C5 C4 1_555 1_555
H5 C5 1_555 1_555
C6 C1 1_555 1_555
C7 C6 1_555 1_555
O1 C7 1_555 1_555
N1 O1 1_555 1_555
C8 N1 1_555 1_555
N2 C8 1_555 1_555
H6 N2 1_555 1_555
C9 C7 1_555 1_555
C10 C8 1_555 1_555
C11 C10 1_555 1_555
H7 C11 1_555 1_555
C12 C11 1_555 1_555
H8 C12 1_555 1_555
C13 C12 1_555 1_555
H9 C13 1_555 1_555
C14 C13 1_555 1_555
H10 C14 1_555 1_555
C15 C10 1_555 1_555
H11 C15 1_555 1_555
C16 C9 1_555 1_555
H12 C16 1_555 1_555
H13 C16 1_555 1_555
H14 C16 1_555 1_555
C17 C9 1_555 1_555
H15 C17 1_555 1_555
H16 C17 1_555 1_555
H17 C17 1_555 1_555
O2 C7 1_555 1_555
H18 O2 1_555 1_555
C5 C6 1_555 1_555
N2 C9 1_555 1_555
C14 C15 1_555 1_555

#END
