
#######################################################################
#
#                 Cambridge Crystallographic Data Centre
#                                CCDC 
#
#######################################################################
#
# If this CIF has been generated from an entry in the Cambridge 
# Structural Database, then it will include bibliographic, chemical, 
# crystal, experimental, refinement or atomic coordinate data resulting 
# from the CCDC's data processing and validation procedures.
#
#######################################################################

data_NODVOT
_chemical_formula_moiety         'C72 H84 N12,7.5(N2)'
_chemical_name_systematic        
'5,12,20,27,35,42,50,57,62,69,74,81-dodecaazatridecacyclo[29.29.10.10^16,46^.1^3,59^.1^14,18^.1^29,33^.1^44,48^.0^6,11^.0^21,26^.0^36,41^.0^51,56^.0^63,68^.0^75,80^]tetraoctaconta-1,3(71),4,12,14(84),15,17,19,27,29(83),30,32,34,42,44(72),45,47,49,57,59,61,69,73,81-tetracosaene nitrogen'
_symmetry_cell_setting           trigonal
_symmetry_space_group_name_H-M   'P 3'
_symmetry_Int_Tables_number      143
_space_group_name_Hall           'P 3'
loop_
_symmetry_equiv_pos_site_id
_symmetry_equiv_pos_as_xyz
1 x,y,z
2 -y,x-y,z
3 -x+y,-x,z
_cell_length_a                   25.2558(11)
_cell_length_b                   25.2558(11)
_cell_length_c                   11.0068(5)
_cell_angle_alpha                90
_cell_angle_beta                 90
_cell_angle_gamma                120
_cell_volume                     6080.15
_exptl_crystal_colour            colorless
_exptl_crystal_description       needle
_cell_formula_units_Z            3
loop_
_atom_site_label
_atom_site_type_symbol
_atom_site_fract_x
_atom_site_fract_y
_atom_site_fract_z
N1 N 0.49348(16) 0.69900(17) 1.3689(3)
N2 N 0.54893(17) 0.70021(17) 1.1360(3)
N3 N 0.43881(17) 0.55954(18) 0.6402(4)
N4 N 0.31317(17) 0.46926(17) 0.6697(4)
C1 C 0.3280(2) 0.6093(2) 1.3632(4)
H1 H 0.3242 0.5699 1.3635
C2 C 0.3856(2) 0.66071(19) 1.3630(4)
C3 C 0.4396(2) 0.6536(2) 1.3601(4)
H2 H 0.4342 0.6138 1.3514
C4 C 0.5456(2) 0.6882(2) 1.3570(4)
H3 H 0.5300 0.6438 1.3412
C5 C 0.5826(2) 0.7070(3) 1.4731(5)
H4 H 0.5580 0.6792 1.5396
H5 H 0.5926 0.7489 1.4953
C6 C 0.6422(2) 0.7050(3) 1.4590(5)
H6 H 0.6661 0.7192 1.5352
H7 H 0.6323 0.6624 1.4441
C7 C 0.6801(2) 0.7453(3) 1.3545(5)
H8 H 0.6923 0.7884 1.3712
H9 H 0.7178 0.7426 1.3452
C8 C 0.6430(2) 0.7243(2) 1.2394(5)
H10 H 0.6334 0.6820 1.2210
H11 H 0.6678 0.7508 1.1715
C9 C 0.5837(2) 0.7260(2) 1.2479(4)
H12 H 0.5932 0.7693 1.2571
C10 C 0.5411(2) 0.7357(2) 1.0645(4)
H13 H 0.5540 0.7763 1.0902
C11 C 0.5137(2) 0.7162(2) 0.9467(4)
C12 C 0.4884(2) 0.6551(2) 0.9075(4)
H14 H 0.4853 0.6251 0.9637
C13 C 0.46815(19) 0.6376(2) 0.7910(4)
C14 C 0.47117(19) 0.6812(2) 0.7081(4)
H15 H 0.4568 0.6693 0.6273
C15 C 0.4951(2) 0.7417(2) 0.7436(4)
C16 C 0.5154(2) 0.7584(2) 0.8621(4)
H16 H 0.5308 0.7997 0.8866
C17 C 0.4464(2) 0.5742(2) 0.7510(4)
H17 H 0.4379 0.5436 0.8103
C18 C 0.4159(2) 0.4941(2) 0.6110(5)
H18 H 0.4179 0.4724 0.6853
C19 C 0.4545(2) 0.4892(2) 0.5121(5)
H19 H 0.4971 0.5070 0.5413
H20 H 0.4547 0.5131 0.4407
C20 C 0.4306(2) 0.4230(3) 0.4742(6)
H21 H 0.4342 0.3999 0.5432
H22 H 0.4556 0.4217 0.4063
C21 C 0.3637(3) 0.3931(3) 0.4345(6)
H23 H 0.3479 0.3493 0.4168
H24 H 0.3607 0.4130 0.3592
C22 C 0.3245(2) 0.3994(2) 0.5352(5)
H25 H 0.2819 0.3819 0.5064
H26 H 0.3243 0.3761 0.6078
C23 C 0.3495(2) 0.4659(2) 0.5697(5)
H27 H 0.3471 0.4890 0.4981
C24 C 0.2860(2) 0.4994(2) 0.6518(4)
H28 H 0.2914 0.5193 0.5759
N1A N 0.30100(17) 0.79448(23) 1.3689(3)
N2A N 0.29979(17) 0.84872(24) 1.1360(3)
N3A N 0.44046(18) 0.87927(25) 0.6402(4)
N4A N 0.53074(17) 0.84391(24) 0.6697(4)
C1A C 0.3907(2) 0.7187(3) 1.3632(4)
H1A H 0.4301 0.7543 1.3635
C2A C 0.33929(19) 0.72489(28) 1.3630(4)
C3A C 0.3464(2) 0.7860(3) 1.3601(4)
H2A H 0.3862 0.8204 1.3514
C4A C 0.3118(2) 0.8574(3) 1.3570(4)
H3A H 0.3562 0.8862 1.3412
C5A C 0.2930(3) 0.8756(4) 1.4731(5)
H4A H 0.3208 0.8788 1.5396
H5A H 0.2511 0.8437 1.4953
C6A C 0.2950(3) 0.9372(4) 1.4590(5)
H6A H 0.2808 0.9469 1.5352
H7A H 0.3376 0.9699 1.4441
C7A C 0.2547(3) 0.9348(4) 1.3545(5)
H8A H 0.2116 0.9039 1.3712
H9A H 0.2574 0.9752 1.3452
C8A C 0.2757(2) 0.9187(3) 1.2394(5)
H10A H 0.3180 0.9514 1.2210
H11A H 0.2492 0.9170 1.1715
C9A C 0.2740(2) 0.8577(3) 1.2479(4)
H12A H 0.2307 0.8239 1.2571
C10A C 0.2643(2) 0.8054(3) 1.0645(4)
H13A H 0.2237 0.7777 1.0902
C11A C 0.2838(2) 0.7975(3) 0.9467(4)
C12A C 0.3449(2) 0.8333(3) 0.9075(4)
H14A H 0.3749 0.8602 0.9637
C13A C 0.3624(2) 0.83055(28) 0.7910(4)
C14A C 0.3188(2) 0.78997(28) 0.7081(4)
H15A H 0.3307 0.7875 0.6273
C15A C 0.2583(2) 0.7534(3) 0.7436(4)
C16A C 0.2416(2) 0.7570(3) 0.8621(4)
H16A H 0.2003 0.7311 0.8866
C17A C 0.4258(2) 0.8722(3) 0.7510(4)
H17A H 0.4564 0.8943 0.8103
C18A C 0.5059(2) 0.9218(3) 0.6110(5)
H18A H 0.5276 0.9455 0.6853
C19A C 0.5108(2) 0.9653(3) 0.5121(5)
H19A H 0.4930 0.9901 0.5413
H20A H 0.4869 0.9416 0.4407
C20A C 0.5770(3) 1.0076(4) 0.4742(6)
H21A H 0.6001 1.0343 0.5432
H22A H 0.5783 1.0339 0.4063
C21A C 0.6069(3) 0.9706(4) 0.4345(6)
H23A H 0.6507 0.9986 0.4168
H24A H 0.5870 0.9477 0.3592
C22A C 0.6006(2) 0.9251(3) 0.5352(5)
H25A H 0.6181 0.9000 0.5064
H26A H 0.6239 0.9482 0.6078
C23A C 0.5341(2) 0.8836(3) 0.5697(5)
H27A H 0.5110 0.8581 0.4981
C24A C 0.5006(2) 0.7866(3) 0.6518(4)
H28A H 0.4807 0.7721 0.5759
N1B N 0.20552(23) 0.50652(16) 1.3689(3)
N2B N 0.15128(24) 0.45107(17) 1.1360(3)
N3B N 0.12073(25) 0.56119(17) 0.6402(4)
N4B N 0.15609(24) 0.68683(17) 0.6697(4)
C1B C 0.2813(3) 0.6720(2) 1.3632(4)
H1B H 0.2457 0.6758 1.3635
C2B C 0.27511(28) 0.6144(2) 1.3630(4)
C3B C 0.2140(3) 0.5604(2) 1.3601(4)
H2B H 0.1796 0.5658 1.3514
C4B C 0.1426(3) 0.4544(2) 1.3570(4)
H3B H 0.1138 0.4700 1.3412
C5B C 0.1244(4) 0.4174(2) 1.4731(5)
H4B H 0.1212 0.4420 1.5396
H5B H 0.1563 0.4074 1.4953
C6B C 0.0628(4) 0.3578(2) 1.4590(5)
H6B H 0.0531 0.3339 1.5352
H7B H 0.0301 0.3677 1.4441
C7B C 0.0652(4) 0.3199(2) 1.3545(5)
H8B H 0.0961 0.3077 1.3712
H9B H 0.0248 0.2822 1.3452
C8B C 0.0813(3) 0.3570(2) 1.2394(5)
H10B H 0.0486 0.3666 1.2210
H11B H 0.0830 0.3322 1.1715
C9B C 0.1423(3) 0.4163(2) 1.2479(4)
H12B H 0.1761 0.4068 1.2571
C10B C 0.1946(3) 0.4589(2) 1.0645(4)
H13B H 0.2223 0.4460 1.0902
C11B C 0.2025(3) 0.4863(2) 0.9467(4)
C12B C 0.1667(3) 0.5116(2) 0.9075(4)
H14B H 0.1398 0.5147 0.9637
C13B C 0.16945(28) 0.53185(19) 0.7910(4)
C14B C 0.21003(28) 0.52883(19) 0.7081(4)
H15B H 0.2125 0.5432 0.6273
C15B C 0.2466(3) 0.5049(2) 0.7436(4)
C16B C 0.2430(3) 0.4846(2) 0.8621(4)
H16B H 0.2689 0.4692 0.8866
C17B C 0.1278(3) 0.5536(2) 0.7510(4)
H17B H 0.1057 0.5621 0.8103
C18B C 0.0782(3) 0.5841(2) 0.6110(5)
H18B H 0.0545 0.5821 0.6853
C19B C 0.0347(3) 0.5455(2) 0.5121(5)
H19B H 0.0099 0.5029 0.5413
H20B H 0.0584 0.5453 0.4407
C20B C -0.0076(4) 0.5694(2) 0.4742(6)
H21B H -0.0343 0.5658 0.5432
H22B H -0.0339 0.5444 0.4063
C21B C 0.0294(4) 0.6363(3) 0.4345(6)
H23B H 0.0014 0.6521 0.4168
H24B H 0.0523 0.6393 0.3592
C22B C 0.0749(3) 0.6755(2) 0.5352(5)
H25B H 0.1000 0.7181 0.5064
H26B H 0.0518 0.6757 0.6078
C23B C 0.1164(3) 0.6505(2) 0.5697(5)
H27B H 0.1419 0.6529 0.4981
C24B C 0.2134(3) 0.7140(2) 0.6518(4)
H28B H 0.2279 0.7086 0.5759
N5 N 0.63911(16) 0.46461(16) 0.8510(3)
N6 N 0.64932(16) 0.52898(17) 0.6236(4)
N7 N 0.50793(18) 0.38472(17) 0.1528(3)
N8 N 0.79913(17) 0.54455(17) 0.1358(4)
C25 C 0.61571(19) 0.34089(19) 0.8499(4)
H29 H 0.5810 0.3461 0.8493
C26 C 0.67435(19) 0.39226(19) 0.8504(4)
C27 C 0.6830(2) 0.4545(2) 0.8469(4)
H30 H 0.7233 0.4883 0.8413
C28 C 0.6521(2) 0.52813(19) 0.8451(4)
H31 H 0.6972 0.5563 0.8372
C29 C 0.6292(2) 0.5432(2) 0.9615(4)
H32 H 0.5859 0.5118 0.9753
H33 H 0.6534 0.5423 1.0315
C30 C 0.6346(2) 0.6060(2) 0.9538(5)
H34 H 0.6193 0.6144 1.0298
H35 H 0.6781 0.6378 0.9442
C31 C 0.5981(2) 0.6084(2) 0.8468(5)
H36 H 0.5544 0.5777 0.8580
H37 H 0.6020 0.6493 0.8424
C32 C 0.6211(2) 0.5955(2) 0.7300(5)
H38 H 0.6636 0.6287 0.7152
H39 H 0.5956 0.5952 0.6616
C33 C 0.6198(2) 0.5344(2) 0.7335(4)
H40 H 0.5762 0.5006 0.7343
C34 C 0.6157(2) 0.4903(2) 0.5445(4)
H41 H 0.5737 0.4645 0.5635
C35 C 0.6371(2) 0.48272(19) 0.4264(4)
C36 C 0.5940(2) 0.4451(2) 0.3410(4)
H42 H 0.5520 0.4232 0.3633
C37 C 0.61051(19) 0.4388(2) 0.2247(4)
C38 C 0.6717(2) 0.4680(2) 0.1940(4)
H43 H 0.6835 0.4625 0.1152
C39 C 0.7164(2) 0.5057(2) 0.2776(4)
C40 C 0.6987(2) 0.5125(2) 0.3934(4)
H44 H 0.7289 0.5377 0.4509
C41 C 0.7814(2) 0.5403(2) 0.2428(5)
H45 H 0.8112 0.5603 0.3047
C42 C 0.5633(2) 0.4026(2) 0.1325(4)
H46 H 0.5750 0.3928 0.0575
C43 C 0.4627(2) 0.3486(2) 0.0597(5)
H47 H 0.4841 0.3446 -0.0131
C44 C 0.4203(2) 0.2857(2) 0.1114(5)
H48 H 0.4019 0.2898 0.1889
C45 C 0.3689(2) 0.2476(2) 0.0198(5)
H49 H 0.3869 0.2404 -0.0538
H50 H 0.3403 0.2074 0.0562
C46 C 0.3342(2) 0.2795(3) -0.0156(6)
H51 H 0.3027 0.2545 -0.0767
H52 H 0.3131 0.2835 0.0566
C47 C 0.3763(3) 0.3420(3) -0.0675(6)
H53 H 0.3527 0.3627 -0.0862
H54 H 0.3945 0.3380 -0.1441
C48 C 0.4269(2) 0.3803(2) 0.0226(5)
H55 H 0.4087 0.3877 0.0958
H56 H 0.4552 0.4205 -0.0144
N5A N 0.53539(16) 0.17450(23) 0.8510(3)
N6A N 0.47102(17) 0.12034(23) 0.6236(4)
N7A N 0.61528(17) 0.12321(25) 0.1528(3)
N8A N 0.45545(17) 0.25458(24) 0.1358(4)
C25A C 0.65911(19) 0.27482(27) 0.8499(4)
H29A H 0.6539 0.2349 0.8493
C26A C 0.60774(19) 0.28209(27) 0.8504(4)
C27A C 0.5455(2) 0.2285(3) 0.8469(4)
H30A H 0.5117 0.2350 0.8413
C28A C 0.47187(19) 0.12397(28) 0.8451(4)
H31A H 0.4437 0.1409 0.8372
C29A C 0.4568(2) 0.0860(3) 0.9615(4)
H32A H 0.4882 0.0741 0.9753
H33A H 0.4577 0.1111 1.0315
C30A C 0.3940(2) 0.0286(3) 0.9538(5)
H34A H 0.3856 0.0049 1.0298
H35A H 0.3622 0.0403 0.9442
C31A C 0.3916(2) -0.0103(3) 0.8468(5)
H36A H 0.4223 -0.0233 0.8580
H37A H 0.3507 -0.0473 0.8424
C32A C 0.4045(2) 0.0256(3) 0.7300(5)
H38A H 0.3713 0.0349 0.7152
H39A H 0.4048 0.0004 0.6616
C33A C 0.4656(2) 0.0854(3) 0.7335(4)
H40A H 0.4994 0.0756 0.7343
C34A C 0.5097(2) 0.1254(3) 0.5445(4)
H41A H 0.5355 0.1092 0.5635
C35A C 0.51728(19) 0.15438(28) 0.4264(4)
C36A C 0.5549(2) 0.1489(3) 0.3410(4)
H42A H 0.5768 0.1288 0.3633
C37A C 0.5612(2) 0.17171(28) 0.2247(4)
C38A C 0.5320(2) 0.2037(3) 0.1940(4)
H43A H 0.5375 0.2210 0.1152
C39A C 0.4943(2) 0.2107(3) 0.2776(4)
C40A C 0.4875(2) 0.1862(3) 0.3934(4)
H44A H 0.4623 0.1912 0.4509
C41A C 0.4597(2) 0.2411(3) 0.2428(5)
H45A H 0.4397 0.2509 0.3047
C42A C 0.5974(2) 0.1607(3) 0.1325(4)
H46A H 0.6072 0.1822 0.0575
C43A C 0.6514(2) 0.1141(3) 0.0597(5)
H47A H 0.6554 0.1395 -0.0131
C44A C 0.7143(2) 0.1346(3) 0.1114(5)
H48A H 0.7102 0.1121 0.1889
C45A C 0.7524(2) 0.1213(3) 0.0198(5)
H49A H 0.7596 0.1465 -0.0538
H50A H 0.7926 0.1329 0.0562
C46A C 0.7205(3) 0.0547(4) -0.0156(6)
H51A H 0.7455 0.0482 -0.0767
H52A H 0.7165 0.0296 0.0566
C47A C 0.6580(3) 0.0343(4) -0.0675(6)
H53A H 0.6373 -0.0100 -0.0862
H54A H 0.6620 0.0565 -0.1441
C48A C 0.6197(2) 0.0466(3) 0.0226(5)
H55A H 0.6123 0.0210 0.0958
H56A H 0.5795 0.0347 -0.0144
N5B N 0.82550(23) 0.36089(16) 0.8510(3)
N6B N 0.87966(23) 0.35068(16) 0.6236(4)
N7B N 0.87679(25) 0.49207(18) 0.1528(3)
N8B N 0.74542(24) 0.20087(17) 0.1358(4)
C25B C 0.72518(27) 0.38429(19) 0.8499(4)
H29B H 0.7651 0.4190 0.8493
C26B C 0.71791(27) 0.32565(19) 0.8504(4)
C27B C 0.7715(3) 0.3170(2) 0.8469(4)
H30B H 0.7650 0.2767 0.8413
C28B C 0.87603(28) 0.3479(2) 0.8451(4)
H31B H 0.8591 0.3028 0.8372
C29B C 0.9140(3) 0.3708(2) 0.9615(4)
H32B H 0.9259 0.4141 0.9753
H33B H 0.8889 0.3466 1.0315
C30B C 0.9714(3) 0.3654(2) 0.9538(5)
H34B H 0.9951 0.3807 1.0298
H35B H 0.9597 0.3219 0.9442
C31B C 1.0103(3) 0.4019(2) 0.8468(5)
H36B H 1.0233 0.4456 0.8580
H37B H 1.0473 0.3980 0.8424
C32B C 0.9744(3) 0.3789(2) 0.7300(5)
H38B H 0.9651 0.3364 0.7152
H39B H 0.9996 0.4044 0.6616
C33B C 0.9146(3) 0.3802(2) 0.7335(4)
H40B H 0.9244 0.4238 0.7343
C34B C 0.8746(3) 0.3843(2) 0.5445(4)
H41B H 0.8908 0.4263 0.5635
C35B C 0.84562(28) 0.3629(2) 0.4264(4)
C36B C 0.8511(3) 0.4060(2) 0.3410(4)
H42B H 0.8712 0.4480 0.3633
C37B C 0.82829(28) 0.38949(19) 0.2247(4)
C38B C 0.7963(3) 0.3283(2) 0.1940(4)
H43B H 0.7790 0.3165 0.1152
C39B C 0.7893(3) 0.2836(2) 0.2776(4)
C40B C 0.8138(3) 0.3013(2) 0.3934(4)
H44B H 0.8088 0.2711 0.4509
C41B C 0.7589(3) 0.2186(2) 0.2428(5)
H45B H 0.7491 0.1888 0.3047
C42B C 0.8393(3) 0.4367(2) 0.1325(4)
H46B H 0.8178 0.4250 0.0575
C43B C 0.8859(3) 0.5373(2) 0.0597(5)
H47B H 0.8605 0.5159 -0.0131
C44B C 0.8654(3) 0.5797(2) 0.1114(5)
H48B H 0.8879 0.5981 0.1889
C45B C 0.8787(3) 0.6311(2) 0.0198(5)
H49B H 0.8535 0.6131 -0.0538
H50B H 0.8671 0.6597 0.0562
C46B C 0.9453(4) 0.6658(2) -0.0156(6)
H51B H 0.9518 0.6973 -0.0767
H52B H 0.9704 0.6869 0.0566
C47B C 0.9657(4) 0.6237(3) -0.0675(6)
H53B H 1.0100 0.6473 -0.0862
H54B H 0.9435 0.6055 -0.1441
C48B C 0.9534(3) 0.5731(2) 0.0226(5)
H55B H 0.9790 0.5913 0.0958
H56B H 0.9653 0.5448 -0.0144
N9 N 0.24357(17) 0.12059(17) 0.4327(4)
N10 N 0.16972(16) 0.08769(16) 0.6523(3)
N11 N 0.16249(16) -0.03151(16) -0.0568(4)
N12 N 0.15495(17) 0.21607(17) -0.0340(3)
C49 C 0.1908(2) 0.3008(2) -0.1781(5)
H57 H 0.2093 0.3291 -0.1086
H58 H 0.2220 0.2921 -0.2117
C50 C 0.0443(2) 0.0615(2) 0.6517(4)
H59 H 0.0749 0.1034 0.6509
C51 C 0.0616(2) 0.01625(19) 0.6522(4)
C52 C 0.1269(2) 0.0335(2) 0.6482(4)
H60 H 0.1367 0.0019 0.6423
C53 C 0.2324(2) 0.0988(2) 0.6483(4)
H61 H 0.2310 0.0597 0.6257
C54 C 0.2609(2) 0.1179(2) 0.7729(4)
H62 H 0.2379 0.0841 0.8312
H63 H 0.2584 0.1538 0.8006
C55 C 0.3278(2) 0.1339(2) 0.7712(5)
H64 H 0.3302 0.0970 0.7501
H65 H 0.3457 0.1475 0.8531
C56 C 0.3647(2) 0.1845(2) 0.6790(5)
H66 H 0.3652 0.2224 0.7031
H67 H 0.4075 0.1930 0.6771
C57 C 0.3361(2) 0.1644(2) 0.5535(5)
H68 H 0.3590 0.1982 0.4952
H69 H 0.3398 0.1290 0.5267
C58 C 0.2687(2) 0.1468(2) 0.5504(4)
H70 H 0.2650 0.1839 0.5640
C59 C 0.2258(2) 0.1480(2) 0.3619(4)
H71 H 0.2279 0.1849 0.3874
C60 C 0.2019(2) 0.1232(2) 0.2403(4)
C61 C 0.1957(2) 0.0669(2) 0.2048(4)
H72 H 0.2063 0.0449 0.2601
C62 C 0.1745(2) 0.04338(19) 0.0918(4)
C63 C 0.1580(2) 0.0756(2) 0.0092(4)
H73 H 0.1431 0.0593 -0.0692
C64 C 0.1638(2) 0.1313(2) 0.0431(4)
C65 C 0.1858(2) 0.1551(2) 0.1571(4)
H74 H 0.1901 0.1933 0.1795
C66 C 0.1734(2) -0.0132(2) 0.0520(4)
H75 H 0.1810 -0.0364 0.1100
C67 C 0.1473(2) 0.1629(2) -0.0482(4)
H76 H 0.1299 0.1423 -0.1224
C68 C 0.13634(19) 0.24133(19) -0.1332(4)
H77 H 0.1203 0.2112 -0.2016
C69 C 0.0852(2) 0.25256(19) -0.0877(4)
H78 H 0.0996 0.2793 -0.0140
C70 C 0.0669(2) 0.2829(2) -0.1860(5)
H79 H 0.0492 0.2548 -0.2560
H80 H 0.0353 0.2914 -0.1538
C71 C 0.1221(2) 0.3423(2) -0.2278(5)
H81 H 0.1096 0.3609 -0.2927
H82 H 0.1381 0.3714 -0.1589
C72 C 0.1723(2) 0.3314(2) -0.2752(5)
H83 H 0.1576 0.3050 -0.3482
H84 H 0.2083 0.3708 -0.2988
N9A N -0.12059(17) 0.12298(24) 0.4327(4)
N10A N -0.08769(16) 0.08203(23) 0.6523(3)
N11A N 0.03151(16) 0.19400(23) -0.0568(4)
N12A N -0.21607(17) -0.06112(24) -0.0340(3)
C49A C -0.3008(2) -0.1100(3) -0.1781(5)
H57A H -0.3291 -0.1198 -0.1086
H58A H -0.2921 -0.0701 -0.2117
C50A C -0.0615(2) -0.0172(3) 0.6517(4)
H59A H -0.1034 -0.0285 0.6509
C51A C -0.01625(19) 0.04535(28) 0.6522(4)
C52A C -0.0335(2) 0.0934(3) 0.6482(4)
H60A H -0.0019 0.1348 0.6423
C53A C -0.0988(2) 0.1336(3) 0.6483(4)
H61A H -0.0597 0.1713 0.6257
C54A C -0.1179(2) 0.1430(3) 0.7729(4)
H62A H -0.0841 0.1538 0.8312
H63A H -0.1538 0.1046 0.8006
C55A C -0.1339(2) 0.1939(3) 0.7712(5)
H64A H -0.0970 0.2332 0.7501
H65A H -0.1475 0.1982 0.8531
C56A C -0.1845(2) 0.1802(3) 0.6790(5)
H66A H -0.2224 0.1428 0.7031
H67A H -0.1930 0.2145 0.6771
C57A C -0.1644(2) 0.1717(3) 0.5535(5)
H68A H -0.1982 0.1608 0.4952
H69A H -0.1290 0.2108 0.5267
C58A C -0.1468(2) 0.1219(3) 0.5504(4)
H70A H -0.1839 0.0811 0.5640
C59A C -0.1480(2) 0.0778(3) 0.3619(4)
H71A H -0.1849 0.0430 0.3874
C60A C -0.1232(2) 0.0787(3) 0.2403(4)
C61A C -0.0669(2) 0.1288(3) 0.2048(4)
H72A H -0.0449 0.1614 0.2601
C62A C -0.04338(19) 0.13112(28) 0.0918(4)
C63A C -0.0756(2) 0.0824(3) 0.0092(4)
H73A H -0.0593 0.0838 -0.0692
C64A C -0.1313(2) 0.0325(3) 0.0431(4)
C65A C -0.1551(2) 0.0307(3) 0.1571(4)
H74A H -0.1933 -0.0032 0.1795
C66A C 0.0132(2) 0.1866(3) 0.0520(4)
H75A H 0.0364 0.2174 0.1100
C67A C -0.1629(2) -0.0156(3) -0.0482(4)
H76A H -0.1423 -0.0124 -0.1224
C68A C -0.24133(19) -0.10499(27) -0.1332(4)
H77A H -0.2112 -0.0909 -0.2016
C69A C -0.25256(19) -0.16736(28) -0.0877(4)
H78A H -0.2793 -0.1797 -0.0140
C70A C -0.2829(2) -0.2160(3) -0.1860(5)
H79A H -0.2548 -0.2056 -0.2560
H80A H -0.2914 -0.2561 -0.1538
C71A C -0.3423(2) -0.2202(3) -0.2278(5)
H81A H -0.3609 -0.2513 -0.2927
H82A H -0.3714 -0.2333 -0.1589
C72A C -0.3314(2) -0.1591(3) -0.2752(5)
H83A H -0.3050 -0.1474 -0.3482
H84A H -0.3708 -0.1625 -0.2988
N9B N -0.12298(24) -0.24357(17) 0.4327(4)
N10B N -0.08203(23) -0.16972(16) 0.6523(3)
N11B N -0.19400(23) -0.16249(16) -0.0568(4)
N12B N 0.06112(24) -0.15495(17) -0.0340(3)
C49B C 0.1100(3) -0.1908(2) -0.1781(5)
H57B H 0.1198 -0.2093 -0.1086
H58B H 0.0701 -0.2220 -0.2117
C50B C 0.0172(3) -0.0443(2) 0.6517(4)
H59B H 0.0285 -0.0749 0.6509
C51B C -0.04535(28) -0.0616(2) 0.6522(4)
C52B C -0.0934(3) -0.1269(2) 0.6482(4)
H60B H -0.1348 -0.1367 0.6423
C53B C -0.1336(3) -0.2324(2) 0.6483(4)
H61B H -0.1713 -0.2310 0.6257
C54B C -0.1430(3) -0.2609(2) 0.7729(4)
H62B H -0.1538 -0.2379 0.8312
H63B H -0.1046 -0.2584 0.8006
C55B C -0.1939(3) -0.3278(2) 0.7712(5)
H64B H -0.2332 -0.3302 0.7501
H65B H -0.1982 -0.3457 0.8531
C56B C -0.1802(3) -0.3647(2) 0.6790(5)
H66B H -0.1428 -0.3652 0.7031
H67B H -0.2145 -0.4075 0.6771
C57B C -0.1717(3) -0.3361(2) 0.5535(5)
H68B H -0.1608 -0.3590 0.4952
H69B H -0.2108 -0.3398 0.5267
C58B C -0.1219(3) -0.2687(2) 0.5504(4)
H70B H -0.0811 -0.2650 0.5640
C59B C -0.0778(3) -0.2258(2) 0.3619(4)
H71B H -0.0430 -0.2279 0.3874
C60B C -0.0787(3) -0.2019(2) 0.2403(4)
C61B C -0.1288(3) -0.1957(2) 0.2048(4)
H72B H -0.1614 -0.2063 0.2601
C62B C -0.13112(28) -0.1745(2) 0.0918(4)
C63B C -0.0824(3) -0.1580(2) 0.0092(4)
H73B H -0.0838 -0.1431 -0.0692
C64B C -0.0325(3) -0.1638(2) 0.0431(4)
C65B C -0.0307(3) -0.1858(2) 0.1571(4)
H74B H 0.0032 -0.1901 0.1795
C66B C -0.1866(3) -0.1734(2) 0.0520(4)
H75B H -0.2174 -0.1810 0.1100
C67B C 0.0156(3) -0.1473(2) -0.0482(4)
H76B H 0.0124 -0.1299 -0.1224
C68B C 0.10499(27) -0.13634(19) -0.1332(4)
H77B H 0.0909 -0.1203 -0.2016
C69B C 0.16736(28) -0.0852(2) -0.0877(4)
H78B H 0.1797 -0.0996 -0.0140
C70B C 0.2160(3) -0.0669(2) -0.1860(5)
H79B H 0.2056 -0.0492 -0.2560
H80B H 0.2561 -0.0353 -0.1538
C71B C 0.2202(3) -0.1221(2) -0.2278(5)
H81B H 0.2513 -0.1096 -0.2927
H82B H 0.2333 -0.1381 -0.1589
C72B C 0.1591(3) -0.1723(2) -0.2752(5)
H83B H 0.1474 -0.1576 -0.3482
H84B H 0.1625 -0.2083 -0.2988
N13 N 0.2453(4) 0.3432(4) 0.1744(9)
N14 N 0.2258(4) 0.3168(4) 0.2433(9)
N15 N 0.5044(4) 0.3195(4) 0.5557(9)
N16 N 0.5007(5) 0.3287(5) 0.6413(10)
N17 N 0.3333 0.6667 0.6596(13)
N18 N 0.3333 0.6667 0.7540(15)
N19 N 0.6667 0.3333 0.1505(14)
N20 N 0.6667 0.3333 0.2455(17)
N21 N 0.5147(4) 0.5272(3) 0.1845(7)
N22 N 0.5470(3) 0.5410(3) 0.2424(7)
N23 N 0.3734(5) 0.5041(5) 0.0685(10)
N24 N 0.3673(5) 0.5115(5) 0.1542(10)
N25 N 0.7533(4) 0.6590(3) 0.1668(8)
N26 N 0.7314(4) 0.6473(3) 0.2425(8)
N27 N 0.0000 0.0000 -0.0482(13)
N28 N 0.0000 0.0000 0.0418(14)
N29? N 0.6463(12) 0.3375(16) 0.5299(16)
N30? N 0.3379(10) 0.6465(8) 0.0512(13)
N31? N 0.8095(6) 0.9157(6) 0.4258(11)
N32? N 0.8279(5) 0.9082(6) 0.3530(10)
N33? N 0.8166(12) 0.8806(8) 0.4239(17)
N34? N 0.0270(7) 0.0186(11) 0.3247(15)
loop_
_geom_bond_atom_site_label_1
_geom_bond_atom_site_label_2
_geom_bond_site_symmetry_1
_geom_bond_site_symmetry_2
N1 C3 1_555 1_555
N2 C9 1_555 1_555
N3 C17 1_555 1_555
N4 C23 1_555 1_555
C1 H1 1_555 1_555
C2 C1 1_555 1_555
C3 C2 1_555 1_555
H2 C3 1_555 1_555
C4 N1 1_555 1_555
H3 C4 1_555 1_555
C5 C4 1_555 1_555
H4 C5 1_555 1_555
H5 C5 1_555 1_555
C6 C5 1_555 1_555
H6 C6 1_555 1_555
H7 C6 1_555 1_555
C7 C6 1_555 1_555
H8 C7 1_555 1_555
H9 C7 1_555 1_555
C8 C7 1_555 1_555
H10 C8 1_555 1_555
H11 C8 1_555 1_555
C9 C4 1_555 1_555
H12 C9 1_555 1_555
C10 N2 1_555 1_555
H13 C10 1_555 1_555
C11 C10 1_555 1_555
C12 C11 1_555 1_555
H14 C12 1_555 1_555
C13 C12 1_555 1_555
C14 C13 1_555 1_555
H15 C14 1_555 1_555
C15 C14 1_555 1_555
C16 C11 1_555 1_555
H16 C16 1_555 1_555
C17 C13 1_555 1_555
H17 C17 1_555 1_555
C18 N3 1_555 1_555
H18 C18 1_555 1_555
C19 C18 1_555 1_555
H19 C19 1_555 1_555
H20 C19 1_555 1_555
C20 C19 1_555 1_555
H21 C20 1_555 1_555
H22 C20 1_555 1_555
C21 C20 1_555 1_555
H23 C21 1_555 1_555
H24 C21 1_555 1_555
C22 C21 1_555 1_555
H25 C22 1_555 1_555
H26 C22 1_555 1_555
C23 C18 1_555 1_555
H27 C23 1_555 1_555
C24 N4 1_555 1_555
H28 C24 1_555 1_555
N5 C27 1_555 1_555
N6 C33 1_555 1_555
N7 C42 1_555 1_555
N8 C41 1_555 1_555
C25 H29 1_555 1_555
C26 C25 1_555 1_555
C27 C26 1_555 1_555
H30 C27 1_555 1_555
C28 N5 1_555 1_555
H31 C28 1_555 1_555
C29 C28 1_555 1_555
H32 C29 1_555 1_555
H33 C29 1_555 1_555
C30 C29 1_555 1_555
H34 C30 1_555 1_555
H35 C30 1_555 1_555
C31 C30 1_555 1_555
H36 C31 1_555 1_555
H37 C31 1_555 1_555
C32 C31 1_555 1_555
H38 C32 1_555 1_555
H39 C32 1_555 1_555
C33 C28 1_555 1_555
H40 C33 1_555 1_555
C34 N6 1_555 1_555
H41 C34 1_555 1_555
C35 C34 1_555 1_555
C36 C35 1_555 1_555
H42 C36 1_555 1_555
C37 C36 1_555 1_555
C38 C37 1_555 1_555
H43 C38 1_555 1_555
C39 C38 1_555 1_555
C40 C35 1_555 1_555
H44 C40 1_555 1_555
C41 C39 1_555 1_555
H45 C41 1_555 1_555
C42 C37 1_555 1_555
H46 C42 1_555 1_555
C43 N7 1_555 1_555
H47 C43 1_555 1_555
C44 C43 1_555 1_555
H48 C44 1_555 1_555
C45 C44 1_555 1_555
H49 C45 1_555 1_555
H50 C45 1_555 1_555
C46 C45 1_555 1_555
H51 C46 1_555 1_555
H52 C46 1_555 1_555
C47 C46 1_555 1_555
H53 C47 1_555 1_555
H54 C47 1_555 1_555
C48 C43 1_555 1_555
H55 C48 1_555 1_555
H56 C48 1_555 1_555
N9 C58 1_555 1_555
N10 C52 1_555 1_555
N11 C66 1_555 1_555
N12 C67 1_555 1_555
C49 H57 1_555 1_555
H58 C49 1_555 1_555
C50 H59 1_555 1_555
C51 C50 1_555 1_555
C52 C51 1_555 1_555
H60 C52 1_555 1_555
C53 N10 1_555 1_555
H61 C53 1_555 1_555
C54 C53 1_555 1_555
H62 C54 1_555 1_555
H63 C54 1_555 1_555
C55 C54 1_555 1_555
H64 C55 1_555 1_555
H65 C55 1_555 1_555
C56 C55 1_555 1_555
H66 C56 1_555 1_555
H67 C56 1_555 1_555
C57 C56 1_555 1_555
H68 C57 1_555 1_555
H69 C57 1_555 1_555
C58 C53 1_555 1_555
H70 C58 1_555 1_555
C59 N9 1_555 1_555
H71 C59 1_555 1_555
C60 C59 1_555 1_555
C61 C60 1_555 1_555
H72 C61 1_555 1_555
C62 C61 1_555 1_555
C63 C62 1_555 1_555
H73 C63 1_555 1_555
C64 C63 1_555 1_555
C65 C60 1_555 1_555
H74 C65 1_555 1_555
C66 C62 1_555 1_555
H75 C66 1_555 1_555
C67 C64 1_555 1_555
H76 C67 1_555 1_555
C68 N12 1_555 1_555
H77 C68 1_555 1_555
C69 C68 1_555 1_555
H78 C69 1_555 1_555
C70 C69 1_555 1_555
H79 C70 1_555 1_555
H80 C70 1_555 1_555
C71 C70 1_555 1_555
H81 C71 1_555 1_555
H82 C71 1_555 1_555
C72 C49 1_555 1_555
H83 C72 1_555 1_555
H84 C72 1_555 1_555
N13 N14 1_555 1_555
N15 N16 1_555 1_555
N17 N18 1_555 1_555
N19 N20 1_555 1_555
N21 N22 1_555 1_555
N23 N24 1_555 1_555
N25 N26 1_555 1_555
N27 N28 1_555 1_555
N1A C3A 1_555 1_555
N2A C9A 1_555 1_555
N3A C17A 1_555 1_555
N4A C23A 1_555 1_555
C1A C2 1_555 1_555
H1A C1A 1_555 1_555
C2A C1A 1_555 1_555
C3A C2A 1_555 1_555
H2A C3A 1_555 1_555
C4A N1A 1_555 1_555
H3A C4A 1_555 1_555
C5A C4A 1_555 1_555
H4A C5A 1_555 1_555
H5A C5A 1_555 1_555
C6A C5A 1_555 1_555
H6A C6A 1_555 1_555
H7A C6A 1_555 1_555
C7A C6A 1_555 1_555
H8A C7A 1_555 1_555
H9A C7A 1_555 1_555
C8A C7A 1_555 1_555
H10A C8A 1_555 1_555
H11A C8A 1_555 1_555
C9A C4A 1_555 1_555
H12A C9A 1_555 1_555
C10A N2A 1_555 1_555
H13A C10A 1_555 1_555
C11A C10A 1_555 1_555
C12A C11A 1_555 1_555
H14A C12A 1_555 1_555
C13A C12A 1_555 1_555
C14A C13A 1_555 1_555
H15A C14A 1_555 1_555
C15A C14A 1_555 1_555
C16A C11A 1_555 1_555
H16A C16A 1_555 1_555
C17A C13A 1_555 1_555
H17A C17A 1_555 1_555
C18A N3A 1_555 1_555
H18A C18A 1_555 1_555
C19A C18A 1_555 1_555
H19A C19A 1_555 1_555
H20A C19A 1_555 1_555
C20A C19A 1_555 1_555
H21A C20A 1_555 1_555
H22A C20A 1_555 1_555
C21A C20A 1_555 1_555
H23A C21A 1_555 1_555
H24A C21A 1_555 1_555
C22A C21A 1_555 1_555
H25A C22A 1_555 1_555
H26A C22A 1_555 1_555
C23A C18A 1_555 1_555
H27A C23A 1_555 1_555
C24A C15 1_555 1_555
H28A C24A 1_555 1_555
N1B C3B 1_555 1_555
N2B C9B 1_555 1_555
N3B C17B 1_555 1_555
N4B C23B 1_555 1_555
C1B C2A 1_555 1_555
H1B C1B 1_555 1_555
C2B C1 1_555 1_555
C3B C2B 1_555 1_555
H2B C3B 1_555 1_555
C4B N1B 1_555 1_555
H3B C4B 1_555 1_555
C5B C4B 1_555 1_555
H4B C5B 1_555 1_555
H5B C5B 1_555 1_555
C6B C5B 1_555 1_555
H6B C6B 1_555 1_555
H7B C6B 1_555 1_555
C7B C6B 1_555 1_555
H8B C7B 1_555 1_555
H9B C7B 1_555 1_555
C8B C7B 1_555 1_555
H10B C8B 1_555 1_555
H11B C8B 1_555 1_555
C9B C4B 1_555 1_555
H12B C9B 1_555 1_555
C10B N2B 1_555 1_555
H13B C10B 1_555 1_555
C11B C10B 1_555 1_555
C12B C11B 1_555 1_555
H14B C12B 1_555 1_555
C13B C12B 1_555 1_555
C14B C13B 1_555 1_555
H15B C14B 1_555 1_555
C15B C24 1_555 1_555
C16B C11B 1_555 1_555
H16B C16B 1_555 1_555
C17B C13B 1_555 1_555
H17B C17B 1_555 1_555
C18B N3B 1_555 1_555
H18B C18B 1_555 1_555
C19B C18B 1_555 1_555
H19B C19B 1_555 1_555
H20B C19B 1_555 1_555
C20B C19B 1_555 1_555
H21B C20B 1_555 1_555
H22B C20B 1_555 1_555
C21B C20B 1_555 1_555
H23B C21B 1_555 1_555
H24B C21B 1_555 1_555
C22B C21B 1_555 1_555
H25B C22B 1_555 1_555
H26B C22B 1_555 1_555
C23B C18B 1_555 1_555
H27B C23B 1_555 1_555
C24B C15A 1_555 1_555
H28B C24B 1_555 1_555
N5A C27A 1_555 1_555
N6A C33A 1_555 1_555
N7A C42A 1_555 1_555
N8A C44 1_555 1_555
C25A H29A 1_555 1_555
C26A C25 1_555 1_555
C27A C26A 1_555 1_555
H30A C27A 1_555 1_555
C28A N5A 1_555 1_555
H31A C28A 1_555 1_555
C29A C28A 1_555 1_555
H32A C29A 1_555 1_555
H33A C29A 1_555 1_555
C30A C29A 1_555 1_555
H34A C30A 1_555 1_555
H35A C30A 1_555 1_555
C31A C30A 1_555 1_555
H36A C31A 1_555 1_555
H37A C31A 1_555 1_555
C32A C31A 1_555 1_555
H38A C32A 1_555 1_555
H39A C32A 1_555 1_555
C33A C28A 1_555 1_555
H40A C33A 1_555 1_555
C34A N6A 1_555 1_555
H41A C34A 1_555 1_555
C35A C34A 1_555 1_555
C36A C35A 1_555 1_555
H42A C36A 1_555 1_555
C37A C36A 1_555 1_555
C38A C37A 1_555 1_555
H43A C38A 1_555 1_555
C39A C38A 1_555 1_555
C40A C35A 1_555 1_555
H44A C40A 1_555 1_555
C41A N8A 1_555 1_555
H45A C41A 1_555 1_555
C42A C37A 1_555 1_555
H46A C42A 1_555 1_555
C43A N7A 1_555 1_555
H47A C43A 1_555 1_555
C44A C43A 1_555 1_555
H48A C44A 1_555 1_555
C45A C44A 1_555 1_555
H49A C45A 1_555 1_555
H50A C45A 1_555 1_555
C46A C45A 1_555 1_555
H51A C46A 1_555 1_555
H52A C46A 1_555 1_555
C47A C46A 1_555 1_555
H53A C47A 1_555 1_555
H54A C47A 1_555 1_555
C48A C43A 1_555 1_555
H55A C48A 1_555 1_555
H56A C48A 1_555 1_555
N5B C27B 1_555 1_555
N6B C33B 1_555 1_555
N7B C42B 1_555 1_555
N8B C44A 1_555 1_555
C25B C26 1_555 1_555
H29B C25B 1_555 1_555
C26B C25A 1_555 1_555
C27B C26B 1_555 1_555
H30B C27B 1_555 1_555
C28B N5B 1_555 1_555
H31B C28B 1_555 1_555
C29B C28B 1_555 1_555
H32B C29B 1_555 1_555
H33B C29B 1_555 1_555
C30B C29B 1_555 1_555
H34B C30B 1_555 1_555
H35B C30B 1_555 1_555
C31B C30B 1_555 1_555
H36B C31B 1_555 1_555
H37B C31B 1_555 1_555
C32B C31B 1_555 1_555
H38B C32B 1_555 1_555
H39B C32B 1_555 1_555
C33B C28B 1_555 1_555
H40B C33B 1_555 1_555
C34B N6B 1_555 1_555
H41B C34B 1_555 1_555
C35B C34B 1_555 1_555
C36B C35B 1_555 1_555
H42B C36B 1_555 1_555
C37B C36B 1_555 1_555
C38B C37B 1_555 1_555
H43B C38B 1_555 1_555
C39B C38B 1_555 1_555
C40B C35B 1_555 1_555
H44B C40B 1_555 1_555
C41B N8B 1_555 1_555
H45B C41B 1_555 1_555
C42B C37B 1_555 1_555
H46B C42B 1_555 1_555
C43B N7B 1_555 1_555
H47B C43B 1_555 1_555
C44B N8 1_555 1_555
H48B C44B 1_555 1_555
C45B C44B 1_555 1_555
H49B C45B 1_555 1_555
H50B C45B 1_555 1_555
C46B C45B 1_555 1_555
H51B C46B 1_555 1_555
H52B C46B 1_555 1_555
C47B C46B 1_555 1_555
H53B C47B 1_555 1_555
H54B C47B 1_555 1_555
C48B C43B 1_555 1_555
H55B C48B 1_555 1_555
H56B C48B 1_555 1_555
N9A C58A 1_555 1_555
N10A C52A 1_555 1_555
N11A C69 1_555 1_555
N12A C67A 1_555 1_555
C49A H57A 1_555 1_555
H58A C49A 1_555 1_555
C50A H59A 1_555 1_555
C51A C50 1_555 1_555
C52A C51A 1_555 1_555
H60A C52A 1_555 1_555
C53A N10A 1_555 1_555
H61A C53A 1_555 1_555
C54A C53A 1_555 1_555
H62A C54A 1_555 1_555
H63A C54A 1_555 1_555
C55A C54A 1_555 1_555
H64A C55A 1_555 1_555
H65A C55A 1_555 1_555
C56A C55A 1_555 1_555
H66A C56A 1_555 1_555
H67A C56A 1_555 1_555
C57A C56A 1_555 1_555
H68A C57A 1_555 1_555
H69A C57A 1_555 1_555
C58A C53A 1_555 1_555
H70A C58A 1_555 1_555
C59A N9A 1_555 1_555
H71A C59A 1_555 1_555
C60A C59A 1_555 1_555
C61A C60A 1_555 1_555
H72A C61A 1_555 1_555
C62A C61A 1_555 1_555
C63A C62A 1_555 1_555
H73A C63A 1_555 1_555
C64A C63A 1_555 1_555
C65A C60A 1_555 1_555
H74A C65A 1_555 1_555
C66A N11A 1_555 1_555
H75A C66A 1_555 1_555
C67A C64A 1_555 1_555
H76A C67A 1_555 1_555
C68A N12A 1_555 1_555
H77A C68A 1_555 1_555
C69A C68A 1_555 1_555
H78A C69A 1_555 1_555
C70A C69A 1_555 1_555
H79A C70A 1_555 1_555
H80A C70A 1_555 1_555
C71A C70A 1_555 1_555
H81A C71A 1_555 1_555
H82A C71A 1_555 1_555
C72A C49A 1_555 1_555
H83A C72A 1_555 1_555
H84A C72A 1_555 1_555
N9B C58B 1_555 1_555
N10B C52B 1_555 1_555
N11B C69A 1_555 1_555
N12B C67B 1_555 1_555
C49B H57B 1_555 1_555
H58B C49B 1_555 1_555
C50B C51 1_555 1_555
H59B C50B 1_555 1_555
C51B C50A 1_555 1_555
C52B C51B 1_555 1_555
H60B C52B 1_555 1_555
C53B N10B 1_555 1_555
H61B C53B 1_555 1_555
C54B C53B 1_555 1_555
H62B C54B 1_555 1_555
H63B C54B 1_555 1_555
C55B C54B 1_555 1_555
H64B C55B 1_555 1_555
H65B C55B 1_555 1_555
C56B C55B 1_555 1_555
H66B C56B 1_555 1_555
H67B C56B 1_555 1_555
C57B C56B 1_555 1_555
H68B C57B 1_555 1_555
H69B C57B 1_555 1_555
C58B C53B 1_555 1_555
H70B C58B 1_555 1_555
C59B N9B 1_555 1_555
H71B C59B 1_555 1_555
C60B C59B 1_555 1_555
C61B C60B 1_555 1_555
H72B C61B 1_555 1_555
C62B C61B 1_555 1_555
C63B C62B 1_555 1_555
H73B C63B 1_555 1_555
C64B C63B 1_555 1_555
C65B C60B 1_555 1_555
H74B C65B 1_555 1_555
C66B N11B 1_555 1_555
H75B C66B 1_555 1_555
C67B C64B 1_555 1_555
H76B C67B 1_555 1_555
C68B N12B 1_555 1_555
H77B C68B 1_555 1_555
C69B N11 1_555 1_555
H78B C69B 1_555 1_555
C70B C69B 1_555 1_555
H79B C70B 1_555 1_555
H80B C70B 1_555 1_555
C71B C70B 1_555 1_555
H81B C71B 1_555 1_555
H82B C71B 1_555 1_555
C72B C49B 1_555 1_555
H83B C72B 1_555 1_555
H84B C72B 1_555 1_555
C8 C9 1_555 1_555
C15 C16 1_555 1_555
C22 C23 1_555 1_555
C32 C33 1_555 1_555
C39 C40 1_555 1_555
C47 C48 1_555 1_555
C49 C68 1_555 1_555
C57 C58 1_555 1_555
C64 C65 1_555 1_555
C71 C72 1_555 1_555
N4A C24A 1_555 1_555
C8A C9A 1_555 1_555
C15A C16A 1_555 1_555
C22A C23A 1_555 1_555
N4B C24B 1_555 1_555
C1B C2B 1_555 1_555
C8B C9B 1_555 1_555
C14B C15B 1_555 1_555
C15B C16B 1_555 1_555
C22B C23B 1_555 1_555
C25A C26A 1_555 1_555
C32A C33A 1_555 1_555
C39A C40A 1_555 1_555
C39A C41A 1_555 1_555
C47A C48A 1_555 1_555
C25B C26B 1_555 1_555
C32B C33B 1_555 1_555
C39B C40B 1_555 1_555
C39B C41B 1_555 1_555
C43B C44B 1_555 1_555
C47B C48B 1_555 1_555
C49A C68A 1_555 1_555
C50A C51A 1_555 1_555
C57A C58A 1_555 1_555
C62A C66A 1_555 1_555
C64A C65A 1_555 1_555
C71A C72A 1_555 1_555
C49B C68B 1_555 1_555
C50B C51B 1_555 1_555
C57B C58B 1_555 1_555
C62B C66B 1_555 1_555
C64B C65B 1_555 1_555
C68B C69B 1_555 1_555
C71B C72B 1_555 1_555

#END
