
#######################################################################
#
#                 Cambridge Crystallographic Data Centre
#                                CCDC 
#
#######################################################################
#
# If this CIF has been generated from an entry in the Cambridge 
# Structural Database, then it will include bibliographic, chemical, 
# crystal, experimental, refinement or atomic coordinate data resulting 
# from the CCDC's data processing and validation procedures.
#
#######################################################################

data_NODWEK
_chemical_formula_moiety         'C66 H72 N12,3(C8 H10),2(H2 O1)'
_chemical_name_systematic        
'5,11,19,25,33,39,47,53,58,64,69,75-dodecaazatridecacyclo[27.27.9.9^15,43^.1^3,55^.1^13,17^.1^27,31^.1^41,45^.0^6,10^.0^20,24^.0^34,38^.0^48,52^.0^59,63^.0^70,74^]octaheptaconta-1,3(66),4,11,13(78),14,16,18,25,27(77),28,30,32,39,41(67),42,44,46,53,55,57,64,68,75-tetracosaene p-xylene solvate dihydrate'
_symmetry_cell_setting           orthorhombic
_symmetry_space_group_name_H-M   'P 21 21 21'
_symmetry_Int_Tables_number      19
_space_group_name_Hall           'P 2ac 2ab'
loop_
_symmetry_equiv_pos_site_id
_symmetry_equiv_pos_as_xyz
1 x,y,z
2 1/2-x,-y,1/2+z
3 1/2+x,1/2-y,-z
4 -x,1/2+y,1/2-z
_cell_length_a                   16.7488(15)
_cell_length_b                   19.2538(19)
_cell_length_c                   25.342(3)
_cell_angle_alpha                90
_cell_angle_beta                 90
_cell_angle_gamma                90
_cell_volume                     8172.24
_exptl_crystal_colour            colorless
_exptl_crystal_description       plate
_cell_formula_units_Z            4
loop_
_atom_site_label
_atom_site_type_symbol
_atom_site_fract_x
_atom_site_fract_y
_atom_site_fract_z
O1 O -0.6475(6) -0.5684(5) -0.6653(4)
O2 O -0.4772(4) -0.1559(3) -0.8671(3)
N1 N -0.51814(17) -0.15707(17) -0.41602(12)
N2 N -0.53746(17) -0.31548(17) -0.40524(11)
N3 N -0.71455(17) -0.02270(14) -0.61494(12)
N4 N -0.79736(17) -0.09384(15) -0.71275(12)
N5 N -0.32868(17) -0.02670(16) -0.61132(12)
N6 N -0.23009(16) -0.12541(15) -0.68151(11)
N7 N -0.33379(17) -0.50851(17) -0.56388(12)
N8 N -0.25107(16) -0.45534(15) -0.66510(11)
N9 N -0.61503(18) -0.31131(15) -0.86624(11)
N10 N -0.43141(18) -0.30108(16) -0.85815(11)
N11 N -0.82030(17) -0.42009(16) -0.67348(12)
N12 N -0.72022(16) -0.49230(16) -0.58249(12)
C1 C -0.5811(2) -0.04457(18) -0.58102(15)
C2 C -0.6037(2) -0.07481(18) -0.53326(15)
H1 H -0.6587 -0.0799 -0.5250
C3 C -0.5458(2) -0.09766(19) -0.49756(15)
C4 C -0.4647(2) -0.08808(19) -0.50956(15)
H2 H -0.4251 -0.1022 -0.4850
C5 C -0.4418(2) -0.05812(18) -0.55703(15)
C6 C -0.5002(2) -0.03598(17) -0.59201(15)
H3 H -0.4846 -0.0145 -0.6242
C7 C -0.6396(2) -0.02066(17) -0.62102(16)
H4 H -0.6195 -0.0026 -0.6533
C8 C -0.5687(2) -0.1340(2) -0.44892(15)
H5 H -0.6238 -0.1405 -0.4418
C9 C -0.3557(2) -0.05480(19) -0.56976(15)
H6 H -0.3189 -0.0747 -0.5456
C10 C -0.2852(2) -0.22073(18) -0.73040(13)
C11 C -0.2563(2) -0.26953(19) -0.69479(13)
H7 H -0.2236 -0.2547 -0.6663
C12 C -0.27461(19) -0.33989(19) -0.70015(13)
C13 C -0.3229(2) -0.36033(19) -0.74273(13)
H8 H -0.3359 -0.4080 -0.7471
C14 C -0.3517(2) -0.31186(19) -0.77840(13)
C15 C -0.3331(2) -0.2421(2) -0.77218(14)
H9 H -0.3531 -0.2089 -0.7965
C16 C -0.2680(2) -0.14590(19) -0.72186(13)
H10 H -0.2856 -0.1128 -0.7471
C17 C -0.24523(19) -0.39009(18) -0.66072(13)
H11 H -0.2202 -0.3722 -0.6299
C18 C -0.4039(2) -0.33812(18) -0.82094(13)
H12 H -0.4179 -0.3859 -0.8204
C19 C -0.6089(2) -0.4501(2) -0.52982(14)
C20 C -0.5490(2) -0.4876(2) -0.55635(15)
H13 H -0.5628 -0.5174 -0.5848
C21 C -0.4699(2) -0.4810(2) -0.54092(14)
C22 C -0.4497(2) -0.4382(2) -0.49854(13)
H14 H -0.3955 -0.4341 -0.4879
C23 C -0.5086(2) -0.40162(19) -0.47192(14)
C24 C -0.5889(2) -0.4086(2) -0.48784(14)
H15 H -0.6296 -0.3842 -0.4693
C25 C -0.6933(2) -0.4527(2) -0.54678(14)
H16 H -0.7300 -0.4224 -0.5297
C26 C -0.4080(2) -0.5188(2) -0.57122(15)
H17 H -0.4243 -0.5517 -0.5970
C27 C -0.4865(2) -0.35310(18) -0.42925(13)
H18 H -0.4320 -0.3498 -0.4193
C28 C -0.7030(2) -0.26565(18) -0.80103(13)
C29 C -0.7175(2) -0.33185(19) -0.78018(14)
H19 H -0.6945 -0.3715 -0.7965
C30 C -0.7651(2) -0.33976(18) -0.73593(13)
C31 C -0.7979(2) -0.28161(19) -0.71221(14)
H20 H -0.8311 -0.2871 -0.6821
C32 C -0.7832(2) -0.21597(19) -0.73131(14)
C33 C -0.7358(2) -0.20822(18) -0.77669(13)
H21 H -0.7264 -0.1632 -0.7907
C34 C -0.6475(2) -0.25864(17) -0.84641(13)
H22 H -0.6366 -0.2140 -0.8606
C35 C -0.7756(2) -0.40949(18) -0.71273(13)
H23 H -0.7478 -0.4476 -0.7279
C36 C -0.8126(2) -0.15538(18) -0.70111(14)
H24 H -0.8451 -0.1638 -0.6711
C37 C -0.5089(2) -0.2674(2) -0.36586(13)
H25 H -0.4496 -0.2629 -0.3687
C38 C -0.5315(2) -0.2882(2) -0.30928(14)
H26 H -0.5856 -0.3089 -0.3084
H27 H -0.4929 -0.3223 -0.2950
C39 C -0.5292(3) -0.2209(2) -0.27747(15)
H28 H -0.4815 -0.2198 -0.2544
H29 H -0.5775 -0.2167 -0.2551
C40 C -0.5260(2) -0.1618(2) -0.31814(15)
H30 H -0.5650 -0.1249 -0.3092
H31 H -0.4719 -0.1411 -0.3196
C41 C -0.5473(2) -0.1962(2) -0.37067(14)
H32 H -0.6065 -0.2015 -0.3733
C42 C -0.21764(19) -0.49763(19) -0.62270(14)
H33 H -0.1950 -0.4664 -0.5949
C43 C -0.1527(2) -0.5471(2) -0.64178(17)
H34 H -0.1002 -0.5234 -0.6427
H35 H -0.1651 -0.5646 -0.6776
C44 C -0.1520(3) -0.6069(3) -0.6014(2)
H36 H -0.1547 -0.6524 -0.6196
H37 H -0.1028 -0.6054 -0.5798
C45 C -0.2257(2) -0.5960(2) -0.56692(16)
H38 H -0.2535 -0.6406 -0.5607
H39 H -0.2105 -0.5758 -0.5324
C46 C -0.27892(19) -0.54607(18) -0.59758(14)
H40 H -0.3090 -0.5717 -0.6256
C47 C -0.4793(2) -0.33833(18) -0.89695(13)
H41 H -0.4897 -0.3866 -0.8842
C48 C -0.4399(2) -0.3410(2) -0.95109(14)
H42 H -0.3973 -0.3766 -0.9520
H43 H -0.4166 -0.2954 -0.9604
C49 C -0.5078(2) -0.3600(2) -0.98891(13)
H44 H -0.5061 -0.4101 -0.9978
H45 H -0.5039 -0.3328 -1.0219
C50 C -0.5858(2) -0.3419(2) -0.95869(13)
H46 H -0.6212 -0.3128 -0.9808
H47 H -0.6149 -0.3847 -0.9487
C51 C -0.5591(2) -0.30233(19) -0.90965(12)
H48 H -0.5508 -0.2520 -0.9177
C52 C -0.8250(2) -0.4893(2) -0.65210(14)
H49 H -0.7867 -0.5204 -0.6710
C53 C -0.9104(3) -0.5196(3) -0.65585(19)
H50 H -0.9491 -0.4825 -0.6647
H51 H -0.9129 -0.5557 -0.6836
C54 C -0.9296(2) -0.5508(2) -0.60210(17)
H52 H -0.9523 -0.5980 -0.6060
H53 H -0.9683 -0.5214 -0.5828
C55 C -0.8493(2) -0.5535(2) -0.57266(15)
H54 H -0.8572 -0.5512 -0.5340
H55 H -0.8194 -0.5963 -0.5814
C56 C -0.8063(2) -0.4891(2) -0.59310(14)
H56 H -0.8295 -0.4466 -0.5764
C57 C -0.2183(2) -0.05161(19) -0.67346(14)
H57 H -0.2496 -0.0249 -0.7003
C58 C -0.2426(2) -0.02881(19) -0.61827(14)
H58 H -0.2190 -0.0615 -0.5919
C59 C -0.2038(2) 0.0423(2) -0.61210(16)
H59 H -0.1897 0.0509 -0.5747
H60 H -0.2405 0.0793 -0.6241
C60 C -0.1282(2) 0.0406(2) -0.64655(19)
H61 H -0.0797 0.0442 -0.6244
H62 H -0.1284 0.0795 -0.6721
C61 C -0.1305(2) -0.0298(2) -0.67562(16)
H63 H -0.1123 -0.0247 -0.7126
H64 H -0.0962 -0.0644 -0.6577
C62 C -0.8284(2) -0.04006(18) -0.67764(15)
H65 H -0.8574 -0.0617 -0.6473
C63 C -0.8831(2) 0.0109(2) -0.70679(17)
H66 H -0.8646 0.0177 -0.7436
H67 H -0.9386 -0.0066 -0.7075
C64 C -0.8783(3) 0.0786(2) -0.6762(2)
H68 H -0.9285 0.0868 -0.6566
H69 H -0.8693 0.1180 -0.7005
C65 C -0.8081(2) 0.07147(19) -0.63779(17)
H70 H -0.7739 0.1134 -0.6387
H71 H -0.8274 0.0643 -0.6013
C66 C -0.7622(2) 0.00786(17) -0.65733(15)
H72 H -0.7265 0.0215 -0.6872
C67 C -0.8268(3) -0.2600(2) -0.4645(2)
C68 C -0.8537(3) -0.2641(3) -0.5149(2)
H73 H -0.9095 -0.2657 -0.5216
C69 C -0.8009(3) -0.2661(4) -0.5565(2)
H74 H -0.8216 -0.2701 -0.5913
C70 C -0.7182(3) -0.2626(3) -0.5497(2)
C71 C -0.6913(3) -0.2601(2) -0.4984(2)
H75 H -0.6356 -0.2585 -0.4917
C72 C -0.7439(3) -0.2600(3) -0.4565(2)
H76 H -0.7235 -0.2601 -0.4215
C73 C -0.8839(4) -0.2591(4) -0.4183(3)
H77 H -0.8676 -0.2942 -0.3924
H78 H -0.9380 -0.2693 -0.4307
H79 H -0.8831 -0.2131 -0.4017
C74 C -0.6610(4) -0.2629(5) -0.5948(3)
H80 H -0.6743 -0.2251 -0.6192
H81 H -0.6645 -0.3075 -0.6133
H82 H -0.6066 -0.2563 -0.5814
C75 C -0.5209(3) -0.0985(5) -0.7364(3)
C76 C -0.5671(5) -0.0609(5) -0.7740(4)
H83 H -0.6137 -0.0830 -0.7872
C77 C -0.5507(4) 0.0034(5) -0.7927(3)
H84 H -0.5853 0.0250 -0.8174
C78 C -0.4841(3) 0.0365(5) -0.7756(2)
C79 C -0.4362(3) 0.0040(5) -0.7386(2)
H85 H -0.3909 0.0278 -0.7252
C80 C -0.4529(3) -0.0624(5) -0.7205(2)
H86 H -0.4169 -0.0840 -0.6967
C81 C -0.5392(6) -0.1703(7) -0.7158(5)
H87 H -0.5243 -0.2049 -0.7423
H88 H -0.5964 -0.1740 -0.7082
H89 H -0.5087 -0.1786 -0.6833
C82 C -0.4650(4) 0.1055(6) -0.7965(4)
H90 H -0.4963 0.1139 -0.8285
H91 H -0.4080 0.1078 -0.8049
H92 H -0.4780 0.1408 -0.7700
C83 C -0.4067(3) -0.7462(2) -0.38669(18)
C84 C -0.4884(3) -0.7457(2) -0.37703(16)
H93 H -0.5091 -0.7677 -0.3464
C85 C -0.5398(2) -0.7130(3) -0.41220(19)
H94 H -0.5956 -0.7127 -0.4056
C86 C -0.5095(3) -0.6808(2) -0.45702(17)
C87 C -0.4278(3) -0.6813(2) -0.46668(17)
H95 H -0.4071 -0.6593 -0.4973
C88 C -0.3764(3) -0.7140(3) -0.4315(2)
H96 H -0.3206 -0.7144 -0.4381
C89 C -0.5722(7) -0.6478(4) -0.4911(4)
H97 H -0.6245 -0.6525 -0.4742
H98 H -0.5732 -0.6709 -0.5256
H99 H -0.5598 -0.5984 -0.4959
C90 C -0.3451(7) -0.7793(4) -0.3524(4)
H100 H -0.3714 -0.8046 -0.3237
H101 H -0.3103 -0.7433 -0.3375
H102 H -0.3131 -0.8117 -0.3734
C91? C -0.6283(4) -0.7099(5) -0.4049(5)
H103? H -0.6503 -0.6722 -0.4265
H104? H -0.6406 -0.7014 -0.3677
H105? H -0.6521 -0.7542 -0.4159
C92? C -0.2869(4) -0.7196(6) -0.4358(6)
H106? H -0.2654 -0.7400 -0.4033
H107? H -0.2640 -0.6732 -0.4409
H108? H -0.2730 -0.7492 -0.4659
H109? H -0.5446 -0.6584 -0.4811
H110? H -0.3716 -0.7686 -0.3627
loop_
_geom_bond_atom_site_label_1
_geom_bond_atom_site_label_2
_geom_bond_site_symmetry_1
_geom_bond_site_symmetry_2
N1 C8 1_555 1_555
N2 C27 1_555 1_555
N3 C7 1_555 1_555
N4 C36 1_555 1_555
N5 C9 1_555 1_555
N6 C16 1_555 1_555
N7 C26 1_555 1_555
N8 C17 1_555 1_555
N9 C34 1_555 1_555
N10 C18 1_555 1_555
N11 C35 1_555 1_555
N12 C25 1_555 1_555
C1 C2 1_555 1_555
C2 H1 1_555 1_555
C3 C2 1_555 1_555
C4 C3 1_555 1_555
H2 C4 1_555 1_555
C5 C4 1_555 1_555
C6 C1 1_555 1_555
H3 C6 1_555 1_555
C7 C1 1_555 1_555
H4 C7 1_555 1_555
C8 C3 1_555 1_555
H5 C8 1_555 1_555
C9 C5 1_555 1_555
H6 C9 1_555 1_555
C10 C11 1_555 1_555
C11 H7 1_555 1_555
C12 C11 1_555 1_555
C13 C12 1_555 1_555
H8 C13 1_555 1_555
C14 C13 1_555 1_555
C15 C10 1_555 1_555
H9 C15 1_555 1_555
C16 C10 1_555 1_555
H10 C16 1_555 1_555
C17 C12 1_555 1_555
H11 C17 1_555 1_555
C18 C14 1_555 1_555
H12 C18 1_555 1_555
C19 C20 1_555 1_555
C20 H13 1_555 1_555
C21 C20 1_555 1_555
C22 C21 1_555 1_555
H14 C22 1_555 1_555
C23 C22 1_555 1_555
C24 C19 1_555 1_555
H15 C24 1_555 1_555
C25 C19 1_555 1_555
H16 C25 1_555 1_555
C26 C21 1_555 1_555
H17 C26 1_555 1_555
C27 C23 1_555 1_555
H18 C27 1_555 1_555
C28 C29 1_555 1_555
C29 H19 1_555 1_555
C30 C29 1_555 1_555
C31 C30 1_555 1_555
H20 C31 1_555 1_555
C32 C31 1_555 1_555
C33 C28 1_555 1_555
H21 C33 1_555 1_555
C34 C28 1_555 1_555
H22 C34 1_555 1_555
C35 C30 1_555 1_555
H23 C35 1_555 1_555
C36 C32 1_555 1_555
H24 C36 1_555 1_555
C37 N2 1_555 1_555
H25 C37 1_555 1_555
C38 C37 1_555 1_555
H26 C38 1_555 1_555
H27 C38 1_555 1_555
C39 C38 1_555 1_555
H28 C39 1_555 1_555
H29 C39 1_555 1_555
C40 C39 1_555 1_555
H30 C40 1_555 1_555
H31 C40 1_555 1_555
C41 N1 1_555 1_555
H32 C41 1_555 1_555
C42 N8 1_555 1_555
H33 C42 1_555 1_555
C43 C42 1_555 1_555
H34 C43 1_555 1_555
H35 C43 1_555 1_555
C44 C43 1_555 1_555
H36 C44 1_555 1_555
H37 C44 1_555 1_555
C45 C44 1_555 1_555
H38 C45 1_555 1_555
H39 C45 1_555 1_555
C46 N7 1_555 1_555
H40 C46 1_555 1_555
C47 N10 1_555 1_555
H41 C47 1_555 1_555
C48 C47 1_555 1_555
H42 C48 1_555 1_555
H43 C48 1_555 1_555
C49 C48 1_555 1_555
H44 C49 1_555 1_555
H45 C49 1_555 1_555
C50 C49 1_555 1_555
H46 C50 1_555 1_555
H47 C50 1_555 1_555
C51 N9 1_555 1_555
H48 C51 1_555 1_555
C52 N11 1_555 1_555
H49 C52 1_555 1_555
C53 C52 1_555 1_555
H50 C53 1_555 1_555
H51 C53 1_555 1_555
C54 C53 1_555 1_555
H52 C54 1_555 1_555
H53 C54 1_555 1_555
C55 C54 1_555 1_555
H54 C55 1_555 1_555
H55 C55 1_555 1_555
C56 N12 1_555 1_555
H56 C56 1_555 1_555
C57 N6 1_555 1_555
H57 C57 1_555 1_555
C58 N5 1_555 1_555
H58 C58 1_555 1_555
C59 C58 1_555 1_555
H59 C59 1_555 1_555
H60 C59 1_555 1_555
C60 C59 1_555 1_555
H61 C60 1_555 1_555
H62 C60 1_555 1_555
C61 C57 1_555 1_555
H63 C61 1_555 1_555
H64 C61 1_555 1_555
C62 N4 1_555 1_555
H65 C62 1_555 1_555
C63 C62 1_555 1_555
H66 C63 1_555 1_555
H67 C63 1_555 1_555
C64 C63 1_555 1_555
H68 C64 1_555 1_555
H69 C64 1_555 1_555
C65 C64 1_555 1_555
H70 C65 1_555 1_555
H71 C65 1_555 1_555
C66 N3 1_555 1_555
H72 C66 1_555 1_555
C67 C68 1_555 1_555
C68 H73 1_555 1_555
C69 C68 1_555 1_555
H74 C69 1_555 1_555
C70 C69 1_555 1_555
C71 C70 1_555 1_555
H75 C71 1_555 1_555
C72 C67 1_555 1_555
H76 C72 1_555 1_555
C73 C67 1_555 1_555
H77 C73 1_555 1_555
H78 C73 1_555 1_555
H79 C73 1_555 1_555
C74 C70 1_555 1_555
H80 C74 1_555 1_555
H81 C74 1_555 1_555
H82 C74 1_555 1_555
C75 C76 1_555 1_555
C76 H83 1_555 1_555
C77 C76 1_555 1_555
H84 C77 1_555 1_555
C78 C77 1_555 1_555
C79 C78 1_555 1_555
H85 C79 1_555 1_555
C80 C75 1_555 1_555
H86 C80 1_555 1_555
C81 C75 1_555 1_555
H87 C81 1_555 1_555
H88 C81 1_555 1_555
H89 C81 1_555 1_555
C82 C78 1_555 1_555
H90 C82 1_555 1_555
H91 C82 1_555 1_555
H92 C82 1_555 1_555
C83 C84 1_555 1_555
C84 H93 1_555 1_555
C85 C84 1_555 1_555
H94 C85 1_555 1_555
C86 C85 1_555 1_555
C87 C86 1_555 1_555
H95 C87 1_555 1_555
C88 C83 1_555 1_555
H96 C88 1_555 1_555
C89 C86 1_555 1_555
H97 C89 1_555 1_555
H98 C89 1_555 1_555
H99 C89 1_555 1_555
C90 C83 1_555 1_555
H100 C90 1_555 1_555
H101 C90 1_555 1_555
H102 C90 1_555 1_555
C5 C6 1_555 1_555
C14 C15 1_555 1_555
C23 C24 1_555 1_555
C32 C33 1_555 1_555
C37 C41 1_555 1_555
C40 C41 1_555 1_555
C42 C46 1_555 1_555
C45 C46 1_555 1_555
C47 C51 1_555 1_555
C50 C51 1_555 1_555
C52 C56 1_555 1_555
C55 C56 1_555 1_555
C57 C58 1_555 1_555
C60 C61 1_555 1_555
C62 C66 1_555 1_555
C65 C66 1_555 1_555
C71 C72 1_555 1_555
C79 C80 1_555 1_555
C87 C88 1_555 1_555

#END
