
#######################################################################
#
#                 Cambridge Crystallographic Data Centre
#                                CCDC 
#
#######################################################################
#
# If this CIF has been generated from an entry in the Cambridge 
# Structural Database, then it will include bibliographic, chemical, 
# crystal, experimental, refinement or atomic coordinate data resulting 
# from the CCDC's data processing and validation procedures.
#
#######################################################################

data_NOETNA02
_chemical_formula_moiety         'C4 H4 N8 O14'
_chemical_name_systematic        bis(2,2,2-Trinitroethyl)-nitroamine
_symmetry_cell_setting           monoclinic
_symmetry_space_group_name_H-M   'P 21/n'
_symmetry_Int_Tables_number      14
_space_group_name_Hall           '-P 2yn'
loop_
_symmetry_equiv_pos_site_id
_symmetry_equiv_pos_as_xyz
1 x,y,z
2 1/2-x,1/2+y,1/2-z
3 -x,-y,-z
4 1/2+x,1/2-y,1/2+z
_cell_length_a                   11.820
_cell_length_b                   6.162
_cell_length_c                   18.229
_cell_angle_alpha                90
_cell_angle_beta                 96.1
_cell_angle_gamma                90
_cell_volume                     1320.19
_exptl_crystal_colour            colorless
_cell_formula_units_Z            4
loop_
_atom_site_label
_atom_site_type_symbol
_atom_site_fract_x
_atom_site_fract_y
_atom_site_fract_z
C1 C -0.00790 0.63330 0.33050
C2 C 0.10940 0.65890 0.37210
C3 C 0.00550 0.57420 0.19160
C4 C -0.10070 0.62150 0.13740
N1 N 0.19650 0.78850 0.33090
N2 N 0.17290 0.45210 0.39680
N3 N 0.09560 0.79480 0.44300
N4 N -0.19080 0.76610 0.16620
N5 N -0.16270 0.42400 0.10560
N6 N -0.05790 0.74850 0.07090
N7 N -0.01340 0.49810 0.26530
N8 N -0.03240 0.27940 0.27460
O1 O 0.15630 0.91420 0.28440
O2 O 0.29690 0.74930 0.34980
O3 O 0.19800 0.34240 0.34550
O4 O 0.19390 0.41890 0.46190
O5 O 0.16120 0.94270 0.45650
O6 O 0.02080 0.73490 0.47680
O7 O -0.20910 0.73500 0.22920
O8 O -0.24070 0.89550 0.12270
O9 O -0.26080 0.39820 0.11690
O10 O -0.10310 0.30420 0.07150
O11 O -0.11030 0.71160 0.01140
O12 O 0.02220 0.86760 0.08610
O13 O -0.03530 0.21200 0.33780
O14 O -0.04460 0.16930 0.21820
H1 H -0.05900 0.71250 0.31600
H2 H -0.06740 0.55830 0.36400
H3 H 0.05000 0.69580 0.19830
H4 H 0.06660 0.50420 0.19490
loop_
_geom_bond_atom_site_label_1
_geom_bond_atom_site_label_2
_geom_bond_site_symmetry_1
_geom_bond_site_symmetry_2
C1 C2 1_555 1_555
C2 N1 1_555 1_555
C3 C4 1_555 1_555
C4 N4 1_555 1_555
N1 O1 1_555 1_555
N2 C2 1_555 1_555
N3 C2 1_555 1_555
N4 O7 1_555 1_555
N5 C4 1_555 1_555
N6 C4 1_555 1_555
N7 C1 1_555 1_555
N8 N7 1_555 1_555
O2 N1 1_555 1_555
O3 N2 1_555 1_555
O4 N2 1_555 1_555
O5 N3 1_555 1_555
O6 N3 1_555 1_555
O8 N4 1_555 1_555
O9 N5 1_555 1_555
O10 N5 1_555 1_555
O11 N6 1_555 1_555
O12 N6 1_555 1_555
O13 N8 1_555 1_555
O14 N8 1_555 1_555
H1 C1 1_555 1_555
H2 C1 1_555 1_555
H3 C3 1_555 1_555
H4 C3 1_555 1_555
C3 N7 1_555 1_555

#END
