
#######################################################################
#
#                 Cambridge Crystallographic Data Centre
#                                CCDC 
#
#######################################################################
#
# If this CIF has been generated from an entry in the Cambridge 
# Structural Database, then it will include bibliographic, chemical, 
# crystal, experimental, refinement or atomic coordinate data resulting 
# from the CCDC's data processing and validation procedures.
#
#######################################################################

data_NOFCAN01
_chemical_formula_moiety         'C11 H15 Br2 N1 O3'
_chemical_name_systematic        
N-(4,7-dibromo-2,2-dimethyl-3a,4,5,7a-tetrahydro-2H-1,3-benzodioxol-5-yl)acetamide
_symmetry_cell_setting           monoclinic
_symmetry_space_group_name_H-M   'P 21'
_symmetry_Int_Tables_number      4
_space_group_name_Hall           'P 2yb'
loop_
_symmetry_equiv_pos_site_id
_symmetry_equiv_pos_as_xyz
1 x,y,z
2 -x,1/2+y,-z
_cell_length_a                   5.0336(3)
_cell_length_b                   17.7799(12)
_cell_length_c                   7.6856(5)
_cell_angle_alpha                90
_cell_angle_beta                 94.134(5)
_cell_angle_gamma                90
_cell_volume                     686.048
_exptl_crystal_colour            colorless
_exptl_crystal_description       block
_cell_formula_units_Z            2
loop_
_atom_site_label
_atom_site_type_symbol
_atom_site_fract_x
_atom_site_fract_y
_atom_site_fract_z
C1 C 0.2573(13) 0.5892(4) 0.4338(8)
H1 H 0.1926 0.6379 0.4431
C2 C 0.4347(11) 0.5703(4) 0.2874(7)
H2 H 0.6207 0.5783 0.3302
C3 C 0.3952(13) 0.4873(3) 0.2457(7)
H3 H 0.2073 0.4785 0.2088
C4 C 0.4708(13) 0.4394(3) 0.4053(8)
H4 H 0.6615 0.4448 0.4385
C5 C 0.3074(11) 0.4614(4) 0.5609(7)
H5 H 0.4166 0.4558 0.6710
C6 C 0.1935(13) 0.5380(4) 0.5476(8)
O1 O 0.4086(9) 0.3630(3) 0.3763(6)
C7 C 0.2195(13) 0.3391(4) 0.4940(10)
O2 O 0.0990(9) 0.4062(3) 0.5498(6)
C8 C 0.0114(15) 0.2928(5) 0.3915(15)
H6 H -0.0673 0.3222 0.2965
H7 H -0.1240 0.2780 0.4663
H8 H 0.0931 0.2488 0.3464
C9 C 0.361(2) 0.2973(5) 0.6435(12)
H9 H 0.4456 0.2535 0.6001
H10 H 0.2342 0.2824 0.7245
H11 H 0.4926 0.3295 0.7013
Br1 Br -0.03570(12) 0.56275(4) 0.72631(8)
Br2 Br 0.61455(14) 0.45621(4) 0.05734(8)
N1 N 0.3740(10) 0.6196(3) 0.1405(6)
H12 H 0.2100 0.6261 0.1042
C10 C 0.5641(13) 0.6560(4) 0.0577(8)
O3 O 0.8037(8) 0.6477(3) 0.0982(6)
C11 C 0.4634(14) 0.7069(4) -0.0863(9)
H13 H 0.4836 0.6829 -0.1965
H14 H 0.5631 0.7529 -0.0804
H15 H 0.2785 0.7176 -0.0750
loop_
_geom_bond_atom_site_label_1
_geom_bond_atom_site_label_2
_geom_bond_site_symmetry_1
_geom_bond_site_symmetry_2
C1 H1 1_555 1_555
C2 C1 1_555 1_555
H2 C2 1_555 1_555
C3 C2 1_555 1_555
H3 C3 1_555 1_555
C4 C3 1_555 1_555
H4 C4 1_555 1_555
C5 C4 1_555 1_555
H5 C5 1_555 1_555
C6 C1 1_555 1_555
O1 C4 1_555 1_555
C7 O1 1_555 1_555
O2 C5 1_555 1_555
C8 C7 1_555 1_555
H6 C8 1_555 1_555
H7 C8 1_555 1_555
H8 C8 1_555 1_555
C9 C7 1_555 1_555
H9 C9 1_555 1_555
H10 C9 1_555 1_555
H11 C9 1_555 1_555
Br1 C6 1_555 1_555
Br2 C3 1_555 1_555
N1 C2 1_555 1_555
H12 N1 1_555 1_555
C10 N1 1_555 1_555
O3 C10 1_555 1_555
C11 C10 1_555 1_555
H13 C11 1_555 1_555
H14 C11 1_555 1_555
H15 C11 1_555 1_555
C5 C6 1_555 1_555
C7 O2 1_555 1_555

#END
