
#######################################################################
#
#                 Cambridge Crystallographic Data Centre
#                                CCDC 
#
#######################################################################
#
# If this CIF has been generated from an entry in the Cambridge 
# Structural Database, then it will include bibliographic, chemical, 
# crystal, experimental, refinement or atomic coordinate data resulting 
# from the CCDC's data processing and validation procedures.
#
#######################################################################

data_NOFFOF
_chemical_formula_moiety         'C29 H35 N3 O4'
_chemical_name_systematic        
N,N'-diethyl-N,N'-bis(2-propoxyphenyl)pyridine-2,6-dicarboxamide
_symmetry_cell_setting           orthorhombic
_symmetry_space_group_name_H-M   'F d d 2'
_symmetry_Int_Tables_number      43
_space_group_name_Hall           'F 2 -2d'
loop_
_symmetry_equiv_pos_site_id
_symmetry_equiv_pos_as_xyz
1 x,y,z
2 -x,-y,z
3 1/4+x,1/4-y,1/4+z
4 1/4-x,1/4+y,1/4+z
5 x,1/2+y,1/2+z
6 -x,1/2-y,1/2+z
7 1/4+x,3/4-y,3/4+z
8 1/4-x,3/4+y,3/4+z
9 1/2+x,y,1/2+z
10 1/2-x,-y,1/2+z
11 3/4+x,1/4-y,3/4+z
12 3/4-x,1/4+y,3/4+z
13 1/2+x,1/2+y,z
14 1/2-x,1/2-y,z
15 3/4+x,3/4-y,1/4+z
16 3/4-x,3/4+y,1/4+z
_cell_length_a                   14.033(3)
_cell_length_b                   38.450(8)
_cell_length_c                   10.289(2)
_cell_angle_alpha                90
_cell_angle_beta                 90
_cell_angle_gamma                90
_cell_volume                     5551.62
_exptl_crystal_colour            colorless
_exptl_crystal_description       prism
_cell_formula_units_Z            8
loop_
_atom_site_label
_atom_site_type_symbol
_atom_site_fract_x
_atom_site_fract_y
_atom_site_fract_z
C1 C 0.5000 0.0000 0.7236(3)
H1 H 0.5000 0.0000 0.8140
C2 C 0.46163(14) 0.02738(7) 0.6557(2)
H2 H 0.4350 0.0462 0.6994
C3 C 0.46325(11) 0.02654(5) 0.52125(19)
C4 C 0.42947(13) 0.05703(5) 0.44096(19)
C5 C 0.30176(16) 0.09616(5) 0.3754(2)
H3 H 0.3534 0.1127 0.3648
H4 H 0.2515 0.1075 0.4244
C6 C 0.2644(3) 0.08623(8) 0.2444(3)
H5 H 0.3131 0.0742 0.1968
H6 H 0.2460 0.1068 0.1979
H7 H 0.2100 0.0713 0.2546
C7 C 0.26749(12) 0.04500(5) 0.51547(19)
C8 C 0.23682(15) 0.01383(5) 0.4629(2)
H8 H 0.2622 0.0062 0.3845
C9 C 0.16902(16) -0.00598(6) 0.5256(3)
H9 H 0.1493 -0.0271 0.4903
C10 C 0.13090(14) 0.00558(6) 0.6402(3)
H10 H 0.0852 -0.0078 0.6823
C11 C 0.15913(13) 0.03691(5) 0.6947(2)
H11 H 0.1320 0.0446 0.7720
C12 C 0.22867(12) 0.05676(5) 0.63246(19)
C13 C 0.22859(16) 0.10112(7) 0.7983(2)
H12 H 0.2451 0.0857 0.8693
H13 H 0.1598 0.1035 0.7953
C14 C 0.27445(17) 0.13603(7) 0.8171(3)
H14 H 0.3431 0.1331 0.8167
H15 H 0.2564 0.1450 0.9017
C15 C 0.2474(2) 0.16241(7) 0.7143(4)
H16 H 0.2663 0.1540 0.6303
H17 H 0.2792 0.1840 0.7318
H18 H 0.1797 0.1660 0.7156
N1 N 0.5000 0.0000 0.4540(2)
N2 N 0.33665(10) 0.06588(4) 0.44935(16)
O1 O 0.48614(11) 0.07300(4) 0.37323(19)
O2 O 0.26373(9) 0.08750(4) 0.67728(14)
C2A C 0.53837(14) -0.02738(7) 0.6557(2)
H2A H 0.5650 -0.0462 0.6994
C3A C 0.53675(11) -0.02654(5) 0.52125(19)
C4A C 0.57053(13) -0.05703(5) 0.44096(19)
C5A C 0.69824(16) -0.09616(5) 0.3754(2)
H3A H 0.6466 -0.1127 0.3648
H4A H 0.7485 -0.1075 0.4244
C6A C 0.7356(3) -0.08623(8) 0.2444(3)
H5A H 0.6869 -0.0742 0.1968
H6A H 0.7540 -0.1068 0.1979
H7A H 0.7900 -0.0713 0.2546
C7A C 0.73251(12) -0.04500(5) 0.51547(19)
C8A C 0.76318(15) -0.01383(5) 0.4629(2)
H8A H 0.7378 -0.0062 0.3845
C9A C 0.83098(16) 0.00598(6) 0.5256(3)
H9A H 0.8507 0.0271 0.4903
C10A C 0.86910(14) -0.00558(6) 0.6402(3)
H10A H 0.9148 0.0078 0.6823
C11A C 0.84087(13) -0.03691(5) 0.6947(2)
H11A H 0.8680 -0.0446 0.7720
C12A C 0.77133(12) -0.05676(5) 0.63246(19)
C13A C 0.77141(16) -0.10112(7) 0.7983(2)
H12A H 0.7549 -0.0857 0.8693
H13A H 0.8402 -0.1035 0.7953
C14A C 0.72555(17) -0.13603(7) 0.8171(3)
H14A H 0.6569 -0.1331 0.8167
H15A H 0.7436 -0.1450 0.9017
C15A C 0.7526(2) -0.16241(7) 0.7143(4)
H16A H 0.7337 -0.1540 0.6303
H17A H 0.7208 -0.1840 0.7318
H18A H 0.8203 -0.1660 0.7156
N2A N 0.66335(10) -0.06588(4) 0.44935(16)
O1A O 0.51386(11) -0.07300(4) 0.37323(19)
O2A O 0.73627(9) -0.08750(4) 0.67728(14)
loop_
_geom_bond_atom_site_label_1
_geom_bond_atom_site_label_2
_geom_bond_site_symmetry_1
_geom_bond_site_symmetry_2
C1 H1 1_555 1_555
C2 C1 1_555 1_555
H2 C2 1_555 1_555
C3 C2 1_555 1_555
C4 C3 1_555 1_555
C5 H3 1_555 1_555
H4 C5 1_555 1_555
C6 C5 1_555 1_555
H5 C6 1_555 1_555
H6 C6 1_555 1_555
H7 C6 1_555 1_555
C7 C8 1_555 1_555
C8 H8 1_555 1_555
C9 C8 1_555 1_555
H9 C9 1_555 1_555
C10 C9 1_555 1_555
H10 C10 1_555 1_555
C11 C10 1_555 1_555
H11 C11 1_555 1_555
C12 C7 1_555 1_555
C13 H12 1_555 1_555
H13 C13 1_555 1_555
C14 C13 1_555 1_555
H14 C14 1_555 1_555
H15 C14 1_555 1_555
C15 C14 1_555 1_555
H16 C15 1_555 1_555
H17 C15 1_555 1_555
H18 C15 1_555 1_555
N1 C3 1_555 1_555
N2 C4 1_555 1_555
O1 C4 1_555 1_555
O2 C12 1_555 1_555
C2A C1 1_555 1_555
H2A C2A 1_555 1_555
C3A N1 1_555 1_555
C4A C3A 1_555 1_555
C5A H3A 1_555 1_555
H4A C5A 1_555 1_555
C6A C5A 1_555 1_555
H5A C6A 1_555 1_555
H6A C6A 1_555 1_555
H7A C6A 1_555 1_555
C7A C8A 1_555 1_555
C8A H8A 1_555 1_555
C9A C8A 1_555 1_555
H9A C9A 1_555 1_555
C10A C9A 1_555 1_555
H10A C10A 1_555 1_555
C11A C10A 1_555 1_555
H11A C11A 1_555 1_555
C12A C7A 1_555 1_555
C13A H12A 1_555 1_555
H13A C13A 1_555 1_555
C14A C13A 1_555 1_555
H14A C14A 1_555 1_555
H15A C14A 1_555 1_555
C15A C14A 1_555 1_555
H16A C15A 1_555 1_555
H17A C15A 1_555 1_555
H18A C15A 1_555 1_555
N2A C4A 1_555 1_555
O1A C4A 1_555 1_555
O2A C12A 1_555 1_555
C5 N2 1_555 1_555
C7 N2 1_555 1_555
C11 C12 1_555 1_555
C13 O2 1_555 1_555
C2A C3A 1_555 1_555
C5A N2A 1_555 1_555
C7A N2A 1_555 1_555
C11A C12A 1_555 1_555
C13A O2A 1_555 1_555

#END
