
#######################################################################
#
#                 Cambridge Crystallographic Data Centre
#                                CCDC 
#
#######################################################################
#
# If this CIF has been generated from an entry in the Cambridge 
# Structural Database, then it will include bibliographic, chemical, 
# crystal, experimental, refinement or atomic coordinate data resulting 
# from the CCDC's data processing and validation procedures.
#
#######################################################################

data_NOFHIB
_chemical_formula_moiety         'C44 H58 N4 O12'
_chemical_name_systematic        
"1,1',8,8'-tetra-t-butyl 2,2'-dimethyl 2,2',3,3'-tetrahydro-1H,1'H-3a,3a'-bipyrrolo[2,3-b]indole-1,1',2,2',8,8'(8aH,8a'H)-hexacarboxylate"
_symmetry_cell_setting           monoclinic
_symmetry_space_group_name_H-M   'P 21'
_symmetry_Int_Tables_number      4
_space_group_name_Hall           'P 2yb'
loop_
_symmetry_equiv_pos_site_id
_symmetry_equiv_pos_as_xyz
1 x,y,z
2 -x,1/2+y,-z
_cell_length_a                   10.149(4)
_cell_length_b                   18.344(7)
_cell_length_c                   12.771(5)
_cell_angle_alpha                90
_cell_angle_beta                 100.893(3)
_cell_angle_gamma                90
_cell_volume                     2334.78
_exptl_crystal_colour            colorless
_exptl_crystal_description       block
_cell_formula_units_Z            2
loop_
_atom_site_label
_atom_site_type_symbol
_atom_site_fract_x
_atom_site_fract_y
_atom_site_fract_z
C1 C 0.4747(3) 0.23272(13) 0.6828(2)
H1 H 0.5443 0.2086 0.6515
C2 C 0.5375(3) 0.28383(14) 0.7725(2)
H2 H 0.6234 0.2652 0.8091
H3 H 0.4790 0.2898 0.8238
C3 C 0.5552(2) 0.35631(13) 0.7170(2)
C4 C 0.4362(3) 0.35883(14) 0.62071(18)
H4 H 0.3627 0.3897 0.6347
C5 C 0.6732(3) 0.35278(14) 0.6605(2)
C6 C 0.8030(3) 0.33049(17) 0.6976(3)
H5 H 0.8298 0.3160 0.7682
C7 C 0.8927(3) 0.3298(2) 0.6295(3)
H6 H 0.9808 0.3149 0.6542
C8 C 0.8535(4) 0.35072(19) 0.5260(4)
H7 H 0.9164 0.3514 0.4816
C9 C 0.7219(3) 0.37118(16) 0.4849(3)
H8 H 0.6951 0.3841 0.4137
C10 C 0.6333(3) 0.37155(14) 0.5534(2)
C11 C 0.3029(3) 0.26090(16) 0.5218(2)
C12 C 0.1946(3) 0.14963(16) 0.4420(2)
C13 C 0.2261(4) 0.07148(17) 0.4704(3)
H9 H 0.3150 0.0603 0.4598
H10 H 0.1627 0.0406 0.4258
H11 H 0.2207 0.0635 0.5438
C14 C 0.0607(3) 0.1720(2) 0.4655(3)
H12 H 0.0627 0.1685 0.5408
H13 H -0.0078 0.1403 0.4282
H14 H 0.0416 0.2213 0.4425
C15 C 0.2079(4) 0.1649(2) 0.3285(3)
H15 H 0.1846 0.2147 0.3114
H16 H 0.1488 0.1333 0.2813
H17 H 0.2988 0.1562 0.3206
C16 C 0.3887(3) 0.17712(15) 0.7256(2)
C17 C 0.3963(5) 0.05819(18) 0.7984(3)
H18 H 0.3894 0.0717 0.8699
H19 H 0.4492 0.0147 0.8001
H20 H 0.3082 0.0494 0.7575
C18 C 0.2249(3) 0.50009(17) 0.3988(2)
C19 C 0.2797(4) 0.57542(17) 0.3930(3)
H21 H 0.3029 0.5954 0.4636
H22 H 0.2132 0.6057 0.3504
H23 H 0.3583 0.5735 0.3614
C20 C 0.1983(4) 0.4619(2) 0.2918(3)
H24 H 0.2793 0.4606 0.2634
H25 H 0.1303 0.4879 0.2436
H26 H 0.1682 0.4131 0.3006
C21 C 0.1019(4) 0.5001(2) 0.4476(3)
H27 H 0.0755 0.4507 0.4578
H28 H 0.0305 0.5248 0.4011
H29 H 0.1208 0.5246 0.5152
C22 C 0.4344(3) 0.43470(15) 0.4558(2)
C23 C 0.4822(3) 0.54909(13) 0.8025(2)
H30 H 0.5531 0.5722 0.8548
C24 C 0.5420(3) 0.49682(14) 0.7306(2)
H31 H 0.6286 0.5141 0.7195
H32 H 0.4827 0.4917 0.6619
C25 C 0.5562(2) 0.42422(13) 0.7913(2)
C26 C 0.4369(2) 0.42363(12) 0.85092(19)
H33 H 0.3618 0.3941 0.8139
C27 C 0.6731(2) 0.42610(13) 0.8848(2)
C28 C 0.8047(3) 0.44639(15) 0.8879(3)
H34 H 0.8330 0.4606 0.8259
C29 C 0.8930(3) 0.44547(18) 0.9830(3)
H35 H 0.9822 0.4582 0.9854
C30 C 0.8509(3) 0.42595(18) 1.0748(3)
H36 H 0.9129 0.4248 1.1385
C31 C 0.7189(3) 0.40796(15) 1.0757(2)
H37 H 0.6903 0.3960 1.1385
C32 C 0.6319(2) 0.40871(13) 0.9787(2)
C33 C 0.3108(3) 0.52336(15) 0.9132(2)
C34 C 0.2152(3) 0.63713(15) 0.9639(2)
C35 C 0.2616(4) 0.71432(16) 0.9550(3)
H38 H 0.3511 0.7196 0.9951
H39 H 0.2027 0.7469 0.9828
H40 H 0.2605 0.7257 0.8815
C36 C 0.0841(3) 0.6239(2) 0.8895(3)
H41 H 0.0950 0.6321 0.8173
H42 H 0.0175 0.6566 0.9065
H43 H 0.0561 0.5745 0.8970
C37 C 0.2115(4) 0.6180(2) 1.0772(2)
H44 H 0.1877 0.5676 1.0815
H45 H 0.1462 0.6479 1.1022
H46 H 0.2983 0.6264 1.1206
C38 C 0.3978(3) 0.60570(14) 0.7349(2)
C39 C 0.4080(4) 0.72533(19) 0.6676(3)
H47 H 0.4108 0.7152 0.5943
H48 H 0.4555 0.7698 0.6888
H49 H 0.3164 0.7303 0.6758
C40 C 0.4303(3) 0.34727(14) 1.0150(2)
C41 C 0.2226(3) 0.27922(15) 1.0052(2)
C42 C 0.1029(3) 0.27622(19) 0.9155(3)
H50 H 0.0725 0.3248 0.8964
H51 H 0.0321 0.2492 0.9379
H52 H 0.1276 0.2527 0.8549
C43 C 0.1895(3) 0.31750(19) 1.1017(2)
H53 H 0.2660 0.3159 1.1588
H54 H 0.1150 0.2936 1.1236
H55 H 0.1664 0.3673 1.0841
C44 C 0.2841(3) 0.20491(16) 1.0288(3)
H56 H 0.3143 0.1868 0.9669
H57 H 0.2183 0.1723 1.0475
H58 H 0.3589 0.2084 1.0871
N1 N 0.3969(2) 0.28230(11) 0.60674(17)
N2 N 0.4942(2) 0.38598(11) 0.53208(16)
N3 N 0.4015(2) 0.50041(11) 0.85474(16)
N4 N 0.49191(19) 0.39519(11) 0.95674(16)
O1 O 0.2330(2) 0.30248(11) 0.46366(19)
O2 O 0.30264(19) 0.18850(9) 0.51421(14)
O3 O 0.2786(2) 0.18693(11) 0.74063(18)
O4 O 0.4594(2) 0.11663(11) 0.74997(18)
O5 O 0.4874(2) 0.45402(13) 0.38381(17)
O6 O 0.31867(19) 0.45658(10) 0.47578(14)
O7 O 0.23642(19) 0.48351(10) 0.94851(17)
O8 O 0.32106(16) 0.59586(9) 0.92568(13)
O9 O 0.2873(2) 0.59727(11) 0.68691(16)
O10 O 0.4703(2) 0.66605(10) 0.73370(17)
O11 O 0.47982(19) 0.32860(12) 1.10389(16)
O12 O 0.31555(17) 0.32483(9) 0.95743(13)
loop_
_geom_bond_atom_site_label_1
_geom_bond_atom_site_label_2
_geom_bond_site_symmetry_1
_geom_bond_site_symmetry_2
C1 H1 1_555 1_555
C2 C1 1_555 1_555
H2 C2 1_555 1_555
H3 C2 1_555 1_555
C3 C2 1_555 1_555
C4 C3 1_555 1_555
H4 C4 1_555 1_555
C5 C3 1_555 1_555
C6 C5 1_555 1_555
H5 C6 1_555 1_555
C7 C6 1_555 1_555
H6 C7 1_555 1_555
C8 C7 1_555 1_555
H7 C8 1_555 1_555
C9 C8 1_555 1_555
H8 C9 1_555 1_555
C10 C5 1_555 1_555
C11 N1 1_555 1_555
C12 C13 1_555 1_555
C13 H9 1_555 1_555
H10 C13 1_555 1_555
H11 C13 1_555 1_555
C14 C12 1_555 1_555
H12 C14 1_555 1_555
H13 C14 1_555 1_555
H14 C14 1_555 1_555
C15 C12 1_555 1_555
H15 C15 1_555 1_555
H16 C15 1_555 1_555
H17 C15 1_555 1_555
C16 C1 1_555 1_555
C17 H18 1_555 1_555
H19 C17 1_555 1_555
H20 C17 1_555 1_555
C18 C19 1_555 1_555
C19 H21 1_555 1_555
H22 C19 1_555 1_555
H23 C19 1_555 1_555
C20 C18 1_555 1_555
H24 C20 1_555 1_555
H25 C20 1_555 1_555
H26 C20 1_555 1_555
C21 C18 1_555 1_555
H27 C21 1_555 1_555
H28 C21 1_555 1_555
H29 C21 1_555 1_555
C22 N2 1_555 1_555
C23 H30 1_555 1_555
C24 C23 1_555 1_555
H31 C24 1_555 1_555
H32 C24 1_555 1_555
C25 C3 1_555 1_555
C26 C25 1_555 1_555
H33 C26 1_555 1_555
C27 C25 1_555 1_555
C28 C27 1_555 1_555
H34 C28 1_555 1_555
C29 C28 1_555 1_555
H35 C29 1_555 1_555
C30 C29 1_555 1_555
H36 C30 1_555 1_555
C31 C30 1_555 1_555
H37 C31 1_555 1_555
C32 C27 1_555 1_555
C33 N3 1_555 1_555
C34 C35 1_555 1_555
C35 H38 1_555 1_555
H39 C35 1_555 1_555
H40 C35 1_555 1_555
C36 C34 1_555 1_555
H41 C36 1_555 1_555
H42 C36 1_555 1_555
H43 C36 1_555 1_555
C37 C34 1_555 1_555
H44 C37 1_555 1_555
H45 C37 1_555 1_555
H46 C37 1_555 1_555
C38 C23 1_555 1_555
C39 H47 1_555 1_555
H48 C39 1_555 1_555
H49 C39 1_555 1_555
C40 N4 1_555 1_555
C41 C42 1_555 1_555
C42 H50 1_555 1_555
H51 C42 1_555 1_555
H52 C42 1_555 1_555
C43 C41 1_555 1_555
H53 C43 1_555 1_555
H54 C43 1_555 1_555
H55 C43 1_555 1_555
C44 C41 1_555 1_555
H56 C44 1_555 1_555
H57 C44 1_555 1_555
H58 C44 1_555 1_555
N1 C1 1_555 1_555
N2 C4 1_555 1_555
N3 C23 1_555 1_555
N4 C26 1_555 1_555
O1 C11 1_555 1_555
O2 C11 1_555 1_555
O3 C16 1_555 1_555
O4 C16 1_555 1_555
O5 C22 1_555 1_555
O6 C18 1_555 1_555
O7 C33 1_555 1_555
O8 C33 1_555 1_555
O9 C38 1_555 1_555
O10 C38 1_555 1_555
O11 C40 1_555 1_555
O12 C40 1_555 1_555
C4 N1 1_555 1_555
C9 C10 1_555 1_555
C10 N2 1_555 1_555
C12 O2 1_555 1_555
C17 O4 1_555 1_555
C22 O6 1_555 1_555
C24 C25 1_555 1_555
C26 N3 1_555 1_555
C31 C32 1_555 1_555
C32 N4 1_555 1_555
C34 O8 1_555 1_555
C39 O10 1_555 1_555
C41 O12 1_555 1_555

#END
