
#######################################################################
#
#                 Cambridge Crystallographic Data Centre
#                                CCDC 
#
#######################################################################
#
# If this CIF has been generated from an entry in the Cambridge 
# Structural Database, then it will include bibliographic, chemical, 
# crystal, experimental, refinement or atomic coordinate data resulting 
# from the CCDC's data processing and validation procedures.
#
#######################################################################

data_NOFXUB
_chemical_formula_moiety         'C26 H36 N4 O2'
_chemical_name_systematic        
1,4-bis(3'-(N-Ethylimino-2'-hydroxy)-5'-methylbenzyl)piperazine
_symmetry_cell_setting           monoclinic
_symmetry_space_group_name_H-M   'P 21/c'
_symmetry_Int_Tables_number      14
_space_group_name_Hall           '-P 2ybc'
loop_
_symmetry_equiv_pos_site_id
_symmetry_equiv_pos_as_xyz
1 x,y,z
2 -x,1/2+y,1/2-z
3 -x,-y,-z
4 x,1/2-y,1/2+z
_cell_length_a                   19.033(2)
_cell_length_b                   13.661(1)
_cell_length_c                   9.546(1)
_cell_angle_alpha                90
_cell_angle_beta                 95.72(1)
_cell_angle_gamma                90
_cell_volume                     2469.7
_exptl_crystal_colour            yellow
_exptl_crystal_description       prism
_chemical_melting_point          423K
_cell_formula_units_Z            4
_exptl_crystal_recrystallization_method ethanol
loop_
_atom_site_label
_atom_site_type_symbol
_atom_site_fract_x
_atom_site_fract_y
_atom_site_fract_z
C1 C 0.03901(7) 0.11191(10) 0.2249(2)
C2 C 0.02323(8) 0.20302(11) 0.2840(2)
C3 C 0.05725(9) 0.28656(12) 0.2426(2)
C4 C 0.10667(8) 0.28319(11) 0.1464(2)
C5 C 0.12196(8) 0.19161(12) 0.0913(2)
C6 C 0.08916(7) 0.10606(11) 0.1287(2)
C7 C 0.10638(8) 0.00834(13) 0.0648(2)
N1 N 0.17952(6) 0.00391(9) 0.03003(14)
C8 C 0.19071(9) -0.08017(14) -0.0594(2)
C9 C 0.26602(9) -0.0813(2) -0.0977(2)
N2 N 0.31591(7) -0.08411(10) 0.02771(15)
C10 C 0.30411(9) -0.00046(15) 0.1173(2)
C11 C 0.22871(9) -0.0023(2) 0.1562(2)
C12 C 0.38904(9) -0.08618(14) -0.0093(2)
C13 C 0.41144(8) -0.18756(13) -0.0518(2)
C14 C 0.38239(9) -0.27147(14) 0.0003(2)
C15 C 0.40365(9) -0.36545(13) -0.0326(2)
C16 C 0.45557(9) -0.37314(15) -0.1236(2)
C17 C 0.48655(9) -0.29121(14) -0.1785(2)
C18 C 0.46517(8) -0.19752(13) -0.1395(2)
O1 O 0.00622(6) 0.02870(8) 0.26204(13)
C19 C 0.14205(14) 0.3744(2) 0.0992(3)
C20 C -0.02697(8) 0.20999(13) 0.3897(2)
N3 N -0.06132(7) 0.13713(11) 0.4285(2)
C21 C -0.10924(10) 0.1518(2) 0.5368(2)
C22 C -0.18502(10) 0.1406(2) 0.4769(3)
O2 O 0.49643(7) -0.11553(10) -0.18513(15)
C23 C 0.37193(14) -0.4544(2) 0.0305(4)
C24 C 0.54124(10) -0.3035(2) -0.2739(2)
N4 N 0.57612(8) -0.23275(14) -0.3175(2)
C25 C 0.62973(13) -0.2553(3) -0.4111(3)
C26 C 0.69972(12) -0.2513(3) -0.3366(4)
H1 H 0.73415(12) -0.2664(3) -0.4003(4)
H2 H 0.70312(12) -0.2980(3) -0.2611(4)
H3 H 0.70831(12) -0.1867(3) -0.2989(4)
H4 H 0.0471(8) 0.3460(12) 0.2836(18)
H5 H 0.1559(8) 0.1878(11) 0.0200(17)
H6 H 0.0765(9) -0.0029(12) -0.0227(20)
H7 H 0.0950(8) -0.0480(13) 0.1308(19)
H8 H 0.1812(9) -0.1430(14) -0.0089(20)
H9 H 0.1561(9) -0.0730(11) -0.1497(18)
H10 H 0.2768(9) -0.0204(13) -0.1541(20)
H11 H 0.2767(10) -0.1419(14) -0.1529(21)
H12 H 0.3161(9) 0.0680(14) 0.0724(21)
H13 H 0.3381(9) -0.0028(13) 0.2009(21)
H14 H 0.2220(8) -0.0642(12) 0.2055(18)
H15 H 0.2218(9) 0.0564(13) 0.2137(19)
H16 H 0.4198(10) -0.0636(13) 0.0714(21)
H17 H 0.4008(10) -0.0334(16) -0.0859(24)
H18 H 0.3478(10) -0.2655(13) 0.0602(20)
H19 H 0.4694(9) -0.4370(14) -0.1445(20)
H20 H -0.0281(11) 0.0503(16) 0.3238(24)
H21 H 0.1882(18) 0.3645(24) 0.0765(37)
H22 H 0.1623(15) 0.4112(23) 0.1811(33)
H23 H 0.1137(14) 0.4175(21) 0.0544(32)
H24 H -0.0308(8) 0.2787(12) 0.4279(18)
H25 H -0.1022(9) 0.2208(15) 0.5771(21)
H26 H -0.0993(10) 0.1029(16) 0.6067(23)
H27 H -0.1989(11) 0.0725(20) 0.4403(26)
H28 H -0.2165(11) 0.1543(15) 0.5521(25)
H29 H -0.1975(11) 0.1939(17) 0.4029(26)
H30 H 0.5325(11) -0.1427(15) -0.2388(23)
H31 H 0.3729(18) -0.4470(25) 0.1277(42)
H32 H 0.3952(15) -0.5130(23) -0.0003(31)
H33 H 0.3265(15) -0.4733(19) -0.0157(27)
H34 H 0.5481(11) -0.3756(16) -0.2948(23)
H35 H 0.6189(14) -0.3208(19) -0.4411(30)
H36 H 0.6303(14) -0.2008(21) -0.4899(34)
loop_
_geom_bond_atom_site_label_1
_geom_bond_atom_site_label_2
_geom_bond_site_symmetry_1
_geom_bond_site_symmetry_2
C1 C2 1_555 1_555
C2 C3 1_555 1_555
C3 C4 1_555 1_555
C4 C5 1_555 1_555
C5 C6 1_555 1_555
C6 C1 1_555 1_555
C7 C6 1_555 1_555
N1 C7 1_555 1_555
C8 N1 1_555 1_555
C9 C8 1_555 1_555
N2 C9 1_555 1_555
C10 N2 1_555 1_555
C11 N1 1_555 1_555
C12 N2 1_555 1_555
C13 C12 1_555 1_555
C14 C13 1_555 1_555
C15 C14 1_555 1_555
C16 C15 1_555 1_555
C17 C16 1_555 1_555
C18 C13 1_555 1_555
O1 C1 1_555 1_555
C19 C4 1_555 1_555
C20 C2 1_555 1_555
N3 C20 1_555 1_555
C21 N3 1_555 1_555
C22 C21 1_555 1_555
O2 C18 1_555 1_555
C23 C15 1_555 1_555
C24 C17 1_555 1_555
N4 C24 1_555 1_555
C25 N4 1_555 1_555
C26 C25 1_555 1_555
H1 C26 1_555 1_555
H2 C26 1_555 1_555
H3 C26 1_555 1_555
H4 C3 1_555 1_555
H5 C5 1_555 1_555
H6 C7 1_555 1_555
H7 C7 1_555 1_555
H8 C8 1_555 1_555
H9 C8 1_555 1_555
H10 C9 1_555 1_555
H11 C9 1_555 1_555
H12 C10 1_555 1_555
H13 C10 1_555 1_555
H14 C11 1_555 1_555
H15 C11 1_555 1_555
H16 C12 1_555 1_555
H17 C12 1_555 1_555
H18 C14 1_555 1_555
H19 C16 1_555 1_555
H20 O1 1_555 1_555
H21 C19 1_555 1_555
H22 C19 1_555 1_555
H23 C19 1_555 1_555
H24 C20 1_555 1_555
H25 C21 1_555 1_555
H26 C21 1_555 1_555
H27 C22 1_555 1_555
H28 C22 1_555 1_555
H29 C22 1_555 1_555
H30 O2 1_555 1_555
H31 C23 1_555 1_555
H32 C23 1_555 1_555
H33 C23 1_555 1_555
H34 C24 1_555 1_555
H35 C25 1_555 1_555
H36 C25 1_555 1_555
C10 C11 1_555 1_555
C17 C18 1_555 1_555

#END
