
#######################################################################
#
#                 Cambridge Crystallographic Data Centre
#                                CCDC 
#
#######################################################################
#
# If this CIF has been generated from an entry in the Cambridge 
# Structural Database, then it will include bibliographic, chemical, 
# crystal, experimental, refinement or atomic coordinate data resulting 
# from the CCDC's data processing and validation procedures.
#
#######################################################################

data_NOFYOX
_chemical_compound_source        'Ligularia atroviolacea'
_chemical_name_common            
'8-Chloro-8a-hydroxy-3,4a,5-trimethyl-9-oxo-4,4a,5,6,7,8,8a,9-octahydronaphtho[2,3-b]furan-4-yl 2-methylpropanoate'
_chemical_formula_moiety         'C19 H25 Cl1 O5'
_chemical_name_systematic        
1\a-Chloro-6\b-isobutyroxy-9-oxo-10\b-hydroxyfuranoeremophilane
_symmetry_cell_setting           orthorhombic
_symmetry_space_group_name_H-M   'P 21 21 21'
_symmetry_Int_Tables_number      19
_space_group_name_Hall           'P 2ac 2ab'
loop_
_symmetry_equiv_pos_site_id
_symmetry_equiv_pos_as_xyz
1 x,y,z
2 1/2+x,1/2-y,-z
3 -x,1/2+y,1/2-z
4 1/2-x,-y,1/2+z
_cell_length_a                   8.557(2)
_cell_length_b                   14.545(5)
_cell_length_c                   15.121(4)
_cell_angle_alpha                90
_cell_angle_beta                 90
_cell_angle_gamma                90
_cell_volume                     1881.98
_exptl_crystal_colour            colorless
_exptl_crystal_description       chunk
_chemical_melting_point          '107-108 deg.C'
_cell_formula_units_Z            4
_exptl_crystal_recrystallization_method methanol
loop_
_atom_site_label
_atom_site_type_symbol
_atom_site_fract_x
_atom_site_fract_y
_atom_site_fract_z
Cl1 Cl 0.22937(8) 0.32766(5) 0.17367(5)
O1 O 0.5776(3) 0.19380(16) 0.05460(11)
O2 O 0.3028(4) 0.12180(19) 0.02380(14)
O3 O 0.1105(3) 0.05350(16) 0.1682(2)
O4 O 0.4925(2) 0.12523(11) 0.36289(9)
O5 O 0.4722(4) 0.25114(19) 0.44567(12)
C1 C 0.4101(3) 0.30397(17) 0.11507(14)
C2 C 0.5352(3) 0.37057(18) 0.14409(18)
C3 C 0.5963(3) 0.34925(18) 0.23635(19)
C4 C 0.6667(2) 0.25277(19) 0.24005(16)
C5 C 0.5457(2) 0.17747(14) 0.21317(12)
C6 C 0.4221(2) 0.17098(14) 0.28799(12)
C7 C 0.2820(2) 0.11651(14) 0.26199(18)
C8 C 0.2439(3) 0.10430(17) 0.1755(2)
C9 C 0.3274(4) 0.1393(2) 0.10109(18)
C10 C 0.4635(3) 0.20237(17) 0.12334(12)
C11 C 0.1654(3) 0.07150(18) 0.3130(2)
C12 C 0.0675(4) 0.0354(2) 0.2522(3)
C13 C 0.1478(5) 0.0640(2) 0.4077(3)
C14 C 0.8233(3) 0.2502(2) 0.1906(2)
C15 C 0.6239(3) 0.08297(19) 0.20302(16)
C16 C 0.5077(4) 0.1724(2) 0.43859(14)
C17 C 0.5753(7) 0.1117(4) 0.50980(19)
C18 C 0.7183(8) 0.0680(3) 0.4856(3)
C19 C 0.5603(8) 0.1555(3) 0.59810(19)
H1 H 0.3903 0.3156 0.0522
H2 H 0.6915 0.2414 0.3024
H3 H 0.3896 0.2330 0.3053
H4 H -0.0209 0.0014 0.2668
H5 H 0.5011 0.0605 0.5128
H6 H 0.4919 0.4322 0.1440
H7 H 0.6215 0.3674 0.1026
H8 H 0.5108 0.3532 0.2783
H9 H 0.6760 0.3938 0.2519
H10 H 0.1577 0.1238 0.4340
H11 H 0.2273 0.0241 0.4309
H12 H 0.0467 0.0391 0.4212
H13 H 0.8048 0.2551 0.1282
H14 H 0.8757 0.1933 0.2031
H15 H 0.8873 0.3007 0.2097
H16 H 0.6916 0.0836 0.1524
H17 H 0.5451 0.0367 0.1952
H18 H 0.6839 0.0695 0.2551
H19 H 0.7809 0.1099 0.4516
H20 H 0.6961 0.0143 0.4508
H21 H 0.7741 0.0504 0.5380
H22 H 0.6553 0.1874 0.6122
H23 H 0.5409 0.1091 0.6419
H24 H 0.4750 0.1984 0.5973
loop_
_geom_bond_atom_site_label_1
_geom_bond_atom_site_label_2
_geom_bond_site_symmetry_1
_geom_bond_site_symmetry_2
Cl1 C1 1_555 1_555
O1 C10 1_555 1_555
O2 C9 1_555 1_555
O3 C8 1_555 1_555
O4 C6 1_555 1_555
O5 C16 1_555 1_555
C1 C2 1_555 1_555
C2 C3 1_555 1_555
C3 C4 1_555 1_555
C4 C5 1_555 1_555
C5 C6 1_555 1_555
C6 C7 1_555 1_555
C7 C8 1_555 1_555
C8 C9 1_555 1_555
C9 C10 1_555 1_555
C10 C1 1_555 1_555
C11 C7 1_555 1_555
C12 O3 1_555 1_555
C13 C11 1_555 1_555
C14 C4 1_555 1_555
C15 C5 1_555 1_555
C16 O4 1_555 1_555
C17 C16 1_555 1_555
C18 C17 1_555 1_555
C19 C17 1_555 1_555
H1 C1 1_555 1_555
H2 C4 1_555 1_555
H3 C6 1_555 1_555
H4 C12 1_555 1_555
H5 C17 1_555 1_555
H6 C2 1_555 1_555
H7 C2 1_555 1_555
H8 C3 1_555 1_555
H9 C3 1_555 1_555
H10 C13 1_555 1_555
H11 C13 1_555 1_555
H12 C13 1_555 1_555
H13 C14 1_555 1_555
H14 C14 1_555 1_555
H15 C14 1_555 1_555
H16 C15 1_555 1_555
H17 C15 1_555 1_555
H18 C15 1_555 1_555
H19 C18 1_555 1_555
H20 C18 1_555 1_555
H21 C18 1_555 1_555
H22 C19 1_555 1_555
H23 C19 1_555 1_555
H24 C19 1_555 1_555
C5 C10 1_555 1_555
C11 C12 1_555 1_555

#END
