
#######################################################################
#
#                 Cambridge Crystallographic Data Centre
#                                CCDC 
#
#######################################################################
#
# If this CIF has been generated from an entry in the Cambridge 
# Structural Database, then it will include bibliographic, chemical, 
# crystal, experimental, refinement or atomic coordinate data resulting 
# from the CCDC's data processing and validation procedures.
#
#######################################################################

data_NOGDIY
_chemical_formula_moiety         'C14 H14 Br1 N3 O3'
_chemical_name_systematic        
1-(2-(2-(3-Bromophenyl)vinyl)-5-nitro-1H-imidazol-1-yl)propan-2-ol
_symmetry_cell_setting           monoclinic
_symmetry_space_group_name_H-M   'P 21/n'
_symmetry_Int_Tables_number      14
_space_group_name_Hall           '-P 2yn'
loop_
_symmetry_equiv_pos_site_id
_symmetry_equiv_pos_as_xyz
1 x,y,z
2 1/2-x,1/2+y,1/2-z
3 -x,-y,-z
4 1/2+x,1/2-y,1/2+z
_cell_length_a                   10.2060(10)
_cell_length_b                   13.4120(12)
_cell_length_c                   10.5874(10)
_cell_angle_alpha                90
_cell_angle_beta                 90.876(3)
_cell_angle_gamma                90
_cell_volume                     1449.06
_exptl_crystal_colour            'light yellow'
_chemical_melting_point          '67-69 deg.C'
_cell_formula_units_Z            4
_chemical_properties_physical    Heat-sensitive
loop_
_atom_site_label
_atom_site_type_symbol
_atom_site_fract_x
_atom_site_fract_y
_atom_site_fract_z
Br1 Br 0.18618(7) 1.35710(5) -0.06060(6)
C1 C 0.1550(5) 0.9335(4) -0.0438(5)
H1 H 0.1763 0.9789 0.0196
N1 N 0.1287(4) 0.7554(3) -0.0967(4)
O1 O 0.2590(6) 0.6384(4) 0.2798(5)
N2 N 0.2171(4) 0.7902(3) 0.0921(4)
C2 C 0.4852(5) 0.7661(4) 0.1715(5)
H2 H 0.5375 0.7667 0.0970
H3 H 0.4210 0.7140 0.1648
H4 H 0.5404 0.7546 0.2443
C3 C 0.1271(5) 1.2484(4) -0.1619(5)
C4 C 0.2148(5) 0.6887(4) 0.0773(5)
C5 C 0.1420(5) 1.1525(4) -0.1192(5)
H5 H 0.1787 1.1409 -0.0396
C6 C 0.2765(6) 0.8466(4) 0.1962(6)
H6 H 0.2578 0.8132 0.2752
H7 H 0.2372 0.9124 0.1990
C7 C 0.1650(5) 0.8284(4) -0.0165(5)
C8 C 0.1027(5) 1.0729(4) -0.1940(5)
N3 N 0.2514(5) 0.6170(4) 0.1679(5)
C9 C 0.0466(6) 1.0931(5) -0.3128(5)
H8 H 0.0199 1.0408 -0.3648
C10 C 0.0309(6) 1.1903(5) -0.3531(6)
H9 H -0.0072 1.2030 -0.4319
C11 C 0.1161(5) 0.9681(4) -0.1566(5)
H10 H 0.0955 0.9207 -0.2179
C12 C 0.0713(6) 1.2693(5) -0.2773(6)
H11 H 0.0608 1.3348 -0.3043
C13 C 0.1612(5) 0.6697(4) -0.0388(5)
H12 H 0.1489 0.6065 -0.0730
O2 O 0.2740(6) 0.5329(3) 0.1276(6)
C14 C 0.4225(7) 0.8572(5) 0.1838(11)
H13 H 0.4464 0.8730 0.2715
O3 O 0.4703(13) 0.9326(11) 0.129(3)
H14 H 0.4290 0.9826 0.1483
H15? H 0.2074 0.4990 0.1312
loop_
_geom_bond_atom_site_label_1
_geom_bond_atom_site_label_2
_geom_bond_site_symmetry_1
_geom_bond_site_symmetry_2
Br1 C3 1_555 1_555
C1 H1 1_555 1_555
N1 C7 1_555 1_555
O1 N3 1_555 1_555
N2 C4 1_555 1_555
C2 H2 1_555 1_555
H3 C2 1_555 1_555
H4 C2 1_555 1_555
C3 C5 1_555 1_555
C4 N3 1_555 1_555
C5 H5 1_555 1_555
C6 N2 1_555 1_555
H6 C6 1_555 1_555
H7 C6 1_555 1_555
C7 C1 1_555 1_555
C8 C5 1_555 1_555
N3 O2 1_555 1_555
C9 C8 1_555 1_555
H8 C9 1_555 1_555
C10 C9 1_555 1_555
H9 C10 1_555 1_555
C11 C1 1_555 1_555
H10 C11 1_555 1_555
C12 C3 1_555 1_555
H11 C12 1_555 1_555
C13 N1 1_555 1_555
H12 C13 1_555 1_555
C14 C2 1_555 1_555
H13 C14 1_555 1_555
O3 C14 1_555 1_555
H14 O3 1_555 1_555
N2 C7 1_555 1_555
C4 C13 1_555 1_555
C6 C14 1_555 1_555
C8 C11 1_555 1_555
C10 C12 1_555 1_555

#END
