
#######################################################################
#
#                 Cambridge Crystallographic Data Centre
#                                CCDC 
#
#######################################################################
#
# If this CIF has been generated from an entry in the Cambridge 
# Structural Database, then it will include bibliographic, chemical, 
# crystal, experimental, refinement or atomic coordinate data resulting 
# from the CCDC's data processing and validation procedures.
#
#######################################################################

data_NOGJOK
_chemical_formula_moiety         'C18 H18 N2 O4'
_chemical_name_systematic        
7-acetyl-2,3-dimethoxy-5-methyl-5,7-dihydro-6H-dibenzo[d,f][1,3]diazepin-6-one
_symmetry_cell_setting           triclinic
_symmetry_space_group_name_H-M   'P -1'
_symmetry_Int_Tables_number      2
_space_group_name_Hall           '-P 1'
loop_
_symmetry_equiv_pos_site_id
_symmetry_equiv_pos_as_xyz
1 x,y,z
2 -x,-y,-z
_cell_length_a                   8.6936(17)
_cell_length_b                   9.901(2)
_cell_length_c                   10.245(2)
_cell_angle_alpha                72.42(3)
_cell_angle_beta                 74.62(3)
_cell_angle_gamma                82.77(3)
_cell_volume                     809.546
_cell_formula_units_Z            2
loop_
_atom_site_label
_atom_site_type_symbol
_atom_site_fract_x
_atom_site_fract_y
_atom_site_fract_z
O1 O 0.79495(18) 0.36264(15) 0.87593(17)
O2 O 1.09415(15) 0.52875(14) 0.70903(14)
O3 O 0.44360(16) 0.72186(15) 0.40820(15)
O4 O 0.28448(15) 0.86433(14) 0.57714(15)
N1 N 0.84801(18) 0.58993(15) 0.84154(16)
N2 N 0.91611(16) 0.67304(15) 0.59423(16)
C1 C 0.8191(2) 0.72472(18) 0.87486(19)
C2 C 0.8772(2) 0.7463(2) 0.9800(2)
H1 H 0.9323 0.6728 1.0330
C3 C 0.8530(2) 0.8774(2) 1.0061(2)
H2 H 0.8895 0.8917 1.0781
C4 C 0.7738(3) 0.9879(2) 0.9243(2)
H3 H 0.7597 1.0766 0.9407
C5 C 0.7157(2) 0.9669(2) 0.8186(2)
H4 H 0.6627 1.0414 0.7647
C6 C 0.7366(2) 0.83359(19) 0.79253(19)
C7 C 0.6690(2) 0.80452(17) 0.68636(19)
C8 C 0.5103(2) 0.85383(18) 0.6798(2)
H5 H 0.4533 0.9072 0.7393
C9 C 0.4386(2) 0.82451(18) 0.5873(2)
C10 C 0.5254(2) 0.74539(19) 0.4960(2)
C11 C 0.6808(2) 0.69546(19) 0.50103(19)
H6 H 0.7376 0.6429 0.4406
C12 C 0.7523(2) 0.72393(18) 0.59688(19)
C13 C 0.9633(2) 0.59090(19) 0.7104(2)
C14 C 0.7737(2) 0.4662(2) 0.9216(2)
C15 C 0.6714(3) 0.4661(2) 1.0643(2)
H7 H 0.6050 0.3862 1.1002
H8 H 0.6054 0.5522 1.0572
H9 H 0.7382 0.4601 1.1272
C16 C 0.1863(2) 0.9289(2) 0.6787(3)
H10 H 0.1847 0.8677 0.7717
H11 H 0.0797 0.9448 0.6652
H12 H 0.2282 1.0179 0.6680
C17 C 0.5250(3) 0.6477(2) 0.3082(2)
H13 H 0.6140 0.7002 0.2449
H14 H 0.4531 0.6371 0.2556
H15 H 0.5627 0.5557 0.3567
C18 C 1.0345(2) 0.6979(2) 0.4576(2)
H16 H 1.1396 0.6941 0.4725
H17 H 1.0122 0.7896 0.3976
H18 H 1.0288 0.6261 0.4138
loop_
_geom_bond_atom_site_label_1
_geom_bond_atom_site_label_2
_geom_bond_site_symmetry_1
_geom_bond_site_symmetry_2
O1 C14 1_555 1_555
O2 C13 1_555 1_555
O3 C10 1_555 1_555
O4 C9 1_555 1_555
N1 C1 1_555 1_555
N2 C12 1_555 1_555
C1 C2 1_555 1_555
C2 H1 1_555 1_555
C3 C2 1_555 1_555
H2 C3 1_555 1_555
C4 C3 1_555 1_555
H3 C4 1_555 1_555
C5 C4 1_555 1_555
H4 C5 1_555 1_555
C6 C1 1_555 1_555
C7 C6 1_555 1_555
C8 C7 1_555 1_555
H5 C8 1_555 1_555
C9 C8 1_555 1_555
C10 C9 1_555 1_555
C11 C10 1_555 1_555
H6 C11 1_555 1_555
C12 C7 1_555 1_555
C13 N1 1_555 1_555
C14 N1 1_555 1_555
C15 C14 1_555 1_555
H7 C15 1_555 1_555
H8 C15 1_555 1_555
H9 C15 1_555 1_555
C16 O4 1_555 1_555
H10 C16 1_555 1_555
H11 C16 1_555 1_555
H12 C16 1_555 1_555
C17 O3 1_555 1_555
H13 C17 1_555 1_555
H14 C17 1_555 1_555
H15 C17 1_555 1_555
C18 N2 1_555 1_555
H16 C18 1_555 1_555
H17 C18 1_555 1_555
H18 C18 1_555 1_555
N2 C13 1_555 1_555
C5 C6 1_555 1_555
C11 C12 1_555 1_555

#END
