
#######################################################################
#
#                 Cambridge Crystallographic Data Centre
#                                CCDC 
#
#######################################################################
#
# If this CIF has been generated from an entry in the Cambridge 
# Structural Database, then it will include bibliographic, chemical, 
# crystal, experimental, refinement or atomic coordinate data resulting 
# from the CCDC's data processing and validation procedures.
#
#######################################################################

data_NOGJOI
_chemical_name_common            'Guanidinium mesitylenebenzenesulfonate'
_chemical_formula_moiety         'C1 H6 N3 1+,C9 H11 O3 S1 1-'
_chemical_name_systematic        'Guanidinium 2,4,6-trimethylbenzenesulfonate'
_symmetry_cell_setting           orthorhombic
_symmetry_space_group_name_H-M   'P n m a'
_symmetry_Int_Tables_number      62
_space_group_name_Hall           '-P 2ac 2n'
loop_
_symmetry_equiv_pos_site_id
_symmetry_equiv_pos_as_xyz
1 x,y,z
2 1/2-x,-y,1/2+z
3 1/2+x,1/2-y,1/2-z
4 -x,1/2+y,-z
5 -x,-y,-z
6 1/2+x,y,1/2-z
7 1/2-x,1/2+y,1/2+z
8 x,1/2-y,z
_cell_length_a                   21.021(2)
_cell_length_b                   7.5584(6)
_cell_length_c                   8.3710(6)
_cell_angle_alpha                90
_cell_angle_beta                 90
_cell_angle_gamma                90
_cell_volume                     1330.03
_exptl_crystal_colour            colorless
_exptl_crystal_description       'rectangular flat plates'
_chemical_melting_point          270-300deg.C(dec.)
_cell_formula_units_Z            4
loop_
_atom_site_label
_atom_site_type_symbol
_atom_site_fract_x
_atom_site_fract_y
_atom_site_fract_z
N1 N 0.2428(1) 0.0988(3) 0.7782(3)
N2 N 0.3175(2) 0.2500 0.6344(4)
C10 C 0.2677(2) 0.2500 0.7306(5)
H1 H 0.2111(1) 0.1009(3) 0.8469(3)
H2 H 0.2621(1) 0.0057(3) 0.7559(3)
H3 H 0.3310(2) 0.1471 0.6020(4)
N1G N 0.2428(1) 0.4012(3) 0.7782(3)
H1G H 0.2111(1) 0.3991(3) 0.8469(3)
H2G H 0.2621(1) 0.4943(3) 0.7559(3)
H3G H 0.3310(2) 0.3529 0.6020(4)
S1 S 0.1404(1) 0.2500 0.1191(2)
O1 O 0.1920(1) 0.2500 0.2339(4)
O2 O 0.1415(1) 0.0899(2) 0.0207(2)
C1 C 0.0666(2) 0.2500 0.2208(5)
C2 C 0.0614(3) 0.2500 0.3877(6)
C3 C 0.0007(4) 0.2500 0.4546(7)
C4 C -0.0532(3) 0.2500 0.3667(9)
C5 C -0.0474(2) 0.2500 0.2051(7)
C6 C 0.0111(2) 0.2500 0.1273(5)
C7 C 0.0103(2) 0.2500 -0.0526(5)
C8 C -0.1196(3) 0.2500 0.4459(10)
C9 C 0.1177(3) 0.2500 0.5042(7)
H4 H -0.0011(4) 0.2500 0.5716(7)
H5 H -0.0839(2) 0.2500 0.1369(7)
H6 H -0.0340(2) 0.2500 -0.0973(5)
H7 H 0.0366(2) 0.1639 -0.0968(5)
H8 H -0.1422(3) 0.2500 0.3843(10)
H9 H -0.1181(3) 0.1581 0.4941(10)
H10 H 0.1011(3) 0.2500 0.6027(7)
H11 H 0.1384(3) 0.1618 0.4962(7)
O2G O 0.1415(1) 0.4101(2) 0.0207(2)
H7G H 0.0366(2) 0.3361 -0.0968(5)
H9G H -0.1181(3) 0.3419 0.4941(10)
H11G H 0.1384(3) 0.3382 0.4962(7)
loop_
_geom_bond_atom_site_label_1
_geom_bond_atom_site_label_2
_geom_bond_site_symmetry_1
_geom_bond_site_symmetry_2
N1 C10 1_555 1_555
N2 C10 1_555 1_555
S1 O1 1_555 1_555
O2 S1 1_555 1_555
C1 S1 1_555 1_555
C2 C1 1_555 1_555
C3 C2 1_555 1_555
C4 C3 1_555 1_555
C5 C4 1_555 1_555
C6 C1 1_555 1_555
C7 C6 1_555 1_555
C8 C4 1_555 1_555
C9 C2 1_555 1_555
C10 N1G 1_555 1_555
H1 N1 1_555 1_555
H2 N1 1_555 1_555
H3 N2 1_555 1_555
H4 C3 1_555 1_555
H5 C5 1_555 1_555
H6 C7 1_555 1_555
H7 C7 1_555 1_555
H8 C8 1_555 1_555
H9 C8 1_555 1_555
H10 C9 1_555 1_555
H11 C9 1_555 1_555
N1G H1G 1_555 1_555
H2G N1G 1_555 1_555
H3G N2 1_555 1_555
O2G S1 1_555 1_555
H7G C7 1_555 1_555
H9G C8 1_555 1_555
H11G C9 1_555 1_555
C5 C6 1_555 1_555

#END
