
#######################################################################
#
#                 Cambridge Crystallographic Data Centre
#                                CCDC 
#
#######################################################################
#
# If this CIF has been generated from an entry in the Cambridge 
# Structural Database, then it will include bibliographic, chemical, 
# crystal, experimental, refinement or atomic coordinate data resulting 
# from the CCDC's data processing and validation procedures.
#
#######################################################################

data_NOGKOJ
_chemical_name_common            
'Picrylsulfonate 2,4,6-trinitrobenzenesulfonate'
_chemical_formula_moiety         'C1 H6 N3 1+,C6 H2 N3 O9 S1 1-'
_chemical_name_systematic        'Guanidinium 2,4,6-trinitrobenzenesulfonate'
_symmetry_cell_setting           triclinic
_symmetry_space_group_name_H-M   'P -1'
_symmetry_Int_Tables_number      2
_space_group_name_Hall           '-P 1'
loop_
_symmetry_equiv_pos_site_id
_symmetry_equiv_pos_as_xyz
1 x,y,z
2 -x,-y,-z
_cell_length_a                   7.782(6)
_cell_length_b                   8.187(2)
_cell_length_c                   10.813(2)
_cell_angle_alpha                100.83(2)
_cell_angle_beta                 92.32(4)
_cell_angle_gamma                99.20(6)
_cell_volume                     666.166
_exptl_crystal_colour            'light yellow'
_exptl_crystal_description       'thick plates'
_chemical_melting_point          239-241deg.C
_cell_formula_units_Z            2
loop_
_atom_site_label
_atom_site_type_symbol
_atom_site_fract_x
_atom_site_fract_y
_atom_site_fract_z
S1 S 0.78144(6) 0.12705(5) 0.76461(4)
O1 O 0.8829(2) 0.2840(2) 0.8317(1)
O2 O 0.6078(2) 0.0915(2) 0.8053(1)
O3 O 0.8745(2) -0.0131(2) 0.7528(1)
O4 O 0.6197(2) -0.2036(2) 0.5606(1)
O5 O 0.8461(2) -0.2202(2) 0.4534(1)
O6 O 0.7798(2) 0.1531(2) 0.1470(1)
O7 O 0.7687(3) 0.4131(2) 0.2242(1)
O8 O 0.6119(2) 0.4565(2) 0.7416(2)
O9 O 0.8555(2) 0.5915(2) 0.6961(1)
N1 N 0.7402(2) -0.1426(2) 0.5067(1)
N2 N 0.7724(2) 0.2685(2) 0.2347(1)
N3 N 0.7419(2) 0.4680(2) 0.6831(1)
C1 C 0.7542(2) 0.1622(2) 0.6052(1)
C2 C 0.7539(2) 0.0370(2) 0.4982(1)
C3 C 0.7626(2) 0.0675(2) 0.3770(1)
C4 C 0.7677(2) 0.2321(2) 0.3625(1)
C5 C 0.7652(2) 0.3630(2) 0.4628(1)
C6 C 0.7561(2) 0.3241(2) 0.5812(1)
H1 H 0.7648 -0.0212 0.3067
H2 H 0.7704 0.4757 0.4508
N4 N 0.5845(2) -0.1863(2) 0.9631(2)
N5 N 0.7057(4) -0.2955(3) 1.1191(2)
N6 N 0.8727(2) -0.2087(3) 0.9671(2)
C7 C 0.7212(2) -0.2314(2) 1.0155(1)
H3 H 0.600(4) -0.146(4) 0.901(3)
H4 H 0.502(4) -0.178(3) 1.010(3)
H5 H 0.603(4) -0.318(3) 1.142(2)
H6 H 0.779(4) -0.337(3) 1.145(3)
H7 H 0.952(3) -0.245(3) 1.001(3)
H8 H 0.880(3) -0.157(3) 0.896(3)
loop_
_geom_bond_atom_site_label_1
_geom_bond_atom_site_label_2
_geom_bond_site_symmetry_1
_geom_bond_site_symmetry_2
S1 O1 1_555 1_555
O2 S1 1_555 1_555
O3 S1 1_555 1_555
O4 N1 1_555 1_555
O5 N1 1_555 1_555
O6 N2 1_555 1_555
O7 N2 1_555 1_555
O8 N3 1_555 1_555
O9 N3 1_555 1_555
N1 C2 1_555 1_555
N2 C4 1_555 1_555
N3 C6 1_555 1_555
C1 S1 1_555 1_555
C2 C1 1_555 1_555
C3 C2 1_555 1_555
C4 C3 1_555 1_555
C5 C4 1_555 1_555
C6 C1 1_555 1_555
H1 C3 1_555 1_555
H2 C5 1_555 1_555
N4 C7 1_555 1_555
N5 C7 1_555 1_555
N6 C7 1_555 1_555
H3 N4 1_555 1_555
H4 N4 1_555 1_555
H5 N5 1_555 1_555
H6 N5 1_555 1_555
H7 N6 1_555 1_555
H8 N6 1_555 1_555
C5 C6 1_555 1_555

#END
