
#######################################################################
#
#                 Cambridge Crystallographic Data Centre
#                                CCDC 
#
#######################################################################
#
# If this CIF has been generated from an entry in the Cambridge 
# Structural Database, then it will include bibliographic, chemical, 
# crystal, experimental, refinement or atomic coordinate data resulting 
# from the CCDC's data processing and validation procedures.
#
#######################################################################

data_NOGKUP
_chemical_formula_moiety         'C38 H32 Cl4 S8'
_chemical_name_systematic        
tetrakis(4-Chloromethylbenzylthio)tetrathiafulvalene
_symmetry_cell_setting           monoclinic
_symmetry_space_group_name_H-M   'P 21/c'
_symmetry_Int_Tables_number      14
_space_group_name_Hall           '-P 2ybc'
loop_
_symmetry_equiv_pos_site_id
_symmetry_equiv_pos_as_xyz
1 x,y,z
2 -x,1/2+y,1/2-z
3 -x,-y,-z
4 x,1/2-y,1/2+z
_cell_length_a                   12.706(2)
_cell_length_b                   5.789(1)
_cell_length_c                   28.159(3)
_cell_angle_alpha                90
_cell_angle_beta                 99.69(1)
_cell_angle_gamma                90
_cell_volume                     2041.69
_exptl_crystal_colour            red
_exptl_crystal_description       needles
_cell_formula_units_Z            2
loop_
_atom_site_label
_atom_site_type_symbol
_atom_site_fract_x
_atom_site_fract_y
_atom_site_fract_z
S1 S 0.1247(2) 0.2578(4) 0.49713(7)
S2 S -0.0860(2) 0.1863(4) 0.43725(7)
S3 S 0.1832(2) 0.6479(4) 0.43611(9)
S4 S -0.0587(2) 0.5722(4) 0.36940(8)
C1 C 0.0082(6) 0.0904(12) 0.4861(2)
C2 C 0.0911(5) 0.4347(12) 0.4460(3)
C3 C -0.0052(5) 0.4046(12) 0.4188(2)
C4 C 0.3091(12) 0.5279(32) 0.4626(6)
C5 C 0.4023(12) 0.6059(32) 0.4394(6)
C6 C 0.4809(14) 0.7370(35) 0.4651(6)
C7 C 0.5672(12) 0.8125(33) 0.4444(5)
C8 C 0.5770(10) 0.7358(32) 0.3988(5)
C9 C 0.4895(12) 0.6435(30) 0.3697(5)
C10 C 0.4054(12) 0.5655(30) 0.3906(5)
C11 C 0.6757(10) 0.8000(26) 0.3785(5)
Cl1 Cl 0.6627(4) 1.0262(9) 0.3385(2)
C20 C -0.0588(5) 0.3628(15) 0.3205(3)
C21 C 0.0508(5) 0.3054(12) 0.3121(2)
C22 C 0.1039(6) 0.4475(13) 0.2841(3)
C23 C 0.2037(6) 0.3951(15) 0.2761(3)
C24 C 0.2566(6) 0.1999(15) 0.2955(3)
C25 C 0.2054(6) 0.0581(14) 0.3236(3)
C26 C 0.1031(6) 0.1090(13) 0.3313(3)
C27 C 0.3681(7) 0.1467(19) 0.2877(3)
Cl3 Cl 0.3697(2) -0.0595(5) 0.2418(1)
H1 H 0.3237(12) 0.5785(32) 0.4958(6)
H2 H 0.3034(12) 0.3604(32) 0.4628(6)
H3 H 0.4754(14) 0.7793(35) 0.4964(6)
H4 H 0.6227(12) 0.8897(33) 0.4637(5)
H5 H 0.4892(12) 0.6211(30) 0.3370(5)
H6 H 0.3485(12) 0.4916(30) 0.3715(5)
H7 H 0.6891(10) 0.6729(26) 0.3578(5)
H8 H 0.7355(10) 0.8100(26) 0.4047(5)
H17 H -0.0940(5) 0.2220(15) 0.3281(3)
H18 H -0.0994(5) 0.4261(15) 0.2911(3)
H19 H 0.0707(6) 0.5813(13) 0.2707(3)
H20 H 0.2367(6) 0.4925(15) 0.2569(3)
H21 H 0.2396(6) -0.0740(14) 0.3373(3)
H22 H 0.0697(6) 0.0094(13) 0.3500(3)
H23 H 0.4095(7) 0.0893(19) 0.3174(3)
H24 H 0.4011(7) 0.2885(19) 0.2792(3)
C1B C -0.0082(6) -0.0904(12) 0.5139(2)
S1B S -0.1247(2) -0.2578(4) 0.50287(7)
C2B C -0.0911(5) -0.4347(12) 0.5540(3)
S3B S -0.1832(2) -0.6479(4) 0.56389(9)
C4B C -0.3091(12) -0.5279(32) 0.5374(6)
C5B C -0.4023(12) -0.6059(32) 0.5606(6)
C6B C -0.4809(14) -0.7370(35) 0.5349(6)
C7B C -0.5672(12) -0.8125(33) 0.5556(5)
C8B C -0.5770(10) -0.7358(32) 0.6012(5)
C9B C -0.4895(12) -0.6435(30) 0.6303(5)
C10B C -0.4054(12) -0.5655(30) 0.6094(5)
H6B H -0.3485(12) -0.4916(30) 0.6285(5)
H5B H -0.4892(12) -0.6211(30) 0.6630(5)
C11B C -0.6757(10) -0.8000(26) 0.6215(5)
Cl1B Cl -0.6627(4) -1.0262(9) 0.6615(2)
H7B H -0.6891(10) -0.6729(26) 0.6422(5)
H8B H -0.7355(10) -0.8100(26) 0.5953(5)
H4B H -0.6227(12) -0.8897(33) 0.5363(5)
H3B H -0.4754(14) -0.7793(35) 0.5036(6)
H1B H -0.3237(12) -0.5785(32) 0.5042(6)
H2B H -0.3034(12) -0.3604(32) 0.5372(6)
C3B C 0.0052(5) -0.4046(12) 0.5812(2)
S2B S 0.0860(2) -0.1863(4) 0.56275(7)
S4B S 0.0587(2) -0.5722(4) 0.63060(8)
C20B C 0.0588(5) -0.3628(15) 0.6795(3)
C21B C -0.0508(5) -0.3054(12) 0.6879(2)
C22B C -0.1039(6) -0.4475(13) 0.7159(3)
C23B C -0.2037(6) -0.3951(15) 0.7239(3)
C24B C -0.2566(6) -0.1999(15) 0.7045(3)
C25B C -0.2054(6) -0.0581(14) 0.6764(3)
C26B C -0.1031(6) -0.1090(13) 0.6687(3)
H22B H -0.0697(6) -0.0094(13) 0.6500(3)
H21B H -0.2396(6) 0.0740(14) 0.6627(3)
C27B C -0.3681(7) -0.1467(19) 0.7123(3)
Cl3B Cl -0.3697(2) 0.0595(5) 0.7582(1)
H23B H -0.4095(7) -0.0893(19) 0.6826(3)
H24B H -0.4011(7) -0.2885(19) 0.7208(3)
H20B H -0.2367(6) -0.4925(15) 0.7431(3)
H19B H -0.0707(6) -0.5813(13) 0.7293(3)
H17B H 0.0940(5) -0.2220(15) 0.6719(3)
H18B H 0.0994(5) -0.4261(15) 0.7089(3)
C12? C 0.2922(13) 0.4624(30) 0.4326(7)
C13? C 0.3886(11) 0.5958(26) 0.4222(8)
C14? C 0.4133(14) 0.8166(31) 0.4422(8)
C15? C 0.5069(13) 0.9288(27) 0.4323(7)
C16? C 0.5727(11) 0.8167(26) 0.4071(6)
C17? C 0.5485(14) 0.5915(27) 0.3905(7)
C18? C 0.4599(14) 0.4833(29) 0.4004(7)
C19? C 0.6785(12) 0.9196(31) 0.3995(6)
Cl2? Cl 0.6671(5) 1.1142(11) 0.3539(2)
H9? H 0.3115(13) 0.3813(30) 0.4629(7)
H10? H 0.2727(13) 0.3482(30) 0.4075(7)
H11? H 0.3711(14) 0.8922(31) 0.4612(8)
H12? H 0.5212(13) 1.0824(27) 0.4410(7)
H13? H 0.5928(14) 0.5125(27) 0.3730(7)
H14? H 0.4425(14) 0.3353(29) 0.3887(7)
H15? H 0.7332(12) 0.8021(31) 0.4006(6)
H16? H 0.7016(12) 1.0286(31) 0.4253(6)
loop_
_geom_bond_atom_site_label_1
_geom_bond_atom_site_label_2
_geom_bond_site_symmetry_1
_geom_bond_site_symmetry_2
S1 C1 1_555 1_555
S2 C1 1_555 1_555
S3 C2 1_555 1_555
S4 C3 1_555 1_555
C1 C1B 1_555 1_555
C2 S1 1_555 1_555
C3 S2 1_555 1_555
C4 S3 1_555 1_555
C5 C4 1_555 1_555
C6 C5 1_555 1_555
C7 C6 1_555 1_555
C8 C7 1_555 1_555
C9 C8 1_555 1_555
C10 C5 1_555 1_555
C11 C8 1_555 1_555
Cl1 C11 1_555 1_555
C20 S4 1_555 1_555
C21 C20 1_555 1_555
C22 C21 1_555 1_555
C23 C22 1_555 1_555
C24 C23 1_555 1_555
C25 C24 1_555 1_555
C26 C21 1_555 1_555
C27 C24 1_555 1_555
Cl3 C27 1_555 1_555
H1 C4 1_555 1_555
H2 C4 1_555 1_555
H3 C6 1_555 1_555
H4 C7 1_555 1_555
H5 C9 1_555 1_555
H6 C10 1_555 1_555
H7 C11 1_555 1_555
H8 C11 1_555 1_555
H17 C20 1_555 1_555
H18 C20 1_555 1_555
H19 C22 1_555 1_555
H20 C23 1_555 1_555
H21 C25 1_555 1_555
H22 C26 1_555 1_555
H23 C27 1_555 1_555
H24 C27 1_555 1_555
C1B S1B 1_555 1_555
S1B C2B 1_555 1_555
C2B S3B 1_555 1_555
S3B C4B 1_555 1_555
C4B C5B 1_555 1_555
C5B C6B 1_555 1_555
C6B C7B 1_555 1_555
C7B C8B 1_555 1_555
C8B C9B 1_555 1_555
C9B C10B 1_555 1_555
C10B C5B 1_555 1_555
H6B C10B 1_555 1_555
H5B C9B 1_555 1_555
C11B C8B 1_555 1_555
Cl1B C11B 1_555 1_555
H7B C11B 1_555 1_555
H8B C11B 1_555 1_555
H4B C7B 1_555 1_555
H3B C6B 1_555 1_555
H1B C4B 1_555 1_555
H2B C4B 1_555 1_555
C3B C2B 1_555 1_555
S2B C1B 1_555 1_555
S4B C3B 1_555 1_555
C20B S4B 1_555 1_555
C21B C20B 1_555 1_555
C22B C21B 1_555 1_555
C23B C22B 1_555 1_555
C24B C23B 1_555 1_555
C25B C24B 1_555 1_555
C26B C21B 1_555 1_555
H22B C26B 1_555 1_555
H21B C25B 1_555 1_555
C27B C24B 1_555 1_555
Cl3B C27B 1_555 1_555
H23B C27B 1_555 1_555
H24B C27B 1_555 1_555
H20B C23B 1_555 1_555
H19B C22B 1_555 1_555
H17B C20B 1_555 1_555
H18B C20B 1_555 1_555
C2 C3 1_555 1_555
C9 C10 1_555 1_555
C25 C26 1_555 1_555
C3B S2B 1_555 1_555
C25B C26B 1_555 1_555

#END
