
#######################################################################
#
#                 Cambridge Crystallographic Data Centre
#                                CCDC 
#
#######################################################################
#
# If this CIF has been generated from an entry in the Cambridge 
# Structural Database, then it will include bibliographic, chemical, 
# crystal, experimental, refinement or atomic coordinate data resulting 
# from the CCDC's data processing and validation procedures.
#
#######################################################################

data_NOHFIA
_chemical_formula_moiety         'C21 H18'
_chemical_name_systematic        3-isopropylchrysene
_symmetry_cell_setting           tetragonal
_symmetry_space_group_name_H-M   'I -4'
_symmetry_Int_Tables_number      82
_space_group_name_Hall           'I -4'
loop_
_symmetry_equiv_pos_site_id
_symmetry_equiv_pos_as_xyz
1 x,y,z
2 -x,-y,z
3 y,-x,-z
4 -y,x,-z
5 1/2+x,1/2+y,1/2+z
6 1/2-x,1/2-y,1/2+z
7 1/2+y,1/2-x,1/2-z
8 1/2-y,1/2+x,1/2-z
_cell_length_a                   21.1099(3)
_cell_length_b                   21.1099(3)
_cell_length_c                   6.6425(2)
_cell_angle_alpha                90
_cell_angle_beta                 90
_cell_angle_gamma                90
_cell_volume                     2960.08
_exptl_crystal_colour            colorless
_exptl_crystal_description       rod
_cell_formula_units_Z            8
_exptl_crystal_recrystallization_method acetonitrile/toluene
loop_
_atom_site_label
_atom_site_type_symbol
_atom_site_fract_x
_atom_site_fract_y
_atom_site_fract_z
C1 C 0.16377(5) 0.92984(5) 0.35974(16)
C2 C 0.19309(5) 0.95397(5) 0.53527(18)
H1 H 0.2027 0.9978 0.5444
C3 C 0.20762(5) 0.91449(5) 0.69172(17)
H2 H 0.2281 0.9312 0.8074
C4 C 0.19281(5) 0.84937(5) 0.68475(16)
C5 C 0.20730(5) 0.80842(5) 0.84900(17)
H3 H 0.2272 0.8253 0.9654
C6 C 0.19319(5) 0.74579(5) 0.84232(17)
H4 H 0.2035 0.7198 0.9543
C7 C 0.16316(4) 0.71799(5) 0.67045(17)
C8 C 0.14861(5) 0.65078(5) 0.66400(18)
C9 C 0.16332(5) 0.60883(5) 0.82362(19)
H5 H 0.1841 0.6246 0.9401
C10 C 0.14802(5) 0.54569(5) 0.8127(2)
H6 H 0.1581 0.5185 0.9221
C11 C 0.11780(6) 0.52089(5) 0.6428(2)
H7 H 0.1070 0.4772 0.6373
C12 C 0.10382(5) 0.55998(5) 0.4841(2)
H8 H 0.0838 0.5430 0.3679
C13 C 0.11873(5) 0.62526(5) 0.49064(18)
C14 C 0.10411(5) 0.66629(5) 0.32702(18)
H9 H 0.0840 0.6494 0.2109
C15 C 0.11828(5) 0.72891(5) 0.33340(17)
H10 H 0.1081 0.7548 0.2211
C16 C 0.14818(5) 0.75696(5) 0.50507(16)
C17 C 0.16319(4) 0.82401(5) 0.51090(17)
C18 C 0.14980(5) 0.86610(5) 0.35087(17)
H11 H 0.1304 0.8498 0.2326
C19 C 0.14534(5) 0.97328(5) 0.18816(17)
H12 H 0.1350 0.9462 0.0692
C20 C 0.19794(6) 1.01883(5) 0.12577(18)
H13 H 0.2370 0.9950 0.1013
H14 H 0.2051 1.0497 0.2335
H15 H 0.1855 1.0411 0.0025
C21 C 0.08551(6) 1.01031(6) 0.2446(2)
H16 H 0.0946 1.0379 0.3597
H17 H 0.0517 0.9806 0.2805
H18 H 0.0720 1.0361 0.1298
loop_
_geom_bond_atom_site_label_1
_geom_bond_atom_site_label_2
_geom_bond_site_symmetry_1
_geom_bond_site_symmetry_2
C1 C2 1_555 1_555
C2 H1 1_555 1_555
C3 C2 1_555 1_555
H2 C3 1_555 1_555
C4 C3 1_555 1_555
C5 C4 1_555 1_555
H3 C5 1_555 1_555
C6 C5 1_555 1_555
H4 C6 1_555 1_555
C7 C6 1_555 1_555
C8 C7 1_555 1_555
C9 C8 1_555 1_555
H5 C9 1_555 1_555
C10 C9 1_555 1_555
H6 C10 1_555 1_555
C11 C10 1_555 1_555
H7 C11 1_555 1_555
C12 C11 1_555 1_555
H8 C12 1_555 1_555
C13 C8 1_555 1_555
C14 C13 1_555 1_555
H9 C14 1_555 1_555
C15 C14 1_555 1_555
H10 C15 1_555 1_555
C16 C7 1_555 1_555
C17 C4 1_555 1_555
C18 C1 1_555 1_555
H11 C18 1_555 1_555
C19 C1 1_555 1_555
H12 C19 1_555 1_555
C20 C19 1_555 1_555
H13 C20 1_555 1_555
H14 C20 1_555 1_555
H15 C20 1_555 1_555
C21 C19 1_555 1_555
H16 C21 1_555 1_555
H17 C21 1_555 1_555
H18 C21 1_555 1_555
C12 C13 1_555 1_555
C15 C16 1_555 1_555
C16 C17 1_555 1_555
C17 C18 1_555 1_555

#END
