
#######################################################################
#
#                 Cambridge Crystallographic Data Centre
#                                CCDC 
#
#######################################################################
#
# If this CIF has been generated from an entry in the Cambridge 
# Structural Database, then it will include bibliographic, chemical, 
# crystal, experimental, refinement or atomic coordinate data resulting 
# from the CCDC's data processing and validation procedures.
#
#######################################################################

data_NOHLIH
_chemical_formula_moiety         'C19 H20 N4'
_chemical_name_systematic        
3,5-dimethyl-4-((4-methylphenyl)carbonohydrazonoyl)-1-phenyl-1H-pyrazole
_symmetry_cell_setting           monoclinic
_symmetry_space_group_name_H-M   'P c'
_symmetry_Int_Tables_number      7
_space_group_name_Hall           'P -2yc'
loop_
_symmetry_equiv_pos_site_id
_symmetry_equiv_pos_as_xyz
1 x,y,z
2 x,-y,1/2+z
_cell_length_a                   13.354(5)
_cell_length_b                   5.8568(19)
_cell_length_c                   11.650(4)
_cell_angle_alpha                90
_cell_angle_beta                 113.512(6)
_cell_angle_gamma                90
_cell_volume                     835.518
_exptl_crystal_colour            colorless
_exptl_crystal_description       block
_cell_formula_units_Z            2
loop_
_atom_site_label
_atom_site_type_symbol
_atom_site_fract_x
_atom_site_fract_y
_atom_site_fract_z
N1 N 1.10961(13) 0.4434(3) 0.77609(15)
C1 C 1.07391(15) 0.5568(3) 0.66524(18)
N2 N 1.04736(14) 0.2529(3) 0.77079(16)
C2 C 0.98471(14) 0.4373(3) 0.58430(18)
N3 N 0.84086(13) 0.3756(3) 0.38320(15)
C3 C 1.19822(15) 0.4981(3) 0.89123(17)
N4 N 0.78791(15) 0.4491(3) 0.26276(17)
H1 H 0.7999 0.5839 0.2418
C4 C 0.97198(15) 0.2504(3) 0.65424(19)
C5 C 0.92245(16) 0.4954(3) 0.45384(19)
H2 H 0.9424 0.6234 0.4206
C6 C 0.71442(15) 0.3051(3) 0.17404(18)
C7 C 0.56713(15) 0.0193(3) -0.01114(19)
C8 C 1.13279(16) 0.7610(3) 0.6461(2)
H3 H 1.2088 0.7254 0.6719
H4 H 1.1249 0.8862 0.6950
H5 H 1.1024 0.8023 0.5591
C9 C 0.67952(16) 0.3599(3) 0.04786(19)
H6 H 0.7046 0.4924 0.0240
C10 C 0.60318(16) -0.0323(4) 0.11525(19)
H7 H 0.5782 -0.1650 0.1389
C11 C 1.2793(2) 0.7398(4) 1.0686(2)
H8 H 1.2780 0.8724 1.1119
C12 C 0.89018(18) 0.0613(3) 0.6131(2)
H9 H 0.9055 -0.0460 0.6803
H10 H 0.8943 -0.0146 0.5421
H11 H 0.8182 0.1229 0.5905
C13 C 1.19542(18) 0.6949(3) 0.9548(2)
H12 H 1.1374 0.7964 0.9212
C14 C 0.67508(16) 0.1071(4) 0.20723(18)
H13 H 0.6971 0.0684 0.2912
C15 C 0.4885(2) -0.1329(4) -0.1106(2)
H14 H 0.4386 -0.2009 -0.0799
H15 H 0.5284 -0.2508 -0.1314
H16 H 0.4485 -0.0441 -0.1839
C16 C 1.28479(17) 0.3489(4) 0.9403(2)
H17 H 1.2868 0.2167 0.8970
C17 C 0.60758(18) 0.2177(3) -0.04232(19)
H18 H 0.5857 0.2561 -0.1263
C18 C 1.3647(2) 0.5901(4) 1.1183(2)
H19 H 1.4203 0.6199 1.1960
C19 C 1.36847(18) 0.3970(4) 1.0542(2)
H20 H 1.4275 0.2979 1.0873
loop_
_geom_bond_atom_site_label_1
_geom_bond_atom_site_label_2
_geom_bond_site_symmetry_1
_geom_bond_site_symmetry_2
N1 C1 1_555 1_555
C1 C2 1_555 1_555
N2 N1 1_555 1_555
C2 C4 1_555 1_555
N3 N4 1_555 1_555
C3 N1 1_555 1_555
N4 H1 1_555 1_555
C4 N2 1_555 1_555
C5 C2 1_555 1_555
H2 C5 1_555 1_555
C6 N4 1_555 1_555
C7 C10 1_555 1_555
C8 C1 1_555 1_555
H3 C8 1_555 1_555
H4 C8 1_555 1_555
H5 C8 1_555 1_555
C9 C6 1_555 1_555
H6 C9 1_555 1_555
C10 H7 1_555 1_555
C11 H8 1_555 1_555
C12 C4 1_555 1_555
H9 C12 1_555 1_555
H10 C12 1_555 1_555
H11 C12 1_555 1_555
C13 C3 1_555 1_555
H12 C13 1_555 1_555
C14 C6 1_555 1_555
H13 C14 1_555 1_555
C15 C7 1_555 1_555
H14 C15 1_555 1_555
H15 C15 1_555 1_555
H16 C15 1_555 1_555
C16 C3 1_555 1_555
H17 C16 1_555 1_555
C17 C7 1_555 1_555
H18 C17 1_555 1_555
C18 C11 1_555 1_555
H19 C18 1_555 1_555
C19 C16 1_555 1_555
H20 C19 1_555 1_555
N3 C5 1_555 1_555
C9 C17 1_555 1_555
C10 C14 1_555 1_555
C11 C13 1_555 1_555
C18 C19 1_555 1_555

#END
