
#######################################################################
#
#                 Cambridge Crystallographic Data Centre
#                                CCDC 
#
#######################################################################
#
# If this CIF has been generated from an entry in the Cambridge 
# Structural Database, then it will include bibliographic, chemical, 
# crystal, experimental, refinement or atomic coordinate data resulting 
# from the CCDC's data processing and validation procedures.
#
#######################################################################

data_NOHVAI
_chemical_formula_moiety         'C21 H17 N1 O2 S1,H2 O1'
_chemical_name_systematic        
'2-(2-(4-Hydroxyphenyl)-2,3-dihydro-1,5-benzothiazepin-5-ium-4-yl)phenolate monohydrate'
_symmetry_cell_setting           orthorhombic
_symmetry_space_group_name_H-M   'P b c n'
_symmetry_Int_Tables_number      60
_space_group_name_Hall           '-P 2n 2ab'
loop_
_symmetry_equiv_pos_site_id
_symmetry_equiv_pos_as_xyz
1 x,y,z
2 1/2+x,1/2-y,-z
3 -x,y,1/2-z
4 1/2-x,1/2-y,1/2+z
5 -x,-y,-z
6 1/2-x,1/2+y,z
7 x,-y,1/2+z
8 1/2+x,1/2+y,1/2-z
_cell_length_a                   17.4077(18)
_cell_length_b                   8.6316(9)
_cell_length_c                   24.518(3)
_cell_angle_alpha                90
_cell_angle_beta                 90
_cell_angle_gamma                90
_cell_volume                     3683.98
_exptl_crystal_colour            yellow
_exptl_crystal_description       block
_cell_formula_units_Z            8
loop_
_atom_site_label
_atom_site_type_symbol
_atom_site_fract_x
_atom_site_fract_y
_atom_site_fract_z
S1 S 0.62265(5) 0.08328(10) 0.70217(3)
O1 O 0.62404(13) 0.6929(3) 0.86651(10)
H1 H 0.6589 0.7000 0.8895
O2 O 0.75073(13) 0.0046(3) 0.51455(8)
N1 N 0.66109(14) 0.1321(3) 0.57917(10)
H2 H 0.6729 0.0747 0.5512
C1 C 0.55922(18) 0.1329(4) 0.64833(13)
C2 C 0.58270(17) 0.1411(4) 0.59368(13)
C3 C 0.52870(19) 0.1533(4) 0.55239(14)
H3 H 0.5447 0.1553 0.5158
C4 C 0.4514(2) 0.1626(5) 0.56486(17)
H4 H 0.4150 0.1718 0.5368
C5 C 0.4279(2) 0.1585(5) 0.61816(18)
H5 H 0.3753 0.1663 0.6265
C6 C 0.4809(2) 0.1428(4) 0.65962(16)
H6 H 0.4639 0.1387 0.6960
C7 C 0.69255(18) 0.2438(3) 0.70513(12)
H7 H 0.7431 0.1980 0.7144
C8 C 0.70018(17) 0.3168(3) 0.64863(11)
H8 H 0.6523 0.3711 0.6399
H9 H 0.7414 0.3940 0.6496
C9 C 0.71707(17) 0.2023(3) 0.60399(11)
C10 C 0.67441(17) 0.3622(3) 0.74839(12)
C11 C 0.72460(18) 0.3876(4) 0.79108(12)
H10 H 0.7704 0.3300 0.7929
C12 C 0.70904(18) 0.4962(4) 0.83141(12)
H11 H 0.7437 0.5103 0.8604
C13 C 0.64299(18) 0.5829(4) 0.82893(13)
C14 C 0.59280(19) 0.5606(4) 0.78594(14)
H12 H 0.5479 0.6209 0.7835
C15 C 0.60800(19) 0.4507(4) 0.74651(14)
H13 H 0.5728 0.4355 0.7180
C16 C 0.79486(17) 0.1668(3) 0.58758(12)
C17 C 0.80855(18) 0.0630(4) 0.54351(12)
C18 C 0.8846(2) 0.0217(4) 0.53174(14)
H14 H 0.8947 -0.0473 0.5030
C19 C 0.9443(2) 0.0802(5) 0.56143(15)
H15 H 0.9947 0.0489 0.5532
C20 C 0.93196(19) 0.1849(4) 0.60353(15)
H16 H 0.9736 0.2263 0.6231
C21 C 0.85802(19) 0.2270(4) 0.61610(13)
H17 H 0.8495 0.2981 0.6445
O3 O 0.73460(19) 0.7321(3) 0.94089(11)
H18 H 0.736(3) 0.669(4) 0.9661(14)
H19 H 0.736(3) 0.818(3) 0.9555(18)
loop_
_geom_bond_atom_site_label_1
_geom_bond_atom_site_label_2
_geom_bond_site_symmetry_1
_geom_bond_site_symmetry_2
S1 C1 1_555 1_555
O1 H1 1_555 1_555
O2 C17 1_555 1_555
N1 H2 1_555 1_555
C1 C2 1_555 1_555
C2 N1 1_555 1_555
C3 C2 1_555 1_555
H3 C3 1_555 1_555
C4 C3 1_555 1_555
H4 C4 1_555 1_555
C5 C4 1_555 1_555
H5 C5 1_555 1_555
C6 C1 1_555 1_555
H6 C6 1_555 1_555
C7 S1 1_555 1_555
H7 C7 1_555 1_555
C8 C7 1_555 1_555
H8 C8 1_555 1_555
H9 C8 1_555 1_555
C9 N1 1_555 1_555
C10 C7 1_555 1_555
C11 C10 1_555 1_555
H10 C11 1_555 1_555
C12 C11 1_555 1_555
H11 C12 1_555 1_555
C13 O1 1_555 1_555
C14 C13 1_555 1_555
H12 C14 1_555 1_555
C15 C10 1_555 1_555
H13 C15 1_555 1_555
C16 C9 1_555 1_555
C17 C16 1_555 1_555
C18 C17 1_555 1_555
H14 C18 1_555 1_555
C19 C18 1_555 1_555
H15 C19 1_555 1_555
C20 C19 1_555 1_555
H16 C20 1_555 1_555
C21 C16 1_555 1_555
H17 C21 1_555 1_555
O3 H18 1_555 1_555
H19 O3 1_555 1_555
C5 C6 1_555 1_555
C8 C9 1_555 1_555
C12 C13 1_555 1_555
C14 C15 1_555 1_555
C20 C21 1_555 1_555

#END
