
#######################################################################
#
#                 Cambridge Crystallographic Data Centre
#                                CCDC 
#
#######################################################################
#
# If this CIF has been generated from an entry in the Cambridge 
# Structural Database, then it will include bibliographic, chemical, 
# crystal, experimental, refinement or atomic coordinate data resulting 
# from the CCDC's data processing and validation procedures.
#
#######################################################################

data_NOJNIL01
_chemical_compound_source        'Penicillium adametzioides'
_chemical_name_common            
'4-chloro-3,7-dihydroxy-13-(2-hydroxy-3,4-dimethoxyphenyl)-17-methyl-9-oxa-14,15-dithia-10,17-diazatetracyclo[10.3.2.0$1,10!.0$3,8!]heptadec-5-ene-11,16-dione hydrate'
_chemical_formula_moiety         'C21 H23 Cl1 N2 O8 S2,2(H2 O1)'
_chemical_name_systematic        
(3S,4S,7aS,8R,11R,11aR,12aR)-11-chloro-8,11a-dihydroxy-3-(2-hydroxy-3,4-dimethoxyphenyl)-14-methyl-3,4,7a,8,11a,12-hexahydro-4,12a-(epiminomethano)benzo[5,6][1,2]oxazino[3,2-c][1,2,4]dithiazepine-5,13(11H)-dione
_chemical_properties_biological  'antimicrobial activity'
_symmetry_cell_setting           orthorhombic
_symmetry_space_group_name_H-M   'P 21 21 21'
_symmetry_Int_Tables_number      19
_space_group_name_Hall           'P 2ac 2ab'
loop_
_symmetry_equiv_pos_site_id
_symmetry_equiv_pos_as_xyz
1 x,y,z
2 1/2-x,-y,1/2+z
3 -x,1/2+y,1/2-z
4 1/2+x,1/2-y,-z
_cell_length_a                   12.1222(9)
_cell_length_b                   12.1222(11)
_cell_length_c                   16.3859(16)
_cell_angle_alpha                90
_cell_angle_beta                 90
_cell_angle_gamma                90
_cell_volume                     2407.87
_exptl_crystal_colour            colorless
_exptl_crystal_description       needle
_cell_formula_units_Z            4
loop_
_atom_site_label
_atom_site_type_symbol
_atom_site_fract_x
_atom_site_fract_y
_atom_site_fract_z
S1 S 0.64157(9) 0.14557(9) 0.48445(7)
S2 S 0.67872(9) 0.30676(9) 0.50057(8)
Cl1 Cl 0.47493(13) -0.20919(10) 0.62323(8)
N1 N 0.4105(3) 0.2614(3) 0.42540(19)
N2 N 0.4707(3) 0.2252(3) 0.58339(19)
O1 O 0.3994(3) 0.0764(3) 0.40684(17)
O2 O 0.4425(3) 0.4064(2) 0.61126(19)
O3 O 0.5083(2) 0.2105(2) 0.66378(16)
O4 O 0.6226(2) 0.0112(3) 0.65188(18)
H1 H 0.6445 0.0221 0.6985
O5 O 0.3016(3) 0.1996(3) 0.7613(2)
H2 H 0.3547 0.2203 0.7883
O6 O 0.5062(3) 0.5407(2) 0.33482(19)
H3 H 0.4925 0.5903 0.3023
O7 O 0.5745(3) 0.7580(2) 0.33727(19)
O8 O 0.7038(3) 0.8326(2) 0.4598(2)
C1 C 0.4293(3) 0.1562(4) 0.4463(3)
C2 C 0.4552(3) 0.3538(3) 0.4710(2)
H4 H 0.4080 0.4179 0.4605
C3 C 0.4546(3) 0.3331(4) 0.5621(3)
C4 C 0.4953(3) 0.1388(3) 0.5254(2)
C5 C 0.4726(4) 0.0256(3) 0.5614(2)
H5 H 0.5121 -0.0290 0.5294
H6 H 0.3945 0.0100 0.5563
C6 C 0.5056(4) 0.0127(4) 0.6509(3)
C7 C 0.4607(4) -0.0925(3) 0.6901(3)
H7 H 0.5062 -0.1075 0.7382
C8 C 0.3436(5) -0.0853(5) 0.7188(3)
H8 H 0.3068 -0.1506 0.7308
C9 C 0.2899(4) 0.0079(5) 0.7281(3)
H9 H 0.2193 0.0055 0.7502
C10 C 0.3362(4) 0.1171(4) 0.7050(3)
H10 H 0.3070 0.1366 0.6512
C11 C 0.4619(4) 0.1124(3) 0.6987(2)
H11 H 0.4907 0.1064 0.7545
C12 C 0.5742(3) 0.3843(3) 0.4442(3)
H12 H 0.5819 0.3667 0.3861
C13 C 0.6036(4) 0.5051(3) 0.4563(3)
C14 C 0.5700(3) 0.5812(4) 0.3969(3)
C15 C 0.6027(4) 0.6895(4) 0.4009(3)
C16 C 0.6697(4) 0.7240(4) 0.4635(3)
C17 C 0.7010(4) 0.6527(4) 0.5253(3)
H13 H 0.7441 0.6768 0.5688
C18 C 0.6659(4) 0.5442(4) 0.5200(3)
H14 H 0.6854 0.4956 0.5615
C19 C 0.3562(4) 0.2869(4) 0.3467(3)
H15 H 0.3435 0.2197 0.3172
H16 H 0.4028 0.3346 0.3152
H17 H 0.2870 0.3229 0.3569
C20 C 0.4981(5) 0.8451(4) 0.3549(3)
H18 H 0.4280 0.8141 0.3696
H19 H 0.4896 0.8910 0.3076
H20 H 0.5257 0.8886 0.3994
C21 C 0.7818(5) 0.8691(4) 0.5203(4)
H21 H 0.7501 0.8609 0.5736
H22 H 0.7995 0.9452 0.5110
H23 H 0.8477 0.8255 0.5165
O9 O 0.7175(3) 0.0412(3) 0.8100(2)
H24 H 0.6686 -0.0016 0.8293
H25 H 0.7437 0.0794 0.8489
O10 O 0.3755(4) 0.6552(4) 0.2280(3)
H26 H 0.3664 0.6451 0.1772
H27 H 0.3431 0.6037 0.2538
loop_
_geom_bond_atom_site_label_1
_geom_bond_atom_site_label_2
_geom_bond_site_symmetry_1
_geom_bond_site_symmetry_2
S1 S2 1_555 1_555
S2 C12 1_555 1_555
Cl1 C7 1_555 1_555
N1 C1 1_555 1_555
N2 O3 1_555 1_555
O1 C1 1_555 1_555
O2 C3 1_555 1_555
O3 C11 1_555 1_555
O4 H1 1_555 1_555
O5 H2 1_555 1_555
O6 H3 1_555 1_555
O7 C15 1_555 1_555
O8 C16 1_555 1_555
C1 C4 1_555 1_555
C2 N1 1_555 1_555
H4 C2 1_555 1_555
C3 N2 1_555 1_555
C4 S1 1_555 1_555
C5 C4 1_555 1_555
H5 C5 1_555 1_555
H6 C5 1_555 1_555
C6 O4 1_555 1_555
C7 C6 1_555 1_555
H7 C7 1_555 1_555
C8 C7 1_555 1_555
H8 C8 1_555 1_555
C9 C8 1_555 1_555
H9 C9 1_555 1_555
C10 O5 1_555 1_555
H10 C10 1_555 1_555
C11 C6 1_555 1_555
H11 C11 1_555 1_555
C12 C2 1_555 1_555
H12 C12 1_555 1_555
C13 C12 1_555 1_555
C14 O6 1_555 1_555
C15 C14 1_555 1_555
C16 C15 1_555 1_555
C17 C16 1_555 1_555
H13 C17 1_555 1_555
C18 C13 1_555 1_555
H14 C18 1_555 1_555
C19 N1 1_555 1_555
H15 C19 1_555 1_555
H16 C19 1_555 1_555
H17 C19 1_555 1_555
C20 O7 1_555 1_555
H18 C20 1_555 1_555
H19 C20 1_555 1_555
H20 C20 1_555 1_555
C21 O8 1_555 1_555
H21 C21 1_555 1_555
H22 C21 1_555 1_555
H23 C21 1_555 1_555
O9 H24 1_555 1_555
H25 O9 1_555 1_555
O10 H26 1_555 1_555
H27 O10 1_555 1_555
N2 C4 1_555 1_555
C2 C3 1_555 1_555
C5 C6 1_555 1_555
C9 C10 1_555 1_555
C10 C11 1_555 1_555
C13 C14 1_555 1_555
C17 C18 1_555 1_555

#END
