
#######################################################################
#
#                 Cambridge Crystallographic Data Centre
#                                CCDC 
#
#######################################################################
#
# If this CIF has been generated from an entry in the Cambridge 
# Structural Database, then it will include bibliographic, chemical, 
# crystal, experimental, refinement or atomic coordinate data resulting 
# from the CCDC's data processing and validation procedures.
#
#######################################################################

data_NOJZAP
_chemical_formula_moiety         'C19 H21 B1 O3'
_chemical_name_systematic        
9-(2-Naphthyl)-2,8,10-trioxa-9-boratricyclo[5.3.3.0^1,7^]tridecane
_symmetry_cell_setting           monoclinic
_symmetry_space_group_name_H-M   'P 21/n'
_symmetry_Int_Tables_number      14
_space_group_name_Hall           '-P 2yn'
loop_
_symmetry_equiv_pos_site_id
_symmetry_equiv_pos_as_xyz
1 x,y,z
2 1/2-x,1/2+y,1/2-z
3 -x,-y,-z
4 1/2+x,1/2-y,1/2+z
_cell_length_a                   11.2927(10)
_cell_length_b                   10.9965(10)
_cell_length_c                   13.6864(13)
_cell_angle_alpha                90
_cell_angle_beta                 107.263(3)
_cell_angle_gamma                90
_cell_volume                     1623.02
_cell_formula_units_Z            4
loop_
_atom_site_label
_atom_site_type_symbol
_atom_site_fract_x
_atom_site_fract_y
_atom_site_fract_z
O1 O 0.8917(5) 0.8299(4) 0.2502(3)
O2 O 0.9049(4) 0.8726(4) 0.0914(3)
O3 O 0.8689(6) 0.6782(5) 0.0300(4)
B1 B 0.9385(7) 0.9041(6) 0.1914(5)
C1 C 1.1404(5) 1.1408(5) 0.3791(4)
C2 C 1.1859(7) 1.1621(7) 0.4855(5)
H1 H 1.1738 1.1054 0.5321
C3 C 1.2476(7) 1.2673(8) 0.5180(6)
H2 H 1.2763 1.2831 0.5878
C4 C 1.2698(6) 1.3539(6) 0.4489(6)
H3 H 1.3127 1.4249 0.4743
C5 C 1.2307(5) 1.3355(6) 0.3487(6)
H4 H 1.2461 1.3928 0.3041
C6 C 1.1632(5) 1.2242(5) 0.3095(4)
C7 C 1.1220(5) 1.2018(5) 0.2035(5)
H5 H 1.1400 1.2569 0.1584
C8 C 1.0564(5) 1.1006(5) 0.1674(4)
H6 H 1.0310 1.0860 0.0973
C9 C 1.0251(5) 1.0157(5) 0.2341(4)
C10 C 1.0686(5) 1.0347(5) 0.3370(4)
H7 H 1.0515 0.9777 0.3812
C11 C 0.8262(7) 0.7679(5) 0.0755(5)
C12 C 0.6973(8) 0.8057(9) 0.0073(6)
H8 H 0.6544 0.7362 -0.0310
H9 H 0.7047 0.8678 -0.0408
C13 C 0.6247(8) 0.8555(9) 0.0785(8)
H10 H 0.6430 0.9410 0.0929
H11 H 0.5361 0.8465 0.0468
C14 C 0.6665(6) 0.7816(6) 0.1756(7)
H12 H 0.6150 0.7100 0.1712
H13 H 0.6636 0.8295 0.2343
C15 C 0.8097(8) 0.7435(7) 0.1835(5)
C16 C 0.8322(10) 0.6252(8) 0.2272(6)
H14 H 0.7746 0.5683 0.1836
H15 H 0.8173 0.6257 0.2934
C17 C 0.9686(6) 0.5811(6) 0.2407(6)
H16 H 1.0237 0.6432 0.2796
H17 H 0.9817 0.5088 0.2832
C18 C 1.0102(8) 0.5531(8) 0.1535(6)
H18 H 1.0987 0.5377 0.1778
H19 H 0.9705 0.4781 0.1236
C19 C 0.9882(7) 0.6424(6) 0.0742(6)
H20 H 1.0367 0.7140 0.1021
H21 H 1.0200 0.6108 0.0207
loop_
_geom_bond_atom_site_label_1
_geom_bond_atom_site_label_2
_geom_bond_site_symmetry_1
_geom_bond_site_symmetry_2
O1 B1 1_555 1_555
O2 B1 1_555 1_555
O3 C11 1_555 1_555
B1 C9 1_555 1_555
C1 C2 1_555 1_555
C2 H1 1_555 1_555
C3 C2 1_555 1_555
H2 C3 1_555 1_555
C4 C3 1_555 1_555
H3 C4 1_555 1_555
C5 C4 1_555 1_555
H4 C5 1_555 1_555
C6 C1 1_555 1_555
C7 C6 1_555 1_555
H5 C7 1_555 1_555
C8 C7 1_555 1_555
H6 C8 1_555 1_555
C9 C8 1_555 1_555
C10 C1 1_555 1_555
H7 C10 1_555 1_555
C11 O2 1_555 1_555
C12 C11 1_555 1_555
H8 C12 1_555 1_555
H9 C12 1_555 1_555
C13 C12 1_555 1_555
H10 C13 1_555 1_555
H11 C13 1_555 1_555
C14 C13 1_555 1_555
H12 C14 1_555 1_555
H13 C14 1_555 1_555
C15 O1 1_555 1_555
C16 C15 1_555 1_555
H14 C16 1_555 1_555
H15 C16 1_555 1_555
C17 C16 1_555 1_555
H16 C17 1_555 1_555
H17 C17 1_555 1_555
C18 C17 1_555 1_555
H18 C18 1_555 1_555
H19 C18 1_555 1_555
C19 O3 1_555 1_555
H20 C19 1_555 1_555
H21 C19 1_555 1_555
C5 C6 1_555 1_555
C9 C10 1_555 1_555
C11 C15 1_555 1_555
C14 C15 1_555 1_555
C18 C19 1_555 1_555

#END
