
#######################################################################
#
#                 Cambridge Crystallographic Data Centre
#                                CCDC 
#
#######################################################################
#
# If this CIF has been generated from an entry in the Cambridge 
# Structural Database, then it will include bibliographic, chemical, 
# crystal, experimental, refinement or atomic coordinate data resulting 
# from the CCDC's data processing and validation procedures.
#
#######################################################################

data_NOLCIB
_chemical_formula_moiety         'C15 H16 Cl1 N3 O1'
_chemical_name_systematic        
5-Chloro-2-ethyl-3-isopropyl-3H-imidazo[4,5-b]quinolin-9-ol
_symmetry_cell_setting           monoclinic
_symmetry_space_group_name_H-M   'P 21/n'
_symmetry_Int_Tables_number      14
_space_group_name_Hall           '-P 2yn'
loop_
_symmetry_equiv_pos_site_id
_symmetry_equiv_pos_as_xyz
1 x,y,z
2 1/2-x,1/2+y,1/2-z
3 -x,-y,-z
4 1/2+x,1/2-y,1/2+z
_cell_length_a                   7.3072(7)
_cell_length_b                   14.1856(14)
_cell_length_c                   14.0655(15)
_cell_angle_alpha                90
_cell_angle_beta                 95.725(2)
_cell_angle_gamma                90
_cell_volume                     1450.72
_exptl_crystal_colour            silver
_exptl_crystal_description       block
_chemical_melting_point          '253.0-255.0 deg.C'
_cell_formula_units_Z            4
loop_
_atom_site_label
_atom_site_type_symbol
_atom_site_fract_x
_atom_site_fract_y
_atom_site_fract_z
N1 N 0.9511(2) 0.12960(14) 0.98928(14)
C1 C 0.9673(3) 0.22127(17) 0.99919(18)
N2 N 0.8111(3) 0.26833(13) 0.96343(15)
C2 C 0.6859(3) 0.20052(16) 0.92721(16)
N3 N 0.5180(3) 0.21673(14) 0.88621(14)
C3 C 0.4264(3) 0.13630(16) 0.85861(16)
C4 C 0.2434(3) 0.14223(18) 0.81323(18)
C5 C 0.1413(3) 0.0640(2) 0.78761(19)
H1 H 0.0210 0.0706 0.7600
C6 C 0.2160(3) -0.02549(19) 0.8025(2)
H2 H 0.1457 -0.0785 0.7848
C7 C 0.3925(3) -0.03577(18) 0.84327(19)
H3 H 0.4417 -0.0959 0.8524
C8 C 0.5010(3) 0.04327(16) 0.87177(17)
C9 C 0.6844(3) 0.03168(17) 0.91597(17)
C10 C 0.7757(3) 0.11365(16) 0.94370(17)
O1 O 0.7505(2) -0.05473(12) 0.92521(15)
H4 H 0.8562 -0.0529 0.9509
C11 C 1.1361(3) 0.26899(18) 1.0454(2)
H5 H 1.2427 0.2306 1.0362
H6 H 1.1510 0.3291 1.0143
C12 C 1.1288(5) 0.2852(3) 1.1500(2)
H7 H 1.2395 0.3161 1.1760
H8 H 1.1173 0.2258 1.1816
H9 H 1.0247 0.3242 1.1596
C13 C 0.7770(4) 0.37039(19) 0.9652(2)
H10 H 0.8933 0.3958 0.9954
C14 C 0.6457(8) 0.3944(3) 1.0332(4)
H11 H 0.6781 0.3618 1.0923
H12 H 0.5243 0.3761 1.0076
H13 H 0.6485 0.4612 1.0444
C15 C 0.7621(6) 0.4131(2) 0.8692(3)
H14 H 0.8623 0.3919 0.8355
H15 H 0.7666 0.4806 0.8750
H16 H 0.6477 0.3948 0.8347
Cl1 Cl 0.14940(9) 0.25276(5) 0.78998(6)
loop_
_geom_bond_atom_site_label_1
_geom_bond_atom_site_label_2
_geom_bond_site_symmetry_1
_geom_bond_site_symmetry_2
N1 C1 1_555 1_555
C1 N2 1_555 1_555
N2 C2 1_555 1_555
C2 N3 1_555 1_555
N3 C3 1_555 1_555
C3 C4 1_555 1_555
C4 C5 1_555 1_555
C5 H1 1_555 1_555
C6 C5 1_555 1_555
H2 C6 1_555 1_555
C7 C6 1_555 1_555
H3 C7 1_555 1_555
C8 C3 1_555 1_555
C9 C8 1_555 1_555
C10 N1 1_555 1_555
O1 C9 1_555 1_555
H4 O1 1_555 1_555
C11 C1 1_555 1_555
H5 C11 1_555 1_555
H6 C11 1_555 1_555
C12 C11 1_555 1_555
H7 C12 1_555 1_555
H8 C12 1_555 1_555
H9 C12 1_555 1_555
C13 N2 1_555 1_555
H10 C13 1_555 1_555
C14 C13 1_555 1_555
H11 C14 1_555 1_555
H12 C14 1_555 1_555
H13 C14 1_555 1_555
C15 C13 1_555 1_555
H14 C15 1_555 1_555
H15 C15 1_555 1_555
H16 C15 1_555 1_555
Cl1 C4 1_555 1_555
C2 C10 1_555 1_555
C7 C8 1_555 1_555
C9 C10 1_555 1_555

#END
