
#######################################################################
#
#                 Cambridge Crystallographic Data Centre
#                                CCDC 
#
#######################################################################
#
# If this CIF has been generated from an entry in the Cambridge 
# Structural Database, then it will include bibliographic, chemical, 
# crystal, experimental, refinement or atomic coordinate data resulting 
# from the CCDC's data processing and validation procedures.
#
#######################################################################

data_NOLCUN
_chemical_formula_moiety         'C15 H16 Cl1 N3 O1'
_chemical_name_systematic        
6-Chloro-3-ethyl-N-isopropylisoxazolo[4,5-c]quinolin-4-amine
_symmetry_cell_setting           tetragonal
_symmetry_space_group_name_H-M   'I 41/a'
_symmetry_Int_Tables_number      88
_space_group_name_Hall           '-I 4ad'
loop_
_symmetry_equiv_pos_site_id
_symmetry_equiv_pos_as_xyz
1 x,y,z
2 1/2-x,-y,1/2+z
3 3/4-y,1/4+x,1/4+z
4 3/4+y,3/4-x,3/4+z
5 1/2+x,1/2+y,1/2+z
6 -x,1/2-y,z
7 1/4-y,3/4+x,3/4+z
8 1/4+y,1/4-x,1/4+z
9 -x,-y,-z
10 1/2+x,y,1/2-z
11 1/4+y,3/4-x,3/4-z
12 1/4-y,1/4+x,1/4-z
13 1/2-x,1/2-y,1/2-z
14 x,1/2+y,-z
15 3/4+y,1/4-x,1/4-z
16 3/4-y,3/4+x,3/4-z
_cell_length_a                   27.6952(2)
_cell_length_b                   27.6952(2)
_cell_length_c                   15.2512(3)
_cell_angle_alpha                90
_cell_angle_beta                 90
_cell_angle_gamma                90
_cell_volume                     11698
_exptl_crystal_colour            silver
_exptl_crystal_description       block
_chemical_melting_point          '108.0-109.0 deg.C'
_cell_formula_units_Z            32
loop_
_atom_site_label
_atom_site_type_symbol
_atom_site_fract_x
_atom_site_fract_y
_atom_site_fract_z
O1 O -0.05961(6) -0.05350(7) 0.14100(13)
N1 N -0.04378(8) -0.09917(8) 0.17395(17)
C1 C 0.00296(9) -0.09593(9) 0.18446(18)
C2 C 0.02002(8) -0.04914(8) 0.15951(17)
C3 C 0.06546(8) -0.02441(9) 0.15416(17)
N2 N 0.06809(7) 0.02056(7) 0.12605(15)
C4 C 0.02654(9) 0.04361(9) 0.10005(17)
C5 C 0.02948(11) 0.09136(9) 0.0685(2)
C6 C -0.01039(13) 0.11568(11) 0.0395(2)
H1 H -0.0070 0.1469 0.0179
C7 C -0.05587(12) 0.09451(12) 0.0420(2)
H2 H -0.0827 0.1115 0.0223
C8 C -0.06103(10) 0.04873(11) 0.07329(19)
H3 H -0.0914 0.0345 0.0755
C9 C -0.02020(9) 0.02299(9) 0.10233(18)
C10 C -0.02042(9) -0.02509(9) 0.13329(19)
C11 C 0.03143(10) -0.13755(9) 0.2180(2)
H4 H 0.0491 -0.1272 0.2695
H5 H 0.0549 -0.1466 0.1738
C12 C 0.00173(12) -0.18197(10) 0.2417(3)
H6 H 0.0228 -0.2070 0.2627
H7 H -0.0152 -0.1932 0.1907
H8 H -0.0211 -0.1737 0.2866
N3 N 0.10678(7) -0.04686(7) 0.17833(16)
H9 H 0.1047 -0.0760 0.1975
C13 C 0.15451(9) -0.02483(10) 0.1740(2)
H10 H 0.1524 0.0083 0.1963
C14 C 0.17270(12) -0.02343(16) 0.0809(3)
H11 H 0.1508 -0.0050 0.0454
H12 H 0.1749 -0.0557 0.0584
H13 H 0.2040 -0.0086 0.0795
C15 C 0.18867(11) -0.05349(12) 0.2324(3)
H14 H 0.1764 -0.0539 0.2913
H15 H 0.2200 -0.0387 0.2318
H16 H 0.1911 -0.0860 0.2109
Cl1 Cl 0.08547(3) 0.11949(3) 0.06542(7)
O2 O 0.41685(7) 0.44362(8) 0.15295(15)
N4 N 0.43469(9) 0.39837(9) 0.18489(19)
C16 C 0.48158(10) 0.40271(10) 0.1896(2)
C17 C 0.49677(9) 0.44912(9) 0.16169(18)
C18 C 0.54172(9) 0.47418(9) 0.15036(17)
N5 N 0.54289(8) 0.51835(7) 0.11960(15)
C19 C 0.50056(10) 0.54052(9) 0.09827(18)
C20 C 0.50258(12) 0.58808(10) 0.0646(2)
C21 C 0.46145(16) 0.61261(13) 0.0421(2)
H17 H 0.4639 0.6438 0.0200
C22 C 0.41642(15) 0.59191(14) 0.0517(2)
H18 H 0.3889 0.6092 0.0365
C23 C 0.41232(11) 0.54599(13) 0.0835(2)
H19 H 0.3820 0.5319 0.0897
C24 C 0.45379(10) 0.52011(10) 0.10664(19)
C25 C 0.45515(9) 0.47255(10) 0.13963(19)
C26 C 0.51231(11) 0.36159(10) 0.2205(2)
H20 H 0.5358 0.3546 0.1751
H21 H 0.5301 0.3724 0.2717
C27 C 0.48791(14) 0.31638(12) 0.2432(3)
H22 H 0.5113 0.2932 0.2626
H23 H 0.4714 0.3041 0.1926
H24 H 0.4650 0.3222 0.2893
N6 N 0.58420(7) 0.45253(8) 0.17124(16)
H25 H 0.5833 0.4250 0.1973
C28 C 0.63143(9) 0.47364(10) 0.1517(2)
H26 H 0.6299 0.4884 0.0933
C29 C 0.64418(12) 0.51196(13) 0.2160(3)
H27 H 0.6202 0.5370 0.2144
H28 H 0.6751 0.5253 0.2015
H29 H 0.6454 0.4983 0.2739
C30 C 0.66824(11) 0.43367(13) 0.1492(3)
H30 H 0.6589 0.4101 0.1062
H31 H 0.6701 0.4186 0.2058
H32 H 0.6992 0.4468 0.1341
Cl2 Cl 0.55809(4) 0.61577(3) 0.05275(8)
loop_
_geom_bond_atom_site_label_1
_geom_bond_atom_site_label_2
_geom_bond_site_symmetry_1
_geom_bond_site_symmetry_2
O1 N1 1_555 1_555
N1 C1 1_555 1_555
C1 C2 1_555 1_555
C2 C3 1_555 1_555
C3 N2 1_555 1_555
N2 C4 1_555 1_555
C4 C5 1_555 1_555
C5 C6 1_555 1_555
C6 H1 1_555 1_555
C7 C6 1_555 1_555
H2 C7 1_555 1_555
C8 C7 1_555 1_555
H3 C8 1_555 1_555
C9 C4 1_555 1_555
C10 O1 1_555 1_555
C11 C1 1_555 1_555
H4 C11 1_555 1_555
H5 C11 1_555 1_555
C12 C11 1_555 1_555
H6 C12 1_555 1_555
H7 C12 1_555 1_555
H8 C12 1_555 1_555
N3 C3 1_555 1_555
H9 N3 1_555 1_555
C13 N3 1_555 1_555
H10 C13 1_555 1_555
C14 C13 1_555 1_555
H11 C14 1_555 1_555
H12 C14 1_555 1_555
H13 C14 1_555 1_555
C15 C13 1_555 1_555
H14 C15 1_555 1_555
H15 C15 1_555 1_555
H16 C15 1_555 1_555
Cl1 C5 1_555 1_555
O2 N4 1_555 1_555
N4 C16 1_555 1_555
C16 C17 1_555 1_555
C17 C18 1_555 1_555
C18 N5 1_555 1_555
N5 C19 1_555 1_555
C19 C20 1_555 1_555
C20 C21 1_555 1_555
C21 H17 1_555 1_555
C22 C21 1_555 1_555
H18 C22 1_555 1_555
C23 C22 1_555 1_555
H19 C23 1_555 1_555
C24 C19 1_555 1_555
C25 O2 1_555 1_555
C26 C16 1_555 1_555
H20 C26 1_555 1_555
H21 C26 1_555 1_555
C27 C26 1_555 1_555
H22 C27 1_555 1_555
H23 C27 1_555 1_555
H24 C27 1_555 1_555
N6 C18 1_555 1_555
H25 N6 1_555 1_555
C28 N6 1_555 1_555
H26 C28 1_555 1_555
C29 C28 1_555 1_555
H27 C29 1_555 1_555
H28 C29 1_555 1_555
H29 C29 1_555 1_555
C30 C28 1_555 1_555
H30 C30 1_555 1_555
H31 C30 1_555 1_555
H32 C30 1_555 1_555
Cl2 C20 1_555 1_555
C2 C10 1_555 1_555
C8 C9 1_555 1_555
C9 C10 1_555 1_555
C17 C25 1_555 1_555
C23 C24 1_555 1_555
C24 C25 1_555 1_555

#END
