
#######################################################################
#
#                 Cambridge Crystallographic Data Centre
#                                CCDC 
#
#######################################################################
#
# If this CIF has been generated from an entry in the Cambridge 
# Structural Database, then it will include bibliographic, chemical, 
# crystal, experimental, refinement or atomic coordinate data resulting 
# from the CCDC's data processing and validation procedures.
#
#######################################################################

data_NOLCIA
_chemical_formula_moiety         'C4 H8 N2 O4'
_chemical_name_systematic        '(R,R)-(+)-Tartaric acid diamide'
_symmetry_cell_setting           orthorhombic
_symmetry_space_group_name_H-M   'P 21 21 21'
_symmetry_Int_Tables_number      19
_space_group_name_Hall           'P 2ac 2ab'
loop_
_symmetry_equiv_pos_site_id
_symmetry_equiv_pos_as_xyz
1 x,y,z
2 1/2-x,-y,1/2+z
3 1/2+x,1/2-y,-z
4 -x,1/2+y,1/2-z
_cell_length_a                   4.9250(6)
_cell_length_b                   10.060(1)
_cell_length_c                   12.224(2)
_cell_angle_alpha                90
_cell_angle_beta                 90
_cell_angle_gamma                90
_cell_volume                     605.644
_cell_formula_units_Z            4
loop_
_atom_site_label
_atom_site_type_symbol
_atom_site_fract_x
_atom_site_fract_y
_atom_site_fract_z
C1 C -0.5521(6) -0.0718(3) -0.4404(2)
C2 C -0.4421(6) -0.0786(2) -0.3240(2)
C3 C -0.4555(6) -0.2220(2) -0.2825(2)
C4 C -0.4079(6) -0.2213(2) -0.1592(2)
N1 N -0.3972(5) -0.0221(3) -0.5175(2)
N2 N -0.1977(5) -0.2899(2) -0.1239(2)
O1 O -0.7859(4) -0.1139(2) -0.4576(2)
O2 O -0.1787(4) -0.0250(2) -0.3120(2)
O3 O -0.2565(5) -0.3018(2) -0.3330(2)
O4 O -0.5635(5) -0.1575(2) -0.1002(2)
H1 H -0.5610(6) -0.0266(2) -0.2789(2)
H2 H -0.6317(6) -0.2583(2) -0.2978(2)
H3 H -0.4588(5) -0.0173(3) -0.5867(2)
H4 H -0.2295(5) 0.0074(3) -0.5012(2)
H5 H -0.1589(5) -0.2929(2) -0.0520(2)
H6 H -0.0923(5) -0.3337(2) -0.1720(2)
H7 H -0.0536(84) -0.0793(41) -0.3418(35)
H8 H -0.2932(95) -0.3301(40) -0.3975(34)
loop_
_geom_bond_atom_site_label_1
_geom_bond_atom_site_label_2
_geom_bond_site_symmetry_1
_geom_bond_site_symmetry_2
C1 C2 1_555 1_555
C2 C3 1_555 1_555
C3 C4 1_555 1_555
C4 N2 1_555 1_555
N1 C1 1_555 1_555
N2 H5 1_555 1_555
O1 C1 1_555 1_555
O2 C2 1_555 1_555
O3 C3 1_555 1_555
O4 C4 1_555 1_555
H1 C2 1_555 1_555
H2 C3 1_555 1_555
H3 N1 1_555 1_555
H4 N1 1_555 1_555
H6 N2 1_555 1_555
H7 O2 1_555 1_555
H8 O3 1_555 1_555

#END
