
#######################################################################
#
#                 Cambridge Crystallographic Data Centre
#                                CCDC 
#
#######################################################################
#
# If this CIF has been generated from an entry in the Cambridge 
# Structural Database, then it will include bibliographic, chemical, 
# crystal, experimental, refinement or atomic coordinate data resulting 
# from the CCDC's data processing and validation procedures.
#
#######################################################################

data_NOLDOJ
_chemical_formula_moiety         'C3 H6 N6'
_chemical_name_systematic        
5,6,7,8-tetrahydrotetrazolo[1,5-b][1,2,4]triazine
_symmetry_cell_setting           monoclinic
_symmetry_space_group_name_H-M   'P 21/n'
_symmetry_Int_Tables_number      14
_space_group_name_Hall           '-P 2yn'
loop_
_symmetry_equiv_pos_site_id
_symmetry_equiv_pos_as_xyz
1 x,y,z
2 1/2-x,1/2+y,1/2-z
3 -x,-y,-z
4 1/2+x,1/2-y,1/2+z
_cell_length_a                   5.408(2)
_cell_length_b                   8.866(3)
_cell_length_c                   11.180(4)
_cell_angle_alpha                90
_cell_angle_beta                 97.583(6)
_cell_angle_gamma                90
_cell_volume                     531.363
_cell_formula_units_Z            4
loop_
_atom_site_label
_atom_site_type_symbol
_atom_site_fract_x
_atom_site_fract_y
_atom_site_fract_z
N1 N 0.16773(15) 0.49904(10) 0.64972(8)
N2 N 0.26182(17) 0.50308(11) 0.76997(8)
N3 N 0.44127(17) 0.40781(11) 0.79664(7)
N4 N 0.46431(14) 0.33543(9) 0.69166(7)
N5 N 0.64395(16) 0.22334(10) 0.68066(7)
N6 N 0.29437(15) 0.34686(11) 0.48784(7)
C1 C 0.29976(16) 0.39263(11) 0.60245(8)
C2 C 0.45782(17) 0.22225(12) 0.46377(9)
H1 H 0.5003 0.2303 0.3805
H2 H 0.3713 0.1250 0.4713
C3 C 0.69570(16) 0.22793(11) 0.55401(8)
H3 H 0.8034 0.1414 0.5393
H4 H 0.7880 0.3216 0.5409
H5 H 0.566(3) 0.1337(19) 0.6947(12)
H6 H 0.161(3) 0.3733(19) 0.4369(14)
loop_
_geom_bond_atom_site_label_1
_geom_bond_atom_site_label_2
_geom_bond_site_symmetry_1
_geom_bond_site_symmetry_2
N1 N2 1_555 1_555
N2 N3 1_555 1_555
N3 N4 1_555 1_555
N4 N5 1_555 1_555
N5 C3 1_555 1_555
N6 C1 1_555 1_555
C1 N1 1_555 1_555
C2 N6 1_555 1_555
H1 C2 1_555 1_555
H2 C2 1_555 1_555
C3 C2 1_555 1_555
H3 C3 1_555 1_555
H4 C3 1_555 1_555
H5 N5 1_555 1_555
H6 N6 1_555 1_555
N4 C1 1_555 1_555

#END
