
#######################################################################
#
#                 Cambridge Crystallographic Data Centre
#                                CCDC 
#
#######################################################################
#
# If this CIF has been generated from an entry in the Cambridge 
# Structural Database, then it will include bibliographic, chemical, 
# crystal, experimental, refinement or atomic coordinate data resulting 
# from the CCDC's data processing and validation procedures.
#
#######################################################################

data_NOLDAT
_chemical_formula_moiety         'C17 H26 O3 S1'
_chemical_name_systematic        
6-(1,1-Dimethylethyl)-2-(p-toluenesulfonylmethyl)tetrahydropyran
_symmetry_cell_setting           monoclinic
_symmetry_space_group_name_H-M   'P 21/c'
_symmetry_Int_Tables_number      14
_space_group_name_Hall           '-P 2ybc'
loop_
_symmetry_equiv_pos_site_id
_symmetry_equiv_pos_as_xyz
1 x,y,z
2 -x,1/2+y,1/2-z
3 -x,-y,-z
4 x,1/2-y,1/2+z
_cell_length_a                   16.602(3)
_cell_length_b                   5.8417(7)
_cell_length_c                   24.132(4)
_cell_angle_alpha                90
_cell_angle_beta                 131.466(5)
_cell_angle_gamma                90
_cell_volume                     1753.79
_exptl_crystal_colour            colorless
_chemical_melting_point          105deg.C
_cell_formula_units_Z            4
_exptl_crystal_recrystallization_method 'ether/light petroleum'
loop_
_atom_site_label
_atom_site_type_symbol
_atom_site_fract_x
_atom_site_fract_y
_atom_site_fract_z
S1 S 0.4797(1) 0.0865(2) 0.5868(1)
O1 O 0.2409(2) 0.3612(6) 0.4590(2)
O2 O 0.5895(3) 0.1555(7) 0.6443(2)
O3 O 0.4601(3) -0.1338(6) 0.5557(2)
C1 C 0.1316(4) 0.3315(10) 0.4011(3)
C2 C 0.0975(4) 0.4381(13) 0.3297(3)
C3 C 0.1666(5) 0.3316(16) 0.3149(3)
C4 C 0.2833(5) 0.3592(12) 0.3807(3)
C5 C 0.3072(4) 0.2624(9) 0.4487(3)
C6 C 0.0679(3) 0.4256(9) 0.4220(3)
C7 C 0.1152(4) 0.3222(10) 0.4963(3)
C8 C -0.0485(4) 0.3434(11) 0.3638(3)
C9 C 0.0709(5) 0.6844(10) 0.4273(4)
C10 C 0.4231(4) 0.2992(9) 0.5173(3)
C11 C 0.4151(3) 0.1051(9) 0.6218(2)
C12 C 0.3520(4) -0.0733(9) 0.6118(3)
C13 C 0.3093(4) -0.0614(9) 0.6451(3)
C14 C 0.3262(4) 0.1267(10) 0.6873(3)
C15 C 0.3880(4) 0.3021(9) 0.6950(3)
C16 C 0.4321(4) 0.2954(9) 0.6628(3)
C17 C 0.2788(5) 0.1357(12) 0.7228(3)
H1 H 0.1176 0.1632 0.3925
H2 H 0.1091 0.6073 0.3360
H3 H 0.0198 0.4051 0.2873
H4 H 0.1499 0.4094 0.2714
H5 H 0.1493 0.1648 0.3039
H6 H 0.3023 0.5252 0.3885
H7 H 0.3266 0.2751 0.3721
H8 H 0.2930 0.0940 0.4414
H9 H 0.1914 0.3736 0.5353
H10 H 0.0723 0.3740 0.5095
H11 H 0.1128 0.1514 0.4927
H12 H -0.0497 0.1726 0.3607
H13 H -0.0901 0.3936 0.3782
H14 H -0.0815 0.4105 0.3147
H15 H 0.0400 0.7521 0.3787
H16 H 0.0279 0.7354 0.4404
H17 H 0.1471 0.7362 0.4664
H18 H 0.4284 0.4495 0.5393
H19 H 0.4665 0.3047 0.5022
H20 H 0.3375 -0.2088 0.5810
H21 H 0.2649 -0.1919 0.6388
H22 H 0.4014 0.4391 0.7250
H23 H 0.4761 0.4266 0.6689
H24 H 0.3230 0.2397 0.7667
H25 H 0.2036 0.1951 0.6864
H26 H 0.2784 -0.0215 0.7390
loop_
_geom_bond_atom_site_label_1
_geom_bond_atom_site_label_2
_geom_bond_site_symmetry_1
_geom_bond_site_symmetry_2
S1 O2 1_555 1_555
O1 C1 1_555 1_555
O3 S1 1_555 1_555
C1 C2 1_555 1_555
C2 C3 1_555 1_555
C3 C4 1_555 1_555
C4 C5 1_555 1_555
C5 O1 1_555 1_555
C6 C1 1_555 1_555
C7 C6 1_555 1_555
C8 C6 1_555 1_555
C9 C6 1_555 1_555
C10 S1 1_555 1_555
C11 S1 1_555 1_555
C12 C11 1_555 1_555
C13 C12 1_555 1_555
C14 C13 1_555 1_555
C15 C14 1_555 1_555
C16 C11 1_555 1_555
C17 C14 1_555 1_555
H1 C1 1_555 1_555
H2 C2 1_555 1_555
H3 C2 1_555 1_555
H4 C3 1_555 1_555
H5 C3 1_555 1_555
H6 C4 1_555 1_555
H7 C4 1_555 1_555
H8 C5 1_555 1_555
H9 C7 1_555 1_555
H10 C7 1_555 1_555
H11 C7 1_555 1_555
H12 C8 1_555 1_555
H13 C8 1_555 1_555
H14 C8 1_555 1_555
H15 C9 1_555 1_555
H16 C9 1_555 1_555
H17 C9 1_555 1_555
H18 C10 1_555 1_555
H19 C10 1_555 1_555
H20 C12 1_555 1_555
H21 C13 1_555 1_555
H22 C15 1_555 1_555
H23 C16 1_555 1_555
H24 C17 1_555 1_555
H25 C17 1_555 1_555
H26 C17 1_555 1_555
C5 C10 1_555 1_555
C15 C16 1_555 1_555

#END
