
#######################################################################
#
#                 Cambridge Crystallographic Data Centre
#                                CCDC 
#
#######################################################################
#
# If this CIF has been generated from an entry in the Cambridge 
# Structural Database, then it will include bibliographic, chemical, 
# crystal, experimental, refinement or atomic coordinate data resulting 
# from the CCDC's data processing and validation procedures.
#
#######################################################################

data_NOLDUO
_chemical_formula_moiety         'C27 H28 Br2 O4 S1'
_chemical_name_systematic        
'2,4-bis(4-bromophenyl)-2-ethyl-3-oxohexyl 4-methylbenzenesulfonate'
_symmetry_cell_setting           monoclinic
_symmetry_space_group_name_H-M   'P 21'
_symmetry_Int_Tables_number      4
_space_group_name_Hall           'P 2yb'
loop_
_symmetry_equiv_pos_site_id
_symmetry_equiv_pos_as_xyz
1 x,y,z
2 -x,1/2+y,-z
_cell_length_a                   10.968(2)
_cell_length_b                   10.622(2)
_cell_length_c                   22.725(5)
_cell_angle_alpha                90
_cell_angle_beta                 100.91(3)
_cell_angle_gamma                90
_cell_volume                     2599.66
_exptl_crystal_colour            colorless
_exptl_crystal_description       block
_cell_formula_units_Z            4
_exptl_crystal_recrystallization_method 'petroleum ether/ethyl acetate'
loop_
_atom_site_label
_atom_site_type_symbol
_atom_site_fract_x
_atom_site_fract_y
_atom_site_fract_z
Br1 Br 1.56281(7) 0.19630(7) 0.18289(3)
Br2 Br 1.18344(8) 0.28241(6) 0.21267(3)
S1 S 1.96557(13) -0.04070(12) 0.47780(6)
O1 O 2.0652(3) 0.0156(3) 0.45544(16)
O2 O 1.9182(3) -0.1607(3) 0.45554(16)
O3 O 1.8583(3) 0.0601(3) 0.46375(15)
O4 O 1.5063(3) -0.0103(3) 0.48604(16)
C1 C 2.0911(6) -0.0514(7) 0.7469(2)
H1 H 2.1168 0.0329 0.7619
H2 H 2.1591 -0.1110 0.7598
H3 H 2.0180 -0.0777 0.7627
C2 C 2.0598(5) -0.0488(7) 0.6800(3)
C3 C 2.0213(5) -0.1610(5) 0.6478(3)
H4 H 2.0175 -0.2377 0.6689
C4 C 1.9899(5) -0.1598(4) 0.5869(2)
H5 H 1.9618 -0.2346 0.5656
C5 C 1.9995(5) -0.0473(5) 0.5559(2)
C6 C 2.0396(5) 0.0585(5) 0.5862(3)
H6 H 2.0477 0.1336 0.5646
C7 C 2.0688(6) 0.0603(5) 0.6472(3)
H7 H 2.0955 0.1365 0.6675
C8 C 1.7369(4) 0.0227(4) 0.4767(2)
H8 H 1.7439 0.0021 0.5197
H9 H 1.7040 -0.0517 0.4526
C9 C 1.6513(5) 0.1379(4) 0.4596(2)
C10 C 1.7071(5) 0.2558(4) 0.4947(2)
H10 H 1.7880 0.2746 0.4833
H11 H 1.6514 0.3281 0.4820
C11 C 1.7268(5) 0.2451(5) 0.5624(2)
H12 H 1.7623 0.3238 0.5806
H13 H 1.7839 0.1754 0.5758
H14 H 1.6471 0.2291 0.5744
C12 C 1.6324(5) 0.1534(4) 0.3922(2)
C13 C 1.5740(5) 0.0617(5) 0.3555(2)
H15 H 1.5470 -0.0122 0.3728
C14 C 1.5528(5) 0.0728(5) 0.2940(3)
H16 H 1.5110 0.0074 0.2697
C15 C 1.5922(5) 0.1795(6) 0.2672(2)
C16 C 1.6514(5) 0.2741(5) 0.3039(2)
H17 H 1.6780 0.3483 0.2867
C17 C 1.6717(5) 0.2610(5) 0.3653(2)
H18 H 1.7131 0.3262 0.3899
C18 C 1.5251(5) 0.0998(5) 0.4770(2)
C19 C 1.4243(4) 0.1984(4) 0.4781(2)
H19 H 1.4655 0.2784 0.4944
C20 C 1.3584(5) 0.2224(4) 0.4137(2)
C21 C 1.2804(5) 0.1344(5) 0.3834(2)
H20 H 1.2637 0.0600 0.4037
C22 C 1.2251(5) 0.1503(5) 0.3243(3)
H21 H 1.1706 0.0886 0.3035
C23 C 1.2519(5) 0.2590(6) 0.2966(2)
C24 C 1.3271(6) 0.3515(5) 0.3266(3)
H22 H 1.3427 0.4272 0.3070
C25 C 1.3787(5) 0.3310(5) 0.3853(3)
H23 H 1.4300 0.3942 0.4069
C26 C 1.3352(5) 0.1583(4) 0.5183(2)
H24 H 1.2629 0.2159 0.5116
H25 H 1.3043 0.0726 0.5066
C27 C 1.3921(6) 0.1582(5) 0.5844(2)
H26 H 1.3293 0.1329 0.6076
H27 H 1.4223 0.2428 0.5966
H28 H 1.4616 0.0986 0.5918
Br3 Br 1.28896(8) -0.27520(7) 0.28337(3)
Br4 Br 0.91012(8) -0.05099(8) 0.30221(3)
S2 S 1.48817(13) 0.12957(11) 0.01521(6)
O5 O 1.6062(3) 0.0720(3) 0.03309(17)
O6 O 1.4607(3) 0.2433(3) 0.04423(16)
O7 O 1.3933(3) 0.0233(3) 0.02544(14)
O8 O 1.0211(3) 0.0908(3) 0.00474(17)
C28 C 1.3770(6) 0.2032(7) -0.2546(3)
H29 H 1.3508 0.2903 -0.2640
H30 H 1.3103 0.1457 -0.2724
H31 H 1.4517 0.1852 -0.2709
C29 C 1.4049(6) 0.1856(6) -0.1879(3)
C30 C 1.3942(5) 0.2818(6) -0.1491(2)
H32 H 1.3682 0.3618 -0.1655
C31 C 1.4188(5) 0.2692(5) -0.0877(2)
H33 H 1.4102 0.3388 -0.0626
C32 C 1.4573(5) 0.1504(4) -0.0629(2)
C33 C 1.4684(5) 0.0507(5) -0.1013(3)
H34 H 1.4936 -0.0300 -0.0856
C34 C 1.4424(6) 0.0702(6) -0.1624(3)
H35 H 1.4505 0.0015 -0.1881
C35 C 1.2623(5) 0.0596(4) 0.0183(2)
H36 H 1.2332 0.0961 -0.0220
H37 H 1.2518 0.1234 0.0487
C36 C 1.1879(4) -0.0579(4) 0.02614(19)
C37 C 1.1961(5) -0.1518(4) -0.0245(2)
H38 H 1.2820 -0.1848 -0.0179
H39 H 1.1408 -0.2236 -0.0203
C38 C 1.1634(6) -0.1052(5) -0.0889(2)
H40 H 1.1727 -0.1743 -0.1163
H41 H 1.2192 -0.0361 -0.0947
H42 H 1.0774 -0.0751 -0.0972
C39 C 1.2281(5) -0.1137(4) 0.0893(2)
C40 C 1.2408(5) -0.0357(5) 0.1398(2)
H43 H 1.2340 0.0527 0.1338
C41 C 1.2629(5) -0.0809(5) 0.1979(3)
H44 H 1.2716 -0.0255 0.2312
C42 C 1.2717(5) -0.2089(6) 0.2055(2)
C43 C 1.2665(5) -0.2915(5) 0.1588(2)
H45 H 1.2776 -0.3792 0.1658
C44 C 1.2440(5) -0.2425(4) 0.1001(2)
H46 H 1.2395 -0.2984 0.0671
C45 C 1.0516(5) -0.0176(4) 0.0198(2)
C46 C 0.9575(5) -0.1085(4) 0.0365(2)
H47 H 0.9863 -0.1962 0.0308
C47 C 0.9436(5) -0.0933(4) 0.1024(2)
C48 C 0.9148(6) 0.0223(5) 0.1248(3)
H48 H 0.9030 0.0934 0.0989
C49 C 0.9025(6) 0.0365(5) 0.1851(3)
H49 H 0.8825 0.1150 0.2009
C50 C 0.9214(6) -0.0706(5) 0.2196(2)
C51 C 0.9472(5) -0.1847(5) 0.1996(3)
H50 H 0.9570 -0.2557 0.2255
C52 C 0.9590(5) -0.1958(5) 0.1404(3)
H51 H 0.9781 -0.2756 0.1256
C53 C 0.8291(5) -0.0899(5) -0.0045(2)
H52 H 0.7689 -0.1482 0.0085
H53 H 0.8003 -0.0030 0.0005
C54 C 0.8296(5) -0.1129(5) -0.0716(2)
H54 H 0.7460 -0.0992 -0.0950
H55 H 0.8556 -0.1996 -0.0773
H56 H 0.8877 -0.0543 -0.0851
loop_
_geom_bond_atom_site_label_1
_geom_bond_atom_site_label_2
_geom_bond_site_symmetry_1
_geom_bond_site_symmetry_2
Br1 C15 1_555 1_555
Br2 C23 1_555 1_555
S1 O1 1_555 1_555
O2 S1 1_555 1_555
O3 S1 1_555 1_555
O4 C18 1_555 1_555
C1 H1 1_555 1_555
H2 C1 1_555 1_555
H3 C1 1_555 1_555
C2 C1 1_555 1_555
C3 C2 1_555 1_555
H4 C3 1_555 1_555
C4 C3 1_555 1_555
H5 C4 1_555 1_555
C5 S1 1_555 1_555
C6 C5 1_555 1_555
H6 C6 1_555 1_555
C7 C2 1_555 1_555
H7 C7 1_555 1_555
C8 O3 1_555 1_555
H8 C8 1_555 1_555
H9 C8 1_555 1_555
C9 C8 1_555 1_555
C10 C9 1_555 1_555
H10 C10 1_555 1_555
H11 C10 1_555 1_555
C11 C10 1_555 1_555
H12 C11 1_555 1_555
H13 C11 1_555 1_555
H14 C11 1_555 1_555
C12 C9 1_555 1_555
C13 C12 1_555 1_555
H15 C13 1_555 1_555
C14 C13 1_555 1_555
H16 C14 1_555 1_555
C15 C14 1_555 1_555
C16 C15 1_555 1_555
H17 C16 1_555 1_555
C17 C12 1_555 1_555
H18 C17 1_555 1_555
C18 C9 1_555 1_555
C19 C18 1_555 1_555
H19 C19 1_555 1_555
C20 C19 1_555 1_555
C21 C20 1_555 1_555
H20 C21 1_555 1_555
C22 C21 1_555 1_555
H21 C22 1_555 1_555
C23 C22 1_555 1_555
C24 C23 1_555 1_555
H22 C24 1_555 1_555
C25 C20 1_555 1_555
H23 C25 1_555 1_555
C26 C19 1_555 1_555
H24 C26 1_555 1_555
H25 C26 1_555 1_555
C27 C26 1_555 1_555
H26 C27 1_555 1_555
H27 C27 1_555 1_555
H28 C27 1_555 1_555
Br3 C42 1_555 1_555
Br4 C50 1_555 1_555
S2 O5 1_555 1_555
O6 S2 1_555 1_555
O7 S2 1_555 1_555
O8 C45 1_555 1_555
C28 H29 1_555 1_555
H30 C28 1_555 1_555
H31 C28 1_555 1_555
C29 C28 1_555 1_555
C30 C29 1_555 1_555
H32 C30 1_555 1_555
C31 C30 1_555 1_555
H33 C31 1_555 1_555
C32 S2 1_555 1_555
C33 C32 1_555 1_555
H34 C33 1_555 1_555
C34 C29 1_555 1_555
H35 C34 1_555 1_555
C35 O7 1_555 1_555
H36 C35 1_555 1_555
H37 C35 1_555 1_555
C36 C35 1_555 1_555
C37 C36 1_555 1_555
H38 C37 1_555 1_555
H39 C37 1_555 1_555
C38 C37 1_555 1_555
H40 C38 1_555 1_555
H41 C38 1_555 1_555
H42 C38 1_555 1_555
C39 C36 1_555 1_555
C40 C39 1_555 1_555
H43 C40 1_555 1_555
C41 C40 1_555 1_555
H44 C41 1_555 1_555
C42 C41 1_555 1_555
C43 C42 1_555 1_555
H45 C43 1_555 1_555
C44 C39 1_555 1_555
H46 C44 1_555 1_555
C45 C36 1_555 1_555
C46 C45 1_555 1_555
H47 C46 1_555 1_555
C47 C46 1_555 1_555
C48 C47 1_555 1_555
H48 C48 1_555 1_555
C49 C48 1_555 1_555
H49 C49 1_555 1_555
C50 C49 1_555 1_555
C51 C50 1_555 1_555
H50 C51 1_555 1_555
C52 C47 1_555 1_555
H51 C52 1_555 1_555
C53 C46 1_555 1_555
H52 C53 1_555 1_555
H53 C53 1_555 1_555
C54 C53 1_555 1_555
H54 C54 1_555 1_555
H55 C54 1_555 1_555
H56 C54 1_555 1_555
C4 C5 1_555 1_555
C6 C7 1_555 1_555
C16 C17 1_555 1_555
C24 C25 1_555 1_555
C31 C32 1_555 1_555
C33 C34 1_555 1_555
C43 C44 1_555 1_555
C51 C52 1_555 1_555

#END
