
#######################################################################
#
#                 Cambridge Crystallographic Data Centre
#                                CCDC 
#
#######################################################################
#
# If this CIF has been generated from an entry in the Cambridge 
# Structural Database, then it will include bibliographic, chemical, 
# crystal, experimental, refinement or atomic coordinate data resulting 
# from the CCDC's data processing and validation procedures.
#
#######################################################################

data_NOLFIF
_chemical_formula_moiety         'C20 H18 O5'
_chemical_name_systematic        
3,4,9,12b-tetrahydroxy-5,6,6a,6b,7,12b-hexahydrobenzo[j]fluoranthen-8(4H)-one
_symmetry_cell_setting           triclinic
_symmetry_space_group_name_H-M   'P 1'
_symmetry_Int_Tables_number      1
_space_group_name_Hall           'P 1'
loop_
_symmetry_equiv_pos_site_id
_symmetry_equiv_pos_as_xyz
1 x,y,z
_cell_length_a                   7.7665(2)
_cell_length_b                   8.2584(2)
_cell_length_c                   13.4280(3)
_cell_angle_alpha                82.9650(10)
_cell_angle_beta                 87.6840(10)
_cell_angle_gamma                69.0210(10)
_cell_volume                     798.106
_cell_formula_units_Z            2
loop_
_atom_site_label
_atom_site_type_symbol
_atom_site_fract_x
_atom_site_fract_y
_atom_site_fract_z
C1 C 0.1141(2) 0.8799(2) 0.78086(13)
C2 C 0.1157(3) 1.0432(3) 0.79399(16)
H1 H 0.1215 1.1200 0.7383
C3 C 0.1088(4) 1.0930(3) 0.88932(17)
H2 H 0.1062 1.2044 0.8965
C4 C 0.1055(3) 0.9810(3) 0.97366(16)
H3 H 0.1047 1.0147 1.0373
C5 C 0.1036(3) 0.8180(3) 0.96223(14)
C6 C 0.1006(3) 0.7676(2) 0.86601(14)
C7 C 0.0664(3) 0.6073(2) 0.85638(14)
C8 C 0.0151(3) 0.5822(3) 0.75489(15)
H4 H -0.1137 0.6515 0.7415
H5 H 0.0316 0.4605 0.7532
C9 C 0.1342(2) 0.6365(2) 0.67440(13)
H6 H 0.0892 0.6278 0.6088
C10 C 0.3385(2) 0.5225(2) 0.68237(12)
H7 H 0.3748 0.5007 0.7532
C11 C 0.4037(3) 0.3491(2) 0.63933(16)
H8 H 0.3566 0.3650 0.5716
H9 H 0.3588 0.2672 0.6800
C12 C 0.6148(3) 0.2784(2) 0.63856(17)
H10 H 0.6596 0.2677 0.7063
H11 H 0.6580 0.1627 0.6170
C13 C 0.6952(3) 0.3942(2) 0.56982(14)
H12 H 0.6810 0.3753 0.5004
C14 C 0.5953(2) 0.5866(2) 0.57949(12)
C15 C 0.6507(3) 0.7171(2) 0.52766(13)
C16 C 0.5394(3) 0.8927(2) 0.52588(14)
H13 H 0.5798 0.9782 0.4928
C17 C 0.3689(3) 0.9414(2) 0.57297(14)
H14 H 0.2932 1.0583 0.5692
C18 C 0.3130(2) 0.8143(2) 0.62538(12)
C19 C 0.4280(2) 0.6403(2) 0.62901(12)
C20 C 0.1299(2) 0.8259(2) 0.67485(13)
O1 O 0.0706(3) 0.5000(2) 0.93024(11)
O2 O 0.0978(2) 0.7103(2) 1.04647(10)
H15 H 0.0989 0.6171 1.0307
O3 O -0.02427(19) 0.93929(17) 0.61465(11)
H16 H -0.0267 1.0399 0.6111
O4 O 0.8136(2) 0.66466(19) 0.47668(11)
H17 H 0.8344 0.7506 0.4503
O5 O 0.88844(19) 0.33287(18) 0.59182(11)
H18 H 0.9355 0.3965 0.5589
C21 C 0.7578(3) 0.4958(3) 0.16588(18)
H19 H 0.8870 0.4825 0.1616
H20 H 0.7487 0.3916 0.2041
C22 C 0.6824(3) 0.5154(3) 0.06300(18)
C23 C 0.6331(3) 0.6860(3) 0.00422(15)
C24 C 0.6048(3) 0.7014(4) -0.10066(18)
C25 C 0.5815(4) 0.8568(5) -0.15931(18)
H21 H 0.5646 0.8663 -0.2283
C26 C 0.5833(4) 0.9942(5) -0.1160(2)
H22 H 0.5700 1.0977 -0.1565
C27 C 0.6043(4) 0.9881(3) -0.01253(16)
H23 H 0.6026 1.0864 0.0152
C28 C 0.6275(3) 0.8339(3) 0.04772(14)
C29 C 0.6461(3) 0.8302(3) 0.16097(13)
C30 C 0.4751(3) 0.9582(3) 0.20452(14)
C31 C 0.4208(4) 1.1355(3) 0.20862(18)
H24 H 0.4904 1.1986 0.1780
C32 C 0.2596(4) 1.2178(3) 0.2594(2)
H25 H 0.2196 1.3381 0.2605
C33 C 0.1572(3) 1.1259(3) 0.30850(17)
C34 C 0.2097(3) 0.9470(3) 0.30477(13)
C35 C 0.1205(3) 0.8350(3) 0.36858(14)
H26 H 0.1554 0.8321 0.4383
C36 C 0.1910(3) 0.6472(3) 0.34476(15)
H27 H 0.1329 0.6408 0.2835
H28 H 0.1564 0.5751 0.3985
C37 C 0.4006(3) 0.5750(3) 0.33202(15)
H29 H 0.4604 0.5870 0.3913
H30 H 0.4420 0.4522 0.3229
C38 C 0.4497(3) 0.6781(2) 0.24019(13)
H31 H 0.3978 0.6548 0.1805
C39 C 0.3657(3) 0.8693(2) 0.24979(12)
C40 C 0.6524(3) 0.6544(2) 0.21964(14)
H32 H 0.7133 0.6410 0.2842
O6 O 0.6718(4) 0.3868(3) 0.02851(18)
O7 O 0.6073(3) 0.5610(4) -0.14350(15)
H33 H 0.5794 0.5901 -0.2030
O8 O 0.8053(2) 0.8715(2) 0.18013(10)
H34 H 0.8884 0.8251 0.1419
O9 O 0.0081(3) 1.2145(2) 0.36336(15)
H35 H -0.0561 1.1548 0.3770
O10 O -0.0795(2) 0.91187(19) 0.36361(10)
H36 H -0.1145 0.9067 0.3077
loop_
_geom_bond_atom_site_label_1
_geom_bond_atom_site_label_2
_geom_bond_site_symmetry_1
_geom_bond_site_symmetry_2
C1 C2 1_555 1_555
C2 H1 1_555 1_555
C3 C2 1_555 1_555
H2 C3 1_555 1_555
C4 C3 1_555 1_555
H3 C4 1_555 1_555
C5 C4 1_555 1_555
C6 C1 1_555 1_555
C7 C6 1_555 1_555
C8 C7 1_555 1_555
H4 C8 1_555 1_555
H5 C8 1_555 1_555
C9 C8 1_555 1_555
H6 C9 1_555 1_555
C10 C9 1_555 1_555
H7 C10 1_555 1_555
C11 C10 1_555 1_555
H8 C11 1_555 1_555
H9 C11 1_555 1_555
C12 C11 1_555 1_555
H10 C12 1_555 1_555
H11 C12 1_555 1_555
C13 C12 1_555 1_555
H12 C13 1_555 1_555
C14 C13 1_555 1_555
C15 C14 1_555 1_555
C16 C15 1_555 1_555
H13 C16 1_555 1_555
C17 C16 1_555 1_555
H14 C17 1_555 1_555
C18 C17 1_555 1_555
C19 C10 1_555 1_555
C20 C1 1_555 1_555
O1 C7 1_555 1_555
O2 C5 1_555 1_555
H15 O2 1_555 1_555
O3 C20 1_555 1_555
H16 O3 1_555 1_555
O4 C15 1_555 1_555
H17 O4 1_555 1_555
O5 C13 1_555 1_555
H18 O5 1_555 1_555
C21 H19 1_555 1_555
H20 C21 1_555 1_555
C22 C21 1_555 1_555
C23 C22 1_555 1_555
C24 C23 1_555 1_555
C25 C24 1_555 1_555
H21 C25 1_555 1_555
C26 C25 1_555 1_555
H22 C26 1_555 1_555
C27 C26 1_555 1_555
H23 C27 1_555 1_555
C28 C23 1_555 1_555
C29 C28 1_555 1_555
C30 C29 1_555 1_555
C31 C30 1_555 1_555
H24 C31 1_555 1_555
C32 C31 1_555 1_555
H25 C32 1_555 1_555
C33 C32 1_555 1_555
C34 C33 1_555 1_555
C35 C34 1_555 1_555
H26 C35 1_555 1_555
C36 C35 1_555 1_555
H27 C36 1_555 1_555
H28 C36 1_555 1_555
C37 C36 1_555 1_555
H29 C37 1_555 1_555
H30 C37 1_555 1_555
C38 C37 1_555 1_555
H31 C38 1_555 1_555
C39 C30 1_555 1_555
C40 C21 1_555 1_555
H32 C40 1_555 1_555
O6 C22 1_555 1_555
O7 C24 1_555 1_555
H33 O7 1_555 1_555
O8 C29 1_555 1_555
H34 O8 1_555 1_555
O9 C33 1_555 1_555
H35 O9 1_555 1_555
O10 C35 1_555 1_555
H36 O10 1_555 1_555
C5 C6 1_555 1_555
C9 C20 1_555 1_555
C14 C19 1_555 1_555
C18 C19 1_555 1_555
C18 C20 1_555 1_555
C27 C28 1_555 1_555
C29 C40 1_555 1_555
C34 C39 1_555 1_555
C38 C39 1_555 1_555
C38 C40 1_555 1_555

#END
