
#######################################################################
#
#                 Cambridge Crystallographic Data Centre
#                                CCDC 
#
#######################################################################
#
# If this CIF has been generated from an entry in the Cambridge 
# Structural Database, then it will include bibliographic, chemical, 
# crystal, experimental, refinement or atomic coordinate data resulting 
# from the CCDC's data processing and validation procedures.
#
#######################################################################

data_NOLFUQ
_chemical_formula_moiety         'C11 H13 N1 O5'
_chemical_name_systematic        
'rac-anti-Methyl 3-hydroxy-2-methyl-3-(4-nitrophenyl)propanoate'
_symmetry_cell_setting           monoclinic
_symmetry_space_group_name_H-M   'P 21/n'
_symmetry_Int_Tables_number      14
_space_group_name_Hall           '-P 2yn'
loop_
_symmetry_equiv_pos_site_id
_symmetry_equiv_pos_as_xyz
1 x,y,z
2 1/2-x,1/2+y,1/2-z
3 -x,-y,-z
4 1/2+x,1/2-y,1/2+z
_cell_length_a                   6.6231(5)
_cell_length_b                   8.2144(9)
_cell_length_c                   21.6135(19)
_cell_angle_alpha                90
_cell_angle_beta                 95.306(7)
_cell_angle_gamma                90
_cell_volume                     1170.84
_exptl_crystal_colour            yellow
_exptl_crystal_description       prism
_chemical_melting_point          '105.0 deg.C'
_cell_formula_units_Z            4
loop_
_atom_site_label
_atom_site_type_symbol
_atom_site_fract_x
_atom_site_fract_y
_atom_site_fract_z
C1 C 0.7037(2) 0.08793(19) 0.16349(7)
H1 H 0.6091 -0.0040 0.1619
C2 C 0.8933(2) 0.03762(18) 0.13296(7)
H2 H 0.9823 0.1325 0.1311
C3 C 0.8442(3) -0.0277(2) 0.06789(8)
H3 H 0.9675 -0.0571 0.0506
H4 H 0.7749 0.0545 0.0425
H5 H 0.7589 -0.1219 0.0693
C4 C 1.0012(2) -0.09031(17) 0.17384(7)
C5 C 1.2949(3) -0.1554(3) 0.23858(12)
H6 H 1.4234 -0.1084 0.2531
H7 H 1.3167 -0.2542 0.2165
H8 H 1.2196 -0.1789 0.2734
C6 C 0.5975(2) 0.23379(17) 0.13232(7)
C7 C 0.4252(2) 0.21561(18) 0.09141(8)
H9 H 0.3752 0.1118 0.0820
C8 C 0.3266(2) 0.34981(18) 0.06433(8)
H10 H 0.2116 0.3374 0.0366
C9 C 0.4025(2) 0.50165(16) 0.07936(7)
C10 C 0.5723(3) 0.52427(19) 0.11971(9)
H11 H 0.6201 0.6284 0.1295
C11 C 0.6704(3) 0.3891(2) 0.14542(9)
H12 H 0.7877 0.4024 0.1721
N1 N 0.2971(2) 0.64614(17) 0.05238(8)
O1 O 0.7717(2) 0.12023(18) 0.22627(6)
H13 H 0.686(4) 0.165(3) 0.2461(13)
O2 O 0.93215(19) -0.22228(14) 0.18328(6)
O3 O 1.18254(17) -0.04233(14) 0.19776(6)
O4 O 0.3477(3) 0.77907(16) 0.07215(9)
O5 O 0.1660(3) 0.62778(19) 0.01034(10)
loop_
_geom_bond_atom_site_label_1
_geom_bond_atom_site_label_2
_geom_bond_site_symmetry_1
_geom_bond_site_symmetry_2
C1 H1 1_555 1_555
C2 C1 1_555 1_555
H2 C2 1_555 1_555
C3 C2 1_555 1_555
H3 C3 1_555 1_555
H4 C3 1_555 1_555
H5 C3 1_555 1_555
C4 C2 1_555 1_555
C5 H6 1_555 1_555
H7 C5 1_555 1_555
H8 C5 1_555 1_555
C6 C1 1_555 1_555
C7 C6 1_555 1_555
H9 C7 1_555 1_555
C8 C7 1_555 1_555
H10 C8 1_555 1_555
C9 C8 1_555 1_555
C10 C9 1_555 1_555
H11 C10 1_555 1_555
C11 C6 1_555 1_555
H12 C11 1_555 1_555
N1 C9 1_555 1_555
O1 C1 1_555 1_555
H13 O1 1_555 1_555
O2 C4 1_555 1_555
O3 C4 1_555 1_555
O4 N1 1_555 1_555
O5 N1 1_555 1_555
C5 O3 1_555 1_555
C10 C11 1_555 1_555

#END
