
#######################################################################
#
#                 Cambridge Crystallographic Data Centre
#                                CCDC 
#
#######################################################################
#
# If this CIF has been generated from an entry in the Cambridge 
# Structural Database, then it will include bibliographic, chemical, 
# crystal, experimental, refinement or atomic coordinate data resulting 
# from the CCDC's data processing and validation procedures.
#
#######################################################################

data_NOLFEB
_chemical_formula_moiety         'C6 H2 N3 O9 1-,C3 H7 N6 1+'
_chemical_name_systematic        
'1,5,6,7-tetrahydrotetrazolo[1,5-b][1,2,4]triazin-8-ium 3,5-dihydroxy-2,4,6-trinitrophenolate'
_symmetry_cell_setting           orthorhombic
_symmetry_space_group_name_H-M   'F d d 2'
_symmetry_Int_Tables_number      43
_space_group_name_Hall           'F 2 -2d'
loop_
_symmetry_equiv_pos_site_id
_symmetry_equiv_pos_as_xyz
1 x,y,z
2 -x,-y,z
3 1/4+x,1/4-y,1/4+z
4 1/4-x,1/4+y,1/4+z
5 x,1/2+y,1/2+z
6 -x,1/2-y,1/2+z
7 1/4+x,3/4-y,3/4+z
8 1/4-x,3/4+y,3/4+z
9 1/2+x,y,1/2+z
10 1/2-x,-y,1/2+z
11 3/4+x,1/4-y,3/4+z
12 3/4-x,1/4+y,3/4+z
13 1/2+x,1/2+y,z
14 1/2-x,1/2-y,z
15 3/4+x,3/4-y,1/4+z
16 3/4-x,3/4+y,1/4+z
_cell_length_a                   22.589(5)
_cell_length_b                   48.680(10)
_cell_length_c                   5.1616(10)
_cell_angle_alpha                90
_cell_angle_beta                 90
_cell_angle_gamma                90
_cell_volume                     5675.86
_exptl_crystal_colour            yellow
_exptl_crystal_description       chunk
_cell_formula_units_Z            16
loop_
_atom_site_label
_atom_site_type_symbol
_atom_site_fract_x
_atom_site_fract_y
_atom_site_fract_z
O1 O 0.24862(6) 0.58628(2) 0.9854(2)
O2 O 0.32724(6) 0.54842(3) 1.2051(3)
O3 O 0.27939(6) 0.54347(3) 1.5637(2)
O4 O 0.20106(6) 0.50484(3) 1.4156(3)
O5 O 0.10542(7) 0.48197(3) 1.2922(4)
O6 O 0.06043(7) 0.49199(3) 0.9309(5)
O7 O 0.08269(6) 0.53525(3) 0.6918(4)
O8 O 0.09721(6) 0.58676(3) 0.5845(3)
O9 O 0.19055(6) 0.59506(3) 0.5401(3)
N1 N 0.28044(6) 0.54573(3) 1.3277(3)
N2 N 0.10018(7) 0.49720(3) 1.0956(5)
N3 N 0.14904(6) 0.58247(3) 0.6414(3)
C1 C 0.21504(7) 0.56600(3) 0.9964(3)
C2 C 0.22561(7) 0.54452(3) 1.1845(3)
C3 C 0.18808(8) 0.52273(3) 1.2300(4)
C4 C 0.13813(8) 0.51955(3) 1.0619(4)
C5 C 0.12674(8) 0.53903(3) 0.8598(4)
C6 C 0.16273(8) 0.56211(3) 0.8372(3)
H1 H 0.1759(12) 0.4916(6) 1.401(6)
H2 H 0.0675(14) 0.5202(8) 0.766(8)
N4 N 0.31533(6) 0.60530(3) 0.6122(3)
N5 N 0.31079(7) 0.62183(3) 0.4001(3)
N6 N 0.36157(7) 0.62363(3) 0.2922(3)
N7 N 0.39956(6) 0.60848(3) 0.4373(3)
N8 N 0.45804(6) 0.60339(3) 0.3646(3)
N9 N 0.39721(7) 0.58054(3) 0.8070(3)
C7 C 0.37107(7) 0.59676(3) 0.6366(3)
C8 C 0.47611(8) 0.57721(4) 0.4846(4)
H3 H 0.5194 0.5749 0.4630
H4 H 0.4563 0.5619 0.3927
C9 C 0.46090(8) 0.57554(4) 0.7726(4)
H5 H 0.4713 0.5572 0.8406
H6 H 0.4839 0.5894 0.8699
H7 H 0.3731(10) 0.5694(5) 0.919(6)
H8 H 0.4788(10) 0.6173(5) 0.430(5)
H9 H 0.2826(11) 0.5994(5) 0.712(6)
loop_
_geom_bond_atom_site_label_1
_geom_bond_atom_site_label_2
_geom_bond_site_symmetry_1
_geom_bond_site_symmetry_2
O1 C1 1_555 1_555
O2 N1 1_555 1_555
O3 N1 1_555 1_555
O4 C3 1_555 1_555
O5 N2 1_555 1_555
O6 N2 1_555 1_555
O7 C5 1_555 1_555
O8 N3 1_555 1_555
O9 N3 1_555 1_555
N1 C2 1_555 1_555
N2 C4 1_555 1_555
N3 C6 1_555 1_555
C1 C2 1_555 1_555
C2 C3 1_555 1_555
C3 C4 1_555 1_555
C4 C5 1_555 1_555
C5 C6 1_555 1_555
C6 C1 1_555 1_555
H1 O4 1_555 1_555
H2 O7 1_555 1_555
N4 N5 1_555 1_555
N5 N6 1_555 1_555
N6 N7 1_555 1_555
N7 N8 1_555 1_555
N8 C8 1_555 1_555
N9 C7 1_555 1_555
C7 N4 1_555 1_555
C8 H3 1_555 1_555
H4 C8 1_555 1_555
C9 N9 1_555 1_555
H5 C9 1_555 1_555
H6 C9 1_555 1_555
H7 N9 1_555 1_555
H8 N8 1_555 1_555
H9 N4 1_555 1_555
N7 C7 1_555 1_555
C8 C9 1_555 1_555

#END
