
#######################################################################
#
#                 Cambridge Crystallographic Data Centre
#                                CCDC 
#
#######################################################################
#
# If this CIF has been generated from an entry in the Cambridge 
# Structural Database, then it will include bibliographic, chemical, 
# crystal, experimental, refinement or atomic coordinate data resulting 
# from the CCDC's data processing and validation procedures.
#
#######################################################################

data_NOLGAX
_chemical_formula_moiety         'C19 H29 S1 1+,B1 F4 1-'
_chemical_name_systematic        
'6-Benzyl-4,5,7,8,8-pentamethyl-6-thioniabicyclo[3.2.1]octane tetrafluoroborate'
_symmetry_cell_setting           monoclinic
_symmetry_space_group_name_H-M   'P 21'
_symmetry_Int_Tables_number      4
_space_group_name_Hall           'P 2yb'
loop_
_symmetry_equiv_pos_site_id
_symmetry_equiv_pos_as_xyz
1 x,y,z
2 -x,1/2+y,-z
_cell_length_a                   8.9502(10)
_cell_length_b                   19.242(2)
_cell_length_c                   11.2455(12)
_cell_angle_alpha                90
_cell_angle_beta                 91.548(2)
_cell_angle_gamma                90
_cell_volume                     1935.99
_exptl_crystal_colour            white
_cell_formula_units_Z            4
loop_
_atom_site_label
_atom_site_type_symbol
_atom_site_fract_x
_atom_site_fract_y
_atom_site_fract_z
B1 B 0.7824(5) 0.9898(2) 0.4990(4)
F1 F 0.7840(4) 0.91963(14) 0.5159(3)
F2 F 0.8172(3) 1.02539(15) 0.6001(2)
F3 F 0.6376(3) 1.00963(16) 0.4620(3)
F4 F 0.8750(3) 1.00935(14) 0.4088(3)
B2 B 0.7754(5) 0.2260(3) 1.0007(4)
F5 F 0.6610(7) 0.2390(4) 0.9272(5)
F6 F 0.8140(10) 0.1658(4) 0.9641(5)
F7 F 0.7278(7) 0.2306(3) 1.1108(4)
F8 F 0.8578(10) 0.2718(5) 0.9759(7)
C1 C 0.7564(4) 0.96516(19) 0.0252(3)
C2 C 0.7730(4) 0.9646(2) -0.1102(3)
H1 H 0.7805 1.0134 -0.1338
C3 C 0.6343(5) 0.9370(2) -0.1733(3)
H2 H 0.6610 0.9232 -0.2529
H3 H 0.5630 0.9748 -0.1813
C4 C 0.5568(5) 0.8760(2) -0.1152(4)
H4 H 0.4562 0.8716 -0.1486
H5 H 0.6104 0.8335 -0.1323
C5 C 0.5497(4) 0.8854(2) 0.0186(4)
H6 H 0.5033 0.8439 0.0522
C6 C 0.4558(4) 0.9496(2) 0.0532(4)
H7 H 0.4344 0.9457 0.1380
C7 C 0.7066(4) 0.8952(2) 0.0800(4)
C8 C 0.8896(4) 0.9995(2) 0.0910(4)
H8 H 0.9711 0.9672 0.0970
H9 H 0.8606 1.0130 0.1693
H10 H 0.9202 1.0399 0.0479
C9 C 0.9165(5) 0.9290(3) -0.1550(4)
H11 H 0.9984 0.9384 -0.1004
H12 H 0.9393 0.9469 -0.2321
H13 H 0.9008 0.8798 -0.1602
C10 C 0.3073(5) 0.9589(3) -0.0143(5)
H14 H 0.3254 0.9657 -0.0973
H15 H 0.2562 0.9987 0.0162
H16 H 0.2469 0.9182 -0.0044
C11 C 0.8141(6) 0.8343(2) 0.0550(5)
H17 H 0.9130 0.8460 0.0837
H18 H 0.8157 0.8259 -0.0291
H19 H 0.7805 0.7933 0.0948
C12 C 0.6972(5) 0.8973(2) 0.2163(4)
H20 H 0.7956 0.8926 0.2514
H21 H 0.6353 0.8599 0.2425
H22 H 0.6547 0.9408 0.2401
C13 C 0.5899(4) 1.0716(2) 0.1781(3)
H23 H 0.6237 1.0421 0.2433
H24 H 0.6573 1.1109 0.1732
C14 C 0.4332(4) 1.09621(18) 0.1976(3)
C15 C 0.3476(4) 1.0622(2) 0.2809(4)
H25 H 0.3894 1.0266 0.3267
C16 C 0.1995(5) 1.0814(2) 0.2956(4)
H26 H 0.1423 1.0586 0.3514
C17 C 0.1371(5) 1.1346(2) 0.2271(4)
H27 H 0.0380 1.1474 0.2370
C18 C 0.2227(5) 1.1686(2) 0.1438(4)
H28 H 0.1809 1.2042 0.0980
C19 C 0.3707(5) 1.1494(2) 0.1290(4)
H29 H 0.4280 1.1722 0.0733
S1 S 0.58621(10) 1.02202(5) 0.03587(8)
C20 C 0.7662(4) 0.26286(19) 0.5882(3)
C21 C 0.7446(5) 0.3412(2) 0.6253(4)
H30 H 0.7131 0.3404 0.7080
C22 C 0.6151(5) 0.3750(2) 0.5527(4)
H31 H 0.5236 0.3675 0.5951
H32 H 0.6326 0.4248 0.5508
C23 C 0.5897(5) 0.3506(2) 0.4269(4)
H33 H 0.6583 0.3750 0.3761
H34 H 0.4889 0.3630 0.4011
C24 C 0.6105(5) 0.2727(2) 0.4101(4)
H35 H 0.5986 0.2622 0.3251
C25 C 0.4986(4) 0.2292(2) 0.4769(3)
H36 H 0.5051 0.1813 0.4477
C26 C 0.7694(4) 0.25069(19) 0.4518(3)
C27 C 0.8854(4) 0.2277(3) 0.6634(4)
H37 H 0.8759 0.1782 0.6554
H38 H 0.8743 0.2405 0.7452
H39 H 0.9821 0.2420 0.6377
C28 C 0.8878(6) 0.3852(3) 0.6242(6)
H40 H 0.9038 0.4016 0.5449
H41 H 0.9714 0.3575 0.6505
H42 H 0.8775 0.4242 0.6766
C29 C 0.3348(5) 0.2503(3) 0.4730(5)
H43 H 0.3262 0.2983 0.4952
H44 H 0.2806 0.2221 0.5274
H45 H 0.2942 0.2440 0.3938
C30 C 0.8914(5) 0.2910(3) 0.3912(4)
H46 H 0.8760 0.3399 0.4027
H47 H 0.8885 0.2808 0.3076
H48 H 0.9870 0.2780 0.4249
C31 C 0.7965(6) 0.1737(2) 0.4246(5)
H49 H 0.8939 0.1605 0.4545
H50 H 0.7905 0.1664 0.3402
H51 H 0.7221 0.1460 0.4622
C32 C 0.5811(5) 0.1408(2) 0.6850(4)
H52 H 0.6265 0.1108 0.6267
H53 H 0.6388 0.1375 0.7591
C33 C 0.4220(4) 0.11959(19) 0.7035(4)
C34 C 0.3537(6) 0.0714(2) 0.6301(4)
H54 H 0.4074 0.0507 0.5699
C35 C 0.2070(6) 0.0535(3) 0.6448(5)
H55 H 0.1603 0.0215 0.5941
C36 C 0.1296(5) 0.0839(2) 0.7366(5)
H56 H 0.0304 0.0716 0.7478
C37 C 0.1964(5) 0.1314(2) 0.8108(5)
H57 H 0.1429 0.1512 0.8720
C38 C 0.3416(5) 0.1500(2) 0.7950(4)
H58 H 0.3870 0.1828 0.8449
S2 S 0.57560(10) 0.23098(5) 0.63187(8)
loop_
_geom_bond_atom_site_label_1
_geom_bond_atom_site_label_2
_geom_bond_site_symmetry_1
_geom_bond_site_symmetry_2
B1 F1 1_555 1_555
B2 F5 1_555 1_555
C1 C2 1_555 1_555
C2 H1 1_555 1_555
C3 C2 1_555 1_555
H2 C3 1_555 1_555
H3 C3 1_555 1_555
C4 C3 1_555 1_555
H4 C4 1_555 1_555
H5 C4 1_555 1_555
C5 C4 1_555 1_555
H6 C5 1_555 1_555
C6 C5 1_555 1_555
H7 C6 1_555 1_555
C7 C1 1_555 1_555
C8 C1 1_555 1_555
H8 C8 1_555 1_555
H9 C8 1_555 1_555
H10 C8 1_555 1_555
C9 C2 1_555 1_555
H11 C9 1_555 1_555
H12 C9 1_555 1_555
H13 C9 1_555 1_555
C10 C6 1_555 1_555
H14 C10 1_555 1_555
H15 C10 1_555 1_555
H16 C10 1_555 1_555
C11 C7 1_555 1_555
H17 C11 1_555 1_555
H18 C11 1_555 1_555
H19 C11 1_555 1_555
C12 C7 1_555 1_555
H20 C12 1_555 1_555
H21 C12 1_555 1_555
H22 C12 1_555 1_555
C13 H23 1_555 1_555
H24 C13 1_555 1_555
C14 C13 1_555 1_555
C15 C14 1_555 1_555
H25 C15 1_555 1_555
C16 C15 1_555 1_555
H26 C16 1_555 1_555
C17 C16 1_555 1_555
H27 C17 1_555 1_555
C18 C17 1_555 1_555
H28 C18 1_555 1_555
C19 C14 1_555 1_555
H29 C19 1_555 1_555
C20 C21 1_555 1_555
C21 H30 1_555 1_555
C22 C21 1_555 1_555
H31 C22 1_555 1_555
H32 C22 1_555 1_555
C23 C22 1_555 1_555
H33 C23 1_555 1_555
H34 C23 1_555 1_555
C24 C23 1_555 1_555
H35 C24 1_555 1_555
C25 C24 1_555 1_555
H36 C25 1_555 1_555
C26 C20 1_555 1_555
C27 C20 1_555 1_555
H37 C27 1_555 1_555
H38 C27 1_555 1_555
H39 C27 1_555 1_555
C28 C21 1_555 1_555
H40 C28 1_555 1_555
H41 C28 1_555 1_555
H42 C28 1_555 1_555
C29 C25 1_555 1_555
H43 C29 1_555 1_555
H44 C29 1_555 1_555
H45 C29 1_555 1_555
C30 C26 1_555 1_555
H46 C30 1_555 1_555
H47 C30 1_555 1_555
H48 C30 1_555 1_555
C31 C26 1_555 1_555
H49 C31 1_555 1_555
H50 C31 1_555 1_555
H51 C31 1_555 1_555
C32 H52 1_555 1_555
H53 C32 1_555 1_555
C33 C32 1_555 1_555
C34 C33 1_555 1_555
H54 C34 1_555 1_555
C35 C34 1_555 1_555
H55 C35 1_555 1_555
C36 C35 1_555 1_555
H56 C36 1_555 1_555
C37 C36 1_555 1_555
H57 C37 1_555 1_555
C38 C33 1_555 1_555
H58 C38 1_555 1_555
F2 B1 1_555 1_555
F3 B1 1_555 1_555
F4 B1 1_555 1_555
F6 B2 1_555 1_555
F7 B2 1_555 1_555
F8 B2 1_555 1_555
S1 C1 1_555 1_555
S2 C20 1_555 1_555
C5 C7 1_555 1_555
C6 S1 1_555 1_555
C13 S1 1_555 1_555
C18 C19 1_555 1_555
C24 C26 1_555 1_555
C25 S2 1_555 1_555
C32 S2 1_555 1_555
C37 C38 1_555 1_555

#END
