
#######################################################################
#
#                 Cambridge Crystallographic Data Centre
#                                CCDC 
#
#######################################################################
#
# If this CIF has been generated from an entry in the Cambridge 
# Structural Database, then it will include bibliographic, chemical, 
# crystal, experimental, refinement or atomic coordinate data resulting 
# from the CCDC's data processing and validation procedures.
#
#######################################################################

data_NOLKOQ
_chemical_formula_moiety         'C22 H20 O1'
_chemical_name_systematic        3-methyl-2,4-diphenylchromane
_symmetry_cell_setting           monoclinic
_symmetry_space_group_name_H-M   'P 21/c'
_symmetry_Int_Tables_number      14
_space_group_name_Hall           '-P 2ybc'
loop_
_symmetry_equiv_pos_site_id
_symmetry_equiv_pos_as_xyz
1 x,y,z
2 -x,1/2+y,1/2-z
3 -x,-y,-z
4 x,1/2-y,1/2+z
_cell_length_a                   13.1378(14)
_cell_length_b                   5.7495(6)
_cell_length_c                   22.325(2)
_cell_angle_alpha                90
_cell_angle_beta                 106.838(3)
_cell_angle_gamma                90
_cell_volume                     1614.04
_cell_formula_units_Z            4
loop_
_atom_site_label
_atom_site_type_symbol
_atom_site_fract_x
_atom_site_fract_y
_atom_site_fract_z
O1 O 0.37869(15) 0.8274(3) 0.01296(8)
C1 C 0.2420(2) 0.5013(5) -0.19973(14)
H1 H 0.2211 0.4770 -0.2437
C2 C 0.2127(2) 0.7042(5) -0.17538(13)
H2 H 0.1723 0.8190 -0.2027
C3 C 0.2423(2) 0.7398(5) -0.11137(13)
H3 H 0.2231 0.8803 -0.0950
C4 C 0.3000(2) 0.5716(5) -0.07080(12)
C5 C 0.3262(2) 0.6045(4) -0.00114(12)
H4 H 0.3771 0.4800 0.0200
C6 C 0.2286(2) 0.5955(5) 0.02328(12)
H5 H 0.1819 0.7310 0.0055
C7 C 0.2645(2) 0.6187(5) 0.09505(11)
H6 H 0.2995 0.4691 0.1126
C8 C 0.1708(2) 0.6552(5) 0.12103(12)
C9 C 0.1125(2) 0.8599(5) 0.10886(13)
H7 H 0.1325 0.9782 0.0848
C10 C 0.0257(2) 0.8955(5) 0.13110(13)
H8 H -0.0132 1.0370 0.1224
C11 C -0.0042(2) 0.7237(6) 0.16604(13)
H9 H -0.0637 0.7465 0.1814
C12 C 0.3471(2) 0.8102(4) 0.11510(12)
C13 C 0.3740(2) 0.9035(5) 0.17554(12)
H10 H 0.3416 0.8407 0.2049
C14 C 0.4455(2) 1.0827(5) 0.19394(13)
H11 H 0.4616 1.1429 0.2353
C15 C 0.4940(2) 1.1750(5) 0.15153(13)
H12 H 0.5429 1.3000 0.1636
C16 C 0.4707(2) 1.0842(5) 0.09166(12)
H13 H 0.5045 1.1451 0.0628
C17 C 0.3977(2) 0.9037(5) 0.07386(12)
C18 C 0.1405(2) 0.4861(5) 0.15643(12)
H14 H 0.1800 0.3457 0.1658
C19 C 0.0529(3) 0.5195(6) 0.17839(13)
H15 H 0.0322 0.4007 0.2021
C20 C 0.1649(2) 0.3730(5) 0.00240(13)
H16 H 0.1372 0.3711 -0.0434
H17 H 0.1055 0.3673 0.0207
H18 H 0.2111 0.2378 0.0165
C21 C 0.3301(2) 0.3710(5) -0.09574(13)
H19 H 0.3709 0.2564 -0.0685
C22 C 0.3013(2) 0.3349(5) -0.16037(14)
H20 H 0.3224 0.1971 -0.1770
loop_
_geom_bond_atom_site_label_1
_geom_bond_atom_site_label_2
_geom_bond_site_symmetry_1
_geom_bond_site_symmetry_2
O1 C5 1_555 1_555
C1 H1 1_555 1_555
C2 C1 1_555 1_555
H2 C2 1_555 1_555
C3 C2 1_555 1_555
H3 C3 1_555 1_555
C4 C3 1_555 1_555
C5 C4 1_555 1_555
H4 C5 1_555 1_555
C6 C5 1_555 1_555
H5 C6 1_555 1_555
C7 C6 1_555 1_555
H6 C7 1_555 1_555
C8 C7 1_555 1_555
C9 C8 1_555 1_555
H7 C9 1_555 1_555
C10 C9 1_555 1_555
H8 C10 1_555 1_555
C11 C10 1_555 1_555
H9 C11 1_555 1_555
C12 C7 1_555 1_555
C13 C12 1_555 1_555
H10 C13 1_555 1_555
C14 C13 1_555 1_555
H11 C14 1_555 1_555
C15 C14 1_555 1_555
H12 C15 1_555 1_555
C16 C15 1_555 1_555
H13 C16 1_555 1_555
C17 O1 1_555 1_555
C18 C8 1_555 1_555
H14 C18 1_555 1_555
C19 C11 1_555 1_555
H15 C19 1_555 1_555
C20 C6 1_555 1_555
H16 C20 1_555 1_555
H17 C20 1_555 1_555
H18 C20 1_555 1_555
C21 C4 1_555 1_555
H19 C21 1_555 1_555
C22 C1 1_555 1_555
H20 C22 1_555 1_555
C12 C17 1_555 1_555
C16 C17 1_555 1_555
C18 C19 1_555 1_555
C21 C22 1_555 1_555

#END
