
#######################################################################
#
#                 Cambridge Crystallographic Data Centre
#                                CCDC 
#
#######################################################################
#
# If this CIF has been generated from an entry in the Cambridge 
# Structural Database, then it will include bibliographic, chemical, 
# crystal, experimental, refinement or atomic coordinate data resulting 
# from the CCDC's data processing and validation procedures.
#
#######################################################################

data_NOLSOY
_chemical_formula_moiety         'C72 H84 N12,1.1(C8 H10 O1)'
_chemical_name_systematic        
'(R)-5,12,20,27,35,42,50,57,62,69,74,81-Dodecaazatridecacyclo[29.29.10.10^16,46^.1^3,59^.1^14,18^.1^29,33^.1^44,48^.0^6,11^.0^21,26^.0^36,41^.0^51,56^.0^63,68^.0^75,80^]tetraoctaconta-1,3(71),4,12,14(84),15,17,19,27,29(83),30,32,34,42,44(72),45,47,49,57,59,61,69,73,81-tetracosaene (S)-1-phenylethanol'
_symmetry_cell_setting           cubic
_symmetry_space_group_name_H-M   'F 41 3 2'
_symmetry_Int_Tables_number      210
_space_group_name_Hall           'F 4d 2 3'
loop_
_symmetry_equiv_pos_site_id
_symmetry_equiv_pos_as_xyz
1 x,y,z
2 1/4-y,1/4+x,1/4+z
3 -x,-y,z
4 1/4+y,1/4-x,1/4+z
5 1/4+x,1/4-z,1/4+y
6 x,-y,-z
7 1/4+x,1/4+z,1/4-y
8 1/4+z,1/4+y,1/4-x
9 -x,y,-z
10 1/4-z,1/4+y,1/4+x
11 z,x,y
12 y,z,x
13 -y,-z,x
14 z,-x,-y
15 -y,z,-x
16 -z,-x,y
17 -z,x,-y
18 y,-z,-x
19 1/4+y,1/4+x,1/4-z
20 1/4-y,1/4-x,1/4-z
21 1/4-x,1/4+z,1/4+y
22 1/4-x,1/4-z,1/4-y
23 1/4+z,1/4-y,1/4+x
24 1/4-z,1/4-y,1/4-x
25 x,1/2+y,1/2+z
26 1/4-y,3/4+x,3/4+z
27 -x,1/2-y,1/2+z
28 1/4+y,3/4-x,3/4+z
29 1/4+x,3/4-z,3/4+y
30 x,1/2-y,1/2-z
31 1/4+x,3/4+z,3/4-y
32 1/4+z,3/4+y,3/4-x
33 -x,1/2+y,1/2-z
34 1/4-z,3/4+y,3/4+x
35 z,1/2+x,1/2+y
36 y,1/2+z,1/2+x
37 -y,1/2-z,1/2+x
38 z,1/2-x,1/2-y
39 -y,1/2+z,1/2-x
40 -z,1/2-x,1/2+y
41 -z,1/2+x,1/2-y
42 y,1/2-z,1/2-x
43 1/4+y,3/4+x,3/4-z
44 1/4-y,3/4-x,3/4-z
45 1/4-x,3/4+z,3/4+y
46 1/4-x,3/4-z,3/4-y
47 1/4+z,3/4-y,3/4+x
48 1/4-z,3/4-y,3/4-x
49 1/2+x,y,1/2+z
50 3/4-y,1/4+x,3/4+z
51 1/2-x,-y,1/2+z
52 3/4+y,1/4-x,3/4+z
53 3/4+x,1/4-z,3/4+y
54 1/2+x,-y,1/2-z
55 3/4+x,1/4+z,3/4-y
56 3/4+z,1/4+y,3/4-x
57 1/2-x,y,1/2-z
58 3/4-z,1/4+y,3/4+x
59 1/2+z,x,1/2+y
60 1/2+y,z,1/2+x
61 1/2-y,-z,1/2+x
62 1/2+z,-x,1/2-y
63 1/2-y,z,1/2-x
64 1/2-z,-x,1/2+y
65 1/2-z,x,1/2-y
66 1/2+y,-z,1/2-x
67 3/4+y,1/4+x,3/4-z
68 3/4-y,1/4-x,3/4-z
69 3/4-x,1/4+z,3/4+y
70 3/4-x,1/4-z,3/4-y
71 3/4+z,1/4-y,3/4+x
72 3/4-z,1/4-y,3/4-x
73 1/2+x,1/2+y,z
74 3/4-y,3/4+x,1/4+z
75 1/2-x,1/2-y,z
76 3/4+y,3/4-x,1/4+z
77 3/4+x,3/4-z,1/4+y
78 1/2+x,1/2-y,-z
79 3/4+x,3/4+z,1/4-y
80 3/4+z,3/4+y,1/4-x
81 1/2-x,1/2+y,-z
82 3/4-z,3/4+y,1/4+x
83 1/2+z,1/2+x,y
84 1/2+y,1/2+z,x
85 1/2-y,1/2-z,x
86 1/2+z,1/2-x,-y
87 1/2-y,1/2+z,-x
88 1/2-z,1/2-x,y
89 1/2-z,1/2+x,-y
90 1/2+y,1/2-z,-x
91 3/4+y,3/4+x,1/4-z
92 3/4-y,3/4-x,1/4-z
93 3/4-x,3/4+z,1/4+y
94 3/4-x,3/4-z,1/4-y
95 3/4+z,3/4-y,1/4+x
96 3/4-z,3/4-y,1/4-x
_cell_length_a                   24.951(3)
_cell_length_b                   24.951(3)
_cell_length_c                   24.951(3)
_cell_angle_alpha                90
_cell_angle_beta                 90
_cell_angle_gamma                90
_cell_volume                     15533.3
_exptl_crystal_colour            colorless
_exptl_crystal_description       prism
_cell_formula_units_Z            8
loop_
_atom_site_label
_atom_site_type_symbol
_atom_site_fract_x
_atom_site_fract_y
_atom_site_fract_z
N1 N 0.72355(11) 0.46466(15) 0.54590(15)
C1 C 0.63332(15) 0.44139(17) 0.61598(16)
H1 H 0.6548 0.4713 0.6256
C2 C 0.64678(16) 0.41117(16) 0.57145(17)
C3 C 0.69291(16) 0.42522(16) 0.5371(2)
H2 H 0.7000 0.4034 0.5067
C4 C 0.76992(13) 0.47229(17) 0.51139(17)
H3 H 0.7685 0.4457 0.4814
C5 C 0.81992(19) 0.4636(4) 0.5429(3)
H4 H 0.8200 0.4266 0.5572
H5 H 0.8202 0.4886 0.5738
C6 C 0.87033(18) 0.4722(3) 0.5099(4)
H6 H 0.9025 0.4658 0.5323
H7 H 0.8711 0.4469 0.4794
N1E N 0.72355(11) 0.53534(15) 0.45410(15)
C1E C 0.63332(15) 0.55861(17) 0.38402(16)
H1E H 0.6548 0.5287 0.3744
C2E C 0.64678(16) 0.58883(16) 0.42855(17)
C3E C 0.69291(16) 0.57478(16) 0.4629(2)
H2E H 0.7000 0.5966 0.4933
C4E C 0.76992(13) 0.52771(17) 0.48861(17)
H3E H 0.7685 0.5543 0.5186
C5E C 0.81992(19) 0.5364(4) 0.4571(3)
H4E H 0.8200 0.5734 0.4428
H5E H 0.8202 0.5114 0.4262
C6E C 0.87033(18) 0.5278(3) 0.4901(4)
H6E H 0.9025 0.5342 0.4677
H7E H 0.8711 0.5531 0.5206
N1L N 0.53534(15) 0.45410(15) 0.72355(11)
C1L C 0.55861(17) 0.38402(16) 0.63332(15)
H1L H 0.5287 0.3744 0.6548
C2L C 0.58883(16) 0.42855(17) 0.64678(16)
C3L C 0.57478(16) 0.4629(2) 0.69291(16)
H2L H 0.5966 0.4933 0.7000
C4L C 0.52771(17) 0.48861(17) 0.76992(13)
H3L H 0.5543 0.5186 0.7685
C5L C 0.5364(4) 0.4571(3) 0.81992(19)
H4L H 0.5734 0.4428 0.8200
H5L H 0.5114 0.4262 0.8202
C6L C 0.5278(3) 0.4901(4) 0.87033(18)
H6L H 0.5342 0.4677 0.9025
H7L H 0.5531 0.5206 0.8711
N1M N 0.54590(15) 0.27645(11) 0.53534(15)
C1M C 0.61598(16) 0.36668(15) 0.55861(17)
H1M H 0.6256 0.3452 0.5287
C2M C 0.57145(17) 0.35322(16) 0.58883(16)
C3M C 0.5371(2) 0.30709(16) 0.57478(16)
H2M H 0.5067 0.3000 0.5966
C4M C 0.51139(17) 0.23008(13) 0.52771(17)
H3M H 0.4814 0.2315 0.5543
C5M C 0.5429(3) 0.18008(19) 0.5364(4)
H4M H 0.5572 0.1800 0.5734
H5M H 0.5738 0.1798 0.5114
C6M C 0.5099(4) 0.12967(18) 0.5278(3)
H6M H 0.5323 0.0975 0.5342
H7M H 0.4794 0.1289 0.5531
N1J N 0.54590(15) 0.72355(11) 0.46466(15)
C1J C 0.61598(16) 0.63332(15) 0.44139(17)
H1J H 0.6256 0.6548 0.4713
C2J C 0.57145(17) 0.64678(16) 0.41117(16)
C3J C 0.5371(2) 0.69291(16) 0.42522(16)
H2J H 0.5067 0.7000 0.4034
C4J C 0.51139(17) 0.76992(13) 0.47229(17)
H3J H 0.4814 0.7685 0.4457
C5J C 0.5429(3) 0.81992(19) 0.4636(4)
H4J H 0.5572 0.8200 0.4266
H5J H 0.5738 0.8202 0.4886
C6J C 0.5099(4) 0.87033(18) 0.4722(3)
H6J H 0.5323 0.9025 0.4658
H7J H 0.4794 0.8711 0.4469
N1K N 0.46466(15) 0.54590(15) 0.72355(11)
C1K C 0.44139(17) 0.61598(16) 0.63332(15)
H1K H 0.4713 0.6256 0.6548
C2K C 0.41117(16) 0.57145(17) 0.64678(16)
C3K C 0.42522(16) 0.5371(2) 0.69291(16)
H2K H 0.4034 0.5067 0.7000
C4K C 0.47229(17) 0.51139(17) 0.76992(13)
H3K H 0.4457 0.4814 0.7685
C5K C 0.4636(4) 0.5429(3) 0.81992(19)
H4K H 0.4266 0.5572 0.8200
H5K H 0.4886 0.5738 0.8202
C6K C 0.4722(3) 0.5099(4) 0.87033(18)
H6K H 0.4658 0.5323 0.9025
H7K H 0.4469 0.4794 0.8711
N1N N 0.53534(15) 0.54590(15) 0.27645(11)
C1N C 0.55861(17) 0.61598(16) 0.36668(15)
H1N H 0.5287 0.6256 0.3452
C2N C 0.58883(16) 0.57145(17) 0.35322(16)
C3N C 0.57478(16) 0.5371(2) 0.30709(16)
H2N H 0.5966 0.5067 0.3000
C4N C 0.52771(17) 0.51139(17) 0.23008(13)
H3N H 0.5543 0.4814 0.2315
C5N C 0.5364(4) 0.5429(3) 0.18008(19)
H4N H 0.5734 0.5572 0.1800
H5N H 0.5114 0.5738 0.1798
C6N C 0.5278(3) 0.5099(4) 0.12967(18)
H6N H 0.5342 0.5323 0.0975
H7N H 0.5531 0.4794 0.1289
N1O N 0.45410(15) 0.27645(11) 0.46466(15)
C1O C 0.38402(16) 0.36668(15) 0.44139(17)
H1O H 0.3744 0.3452 0.4713
C2O C 0.42855(17) 0.35322(16) 0.41117(16)
C3O C 0.4629(2) 0.30709(16) 0.42522(16)
H2O H 0.4933 0.3000 0.4034
C4O C 0.48861(17) 0.23008(13) 0.47229(17)
H3O H 0.5186 0.2315 0.4457
C5O C 0.4571(3) 0.18008(19) 0.4636(4)
H4O H 0.4428 0.1800 0.4266
H5O H 0.4262 0.1798 0.4886
C6O C 0.4901(4) 0.12967(18) 0.4722(3)
H6O H 0.4677 0.0975 0.4658
H7O H 0.5206 0.1289 0.4469
N1P N 0.45410(15) 0.72355(11) 0.53534(15)
C1P C 0.38402(16) 0.63332(15) 0.55861(17)
H1P H 0.3744 0.6548 0.5287
C2P C 0.42855(17) 0.64678(16) 0.58883(16)
C3P C 0.4629(2) 0.69291(16) 0.57478(16)
H2P H 0.4933 0.7000 0.5966
C4P C 0.48861(17) 0.76992(13) 0.52771(17)
H3P H 0.5186 0.7685 0.5543
C5P C 0.4571(3) 0.81992(19) 0.5364(4)
H4P H 0.4428 0.8200 0.5734
H5P H 0.4262 0.8202 0.5114
C6P C 0.4901(4) 0.87033(18) 0.5278(3)
H6P H 0.4677 0.9025 0.5342
H7P H 0.5206 0.8711 0.5531
N1Q N 0.46466(15) 0.45410(15) 0.27645(11)
C1Q C 0.44139(17) 0.38402(16) 0.36668(15)
H1Q H 0.4713 0.3744 0.3452
C2Q C 0.41117(16) 0.42855(17) 0.35322(16)
C3Q C 0.42522(16) 0.4629(2) 0.30709(16)
H2Q H 0.4034 0.4933 0.3000
C4Q C 0.47229(17) 0.48861(17) 0.23008(13)
H3Q H 0.4457 0.5186 0.2315
C5Q C 0.4636(4) 0.4571(3) 0.18008(19)
H4Q H 0.4266 0.4428 0.1800
H5Q H 0.4886 0.4262 0.1798
C6Q C 0.4722(3) 0.4901(4) 0.12967(18)
H6Q H 0.4658 0.4677 0.0975
H7Q H 0.4469 0.5206 0.1289
N1B N 0.27645(11) 0.53534(15) 0.54590(15)
C1B C 0.36668(15) 0.55861(17) 0.61598(16)
H1B H 0.3452 0.5287 0.6256
C2B C 0.35322(16) 0.58883(16) 0.57145(17)
C3B C 0.30709(16) 0.57478(16) 0.5371(2)
H2B H 0.3000 0.5966 0.5067
C4B C 0.23008(13) 0.52771(17) 0.51139(17)
H3B H 0.2315 0.5543 0.4814
C5B C 0.18008(19) 0.5364(4) 0.5429(3)
H4B H 0.1800 0.5734 0.5572
H5B H 0.1798 0.5114 0.5738
C6B C 0.12967(18) 0.5278(3) 0.5099(4)
H6B H 0.0975 0.5342 0.5323
H7B H 0.1289 0.5531 0.4794
N1H N 0.27645(11) 0.46466(15) 0.45410(15)
C1H C 0.36668(15) 0.44139(17) 0.38402(16)
H1H H 0.3452 0.4713 0.3744
C2H C 0.35322(16) 0.41117(16) 0.42855(17)
C3H C 0.30709(16) 0.42522(16) 0.4629(2)
H2H H 0.3000 0.4034 0.4933
C4H C 0.23008(13) 0.47229(17) 0.48861(17)
H3H H 0.2315 0.4457 0.5186
C5H C 0.18008(19) 0.4636(4) 0.4571(3)
H4H H 0.1800 0.4266 0.4428
H5H H 0.1798 0.4886 0.4262
C6H C 0.12967(18) 0.4722(3) 0.4901(4)
H6H H 0.0975 0.4658 0.4677
H7H H 0.1289 0.4469 0.5206
loop_
_geom_bond_atom_site_label_1
_geom_bond_atom_site_label_2
_geom_bond_site_symmetry_1
_geom_bond_site_symmetry_2
N1 C3 1_555 1_555
C1 H1 1_555 1_555
C2 C1 1_555 1_555
C3 C2 1_555 1_555
H2 C3 1_555 1_555
C4 N1 1_555 1_555
H3 C4 1_555 1_555
C5 C4 1_555 1_555
H4 C5 1_555 1_555
H5 C5 1_555 1_555
C6 C5 1_555 1_555
H6 C6 1_555 1_555
H7 C6 1_555 1_555
N1E C3E 1_555 1_555
C1E H1E 1_555 1_555
C2E C1E 1_555 1_555
C3E C2E 1_555 1_555
H2E C3E 1_555 1_555
C4E C4 1_555 1_555
H3E C4E 1_555 1_555
C5E C4E 1_555 1_555
H4E C5E 1_555 1_555
H5E C5E 1_555 1_555
C6E C6 1_555 1_555
H6E C6E 1_555 1_555
H7E C6E 1_555 1_555
N1L C3L 1_555 1_555
C1L H1L 1_555 1_555
C2L C1 1_555 1_555
C3L C2L 1_555 1_555
H2L C3L 1_555 1_555
C4L N1L 1_555 1_555
H3L C4L 1_555 1_555
C5L C4L 1_555 1_555
H4L C5L 1_555 1_555
H5L C5L 1_555 1_555
C6L C5L 1_555 1_555
H6L C6L 1_555 1_555
H7L C6L 1_555 1_555
N1M C3M 1_555 1_555
C1M C2 1_555 1_555
H1M C1M 1_555 1_555
C2M C1L 1_555 1_555
C3M C2M 1_555 1_555
H2M C3M 1_555 1_555
C4M N1M 1_555 1_555
H3M C4M 1_555 1_555
C5M C4M 1_555 1_555
H4M C5M 1_555 1_555
H5M C5M 1_555 1_555
C6M C5M 1_555 1_555
H6M C6M 1_555 1_555
H7M C6M 1_555 1_555
N1J C3J 1_555 1_555
C1J C2E 1_555 1_555
H1J C1J 1_555 1_555
C2J C1J 1_555 1_555
C3J C2J 1_555 1_555
H2J C3J 1_555 1_555
C4J N1J 1_555 1_555
H3J C4J 1_555 1_555
C5J C4J 1_555 1_555
H4J C5J 1_555 1_555
H5J C5J 1_555 1_555
C6J C5J 1_555 1_555
H6J C6J 1_555 1_555
H7J C6J 1_555 1_555
N1K C3K 1_555 1_555
C1K H1K 1_555 1_555
C2K C1K 1_555 1_555
C3K C2K 1_555 1_555
H2K C3K 1_555 1_555
C4K C4L 1_555 1_555
H3K C4K 1_555 1_555
C5K C4K 1_555 1_555
H4K C5K 1_555 1_555
H5K C5K 1_555 1_555
C6K C6L 1_555 1_555
H6K C6K 1_555 1_555
H7K C6K 1_555 1_555
N1N C3N 1_555 1_555
C1N C2J 1_555 1_555
H1N C1N 1_555 1_555
C2N C1E 1_555 1_555
C3N C2N 1_555 1_555
H2N C3N 1_555 1_555
C4N N1N 1_555 1_555
H3N C4N 1_555 1_555
C5N C4N 1_555 1_555
H4N C5N 1_555 1_555
H5N C5N 1_555 1_555
C6N C5N 1_555 1_555
H6N C6N 1_555 1_555
H7N C6N 1_555 1_555
N1O C3O 1_555 1_555
C1O H1O 1_555 1_555
C2O C1O 1_555 1_555
C3O C2O 1_555 1_555
H2O C3O 1_555 1_555
C4O C4M 1_555 1_555
H3O C4O 1_555 1_555
C5O C4O 1_555 1_555
H4O C5O 1_555 1_555
H5O C5O 1_555 1_555
C6O C6M 1_555 1_555
H6O C6O 1_555 1_555
H7O C6O 1_555 1_555
N1P C3P 1_555 1_555
C1P H1P 1_555 1_555
C2P C1K 1_555 1_555
C3P C2P 1_555 1_555
H2P C3P 1_555 1_555
C4P C4J 1_555 1_555
H3P C4P 1_555 1_555
C5P C4P 1_555 1_555
H4P C5P 1_555 1_555
H5P C5P 1_555 1_555
C6P C6J 1_555 1_555
H6P C6P 1_555 1_555
H7P C6P 1_555 1_555
N1Q C3Q 1_555 1_555
C1Q C2O 1_555 1_555
H1Q C1Q 1_555 1_555
C2Q C1Q 1_555 1_555
C3Q C2Q 1_555 1_555
H2Q C3Q 1_555 1_555
C4Q C4N 1_555 1_555
H3Q C4Q 1_555 1_555
C5Q C4Q 1_555 1_555
H4Q C5Q 1_555 1_555
H5Q C5Q 1_555 1_555
C6Q C6N 1_555 1_555
H6Q C6Q 1_555 1_555
H7Q C6Q 1_555 1_555
N1B C3B 1_555 1_555
C1B C2K 1_555 1_555
H1B C1B 1_555 1_555
C2B C1P 1_555 1_555
C3B C2B 1_555 1_555
H2B C3B 1_555 1_555
C4B N1B 1_555 1_555
H3B C4B 1_555 1_555
C5B C4B 1_555 1_555
H4B C5B 1_555 1_555
H5B C5B 1_555 1_555
C6B C5B 1_555 1_555
H6B C6B 1_555 1_555
H7B C6B 1_555 1_555
N1H C3H 1_555 1_555
C1H C2Q 1_555 1_555
H1H C1H 1_555 1_555
C2H C1O 1_555 1_555
C3H C2H 1_555 1_555
H2H C3H 1_555 1_555
C4H C4B 1_555 1_555
H3H C4H 1_555 1_555
C5H C4H 1_555 1_555
H4H C5H 1_555 1_555
H5H C5H 1_555 1_555
C6H C6B 1_555 1_555
H6H C6H 1_555 1_555
H7H C6H 1_555 1_555
N1E C4E 1_555 1_555
C5E C6E 1_555 1_555
C1L C2L 1_555 1_555
C1M C2M 1_555 1_555
N1K C4K 1_555 1_555
C5K C6K 1_555 1_555
C1N C2N 1_555 1_555
N1O C4O 1_555 1_555
C5O C6O 1_555 1_555
N1P C4P 1_555 1_555
C1P C2P 1_555 1_555
C5P C6P 1_555 1_555
N1Q C4Q 1_555 1_555
C5Q C6Q 1_555 1_555
C1B C2B 1_555 1_555
N1H C4H 1_555 1_555
C1H C2H 1_555 1_555
C5H C6H 1_555 1_555

#END
