
#######################################################################
#
#                 Cambridge Crystallographic Data Centre
#                                CCDC 
#
#######################################################################
#
# If this CIF has been generated from an entry in the Cambridge 
# Structural Database, then it will include bibliographic, chemical, 
# crystal, experimental, refinement or atomic coordinate data resulting 
# from the CCDC's data processing and validation procedures.
#
#######################################################################

data_NOLSEO
_chemical_formula_moiety         '3(C72 H84 N12),20(C8 H10 O1)'
_chemical_name_systematic        
'tris((R)-5,12,20,27,35,42,50,57,62,69,74,81-Dodecaazatridecacyclo[29.29.10.10^16,46^.1^3,59^.1^14,18^.1^29,33^.1^44,48^.0^6,11^.0^21,26^.0^36,41^.0^51,56^.0^63,68^.0^75,80^]tetraoctaconta-1,3(71),4,12,14(84),15,17,19,27,29(83),30,32,34,42,44(72),45,47,49,57,59,61,69,73,81-tetracosaene) icosakis((S)-1-phenylethanol)'
_symmetry_cell_setting           monoclinic
_symmetry_space_group_name_H-M   'C 2'
_symmetry_Int_Tables_number      5
_space_group_name_Hall           'C 2y'
loop_
_symmetry_equiv_pos_site_id
_symmetry_equiv_pos_as_xyz
1 x,y,z
2 -x,y,-z
3 1/2+x,1/2+y,z
4 1/2-x,1/2+y,-z
_cell_length_a                   36.665(3)
_cell_length_b                   22.696(2)
_cell_length_c                   21.875(2)
_cell_angle_alpha                90
_cell_angle_beta                 101.6110(10)
_cell_angle_gamma                90
_cell_volume                     17830.8
_exptl_crystal_colour            colorless
_exptl_crystal_description       block
_cell_formula_units_Z            2
loop_
_atom_site_label
_atom_site_type_symbol
_atom_site_fract_x
_atom_site_fract_y
_atom_site_fract_z
N1 N 0.39170(7) 0.52685(12) 0.43481(13)
N2 N 0.31160(7) 0.50994(12) 0.41215(14)
N3 N 0.24759(8) 0.30614(12) 0.22104(15)
N4 N 0.29320(8) 0.25086(12) 0.14415(15)
N5 N 0.19903(8) 0.57787(11) 0.15215(14)
N6 N 0.23164(8) 0.65433(12) 0.07004(14)
N7 N 0.50299(8) 0.42281(13) 0.27035(15)
N8 N 0.46977(7) 0.31878(13) 0.20113(15)
N9 N 0.44502(9) 0.69290(14) 0.22987(14)
N10 N 0.40396(9) 0.71828(13) 0.10357(14)
N11 N 0.33163(9) 0.51305(13) -0.09109(14)
N12 N 0.36061(9) 0.39503(14) -0.05650(15)
C1 C 0.46131(10) 0.49266(16) 0.30530(18)
C2 C 0.43717(9) 0.50161(15) 0.34591(16)
H1 H 0.4317 0.4699 0.3710
C3 C 0.42075(9) 0.55671(15) 0.35038(15)
C4 C 0.42790(9) 0.60278(15) 0.31286(16)
H2 H 0.4165 0.6400 0.3155
C5 C 0.45213(10) 0.59460(16) 0.27069(17)
C6 C 0.46880(11) 0.53953(19) 0.26728(19)
H3 H 0.4852 0.5337 0.2393
C7 C 0.47913(10) 0.43475(18) 0.30409(18)
H4 H 0.4726 0.4044 0.3298
C8 C 0.39695(9) 0.56663(14) 0.39626(15)
H5 H 0.3851 0.6038 0.3972
C9 C 0.46065(11) 0.64349(17) 0.23088(18)
H6 H 0.4784 0.6373 0.2054
C10 C 0.35916(10) 0.34621(14) 0.04085(16)
C11 C 0.33642(10) 0.31767(14) 0.07533(16)
H7 H 0.3106 0.3135 0.0583
C12 C 0.35114(9) 0.29484(14) 0.13502(17)
C13 C 0.38875(9) 0.30201(15) 0.15974(17)
H8 H 0.3986 0.2879 0.2006
C14 C 0.41255(10) 0.32968(16) 0.12573(17)
C15 C 0.39716(11) 0.35170(17) 0.06578(17)
H9 H 0.4129 0.3705 0.0421
C16 C 0.34221(10) 0.36878(15) -0.02153(16)
H10 H 0.3162 0.3634 -0.0362
C17 C 0.32647(10) 0.26285(13) 0.16926(17)
H11 H 0.3358 0.2510 0.2111
C18 C 0.45226(10) 0.33740(16) 0.14874(17)
H12 H 0.4660 0.3577 0.1229
C19 C 0.28416(11) 0.62541(17) 0.02787(19)
C20 C 0.29831(13) 0.58944(19) -0.0133(2)
H13 H 0.2824 0.5617 -0.0381
C21 C 0.33528(14) 0.5934(2) -0.0189(3)
C22 C 0.35863(12) 0.6341(2) 0.0170(2)
H14 H 0.3836 0.6383 0.0118
C23 C 0.34536(11) 0.66883(17) 0.06074(19)
C24 C 0.30853(11) 0.66418(16) 0.06520(18)
H15 H 0.2995 0.6881 0.0945
C25 C 0.24485(11) 0.62282(16) 0.03148(18)
H16 H 0.2287 0.5970 0.0044
C26 C 0.35054(14) 0.5541(2) -0.0615(3)
H17 H 0.3754 0.5599 -0.0666
C27 C 0.36953(11) 0.71071(16) 0.1020(2)
H18 H 0.3584 0.7337 0.1296
C28 C 0.24334(9) 0.41074(14) 0.22767(18)
C29 C 0.22835(9) 0.46279(14) 0.20009(18)
H19 H 0.2121 0.4618 0.1604
C30 C 0.23710(9) 0.51676(13) 0.23059(17)
C31 C 0.26089(9) 0.51854(13) 0.28781(17)
H20 H 0.2669 0.5554 0.3080
C32 C 0.27649(9) 0.46617(14) 0.31697(18)
C33 C 0.26735(9) 0.41269(14) 0.28656(18)
H21 H 0.2774 0.3771 0.3058
C34 C 0.23401(10) 0.35363(14) 0.19637(19)
H22 H 0.2175 0.3525 0.1569
C35 C 0.22093(9) 0.57328(13) 0.20386(17)
H23 H 0.2276 0.6082 0.2274
C36 C 0.30150(9) 0.46471(14) 0.37826(17)
H24 H 0.3109 0.4275 0.3939
C37 C 0.33598(9) 0.49921(15) 0.47251(16)
H25 H 0.3452 0.4577 0.4742
C38 C 0.31345(11) 0.5084(2) 0.5234(2)
H26 H 0.2933 0.4787 0.5188
H27 H 0.3018 0.5480 0.5188
C39 C 0.33862(14) 0.5028(3) 0.5882(2)
H28 H 0.3237 0.5101 0.6205
H29 H 0.3487 0.4623 0.5939
C40 C 0.37027(16) 0.5459(3) 0.5964(2)
H30 H 0.3864 0.5405 0.6380
H31 H 0.3603 0.5866 0.5940
C41 C 0.39341(11) 0.5371(2) 0.54558(18)
H32 H 0.4134 0.5672 0.5507
H33 H 0.4054 0.4978 0.5507
C42 C 0.36941(9) 0.54198(15) 0.48033(15)
H34 H 0.3601 0.5833 0.4730
C43 C 0.45647(11) 0.73851(17) 0.18981(19)
H35 H 0.4733 0.7207 0.1641
C44 C 0.47728(15) 0.7869(2) 0.2311(2)
H36 H 0.5003 0.7705 0.2570
H37 H 0.4615 0.8020 0.2595
C45 C 0.4874(2) 0.8382(3) 0.1907(3)
H38 H 0.5000 0.8698 0.2184
H39 H 0.5049 0.8238 0.1652
C46 C 0.4540(3) 0.8626(3) 0.1494(3)
H40 H 0.4616 0.8940 0.1230
H41 H 0.4375 0.8805 0.1749
C47 C 0.4330(2) 0.8144(2) 0.1079(2)
H42 H 0.4489 0.7989 0.0799
H43 H 0.4103 0.8314 0.0815
C48 C 0.42194(13) 0.76384(16) 0.14671(19)
H44 H 0.4041 0.7786 0.1722
C49 C 0.34930(12) 0.47625(16) -0.13153(17)
H45 H 0.3768 0.4834 -0.1229
C50 C 0.33218(17) 0.4916(2) -0.19931(19)
H46 H 0.3382 0.5330 -0.2076
H47 H 0.3048 0.4880 -0.2059
C51 C 0.3467(2) 0.4508(3) -0.2456(2)
H48 H 0.3350 0.4614 -0.2890
H49 H 0.3740 0.4552 -0.2407
C52 C 0.33730(18) 0.3882(2) -0.2324(2)
H50 H 0.3467 0.3615 -0.2615
H51 H 0.3099 0.3837 -0.2396
C53 C 0.35417(15) 0.37103(19) -0.1660(2)
H52 H 0.3816 0.3729 -0.1598
H53 H 0.3472 0.3299 -0.1587
C54 C 0.34112(11) 0.41130(15) -0.11877(16)
H54 H 0.3137 0.4061 -0.1218
C55 C 0.51016(9) 0.33044(15) 0.21618(17)
H55 H 0.5173 0.3545 0.1822
C56 C 0.53059(9) 0.27112(15) 0.22104(19)
H56 H 0.5207 0.2453 0.2503
H57 H 0.5256 0.2518 0.1796
C57 C 0.57275(9) 0.27781(17) 0.2436(2)
H58 H 0.5844 0.2383 0.2498
H59 H 0.5833 0.2986 0.2114
C58 C 0.58174(9) 0.31184(17) 0.3041(2)
H60 H 0.6090 0.3180 0.3160
H61 H 0.5739 0.2886 0.3376
C59 C 0.56201(9) 0.37173(17) 0.29832(19)
H62 H 0.5678 0.3924 0.3390
H63 H 0.5713 0.3962 0.2673
C60 C 0.51985(9) 0.36444(15) 0.27823(16)
H64 H 0.5101 0.3425 0.3112
C61 C 0.23656(10) 0.25178(14) 0.18650(19)
H65 H 0.2218 0.2617 0.1442
C62 C 0.21215(12) 0.21584(16) 0.2225(2)
H66 H 0.1898 0.2390 0.2261
H67 H 0.2263 0.2075 0.2652
C63 C 0.20009(12) 0.15740(16) 0.1886(2)
H68 H 0.1858 0.1337 0.2137
H69 H 0.1837 0.1657 0.1477
C64 C 0.23430(13) 0.12224(15) 0.1788(2)
H70 H 0.2489 0.1095 0.2197
H71 H 0.2260 0.0865 0.1539
C65 C 0.25874(11) 0.15934(15) 0.1452(2)
H72 H 0.2448 0.1685 0.1026
H73 H 0.2810 0.1363 0.1411
C66 C 0.27109(10) 0.21680(14) 0.17944(18)
H74 H 0.2863 0.2077 0.2217
C67 C 0.19137(9) 0.65080(14) 0.06783(17)
H75 H 0.1804 0.6185 0.0388
C68 C 0.17371(10) 0.70941(16) 0.04401(19)
H76 H 0.1762 0.7151 0.0002
H77 H 0.1872 0.7419 0.0692
C69 C 0.13222(11) 0.71219(18) 0.0475(2)
H78 H 0.1224 0.7519 0.0347
H79 H 0.1181 0.6832 0.0181
C70 C 0.12653(10) 0.69929(15) 0.11279(19)
H80 H 0.0995 0.6984 0.1129
H81 H 0.1379 0.7311 0.1413
C71 C 0.14402(9) 0.64016(14) 0.13603(19)
H82 H 0.1412 0.6338 0.1796
H83 H 0.1306 0.6080 0.1102
C72 C 0.18508(9) 0.63757(13) 0.13321(16)
H84 H 0.1990 0.6670 0.1631
N13 N 0.15122(7) 0.50766(11) 0.64110(13)
N14 N 0.15571(7) 0.59383(12) 0.54448(13)
N15 N 0.04279(7) 0.60640(12) 0.27985(12)
N16 N -0.00349(8) 0.50104(12) 0.24858(13)
N17 N -0.02960(7) 0.29870(11) 0.44348(13)
N18 N 0.03636(7) 0.80636(11) 0.48378(13)
C73 C 0.07193(9) 0.63188(14) 0.38495(15)
C74 C 0.04893(9) 0.68050(14) 0.38831(16)
H85 H 0.0299 0.6902 0.3535
C75 C 0.05362(9) 0.71480(13) 0.44200(15)
C76 C 0.08119(9) 0.69971(13) 0.49383(15)
H86 H 0.0841 0.7224 0.5310
C77 C 0.10426(9) 0.65155(13) 0.49092(15)
C78 C 0.09979(9) 0.61774(14) 0.43611(15)
H87 H 0.1158 0.5852 0.4340
C79 C 0.06802(9) 0.59649(14) 0.32720(15)
H88 H 0.0851 0.5653 0.3257
C80 C 0.03052(9) 0.76815(13) 0.44142(15)
H89 H 0.0102 0.7738 0.4073
C81 C 0.13378(9) 0.63722(13) 0.54551(15)
H90 H 0.1365 0.6608 0.5820
C82 C -0.08368(9) 0.48067(14) 0.32050(16)
H91 H -0.0975 0.5137 0.3019
C83 C -0.04994(9) 0.46691(14) 0.30419(16)
C84 C -0.03005(9) 0.41742(15) 0.33149(17)
H92 H -0.0069 0.4078 0.3207
C85 C -0.04366(9) 0.38227(14) 0.37407(16)
C86 C -0.07771(9) 0.39750(14) 0.39043(17)
H93 H -0.0871 0.3741 0.4198
C87 C -0.03579(9) 0.50552(14) 0.25960(16)
H94 H -0.0518 0.5351 0.2383
C88 C -0.02128(9) 0.33140(14) 0.40131(17)
H95 H 0.0007 0.3225 0.3864
C89 C 0.00459(9) 0.54225(13) 0.20095(15)
H96 H -0.0149 0.5737 0.1934
C90 C 0.00395(11) 0.50849(15) 0.14039(16)
H97 H -0.0212 0.4917 0.1253
H98 H 0.0219 0.4754 0.1485
C91 C 0.01404(12) 0.54883(19) 0.08985(18)
H99 H 0.0150 0.5252 0.0522
H100 H -0.0056 0.5790 0.0782
C92 C 0.05086(12) 0.57885(18) 0.11167(17)
H101 H 0.0553 0.6071 0.0794
H102 H 0.0710 0.5491 0.1177
C93 C 0.05170(10) 0.61176(14) 0.17320(15)
H103 H 0.0766 0.6294 0.1876
H104 H 0.0332 0.6442 0.1660
C94 C 0.04295(8) 0.57072(13) 0.22390(14)
H105 H 0.0625 0.5394 0.2335
C95 C 0.13289(9) 0.46315(14) 0.61778(16)
H106 H 0.1420 0.4399 0.5879
C96 C 0.09763(9) 0.44653(14) 0.63606(17)
C97 C 0.18512(8) 0.58512(13) 0.59940(15)
H107 H 0.1806 0.6111 0.6341
C98 C 0.22236(9) 0.60165(16) 0.58186(16)
H108 H 0.2253 0.5789 0.5445
H109 H 0.2221 0.6440 0.5711
C99 C 0.25541(10) 0.5892(2) 0.63497(19)
H110 H 0.2788 0.5975 0.6207
H111 H 0.2542 0.6158 0.6704
C100 C 0.25554(9) 0.5265(2) 0.65640(19)
H112 H 0.2760 0.5210 0.6931
H113 H 0.2604 0.5002 0.6228
C101 C 0.21845(9) 0.50918(17) 0.67379(16)
H114 H 0.2191 0.4669 0.6849
H115 H 0.2150 0.5321 0.7107
C102 C 0.18577(8) 0.52068(14) 0.61988(15)
H116 H 0.1878 0.4946 0.5839
C103 C -0.00528(9) 0.24827(13) 0.46392(17)
H117 H 0.0179 0.2521 0.4467
C104 C -0.02559(11) 0.19186(15) 0.4387(2)
H118 H -0.0294 0.1916 0.3926
H119 H -0.0504 0.1910 0.4501
C105 C -0.00362(13) 0.13687(15) 0.4650(2)
H120 H -0.0179 0.1011 0.4489
H121 H 0.0204 0.1359 0.4508
C106 C 0.01224(8) 0.85846(12) 0.47542(15)
H122 H -0.0040 0.8576 0.4328
C107 C 0.03641(8) 0.91416(13) 0.48233(17)
H123 H 0.0537 0.9134 0.5234
H124 H 0.0515 0.9143 0.4496
C108 C 0.01335(9) 0.97036(13) 0.47716(17)
H125 H -0.0012 0.9743 0.4340
H126 H 0.0302 1.0047 0.4859
N13A N -0.15122(7) 0.50766(11) 0.35890(13)
N14A N -0.15571(7) 0.59383(12) 0.45552(13)
N15A N -0.04279(7) 0.60640(12) 0.72015(12)
N16A N 0.00349(8) 0.50104(12) 0.75142(13)
N17A N 0.02960(7) 0.29870(11) 0.55652(13)
N18A N -0.03636(7) 0.80636(11) 0.51622(13)
C73A C -0.07193(9) 0.63188(14) 0.61505(15)
C74A C -0.04893(9) 0.68050(14) 0.61169(16)
H85A H -0.0299 0.6902 0.6465
C75A C -0.05362(9) 0.71480(13) 0.55800(15)
C76A C -0.08119(9) 0.69971(13) 0.50617(15)
H86A H -0.0841 0.7224 0.4690
C77A C -0.10426(9) 0.65155(13) 0.50908(15)
C78A C -0.09979(9) 0.61774(14) 0.56389(15)
H87A H -0.1158 0.5852 0.5660
C79A C -0.06802(9) 0.59649(14) 0.67280(15)
H88A H -0.0851 0.5653 0.6743
C80A C -0.03052(9) 0.76815(13) 0.55858(15)
H89A H -0.0102 0.7738 0.5927
C81A C -0.13378(9) 0.63722(13) 0.45449(15)
H90A H -0.1365 0.6608 0.4180
C82A C 0.08368(9) 0.48067(14) 0.67950(16)
H91A H 0.0975 0.5137 0.6981
C83A C 0.04994(9) 0.46691(14) 0.69581(16)
C84A C 0.03005(9) 0.41742(15) 0.66851(17)
H92A H 0.0069 0.4078 0.6793
C85A C 0.04366(9) 0.38227(14) 0.62593(16)
C86A C 0.07771(9) 0.39750(14) 0.60957(17)
H93A H 0.0871 0.3741 0.5802
C87A C 0.03579(9) 0.50552(14) 0.74040(16)
H94A H 0.0518 0.5351 0.7617
C88A C 0.02128(9) 0.33140(14) 0.59869(17)
H95A H -0.0007 0.3225 0.6136
C89A C -0.00459(9) 0.54225(13) 0.79905(15)
H96A H 0.0149 0.5737 0.8066
C90A C -0.00395(11) 0.50849(15) 0.85961(16)
H97A H 0.0212 0.4917 0.8747
H98A H -0.0219 0.4754 0.8515
C91A C -0.01404(12) 0.54883(19) 0.91015(18)
H99A H -0.0150 0.5252 0.9478
H100A H 0.0056 0.5790 0.9218
C92A C -0.05086(12) 0.57885(18) 0.88833(17)
H101A H -0.0553 0.6071 0.9206
H102A H -0.0710 0.5491 0.8823
C93A C -0.05170(10) 0.61176(14) 0.82680(15)
H103A H -0.0766 0.6294 0.8124
H104A H -0.0332 0.6442 0.8340
C94A C -0.04295(8) 0.57072(13) 0.77610(14)
H105A H -0.0625 0.5394 0.7665
C95A C -0.13289(9) 0.46315(14) 0.38222(16)
H106A H -0.1420 0.4399 0.4121
C96A C -0.09763(9) 0.44653(14) 0.36394(17)
C97A C -0.18512(8) 0.58512(13) 0.40060(15)
H107A H -0.1806 0.6111 0.3659
C98A C -0.22236(9) 0.60165(16) 0.41814(16)
H108A H -0.2253 0.5789 0.4555
H109A H -0.2221 0.6440 0.4289
C99A C -0.25541(10) 0.5892(2) 0.36503(19)
H110A H -0.2788 0.5975 0.3793
H111A H -0.2542 0.6158 0.3296
C100A C -0.25554(9) 0.5265(2) 0.34360(19)
H112A H -0.2760 0.5210 0.3069
H113A H -0.2604 0.5002 0.3772
C101A C -0.21845(9) 0.50918(17) 0.32621(16)
H114A H -0.2191 0.4669 0.3151
H115A H -0.2150 0.5321 0.2893
C102A C -0.18577(8) 0.52068(14) 0.38012(15)
H116A H -0.1878 0.4946 0.4161
C103A C 0.00528(9) 0.24827(13) 0.53608(17)
H117A H -0.0179 0.2521 0.5533
C104A C 0.02559(11) 0.19186(15) 0.5613(2)
H118A H 0.0294 0.1916 0.6074
H119A H 0.0504 0.1910 0.5499
C105A C 0.00362(13) 0.13687(15) 0.5350(2)
H120A H 0.0179 0.1011 0.5511
H121A H -0.0204 0.1359 0.5492
C106A C -0.01224(8) 0.85846(12) 0.52458(15)
H122A H 0.0040 0.8576 0.5672
C107A C -0.03641(8) 0.91416(13) 0.51767(17)
H123A H -0.0537 0.9134 0.4766
H124A H -0.0515 0.9143 0.5504
C108A C -0.01335(9) 0.97036(13) 0.52284(17)
H125A H 0.0012 0.9743 0.5660
H126A H -0.0302 1.0047 0.5141
O1 O 0.16410(8) 0.49996(12) 0.05604(15)
H127 H 0.1726 0.4745 0.0348
C109 C 0.13119(8) 0.41645(9) 0.09003(14)
C110 C 0.14320(9) 0.37255(12) 0.05440(13)
H128 H 0.1516 0.3826 0.0174
C111 C 0.14291(9) 0.31400(10) 0.07292(17)
H129 H 0.1511 0.2840 0.0486
C112 C 0.13061(10) 0.29934(11) 0.12707(18)
H130 H 0.1304 0.2593 0.1397
C113 C 0.11860(11) 0.34323(16) 0.16269(14)
H131 H 0.1102 0.3332 0.1997
C114 C 0.11889(10) 0.40179(14) 0.14418(14)
H132 H 0.1107 0.4318 0.1685
C115 C 0.12909(12) 0.48037(18) 0.0679(2)
H133 H 0.1223 0.5057 0.1013
C116 C 0.10002(15) 0.4881(2) 0.0089(3)
H134 H 0.0977 0.5300 -0.0021
H135 H 0.0760 0.4733 0.0156
H136 H 0.1075 0.4660 -0.0251
O2 O 0.06901(12) 0.3628(2) 0.3795(2)
H137 H 0.0786 0.3493 0.4148
C117 C 0.11152(8) 0.44507(17) 0.37615(16)
C118 C 0.12292(11) 0.4340(2) 0.32038(15)
H138 H 0.1067 0.4143 0.2873
C119 C 0.15806(12) 0.4517(2) 0.31293(17)
H139 H 0.1658 0.4441 0.2748
C120 C 0.18179(9) 0.4805(2) 0.3613(2)
H140 H 0.2058 0.4926 0.3562
C121 C 0.17039(8) 0.49157(17) 0.41704(17)
H141 H 0.1866 0.5113 0.4501
C122 C 0.13525(9) 0.47387(15) 0.42448(13)
H142 H 0.1275 0.4815 0.4626
C123 C 0.07180(15) 0.4259(3) 0.3807(3)
H143 H 0.0544 0.4412 0.3428
C124 C 0.05900(15) 0.4511(3) 0.4384(3)
H144 H 0.0338 0.4371 0.4390
H145 H 0.0591 0.4942 0.4366
H146 H 0.0760 0.4379 0.4764
O3 O 0.41106(8) 0.80535(14) 0.50780(15)
H147 H 0.4299 0.8018 0.4917
C125 C 0.34494(7) 0.80655(14) 0.46668(16)
C126 C 0.32244(10) 0.81349(17) 0.40790(14)
H148 H 0.3300 0.7975 0.3722
C127 C 0.28895(10) 0.84385(18) 0.4013(2)
H149 H 0.2736 0.8486 0.3611
C128 C 0.27796(8) 0.86727(17) 0.4534(3)
H150 H 0.2551 0.8880 0.4489
C129 C 0.30045(11) 0.8603(2) 0.5122(2)
H151 H 0.2929 0.8763 0.5479
C130 C 0.33395(9) 0.82997(18) 0.51885(15)
H152 H 0.3493 0.8252 0.5590
C131 C 0.38088(13) 0.77144(19) 0.4726(2)
H153 H 0.3858 0.7635 0.4301
C132 C 0.37856(16) 0.7123(2) 0.5068(4)
H154 H 0.4019 0.6905 0.5094
H155 H 0.3578 0.6889 0.4837
H156 H 0.3745 0.7201 0.5490
O4 O 0.18569(11) 0.52830(13) -0.05500(16)
H157 H 0.1970 0.5563 -0.0682
C133 C 0.20408(8) 0.42532(10) -0.05391(13)
C134 C 0.23132(8) 0.43329(10) -0.00035(14)
H158 H 0.2396 0.4719 0.0124
C135 C 0.24647(8) 0.38481(13) 0.03457(13)
H159 H 0.2651 0.3903 0.0712
C136 C 0.23437(9) 0.32835(11) 0.01594(15)
H160 H 0.2447 0.2952 0.0398
C137 C 0.20713(10) 0.32037(9) -0.03762(15)
H161 H 0.1989 0.2818 -0.0504
C138 C 0.19198(8) 0.36886(12) -0.07255(12)
H162 H 0.1734 0.3634 -0.1092
C139 C 0.18726(16) 0.47769(18) -0.0925(2)
H163 H 0.1616 0.4674 -0.1152
C140 C 0.2113(2) 0.4943(2) -0.1403(3)
H164 H 0.1999 0.5275 -0.1657
H165 H 0.2131 0.4604 -0.1673
H166 H 0.2363 0.5054 -0.1181
O5 O 0.38187(9) 0.25717(14) 0.33967(18)
H167 H 0.4033 0.2509 0.3328
C141 C 0.35256(6) 0.30808(13) 0.41192(11)
C142 C 0.36052(7) 0.32278(14) 0.47489(12)
H168 H 0.3847 0.3364 0.4938
C143 C 0.33316(10) 0.31754(17) 0.51026(12)
H169 H 0.3386 0.3276 0.5533
C144 C 0.29784(9) 0.29759(18) 0.48266(17)
H170 H 0.2791 0.2940 0.5068
C145 C 0.28988(6) 0.28290(15) 0.41969(17)
H171 H 0.2657 0.2693 0.4008
C146 C 0.31724(7) 0.28814(12) 0.38432(12)
H172 H 0.3118 0.2781 0.3413
C147 C 0.38194(11) 0.31026(19) 0.3733(2)
H173 H 0.4067 0.3145 0.4020
C148 C 0.37597(14) 0.3637(2) 0.3286(3)
H174 H 0.3947 0.3630 0.3022
H175 H 0.3785 0.4002 0.3529
H176 H 0.3510 0.3617 0.3022
O6 O 0.44978(8) 0.24647(12) 0.30081(14)
H177 H 0.4509 0.2647 0.2678
C149 C 0.42598(8) 0.16323(13) 0.23573(13)
C150 C 0.43635(9) 0.16772(15) 0.17819(15)
H178 H 0.4598 0.1842 0.1755
C151 C 0.41242(14) 0.14806(19) 0.12453(14)
H179 H 0.4195 0.1511 0.0852
C152 C 0.37812(13) 0.12392(19) 0.1284(2)
H180 H 0.3618 0.1105 0.0917
C153 C 0.36775(8) 0.11944(17) 0.1860(3)
H181 H 0.3443 0.1029 0.1886
C154 C 0.39168(9) 0.13909(15) 0.2396(2)
H182 H 0.3846 0.1360 0.2789
C155 C 0.45416(10) 0.18378(18) 0.2913(2)
H183 H 0.4797 0.1765 0.2834
C156 C 0.45037(12) 0.1527(2) 0.34901(18)
H184 H 0.4672 0.1705 0.3848
H185 H 0.4568 0.1111 0.3458
H186 H 0.4246 0.1559 0.3548
O7 O 0.34992(9) 0.68780(17) 0.33292(16)
H187 H 0.3706 0.6718 0.3467
C157 C 0.32013(9) 0.74383(13) 0.24129(16)
C158 C 0.33418(8) 0.79939(16) 0.25952(17)
H188 H 0.3584 0.8033 0.2847
C159 C 0.31280(11) 0.84925(12) 0.2410(2)
H189 H 0.3224 0.8872 0.2534
C160 C 0.27735(11) 0.84355(14) 0.2042(2)
H190 H 0.2627 0.8776 0.1915
C161 C 0.26329(8) 0.78799(18) 0.18596(17)
H191 H 0.2391 0.7841 0.1608
C162 C 0.28468(9) 0.73813(13) 0.20451(16)
H192 H 0.2751 0.7002 0.1921
C163 C 0.34301(13) 0.6887(2) 0.2660(2)
H193 H 0.3678 0.6933 0.2542
C164 C 0.3280(2) 0.63163(19) 0.2404(3)
H194 H 0.3421 0.5996 0.2643
H195 H 0.3301 0.6287 0.1966
H196 H 0.3017 0.6286 0.2435
O8 O 0.4101(2) 0.4889(3) 0.0129(4)
H197 H 0.3876 0.4797 0.0002
C165 C 0.38647(14) 0.4863(3) 0.1126(3)
C166 C 0.39373(13) 0.4747(3) 0.1763(3)
H198 H 0.4187 0.4701 0.1983
C167 C 0.36448(17) 0.4698(3) 0.20770(18)
H199 H 0.3694 0.4618 0.2512
C168 C 0.32798(15) 0.4765(3) 0.1755(2)
H200 H 0.3080 0.4731 0.1969
C169 C 0.32073(12) 0.4881(3) 0.1118(2)
H201 H 0.2958 0.4927 0.0897
C170 C 0.34997(16) 0.4930(2) 0.08034(18)
H202 H 0.3450 0.5010 0.0368
C171 C 0.4184(2) 0.4962(5) 0.0885(6)
H203 H 0.4359 0.4635 0.1051
C172 C 0.4414(3) 0.5488(5) 0.0920(5)
H204 H 0.4531 0.5506 0.0555
H205 H 0.4607 0.5476 0.1301
H206 H 0.4258 0.5838 0.0927
O9 O 0.5606(2) 0.7426(4) 0.3324(4)
H207 H 0.5624 0.7105 0.3520
C173 C 0.5702(2) 0.6721(3) 0.2530(4)
C174 C 0.5631(2) 0.6261(4) 0.2908(3)
H208 H 0.5625 0.6332 0.3334
C175 C 0.5568(2) 0.5696(4) 0.2663(4)
H209 H 0.5519 0.5381 0.2921
C176 C 0.5577(2) 0.5592(3) 0.2040(4)
H210 H 0.5534 0.5207 0.1872
C177 C 0.5648(2) 0.6053(4) 0.1662(3)
H211 H 0.5654 0.5982 0.1236
C178 C 0.5711(2) 0.6617(3) 0.1907(4)
H212 H 0.5760 0.6932 0.1648
C179 C 0.5790(2) 0.7379(8) 0.2814(5)
H213 H 0.5696 0.7685 0.2491
C180 C 0.6212(2) 0.7429(6) 0.3040(7)
H214 H 0.6270 0.7791 0.3285
H215 H 0.6333 0.7442 0.2679
H216 H 0.6304 0.7088 0.3300
O10 O 0.29402(7) 0.63140(11) 0.39261(14)
H217 H 0.2985 0.5951 0.3923
C181 C 0.23117(10) 0.66909(15) 0.3765(2)
C182 C 0.23703(10) 0.70740(18) 0.3305(2)
H218 H 0.2618 0.7155 0.3261
C183 C 0.20782(11) 0.7342(2) 0.2909(2)
H219 H 0.2127 0.7603 0.2596
C184 C 0.17187(11) 0.7237(2) 0.2958(3)
H220 H 0.1518 0.7426 0.2686
C185 C 0.16535(13) 0.6854(3) 0.3409(4)
H221 H 0.1406 0.6783 0.3458
C186 C 0.19487(13) 0.6567(3) 0.3794(3)
H222 H 0.1898 0.6280 0.4082
C187 C 0.26278(10) 0.64160(16) 0.42227(19)
H223 H 0.2543 0.6030 0.4365
C188 C 0.27484(12) 0.6815(2) 0.4789(2)
H224 H 0.2920 0.6600 0.5115
H225 H 0.2529 0.6938 0.4949
H226 H 0.2874 0.7164 0.4667
C189? C 0.4372(6) 0.451(2) -0.0355(15)
H227? H 0.4225 0.4228 -0.0642
H228? H 0.4324 0.4911 -0.0521
H229? H 0.4301 0.4486 0.0054
C190? C 0.4761(6) 0.4378(8) -0.0288(8)
H230? H 0.4897 0.4577 0.0099
O11? O 0.4935(6) 0.4549(13) -0.0790(9)
H231? H 0.5092 0.4293 -0.0839
O12? O 0.53957(16) 0.6850(6) -0.0019(7)
H232? H 0.5438 0.7029 -0.0334
C191? C 0.5000 0.8810(5) 0.0000
H233? H 0.5000 0.9229 0.0000
C192? C 0.47199(14) 0.8511(3) -0.0402(3)
H234? H 0.4529 0.8719 -0.0676
C193? C 0.47256(19) 0.7901(3) -0.0394(3)
H235? H 0.4535 0.7693 -0.0669
C194? C 0.5000 0.7579(4) 0.0000
C195? C 0.5000 0.6898(4) 0.0000
H236? H 0.4936 0.6898 -0.0467
C196? C 0.4690(4) 0.6721(5) 0.0343(8)
H237? H 0.4633 0.6301 0.0275
H238? H 0.4466 0.6954 0.0183
H239? H 0.4772 0.6795 0.0791
C197? C 0.48293(8) 0.2613(7) -0.02060(18)
H240? H 0.4706 0.2258 -0.0355
C198? C 0.4679(3) 0.3162(7) -0.0388(6)
H241? H 0.4445 0.3162 -0.0670
C199? C 0.48290(8) 0.3710(8) -0.02063(17)
C200? C 0.48290(8) 0.3710(8) -0.02063(17)
H242? H 0.4705 0.4065 -0.0355
loop_
_geom_bond_atom_site_label_1
_geom_bond_atom_site_label_2
_geom_bond_site_symmetry_1
_geom_bond_site_symmetry_2
N1 C8 1_555 1_555
N2 C36 1_555 1_555
N3 C34 1_555 1_555
N4 C17 1_555 1_555
N5 C35 1_555 1_555
N6 C25 1_555 1_555
N7 C7 1_555 1_555
N8 C18 1_555 1_555
N9 C9 1_555 1_555
N10 C27 1_555 1_555
N11 C26 1_555 1_555
N12 C16 1_555 1_555
C1 C2 1_555 1_555
C2 H1 1_555 1_555
C3 C2 1_555 1_555
C4 C3 1_555 1_555
H2 C4 1_555 1_555
C5 C4 1_555 1_555
C6 C1 1_555 1_555
H3 C6 1_555 1_555
C7 C1 1_555 1_555
H4 C7 1_555 1_555
C8 C3 1_555 1_555
H5 C8 1_555 1_555
C9 C5 1_555 1_555
H6 C9 1_555 1_555
C10 C11 1_555 1_555
C11 H7 1_555 1_555
C12 C11 1_555 1_555
C13 C12 1_555 1_555
H8 C13 1_555 1_555
C14 C13 1_555 1_555
C15 C10 1_555 1_555
H9 C15 1_555 1_555
C16 C10 1_555 1_555
H10 C16 1_555 1_555
C17 C12 1_555 1_555
H11 C17 1_555 1_555
C18 C14 1_555 1_555
H12 C18 1_555 1_555
C19 C20 1_555 1_555
C20 H13 1_555 1_555
C21 C20 1_555 1_555
C22 C21 1_555 1_555
H14 C22 1_555 1_555
C23 C22 1_555 1_555
C24 C19 1_555 1_555
H15 C24 1_555 1_555
C25 C19 1_555 1_555
H16 C25 1_555 1_555
C26 C21 1_555 1_555
H17 C26 1_555 1_555
C27 C23 1_555 1_555
H18 C27 1_555 1_555
C28 C29 1_555 1_555
C29 H19 1_555 1_555
C30 C29 1_555 1_555
C31 C30 1_555 1_555
H20 C31 1_555 1_555
C32 C31 1_555 1_555
C33 C28 1_555 1_555
H21 C33 1_555 1_555
C34 C28 1_555 1_555
H22 C34 1_555 1_555
C35 C30 1_555 1_555
H23 C35 1_555 1_555
C36 C32 1_555 1_555
H24 C36 1_555 1_555
C37 N2 1_555 1_555
H25 C37 1_555 1_555
C38 C37 1_555 1_555
H26 C38 1_555 1_555
H27 C38 1_555 1_555
C39 C38 1_555 1_555
H28 C39 1_555 1_555
H29 C39 1_555 1_555
C40 C39 1_555 1_555
H30 C40 1_555 1_555
H31 C40 1_555 1_555
C41 C40 1_555 1_555
H32 C41 1_555 1_555
H33 C41 1_555 1_555
C42 N1 1_555 1_555
H34 C42 1_555 1_555
C43 N9 1_555 1_555
H35 C43 1_555 1_555
C44 C43 1_555 1_555
H36 C44 1_555 1_555
H37 C44 1_555 1_555
C45 C44 1_555 1_555
H38 C45 1_555 1_555
H39 C45 1_555 1_555
C46 C45 1_555 1_555
H40 C46 1_555 1_555
H41 C46 1_555 1_555
C47 C46 1_555 1_555
H42 C47 1_555 1_555
H43 C47 1_555 1_555
C48 N10 1_555 1_555
H44 C48 1_555 1_555
C49 N11 1_555 1_555
H45 C49 1_555 1_555
C50 C49 1_555 1_555
H46 C50 1_555 1_555
H47 C50 1_555 1_555
C51 C50 1_555 1_555
H48 C51 1_555 1_555
H49 C51 1_555 1_555
C52 C51 1_555 1_555
H50 C52 1_555 1_555
H51 C52 1_555 1_555
C53 C52 1_555 1_555
H52 C53 1_555 1_555
H53 C53 1_555 1_555
C54 N12 1_555 1_555
H54 C54 1_555 1_555
C55 N8 1_555 1_555
H55 C55 1_555 1_555
C56 C55 1_555 1_555
H56 C56 1_555 1_555
H57 C56 1_555 1_555
C57 C56 1_555 1_555
H58 C57 1_555 1_555
H59 C57 1_555 1_555
C58 C57 1_555 1_555
H60 C58 1_555 1_555
H61 C58 1_555 1_555
C59 C58 1_555 1_555
H62 C59 1_555 1_555
H63 C59 1_555 1_555
C60 N7 1_555 1_555
H64 C60 1_555 1_555
C61 N3 1_555 1_555
H65 C61 1_555 1_555
C62 C61 1_555 1_555
H66 C62 1_555 1_555
H67 C62 1_555 1_555
C63 C62 1_555 1_555
H68 C63 1_555 1_555
H69 C63 1_555 1_555
C64 C63 1_555 1_555
H70 C64 1_555 1_555
H71 C64 1_555 1_555
C65 C64 1_555 1_555
H72 C65 1_555 1_555
H73 C65 1_555 1_555
C66 N4 1_555 1_555
H74 C66 1_555 1_555
C67 N6 1_555 1_555
H75 C67 1_555 1_555
C68 C67 1_555 1_555
H76 C68 1_555 1_555
H77 C68 1_555 1_555
C69 C68 1_555 1_555
H78 C69 1_555 1_555
H79 C69 1_555 1_555
C70 C69 1_555 1_555
H80 C70 1_555 1_555
H81 C70 1_555 1_555
C71 C70 1_555 1_555
H82 C71 1_555 1_555
H83 C71 1_555 1_555
C72 N5 1_555 1_555
H84 C72 1_555 1_555
N13 C95 1_555 1_555
N14 C81 1_555 1_555
N15 C79 1_555 1_555
N16 C87 1_555 1_555
N17 C88 1_555 1_555
N18 C80 1_555 1_555
C73 C74 1_555 1_555
C74 H85 1_555 1_555
C75 C74 1_555 1_555
C76 C75 1_555 1_555
H86 C76 1_555 1_555
C77 C76 1_555 1_555
C78 C73 1_555 1_555
H87 C78 1_555 1_555
C79 C73 1_555 1_555
H88 C79 1_555 1_555
C80 C75 1_555 1_555
H89 C80 1_555 1_555
C81 C77 1_555 1_555
H90 C81 1_555 1_555
C82 H91 1_555 1_555
C83 C82 1_555 1_555
C84 C83 1_555 1_555
H92 C84 1_555 1_555
C85 C84 1_555 1_555
C86 C85 1_555 1_555
H93 C86 1_555 1_555
C87 C83 1_555 1_555
H94 C87 1_555 1_555
C88 C85 1_555 1_555
H95 C88 1_555 1_555
C89 N16 1_555 1_555
H96 C89 1_555 1_555
C90 C89 1_555 1_555
H97 C90 1_555 1_555
H98 C90 1_555 1_555
C91 C90 1_555 1_555
H99 C91 1_555 1_555
H100 C91 1_555 1_555
C92 C91 1_555 1_555
H101 C92 1_555 1_555
H102 C92 1_555 1_555
C93 C92 1_555 1_555
H103 C93 1_555 1_555
H104 C93 1_555 1_555
C94 N15 1_555 1_555
H105 C94 1_555 1_555
C95 H106 1_555 1_555
C96 C95 1_555 1_555
C97 N14 1_555 1_555
H107 C97 1_555 1_555
C98 C97 1_555 1_555
H108 C98 1_555 1_555
H109 C98 1_555 1_555
C99 C98 1_555 1_555
H110 C99 1_555 1_555
H111 C99 1_555 1_555
C100 C99 1_555 1_555
H112 C100 1_555 1_555
H113 C100 1_555 1_555
C101 C100 1_555 1_555
H114 C101 1_555 1_555
H115 C101 1_555 1_555
C102 N13 1_555 1_555
H116 C102 1_555 1_555
C103 N17 1_555 1_555
H117 C103 1_555 1_555
C104 C103 1_555 1_555
H118 C104 1_555 1_555
H119 C104 1_555 1_555
C105 C104 1_555 1_555
H120 C105 1_555 1_555
H121 C105 1_555 1_555
C106 N18 1_555 1_555
H122 C106 1_555 1_555
C107 C106 1_555 1_555
H123 C107 1_555 1_555
H124 C107 1_555 1_555
C108 C107 1_555 1_555
H125 C108 1_555 1_555
H126 C108 1_555 1_555
O1 H127 1_555 1_555
C109 C110 1_555 1_555
C110 H128 1_555 1_555
C111 C110 1_555 1_555
H129 C111 1_555 1_555
C112 C111 1_555 1_555
H130 C112 1_555 1_555
C113 C112 1_555 1_555
H131 C113 1_555 1_555
C114 C109 1_555 1_555
H132 C114 1_555 1_555
C115 O1 1_555 1_555
H133 C115 1_555 1_555
C116 C115 1_555 1_555
H134 C116 1_555 1_555
H135 C116 1_555 1_555
H136 C116 1_555 1_555
O2 H137 1_555 1_555
C117 C118 1_555 1_555
C118 H138 1_555 1_555
C119 C118 1_555 1_555
H139 C119 1_555 1_555
C120 C119 1_555 1_555
H140 C120 1_555 1_555
C121 C120 1_555 1_555
H141 C121 1_555 1_555
C122 C117 1_555 1_555
H142 C122 1_555 1_555
C123 O2 1_555 1_555
H143 C123 1_555 1_555
C124 C123 1_555 1_555
H144 C124 1_555 1_555
H145 C124 1_555 1_555
H146 C124 1_555 1_555
O3 H147 1_555 1_555
C125 C126 1_555 1_555
C126 H148 1_555 1_555
C127 C126 1_555 1_555
H149 C127 1_555 1_555
C128 C127 1_555 1_555
H150 C128 1_555 1_555
C129 C128 1_555 1_555
H151 C129 1_555 1_555
C130 C125 1_555 1_555
H152 C130 1_555 1_555
C131 O3 1_555 1_555
H153 C131 1_555 1_555
C132 C131 1_555 1_555
H154 C132 1_555 1_555
H155 C132 1_555 1_555
H156 C132 1_555 1_555
O4 H157 1_555 1_555
C133 C134 1_555 1_555
C134 H158 1_555 1_555
C135 C134 1_555 1_555
H159 C135 1_555 1_555
C136 C135 1_555 1_555
H160 C136 1_555 1_555
C137 C136 1_555 1_555
H161 C137 1_555 1_555
C138 C133 1_555 1_555
H162 C138 1_555 1_555
C139 O4 1_555 1_555
H163 C139 1_555 1_555
C140 C139 1_555 1_555
H164 C140 1_555 1_555
H165 C140 1_555 1_555
H166 C140 1_555 1_555
O5 H167 1_555 1_555
C141 C142 1_555 1_555
C142 H168 1_555 1_555
C143 C142 1_555 1_555
H169 C143 1_555 1_555
C144 C143 1_555 1_555
H170 C144 1_555 1_555
C145 C144 1_555 1_555
H171 C145 1_555 1_555
C146 C141 1_555 1_555
H172 C146 1_555 1_555
C147 O5 1_555 1_555
H173 C147 1_555 1_555
C148 C147 1_555 1_555
H174 C148 1_555 1_555
H175 C148 1_555 1_555
H176 C148 1_555 1_555
O6 H177 1_555 1_555
C149 C150 1_555 1_555
C150 H178 1_555 1_555
C151 C150 1_555 1_555
H179 C151 1_555 1_555
C152 C151 1_555 1_555
H180 C152 1_555 1_555
C153 C152 1_555 1_555
H181 C153 1_555 1_555
C154 C149 1_555 1_555
H182 C154 1_555 1_555
C155 O6 1_555 1_555
H183 C155 1_555 1_555
C156 C155 1_555 1_555
H184 C156 1_555 1_555
H185 C156 1_555 1_555
H186 C156 1_555 1_555
O7 H187 1_555 1_555
C157 C158 1_555 1_555
C158 H188 1_555 1_555
C159 C158 1_555 1_555
H189 C159 1_555 1_555
C160 C159 1_555 1_555
H190 C160 1_555 1_555
C161 C160 1_555 1_555
H191 C161 1_555 1_555
C162 C157 1_555 1_555
H192 C162 1_555 1_555
C163 O7 1_555 1_555
H193 C163 1_555 1_555
C164 C163 1_555 1_555
H194 C164 1_555 1_555
H195 C164 1_555 1_555
H196 C164 1_555 1_555
O8 H197 1_555 1_555
C165 C166 1_555 1_555
C166 H198 1_555 1_555
C167 C166 1_555 1_555
H199 C167 1_555 1_555
C168 C167 1_555 1_555
H200 C168 1_555 1_555
C169 C168 1_555 1_555
H201 C169 1_555 1_555
C170 C165 1_555 1_555
H202 C170 1_555 1_555
C171 O8 1_555 1_555
H203 C171 1_555 1_555
C172 C171 1_555 1_555
H204 C172 1_555 1_555
H205 C172 1_555 1_555
H206 C172 1_555 1_555
O9 H207 1_555 1_555
C173 C174 1_555 1_555
C174 H208 1_555 1_555
C175 C174 1_555 1_555
H209 C175 1_555 1_555
C176 C175 1_555 1_555
H210 C176 1_555 1_555
C177 C176 1_555 1_555
H211 C177 1_555 1_555
C178 C173 1_555 1_555
H212 C178 1_555 1_555
C179 O9 1_555 1_555
H213 C179 1_555 1_555
C180 C179 1_555 1_555
H214 C180 1_555 1_555
H215 C180 1_555 1_555
H216 C180 1_555 1_555
O10 H217 1_555 1_555
C181 C182 1_555 1_555
C182 H218 1_555 1_555
C183 C182 1_555 1_555
H219 C183 1_555 1_555
C184 C183 1_555 1_555
H220 C184 1_555 1_555
C185 C184 1_555 1_555
H221 C185 1_555 1_555
C186 C181 1_555 1_555
H222 C186 1_555 1_555
C187 O10 1_555 1_555
H223 C187 1_555 1_555
C188 C187 1_555 1_555
H224 C188 1_555 1_555
H225 C188 1_555 1_555
H226 C188 1_555 1_555
N13A C95A 1_555 1_555
N14A C81A 1_555 1_555
N15A C79A 1_555 1_555
N16A C87A 1_555 1_555
N17A C88A 1_555 1_555
N18A C80A 1_555 1_555
C73A C74A 1_555 1_555
C74A H85A 1_555 1_555
C75A C74A 1_555 1_555
C76A C75A 1_555 1_555
H86A C76A 1_555 1_555
C77A C76A 1_555 1_555
C78A C73A 1_555 1_555
H87A C78A 1_555 1_555
C79A C73A 1_555 1_555
H88A C79A 1_555 1_555
C80A C75A 1_555 1_555
H89A C80A 1_555 1_555
C81A C77A 1_555 1_555
H90A C81A 1_555 1_555
C82A C96 1_555 1_555
H91A C82A 1_555 1_555
C83A C82A 1_555 1_555
C84A C83A 1_555 1_555
H92A C84A 1_555 1_555
C85A C84A 1_555 1_555
C86A C96 1_555 1_555
H93A C86A 1_555 1_555
C87A C83A 1_555 1_555
H94A C87A 1_555 1_555
C88A C85A 1_555 1_555
H95A C88A 1_555 1_555
C89A N16A 1_555 1_555
H96A C89A 1_555 1_555
C90A C89A 1_555 1_555
H97A C90A 1_555 1_555
H98A C90A 1_555 1_555
C91A C90A 1_555 1_555
H99A C91A 1_555 1_555
H100A C91A 1_555 1_555
C92A C91A 1_555 1_555
H101A C92A 1_555 1_555
H102A C92A 1_555 1_555
C93A C92A 1_555 1_555
H103A C93A 1_555 1_555
H104A C93A 1_555 1_555
C94A N15A 1_555 1_555
H105A C94A 1_555 1_555
C95A H106A 1_555 1_555
C96A C82 1_555 1_555
C97A N14A 1_555 1_555
H107A C97A 1_555 1_555
C98A C97A 1_555 1_555
H108A C98A 1_555 1_555
H109A C98A 1_555 1_555
C99A C98A 1_555 1_555
H110A C99A 1_555 1_555
H111A C99A 1_555 1_555
C100A C99A 1_555 1_555
H112A C100A 1_555 1_555
H113A C100A 1_555 1_555
C101A C100A 1_555 1_555
H114A C101A 1_555 1_555
H115A C101A 1_555 1_555
C102A N13A 1_555 1_555
H116A C102A 1_555 1_555
C103A C103 1_555 1_555
H117A C103A 1_555 1_555
C104A C103A 1_555 1_555
H118A C104A 1_555 1_555
H119A C104A 1_555 1_555
C105A C105 1_555 1_555
H120A C105A 1_555 1_555
H121A C105A 1_555 1_555
C106A C106 1_555 1_555
H122A C106A 1_555 1_555
C107A C106A 1_555 1_555
H123A C107A 1_555 1_555
H124A C107A 1_555 1_555
C108A C108 1_555 1_555
H125A C108A 1_555 1_555
H126A C108A 1_555 1_555
C5 C6 1_555 1_555
C14 C15 1_555 1_555
C23 C24 1_555 1_555
C32 C33 1_555 1_555
C37 C42 1_555 1_555
C41 C42 1_555 1_555
C43 C48 1_555 1_555
C47 C48 1_555 1_555
C49 C54 1_555 1_555
C53 C54 1_555 1_555
C55 C60 1_555 1_555
C59 C60 1_555 1_555
C61 C66 1_555 1_555
C65 C66 1_555 1_555
C67 C72 1_555 1_555
C71 C72 1_555 1_555
C77 C78 1_555 1_555
C86 C96A 1_555 1_555
C89 C94 1_555 1_555
C93 C94 1_555 1_555
C97 C102 1_555 1_555
C101 C102 1_555 1_555
C109 C115 1_555 1_555
C113 C114 1_555 1_555
C117 C123 1_555 1_555
C121 C122 1_555 1_555
C125 C131 1_555 1_555
C129 C130 1_555 1_555
C133 C139 1_555 1_555
C137 C138 1_555 1_555
C141 C147 1_555 1_555
C145 C146 1_555 1_555
C149 C155 1_555 1_555
C153 C154 1_555 1_555
C157 C163 1_555 1_555
C161 C162 1_555 1_555
C165 C171 1_555 1_555
C169 C170 1_555 1_555
C173 C179 1_555 1_555
C177 C178 1_555 1_555
C181 C187 1_555 1_555
C185 C186 1_555 1_555
N17A C103A 1_555 1_555
N18A C106A 1_555 1_555
C77A C78A 1_555 1_555
C85A C86A 1_555 1_555
C89A C94A 1_555 1_555
C93A C94A 1_555 1_555
C95A C96A 1_555 1_555
C97A C102A 1_555 1_555
C101A C102A 1_555 1_555
C104A C105A 1_555 1_555
C107A C108A 1_555 1_555

#END
