
#######################################################################
#
#                 Cambridge Crystallographic Data Centre
#                                CCDC 
#
#######################################################################
#
# If this CIF has been generated from an entry in the Cambridge 
# Structural Database, then it will include bibliographic, chemical, 
# crystal, experimental, refinement or atomic coordinate data resulting 
# from the CCDC's data processing and validation procedures.
#
#######################################################################

data_NOLSIR
_chemical_name_common            
'(2S,3S)-Methyl 3-(p-bromophenyl)-2-((diphenylmethylene)amino)-3-(p-toluenesulfonylamino)propanoate'
_chemical_formula_moiety         'C30 H27 Br1 N2 O4 S1'
_chemical_name_systematic        
'(S,S)-Methyl 4-bromo-N-(diphenylmethylene)-\b-(((4-methylphenyl)sulfonyl)amino)phenylalaninate'
_symmetry_cell_setting           monoclinic
_symmetry_space_group_name_H-M   'P 21'
_symmetry_Int_Tables_number      4
_space_group_name_Hall           'P 2yb'
loop_
_symmetry_equiv_pos_site_id
_symmetry_equiv_pos_as_xyz
1 x,y,z
2 -x,1/2+y,-z
_cell_length_a                   10.636(5)
_cell_length_b                   9.558(4)
_cell_length_c                   13.761(6)
_cell_angle_alpha                90
_cell_angle_beta                 92.638(8)
_cell_angle_gamma                90
_cell_volume                     1397.45
_exptl_crystal_colour            colorless
_exptl_crystal_description       prismatic
_chemical_melting_point          78-80deg.C
_cell_formula_units_Z            2
loop_
_atom_site_label
_atom_site_type_symbol
_atom_site_fract_x
_atom_site_fract_y
_atom_site_fract_z
Br1 Br 0.67616(8) 0.00937(14) 0.04072(8)
S1 S -0.00499(19) 0.0491(2) -0.04197(16)
O1 O 0.2352(10) 0.1732(12) 0.3313(8)
O2 O 0.0840(10) 0.2749(11) 0.2447(6)
O3 O -0.0551(6) -0.0884(7) -0.0357(4)
O4 O -0.0831(6) 0.1586(7) -0.0851(5)
N1 N 0.0359(7) 0.1018(8) 0.0659(5)
N2 N -0.0402(6) 0.0169(10) 0.2607(5)
C1 C 0.1121(6) 0.0048(12) 0.1312(6)
H1 H 0.0836 -0.0907 0.1166
C2 C 0.0908(7) 0.0319(13) 0.2385(6)
H2 H 0.1374 -0.0405 0.2755
C3 C 0.2527(7) 0.0108(12) 0.1137(5)
C4 C 0.3207(9) -0.1074(11) 0.1224(8)
H3 H 0.2810 -0.1900 0.1392
C5 C 0.4510(11) -0.1092(12) 0.1068(8)
H4 H 0.4989 -0.1895 0.1178
C6 C 0.5038(7) 0.0119(18) 0.0748(6)
C7 C 0.4395(9) 0.1367(12) 0.0686(7)
H5 H 0.4800 0.2193 0.0529
C8 C 0.3122(9) 0.1352(11) 0.0866(7)
H6 H 0.2657 0.2174 0.0806
C9 C 0.1414(12) 0.1718(18) 0.2745(8)
C10 C 0.1352(16) 0.4113(14) 0.2753(11)
H7 H 0.0738 0.4609 0.3110
H8 H 0.1553 0.4646 0.2190
H9 H 0.2100 0.3977 0.3160
C11 C -0.0660(8) -0.0479(10) 0.3399(6)
C12 C -0.2013(8) -0.0611(11) 0.3642(6)
C13 C -0.2926(8) 0.0168(13) 0.3110(7)
H10 H -0.2688 0.0760 0.2614
C14 C -0.4185(9) 0.0055(17) 0.3325(9)
H11 H -0.4802 0.0535 0.2959
C15 C -0.4501(12) -0.0779(17) 0.4087(9)
H12 H -0.5335 -0.0794 0.4263
C16 C -0.3640(13) -0.1594(19) 0.4604(9)
H13 H -0.3890 -0.2189 0.5094
C17 C -0.2391(11) -0.1502(14) 0.4372(7)
H14 H -0.1792 -0.2045 0.4711
C18 C 0.0305(9) -0.1084(13) 0.4095(8)
C19 C 0.0628(11) -0.0367(17) 0.4900(8)
H15 H 0.0192 0.0454 0.5021
C20 C 0.1603(18) -0.079(2) 0.5590(15)
H16 H 0.1807 -0.0281 0.6153
C21 C 0.2199(16) -0.197(2) 0.5356(12)
H17 H 0.2830 -0.2281 0.5794
C22 C 0.1968(15) -0.2778(19) 0.4518(17)
H18 H 0.2419 -0.3578 0.4371
C23 C 0.0962(13) -0.2228(15) 0.3920(10)
H19 H 0.0744 -0.2716 0.3352
C24 C 0.1341(7) 0.0365(11) -0.1100(5)
C25 C 0.1938(10) -0.0911(12) -0.1196(7)
H20 H 0.1608 -0.1715 -0.0925
C26 C 0.3030(10) -0.0970(14) -0.1700(8)
H21 H 0.3457 -0.1815 -0.1748
C27 C 0.3494(8) 0.0218(15) -0.2133(7)
C28 C 0.2866(10) 0.1452(15) -0.2034(7)
H22 H 0.3189 0.2250 -0.2318
C29 C 0.1790(9) 0.1574(11) -0.1540(6)
H23 H 0.1373 0.2425 -0.1497
C30 C 0.4739(9) 0.014(2) -0.2647(8)
H24 H 0.4710 0.0771 -0.3192
H25 H 0.4868 -0.0796 -0.2873
H26 H 0.5418 0.0401 -0.2201
H27 H 0.044(6) 0.180(4) 0.091(4)
loop_
_geom_bond_atom_site_label_1
_geom_bond_atom_site_label_2
_geom_bond_site_symmetry_1
_geom_bond_site_symmetry_2
Br1 C6 1_555 1_555
S1 O3 1_555 1_555
O1 C9 1_555 1_555
O2 C9 1_555 1_555
O4 S1 1_555 1_555
N1 S1 1_555 1_555
N2 C2 1_555 1_555
C1 N1 1_555 1_555
H1 C1 1_555 1_555
C2 C1 1_555 1_555
H2 C2 1_555 1_555
C3 C1 1_555 1_555
C4 C3 1_555 1_555
H3 C4 1_555 1_555
C5 C4 1_555 1_555
H4 C5 1_555 1_555
C6 C5 1_555 1_555
C7 C6 1_555 1_555
H5 C7 1_555 1_555
C8 C3 1_555 1_555
H6 C8 1_555 1_555
C9 C2 1_555 1_555
C10 O2 1_555 1_555
H7 C10 1_555 1_555
H8 C10 1_555 1_555
H9 C10 1_555 1_555
C11 N2 1_555 1_555
C12 C11 1_555 1_555
C13 C12 1_555 1_555
H10 C13 1_555 1_555
C14 C13 1_555 1_555
H11 C14 1_555 1_555
C15 C14 1_555 1_555
H12 C15 1_555 1_555
C16 C15 1_555 1_555
H13 C16 1_555 1_555
C17 C12 1_555 1_555
H14 C17 1_555 1_555
C18 C11 1_555 1_555
C19 C18 1_555 1_555
H15 C19 1_555 1_555
C20 C19 1_555 1_555
H16 C20 1_555 1_555
C21 C20 1_555 1_555
H17 C21 1_555 1_555
C22 C21 1_555 1_555
H18 C22 1_555 1_555
C23 C18 1_555 1_555
H19 C23 1_555 1_555
C24 S1 1_555 1_555
C25 C24 1_555 1_555
H20 C25 1_555 1_555
C26 C25 1_555 1_555
H21 C26 1_555 1_555
C27 C26 1_555 1_555
C28 C27 1_555 1_555
H22 C28 1_555 1_555
C29 C24 1_555 1_555
H23 C29 1_555 1_555
C30 C27 1_555 1_555
H24 C30 1_555 1_555
H25 C30 1_555 1_555
H26 C30 1_555 1_555
H27 N1 1_555 1_555
C7 C8 1_555 1_555
C16 C17 1_555 1_555
C22 C23 1_555 1_555
C28 C29 1_555 1_555

#END
