
#######################################################################
#
#                 Cambridge Crystallographic Data Centre
#                                CCDC 
#
#######################################################################
#
# If this CIF has been generated from an entry in the Cambridge 
# Structural Database, then it will include bibliographic, chemical, 
# crystal, experimental, refinement or atomic coordinate data resulting 
# from the CCDC's data processing and validation procedures.
#
#######################################################################

data_NOMBAS
_chemical_formula_moiety         'C37 H38 N4 O3'
_chemical_name_systematic        13^2^-Oxobenzochlorin
_symmetry_cell_setting           monoclinic
_symmetry_space_group_name_H-M   'P 21'
_symmetry_Int_Tables_number      4
_space_group_name_Hall           'P 2yb'
loop_
_symmetry_equiv_pos_site_id
_symmetry_equiv_pos_as_xyz
1 x,y,z
2 -x,1/2+y,-z
_cell_length_a                   13.384(7)
_cell_length_b                   15.494(5)
_cell_length_c                   15.840(6)
_cell_angle_alpha                90
_cell_angle_beta                 114.41(3)
_cell_angle_gamma                90
_cell_volume                     2991.15
_exptl_crystal_colour            blue
_exptl_crystal_description       cube
_chemical_melting_point          230deg.C
_cell_formula_units_Z            4
_exptl_crystal_recrystallization_method dichloromethane/methanol
loop_
_atom_site_label
_atom_site_type_symbol
_atom_site_fract_x
_atom_site_fract_y
_atom_site_fract_z
N1 N 0.3399(6) 0.5115(6) 0.9870(5)
N2 N 0.2237(6) 0.4824(5) 0.7853(5)
H1 H 0.2046(6) 0.4875(5) 0.8319(5)
N3 N 0.0361(6) 0.4908(5) 0.8153(5)
N4 N 0.1350(6) 0.5090(6) 1.0211(5)
H2 H 0.1541(6) 0.4977(6) 0.9753(5)
C1 C 0.3821(8) 0.5163(7) 1.0843(7)
C2 C 0.4994(8) 0.5215(8) 1.1248(7)
C3 C 0.5597(9) 0.5223(8) 1.2159(7)
H3 H 0.6373(9) 0.5277(8) 1.2404(7)
C4 C 0.5060(9) 0.5150(9) 1.2746(7)
H4 H 0.5476(9) 0.5134(9) 1.3398(7)
C5 C 0.3939(9) 0.5102(9) 1.2391(7)
H5 H 0.3601(9) 0.5016(9) 1.2807(7)
C6 C 0.5351(8) 0.5188(8) 1.0463(6)
C7 C 0.5960(9) 0.6033(8) 1.0404(7)
H6 H 0.6180(9) 0.5988(8) 0.9887(7)
H7 H 0.6614(9) 0.6112(8) 1.0985(7)
H8 H 0.5469(9) 0.6528(8) 1.0303(7)
C8 C 0.6087(8) 0.4412(8) 1.0546(7)
H9 H 0.6301(8) 0.4415(8) 1.0018(7)
H10 H 0.6765(8) 0.4468(8) 1.1123(7)
C9 C 0.5545(8) 0.3554(7) 1.0561(7)
H11 H 0.6056(8) 0.3083(7) 1.0614(7)
H12 H 0.4882(8) 0.3488(7) 0.9985(7)
H13 H 0.5348(8) 0.3539(7) 1.1091(7)
C10 C 0.4243(8) 0.5133(7) 0.9639(6)
C11 C 0.4188(8) 0.5034(7) 0.8738(6)
H14 H 0.4869(8) 0.5080(7) 0.8687(6)
C12 C 0.3292(8) 0.4880(7) 0.7922(6)
C13 C 0.3246(8) 0.4740(7) 0.7015(6)
C14 C 0.4253(9) 0.4756(8) 0.6816(7)
H15 H 0.4900(9) 0.4880(8) 0.7389(7)
H16 H 0.4172(9) 0.5205(8) 0.6356(7)
H17 H 0.4343(9) 0.4193(8) 0.6573(7)
C15 C 0.2198(8) 0.4591(7) 0.6425(6)
C16 C 0.1750(9) 0.4410(8) 0.5408(6)
H18 H 0.1110(9) 0.4020(8) 0.5238(6)
H19 H 0.2316(9) 0.4106(8) 0.5270(6)
C17 C 0.1399(10) 0.5217(8) 0.4813(7)
H20 H 0.1113(10) 0.5056(8) 0.4157(7)
H21 H 0.2032(10) 0.5601(8) 0.4965(7)
H22 H 0.0825(10) 0.5515(8) 0.4933(7)
C18 C 0.1522(8) 0.4675(7) 0.6944(6)
C19 C 0.0406(8) 0.4617(7) 0.6647(7)
H23 H -0.0021(8) 0.4488(7) 0.6012(7)
C20 C -0.0135(8) 0.4736(7) 0.7219(7)
C21 C -0.1359(8) 0.4695(7) 0.6882(7)
C22 C -0.2129(9) 0.4526(8) 0.5880(7)
H24 H -0.1700(9) 0.4402(8) 0.5521(7)
H25 H -0.2588(9) 0.5036(8) 0.5623(7)
H26 H -0.2598(9) 0.4030(8) 0.5849(7)
C23 C -0.1551(8) 0.4885(7) 0.7604(7)
C24 C -0.2442(8) 0.4997(9) 0.7929(7)
H27 H -0.2935(8) 0.4489(9) 0.7765(7)
H28 H -0.2881(8) 0.5520(9) 0.7655(7)
C25 C -0.1832(9) 0.5086(8) 0.8967(7)
C26 C -0.0505(8) 0.4983(7) 0.8397(6)
C27 C -0.0598(8) 0.5102(7) 0.9214(7)
C28 C 0.0277(8) 0.5187(7) 1.0107(7)
C29 C 0.0331(8) 0.5362(7) 1.1012(7)
C30 C -0.0560(9) 0.5524(8) 1.1337(7)
H29 H -0.1251(9) 0.5668(8) 1.0799(7)
H30 H -0.0357(9) 0.6023(8) 1.1766(7)
C31 C -0.0737(8) 0.4725(7) 1.1833(6)
H31 H -0.1231(8) 0.4318(7) 1.1363(6)
H32 H -0.0025(8) 0.4431(7) 1.2167(6)
C32 C -0.1221(8) 0.4940(7) 1.2507(6)
C33 C -0.1487(9) 0.4396(9) 1.3803(7)
H33 H -0.1354(9) 0.3876(9) 1.4187(7)
H34 H -0.2276(9) 0.4517(9) 1.3512(7)
H35 H -0.1101(9) 0.4886(9) 1.4193(7)
C34 C 0.1458(8) 0.5368(7) 1.1635(7)
C35 C 0.1844(8) 0.5546(7) 1.2643(7)
H36 H 0.1210(8) 0.5641(7) 1.2791(7)
H37 H 0.2308(8) 0.6062(7) 1.2804(7)
H38 H 0.2268(8) 0.5052(7) 1.2998(7)
C36 C 0.2077(8) 0.5192(7) 1.1118(6)
C37 C 0.3253(8) 0.5175(8) 1.1419(6)
O1 O -0.2279(6) 0.5108(7) 0.9491(6)
O2 O -0.1703(6) 0.5571(5) 1.2533(4)
O3 O -0.1089(6) 0.4261(5) 1.3094(5)
N5 N 0.3232(6) 0.7367(6) 0.4576(5)
N6 N 0.2099(6) 0.7644(6) 0.2555(5)
H39 H 0.1896(6) 0.7604(6) 0.3016(5)
N7 N 0.0197(6) 0.7592(5) 0.2829(5)
N8 N 0.1162(6) 0.7357(6) 0.4896(5)
H40 H 0.1352(6) 0.7466(6) 0.4437(5)
C38 C 0.3651(8) 0.7309(8) 0.5548(6)
C39 C 0.4819(8) 0.7264(7) 0.5955(6)
C40 C 0.5442(9) 0.7228(9) 0.6889(7)
H41 H 0.6217(9) 0.7169(9) 0.7139(7)
C41 C 0.4880(9) 0.7282(9) 0.7455(7)
H42 H 0.5285(9) 0.7289(9) 0.8109(7)
C42 C 0.3745(8) 0.7325(8) 0.7091(7)
H43 H 0.3396(8) 0.7364(8) 0.7505(7)
C43 C 0.5202(8) 0.7272(7) 0.5178(7)
C44 C 0.5908(8) 0.8094(8) 0.5265(8)
H44 H 0.5496(8) 0.8606(8) 0.5299(8)
H45 H 0.6080(8) 0.8138(8) 0.4723(8)
H46 H 0.6590(8) 0.8055(8) 0.5828(8)
C45 C 0.5780(9) 0.6455(8) 0.5122(7)
H47 H 0.5981(9) 0.6497(8) 0.4588(7)
H48 H 0.6468(9) 0.6403(8) 0.5690(7)
C46 C 0.5109(9) 0.5654(7) 0.5018(7)
H49 H 0.5532(9) 0.5149(7) 0.4985(7)
H50 H 0.4434(9) 0.5692(7) 0.4448(7)
H51 H 0.4922(9) 0.5598(7) 0.5552(7)
C47 C 0.4070(8) 0.7371(8) 0.4349(7)
C48 C 0.4047(9) 0.7438(8) 0.3446(7)
H52 H 0.4731(9) 0.7373(8) 0.3405(7)
C49 C 0.3168(8) 0.7581(7) 0.2640(6)
C50 C 0.3133(8) 0.7668(7) 0.1720(7)
C51 C 0.4120(9) 0.7614(8) 0.1507(7)
H53 H 0.4771(9) 0.7493(8) 0.2078(7)
H54 H 0.4219(9) 0.8163(8) 0.1245(7)
H55 H 0.4019(9) 0.7149(8) 0.1059(7)
C52 C 0.2056(8) 0.7823(7) 0.1131(7)
C53 C 0.1608(8) 0.7993(7) 0.0102(6)
H56 H 0.2182(8) 0.8279(7) -0.0042(6)
H57 H 0.0978(8) 0.8394(7) -0.0075(6)
C54 C 0.1235(9) 0.7163(7) -0.0479(7)
H58 H 0.0953(9) 0.7308(7) -0.1139(7)
H59 H 0.0656(9) 0.6884(7) -0.0350(7)
H60 H 0.1860(9) 0.6769(7) -0.0317(7)
C55 C 0.1395(8) 0.7781(7) 0.1636(6)
C56 C 0.0289(8) 0.7837(7) 0.1344(7)
H61 H -0.0127(8) 0.7957(7) 0.0705(7)
C57 C -0.0300(8) 0.7736(7) 0.1895(6)
C58 C -0.1510(8) 0.7725(7) 0.1533(7)
C59 C -0.2265(8) 0.7879(8) 0.0542(7)
H62 H -0.1835(8) 0.7940(8) 0.0173(7)
H63 H -0.2687(8) 0.8408(8) 0.0494(7)
H64 H -0.2769(8) 0.7389(8) 0.0310(7)
C60 C -0.1735(8) 0.7602(7) 0.2285(7)
C61 C -0.2621(8) 0.7489(7) 0.2592(6)
H65 H -0.3066(8) 0.6971(7) 0.2307(6)
H66 H -0.3107(8) 0.8000(7) 0.2440(6)
C62 C -0.2007(10) 0.7382(7) 0.3622(7)
C63 C -0.0670(8) 0.7496(7) 0.3068(6)
C64 C -0.0780(8) 0.7347(7) 0.3891(6)
C65 C 0.0077(8) 0.7270(7) 0.4801(6)
C66 C 0.0148(8) 0.7080(6) 0.5677(6)
C67 C -0.0740(8) 0.6927(7) 0.6008(7)
H67 H -0.0542(8) 0.6420(7) 0.6426(7)
H68 H -0.1434(8) 0.6794(7) 0.5469(7)
C68 C -0.0915(9) 0.7700(7) 0.6520(7)
H69 H -0.0198(9) 0.7991(7) 0.6849(7)
H70 H -0.1403(9) 0.8112(7) 0.6054(7)
C69 C -0.1388(8) 0.7526(8) 0.7203(7)
C70 C -0.1626(10) 0.8074(8) 0.8495(8)
H71 H -0.1468(10) 0.8600(8) 0.8873(8)
H72 H -0.1255(10) 0.7582(8) 0.8888(8)
H73 H -0.2420(10) 0.7972(8) 0.8213(8)
C71 C 0.1253(8) 0.7082(7) 0.6308(7)
C72 C 0.1632(9) 0.6902(9) 0.7323(6)
H74 H 0.2434(9) 0.6938(9) 0.7627(6)
H75 H 0.1396(9) 0.6322(9) 0.7409(6)
H76 H 0.1313(9) 0.7329(9) 0.7597(6)
C73 C 0.1888(8) 0.7248(7) 0.5806(6)
C74 C 0.3081(8) 0.7313(7) 0.6118(6)
O4 O -0.2460(6) 0.7325(6) 0.4146(5)
O5 O -0.1842(6) 0.6858(5) 0.7243(5)
O6 O -0.1242(6) 0.8175(5) 0.7783(5)
loop_
_geom_bond_atom_site_label_1
_geom_bond_atom_site_label_2
_geom_bond_site_symmetry_1
_geom_bond_site_symmetry_2
N1 C1 1_555 1_555
N2 H1 1_555 1_555
N3 C20 1_555 1_555
N4 H2 1_555 1_555
C1 C2 1_555 1_555
C2 C3 1_555 1_555
C3 H3 1_555 1_555
C4 C3 1_555 1_555
H4 C4 1_555 1_555
C5 C4 1_555 1_555
H5 C5 1_555 1_555
C6 C2 1_555 1_555
C7 C6 1_555 1_555
H6 C7 1_555 1_555
H7 C7 1_555 1_555
H8 C7 1_555 1_555
C8 C6 1_555 1_555
H9 C8 1_555 1_555
H10 C8 1_555 1_555
C9 C8 1_555 1_555
H11 C9 1_555 1_555
H12 C9 1_555 1_555
H13 C9 1_555 1_555
C10 N1 1_555 1_555
C11 C10 1_555 1_555
H14 C11 1_555 1_555
C12 N2 1_555 1_555
C13 C12 1_555 1_555
C14 C13 1_555 1_555
H15 C14 1_555 1_555
H16 C14 1_555 1_555
H17 C14 1_555 1_555
C15 C13 1_555 1_555
C16 C15 1_555 1_555
H18 C16 1_555 1_555
H19 C16 1_555 1_555
C17 C16 1_555 1_555
H20 C17 1_555 1_555
H21 C17 1_555 1_555
H22 C17 1_555 1_555
C18 N2 1_555 1_555
C19 C18 1_555 1_555
H23 C19 1_555 1_555
C20 C19 1_555 1_555
C21 C20 1_555 1_555
C22 C21 1_555 1_555
H24 C22 1_555 1_555
H25 C22 1_555 1_555
H26 C22 1_555 1_555
C23 C21 1_555 1_555
C24 C23 1_555 1_555
H27 C24 1_555 1_555
H28 C24 1_555 1_555
C25 C24 1_555 1_555
C26 N3 1_555 1_555
C27 C25 1_555 1_555
C28 N4 1_555 1_555
C29 C28 1_555 1_555
C30 C29 1_555 1_555
H29 C30 1_555 1_555
H30 C30 1_555 1_555
C31 C30 1_555 1_555
H31 C31 1_555 1_555
H32 C31 1_555 1_555
C32 C31 1_555 1_555
C33 H33 1_555 1_555
H34 C33 1_555 1_555
H35 C33 1_555 1_555
C34 C29 1_555 1_555
C35 C34 1_555 1_555
H36 C35 1_555 1_555
H37 C35 1_555 1_555
H38 C35 1_555 1_555
C36 N4 1_555 1_555
C37 C1 1_555 1_555
O1 C25 1_555 1_555
O2 C32 1_555 1_555
O3 C32 1_555 1_555
N5 C38 1_555 1_555
N6 H39 1_555 1_555
N7 C57 1_555 1_555
N8 H40 1_555 1_555
C38 C39 1_555 1_555
C39 C40 1_555 1_555
C40 H41 1_555 1_555
C41 C40 1_555 1_555
H42 C41 1_555 1_555
C42 C41 1_555 1_555
H43 C42 1_555 1_555
C43 C39 1_555 1_555
C44 C43 1_555 1_555
H44 C44 1_555 1_555
H45 C44 1_555 1_555
H46 C44 1_555 1_555
C45 C43 1_555 1_555
H47 C45 1_555 1_555
H48 C45 1_555 1_555
C46 C45 1_555 1_555
H49 C46 1_555 1_555
H50 C46 1_555 1_555
H51 C46 1_555 1_555
C47 N5 1_555 1_555
C48 C47 1_555 1_555
H52 C48 1_555 1_555
C49 N6 1_555 1_555
C50 C49 1_555 1_555
C51 C50 1_555 1_555
H53 C51 1_555 1_555
H54 C51 1_555 1_555
H55 C51 1_555 1_555
C52 C50 1_555 1_555
C53 C52 1_555 1_555
H56 C53 1_555 1_555
H57 C53 1_555 1_555
C54 C53 1_555 1_555
H58 C54 1_555 1_555
H59 C54 1_555 1_555
H60 C54 1_555 1_555
C55 N6 1_555 1_555
C56 C55 1_555 1_555
H61 C56 1_555 1_555
C57 C56 1_555 1_555
C58 C57 1_555 1_555
C59 C58 1_555 1_555
H62 C59 1_555 1_555
H63 C59 1_555 1_555
H64 C59 1_555 1_555
C60 C58 1_555 1_555
C61 C60 1_555 1_555
H65 C61 1_555 1_555
H66 C61 1_555 1_555
C62 C61 1_555 1_555
C63 N7 1_555 1_555
C64 C62 1_555 1_555
C65 N8 1_555 1_555
C66 C65 1_555 1_555
C67 C66 1_555 1_555
H67 C67 1_555 1_555
H68 C67 1_555 1_555
C68 C67 1_555 1_555
H69 C68 1_555 1_555
H70 C68 1_555 1_555
C69 C68 1_555 1_555
C70 H71 1_555 1_555
H72 C70 1_555 1_555
H73 C70 1_555 1_555
C71 C66 1_555 1_555
C72 C71 1_555 1_555
H74 C72 1_555 1_555
H75 C72 1_555 1_555
H76 C72 1_555 1_555
C73 N8 1_555 1_555
C74 C38 1_555 1_555
O4 C62 1_555 1_555
O5 C69 1_555 1_555
O6 C69 1_555 1_555
C5 C37 1_555 1_555
C6 C10 1_555 1_555
C11 C12 1_555 1_555
C15 C18 1_555 1_555
C23 C26 1_555 1_555
C26 C27 1_555 1_555
C27 C28 1_555 1_555
C33 O3 1_555 1_555
C34 C36 1_555 1_555
C36 C37 1_555 1_555
C42 C74 1_555 1_555
C43 C47 1_555 1_555
C48 C49 1_555 1_555
C52 C55 1_555 1_555
C60 C63 1_555 1_555
C63 C64 1_555 1_555
C64 C65 1_555 1_555
C70 O6 1_555 1_555
C71 C73 1_555 1_555
C73 C74 1_555 1_555

#END
