
#######################################################################
#
#                 Cambridge Crystallographic Data Centre
#                                CCDC 
#
#######################################################################
#
# If this CIF has been generated from an entry in the Cambridge 
# Structural Database, then it will include bibliographic, chemical, 
# crystal, experimental, refinement or atomic coordinate data resulting 
# from the CCDC's data processing and validation procedures.
#
#######################################################################

data_NOMCEZ
_chemical_formula_moiety         'C16 H12 O2'
_chemical_name_systematic        3-(4-methylphenyl)-2H-chromen-2-one
_symmetry_cell_setting           monoclinic
_symmetry_space_group_name_H-M   'P 21/c'
_symmetry_Int_Tables_number      14
_space_group_name_Hall           '-P 2ybc'
loop_
_symmetry_equiv_pos_site_id
_symmetry_equiv_pos_as_xyz
1 x,y,z
2 -x,1/2+y,1/2-z
3 -x,-y,-z
4 x,1/2-y,1/2+z
_cell_length_a                   14.927(5)
_cell_length_b                   6.570(2)
_cell_length_c                   13.515(5)
_cell_angle_alpha                90
_cell_angle_beta                 116.131(3)
_cell_angle_gamma                90
_cell_volume                     1189.95
_exptl_crystal_colour            yellow
_exptl_crystal_description       block
_cell_formula_units_Z            4
loop_
_atom_site_label
_atom_site_type_symbol
_atom_site_fract_x
_atom_site_fract_y
_atom_site_fract_z
C1 C 0.63137(16) 0.3227(3) 0.15866(17)
C2 C 0.46712(15) 0.1780(3) 0.10214(16)
C3 C 0.36616(16) 0.2141(4) 0.05640(18)
H1 H 0.3410 0.3445 0.0344
C4 C 0.30312(17) 0.0535(4) 0.04387(19)
H2 H 0.2347 0.0761 0.0145
C5 C 0.34000(16) -0.1414(4) 0.07438(18)
H3 H 0.2965 -0.2494 0.0642
C6 C 0.44086(16) -0.1747(3) 0.11964(17)
H4 H 0.4655 -0.3059 0.1400
C7 C 0.50703(14) -0.0146(3) 0.13562(15)
C8 C 0.61294(15) -0.0347(3) 0.18595(16)
H5 H 0.6404 -0.1628 0.2101
C9 C 0.67534(15) 0.1228(3) 0.20022(15)
C10 C 0.78530(15) 0.0992(3) 0.25436(16)
C11 C 0.82738(16) -0.0889(3) 0.25384(18)
H6 H 0.7861 -0.1971 0.2165
C12 C 0.92948(16) -0.1188(4) 0.30771(19)
H7 H 0.9552 -0.2467 0.3054
C13 C 0.99407(16) 0.0352(4) 0.36462(17)
C14 C 0.95242(17) 0.2229(4) 0.36524(19)
H8 H 0.9942 0.3303 0.4028
C15 C 0.85081(16) 0.2558(4) 0.31184(18)
H9 H 0.8256 0.3842 0.3142
C16 C 1.10507(16) 0.0012(5) 0.4229(2)
H10 H 1.1369 0.0785 0.3870
H11 H 1.1191 -0.1408 0.4205
H12 H 1.1299 0.0442 0.4982
O1 O 0.67606(12) 0.4762(2) 0.15956(14)
O2 O 0.52922(11) 0.3399(2) 0.11374(12)
loop_
_geom_bond_atom_site_label_1
_geom_bond_atom_site_label_2
_geom_bond_site_symmetry_1
_geom_bond_site_symmetry_2
C1 C9 1_555 1_555
C2 C3 1_555 1_555
C3 H1 1_555 1_555
C4 C3 1_555 1_555
H2 C4 1_555 1_555
C5 C4 1_555 1_555
H3 C5 1_555 1_555
C6 C5 1_555 1_555
H4 C6 1_555 1_555
C7 C2 1_555 1_555
C8 C7 1_555 1_555
H5 C8 1_555 1_555
C9 C8 1_555 1_555
C10 C9 1_555 1_555
C11 C10 1_555 1_555
H6 C11 1_555 1_555
C12 C11 1_555 1_555
H7 C12 1_555 1_555
C13 C12 1_555 1_555
C14 C13 1_555 1_555
H8 C14 1_555 1_555
C15 C10 1_555 1_555
H9 C15 1_555 1_555
C16 C13 1_555 1_555
H10 C16 1_555 1_555
H11 C16 1_555 1_555
H12 C16 1_555 1_555
O1 C1 1_555 1_555
O2 C1 1_555 1_555
C2 O2 1_555 1_555
C6 C7 1_555 1_555
C14 C15 1_555 1_555

#END
