
#######################################################################
#
#                 Cambridge Crystallographic Data Centre
#                                CCDC 
#
#######################################################################
#
# If this CIF has been generated from an entry in the Cambridge 
# Structural Database, then it will include bibliographic, chemical, 
# crystal, experimental, refinement or atomic coordinate data resulting 
# from the CCDC's data processing and validation procedures.
#
#######################################################################

data_NOMCOI
_chemical_formula_moiety         'C14 H28 N4 O2,4(H2 O1)'
_chemical_name_systematic        
'4,13-Dioxa-1,7,10,16-tetraazatricyclo(14.2.1.1^7,10^)icosane tetrahydrate'
_symmetry_cell_setting           monoclinic
_symmetry_space_group_name_H-M   'P 21/n'
_symmetry_Int_Tables_number      14
_space_group_name_Hall           '-P 2yn'
loop_
_symmetry_equiv_pos_site_id
_symmetry_equiv_pos_as_xyz
1 x,y,z
2 1/2-x,1/2+y,1/2-z
3 -x,-y,-z
4 1/2+x,1/2-y,1/2+z
_cell_length_a                   8.984(7)
_cell_length_b                   10.805(9)
_cell_length_c                   11.040(9)
_cell_angle_alpha                90
_cell_angle_beta                 111.707(13)
_cell_angle_gamma                90
_cell_volume                     995.681
_chemical_melting_point          52deg.C
_cell_formula_units_Z            2
loop_
_atom_site_label
_atom_site_type_symbol
_atom_site_fract_x
_atom_site_fract_y
_atom_site_fract_z
O1 O 0.2305(2) 0.0113(2) 0.4494(2)
N1 N 0.2032(3) 0.2232(2) 0.6259(2)
N2 N 0.0250(3) 0.1703(2) 0.7278(2)
C1 C 0.1500(4) -0.1620(4) 0.3103(3)
C2 C 0.2145(4) -0.0352(4) 0.3267(3)
C3 C 0.3096(4) 0.1272(3) 0.4729(3)
C4 C 0.3413(4) 0.1708(3) 0.6078(3)
C5 C 0.2446(5) 0.2889(3) 0.7503(3)
C6 C 0.0892(5) 0.2949(3) 0.7687(3)
C7 C 0.0806(4) 0.1332(2) 0.6239(3)
O1B O -0.2305(2) -0.0113(2) 0.5506(2)
N1B N -0.2032(3) -0.2232(2) 0.3741(2)
N2B N -0.0250(3) -0.1703(2) 0.2722(2)
C1B C -0.1500(4) 0.1620(4) 0.6897(3)
C2B C -0.2145(4) 0.0352(4) 0.6733(3)
C3B C -0.3096(4) -0.1272(3) 0.5271(3)
C4B C -0.3413(4) -0.1708(3) 0.3922(3)
C5B C -0.2446(5) -0.2889(3) 0.2497(3)
C6B C -0.0892(5) -0.2949(3) 0.2313(3)
C7B C -0.0806(4) -0.1332(2) 0.3761(3)
O2 O 0.1269(3) 0.0614(2) 0.9837(2)
O3 O 0.0917(3) 0.4276(2) 0.4484(2)
loop_
_geom_bond_atom_site_label_1
_geom_bond_atom_site_label_2
_geom_bond_site_symmetry_1
_geom_bond_site_symmetry_2
O1 C2 1_555 1_555
N1 C4 1_555 1_555
N2 C6 1_555 1_555
C1 C2 1_555 1_555
C3 O1 1_555 1_555
C4 C3 1_555 1_555
C5 N1 1_555 1_555
C6 C5 1_555 1_555
C7 N1 1_555 1_555
O1B C2B 1_555 1_555
N1B C4B 1_555 1_555
N2B C1 1_555 1_555
C1B N2 1_555 1_555
C2B C1B 1_555 1_555
C3B O1B 1_555 1_555
C4B C3B 1_555 1_555
C5B N1B 1_555 1_555
C6B N2B 1_555 1_555
C7B N1B 1_555 1_555
N2 C7 1_555 1_555
N2B C7B 1_555 1_555
C5B C6B 1_555 1_555

#END
