
#######################################################################
#
#                 Cambridge Crystallographic Data Centre
#                                CCDC 
#
#######################################################################
#
# If this CIF has been generated from an entry in the Cambridge 
# Structural Database, then it will include bibliographic, chemical, 
# crystal, experimental, refinement or atomic coordinate data resulting 
# from the CCDC's data processing and validation procedures.
#
#######################################################################

data_NOMHIH
_chemical_name_common            
'tetrakis((2,2,2-crypt)-potassium) hexatelluride tetratelluride'
_chemical_formula_moiety         '4(C18 H36 K1 N2 O6 1+),Te6 2-,Te4 2-'
_chemical_name_systematic        
'tetrakis((4,7,13,16,21,24-Hexaoxa-1,10-diazabicyclo(8.8.8)hexacosane)-potassium) hexatelluride tetratelluride'
_symmetry_cell_setting           triclinic
_symmetry_space_group_name_H-M   'P -1'
_symmetry_Int_Tables_number      2
_space_group_name_Hall           '-P 1'
loop_
_symmetry_equiv_pos_site_id
_symmetry_equiv_pos_as_xyz
1 x,y,z
2 -x,-y,-z
_cell_length_a                   11.9234(6)
_cell_length_b                   12.0111(6)
_cell_length_c                   21.0026(9)
_cell_angle_alpha                82.168(4)
_cell_angle_beta                 81.124(4)
_cell_angle_gamma                61.877(3)
_cell_volume                     2613.99
_exptl_crystal_colour            violet
_exptl_crystal_description       block
_cell_formula_units_Z            1
_exptl_crystal_recrystallization_method ethylenediamine/toluene
loop_
_atom_site_label
_atom_site_type_symbol
_atom_site_fract_x
_atom_site_fract_y
_atom_site_fract_z
Te1 Te 0.55568(4) 0.36842(4) 0.011364(18)
Te2 Te 0.70716(4) 0.32951(5) 0.10428(2)
Te3 Te 0.61278(4) 0.34114(4) 0.24117(3)
Te1A Te 0.44432(4) 0.63158(4) -0.011364(18)
Te2A Te 0.29284(4) 0.67049(5) -0.10428(2)
Te3A Te 0.38722(4) 0.65886(4) -0.24117(3)
Te4 Te 0.62186(4) 0.29125(4) 0.38873(2)
Te5 Te 0.44688(4) 0.42727(4) 0.482852(18)
Te4A Te 0.37814(4) 0.70875(4) 0.61127(2)
Te5A Te 0.55312(4) 0.57273(4) 0.517148(18)
K1 K 0.73101(10) 0.99112(10) 0.71868(5)
N1 N 0.6785(4) 0.9929(4) 0.8625(2)
N2 N 0.7863(4) 0.9865(4) 0.5767(2)
O1 O 0.5329(3) 0.9443(4) 0.78344(19)
O2 O 0.5459(4) 0.9984(4) 0.6471(2)
O3 O 0.9208(3) 0.8206(3) 0.79658(17)
O4 O 0.9530(3) 0.7756(3) 0.66405(17)
O5 O 0.6601(3) 1.2114(3) 0.77662(17)
O6 O 0.7666(3) 1.1959(3) 0.64548(17)
C1 C 0.6052(6) 0.9236(6) 0.8848(3)
H1 H 0.5770 0.9356 0.9304
H2 H 0.6619 0.8342 0.8810
C2 C 0.4915(5) 0.9591(6) 0.8506(3)
H3 H 0.4519 0.9051 0.8672
H4 H 0.4292 1.0462 0.8572
C3 C 0.4273(5) 0.9782(6) 0.7474(3)
H5 H 0.3742 1.0692 0.7456
H6 H 0.3756 0.9386 0.7687
C4 C 0.4742(6) 0.9369(6) 0.6811(3)
H7 H 0.5278 0.8460 0.6831
H8 H 0.4020 0.9564 0.6579
C5 C 0.5913(6) 0.9559(7) 0.5842(3)
H9 H 0.5198 0.9745 0.5607
H10 H 0.6452 0.8651 0.5869
C6 C 0.6674(6) 1.0219(7) 0.5486(3)
H11 H 0.6882 1.0012 0.5039
H12 H 0.6146 1.1127 0.5492
C7 C 0.8018(5) 0.9330(6) 0.8894(3)
H13 H 0.7865 0.9227 0.9360
H14 H 0.8402 0.9896 0.8797
C8 C 0.8957(5) 0.8062(6) 0.8650(3)
H15 H 0.9745 0.7732 0.8849
H16 H 0.8607 0.7469 0.8761
C9 C 1.0136(5) 0.7028(5) 0.7716(3)
H17 H 0.9766 0.6453 0.7749
H18 H 1.0864 0.6643 0.7967
C10 C 1.0557(5) 0.7252(5) 0.7032(3)
H19 H 1.0914 0.7837 0.7002
H20 H 1.1223 0.6461 0.6871
C11 C 0.9952(6) 0.8003(6) 0.5988(3)
H21 H 1.0600 0.7219 0.5812
H22 H 1.0325 0.8572 0.5972
C12 C 0.8825(6) 0.8595(6) 0.5593(3)
H23 H 0.9136 0.8641 0.5141
H24 H 0.8419 0.8049 0.5646
C13 C 0.6045(5) 1.1245(5) 0.8785(3)
H25 H 0.5998 1.1274 0.9248
H26 H 0.5180 1.1561 0.8675
C14 C 0.6576(5) 1.2119(5) 0.8448(3)
H27 H 0.6044 1.2971 0.8582
H28 H 0.7433 1.1833 0.8561
C15 C 0.6950(5) 1.3042(5) 0.7419(3)
H29 H 0.7831 1.2806 0.7472
H30 H 0.6410 1.3860 0.7592
C16 C 0.6803(5) 1.3126(5) 0.6731(3)
H31 H 0.5931 1.3326 0.6680
H32 H 0.6970 1.3802 0.6505
C17 C 0.7588(5) 1.2059(5) 0.5781(3)
H33 H 0.7917 1.2629 0.5565
H34 H 0.6701 1.2407 0.5700
C18 C 0.8350(6) 1.0776(5) 0.5514(3)
H35 H 0.8356 1.0881 0.5048
H36 H 0.9227 1.0427 0.5612
K2 K 0.04795(10) 0.32688(10) 0.77809(5)
N3 N 0.0200(4) 0.3086(5) 0.9207(2)
N4 N 0.0791(4) 0.3457(4) 0.6346(2)
O7 O -0.1585(3) 0.4983(4) 0.7104(2)
O8 O 0.0183(4) 0.1180(3) 0.84493(19)
O9 O 0.1085(4) 0.1164(4) 0.71152(19)
O10 O 0.2523(3) 0.3075(3) 0.84602(17)
O11 O 0.2367(3) 0.3819(4) 0.71216(17)
C19 C -0.0733(6) 0.4343(6) 0.9433(3)
H37 H -0.0325 0.4888 0.9369
H38 H -0.0963 0.4246 0.9893
C20 C -0.1932(6) 0.4981(6) 0.9101(3)
H39 H -0.2340 0.4436 0.9153
H40 H -0.2521 0.5762 0.9299
C21 C -0.2790(5) 0.5743(6) 0.8116(3)
H41 H -0.3454 0.6484 0.8323
H42 H -0.3092 0.5113 0.8155
C22 C -0.2541(5) 0.6089(5) 0.7429(3)
H43 H -0.3328 0.6449 0.7225
H44 H -0.2244 0.6723 0.7390
C23 C -0.1425(6) 0.5256(6) 0.6429(3)
H45 H -0.1116 0.5883 0.6341
H46 H -0.2241 0.5601 0.6255
C24 C -0.0482(6) 0.4062(6) 0.6111(3)
H47 H -0.0827 0.3462 0.6183
H48 H -0.0389 0.4261 0.5649
C25 C -0.0287(6) 0.2165(6) 0.9441(3)
H49 H -0.1187 0.2552 0.9378
H50 H -0.0219 0.1976 0.9902
C26 C 0.0399(7) 0.0947(6) 0.9114(3)
H51 H 0.1309 0.0573 0.9152
H52 H 0.0093 0.0355 0.9323
C27 C 0.0898(5) 0.0036(5) 0.8117(3)
H53 H 0.0651 -0.0602 0.8320
H54 H 0.1803 -0.0286 0.8148
C28 C 0.0662(6) 0.0276(5) 0.7428(3)
H55 H 0.1115 -0.0511 0.7217
H56 H -0.0244 0.0607 0.7395
C29 C 0.1081(6) 0.1248(6) 0.6435(3)
H57 H 0.0221 0.1530 0.6327
H58 H 0.1628 0.0424 0.6270
C30 C 0.1561(6) 0.2175(6) 0.6133(3)
H59 H 0.2431 0.1864 0.6234
H60 H 0.1582 0.2213 0.5668
C31 C 0.1428(6) 0.2692(6) 0.9446(3)
H61 H 0.1951 0.1792 0.9400
H62 H 0.1281 0.2821 0.9903
C32 C 0.2164(6) 0.3370(6) 0.9113(3)
H63 H 0.1640 0.4276 0.9135
H64 H 0.2921 0.3116 0.9328
C33 C 0.3087(5) 0.3832(5) 0.8109(3)
H65 H 0.3827 0.3692 0.8310
H66 H 0.2475 0.4721 0.8123
C34 C 0.3477(5) 0.3510(5) 0.7434(3)
H67 H 0.3917 0.3977 0.7212
H68 H 0.4059 0.2613 0.7418
C35 C 0.2655(5) 0.3818(6) 0.6440(3)
H69 H 0.3276 0.2975 0.6322
H70 H 0.3021 0.4390 0.6289
C36 C 0.1459(6) 0.4232(6) 0.6135(3)
H71 H 0.0879 0.5101 0.6230
H72 H 0.1666 0.4218 0.5670
O12 O -0.1661(3) 0.5252(4) 0.84361(19)
loop_
_geom_bond_atom_site_label_1
_geom_bond_atom_site_label_2
_geom_bond_site_symmetry_1
_geom_bond_site_symmetry_2
Te1 Te2 1_555 1_555
Te2 Te3 1_555 1_555
Te4 Te5 1_555 1_555
Te5 Te5A 1_555 1_555
K1 N1 1_555 1_555
K2 N3 1_555 1_555
N1 C1 1_555 1_555
N2 K1 1_555 1_555
O1 K1 1_555 1_555
O2 K1 1_555 1_555
O3 K1 1_555 1_555
O4 K1 1_555 1_555
O5 K1 1_555 1_555
O6 K1 1_555 1_555
N3 C19 1_555 1_555
N4 K2 1_555 1_555
O7 K2 1_555 1_555
O8 K2 1_555 1_555
O9 K2 1_555 1_555
O10 K2 1_555 1_555
O11 K2 1_555 1_555
C1 H1 1_555 1_555
H2 C1 1_555 1_555
C2 O1 1_555 1_555
H3 C2 1_555 1_555
H4 C2 1_555 1_555
C3 O1 1_555 1_555
H5 C3 1_555 1_555
H6 C3 1_555 1_555
C4 O2 1_555 1_555
H7 C4 1_555 1_555
H8 C4 1_555 1_555
C5 O2 1_555 1_555
H9 C5 1_555 1_555
H10 C5 1_555 1_555
C6 N2 1_555 1_555
H11 C6 1_555 1_555
H12 C6 1_555 1_555
C7 N1 1_555 1_555
H13 C7 1_555 1_555
H14 C7 1_555 1_555
C8 O3 1_555 1_555
H15 C8 1_555 1_555
H16 C8 1_555 1_555
C9 O3 1_555 1_555
H17 C9 1_555 1_555
H18 C9 1_555 1_555
C10 O4 1_555 1_555
H19 C10 1_555 1_555
H20 C10 1_555 1_555
C11 O4 1_555 1_555
H21 C11 1_555 1_555
H22 C11 1_555 1_555
C12 N2 1_555 1_555
H23 C12 1_555 1_555
H24 C12 1_555 1_555
C13 N1 1_555 1_555
H25 C13 1_555 1_555
H26 C13 1_555 1_555
C14 O5 1_555 1_555
H27 C14 1_555 1_555
H28 C14 1_555 1_555
C15 O5 1_555 1_555
H29 C15 1_555 1_555
H30 C15 1_555 1_555
C16 O6 1_555 1_555
H31 C16 1_555 1_555
H32 C16 1_555 1_555
C17 O6 1_555 1_555
H33 C17 1_555 1_555
H34 C17 1_555 1_555
C18 N2 1_555 1_555
H35 C18 1_555 1_555
H36 C18 1_555 1_555
C19 H37 1_555 1_555
H38 C19 1_555 1_555
C20 C19 1_555 1_555
H39 C20 1_555 1_555
H40 C20 1_555 1_555
C21 H41 1_555 1_555
H42 C21 1_555 1_555
C22 O7 1_555 1_555
H43 C22 1_555 1_555
H44 C22 1_555 1_555
C23 O7 1_555 1_555
H45 C23 1_555 1_555
H46 C23 1_555 1_555
C24 N4 1_555 1_555
H47 C24 1_555 1_555
H48 C24 1_555 1_555
C25 N3 1_555 1_555
H49 C25 1_555 1_555
H50 C25 1_555 1_555
C26 O8 1_555 1_555
H51 C26 1_555 1_555
H52 C26 1_555 1_555
C27 O8 1_555 1_555
H53 C27 1_555 1_555
H54 C27 1_555 1_555
C28 O9 1_555 1_555
H55 C28 1_555 1_555
H56 C28 1_555 1_555
C29 O9 1_555 1_555
H57 C29 1_555 1_555
H58 C29 1_555 1_555
C30 N4 1_555 1_555
H59 C30 1_555 1_555
H60 C30 1_555 1_555
C31 N3 1_555 1_555
H61 C31 1_555 1_555
H62 C31 1_555 1_555
C32 O10 1_555 1_555
H63 C32 1_555 1_555
H64 C32 1_555 1_555
C33 O10 1_555 1_555
H65 C33 1_555 1_555
H66 C33 1_555 1_555
C34 O11 1_555 1_555
H67 C34 1_555 1_555
H68 C34 1_555 1_555
C35 O11 1_555 1_555
H69 C35 1_555 1_555
H70 C35 1_555 1_555
C36 N4 1_555 1_555
H71 C36 1_555 1_555
H72 C36 1_555 1_555
O12 K2 1_555 1_555
Te1A Te1 1_555 1_555
Te2A Te1A 1_555 1_555
Te3A Te2A 1_555 1_555
Te4A Te5A 1_555 1_555
C1 C2 1_555 1_555
C3 C4 1_555 1_555
C5 C6 1_555 1_555
C7 C8 1_555 1_555
C9 C10 1_555 1_555
C11 C12 1_555 1_555
C13 C14 1_555 1_555
C15 C16 1_555 1_555
C17 C18 1_555 1_555
C20 O12 1_555 1_555
C21 C22 1_555 1_555
C21 O12 1_555 1_555
C23 C24 1_555 1_555
C25 C26 1_555 1_555
C27 C28 1_555 1_555
C29 C30 1_555 1_555
C31 C32 1_555 1_555
C33 C34 1_555 1_555
C35 C36 1_555 1_555

#END
