
#######################################################################
#
#                 Cambridge Crystallographic Data Centre
#                                CCDC 
#
#######################################################################
#
# If this CIF has been generated from an entry in the Cambridge 
# Structural Database, then it will include bibliographic, chemical, 
# crystal, experimental, refinement or atomic coordinate data resulting 
# from the CCDC's data processing and validation procedures.
#
#######################################################################

data_NOMKOR
_chemical_formula_moiety         'C18 H15 Cl1 N2'
_chemical_name_systematic        
'N-(2,6-dimethylphenyl)quinoline-2-carboximidoyl chloride'
_symmetry_cell_setting           monoclinic
_symmetry_space_group_name_H-M   'P 21/n'
_symmetry_Int_Tables_number      14
_space_group_name_Hall           '-P 2yn'
loop_
_symmetry_equiv_pos_site_id
_symmetry_equiv_pos_as_xyz
1 x,y,z
2 1/2-x,1/2+y,1/2-z
3 -x,-y,-z
4 1/2+x,1/2-y,1/2+z
_cell_length_a                   9.7640(7)
_cell_length_b                   13.1295(10)
_cell_length_c                   11.7719(9)
_cell_angle_alpha                90
_cell_angle_beta                 91.4030(10)
_cell_angle_gamma                90
_cell_volume                     1508.66
_cell_formula_units_Z            4
loop_
_atom_site_label
_atom_site_type_symbol
_atom_site_fract_x
_atom_site_fract_y
_atom_site_fract_z
C1 C 0.26954(15) 0.01993(11) 0.40758(11)
C2 C 0.17535(16) -0.06189(12) 0.40659(13)
H1 H 0.0880 -0.0533 0.4390
C3 C 0.20917(19) -0.15318(13) 0.35934(15)
H2 H 0.1449 -0.2075 0.3588
C4 C 0.33799(19) -0.16744(13) 0.31153(16)
H3 H 0.3602 -0.2313 0.2789
C5 C 0.43118(17) -0.09057(13) 0.31156(14)
H4 H 0.5183 -0.1013 0.2794
C6 C 0.39945(16) 0.00552(12) 0.35925(12)
C7 C 0.48969(17) 0.08968(14) 0.36015(14)
H5 H 0.5772 0.0839 0.3273
C8 C 0.45078(17) 0.17913(13) 0.40831(14)
H6 H 0.5107 0.2361 0.4099
C9 C 0.31934(15) 0.18554(12) 0.45588(12)
C10 C 0.28077(16) 0.28268(12) 0.51271(12)
C11 C 0.33918(15) 0.44034(12) 0.59898(13)
C12 C 0.30235(18) 0.52487(13) 0.53293(14)
C13 C 0.2831(2) 0.61720(13) 0.58773(16)
H7 H 0.2563 0.6753 0.5445
C14 C 0.30236(17) 0.62614(13) 0.70404(15)
H8 H 0.2898 0.6901 0.7401
C15 C 0.33969(15) 0.54214(12) 0.76735(13)
H9 H 0.3519 0.5487 0.8473
C16 C 0.35996(15) 0.44784(12) 0.71677(13)
C17 C 0.2857(3) 0.51687(17) 0.40586(16)
H10 H 0.3599 0.4752 0.3760
H11 H 0.2891 0.5851 0.3723
H12 H 0.1974 0.4851 0.3865
C18 C 0.4045(2) 0.35839(13) 0.78881(15)
H13 H 0.4940 0.3729 0.8247
H14 H 0.4113 0.2976 0.7409
H15 H 0.3371 0.3465 0.8477
Cl1 Cl 0.10363(4) 0.29980(3) 0.53284(4)
N1 N 0.23041(13) 0.11025(9) 0.45497(10)
N2 N 0.36892(14) 0.34623(11) 0.54459(11)
loop_
_geom_bond_atom_site_label_1
_geom_bond_atom_site_label_2
_geom_bond_site_symmetry_1
_geom_bond_site_symmetry_2
C1 C2 1_555 1_555
C2 H1 1_555 1_555
C3 C2 1_555 1_555
H2 C3 1_555 1_555
C4 C3 1_555 1_555
H3 C4 1_555 1_555
C5 C4 1_555 1_555
H4 C5 1_555 1_555
C6 C1 1_555 1_555
C7 C6 1_555 1_555
H5 C7 1_555 1_555
C8 C7 1_555 1_555
H6 C8 1_555 1_555
C9 C8 1_555 1_555
C10 C9 1_555 1_555
C11 C12 1_555 1_555
C12 C13 1_555 1_555
C13 H7 1_555 1_555
C14 C13 1_555 1_555
H8 C14 1_555 1_555
C15 C14 1_555 1_555
H9 C15 1_555 1_555
C16 C11 1_555 1_555
C17 C12 1_555 1_555
H10 C17 1_555 1_555
H11 C17 1_555 1_555
H12 C17 1_555 1_555
C18 C16 1_555 1_555
H13 C18 1_555 1_555
H14 C18 1_555 1_555
H15 C18 1_555 1_555
Cl1 C10 1_555 1_555
N1 C1 1_555 1_555
N2 C10 1_555 1_555
C5 C6 1_555 1_555
C9 N1 1_555 1_555
C11 N2 1_555 1_555
C15 C16 1_555 1_555

#END
