
#######################################################################
#
#                 Cambridge Crystallographic Data Centre
#                                CCDC 
#
#######################################################################
#
# If this CIF has been generated from an entry in the Cambridge 
# Structural Database, then it will include bibliographic, chemical, 
# crystal, experimental, refinement or atomic coordinate data resulting 
# from the CCDC's data processing and validation procedures.
#
#######################################################################

data_NOMKEF
_chemical_formula_moiety         'K1 1+,C29 H41 N2 1-,C7 H8'
_chemical_name_systematic        
"Potassium N,N'-bis(2,6-di-isopropylphenyl)-2,4-diazapentadienyl toluene solvate"
_symmetry_cell_setting           monoclinic
_symmetry_space_group_name_H-M   'P 21/c'
_symmetry_Int_Tables_number      14
_space_group_name_Hall           '-P 2ybc'
loop_
_symmetry_equiv_pos_site_id
_symmetry_equiv_pos_as_xyz
1 x,y,z
2 x,1/2-y,1/2+z
3 -x,-y,-z
4 -x,1/2+y,1/2-z
_cell_length_a                   10.6537(9)
_cell_length_b                   26.200(2)
_cell_length_c                   11.9055(10)
_cell_angle_alpha                90
_cell_angle_beta                 99.137(2)
_cell_angle_gamma                90
_cell_volume                     3280.98
_exptl_crystal_colour            colorless
_exptl_crystal_description       block
_chemical_melting_point          320-322deg.C
_cell_formula_units_Z            4
loop_
_atom_site_label
_atom_site_type_symbol
_atom_site_fract_x
_atom_site_fract_y
_atom_site_fract_z
K1 K 0.17998(6) 0.31703(2) 0.30611(4)
N1 N 0.18419(19) 0.40216(7) 0.18830(15)
N2 N 0.15845(19) 0.30230(7) 0.07601(15)
C1 C 0.5113(3) 0.43811(17) 0.2289(3)
H1 H 0.5484 0.4669 0.2754
H2 H 0.4519 0.4510 0.1637
H3 H 0.5791 0.4187 0.2015
C2 C 0.5351(3) 0.37736(14) 0.3926(3)
H4 H 0.5842 0.4034 0.4397
H5 H 0.5928 0.3559 0.3567
H6 H 0.4890 0.3562 0.4403
C3 C 0.4403(3) 0.40333(11) 0.3006(2)
H7 H 0.3979 0.3760 0.2494
C4 C 0.3368(2) 0.43331(9) 0.3454(2)
C5 C 0.3630(3) 0.46110(10) 0.4460(2)
H8 H 0.4457 0.4596 0.4897
C6 C 0.2707(3) 0.49076(10) 0.4833(2)
H9 H 0.2902 0.5097 0.5519
C7 C 0.1502(3) 0.49281(9) 0.4206(2)
H10 H 0.0877 0.5138 0.4462
C8 C 0.1177(2) 0.46487(9) 0.32048(19)
C9 C 0.2133(2) 0.43525(8) 0.28244(19)
C10 C -0.0167(3) 0.46509(10) 0.2542(2)
H11 H -0.0103 0.4605 0.1719
C11 C -0.0920(3) 0.41998(12) 0.2903(3)
H12 H -0.0956 0.4224 0.3718
H13 H -0.0502 0.3880 0.2747
H14 H -0.1785 0.4206 0.2474
C12 C -0.0882(3) 0.51452(11) 0.2657(2)
H15 H -0.1005 0.5189 0.3450
H16 H -0.1711 0.5132 0.2165
H17 H -0.0391 0.5433 0.2430
C13 C 0.1934(3) 0.47437(9) 0.0564(2)
H18 H 0.2156 0.4935 0.1275
H19 H 0.1139 0.4877 0.0139
H20 H 0.2616 0.4780 0.0105
C14 C 0.1770(2) 0.41865(8) 0.08302(19)
C15 C 0.1563(2) 0.38543(9) -0.01177(19)
H21 H 0.1437 0.4017 -0.0840
C16 C 0.1518(2) 0.33205(9) -0.01450(19)
C17 C 0.1424(3) 0.30852(10) -0.1329(2)
H22 H 0.1322 0.3357 -0.1902
H23 H 0.0690 0.2856 -0.1465
H24 H 0.2201 0.2892 -0.1380
C18 C 0.5006(4) 0.22339(18) 0.2084(3)
H25 H 0.5688 0.2467 0.2407
H26 H 0.5361 0.1960 0.1670
H27 H 0.4608 0.2087 0.2698
C19 C 0.4594(4) 0.27132(17) 0.0285(3)
H28 H 0.3980 0.2922 -0.0217
H29 H 0.4846 0.2420 -0.0140
H30 H 0.5346 0.2919 0.0568
C20 C 0.4004(3) 0.25286(11) 0.1262(3)
H31 H 0.3775 0.2838 0.1679
C21 C 0.2781(2) 0.22292(9) 0.09034(19)
C22 C 0.2789(3) 0.16980(10) 0.0862(2)
H32 H 0.3577 0.1522 0.1025
C23 C 0.1683(3) 0.14221(10) 0.0589(2)
H33 H 0.1712 0.1060 0.0550
C24 C 0.0533(3) 0.16734(9) 0.0371(2)
H34 H -0.0228 0.1480 0.0203
C25 C 0.0460(2) 0.22061(9) 0.03914(19)
C26 C 0.1601(2) 0.24897(9) 0.06380(18)
C27 C -0.0812(2) 0.24792(10) 0.0201(2)
H35 H -0.0691 0.2807 -0.0198
C28 C -0.1224(3) 0.26151(14) 0.1338(3)
H36 H -0.0571 0.2829 0.1783
H37 H -0.1334 0.2301 0.1760
H38 H -0.2030 0.2802 0.1199
C29 C -0.1877(3) 0.21900(14) -0.0532(3)
H39 H -0.2117 0.1894 -0.0111
H40 H -0.1586 0.2075 -0.1230
H41 H -0.2614 0.2415 -0.0728
C30 C 0.4467(5) 0.0808(2) 0.3619(6)
H42 H 0.4434 0.0468 0.3954
H43 H 0.3913 0.0818 0.2879
H44 H 0.4180 0.1063 0.4125
C31 C 0.5768(4) 0.09222(14) 0.3467(4)
C32 C 0.6688(6) 0.10872(16) 0.4415(4)
H45 H 0.6454 0.1129 0.5147
C33 C 0.7909(6) 0.11832(15) 0.4244(5)
H46 H 0.8530 0.1276 0.4874
C34 C 0.8256(4) 0.11481(16) 0.3187(5)
H47 H 0.9100 0.1226 0.3081
C35 C 0.7407(5) 0.10055(15) 0.2324(4)
H48 H 0.7646 0.0984 0.1590
C36 C 0.6160(4) 0.08844(13) 0.2453(3)
H49 H 0.5579 0.0773 0.1811
loop_
_geom_bond_atom_site_label_1
_geom_bond_atom_site_label_2
_geom_bond_site_symmetry_1
_geom_bond_site_symmetry_2
N1 C9 1_555 1_555
N2 C16 1_555 1_555
C1 H1 1_555 1_555
H2 C1 1_555 1_555
H3 C1 1_555 1_555
C2 H4 1_555 1_555
H5 C2 1_555 1_555
H6 C2 1_555 1_555
C3 C1 1_555 1_555
H7 C3 1_555 1_555
C4 C3 1_555 1_555
C5 C4 1_555 1_555
H8 C5 1_555 1_555
C6 C5 1_555 1_555
H9 C6 1_555 1_555
C7 C6 1_555 1_555
H10 C7 1_555 1_555
C8 C7 1_555 1_555
C9 C4 1_555 1_555
C10 C8 1_555 1_555
H11 C10 1_555 1_555
C11 C10 1_555 1_555
H12 C11 1_555 1_555
H13 C11 1_555 1_555
H14 C11 1_555 1_555
C12 C10 1_555 1_555
H15 C12 1_555 1_555
H16 C12 1_555 1_555
H17 C12 1_555 1_555
C13 H18 1_555 1_555
H19 C13 1_555 1_555
H20 C13 1_555 1_555
C14 N1 1_555 1_555
C15 C14 1_555 1_555
H21 C15 1_555 1_555
C16 C15 1_555 1_555
C17 C16 1_555 1_555
H22 C17 1_555 1_555
H23 C17 1_555 1_555
H24 C17 1_555 1_555
C18 H25 1_555 1_555
H26 C18 1_555 1_555
H27 C18 1_555 1_555
C19 H28 1_555 1_555
H29 C19 1_555 1_555
H30 C19 1_555 1_555
C20 C18 1_555 1_555
H31 C20 1_555 1_555
C21 C20 1_555 1_555
C22 C21 1_555 1_555
H32 C22 1_555 1_555
C23 C22 1_555 1_555
H33 C23 1_555 1_555
C24 C23 1_555 1_555
H34 C24 1_555 1_555
C25 C24 1_555 1_555
C26 N2 1_555 1_555
C27 C25 1_555 1_555
H35 C27 1_555 1_555
C28 C27 1_555 1_555
H36 C28 1_555 1_555
H37 C28 1_555 1_555
H38 C28 1_555 1_555
C29 C27 1_555 1_555
H39 C29 1_555 1_555
H40 C29 1_555 1_555
H41 C29 1_555 1_555
C30 H42 1_555 1_555
H43 C30 1_555 1_555
H44 C30 1_555 1_555
C31 C30 1_555 1_555
C32 C31 1_555 1_555
H45 C32 1_555 1_555
C33 C32 1_555 1_555
H46 C33 1_555 1_555
C34 C33 1_555 1_555
H47 C34 1_555 1_555
C35 C34 1_555 1_555
H48 C35 1_555 1_555
C36 C31 1_555 1_555
H49 C36 1_555 1_555
C2 C3 1_555 1_555
C8 C9 1_555 1_555
C13 C14 1_555 1_555
C19 C20 1_555 1_555
C21 C26 1_555 1_555
C25 C26 1_555 1_555
C35 C36 1_555 1_555

#END
