
#######################################################################
#
#                 Cambridge Crystallographic Data Centre
#                                CCDC 
#
#######################################################################
#
# If this CIF has been generated from an entry in the Cambridge 
# Structural Database, then it will include bibliographic, chemical, 
# crystal, experimental, refinement or atomic coordinate data resulting 
# from the CCDC's data processing and validation procedures.
#
#######################################################################

data_NOMMEJ
_chemical_formula_moiety         'C20 H13 Cl1 N2 O3 S1'
_chemical_name_systematic        
10-benzyl-6-chloro-2-nitrodibenzo[b,f][1,4]thiazepin-11(10H)-one
_symmetry_cell_setting           triclinic
_symmetry_space_group_name_H-M   'P -1'
_symmetry_Int_Tables_number      2
_space_group_name_Hall           '-P 1'
loop_
_symmetry_equiv_pos_site_id
_symmetry_equiv_pos_as_xyz
1 x,y,z
2 -x,-y,-z
_cell_length_a                   7.942(5)
_cell_length_b                   9.763(7)
_cell_length_c                   12.245(9)
_cell_angle_alpha                93.077(11)
_cell_angle_beta                 95.394(11)
_cell_angle_gamma                108.561(12)
_cell_volume                     892.556
_cell_formula_units_Z            2
loop_
_atom_site_label
_atom_site_type_symbol
_atom_site_fract_x
_atom_site_fract_y
_atom_site_fract_z
S1 S 0.00172(11) 0.06081(10) 0.23488(6)
Cl1 Cl -0.06208(13) 0.18633(12) 0.00443(7)
N1 N -0.3222(3) -0.0071(3) 0.35773(19)
C1 C 0.0645(4) 0.1949(3) 0.3472(2)
C2 C -0.0419(4) 0.1860(3) 0.4330(2)
C3 C -0.3405(4) 0.0567(3) 0.2565(2)
C4 C -0.2021(4) 0.0882(3) 0.1898(2)
C5 C 0.0122(4) 0.2949(3) 0.5196(2)
H1 H -0.0541 0.2894 0.5789
C6 C 0.1645(4) 0.4102(3) 0.5163(3)
C7 C 0.2218(4) 0.3106(4) 0.3500(3)
H2 H 0.2951 0.3137 0.2947
N2 N 0.2154(4) 0.5267(4) 0.6060(3)
C8 C -0.2291(4) 0.1462(3) 0.0908(2)
O1 O 0.1238(4) 0.5151(3) 0.6814(2)
C9 C -0.5214(5) -0.2534(3) 0.2823(3)
C10 C 0.2706(4) 0.4200(4) 0.4327(3)
H3 H 0.3734 0.4994 0.4326
C11 C -0.4726(4) -0.1361(3) 0.3755(3)
H4 H -0.5763 -0.1068 0.3855
H5 H -0.4411 -0.1752 0.4427
C12 C -0.3889(5) 0.1685(4) 0.0584(3)
H6 H -0.4057 0.2057 -0.0086
C13 C -0.5224(4) 0.1356(3) 0.1252(3)
H7 H -0.6303 0.1503 0.1035
C14 C -0.4976(4) 0.0807(3) 0.2245(3)
H8 H -0.5882 0.0599 0.2701
O2 O 0.3468(4) 0.6321(3) 0.5996(3)
C15 C -0.6968(5) -0.3149(4) 0.2358(3)
H9 H -0.7833 -0.2770 0.2575
C16 C -0.3942(5) -0.3067(4) 0.2455(3)
H10 H -0.2747 -0.2648 0.2738
C17 C -0.6166(8) -0.4846(5) 0.1238(3)
H11 H -0.6486 -0.5638 0.0714
C18 C -0.4453(7) -0.4239(5) 0.1654(3)
H12 H -0.3592 -0.4602 0.1407
C19 C -0.7456(6) -0.4321(5) 0.1571(3)
H13 H -0.8644 -0.4745 0.1274
C20 C -0.1994(4) 0.0574(3) 0.4454(2)
O3 O -0.2150(3) 0.0129(2) 0.53657(17)
loop_
_geom_bond_atom_site_label_1
_geom_bond_atom_site_label_2
_geom_bond_site_symmetry_1
_geom_bond_site_symmetry_2
S1 C1 1_555 1_555
Cl1 C8 1_555 1_555
N1 C3 1_555 1_555
C1 C2 1_555 1_555
C2 C5 1_555 1_555
C3 C4 1_555 1_555
C4 S1 1_555 1_555
C5 H1 1_555 1_555
C6 C5 1_555 1_555
C7 C1 1_555 1_555
H2 C7 1_555 1_555
N2 C6 1_555 1_555
C8 C4 1_555 1_555
O1 N2 1_555 1_555
C9 C11 1_555 1_555
C10 C6 1_555 1_555
H3 C10 1_555 1_555
C11 N1 1_555 1_555
H4 C11 1_555 1_555
H5 C11 1_555 1_555
C12 C8 1_555 1_555
H6 C12 1_555 1_555
C13 C12 1_555 1_555
H7 C13 1_555 1_555
C14 C3 1_555 1_555
H8 C14 1_555 1_555
O2 N2 1_555 1_555
C15 C9 1_555 1_555
H9 C15 1_555 1_555
C16 C9 1_555 1_555
H10 C16 1_555 1_555
C17 H11 1_555 1_555
C18 C16 1_555 1_555
H12 C18 1_555 1_555
C19 C15 1_555 1_555
H13 C19 1_555 1_555
C20 N1 1_555 1_555
O3 C20 1_555 1_555
C2 C20 1_555 1_555
C7 C10 1_555 1_555
C13 C14 1_555 1_555
C17 C18 1_555 1_555
C17 C19 1_555 1_555

#END
