
#######################################################################
#
#                 Cambridge Crystallographic Data Centre
#                                CCDC 
#
#######################################################################
#
# If this CIF has been generated from an entry in the Cambridge 
# Structural Database, then it will include bibliographic, chemical, 
# crystal, experimental, refinement or atomic coordinate data resulting 
# from the CCDC's data processing and validation procedures.
#
#######################################################################

data_NOMNUA
_chemical_formula_moiety         'C31 H29 N3 O2'
_chemical_name_systematic        
2-(4-aminophenyl)-3-(4-(bis(4-ethoxyphenyl)amino)phenyl)acrylonitrile
_symmetry_cell_setting           monoclinic
_symmetry_space_group_name_H-M   'P 21/c'
_symmetry_Int_Tables_number      14
_space_group_name_Hall           '-P 2ybc'
loop_
_symmetry_equiv_pos_site_id
_symmetry_equiv_pos_as_xyz
1 x,y,z
2 -x,1/2+y,1/2-z
3 -x,-y,-z
4 x,1/2-y,1/2+z
_cell_length_a                   10.717(5)
_cell_length_b                   13.917(5)
_cell_length_c                   17.565(5)
_cell_angle_alpha                90
_cell_angle_beta                 92.417(5)
_cell_angle_gamma                90
_cell_volume                     2617.46
_cell_formula_units_Z            4
loop_
_atom_site_label
_atom_site_type_symbol
_atom_site_fract_x
_atom_site_fract_y
_atom_site_fract_z
O1 O 0.02709(16) 0.03591(12) -0.16369(10)
N1 N 0.2027(2) 0.37759(14) -0.03206(12)
O2 O 0.1368(2) 0.71574(13) -0.19992(12)
C1 C 0.2649(2) 0.37830(16) 0.03887(14)
C2 C 0.0716(2) 0.49913(18) -0.09487(14)
H1 H 0.0017 0.4661 -0.0794
C3 C 0.1883(2) 0.46420(17) -0.07571(14)
C4 C 0.1552(2) 0.29000(17) -0.06469(14)
C5 C 0.3872(2) 0.38089(16) 0.18510(14)
C6 C 0.0637(2) 0.11978(16) -0.12842(14)
C7 C 0.4502(2) 0.37584(17) 0.26013(14)
H2 H 0.4535 0.3146 0.2813
C8 C 0.1546(2) 0.17185(18) -0.16394(15)
H3 H 0.1852 0.1499 -0.2096
C9 C 0.5663(2) 0.43057(17) 0.38036(14)
C10 C 0.0176(2) 0.15349(18) -0.06120(14)
H4 H -0.0437 0.1192 -0.0369
C11 C 0.3411(2) 0.46370(18) 0.15037(16)
H5 H 0.3510 0.5220 0.1758
C12 C 0.2001(2) 0.25604(18) -0.13216(15)
H6 H 0.2616 0.2903 -0.1563
C13 C 0.2816(2) 0.46253(18) 0.07976(15)
H7 H 0.2516 0.5199 0.0588
C14 C 0.1588(3) 0.63178(17) -0.15930(15)
C15 C 0.5046(2) 0.44466(17) 0.30414(14)
C16 C 0.0631(3) 0.23866(18) -0.03018(14)
H8 H 0.0310 0.2616 0.0147
C17 C 0.0561(3) 0.58279(18) -0.13690(15)
H9 H -0.0236 0.6055 -0.1498
C18 C 0.3101(3) 0.29466(18) 0.07325(15)
H10 H 0.3003 0.2363 0.0479
C19 C 0.6121(2) 0.50798(19) 0.42312(14)
H11 H 0.6007 0.5699 0.4041
C20 C 0.3688(3) 0.29699(18) 0.14379(16)
H12 H 0.3977 0.2395 0.1651
C21 C 0.6739(2) 0.4958(2) 0.49272(15)
H13 H 0.7034 0.5495 0.5195
C22 C 0.6929(3) 0.4060(2) 0.52341(15)
C23 C 0.5831(3) 0.3402(2) 0.41271(16)
H14 H 0.5519 0.2866 0.3867
C24 C 0.5128(3) 0.5400(2) 0.27338(16)
C25 C -0.0805(3) -0.01140(18) -0.13750(16)
H15 H -0.1506 0.0327 -0.1384
H16 H -0.0650 -0.0332 -0.0855
C26 C 0.6449(3) 0.3281(2) 0.48258(17)
H17 H 0.6547 0.2666 0.5026
C27 C 0.2171(3) 0.7375(2) -0.25810(16)
H18 H 0.2265 0.6817 -0.2904
H19 H 0.2988 0.7545 -0.2362
C28 C 0.2757(3) 0.5981(2) -0.14043(19)
H20 H 0.3454 0.6318 -0.1556
C29 C 0.2911(3) 0.5138(2) -0.09876(18)
H21 H 0.3710 0.4909 -0.0864
N2 N 0.7565(3) 0.3925(2) 0.59276(15)
H22 H 0.7856 0.4411 0.6180
H23 H 0.7671 0.3354 0.6107
C30 C -0.1099(3) -0.0953(2) -0.18826(19)
H24 H -0.1180 -0.0739 -0.2402
H25 H -0.1869 -0.1241 -0.1740
H26 H -0.0438 -0.1416 -0.1832
N3 N 0.5238(3) 0.61572(19) 0.24783(16)
C31 C 0.1662(3) 0.8187(2) -0.30422(18)
H27 H 0.0850 0.8019 -0.3253
H28 H 0.2209 0.8322 -0.3447
H29 H 0.1596 0.8744 -0.2725
loop_
_geom_bond_atom_site_label_1
_geom_bond_atom_site_label_2
_geom_bond_site_symmetry_1
_geom_bond_site_symmetry_2
O1 C6 1_555 1_555
N1 C1 1_555 1_555
O2 C14 1_555 1_555
C1 C13 1_555 1_555
C2 H1 1_555 1_555
C3 N1 1_555 1_555
C4 N1 1_555 1_555
C5 C7 1_555 1_555
C6 C8 1_555 1_555
C7 H2 1_555 1_555
C8 H3 1_555 1_555
C9 C15 1_555 1_555
C10 C6 1_555 1_555
H4 C10 1_555 1_555
C11 C5 1_555 1_555
H5 C11 1_555 1_555
C12 C4 1_555 1_555
H6 C12 1_555 1_555
C13 C11 1_555 1_555
H7 C13 1_555 1_555
C14 C17 1_555 1_555
C15 C7 1_555 1_555
C16 C4 1_555 1_555
H8 C16 1_555 1_555
C17 C2 1_555 1_555
H9 C17 1_555 1_555
C18 C1 1_555 1_555
H10 C18 1_555 1_555
C19 C9 1_555 1_555
H11 C19 1_555 1_555
C20 C5 1_555 1_555
H12 C20 1_555 1_555
C21 C19 1_555 1_555
H13 C21 1_555 1_555
C22 C21 1_555 1_555
C23 C9 1_555 1_555
H14 C23 1_555 1_555
C24 C15 1_555 1_555
C25 O1 1_555 1_555
H15 C25 1_555 1_555
H16 C25 1_555 1_555
C26 C22 1_555 1_555
H17 C26 1_555 1_555
C27 O2 1_555 1_555
H18 C27 1_555 1_555
H19 C27 1_555 1_555
C28 C14 1_555 1_555
H20 C28 1_555 1_555
C29 C3 1_555 1_555
H21 C29 1_555 1_555
N2 C22 1_555 1_555
H22 N2 1_555 1_555
H23 N2 1_555 1_555
C30 C25 1_555 1_555
H24 C30 1_555 1_555
H25 C30 1_555 1_555
H26 C30 1_555 1_555
N3 C24 1_555 1_555
C31 C27 1_555 1_555
H27 C31 1_555 1_555
H28 C31 1_555 1_555
H29 C31 1_555 1_555
C2 C3 1_555 1_555
C8 C12 1_555 1_555
C10 C16 1_555 1_555
C18 C20 1_555 1_555
C23 C26 1_555 1_555
C28 C29 1_555 1_555

#END
