
#######################################################################
#
#                 Cambridge Crystallographic Data Centre
#                                CCDC 
#
#######################################################################
#
# If this CIF has been generated from an entry in the Cambridge 
# Structural Database, then it will include bibliographic, chemical, 
# crystal, experimental, refinement or atomic coordinate data resulting 
# from the CCDC's data processing and validation procedures.
#
#######################################################################

data_NOMNIO
_chemical_formula_moiety         'C30 H28 N2 O4'
_chemical_name_systematic        
4-ethoxy-N-(4-ethoxyphenyl)-N-(4-(2-(4-nitrophenyl)vinyl)phenyl)aniline
_symmetry_cell_setting           monoclinic
_symmetry_space_group_name_H-M   'P 21/c'
_symmetry_Int_Tables_number      14
_space_group_name_Hall           '-P 2ybc'
loop_
_symmetry_equiv_pos_site_id
_symmetry_equiv_pos_as_xyz
1 x,y,z
2 -x,1/2+y,1/2-z
3 -x,-y,-z
4 x,1/2-y,1/2+z
_cell_length_a                   10.326(5)
_cell_length_b                   22.629(5)
_cell_length_c                   12.174(5)
_cell_angle_alpha                90
_cell_angle_beta                 114.636(5)
_cell_angle_gamma                90
_cell_volume                     2585.73
_cell_formula_units_Z            4
loop_
_atom_site_label
_atom_site_type_symbol
_atom_site_fract_x
_atom_site_fract_y
_atom_site_fract_z
N1 N 0.9554(3) 0.30443(14) 0.0924(3)
C1 C 1.0524(4) 0.25608(17) 0.1374(3)
C2 C 0.8649(4) 0.30500(18) -0.0345(4)
C3 C 0.9196(4) 0.33923(16) 0.1712(3)
C4 C 0.8482(5) 0.40660(17) 0.3325(4)
C5 C 0.6849(4) 0.3065(2) -0.2777(4)
C6 C 0.7884(4) 0.36667(17) 0.1341(4)
H1 H 0.7221 0.3628 0.0544
C7 C 0.7549(5) 0.39951(18) 0.2133(4)
H2 H 0.6660 0.4176 0.1855
C8 C 1.0163(4) 0.34670(17) 0.2899(4)
H3 H 1.1055 0.3291 0.3167
C9 C 0.9820(4) 0.38017(17) 0.3697(4)
H4 H 1.0491 0.3851 0.4489
O1 O 0.5929(3) 0.31218(17) -0.3991(3)
C10 C 0.8420(5) 0.48508(19) 0.6137(4)
C11 C 1.1538(4) 0.24697(19) 0.0920(3)
H5 H 1.1613 0.2733 0.0364
C12 C 0.7530(4) 0.3567(2) -0.2233(4)
H6 H 0.7383 0.3916 -0.2674
C13 C 0.8440(4) 0.35587(19) -0.1023(4)
H7 H 0.8922 0.3902 -0.0657
C14 C 1.2439(4) 0.1984(2) 0.1298(4)
H8 H 1.3102 0.1919 0.0978
C15 C 0.7718(6) 0.5454(2) 0.7786(5)
C16 C 1.1403(5) 0.16956(19) 0.2606(4)
H9 H 1.1372 0.1441 0.3195
C17 C 0.8073(5) 0.44067(19) 0.4154(4)
H10 H 0.7164 0.4570 0.3826
C18 C 0.9014(6) 0.5181(2) 0.8152(4)
H11 H 0.9661 0.5195 0.8958
C19 C 0.8825(5) 0.45057(19) 0.5277(4)
H12 H 0.9735 0.4343 0.5600
C20 C 1.0461(4) 0.21730(19) 0.2209(4)
H13 H 0.9784 0.2227 0.2518
C21 C 0.7064(4) 0.2547(2) -0.2148(4)
H14 H 0.6615 0.2201 -0.2532
N2 N 0.7381(6) 0.5761(2) 0.8698(5)
C22 C 1.2361(5) 0.1605(2) 0.2129(4)
C23 C 0.7962(4) 0.25466(19) -0.0927(4)
H15 H 0.8103 0.2197 -0.0491
C24 C 0.9353(5) 0.4886(2) 0.7318(5)
H16 H 1.0240 0.4706 0.7569
C25 C 0.7124(5) 0.5139(2) 0.5777(4)
H17 H 0.6488 0.5127 0.4967
C26 C 0.6738(5) 0.5451(2) 0.6602(5)
H18 H 0.5866 0.5644 0.6356
O2 O 0.6245(5) 0.6013(2) 0.8354(4)
O3 O 0.8223(5) 0.5738(2) 0.9753(4)
C27 C 1.5023(17) 0.0441(7) 0.3482(13)
H19 H 1.4688 0.0228 0.2731
H20 H 1.5251 0.0166 0.4137
H21 H 1.5859 0.0662 0.3585
C28 C 1.3849(9) 0.0868(3) 0.3468(7)
H22 H 1.3049 0.0651 0.3488
H23 H 1.4216 0.1134 0.4154
O4 O 1.3448(7) 0.1177(3) 0.2384(5)
C29 C 0.5326(7) 0.2659(3) -0.4671(6)
H24 H 0.4761 0.2445 -0.4336
H25 H 0.6053 0.2395 -0.4696
C30 C 0.4381(8) 0.2872(3) -0.5939(6)
H26 H 0.3757 0.3177 -0.5896
H27 H 0.3825 0.2548 -0.6408
H28 H 0.4964 0.3026 -0.6314
C31? C 1.498(4) 0.0508(15) 0.377(3)
H29? H 1.4262 0.0214 0.3651
H30? H 1.5326 0.0655 0.4587
H31? H 1.5751 0.0337 0.3641
O5? O 1.2862(13) 0.1016(6) 0.2592(13)
C32? C 1.4317(17) 0.1032(9) 0.286(2)
H32? H 1.4730 0.1407 0.3230
H33? H 1.4476 0.0976 0.2138
C33? C 0.5706(19) 0.3493(8) -0.4808(9)
H34? H 0.6602 0.3614 -0.4819
H35? H 0.5246 0.3840 -0.4665
C34? C 0.472(2) 0.3202(9) -0.6054(9)
H36? H 0.5161 0.2848 -0.6170
H37? H 0.4582 0.3474 -0.6698
H38? H 0.3814 0.3106 -0.6054
loop_
_geom_bond_atom_site_label_1
_geom_bond_atom_site_label_2
_geom_bond_site_symmetry_1
_geom_bond_site_symmetry_2
N1 C1 1_555 1_555
C1 C11 1_555 1_555
C2 N1 1_555 1_555
C3 N1 1_555 1_555
C4 C7 1_555 1_555
C5 O1 1_555 1_555
C6 C3 1_555 1_555
H1 C6 1_555 1_555
C7 C6 1_555 1_555
H2 C7 1_555 1_555
C8 C3 1_555 1_555
H3 C8 1_555 1_555
C9 C4 1_555 1_555
H4 C9 1_555 1_555
O1 C29 1_555 1_555
C10 C19 1_555 1_555
C11 H5 1_555 1_555
C12 C5 1_555 1_555
H6 C12 1_555 1_555
C13 C2 1_555 1_555
H7 C13 1_555 1_555
C14 C11 1_555 1_555
H8 C14 1_555 1_555
C15 C18 1_555 1_555
C16 H9 1_555 1_555
C17 C4 1_555 1_555
H10 C17 1_555 1_555
C18 H11 1_555 1_555
C19 C17 1_555 1_555
H12 C19 1_555 1_555
C20 C1 1_555 1_555
H13 C20 1_555 1_555
C21 C5 1_555 1_555
H14 C21 1_555 1_555
N2 C15 1_555 1_555
C22 C14 1_555 1_555
C23 C2 1_555 1_555
H15 C23 1_555 1_555
C24 C10 1_555 1_555
H16 C24 1_555 1_555
C25 C10 1_555 1_555
H17 C25 1_555 1_555
C26 C15 1_555 1_555
H18 C26 1_555 1_555
O2 N2 1_555 1_555
O3 N2 1_555 1_555
C27 H19 1_555 1_555
H20 C27 1_555 1_555
H21 C27 1_555 1_555
C28 C27 1_555 1_555
H22 C28 1_555 1_555
H23 C28 1_555 1_555
O4 C22 1_555 1_555
C29 H24 1_555 1_555
H25 C29 1_555 1_555
C30 C29 1_555 1_555
H26 C30 1_555 1_555
H27 C30 1_555 1_555
H28 C30 1_555 1_555
C8 C9 1_555 1_555
C12 C13 1_555 1_555
C16 C20 1_555 1_555
C16 C22 1_555 1_555
C18 C24 1_555 1_555
C21 C23 1_555 1_555
C25 C26 1_555 1_555
C28 O4 1_555 1_555

#END
