
#######################################################################
#
#                 Cambridge Crystallographic Data Centre
#                                CCDC 
#
#######################################################################
#
# If this CIF has been generated from an entry in the Cambridge 
# Structural Database, then it will include bibliographic, chemical, 
# crystal, experimental, refinement or atomic coordinate data resulting 
# from the CCDC's data processing and validation procedures.
#
#######################################################################

data_NOMNOU
_chemical_formula_moiety         'C31 H27 N3 O4'
_chemical_name_systematic        
3-(4-(bis(4-ethoxyphenyl)amino)phenyl)-2-(4-nitrophenyl)acrylonitrile
_symmetry_cell_setting           triclinic
_symmetry_space_group_name_H-M   'P -1'
_symmetry_Int_Tables_number      2
_space_group_name_Hall           '-P 1'
loop_
_symmetry_equiv_pos_site_id
_symmetry_equiv_pos_as_xyz
1 x,y,z
2 -x,-y,-z
_cell_length_a                   11.899(5)
_cell_length_b                   12.656(5)
_cell_length_c                   18.797(5)
_cell_angle_alpha                85.623(5)
_cell_angle_beta                 74.828(5)
_cell_angle_gamma                87.564(5)
_cell_volume                     2723.33
_cell_formula_units_Z            4
loop_
_atom_site_label
_atom_site_type_symbol
_atom_site_fract_x
_atom_site_fract_y
_atom_site_fract_z
C1 C -0.1389(3) 0.3211(3) 0.6253(2)
C2 C -0.1193(3) 0.2214(3) 0.6002(2)
H1 H -0.1768 0.1708 0.6150
C3 C -0.0134(3) 0.1969(3) 0.5526(2)
H2 H 0.0005 0.1288 0.5363
C4 C 0.0726(3) 0.2712(3) 0.52867(18)
C5 C 0.0487(3) 0.3730(3) 0.5546(2)
H3 H 0.1043 0.4251 0.5386
C6 C -0.0560(4) 0.3966(3) 0.6031(2)
H4 H -0.0703 0.4638 0.6209
C7 C 0.1863(3) 0.2452(3) 0.47673(17)
C8 C 0.2056(3) 0.1336(3) 0.46578(18)
C9 C 0.2666(3) 0.3174(3) 0.44187(19)
H5 H 0.2439 0.3866 0.4534
C10 C 0.3807(3) 0.3095(3) 0.39029(18)
C11 C 0.4422(3) 0.2146(3) 0.36764(19)
H6 H 0.4118 0.1499 0.3894
C12 C 0.5455(3) 0.2161(3) 0.31443(19)
H7 H 0.5822 0.1520 0.2999
C13 C 0.5985(3) 0.3112(3) 0.28080(18)
C14 C 0.5425(3) 0.4060(3) 0.30614(19)
H8 H 0.5762 0.4707 0.2874
C15 C 0.4372(3) 0.4030(3) 0.3592(2)
H9 H 0.4018 0.4671 0.3751
C16 C 0.7741(3) 0.3998(3) 0.2014(2)
C17 C 0.8145(4) 0.4332(3) 0.1267(2)
H10 H 0.7895 0.4000 0.0914
C18 C 0.8912(4) 0.5151(3) 0.1055(3)
H11 H 0.9172 0.5360 0.0555
C19 C 0.9306(3) 0.5669(3) 0.1554(3)
C20 C 0.8901(3) 0.5359(3) 0.2288(3)
H12 H 0.9145 0.5706 0.2638
C21 C 0.8131(3) 0.4533(3) 0.2514(2)
H13 H 0.7871 0.4334 0.3015
C22 C 1.0598(5) 0.6957(4) 0.1767(4)
H14 H 1.1038 0.6434 0.1994
H15 H 1.0000 0.7267 0.2155
C23 C 1.1387(6) 0.7800(5) 0.1335(5)
H16 H 1.2066 0.7476 0.1026
H17 H 1.1617 0.8231 0.1669
H18 H 1.0986 0.8233 0.1034
C24 C 0.7361(3) 0.2158(3) 0.1851(2)
C25 C 0.8349(3) 0.1616(3) 0.1932(2)
H19 H 0.8771 0.1860 0.2236
C26 C 0.8713(4) 0.0720(4) 0.1568(3)
H20 H 0.9364 0.0335 0.1637
C27 C 0.8107(5) 0.0393(3) 0.1100(3)
C28 C 0.7111(4) 0.0922(4) 0.1007(3)
H21 H 0.6703 0.0688 0.0691
C29 C 0.6742(4) 0.1812(3) 0.1399(2)
H22 H 0.6066 0.2177 0.1354
N1 N -0.2505(3) 0.3470(4) 0.6763(3)
N2 N 0.6996(2) 0.3105(2) 0.22348(16)
N3 N 0.2152(3) 0.0449(3) 0.45918(19)
O1 O -0.3349(6) 0.2944(9) 0.6749(16)
O2 O -0.2604(3) 0.4297(3) 0.7065(2)
O3 O 1.0072(3) 0.6464(2) 0.1276(2)
C30 C 0.8194(9) -0.0815(8) 0.0199(5)
H23 H 0.8343 -0.0272 -0.0205
H24 H 0.7361 -0.0913 0.0383
C31 C 0.8849(18) -0.1853(14) -0.0024(11)
H25 H 0.9651 -0.1795 -0.0022
H26 H 0.8805 -0.1993 -0.0511
H27 H 0.8505 -0.2422 0.0320
O4 O 0.8741(6) -0.0570(4) 0.0800(3)
C34 C 0.4862(5) 0.7291(3) 0.0171(2)
H33 H 0.4956 0.7112 -0.0329
H34 H 0.5548 0.7632 0.0207
H35 H 0.4200 0.7764 0.0311
C35 C 0.4674(4) 0.6299(3) 0.0677(2)
H36 H 0.5356 0.5833 0.0556
H37 H 0.4546 0.6476 0.1186
C36 C 0.3322(3) 0.4875(2) 0.10237(18)
C37 C 0.3942(3) 0.4346(3) 0.14740(19)
H38 H 0.4640 0.4613 0.1509
C38 C 0.3517(3) 0.3410(3) 0.18752(18)
H39 H 0.3942 0.3052 0.2173
C39 C 0.2476(3) 0.3007(2) 0.18373(17)
C40 C 0.1846(3) 0.3558(3) 0.14009(19)
H40 H 0.1134 0.3306 0.1379
C41 C 0.2272(3) 0.4486(3) 0.0995(2)
H41 H 0.1844 0.4849 0.0700
C42 C 0.2823(3) 0.1109(2) 0.20886(17)
C43 C 0.3169(3) 0.0526(3) 0.26424(19)
H42 H 0.2872 0.0707 0.3127
C44 C 0.3948(3) -0.0325(3) 0.25012(19)
H43 H 0.4159 -0.0713 0.2888
C45 C 0.4405(3) -0.0592(2) 0.17896(19)
C46 C 0.4060(3) -0.0030(3) 0.12302(19)
H44 H 0.4353 -0.0217 0.0746
C47 C 0.3272(3) 0.0823(3) 0.13794(19)
H45 H 0.3049 0.1202 0.0993
C48 C 0.5762(3) -0.1864(3) 0.2129(2)
H46 H 0.5178 -0.2150 0.2555
H47 H 0.6177 -0.1324 0.2290
C49 C 0.6591(4) -0.2726(4) 0.1814(3)
H48 H 0.6309 -0.3057 0.1454
H49 H 0.6659 -0.3243 0.2202
H50 H 0.7341 -0.2433 0.1583
C50 C 0.1042(3) 0.1997(2) 0.28019(17)
C51 C 0.0469(3) 0.1050(2) 0.30720(19)
H51 H 0.0799 0.0412 0.2892
C52 C -0.0580(3) 0.1052(2) 0.36011(19)
H52 H -0.0940 0.0409 0.3770
C53 C -0.1127(3) 0.1986(2) 0.38956(18)
C54 C -0.0509(3) 0.2924(2) 0.36485(18)
H53 H -0.0815 0.3555 0.3850
C55 C 0.0528(3) 0.2933(2) 0.31212(18)
H54 H 0.0905 0.3572 0.2969
C56 C -0.2271(3) 0.1897(2) 0.44017(18)
H55 H -0.2509 0.1200 0.4515
C57 C -0.3072(3) 0.2611(2) 0.47463(17)
C58 C -0.2846(3) 0.3721(3) 0.46440(18)
C59 C -0.4232(3) 0.2333(2) 0.52376(16)
C60 C -0.4549(3) 0.1283(3) 0.5456(2)
H56 H -0.4010 0.0739 0.5301
C61 C -0.5639(3) 0.1032(3) 0.5897(2)
H57 H -0.5838 0.0329 0.6033
C62 C -0.6427(3) 0.1840(3) 0.61310(19)
C63 C -0.6150(3) 0.2879(3) 0.5936(2)
H58 H -0.6691 0.3417 0.6100
C64 C -0.5063(3) 0.3116(3) 0.54949(19)
H59 H -0.4876 0.3823 0.5364
N4 N 0.2059(2) 0.20233(19) 0.22384(15)
N5 N -0.2716(3) 0.4621(3) 0.4579(2)
N6 N -0.7587(3) 0.1575(4) 0.66013(19)
O7 O -0.8287(3) 0.2282(3) 0.6786(2)
O8 O -0.7786(3) 0.0643(3) 0.6791(2)
O9 O 0.5211(2) -0.14059(18) 0.15915(14)
O10 O 0.3688(3) 0.57857(19) 0.05873(14)
O5? O -0.307(5) 0.279(2) 0.722(4)
C32? C 0.9236(9) -0.1222(9) 0.0536(8)
H28? H 0.9170 -0.1621 0.1006
H29? H 0.9938 -0.0811 0.0422
C33? C 0.930(3) -0.198(2) -0.0070(16)
H30? H 0.8528 -0.2215 -0.0040
H31? H 0.9791 -0.2578 -0.0006
H32? H 0.9607 -0.1616 -0.0545
O6? O 0.8181(8) -0.0491(6) 0.0582(5)
loop_
_geom_bond_atom_site_label_1
_geom_bond_atom_site_label_2
_geom_bond_site_symmetry_1
_geom_bond_site_symmetry_2
C1 C2 1_555 1_555
C2 H1 1_555 1_555
C3 C2 1_555 1_555
H2 C3 1_555 1_555
C4 C3 1_555 1_555
C5 C4 1_555 1_555
H3 C5 1_555 1_555
C6 C1 1_555 1_555
H4 C6 1_555 1_555
C7 C4 1_555 1_555
C8 C7 1_555 1_555
C9 C7 1_555 1_555
H5 C9 1_555 1_555
C10 C9 1_555 1_555
C11 C10 1_555 1_555
H6 C11 1_555 1_555
C12 C11 1_555 1_555
H7 C12 1_555 1_555
C13 C12 1_555 1_555
C14 C13 1_555 1_555
H8 C14 1_555 1_555
C15 C10 1_555 1_555
H9 C15 1_555 1_555
C16 C17 1_555 1_555
C17 H10 1_555 1_555
C18 C17 1_555 1_555
H11 C18 1_555 1_555
C19 C18 1_555 1_555
C20 C19 1_555 1_555
H12 C20 1_555 1_555
C21 C16 1_555 1_555
H13 C21 1_555 1_555
C22 H14 1_555 1_555
H15 C22 1_555 1_555
C23 C22 1_555 1_555
H16 C23 1_555 1_555
H17 C23 1_555 1_555
H18 C23 1_555 1_555
C24 C25 1_555 1_555
C25 H19 1_555 1_555
C26 C25 1_555 1_555
H20 C26 1_555 1_555
C27 C26 1_555 1_555
C28 C27 1_555 1_555
H21 C28 1_555 1_555
C29 C24 1_555 1_555
H22 C29 1_555 1_555
N1 C1 1_555 1_555
N2 C13 1_555 1_555
N3 C8 1_555 1_555
O1 N1 1_555 1_555
O2 N1 1_555 1_555
O3 C19 1_555 1_555
C30 H23 1_555 1_555
H24 C30 1_555 1_555
C31 C30 1_555 1_555
H25 C31 1_555 1_555
H26 C31 1_555 1_555
H27 C31 1_555 1_555
O4 C27 1_555 1_555
C34 H33 1_555 1_555
H34 C34 1_555 1_555
H35 C34 1_555 1_555
C35 C34 1_555 1_555
H36 C35 1_555 1_555
H37 C35 1_555 1_555
C36 C37 1_555 1_555
C37 H38 1_555 1_555
C38 C37 1_555 1_555
H39 C38 1_555 1_555
C39 C38 1_555 1_555
C40 C39 1_555 1_555
H40 C40 1_555 1_555
C41 C36 1_555 1_555
H41 C41 1_555 1_555
C42 C43 1_555 1_555
C43 H42 1_555 1_555
C44 C43 1_555 1_555
H43 C44 1_555 1_555
C45 C44 1_555 1_555
C46 C45 1_555 1_555
H44 C46 1_555 1_555
C47 C42 1_555 1_555
H45 C47 1_555 1_555
C48 H46 1_555 1_555
H47 C48 1_555 1_555
C49 C48 1_555 1_555
H48 C49 1_555 1_555
H49 C49 1_555 1_555
H50 C49 1_555 1_555
C50 C51 1_555 1_555
C51 H51 1_555 1_555
C52 C51 1_555 1_555
H52 C52 1_555 1_555
C53 C52 1_555 1_555
C54 C53 1_555 1_555
H53 C54 1_555 1_555
C55 C50 1_555 1_555
H54 C55 1_555 1_555
C56 C53 1_555 1_555
H55 C56 1_555 1_555
C57 C56 1_555 1_555
C58 C57 1_555 1_555
C59 C57 1_555 1_555
C60 C59 1_555 1_555
H56 C60 1_555 1_555
C61 C60 1_555 1_555
H57 C61 1_555 1_555
C62 C61 1_555 1_555
C63 C62 1_555 1_555
H58 C63 1_555 1_555
C64 C59 1_555 1_555
H59 C64 1_555 1_555
N4 C39 1_555 1_555
N5 C58 1_555 1_555
N6 C62 1_555 1_555
O7 N6 1_555 1_555
O8 N6 1_555 1_555
O9 C45 1_555 1_555
O10 C35 1_555 1_555
C5 C6 1_555 1_555
C14 C15 1_555 1_555
C16 N2 1_555 1_555
C20 C21 1_555 1_555
C22 O3 1_555 1_555
C24 N2 1_555 1_555
C28 C29 1_555 1_555
C30 O4 1_555 1_555
C36 O10 1_555 1_555
C40 C41 1_555 1_555
C42 N4 1_555 1_555
C46 C47 1_555 1_555
C48 O9 1_555 1_555
C50 N4 1_555 1_555
C54 C55 1_555 1_555
C63 C64 1_555 1_555

#END
