
#######################################################################
#
#                 Cambridge Crystallographic Data Centre
#                                CCDC 
#
#######################################################################
#
# If this CIF has been generated from an entry in the Cambridge 
# Structural Database, then it will include bibliographic, chemical, 
# crystal, experimental, refinement or atomic coordinate data resulting 
# from the CCDC's data processing and validation procedures.
#
#######################################################################

data_NOMQOX
_chemical_formula_moiety         'C17 H14 N2 O1 S1'
_chemical_name_systematic        
N-methyl-N-(4-phenyl-1,3-thiazol-2-yl)benzamide
_symmetry_cell_setting           triclinic
_symmetry_space_group_name_H-M   'P -1'
_symmetry_Int_Tables_number      2
_space_group_name_Hall           '-P 1'
loop_
_symmetry_equiv_pos_site_id
_symmetry_equiv_pos_as_xyz
1 x,y,z
2 -x,-y,-z
_cell_length_a                   6.223(2)
_cell_length_b                   14.798(4)
_cell_length_c                   15.667(5)
_cell_angle_alpha                92.057(10)
_cell_angle_beta                 97.884(10)
_cell_angle_gamma                90.439(10)
_cell_volume                     1428.07
_cell_formula_units_Z            4
loop_
_atom_site_label
_atom_site_type_symbol
_atom_site_fract_x
_atom_site_fract_y
_atom_site_fract_z
S1 S -0.2370(3) 0.05621(11) 0.30252(10)
O1 O -0.2811(7) -0.1095(3) 0.3490(3)
N1 N 0.1501(8) 0.0965(3) 0.3769(3)
N2 N 0.0539(8) -0.0543(3) 0.3973(3)
C1 C 0.0059(9) 0.0310(4) 0.3648(4)
C2 C 0.0707(10) 0.1729(4) 0.3348(4)
C3 C -0.1385(11) 0.1605(4) 0.2914(3)
C4 C 0.2087(10) 0.2549(4) 0.3395(4)
C5 C 0.1318(12) 0.3359(4) 0.3071(4)
C6 C 0.2617(13) 0.4108(5) 0.3094(4)
C7 C 0.4783(14) 0.4083(5) 0.3473(5)
C8 C 0.5571(12) 0.3288(5) 0.3806(4)
C9 C 0.4265(10) 0.2519(4) 0.3776(4)
C10 C -0.0946(10) -0.1249(4) 0.3820(3)
C11 C -0.0296(9) -0.2186(4) 0.4020(3)
C12 C -0.1731(10) -0.2721(5) 0.4399(4)
C13 C -0.1347(11) -0.3627(5) 0.4516(4)
C14 C 0.0467(12) -0.4010(5) 0.4238(4)
C15 C 0.1883(11) -0.3486(4) 0.3853(4)
C16 C 0.1536(10) -0.2582(4) 0.3756(4)
C17 C 0.2666(9) -0.0616(4) 0.4513(4)
H1 H 0.0129 0.3395 0.2830
H2 H 0.2059 0.4639 0.2857
H3 H 0.5671 0.4594 0.3499
H4 H 0.7011 0.3263 0.4058
H5 H 0.4829 0.1987 0.4008
H6 H 0.2914 0.0094 0.4896
S2 S 0.7138(3) 0.57806(12) 0.20428(10)
O2 O 0.7855(7) 0.4122(3) 0.1539(3)
N3 N 0.3337(8) 0.6035(3) 0.1218(3)
N4 N 0.4446(8) 0.4541(3) 0.1039(3)
C18 C 0.4788(10) 0.5428(4) 0.1365(4)
C19 C 0.3991(10) 0.6849(4) 0.1646(4)
C20 C 0.6006(10) 0.6817(4) 0.2132(4)
C21 C 0.2566(10) 0.7635(4) 0.1570(3)
C22 C 0.3272(11) 0.8499(4) 0.1879(4)
C23 C 0.1921(13) 0.9220(5) 0.1818(4)
C24 C -0.0221(13) 0.9109(5) 0.1400(4)
C25 C -0.0959(11) 0.8264(5) 0.1091(4)
C26 C 0.0410(10) 0.7533(4) 0.1177(4)
C27 C 0.5995(11) 0.3894(4) 0.1199(4)
C28 C 0.5451(10) 0.2920(4) 0.1012(3)
C29 C 0.6934(10) 0.2380(5) 0.0643(4)
C30 C 0.6610(11) 0.1460(5) 0.0537(4)
C31 C 0.4834(11) 0.1053(5) 0.0805(4)
C32 C 0.3335(10) 0.1581(4) 0.1176(4)
C33 C 0.3628(10) 0.2505(4) 0.1266(4)
C34 C 0.2385(9) 0.4357(4) 0.0472(4)
H7 H 0.6664 0.7301 0.2467
H8 H 0.4703 0.8583 0.2133
H9 H 0.2412 0.9783 0.2051
H10 H 0.0106 0.6964 0.0971
H11 H 0.8152 0.2644 0.0467
H12 H 0.7600 0.1110 0.0282
H13 H 0.4635 0.0430 0.0739
H14 H 0.2139 0.1310 0.1363
H15 H 0.2603 0.2856 0.1498
H16 H 0.2448 0.3778 0.0182
H17 H 0.2153 0.4817 0.0054
H18 H 0.1213 0.4357 0.0812
H19? H 0.3083 0.3751 0.3657
H20? H 0.2524 0.2231 0.3513
H21? H 0.2151 0.2049 0.2599
H22? H 0.2298 0.3977 0.4778
H23? H 0.0735 0.4622 0.4311
H24? H 0.2677 0.1150 0.4843
H25? H 0.3789 0.0652 0.4150
H26? H 0.2963 0.2463 0.4576
H27? H 0.2380 0.8185 0.0823
H28? H 0.1133 0.9604 0.1333
loop_
_geom_bond_atom_site_label_1
_geom_bond_atom_site_label_2
_geom_bond_site_symmetry_1
_geom_bond_site_symmetry_2
S1 C1 1_555 1_555
O1 C10 1_555 1_555
N1 C1 1_555 1_555
N2 C1 1_555 1_555
C2 N1 1_555 1_555
C3 S1 1_555 1_555
C4 C2 1_555 1_555
C5 C4 1_555 1_555
C6 C5 1_555 1_555
C7 C6 1_555 1_555
C8 C7 1_555 1_555
C9 C4 1_555 1_555
C10 N2 1_555 1_555
C11 C10 1_555 1_555
C12 C11 1_555 1_555
C13 C12 1_555 1_555
C14 C13 1_555 1_555
C15 C14 1_555 1_555
C16 C11 1_555 1_555
C17 N2 1_555 1_555
H1 C5 1_555 1_555
H2 C6 1_555 1_555
H3 C7 1_555 1_555
H4 C8 1_555 1_555
H5 C9 1_555 1_555
H6 C17 1_555 1_555
S2 C18 1_555 1_555
O2 C27 1_555 1_555
N3 C18 1_555 1_555
N4 C18 1_555 1_555
C19 N3 1_555 1_555
C20 S2 1_555 1_555
C21 C19 1_555 1_555
C22 C21 1_555 1_555
C23 C22 1_555 1_555
C24 C23 1_555 1_555
C25 C24 1_555 1_555
C26 C21 1_555 1_555
C27 N4 1_555 1_555
C28 C27 1_555 1_555
C29 C28 1_555 1_555
C30 C29 1_555 1_555
C31 C30 1_555 1_555
C32 C31 1_555 1_555
C33 C28 1_555 1_555
C34 N4 1_555 1_555
H7 C20 1_555 1_555
H8 C22 1_555 1_555
H9 C23 1_555 1_555
H10 C26 1_555 1_555
H11 C29 1_555 1_555
H12 C30 1_555 1_555
H13 C31 1_555 1_555
H14 C32 1_555 1_555
H15 C33 1_555 1_555
H16 C34 1_555 1_555
H17 C34 1_555 1_555
H18 C34 1_555 1_555
C2 C3 1_555 1_555
C8 C9 1_555 1_555
C15 C16 1_555 1_555
C19 C20 1_555 1_555
C25 C26 1_555 1_555
C32 C33 1_555 1_555

#END
