
#######################################################################
#
#                 Cambridge Crystallographic Data Centre
#                                CCDC 
#
#######################################################################
#
# If this CIF has been generated from an entry in the Cambridge 
# Structural Database, then it will include bibliographic, chemical, 
# crystal, experimental, refinement or atomic coordinate data resulting 
# from the CCDC's data processing and validation procedures.
#
#######################################################################

data_NOMREO
_chemical_formula_moiety         'C26 H19 Cl4 N1 O3'
_chemical_name_systematic        
(S)-4-benzyl-2-phenyl-4-((R)-4,4,4-trichloro-1-(4-chlorophenyl)-3-oxobutyl)oxazol-5(4H)-one
_symmetry_cell_setting           triclinic
_symmetry_space_group_name_H-M   'P 1'
_symmetry_Int_Tables_number      1
_space_group_name_Hall           'P 1'
loop_
_symmetry_equiv_pos_site_id
_symmetry_equiv_pos_as_xyz
1 x,y,z
_cell_length_a                   5.9990(12)
_cell_length_b                   12.222(2)
_cell_length_c                   17.864(3)
_cell_angle_alpha                96.645(14)
_cell_angle_beta                 92.259(15)
_cell_angle_gamma                103.173(16)
_cell_volume                     1263.82
_exptl_crystal_colour            'light colorless'
_exptl_crystal_description       block
_cell_formula_units_Z            2
_exptl_crystal_recrystallization_method 'ethyl acetate/petroleum ether'
loop_
_atom_site_label
_atom_site_type_symbol
_atom_site_fract_x
_atom_site_fract_y
_atom_site_fract_z
Cl1 Cl 0.9430(8) 0.3217(4) 0.6825(3)
Cl2 Cl 0.6058(9) -0.1156(8) 0.4134(3)
Cl3 Cl 0.2354(17) -0.3083(6) 0.3816(3)
Cl4 Cl 0.1707(10) -0.0941(6) 0.3560(3)
O1 O 0.8183(13) -0.1916(7) 0.7458(4)
O2 O 0.7786(14) -0.2745(8) 0.6251(5)
O3 O 0.132(2) -0.0814(11) 0.5133(6)
N1 N 0.4535(14) -0.1752(8) 0.7667(5)
C1 C 0.988(2) -0.0686(12) 0.8861(8)
H1 H 1.0916 -0.0731 0.8490
C2 C 1.063(3) -0.0181(14) 0.9612(8)
H2 H 1.2187 0.0111 0.9737
C3 C 0.916(3) -0.0115(13) 1.0141(8)
H3 H 0.9697 0.0238 1.0625
C4 C 0.686(3) -0.0561(14) 0.9981(7)
H4 H 0.5858 -0.0524 1.0361
C5 C 0.602(3) -0.1061(14) 0.9270(8)
H5 H 0.4460 -0.1362 0.9163
C6 C 0.755(2) -0.1109(11) 0.8711(7)
C7 C 0.6612(19) -0.1595(10) 0.7941(7)
C8 C 0.6932(19) -0.2383(11) 0.6782(6)
C9 C 0.4482(18) -0.2292(10) 0.6881(6)
C10 C 0.361(2) -0.1565(11) 0.6347(7)
H6 H 0.2067 -0.1525 0.6489
C11 C 0.503(2) -0.0357(11) 0.6436(7)
C12 C 0.719(2) -0.0113(11) 0.6154(8)
H7 H 0.7758 -0.0685 0.5897
C13 C 0.849(2) 0.1007(14) 0.6262(8)
H8 H 0.9898 0.1185 0.6051
C14 C 0.772(2) 0.1832(12) 0.6668(8)
C15 C 0.556(3) 0.1598(12) 0.6921(9)
H9 H 0.4955 0.2179 0.7153
C16 C 0.429(2) 0.0509(10) 0.6830(7)
H10 H 0.2879 0.0347 0.7042
C17 C 0.293(2) -0.3497(12) 0.6844(8)
H11 H 0.1341 -0.3437 0.6849
H12 H 0.3098 -0.3927 0.6367
C18 C 0.340(2) -0.4150(11) 0.7477(8)
C19 C 0.512(2) -0.4736(12) 0.7433(8)
H13 H 0.5904 -0.4794 0.6997
C20 C 0.564(3) -0.5242(14) 0.8061(12)
H14 H 0.6844 -0.5609 0.8037
C21 C 0.454(3) -0.5229(13) 0.8683(10)
H15 H 0.4884 -0.5597 0.9085
C22 C 0.285(3) -0.4636(16) 0.8702(11)
H16 H 0.2071 -0.4585 0.9140
C23 C 0.224(3) -0.4112(13) 0.8110(9)
H17 H 0.1054 -0.3739 0.8145
C24 C 0.335(2) -0.2123(12) 0.5507(6)
H18 H 0.4830 -0.2226 0.5358
H19 H 0.2317 -0.2868 0.5471
C25 C 0.246(3) -0.1464(14) 0.4970(7)
C26 C 0.314(3) -0.1629(16) 0.4149(9)
Cl5 Cl -0.3036(8) -1.1155(3) 1.2051(2)
Cl6 Cl -0.2094(12) -0.6965(8) 1.4759(3)
Cl7 Cl -0.3448(16) -0.4924(6) 1.5103(3)
Cl8 Cl -0.6400(10) -0.6963(7) 1.5372(3)
O4 O -0.0022(13) -0.6167(7) 1.1425(4)
O5 O 0.0730(15) -0.5302(8) 1.2626(5)
O6 O -0.7286(19) -0.7149(12) 1.3754(6)
N2 N -0.3890(15) -0.6297(8) 1.1244(5)
C27 C 0.022(2) -0.6950(12) 0.9924(8)
H20 H 0.1538 -0.6556 1.0214
C28 C 0.030(2) -0.7453(15) 0.9172(8)
H21 H 0.1713 -0.7377 0.8959
C29 C -0.164(3) -0.8045(13) 0.8756(7)
H22 H -0.1548 -0.8382 0.8268
C30 C -0.371(3) -0.8141(14) 0.9061(8)
H23 H -0.5036 -0.8567 0.8786
C31 C -0.385(3) -0.7604(13) 0.9783(7)
H24 H -0.5275 -0.7611 0.9973
C32 C -0.192(2) -0.7076(11) 1.0203(7)
C33 C -0.210(2) -0.6498(10) 1.0980(7)
C34 C -0.064(2) -0.5678(10) 1.2097(6)
C35 C -0.3163(18) -0.5708(8) 1.2010(6)
C36 C -0.350(3) -0.4457(12) 1.2053(7)
H25 H -0.5129 -0.4479 1.1995
H26 H -0.2917 -0.4047 1.2545
C37 C -0.230(2) -0.3858(11) 1.1458(7)
C38 C 0.004(3) -0.3297(14) 1.1574(9)
H27 H 0.0793 -0.3267 1.2044
C39 C 0.125(3) -0.2791(15) 1.1011(13)
H28 H 0.2788 -0.2413 1.1103
C40 C 0.016(5) -0.2856(16) 1.0329(13)
H29 H 0.0962 -0.2534 0.9944
C41 C -0.213(5) -0.3391(16) 1.0191(10)
H30 H -0.2888 -0.3409 0.9724
C42 C -0.323(3) -0.3885(14) 1.0750(10)
H31 H -0.4751 -0.4277 1.0642
C43 C -0.456(2) -0.6413(11) 1.2582(7)
H32 H -0.6180 -0.6451 1.2454
C44 C -0.4261(18) -0.7632(9) 1.2459(6)
C45 C -0.226(2) -0.7884(11) 1.2772(7)
H33 H -0.1164 -0.7317 1.3061
C46 C -0.195(2) -0.8990(12) 1.2645(7)
H34 H -0.0643 -0.9155 1.2858
C47 C -0.354(2) -0.9831(10) 1.2212(6)
C48 C -0.548(2) -0.9581(11) 1.1903(7)
H35 H -0.6569 -1.0141 1.1602
C49 C -0.581(2) -0.8469(11) 1.2046(8)
H36 H -0.7140 -0.8313 1.1847
C50 C -0.404(2) -0.5846(11) 1.3388(6)
H37 H -0.4352 -0.5098 1.3422
H38 H -0.2422 -0.5754 1.3527
C51 C -0.544(3) -0.6515(15) 1.3944(8)
C52 C -0.442(3) -0.6374(17) 1.4769(8)
loop_
_geom_bond_atom_site_label_1
_geom_bond_atom_site_label_2
_geom_bond_site_symmetry_1
_geom_bond_site_symmetry_2
Cl1 C14 1_555 1_555
Cl2 C26 1_555 1_555
Cl3 C26 1_555 1_555
Cl4 C26 1_555 1_555
O1 C7 1_555 1_555
O2 C8 1_555 1_555
O3 C25 1_555 1_555
N1 C7 1_555 1_555
C1 H1 1_555 1_555
C2 C1 1_555 1_555
H2 C2 1_555 1_555
C3 C2 1_555 1_555
H3 C3 1_555 1_555
C4 C3 1_555 1_555
H4 C4 1_555 1_555
C5 C4 1_555 1_555
H5 C5 1_555 1_555
C6 C1 1_555 1_555
C7 C6 1_555 1_555
C8 O1 1_555 1_555
C9 N1 1_555 1_555
C10 C9 1_555 1_555
H6 C10 1_555 1_555
C11 C10 1_555 1_555
C12 C11 1_555 1_555
H7 C12 1_555 1_555
C13 C12 1_555 1_555
H8 C13 1_555 1_555
C14 C13 1_555 1_555
C15 C14 1_555 1_555
H9 C15 1_555 1_555
C16 C11 1_555 1_555
H10 C16 1_555 1_555
C17 C9 1_555 1_555
H11 C17 1_555 1_555
H12 C17 1_555 1_555
C18 C17 1_555 1_555
C19 C18 1_555 1_555
H13 C19 1_555 1_555
C20 C19 1_555 1_555
H14 C20 1_555 1_555
C21 C20 1_555 1_555
H15 C21 1_555 1_555
C22 C21 1_555 1_555
H16 C22 1_555 1_555
C23 C18 1_555 1_555
H17 C23 1_555 1_555
C24 C10 1_555 1_555
H18 C24 1_555 1_555
H19 C24 1_555 1_555
C25 C24 1_555 1_555
C26 C25 1_555 1_555
Cl5 C47 1_555 1_555
Cl6 C52 1_555 1_555
Cl7 C52 1_555 1_555
Cl8 C52 1_555 1_555
O4 C33 1_555 1_555
O5 C34 1_555 1_555
O6 C51 1_555 1_555
N2 C33 1_555 1_555
C27 H20 1_555 1_555
C28 C27 1_555 1_555
H21 C28 1_555 1_555
C29 C28 1_555 1_555
H22 C29 1_555 1_555
C30 C29 1_555 1_555
H23 C30 1_555 1_555
C31 C30 1_555 1_555
H24 C31 1_555 1_555
C32 C27 1_555 1_555
C33 C32 1_555 1_555
C34 O4 1_555 1_555
C35 N2 1_555 1_555
C36 C35 1_555 1_555
H25 C36 1_555 1_555
H26 C36 1_555 1_555
C37 C36 1_555 1_555
C38 C37 1_555 1_555
H27 C38 1_555 1_555
C39 C38 1_555 1_555
H28 C39 1_555 1_555
C40 C39 1_555 1_555
H29 C40 1_555 1_555
C41 C40 1_555 1_555
H30 C41 1_555 1_555
C42 C37 1_555 1_555
H31 C42 1_555 1_555
C43 C35 1_555 1_555
H32 C43 1_555 1_555
C44 C43 1_555 1_555
C45 C44 1_555 1_555
H33 C45 1_555 1_555
C46 C45 1_555 1_555
H34 C46 1_555 1_555
C47 C46 1_555 1_555
C48 C47 1_555 1_555
H35 C48 1_555 1_555
C49 C44 1_555 1_555
H36 C49 1_555 1_555
C50 C43 1_555 1_555
H37 C50 1_555 1_555
H38 C50 1_555 1_555
C51 C50 1_555 1_555
C52 C51 1_555 1_555
C5 C6 1_555 1_555
C8 C9 1_555 1_555
C15 C16 1_555 1_555
C22 C23 1_555 1_555
C31 C32 1_555 1_555
C34 C35 1_555 1_555
C41 C42 1_555 1_555
C48 C49 1_555 1_555

#END
