
#######################################################################
#
#                 Cambridge Crystallographic Data Centre
#                                CCDC 
#
#######################################################################
#
# If this CIF has been generated from an entry in the Cambridge 
# Structural Database, then it will include bibliographic, chemical, 
# crystal, experimental, refinement or atomic coordinate data resulting 
# from the CCDC's data processing and validation procedures.
#
#######################################################################

data_NOMSEP
_chemical_formula_moiety         'C24 H18 N2'
_chemical_name_systematic        
1-(4,6-diphenylpyridin-3-yl)-1-phenylmethanimine
_symmetry_cell_setting           monoclinic
_symmetry_space_group_name_H-M   'P 21'
_symmetry_Int_Tables_number      4
_space_group_name_Hall           'P 2yb'
loop_
_symmetry_equiv_pos_site_id
_symmetry_equiv_pos_as_xyz
1 x,y,z
2 -x,1/2+y,-z
_cell_length_a                   8.2612(3)
_cell_length_b                   18.2270(11)
_cell_length_c                   5.9331(2)
_cell_angle_alpha                90
_cell_angle_beta                 90.012(3)
_cell_angle_gamma                90
_cell_volume                     893.388
_exptl_crystal_colour            colorless
_exptl_crystal_description       prism
_cell_formula_units_Z            2
loop_
_atom_site_label
_atom_site_type_symbol
_atom_site_fract_x
_atom_site_fract_y
_atom_site_fract_z
N1 N 0.3234(4) -0.6570(2) 0.3023(6)
C1 C 0.1872(4) -0.6964(2) 0.2832(6)
C2 C 0.1888(5) -0.8643(3) -0.2177(8)
H1 H 0.1887 -0.9010 -0.3313
C3 C 0.3385(5) -0.4013(3) 0.8345(8)
H2 H 0.3638 -0.4186 0.9813
C4 C -0.3072(5) -0.6380(3) 0.9626(8)
H3 H -0.3519 -0.6726 1.0651
C5 C 0.3219(5) -0.6005(2) 0.4506(7)
H4 H 0.4172 -0.5717 0.4643
C6 C 0.1874(4) -0.7564(2) 0.1124(6)
C7 C 0.2053(4) -0.5218(2) 0.7551(7)
N2 N 0.1766(5) -0.5313(2) 0.9660(6)
C8 C -0.1706(5) -0.6560(3) 0.8397(7)
H5 H -0.1231 -0.7032 0.8563
C9 C 0.2237(5) -0.4216(3) 0.4662(7)
H6 H 0.1737 -0.4530 0.3589
C10 C 0.3800(5) -0.3306(3) 0.7734(9)
H7 H 0.4355 -0.2999 0.8774
C11 C 0.1877(4) -0.5816(2) 0.5862(6)
C12 C 0.2816(5) -0.8033(3) -0.2439(7)
H8 H 0.3471 -0.7981 -0.3746
C13 C -0.3141(5) -0.5200(3) 0.7895(9)
H9 H -0.3641 -0.4735 0.7702
C14 C 0.3409(5) -0.3040(3) 0.5598(9)
H10 H 0.3683 -0.2553 0.5179
C15 C 0.0923(5) -0.8192(3) 0.1374(8)
H11 H 0.0262 -0.8247 0.2675
C16 C 0.0478(4) -0.6811(2) 0.4081(7)
H12 H -0.0468 -0.7100 0.3878
C17 C -0.1757(5) -0.5375(3) 0.6686(9)
H13 H -0.1303 -0.5025 0.5684
C18 C -0.3788(5) -0.5701(3) 0.9371(9)
H14 H -0.4727 -0.5580 1.0217
C19 C 0.2815(5) -0.7485(3) -0.0808(7)
H15 H 0.3455 -0.7057 -0.1012
C20 C -0.1025(5) -0.6056(2) 0.6922(7)
C21 C 0.0473(4) -0.6235(2) 0.5618(7)
C22 C 0.0933(5) -0.8735(3) -0.0254(8)
H16 H 0.0298 -0.9165 -0.0067
C23 C 0.2591(5) -0.4477(3) 0.6813(7)
C24 C 0.2611(6) -0.3501(3) 0.4087(7)
H17 H 0.2320 -0.3320 0.2641
H18 H 0.161(8) -0.572(4) 0.983(10)
loop_
_geom_bond_atom_site_label_1
_geom_bond_atom_site_label_2
_geom_bond_site_symmetry_1
_geom_bond_site_symmetry_2
N1 C1 1_555 1_555
C1 C6 1_555 1_555
C2 H1 1_555 1_555
C3 H2 1_555 1_555
C4 H3 1_555 1_555
C5 N1 1_555 1_555
H4 C5 1_555 1_555
C6 C15 1_555 1_555
C7 N2 1_555 1_555
N2 H18 1_555 1_555
C8 C4 1_555 1_555
H5 C8 1_555 1_555
C9 H6 1_555 1_555
C10 C3 1_555 1_555
H7 C10 1_555 1_555
C11 C5 1_555 1_555
C12 C2 1_555 1_555
H8 C12 1_555 1_555
C13 H9 1_555 1_555
C14 C10 1_555 1_555
H10 C14 1_555 1_555
C15 H11 1_555 1_555
C16 C1 1_555 1_555
H12 C16 1_555 1_555
C17 C13 1_555 1_555
H13 C17 1_555 1_555
C18 C4 1_555 1_555
H14 C18 1_555 1_555
C19 C6 1_555 1_555
H15 C19 1_555 1_555
C20 C8 1_555 1_555
C21 C11 1_555 1_555
C22 C2 1_555 1_555
H16 C22 1_555 1_555
C23 C3 1_555 1_555
C24 C9 1_555 1_555
H17 C24 1_555 1_555
C7 C11 1_555 1_555
C7 C23 1_555 1_555
C9 C23 1_555 1_555
C12 C19 1_555 1_555
C13 C18 1_555 1_555
C14 C24 1_555 1_555
C15 C22 1_555 1_555
C16 C21 1_555 1_555
C17 C20 1_555 1_555
C20 C21 1_555 1_555

#END
