
#######################################################################
#
#                 Cambridge Crystallographic Data Centre
#                                CCDC 
#
#######################################################################
#
# If this CIF has been generated from an entry in the Cambridge 
# Structural Database, then it will include bibliographic, chemical, 
# crystal, experimental, refinement or atomic coordinate data resulting 
# from the CCDC's data processing and validation procedures.
#
#######################################################################

data_NONCUP
_chemical_formula_moiety         'C3 H10 N1 1+,C6 H20 B11 O1 1-'
_chemical_name_systematic        
'trimethylammonium 1,2-(4-methoxybutylene)-1-carba-closo-dodecaborane'
_symmetry_cell_setting           monoclinic
_symmetry_space_group_name_H-M   'P 21/c'
_symmetry_Int_Tables_number      14
_space_group_name_Hall           '-P 2ybc'
loop_
_symmetry_equiv_pos_site_id
_symmetry_equiv_pos_as_xyz
1 x,y,z
2 -x,1/2+y,1/2-z
3 -x,-y,-z
4 x,1/2-y,1/2+z
_cell_length_a                   7.924(3)
_cell_length_b                   23.339(9)
_cell_length_c                   9.662(4)
_cell_angle_alpha                90
_cell_angle_beta                 97.494(7)
_cell_angle_gamma                90
_cell_volume                     1771.61
_exptl_crystal_colour            colorless
_exptl_crystal_description       block
_cell_formula_units_Z            4
_exptl_crystal_recrystallization_method acetone
loop_
_atom_site_label
_atom_site_type_symbol
_atom_site_fract_x
_atom_site_fract_y
_atom_site_fract_z
O1 O 0.7968(3) 0.57565(10) 0.5230(2)
C1 C 0.6578(3) 0.60446(13) 0.1165(3)
C2 C 0.8054(4) 0.57098(15) 0.0687(3)
H1 H 0.7678 0.5544 -0.0221
H2 H 0.8972 0.5974 0.0579
C3 C 0.8739(5) 0.52345(16) 0.1678(4)
H3 H 0.9775 0.5084 0.1379
H4 H 0.7914 0.4926 0.1620
C4 C 0.9120(4) 0.54277(17) 0.3189(3)
H5 H 0.9802 0.5774 0.3237
H6 H 0.9772 0.5134 0.3730
C5 C 0.7480(4) 0.55428(13) 0.3815(3)
H7 H 0.6891 0.5176 0.3880
C6 C 0.6719(5) 0.56577(18) 0.6132(4)
H8 H 0.7114 0.5808 0.7042
H9 H 0.6522 0.5253 0.6199
H10 H 0.5678 0.5845 0.5765
B1 B 0.6219(4) 0.59674(14) 0.2874(3)
B2 B 0.7034(5) 0.66149(15) 0.2269(4)
H20 H 0.8333 0.6759 0.2651
B3 B 0.6152(5) 0.67224(17) 0.0515(4)
H21 H 0.6868 0.6934 -0.0243
B4 B 0.4768(4) 0.61451(17) 0.0021(4)
H22 H 0.4583 0.5982 -0.1057
B5 B 0.4802(4) 0.56789(16) 0.1474(4)
H23 H 0.4634 0.5214 0.1339
B6 B 0.5400(5) 0.66353(16) 0.3337(4)
H24 H 0.5606 0.6795 0.4417
B7 B 0.5370(6) 0.71061(17) 0.1875(4)
H25 H 0.5561 0.7571 0.2009
B8 B 0.3938(5) 0.68136(19) 0.0472(4)
H26 H 0.3192 0.7089 -0.0305
B9 B 0.3109(5) 0.61652(19) 0.1063(4)
H27 H 0.1817 0.6018 0.0664
B10 B 0.4006(4) 0.60539(17) 0.2833(4)
H28 H 0.3301 0.5835 0.3588
B11 B 0.3467(5) 0.67572(19) 0.2214(4)
H29 H 0.2407 0.6997 0.2568
N1 N 0.9815(4) 0.33810(13) 1.3782(3)
C7 C 0.8065(7) 0.3552(3) 1.3831(9)
H11 H 0.7857 0.3914 1.3365
H12 H 0.7867 0.3589 1.4786
H13 H 0.7313 0.3268 1.3374
C8 C 1.0165(9) 0.3328(3) 1.2357(5)
H14 H 0.9925 0.3685 1.1879
H15 H 0.9462 0.3032 1.1895
H16 H 1.1342 0.3231 1.2351
C9 C 1.0177(9) 0.2839(2) 1.4490(7)
H17 H 0.9954 0.2871 1.5440
H18 H 1.1351 0.2740 1.4474
H19 H 0.9465 0.2546 1.4025
H30 H 1.048(5) 0.3681(17) 1.423(4)
loop_
_geom_bond_atom_site_label_1
_geom_bond_atom_site_label_2
_geom_bond_site_symmetry_1
_geom_bond_site_symmetry_2
O1 C5 1_555 1_555
N1 C7 1_555 1_555
C1 C2 1_555 1_555
C2 H1 1_555 1_555
H2 C2 1_555 1_555
C3 C2 1_555 1_555
H3 C3 1_555 1_555
H4 C3 1_555 1_555
C4 C3 1_555 1_555
H5 C4 1_555 1_555
H6 C4 1_555 1_555
C5 C4 1_555 1_555
H7 C5 1_555 1_555
C6 O1 1_555 1_555
H8 C6 1_555 1_555
H9 C6 1_555 1_555
H10 C6 1_555 1_555
C7 H11 1_555 1_555
H12 C7 1_555 1_555
H13 C7 1_555 1_555
C8 N1 1_555 1_555
H14 C8 1_555 1_555
H15 C8 1_555 1_555
H16 C8 1_555 1_555
C9 N1 1_555 1_555
H17 C9 1_555 1_555
H18 C9 1_555 1_555
H19 C9 1_555 1_555
B1 C1 1_555 1_555
B2 C1 1_555 1_555
H20 B2 1_555 1_555
B3 C1 1_555 1_555
H21 B3 1_555 1_555
B4 C1 1_555 1_555
H22 B4 1_555 1_555
B5 C1 1_555 1_555
H23 B5 1_555 1_555
B6 B1 1_555 1_555
H24 B6 1_555 1_555
B7 B2 1_555 1_555
H25 B7 1_555 1_555
B8 B3 1_555 1_555
H26 B8 1_555 1_555
B9 B4 1_555 1_555
H27 B9 1_555 1_555
B10 B1 1_555 1_555
H28 B10 1_555 1_555
B11 B6 1_555 1_555
H29 B11 1_555 1_555
H30 N1 1_555 1_555
C5 B1 1_555 1_555
B1 B2 1_555 1_555
B1 B5 1_555 1_555
B2 B3 1_555 1_555
B2 B6 1_555 1_555
B3 B4 1_555 1_555
B3 B7 1_555 1_555
B4 B5 1_555 1_555
B4 B8 1_555 1_555
B5 B9 1_555 1_555
B5 B10 1_555 1_555
B6 B7 1_555 1_555
B6 B10 1_555 1_555
B7 B8 1_555 1_555
B7 B11 1_555 1_555
B8 B9 1_555 1_555
B8 B11 1_555 1_555
B9 B10 1_555 1_555
B9 B11 1_555 1_555
B10 B11 1_555 1_555

#END
