
#######################################################################
#
#                 Cambridge Crystallographic Data Centre
#                                CCDC 
#
#######################################################################
#
# If this CIF has been generated from an entry in the Cambridge 
# Structural Database, then it will include bibliographic, chemical, 
# crystal, experimental, refinement or atomic coordinate data resulting 
# from the CCDC's data processing and validation procedures.
#
#######################################################################

data_NOPGAB
_chemical_formula_moiety         'C18 H15 Cl2 F1 N2 O1'
_chemical_name_systematic        
1-Acetyl-3-(2,4-dichloro-5-fluorophenyl)-5-(p-methylphenyl)-2-pyrazoline
_symmetry_cell_setting           monoclinic
_symmetry_space_group_name_H-M   'P 21/c'
_symmetry_Int_Tables_number      14
_space_group_name_Hall           '-P 2ybc'
loop_
_symmetry_equiv_pos_site_id
_symmetry_equiv_pos_as_xyz
1 x,y,z
2 -x,1/2+y,1/2-z
3 -x,-y,-z
4 x,1/2-y,1/2+z
_cell_length_a                   8.3294(18)
_cell_length_b                   20.615(4)
_cell_length_c                   9.971(2)
_cell_angle_alpha                90
_cell_angle_beta                 99.424(4)
_cell_angle_gamma                90
_cell_volume                     1689.02
_chemical_melting_point          '123.2-123.9 deg.C'
_cell_formula_units_Z            4
_exptl_crystal_recrystallization_method 'ethyl acetate'
loop_
_atom_site_label
_atom_site_type_symbol
_atom_site_fract_x
_atom_site_fract_y
_atom_site_fract_z
Cl1 Cl 0.10299(12) 0.34629(4) 0.48864(11)
Cl2 Cl 0.48996(12) 0.50851(4) 0.80987(9)
F1 F 0.0646(3) 0.45443(8) 0.3005(2)
O1 O 0.6767(3) 0.78746(11) 0.6956(2)
N1 N 0.4992(3) 0.63264(11) 0.6679(3)
N2 N 0.5296(3) 0.69791(12) 0.6455(3)
C1 C 0.2309(4) 0.52845(14) 0.4365(3)
H1 H 0.2063 0.5593 0.3682
C2 C 0.1645(4) 0.46811(16) 0.4177(4)
C3 C 0.1946(4) 0.42152(14) 0.5158(4)
C4 C 0.2973(4) 0.43586(15) 0.6341(4)
H2 H 0.3211 0.4041 0.7007
C5 C 0.3659(4) 0.49661(15) 0.6559(3)
C6 C 0.3348(3) 0.54497(14) 0.5557(3)
C7 C 0.3987(4) 0.61143(14) 0.5657(3)
C8 C 0.3531(4) 0.66150(12) 0.4554(3)
H3 H 0.2359 0.6661 0.4327
H4 H 0.3964 0.6501 0.3739
C9 C 0.4320(4) 0.72390(14) 0.5199(3)
H5 H 0.5053 0.7417 0.4616
C10 C 0.6541(4) 0.73035(17) 0.7229(3)
C11 C 0.7564(4) 0.69370(15) 0.8341(3)
H6 H 0.7938 0.6543 0.7983
H7 H 0.6931 0.6835 0.9036
H8 H 0.8483 0.7197 0.8722
C12 C 0.3126(4) 0.77546(13) 0.5454(3)
C13 C 0.3064(4) 0.83447(14) 0.4790(3)
H9 H 0.3826 0.8440 0.4234
C14 C 0.1875(4) 0.87961(15) 0.4945(4)
H10 H 0.1856 0.9190 0.4490
C15 C 0.0720(4) 0.86756(15) 0.5758(4)
C16 C 0.0808(4) 0.80919(15) 0.6439(3)
H11 H 0.0053 0.8001 0.7005
C17 C 0.1987(4) 0.76401(15) 0.6302(3)
H12 H 0.2022 0.7253 0.6784
C18 C -0.0614(4) 0.91605(15) 0.5887(4)
H13 H -0.0241 0.9457 0.6613
H14 H -0.1559 0.8935 0.6078
H15 H -0.0886 0.9396 0.5050
loop_
_geom_bond_atom_site_label_1
_geom_bond_atom_site_label_2
_geom_bond_site_symmetry_1
_geom_bond_site_symmetry_2
Cl1 C3 1_555 1_555
Cl2 C5 1_555 1_555
F1 C2 1_555 1_555
O1 C10 1_555 1_555
N1 N2 1_555 1_555
N2 C9 1_555 1_555
C1 H1 1_555 1_555
C2 C1 1_555 1_555
C3 C2 1_555 1_555
C4 C3 1_555 1_555
H2 C4 1_555 1_555
C5 C4 1_555 1_555
C6 C1 1_555 1_555
C7 N1 1_555 1_555
C8 C7 1_555 1_555
H3 C8 1_555 1_555
H4 C8 1_555 1_555
C9 C8 1_555 1_555
H5 C9 1_555 1_555
C10 N2 1_555 1_555
C11 C10 1_555 1_555
H6 C11 1_555 1_555
H7 C11 1_555 1_555
H8 C11 1_555 1_555
C12 C9 1_555 1_555
C13 C12 1_555 1_555
H9 C13 1_555 1_555
C14 C13 1_555 1_555
H10 C14 1_555 1_555
C15 C14 1_555 1_555
C16 C15 1_555 1_555
H11 C16 1_555 1_555
C17 C12 1_555 1_555
H12 C17 1_555 1_555
C18 C15 1_555 1_555
H13 C18 1_555 1_555
H14 C18 1_555 1_555
H15 C18 1_555 1_555
C5 C6 1_555 1_555
C6 C7 1_555 1_555
C16 C17 1_555 1_555

#END
