
#######################################################################
#
#                 Cambridge Crystallographic Data Centre
#                                CCDC 
#
#######################################################################
#
# If this CIF has been generated from an entry in the Cambridge 
# Structural Database, then it will include bibliographic, chemical, 
# crystal, experimental, refinement or atomic coordinate data resulting 
# from the CCDC's data processing and validation procedures.
#
#######################################################################

data_NOPSIU
_chemical_name_common            "N,N',N'',P-Tetramethylazaphosphatrane iodide"
_chemical_formula_moiety         'C10 H24 N4 P1 1+,I1 1-'
_chemical_name_systematic        
"(tris(Methylaminoethyl)amino-N,N',N'')-methylphosphonium iodide"
_symmetry_cell_setting           trigonal
_symmetry_space_group_name_H-M   'P 3 1 c'
_symmetry_Int_Tables_number      159
_space_group_name_Hall           "P 3 -2'c"
loop_
_symmetry_equiv_pos_site_id
_symmetry_equiv_pos_as_xyz
1 x,y,z
2 -y,x-y,z
3 y,x,1/2+z
4 -x+y,-x,z
5 -x,-x+y,1/2+z
6 x-y,-y,1/2+z
_cell_length_a                   8.107
_cell_length_b                   8.107
_cell_length_c                   13.1193(8)
_cell_angle_alpha                90
_cell_angle_beta                 90
_cell_angle_gamma                120
_cell_volume                     746.727
_exptl_crystal_colour            'light yellow'
_exptl_crystal_description       irregular
_cell_formula_units_Z            2
loop_
_atom_site_label
_atom_site_type_symbol
_atom_site_fract_x
_atom_site_fract_y
_atom_site_fract_z
I1 I 1.0000 0.0000 0.4640
P1 P 0.6667 0.3333 0.2301(2)
N1 N 0.6667 0.3333 0.0188(6)
C1 C 0.6667 0.3333 0.3681(7)
N2 N 0.5837(5) 0.1114(5) 0.1969(3)
C2 C 0.4646(7) 0.0366(6) 0.1049(4)
C3 C 0.5742(7) 0.1296(7) 0.0108(3)
C4 C 0.675(1) 0.0056(6) 0.2325(4)
H1 H 0.5410 0.2538 0.3957
H2 H 0.7464 0.2860 0.3955
H3 H 0.7142 0.4592 0.3957
H4 H 0.4156 -0.0990 0.1034
H5 H 0.3591 0.0572 0.1117
H6 H 0.4909 0.0877 -0.0505
H7 H 0.6703 0.0938 -0.0048
H8 H 0.5801 -0.1222 0.2495
H9 H 0.7546 0.0017 0.1806
H10 H 0.7490 0.0653 0.2915
C3A C 0.8704(7) 0.4446(10) 0.0108(3)
C2A C 0.9634(6) 0.4280(9) 0.1049(4)
N2A N 0.8886(5) 0.4723(7) 0.1969(3)
N2C N 0.5277(7) 0.4163(5) 0.1969(3)
C2C C 0.5720(9) 0.5354(7) 0.1049(4)
C3C C 0.5554(10) 0.4258(7) 0.0108(3)
H6C H 0.5968 0.5091 -0.0505
H7C H 0.4235 0.3297 -0.0048
H4C H 0.4854 0.5844 0.1034
H5C H 0.6981 0.6409 0.1117
C4C C 0.3306(12) 0.325(1) 0.2325(4)
H8C H 0.2977 0.4199 0.2495
H9C H 0.2471 0.2454 0.1806
H10C H 0.3163 0.2510 0.2915
C4A C 0.9944(6) 0.6694(12) 0.2325(4)
H8A H 1.1222 0.7023 0.2495
H9A H 0.9983 0.7529 0.1806
H10A H 0.9347 0.6837 0.2915
H4A H 1.0990 0.5146 0.1034
H5A H 0.9428 0.3019 0.1117
H6A H 0.9123 0.4032 -0.0505
H7A H 0.9062 0.5765 -0.0048
loop_
_geom_bond_atom_site_label_1
_geom_bond_atom_site_label_2
_geom_bond_site_symmetry_1
_geom_bond_site_symmetry_2
P1 C1 1_555 1_555
N1 C3 1_555 1_555
C1 H1 1_555 1_555
N2 P1 1_555 1_555
C2 N2 1_555 1_555
C3 C2 1_555 1_555
C4 N2 1_555 1_555
H2 C1 1_555 1_555
H3 C1 1_555 1_555
H4 C2 1_555 1_555
H5 C2 1_555 1_555
H6 C3 1_555 1_555
H7 C3 1_555 1_555
H8 C4 1_555 1_555
H9 C4 1_555 1_555
H10 C4 1_555 1_555
C3A N1 1_555 1_555
C2A C3A 1_555 1_555
N2A P1 1_555 1_555
N2C P1 1_555 1_555
C2C N2C 1_555 1_555
C3C N1 1_555 1_555
H6C C3C 1_555 1_555
H7C C3C 1_555 1_555
H4C C2C 1_555 1_555
H5C C2C 1_555 1_555
C4C N2C 1_555 1_555
H8C C4C 1_555 1_555
H9C C4C 1_555 1_555
H10C C4C 1_555 1_555
C4A N2A 1_555 1_555
H8A C4A 1_555 1_555
H9A C4A 1_555 1_555
H10A C4A 1_555 1_555
H4A C2A 1_555 1_555
H5A C2A 1_555 1_555
H6A C3A 1_555 1_555
H7A C3A 1_555 1_555
C2A N2A 1_555 1_555
C2C C3C 1_555 1_555

#END
