
#######################################################################
#
#                 Cambridge Crystallographic Data Centre
#                                CCDC 
#
#######################################################################
#
# If this CIF has been generated from an entry in the Cambridge 
# Structural Database, then it will include bibliographic, chemical, 
# crystal, experimental, refinement or atomic coordinate data resulting 
# from the CCDC's data processing and validation procedures.
#
#######################################################################

data_NOPYIC
_chemical_formula_moiety         'C28 H28 N3 O3 1+,C1 F3 O3 S1 1-'
_chemical_name_systematic        
'2-((Dimethylamino)methylene)-N,N-dimethyl-5-(2-nitrophenyl)-5-oxo-1,3-diphenylpent-3-en-1-iminium trifluoromethanesulfonate'
_symmetry_cell_setting           monoclinic
_symmetry_space_group_name_H-M   'P 21/c'
_symmetry_Int_Tables_number      14
_space_group_name_Hall           '-P 2ybc'
loop_
_symmetry_equiv_pos_site_id
_symmetry_equiv_pos_as_xyz
1 x,y,z
2 -x,1/2+y,1/2-z
3 -x,-y,-z
4 x,1/2-y,1/2+z
_cell_length_a                   10.6562(3)
_cell_length_b                   25.0568(6)
_cell_length_c                   11.0883(2)
_cell_angle_alpha                90
_cell_angle_beta                 96.960(1)
_cell_angle_gamma                90
_cell_volume                     2938.87
_exptl_crystal_colour            red
_exptl_crystal_description       plate
_cell_formula_units_Z            4
loop_
_atom_site_label
_atom_site_type_symbol
_atom_site_fract_x
_atom_site_fract_y
_atom_site_fract_z
S1 S 0.23651(12) 0.15008(6) 1.42622(10)
F1 F 0.3285(4) 0.1410(2) 1.2209(4)
C1 C 0.2206(4) 0.14126(17) 1.2644(4)
F2 F 0.1612(5) 0.1812(2) 1.2074(3)
O1 O 0.3157(7) 0.10971(18) 1.4735(4)
O2 O 0.2935(7) 0.20229(19) 1.4453(5)
F3 F 0.1668(7) 0.0992(2) 1.2269(4)
O3 O 0.1174(5) 0.1515(5) 1.4520(5)
O4 O 0.6084(2) 0.17303(9) 0.9571(2)
C2 C 0.5015(3) 0.09057(12) 0.9719(3)
H1 H 0.5107 0.0577 1.0109
N1 N 0.5221(3) 0.19524(10) 0.6747(3)
O5 O 0.8748(3) 0.14775(15) 0.9926(3)
C3 C 0.5899(3) 0.10420(12) 0.7061(3)
C4 C 0.2861(3) 0.16801(12) 0.7525(3)
H2 H 0.2832 0.1836 0.6762
C5 C 0.5018(2) 0.14826(11) 0.7249(3)
N2 N 0.1865(2) 0.17555(11) 0.8079(3)
C6 C 0.6667(3) 0.12514(13) 1.1373(3)
C7 C 0.4036(2) 0.09616(11) 0.8815(3)
C8 C 0.3968(2) 0.13970(11) 0.7917(3)
C9 C 0.6178(3) 0.09819(17) 1.2295(3)
H3 H 0.5413 0.0803 1.2127
C10 C 0.7808(3) 0.15161(15) 1.1688(3)
C11 C 0.2998(3) 0.05621(11) 0.8686(3)
C12 C 0.5929(2) 0.13210(12) 1.0123(3)
C13 C 0.7186(3) 0.11159(14) 0.7357(3)
H4 H 0.7488 0.1440 0.7680
C14 C 0.5450(3) 0.05545(12) 0.6577(3)
H5 H 0.4585 0.0500 0.6383
C15 C 0.2293(3) 0.04617(14) 0.7565(3)
H6 H 0.2476 0.0645 0.6878
O6 O 0.8757(3) 0.22371(15) 1.0890(4)
C16 C 0.0717(3) 0.19818(19) 0.7411(4)
H7 H 0.0881 0.2080 0.6607
H8 H 0.0467 0.2292 0.7829
H9 H 0.0051 0.1722 0.7358
C17 C 0.1796(4) 0.16527(17) 0.9355(4)
H10 H 0.1277 0.1345 0.9437
H11 H 0.1434 0.1956 0.9713
H12 H 0.2630 0.1589 0.9761
C18 C 0.2690(3) 0.02742(14) 0.9696(4)
H13 H 0.3151 0.0332 1.0452
C19 C 0.6293(4) 0.01512(14) 0.6384(4)
H14 H 0.5994 -0.0174 0.6062
C20 C 0.8032(3) 0.07105(17) 0.7175(4)
H15 H 0.8894 0.0760 0.7392
N3 N 0.8471(3) 0.17671(15) 1.0743(3)
C21 C 0.1026(3) -0.01837(16) 0.8472(5)
H16 H 0.0366 -0.0429 0.8401
C22 C 0.5973(4) 0.20209(18) 0.5744(4)
H17 H 0.6781 0.2169 0.6045
H18 H 0.5542 0.2258 0.5152
H19 H 0.6090 0.1681 0.5374
C23 C 0.4778(4) 0.24687(14) 0.7171(4)
H20 H 0.4135 0.2610 0.6575
H21 H 0.5474 0.2714 0.7289
H22 H 0.4436 0.2419 0.7925
C24 C 0.1311(3) 0.00854(16) 0.7467(4)
H23 H 0.0851 0.0019 0.6715
C25 C 0.1712(3) -0.00940(16) 0.9587(5)
H24 H 0.1519 -0.0280 1.0267
C26 C 0.7584(4) 0.02321(16) 0.6672(4)
H25 H 0.8149 -0.0036 0.6525
C27 C 0.8422(4) 0.1519(2) 1.2850(4)
H26 H 0.9172 0.1707 1.3034
C28 C 0.6802(4) 0.0972(2) 1.3465(3)
H27 H 0.6459 0.0781 1.4067
C29 C 0.7908(4) 0.1237(2) 1.3739(4)
H28 H 0.8321 0.1229 1.4527
loop_
_geom_bond_atom_site_label_1
_geom_bond_atom_site_label_2
_geom_bond_site_symmetry_1
_geom_bond_site_symmetry_2
S1 C1 1_555 1_555
F1 C1 1_555 1_555
C1 F2 1_555 1_555
O1 S1 1_555 1_555
O2 S1 1_555 1_555
F3 C1 1_555 1_555
O3 S1 1_555 1_555
O4 C12 1_555 1_555
C2 H1 1_555 1_555
N1 C5 1_555 1_555
O5 N3 1_555 1_555
C3 C5 1_555 1_555
C4 H2 1_555 1_555
C5 C8 1_555 1_555
N2 C4 1_555 1_555
C6 C9 1_555 1_555
C7 C2 1_555 1_555
C8 C4 1_555 1_555
C9 H3 1_555 1_555
C10 C6 1_555 1_555
C11 C7 1_555 1_555
C12 C2 1_555 1_555
C13 C3 1_555 1_555
H4 C13 1_555 1_555
C14 C3 1_555 1_555
H5 C14 1_555 1_555
C15 C11 1_555 1_555
H6 C15 1_555 1_555
O6 N3 1_555 1_555
C16 N2 1_555 1_555
H7 C16 1_555 1_555
H8 C16 1_555 1_555
H9 C16 1_555 1_555
C17 N2 1_555 1_555
H10 C17 1_555 1_555
H11 C17 1_555 1_555
H12 C17 1_555 1_555
C18 C11 1_555 1_555
H13 C18 1_555 1_555
C19 C14 1_555 1_555
H14 C19 1_555 1_555
C20 C13 1_555 1_555
H15 C20 1_555 1_555
N3 C10 1_555 1_555
C21 H16 1_555 1_555
C22 N1 1_555 1_555
H17 C22 1_555 1_555
H18 C22 1_555 1_555
H19 C22 1_555 1_555
C23 N1 1_555 1_555
H20 C23 1_555 1_555
H21 C23 1_555 1_555
H22 C23 1_555 1_555
C24 C15 1_555 1_555
H23 C24 1_555 1_555
C25 C18 1_555 1_555
H24 C25 1_555 1_555
C26 C19 1_555 1_555
H25 C26 1_555 1_555
C27 C10 1_555 1_555
H26 C27 1_555 1_555
C28 C9 1_555 1_555
H27 C28 1_555 1_555
C29 C27 1_555 1_555
H28 C29 1_555 1_555
C6 C12 1_555 1_555
C7 C8 1_555 1_555
C20 C26 1_555 1_555
C21 C24 1_555 1_555
C21 C25 1_555 1_555
C28 C29 1_555 1_555

#END
