
#######################################################################
#
#                 Cambridge Crystallographic Data Centre
#                                CCDC 
#
#######################################################################
#
# If this CIF has been generated from an entry in the Cambridge 
# Structural Database, then it will include bibliographic, chemical, 
# crystal, experimental, refinement or atomic coordinate data resulting 
# from the CCDC's data processing and validation procedures.
#
#######################################################################

data_NOQCOM
_chemical_formula_moiety         'C14 H22 O3'
_chemical_name_systematic        
(3S,3aR,4R,7S,7aS)-3-acetyl-hexahydro-7-isopropyl-4-methylbenzofuran-2(3H)-one
_symmetry_cell_setting           orthorhombic
_symmetry_space_group_name_H-M   'P 21 21 21'
_symmetry_Int_Tables_number      19
_space_group_name_Hall           'P 2ac 2ab'
loop_
_symmetry_equiv_pos_site_id
_symmetry_equiv_pos_as_xyz
1 x,y,z
2 1/2+x,1/2-y,-z
3 -x,1/2+y,1/2-z
4 1/2-x,-y,1/2+z
_cell_length_a                   5.797(2)
_cell_length_b                   12.152(4)
_cell_length_c                   20.075(6)
_cell_angle_alpha                90
_cell_angle_beta                 90
_cell_angle_gamma                90
_cell_volume                     1414.19
_exptl_crystal_colour            colorless
_exptl_crystal_description       block
_cell_formula_units_Z            4
loop_
_atom_site_label
_atom_site_type_symbol
_atom_site_fract_x
_atom_site_fract_y
_atom_site_fract_z
O1 O 1.0711(8) 0.6525(3) 0.5672(2)
O2 O 1.1656(11) 0.8264(4) 0.5447(2)
O3 O 0.9058(9) 0.8939(4) 0.7012(2)
C1 C 0.8762(11) 0.5973(5) 0.5990(3)
C2 C 0.9397(11) 0.4892(5) 0.6322(3)
C3 C 0.7167(12) 0.4462(5) 0.6633(3)
C4 C 0.5945(12) 0.5313(5) 0.7083(3)
C5 C 0.5481(12) 0.6417(5) 0.6750(3)
C6 C 0.7827(11) 0.6804(5) 0.6472(3)
C7 C 0.8110(13) 0.7850(5) 0.6066(3)
C8 C 1.0313(13) 0.7613(5) 0.5684(3)
C9 C 1.0567(12) 0.4051(5) 0.5848(3)
C10 C 0.906(1) 0.3726(7) 0.5247(3)
C11 C 1.131(2) 0.3031(6) 0.6231(4)
C12 C 0.4364(13) 0.7240(6) 0.7204(3)
C13 C 0.835(1) 0.8935(5) 0.6453(3)
C14 C 0.762(3) 0.9948(6) 0.6103(4)
H1 H 0.7626 0.5827 0.5660
H2 H 1.0428 0.5053 0.6677
H3 H 0.7481 0.3811 0.6879
H4 H 0.6137 0.4297 0.6279
H5 H 0.6907 0.5434 0.7459
H6 H 0.4508 0.5020 0.7226
H7 H 0.4484 0.6291 0.6382
H8 H 0.8866 0.6852 0.6836
H9 H 0.6867 0.7909 0.5760
H10 H 1.1919 0.4388 0.5675
H11 H 0.9285 0.4224 0.4888
H12 H 0.9437 0.3001 0.5107
H13 H 0.7496 0.3750 0.5386
H14 H 1.0087 0.2512 0.6214
H15 H 1.2652 0.2721 0.6035
H16 H 1.1624 0.3216 0.6682
H17 H 0.5505 0.7648 0.7438
H18 H 0.3421 0.7729 0.6955
H19 H 0.3438 0.6847 0.7514
H20 H 0.8880 1.0266 0.5869
H21 H 0.6447 0.9747 0.5795
H22 H 0.7020 1.0466 0.6412
loop_
_geom_bond_atom_site_label_1
_geom_bond_atom_site_label_2
_geom_bond_site_symmetry_1
_geom_bond_site_symmetry_2
O1 C1 1_555 1_555
O2 C8 1_555 1_555
O3 C13 1_555 1_555
C1 C2 1_555 1_555
C2 C3 1_555 1_555
C3 C4 1_555 1_555
C4 C5 1_555 1_555
C5 C6 1_555 1_555
C6 C1 1_555 1_555
C7 C6 1_555 1_555
C8 O1 1_555 1_555
C9 C2 1_555 1_555
C10 C9 1_555 1_555
C11 C9 1_555 1_555
C12 C5 1_555 1_555
C13 C7 1_555 1_555
C14 C13 1_555 1_555
H1 C1 1_555 1_555
H2 C2 1_555 1_555
H3 C3 1_555 1_555
H4 C3 1_555 1_555
H5 C4 1_555 1_555
H6 C4 1_555 1_555
H7 C5 1_555 1_555
H8 C6 1_555 1_555
H9 C7 1_555 1_555
H10 C9 1_555 1_555
H11 C10 1_555 1_555
H12 C10 1_555 1_555
H13 C10 1_555 1_555
H14 C11 1_555 1_555
H15 C11 1_555 1_555
H16 C11 1_555 1_555
H17 C12 1_555 1_555
H18 C12 1_555 1_555
H19 C12 1_555 1_555
H20 C14 1_555 1_555
H21 C14 1_555 1_555
H22 C14 1_555 1_555
C7 C8 1_555 1_555

#END
