
#######################################################################
#
#                 Cambridge Crystallographic Data Centre
#                                CCDC 
#
#######################################################################
#
# If this CIF has been generated from an entry in the Cambridge 
# Structural Database, then it will include bibliographic, chemical, 
# crystal, experimental, refinement or atomic coordinate data resulting 
# from the CCDC's data processing and validation procedures.
#
#######################################################################

data_NOQCUR
_chemical_formula_moiety         'C20 H14 N4'
_chemical_name_systematic        2,2':3',2'':6'',2'''-Quaterpyridine
_symmetry_cell_setting           orthorhombic
_symmetry_space_group_name_H-M   'P 21 21 21'
_symmetry_Int_Tables_number      19
_space_group_name_Hall           'P 2ac 2ab'
loop_
_symmetry_equiv_pos_site_id
_symmetry_equiv_pos_as_xyz
1 x,y,z
2 1/2-x,-y,1/2+z
3 1/2+x,1/2-y,-z
4 -x,1/2+y,1/2-z
_cell_length_a                   11.277(2)
_cell_length_b                   11.634(3)
_cell_length_c                   11.916(2)
_cell_angle_alpha                90
_cell_angle_beta                 90
_cell_angle_gamma                90
_cell_volume                     1563.34
_cell_formula_units_Z            4
_exptl_crystal_recrystallization_method 'diethyl ether'
loop_
_atom_site_label
_atom_site_type_symbol
_atom_site_fract_x
_atom_site_fract_y
_atom_site_fract_z
N1 N 0.9856(1) -1.4818(1) -1.6187(1)
C1 C 0.9192(1) -1.3905(1) -1.6482(1)
C2 C 0.9251(1) -1.3397(1) -1.7531(1)
C3 C 1.0000(1) -1.3864(1) -1.8334(1)
C4 C 1.0679(1) -1.4803(1) -1.8048(1)
C5 C 1.0584(1) -1.5236(1) -1.6973(1)
N2 N 0.8378(1) -1.2282(1) -1.5512(1)
C6 C 0.8401(1) -1.3437(1) -1.5593(1)
C7 C 0.7760(1) -1.4154(1) -1.4870(1)
C8 C 0.7126(7) -1.3644(1) -1.3998(1)
C9 C 0.7122(1) -1.2458(1) -1.3901(1)
C10 C 0.7736(1) -1.1817(1) -1.4681(1)
N3 N 0.8119(1) -1.6094(1) -1.4222(1)
C11 C 0.8022(1) -1.7242(1) -1.4342(1)
C12 C 0.7441(1) -1.7747(1) -1.5244(1)
C13 C 0.6970(1) -1.7046(1) -1.6070(1)
C14 C 0.7105(1) -1.5870(1) -1.5977(1)
C15 C 0.7678(1) -1.5426(1) -1.5040(1)
N4 N 0.8592(1) -1.9092(1) -1.3606(1)
C16 C 0.8561(1) -1.7951(1) -1.3431(1)
C17 C 0.8986(1) -1.7447(1) -1.2453(1)
C18 C 0.9465(1) -1.8139(1) -1.1623(1)
C19 C 0.9505(1) -1.9311(1) -1.1792(1)
C20 C 0.9062(1) -1.9739(1) -1.2786(1)
H1 H 0.8785(1) -1.2739(1) -1.7699(1)
H2 H 1.0045(1) -1.3542(1) -1.9066(1)
H3 H 1.1200(1) -1.5144(1) -1.8578(1)
H4 H 1.1069(1) -1.5874(1) -1.6778(1)
H5 H 0.6707(1) -1.4105(1) -1.3475(1)
H6 H 0.6702(1) -1.2093(1) -1.3308(1)
H7 H 0.7703(1) -1.1003(1) -1.4627(1)
H8 H 0.7370(1) -1.8559(1) -1.5293(1)
H9 H 0.6559(1) -1.7370(1) -1.6691(1)
H10 H 0.6811(1) -1.5372(1) -1.6545(1)
H11 H 0.8948(1) -1.6637(1) -1.2355(1)
H12 H 0.9762(1) -1.7811(1) -1.0949(1)
H13 H 0.9829(1) -1.9809(1) -1.1240(1)
H14 H 0.9092(1) -2.0547(1) -1.2899(1)
loop_
_geom_bond_atom_site_label_1
_geom_bond_atom_site_label_2
_geom_bond_site_symmetry_1
_geom_bond_site_symmetry_2
N1 C1 1_555 1_555
C1 C2 1_555 1_555
C2 C3 1_555 1_555
C3 C4 1_555 1_555
C4 C5 1_555 1_555
C5 N1 1_555 1_555
N2 C6 1_555 1_555
C6 C1 1_555 1_555
C7 C6 1_555 1_555
C8 C7 1_555 1_555
C9 C8 1_555 1_555
C10 N2 1_555 1_555
N3 C11 1_555 1_555
C11 C12 1_555 1_555
C12 C13 1_555 1_555
C13 C14 1_555 1_555
C14 C15 1_555 1_555
C15 C7 1_555 1_555
N4 C16 1_555 1_555
C16 C11 1_555 1_555
C17 C16 1_555 1_555
C18 C17 1_555 1_555
C19 C18 1_555 1_555
C20 N4 1_555 1_555
H1 C2 1_555 1_555
H2 C3 1_555 1_555
H3 C4 1_555 1_555
H4 C5 1_555 1_555
H5 C8 1_555 1_555
H6 C9 1_555 1_555
H7 C10 1_555 1_555
H8 C12 1_555 1_555
H9 C13 1_555 1_555
H10 C14 1_555 1_555
H11 C17 1_555 1_555
H12 C18 1_555 1_555
H13 C19 1_555 1_555
H14 C20 1_555 1_555
C9 C10 1_555 1_555
N3 C15 1_555 1_555
C19 C20 1_555 1_555

#END
