
#######################################################################
#
#                 Cambridge Crystallographic Data Centre
#                                CCDC 
#
#######################################################################
#
# If this CIF has been generated from an entry in the Cambridge 
# Structural Database, then it will include bibliographic, chemical, 
# crystal, experimental, refinement or atomic coordinate data resulting 
# from the CCDC's data processing and validation procedures.
#
#######################################################################

data_NOQDED
_chemical_formula_moiety         'C37 H44 N1 O3 Si1 1+,Cl1 1-,H2 O1'
_chemical_name_systematic        
'(2R,3S,4S,5R)-N-Benzyl-3-benzyloxy-5-(t-butyl(diphenyl)silyloxymethyl)-2-methyl-1-azonia-7-oxabicyclo(2.2.1)heptane chloride monohydrate'
_symmetry_cell_setting           orthorhombic
_symmetry_space_group_name_H-M   'P 21 21 21'
_symmetry_Int_Tables_number      19
_space_group_name_Hall           'P 2ac 2ab'
loop_
_symmetry_equiv_pos_site_id
_symmetry_equiv_pos_as_xyz
1 x,y,z
2 1/2-x,-y,1/2+z
3 1/2+x,1/2-y,-z
4 -x,1/2+y,1/2-z
_cell_length_a                   9.347(4)
_cell_length_b                   11.431(10)
_cell_length_c                   32.31(2)
_cell_angle_alpha                90
_cell_angle_beta                 90
_cell_angle_gamma                90
_cell_volume                     3452.18
_chemical_melting_point          '138-142 deg.C'
_cell_formula_units_Z            4
_exptl_crystal_recrystallization_method dichloromethane
loop_
_atom_site_label
_atom_site_type_symbol
_atom_site_fract_x
_atom_site_fract_y
_atom_site_fract_z
C1 C 0.1409(17) 0.4705(15) 0.9646(5)
H1 H 0.1174 0.4914 0.9925
H2 H 0.1536 0.5402 0.9484
H3 H 0.2279 0.4258 0.9643
C2 C -0.6082(15) 0.0416(17) 0.8310(6)
H4 H -0.6785 0.0980 0.8351
Si1 Si -0.1631(4) 0.0419(3) 0.82767(13)
N1 N -0.1224(12) 0.4663(10) 0.9408(3)
O2 O -0.1165(10) 0.5133(7) 0.8999(3)
O3 O 0.1654(11) 0.4261(8) 0.8813(3)
O4 O -0.1485(10) 0.1657(7) 0.8533(3)
C3 C 0.0226(14) 0.3991(13) 0.9465(5)
H5 H 0.0071 0.3290 0.9634
C4 C -0.2685(17) 0.6456(14) 0.9614(5)
C5 C -0.2197(16) 0.3296(11) 0.8943(4)
H6 H -0.3033 0.3482 0.8773
C6 C -0.0942(15) 0.4004(12) 0.8794(5)
H7 H -0.0880 0.4060 0.8492
C7 C 0.0458(17) 0.3631(14) 0.9000(5)
H8 H 0.0597 0.2784 0.8975
C8 C -0.3518(16) -0.0063(11) 0.8268(5)
C9 C 0.1268(17) -0.1227(14) 0.9067(5)
H9 H 0.1776 -0.1026 0.9304
C10 C -0.0445(17) -0.0693(12) 0.8525(5)
C11 C -0.4067(17) 0.6251(16) 0.9748(5)
H10 H -0.4279 0.5596 0.9907
C12 C -0.1028(16) 0.0808(12) 0.7737(5)
C13 C 0.3892(15) 0.4233(12) 0.8450(4)
C14 C 0.2677(16) 0.3532(14) 0.8613(5)
H11 H 0.2220 0.3117 0.8387
H12 H 0.3035 0.2958 0.8808
C15 C 0.0381(16) -0.0399(15) 0.8877(5)
H13 H 0.0334 0.0355 0.8983
C16 C 0.6296(16) 0.5473(12) 0.8179(5)
H14 H 0.7094 0.5885 0.8088
C17 C -0.5384(17) -0.1536(13) 0.8172(5)
H15 H -0.5615 -0.2313 0.8118
C18 C -0.0946(18) -0.0268(15) 0.7448(4)
H16 H -0.0304 -0.0836 0.7564
H17 H -0.0602 -0.0030 0.7181
H18 H -0.1881 -0.0607 0.7420
C19 C -0.4619(17) 0.0733(14) 0.8327(6)
H19 H -0.4386 0.1510 0.8379
C20 C -0.6460(17) -0.0713(14) 0.8235(5)
H20 H -0.7418 -0.0931 0.8226
C21 C -0.0341(17) -0.1881(12) 0.8383(4)
H21 H -0.0889 -0.2118 0.8158
C22 C -0.1969(17) 0.1976(12) 0.8942(4)
H22 H -0.1259 0.1760 0.9147
H23 H -0.2857 0.1576 0.9007
C23 C 0.4497(18) 0.5132(12) 0.8702(5)
H24 H 0.4102 0.5315 0.8958
C24 C -0.2430(16) 0.3778(13) 0.9376(4)
H25 H -0.2341 0.3171 0.9585
H26 H -0.3358 0.4150 0.9402
C25 C 0.5694(17) 0.5725(14) 0.8556(5)
H27 H 0.6099 0.6310 0.8718
C26 C 0.4529(19) 0.3980(13) 0.8078(4)
H28 H 0.4163 0.3377 0.7916
C27 C 0.0556(18) -0.2682(14) 0.8574(5)
H29 H 0.0598 -0.3450 0.8480
C28 C -0.2095(17) 0.1713(14) 0.7549(5)
H30 H -0.2134 0.2393 0.7723
H31 H -0.3029 0.1369 0.7531
H32 H -0.1777 0.1935 0.7278
C29 C -0.3971(16) -0.1189(13) 0.8189(5)
H33 H -0.3274 -0.1755 0.8145
C30 C -0.3465(19) 0.8281(14) 0.9293(5)
H34 H -0.3224 0.8955 0.9148
C31 C 0.5712(17) 0.4606(14) 0.7936(4)
H35 H 0.6104 0.4439 0.7678
C32 C 0.1394(19) -0.2330(15) 0.8907(5)
H36 H 0.2047 -0.2850 0.9023
C33 C -0.1468(19) 0.5651(13) 0.9722(5)
H37 H -0.1652 0.5308 0.9991
H38 H -0.0598 0.6110 0.9743
C34 C -0.5143(17) 0.7052(18) 0.9640(5)
H39 H -0.6074 0.6894 0.9724
C35 C -0.2416(19) 0.7483(14) 0.9393(5)
H40 H -0.1483 0.7635 0.9309
C36 C -0.4895(19) 0.8088(18) 0.9408(5)
H41 H -0.5627 0.8603 0.9338
C37 C 0.0459(17) 0.1358(14) 0.7752(5)
H42 H 0.1121 0.0814 0.7872
H43 H 0.0428 0.2057 0.7916
H44 H 0.0761 0.1548 0.7476
O1 O 0.1266(17) 0.1294(11) 0.9647(4)
Cl1 Cl 0.4374(6) 0.2382(6) 0.96186(16)
loop_
_geom_bond_atom_site_label_1
_geom_bond_atom_site_label_2
_geom_bond_site_symmetry_1
_geom_bond_site_symmetry_2
C1 H1 1_555 1_555
H2 C1 1_555 1_555
H3 C1 1_555 1_555
C2 H4 1_555 1_555
Si1 O4 1_555 1_555
N1 O2 1_555 1_555
O2 C6 1_555 1_555
O3 C7 1_555 1_555
O4 C22 1_555 1_555
C3 C1 1_555 1_555
H5 C3 1_555 1_555
C4 C11 1_555 1_555
C5 H6 1_555 1_555
C6 C5 1_555 1_555
H7 C6 1_555 1_555
C7 C3 1_555 1_555
H8 C7 1_555 1_555
C8 Si1 1_555 1_555
C9 H9 1_555 1_555
C10 Si1 1_555 1_555
C11 H10 1_555 1_555
C12 Si1 1_555 1_555
C13 C14 1_555 1_555
C14 O3 1_555 1_555
H11 C14 1_555 1_555
H12 C14 1_555 1_555
C15 C9 1_555 1_555
H13 C15 1_555 1_555
C16 H14 1_555 1_555
C17 H15 1_555 1_555
C18 C12 1_555 1_555
H16 C18 1_555 1_555
H17 C18 1_555 1_555
H18 C18 1_555 1_555
C19 C2 1_555 1_555
H19 C19 1_555 1_555
C20 C2 1_555 1_555
H20 C20 1_555 1_555
C21 C10 1_555 1_555
H21 C21 1_555 1_555
C22 C5 1_555 1_555
H22 C22 1_555 1_555
H23 C22 1_555 1_555
C23 C13 1_555 1_555
H24 C23 1_555 1_555
C24 N1 1_555 1_555
H25 C24 1_555 1_555
H26 C24 1_555 1_555
C25 C16 1_555 1_555
H27 C25 1_555 1_555
C26 C13 1_555 1_555
H28 C26 1_555 1_555
C27 C21 1_555 1_555
H29 C27 1_555 1_555
C28 C12 1_555 1_555
H30 C28 1_555 1_555
H31 C28 1_555 1_555
H32 C28 1_555 1_555
C29 C8 1_555 1_555
H33 C29 1_555 1_555
C30 H34 1_555 1_555
C31 C16 1_555 1_555
H35 C31 1_555 1_555
C32 C9 1_555 1_555
H36 C32 1_555 1_555
C33 N1 1_555 1_555
H37 C33 1_555 1_555
H38 C33 1_555 1_555
C34 C11 1_555 1_555
H39 C34 1_555 1_555
C35 C4 1_555 1_555
H40 C35 1_555 1_555
C36 C30 1_555 1_555
H41 C36 1_555 1_555
C37 C12 1_555 1_555
H42 C37 1_555 1_555
H43 C37 1_555 1_555
H44 C37 1_555 1_555
N1 C3 1_555 1_555
C4 C33 1_555 1_555
C5 C24 1_555 1_555
C6 C7 1_555 1_555
C8 C19 1_555 1_555
C10 C15 1_555 1_555
C17 C20 1_555 1_555
C17 C29 1_555 1_555
C23 C25 1_555 1_555
C26 C31 1_555 1_555
C27 C32 1_555 1_555
C30 C35 1_555 1_555
C34 C36 1_555 1_555

#END
