
#######################################################################
#
#                 Cambridge Crystallographic Data Centre
#                                CCDC 
#
#######################################################################
#
# If this CIF has been generated from an entry in the Cambridge 
# Structural Database, then it will include bibliographic, chemical, 
# crystal, experimental, refinement or atomic coordinate data resulting 
# from the CCDC's data processing and validation procedures.
#
#######################################################################

data_NOQKEK
_chemical_formula_moiety         'C41 H40 I2 O1 S4'
_chemical_name_systematic        
2,7-Di-t-butyl-4,5-bis(5-iodo-5'-methyl-2,2'-bithiophen-3-yl)-9,9-dimethyl-9H-xanthene
_symmetry_cell_setting           triclinic
_symmetry_space_group_name_H-M   'P -1'
_symmetry_Int_Tables_number      2
_space_group_name_Hall           '-P 1'
loop_
_symmetry_equiv_pos_site_id
_symmetry_equiv_pos_as_xyz
1 x,y,z
2 -x,-y,-z
_cell_length_a                   11.9286(3)
_cell_length_b                   13.3443(3)
_cell_length_c                   14.1759(6)
_cell_angle_alpha                100.7300(10)
_cell_angle_beta                 107.6750(10)
_cell_angle_gamma                110.30
_cell_volume                     1906.13
_exptl_crystal_colour            colorless
_exptl_crystal_description       block
_chemical_melting_point          210deg.C(dec)
_cell_formula_units_Z            2
loop_
_atom_site_label
_atom_site_type_symbol
_atom_site_fract_x
_atom_site_fract_y
_atom_site_fract_z
O1 O 0.28113(9) 0.20983(8) 0.74166(7)
C1 C 0.28623(12) 0.31645(10) 0.75389(10)
C2 C 0.30422(12) 0.35960(11) 0.67415(10)
C3 C 0.30663(12) 0.46554(11) 0.67878(10)
H1 H 0.3183 0.4955 0.6249
C4 C 0.29218(12) 0.52884(11) 0.76110(10)
C5 C 0.29202(13) 0.64478(11) 0.76743(11)
C6 C 0.15254(15) 0.63339(14) 0.74190(15)
H2 H 0.1527 0.7078 0.7482
H3 H 0.1200 0.6029 0.7910
H4 H 0.0960 0.5821 0.6702
C7 C 0.38107(18) 0.72874(13) 0.87829(12)
H5 H 0.4691 0.7330 0.8966
H6 H 0.3466 0.7032 0.9284
H7 H 0.3844 0.8036 0.8807
C8 C 0.34091(16) 0.69340(12) 0.69023(12)
H8 H 0.4278 0.6968 0.7026
H9 H 0.3455 0.7696 0.7003
H10 H 0.2807 0.6448 0.6184
C9 C 0.27432(12) 0.48164(11) 0.83846(10)
H11 H 0.2632 0.5232 0.8942
C10 C 0.27212(12) 0.37605(11) 0.83764(10)
C11 C 0.25336(12) 0.32938(11) 0.92512(10)
C12 C 0.11867(13) 0.31411(12) 0.92456(11)
H12 H 0.1146 0.3873 0.9359
H13 H 0.1059 0.2844 0.9806
H14 H 0.0501 0.2610 0.8568
C13 C 0.36054(13) 0.41288(11) 1.03205(10)
H15 H 0.4459 0.4200 1.0342
H16 H 0.3448 0.3847 1.0881
H17 H 0.3590 0.4870 1.0418
C14 C 0.26074(12) 0.21579(11) 0.90811(10)
C15 C 0.25174(13) 0.15860(11) 0.98102(10)
H18 H 0.2413 0.1921 1.0411
C16 C 0.25744(13) 0.05463(11) 0.96894(10)
C17 C 0.2597(4) -0.0051(4) 1.0512(4)
C18 C 0.2563(4) 0.0616(3) 1.1480(2)
H19 H 0.2576 0.0199 1.1981
H20 H 0.1765 0.0729 1.1287
H21 H 0.3324 0.1352 1.1801
C19 C 0.1410(3) -0.1220(2) 1.0009(2)
H22 H 0.1432 -0.1644 0.9378
H23 H 0.0604 -0.1118 0.9822
H24 H 0.1439 -0.1638 1.0509
C20 C 0.3841(3) -0.0258(2) 1.08509(19)
H25 H 0.3878 -0.0698 1.0234
H26 H 0.3816 -0.0677 1.1349
H27 H 0.4616 0.0469 1.1184
C21 C 0.27006(13) 0.00622(11) 0.87865(10)
H28 H 0.2726 -0.0653 0.8681
C22 C 0.27903(12) 0.05920(11) 0.80393(10)
C23 C 0.27487(12) 0.16455(11) 0.82060(10)
I1 I 0.069765(9) -0.028316(8) 0.323886(7)
S1 S 0.35980(3) 0.19335(3) 0.43633(3)
S2 S 0.58520(3) 0.53128(3) 0.66498(3)
C24 C 0.20964(13) 0.12288(12) 0.43822(11)
C25 C 0.19373(13) 0.18077(11) 0.51901(10)
H29 H 0.1170 0.1543 0.5322
C26 C 0.30536(13) 0.28614(11) 0.58215(10)
C27 C 0.40495(13) 0.30491(11) 0.54771(10)
C28 C 0.53700(13) 0.39425(11) 0.58878(10)
C29 C 0.64002(14) 0.38498(13) 0.57009(13)
H30 H 0.6343 0.3166 0.5297
C30 C 0.75611(15) 0.48771(14) 0.61711(13)
H31 H 0.8354 0.4948 0.6110
C31 C 0.74242(14) 0.57476(13) 0.67158(12)
C32 C 0.84351(15) 0.69330(14) 0.73421(15)
H32 H 0.9252 0.7037 0.7262
H33 H 0.8583 0.7070 0.8083
H34 H 0.8131 0.7467 0.7091
I2 I 0.042549(9) -0.308829(7) 0.435311(7)
S3 S 0.32296(3) -0.07924(3) 0.54658(3)
S4 S 0.55609(3) 0.24672(3) 0.79448(3)
C33 C 0.17753(13) -0.15728(11) 0.55138(11)
C34 C 0.16519(13) -0.10705(11) 0.63845(11)
H35 H 0.0908 -0.1380 0.6538
C35 C 0.27671(13) -0.00253(11) 0.70423(10)
C36 C 0.37201(13) 0.02414(11) 0.66487(10)
C37 C 0.50294(13) 0.11500(11) 0.70500(10)
C38 C 0.60288(14) 0.10915(12) 0.67866(11)
H36 H 0.5938 0.0441 0.6303
C39 C 0.72102(14) 0.20967(13) 0.73067(11)
H37 H 0.7986 0.2187 0.7204
C40 C 0.71166(14) 0.29186(12) 0.79681(11)
C41 C 0.81464(15) 0.40811(14) 0.86394(14)
H38 H 0.8362 0.4146 0.9379
H39 H 0.7823 0.4640 0.8486
H40 H 0.8928 0.4219 0.8493
C42? C 0.2274(8) -0.0101(8) 1.0454(7)
C43? C 0.2478(6) -0.1168(4) 1.0272(4)
C44? C 0.3191(5) 0.0687(4) 1.1597(3)
C45? C 0.0863(4) -0.0406(4) 1.0372(4)
H41? H 0.2292 -0.1540 1.0777
H42? H 0.3384 -0.0973 1.0362
H43? H 0.1890 -0.1680 0.9559
H44? H 0.3077 0.1385 1.1723
H45? H 0.4099 0.0869 1.1700
H46? H 0.2977 0.0303 1.2087
H47? H 0.0729 0.0283 1.0496
H48? H 0.0724 -0.0763 1.0897
H49? H 0.0244 -0.0931 0.9671
loop_
_geom_bond_atom_site_label_1
_geom_bond_atom_site_label_2
_geom_bond_site_symmetry_1
_geom_bond_site_symmetry_2
O1 C1 1_555 1_555
C1 C2 1_555 1_555
C2 C3 1_555 1_555
C3 H1 1_555 1_555
C4 C3 1_555 1_555
C5 C4 1_555 1_555
C6 C5 1_555 1_555
H2 C6 1_555 1_555
H3 C6 1_555 1_555
H4 C6 1_555 1_555
C7 C5 1_555 1_555
H5 C7 1_555 1_555
H6 C7 1_555 1_555
H7 C7 1_555 1_555
C8 C5 1_555 1_555
H8 C8 1_555 1_555
H9 C8 1_555 1_555
H10 C8 1_555 1_555
C9 C4 1_555 1_555
H11 C9 1_555 1_555
C10 C1 1_555 1_555
C11 C10 1_555 1_555
C12 C11 1_555 1_555
H12 C12 1_555 1_555
H13 C12 1_555 1_555
H14 C12 1_555 1_555
C13 C11 1_555 1_555
H15 C13 1_555 1_555
H16 C13 1_555 1_555
H17 C13 1_555 1_555
C14 C11 1_555 1_555
C15 C14 1_555 1_555
H18 C15 1_555 1_555
C16 C15 1_555 1_555
C17 C16 1_555 1_555
C18 C17 1_555 1_555
H19 C18 1_555 1_555
H20 C18 1_555 1_555
H21 C18 1_555 1_555
C19 C17 1_555 1_555
H22 C19 1_555 1_555
H23 C19 1_555 1_555
H24 C19 1_555 1_555
C20 C17 1_555 1_555
H25 C20 1_555 1_555
H26 C20 1_555 1_555
H27 C20 1_555 1_555
C21 C16 1_555 1_555
H28 C21 1_555 1_555
C22 C21 1_555 1_555
C23 O1 1_555 1_555
I1 C24 1_555 1_555
S1 C24 1_555 1_555
S2 C28 1_555 1_555
C24 C25 1_555 1_555
C25 H29 1_555 1_555
C26 C2 1_555 1_555
C27 S1 1_555 1_555
C28 C27 1_555 1_555
C29 C28 1_555 1_555
H30 C29 1_555 1_555
C30 C29 1_555 1_555
H31 C30 1_555 1_555
C31 S2 1_555 1_555
C32 C31 1_555 1_555
H32 C32 1_555 1_555
H33 C32 1_555 1_555
H34 C32 1_555 1_555
I2 C33 1_555 1_555
S3 C33 1_555 1_555
S4 C37 1_555 1_555
C33 C34 1_555 1_555
C34 H35 1_555 1_555
C35 C22 1_555 1_555
C36 S3 1_555 1_555
C37 C36 1_555 1_555
C38 C37 1_555 1_555
H36 C38 1_555 1_555
C39 C38 1_555 1_555
H37 C39 1_555 1_555
C40 S4 1_555 1_555
C41 C40 1_555 1_555
H38 C41 1_555 1_555
H39 C41 1_555 1_555
H40 C41 1_555 1_555
C9 C10 1_555 1_555
C14 C23 1_555 1_555
C22 C23 1_555 1_555
C25 C26 1_555 1_555
C26 C27 1_555 1_555
C30 C31 1_555 1_555
C34 C35 1_555 1_555
C35 C36 1_555 1_555
C39 C40 1_555 1_555

#END
