
#######################################################################
#
#                 Cambridge Crystallographic Data Centre
#                                CCDC 
#
#######################################################################
#
# If this CIF has been generated from an entry in the Cambridge 
# Structural Database, then it will include bibliographic, chemical, 
# crystal, experimental, refinement or atomic coordinate data resulting 
# from the CCDC's data processing and validation procedures.
#
#######################################################################

data_NOQVEV
_chemical_formula_moiety         'C14 H11 F1 N2 O2'
_chemical_name_systematic        
(E)-N'-(3-Fluorobenzylidene)-2-hydroxybenzohydrazide
_symmetry_cell_setting           monoclinic
_symmetry_space_group_name_H-M   'P 21/n'
_symmetry_Int_Tables_number      14
_space_group_name_Hall           '-P 2yn'
loop_
_symmetry_equiv_pos_site_id
_symmetry_equiv_pos_as_xyz
1 x,y,z
2 1/2-x,1/2+y,1/2-z
3 -x,-y,-z
4 1/2+x,1/2-y,1/2+z
_cell_length_a                   4.8751(15)
_cell_length_b                   22.188(7)
_cell_length_c                   11.323(3)
_cell_angle_alpha                90
_cell_angle_beta                 96.717(5)
_cell_angle_gamma                90
_cell_volume                     1216.39
_exptl_crystal_colour            yellow
_exptl_crystal_description       block
_cell_formula_units_Z            4
_exptl_crystal_recrystallization_method ethanol
loop_
_atom_site_label
_atom_site_type_symbol
_atom_site_fract_x
_atom_site_fract_y
_atom_site_fract_z
F1 F -0.2554(15) 0.0383(3) 0.4844(5)
O1 O 0.8661(7) 0.26546(15) 0.1078(3)
O2 O 0.7116(7) 0.27530(14) 0.4613(2)
N1 N 0.5969(8) 0.23163(16) 0.2828(3)
N2 N 0.4125(7) 0.19142(17) 0.3234(3)
C1 C 0.9330(8) 0.31131(19) 0.3001(4)
C2 C 1.0667(10) 0.3559(2) 0.3713(4)
C3 C 1.2548(11) 0.3939(2) 0.3302(4)
C4 C 1.3165(10) 0.3890(2) 0.2158(4)
C5 C 1.1869(9) 0.34596(19) 0.1418(4)
C6 C 0.9959(8) 0.30710(19) 0.1824(3)
C7 C 0.7399(9) 0.27175(19) 0.3545(4)
C8 C 0.2866(9) 0.1604(2) 0.2415(4)
C9 C 0.0844(6) 0.11357(12) 0.2623(3)
C10 C 0.0213(6) 0.09879(13) 0.3754(2)
C11 C -0.1728(7) 0.05426(14) 0.3894(3)
C12 C -0.3037(6) 0.02449(13) 0.2905(4)
C13 C -0.2406(7) 0.03926(15) 0.1774(3)
C14 C -0.0466(7) 0.08380(16) 0.1634(2)
H1 H 0.62100 0.23090 0.20870
H2 H 0.96210 0.25770 0.05500
H3 H 1.02690 0.36010 0.44930
H4 H 1.34130 0.42320 0.38030
H5 H 1.44560 0.41470 0.18810
H6 H 1.22770 0.34290 0.06380
H7 H 0.32300 0.16740 0.16390
H8 H 0.10890 0.11870 0.44160
H9 H -0.43350 -0.00530 0.29990
H10 H -0.32820 0.01930 0.11120
H11 H -0.00440 0.09370 0.08770
F2? F -0.3673(19) 0.0122(3) 0.0916(6)
H12? H -0.21500 0.04440 0.46510
loop_
_geom_bond_atom_site_label_1
_geom_bond_atom_site_label_2
_geom_bond_site_symmetry_1
_geom_bond_site_symmetry_2
F1 C11 1_555 1_555
O1 C6 1_555 1_555
O2 C7 1_555 1_555
N1 N2 1_555 1_555
N2 C8 1_555 1_555
C1 C2 1_555 1_555
C2 C3 1_555 1_555
C3 C4 1_555 1_555
C4 C5 1_555 1_555
C5 C6 1_555 1_555
C6 C1 1_555 1_555
C7 N1 1_555 1_555
C8 C9 1_555 1_555
C9 C10 1_555 1_555
C10 C11 1_555 1_555
C11 C12 1_555 1_555
C12 C13 1_555 1_555
C13 C14 1_555 1_555
C14 C9 1_555 1_555
H1 N1 1_555 1_555
H2 O1 1_555 1_555
H3 C2 1_555 1_555
H4 C3 1_555 1_555
H5 C4 1_555 1_555
H6 C5 1_555 1_555
H7 C8 1_555 1_555
H8 C10 1_555 1_555
H9 C12 1_555 1_555
H10 C13 1_555 1_555
H11 C14 1_555 1_555
C1 C7 1_555 1_555

#END
