
#######################################################################
#
#                 Cambridge Crystallographic Data Centre
#                                CCDC 
#
#######################################################################
#
# If this CIF has been generated from an entry in the Cambridge 
# Structural Database, then it will include bibliographic, chemical, 
# crystal, experimental, refinement or atomic coordinate data resulting 
# from the CCDC's data processing and validation procedures.
#
#######################################################################

data_NOQVIZ
_chemical_formula_moiety         'C13 H8 Br1 Cl2 N1 O1'
_chemical_name_systematic        
2-Bromo-4-chloro-6-((E)-(2-chlorophenyl)iminomethyl)phenol
_symmetry_cell_setting           monoclinic
_symmetry_space_group_name_H-M   'P 21/c'
_symmetry_Int_Tables_number      14
_space_group_name_Hall           '-P 2ybc'
loop_
_symmetry_equiv_pos_site_id
_symmetry_equiv_pos_as_xyz
1 x,y,z
2 -x,1/2+y,1/2-z
3 -x,-y,-z
4 x,1/2-y,1/2+z
_cell_length_a                   8.4299(10)
_cell_length_b                   14.0115(16)
_cell_length_c                   11.4194(14)
_cell_angle_alpha                90
_cell_angle_beta                 104.5120(10)
_cell_angle_gamma                90
_cell_volume                     1305.78
_exptl_crystal_colour            yellow
_exptl_crystal_description       block
_cell_formula_units_Z            4
_exptl_crystal_recrystallization_method ethanol
loop_
_atom_site_label
_atom_site_type_symbol
_atom_site_fract_x
_atom_site_fract_y
_atom_site_fract_z
Br1 Br 0.54350(5) 0.75675(2) 0.54203(4)
Cl1 Cl 0.70198(11) 0.53128(7) 0.95100(8)
Cl2 Cl -0.01427(12) 0.49417(8) 0.22925(8)
N1 N 0.1581(3) 0.43674(18) 0.4723(2)
O1 O 0.3040(3) 0.59685(15) 0.45663(19)
H1 H 0.2386 0.5532 0.4344
C1 C 0.2481(4) 0.4266(2) 0.5798(3)
H2 H 0.2359 0.3725 0.6238
C2 C 0.3687(4) 0.4978(2) 0.6346(3)
C3 C 0.3916(4) 0.5800(2) 0.5697(3)
C4 C 0.5108(4) 0.6456(2) 0.6259(3)
C5 C 0.6058(4) 0.6305(2) 0.7418(3)
H3 H 0.6860 0.6744 0.7777
C6 C 0.5809(4) 0.5499(2) 0.8042(3)
C7 C 0.4644(4) 0.4838(2) 0.7520(3)
H4 H 0.4492 0.4296 0.7950
C8 C 0.0439(4) 0.3675(2) 0.4143(3)
C9 C -0.0435(4) 0.3866(3) 0.2963(3)
C10 C -0.1548(5) 0.3222(4) 0.2313(4)
H5 H -0.2122 0.3362 0.1524
C11 C -0.1804(5) 0.2369(3) 0.2839(5)
H6 H -0.2550 0.1931 0.2403
C12 C -0.0967(5) 0.2165(3) 0.3997(5)
H7 H -0.1145 0.1589 0.4349
C13 C 0.0149(5) 0.2818(3) 0.4650(4)
H8 H 0.0711 0.2677 0.5440
loop_
_geom_bond_atom_site_label_1
_geom_bond_atom_site_label_2
_geom_bond_site_symmetry_1
_geom_bond_site_symmetry_2
Br1 C4 1_555 1_555
Cl1 C6 1_555 1_555
Cl2 C9 1_555 1_555
N1 C1 1_555 1_555
O1 H1 1_555 1_555
C1 H2 1_555 1_555
C2 C1 1_555 1_555
C3 O1 1_555 1_555
C4 C3 1_555 1_555
C5 C4 1_555 1_555
H3 C5 1_555 1_555
C6 C5 1_555 1_555
C7 C2 1_555 1_555
H4 C7 1_555 1_555
C8 N1 1_555 1_555
C9 C8 1_555 1_555
C10 C9 1_555 1_555
H5 C10 1_555 1_555
C11 C10 1_555 1_555
H6 C11 1_555 1_555
C12 C11 1_555 1_555
H7 C12 1_555 1_555
C13 C8 1_555 1_555
H8 C13 1_555 1_555
C2 C3 1_555 1_555
C6 C7 1_555 1_555
C12 C13 1_555 1_555

#END
