
#######################################################################
#
#                 Cambridge Crystallographic Data Centre
#                                CCDC 
#
#######################################################################
#
# If this CIF has been generated from an entry in the Cambridge 
# Structural Database, then it will include bibliographic, chemical, 
# crystal, experimental, refinement or atomic coordinate data resulting 
# from the CCDC's data processing and validation procedures.
#
#######################################################################

data_NOQXAT
_chemical_formula_moiety         'C16 H15 F1 N2 O2'
_chemical_name_systematic        
1-(4-Fluorophenyl)-5-(4-methoxyphenyl)pyrazolidin-3-one
_symmetry_cell_setting           monoclinic
_symmetry_space_group_name_H-M   'P 21/c'
_symmetry_Int_Tables_number      14
_space_group_name_Hall           '-P 2ybc'
loop_
_symmetry_equiv_pos_site_id
_symmetry_equiv_pos_as_xyz
1 x,y,z
2 -x,1/2+y,1/2-z
3 -x,-y,-z
4 x,1/2-y,1/2+z
_cell_length_a                   11.455(2)
_cell_length_b                   7.1590(14)
_cell_length_c                   18.136(4)
_cell_angle_alpha                90
_cell_angle_beta                 101.05(3)
_cell_angle_gamma                90
_cell_volume                     1459.69
_exptl_crystal_colour            colorless
_exptl_crystal_description       needle
_cell_formula_units_Z            4
_exptl_crystal_recrystallization_method 'ethyl acetate'
loop_
_atom_site_label
_atom_site_type_symbol
_atom_site_fract_x
_atom_site_fract_y
_atom_site_fract_z
O1 O 0.48784(13) 0.2552(2) 0.03274(8)
O2 O 0.38835(15) -0.1685(2) -0.36578(8)
N1 N 0.26509(14) 0.3997(2) -0.11625(9)
N2 N 0.37005(14) 0.4183(2) -0.06107(10)
H1 H 0.4116 0.5192 -0.0556
F1 F -0.11183(16) 0.8402(3) -0.07221(14)
C1 C -0.0185(2) 0.7276(4) -0.08105(18)
C2 C -0.0298(2) 0.6229(4) -0.14437(16)
H2 H -0.0996 0.6247 -0.1803
C3 C 0.0654(2) 0.5135(3) -0.15406(13)
H3 H 0.0603 0.4424 -0.1975
C4 C 0.16815(17) 0.5086(2) -0.09998(11)
C5 C 0.1755(2) 0.6150(3) -0.03597(12)
H4 H 0.2443 0.6122 0.0009
C6 C 0.0806(2) 0.7261(4) -0.02653(17)
H5 H 0.0848 0.7985 0.0165
C7 C 0.24222(18) 0.1930(3) -0.12010(11)
H6 H 0.1569 0.1709 -0.1237
C8 C 0.30920(19) 0.1193(3) -0.04418(10)
H7 H 0.2559 0.1040 -0.0090
H8 H 0.3472 0.0006 -0.0501
C9 C 0.39987(18) 0.2682(3) -0.01826(11)
C10 C 0.28206(17) 0.1019(3) -0.18638(10)
C11 C 0.33591(18) 0.1959(3) -0.23771(11)
H9 H 0.3490 0.3238 -0.2323
C12 C 0.3703(2) 0.1032(3) -0.29659(11)
H10 H 0.4069 0.1687 -0.3302
C13 C 0.35087(19) -0.0874(3) -0.30603(10)
C14 C 0.2963(2) -0.1830(3) -0.25569(13)
H11 H 0.2825 -0.3107 -0.2613
C15 C 0.2625(2) -0.0876(3) -0.19703(12)
H12 H 0.2254 -0.1529 -0.1636
C16 C 0.3801(2) -0.3669(4) -0.37188(14)
H13 H 0.4084 -0.4069 -0.4158
H14 H 0.2987 -0.4044 -0.3758
H15 H 0.4276 -0.4230 -0.3281
loop_
_geom_bond_atom_site_label_1
_geom_bond_atom_site_label_2
_geom_bond_site_symmetry_1
_geom_bond_site_symmetry_2
O1 C9 1_555 1_555
O2 C13 1_555 1_555
N1 N2 1_555 1_555
N2 H1 1_555 1_555
F1 C1 1_555 1_555
C1 C2 1_555 1_555
C2 H2 1_555 1_555
C3 C2 1_555 1_555
H3 C3 1_555 1_555
C4 N1 1_555 1_555
C5 C4 1_555 1_555
H4 C5 1_555 1_555
C6 C1 1_555 1_555
H5 C6 1_555 1_555
C7 N1 1_555 1_555
H6 C7 1_555 1_555
C8 C7 1_555 1_555
H7 C8 1_555 1_555
H8 C8 1_555 1_555
C9 N2 1_555 1_555
C10 C7 1_555 1_555
C11 C10 1_555 1_555
H9 C11 1_555 1_555
C12 C11 1_555 1_555
H10 C12 1_555 1_555
C13 C12 1_555 1_555
C14 C13 1_555 1_555
H11 C14 1_555 1_555
C15 C10 1_555 1_555
H12 C15 1_555 1_555
C16 O2 1_555 1_555
H13 C16 1_555 1_555
H14 C16 1_555 1_555
H15 C16 1_555 1_555
C3 C4 1_555 1_555
C5 C6 1_555 1_555
C8 C9 1_555 1_555
C14 C15 1_555 1_555

#END
