
#######################################################################
#
#                 Cambridge Crystallographic Data Centre
#                                CCDC 
#
#######################################################################
#
# If this CIF has been generated from an entry in the Cambridge 
# Structural Database, then it will include bibliographic, chemical, 
# crystal, experimental, refinement or atomic coordinate data resulting 
# from the CCDC's data processing and validation procedures.
#
#######################################################################

data_NOQXEX
_chemical_formula_moiety         'C9 H10 N4 S1,0.17(H2 O1)'
_chemical_name_systematic        
'3-Methylsulfanyl-5-phenyl-4H-1,2,4-triazol-4-amine hydrate'
_symmetry_cell_setting           rhombohedral
_symmetry_space_group_name_H-M   'R -3'
_symmetry_Int_Tables_number      148
_space_group_name_Hall           '-R 3'
loop_
_symmetry_equiv_pos_site_id
_symmetry_equiv_pos_as_xyz
1 x,y,z
2 -y,x-y,z
3 -x+y,-x,z
4 2/3+x,1/3+y,1/3+z
5 2/3-y,1/3+x-y,1/3+z
6 2/3-x+y,1/3-x,1/3+z
7 1/3+x,2/3+y,2/3+z
8 1/3-y,2/3+x-y,2/3+z
9 1/3-x+y,2/3-x,2/3+z
10 -x,-y,-z
11 y,-x+y,-z
12 x-y,x,-z
13 1/3-x,2/3-y,2/3-z
14 1/3+y,2/3-x+y,2/3-z
15 1/3+x-y,2/3+x,2/3-z
16 2/3-x,1/3-y,1/3-z
17 2/3+y,1/3-x+y,1/3-z
18 2/3+x-y,1/3+x,1/3-z
_cell_length_a                   23.0266(15)
_cell_length_b                   23.0266(15)
_cell_length_c                   10.5190(9)
_cell_angle_alpha                90
_cell_angle_beta                 90
_cell_angle_gamma                120
_cell_volume                     4830.2
_exptl_crystal_colour            colorless
_exptl_crystal_description       prism
_chemical_melting_point          425-426K
_cell_formula_units_Z            18
_exptl_crystal_recrystallization_method ethanol
loop_
_atom_site_label
_atom_site_type_symbol
_atom_site_fract_x
_atom_site_fract_y
_atom_site_fract_z
H2 H 0.6439 0.3779 0.3102
S1 S 1.03285(6) 0.89151(5) 0.71331(11)
N1 N 1.08197(15) 0.83742(16) 0.5409(3)
N2 N 1.05881(15) 0.77523(16) 0.4828(3)
N3 N 0.98055(13) 0.76822(14) 0.6086(3)
N4 N 0.92266(14) 0.74747(15) 0.6827(3)
H3 H 0.8918 0.7438 0.6318
H4 H 0.9136 0.7090 0.7124
C1 C 1.1062(3) 0.9644(2) 0.6516(5)
H5 H 1.1442 0.9579 0.6578
H6 H 1.1146 1.0031 0.7001
H7 H 1.0989 0.9709 0.5642
C2 C 1.03399(18) 0.83096(18) 0.6157(3)
C3 C 0.99830(17) 0.73476(18) 0.5243(3)
C4 C 0.95704(18) 0.66410(18) 0.4868(3)
C5 C 0.8903(2) 0.6366(2) 0.4557(4)
H8 H 0.8695 0.6622 0.4626
C6 C 0.8543(2) 0.5711(2) 0.4142(5)
H9 H 0.8092 0.5526 0.3935
C7 C 0.8845(3) 0.5333(2) 0.4034(5)
H10 H 0.8600 0.4892 0.3746
C8 C 0.9510(3) 0.5600(2) 0.4349(5)
H11 H 0.9714 0.5341 0.4276
C9 C 0.9874(2) 0.6252(2) 0.4773(4)
H12 H 1.0322 0.6431 0.4996
O1? O 0.645(2) 0.348(3) 0.356(2)
H1? H 0.6667 0.3333 0.3967
loop_
_geom_bond_atom_site_label_1
_geom_bond_atom_site_label_2
_geom_bond_site_symmetry_1
_geom_bond_site_symmetry_2
S1 C1 1_555 1_555
N1 N2 1_555 1_555
N2 C3 1_555 1_555
N3 N4 1_555 1_555
N4 H3 1_555 1_555
H4 N4 1_555 1_555
C1 H5 1_555 1_555
H6 C1 1_555 1_555
H7 C1 1_555 1_555
C2 S1 1_555 1_555
C3 N3 1_555 1_555
C4 C3 1_555 1_555
C5 C4 1_555 1_555
H8 C5 1_555 1_555
C6 C5 1_555 1_555
H9 C6 1_555 1_555
C7 C6 1_555 1_555
H10 C7 1_555 1_555
C8 C7 1_555 1_555
H11 C8 1_555 1_555
C9 C4 1_555 1_555
H12 C9 1_555 1_555
N1 C2 1_555 1_555
N3 C2 1_555 1_555
C8 C9 1_555 1_555

#END
