
#######################################################################
#
#                 Cambridge Crystallographic Data Centre
#                                CCDC 
#
#######################################################################
#
# If this CIF has been generated from an entry in the Cambridge 
# Structural Database, then it will include bibliographic, chemical, 
# crystal, experimental, refinement or atomic coordinate data resulting 
# from the CCDC's data processing and validation procedures.
#
#######################################################################

data_NOQZUP
_chemical_name_common            
'7,11,15,28-tetrakis[(2-Formylphenoxy)methyl]-1,21,23,25-tetramethylresorcin[4]arene ethyl acetate clathrate'
_chemical_formula_moiety         'C68 H56 O16,C4 H8 O2'
_chemical_name_systematic        
"7,11,15,28-tetrakis[(2-Formylphenoxy)methylene]-1,21,23,25-tetramethylpentyl-2,20:3,19-dimetheno-1H,21H,23H,25H-bis[1,3]dioxocino[5,4-i:5',4'-i']benzo[1,2-d:5,4-d']bis[1,3]benzodioxocin ethyl acetate clathrate"
_symmetry_cell_setting           monoclinic
_symmetry_space_group_name_H-M   'P 21/m'
_symmetry_Int_Tables_number      11
_space_group_name_Hall           '-P 2yb'
loop_
_symmetry_equiv_pos_site_id
_symmetry_equiv_pos_as_xyz
1 x,y,z
2 -x,1/2+y,-z
3 -x,-y,-z
4 x,1/2-y,z
_cell_length_a                   11.9228(7)
_cell_length_b                   23.2806(15)
_cell_length_c                   12.2320(7)
_cell_angle_alpha                90
_cell_angle_beta                 117.005(3)
_cell_angle_gamma                90
_cell_volume                     3025.04
_exptl_crystal_colour            colorless
_exptl_crystal_description       block
_chemical_melting_point          '400 K'
_cell_formula_units_Z            2
_exptl_crystal_recrystallization_method 'ethyl acetate/hexane'
loop_
_atom_site_label
_atom_site_type_symbol
_atom_site_fract_x
_atom_site_fract_y
_atom_site_fract_z
O1 O -0.0864(2) 0.19966(13) 0.2854(2)
O2 O 0.0149(2) 0.04856(13) 0.4185(2)
O3 O 0.2250(2) 0.05596(10) 0.3626(2)
O4 O 0.4399(2) 0.05649(11) 0.4109(2)
O5 O 0.6322(6) 0.1273(4) 0.6538(3)
O6 O 0.7467(2) 0.19955(12) 0.4748(2)
C1 C -0.0852(6) 0.2500 -0.0474(5)
H1 H -0.1344 0.2156 -0.0867
H2 H -0.0074 0.2500 -0.0560
C2 C -0.0529(5) 0.2500 0.0879(4)
H3 H -0.1348 0.2500 0.0921
C3 C 0.0185(3) 0.19689(17) 0.1568(3)
C4 C 0.1057(3) 0.16939(15) 0.1293(3)
H4 H 0.1182 0.1834 0.0627
C5 C 0.1755(3) 0.12235(15) 0.1947(3)
C6 C 0.1587(3) 0.10305(15) 0.2943(3)
C7 C 0.0711(3) 0.12873(17) 0.3245(3)
C8 C 0.0030(3) 0.17497(17) 0.2554(3)
C9 C -0.0484(5) 0.2500 0.3569(5)
H5 H -0.0846 0.2500 0.4155
H6 H 0.0444 0.2500 0.4051
C10 C 0.0564(3) 0.10681(18) 0.4335(3)
H7 H 0.1382 0.1099 0.5081
H8 H -0.0051 0.1312 0.4456
C11 C 0.3502(3) 0.06610(17) 0.4547(3)
H9 H 0.3574 0.1063 0.4837
H10 H 0.3687 0.0405 0.5254
C12 C 0.4750(3) 0.10434(15) 0.3670(3)
C13 C 0.4015(3) 0.12373(14) 0.2479(3)
C14 C 0.2761(4) 0.09540(16) 0.1678(3)
H11 H 0.2839 0.0545 0.1954
C15 C 0.2419(5) 0.0937(2) 0.0314(4)
H12 H 0.3103 0.0754 0.0205
H13 H 0.2292 0.1329 -0.0010
H14 H 0.1642 0.0716 -0.0128
C16 C 0.4452(3) 0.17050(14) 0.2087(3)
H15 H 0.3953 0.1847 0.1281
C17 C 0.5590(3) 0.19770(14) 0.2820(3)
C18 C 0.6293(3) 0.17645(16) 0.3996(3)
C19 C 0.5909(3) 0.12927(15) 0.4442(3)
C20 C 0.6021(5) 0.2500 0.2383(4)
H16 H 0.6962 0.2500 0.2838
C21 C 0.5690(6) 0.2500 0.1040(5)
H17 H 0.6040 0.2156 0.0847
H18 H 0.4774 0.2500 0.0551
C22 C 0.7479(5) 0.2500 0.5390(5)
H19 H 0.6736 0.2500 0.5549
H20 H 0.8242 0.2500 0.6193
C23 C -0.1063(3) 0.03514(18) 0.3420(3)
C24 C -0.1265(3) -0.02235(19) 0.3029(3)
C25 C -0.2490(4) -0.04163(19) 0.2342(3)
H21 H -0.2640 -0.0807 0.2096
C26 C -0.3492(4) -0.0044(2) 0.2014(4)
H22 H -0.4331 -0.0175 0.1540
C27 C -0.3259(4) 0.0512(2) 0.2380(4)
H23 H -0.3951 0.0767 0.2145
C28 C -0.2063(3) 0.07220(19) 0.3078(3)
H24 H -0.1932 0.1114 0.3316
C29 C -0.0200(4) -0.0605(2) 0.3320(4)
H25 H 0.0624 -0.0453 0.3772
O7 O -0.0307(3) -0.11081(18) 0.3016(3)
C30 C 0.6930(10) 0.1091(4) 0.7722(4)
C31 C 0.6320(4) 0.1178(2) 0.8485(4)
C32 C 0.6952(5) 0.1003(2) 0.9714(4)
H26 H 0.6588 0.1078 1.0247
C33 C 0.8071(9) 0.0730(3) 1.0151(6)
H27 H 0.8481 0.0609 1.0984
C34 C 0.8608(5) 0.0627(3) 0.9406(6)
H28 H 0.9401 0.0438 0.9729
C35 C 0.8035(4) 0.0789(2) 0.8188(5)
H29 H 0.8408 0.0691 0.7672
C36 C 0.5084(5) 0.1450(2) 0.8038(4)
H30 H 0.4685 0.1578 0.7210
O8 O 0.4540(4) 0.1522(2) 0.8650(4)
C37 C 0.6725(3) 0.10524(18) 0.5674(3)
H31 H 0.6669 0.0628 0.5648
H32 H 0.7613 0.1162 0.5932
O1C O -0.0864(2) 0.30034(13) 0.2854(2)
O2C O 0.0149(2) 0.45144(13) 0.4185(2)
O3C O 0.2250(2) 0.44404(10) 0.3626(2)
O4C O 0.4399(2) 0.44351(11) 0.4109(2)
O5C O 0.6322(6) 0.3727(4) 0.6538(3)
O6C O 0.7467(2) 0.30045(12) 0.4748(2)
H1C H -0.1344 0.2844 -0.0867
C3C C 0.0185(3) 0.30311(17) 0.1568(3)
C4C C 0.1057(3) 0.33061(15) 0.1293(3)
H4C H 0.1182 0.3166 0.0627
C5C C 0.1755(3) 0.37765(15) 0.1947(3)
C6C C 0.1587(3) 0.39695(15) 0.2943(3)
C7C C 0.0711(3) 0.37127(17) 0.3245(3)
C8C C 0.0030(3) 0.32503(17) 0.2554(3)
C10C C 0.0564(3) 0.39319(18) 0.4335(3)
H7C H 0.1382 0.3901 0.5081
H8C H -0.0051 0.3688 0.4456
C11C C 0.3502(3) 0.43390(17) 0.4547(3)
H9C H 0.3574 0.3937 0.4837
H10C H 0.3687 0.4595 0.5254
C12C C 0.4750(3) 0.39566(15) 0.3670(3)
C13C C 0.4015(3) 0.37627(14) 0.2479(3)
C14C C 0.2761(4) 0.40460(16) 0.1678(3)
H11C H 0.2839 0.4455 0.1954
C15C C 0.2419(5) 0.4063(2) 0.0314(4)
H12C H 0.3103 0.4246 0.0205
H13C H 0.2292 0.3671 -0.0010
H14C H 0.1642 0.4284 -0.0128
C16C C 0.4452(3) 0.32950(14) 0.2087(3)
H15C H 0.3953 0.3153 0.1281
C17C C 0.5590(3) 0.30230(14) 0.2820(3)
C18C C 0.6293(3) 0.32355(16) 0.3996(3)
C19C C 0.5909(3) 0.37073(15) 0.4442(3)
H17C H 0.6040 0.2844 0.0847
C23C C -0.1063(3) 0.46486(18) 0.3420(3)
C24C C -0.1265(3) 0.52235(19) 0.3029(3)
C25C C -0.2490(4) 0.54163(19) 0.2342(3)
H21C H -0.2640 0.5807 0.2096
C26C C -0.3492(4) 0.5044(2) 0.2014(4)
H22C H -0.4331 0.5175 0.1540
C27C C -0.3259(4) 0.4488(2) 0.2380(4)
H23C H -0.3951 0.4233 0.2145
C28C C -0.2063(3) 0.42780(19) 0.3078(3)
H24C H -0.1932 0.3886 0.3316
C29C C -0.0200(4) 0.5605(2) 0.3320(4)
H25C H 0.0624 0.5453 0.3772
O7C O -0.0307(3) 0.61081(18) 0.3016(3)
C30C C 0.6930(10) 0.3909(4) 0.7722(4)
C31C C 0.6320(4) 0.3822(2) 0.8485(4)
C32C C 0.6952(5) 0.3997(2) 0.9714(4)
H26C H 0.6588 0.3922 1.0247
C33C C 0.8071(9) 0.4270(3) 1.0151(6)
H27C H 0.8481 0.4391 1.0984
C34C C 0.8608(5) 0.4373(3) 0.9406(6)
H28C H 0.9401 0.4562 0.9729
C35C C 0.8035(4) 0.4211(2) 0.8188(5)
H29C H 0.8408 0.4309 0.7672
C36C C 0.5084(5) 0.3550(2) 0.8038(4)
H30C H 0.4685 0.3422 0.7210
O8C O 0.4540(4) 0.3478(2) 0.8650(4)
C37C C 0.6725(3) 0.39476(18) 0.5674(3)
H31C H 0.6669 0.4372 0.5648
H32C H 0.7613 0.3838 0.5932
O9? O 0.615(3) 0.1252(18) 0.6415(18)
C38? C 0.687(5) 0.1056(19) 0.7573(19)
C39? C 0.6917(17) 0.1491(7) 0.8415(13)
C40? C 0.7500(17) 0.1340(8) 0.9670(14)
H33? H 0.7415 0.1584 1.0251
C41? C 0.817(4) 0.0855(13) 1.005(2)
H34? H 0.8562 0.0760 1.0897
C42? C 0.829(3) 0.0498(11) 0.924(2)
H35? H 0.8768 0.0154 0.9523
C43? C 0.774(2) 0.0625(10) 0.800(2)
H36? H 0.7967 0.0419 0.7455
C44? C 0.6207(16) 0.2018(7) 0.7993(15)
H37? H 0.5835 0.2110 0.7145
O10? O 0.6082(10) 0.2326(4) 0.8661(10)
loop_
_geom_bond_atom_site_label_1
_geom_bond_atom_site_label_2
_geom_bond_site_symmetry_1
_geom_bond_site_symmetry_2
O1 C8 1_555 1_555
O2 C10 1_555 1_555
O3 C6 1_555 1_555
O4 C11 1_555 1_555
O5 C30 1_555 1_555
O6 C18 1_555 1_555
C1 H1 1_555 1_555
H2 C1 1_555 1_555
C2 C1 1_555 1_555
H3 C2 1_555 1_555
C3 C2 1_555 1_555
C4 C3 1_555 1_555
H4 C4 1_555 1_555
C5 C4 1_555 1_555
C6 C5 1_555 1_555
C7 C6 1_555 1_555
C8 C3 1_555 1_555
C9 O1 1_555 1_555
H5 C9 1_555 1_555
H6 C9 1_555 1_555
C10 C7 1_555 1_555
H7 C10 1_555 1_555
H8 C10 1_555 1_555
C11 O3 1_555 1_555
H9 C11 1_555 1_555
H10 C11 1_555 1_555
C12 O4 1_555 1_555
C13 C12 1_555 1_555
C14 C5 1_555 1_555
H11 C14 1_555 1_555
C15 C14 1_555 1_555
H12 C15 1_555 1_555
H13 C15 1_555 1_555
H14 C15 1_555 1_555
C16 C13 1_555 1_555
H15 C16 1_555 1_555
C17 C16 1_555 1_555
C18 C17 1_555 1_555
C19 C12 1_555 1_555
C20 C17 1_555 1_555
H16 C20 1_555 1_555
C21 C20 1_555 1_555
H17 C21 1_555 1_555
H18 C21 1_555 1_555
C22 O6 1_555 1_555
H19 C22 1_555 1_555
H20 C22 1_555 1_555
C23 O2 1_555 1_555
C24 C23 1_555 1_555
C25 C24 1_555 1_555
H21 C25 1_555 1_555
C26 C25 1_555 1_555
H22 C26 1_555 1_555
C27 C26 1_555 1_555
H23 C27 1_555 1_555
C28 C23 1_555 1_555
H24 C28 1_555 1_555
C29 C24 1_555 1_555
H25 C29 1_555 1_555
O7 C29 1_555 1_555
C30 C31 1_555 1_555
C31 C32 1_555 1_555
C32 H26 1_555 1_555
C33 C32 1_555 1_555
H27 C33 1_555 1_555
C34 C33 1_555 1_555
H28 C34 1_555 1_555
C35 C30 1_555 1_555
H29 C35 1_555 1_555
C36 C31 1_555 1_555
H30 C36 1_555 1_555
O8 C36 1_555 1_555
C37 O5 1_555 1_555
H31 C37 1_555 1_555
H32 C37 1_555 1_555
O1C C9 1_555 1_555
O2C C10C 1_555 1_555
O3C C6C 1_555 1_555
O4C C11C 1_555 1_555
O5C C30C 1_555 1_555
O6C C22 1_555 1_555
H1C C1 1_555 1_555
C3C C2 1_555 1_555
C4C C3C 1_555 1_555
H4C C4C 1_555 1_555
C5C C4C 1_555 1_555
C6C C5C 1_555 1_555
C7C C6C 1_555 1_555
C8C O1C 1_555 1_555
C10C C7C 1_555 1_555
H7C C10C 1_555 1_555
H8C C10C 1_555 1_555
C11C O3C 1_555 1_555
H9C C11C 1_555 1_555
H10C C11C 1_555 1_555
C12C O4C 1_555 1_555
C13C C12C 1_555 1_555
C14C C5C 1_555 1_555
H11C C14C 1_555 1_555
C15C C14C 1_555 1_555
H12C C15C 1_555 1_555
H13C C15C 1_555 1_555
H14C C15C 1_555 1_555
C16C C13C 1_555 1_555
H15C C16C 1_555 1_555
C17C C20 1_555 1_555
C18C O6C 1_555 1_555
C19C C12C 1_555 1_555
H17C C21 1_555 1_555
C23C O2C 1_555 1_555
C24C C23C 1_555 1_555
C25C C24C 1_555 1_555
H21C C25C 1_555 1_555
C26C C25C 1_555 1_555
H22C C26C 1_555 1_555
C27C C26C 1_555 1_555
H23C C27C 1_555 1_555
C28C C23C 1_555 1_555
H24C C28C 1_555 1_555
C29C C24C 1_555 1_555
H25C C29C 1_555 1_555
O7C C29C 1_555 1_555
C30C C31C 1_555 1_555
C31C C32C 1_555 1_555
C32C H26C 1_555 1_555
C33C C32C 1_555 1_555
H27C C33C 1_555 1_555
C34C C33C 1_555 1_555
H28C C34C 1_555 1_555
C35C C30C 1_555 1_555
H29C C35C 1_555 1_555
C36C C31C 1_555 1_555
H30C C36C 1_555 1_555
O8C C36C 1_555 1_555
C37C O5C 1_555 1_555
H31C C37C 1_555 1_555
H32C C37C 1_555 1_555
C7 C8 1_555 1_555
C13 C14 1_555 1_555
C18 C19 1_555 1_555
C19 C37 1_555 1_555
C27 C28 1_555 1_555
C34 C35 1_555 1_555
C3C C8C 1_555 1_555
C7C C8C 1_555 1_555
C13C C14C 1_555 1_555
C16C C17C 1_555 1_555
C17C C18C 1_555 1_555
C18C C19C 1_555 1_555
C19C C37C 1_555 1_555
C27C C28C 1_555 1_555
C34C C35C 1_555 1_555

#END
