
#######################################################################
#
#                 Cambridge Crystallographic Data Centre
#                                CCDC 
#
#######################################################################
#
# If this CIF has been generated from an entry in the Cambridge 
# Structural Database, then it will include bibliographic, chemical, 
# crystal, experimental, refinement or atomic coordinate data resulting 
# from the CCDC's data processing and validation procedures.
#
#######################################################################

data_NORBON
_chemical_formula_moiety         'C20 H15 N2 1+,I1 1-'
_chemical_name_systematic        
'5-methylbenzo[5,6]indolizino[1,2-c]quinolin-5-ium iodide'
_symmetry_cell_setting           monoclinic
_symmetry_space_group_name_H-M   'P 21/c'
_symmetry_Int_Tables_number      14
_space_group_name_Hall           '-P 2ybc'
loop_
_symmetry_equiv_pos_site_id
_symmetry_equiv_pos_as_xyz
1 x,y,z
2 -x,1/2+y,1/2-z
3 -x,-y,-z
4 x,1/2-y,1/2+z
_cell_length_a                   6.8761(3)
_cell_length_b                   13.6443(6)
_cell_length_c                   17.5062(7)
_cell_angle_alpha                90
_cell_angle_beta                 96.438(1)
_cell_angle_gamma                90
_cell_volume                     1632.07
_exptl_crystal_colour            brown
_exptl_crystal_description       needle
_cell_formula_units_Z            4
loop_
_atom_site_label
_atom_site_type_symbol
_atom_site_fract_x
_atom_site_fract_y
_atom_site_fract_z
C1 C 0.8398(5) 0.6930(3) 1.0723(2)
H1 H 0.8459 0.6560 1.1171
C2 C 0.8752(5) 0.7911(3) 1.0769(2)
H2 H 0.9078 0.8208 1.1244
C3 C 0.8621(5) 0.8475(3) 1.0089(2)
H3 H 0.8849 0.9146 1.0120
C4 C 0.8165(5) 0.8049(3) 0.9387(2)
H4 H 0.8067 0.8431 0.8944
C5 C 0.7849(5) 0.7045(3) 0.9334(2)
N1 N 0.7424(4) 0.6582(2) 0.86058(16)
C6 C 0.7100(5) 0.5634(3) 0.85325(19)
H5 H 0.6833 0.5363 0.8044
C7 C 0.7151(5) 0.5036(3) 0.9171(2)
C8 C 0.6867(4) 0.4028(3) 0.92450(18)
C9 C 0.6426(5) 0.3250(3) 0.8716(2)
H6 H 0.6215 0.3378 0.8191
C10 C 0.6314(5) 0.2330(3) 0.8974(2)
H7 H 0.6041 0.1824 0.8622
C11 C 0.6603(5) 0.2107(3) 0.9771(2)
C12 C 0.6552(5) 0.1157(3) 1.0058(2)
H8 H 0.6290 0.0641 0.9715
C13 C 0.6874(6) 0.0958(3) 1.0824(3)
H9 H 0.6838 0.0315 1.0998
C14 C 0.7258(6) 0.1728(3) 1.1347(2)
H10 H 0.7484 0.1594 1.1870
C15 C 0.7306(5) 0.2684(3) 1.10942(19)
H11 H 0.7537 0.3195 1.1444
C16 C 0.7003(4) 0.2876(2) 1.03092(19)
N2 N 0.7123(4) 0.3828(2) 1.00223(14)
C17 C 0.7553(4) 0.4685(2) 1.04385(18)
H12 H 0.7783 0.4735 1.0971
C18 C 0.7575(4) 0.5440(2) 0.99243(17)
C19 C 0.7940(4) 0.6467(3) 1.00054(18)
C20 C 0.7372(7) 0.7177(4) 0.7895(2)
H13 H 0.7022 0.6767 0.7456
H14 H 0.8639 0.7460 0.7862
H15 H 0.6421 0.7690 0.7908
I1 I 0.8079(3) 1.0149(2) 0.76612(11)
I2? I 0.8169(5) 0.9994(2) 0.76887(16)
loop_
_geom_bond_atom_site_label_1
_geom_bond_atom_site_label_2
_geom_bond_site_symmetry_1
_geom_bond_site_symmetry_2
C1 H1 1_555 1_555
C2 C1 1_555 1_555
H2 C2 1_555 1_555
C3 C2 1_555 1_555
H3 C3 1_555 1_555
C4 C3 1_555 1_555
H4 C4 1_555 1_555
C5 C4 1_555 1_555
N1 C5 1_555 1_555
C6 N1 1_555 1_555
H5 C6 1_555 1_555
C7 C6 1_555 1_555
C8 C7 1_555 1_555
C9 C8 1_555 1_555
H6 C9 1_555 1_555
C10 C9 1_555 1_555
H7 C10 1_555 1_555
C11 C10 1_555 1_555
C12 C11 1_555 1_555
H8 C12 1_555 1_555
C13 C12 1_555 1_555
H9 C13 1_555 1_555
C14 C13 1_555 1_555
H10 C14 1_555 1_555
C15 C14 1_555 1_555
H11 C15 1_555 1_555
C16 C11 1_555 1_555
N2 C8 1_555 1_555
C17 N2 1_555 1_555
H12 C17 1_555 1_555
C18 C7 1_555 1_555
C19 C1 1_555 1_555
C20 N1 1_555 1_555
H13 C20 1_555 1_555
H14 C20 1_555 1_555
H15 C20 1_555 1_555
C5 C19 1_555 1_555
C15 C16 1_555 1_555
C16 N2 1_555 1_555
C17 C18 1_555 1_555
C18 C19 1_555 1_555

#END
