
#######################################################################
#
#                 Cambridge Crystallographic Data Centre
#                                CCDC 
#
#######################################################################
#
# If this CIF has been generated from an entry in the Cambridge 
# Structural Database, then it will include bibliographic, chemical, 
# crystal, experimental, refinement or atomic coordinate data resulting 
# from the CCDC's data processing and validation procedures.
#
#######################################################################

data_NORLOW
_chemical_formula_moiety         'C15 H13 Cl1 N2 O2'
_chemical_name_systematic        
4-Chloro-N'-(2-methoxybenzylidene)benzohydrazide
_symmetry_cell_setting           triclinic
_symmetry_space_group_name_H-M   'P -1'
_symmetry_Int_Tables_number      2
_space_group_name_Hall           '-P 1'
loop_
_symmetry_equiv_pos_site_id
_symmetry_equiv_pos_as_xyz
1 x,y,z
2 -x,-y,-z
_cell_length_a                   7.802(2)
_cell_length_b                   13.395(3)
_cell_length_c                   14.599(2)
_cell_angle_alpha                93.298(2)
_cell_angle_beta                 100.945(3)
_cell_angle_gamma                106.055(2)
_cell_volume                     1429.71
_exptl_crystal_colour            colorless
_exptl_crystal_description       'cut from needle'
_cell_formula_units_Z            4
loop_
_atom_site_label
_atom_site_type_symbol
_atom_site_fract_x
_atom_site_fract_y
_atom_site_fract_z
Cl1 Cl -0.36428(18) 0.35966(9) 0.40462(10)
N1 N 0.1823(3) 0.75724(14) 0.25213(13)
H1 H 0.0681 0.7446 0.2274
N2 N 0.3077(3) 0.84442(15) 0.23333(14)
O1 O 0.3995(2) 0.69948(13) 0.33805(12)
O2 O 0.1670(4) 0.9429(2) -0.00901(17)
C1 C -0.1898(5) 0.4568(3) 0.3777(2)
C2 C -0.0336(6) 0.4345(2) 0.3656(3)
H3 H -0.0226 0.3678 0.3719
C3 C 0.1072(4) 0.5114(2) 0.3440(2)
H4 H 0.2144 0.4971 0.3372
C4 C 0.0877(3) 0.60967(18) 0.33272(17)
C5 C -0.0703(3) 0.6296(2) 0.34588(17)
H5 H -0.0835 0.6958 0.3389
C6 C -0.2094(4) 0.5536(2) 0.3691(2)
H6 H -0.3147 0.5683 0.3787
C7 C 0.2386(3) 0.69232(18) 0.30901(17)
C8 C 0.2455(3) 0.88706(18) 0.16387(18)
H7 H 0.1296 0.8545 0.1273
C9 C 0.3533(4) 0.9858(2) 0.1410(2)
C10 C 0.3066(5) 1.0144(3) 0.0507(3)
C11 C 0.4045(7) 1.1090(3) 0.0286(4)
H8 H 0.3749 1.1280 -0.0313
C12 C 0.5443(7) 1.1749(3) 0.0941(5)
H9 H 0.6091 1.2385 0.0783
C13 C 0.5913(5) 1.1490(3) 0.1832(4)
H10 H 0.6873 1.1945 0.2272
C14 C 0.4943(4) 1.0544(2) 0.2068(3)
H11 H 0.5240 1.0368 0.2673
C15 C 0.1087(6) 0.9678(4) -0.1012(3)
H12 H 0.0833 1.0339 -0.0971
H13 H 0.0002 0.9144 -0.1330
H14 H 0.2033 0.9720 -0.1356
Cl2 Cl 0.01821(14) 0.31778(8) 0.07426(8)
N3 N 0.6661(2) 0.76354(14) 0.22293(14)
H2 H 0.5645 0.7571 0.2402
N4 N 0.8123(2) 0.85210(14) 0.25581(13)
O3 O 0.8240(2) 0.69020(14) 0.13798(12)
O4 O 0.7265(3) 1.05068(14) 0.44551(13)
C16 C 0.2096(4) 0.4261(2) 0.0957(2)
C17 C 0.1896(4) 0.5239(2) 0.0987(2)
H15 H 0.0737 0.5328 0.0875
C18 C 0.3427(3) 0.6096(2) 0.11840(17)
H16 H 0.3294 0.6765 0.1203
C19 C 0.5153(3) 0.59732(19) 0.13536(17)
C20 C 0.5314(4) 0.4971(2) 0.1296(2)
H17 H 0.6466 0.4872 0.1391
C21 C 0.3781(5) 0.4117(2) 0.1100(2)
H18 H 0.3898 0.3444 0.1066
C22 C 0.6829(3) 0.68759(19) 0.16411(17)
C23 C 0.7862(3) 0.91383(17) 0.31774(16)
H19 H 0.6764 0.8963 0.3378
C24 C 0.9252(3) 1.01116(17) 0.35755(16)
C25 C 0.8937(3) 1.08002(18) 0.42280(17)
C26 C 1.0264(4) 1.1724(2) 0.4600(2)
H20 H 1.0043 1.2182 0.5036
C27 C 1.1899(4) 1.1971(2) 0.4332(2)
H21 H 1.2791 1.2593 0.4592
C28 C 1.2236(4) 1.1312(2) 0.3686(2)
H22 H 1.3348 1.1485 0.3501
C29 C 1.0921(3) 1.0396(2) 0.33148(19)
H23 H 1.1154 0.9951 0.2873
C30 C 0.6940(5) 1.1163(2) 0.5169(2)
H24 H 0.7792 1.1197 0.5747
H25 H 0.5717 1.0880 0.5256
H26 H 0.7093 1.1853 0.4983
loop_
_geom_bond_atom_site_label_1
_geom_bond_atom_site_label_2
_geom_bond_site_symmetry_1
_geom_bond_site_symmetry_2
Cl1 C1 1_555 1_555
Cl2 C16 1_555 1_555
N1 H1 1_555 1_555
N2 N1 1_555 1_555
N3 H2 1_555 1_555
N4 N3 1_555 1_555
O1 C7 1_555 1_555
O2 C10 1_555 1_555
O3 C22 1_555 1_555
O4 C25 1_555 1_555
C1 C2 1_555 1_555
C2 H3 1_555 1_555
C3 C2 1_555 1_555
H4 C3 1_555 1_555
C4 C3 1_555 1_555
C5 C4 1_555 1_555
H5 C5 1_555 1_555
C6 C1 1_555 1_555
H6 C6 1_555 1_555
C7 N1 1_555 1_555
C8 N2 1_555 1_555
H7 C8 1_555 1_555
C9 C8 1_555 1_555
C10 C9 1_555 1_555
C11 C10 1_555 1_555
H8 C11 1_555 1_555
C12 C11 1_555 1_555
H9 C12 1_555 1_555
C13 C12 1_555 1_555
H10 C13 1_555 1_555
C14 C9 1_555 1_555
H11 C14 1_555 1_555
C15 O2 1_555 1_555
H12 C15 1_555 1_555
H13 C15 1_555 1_555
H14 C15 1_555 1_555
C16 C17 1_555 1_555
C17 H15 1_555 1_555
C18 C17 1_555 1_555
H16 C18 1_555 1_555
C19 C18 1_555 1_555
C20 C19 1_555 1_555
H17 C20 1_555 1_555
C21 C16 1_555 1_555
H18 C21 1_555 1_555
C22 N3 1_555 1_555
C23 N4 1_555 1_555
H19 C23 1_555 1_555
C24 C23 1_555 1_555
C25 C24 1_555 1_555
C26 C25 1_555 1_555
H20 C26 1_555 1_555
C27 C26 1_555 1_555
H21 C27 1_555 1_555
C28 C27 1_555 1_555
H22 C28 1_555 1_555
C29 C24 1_555 1_555
H23 C29 1_555 1_555
C30 O4 1_555 1_555
H24 C30 1_555 1_555
H25 C30 1_555 1_555
H26 C30 1_555 1_555
C4 C7 1_555 1_555
C5 C6 1_555 1_555
C13 C14 1_555 1_555
C19 C22 1_555 1_555
C20 C21 1_555 1_555
C28 C29 1_555 1_555

#END
