
#######################################################################
#
#                 Cambridge Crystallographic Data Centre
#                                CCDC 
#
#######################################################################
#
# If this CIF has been generated from an entry in the Cambridge 
# Structural Database, then it will include bibliographic, chemical, 
# crystal, experimental, refinement or atomic coordinate data resulting 
# from the CCDC's data processing and validation procedures.
#
#######################################################################

data_NORQOB
_chemical_formula_moiety         'C9 H11 N3 O1 S1'
_chemical_name_systematic        '3-Methoxybenzaldehyde thiosemicarbazone'
_symmetry_cell_setting           monoclinic
_symmetry_space_group_name_H-M   'P 21/c'
_symmetry_Int_Tables_number      14
_space_group_name_Hall           '-P 2ybc'
loop_
_symmetry_equiv_pos_site_id
_symmetry_equiv_pos_as_xyz
1 x,y,z
2 -x,1/2+y,1/2-z
3 -x,-y,-z
4 x,1/2-y,1/2+z
_cell_length_a                   11.814(2)
_cell_length_b                   5.6760(11)
_cell_length_c                   15.248(3)
_cell_angle_alpha                90
_cell_angle_beta                 90.29(3)
_cell_angle_gamma                90
_cell_volume                     1022.46
_exptl_crystal_colour            colorless
_exptl_crystal_description       block
_cell_formula_units_Z            4
_exptl_crystal_recrystallization_method 'ethyl acetate'
loop_
_atom_site_label
_atom_site_type_symbol
_atom_site_fract_x
_atom_site_fract_y
_atom_site_fract_z
S1 S 0.51511(6) 1.47619(10) 0.35880(3)
O1 O 0.85492(14) 0.6407(3) 0.83956(9)
N1 N 0.66878(15) 1.0213(3) 0.50804(11)
N2 N 0.60984(16) 1.2149(3) 0.47967(11)
H1 H 0.5936 1.3268 0.5155
N3 N 0.59915(18) 1.0451(4) 0.34546(12)
H2 H 0.6324 0.9237 0.3674
H3 H 0.5800 1.0463 0.2910
C1 C 0.9085(2) 0.4449(6) 0.88050(16)
H4 H 0.9862 0.4377 0.8627
H5 H 0.8706 0.3024 0.8634
H6 H 0.9049 0.4624 0.9430
C2 C 0.84356(18) 0.6327(4) 0.75008(14)
C3 C 0.77906(17) 0.8120(4) 0.71427(13)
H7 H 0.7479 0.9264 0.7505
C4 C 0.76070(17) 0.8221(4) 0.62447(13)
C5 C 0.8097(2) 0.6510(4) 0.57024(14)
H8 H 0.7982 0.6566 0.5099
C6 C 0.8741(2) 0.4764(4) 0.60621(16)
H9 H 0.9071 0.3642 0.5700
C7 C 0.8914(2) 0.4638(4) 0.69715(16)
H10 H 0.9346 0.3430 0.7214
C8 C 0.69256(18) 1.0136(4) 0.58932(13)
H11 H 0.6663 1.1311 0.6265
C9 C 0.57769(17) 1.2279(4) 0.39499(13)
loop_
_geom_bond_atom_site_label_1
_geom_bond_atom_site_label_2
_geom_bond_site_symmetry_1
_geom_bond_site_symmetry_2
S1 C9 1_555 1_555
O1 C1 1_555 1_555
N1 N2 1_555 1_555
N2 H1 1_555 1_555
N3 H2 1_555 1_555
H3 N3 1_555 1_555
C1 H4 1_555 1_555
H5 C1 1_555 1_555
H6 C1 1_555 1_555
C2 O1 1_555 1_555
C3 C2 1_555 1_555
H7 C3 1_555 1_555
C4 C3 1_555 1_555
C5 C4 1_555 1_555
H8 C5 1_555 1_555
C6 C5 1_555 1_555
H9 C6 1_555 1_555
C7 C2 1_555 1_555
H10 C7 1_555 1_555
C8 N1 1_555 1_555
H11 C8 1_555 1_555
C9 N2 1_555 1_555
N3 C9 1_555 1_555
C4 C8 1_555 1_555
C6 C7 1_555 1_555

#END
