
#######################################################################
#
#                 Cambridge Crystallographic Data Centre
#                                CCDC 
#
#######################################################################
#
# If this CIF has been generated from an entry in the Cambridge 
# Structural Database, then it will include bibliographic, chemical, 
# crystal, experimental, refinement or atomic coordinate data resulting 
# from the CCDC's data processing and validation procedures.
#
#######################################################################

data_NORRAO
_chemical_formula_moiety         'C26 H25 Cl3 N6 O4'
_chemical_name_systematic        
'(Z)-Ethyl 3-[bis(4-chloro-3-ethyl-1-methyl-1H-pyrazol-5-ylcarbonyl)amino]-3-(4-chlorophenyl)-2-cyanoprop-2-enoate'
_symmetry_cell_setting           monoclinic
_symmetry_space_group_name_H-M   'P 21/c'
_symmetry_Int_Tables_number      14
_space_group_name_Hall           '-P 2ybc'
loop_
_symmetry_equiv_pos_site_id
_symmetry_equiv_pos_as_xyz
1 x,y,z
2 -x,1/2+y,1/2-z
3 -x,-y,-z
4 x,1/2-y,1/2+z
_cell_length_a                   10.7277(3)
_cell_length_b                   16.1476(5)
_cell_length_c                   17.3109(5)
_cell_angle_alpha                90
_cell_angle_beta                 107.671(2)
_cell_angle_gamma                90
_cell_volume                     2857.22
_exptl_crystal_colour            colorless
_exptl_crystal_description       block
_cell_formula_units_Z            4
_exptl_crystal_recrystallization_method 'ethyl acetate/petroleum ether'
loop_
_atom_site_label
_atom_site_type_symbol
_atom_site_fract_x
_atom_site_fract_y
_atom_site_fract_z
C1 C 0.5605(5) 1.1026(3) 0.0809(3)
H1 H 0.4925 1.0742 0.0957
H2 H 0.5308 1.1155 0.0241
H3 H 0.5823 1.1529 0.1116
C2 C 0.6797(4) 1.0481(3) 0.0986(2)
H4 H 0.6586 0.9991 0.0647
H5 H 0.7485 1.0777 0.0846
C3 C 0.7296(4) 1.0218(2) 0.1857(2)
C4 C 0.7612(3) 0.9620(2) 0.30584(19)
C5 C 0.6770(3) 0.9653(2) 0.22757(19)
C6 C 0.9700(4) 1.0424(3) 0.3756(3)
H6 H 0.9397 1.0573 0.4205
H7 H 1.0117 1.0893 0.3598
H8 H 1.0316 0.9977 0.3913
C7 C 0.7665(3) 0.91302(19) 0.37875(18)
C8 C 0.5482(3) 0.96134(19) 0.37330(17)
C9 C 0.6001(3) 1.0460(2) 0.39174(18)
C10 C 0.6964(3) 1.0615(2) 0.46510(19)
H9 H 0.7256 1.0188 0.5023
C11 C 0.7483(4) 1.1396(3) 0.4827(2)
H10 H 0.8112 1.1505 0.5320
C12 C 0.7058(4) 1.2011(2) 0.4263(3)
C13 C 0.6112(4) 1.1884(2) 0.3540(2)
H11 H 0.5830 1.2315 0.3173
C14 C 0.5585(3) 1.1101(2) 0.3366(2)
H12 H 0.4946 1.1003 0.2875
C15 C 0.4182(3) 0.9445(2) 0.34745(18)
C16 C 0.3269(3) 1.0107(2) 0.3428(2)
C17 C 0.3619(3) 0.8606(3) 0.3228(2)
C18 C 0.6330(3) 0.8337(2) 0.44703(19)
C19 C 0.7060(3) 0.7572(2) 0.44792(19)
C20 C 0.7445(4) 0.7138(2) 0.3903(2)
C21 C 0.8073(5) 0.6430(3) 0.4273(3)
C22 C 0.1713(16) 0.7798(7) 0.2921(11)
H13 H 0.2076 0.7451 0.2585
H14 H 0.1817 0.7522 0.3435
C23 C 0.0337(14) 0.7994(15) 0.2510(13)
H15 H -0.0021 0.8289 0.2876
H16 H -0.0145 0.7491 0.2343
H17 H 0.0275 0.8332 0.2044
C24 C 0.8921(8) 0.5836(4) 0.3948(5)
H18 H 0.8987 0.6030 0.3431
H19 H 0.9794 0.5793 0.4327
C25 C 0.8247(9) 0.5025(4) 0.3851(6)
H20 H 0.8184 0.4845 0.4366
H21 H 0.8735 0.4626 0.3650
H22 H 0.7385 0.5079 0.3474
C26 C 0.7327(5) 0.7275(3) 0.5962(2)
H23 H 0.6420 0.7356 0.5914
H24 H 0.7811 0.7764 0.6186
H25 H 0.7660 0.6812 0.6312
Cl1 Cl 0.53576(9) 0.91015(6) 0.18601(5)
Cl2 Cl 0.77506(16) 1.29995(8) 0.44793(10)
Cl3 Cl 0.71509(10) 0.73843(6) 0.29021(5)
N1 N 0.8404(3) 1.0541(2) 0.23522(19)
N2 N 0.8587(3) 1.01616(19) 0.30722(17)
N3 N 0.6432(2) 0.89762(15) 0.39096(14)
N4 N 0.2531(3) 1.0622(2) 0.3401(2)
N5 N 0.8081(4) 0.6418(2) 0.5053(2)
N6 N 0.7463(3) 0.71124(19) 0.51636(17)
O1 O 0.8667(2) 0.88843(15) 0.42578(14)
O2 O 0.4232(2) 0.79961(16) 0.31937(17)
O3 O 0.2329(2) 0.86236(17) 0.30416(18)
O4 O 0.5658(2) 0.84529(16) 0.48997(14)
C27? C 0.160(2) 0.7920(11) 0.2596(11)
C28? C 0.0535(17) 0.7807(15) 0.2940(10)
C29? C 0.8165(13) 0.5613(7) 0.3901(10)
C30? C 0.9573(15) 0.5544(12) 0.3871(14)
H26? H 0.1275 0.8040 0.2020
H27? H 0.2153 0.7430 0.2675
H28? H 0.0884 0.7667 0.3504
H29? H -0.0025 0.7369 0.2658
H30? H 0.0041 0.8311 0.2885
H31? H 0.7551 0.5582 0.3359
H32? H 0.7973 0.5170 0.4226
H33? H 0.9900 0.6086 0.3813
H34? H 0.9590 0.5206 0.3418
H35? H 1.0110 0.5296 0.4364
loop_
_geom_bond_atom_site_label_1
_geom_bond_atom_site_label_2
_geom_bond_site_symmetry_1
_geom_bond_site_symmetry_2
C1 H1 1_555 1_555
H2 C1 1_555 1_555
H3 C1 1_555 1_555
C2 C1 1_555 1_555
H4 C2 1_555 1_555
H5 C2 1_555 1_555
C3 C2 1_555 1_555
C4 C5 1_555 1_555
C5 C3 1_555 1_555
C6 H6 1_555 1_555
H7 C6 1_555 1_555
H8 C6 1_555 1_555
C7 C4 1_555 1_555
C8 C9 1_555 1_555
C9 C10 1_555 1_555
C10 H9 1_555 1_555
C11 C10 1_555 1_555
H10 C11 1_555 1_555
C12 C11 1_555 1_555
C13 C12 1_555 1_555
H11 C13 1_555 1_555
C14 C9 1_555 1_555
H12 C14 1_555 1_555
C15 C8 1_555 1_555
C16 C15 1_555 1_555
C17 C15 1_555 1_555
C18 C19 1_555 1_555
C19 C20 1_555 1_555
C20 C21 1_555 1_555
C21 C24 1_555 1_555
C22 H13 1_555 1_555
H14 C22 1_555 1_555
C23 C22 1_555 1_555
H15 C23 1_555 1_555
H16 C23 1_555 1_555
H17 C23 1_555 1_555
C24 H18 1_555 1_555
H19 C24 1_555 1_555
C25 C24 1_555 1_555
H20 C25 1_555 1_555
H21 C25 1_555 1_555
H22 C25 1_555 1_555
C26 H23 1_555 1_555
H24 C26 1_555 1_555
H25 C26 1_555 1_555
Cl1 C5 1_555 1_555
Cl2 C12 1_555 1_555
Cl3 C20 1_555 1_555
N1 C3 1_555 1_555
N2 C4 1_555 1_555
N3 C7 1_555 1_555
N4 C16 1_555 1_555
N5 C21 1_555 1_555
N6 C19 1_555 1_555
O1 C7 1_555 1_555
O2 C17 1_555 1_555
O3 C17 1_555 1_555
O4 C18 1_555 1_555
C6 N2 1_555 1_555
C8 N3 1_555 1_555
C13 C14 1_555 1_555
C18 N3 1_555 1_555
C22 O3 1_555 1_555
C26 N6 1_555 1_555
N1 N2 1_555 1_555
N5 N6 1_555 1_555

#END
