
#######################################################################
#
#                 Cambridge Crystallographic Data Centre
#                                CCDC 
#
#######################################################################
#
# If this CIF has been generated from an entry in the Cambridge 
# Structural Database, then it will include bibliographic, chemical, 
# crystal, experimental, refinement or atomic coordinate data resulting 
# from the CCDC's data processing and validation procedures.
#
#######################################################################

data_NORVEX
_chemical_formula_moiety         'C25 H22 N2'
_chemical_name_systematic        
(3-(2-(biphenyl-4-yl)vinyl)-5,5-dimethylcyclohex-2-en-1-ylidene)malononitrile
_symmetry_cell_setting           monoclinic
_symmetry_space_group_name_H-M   'P 21/c'
_symmetry_Int_Tables_number      14
_space_group_name_Hall           '-P 2ybc'
loop_
_symmetry_equiv_pos_site_id
_symmetry_equiv_pos_as_xyz
1 x,y,z
2 -x,1/2+y,1/2-z
3 -x,-y,-z
4 x,1/2-y,1/2+z
_cell_length_a                   5.9789(15)
_cell_length_b                   7.3765(18)
_cell_length_c                   43.952(11)
_cell_angle_alpha                90
_cell_angle_beta                 91.422(4)
_cell_angle_gamma                90
_cell_volume                     1937.83
_exptl_crystal_colour            yellow
_cell_formula_units_Z            4
loop_
_atom_site_label
_atom_site_type_symbol
_atom_site_fract_x
_atom_site_fract_y
_atom_site_fract_z
N1 N -0.5392(5) 0.0999(4) 0.11084(6)
N2 N -0.6022(4) 0.2756(4) 0.01715(6)
C1 C 1.0236(4) 0.6847(3) 0.27115(5)
H1 H 1.1025 0.7357 0.2547
C2 C 1.1214(4) 0.6869(3) 0.30024(6)
H2 H 1.2649 0.7396 0.3035
C3 C 1.0092(4) 0.6120(3) 0.32454(6)
H3 H 1.0758 0.6128 0.3444
C4 C 0.7989(5) 0.5359(4) 0.31960(6)
H4 H 0.7209 0.4853 0.3362
C5 C 0.7022(4) 0.5336(3) 0.29058(5)
H5 H 0.5590 0.4799 0.2875
C6 C 0.8119(4) 0.6090(3) 0.26557(5)
C7 C 0.7062(4) 0.6085(3) 0.23446(5)
C8 C 0.4978(4) 0.5236(3) 0.22892(5)
H6 H 0.4261 0.4646 0.2452
C9 C 0.3950(4) 0.5240(3) 0.20043(6)
H7 H 0.2545 0.4654 0.1976
C10 C 0.4948(4) 0.6096(3) 0.17558(5)
C11 C 0.7029(4) 0.6931(3) 0.18099(5)
H8 H 0.7751 0.7514 0.1647
C12 C 0.8052(4) 0.6922(3) 0.20962(5)
H9 H 0.9462 0.7501 0.2125
C13 C 0.3885(4) 0.6182(3) 0.14534(5)
H10 H 0.4588 0.6902 0.1304
C14 C 0.1981(4) 0.5316(4) 0.13706(6)
H11 H 0.1289 0.4600 0.1521
C15 C 0.0890(4) 0.5379(3) 0.10720(5)
C16 C -0.0925(4) 0.4306(4) 0.10184(6)
H12 H -0.1476 0.3605 0.1182
C17 C -0.2041(4) 0.4186(3) 0.07279(6)
C18 C -0.1103(4) 0.5250(4) 0.04691(5)
H13 H -0.2327 0.5536 0.0321
H14 H 0.0004 0.4492 0.0364
C19 C 0.0028(4) 0.7026(4) 0.05726(6)
C20 C 0.1762(4) 0.6602(4) 0.08262(5)
H15 H 0.3077 0.6019 0.0735
H16 H 0.2271 0.7755 0.0920
C21 C -0.1725(5) 0.8350(4) 0.06878(7)
H17 H -0.2833 0.8596 0.0525
H18 H -0.0994 0.9485 0.0750
H19 H -0.2472 0.7818 0.0863
C22 C 0.1225(5) 0.7848(5) 0.03032(6)
H20 H 0.0125 0.8158 0.0143
H21 H 0.2295 0.6968 0.0225
H22 H 0.2023 0.8945 0.0369
C23 C -0.3867(4) 0.3059(4) 0.06849(6)
C24 C -0.4712(4) 0.1949(4) 0.09225(6)
C25 C -0.5032(4) 0.2904(4) 0.03967(6)
loop_
_geom_bond_atom_site_label_1
_geom_bond_atom_site_label_2
_geom_bond_site_symmetry_1
_geom_bond_site_symmetry_2
N1 C24 1_555 1_555
N2 C25 1_555 1_555
C1 H1 1_555 1_555
C2 C1 1_555 1_555
H2 C2 1_555 1_555
C3 C2 1_555 1_555
H3 C3 1_555 1_555
C4 C3 1_555 1_555
H4 C4 1_555 1_555
C5 C4 1_555 1_555
H5 C5 1_555 1_555
C6 C1 1_555 1_555
C7 C6 1_555 1_555
C8 C7 1_555 1_555
H6 C8 1_555 1_555
C9 C8 1_555 1_555
H7 C9 1_555 1_555
C10 C9 1_555 1_555
C11 C10 1_555 1_555
H8 C11 1_555 1_555
C12 C7 1_555 1_555
H9 C12 1_555 1_555
C13 C10 1_555 1_555
H10 C13 1_555 1_555
C14 C13 1_555 1_555
H11 C14 1_555 1_555
C15 C14 1_555 1_555
C16 C15 1_555 1_555
H12 C16 1_555 1_555
C17 C16 1_555 1_555
C18 C17 1_555 1_555
H13 C18 1_555 1_555
H14 C18 1_555 1_555
C19 C18 1_555 1_555
C20 C15 1_555 1_555
H15 C20 1_555 1_555
H16 C20 1_555 1_555
C21 C19 1_555 1_555
H17 C21 1_555 1_555
H18 C21 1_555 1_555
H19 C21 1_555 1_555
C22 C19 1_555 1_555
H20 C22 1_555 1_555
H21 C22 1_555 1_555
H22 C22 1_555 1_555
C23 C17 1_555 1_555
C24 C23 1_555 1_555
C25 C23 1_555 1_555
C5 C6 1_555 1_555
C11 C12 1_555 1_555
C19 C20 1_555 1_555

#END
