
#######################################################################
#
#                 Cambridge Crystallographic Data Centre
#                                CCDC 
#
#######################################################################
#
# If this CIF has been generated from an entry in the Cambridge 
# Structural Database, then it will include bibliographic, chemical, 
# crystal, experimental, refinement or atomic coordinate data resulting 
# from the CCDC's data processing and validation procedures.
#
#######################################################################

data_NORVIB
_chemical_formula_moiety         'C31 H33 N3 O3 1+,0.5(C1 H4 O1),Br1 1-'
_chemical_name_systematic        
'1-[2-(4-methoxyphenyl)-2-oxoethyl]-2-methyl-3-[2-oxo-3-(1,3,3-trimethyl-1,3-dihydro-2H-indol-2-ylidene)propyl]-1H-3,1-benzimidazol-3-ium bromide methanol solvate'
_symmetry_cell_setting           monoclinic
_symmetry_space_group_name_H-M   'P 21/c'
_symmetry_Int_Tables_number      14
_space_group_name_Hall           '-P 2ybc'
loop_
_symmetry_equiv_pos_site_id
_symmetry_equiv_pos_as_xyz
1 x,y,z
2 -x,1/2+y,1/2-z
3 -x,-y,-z
4 x,1/2-y,1/2+z
_cell_length_a                   16.6110(16)
_cell_length_b                   14.920(2)
_cell_length_c                   12.644(2)
_cell_angle_alpha                90
_cell_angle_beta                 111.924(8)
_cell_angle_gamma                90
_cell_volume                     2907.01
_exptl_crystal_colour            yellow
_exptl_crystal_description       block
_cell_formula_units_Z            4
loop_
_atom_site_label
_atom_site_type_symbol
_atom_site_fract_x
_atom_site_fract_y
_atom_site_fract_z
O1 O 0.1041(2) -0.9806(3) 0.1029(3)
O2 O 0.1911(2) -0.6137(3) -0.0755(4)
O3 O 0.1997(2) -0.3165(2) -0.0665(4)
N1 N 0.3517(2) -0.5492(3) 0.0282(3)
N2 N 0.3535(2) -0.4024(3) 0.0351(3)
N3 N 0.2337(3) -0.0270(3) -0.1113(3)
C1 C 0.1530(4) -1.0349(4) 0.1999(5)
H1 H 0.1194 -1.0866 0.2029
H2 H 0.1660 -1.0005 0.2684
H3 H 0.2060 -1.0538 0.1930
C2 C 0.1405(3) -0.9042(3) 0.0843(4)
C3 C 0.0920(3) -0.8559(4) -0.0116(4)
H4 H 0.0373 -0.8763 -0.0581
C4 C 0.1238(3) -0.7787(4) -0.0387(4)
H5 H 0.0898 -0.7463 -0.1026
C5 C 0.2070(3) -0.7471(3) 0.0280(4)
C6 C 0.2539(3) -0.7961(3) 0.1255(5)
H6 H 0.3086 -0.7764 0.1728
C7 C 0.2206(3) -0.8732(4) 0.1531(4)
H7 H 0.2527 -0.9045 0.2190
C8 C 0.2387(3) -0.6643(4) -0.0037(4)
C9 C 0.3351(3) -0.6409(4) 0.0505(5)
H8 H 0.3550 -0.6501 0.1322
H9 H 0.3677 -0.6807 0.0208
C10 C 0.3820(3) -0.5192(4) -0.0546(4)
C11 C 0.4110(3) -0.5660(4) -0.1300(5)
H10 H 0.4128 -0.6283 -0.1327
C12 C 0.4371(4) -0.5106(7) -0.2005(5)
H11 H 0.4575 -0.5371 -0.2523
C13 C 0.4339(4) -0.4167(6) -0.1967(6)
H12 H 0.4503 -0.3833 -0.2475
C14 C 0.4078(3) -0.3737(5) -0.1219(5)
H13 H 0.4072 -0.3115 -0.1182
C15 C 0.3818(3) -0.4261(4) -0.0507(4)
C16 C 0.3345(3) -0.4769(4) 0.0791(4)
C17 C 0.2986(4) -0.4801(4) 0.1698(5)
H14 H 0.2919 -0.4202 0.1930
H15 H 0.3375 -0.5128 0.2340
H16 H 0.2432 -0.5094 0.1414
C18 C 0.3452(3) -0.3106(3) 0.0670(5)
H17 H 0.3954 -0.2764 0.0691
H18 H 0.3430 -0.3094 0.1425
C19 C 0.2623(3) -0.2677(4) -0.0189(5)
C20 C 0.2708(3) -0.1737(3) -0.0334(5)
H19 H 0.3230 -0.1484 0.0140
C21 C 0.2130(3) -0.1153(3) -0.1070(4)
C22 C 0.1211(3) -0.1307(3) -0.1932(4)
C23 C 0.0598(3) -0.1578(4) -0.1343(5)
H20 H 0.0624 -0.1139 -0.0775
H21 H 0.0769 -0.2152 -0.0985
H22 H 0.0016 -0.1613 -0.1896
C24 C 0.1199(4) -0.1985(4) -0.2844(5)
H23 H 0.1592 -0.1794 -0.3196
H24 H 0.0623 -0.2025 -0.3411
H25 H 0.1375 -0.2561 -0.2498
C25 C 0.0989(3) -0.0386(3) -0.2451(4)
C26 C 0.0233(4) -0.0070(4) -0.3304(5)
H26 H -0.0246 -0.0170 -0.3055
H27 H 0.0126 -0.0435 -0.3978
C27 C 0.0212(5) 0.0831(5) -0.3628(6)
H28 H -0.0291 0.1059 -0.4180
C28 C 0.0911(5) 0.1386(5) -0.3151(6)
H29 H 0.0881 0.1976 -0.3400
C29 C 0.1665(4) 0.1079(4) -0.2300(5)
H30 H 0.2145 0.1450 -0.1977
C30 C 0.1673(3) 0.0199(4) -0.1954(4)
C31 C 0.3150(4) 0.0131(4) -0.0360(5)
H31 H 0.3501 -0.0317 0.0149
H32 H 0.3029 0.0604 0.0075
H33 H 0.3456 0.0372 -0.0808
Br1 Br 0.55540(4) -0.18346(4) 0.12110(5)
O4 O 0.4836(6) -0.3259(6) 0.3256(7)
C32 C 0.4681(9) -0.4226(15) 0.3777(13)
loop_
_geom_bond_atom_site_label_1
_geom_bond_atom_site_label_2
_geom_bond_site_symmetry_1
_geom_bond_site_symmetry_2
O1 C1 1_555 1_555
O2 C8 1_555 1_555
O3 C19 1_555 1_555
N1 C9 1_555 1_555
N2 C15 1_555 1_555
N3 C21 1_555 1_555
C1 H1 1_555 1_555
H2 C1 1_555 1_555
H3 C1 1_555 1_555
C2 O1 1_555 1_555
C3 C2 1_555 1_555
H4 C3 1_555 1_555
C4 C3 1_555 1_555
H5 C4 1_555 1_555
C5 C4 1_555 1_555
C6 C5 1_555 1_555
H6 C6 1_555 1_555
C7 C2 1_555 1_555
H7 C7 1_555 1_555
C8 C5 1_555 1_555
C9 C8 1_555 1_555
H8 C9 1_555 1_555
H9 C9 1_555 1_555
C10 N1 1_555 1_555
C11 C10 1_555 1_555
H10 C11 1_555 1_555
C12 C11 1_555 1_555
H11 C12 1_555 1_555
C13 C12 1_555 1_555
H12 C13 1_555 1_555
C14 C13 1_555 1_555
H13 C14 1_555 1_555
C15 C10 1_555 1_555
C16 N1 1_555 1_555
C17 C16 1_555 1_555
H14 C17 1_555 1_555
H15 C17 1_555 1_555
H16 C17 1_555 1_555
C18 N2 1_555 1_555
H17 C18 1_555 1_555
H18 C18 1_555 1_555
C19 C18 1_555 1_555
C20 C19 1_555 1_555
H19 C20 1_555 1_555
C21 C20 1_555 1_555
C22 C21 1_555 1_555
C23 C22 1_555 1_555
H20 C23 1_555 1_555
H21 C23 1_555 1_555
H22 C23 1_555 1_555
C24 C22 1_555 1_555
H23 C24 1_555 1_555
H24 C24 1_555 1_555
H25 C24 1_555 1_555
C25 C22 1_555 1_555
C26 C25 1_555 1_555
H26 C26 1_555 1_555
H27 C26 1_555 1_555
C27 C26 1_555 1_555
H28 C27 1_555 1_555
C28 C27 1_555 1_555
H29 C28 1_555 1_555
C29 C28 1_555 1_555
H30 C29 1_555 1_555
C30 N3 1_555 1_555
C31 N3 1_555 1_555
H31 C31 1_555 1_555
H32 C31 1_555 1_555
H33 C31 1_555 1_555
O4 C32 1_555 1_555
N2 C16 1_555 1_555
C6 C7 1_555 1_555
C14 C15 1_555 1_555
C25 C30 1_555 1_555
C29 C30 1_555 1_555

#END
