
#######################################################################
#
#                 Cambridge Crystallographic Data Centre
#                                CCDC 
#
#######################################################################
#
# If this CIF has been generated from an entry in the Cambridge 
# Structural Database, then it will include bibliographic, chemical, 
# crystal, experimental, refinement or atomic coordinate data resulting 
# from the CCDC's data processing and validation procedures.
#
#######################################################################

data_NORWEY
_chemical_name_common            
'TVBox octakis(hexafluorophosphate) acetonitrile solvate'
_chemical_formula_moiety         'C68 H56 N8 8+,8(F6 P1 1-),0.5(C2 H3 N1)'
_chemical_name_systematic        
'1,4,9,12(1,4)-2,5,10,13(4,1)-Octapyridina-3,7,11,15(1,4)-tetrabenzenacyclohexadecaphane octakis(hexafluorophosphate) acetonitrile solvate'
_symmetry_cell_setting           monoclinic
_symmetry_space_group_name_H-M   'C 2/c'
_symmetry_Int_Tables_number      15
_space_group_name_Hall           '-C 2yn'
loop_
_symmetry_equiv_pos_site_id
_symmetry_equiv_pos_as_xyz
1 x,y,z
2 -x,y,1/2-z
3 1/2+x,1/2+y,z
4 1/2-x,1/2+y,1/2-z
5 -x,-y,-z
6 x,-y,1/2+z
7 1/2-x,1/2-y,-z
8 1/2+x,1/2-y,1/2+z
_cell_length_a                   53.047(3)
_cell_length_b                   13.8933(7)
_cell_length_c                   23.3837(11)
_cell_angle_alpha                90
_cell_angle_beta                 107.888(3)
_cell_angle_gamma                90
_cell_volume                     16400.6
_exptl_crystal_colour            colorless
_exptl_crystal_description       plate
_cell_formula_units_Z            8
_exptl_crystal_recrystallization_method 'di-isopropyl ether/acetonitrile'
loop_
_atom_site_label
_atom_site_type_symbol
_atom_site_fract_x
_atom_site_fract_y
_atom_site_fract_z
N1 N 0.42730(7) -0.2343(2) 0.10876(15)
N2 N 0.29413(7) -0.2803(2) 0.08906(15)
N3 N 0.33257(7) -0.2923(2) 0.36437(15)
N4 N 0.46503(7) -0.2504(3) 0.37674(16)
C1 C 0.40966(9) -0.1812(3) 0.0670(2)
H1 H 0.4157 -0.1402 0.0413
C2 C 0.38321(9) -0.1854(3) 0.0609(2)
H2 H 0.3710 -0.1475 0.0312
C3 C 0.37418(8) -0.2453(3) 0.09842(18)
C4 C 0.39312(9) -0.2968(3) 0.1424(2)
H3 H 0.3877 -0.3368 0.1694
C5 C 0.41912(9) -0.2903(3) 0.14678(19)
H4 H 0.4318 -0.3257 0.1771
C6 C 0.34573(8) -0.2573(3) 0.09148(18)
C7 C 0.32767(8) -0.1821(3) 0.07360(18)
H5 H 0.3331 -0.1222 0.0619
C8 C 0.30197(8) -0.1950(3) 0.07302(18)
H6 H 0.2896 -0.1436 0.0613
C9 C 0.31101(8) -0.3552(3) 0.10439(18)
H7 H 0.3049 -0.4151 0.1146
C10 C 0.33666(9) -0.3459(3) 0.10540(19)
H8 H 0.3483 -0.3994 0.1155
C11 C 0.26723(8) -0.2918(3) 0.09696(19)
H9 H 0.2588 -0.3520 0.0777
H10 H 0.2557 -0.2369 0.0784
C12 C 0.27132(8) -0.2948(3) 0.16391(19)
C13 C 0.27590(8) -0.2089(3) 0.19688(19)
H11 H 0.2730 -0.1489 0.1765
C14 C 0.28460(8) -0.2113(3) 0.25840(19)
H12 H 0.2875 -0.1528 0.2805
C15 C 0.28919(8) -0.2991(3) 0.28896(19)
C16 C 0.28289(8) -0.3841(3) 0.25630(19)
H13 H 0.2847 -0.4439 0.2769
C17 C 0.27402(8) -0.3824(3) 0.19391(19)
H14 H 0.2698 -0.4408 0.1719
C18 C 0.30341(8) -0.3014(3) 0.35548(19)
H15 H 0.2973 -0.2476 0.3757
H16 H 0.2997 -0.3627 0.3729
C19 C 0.34558(9) -0.3688(3) 0.3517(2)
H17 H 0.3366 -0.4284 0.3410
C20 C 0.37158(9) -0.3617(3) 0.3540(2)
H18 H 0.3807 -0.4164 0.3458
C21 C 0.38461(8) -0.2743(3) 0.36843(18)
C22 C 0.37068(8) -0.1963(3) 0.38085(19)
H19 H 0.3791 -0.1357 0.3908
C23 C 0.34478(9) -0.2071(3) 0.37877(19)
H20 H 0.3354 -0.1539 0.3876
C24 C 0.41273(8) -0.2656(3) 0.37039(18)
C25 C 0.43161(9) -0.3272(3) 0.40745(19)
H21 H 0.4264 -0.3747 0.4308
C26 C 0.45756(9) -0.3184(3) 0.40980(19)
H22 H 0.4705 -0.3603 0.4348
C27 C 0.44708(9) -0.1907(3) 0.34012(18)
H23 H 0.4527 -0.1439 0.3170
C28 C 0.42072(8) -0.1971(3) 0.33607(19)
H24 H 0.4081 -0.1553 0.3102
C29 C 0.49213(5) -0.2404(3) 0.37947(16)
C30 C 0.54540(5) -0.2326(3) 0.38681(16)
C31 C 0.50570(14) -0.1599(5) 0.3928(4)
H25 H 0.4971 -0.1033 0.4002
C32 C 0.53229(13) -0.1555(5) 0.3963(4)
H26 H 0.5414 -0.0959 0.4057
C33 C 0.53262(14) -0.3274(5) 0.3806(4)
H27 H 0.5423 -0.3843 0.3792
C34 C 0.50602(14) -0.3319(5) 0.3766(4)
H28 H 0.4970 -0.3919 0.3723
N1A N 0.57270(7) -0.2343(2) 0.39124(15)
N2A N 0.70587(7) -0.2803(2) 0.41094(15)
N3A N 0.66743(7) -0.2923(2) 0.13563(15)
N4A N 0.53497(7) -0.2504(3) 0.12326(16)
C1A C 0.59034(9) -0.1812(3) 0.4330(2)
H1A H 0.5843 -0.1402 0.4587
C2A C 0.61679(9) -0.1854(3) 0.4391(2)
H2A H 0.6290 -0.1475 0.4688
C3A C 0.62582(8) -0.2453(3) 0.40158(18)
C4A C 0.60688(9) -0.2968(3) 0.3576(2)
H3A H 0.6123 -0.3368 0.3306
C5A C 0.58088(9) -0.2903(3) 0.35322(19)
H4A H 0.5682 -0.3257 0.3229
C6A C 0.65427(8) -0.2573(3) 0.40852(18)
C7A C 0.67233(8) -0.1821(3) 0.42640(18)
H5A H 0.6669 -0.1222 0.4381
C8A C 0.69803(8) -0.1950(3) 0.42698(18)
H6A H 0.7104 -0.1436 0.4387
C9A C 0.68899(8) -0.3552(3) 0.39561(18)
H7A H 0.6951 -0.4151 0.3854
C10A C 0.66334(9) -0.3459(3) 0.39460(19)
H8A H 0.6517 -0.3994 0.3845
C11A C 0.73277(8) -0.2918(3) 0.40304(19)
H9A H 0.7412 -0.3520 0.4223
H10A H 0.7443 -0.2369 0.4216
C12A C 0.72868(8) -0.2948(3) 0.33609(19)
C13A C 0.72410(8) -0.2089(3) 0.30312(19)
H11A H 0.7270 -0.1489 0.3235
C14A C 0.71540(8) -0.2113(3) 0.24160(19)
H12A H 0.7125 -0.1528 0.2195
C15A C 0.71081(8) -0.2991(3) 0.21104(19)
C16A C 0.71711(8) -0.3841(3) 0.24370(19)
H13A H 0.7153 -0.4439 0.2231
C17A C 0.72598(8) -0.3824(3) 0.30609(19)
H14A H 0.7302 -0.4408 0.3281
C18A C 0.69659(8) -0.3014(3) 0.14452(19)
H15A H 0.7027 -0.2476 0.1243
H16A H 0.7003 -0.3627 0.1271
C19A C 0.65442(9) -0.3688(3) 0.1483(2)
H17A H 0.6634 -0.4284 0.1590
C20A C 0.62842(9) -0.3617(3) 0.1460(2)
H18A H 0.6193 -0.4164 0.1542
C21A C 0.61539(8) -0.2743(3) 0.13157(18)
C22A C 0.62932(8) -0.1963(3) 0.11915(19)
H19A H 0.6209 -0.1357 0.1092
C23A C 0.65522(9) -0.2071(3) 0.12123(19)
H20A H 0.6646 -0.1539 0.1124
C24A C 0.58727(8) -0.2656(3) 0.12961(18)
C25A C 0.56839(9) -0.3272(3) 0.09255(19)
H21A H 0.5736 -0.3747 0.0692
C26A C 0.54244(9) -0.3184(3) 0.09020(19)
H22A H 0.5295 -0.3603 0.0652
C27A C 0.55292(9) -0.1907(3) 0.15988(18)
H23A H 0.5473 -0.1439 0.1830
C28A C 0.57928(8) -0.1971(3) 0.16393(19)
H24A H 0.5919 -0.1553 0.1898
C29A C 0.50787(5) -0.2404(3) 0.12053(16)
C30A C 0.45460(5) -0.2326(3) 0.11319(16)
C31A C 0.49430(14) -0.1599(5) 0.1072(4)
H25A H 0.5029 -0.1033 0.0998
C32A C 0.46771(13) -0.1555(5) 0.1037(4)
H26A H 0.4586 -0.0959 0.0943
C33A C 0.46738(14) -0.3274(5) 0.1194(4)
H27A H 0.4577 -0.3843 0.1208
C34A C 0.49398(14) -0.3319(5) 0.1234(4)
H28A H 0.5030 -0.3919 0.1277
N5 N 0.45497(7) 0.2545(2) 0.37063(16)
N6 N 0.32240(7) 0.2181(2) 0.35965(15)
N7 N 0.30257(7) 0.2283(2) 0.08705(15)
N8 N 0.43682(7) 0.2456(2) 0.11119(16)
C35 C 0.44603(8) 0.3124(3) 0.40678(19)
H29 H 0.4579 0.3559 0.4332
C36 C 0.42016(8) 0.3087(3) 0.40540(19)
H30 H 0.4141 0.3497 0.4309
C37 C 0.40256(8) 0.2454(3) 0.36692(18)
C38 C 0.41205(8) 0.1898(3) 0.32813(19)
H31 H 0.4004 0.1483 0.2998
C39 C 0.43813(9) 0.1953(3) 0.33109(19)
H32 H 0.4445 0.1569 0.3049
C40 C 0.37493(8) 0.2352(3) 0.36782(18)
C41 C 0.36095(8) 0.3127(3) 0.38009(18)
H33 H 0.3696 0.3727 0.3917
C42 C 0.33475(9) 0.3028(3) 0.37554(18)
H34 H 0.3252 0.3562 0.3837
C43 C 0.33586(9) 0.1395(3) 0.3513(2)
H35 H 0.3271 0.0792 0.3426
C44 C 0.36205(8) 0.1461(3) 0.35538(19)
H36 H 0.3715 0.0906 0.3498
C45 C 0.29273(8) 0.2119(3) 0.34209(19)
H37 H 0.2855 0.2669 0.3591
H38 H 0.2873 0.1514 0.3574
C46 C 0.28257(8) 0.2143(3) 0.27404(19)
C47 C 0.27942(8) 0.1285(3) 0.24165(19)
H39 H 0.2804 0.0687 0.2618
C48 C 0.27489(8) 0.1304(3) 0.18024(19)
H40 H 0.2727 0.0718 0.1583
C49 C 0.27349(8) 0.2181(3) 0.15037(19)
C50 C 0.27468(8) 0.3030(3) 0.1825(2)
H41 H 0.2723 0.3630 0.1620
C51 C 0.27920(8) 0.3010(3) 0.2437(2)
H42 H 0.2800 0.3596 0.2651
C52 C 0.27427(8) 0.2208(3) 0.08634(19)
H43 H 0.2662 0.1616 0.0649
H44 H 0.2641 0.2769 0.0651
C53 C 0.31165(9) 0.3076(3) 0.06669(19)
H45 H 0.2998 0.3586 0.0497
C54 C 0.33785(8) 0.3155(3) 0.07026(18)
H46 H 0.3443 0.3722 0.0567
C55 C 0.35497(8) 0.2395(3) 0.09406(18)
C56 C 0.34515(8) 0.1579(3) 0.11393(18)
H47 H 0.3565 0.1051 0.1300
C57 C 0.31893(8) 0.1540(3) 0.11021(18)
H48 H 0.3122 0.0984 0.1241
C58 C 0.38366(8) 0.2435(3) 0.09992(18)
C59 C 0.39435(9) 0.1784(3) 0.0682(2)
H49 H 0.3832 0.1324 0.0423
C60 C 0.42073(9) 0.1807(3) 0.0744(2)
H50 H 0.4279 0.1363 0.0527
C61 C 0.42699(8) 0.3084(3) 0.14324(19)
H51 H 0.4386 0.3526 0.1697
C62 C 0.40068(8) 0.3091(3) 0.13806(18)
H52 H 0.3940 0.3540 0.1603
C63 C 0.46489(8) 0.2481(3) 0.11672(18)
C64 C 0.47777(17) 0.1648(6) 0.1201(4)
H53 H 0.4690 0.1051 0.1194
C65 C 0.50427(17) 0.1681(6) 0.1245(4)
H54 H 0.5138 0.1095 0.1275
C66 C 0.51719(8) 0.2532(3) 0.12469(19)
C67 C 0.50193(16) 0.3409(6) 0.1118(4)
H55 H 0.5100 0.3996 0.1062
C68 C 0.47554(17) 0.3387(6) 0.1078(4)
H56 H 0.4649 0.3951 0.0995
N5A N 0.54503(7) 0.2545(2) 0.12937(16)
N6A N 0.67760(7) 0.2181(2) 0.14035(15)
N7A N 0.69743(7) 0.2283(2) 0.41295(15)
N8A N 0.56318(7) 0.2456(2) 0.38881(16)
C35A C 0.55397(8) 0.3124(3) 0.09322(19)
H29A H 0.5421 0.3559 0.0668
C36A C 0.57984(8) 0.3087(3) 0.09460(19)
H30A H 0.5859 0.3497 0.0691
C37A C 0.59744(8) 0.2454(3) 0.13308(18)
C38A C 0.58795(8) 0.1898(3) 0.17187(19)
H31A H 0.5996 0.1483 0.2002
C39A C 0.56187(9) 0.1953(3) 0.16891(19)
H32A H 0.5555 0.1569 0.1951
C40A C 0.62507(8) 0.2352(3) 0.13218(18)
C41A C 0.63905(8) 0.3127(3) 0.11991(18)
H33A H 0.6304 0.3727 0.1083
C42A C 0.66525(9) 0.3028(3) 0.12446(18)
H34A H 0.6748 0.3562 0.1163
C43A C 0.66414(9) 0.1395(3) 0.1487(2)
H35A H 0.6729 0.0792 0.1574
C44A C 0.63795(8) 0.1461(3) 0.14462(19)
H36A H 0.6285 0.0906 0.1502
C45A C 0.70727(8) 0.2119(3) 0.15791(19)
H37A H 0.7145 0.2669 0.1409
H38A H 0.7127 0.1514 0.1426
C46A C 0.71743(8) 0.2143(3) 0.22596(19)
C47A C 0.72058(8) 0.1285(3) 0.25835(19)
H39A H 0.7196 0.0687 0.2382
C48A C 0.72511(8) 0.1304(3) 0.31976(19)
H40A H 0.7273 0.0718 0.3417
C49A C 0.72651(8) 0.2181(3) 0.34963(19)
C50A C 0.72532(8) 0.3030(3) 0.3175(2)
H41A H 0.7277 0.3630 0.3380
C51A C 0.72080(8) 0.3010(3) 0.2563(2)
H42A H 0.7200 0.3596 0.2349
C52A C 0.72573(8) 0.2208(3) 0.41366(19)
H43A H 0.7338 0.1616 0.4351
H44A H 0.7359 0.2769 0.4349
C53A C 0.68835(9) 0.3076(3) 0.43331(19)
H45A H 0.7002 0.3586 0.4503
C54A C 0.66215(8) 0.3155(3) 0.42974(18)
H46A H 0.6557 0.3722 0.4433
C55A C 0.64503(8) 0.2395(3) 0.40594(18)
C56A C 0.65485(8) 0.1579(3) 0.38607(18)
H47A H 0.6435 0.1051 0.3700
C57A C 0.68107(8) 0.1540(3) 0.38979(18)
H48A H 0.6878 0.0984 0.3759
C58A C 0.61634(8) 0.2435(3) 0.40008(18)
C59A C 0.60565(9) 0.1784(3) 0.4318(2)
H49A H 0.6168 0.1324 0.4577
C60A C 0.57927(9) 0.1807(3) 0.4256(2)
H50A H 0.5721 0.1363 0.4473
C61A C 0.57301(8) 0.3084(3) 0.35676(19)
H51A H 0.5614 0.3526 0.3303
C62A C 0.59932(8) 0.3091(3) 0.36194(18)
H52A H 0.6060 0.3540 0.3397
C63A C 0.53511(8) 0.2481(3) 0.38328(18)
C64A C 0.52223(17) 0.1648(6) 0.3799(4)
H53A H 0.5310 0.1051 0.3806
C65A C 0.49573(17) 0.1681(6) 0.3755(4)
H54A H 0.4862 0.1095 0.3725
C66A C 0.48281(8) 0.2532(3) 0.37531(19)
C67A C 0.49807(16) 0.3409(6) 0.3882(4)
H55A H 0.4900 0.3996 0.3938
C68A C 0.52446(17) 0.3387(6) 0.3922(4)
H56A H 0.5351 0.3951 0.4005
P1 P 0.28144(2) 0.53149(8) -0.05067(5)
F1 F 0.31175(6) 0.5092(2) -0.01993(17)
F2 F 0.25051(5) 0.5532(2) -0.08062(14)
F3 F 0.27649(6) 0.5221(2) 0.01323(12)
F4 F 0.28720(6) 0.64445(18) -0.04004(12)
F5 F 0.28567(7) 0.5407(2) -0.11509(13)
F6 F 0.27539(5) 0.41902(17) -0.06170(11)
P2 P 0.39593(3) 0.49854(8) 0.01474(6)
F7 F 0.41447(16) 0.5860(5) 0.0331(3)
F8 F 0.37399(11) 0.4124(4) -0.0050(3)
F9 F 0.38728(10) 0.4954(2) 0.0719(2)
F10 F 0.37178(12) 0.5739(4) -0.0059(3)
F11 F 0.40131(10) 0.5020(2) -0.04663(15)
F12 F 0.41836(11) 0.4189(4) 0.0339(2)
P3 P 0.34485(2) 0.44192(8) 0.22605(5)
F13 F 0.37116(5) 0.43660(19) 0.28222(12)
F14 F 0.31820(5) 0.44797(18) 0.16988(12)
F15 F 0.32725(5) 0.43955(18) 0.27126(11)
F16 F 0.34542(5) 0.55728(17) 0.22957(11)
F17 F 0.36210(5) 0.44648(19) 0.18056(12)
F18 F 0.34385(5) 0.32739(18) 0.22183(12)
P4 P 0.44433(3) 0.50397(8) 0.27246(6)
F19 F 0.45742(7) 0.6081(2) 0.27185(14)
F20 F 0.43095(7) 0.4015(2) 0.27352(14)
F21 F 0.45800(7) 0.4981(2) 0.34266(13)
F22 F 0.41997(8) 0.5565(3) 0.2843(2)
F23 F 0.42969(9) 0.5110(2) 0.20258(16)
F24 F 0.46830(8) 0.4519(3) 0.26005(17)
P5 P 0.29699(2) 0.03358(8) -0.04882(5)
F25 F 0.32227(13) 0.1029(6) -0.0255(2)
F26 F 0.27295(12) -0.0336(6) -0.0753(2)
F27 F 0.27907(17) 0.1256(5) -0.0545(2)
F28 F 0.29834(6) 0.0484(2) -0.11620(11)
F29 F 0.29604(6) 0.01777(19) 0.01793(11)
F30 F 0.31698(13) -0.0535(4) -0.0448(2)
P6 P 0.34438(2) -0.05430(8) 0.22986(5)
F31 F 0.37230(5) -0.05386(19) 0.28236(12)
F32 F 0.31626(5) -0.05218(18) 0.17818(12)
F33 F 0.32936(5) -0.05152(17) 0.28028(12)
F34 F 0.34487(5) 0.06134(17) 0.22965(11)
F35 F 0.35917(5) -0.05621(19) 0.17974(12)
F36 F 0.34374(5) -0.16921(18) 0.23065(12)
P7 P 0.43791(3) 0.00041(8) 0.20863(5)
F37 F 0.42041(15) -0.0261(6) 0.2466(3)
F38 F 0.46157(15) 0.0230(5) 0.2709(3)
F39 F 0.41757(16) -0.0208(6) 0.1473(2)
F40 F 0.43060(17) 0.1109(4) 0.2060(3)
F41 F 0.45969(14) 0.0327(5) 0.1741(3)
F42 F 0.45211(13) -0.1056(3) 0.2136(2)
P8 P 0.44173(3) 0.00053(8) 0.45842(5)
F43 F 0.44432(13) 0.1121(3) 0.4616(2)
F44 F 0.43929(15) -0.1169(3) 0.4592(2)
F45 F 0.42344(17) 0.0035(4) 0.5029(3)
F46 F 0.41604(10) 0.0024(4) 0.4032(3)
F47 F 0.45990(11) -0.0095(5) 0.4164(2)
F48 F 0.46757(15) -0.0102(4) 0.5168(2)
N9 N 0.4867(2) 0.5097(7) 0.0110(5)
C69 C 0.4819(2) 0.5092(7) 0.0579(5)
C70 C 0.4767(2) 0.5104(7) 0.1147(5)
H57 H 0.4576 0.5115 0.1079
H58 H 0.4848 0.5679 0.1372
H59 H 0.4844 0.4528 0.1376
C71? C 0.51140(7) -0.2368(4) 0.43529(13)
H60? H 0.5064 -0.2370 0.4709
C72? C 0.53804(6) -0.2329(4) 0.43896(12)
H61? H 0.5512 -0.2304 0.4771
C73? C 0.52612(7) -0.2362(4) 0.33099(13)
H62? H 0.5311 -0.2360 0.2953
C74? C 0.49949(6) -0.2401(4) 0.32731(13)
H63? H 0.4863 -0.2426 0.2892
C75? C 0.47270(15) 0.2418(7) 0.0670(4)
H64? H 0.4597 0.2367 0.0287
C76? C 0.49888(12) 0.2427(6) 0.0707(3)
H65? H 0.5041 0.2359 0.0355
C77? C 0.51084(18) 0.2528(6) 0.1797(4)
H66? H 0.5241 0.2543 0.2177
C78? C 0.48379(16) 0.2502(6) 0.1738(3)
H67? H 0.4782 0.2498 0.2087
F49? F 0.42323(11) 0.4928(5) 0.0606(3)
F50? F 0.36490(11) 0.5082(7) -0.0265(4)
F51? F 0.39882(17) 0.6135(3) 0.0186(3)
F52? F 0.39447(18) 0.3853(3) 0.0073(3)
F53? F 0.2992(4) 0.1440(5) -0.0397(5)
F54? F 0.2922(3) -0.0791(5) -0.0542(4)
F55? F 0.26553(14) 0.0442(13) -0.0735(5)
F56? F 0.32729(13) 0.0170(12) -0.0194(5)
F57? F 0.42750(12) -0.1109(3) 0.2086(2)
F58? F 0.46339(13) -0.0238(6) 0.2594(4)
F59? F 0.41046(19) 0.0187(6) 0.1556(5)
F60? F 0.42225(19) 0.0175(6) 0.2559(4)
F61? F 0.44456(17) 0.1096(4) 0.2087(4)
F62? F 0.4482(2) -0.0225(5) 0.1559(4)
F63? F 0.44939(13) 0.0063(4) 0.52860(19)
F64? F 0.43222(16) 0.0029(4) 0.3856(2)
F65? F 0.41955(11) 0.0856(4) 0.4540(3)
F66? F 0.46205(13) 0.0868(5) 0.4575(3)
F67? F 0.46277(14) -0.0773(5) 0.4593(3)
F68? F 0.41927(13) -0.0761(4) 0.4551(3)
loop_
_geom_bond_atom_site_label_1
_geom_bond_atom_site_label_2
_geom_bond_site_symmetry_1
_geom_bond_site_symmetry_2
N1 C1 1_555 1_555
N2 C8 1_555 1_555
N3 C18 1_555 1_555
N4 C26 1_555 1_555
C1 H1 1_555 1_555
C2 C1 1_555 1_555
H2 C2 1_555 1_555
C3 C2 1_555 1_555
C4 C3 1_555 1_555
H3 C4 1_555 1_555
C5 N1 1_555 1_555
H4 C5 1_555 1_555
C6 C3 1_555 1_555
C7 C6 1_555 1_555
H5 C7 1_555 1_555
C8 C7 1_555 1_555
H6 C8 1_555 1_555
C9 N2 1_555 1_555
H7 C9 1_555 1_555
C10 C6 1_555 1_555
H8 C10 1_555 1_555
C11 N2 1_555 1_555
H9 C11 1_555 1_555
H10 C11 1_555 1_555
C12 C11 1_555 1_555
C13 C12 1_555 1_555
H11 C13 1_555 1_555
C14 C13 1_555 1_555
H12 C14 1_555 1_555
C15 C14 1_555 1_555
C16 C15 1_555 1_555
H13 C16 1_555 1_555
C17 C12 1_555 1_555
H14 C17 1_555 1_555
C18 C15 1_555 1_555
H15 C18 1_555 1_555
H16 C18 1_555 1_555
C19 N3 1_555 1_555
H17 C19 1_555 1_555
C20 C19 1_555 1_555
H18 C20 1_555 1_555
C21 C20 1_555 1_555
C22 C21 1_555 1_555
H19 C22 1_555 1_555
C23 N3 1_555 1_555
H20 C23 1_555 1_555
C24 C21 1_555 1_555
C25 C24 1_555 1_555
H21 C25 1_555 1_555
C26 C25 1_555 1_555
H22 C26 1_555 1_555
C27 N4 1_555 1_555
H23 C27 1_555 1_555
C28 C24 1_555 1_555
H24 C28 1_555 1_555
C29 N4 1_555 1_555
C30 C32 1_555 1_555
C31 C29 1_555 1_555
H25 C31 1_555 1_555
C32 C31 1_555 1_555
H26 C32 1_555 1_555
C33 C30 1_555 1_555
H27 C33 1_555 1_555
C34 C29 1_555 1_555
H28 C34 1_555 1_555
N5 C35 1_555 1_555
N6 C42 1_555 1_555
N7 C52 1_555 1_555
N8 C60 1_555 1_555
C35 H29 1_555 1_555
C36 C35 1_555 1_555
H30 C36 1_555 1_555
C37 C36 1_555 1_555
C38 C37 1_555 1_555
H31 C38 1_555 1_555
C39 N5 1_555 1_555
H32 C39 1_555 1_555
C40 C37 1_555 1_555
C41 C40 1_555 1_555
H33 C41 1_555 1_555
C42 C41 1_555 1_555
H34 C42 1_555 1_555
C43 N6 1_555 1_555
H35 C43 1_555 1_555
C44 C40 1_555 1_555
H36 C44 1_555 1_555
C45 N6 1_555 1_555
H37 C45 1_555 1_555
H38 C45 1_555 1_555
C46 C45 1_555 1_555
C47 C46 1_555 1_555
H39 C47 1_555 1_555
C48 C47 1_555 1_555
H40 C48 1_555 1_555
C49 C48 1_555 1_555
C50 C49 1_555 1_555
H41 C50 1_555 1_555
C51 C46 1_555 1_555
H42 C51 1_555 1_555
C52 C49 1_555 1_555
H43 C52 1_555 1_555
H44 C52 1_555 1_555
C53 N7 1_555 1_555
H45 C53 1_555 1_555
C54 C53 1_555 1_555
H46 C54 1_555 1_555
C55 C54 1_555 1_555
C56 C55 1_555 1_555
H47 C56 1_555 1_555
C57 N7 1_555 1_555
H48 C57 1_555 1_555
C58 C55 1_555 1_555
C59 C58 1_555 1_555
H49 C59 1_555 1_555
C60 C59 1_555 1_555
H50 C60 1_555 1_555
C61 N8 1_555 1_555
H51 C61 1_555 1_555
C62 C58 1_555 1_555
H52 C62 1_555 1_555
C63 N8 1_555 1_555
C64 C63 1_555 1_555
H53 C64 1_555 1_555
C65 C64 1_555 1_555
H54 C65 1_555 1_555
C66 C65 1_555 1_555
C67 C66 1_555 1_555
H55 C67 1_555 1_555
C68 C63 1_555 1_555
H56 C68 1_555 1_555
P1 F1 1_555 1_555
F2 P1 1_555 1_555
F3 P1 1_555 1_555
F4 P1 1_555 1_555
F5 P1 1_555 1_555
F6 P1 1_555 1_555
P2 F7 1_555 1_555
F8 P2 1_555 1_555
F9 P2 1_555 1_555
F10 P2 1_555 1_555
F11 P2 1_555 1_555
F12 P2 1_555 1_555
P3 F13 1_555 1_555
F14 P3 1_555 1_555
F15 P3 1_555 1_555
F16 P3 1_555 1_555
F17 P3 1_555 1_555
F18 P3 1_555 1_555
P4 F19 1_555 1_555
F20 P4 1_555 1_555
F21 P4 1_555 1_555
F22 P4 1_555 1_555
F23 P4 1_555 1_555
F24 P4 1_555 1_555
P5 F25 1_555 1_555
F26 P5 1_555 1_555
F27 P5 1_555 1_555
F28 P5 1_555 1_555
F29 P5 1_555 1_555
F30 P5 1_555 1_555
P6 F31 1_555 1_555
F32 P6 1_555 1_555
F33 P6 1_555 1_555
F34 P6 1_555 1_555
F35 P6 1_555 1_555
F36 P6 1_555 1_555
P7 F37 1_555 1_555
F38 P7 1_555 1_555
F39 P7 1_555 1_555
F40 P7 1_555 1_555
F41 P7 1_555 1_555
F42 P7 1_555 1_555
P8 F43 1_555 1_555
F44 P8 1_555 1_555
F45 P8 1_555 1_555
F46 P8 1_555 1_555
F47 P8 1_555 1_555
F48 P8 1_555 1_555
N9 C69 1_555 1_555
C69 C70 1_555 1_555
C70 H57 1_555 1_555
H58 C70 1_555 1_555
H59 C70 1_555 1_555
N1A C30 1_555 1_555
N2A C8A 1_555 1_555
N3A C18A 1_555 1_555
N4A C26A 1_555 1_555
C1A N1A 1_555 1_555
H1A C1A 1_555 1_555
C2A C1A 1_555 1_555
H2A C2A 1_555 1_555
C3A C2A 1_555 1_555
C4A C3A 1_555 1_555
H3A C4A 1_555 1_555
C5A N1A 1_555 1_555
H4A C5A 1_555 1_555
C6A C3A 1_555 1_555
C7A C6A 1_555 1_555
H5A C7A 1_555 1_555
C8A C7A 1_555 1_555
H6A C8A 1_555 1_555
C9A N2A 1_555 1_555
H7A C9A 1_555 1_555
C10A C6A 1_555 1_555
H8A C10A 1_555 1_555
C11A N2A 1_555 1_555
H9A C11A 1_555 1_555
H10A C11A 1_555 1_555
C12A C11A 1_555 1_555
C13A C12A 1_555 1_555
H11A C13A 1_555 1_555
C14A C13A 1_555 1_555
H12A C14A 1_555 1_555
C15A C14A 1_555 1_555
C16A C15A 1_555 1_555
H13A C16A 1_555 1_555
C17A C12A 1_555 1_555
H14A C17A 1_555 1_555
C18A C15A 1_555 1_555
H15A C18A 1_555 1_555
H16A C18A 1_555 1_555
C19A N3A 1_555 1_555
H17A C19A 1_555 1_555
C20A C19A 1_555 1_555
H18A C20A 1_555 1_555
C21A C20A 1_555 1_555
C22A C21A 1_555 1_555
H19A C22A 1_555 1_555
C23A N3A 1_555 1_555
H20A C23A 1_555 1_555
C24A C21A 1_555 1_555
C25A C24A 1_555 1_555
H21A C25A 1_555 1_555
C26A C25A 1_555 1_555
H22A C26A 1_555 1_555
C27A N4A 1_555 1_555
H23A C27A 1_555 1_555
C28A C24A 1_555 1_555
H24A C28A 1_555 1_555
C29A N4A 1_555 1_555
C30A N1 1_555 1_555
C31A C29A 1_555 1_555
H25A C31A 1_555 1_555
C32A C30A 1_555 1_555
H26A C32A 1_555 1_555
C33A C30A 1_555 1_555
H27A C33A 1_555 1_555
C34A C29A 1_555 1_555
H28A C34A 1_555 1_555
N5A C66 1_555 1_555
N6A C42A 1_555 1_555
N7A C52A 1_555 1_555
N8A C60A 1_555 1_555
C35A N5A 1_555 1_555
H29A C35A 1_555 1_555
C36A C35A 1_555 1_555
H30A C36A 1_555 1_555
C37A C36A 1_555 1_555
C38A C37A 1_555 1_555
H31A C38A 1_555 1_555
C39A N5A 1_555 1_555
H32A C39A 1_555 1_555
C40A C37A 1_555 1_555
C41A C40A 1_555 1_555
H33A C41A 1_555 1_555
C42A C41A 1_555 1_555
H34A C42A 1_555 1_555
C43A N6A 1_555 1_555
H35A C43A 1_555 1_555
C44A C40A 1_555 1_555
H36A C44A 1_555 1_555
C45A N6A 1_555 1_555
H37A C45A 1_555 1_555
H38A C45A 1_555 1_555
C46A C45A 1_555 1_555
C47A C46A 1_555 1_555
H39A C47A 1_555 1_555
C48A C47A 1_555 1_555
H40A C48A 1_555 1_555
C49A C48A 1_555 1_555
C50A C49A 1_555 1_555
H41A C50A 1_555 1_555
C51A C46A 1_555 1_555
H42A C51A 1_555 1_555
C52A C49A 1_555 1_555
H43A C52A 1_555 1_555
H44A C52A 1_555 1_555
C53A N7A 1_555 1_555
H45A C53A 1_555 1_555
C54A C53A 1_555 1_555
H46A C54A 1_555 1_555
C55A C54A 1_555 1_555
C56A C55A 1_555 1_555
H47A C56A 1_555 1_555
C57A N7A 1_555 1_555
H48A C57A 1_555 1_555
C58A C55A 1_555 1_555
C59A C58A 1_555 1_555
H49A C59A 1_555 1_555
C60A C59A 1_555 1_555
H50A C60A 1_555 1_555
C61A N8A 1_555 1_555
H51A C61A 1_555 1_555
C62A C58A 1_555 1_555
H52A C62A 1_555 1_555
C63A N8A 1_555 1_555
C64A C63A 1_555 1_555
H53A C64A 1_555 1_555
C65A C64A 1_555 1_555
H54A C65A 1_555 1_555
C66A N5 1_555 1_555
C67A C66A 1_555 1_555
H55A C67A 1_555 1_555
C68A C63A 1_555 1_555
H56A C68A 1_555 1_555
C4 C5 1_555 1_555
C9 C10 1_555 1_555
C16 C17 1_555 1_555
C22 C23 1_555 1_555
C27 C28 1_555 1_555
C33 C34 1_555 1_555
C38 C39 1_555 1_555
C43 C44 1_555 1_555
C50 C51 1_555 1_555
C56 C57 1_555 1_555
C61 C62 1_555 1_555
C67 C68 1_555 1_555
C4A C5A 1_555 1_555
C9A C10A 1_555 1_555
C16A C17A 1_555 1_555
C22A C23A 1_555 1_555
C27A C28A 1_555 1_555
C31A C32A 1_555 1_555
C33A C34A 1_555 1_555
C38A C39A 1_555 1_555
C43A C44A 1_555 1_555
C50A C51A 1_555 1_555
C56A C57A 1_555 1_555
C61A C62A 1_555 1_555
C65A C66A 1_555 1_555
C67A C68A 1_555 1_555

#END
