
#######################################################################
#
#                 Cambridge Crystallographic Data Centre
#                                CCDC 
#
#######################################################################
#
# If this CIF has been generated from an entry in the Cambridge 
# Structural Database, then it will include bibliographic, chemical, 
# crystal, experimental, refinement or atomic coordinate data resulting 
# from the CCDC's data processing and validation procedures.
#
#######################################################################

data_NORWOI
_chemical_name_common            
'TVBox octakis(hexafluorophosphate) acetonitrile chlorobenzene solvate'
_chemical_formula_moiety         
'C68 H56 N8 8+,8(F6 P1 1-),8(C2 H3 N1),4(C6 H5 Cl1)'
_chemical_name_systematic        
'1,4,9,12(1,4)-2,5,10,13(4,1)-Octapyridina-3,7,11,15(1,4)-tetrabenzenacyclohexadecaphane octakis(hexafluorophosphate) acetonitrile chlorobenzene solvate'
_symmetry_cell_setting           monoclinic
_symmetry_space_group_name_H-M   'P 21/n'
_symmetry_Int_Tables_number      14
_space_group_name_Hall           '-P 2yn'
loop_
_symmetry_equiv_pos_site_id
_symmetry_equiv_pos_as_xyz
1 x,y,z
2 1/2-x,1/2+y,1/2-z
3 -x,-y,-z
4 1/2+x,1/2-y,1/2+z
_cell_length_a                   13.8603(4)
_cell_length_b                   16.2006(5)
_cell_length_c                   27.9776(8)
_cell_angle_alpha                90
_cell_angle_beta                 102.9615(16)
_cell_angle_gamma                90
_cell_volume                     6122.17
_exptl_crystal_colour            yellow
_exptl_crystal_description       needle
_cell_formula_units_Z            2
_exptl_crystal_recrystallization_method 'di-isopropyl ether/acetonitrile'
loop_
_atom_site_label
_atom_site_type_symbol
_atom_site_fract_x
_atom_site_fract_y
_atom_site_fract_z
N1 N 0.31736(15) 0.54288(13) 0.21807(8)
N2 N 0.26719(15) 0.87554(13) 0.05408(8)
N3 N 0.23100(15) 1.14369(13) -0.07546(7)
N4 N 0.13554(15) 1.47084(13) -0.24140(8)
C1 C 0.31666(19) 0.47296(17) 0.25277(10)
H1 H 0.3643 0.4839 0.2842
H2 H 0.3366 0.4213 0.2388
C2 C 0.3307(2) 0.62049(17) 0.23540(10)
H3 H 0.3458 0.6298 0.2698
C3 C 0.3229(2) 0.68601(17) 0.20400(10)
H4 H 0.3324 0.7405 0.2168
C4 C 0.30109(17) 0.67355(15) 0.15328(9)
C5 C 0.2899(2) 0.59238(16) 0.13668(9)
H5 H 0.2764 0.5812 0.1025
C6 C 0.2981(2) 0.52856(17) 0.16951(10)
H6 H 0.2902 0.4734 0.1578
C7 C 0.28922(17) 0.74383(15) 0.11852(9)
C8 C 0.2797(2) 0.82488(16) 0.13427(9)
H7 H 0.2814 0.8353 0.1679
C9 C 0.2679(2) 0.88898(16) 0.10198(9)
H8 H 0.2601 0.9435 0.1131
C10 C 0.27636(19) 0.79824(16) 0.03749(9)
H9 H 0.2757 0.7897 0.0038
C11 C 0.28661(19) 0.73193(16) 0.06877(9)
H10 H 0.2919 0.6778 0.0566
C12 C 0.25721(18) 0.94504(15) 0.02059(9)
C13 C 0.31910(18) 1.01249(16) 0.03377(9)
H11 H 0.3667 1.0132 0.0641
C14 C 0.31004(18) 1.07862(16) 0.00194(9)
H12 H 0.3512 1.1258 0.0099
C15 C 0.23969(18) 1.07465(15) -0.04180(9)
C16 C 0.17741(18) 1.00748(16) -0.05472(9)
H13 H 0.1295 1.0070 -0.0849
C17 C 0.18616(19) 0.94129(16) -0.02290(9)
H14 H 0.1445 0.8944 -0.0307
C18 C 0.21937(19) 1.22093(16) -0.05923(9)
H15 H 0.2183 1.2297 -0.0258
C19 C 0.20913(18) 1.28659(16) -0.09101(9)
H16 H 0.2012 1.3408 -0.0795
C20 C 0.21032(17) 1.27404(15) -0.14011(9)
C21 C 0.22495(18) 1.19398(16) -0.15539(9)
H17 H 0.2283 1.1840 -0.1884
C22 C 0.23452(18) 1.12969(16) -0.12277(9)
H18 H 0.2436 1.0751 -0.1334
C23 C 0.19126(17) 1.34365(16) -0.17559(9)
C24 C 0.1962(2) 1.42547(16) -0.16010(10)
H19 H 0.2195 1.4383 -0.1263
C25 C 0.16722(19) 1.48794(16) -0.19377(10)
H20 H 0.1698 1.5437 -0.1830
C26 C 0.1353(2) 1.39310(18) -0.25798(10)
H21 H 0.1161 1.3826 -0.2922
C27 C 0.1626(2) 1.32859(17) -0.22592(10)
H22 H 0.1620 1.2737 -0.2380
C28 C 0.08922(19) 1.53790(16) -0.27566(10)
H23 H 0.0955 1.5254 -0.3095
H24 H 0.1223 1.5913 -0.2655
C29 C -0.01896(19) 1.54242(16) -0.27362(9)
C30 C -0.05038(19) 1.59645(16) -0.24171(10)
H25 H -0.0055 1.6359 -0.2240
C31 C -0.1473(2) 1.59328(16) -0.23553(10)
H26 H -0.1682 1.6303 -0.2136
C32 C -0.21341(19) 1.53598(16) -0.26147(9)
C33 C -0.1825(2) 1.48321(17) -0.29429(9)
H27 H -0.2279 1.4448 -0.3127
C34 C -0.0861(2) 1.48633(17) -0.30038(10)
H28 H -0.0657 1.4501 -0.3229
N1B N -0.31736(15) 1.45712(13) -0.21807(8)
N2B N -0.26719(15) 1.12446(13) -0.05408(8)
N3B N -0.23100(15) 0.85631(13) 0.07546(7)
N4B N -0.13554(15) 0.52916(13) 0.24140(8)
C1B C -0.31666(19) 1.52704(17) -0.25277(10)
H1B H -0.3643 1.5161 -0.2842
H2B H -0.3366 1.5787 -0.2388
C2B C -0.3307(2) 1.37951(17) -0.23540(10)
H3B H -0.3458 1.3702 -0.2698
C3B C -0.3229(2) 1.31399(17) -0.20400(10)
H4B H -0.3324 1.2595 -0.2168
C4B C -0.30109(17) 1.32645(15) -0.15328(9)
C5B C -0.2899(2) 1.40762(16) -0.13668(9)
H5B H -0.2764 1.4188 -0.1025
C6B C -0.2981(2) 1.47144(17) -0.16951(10)
H6B H -0.2902 1.5266 -0.1578
C7B C -0.28922(17) 1.25617(15) -0.11852(9)
C8B C -0.2797(2) 1.17512(16) -0.13427(9)
H7B H -0.2814 1.1647 -0.1679
C9B C -0.2679(2) 1.11102(16) -0.10198(9)
H8B H -0.2601 1.0565 -0.1131
C10B C -0.27636(19) 1.20176(16) -0.03749(9)
H9B H -0.2757 1.2103 -0.0038
C11B C -0.28661(19) 1.26807(16) -0.06877(9)
H10B H -0.2919 1.3222 -0.0566
C12B C -0.25721(18) 1.05496(15) -0.02059(9)
C13B C -0.31910(18) 0.98751(16) -0.03377(9)
H11B H -0.3667 0.9868 -0.0641
C14B C -0.31004(18) 0.92138(16) -0.00194(9)
H12B H -0.3512 0.8742 -0.0099
C15B C -0.23969(18) 0.92535(15) 0.04180(9)
C16B C -0.17741(18) 0.99252(16) 0.05472(9)
H13B H -0.1295 0.9930 0.0849
C17B C -0.18616(19) 1.05871(16) 0.02290(9)
H14B H -0.1445 1.1056 0.0307
C18B C -0.21937(19) 0.77907(16) 0.05923(9)
H15B H -0.2183 0.7703 0.0258
C19B C -0.20913(18) 0.71341(16) 0.09101(9)
H16B H -0.2012 0.6592 0.0795
C20B C -0.21032(17) 0.72596(15) 0.14011(9)
C21B C -0.22495(18) 0.80602(16) 0.15539(9)
H17B H -0.2283 0.8160 0.1884
C22B C -0.23452(18) 0.87031(16) 0.12277(9)
H18B H -0.2436 0.9249 0.1334
C23B C -0.19126(17) 0.65635(16) 0.17559(9)
C24B C -0.1962(2) 0.57453(16) 0.16010(10)
H19B H -0.2195 0.5617 0.1263
C25B C -0.16722(19) 0.51206(16) 0.19377(10)
H20B H -0.1698 0.4563 0.1830
C26B C -0.1353(2) 0.60690(18) 0.25798(10)
H21B H -0.1161 0.6174 0.2922
C27B C -0.1626(2) 0.67141(17) 0.22592(10)
H22B H -0.1620 0.7263 0.2380
C28B C -0.08922(19) 0.46210(16) 0.27566(10)
H23B H -0.0955 0.4746 0.3095
H24B H -0.1223 0.4087 0.2655
C29B C 0.01896(19) 0.45758(16) 0.27362(9)
C30B C 0.05038(19) 0.40355(16) 0.24171(10)
H25B H 0.0055 0.3641 0.2240
C31B C 0.1473(2) 0.40672(16) 0.23553(10)
H26B H 0.1682 0.3697 0.2136
C32B C 0.21341(19) 0.46402(16) 0.26147(9)
C33B C 0.1825(2) 0.51679(17) 0.29429(9)
H27B H 0.2279 0.5552 0.3127
C34B C 0.0861(2) 0.51367(17) 0.30038(10)
H28B H 0.0657 0.5499 0.3229
Cl1 Cl -0.05864(6) 1.39884(5) -0.16670(3)
C35 C -0.0452(2) 1.3091(2) -0.13096(12)
C36 C -0.0419(2) 1.2335(2) -0.15393(11)
H29 H -0.0476 1.2303 -0.1884
C37 C -0.0300(2) 1.1624(2) -0.12527(11)
H30 H -0.0271 1.1101 -0.1402
C38 C -0.0223(2) 1.1675(2) -0.07534(11)
H31 H -0.0145 1.1187 -0.0560
C39 C -0.0259(2) 1.2435(2) -0.05336(11)
H32 H -0.0202 1.2466 -0.0189
C40 C -0.0377(2) 1.3152(2) -0.08117(12)
H33 H -0.0406 1.3675 -0.0662
Cl2 Cl 0.47472(5) 1.11180(4) -0.08263(3)
C41 C 0.47037(19) 1.21826(17) -0.09298(11)
C42 C 0.46046(19) 1.24756(18) -0.14018(10)
H34 H 0.4555 1.2103 -0.1669
C43 C 0.4578(2) 1.33121(18) -0.14798(11)
H35 H 0.4501 1.3520 -0.1804
C44 C 0.4662(2) 1.38530(19) -0.10922(12)
H36 H 0.4658 1.4431 -0.1149
C45 C 0.4753(2) 1.3553(2) -0.06192(12)
H37 H 0.4803 1.3928 -0.0354
C46 C 0.4770(2) 1.2704(2) -0.05309(11)
H38 H 0.4826 1.2492 -0.0209
P1 P 0.08696(5) 1.04887(4) -0.26064(3)
F1 F -0.01004(13) 1.07119(11) -0.30188(6)
F2 F 0.18373(12) 1.02642(12) -0.21914(7)
F3 F 0.04243(13) 1.09686(13) -0.22057(7)
F4 F 0.13939(15) 1.13180(12) -0.27213(7)
F5 F 0.13115(13) 1.00114(13) -0.30051(7)
F6 F 0.03401(13) 0.96598(11) -0.24889(7)
P2 P 0.40846(5) 0.87365(4) -0.09172(2)
F7 F 0.38219(13) 0.81073(10) -0.13722(6)
F8 F 0.43539(13) 0.93655(11) -0.04724(6)
F9 F 0.49355(12) 0.91341(11) -0.11545(6)
F10 F 0.33108(13) 0.93883(10) -0.12247(6)
F11 F 0.32327(13) 0.83404(11) -0.06939(6)
F12 F 0.48706(13) 0.80876(11) -0.06250(6)
P3 P 0.10047(6) 1.12687(5) 0.09169(3)
F13 F 0.0672(2) 1.0717(2) 0.04339(12)
F14 F 0.12953(18) 1.1781(2) 0.14068(10)
F15 F 0.1404(2) 1.1937(2) 0.06077(13)
F16 F -0.00586(14) 1.16947(16) 0.07899(8)
F17 F 0.0547(3) 1.0581(2) 0.12125(15)
F18 F 0.20899(17) 1.08715(15) 0.10446(7)
P4 P 0.25799(7) 1.43588(5) 0.02363(3)
F23 F 0.15958(18) 1.38533(16) 0.00116(8)
F24 F 0.35610(19) 1.48268(17) 0.04757(9)
F25 F 0.1940(2) 1.51646(15) 0.02666(8)
F26 F 0.2699(2) 1.45780(12) -0.03033(8)
F27 F 0.31826(19) 1.35218(14) 0.02175(8)
F28 F 0.2452(2) 1.41236(15) 0.07796(8)
N5 N 0.3203(2) 1.26165(18) 0.22172(11)
C47 C 0.3436(2) 1.25802(18) 0.18527(12)
C48 C 0.3731(3) 1.2549(2) 0.13869(14)
H39 H 0.3408 1.2997 0.1175
H40 H 0.3533 1.2017 0.1227
H41 H 0.4451 1.2610 0.1443
N6 N 0.2861(4) 0.6597(2) -0.03410(15)
C49 C 0.3334(4) 0.6402(2) -0.06110(15)
C50 C 0.3920(5) 0.6164(3) -0.0934(2)
H42 H 0.3750 0.6501 -0.1232
H43 H 0.3801 0.5581 -0.1020
H44 H 0.4620 0.6244 -0.0777
N7 N 0.1508(2) 0.73650(18) -0.24092(10)
C51 C 0.1410(2) 0.77497(19) -0.20804(11)
C52 C 0.1278(3) 0.8238(2) -0.16640(12)
H45 H 0.1491 0.8807 -0.1701
H46 H 0.1677 0.8001 -0.1361
H47 H 0.0578 0.8234 -0.1650
N8 N 0.0927(3) 0.6292(3) -0.13325(14)
C53 C 0.0575(3) 0.6191(3) -0.09990(15)
C54 C 0.0159(4) 0.6091(3) -0.05855(18)
H48 H -0.0331 0.6527 -0.0583
H49 H 0.0683 0.6127 -0.0286
H50 H -0.0164 0.5551 -0.0601
F19? F 0.1139(14) 1.1434(16) 0.0390(6)
F20? F 0.0955(11) 1.0984(13) 0.1448(5)
F21? F 0.1403(12) 1.2187(11) 0.1120(9)
F22? F 0.0823(12) 1.0387(10) 0.0749(9)
loop_
_geom_bond_atom_site_label_1
_geom_bond_atom_site_label_2
_geom_bond_site_symmetry_1
_geom_bond_site_symmetry_2
N1 C1 1_555 1_555
N2 C9 1_555 1_555
N3 C15 1_555 1_555
N4 C25 1_555 1_555
C1 H1 1_555 1_555
H2 C1 1_555 1_555
C2 N1 1_555 1_555
H3 C2 1_555 1_555
C3 C2 1_555 1_555
H4 C3 1_555 1_555
C4 C3 1_555 1_555
C5 C4 1_555 1_555
H5 C5 1_555 1_555
C6 N1 1_555 1_555
H6 C6 1_555 1_555
C7 C4 1_555 1_555
C8 C7 1_555 1_555
H7 C8 1_555 1_555
C9 C8 1_555 1_555
H8 C9 1_555 1_555
C10 N2 1_555 1_555
H9 C10 1_555 1_555
C11 C7 1_555 1_555
H10 C11 1_555 1_555
C12 N2 1_555 1_555
C13 C12 1_555 1_555
H11 C13 1_555 1_555
C14 C13 1_555 1_555
H12 C14 1_555 1_555
C15 C14 1_555 1_555
C16 C15 1_555 1_555
H13 C16 1_555 1_555
C17 C12 1_555 1_555
H14 C17 1_555 1_555
C18 N3 1_555 1_555
H15 C18 1_555 1_555
C19 C18 1_555 1_555
H16 C19 1_555 1_555
C20 C19 1_555 1_555
C21 C20 1_555 1_555
H17 C21 1_555 1_555
C22 N3 1_555 1_555
H18 C22 1_555 1_555
C23 C20 1_555 1_555
C24 C23 1_555 1_555
H19 C24 1_555 1_555
C25 C24 1_555 1_555
H20 C25 1_555 1_555
C26 N4 1_555 1_555
H21 C26 1_555 1_555
C27 C23 1_555 1_555
H22 C27 1_555 1_555
C28 N4 1_555 1_555
H23 C28 1_555 1_555
H24 C28 1_555 1_555
C29 C28 1_555 1_555
C30 C29 1_555 1_555
H25 C30 1_555 1_555
C31 C30 1_555 1_555
H26 C31 1_555 1_555
C32 C31 1_555 1_555
C33 C32 1_555 1_555
H27 C33 1_555 1_555
C34 C29 1_555 1_555
H28 C34 1_555 1_555
Cl1 C35 1_555 1_555
C35 C36 1_555 1_555
C36 H29 1_555 1_555
C37 C36 1_555 1_555
H30 C37 1_555 1_555
C38 C37 1_555 1_555
H31 C38 1_555 1_555
C39 C38 1_555 1_555
H32 C39 1_555 1_555
C40 C35 1_555 1_555
H33 C40 1_555 1_555
Cl2 C41 1_555 1_555
C41 C42 1_555 1_555
C42 H34 1_555 1_555
C43 C42 1_555 1_555
H35 C43 1_555 1_555
C44 C43 1_555 1_555
H36 C44 1_555 1_555
C45 C44 1_555 1_555
H37 C45 1_555 1_555
C46 C41 1_555 1_555
H38 C46 1_555 1_555
P1 F1 1_555 1_555
F2 P1 1_555 1_555
F3 P1 1_555 1_555
F4 P1 1_555 1_555
F5 P1 1_555 1_555
F6 P1 1_555 1_555
P2 F7 1_555 1_555
F8 P2 1_555 1_555
F9 P2 1_555 1_555
F10 P2 1_555 1_555
F11 P2 1_555 1_555
F12 P2 1_555 1_555
P3 F13 1_555 1_555
F14 P3 1_555 1_555
F15 P3 1_555 1_555
F16 P3 1_555 1_555
F17 P3 1_555 1_555
F18 P3 1_555 1_555
P4 F23 1_555 1_555
F24 P4 1_555 1_555
F25 P4 1_555 1_555
F26 P4 1_555 1_555
F27 P4 1_555 1_555
F28 P4 1_555 1_555
N5 C47 1_555 1_555
C47 C48 1_555 1_555
C48 H39 1_555 1_555
H40 C48 1_555 1_555
H41 C48 1_555 1_555
N6 C49 1_555 1_555
C49 C50 1_555 1_555
C50 H42 1_555 1_555
H43 C50 1_555 1_555
H44 C50 1_555 1_555
N7 C51 1_555 1_555
C51 C52 1_555 1_555
C52 H45 1_555 1_555
H46 C52 1_555 1_555
H47 C52 1_555 1_555
N8 C53 1_555 1_555
C53 C54 1_555 1_555
C54 H48 1_555 1_555
H49 C54 1_555 1_555
H50 C54 1_555 1_555
N1B C1B 1_555 1_555
N2B C9B 1_555 1_555
N3B C15B 1_555 1_555
N4B C25B 1_555 1_555
C1B C32 1_555 1_555
H1B C1B 1_555 1_555
H2B C1B 1_555 1_555
C2B N1B 1_555 1_555
H3B C2B 1_555 1_555
C3B C2B 1_555 1_555
H4B C3B 1_555 1_555
C4B C3B 1_555 1_555
C5B C4B 1_555 1_555
H5B C5B 1_555 1_555
C6B N1B 1_555 1_555
H6B C6B 1_555 1_555
C7B C4B 1_555 1_555
C8B C7B 1_555 1_555
H7B C8B 1_555 1_555
C9B C8B 1_555 1_555
H8B C9B 1_555 1_555
C10B N2B 1_555 1_555
H9B C10B 1_555 1_555
C11B C7B 1_555 1_555
H10B C11B 1_555 1_555
C12B N2B 1_555 1_555
C13B C12B 1_555 1_555
H11B C13B 1_555 1_555
C14B C13B 1_555 1_555
H12B C14B 1_555 1_555
C15B C14B 1_555 1_555
C16B C15B 1_555 1_555
H13B C16B 1_555 1_555
C17B C12B 1_555 1_555
H14B C17B 1_555 1_555
C18B N3B 1_555 1_555
H15B C18B 1_555 1_555
C19B C18B 1_555 1_555
H16B C19B 1_555 1_555
C20B C19B 1_555 1_555
C21B C20B 1_555 1_555
H17B C21B 1_555 1_555
C22B N3B 1_555 1_555
H18B C22B 1_555 1_555
C23B C20B 1_555 1_555
C24B C23B 1_555 1_555
H19B C24B 1_555 1_555
C25B C24B 1_555 1_555
H20B C25B 1_555 1_555
C26B N4B 1_555 1_555
H21B C26B 1_555 1_555
C27B C23B 1_555 1_555
H22B C27B 1_555 1_555
C28B N4B 1_555 1_555
H23B C28B 1_555 1_555
H24B C28B 1_555 1_555
C29B C28B 1_555 1_555
C30B C29B 1_555 1_555
H25B C30B 1_555 1_555
C31B C30B 1_555 1_555
H26B C31B 1_555 1_555
C32B C1 1_555 1_555
C33B C32B 1_555 1_555
H27B C33B 1_555 1_555
C34B C29B 1_555 1_555
H28B C34B 1_555 1_555
C5 C6 1_555 1_555
C10 C11 1_555 1_555
C16 C17 1_555 1_555
C21 C22 1_555 1_555
C26 C27 1_555 1_555
C33 C34 1_555 1_555
C39 C40 1_555 1_555
C45 C46 1_555 1_555
C5B C6B 1_555 1_555
C10B C11B 1_555 1_555
C16B C17B 1_555 1_555
C21B C22B 1_555 1_555
C26B C27B 1_555 1_555
C31B C32B 1_555 1_555
C33B C34B 1_555 1_555

#END
