
#######################################################################
#
#                 Cambridge Crystallographic Data Centre
#                                CCDC 
#
#######################################################################
#
# If this CIF has been generated from an entry in the Cambridge 
# Structural Database, then it will include bibliographic, chemical, 
# crystal, experimental, refinement or atomic coordinate data resulting 
# from the CCDC's data processing and validation procedures.
#
#######################################################################

data_NORXEZ
_chemical_formula_moiety         'C22 H16 N4 O4,C3 H7 N1 O1,H2 O1'
_chemical_name_systematic        
"4,4'-(Quinoxaline-2,3-diyldiimino)dibenzoic acid N,N-dimethylformamide monohydrate"
_symmetry_cell_setting           triclinic
_symmetry_space_group_name_H-M   'P -1'
_symmetry_Int_Tables_number      2
_space_group_name_Hall           '-P 1'
loop_
_symmetry_equiv_pos_site_id
_symmetry_equiv_pos_as_xyz
1 x,y,z
2 -x,-y,-z
_cell_length_a                   9.826(2)
_cell_length_b                   11.358(2)
_cell_length_c                   11.609(2)
_cell_angle_alpha                66.07(3)
_cell_angle_beta                 84.95(3)
_cell_angle_gamma                78.63(3)
_cell_volume                     1160.95
_exptl_crystal_colour            white
_exptl_crystal_description       prism
_cell_formula_units_Z            2
loop_
_atom_site_label
_atom_site_type_symbol
_atom_site_fract_x
_atom_site_fract_y
_atom_site_fract_z
O1 O -0.34545(13) 1.57573(13) -0.31734(12)
H1 H -0.404(2) 1.657(2) -0.347(2)
O2 O -0.24258(13) 1.67638(12) -0.22875(12)
O3 O 0.86026(12) 0.48564(12) 0.44040(11)
O4 O 0.89524(12) 0.66014(12) 0.47116(11)
H2 H 0.9704 0.6135 0.4973
N1 N 0.12155(14) 0.98138(13) -0.12713(12)
N2 N 0.35323(14) 0.80083(13) 0.00143(13)
N3 N 0.16027(14) 1.12283(13) -0.03938(12)
H3 H 0.2110 1.1311 0.0127
N4 N 0.37320(14) 0.92787(13) 0.11055(13)
H4 H 0.3459 1.0024 0.1156
C1 C 0.08646(19) 0.83394(18) -0.21926(16)
H5 H 0.0085 0.8923 -0.2609
C2 C 0.1268(2) 0.71886(18) -0.23461(17)
H6 H 0.0758 0.6991 -0.2861
C3 C 0.2447(2) 0.63064(19) -0.17315(17)
H7 H 0.2715 0.5525 -0.1839
C4 C 0.32065(19) 0.65883(18) -0.09740(17)
H8 H 0.3996 0.6004 -0.0579
C5 C 0.16192(17) 0.86477(16) -0.14113(15)
C6 C 0.27991(17) 0.77558(16) -0.07915(15)
C7 C 0.19177(17) 1.00450(16) -0.05080(15)
C8 C 0.30887(17) 0.90717(16) 0.02129(15)
C9 C 0.50348(18) 0.70511(17) 0.23161(16)
H9 H 0.4470 0.6661 0.2029
C10 C 0.55889(17) 0.89559(17) 0.24628(15)
H10 H 0.5385 0.9848 0.2278
C11 C 0.66869(17) 0.81818(17) 0.32479(15)
H11 H 0.7225 0.8561 0.3574
C12 C 0.61254(18) 0.62954(17) 0.31103(15)
H12 H 0.6284 0.5392 0.3356
C13 C 0.69900(17) 0.68448(16) 0.35524(15)
C14 C -0.04110(17) 1.23931(16) -0.18204(15)
H13 H -0.0415 1.1687 -0.2032
C15 C 0.05773(18) 1.34103(16) -0.07173(16)
H14 H 0.1245 1.3380 -0.0181
C16 C 0.05794(16) 1.23215(15) -0.09974(15)
C17 C -0.13935(17) 1.35262(16) -0.23239(15)
H15 H -0.2055 1.3568 -0.2871
C18 C -0.04014(18) 1.45212(16) -0.12266(16)
H16 H -0.0387 1.5235 -0.1030
C19 C -0.14120(17) 1.45980(16) -0.20297(14)
C20 C -0.24695(18) 1.58048(17) -0.25065(15)
C21 C 0.82479(18) 0.60041(17) 0.42684(15)
C22 C 0.47858(16) 0.84117(16) 0.19462(15)
C23 C 0.8240(2) 0.1533(2) 0.5822(2)
H17 H 0.8084 0.2453 0.5636
H18 H 0.9121 0.1287 0.5478
H19 H 0.8238 0.1049 0.6719
C24 C 0.7250(2) -0.0081(2) 0.5388(2)
H20 H 0.6394 -0.0179 0.5127
H21 H 0.7425 -0.0672 0.6250
H22 H 0.7996 -0.0275 0.4865
C25 C 0.6124(2) 0.21872(19) 0.46504(17)
H23 H 0.6121 0.3022 0.4611
O5 O 0.51788(14) 0.20487(13) 0.41259(13)
N5 N 0.71534(15) 0.12467(14) 0.52718(13)
O6 O 0.36089(14) 0.19333(13) 0.08382(13)
H24 H 0.333(3) 0.234(2) 0.134(2)
H25 H 0.446(3) 0.216(3) 0.045(2)
loop_
_geom_bond_atom_site_label_1
_geom_bond_atom_site_label_2
_geom_bond_site_symmetry_1
_geom_bond_site_symmetry_2
O1 H1 1_555 1_555
O2 C20 1_555 1_555
O3 C21 1_555 1_555
O4 H2 1_555 1_555
N1 C5 1_555 1_555
N2 C6 1_555 1_555
N3 H3 1_555 1_555
N4 H4 1_555 1_555
C1 H5 1_555 1_555
C2 C1 1_555 1_555
H6 C2 1_555 1_555
C3 C2 1_555 1_555
H7 C3 1_555 1_555
C4 C3 1_555 1_555
H8 C4 1_555 1_555
C5 C1 1_555 1_555
C6 C4 1_555 1_555
C7 N1 1_555 1_555
C8 N2 1_555 1_555
C9 H9 1_555 1_555
C10 H10 1_555 1_555
C11 C10 1_555 1_555
H11 C11 1_555 1_555
C12 C9 1_555 1_555
H12 C12 1_555 1_555
C13 C11 1_555 1_555
C14 H13 1_555 1_555
C15 H14 1_555 1_555
C16 N3 1_555 1_555
C17 C14 1_555 1_555
H15 C17 1_555 1_555
C18 C15 1_555 1_555
H16 C18 1_555 1_555
C19 C17 1_555 1_555
C20 O1 1_555 1_555
C21 O4 1_555 1_555
C22 N4 1_555 1_555
C23 H17 1_555 1_555
H18 C23 1_555 1_555
H19 C23 1_555 1_555
C24 H20 1_555 1_555
H21 C24 1_555 1_555
H22 C24 1_555 1_555
C25 H23 1_555 1_555
O5 C25 1_555 1_555
N5 C23 1_555 1_555
O6 H24 1_555 1_555
H25 O6 1_555 1_555
N3 C7 1_555 1_555
N4 C8 1_555 1_555
C5 C6 1_555 1_555
C7 C8 1_555 1_555
C9 C22 1_555 1_555
C10 C22 1_555 1_555
C12 C13 1_555 1_555
C13 C21 1_555 1_555
C14 C16 1_555 1_555
C15 C16 1_555 1_555
C18 C19 1_555 1_555
C19 C20 1_555 1_555
C24 N5 1_555 1_555
C25 N5 1_555 1_555

#END
