
#######################################################################
#
#                 Cambridge Crystallographic Data Centre
#                                CCDC 
#
#######################################################################
#
# If this CIF has been generated from an entry in the Cambridge 
# Structural Database, then it will include bibliographic, chemical, 
# crystal, experimental, refinement or atomic coordinate data resulting 
# from the CCDC's data processing and validation procedures.
#
#######################################################################

data_NOSCUV
_chemical_formula_moiety         'C17 H16 N2 S1'
_chemical_name_systematic        
(5,5-Dimethyl-3-(2-(2-thienyl)vinyl)cyclohex-2-en-1-ylidene)malononitrile
_symmetry_cell_setting           triclinic
_symmetry_space_group_name_H-M   'P -1'
_symmetry_Int_Tables_number      2
_space_group_name_Hall           '-P 1'
loop_
_symmetry_equiv_pos_site_id
_symmetry_equiv_pos_as_xyz
1 x,y,z
2 -x,-y,-z
_cell_length_a                   8.241(2)
_cell_length_b                   9.610(3)
_cell_length_c                   9.790(3)
_cell_angle_alpha                87.334(9)
_cell_angle_beta                 71.536(8)
_cell_angle_gamma                84.334(9)
_cell_volume                     731.729
_exptl_crystal_colour            red
_exptl_crystal_description       Block
_cell_formula_units_Z            2
loop_
_atom_site_label
_atom_site_type_symbol
_atom_site_fract_x
_atom_site_fract_y
_atom_site_fract_z
S1 S 0.83816(4) 0.25912(4) 0.79894(4)
N1 N 0.72606(18) 0.82214(15) 0.27479(14)
N2 N 0.2313(2) 1.06673(15) 0.37928(17)
C1 C 0.87063(19) 0.11265(14) 0.89607(15)
H1 H 0.9794 0.0617 0.8817
C2 C 0.72388(18) 0.07736(14) 0.99592(15)
H2 H 0.7183 -0.0016 1.0587
C3 C 0.57911(18) 0.17115(14) 0.99666(15)
H3 H 0.4665 0.1626 1.0607
C4 C 0.62082(17) 0.27650(13) 0.89332(14)
C5 C 0.50222(17) 0.38400(13) 0.86219(14)
H4 H 0.3853 0.3844 0.9198
C6 C 0.54182(17) 0.48421(13) 0.75873(14)
H5 H 0.6596 0.4886 0.7051
C7 C 0.41880(17) 0.58531(13) 0.72333(14)
C8 C 0.23126(16) 0.58731(13) 0.80872(14)
H6 H 0.2129 0.6299 0.9032
H7 H 0.2004 0.4897 0.8271
C9 C 0.11000(16) 0.66739(13) 0.73577(14)
C10 C 0.18234(17) 0.80682(13) 0.67425(14)
H8 H 0.1080 0.8567 0.6223
H9 H 0.1816 0.8664 0.7543
C11 C 0.36180(17) 0.78343(13) 0.57352(14)
C12 C 0.47527(17) 0.67722(13) 0.61182(14)
H10 H 0.5938 0.6707 0.5577
C13 C -0.06731(18) 0.69536(16) 0.84752(15)
H11 H -0.1126 0.6062 0.8862
H12 H -0.1453 0.7475 0.8019
H13 H -0.0576 0.7503 0.9260
C14 C 0.0931(2) 0.58226(15) 0.61362(15)
H14 H 0.2067 0.5620 0.5428
H15 H 0.0173 0.6359 0.5670
H16 H 0.0446 0.4943 0.6528
C15 C 0.41809(18) 0.86269(14) 0.44992(14)
C16 C 0.58948(19) 0.84005(14) 0.35318(15)
C17 C 0.3120(2) 0.97454(15) 0.41097(16)
loop_
_geom_bond_atom_site_label_1
_geom_bond_atom_site_label_2
_geom_bond_site_symmetry_1
_geom_bond_site_symmetry_2
S1 C1 1_555 1_555
N1 C16 1_555 1_555
N2 C17 1_555 1_555
C1 H1 1_555 1_555
C2 C1 1_555 1_555
H2 C2 1_555 1_555
C3 C2 1_555 1_555
H3 C3 1_555 1_555
C4 S1 1_555 1_555
C5 C4 1_555 1_555
H4 C5 1_555 1_555
C6 C5 1_555 1_555
H5 C6 1_555 1_555
C7 C6 1_555 1_555
C8 C7 1_555 1_555
H6 C8 1_555 1_555
H7 C8 1_555 1_555
C9 C8 1_555 1_555
C10 C9 1_555 1_555
H8 C10 1_555 1_555
H9 C10 1_555 1_555
C11 C10 1_555 1_555
C12 C7 1_555 1_555
H10 C12 1_555 1_555
C13 C9 1_555 1_555
H11 C13 1_555 1_555
H12 C13 1_555 1_555
H13 C13 1_555 1_555
C14 C9 1_555 1_555
H14 C14 1_555 1_555
H15 C14 1_555 1_555
H16 C14 1_555 1_555
C15 C11 1_555 1_555
C16 C15 1_555 1_555
C17 C15 1_555 1_555
C3 C4 1_555 1_555
C11 C12 1_555 1_555

#END
