
#######################################################################
#
#                 Cambridge Crystallographic Data Centre
#                                CCDC 
#
#######################################################################
#
# If this CIF has been generated from an entry in the Cambridge 
# Structural Database, then it will include bibliographic, chemical, 
# crystal, experimental, refinement or atomic coordinate data resulting 
# from the CCDC's data processing and validation procedures.
#
#######################################################################

data_NOSDAC
_chemical_formula_moiety         'C18 H18 N2 S1'
_chemical_name_systematic        
(5,5-Dimethyl-3-(2-(5-methyl-2-thienyl)vinyl)cyclohex-2-en-1-ylidene)malononitrile
_symmetry_cell_setting           monoclinic
_symmetry_space_group_name_H-M   'P 21/n'
_symmetry_Int_Tables_number      14
_space_group_name_Hall           '-P 2yn'
loop_
_symmetry_equiv_pos_site_id
_symmetry_equiv_pos_as_xyz
1 x,y,z
2 1/2-x,1/2+y,1/2-z
3 -x,-y,-z
4 1/2+x,1/2-y,1/2+z
_cell_length_a                   9.1048(19)
_cell_length_b                   7.4536(15)
_cell_length_c                   23.795(5)
_cell_angle_alpha                90
_cell_angle_beta                 95.952(4)
_cell_angle_gamma                90
_cell_volume                     1606.11
_exptl_crystal_colour            red
_exptl_crystal_description       Prism
_cell_formula_units_Z            4
loop_
_atom_site_label
_atom_site_type_symbol
_atom_site_fract_x
_atom_site_fract_y
_atom_site_fract_z
S1 S 0.27415(4) 0.22364(5) 0.586516(17)
N1 N 0.38078(19) 0.8860(2) 0.21901(6)
N2 N 0.5238(2) 0.3850(2) 0.30190(7)
C1 C 0.22100(18) 0.1656(2) 0.65183(7)
C2 C 0.14089(19) 0.3001(2) 0.67233(7)
H1 H 0.1015 0.2938 0.7077
C3 C 0.12179(19) 0.4502(2) 0.63597(7)
H2 H 0.0677 0.5540 0.6444
C4 C 0.18886(17) 0.4313(2) 0.58740(6)
C5 C 0.19331(17) 0.5606(2) 0.54257(7)
H3 H 0.1394 0.6686 0.5458
C6 C 0.26655(17) 0.5432(2) 0.49650(6)
H4 H 0.3258 0.4391 0.4943
C7 C 0.26281(17) 0.6690(2) 0.45023(6)
C8 C 0.18195(18) 0.8444(2) 0.45304(7)
H5 H 0.1977 0.8908 0.4922
H6 H 0.0749 0.8223 0.4441
C9 C 0.23008(16) 0.98843(19) 0.41273(6)
C10 C 0.23174(17) 0.9058(2) 0.35393(6)
H7 H 0.1290 0.8792 0.3383
H8 H 0.2725 0.9944 0.3287
C11 C 0.32122(16) 0.73696(19) 0.35427(6)
C12 C 0.32834(17) 0.6249(2) 0.40344(6)
H9 H 0.3812 0.5150 0.4033
C13 C 0.11946(18) 1.1431(2) 0.41036(7)
H10 H 0.1501 1.2370 0.3852
H11 H 0.1160 1.1924 0.4484
H12 H 0.0213 1.0989 0.3960
C14 C 0.38414(17) 1.0605(2) 0.43299(7)
H13 H 0.4555 0.9616 0.4352
H14 H 0.3828 1.1149 0.4704
H15 H 0.4127 1.1510 0.4063
C15 C 0.38933(17) 0.6874(2) 0.30795(6)
C16 C 0.38391(18) 0.7969(2) 0.25859(7)
C17 C 0.46508(19) 0.5197(2) 0.30508(7)
C18 C 0.2653(2) -0.0109(3) 0.67818(8)
H16 H 0.3228 -0.0787 0.6528
H17 H 0.1767 -0.0791 0.6848
H18 H 0.3254 0.0093 0.7142
H19? H 0.2271 -0.0203 0.7151
H20? H 0.3732 -0.0199 0.6831
H21? H 0.2245 -0.1083 0.6537
loop_
_geom_bond_atom_site_label_1
_geom_bond_atom_site_label_2
_geom_bond_site_symmetry_1
_geom_bond_site_symmetry_2
S1 C1 1_555 1_555
N1 C16 1_555 1_555
N2 C17 1_555 1_555
C1 C2 1_555 1_555
C2 H1 1_555 1_555
C3 C2 1_555 1_555
H2 C3 1_555 1_555
C4 S1 1_555 1_555
C5 C4 1_555 1_555
H3 C5 1_555 1_555
C6 C5 1_555 1_555
H4 C6 1_555 1_555
C7 C6 1_555 1_555
C8 C7 1_555 1_555
H5 C8 1_555 1_555
H6 C8 1_555 1_555
C9 C8 1_555 1_555
C10 C9 1_555 1_555
H7 C10 1_555 1_555
H8 C10 1_555 1_555
C11 C10 1_555 1_555
C12 C7 1_555 1_555
H9 C12 1_555 1_555
C13 C9 1_555 1_555
H10 C13 1_555 1_555
H11 C13 1_555 1_555
H12 C13 1_555 1_555
C14 C9 1_555 1_555
H13 C14 1_555 1_555
H14 C14 1_555 1_555
H15 C14 1_555 1_555
C15 C11 1_555 1_555
C16 C15 1_555 1_555
C17 C15 1_555 1_555
C18 C1 1_555 1_555
H16 C18 1_555 1_555
H17 C18 1_555 1_555
H18 C18 1_555 1_555
C3 C4 1_555 1_555
C11 C12 1_555 1_555

#END
