
#######################################################################
#
#                 Cambridge Crystallographic Data Centre
#                                CCDC 
#
#######################################################################
#
# If this CIF has been generated from an entry in the Cambridge 
# Structural Database, then it will include bibliographic, chemical, 
# crystal, experimental, refinement or atomic coordinate data resulting 
# from the CCDC's data processing and validation procedures.
#
#######################################################################

data_NOSDUW
_chemical_name_common            'Thiaplakortone A hydrochoride dihydrate'
_chemical_formula_moiety         'C12 H12 N3 O4 S1 1+,Cl1 1-,2(H2 O1)'
_chemical_name_systematic        
'2-(1,1-Dioxido-5,9-dioxo-4,5,6,9-tetrahydro[1,4]thiazino[2,3-f]indol-8-yl)ethanaminium chloride hydrate'
_chemical_properties_biological  'antimalarial activity'
_symmetry_cell_setting           orthorhombic
_symmetry_space_group_name_H-M   'P b c a'
_symmetry_Int_Tables_number      61
_space_group_name_Hall           '-P 2ac 2ab'
loop_
_symmetry_equiv_pos_site_id
_symmetry_equiv_pos_as_xyz
1 x,y,z
2 1/2-x,-y,1/2+z
3 1/2+x,1/2-y,-z
4 -x,1/2+y,1/2-z
5 -x,-y,-z
6 1/2+x,y,1/2-z
7 1/2-x,1/2+y,z
8 x,1/2-y,1/2+z
_cell_length_a                   14.5655(5)
_cell_length_b                   8.3351(3)
_cell_length_c                   26.0998(10)
_cell_angle_alpha                90
_cell_angle_beta                 90
_cell_angle_gamma                90
_cell_volume                     3168.64
_exptl_crystal_colour            red
_exptl_crystal_description       plate
_chemical_melting_point          'decomposes above 280 deg.C'
_cell_formula_units_Z            8
_exptl_crystal_recrystallization_method water
loop_
_atom_site_label
_atom_site_type_symbol
_atom_site_fract_x
_atom_site_fract_y
_atom_site_fract_z
S1 S 0.12253(4) 0.29025(7) 0.36244(2)
O1 O 0.46421(11) 0.2804(2) 0.32157(7)
O2 O 0.11974(11) 0.1252(2) 0.26285(7)
O3 O 0.07246(12) 0.1507(2) 0.37779(8)
O4 O 0.06830(12) 0.4090(2) 0.33612(7)
N1 N 0.32683(13) 0.3471(3) 0.38450(8)
N2 N 0.42399(12) 0.1298(2) 0.22058(8)
N3 N 0.07399(13) 0.0679(2) 0.10848(7)
C1 C 0.17385(19) 0.3774(4) 0.41442(10)
C2 C 0.26397(19) 0.3954(3) 0.41970(9)
C3 C 0.30508(15) 0.2787(3) 0.33981(8)
C4 C 0.38793(14) 0.2454(3) 0.30620(9)
C5 C 0.36551(15) 0.1743(3) 0.25798(9)
C6 C 0.37622(16) 0.0614(3) 0.18207(9)
C7 C 0.28385(15) 0.0594(3) 0.19423(9)
C8 C 0.27707(14) 0.1319(3) 0.24294(8)
C9 C 0.19802(15) 0.1630(3) 0.27529(9)
C10 C 0.21708(14) 0.2420(3) 0.32479(9)
C11 C 0.20668(15) -0.0033(3) 0.16217(9)
C12 C 0.15488(16) 0.1314(3) 0.13623(9)
H1 H 0.13540 0.41520 0.44130
H2 H 0.28590 0.44540 0.45000
H3 H 0.38400 0.36110 0.39140
H4 H 0.48260 0.14320 0.22120
H5 H 0.40210 0.02060 0.15130
H6 H 0.23100 -0.07290 0.13670
H7 H 0.16560 -0.06150 0.18350
H8 H 0.19440 0.18380 0.11260
H9 H 0.13490 0.20600 0.16140
H10 H 0.09160 -0.00120 0.08600
H11 H 0.03730 0.02240 0.12980
H12 H 0.04580 0.14540 0.09340
Cl1 Cl 0.15353(6) -0.15334(10) 0.02332(3)
O5 O 0.01112(13) -0.3128(3) -0.05378(7)
H13 H 0.03810 -0.27880 -0.02470
H14 H -0.03750 -0.37480 -0.04600
O6 O 0.35257(16) -0.0221(3) 0.04824(11)
H15 H 0.29620 -0.05680 0.03960
H16 H 0.35100 0.08370 0.04910
loop_
_geom_bond_atom_site_label_1
_geom_bond_atom_site_label_2
_geom_bond_site_symmetry_1
_geom_bond_site_symmetry_2
S1 O3 1_555 1_555
O1 C4 1_555 1_555
O2 C9 1_555 1_555
O4 S1 1_555 1_555
N1 C2 1_555 1_555
N2 C5 1_555 1_555
N3 C12 1_555 1_555
C1 S1 1_555 1_555
C2 C1 1_555 1_555
C3 N1 1_555 1_555
C4 C3 1_555 1_555
C5 C4 1_555 1_555
C6 N2 1_555 1_555
C7 C6 1_555 1_555
C8 C5 1_555 1_555
C9 C8 1_555 1_555
C10 S1 1_555 1_555
C11 C7 1_555 1_555
C12 C11 1_555 1_555
H1 C1 1_555 1_555
H2 C2 1_555 1_555
H3 N1 1_555 1_555
H4 N2 1_555 1_555
H5 C6 1_555 1_555
H6 C11 1_555 1_555
H7 C11 1_555 1_555
H8 C12 1_555 1_555
H9 C12 1_555 1_555
H10 N3 1_555 1_555
H11 N3 1_555 1_555
H12 N3 1_555 1_555
O5 H13 1_555 1_555
H14 O5 1_555 1_555
O6 H15 1_555 1_555
H16 O6 1_555 1_555
C3 C10 1_555 1_555
C7 C8 1_555 1_555
C9 C10 1_555 1_555

#END
