
#######################################################################
#
#                 Cambridge Crystallographic Data Centre
#                                CCDC 
#
#######################################################################
#
# If this CIF has been generated from an entry in the Cambridge 
# Structural Database, then it will include bibliographic, chemical, 
# crystal, experimental, refinement or atomic coordinate data resulting 
# from the CCDC's data processing and validation procedures.
#
#######################################################################

data_NOSLIS
_chemical_formula_moiety         'C7 H8 O3'
_chemical_name_systematic        3a,4,7,7a-Tetrahydro-1,3-benzodioxol-2-one
_symmetry_cell_setting           orthorhombic
_symmetry_space_group_name_H-M   'P n m a'
_symmetry_Int_Tables_number      62
_space_group_name_Hall           '-P 2ac 2n'
loop_
_symmetry_equiv_pos_site_id
_symmetry_equiv_pos_as_xyz
1 x,y,z
2 1/2+x,1/2-y,1/2-z
3 -x,1/2+y,-z
4 1/2-x,-y,1/2+z
5 -x,-y,-z
6 1/2-x,1/2+y,1/2+z
7 x,1/2-y,z
8 1/2+x,y,1/2-z
_cell_length_a                   12.5014(14)
_cell_length_b                   9.9830(11)
_cell_length_c                   5.1959(6)
_cell_angle_alpha                90
_cell_angle_beta                 90
_cell_angle_gamma                90
_cell_volume                     648.456
_exptl_crystal_colour            colorless
_exptl_crystal_description       needle
_cell_formula_units_Z            4
loop_
_atom_site_label
_atom_site_type_symbol
_atom_site_fract_x
_atom_site_fract_y
_atom_site_fract_z
C1 C 0.67598(12) 0.2500 0.9322(3)
C2 C 0.78794(8) 0.17273(11) 0.6140(2)
H1 H 0.7614 0.1381 0.4451
C3 C 0.89578(9) 0.11059(12) 0.6779(2)
H2 H 0.8857 0.0154 0.7253
H3 H 0.9425 0.1141 0.5242
C4 C 0.94889(8) 0.18348(12) 0.8969(2)
H4 H 0.9819 0.1351 1.0329
O1 O 0.61829(9) 0.2500 1.1160(2)
O2 O 0.71272(6) 0.13908(8) 0.81825(16)
C2F C 0.78794(8) 0.32727(11) 0.6140(2)
H1F H 0.7614 0.3619 0.4451
C3F C 0.89578(9) 0.38941(12) 0.6779(2)
H2F H 0.8857 0.4846 0.7253
H3F H 0.9425 0.3859 0.5242
C4F C 0.94889(8) 0.31652(12) 0.8969(2)
H4F H 0.9819 0.3649 1.0329
O2F O 0.71272(6) 0.36092(8) 0.81825(16)
loop_
_geom_bond_atom_site_label_1
_geom_bond_atom_site_label_2
_geom_bond_site_symmetry_1
_geom_bond_site_symmetry_2
C1 O1 1_555 1_555
C2 H1 1_555 1_555
C3 C2 1_555 1_555
H2 C3 1_555 1_555
H3 C3 1_555 1_555
C4 C3 1_555 1_555
H4 C4 1_555 1_555
O2 C1 1_555 1_555
C2F C2 1_555 1_555
H1F C2F 1_555 1_555
C3F C2F 1_555 1_555
H2F C3F 1_555 1_555
H3F C3F 1_555 1_555
C4F C4 1_555 1_555
H4F C4F 1_555 1_555
O2F C1 1_555 1_555
C2 O2 1_555 1_555
C2F O2F 1_555 1_555
C3F C4F 1_555 1_555

#END
