
#######################################################################
#
#                 Cambridge Crystallographic Data Centre
#                                CCDC 
#
#######################################################################
#
# If this CIF has been generated from an entry in the Cambridge 
# Structural Database, then it will include bibliographic, chemical, 
# crystal, experimental, refinement or atomic coordinate data resulting 
# from the CCDC's data processing and validation procedures.
#
#######################################################################

data_NOSRAO
_chemical_formula_moiety         'C2 H5 Cl4 N3 O2 P2 S1'
_chemical_name_systematic        
'1-Ethoxy-3,3,5,5-tetrachloro-1\l^6^,2,4,6,3\l^5^,5\l^5^-thiatriazadiphosphinine 1-oxide'
_symmetry_cell_setting           triclinic
_symmetry_space_group_name_H-M   'P -1'
_symmetry_Int_Tables_number      2
_space_group_name_Hall           '-P 1'
loop_
_symmetry_equiv_pos_site_id
_symmetry_equiv_pos_as_xyz
1 x,y,z
2 -x,-y,-z
_cell_length_a                   6.348(1)
_cell_length_b                   8.068(1)
_cell_length_c                   12.609(3)
_cell_angle_alpha                96.22(1)
_cell_angle_beta                 97.90(7)
_cell_angle_gamma                107.61(1)
_cell_volume                     601.937
_exptl_crystal_colour            colorless
_cell_formula_units_Z            2
loop_
_atom_site_label
_atom_site_type_symbol
_atom_site_fract_x
_atom_site_fract_y
_atom_site_fract_z
Cl1 Cl 0.2007(5) 0.7543(4) 0.5455(3)
Cl2 Cl -0.2968(5) 0.6739(4) 0.4471(2)
Cl3 Cl -0.3505(6) 1.1283(5) 0.7264(3)
Cl4 Cl 0.1398(6) 1.1946(4) 0.8279(3)
S1 S -0.2132(5) 0.6611(4) 0.7778(2)
P1 P -0.0879(5) 0.7607(3) 0.5862(2)
P2 P -0.1252(5) 1.0065(4) 0.7408(2)
O1 O -0.4173(13) 0.5374(10) 0.7923(8)
O2 O -0.0354(16) 0.6245(12) 0.8619(7)
N1 N -0.1550(15) 0.6215(10) 0.6645(7)
N2 N -0.0734(17) 0.9536(11) 0.6288(8)
N3 N -0.2086(16) 0.8559(12) 0.8098(8)
C1 C 0.1881(28) 0.7140(22) 0.8682(13)
C2 C 0.3250(27) 0.7145(25) 0.9708(11)
H1 H 0.2088 0.8350 0.8613
H2 H 0.2428 0.6633 0.8101
H3 H 0.4824 0.7765 0.9757
H4 H 0.2697 0.7660 1.0284
H5 H 0.3038 0.5932 0.9768
loop_
_geom_bond_atom_site_label_1
_geom_bond_atom_site_label_2
_geom_bond_site_symmetry_1
_geom_bond_site_symmetry_2
Cl1 P1 1_555 1_555
Cl2 P1 1_555 1_555
Cl3 P2 1_555 1_555
Cl4 P2 1_555 1_555
S1 O1 1_555 1_555
P1 N1 1_555 1_555
P2 N2 1_555 1_555
O2 S1 1_555 1_555
N1 S1 1_555 1_555
N2 P1 1_555 1_555
N3 S1 1_555 1_555
C1 O2 1_555 1_555
C2 C1 1_555 1_555
H1 C1 1_555 1_555
H2 C1 1_555 1_555
H3 C2 1_555 1_555
H4 C2 1_555 1_555
H5 C2 1_555 1_555
P2 N3 1_555 1_555

#END
