
#######################################################################
#
#                 Cambridge Crystallographic Data Centre
#                                CCDC 
#
#######################################################################
#
# If this CIF has been generated from an entry in the Cambridge 
# Structural Database, then it will include bibliographic, chemical, 
# crystal, experimental, refinement or atomic coordinate data resulting 
# from the CCDC's data processing and validation procedures.
#
#######################################################################

data_NOTFUZ
_chemical_formula_moiety         'C22 H42 Mg2 N2 O6'
_chemical_name_systematic        
bis(\m~2~-1-(Dimethylamino)-2-methylpropan-2-olato)-bis(acetylacetonato)-di-magnesium
_symmetry_cell_setting           triclinic
_symmetry_space_group_name_H-M   'P -1'
_symmetry_Int_Tables_number      2
_space_group_name_Hall           '-P 1'
loop_
_symmetry_equiv_pos_site_id
_symmetry_equiv_pos_as_xyz
1 x,y,z
2 -x,-y,-z
_cell_length_a                   7.4739(2)
_cell_length_b                   10.2275(3)
_cell_length_c                   10.4806(3)
_cell_angle_alpha                106.722(2)
_cell_angle_beta                 109.032(2)
_cell_angle_gamma                101.980(2)
_cell_volume                     683.94
_exptl_crystal_colour            silver
_exptl_crystal_description       Block
_cell_formula_units_Z            1
_chemical_properties_physical    'air- and moisture-sensitive; hygroscropic'
loop_
_atom_site_label
_atom_site_type_symbol
_atom_site_fract_x
_atom_site_fract_y
_atom_site_fract_z
Mg1 Mg 0.16149(9) 0.14087(6) 0.04272(6)
O1 O 0.1060(2) 0.32698(14) 0.09303(14)
O2 O 0.44656(19) 0.24135(14) 0.19209(14)
O3 O 0.06676(19) 0.01305(13) 0.13325(13)
N1 N -0.2674(2) -0.15186(18) 0.13213(17)
C1 C 0.2237(3) 0.44723(19) 0.1956(2)
C2 C 0.4214(3) 0.4735(2) 0.2902(2)
H1 H 0.4929 0.5673 0.3651
C3 C 0.5220(3) 0.3712(2) 0.2827(2)
C4 C 0.1410(3) 0.5710(2) 0.2141(2)
H2 H 0.0024 0.5374 0.1411
H3 H 0.2232 0.6498 0.2009
H4 H 0.1437 0.6061 0.3124
C5 C 0.7382(3) 0.4180(2) 0.3885(2)
H5 H 0.7880 0.3360 0.3703
H6 H 0.7480 0.4509 0.4889
H7 H 0.8191 0.4973 0.3751
C6 C 0.0864(3) 0.02836(19) 0.27522(18)
C7 C -0.0773(3) -0.1007(2) 0.2630(2)
H8 H -0.0246 -0.1820 0.2617
H9 H -0.1055 -0.0720 0.3511
C8 C 0.0761(4) 0.1759(2) 0.3548(2)
H10 H 0.1833 0.2530 0.3589
H11 H 0.0929 0.1866 0.4544
H12 H -0.0544 0.1827 0.3021
C9 C 0.2898(3) 0.0200(2) 0.3633(2)
H13 H 0.3981 0.1004 0.3735
H14 H 0.3022 -0.0721 0.3124
H15 H 0.2988 0.0264 0.4605
C10 C -0.3830(4) -0.3000(3) 0.1052(3)
H16 H -0.3025 -0.3632 0.0931
H17 H -0.5069 -0.3361 0.0162
H18 H -0.4164 -0.2990 0.1884
C11 C -0.3892(4) -0.0576(3) 0.1503(3)
H19 H -0.5138 -0.0946 0.0617
H20 H -0.3136 0.0409 0.1673
H21 H -0.4214 -0.0563 0.2340
Mg1A Mg -0.16149(9) -0.14087(6) -0.04272(6)
O1A O -0.1060(2) -0.32698(14) -0.09303(14)
O2A O -0.44656(19) -0.24135(14) -0.19209(14)
O3A O -0.06676(19) -0.01305(13) -0.13325(13)
N1A N 0.2674(2) 0.15186(18) -0.13213(17)
C1A C -0.2237(3) -0.44723(19) -0.1956(2)
C2A C -0.4214(3) -0.4735(2) -0.2902(2)
H1A H -0.4929 -0.5673 -0.3651
C3A C -0.5220(3) -0.3712(2) -0.2827(2)
C4A C -0.1410(3) -0.5710(2) -0.2141(2)
H2A H -0.0024 -0.5374 -0.1411
H3A H -0.2232 -0.6498 -0.2009
H4A H -0.1437 -0.6061 -0.3124
C5A C -0.7382(3) -0.4180(2) -0.3885(2)
H5A H -0.7880 -0.3360 -0.3703
H6A H -0.7480 -0.4509 -0.4889
H7A H -0.8191 -0.4973 -0.3751
C6A C -0.0864(3) -0.02836(19) -0.27522(18)
C7A C 0.0773(3) 0.1007(2) -0.2630(2)
H8A H 0.0246 0.1820 -0.2617
H9A H 0.1055 0.0720 -0.3511
C8A C -0.0761(4) -0.1759(2) -0.3548(2)
H10A H -0.1833 -0.2530 -0.3589
H11A H -0.0929 -0.1866 -0.4544
H12A H 0.0544 -0.1827 -0.3021
C9A C -0.2898(3) -0.0200(2) -0.3633(2)
H13A H -0.3981 -0.1004 -0.3735
H14A H -0.3022 0.0721 -0.3124
H15A H -0.2988 -0.0264 -0.4605
C10A C 0.3830(4) 0.3000(3) -0.1052(3)
H16A H 0.3025 0.3632 -0.0931
H17A H 0.5069 0.3361 -0.0162
H18A H 0.4164 0.2990 -0.1884
C11A C 0.3892(4) 0.0576(3) -0.1503(3)
H19A H 0.5138 0.0946 -0.0617
H20A H 0.3136 -0.0409 -0.1673
H21A H 0.4214 0.0563 -0.2340
loop_
_geom_bond_atom_site_label_1
_geom_bond_atom_site_label_2
_geom_bond_site_symmetry_1
_geom_bond_site_symmetry_2
Mg1 O1 1_555 1_555
O1 C1 1_555 1_555
O2 Mg1 1_555 1_555
O3 Mg1 1_555 1_555
N1 C7 1_555 1_555
C1 C2 1_555 1_555
C2 H1 1_555 1_555
C3 O2 1_555 1_555
C4 C1 1_555 1_555
H2 C4 1_555 1_555
H3 C4 1_555 1_555
H4 C4 1_555 1_555
C5 C3 1_555 1_555
H5 C5 1_555 1_555
H6 C5 1_555 1_555
H7 C5 1_555 1_555
C6 O3 1_555 1_555
C7 C6 1_555 1_555
H8 C7 1_555 1_555
H9 C7 1_555 1_555
C8 C6 1_555 1_555
H10 C8 1_555 1_555
H11 C8 1_555 1_555
H12 C8 1_555 1_555
C9 C6 1_555 1_555
H13 C9 1_555 1_555
H14 C9 1_555 1_555
H15 C9 1_555 1_555
C10 N1 1_555 1_555
H16 C10 1_555 1_555
H17 C10 1_555 1_555
H18 C10 1_555 1_555
C11 N1 1_555 1_555
H19 C11 1_555 1_555
H20 C11 1_555 1_555
H21 C11 1_555 1_555
Mg1A O3 1_555 1_555
O1A Mg1A 1_555 1_555
O2A Mg1A 1_555 1_555
O3A Mg1 1_555 1_555
N1A Mg1 1_555 1_555
C1A O1A 1_555 1_555
C2A C1A 1_555 1_555
H1A C2A 1_555 1_555
C3A O2A 1_555 1_555
C4A C1A 1_555 1_555
H2A C4A 1_555 1_555
H3A C4A 1_555 1_555
H4A C4A 1_555 1_555
C5A C3A 1_555 1_555
H5A C5A 1_555 1_555
H6A C5A 1_555 1_555
H7A C5A 1_555 1_555
C6A O3A 1_555 1_555
C7A N1A 1_555 1_555
H8A C7A 1_555 1_555
H9A C7A 1_555 1_555
C8A C6A 1_555 1_555
H10A C8A 1_555 1_555
H11A C8A 1_555 1_555
H12A C8A 1_555 1_555
C9A C6A 1_555 1_555
H13A C9A 1_555 1_555
H14A C9A 1_555 1_555
H15A C9A 1_555 1_555
C10A N1A 1_555 1_555
H16A C10A 1_555 1_555
H17A C10A 1_555 1_555
H18A C10A 1_555 1_555
C11A N1A 1_555 1_555
H19A C11A 1_555 1_555
H20A C11A 1_555 1_555
H21A C11A 1_555 1_555
N1 Mg1A 1_555 1_555
C2 C3 1_555 1_555
Mg1A O3A 1_555 1_555
C2A C3A 1_555 1_555
C6A C7A 1_555 1_555

#END
