
#######################################################################
#
#                 Cambridge Crystallographic Data Centre
#                                CCDC 
#
#######################################################################
#
# If this CIF has been generated from an entry in the Cambridge 
# Structural Database, then it will include bibliographic, chemical, 
# crystal, experimental, refinement or atomic coordinate data resulting 
# from the CCDC's data processing and validation procedures.
#
#######################################################################

data_NOTFEJ
_chemical_formula_moiety         'C27 H27 N3 O3'
_chemical_name_systematic        
4-(2-(6,6-Dimethyl-2-nitro-12H-indolo[2,1-b][1,3]benzoxazin-5a(6H)-yl)vinyl)-N,N-dimethylaniline
_symmetry_cell_setting           monoclinic
_symmetry_space_group_name_H-M   'C 2/c'
_symmetry_Int_Tables_number      15
_space_group_name_Hall           '-C 2yn'
loop_
_symmetry_equiv_pos_site_id
_symmetry_equiv_pos_as_xyz
1 x,y,z
2 -x,y,1/2-z
3 1/2+x,1/2+y,z
4 1/2-x,1/2+y,1/2-z
5 -x,-y,-z
6 x,-y,1/2+z
7 1/2-x,1/2-y,-z
8 1/2+x,1/2-y,1/2+z
_cell_length_a                   24.174(11)
_cell_length_b                   10.013(5)
_cell_length_c                   19.969(9)
_cell_angle_alpha                90
_cell_angle_beta                 100.132(19)
_cell_angle_gamma                90
_cell_volume                     4758.2
_exptl_crystal_colour            yellow
_exptl_crystal_description       block
_cell_formula_units_Z            8
loop_
_atom_site_label
_atom_site_type_symbol
_atom_site_fract_x
_atom_site_fract_y
_atom_site_fract_z
C1 C 0.06982(9) 0.6967(2) 0.22815(10)
C2 C 0.05731(9) 0.72035(15) 0.15853(11)
H1 H 0.0488 0.8064 0.1424
C3 C 0.05748(8) 0.61540(18) 0.11301(7)
H2 H 0.0491 0.6312 0.0664
C4 C 0.07015(7) 0.48677(15) 0.13710(7)
C5 C 0.08266(8) 0.46311(17) 0.20672(8)
C6 C 0.08249(9) 0.5681(2) 0.25224(6)
H3 H 0.0909 0.5522 0.2988
C7 C 0.09442(14) 0.3197(4) 0.23066(15)
H4 H 0.1255 0.3186 0.2687
H5 H 0.0616 0.2837 0.2461
C8 C 0.16356(12) 0.2256(3) 0.16368(17)
C9 C 0.21348(14) 0.2397(4) 0.2088(2)
H6 H 0.2140 0.2623 0.2541
C10 C 0.26290(15) 0.2185(5) 0.1837(3)
H7 H 0.2971 0.2260 0.2131
C11 C 0.26276(15) 0.1872(4) 0.1172(3)
H8 H 0.2967 0.1763 0.1019
C12 C 0.21254(14) 0.1715(3) 0.0723(2)
H9 H 0.2124 0.1480 0.0272
C13 C 0.16266(12) 0.1913(3) 0.09586(18)
C14 C 0.10229(12) 0.1749(3) 0.06118(17)
C15 C 0.08978(17) 0.2266(4) -0.01112(17)
H10 H 0.1014 0.3182 -0.0119
H11 H 0.0502 0.2205 -0.0280
H12 H 0.1098 0.1741 -0.0392
C16 C 0.08684(15) 0.0261(3) 0.0627(2)
H13 H 0.0478 0.0147 0.0439
H14 H 0.0939 -0.0052 0.1089
H15 H 0.1092 -0.0240 0.0364
C17 C 0.07181(11) 0.2537(3) 0.11141(14)
C18 C 0.01268(11) 0.2159(3) 0.11451(15)
H16 H 0.0070 0.1354 0.1355
C19 C -0.03244(11) 0.2876(3) 0.08977(13)
H17 H -0.0259 0.3675 0.0687
C20 C -0.09118(10) 0.2560(3) 0.09161(12)
C21 C -0.13212(11) 0.3541(3) 0.07595(15)
H18 H -0.1217 0.4374 0.0617
C22 C -0.18739(12) 0.3322(3) 0.08073(16)
H19 H -0.2133 0.4011 0.0705
C23 C -0.20521(11) 0.2084(3) 0.10070(15)
C24 C -0.16429(11) 0.1084(3) 0.11537(15)
H20 H -0.1747 0.0241 0.1282
C25 C -0.10932(11) 0.1326(3) 0.11110(14)
H21 H -0.0832 0.0642 0.1216
C26 C -0.30068(14) 0.2930(4) 0.0959(2)
H22 H -0.2890 0.3638 0.1277
H23 H -0.3367 0.2601 0.1024
H24 H -0.3034 0.3262 0.0503
C27 C -0.27988(16) 0.0563(4) 0.1206(3)
H25 H -0.2695 -0.0063 0.0886
H26 H -0.3200 0.0580 0.1164
H27 H -0.2633 0.0299 0.1659
N1 N 0.07329(18) 0.8098(5) 0.2746(2)
N2 N 0.10819(10) 0.2365(3) 0.17623(12)
N3 N -0.26022(10) 0.1862(3) 0.10692(17)
O1 O 0.0539(3) 0.9168(7) 0.2514(3)
O2 O 0.0897(3) 0.7708(7) 0.3358(4)
O3 O 0.07265(7) 0.39364(18) 0.08962(8)
O4? O 0.0858(5) 0.9254(12) 0.2467(6)
O5? O 0.0694(6) 0.8165(12) 0.3280(7)
loop_
_geom_bond_atom_site_label_1
_geom_bond_atom_site_label_2
_geom_bond_site_symmetry_1
_geom_bond_site_symmetry_2
C1 C2 1_555 1_555
C2 H1 1_555 1_555
C3 C2 1_555 1_555
H2 C3 1_555 1_555
C4 C3 1_555 1_555
C5 C4 1_555 1_555
C6 C1 1_555 1_555
H3 C6 1_555 1_555
C7 C5 1_555 1_555
H4 C7 1_555 1_555
H5 C7 1_555 1_555
C8 C9 1_555 1_555
C9 H6 1_555 1_555
C10 C9 1_555 1_555
H7 C10 1_555 1_555
C11 C10 1_555 1_555
H8 C11 1_555 1_555
C12 C11 1_555 1_555
H9 C12 1_555 1_555
C13 C8 1_555 1_555
C14 C13 1_555 1_555
C15 C14 1_555 1_555
H10 C15 1_555 1_555
H11 C15 1_555 1_555
H12 C15 1_555 1_555
C16 C14 1_555 1_555
H13 C16 1_555 1_555
H14 C16 1_555 1_555
H15 C16 1_555 1_555
C17 C14 1_555 1_555
C18 C17 1_555 1_555
H16 C18 1_555 1_555
C19 C18 1_555 1_555
H17 C19 1_555 1_555
C20 C19 1_555 1_555
C21 C20 1_555 1_555
H18 C21 1_555 1_555
C22 C21 1_555 1_555
H19 C22 1_555 1_555
C23 C22 1_555 1_555
C24 C23 1_555 1_555
H20 C24 1_555 1_555
C25 C20 1_555 1_555
H21 C25 1_555 1_555
C26 H22 1_555 1_555
H23 C26 1_555 1_555
H24 C26 1_555 1_555
C27 H25 1_555 1_555
H26 C27 1_555 1_555
H27 C27 1_555 1_555
N1 C1 1_555 1_555
N2 C7 1_555 1_555
N3 C23 1_555 1_555
O1 N1 1_555 1_555
O2 N1 1_555 1_555
O3 C4 1_555 1_555
C5 C6 1_555 1_555
C8 N2 1_555 1_555
C12 C13 1_555 1_555
C17 N2 1_555 1_555
C17 O3 1_555 1_555
C24 C25 1_555 1_555
C26 N3 1_555 1_555
C27 N3 1_555 1_555

#END
