
#######################################################################
#
#                 Cambridge Crystallographic Data Centre
#                                CCDC 
#
#######################################################################
#
# If this CIF has been generated from an entry in the Cambridge 
# Structural Database, then it will include bibliographic, chemical, 
# crystal, experimental, refinement or atomic coordinate data resulting 
# from the CCDC's data processing and validation procedures.
#
#######################################################################

data_NOTGAG
_chemical_formula_moiety         'C34 H66 Mg2 N2 O6'
_chemical_name_systematic        
bis(\m~2~-1-(Dimethylamino)-2-methylpropan-2-olato)-bis(2,2,6,6-tetramethylheptane-3,5-dionato)-di-magnesium
_symmetry_cell_setting           triclinic
_symmetry_space_group_name_H-M   'P -1'
_symmetry_Int_Tables_number      2
_space_group_name_Hall           '-P 1'
loop_
_symmetry_equiv_pos_site_id
_symmetry_equiv_pos_as_xyz
1 x,y,z
2 -x,-y,-z
_cell_length_a                   9.9012(3)
_cell_length_b                   10.0337(4)
_cell_length_c                   11.2703(4)
_cell_angle_alpha                91.692(2)
_cell_angle_beta                 108.897(2)
_cell_angle_gamma                108.191(2)
_cell_volume                     995.68
_exptl_crystal_colour            silver
_exptl_crystal_description       Block
_cell_formula_units_Z            1
_chemical_properties_physical    'air- and moisture-sensitive; hygroscropic'
loop_
_atom_site_label
_atom_site_type_symbol
_atom_site_fract_x
_atom_site_fract_y
_atom_site_fract_z
Mg1 Mg 0.14957(6) 0.61008(6) 0.58146(5)
O1 O 0.36965(12) 0.62777(12) 0.65025(10)
O2 O 0.16986(12) 0.69600(12) 0.74853(10)
O3 O 0.04757(12) 0.40421(11) 0.54903(10)
N1 N -0.21399(15) 0.19278(14) 0.50585(13)
C1 C 0.46252(18) 0.67104(16) 0.76337(15)
C2 C 0.42481(18) 0.71911(17) 0.86308(15)
H1 H 0.5017 0.7472 0.9447
C3 C 0.28354(18) 0.72884(16) 0.85155(15)
C4 C 0.62589(18) 0.67622(18) 0.78554(15)
C5 C 0.6224(2) 0.5425(2) 0.71387(18)
H2 H 0.5767 0.4592 0.7491
H3 H 0.7261 0.5492 0.7227
H4 H 0.5620 0.5334 0.6240
C6 C 0.6991(2) 0.8067(2) 0.73117(18)
H5 H 0.7017 0.8925 0.7771
H6 H 0.6396 0.7982 0.6411
H7 H 0.8029 0.8128 0.7406
C7 C 0.7208(2) 0.6902(2) 0.92545(16)
H8 H 0.7242 0.7763 0.9715
H9 H 0.8242 0.6961 0.9336
H10 H 0.6750 0.6073 0.9610
C8 C 0.25255(18) 0.78003(17) 0.96719(15)
C9 C 0.39349(19) 0.8360(2) 1.08820(16)
H11 H 0.4375 0.7613 1.1106
H12 H 0.3645 0.8645 1.1576
H13 H 0.4685 0.9180 1.0736
C10 C 0.1356(2) 0.65211(19) 0.99128(17)
H14 H 0.1796 0.5773 1.0135
H15 H 0.0450 0.6162 0.9146
H16 H 0.1077 0.6812 1.0612
C11 C 0.1841(2) 0.89742(19) 0.93287(17)
H17 H 0.2588 0.9790 0.9175
H18 H 0.1564 0.9265 1.0030
H19 H 0.0933 0.8618 0.8562
C12 C 0.07388(19) 0.28673(17) 0.60340(16)
C13 C -0.07360(18) 0.15694(17) 0.54554(16)
H20 H -0.0685 0.1067 0.4710
H21 H -0.0789 0.0909 0.6088
C14 C 0.1980(2) 0.2550(2) 0.5686(2)
H22 H 0.2928 0.3358 0.6037
H23 H 0.1680 0.2385 0.4761
H24 H 0.2130 0.1703 0.6035
C15 C 0.1262(3) 0.3176(2) 0.74781(17)
H25 H 0.2191 0.4008 0.7792
H26 H 0.1464 0.2356 0.7847
H27 H 0.0465 0.3363 0.7721
C16 C -0.33977(19) 0.07310(18) 0.41900(18)
H28 H -0.3134 0.0500 0.3462
H29 H -0.4316 0.0989 0.3894
H30 H -0.3583 -0.0095 0.4634
C17 C -0.2558(2) 0.2271(2) 0.61397(18)
H31 H -0.3487 0.2511 0.5831
H32 H -0.1734 0.3082 0.6717
H33 H -0.2732 0.1451 0.6592
Mg1A Mg -0.14957(6) 0.38992(6) 0.41854(5)
O1A O -0.36965(12) 0.37223(12) 0.34975(10)
O2A O -0.16986(12) 0.30400(12) 0.25147(10)
O3A O -0.04757(12) 0.59579(11) 0.45097(10)
N1A N 0.21399(15) 0.80722(14) 0.49415(13)
C1A C -0.46252(18) 0.32896(16) 0.23663(15)
C2A C -0.42481(18) 0.28089(17) 0.13692(15)
H1A H -0.5017 0.2528 0.0553
C3A C -0.28354(18) 0.27116(16) 0.14845(15)
C4A C -0.62589(18) 0.32378(18) 0.21446(15)
C5A C -0.6224(2) 0.4575(2) 0.28613(18)
H2A H -0.5767 0.5408 0.2509
H3A H -0.7261 0.4508 0.2773
H4A H -0.5620 0.4666 0.3760
C6A C -0.6991(2) 0.1933(2) 0.26883(18)
H5A H -0.7017 0.1075 0.2229
H6A H -0.6396 0.2018 0.3589
H7A H -0.8029 0.1872 0.2594
C7A C -0.7208(2) 0.3098(2) 0.07455(16)
H8A H -0.7242 0.2237 0.0285
H9A H -0.8242 0.3039 0.0664
H10A H -0.6750 0.3927 0.0390
C8A C -0.25255(18) 0.21997(17) 0.03281(15)
C9A C -0.39349(19) 0.1640(2) -0.08820(16)
H11A H -0.4375 0.2387 -0.1106
H12A H -0.3645 0.1355 -0.1576
H13A H -0.4685 0.0820 -0.0736
C10A C -0.1356(2) 0.34789(19) 0.00872(17)
H14A H -0.1796 0.4227 -0.0135
H15A H -0.0450 0.3838 0.0854
H16A H -0.1077 0.3188 -0.0612
C11A C -0.1841(2) 0.10258(19) 0.06713(17)
H17A H -0.2588 0.0210 0.0825
H18A H -0.1564 0.0735 -0.0030
H19A H -0.0933 0.1382 0.1438
C12A C -0.07388(19) 0.71327(17) 0.39660(16)
C13A C 0.07360(18) 0.84306(17) 0.45446(16)
H20A H 0.0685 0.8933 0.5290
H21A H 0.0789 0.9091 0.3912
C14A C -0.1980(2) 0.7450(2) 0.4314(2)
H22A H -0.2928 0.6642 0.3963
H23A H -0.1680 0.7615 0.5239
H24A H -0.2130 0.8297 0.3965
C15A C -0.1262(3) 0.6824(2) 0.25219(17)
H25A H -0.2191 0.5992 0.2208
H26A H -0.1464 0.7644 0.2153
H27A H -0.0465 0.6637 0.2279
C16A C 0.33977(19) 0.92690(18) 0.58100(18)
H28A H 0.3134 0.9500 0.6538
H29A H 0.4316 0.9011 0.6106
H30A H 0.3583 1.0095 0.5366
C17A C 0.2558(2) 0.7729(2) 0.38603(18)
H31A H 0.3487 0.7489 0.4169
H32A H 0.1734 0.6918 0.3283
H33A H 0.2732 0.8549 0.3408
loop_
_geom_bond_atom_site_label_1
_geom_bond_atom_site_label_2
_geom_bond_site_symmetry_1
_geom_bond_site_symmetry_2
Mg1 O1 1_555 1_555
O1 C1 1_555 1_555
O2 Mg1 1_555 1_555
O3 Mg1 1_555 1_555
N1 C13 1_555 1_555
C1 C2 1_555 1_555
C2 H1 1_555 1_555
C3 O2 1_555 1_555
C4 C1 1_555 1_555
C5 C4 1_555 1_555
H2 C5 1_555 1_555
H3 C5 1_555 1_555
H4 C5 1_555 1_555
C6 C4 1_555 1_555
H5 C6 1_555 1_555
H6 C6 1_555 1_555
H7 C6 1_555 1_555
C7 C4 1_555 1_555
H8 C7 1_555 1_555
H9 C7 1_555 1_555
H10 C7 1_555 1_555
C8 C3 1_555 1_555
C9 C8 1_555 1_555
H11 C9 1_555 1_555
H12 C9 1_555 1_555
H13 C9 1_555 1_555
C10 C8 1_555 1_555
H14 C10 1_555 1_555
H15 C10 1_555 1_555
H16 C10 1_555 1_555
C11 C8 1_555 1_555
H17 C11 1_555 1_555
H18 C11 1_555 1_555
H19 C11 1_555 1_555
C12 O3 1_555 1_555
C13 C12 1_555 1_555
H20 C13 1_555 1_555
H21 C13 1_555 1_555
C14 C12 1_555 1_555
H22 C14 1_555 1_555
H23 C14 1_555 1_555
H24 C14 1_555 1_555
C15 C12 1_555 1_555
H25 C15 1_555 1_555
H26 C15 1_555 1_555
H27 C15 1_555 1_555
C16 N1 1_555 1_555
H28 C16 1_555 1_555
H29 C16 1_555 1_555
H30 C16 1_555 1_555
C17 N1 1_555 1_555
H31 C17 1_555 1_555
H32 C17 1_555 1_555
H33 C17 1_555 1_555
Mg1A O3 1_555 1_555
O1A Mg1A 1_555 1_555
O2A Mg1A 1_555 1_555
O3A Mg1 1_555 1_555
N1A Mg1 1_555 1_555
C1A O1A 1_555 1_555
C2A C1A 1_555 1_555
H1A C2A 1_555 1_555
C3A O2A 1_555 1_555
C4A C1A 1_555 1_555
C5A C4A 1_555 1_555
H2A C5A 1_555 1_555
H3A C5A 1_555 1_555
H4A C5A 1_555 1_555
C6A C4A 1_555 1_555
H5A C6A 1_555 1_555
H6A C6A 1_555 1_555
H7A C6A 1_555 1_555
C7A C4A 1_555 1_555
H8A C7A 1_555 1_555
H9A C7A 1_555 1_555
H10A C7A 1_555 1_555
C8A C3A 1_555 1_555
C9A C8A 1_555 1_555
H11A C9A 1_555 1_555
H12A C9A 1_555 1_555
H13A C9A 1_555 1_555
C10A C8A 1_555 1_555
H14A C10A 1_555 1_555
H15A C10A 1_555 1_555
H16A C10A 1_555 1_555
C11A C8A 1_555 1_555
H17A C11A 1_555 1_555
H18A C11A 1_555 1_555
H19A C11A 1_555 1_555
C12A O3A 1_555 1_555
C13A N1A 1_555 1_555
H20A C13A 1_555 1_555
H21A C13A 1_555 1_555
C14A C12A 1_555 1_555
H22A C14A 1_555 1_555
H23A C14A 1_555 1_555
H24A C14A 1_555 1_555
C15A C12A 1_555 1_555
H25A C15A 1_555 1_555
H26A C15A 1_555 1_555
H27A C15A 1_555 1_555
C16A N1A 1_555 1_555
H28A C16A 1_555 1_555
H29A C16A 1_555 1_555
H30A C16A 1_555 1_555
C17A N1A 1_555 1_555
H31A C17A 1_555 1_555
H32A C17A 1_555 1_555
H33A C17A 1_555 1_555
N1 Mg1A 1_555 1_555
C2 C3 1_555 1_555
Mg1A O3A 1_555 1_555
C2A C3A 1_555 1_555
C12A C13A 1_555 1_555

#END
