
#######################################################################
#
#                 Cambridge Crystallographic Data Centre
#                                CCDC 
#
#######################################################################
#
# If this CIF has been generated from an entry in the Cambridge 
# Structural Database, then it will include bibliographic, chemical, 
# crystal, experimental, refinement or atomic coordinate data resulting 
# from the CCDC's data processing and validation procedures.
#
#######################################################################

data_NOTLAL
_chemical_formula_moiety         'C10 H10 N2 2+,C8 H2 N2 O8 2-'
_chemical_name_systematic        
"4,4'-Bipyridinium 3,6-dicarboxypyrazine-2,5-dicarboxylate"
_symmetry_cell_setting           triclinic
_symmetry_space_group_name_H-M   'P -1'
_symmetry_Int_Tables_number      2
_space_group_name_Hall           '-P 1'
loop_
_symmetry_equiv_pos_site_id
_symmetry_equiv_pos_as_xyz
1 x,y,z
2 -x,-y,-z
_cell_length_a                   5.7601(12)
_cell_length_b                   7.8924(16)
_cell_length_c                   9.5384(19)
_cell_angle_alpha                98.82(3)
_cell_angle_beta                 107.13(3)
_cell_angle_gamma                93.31(3)
_cell_volume                     407.051
_exptl_crystal_colour            yellow
_exptl_crystal_description       block
_cell_formula_units_Z            1
loop_
_atom_site_label
_atom_site_type_symbol
_atom_site_fract_x
_atom_site_fract_y
_atom_site_fract_z
O1 O 0.93938(17) 0.97931(15) 0.61005(10)
O2 O 1.30712(18) 1.10991(15) 0.74642(11)
O3 O 0.67873(16) 0.60361(13) 1.01347(11)
O4 O 0.39633(17) 0.77081(14) 0.91545(11)
N1 N 0.8594(2) 0.90334(15) 0.86277(13)
C1 C 1.1047(2) 1.03932(19) 0.73351(16)
C2 C 1.0434(2) 1.02016(18) 0.87347(15)
C3 C 0.8152(2) 0.88204(18) 0.98925(15)
C4 C 0.6076(2) 0.74458(19) 0.97224(15)
O1A O 1.06062(17) 1.02069(15) 1.38995(10)
O2A O 0.69288(18) 0.89009(15) 1.25358(11)
O3A O 1.32127(16) 1.39639(13) 0.98653(11)
O4A O 1.60367(17) 1.22919(14) 1.08455(11)
N1A N 1.1406(2) 1.09666(15) 1.13723(13)
C1A C 0.8953(2) 0.96068(19) 1.26649(16)
C2A C 0.9566(2) 0.97984(18) 1.12653(15)
C3A C 1.1848(2) 1.11796(18) 1.01075(15)
C4A C 1.3924(2) 1.25542(19) 1.02776(15)
N2 N 0.4159(2) 0.72475(18) 0.37511(15)
C5 C 0.4472(3) 0.7445(2) 0.52120(17)
H1 H 0.5792 0.8169 0.5882
C6 C 0.2847(3) 0.6580(2) 0.57237(17)
H2 H 0.3054 0.6730 0.6741
C7 C 0.0882(2) 0.54732(19) 0.47214(16)
C8 C 0.0632(3) 0.5297(2) 0.32061(16)
H3 H -0.0651 0.4565 0.2510
C9 C 0.2286(3) 0.6210(2) 0.27450(17)
H4 H 0.2108 0.6109 0.1734
H5 H 0.523(3) 0.786(3) 0.342(2)
N2A N -0.4159(2) 0.27525(18) 0.62489(15)
C5A C -0.4472(3) 0.2555(2) 0.47880(17)
H1A H -0.5792 0.1831 0.4118
C6A C -0.2847(3) 0.3420(2) 0.42763(17)
H2A H -0.3054 0.3270 0.3259
C7A C -0.0882(2) 0.45268(19) 0.52786(16)
C8A C -0.0632(3) 0.4703(2) 0.67939(16)
H3A H 0.0651 0.5435 0.7490
C9A C -0.2286(3) 0.3790(2) 0.72550(17)
H4A H -0.2108 0.3891 0.8266
H5A H -0.523(3) 0.214(3) 0.658(2)
H6? H 0.9700 0.9702 0.5253
H7? H 0.5407 0.5400 1.0000
loop_
_geom_bond_atom_site_label_1
_geom_bond_atom_site_label_2
_geom_bond_site_symmetry_1
_geom_bond_site_symmetry_2
O1 C1 1_555 1_555
O2 C1 1_555 1_555
O3 C4 1_555 1_555
O4 C4 1_555 1_555
N1 C2 1_555 1_555
C1 C2 1_555 1_555
C2 C3A 1_555 1_555
C3 N1 1_555 1_555
C4 C3 1_555 1_555
N2 C5 1_555 1_555
C5 H1 1_555 1_555
C6 C5 1_555 1_555
H2 C6 1_555 1_555
C7 C6 1_555 1_555
C8 C7 1_555 1_555
H3 C8 1_555 1_555
C9 N2 1_555 1_555
H4 C9 1_555 1_555
H5 N2 1_555 1_555
O1A C1A 1_555 1_555
O2A C1A 1_555 1_555
O3A C4A 1_555 1_555
O4A C4A 1_555 1_555
N1A C2A 1_555 1_555
C1A C2A 1_555 1_555
C2A C3 1_555 1_555
C3A N1A 1_555 1_555
C4A C3A 1_555 1_555
N2A C5A 1_555 1_555
C5A H1A 1_555 1_555
C6A C5A 1_555 1_555
H2A C6A 1_555 1_555
C7A C7 1_555 1_555
C8A C7A 1_555 1_555
H3A C8A 1_555 1_555
C9A N2A 1_555 1_555
H4A C9A 1_555 1_555
H5A N2A 1_555 1_555
C8 C9 1_555 1_555
C6A C7A 1_555 1_555
C8A C9A 1_555 1_555

#END
