
#######################################################################
#
#                 Cambridge Crystallographic Data Centre
#                                CCDC 
#
#######################################################################
#
# If this CIF has been generated from an entry in the Cambridge 
# Structural Database, then it will include bibliographic, chemical, 
# crystal, experimental, refinement or atomic coordinate data resulting 
# from the CCDC's data processing and validation procedures.
#
#######################################################################

data_NOTMUE
_chemical_formula_moiety         'C10 H12 N2 O6'
_chemical_name_systematic        \b-6-(1-Oxyethyl)-2'-deoxyuridine
_symmetry_cell_setting           monoclinic
_symmetry_space_group_name_H-M   'P 21'
_symmetry_Int_Tables_number      4
_space_group_name_Hall           'P 2yb'
loop_
_symmetry_equiv_pos_site_id
_symmetry_equiv_pos_as_xyz
1 x,y,z
2 -x,1/2+y,-z
_cell_length_a                   9.07(1)
_cell_length_b                   10.658(8)
_cell_length_c                   11.718(6)
_cell_angle_alpha                90
_cell_angle_beta                 100.36(6)
_cell_angle_gamma                90
_cell_volume                     1114.29
_exptl_crystal_colour            colorless
_exptl_crystal_description       prism
_cell_formula_units_Z            4
loop_
_atom_site_label
_atom_site_type_symbol
_atom_site_fract_x
_atom_site_fract_y
_atom_site_fract_z
O1 O 0.2581(5) -0.1101 0.7506(4)
O2 O 0.3613(6) -0.1182(7) 0.5822(4)
O3 O 0.3549(7) -0.3816(7) 0.6907(6)
O4 O 0.3729(6) -0.1572(7) 0.9981(4)
O5 O 0.4986(6) 0.0505(6) 0.9078(4)
O6 O 0.5121(6) 0.4008(6) 0.6940(5)
N1 N 0.4307(6) 0.0341(6) 0.7097(4)
N2 N 0.5113(6) 0.2226(7) 0.7961(5)
C1 C 0.3881(7) -0.0992(7) 0.7005(5)
C2 C 0.4974(7) -0.1953(8) 0.7623(6)
C3 C 0.3964(8) -0.2993(8) 0.7875(6)
C4 C 0.2545(7) -0.2311(8) 0.8057(6)
C5 C 0.2419(8) -0.2097(9) 0.9323(7)
C6 C 0.3262(9) -0.0028(9) 0.5203(5)
C7 C 0.3959(7) 0.0935(8) 0.6055(5)
C8 C 0.4226(8) 0.2170(8) 0.5932(5)
C9 C 0.4829(7) 0.2897(8) 0.6937(5)
C10 C 0.4807(7) 0.0980(8) 0.8116(5)
H1 H 0.5634 -0.2236 0.7135
H2 H 0.5534 -0.1615 0.8315
H3 H 0.2223 -0.2873 0.9658
H4 H 0.1607 -0.1534 0.9352
H5 H 0.3679 -0.0007 0.4518
H6 H 0.2203 0.0089 0.5007
H7 H 0.4408 -0.3441 0.8555
H8 H 0.1691 -0.2762 0.7683
H9 H 0.4009 0.2552 0.5190
H19 H 0.4883 -0.1820 0.9917
H21 H 0.5562 0.2680 0.8636
H23 H 0.4394 -0.4456 0.7035
O7 O 0.1220(5) 0.2579(6) 0.7634(4)
O8 O -0.0529(9) 0.2815(7) 0.5942(4)
O9 O -0.0069(7) 0.5363(6) 0.7249(63)
O10 O 0.1251(5) 0.2853(7) 1.0135(4)
O11 O -0.0390(6) 0.0796(6) 0.9051(3)
O12 O -0.1723(6) -0.2469(6) 0.6608(4)
N3 N -0.0720(6) 0.1168(7) 0.7091(4)
N4 N -0.1125(6) -0.0798(7) 0.7794(4)
C11 C -0.0303(8) 0.2511(8) 0.7127(5)
C12 C -0.1119(7) 0.3389(8) 0.7783(6)
C13 C -0.0015(8) 0.4439(8) 0.8139(6)
C14 C 0.1499(7) 0.3750(8) 0.8264(5)
C15 C 0.2227(7) 0.3450(9) 0.9488(6)
C16 C -0.0782(8) 0.1772(8) 0.5203(5)
C17 C -0.0971(7) 0.0700(8) 0.5982(5)
C18 C -0.1316(8) -0.0505(8) 0.5757(5)
C19 C -0.1406(7) -0.1342(7) 0.6705(5)
C20 C -0.0705(7) 0.0422(8) 0.8055(5)
H10 H -0.2005 0.3698 0.7297
H11 H -0.1388 0.2984 0.8437
H12 H 0.2574 0.4207 0.9871
H13 H 0.3053 0.2906 0.9469
H14 H -0.1681 0.1896 0.4640
H15 H 0.0028 0.1639 0.4812
H16 H -0.0136 0.4808 0.8859
H17 H 0.2160 0.4245 0.7906
H18 H -0.1503 -0.0808 0.4979
H20 H 0.0016 0.3162 1.0000
H22 H -0.1242 -0.1323 0.8430
loop_
_geom_bond_atom_site_label_1
_geom_bond_atom_site_label_2
_geom_bond_site_symmetry_1
_geom_bond_site_symmetry_2
O1 C1 1_555 1_555
O2 C1 1_555 1_555
O3 C3 1_555 1_555
O4 C5 1_555 1_555
O5 C10 1_555 1_555
O6 C9 1_555 1_555
O7 C11 1_555 1_555
O8 C11 1_555 1_555
O9 C13 1_555 1_555
O10 C15 1_555 1_555
O11 C20 1_555 1_555
O12 C19 1_555 1_555
N1 C1 1_555 1_555
N2 C9 1_555 1_555
N3 C11 1_555 1_555
N4 C19 1_555 1_555
C1 C2 1_555 1_555
C2 C3 1_555 1_555
C3 C4 1_555 1_555
C4 O1 1_555 1_555
C5 C4 1_555 1_555
C6 O2 1_555 1_555
C7 N1 1_555 1_555
C8 C7 1_555 1_555
C9 C8 1_555 1_555
C10 N1 1_555 1_555
C11 C12 1_555 1_555
C12 C13 1_555 1_555
C13 C14 1_555 1_555
C14 O7 1_555 1_555
C15 C14 1_555 1_555
C16 O8 1_555 1_555
C17 N3 1_555 1_555
C18 C17 1_555 1_555
C19 C18 1_555 1_555
C20 N3 1_555 1_555
H1 C2 1_555 1_555
H2 C2 1_555 1_555
H3 C5 1_555 1_555
H4 C5 1_555 1_555
H5 C6 1_555 1_555
H6 C6 1_555 1_555
H7 C3 1_555 1_555
H8 C4 1_555 1_555
H9 C8 1_555 1_555
H10 C12 1_555 1_555
H11 C12 1_555 1_555
H12 C15 1_555 1_555
H13 C15 1_555 1_555
H14 C16 1_555 1_555
H15 C16 1_555 1_555
H16 C13 1_555 1_555
H17 C14 1_555 1_555
H18 C18 1_555 1_555
H19 O4 1_555 1_555
H20 O10 1_555 1_555
H21 N2 1_555 1_555
H22 N4 1_555 1_555
H23 O3 1_555 1_555
N2 C10 1_555 1_555
N4 C20 1_555 1_555
C6 C7 1_555 1_555
C16 C17 1_555 1_555

#END
