
#######################################################################
#
#                 Cambridge Crystallographic Data Centre
#                                CCDC 
#
#######################################################################
#
# If this CIF has been generated from an entry in the Cambridge 
# Structural Database, then it will include bibliographic, chemical, 
# crystal, experimental, refinement or atomic coordinate data resulting 
# from the CCDC's data processing and validation procedures.
#
#######################################################################

data_NOTWOK
_chemical_formula_moiety         '2(C12 H9 N2 1+),C6 H5 N1 O6 S2 2-,2(H2 O1)'
_chemical_name_systematic        
'bis(1,10-Phenanthrolinium) 2-aminobenzene-1,4-disulfonate dihydrate'
_symmetry_cell_setting           triclinic
_symmetry_space_group_name_H-M   'P -1'
_symmetry_Int_Tables_number      2
_space_group_name_Hall           '-P 1'
loop_
_symmetry_equiv_pos_site_id
_symmetry_equiv_pos_as_xyz
1 x,y,z
2 -x,-y,-z
_cell_length_a                   7.2306(8)
_cell_length_b                   10.5197(11)
_cell_length_c                   10.7519(12)
_cell_angle_alpha                101.6320(10)
_cell_angle_beta                 103.527(2)
_cell_angle_gamma                108.366(2)
_cell_volume                     720.265
_cell_formula_units_Z            1
loop_
_atom_site_label
_atom_site_type_symbol
_atom_site_fract_x
_atom_site_fract_y
_atom_site_fract_z
N2 N 0.2003(4) 0.2875(3) 0.4036(3)
H4 H 0.1991 0.2312 0.4516
N3 N 0.2518(5) 0.3720(3) 0.6715(3)
C4 C 0.1696(6) 0.2394(4) 0.2742(4)
H5 H 0.1480 0.1459 0.2373
C5 C 0.1689(6) 0.3249(5) 0.1926(4)
H6 H 0.1449 0.2894 0.1013
C6 C 0.2039(6) 0.4629(5) 0.2478(4)
H7 H 0.2053 0.5219 0.1939
C7 C 0.2376(5) 0.5156(4) 0.3855(4)
C8 C 0.2340(5) 0.4240(4) 0.4639(4)
C9 C 0.2621(5) 0.4689(4) 0.6038(4)
C10 C 0.2965(5) 0.6098(4) 0.6627(4)
C11 C 0.3175(6) 0.6502(5) 0.7985(5)
H8 H 0.3391 0.7421 0.8417
C12 C 0.3065(7) 0.5552(6) 0.8671(4)
H9 H 0.3214 0.5813 0.9579
C13 C 0.2723(7) 0.4168(5) 0.8002(4)
H10 H 0.2636 0.3527 0.8489
C14 C 0.2759(6) 0.6592(4) 0.4506(5)
H11 H 0.2807 0.7222 0.4008
C15 C 0.3045(6) 0.7026(4) 0.5806(5)
H12 H 0.3307 0.7963 0.6203
O4 O 0.2099(6) 0.0629(3) 0.4947(3)
H13 H 0.2412 0.0140 0.4360
H14 H 0.0864 0.0183 0.4894
N1 N 0.6747(9) 0.8985(7) 0.1943(6)
H1 H 0.7981 0.9015 0.2068
H2 H 0.6057 0.8650 0.2434
O1 O 0.1911(4) 0.7179(3) 0.1240(3)
O2 O 0.3661(4) 0.9281(3) 0.3122(3)
O3 O 0.0586(4) 0.9012(3) 0.1453(3)
S1 S 0.23953(15) 0.86628(10) 0.17268(10)
C1 C 0.5897(5) 0.9461(4) 0.0980(4)
C2 C 0.3894(5) 0.9458(3) 0.0796(3)
C3 C 0.3057(5) 0.9993(3) -0.0166(3)
H3 H 0.1739 0.9984 -0.0270
N1A N 0.3253(9) 1.1015(7) -0.1943(6)
H1A H 0.2019 1.0985 -0.2068
H2A H 0.3943 1.1350 -0.2434
O1A O 0.8089(4) 1.2821(3) -0.1240(3)
O2A O 0.6339(4) 1.0719(3) -0.3122(3)
O3A O 0.9414(4) 1.0988(3) -0.1453(3)
S1A S 0.76047(15) 1.13372(10) -0.17268(10)
C1A C 0.4103(5) 1.0539(4) -0.0980(4)
C2A C 0.6106(5) 1.0542(3) -0.0796(3)
C3A C 0.6943(5) 1.0007(3) 0.0166(3)
H3A H 0.8261 1.0016 0.0270
H15? H 0.6487 0.9108 0.1624
H16? H 0.2909 0.0793 0.5726
loop_
_geom_bond_atom_site_label_1
_geom_bond_atom_site_label_2
_geom_bond_site_symmetry_1
_geom_bond_site_symmetry_2
N1 H1 1_555 1_555
H2 N1 1_555 1_555
O1 S1 1_555 1_555
O2 S1 1_555 1_555
O3 S1 1_555 1_555
S1 C2 1_555 1_555
C1 N1 1_555 1_555
C2 C1 1_555 1_555
C3 C2 1_555 1_555
H3 C3 1_555 1_555
N2 H4 1_555 1_555
N3 C9 1_555 1_555
C4 N2 1_555 1_555
H5 C4 1_555 1_555
C5 C4 1_555 1_555
H6 C5 1_555 1_555
C6 C5 1_555 1_555
H7 C6 1_555 1_555
C7 C6 1_555 1_555
C8 N2 1_555 1_555
C9 C8 1_555 1_555
C10 C9 1_555 1_555
C11 C10 1_555 1_555
H8 C11 1_555 1_555
C12 C11 1_555 1_555
H9 C12 1_555 1_555
C13 N3 1_555 1_555
H10 C13 1_555 1_555
C14 C7 1_555 1_555
H11 C14 1_555 1_555
C15 C10 1_555 1_555
H12 C15 1_555 1_555
O4 H13 1_555 1_555
H14 O4 1_555 1_555
N1A H1A 1_555 1_555
H2A N1A 1_555 1_555
O1A S1A 1_555 1_555
O2A S1A 1_555 1_555
O3A S1A 1_555 1_555
S1A C2A 1_555 1_555
C1A C3 1_555 1_555
C2A C1A 1_555 1_555
C3A C1 1_555 1_555
H3A C3A 1_555 1_555
C7 C8 1_555 1_555
C12 C13 1_555 1_555
C14 C15 1_555 1_555
N1A C1A 1_555 1_555
C2A C3A 1_555 1_555

#END
