
#######################################################################
#
#                 Cambridge Crystallographic Data Centre
#                                CCDC 
#
#######################################################################
#
# If this CIF has been generated from an entry in the Cambridge 
# Structural Database, then it will include bibliographic, chemical, 
# crystal, experimental, refinement or atomic coordinate data resulting 
# from the CCDC's data processing and validation procedures.
#
#######################################################################

data_NOVCUW
_chemical_name_common            LB20304
_chemical_formula_moiety         'C23 H28 F1 N5 O6,C1 H2 Cl2'
_chemical_name_systematic        
'7-(4-(t-Butoxycarbonyl-aminomethyl)-3-(methoxyimino)pyrrolidin-1-yl)-1-cyclopropyl-6-fluoro-4-oxo-1,4-dihydro(1,8)naphthyridine-3-carboxylic acid dichloromethane solvate'
_chemical_properties_biological  'antibacterial activity'
_symmetry_cell_setting           monoclinic
_symmetry_space_group_name_H-M   'C 2'
_symmetry_Int_Tables_number      5
_space_group_name_Hall           'C 2y'
loop_
_symmetry_equiv_pos_site_id
_symmetry_equiv_pos_as_xyz
1 x,y,z
2 -x,y,-z
3 1/2+x,1/2+y,z
4 1/2-x,1/2+y,-z
_cell_length_a                   21.496(9)
_cell_length_b                   7.141(2)
_cell_length_c                   18.502(8)
_cell_angle_alpha                90
_cell_angle_beta                 104.56(2)
_cell_angle_gamma                90
_cell_volume                     2748.9
_exptl_crystal_colour            white
_exptl_crystal_description       plate
_cell_formula_units_Z            4
loop_
_atom_site_label
_atom_site_type_symbol
_atom_site_fract_x
_atom_site_fract_y
_atom_site_fract_z
Cl1 Cl 0.3296(9) 0.215(4) 0.621(1)
Cl2 Cl 0.469(1) 0.154(5) 0.610(1)
C1 C 0.406(1) 0.143(6) 0.651(1)
F1 F 0.0832(2) 0.177(3) -0.0316(3)
O1 O 0.2619(3) 0.180(4) -0.1645(4)
O2 O 0.4573(3) 0.178(4) -0.0893(5)
O3 O 0.3750(3) 0.185(3) -0.1824(4)
O4 O 0.2165(3) 0.183(3) 0.3448(4)
O5 O -0.0977(4) 0.195(4) 0.2388(5)
O6 O -0.0533(3) 0.198(4) 0.3605(4)
N1 N 0.2438(3) 0.165(3) 0.0869(4)
N2 N 0.3428(3) 0.158(2) 0.0613(4)
N3 N 0.1491(3) 0.183(4) 0.1227(4)
N4 N 0.1497(4) 0.185(4) 0.3135(5)
N5 N 0.0084(4) 0.211(4) 0.2834(5)
C2 C 0.1809(5) 0.200(3) -0.0632(6)
C3 C 0.1487(4) 0.192(2) -0.0107(4)
C4 C 0.1814(4) 0.184(2) 0.0676(5)
C5 C 0.2764(4) 0.179(3) 0.0353(5)
C6 C 0.2485(3) 0.169(2) -0.0424(4)
C7 C 0.3799(4) 0.205(3) 0.0122(5)
C8 C 0.3561(5) 0.176(3) -0.0611(6)
C9 C 0.2880(4) 0.192(3) -0.0944(5)
C10 C 0.3998(4) 0.191(5) -0.1105(5)
C11 C 0.3733(6) 0.123(2) 0.1400(7)
C12 C 0.0233(6) 0.250(2) 0.2117(7)
C13 C 0.0716(5) 0.129(2) 0.1940(5)
C14 C 0.2298(7) 0.192(7) 0.4259(7)
C15 C 0.0792(4) 0.166(3) 0.1146(5)
C16 C 0.1875(4) 0.189(3) 0.1999(5)
C17 C 0.3708(9) 0.261(4) 0.196(1)
C18 C 0.1399(4) 0.164(3) 0.2445(5)
C19 C -0.0515(4) 0.210(3) 0.2883(5)
C20 C -0.1142(4) 0.232(4) 0.3829(4)
C21 C -0.146(2) 0.382(8) 0.355(3)
C22 C 0.4316(6) 0.234(3) 0.1796(7)
C23 C -0.0880(7) 0.151(9) 0.4688(8)
C24 C -0.1534(6) 0.043(7) 0.353(1)
H1 H 0.328 0.208 -0.206
H2 H 0.421 0.258 0.030
H3 H 0.159 0.221 -0.114
H4 H 0.052 -0.032 0.184
H5 H 0.042 0.190 0.326
H6 H 0.363 -0.007 0.132
H7 H 0.365 0.220 0.243
H8 H 0.348 0.373 0.182
H9 H 0.449 0.327 0.154
H10 H 0.466 0.174 0.215
H11 H 0.062 0.063 0.082
H12 H 0.058 0.276 0.095
H13 H 0.209 0.303 0.211
H14 H 0.218 0.088 0.209
H15 H 0.275 0.188 0.447
H16 H 0.213 0.304 0.440
H17 H 0.211 0.087 0.444
H18 H -0.184 0.388 0.372
H19 H -0.121 0.487 0.370
H20 H -0.158 0.372 0.302
H21 H -0.122 0.153 0.494
H22 H -0.076 0.018 0.466
H23 H -0.052 0.217 0.495
H24 H -0.194 0.047 0.365
H25 H -0.160 0.033 0.301
H26 H -0.130 -0.064 0.377
H27 H 0.038 0.374 0.212
H28 H -0.015 0.235 0.173
Cl3? Cl 0.351(2) 0.117(7) 0.594(2)
Cl4? Cl 0.431(3) 0.27(1) 0.582(3)
loop_
_geom_bond_atom_site_label_1
_geom_bond_atom_site_label_2
_geom_bond_site_symmetry_1
_geom_bond_site_symmetry_2
Cl1 C1 1_555 1_555
Cl2 C1 1_555 1_555
F1 C3 1_555 1_555
O1 C9 1_555 1_555
O2 C10 1_555 1_555
O3 C10 1_555 1_555
O4 N4 1_555 1_555
O5 C19 1_555 1_555
O6 C19 1_555 1_555
N1 C4 1_555 1_555
N2 C5 1_555 1_555
N3 C4 1_555 1_555
N4 C18 1_555 1_555
N5 C12 1_555 1_555
C2 C3 1_555 1_555
C3 C4 1_555 1_555
C5 N1 1_555 1_555
C6 C2 1_555 1_555
C7 N2 1_555 1_555
C8 C7 1_555 1_555
C9 C6 1_555 1_555
C10 C8 1_555 1_555
C11 N2 1_555 1_555
C12 C13 1_555 1_555
C13 C15 1_555 1_555
C14 O4 1_555 1_555
C15 N3 1_555 1_555
C16 N3 1_555 1_555
C17 C11 1_555 1_555
C18 C13 1_555 1_555
C19 N5 1_555 1_555
C20 O6 1_555 1_555
C21 C20 1_555 1_555
C22 C11 1_555 1_555
C23 C20 1_555 1_555
C24 C20 1_555 1_555
H1 O3 1_555 1_555
H2 C7 1_555 1_555
H3 C2 1_555 1_555
H4 C13 1_555 1_555
H5 N5 1_555 1_555
H6 C11 1_555 1_555
H7 C17 1_555 1_555
H8 C17 1_555 1_555
H9 C22 1_555 1_555
H10 C22 1_555 1_555
H11 C15 1_555 1_555
H12 C15 1_555 1_555
H13 C16 1_555 1_555
H14 C16 1_555 1_555
H15 C14 1_555 1_555
H16 C14 1_555 1_555
H17 C14 1_555 1_555
H18 C21 1_555 1_555
H19 C21 1_555 1_555
H20 C21 1_555 1_555
H21 C23 1_555 1_555
H22 C23 1_555 1_555
H23 C23 1_555 1_555
H24 C24 1_555 1_555
H25 C24 1_555 1_555
H26 C24 1_555 1_555
H27 C12 1_555 1_555
H28 C12 1_555 1_555
C5 C6 1_555 1_555
C8 C9 1_555 1_555
C16 C18 1_555 1_555
C17 C22 1_555 1_555

#END
