
#######################################################################
#
#                 Cambridge Crystallographic Data Centre
#                                CCDC 
#
#######################################################################
#
# If this CIF has been generated from an entry in the Cambridge 
# Structural Database, then it will include bibliographic, chemical, 
# crystal, experimental, refinement or atomic coordinate data resulting 
# from the CCDC's data processing and validation procedures.
#
#######################################################################

data_NOVCUY
_chemical_formula_moiety         'C14 H11 N1 O1'
_chemical_name_systematic        1-Phenyl-1,3-dihydro-2H-indol-2-one
_symmetry_cell_setting           orthorhombic
_symmetry_space_group_name_H-M   'P b c a'
_symmetry_Int_Tables_number      61
_space_group_name_Hall           '-P 2ac 2ab'
loop_
_symmetry_equiv_pos_site_id
_symmetry_equiv_pos_as_xyz
1 x,y,z
2 1/2+x,1/2-y,-z
3 -x,1/2+y,1/2-z
4 1/2-x,-y,1/2+z
5 -x,-y,-z
6 1/2-x,1/2+y,z
7 x,1/2-y,1/2+z
8 1/2+x,y,1/2-z
_cell_length_a                   13.4478(2)
_cell_length_b                   7.94580(10)
_cell_length_c                   19.7535(3)
_cell_angle_alpha                90
_cell_angle_beta                 90
_cell_angle_gamma                90
_cell_volume                     2110.73
_exptl_crystal_colour            colorless
_exptl_crystal_description       prism
_cell_formula_units_Z            8
loop_
_atom_site_label
_atom_site_type_symbol
_atom_site_fract_x
_atom_site_fract_y
_atom_site_fract_z
O1 O 0.41852(5) 0.03620(8) 0.40114(3)
N1 N 0.38192(5) 0.32024(8) 0.40425(3)
C1 C 0.35867(7) 0.64126(12) 0.56937(5)
C2 C 0.37667(7) 0.46870(11) 0.57634(4)
C3 C 0.38318(6) 0.37082(10) 0.51854(4)
C4 C 0.37146(6) 0.44470(10) 0.45488(4)
C5 C 0.37295(6) 0.35261(11) 0.33347(4)
C6 C 0.45018(8) 0.31109(13) 0.28977(5)
C7 C 0.44158(10) 0.35112(15) 0.22139(5)
C8 C 0.35751(11) 0.43120(15) 0.19736(5)
C9 C 0.35551(6) 0.61577(10) 0.44682(4)
C10 C 0.34926(6) 0.71285(11) 0.50560(5)
C11 C 0.40344(6) 0.16541(10) 0.43270(4)
C12 C 0.40227(6) 0.18683(10) 0.50925(4)
C13 C 0.28729(8) 0.42958(13) 0.30941(5)
C14 C 0.28029(11) 0.46979(15) 0.24097(6)
H1 H 0.3856(10) 0.4195(18) 0.6211(7)
H2 H 0.3492(11) 0.6695(19) 0.4004(7)
H3 H 0.3375(10) 0.8340(18) 0.5010(7)
H4 H 0.3525(10) 0.7164(18) 0.6102(7)
H5 H 0.5085(10) 0.2546(18) 0.3082(7)
H6 H 0.4981(12) 0.323(2) 0.1920(9)
H7 H 0.3515(12) 0.463(2) 0.1477(9)
H8 H 0.2188(13) 0.525(2) 0.2242(9)
H9 H 0.2319(12) 0.4564(18) 0.3404(8)
H10 H 0.4653(9) 0.1472(17) 0.5272(6)
H11 H 0.3487(9) 0.1183(17) 0.5279(6)
loop_
_geom_bond_atom_site_label_1
_geom_bond_atom_site_label_2
_geom_bond_site_symmetry_1
_geom_bond_site_symmetry_2
O1 C11 1_555 1_555
N1 C4 1_555 1_555
C1 C2 1_555 1_555
C2 C3 1_555 1_555
C3 C4 1_555 1_555
C4 C9 1_555 1_555
C5 N1 1_555 1_555
C6 C5 1_555 1_555
C7 C6 1_555 1_555
C8 C7 1_555 1_555
C9 C10 1_555 1_555
C10 C1 1_555 1_555
C11 N1 1_555 1_555
C12 C3 1_555 1_555
C13 C5 1_555 1_555
C14 C8 1_555 1_555
H1 C2 1_555 1_555
H2 C9 1_555 1_555
H3 C10 1_555 1_555
H4 C1 1_555 1_555
H5 C6 1_555 1_555
H6 C7 1_555 1_555
H7 C8 1_555 1_555
H8 C14 1_555 1_555
H9 C13 1_555 1_555
H10 C12 1_555 1_555
H11 C12 1_555 1_555
C11 C12 1_555 1_555
C13 C14 1_555 1_555

#END
