
#######################################################################
#
#                 Cambridge Crystallographic Data Centre
#                                CCDC 
#
#######################################################################
#
# If this CIF has been generated from an entry in the Cambridge 
# Structural Database, then it will include bibliographic, chemical, 
# crystal, experimental, refinement or atomic coordinate data resulting 
# from the CCDC's data processing and validation procedures.
#
#######################################################################

data_NOVHEN
_chemical_formula_moiety         'C14 H15 N3'
_chemical_name_systematic        
4-Cyclopropyl-6-methyl-N-phenylpyrimidin-2-amine
_symmetry_cell_setting           monoclinic
_symmetry_space_group_name_H-M   'P 21/c'
_symmetry_Int_Tables_number      14
_space_group_name_Hall           '-P 2ybc'
loop_
_symmetry_equiv_pos_site_id
_symmetry_equiv_pos_as_xyz
1 x,y,z
2 -x,1/2+y,1/2-z
3 -x,-y,-z
4 x,1/2-y,1/2+z
_cell_length_a                   13.1920(6)
_cell_length_b                   5.3176(2)
_cell_length_c                   16.8641(7)
_cell_angle_alpha                90
_cell_angle_beta                 100.288(2)
_cell_angle_gamma                90
_cell_volume                     1163.99
_exptl_crystal_colour            colorless
_exptl_crystal_description       Block
_cell_formula_units_Z            4
loop_
_atom_site_label
_atom_site_type_symbol
_atom_site_fract_x
_atom_site_fract_y
_atom_site_fract_z
N1 N 0.64381(12) 0.1086(3) 0.81833(9)
H1 H 0.5882 0.0697 0.7834
N2 N 0.70730(12) 0.3584(3) 0.93020(9)
N3 N 0.53921(12) 0.4215(3) 0.84955(9)
C1 C 0.83033(14) 0.0059(4) 0.85440(11)
H2 H 0.8436 0.1437 0.8906
C2 C 0.90995(15) -0.1513(4) 0.84207(12)
H3 H 0.9778 -0.1183 0.8700
C3 C 0.89324(15) -0.3555(4) 0.79011(12)
H4 H 0.9486 -0.4621 0.7827
C4 C 0.79368(15) -0.4010(4) 0.74907(11)
H5 H 0.7808 -0.5396 0.7131
C5 C 0.71331(14) -0.2457(4) 0.76022(11)
H6 H 0.6458 -0.2787 0.7318
C6 C 0.73029(14) -0.0402(4) 0.81301(10)
C7 C 0.63140(14) 0.3035(4) 0.86853(10)
C8 C 0.69016(14) 0.5539(4) 0.97648(10)
C9 C 0.59859(15) 0.6871(4) 0.96202(11)
H7 H 0.5873 0.8251 0.9951
C10 C 0.52353(14) 0.6127(4) 0.89742(11)
C11 C 0.77222(15) 0.6184(4) 1.04550(11)
H8 H 0.7567 0.7622 1.0796
C12 C 0.83749(15) 0.4101(4) 1.08962(12)
H9 H 0.8585 0.4258 1.1488
H10 H 0.8239 0.2360 1.0698
C13 C 0.88371(16) 0.5880(4) 1.03804(12)
H11 H 0.8989 0.5239 0.9863
H12 H 0.9334 0.7136 1.0653
C14 C 0.42255(15) 0.7483(4) 0.87894(12)
H13 H 0.4283 0.8895 0.8427
H14 H 0.4043 0.8118 0.9291
H15 H 0.3690 0.6324 0.8530
loop_
_geom_bond_atom_site_label_1
_geom_bond_atom_site_label_2
_geom_bond_site_symmetry_1
_geom_bond_site_symmetry_2
N1 H1 1_555 1_555
N2 C7 1_555 1_555
N3 C7 1_555 1_555
C1 H2 1_555 1_555
C2 C1 1_555 1_555
H3 C2 1_555 1_555
C3 C2 1_555 1_555
H4 C3 1_555 1_555
C4 C3 1_555 1_555
H5 C4 1_555 1_555
C5 C4 1_555 1_555
H6 C5 1_555 1_555
C6 N1 1_555 1_555
C7 N1 1_555 1_555
C8 N2 1_555 1_555
C9 C8 1_555 1_555
H7 C9 1_555 1_555
C10 N3 1_555 1_555
C11 C8 1_555 1_555
H8 C11 1_555 1_555
C12 C11 1_555 1_555
H9 C12 1_555 1_555
H10 C12 1_555 1_555
C13 C11 1_555 1_555
H11 C13 1_555 1_555
H12 C13 1_555 1_555
C14 C10 1_555 1_555
H13 C14 1_555 1_555
H14 C14 1_555 1_555
H15 C14 1_555 1_555
C1 C6 1_555 1_555
C5 C6 1_555 1_555
C9 C10 1_555 1_555
C12 C13 1_555 1_555

#END
