
#######################################################################
#
#                 Cambridge Crystallographic Data Centre
#                                CCDC 
#
#######################################################################
#
# If this CIF has been generated from an entry in the Cambridge 
# Structural Database, then it will include bibliographic, chemical, 
# crystal, experimental, refinement or atomic coordinate data resulting 
# from the CCDC's data processing and validation procedures.
#
#######################################################################

data_NOVLAL
_chemical_formula_moiety         'C11 H13 N1 O1'
_chemical_name_systematic        10-Cyanotricyclo(5.2.1.0^1,6^)decan-2-one
_symmetry_cell_setting           monoclinic
_symmetry_space_group_name_H-M   'P 21/n'
_symmetry_Int_Tables_number      14
_space_group_name_Hall           '-P 2yn'
loop_
_symmetry_equiv_pos_site_id
_symmetry_equiv_pos_as_xyz
1 x,y,z
2 1/2-x,1/2+y,1/2-z
3 -x,-y,-z
4 1/2+x,1/2-y,1/2+z
_cell_length_a                   6.430(1)
_cell_length_b                   16.119(2)
_cell_length_c                   9.118(1)
_cell_angle_alpha                90
_cell_angle_beta                 93.53(1)
_cell_angle_gamma                90
_cell_volume                     943.244
_exptl_crystal_colour            colorless
_exptl_crystal_description       cubes
_chemical_melting_point          114deg.C
_cell_formula_units_Z            4
loop_
_atom_site_label
_atom_site_type_symbol
_atom_site_fract_x
_atom_site_fract_y
_atom_site_fract_z
O1 O 0.1483(2) 0.0633(1) 0.9142(2)
N1 N -0.3941(5) 0.1225(2) 1.2375(3)
C1 C -0.3866(3) 0.1187(1) 0.9527(2)
C2 C -0.4495(3) 0.1994(2) 0.8664(3)
C3 C -0.3067(4) 0.2645(2) 0.9434(3)
C4 C -0.0990(3) 0.2149(1) 0.9557(3)
C5 C -0.1736(3) 0.1343(1) 0.8810(2)
C6 C -0.0258(3) 0.0653(1) 0.8543(2)
C7 C -0.1041(3) 0.0015(2) 0.7448(3)
C8 C -0.2109(4) 0.0414(2) 0.6070(2)
C9 C -0.3911(4) 0.0970(2) 0.6436(3)
C10 C -0.3120(3) 0.1664(1) 0.7459(2)
C11 C -0.3891(3) 0.1202(2) 1.1128(3)
H1 H -0.4567 0.0707 0.9118
H2 H -0.5939 0.2118 0.8430
H3 H -0.3526 0.2797 1.0379
H4 H -0.2955 0.3133 0.8840
H5 H -0.0510 0.2060 1.0563
H6 H 0.0085 0.2412 0.9038
H7 H -0.2028 -0.0338 0.7892
H8 H 0.0105 -0.0324 0.7180
H9 H -0.2594 -0.0011 0.5396
H10 H -0.1104 0.0745 0.5598
H11 H -0.4909 0.0647 0.6929
H12 H -0.4587 0.1194 0.5555
H13 H -0.2467 0.2100 0.6938
loop_
_geom_bond_atom_site_label_1
_geom_bond_atom_site_label_2
_geom_bond_site_symmetry_1
_geom_bond_site_symmetry_2
O1 C6 1_555 1_555
N1 C11 1_555 1_555
C1 C2 1_555 1_555
C2 C3 1_555 1_555
C3 C4 1_555 1_555
C4 C5 1_555 1_555
C5 C1 1_555 1_555
C6 C5 1_555 1_555
C7 C6 1_555 1_555
C8 C7 1_555 1_555
C9 C8 1_555 1_555
C10 C2 1_555 1_555
C11 C1 1_555 1_555
H1 C1 1_555 1_555
H2 C2 1_555 1_555
H3 C3 1_555 1_555
H4 C3 1_555 1_555
H5 C4 1_555 1_555
H6 C4 1_555 1_555
H7 C7 1_555 1_555
H8 C7 1_555 1_555
H9 C8 1_555 1_555
H10 C8 1_555 1_555
H11 C9 1_555 1_555
H12 C9 1_555 1_555
H13 C10 1_555 1_555
C5 C10 1_555 1_555
C9 C10 1_555 1_555

#END
