
#######################################################################
#
#                 Cambridge Crystallographic Data Centre
#                                CCDC 
#
#######################################################################
#
# If this CIF has been generated from an entry in the Cambridge 
# Structural Database, then it will include bibliographic, chemical, 
# crystal, experimental, refinement or atomic coordinate data resulting 
# from the CCDC's data processing and validation procedures.
#
#######################################################################

data_NOVQOE
_chemical_formula_moiety         'C16 H17 N2 O5 S1 1-,Na1 1+'
_chemical_name_systematic        'Sodium phenoxymethylpenicillin'
_symmetry_cell_setting           monoclinic
_symmetry_space_group_name_H-M   'P 21'
_symmetry_Int_Tables_number      4
_space_group_name_Hall           'P 2yb'
loop_
_symmetry_equiv_pos_site_id
_symmetry_equiv_pos_as_xyz
1 x,y,z
2 -x,1/2+y,-z
_cell_length_a                   8.841(1)
_cell_length_b                   6.129(7)
_cell_length_c                   15.929(2)
_cell_angle_alpha                90
_cell_angle_beta                 97.43
_cell_angle_gamma                90
_cell_volume                     855.889
_cell_formula_units_Z            2
loop_
_atom_site_label
_atom_site_type_symbol
_atom_site_fract_x
_atom_site_fract_y
_atom_site_fract_z
S1 S 0.14286(7) 0.5329(2) 0.29510(4)
O1 O 0.3169(3) 1.1345(4) 0.4553(1)
O2 O 0.3363(2) 0.7736(4) 0.4606(1)
O3 O -0.2271(3) 0.9288(5) 0.3606(2)
O4 O -0.4421(2) 0.3961(5) 0.3262(2)
O5 O -0.2814(3) 0.2449(5) 0.1429(1)
N1 N 0.0188(2) 0.7827(4) 0.4010(1)
N2 N -0.2061(3) 0.4427(5) 0.2892(1)
C1 C 0.1592(3) 0.8297(5) 0.2818(2)
C2 C 0.3172(4) 0.8835(6) 0.2599(2)
C3 C 0.0370(4) 0.9108(6) 0.2118(2)
C4 C 0.1296(3) 0.9265(4) 0.3688(1)
C5 C 0.2735(3) 0.9459(5) 0.4331(2)
C6 C 0.0354(3) 0.5483(5) 0.3844(2)
C7 C -0.1422(3) 0.5322(6) 0.3689(2)
C8 C -0.1374(3) 0.7825(6) 0.3752(2)
C9 C -0.3497(3) 0.3685(6) 0.2771(2)
C10 C -0.3925(4) 0.2284(7) 0.1999(2)
C11 C -0.2789(3) 0.0849(6) 0.0839(2)
C12 C -0.3526(4) -0.1157(7) 0.0863(3)
C13 C -0.3345(6) -0.2710(8) 0.0248(3)
C14 C -0.2489(6) -0.2295(9) -0.0379(3)
C15 C -0.1765(6) -0.029(1) -0.0403(3)
C16 C -0.1907(5) 0.1260(8) 0.0205(2)
H1 H 0.3949(4) 0.8325(6) 0.3071(2)
H2 H 0.0459(4) 1.0724(6) 0.2047(2)
H3 H 0.0510(4) 0.8364(6) 0.1574(2)
H4 H -0.0662(4) 0.8748(6) 0.2273(2)
H5 H 0.0863(3) 1.0773(4) 0.3623(1)
H6 H 0.0801(3) 0.4428(5) 0.4289(2)
H7 H -0.2072(3) 0.4341(6) 0.3994(2)
H8 H -0.4928(4) 0.2800(7) 0.1703(2)
H9 H -0.4018(4) 0.0727(7) 0.2176(2)
H10 H -0.4169(4) -0.1476(7) 0.1321(3)
H11 H -0.3862(6) -0.4162(8) 0.0254(3)
H12 H -0.2366(6) -0.3418(9) -0.0821(3)
H13 H -0.1139(6) 0.002(1) -0.0869(3)
H14 H -0.1354(5) 0.2683(8) 0.0195(2)
H15 H -0.1415(3) 0.4366(5) 0.2421(1)
Na1 Na 0.5464(1) 0.9462(2) 0.55007(7)
loop_
_geom_bond_atom_site_label_1
_geom_bond_atom_site_label_2
_geom_bond_site_symmetry_1
_geom_bond_site_symmetry_2
S1 C1 1_555 1_555
O1 C5 1_555 1_555
O2 C5 1_555 1_555
O3 C8 1_555 1_555
O4 C9 1_555 1_555
O5 C10 1_555 1_555
N1 C4 1_555 1_555
N2 C7 1_555 1_555
C1 C2 1_555 1_555
C2 H1 1_555 1_555
C3 C1 1_555 1_555
C4 C1 1_555 1_555
C5 C4 1_555 1_555
C6 S1 1_555 1_555
C7 C6 1_555 1_555
C8 N1 1_555 1_555
C9 N2 1_555 1_555
C10 C9 1_555 1_555
C11 O5 1_555 1_555
C12 C11 1_555 1_555
C13 C12 1_555 1_555
C14 C13 1_555 1_555
C15 C14 1_555 1_555
C16 C11 1_555 1_555
H2 C3 1_555 1_555
H3 C3 1_555 1_555
H4 C3 1_555 1_555
H5 C4 1_555 1_555
H6 C6 1_555 1_555
H7 C7 1_555 1_555
H8 C10 1_555 1_555
H9 C10 1_555 1_555
H10 C12 1_555 1_555
H11 C13 1_555 1_555
H12 C14 1_555 1_555
H13 C15 1_555 1_555
H14 C16 1_555 1_555
H15 N2 1_555 1_555
N1 C6 1_555 1_555
C7 C8 1_555 1_555
C15 C16 1_555 1_555

#END
