
#######################################################################
#
#                 Cambridge Crystallographic Data Centre
#                                CCDC 
#
#######################################################################
#
# If this CIF has been generated from an entry in the Cambridge 
# Structural Database, then it will include bibliographic, chemical, 
# crystal, experimental, refinement or atomic coordinate data resulting 
# from the CCDC's data processing and validation procedures.
#
#######################################################################

data_NOVQIY
_chemical_formula_moiety         'C16 H17 N2 O5 S1 1-,Li1 1+,H2 O1'
_chemical_name_systematic        'Lithium phenoxymethylpenicillin monohydrate'
_symmetry_cell_setting           orthorhombic
_symmetry_space_group_name_H-M   'P 21 21 21'
_symmetry_Int_Tables_number      19
_space_group_name_Hall           'P 2ac 2ab'
loop_
_symmetry_equiv_pos_site_id
_symmetry_equiv_pos_as_xyz
1 x,y,z
2 1/2-x,-y,1/2+z
3 1/2+x,1/2-y,-z
4 -x,1/2+y,1/2-z
_cell_length_a                   7.425(1)
_cell_length_b                   21.777(2)
_cell_length_c                   22.677(2)
_cell_angle_alpha                90
_cell_angle_beta                 90
_cell_angle_gamma                90
_cell_volume                     3666.74
_cell_formula_units_Z            8
loop_
_atom_site_label
_atom_site_type_symbol
_atom_site_fract_x
_atom_site_fract_y
_atom_site_fract_z
S1 S -0.1753(3) 0.15926(8) 0.33296(8)
O1 O -0.3504(6) 0.0364(2) 0.4850(2)
O2 O -0.0821(7) 0.0584(2) 0.4466(2)
O3 O -0.2749(8) 0.2728(2) 0.4869(2)
O4 O -0.0371(7) 0.3831(2) 0.4124(2)
O5 O -0.1946(8) 0.3548(2) 0.2687(2)
N1 N -0.1643(8) 0.1805(2) 0.4464(2)
N2 N -0.0927(9) 0.2971(2) 0.3613(2)
C1 C -0.379(1) 0.1390(3) 0.3774(3)
C2 C -0.517(1) 0.1910(3) 0.3724(3)
C3 C -0.452(2) 0.0793(3) 0.3550(3)
C4 C -0.310(1) 0.1357(3) 0.4426(3)
C5 C -0.242(1) 0.0712(3) 0.4590(3)
C6 C -0.046(1) 0.1870(3) 0.3952(3)
C7 C -0.039(1) 0.2569(3) 0.4087(3)
C8 C -0.180(1) 0.2428(3) 0.4554(3)
C9 C -0.0835(9) 0.3581(3) 0.3670(3)
C10 C -0.133(1) 0.3951(3) 0.3134(3)
C11 C -0.215(1) 0.3769(4) 0.2121(3)
C12 C -0.278(1) 0.3339(4) 0.1715(4)
C13 C -0.297(1) 0.3505(6) 0.1134(4)
C14 C -0.256(1) 0.4089(7) 0.0951(4)
C15 C -0.195(1) 0.4496(5) 0.1354(4)
C16 C -0.174(1) 0.4348(4) 0.1948(3)
H1 H -0.464(1) 0.2299(3) 0.3877(3)
H2 H -0.627(1) 0.1808(3) 0.3961(3)
H3 H -0.552(1) 0.1965(3) 0.3301(3)
H4 H -0.358(2) 0.0466(3) 0.3590(3)
H5 H -0.561(2) 0.0676(3) 0.3785(3)
H6 H -0.486(2) 0.0837(3) 0.3126(3)
H7 H -0.405(1) 0.1462(3) 0.4721(3)
H8 H 0.077(1) 0.1686(3) 0.3940(3)
H9 H -0.1375(9) 0.2791(2) 0.3235(2)
H10 H 0.073(1) 0.2811(3) 0.4166(3)
H11 H -0.230(1) 0.4249(3) 0.3236(3)
H12 H -0.024(1) 0.4179(3) 0.2990(3)
H13 H -0.308(1) 0.2913(4) 0.1845(4)
H14 H -0.341(1) 0.3197(6) 0.0841(4)
H15 H -0.271(1) 0.4211(7) 0.0529(4)
H16 H -0.164(1) 0.4920(5) 0.1220(4)
H17 H -0.131(1) 0.4660(4) 0.2238(3)
S2 S 0.0111(4) 0.19898(8) 0.16895(9)
O6 O 0.1743(8) 0.0233(2) 0.0629(2)
O7 O -0.0629(8) 0.0852(2) 0.0587(3)
O8 O 0.448(1) 0.2315(4) 0.0482(3)
O9 O 0.2675(8) 0.4003(2) 0.0679(2)
O10 O 0.2866(9) 0.3713(2) 0.2198(2)
N3 N 0.172(1) 0.1824(3) 0.0684(2)
N4 N 0.1963(9) 0.3188(2) 0.1233(2)
C17 C 0.177(2) 0.1364(3) 0.1633(3)
C18 C 0.112(2) 0.0809(4) 0.1955(4)
C19 C 0.357(2) 0.1598(6) 0.1903(5)
C20 C 0.207(1) 0.1253(3) 0.0974(3)
C21 C 0.095(1) 0.0737(3) 0.0696(3)
C22 C 0.028(1) 0.2210(3) 0.0928(3)
C23 C 0.147(1) 0.2778(3) 0.0767(3)
C24 C 0.289(2) 0.2304(4) 0.0598(4)
C25 C 0.254(1) 0.3766(3) 0.1159(3)
C26 C 0.297(1) 0.4111(3) 0.1705(3)
C27 C 0.337(1) 0.3927(4) 0.2744(3)
C28 C 0.356(1) 0.4550(4) 0.2871(4)
C29 C 0.396(1) 0.4708(4) 0.3450(4)
C30 C 0.421(1) 0.4272(5) 0.3877(4)
C31 C 0.402(1) 0.3673(5) 0.3743(4)
C32 C 0.357(1) 0.3502(4) 0.3174(3)
H18 H 0.399(2) 0.1969(6) 0.1682(5)
H19 H 0.337(2) 0.1708(6) 0.2326(5)
H20 H 0.450(2) 0.1269(6) 0.1875(5)
H21 H 0.335(1) 0.1132(3) 0.0907(3)
H22 H -0.095(1) 0.2228(3) 0.0750(3)
H23 H 0.1872(9) 0.3031(2) 0.1646(2)
H24 H 0.107(1) 0.3129(3) 0.0514(3)
H25 H 0.210(1) 0.4455(3) 0.1756(3)
H26 H 0.422(1) 0.4281(3) 0.1675(3)
H27 H 0.340(1) 0.4870(4) 0.2560(4)
H28 H 0.408(1) 0.5151(4) 0.3557(4)
H29 H 0.453(1) 0.4398(5) 0.4287(4)
H30 H 0.420(1) 0.3353(5) 0.4054(4)
H31 H 0.339(1) 0.3058(4) 0.3079(3)
Li1 Li 0.430(2) 0.0506(5) 0.5308(5)
Li2 Li 0.777(1) 0.0507(5) 0.0021(5)
O11 O 0.2502(7) 0.0978(2) 0.4845(3)
H32 H 0.164(9) 0.080(3) 0.468(4)
H33 H 0.22(1) 0.135(2) 0.489(4)
O12 O 0.522(1) 0.0460(4) 0.0181(3)
H34 H 0.54(1) 0.084(3) 0.039(4)
H35 H 0.421(9) 0.030(3) 0.031(4)
loop_
_geom_bond_atom_site_label_1
_geom_bond_atom_site_label_2
_geom_bond_site_symmetry_1
_geom_bond_site_symmetry_2
S1 C1 1_555 1_555
O1 C5 1_555 1_555
O2 C5 1_555 1_555
O3 C8 1_555 1_555
O4 C9 1_555 1_555
O5 C10 1_555 1_555
N1 C4 1_555 1_555
N2 C7 1_555 1_555
C1 C2 1_555 1_555
C2 H1 1_555 1_555
C3 C1 1_555 1_555
C4 C1 1_555 1_555
C5 C4 1_555 1_555
C6 S1 1_555 1_555
C7 C6 1_555 1_555
C8 N1 1_555 1_555
C9 N2 1_555 1_555
C10 C9 1_555 1_555
C11 O5 1_555 1_555
C12 C11 1_555 1_555
C13 C12 1_555 1_555
C14 C13 1_555 1_555
C15 C14 1_555 1_555
C16 C11 1_555 1_555
H2 C2 1_555 1_555
H3 C2 1_555 1_555
H4 C3 1_555 1_555
H5 C3 1_555 1_555
H6 C3 1_555 1_555
H7 C4 1_555 1_555
H8 C6 1_555 1_555
H9 N2 1_555 1_555
H10 C7 1_555 1_555
H11 C10 1_555 1_555
H12 C10 1_555 1_555
H13 C12 1_555 1_555
H14 C13 1_555 1_555
H15 C14 1_555 1_555
H16 C15 1_555 1_555
H17 C16 1_555 1_555
S2 C17 1_555 1_555
O6 C21 1_555 1_555
O7 C21 1_555 1_555
O8 C24 1_555 1_555
O9 C25 1_555 1_555
O10 C26 1_555 1_555
N3 C20 1_555 1_555
N4 C23 1_555 1_555
C17 C18 1_555 1_555
C19 C17 1_555 1_555
C20 C17 1_555 1_555
C21 C20 1_555 1_555
C22 S2 1_555 1_555
C23 C22 1_555 1_555
C24 N3 1_555 1_555
C25 N4 1_555 1_555
C26 C25 1_555 1_555
C27 O10 1_555 1_555
C28 C27 1_555 1_555
C29 C28 1_555 1_555
C30 C29 1_555 1_555
C31 C30 1_555 1_555
C32 C27 1_555 1_555
H18 C19 1_555 1_555
H19 C19 1_555 1_555
H20 C19 1_555 1_555
H21 C20 1_555 1_555
H22 C22 1_555 1_555
H23 N4 1_555 1_555
H24 C23 1_555 1_555
H25 C26 1_555 1_555
H26 C26 1_555 1_555
H27 C28 1_555 1_555
H28 C29 1_555 1_555
H29 C30 1_555 1_555
H30 C31 1_555 1_555
H31 C32 1_555 1_555
O11 H32 1_555 1_555
H33 O11 1_555 1_555
O12 H34 1_555 1_555
H35 O12 1_555 1_555
N1 C6 1_555 1_555
C7 C8 1_555 1_555
C15 C16 1_555 1_555
N3 C22 1_555 1_555
C23 C24 1_555 1_555
C31 C32 1_555 1_555

#END
