
#######################################################################
#
#                 Cambridge Crystallographic Data Centre
#                                CCDC 
#
#######################################################################
#
# If this CIF has been generated from an entry in the Cambridge 
# Structural Database, then it will include bibliographic, chemical, 
# crystal, experimental, refinement or atomic coordinate data resulting 
# from the CCDC's data processing and validation procedures.
#
#######################################################################

data_NOVQUK
_chemical_formula_moiety         'C16 H17 N2 O5 S1 1-,Cs1 1+'
_chemical_name_systematic        'Cesium phenoxymethylpenicillin'
_symmetry_cell_setting           orthorhombic
_symmetry_space_group_name_H-M   'P 21 21 21'
_symmetry_Int_Tables_number      19
_space_group_name_Hall           'P 2ac 2ab'
loop_
_symmetry_equiv_pos_site_id
_symmetry_equiv_pos_as_xyz
1 x,y,z
2 1/2-x,-y,1/2+z
3 1/2+x,1/2-y,-z
4 -x,1/2+y,1/2-z
_cell_length_a                   6.5436(4)
_cell_length_b                   9.6181(7)
_cell_length_c                   30.011(2)
_cell_angle_alpha                90
_cell_angle_beta                 90
_cell_angle_gamma                90
_cell_volume                     1888.8
_cell_formula_units_Z            4
loop_
_atom_site_label
_atom_site_type_symbol
_atom_site_fract_x
_atom_site_fract_y
_atom_site_fract_z
Cs1 Cs 0.17589(7) 0.86906(4) 0.0092(1)
S1 S -0.1304(3) 0.3614(2) 0.14425(5)
O1 O 0.3382(8) 0.6287(6) 0.0690(2)
O2 O -0.0022(9) 0.6481(5) 0.0682(2)
O3 O 0.055(1) 0.1612(6) 0.0203(2)
O4 O -0.372(1) -0.0659(6) 0.0430(2)
O5 O -0.3045(9) -0.0997(6) 0.1612(1)
N1 N -0.0424(9) 0.3619(6) 0.0590(2)
N2 N -0.268(1) 0.0872(6) 0.0959(2)
C1 C 0.142(1) 0.3779(9) 0.1286(2)
C2 C 0.240(2) 0.481(1) 0.1601(3)
C3 C 0.243(2) 0.234(1) 0.1329(4)
C4 C 0.142(1) 0.4229(7) 0.0785(2)
C5 C 0.159(1) 0.5818(7) 0.0715(2)
C6 C -0.221(1) 0.3507(7) 0.0874(2)
C7 C -0.264(1) 0.2060(7) 0.0658(2)
C8 C -0.057(1) 0.2297(8) 0.0428(3)
C9 C -0.326(1) -0.0386(7) 0.0821(2)
C10 C -0.324(2) -0.1545(8) 0.1170(2)
C11 C -0.478(2) -0.0643(9) 0.1850(3)
C12 C -0.664(2) -0.121(1) 0.1774(4)
C13 C -0.823(2) -0.078(2) 0.2064(6)
C14 C -0.796(4) 0.009(3) 0.2395(5)
C15 C -0.605(3) 0.068(2) 0.2462(4)
C16 C -0.450(2) 0.030(1) 0.2187(3)
H1 H 0.169(2) 0.572(1) 0.1563(3)
H2 H 0.392(2) 0.239(1) 0.1256(4)
H3 H 0.226(2) 0.199(1) 0.1639(4)
H4 H 0.174(2) 0.170(1) 0.1115(4)
H5 H 0.260(1) 0.3821(7) 0.0618(2)
H6 H -0.341(1) 0.4140(7) 0.0836(2)
H7 H -0.394(1) 0.1762(7) 0.0510(2)
H8 H -0.205(2) -0.2170(8) 0.1111(2)
H9 H -0.454(2) -0.2090(8) 0.1143(2)
H10 H -0.687(2) -0.186(1) 0.1519(4)
H11 H -0.963(2) -0.117(2) 0.2019(6)
H12 H -0.913(4) 0.036(3) 0.2592(5)
H13 H -0.584(3) 0.137(2) 0.2706(4)
H14 H -0.310(2) 0.067(1) 0.2238(3)
H15 H -0.223(1) 0.1013(6) 0.1274(2)
loop_
_geom_bond_atom_site_label_1
_geom_bond_atom_site_label_2
_geom_bond_site_symmetry_1
_geom_bond_site_symmetry_2
S1 C1 1_555 1_555
O1 C5 1_555 1_555
O2 C5 1_555 1_555
O3 C8 1_555 1_555
O4 C9 1_555 1_555
O5 C10 1_555 1_555
N1 C4 1_555 1_555
N2 C7 1_555 1_555
C1 C2 1_555 1_555
C2 H1 1_555 1_555
C3 C1 1_555 1_555
C4 C1 1_555 1_555
C5 C4 1_555 1_555
C6 S1 1_555 1_555
C7 C6 1_555 1_555
C8 N1 1_555 1_555
C9 N2 1_555 1_555
C10 C9 1_555 1_555
C11 O5 1_555 1_555
C12 C11 1_555 1_555
C13 C12 1_555 1_555
C14 C13 1_555 1_555
C15 C14 1_555 1_555
C16 C11 1_555 1_555
H2 C3 1_555 1_555
H3 C3 1_555 1_555
H4 C3 1_555 1_555
H5 C4 1_555 1_555
H6 C6 1_555 1_555
H7 C7 1_555 1_555
H8 C10 1_555 1_555
H9 C10 1_555 1_555
H10 C12 1_555 1_555
H11 C13 1_555 1_555
H12 C14 1_555 1_555
H13 C15 1_555 1_555
H14 C16 1_555 1_555
H15 N2 1_555 1_555
N1 C6 1_555 1_555
C7 C8 1_555 1_555
C15 C16 1_555 1_555

#END
