
#######################################################################
#
#                 Cambridge Crystallographic Data Centre
#                                CCDC 
#
#######################################################################
#
# If this CIF has been generated from an entry in the Cambridge 
# Structural Database, then it will include bibliographic, chemical, 
# crystal, experimental, refinement or atomic coordinate data resulting 
# from the CCDC's data processing and validation procedures.
#
#######################################################################

data_NOVVOJ01
_chemical_name_common            
'(E)-Ethyl 3-(3,4-dimethoxyphenyl)-2-cyano-1-acrylate'
_chemical_formula_moiety         'C14 H15 N1 O4'
_chemical_name_systematic        
(E)-Ethyl-3-(3,4-dimethoxylphenyl)-2-cyano-1-acrylate
_symmetry_cell_setting           monoclinic
_symmetry_space_group_name_H-M   'P 21/n'
_symmetry_Int_Tables_number      14
_space_group_name_Hall           '-P 2yn'
loop_
_symmetry_equiv_pos_site_id
_symmetry_equiv_pos_as_xyz
1 x,y,z
2 1/2-x,1/2+y,1/2-z
3 -x,-y,-z
4 1/2+x,1/2-y,1/2+z
_cell_length_a                   13.101(3)
_cell_length_b                   8.032(2)
_cell_length_c                   13.854(2)
_cell_angle_alpha                90
_cell_angle_beta                 114.210(10)
_cell_angle_gamma                90
_cell_volume                     1329.6
_exptl_crystal_colour            'pale yellow'
_exptl_crystal_description       Needle
_chemical_melting_point          411-413K
_cell_formula_units_Z            4
_exptl_crystal_recrystallization_method '95% ethanol'
loop_
_atom_site_label
_atom_site_type_symbol
_atom_site_fract_x
_atom_site_fract_y
_atom_site_fract_z
O1 O 0.43630(11) 0.03697(19) 0.70005(10)
O2 O 0.24215(11) -0.0760(2) 0.58215(11)
O3 O 0.70556(12) 0.5068(2) 0.38975(10)
O4 O 0.53982(12) 0.4728(2) 0.25255(11)
N1 N 0.71451(16) 0.3585(3) 0.61403(14)
C1 C 0.39797(16) 0.0796(3) 0.59558(14)
C2 C 0.29045(16) 0.0183(3) 0.53167(15)
C3 C 0.24305(17) 0.0562(3) 0.42555(15)
H1 H 0.1719 0.0173 0.3829
C4 C 0.30126(17) 0.1522(3) 0.38243(15)
H2 H 0.2679 0.1780 0.3107
C5 C 0.40785(16) 0.2113(3) 0.44291(14)
C6 C 0.45532(16) 0.1739(2) 0.55181(14)
H3 H 0.5263 0.2137 0.5945
C7 C 0.46383(16) 0.3038(3) 0.38953(15)
H4 H 0.4201 0.3200 0.3178
C8 C 0.56632(16) 0.3710(3) 0.42262(14)
C9 C 0.59980(18) 0.4551(3) 0.34479(16)
C10 C 0.74820(19) 0.5948(3) 0.32223(17)
H5 H 0.7014 0.6904 0.2899
H6 H 0.7481 0.5218 0.2664
C11 C 0.8640(2) 0.6496(3) 0.3891(2)
H7 H 0.8636 0.7173 0.4461
H8 H 0.8927 0.7131 0.3470
H9 H 0.9105 0.5538 0.4175
C12 C 0.54489(17) 0.0953(3) 0.76911(15)
H10 H 0.5993 0.0551 0.7449
H11 H 0.5630 0.0552 0.8395
H12 H 0.5454 0.2148 0.7693
C13 C 0.13267(17) -0.1414(3) 0.52068(18)
H13 H 0.0830 -0.0518 0.4850
H14 H 0.1052 -0.1974 0.5665
H15 H 0.1365 -0.2187 0.4694
C14 C 0.64829(17) 0.3643(3) 0.52918(16)
loop_
_geom_bond_atom_site_label_1
_geom_bond_atom_site_label_2
_geom_bond_site_symmetry_1
_geom_bond_site_symmetry_2
O1 C1 1_555 1_555
O2 C2 1_555 1_555
O3 C9 1_555 1_555
O4 C9 1_555 1_555
N1 C14 1_555 1_555
C1 C2 1_555 1_555
C2 C3 1_555 1_555
C3 H1 1_555 1_555
C4 C3 1_555 1_555
H2 C4 1_555 1_555
C5 C4 1_555 1_555
C6 C1 1_555 1_555
H3 C6 1_555 1_555
C7 C5 1_555 1_555
H4 C7 1_555 1_555
C8 C7 1_555 1_555
C9 C8 1_555 1_555
C10 O3 1_555 1_555
H5 C10 1_555 1_555
H6 C10 1_555 1_555
C11 C10 1_555 1_555
H7 C11 1_555 1_555
H8 C11 1_555 1_555
H9 C11 1_555 1_555
C12 O1 1_555 1_555
H10 C12 1_555 1_555
H11 C12 1_555 1_555
H12 C12 1_555 1_555
C13 O2 1_555 1_555
H13 C13 1_555 1_555
H14 C13 1_555 1_555
H15 C13 1_555 1_555
C14 C8 1_555 1_555
C5 C6 1_555 1_555

#END
