
#######################################################################
#
#                 Cambridge Crystallographic Data Centre
#                                CCDC 
#
#######################################################################
#
# If this CIF has been generated from an entry in the Cambridge 
# Structural Database, then it will include bibliographic, chemical, 
# crystal, experimental, refinement or atomic coordinate data resulting 
# from the CCDC's data processing and validation procedures.
#
#######################################################################

data_NOWFEM
_chemical_formula_moiety         'C23 H35 N1 O6'
_chemical_name_systematic        
'4-Methoxy-6,6,9a-trimethyl-3-oxo-1,3,4,5,5a,6,7,8,9,9a-decahydronaphtho[1,2-c]furan-9-yl N-acetylvalinate'
_symmetry_cell_setting           orthorhombic
_symmetry_space_group_name_H-M   'P 21 21 21'
_symmetry_Int_Tables_number      19
_space_group_name_Hall           'P 2ac 2ab'
loop_
_symmetry_equiv_pos_site_id
_symmetry_equiv_pos_as_xyz
1 x,y,z
2 1/2-x,-y,1/2+z
3 -x,1/2+y,1/2-z
4 1/2+x,1/2-y,-z
_cell_length_a                   10.0373(4)
_cell_length_b                   14.1895(6)
_cell_length_c                   16.1301(6)
_cell_angle_alpha                90
_cell_angle_beta                 90
_cell_angle_gamma                90
_cell_volume                     2297.32
_cell_formula_units_Z            4
loop_
_atom_site_label
_atom_site_type_symbol
_atom_site_fract_x
_atom_site_fract_y
_atom_site_fract_z
N1 N 0.6956(3) 0.8100(2) 0.50374(18)
H1 H 0.7775 0.8117 0.5193
O1 O 0.3924(3) 0.5925(3) 0.3331(2)
O2 O 0.4649(4) 0.4505(3) 0.3750(2)
O3 O 0.8088(4) 0.4998(3) 0.3739(2)
O4 O 0.6863(3) 0.81914(19) 0.34062(15)
O5 O 0.5232(3) 0.9280(2) 0.34090(18)
O6 O 0.5066(3) 0.7258(2) 0.4913(2)
C1 C 0.6798(4) 0.8106(3) 0.2503(2)
H2 H 0.5951 0.8360 0.2300
C2 C 0.7955(4) 0.8663(3) 0.2139(3)
H3 H 0.7899 0.9311 0.2327
H4 H 0.7882 0.8664 0.1540
C3 C 0.9304(4) 0.8257(3) 0.2387(3)
H5 H 0.9418 0.8334 0.2980
H6 H 0.9998 0.8618 0.2115
C4 C 0.9489(4) 0.7215(3) 0.2170(3)
C5 C 0.8294(4) 0.6664(3) 0.2513(2)
H7 H 0.8358 0.6742 0.3115
C6 C 0.8310(5) 0.5590(3) 0.2382(3)
H8 H 0.8043 0.5452 0.1817
H9 H 0.9213 0.5361 0.2455
C7 C 0.7400(5) 0.5073(3) 0.2970(3)
H10 H 0.7211 0.4442 0.2753
C8 C 0.6123(5) 0.5612(3) 0.3063(3)
C9 C 0.5905(4) 0.6470(3) 0.2769(2)
C10 C 0.6901(4) 0.7054(3) 0.2292(2)
C11 C 0.4480(4) 0.6735(4) 0.2927(3)
H11 H 0.4425 0.7286 0.3281
H12 H 0.4019 0.6865 0.2411
C12 C 0.4877(5) 0.5248(4) 0.3419(3)
C13 C 1.0765(4) 0.6871(4) 0.2612(4)
H13 H 1.0624 0.6874 0.3201
H14 H 1.1492 0.7283 0.2478
H15 H 1.0971 0.6243 0.2433
C14 C 0.9716(5) 0.7090(3) 0.1223(3)
H16 H 1.0586 0.7317 0.1078
H17 H 0.9054 0.7441 0.0924
H18 H 0.9647 0.6435 0.1082
C15 C 0.6483(5) 0.6954(4) 0.1364(3)
H19 H 0.5584 0.7171 0.1296
H20 H 0.6541 0.6304 0.1201
H21 H 0.7068 0.7325 0.1024
C16 C 0.7674(7) 0.4240(4) 0.4256(4)
H22 H 0.7680 0.3665 0.3943
H23 H 0.6790 0.4360 0.4456
H24 H 0.8274 0.4184 0.4717
C17 C 0.6254(5) 0.7301(3) 0.5121(3)
C18 C 0.6998(5) 0.6460(3) 0.5443(3)
H25 H 0.6405 0.6073 0.5763
H26 H 0.7722 0.6667 0.5787
H27 H 0.7342 0.6103 0.4985
C19 C 0.6057(4) 0.8821(3) 0.3766(3)
C20 C 0.6346(4) 0.8933(3) 0.4687(2)
H28 H 0.5491 0.9025 0.4968
C21 C 0.7201(5) 0.9805(3) 0.4859(3)
H29 H 0.7412 0.9798 0.5452
C22 C 0.8533(5) 0.9784(4) 0.4395(3)
H30 H 0.9106 1.0268 0.4608
H31 H 0.8380 0.9889 0.3815
H32 H 0.8948 0.9180 0.4471
C23 C 0.6443(6) 1.0707(3) 0.4694(4)
H33 H 0.6255 1.0757 0.4112
H34 H 0.6970 1.1236 0.4867
H35 H 0.5622 1.0699 0.4999
loop_
_geom_bond_atom_site_label_1
_geom_bond_atom_site_label_2
_geom_bond_site_symmetry_1
_geom_bond_site_symmetry_2
N1 H1 1_555 1_555
O1 C11 1_555 1_555
O2 C12 1_555 1_555
O3 C7 1_555 1_555
O4 C1 1_555 1_555
O5 C19 1_555 1_555
O6 C17 1_555 1_555
C1 H2 1_555 1_555
C2 C1 1_555 1_555
H3 C2 1_555 1_555
H4 C2 1_555 1_555
C3 C2 1_555 1_555
H5 C3 1_555 1_555
H6 C3 1_555 1_555
C4 C3 1_555 1_555
C5 C4 1_555 1_555
H7 C5 1_555 1_555
C6 C5 1_555 1_555
H8 C6 1_555 1_555
H9 C6 1_555 1_555
C7 C6 1_555 1_555
H10 C7 1_555 1_555
C8 C7 1_555 1_555
C9 C8 1_555 1_555
C10 C1 1_555 1_555
C11 C9 1_555 1_555
H11 C11 1_555 1_555
H12 C11 1_555 1_555
C12 O1 1_555 1_555
C13 C4 1_555 1_555
H13 C13 1_555 1_555
H14 C13 1_555 1_555
H15 C13 1_555 1_555
C14 C4 1_555 1_555
H16 C14 1_555 1_555
H17 C14 1_555 1_555
H18 C14 1_555 1_555
C15 C10 1_555 1_555
H19 C15 1_555 1_555
H20 C15 1_555 1_555
H21 C15 1_555 1_555
C16 O3 1_555 1_555
H22 C16 1_555 1_555
H23 C16 1_555 1_555
H24 C16 1_555 1_555
C17 N1 1_555 1_555
C18 C17 1_555 1_555
H25 C18 1_555 1_555
H26 C18 1_555 1_555
H27 C18 1_555 1_555
C19 O4 1_555 1_555
C20 N1 1_555 1_555
H28 C20 1_555 1_555
C21 C20 1_555 1_555
H29 C21 1_555 1_555
C22 C21 1_555 1_555
H30 C22 1_555 1_555
H31 C22 1_555 1_555
H32 C22 1_555 1_555
C23 C21 1_555 1_555
H33 C23 1_555 1_555
H34 C23 1_555 1_555
H35 C23 1_555 1_555
C5 C10 1_555 1_555
C8 C12 1_555 1_555
C9 C10 1_555 1_555
C19 C20 1_555 1_555

#END
