
#######################################################################
#
#                 Cambridge Crystallographic Data Centre
#                                CCDC 
#
#######################################################################
#
# If this CIF has been generated from an entry in the Cambridge 
# Structural Database, then it will include bibliographic, chemical, 
# crystal, experimental, refinement or atomic coordinate data resulting 
# from the CCDC's data processing and validation procedures.
#
#######################################################################

data_NOWFOW
_chemical_formula_moiety         'C20 H30 O4'
_chemical_name_systematic        
'5-(4-Carboxy-3-methylbut-3-en-1-yl)-1,4a-dimethyl-6-methylenedecahydronaphthalene-1-carboxylic acid'
_symmetry_cell_setting           orthorhombic
_symmetry_space_group_name_H-M   'P 21 21 21'
_symmetry_Int_Tables_number      19
_space_group_name_Hall           'P 2ac 2ab'
loop_
_symmetry_equiv_pos_site_id
_symmetry_equiv_pos_as_xyz
1 x,y,z
2 1/2-x,-y,1/2+z
3 -x,1/2+y,1/2-z
4 1/2+x,1/2-y,-z
_cell_length_a                   12.1083(5)
_cell_length_b                   12.4784(5)
_cell_length_c                   12.5652(5)
_cell_angle_alpha                90
_cell_angle_beta                 90
_cell_angle_gamma                90
_cell_volume                     1898.5
_cell_formula_units_Z            4
loop_
_atom_site_label
_atom_site_type_symbol
_atom_site_fract_x
_atom_site_fract_y
_atom_site_fract_z
O1 O 0.88172(14) 0.41400(18) 0.36194(14)
O2 O 0.90860(14) 0.35187(15) 0.52419(13)
H1 H 0.9684 0.3815 0.5154
O3 O 0.06830(16) 0.5321(2) 0.36208(14)
H2 H 0.0141 0.4928 0.3645
O4 O 0.07932(14) 0.48260(17) 0.52914(14)
C1 C 0.84726(19) 0.3670(2) 0.4413(2)
C2 C 0.7323(2) 0.31715(19) 0.4443(2)
C3 C 0.7046(2) 0.2675(2) 0.5525(2)
H3 H 0.6401 0.2221 0.5445
H4 H 0.7656 0.2223 0.5745
C4 C 0.6822(2) 0.3483(2) 0.63927(19)
H5 H 0.7502 0.3857 0.6561
H6 H 0.6583 0.3108 0.7029
C5 C 0.59460(19) 0.4295(2) 0.60792(18)
H7 H 0.5879 0.4824 0.6641
H8 H 0.5241 0.3932 0.6015
C6 C 0.62000(16) 0.48731(17) 0.50268(15)
C7 C 0.51682(17) 0.55700(18) 0.47008(18)
H9 H 0.4537 0.5079 0.4678
C8 C 0.53179(18) 0.5987(2) 0.3580(2)
C9 C 0.5427(2) 0.5099(3) 0.2779(2)
H10 H 0.5491 0.5398 0.2069
H11 H 0.4775 0.4647 0.2800
C10 C 0.6447(2) 0.4437(2) 0.30366(18)
H12 H 0.6506 0.3848 0.2536
H13 H 0.7101 0.4880 0.2964
C11 C 0.63848(17) 0.39967(19) 0.41620(17)
H14 H 0.5704 0.3572 0.4173
C12 C 0.11620(18) 0.5331(2) 0.45327(19)
C13 C 0.21465(19) 0.6010(2) 0.4584(2)
H15 H 0.2361 0.6334 0.3951
C14 C 0.27716(19) 0.62193(19) 0.5432(2)
C15 C 0.3738(2) 0.6968(2) 0.5331(3)
H16 H 0.3649 0.7546 0.5841
H17 H 0.3729 0.7282 0.4625
C16 C 0.48758(19) 0.6438(2) 0.5514(2)
H18 H 0.5440 0.6989 0.5494
H19 H 0.4886 0.6123 0.6220
C17 C 0.7364(3) 0.2263(2) 0.3602(3)
H20 H 0.7828 0.1694 0.3856
H21 H 0.7658 0.2539 0.2948
H22 H 0.6632 0.1994 0.3482
C18 C 0.71961(17) 0.56157(18) 0.51671(19)
H23 H 0.7816 0.5208 0.5417
H24 H 0.7020 0.6164 0.5676
H25 H 0.7376 0.5941 0.4497
C19 C 0.5434(2) 0.7008(3) 0.3306(3)
H26 H 0.5587 0.7188 0.2603
H27 H 0.5363 0.7543 0.3817
C20 C 0.2579(2) 0.5792(2) 0.6529(2)
H28 H 0.1950 0.5325 0.6523
H29 H 0.2446 0.6377 0.7008
H30 H 0.3218 0.5401 0.6759
loop_
_geom_bond_atom_site_label_1
_geom_bond_atom_site_label_2
_geom_bond_site_symmetry_1
_geom_bond_site_symmetry_2
O1 C1 1_555 1_555
O2 H1 1_555 1_555
O3 H2 1_555 1_555
O4 C12 1_555 1_555
C1 O2 1_555 1_555
C2 C1 1_555 1_555
C3 C2 1_555 1_555
H3 C3 1_555 1_555
H4 C3 1_555 1_555
C4 C3 1_555 1_555
H5 C4 1_555 1_555
H6 C4 1_555 1_555
C5 C4 1_555 1_555
H7 C5 1_555 1_555
H8 C5 1_555 1_555
C6 C5 1_555 1_555
C7 C6 1_555 1_555
H9 C7 1_555 1_555
C8 C7 1_555 1_555
C9 C8 1_555 1_555
H10 C9 1_555 1_555
H11 C9 1_555 1_555
C10 C9 1_555 1_555
H12 C10 1_555 1_555
H13 C10 1_555 1_555
C11 C2 1_555 1_555
H14 C11 1_555 1_555
C12 O3 1_555 1_555
C13 C12 1_555 1_555
H15 C13 1_555 1_555
C14 C13 1_555 1_555
C15 C14 1_555 1_555
H16 C15 1_555 1_555
H17 C15 1_555 1_555
C16 C7 1_555 1_555
H18 C16 1_555 1_555
H19 C16 1_555 1_555
C17 C2 1_555 1_555
H20 C17 1_555 1_555
H21 C17 1_555 1_555
H22 C17 1_555 1_555
C18 C6 1_555 1_555
H23 C18 1_555 1_555
H24 C18 1_555 1_555
H25 C18 1_555 1_555
C19 C8 1_555 1_555
H26 C19 1_555 1_555
H27 C19 1_555 1_555
C20 C14 1_555 1_555
H28 C20 1_555 1_555
H29 C20 1_555 1_555
H30 C20 1_555 1_555
C6 C11 1_555 1_555
C10 C11 1_555 1_555
C15 C16 1_555 1_555

#END
