
#######################################################################
#
#                 Cambridge Crystallographic Data Centre
#                                CCDC 
#
#######################################################################
#
# If this CIF has been generated from an entry in the Cambridge 
# Structural Database, then it will include bibliographic, chemical, 
# crystal, experimental, refinement or atomic coordinate data resulting 
# from the CCDC's data processing and validation procedures.
#
#######################################################################

data_NOWFIQ
_chemical_formula_moiety         'C22 H33 N1 O6'
_chemical_name_systematic        
'9b-Hydroxy-6,6,9a-trimethyl-3-oxo-1,3,5,5a,6,7,8,9,9a,9b-decahydronaphtho[1,2-c]furan-9-yl N-acetylvalinate'
_symmetry_cell_setting           monoclinic
_symmetry_space_group_name_H-M   'P 21'
_symmetry_Int_Tables_number      4
_space_group_name_Hall           'P 2yb'
loop_
_symmetry_equiv_pos_site_id
_symmetry_equiv_pos_as_xyz
1 x,y,z
2 -x,1/2+y,-z
_cell_length_a                   6.3635(4)
_cell_length_b                   17.3609(13)
_cell_length_c                   10.0425(8)
_cell_angle_alpha                90
_cell_angle_beta                 99.611(2)
_cell_angle_gamma                90
_cell_volume                     1093.88
_cell_formula_units_Z            2
loop_
_atom_site_label
_atom_site_type_symbol
_atom_site_fract_x
_atom_site_fract_y
_atom_site_fract_z
N1 N 1.0875(3) 0.40831(12) 0.91163(19)
H1 H 1.1979 0.4224 0.8789
O1 O 0.8801(4) 0.15282(14) 0.6327(3)
O2 O 0.9935(5) 0.10829(18) 0.4494(3)
O3 O 0.9830(2) 0.32145(11) 0.61683(17)
H2 H 0.9616 0.3545 0.6714
O4 O 0.7221(2) 0.41302(10) 0.72030(15)
O5 O 0.5437(3) 0.43808(12) 0.89015(18)
O6 O 0.9099(4) 0.31203(13) 0.9892(2)
C1 C 0.9141(5) 0.1592(2) 0.5024(4)
C2 C 0.8370(4) 0.23500(18) 0.4506(3)
C3 C 0.7866(4) 0.28168(17) 0.5675(3)
C4 C 0.7593(5) 0.21832(19) 0.6686(3)
H3 H 0.8135 0.2351 0.7600
H4 H 0.6100 0.2049 0.6626
C5 C 0.8109(4) 0.2608(2) 0.3246(3)
H5 H 0.8520 0.2298 0.2581
C6 C 0.7180(5) 0.3380(3) 0.2865(3)
H6 H 0.5866 0.3309 0.2232
H7 H 0.8159 0.3661 0.2401
C7 C 0.6699(4) 0.3876(2) 0.4064(3)
H8 H 0.8083 0.4085 0.4486
C8 C 0.5310(5) 0.4593(2) 0.3591(3)
C9 C 0.4947(5) 0.5026(2) 0.4855(3)
H9 H 0.6305 0.5213 0.5329
H10 H 0.4051 0.5471 0.4587
C10 C 0.3902(4) 0.45304(18) 0.5812(3)
H11 H 0.3651 0.4840 0.6573
H12 H 0.2534 0.4349 0.5346
C11 C 0.5280(3) 0.38456(15) 0.6323(2)
H13 H 0.4488 0.3516 0.6857
C12 C 0.5954(3) 0.33606(17) 0.5175(2)
C13 C 0.6575(7) 0.5119(3) 0.2781(4)
H14 H 0.7958 0.5218 0.3299
H15 H 0.5825 0.5597 0.2590
H16 H 0.6730 0.4871 0.1949
C14 C 0.3128(6) 0.4425(3) 0.2699(4)
H17 H 0.2418 0.4902 0.2434
H18 H 0.2267 0.4123 0.3202
H19 H 0.3346 0.4145 0.1909
C15 C 0.3980(4) 0.2861(2) 0.4607(3)
H20 H 0.2751 0.3187 0.4388
H21 H 0.3735 0.2491 0.5274
H22 H 0.4234 0.2598 0.3808
C16 C 0.7066(4) 0.43573(14) 0.8447(2)
C17 C 0.9200(4) 0.46395(15) 0.9210(2)
H23 H 0.9071 0.4693 1.0164
C18 C 0.9758(4) 0.54320(15) 0.8694(3)
H24 H 1.0166 0.5362 0.7803
C19 C 0.7854(5) 0.59754(19) 0.8535(4)
H25 H 0.8277 0.6475 0.8267
H26 H 0.7343 0.6016 0.9380
H27 H 0.6740 0.5778 0.7858
C20 C 1.1658(5) 0.57893(19) 0.9631(4)
H28 H 1.1310 0.5849 1.0519
H29 H 1.1976 0.6284 0.9287
H30 H 1.2876 0.5459 0.9673
C21 C 1.0731(4) 0.33523(16) 0.9532(3)
C22 C 1.2634(5) 0.28420(19) 0.9481(4)
H31 H 1.2425 0.2560 0.8647
H32 H 1.2796 0.2487 1.0224
H33 H 1.3893 0.3154 0.9540
loop_
_geom_bond_atom_site_label_1
_geom_bond_atom_site_label_2
_geom_bond_site_symmetry_1
_geom_bond_site_symmetry_2
N1 H1 1_555 1_555
O1 C1 1_555 1_555
O2 C1 1_555 1_555
O3 H2 1_555 1_555
O4 C11 1_555 1_555
O5 C16 1_555 1_555
O6 C21 1_555 1_555
C1 C2 1_555 1_555
C2 C3 1_555 1_555
C3 O3 1_555 1_555
C4 O1 1_555 1_555
H3 C4 1_555 1_555
H4 C4 1_555 1_555
C5 C2 1_555 1_555
H5 C5 1_555 1_555
C6 C5 1_555 1_555
H6 C6 1_555 1_555
H7 C6 1_555 1_555
C7 C6 1_555 1_555
H8 C7 1_555 1_555
C8 C7 1_555 1_555
C9 C8 1_555 1_555
H9 C9 1_555 1_555
H10 C9 1_555 1_555
C10 C9 1_555 1_555
H11 C10 1_555 1_555
H12 C10 1_555 1_555
C11 C10 1_555 1_555
H13 C11 1_555 1_555
C12 C3 1_555 1_555
C13 C8 1_555 1_555
H14 C13 1_555 1_555
H15 C13 1_555 1_555
H16 C13 1_555 1_555
C14 C8 1_555 1_555
H17 C14 1_555 1_555
H18 C14 1_555 1_555
H19 C14 1_555 1_555
C15 C12 1_555 1_555
H20 C15 1_555 1_555
H21 C15 1_555 1_555
H22 C15 1_555 1_555
C16 O4 1_555 1_555
C17 N1 1_555 1_555
H23 C17 1_555 1_555
C18 C17 1_555 1_555
H24 C18 1_555 1_555
C19 C18 1_555 1_555
H25 C19 1_555 1_555
H26 C19 1_555 1_555
H27 C19 1_555 1_555
C20 C18 1_555 1_555
H28 C20 1_555 1_555
H29 C20 1_555 1_555
H30 C20 1_555 1_555
C21 N1 1_555 1_555
C22 C21 1_555 1_555
H31 C22 1_555 1_555
H32 C22 1_555 1_555
H33 C22 1_555 1_555
C3 C4 1_555 1_555
C7 C12 1_555 1_555
C11 C12 1_555 1_555
C16 C17 1_555 1_555

#END
