
#######################################################################
#
#                 Cambridge Crystallographic Data Centre
#                                CCDC 
#
#######################################################################
#
# If this CIF has been generated from an entry in the Cambridge 
# Structural Database, then it will include bibliographic, chemical, 
# crystal, experimental, refinement or atomic coordinate data resulting 
# from the CCDC's data processing and validation procedures.
#
#######################################################################

data_NOXBOT
_chemical_formula_moiety         '2(C21 H18 N3 O1 1+),O4 S1 2-,3(H2 O1)'
_chemical_name_systematic        
'bis(6-(2-Methoxyphenyl)-5,6-dihydro[3,1]benzimidazo[1,2-c]quinazolin-12-ium) sulfate trihydrate'
_symmetry_cell_setting           monoclinic
_symmetry_space_group_name_H-M   'C 2/c'
_symmetry_Int_Tables_number      15
_space_group_name_Hall           '-C 2yn'
loop_
_symmetry_equiv_pos_site_id
_symmetry_equiv_pos_as_xyz
1 x,y,z
2 -x,y,1/2-z
3 1/2+x,1/2+y,z
4 1/2-x,1/2+y,1/2-z
5 -x,-y,-z
6 x,-y,1/2+z
7 1/2-x,1/2-y,-z
8 1/2+x,1/2-y,1/2+z
_cell_length_a                   16.3414(8)
_cell_length_b                   17.0145(9)
_cell_length_c                   16.3578(11)
_cell_angle_alpha                90
_cell_angle_beta                 118.819(3)
_cell_angle_gamma                90
_cell_volume                     3984.83
_exptl_crystal_colour            'deep yellow'
_exptl_crystal_description       block
_cell_formula_units_Z            4
loop_
_atom_site_label
_atom_site_type_symbol
_atom_site_fract_x
_atom_site_fract_y
_atom_site_fract_z
N1 N 0.7599(2) 0.11000(19) 0.6386(2)
H1 H 0.813(3) 0.084(2) 0.649(3)
N2 N 0.6359(2) 0.18370(17) 0.5674(2)
N3 N 0.5796(2) 0.2394(2) 0.4183(3)
H2 H 0.547(3) 0.271(3) 0.377(3)
O1 O 0.52661(19) 0.07188(15) 0.4188(2)
C1 C 0.3092(3) 0.1736(3) 0.4423(3)
H3 H 0.2609 0.1975 0.4477
C2 C 0.3926(3) 0.2130(3) 0.4691(3)
H4 H 0.3998 0.2638 0.4926
C3 C 0.2991(3) 0.0989(3) 0.4077(3)
H5 H 0.2436 0.0719 0.3901
C4 C 0.5564(3) 0.2242(2) 0.4915(3)
H6 H 0.5499 0.2752 0.5157
C5 C 0.4653(3) 0.1784(2) 0.4617(3)
C6 C 0.6024(3) 0.1987(3) 0.7031(3)
H7 H 0.5502 0.2310 0.6736
C7 C 0.6374(4) 0.1744(3) 0.7948(4)
H8 H 0.6075 0.1909 0.8279
C8 C 0.3697(3) 0.0632(3) 0.3985(3)
H9 H 0.3616 0.0125 0.3745
C9 C 0.6505(3) 0.1716(2) 0.6582(3)
C10 C 0.4526(3) 0.1025(2) 0.4249(3)
C11 C 0.6431(3) 0.1984(2) 0.4039(3)
C12 C 0.6488(3) 0.2086(3) 0.3224(3)
H10 H 0.6078 0.2425 0.2762
C13 C 0.7151(4) 0.1266(3) 0.8388(3)
H11 H 0.7350 0.1110 0.9000
C14 C 0.7031(3) 0.1454(2) 0.5582(3)
C15 C 0.7293(3) 0.1253(2) 0.7033(3)
C16 C 0.7083(3) 0.1482(2) 0.4733(3)
C17 C 0.7634(3) 0.1015(3) 0.7949(3)
H12 H 0.8164 0.0701 0.8249
C18 C 0.7148(4) 0.1688(3) 0.3100(3)
H13 H 0.7175 0.1760 0.2550
C19 C 0.5138(4) 0.0025(3) 0.3665(3)
H14 H 0.5061 -0.0414 0.3991
H15 H 0.5675 -0.0061 0.3583
H16 H 0.4593 0.0077 0.3066
C20 C 0.7753(3) 0.1075(2) 0.4592(3)
H17 H 0.8174 0.0739 0.5050
C21 C 0.7781(3) 0.1177(3) 0.3775(4)
H18 H 0.8217 0.0907 0.3671
S1 S 0.5000 0.42343(9) 0.2500
O2 O 0.4792(2) 0.3735(2) 0.3106(3)
O3 O 0.58144(18) 0.47318(17) 0.3064(2)
O2A O 0.5208(2) 0.3735(2) 0.1894(3)
O3A O 0.41856(18) 0.47318(17) 0.1936(2)
O4 O 0.5512(6) 0.6211(4) 0.3719(7)
H19 H 0.5647 0.5719 0.3496
H20 H 0.5404 0.6038 0.4224
O5 O 0.5183(6) 0.5690(7) 0.5251(6)
loop_
_geom_bond_atom_site_label_1
_geom_bond_atom_site_label_2
_geom_bond_site_symmetry_1
_geom_bond_site_symmetry_2
N1 H1 1_555 1_555
N2 C4 1_555 1_555
N3 H2 1_555 1_555
O1 C10 1_555 1_555
C1 H3 1_555 1_555
C2 C1 1_555 1_555
H4 C2 1_555 1_555
C3 C1 1_555 1_555
H5 C3 1_555 1_555
C4 N3 1_555 1_555
H6 C4 1_555 1_555
C5 C2 1_555 1_555
C6 H7 1_555 1_555
C7 C6 1_555 1_555
H8 C7 1_555 1_555
C8 C3 1_555 1_555
H9 C8 1_555 1_555
C9 N2 1_555 1_555
C10 C5 1_555 1_555
C11 N3 1_555 1_555
C12 C11 1_555 1_555
H10 C12 1_555 1_555
C13 C7 1_555 1_555
H11 C13 1_555 1_555
C14 N1 1_555 1_555
C15 N1 1_555 1_555
C16 C11 1_555 1_555
C17 C13 1_555 1_555
H12 C17 1_555 1_555
C18 C12 1_555 1_555
H13 C18 1_555 1_555
C19 O1 1_555 1_555
H14 C19 1_555 1_555
H15 C19 1_555 1_555
H16 C19 1_555 1_555
C20 C16 1_555 1_555
H17 C20 1_555 1_555
C21 C18 1_555 1_555
H18 C21 1_555 1_555
S1 O2 1_555 1_555
O3 S1 1_555 1_555
O4 H19 1_555 1_555
H20 O4 1_555 1_555
O2A S1 1_555 1_555
O3A S1 1_555 1_555
N2 C14 1_555 1_555
C4 C5 1_555 1_555
C6 C9 1_555 1_555
C8 C10 1_555 1_555
C9 C15 1_555 1_555
C14 C16 1_555 1_555
C15 C17 1_555 1_555
C20 C21 1_555 1_555

#END
