
#######################################################################
#
#                 Cambridge Crystallographic Data Centre
#                                CCDC 
#
#######################################################################
#
# If this CIF has been generated from an entry in the Cambridge 
# Structural Database, then it will include bibliographic, chemical, 
# crystal, experimental, refinement or atomic coordinate data resulting 
# from the CCDC's data processing and validation procedures.
#
#######################################################################

data_NOXBZP10
_chemical_formula_moiety         'C7 H5 N1 O5'
_chemical_name_systematic        'p-Nitroperoxybenzoic acid'
_symmetry_cell_setting           orthorhombic
_symmetry_space_group_name_H-M   'P 21 21 21'
_symmetry_Int_Tables_number      19
_space_group_name_Hall           'P 2ac 2ab'
loop_
_symmetry_equiv_pos_site_id
_symmetry_equiv_pos_as_xyz
1 x,y,z
2 1/2+x,1/2-y,-z
3 -x,1/2+y,1/2-z
4 1/2-x,-y,1/2+z
_cell_length_a                   5.81(2)
_cell_length_b                   5.05(2)
_cell_length_c                   26.34(5)
_cell_angle_alpha                90
_cell_angle_beta                 90
_cell_angle_gamma                90
_cell_volume                     772.829
_cell_formula_units_Z            4
loop_
_atom_site_label
_atom_site_type_symbol
_atom_site_fract_x
_atom_site_fract_y
_atom_site_fract_z
C1 C 0.29200 0.22300 0.10290
C2 C 0.43300 0.15600 0.14440
C3 C 0.36300 -0.04800 0.17950
C4 C 0.15300 -0.16000 0.16930
C5 C 0.00200 -0.10200 0.12900
C6 C 0.08000 0.09600 0.09510
C7 C 0.38900 0.42400 0.06920
N1 N 0.06800 -0.37900 0.20400
O1 O 0.57600 0.51900 0.06890
O2 O 0.22200 0.49000 0.03450
O3 O 0.32300 0.69100 0.00010
O4 O 0.20200 -0.45900 0.23690
O5 O -0.12800 -0.46600 0.19680
loop_
_geom_bond_atom_site_label_1
_geom_bond_atom_site_label_2
_geom_bond_site_symmetry_1
_geom_bond_site_symmetry_2
C1 C2 1_555 1_555
C2 C3 1_555 1_555
C3 C4 1_555 1_555
C4 C5 1_555 1_555
C5 C6 1_555 1_555
C6 C1 1_555 1_555
C7 C1 1_555 1_555
N1 C4 1_555 1_555
O1 C7 1_555 1_555
O2 C7 1_555 1_555
O3 O2 1_555 1_555
O4 N1 1_555 1_555
O5 N1 1_555 1_555

#END
