
#######################################################################
#
#                 Cambridge Crystallographic Data Centre
#                                CCDC 
#
#######################################################################
#
# If this CIF has been generated from an entry in the Cambridge 
# Structural Database, then it will include bibliographic, chemical, 
# crystal, experimental, refinement or atomic coordinate data resulting 
# from the CCDC's data processing and validation procedures.
#
#######################################################################

data_NOXCAP
_chemical_formula_moiety         'C8 H13 O3 1-,Na1 1+'
_chemical_name_systematic        'Sodium 2-oxocaprylate'
_symmetry_cell_setting           orthorhombic
_symmetry_space_group_name_H-M   'P b c n'
_symmetry_Int_Tables_number      60
_space_group_name_Hall           '-P 2n 2ab'
loop_
_symmetry_equiv_pos_site_id
_symmetry_equiv_pos_as_xyz
1 x,y,z
2 1/2-x,1/2+y,z
3 x,-y,1/2+z
4 1/2-x,1/2-y,1/2+z
5 -x,-y,-z
6 1/2+x,1/2-y,-z
7 -x,y,1/2-z
8 1/2+x,1/2+y,1/2-z
_cell_length_a                   49.570
_cell_length_b                   6.050
_cell_length_c                   5.970
_cell_angle_alpha                90
_cell_angle_beta                 90
_cell_angle_gamma                90
_cell_volume                     1790.39
_cell_formula_units_Z            8
loop_
_atom_site_label
_atom_site_type_symbol
_atom_site_fract_x
_atom_site_fract_y
_atom_site_fract_z
C1 C 0.21180 0.25570 0.52700
C2 C 0.18280 0.23340 0.40900
C3 C 0.15770 0.29920 0.54500
C4 C 0.13190 0.21320 0.43400
C5 C 0.10770 0.29920 0.54600
C6 C 0.08080 0.21090 0.43600
C7 C 0.05590 0.28490 0.56300
C8 C 0.02870 0.23430 0.43400
O1 O 0.22850 0.15790 0.42700
O2 O 0.18170 0.15890 0.20200
O3 O 0.21090 0.37730 0.68200
Na1 Na 0.22740 0.23150 0.02900
loop_
_geom_bond_atom_site_label_1
_geom_bond_atom_site_label_2
_geom_bond_site_symmetry_1
_geom_bond_site_symmetry_2
C1 C2 1_555 1_555
C2 C3 1_555 1_555
C3 C4 1_555 1_555
C4 C5 1_555 1_555
C5 C6 1_555 1_555
C6 C7 1_555 1_555
C7 C8 1_555 1_555
O1 C1 1_555 1_555
O2 C2 1_555 1_555
O3 C1 1_555 1_555

#END
