
#######################################################################
#
#                 Cambridge Crystallographic Data Centre
#                                CCDC 
#
#######################################################################
#
# If this CIF has been generated from an entry in the Cambridge 
# Structural Database, then it will include bibliographic, chemical, 
# crystal, experimental, refinement or atomic coordinate data resulting 
# from the CCDC's data processing and validation procedures.
#
#######################################################################

data_NOXDEJ
_chemical_formula_moiety         'C20 H32 N2 Si3'
_chemical_name_systematic        
3,3'-(1,3-bis(Trimethylsilyl)-2,2-dimethyl-2-silapropa-1,3-diyl)-2,2'-bipyridine
_symmetry_cell_setting           monoclinic
_symmetry_space_group_name_H-M   'P 21/c'
_symmetry_Int_Tables_number      14
_space_group_name_Hall           '-P 2ybc'
loop_
_symmetry_equiv_pos_site_id
_symmetry_equiv_pos_as_xyz
1 x,y,z
2 -x,1/2+y,1/2-z
3 -x,-y,-z
4 x,1/2-y,1/2+z
_cell_length_a                   32.55(3)
_cell_length_b                   8.247(5)
_cell_length_c                   17.79(2)
_cell_angle_alpha                90
_cell_angle_beta                 105.44(4)
_cell_angle_gamma                90
_cell_volume                     4603.19
_exptl_crystal_colour            colorless
_exptl_crystal_description       prism
_cell_formula_units_Z            8
loop_
_atom_site_label
_atom_site_type_symbol
_atom_site_fract_x
_atom_site_fract_y
_atom_site_fract_z
Si1 Si 0.1733(1) 0.2682(3) 0.0965(1)
Si2 Si 0.1177(1) 0.2317(3) -0.0880(1)
Si3 Si 0.0782(1) 0.5276(3) -0.2125(1)
N1 N 0.1006(2) 0.7527(9) -0.0011(4)
N2 N 0.1879(2) 0.7077(8) 0.0074(3)
C1 C 0.0666(3) 0.7571(13) 0.0251(5)
C2 C 0.0480(2) 0.6287(15) 0.0486(5)
C3 C 0.0654(2) 0.4790(11) 0.0453(4)
C4 C 0.1013(2) 0.4623(10) 0.0178(4)
C5 C 0.1181(2) 0.6041(10) -0.0043(4)
C6 C 0.1569(2) 0.6073(9) -0.0337(4)
C7 C 0.1608(2) 0.5235(9) -0.1004(4)
C8 C 0.1980(2) 0.5456(10) -0.1211(4)
C9 C 0.2298(2) 0.6462(12) -0.0800(5)
C10 C 0.2233(2) 0.7230(10) -0.0154(5)
C11 C 0.1217(2) 0.2948(9) 0.0159(4)
C12 C 0.1251(2) 0.4149(9) -0.1475(4)
C13 C 0.0648(2) 0.1372(11) -0.1273(5)
C14 C 0.1579(2) 0.0774(10) -0.0941(5)
C15 C 0.1719(3) 0.4087(11) 0.1770(5)
C16 C 0.1739(3) 0.0550(11) 0.1322(5)
C17 C 0.2236(2) 0.2989(11) 0.0692(5)
C18 C 0.0318(2) 0.5620(13) -0.1716(5)
C19 C 0.0586(2) 0.4100(11) -0.3046(4)
C20 C 0.0969(3) 0.7250(11) -0.2362(6)
H1 H 0.0554 0.8628 0.0308
H2 H 0.0222 0.6410 0.0646
H3 H 0.0529 0.3855 0.0628
H4 H 0.2016 0.4887 -0.1660
H5 H 0.2554 0.6618 -0.0961
H6 H 0.2455 0.7913 0.0147
H7 H 0.1021 0.2236 0.0313
H8 H 0.1382 0.3676 -0.1847
H9 H 0.0617 0.1030 -0.1801
H10 H 0.0622 0.0449 -0.0959
H11 H 0.0430 0.2146 -0.1259
H12 H 0.1550 0.0503 -0.1478
H13 H 0.1859 0.1206 -0.0715
H14 H 0.1539 -0.0182 -0.0661
H15 H 0.1977 0.3986 0.2181
H16 H 0.1692 0.5178 0.1576
H17 H 0.1479 0.3832 0.1969
H18 H 0.1996 0.0357 0.1725
H19 H 0.1497 0.0376 0.1526
H20 H 0.1725 -0.0180 0.0896
H21 H 0.2474 0.2822 0.1138
H22 H 0.2251 0.2234 0.0289
H23 H 0.2243 0.4076 0.0503
H24 H 0.0101 0.6209 -0.2086
H25 H 0.0205 0.4597 -0.1607
H26 H 0.0408 0.6236 -0.1242
H27 H 0.0820 0.3904 -0.3268
H28 H 0.0474 0.3084 -0.2928
H29 H 0.0367 0.4690 -0.3413
H30 H 0.1208 0.7098 -0.2575
H31 H 0.0744 0.7793 -0.2738
H32 H 0.1054 0.7895 -0.1897
Si4 Si 0.5745(1) 0.4401(3) 0.7843(1)
Si5 Si 0.6180(1) 0.7272(3) 0.7019(1)
Si6 Si 0.6730(1) 0.6835(3) 0.5708(1)
N3 N 0.6870(2) 0.2542(8) 0.6782(3)
N4 N 0.5994(2) 0.2052(8) 0.6015(4)
C21 C 0.7217(2) 0.2380(10) 0.7366(5)
C22 C 0.7270(2) 0.3140(11) 0.8074(5)
C23 C 0.6952(2) 0.4150(11) 0.8172(4)
C24 C 0.6583(2) 0.4366(9) 0.7578(4)
C25 C 0.6561(2) 0.3478(10) 0.6889(4)
C26 C 0.6167(2) 0.3526(10) 0.6206(4)
C27 C 0.6009(2) 0.4962(10) 0.5823(4)
C28 C 0.5644(2) 0.4760(12) 0.5181(4)
C29 C 0.5463(3) 0.3297(14) 0.4998(5)
C30 C 0.5646(3) 0.1963(12) 0.5421(5)
C31 C 0.6235(2) 0.5448(9) 0.7689(4)
C32 C 0.6221(2) 0.6584(10) 0.6025(4)
C33 C 0.6608(3) 0.8752(11) 0.7491(5)
C34 C 0.5655(2) 0.8344(11) 0.6885(5)
C35 C 0.5566(2) 0.5611(11) 0.8583(5)
C36 C 0.5280(2) 0.4186(14) 0.6959(5)
C37 C 0.5908(3) 0.2360(11) 0.8230(7)
C38 C 0.7240(2) 0.6561(13) 0.6466(5)
C39 C 0.6719(3) 0.8916(11) 0.5302(6)
C40 C 0.6723(3) 0.5318(13) 0.4930(6)
H33 H 0.7437 0.1667 0.7297
H34 H 0.7524 0.2990 0.8490
H35 H 0.6983 0.4693 0.8661
H36 H 0.5528 0.5694 0.4875
H37 H 0.5209 0.3198 0.4577
H38 H 0.5519 0.0923 0.5270
H39 H 0.6361 0.5916 0.8191
H40 H 0.6026 0.7298 0.5677
H41 H 0.6880 0.8235 0.7570
H42 H 0.6596 0.9686 0.7164
H43 H 0.6570 0.9084 0.7986
H44 H 0.5427 0.7623 0.6640
H45 H 0.5622 0.8678 0.7383
H46 H 0.5648 0.9280 0.6561
H47 H 0.5797 0.5721 0.9046
H48 H 0.5479 0.6666 0.8372
H49 H 0.5331 0.5079 0.8709
H50 H 0.5052 0.3624 0.7093
H51 H 0.5188 0.5253 0.6774
H52 H 0.5364 0.3598 0.6557
H53 H 0.6147 0.2448 0.8682
H54 H 0.5676 0.1839 0.8371
H55 H 0.5989 0.1731 0.7838
H56 H 0.7476 0.6707 0.6245
H57 H 0.7257 0.7346 0.6872
H58 H 0.7249 0.5489 0.6680
H59 H 0.6973 0.9107 0.5139
H60 H 0.6474 0.9041 0.4864
H61 H 0.6704 0.9681 0.5701
H62 H 0.6981 0.5410 0.4768
H63 H 0.6707 0.4256 0.5141
H64 H 0.6482 0.5487 0.4489
loop_
_geom_bond_atom_site_label_1
_geom_bond_atom_site_label_2
_geom_bond_site_symmetry_1
_geom_bond_site_symmetry_2
Si1 C11 1_555 1_555
Si2 C11 1_555 1_555
Si3 C12 1_555 1_555
N1 C1 1_555 1_555
N2 C6 1_555 1_555
C1 C2 1_555 1_555
C2 C3 1_555 1_555
C3 C4 1_555 1_555
C4 C5 1_555 1_555
C5 N1 1_555 1_555
C6 C5 1_555 1_555
C7 C6 1_555 1_555
C8 C7 1_555 1_555
C9 C8 1_555 1_555
C10 N2 1_555 1_555
C11 C4 1_555 1_555
C12 Si2 1_555 1_555
C13 Si2 1_555 1_555
C14 Si2 1_555 1_555
C15 Si1 1_555 1_555
C16 Si1 1_555 1_555
C17 Si1 1_555 1_555
C18 Si3 1_555 1_555
C19 Si3 1_555 1_555
C20 Si3 1_555 1_555
Si4 C31 1_555 1_555
Si5 C31 1_555 1_555
Si6 C32 1_555 1_555
N3 C21 1_555 1_555
N4 C26 1_555 1_555
C21 C22 1_555 1_555
C22 C23 1_555 1_555
C23 C24 1_555 1_555
C24 C25 1_555 1_555
C25 N3 1_555 1_555
C26 C25 1_555 1_555
C27 C26 1_555 1_555
C28 C27 1_555 1_555
C29 C28 1_555 1_555
C30 N4 1_555 1_555
C31 C24 1_555 1_555
C32 Si5 1_555 1_555
C33 Si5 1_555 1_555
C34 Si5 1_555 1_555
C35 Si4 1_555 1_555
C36 Si4 1_555 1_555
C37 Si4 1_555 1_555
C38 Si6 1_555 1_555
C39 Si6 1_555 1_555
C40 Si6 1_555 1_555
H1 C1 1_555 1_555
H2 C2 1_555 1_555
H3 C3 1_555 1_555
H4 C8 1_555 1_555
H5 C9 1_555 1_555
H6 C10 1_555 1_555
H7 C11 1_555 1_555
H8 C12 1_555 1_555
H9 C13 1_555 1_555
H10 C13 1_555 1_555
H11 C13 1_555 1_555
H12 C14 1_555 1_555
H13 C14 1_555 1_555
H14 C14 1_555 1_555
H15 C15 1_555 1_555
H16 C15 1_555 1_555
H17 C15 1_555 1_555
H18 C16 1_555 1_555
H19 C16 1_555 1_555
H20 C16 1_555 1_555
H21 C17 1_555 1_555
H22 C17 1_555 1_555
H23 C17 1_555 1_555
H24 C18 1_555 1_555
H25 C18 1_555 1_555
H26 C18 1_555 1_555
H27 C19 1_555 1_555
H28 C19 1_555 1_555
H29 C19 1_555 1_555
H30 C20 1_555 1_555
H31 C20 1_555 1_555
H32 C20 1_555 1_555
H33 C21 1_555 1_555
H34 C22 1_555 1_555
H35 C23 1_555 1_555
H36 C28 1_555 1_555
H37 C29 1_555 1_555
H38 C30 1_555 1_555
H39 C31 1_555 1_555
H40 C32 1_555 1_555
H41 C33 1_555 1_555
H42 C33 1_555 1_555
H43 C33 1_555 1_555
H44 C34 1_555 1_555
H45 C34 1_555 1_555
H46 C34 1_555 1_555
H47 C35 1_555 1_555
H48 C35 1_555 1_555
H49 C35 1_555 1_555
H50 C36 1_555 1_555
H51 C36 1_555 1_555
H52 C36 1_555 1_555
H53 C37 1_555 1_555
H54 C37 1_555 1_555
H55 C37 1_555 1_555
H56 C38 1_555 1_555
H57 C38 1_555 1_555
H58 C38 1_555 1_555
H59 C39 1_555 1_555
H60 C39 1_555 1_555
H61 C39 1_555 1_555
H62 C40 1_555 1_555
H63 C40 1_555 1_555
H64 C40 1_555 1_555
C7 C12 1_555 1_555
C9 C10 1_555 1_555
C27 C32 1_555 1_555
C29 C30 1_555 1_555

#END
