
#######################################################################
#
#                 Cambridge Crystallographic Data Centre
#                                CCDC 
#
#######################################################################
#
# If this CIF has been generated from an entry in the Cambridge 
# Structural Database, then it will include bibliographic, chemical, 
# crystal, experimental, refinement or atomic coordinate data resulting 
# from the CCDC's data processing and validation procedures.
#
#######################################################################

data_NOXKES
_chemical_formula_moiety         'C42 H26 N4 S1'
_chemical_name_systematic        
3,3'-(2,1,3-Benzothiadiazole-4,7-diyl)bis(9-phenyl-9H-carbazole)
_symmetry_cell_setting           monoclinic
_symmetry_space_group_name_H-M   'C 2/c'
_symmetry_Int_Tables_number      15
_space_group_name_Hall           '-C 2yn'
loop_
_symmetry_equiv_pos_site_id
_symmetry_equiv_pos_as_xyz
1 x,y,z
2 -x,y,1/2-z
3 1/2+x,1/2+y,z
4 1/2-x,1/2+y,1/2-z
5 -x,-y,-z
6 x,-y,1/2+z
7 1/2-x,1/2-y,-z
8 1/2+x,1/2-y,1/2+z
_cell_length_a                   24.346(2)
_cell_length_b                   22.015(2)
_cell_length_c                   24.517(2)
_cell_angle_alpha                90
_cell_angle_beta                 112.123(2)
_cell_angle_gamma                90
_cell_volume                     12173.1
_exptl_crystal_colour            yellow
_exptl_crystal_description       block
_cell_formula_units_Z            16
loop_
_atom_site_label
_atom_site_type_symbol
_atom_site_fract_x
_atom_site_fract_y
_atom_site_fract_z
C1 C 0.71934(14) 0.05778(15) -0.01509(13)
C2 C 0.70454(14) 0.01117(15) 0.01739(13)
C3 C 0.74389(14) -0.03822(15) 0.04340(13)
C4 C 0.79678(15) -0.03670(16) 0.03464(14)
H1 H 0.8241 -0.0676 0.0507
C5 C 0.81119(15) 0.00962(16) 0.00239(14)
H2 H 0.8478 0.0076 -0.0014
C6 C 0.77465(14) 0.05741(16) -0.02371(13)
C7 C 0.72909(14) -0.08797(15) 0.07608(13)
C8 C 0.74768(13) -0.14713(15) 0.07250(13)
H3 H 0.7688 -0.1557 0.0487
C9 C 0.73493(14) -0.19334(15) 0.10427(13)
C10 C 0.70331(14) -0.17988(15) 0.14067(13)
C11 C 0.68425(14) -0.12149(15) 0.14526(13)
H4 H 0.6634 -0.1130 0.1693
C12 C 0.69736(14) -0.07623(16) 0.11288(14)
H5 H 0.6849 -0.0368 0.1154
C13 C 0.74633(14) -0.25769(16) 0.10891(14)
C14 C 0.72114(15) -0.28117(16) 0.14824(14)
C15 C 0.72442(15) -0.34195(16) 0.16313(14)
H6 H 0.7086 -0.3564 0.1897
C16 C 0.75219(16) -0.38052(18) 0.13696(16)
H7 H 0.7547 -0.4218 0.1458
C17 C 0.77676(16) -0.35851(18) 0.09721(16)
H8 H 0.7946 -0.3854 0.0797
C18 C 0.77462(15) -0.29721(17) 0.08399(15)
H9 H 0.7920 -0.2827 0.0586
C19 C 0.66004(15) -0.23789(16) 0.20277(14)
C20 C 0.61006(15) -0.27467(16) 0.18438(15)
H10 H 0.6000 -0.2972 0.1499
C21 C 0.57558(16) -0.27736(18) 0.21786(18)
H11 H 0.5427 -0.3028 0.2061
C22 C 0.58880(17) -0.24340(19) 0.26800(18)
H12 H 0.5645 -0.2449 0.2895
C23 C 0.63887(17) -0.20662(19) 0.28639(16)
H13 H 0.6485 -0.1836 0.3205
C24 C 0.67431(16) -0.20444(17) 0.25370(15)
H14 H 0.7081 -0.1802 0.2662
C25 C 0.78972(14) 0.10374(16) -0.05914(13)
C26 C 0.77026(13) 0.16349(16) -0.06198(13)
H15 H 0.7471 0.1751 -0.0410
C27 C 0.78533(14) 0.20616(16) -0.09618(13)
C28 C 0.81942(14) 0.18780(15) -0.12894(13)
C29 C 0.83993(14) 0.12862(15) -0.12640(14)
H16 H 0.8631 0.1168 -0.1473
C30 C 0.82452(14) 0.08780(16) -0.09156(14)
H17 H 0.8378 0.0479 -0.0895
C31 C 0.77194(14) 0.26989(16) -0.10862(13)
C32 C 0.79852(14) 0.28767(16) -0.14801(14)
C33 C 0.79175(15) 0.34588(17) -0.17144(15)
H18 H 0.8090 0.3569 -0.1980
C34 C 0.75840(16) 0.38703(17) -0.15389(16)
H19 H 0.7534 0.4264 -0.1686
C35 C 0.73241(16) 0.37008(17) -0.11471(15)
H20 H 0.7104 0.3985 -0.1034
C36 C 0.73840(15) 0.31213(17) -0.09211(14)
H21 H 0.7203 0.3013 -0.0662
C37 C 0.85791(14) 0.23833(16) -0.19950(14)
C38 C 0.84266(15) 0.19806(16) -0.24526(14)
H22 H 0.8131 0.1694 -0.2500
C39 C 0.87128(16) 0.19998(18) -0.28461(15)
H23 H 0.8611 0.1725 -0.3157
C40 C 0.91484(16) 0.24275(19) -0.27753(17)
H24 H 0.9338 0.2444 -0.3041
C41 C 0.93012(16) 0.28252(18) -0.23158(17)
H25 H 0.9594 0.3114 -0.2272
C42 C 0.90278(15) 0.28066(16) -0.19127(15)
H26 H 0.9142 0.3071 -0.1594
N1 N 0.67654(12) 0.10071(13) -0.03591(12)
N2 N 0.65080(12) 0.01974(13) 0.02111(12)
N3 N 0.69535(12) -0.23316(13) 0.16772(11)
N4 N 0.82770(12) 0.23784(13) -0.15947(11)
S1 S 0.62445(4) 0.08138(5) -0.01417(4)
C43 C 1.04567(14) 0.24259(16) -0.01288(13)
C44 C 1.03026(14) 0.19655(16) 0.01993(13)
C45 C 0.97528(14) 0.19860(16) 0.02932(14)
C46 C 0.93962(15) 0.24666(17) 0.00350(14)
H27 H 0.9034 0.2498 0.0078
C47 C 0.95450(15) 0.29181(17) -0.02924(14)
H28 H 0.9272 0.3226 -0.0461
C48 C 1.00762(14) 0.29290(16) -0.03774(13)
C49 C 0.96012(14) 0.15228(16) 0.06518(14)
C50 C 0.97610(15) 0.09214(17) 0.06461(14)
H29 H 0.9959 0.0801 0.0405
C51 C 0.96292(14) 0.04948(16) 0.09974(14)
C52 C 0.93350(14) 0.06843(16) 0.13681(14)
C53 C 0.91619(15) 0.12818(16) 0.13745(14)
H30 H 0.8960 0.1403 0.1612
C54 C 0.92971(14) 0.16931(17) 0.10178(14)
H31 H 0.9184 0.2096 0.1019
C55 C 0.97442(15) -0.01473(16) 0.10964(14)
C56 C 0.95173(15) -0.03246(16) 0.15199(14)
C57 C 0.95826(15) -0.09092(17) 0.17371(15)
H32 H 0.9436 -0.1022 0.2022
C58 C 0.98749(16) -0.13222(18) 0.15137(16)
H33 H 0.9924 -0.1720 0.1651
C59 C 1.00958(16) -0.11563(18) 0.10909(16)
H34 H 1.0284 -0.1445 0.0945
C60 C 1.00389(16) -0.05666(17) 0.08828(15)
H35 H 1.0195 -0.0453 0.0605
C61 C 0.89872(15) 0.01788(16) 0.20996(14)
C62 C 0.85226(15) -0.02238(16) 0.20272(15)
H36 H 0.8390 -0.0483 0.1704
C63 C 0.82607(16) -0.02363(18) 0.24372(18)
H37 H 0.7958 -0.0511 0.2395
C64 C 0.84461(18) 0.01566(19) 0.29087(18)
H38 H 0.8265 0.0149 0.3182
C65 C 0.88976(17) 0.05585(18) 0.29763(16)
H39 H 0.9021 0.0825 0.3294
C66 C 0.91691(15) 0.05658(17) 0.25700(15)
H40 H 0.9477 0.0836 0.2618
C67 C 1.02300(14) 0.34276(16) -0.07031(14)
C68 C 1.00193(13) 0.40147(16) -0.06962(13)
H41 H 0.9786 0.4097 -0.0480
C69 C 1.01541(14) 0.44787(15) -0.10097(13)
C70 C 1.05054(14) 0.43468(16) -0.13418(13)
C71 C 1.07243(15) 0.37667(15) -0.13528(14)
H42 H 1.0960 0.3684 -0.1567
C72 C 1.05826(14) 0.33148(16) -0.10369(14)
H43 H 1.0724 0.2924 -0.1044
C73 C 1.00248(14) 0.51165(16) -0.10791(14)
C74 C 1.03044(14) 0.53523(16) -0.14466(14)
C75 C 1.02635(16) 0.59618(17) -0.16108(15)
H44 H 1.0439 0.6109 -0.1862
C76 C 0.99492(16) 0.63347(18) -0.13810(16)
H45 H 0.9917 0.6745 -0.1478
C77 C 0.96774(16) 0.61207(18) -0.10084(16)
H46 H 0.9474 0.6389 -0.0859
C78 C 0.97086(14) 0.55133(17) -0.08617(14)
H47 H 0.9521 0.5369 -0.0620
C79 C 1.09595(14) 0.49257(15) -0.19438(14)
C80 C 1.08493(15) 0.45710(17) -0.24348(14)
H48 H 1.0529 0.4304 -0.2554
C81 C 1.12126(16) 0.46089(18) -0.27533(15)
H49 H 1.1136 0.4368 -0.3086
C82 C 1.16863(17) 0.50021(19) -0.25786(17)
H50 H 1.1933 0.5026 -0.2790
C83 C 1.17941(16) 0.53624(17) -0.20851(17)
H51 H 1.2111 0.5633 -0.1968
C84 C 1.14322(15) 0.53201(16) -0.17670(15)
H52 H 1.1508 0.5558 -0.1433
N5 N 1.09920(12) 0.23203(13) -0.01650(12)
N6 N 1.07194(12) 0.15278(14) 0.04089(12)
N7 N 0.92647(12) 0.01811(13) 0.16807(12)
N8 N 1.05946(12) 0.48740(13) -0.16051(12)
S2 S 1.12416(4) 0.17029(5) 0.01850(4)
loop_
_geom_bond_atom_site_label_1
_geom_bond_atom_site_label_2
_geom_bond_site_symmetry_1
_geom_bond_site_symmetry_2
C1 C2 1_555 1_555
C2 C3 1_555 1_555
C3 C4 1_555 1_555
C4 H1 1_555 1_555
C5 C4 1_555 1_555
H2 C5 1_555 1_555
C6 C1 1_555 1_555
C7 C3 1_555 1_555
C8 C7 1_555 1_555
H3 C8 1_555 1_555
C9 C8 1_555 1_555
C10 C9 1_555 1_555
C11 C10 1_555 1_555
H4 C11 1_555 1_555
C12 C7 1_555 1_555
H5 C12 1_555 1_555
C13 C9 1_555 1_555
C14 C13 1_555 1_555
C15 C14 1_555 1_555
H6 C15 1_555 1_555
C16 C15 1_555 1_555
H7 C16 1_555 1_555
C17 C16 1_555 1_555
H8 C17 1_555 1_555
C18 C13 1_555 1_555
H9 C18 1_555 1_555
C19 C20 1_555 1_555
C20 H10 1_555 1_555
C21 C20 1_555 1_555
H11 C21 1_555 1_555
C22 C21 1_555 1_555
H12 C22 1_555 1_555
C23 C22 1_555 1_555
H13 C23 1_555 1_555
C24 C19 1_555 1_555
H14 C24 1_555 1_555
C25 C6 1_555 1_555
C26 C25 1_555 1_555
H15 C26 1_555 1_555
C27 C26 1_555 1_555
C28 C27 1_555 1_555
C29 C28 1_555 1_555
H16 C29 1_555 1_555
C30 C25 1_555 1_555
H17 C30 1_555 1_555
C31 C27 1_555 1_555
C32 C31 1_555 1_555
C33 C32 1_555 1_555
H18 C33 1_555 1_555
C34 C33 1_555 1_555
H19 C34 1_555 1_555
C35 C34 1_555 1_555
H20 C35 1_555 1_555
C36 C31 1_555 1_555
H21 C36 1_555 1_555
C37 C38 1_555 1_555
C38 H22 1_555 1_555
C39 C38 1_555 1_555
H23 C39 1_555 1_555
C40 C39 1_555 1_555
H24 C40 1_555 1_555
C41 C40 1_555 1_555
H25 C41 1_555 1_555
C42 C37 1_555 1_555
H26 C42 1_555 1_555
N1 C1 1_555 1_555
N2 C2 1_555 1_555
N3 C10 1_555 1_555
N4 C28 1_555 1_555
S1 N1 1_555 1_555
C43 C44 1_555 1_555
C44 C45 1_555 1_555
C45 C46 1_555 1_555
C46 H27 1_555 1_555
C47 C46 1_555 1_555
H28 C47 1_555 1_555
C48 C43 1_555 1_555
C49 C45 1_555 1_555
C50 C49 1_555 1_555
H29 C50 1_555 1_555
C51 C50 1_555 1_555
C52 C51 1_555 1_555
C53 C52 1_555 1_555
H30 C53 1_555 1_555
C54 C49 1_555 1_555
H31 C54 1_555 1_555
C55 C51 1_555 1_555
C56 C55 1_555 1_555
C57 C56 1_555 1_555
H32 C57 1_555 1_555
C58 C57 1_555 1_555
H33 C58 1_555 1_555
C59 C58 1_555 1_555
H34 C59 1_555 1_555
C60 C55 1_555 1_555
H35 C60 1_555 1_555
C61 C62 1_555 1_555
C62 H36 1_555 1_555
C63 C62 1_555 1_555
H37 C63 1_555 1_555
C64 C63 1_555 1_555
H38 C64 1_555 1_555
C65 C64 1_555 1_555
H39 C65 1_555 1_555
C66 C61 1_555 1_555
H40 C66 1_555 1_555
C67 C48 1_555 1_555
C68 C67 1_555 1_555
H41 C68 1_555 1_555
C69 C68 1_555 1_555
C70 C69 1_555 1_555
C71 C70 1_555 1_555
H42 C71 1_555 1_555
C72 C67 1_555 1_555
H43 C72 1_555 1_555
C73 C69 1_555 1_555
C74 C73 1_555 1_555
C75 C74 1_555 1_555
H44 C75 1_555 1_555
C76 C75 1_555 1_555
H45 C76 1_555 1_555
C77 C76 1_555 1_555
H46 C77 1_555 1_555
C78 C73 1_555 1_555
H47 C78 1_555 1_555
C79 C80 1_555 1_555
C80 H48 1_555 1_555
C81 C80 1_555 1_555
H49 C81 1_555 1_555
C82 C81 1_555 1_555
H50 C82 1_555 1_555
C83 C82 1_555 1_555
H51 C83 1_555 1_555
C84 C79 1_555 1_555
H52 C84 1_555 1_555
N5 C43 1_555 1_555
N6 C44 1_555 1_555
N7 C52 1_555 1_555
N8 C70 1_555 1_555
S2 N5 1_555 1_555
C5 C6 1_555 1_555
C11 C12 1_555 1_555
C14 N3 1_555 1_555
C17 C18 1_555 1_555
C19 N3 1_555 1_555
C23 C24 1_555 1_555
C29 C30 1_555 1_555
C32 N4 1_555 1_555
C35 C36 1_555 1_555
C37 N4 1_555 1_555
C41 C42 1_555 1_555
N2 S1 1_555 1_555
C47 C48 1_555 1_555
C53 C54 1_555 1_555
C56 N7 1_555 1_555
C59 C60 1_555 1_555
C61 N7 1_555 1_555
C65 C66 1_555 1_555
C71 C72 1_555 1_555
C74 N8 1_555 1_555
C77 C78 1_555 1_555
C79 N8 1_555 1_555
C83 C84 1_555 1_555
N6 S2 1_555 1_555

#END
