
#######################################################################
#
#                 Cambridge Crystallographic Data Centre
#                                CCDC 
#
#######################################################################
#
# If this CIF has been generated from an entry in the Cambridge 
# Structural Database, then it will include bibliographic, chemical, 
# crystal, experimental, refinement or atomic coordinate data resulting 
# from the CCDC's data processing and validation procedures.
#
#######################################################################

data_NOXZOR
_chemical_formula_moiety         'C32 H25 Br1 O2'
_chemical_name_systematic        
"2-Benzyl-2,3-dihydro-1H,1'H-2,2'-biinden-1-yl 4-bromobenzoate"
_symmetry_cell_setting           monoclinic
_symmetry_space_group_name_H-M   'P 21'
_symmetry_Int_Tables_number      4
_space_group_name_Hall           'P 2yb'
loop_
_symmetry_equiv_pos_site_id
_symmetry_equiv_pos_as_xyz
1 x,y,z
2 -x,1/2+y,-z
_cell_length_a                   13.7096(6)
_cell_length_b                   6.0743(3)
_cell_length_c                   14.8934(7)
_cell_angle_alpha                90
_cell_angle_beta                 105.613(2)
_cell_angle_gamma                90
_cell_volume                     1194.5
_exptl_crystal_colour            colorless
_exptl_crystal_description       block
_cell_formula_units_Z            2
loop_
_atom_site_label
_atom_site_type_symbol
_atom_site_fract_x
_atom_site_fract_y
_atom_site_fract_z
Br1 Br 0.92892(4) 0.84046(11) 0.28747(3)
C1 C 0.6991(4) 0.6077(9) 0.7845(4)
C2 C 0.7042(4) 0.4231(9) 0.7135(3)
H1 H 0.7381 0.2876 0.7454
C3 C 0.5946(4) 0.3803(9) 0.6619(3)
C4 C 0.5542(4) 0.2070(10) 0.6027(4)
H2 H 0.5966 0.0936 0.5904
C5 C 0.4503(5) 0.2034(11) 0.5619(4)
H3 H 0.4209 0.0849 0.5221
C6 C 0.3894(4) 0.3715(12) 0.5789(4)
H4 H 0.3184 0.3665 0.5509
C7 C 0.4303(4) 0.5468(11) 0.6361(4)
H5 H 0.3883 0.6625 0.6469
C8 C 0.5345(4) 0.5503(9) 0.6776(3)
C9 C 0.5962(4) 0.7256(9) 0.7380(4)
H6 H 0.5631 0.7767 0.7857
H7 H 0.6065 0.8532 0.7002
C10 C 0.7852(4) 0.7783(8) 0.7993(4)
H8 H 0.7804 0.8489 0.7384
H9 H 0.7714 0.8940 0.8411
C11 C 0.8937(4) 0.7042(9) 0.8388(3)
C12 C 0.9697(4) 0.8487(14) 0.8312(3)
H10 H 0.9517 0.9828 0.7981
C13 C 1.0706(4) 0.8019(11) 0.8708(4)
H11 H 1.1212 0.9045 0.8658
C14 C 1.0979(4) 0.6054(10) 0.9177(4)
H12 H 1.1673 0.5725 0.9449
C15 C 1.0239(4) 0.4570(10) 0.9249(4)
H13 H 1.0424 0.3218 0.9570
C16 C 0.9217(4) 0.5063(10) 0.8847(3)
H14 H 0.8711 0.4030 0.8889
C17 C 0.6870(4) 0.5109(9) 0.8744(3)
C18 C 0.7102(4) 0.6445(9) 0.9627(4)
H15 H 0.7839 0.6710 0.9867
H16 H 0.6746 0.7880 0.9522
C19 C 0.6721(4) 0.5049(10) 1.0285(4)
C20 C 0.6711(4) 0.5459(10) 1.1203(4)
H17 H 0.6980 0.6787 1.1507
C21 C 0.6294(4) 0.3861(11) 1.1663(4)
H18 H 0.6276 0.4108 1.2288
C22 C 0.5907(4) 0.1918(11) 1.1219(4)
H19 H 0.5641 0.0837 1.1549
C23 C 0.5903(4) 0.1530(10) 1.0299(4)
H20 H 0.5618 0.0217 0.9991
C24 C 0.6325(4) 0.3098(10) 0.9839(3)
C25 C 0.6433(4) 0.3182(11) 0.8880(3)
H21 H 0.6227 0.2054 0.8427
O1 O 0.7571(3) 0.5131(6) 0.6484(2)
C26 C 0.7908(4) 0.3655(11) 0.5962(3)
O2 O 0.7862(3) 0.1692(7) 0.6038(3)
C27 C 0.8327(4) 0.4807(9) 0.5257(4)
C28 C 0.8260(4) 0.3715(11) 0.4417(3)
H22 H 0.8009 0.2251 0.4328
C29 C 0.8564(4) 0.4788(10) 0.3709(4)
H23 H 0.8509 0.4082 0.3128
C30 C 0.8946(4) 0.6887(10) 0.3870(4)
C31 C 0.9058(4) 0.7960(9) 0.4705(4)
H24 H 0.9353 0.9385 0.4804
C32 C 0.8731(4) 0.6906(10) 0.5402(4)
H25 H 0.8784 0.7631 0.5979
loop_
_geom_bond_atom_site_label_1
_geom_bond_atom_site_label_2
_geom_bond_site_symmetry_1
_geom_bond_site_symmetry_2
Br1 C30 1_555 1_555
C1 C2 1_555 1_555
C2 H1 1_555 1_555
C3 C2 1_555 1_555
C4 C3 1_555 1_555
H2 C4 1_555 1_555
C5 C4 1_555 1_555
H3 C5 1_555 1_555
C6 C5 1_555 1_555
H4 C6 1_555 1_555
C7 C6 1_555 1_555
H5 C7 1_555 1_555
C8 C3 1_555 1_555
C9 C1 1_555 1_555
H6 C9 1_555 1_555
H7 C9 1_555 1_555
C10 C1 1_555 1_555
H8 C10 1_555 1_555
H9 C10 1_555 1_555
C11 C10 1_555 1_555
C12 C11 1_555 1_555
H10 C12 1_555 1_555
C13 C12 1_555 1_555
H11 C13 1_555 1_555
C14 C13 1_555 1_555
H12 C14 1_555 1_555
C15 C14 1_555 1_555
H13 C15 1_555 1_555
C16 C11 1_555 1_555
H14 C16 1_555 1_555
C17 C1 1_555 1_555
C18 C17 1_555 1_555
H15 C18 1_555 1_555
H16 C18 1_555 1_555
C19 C18 1_555 1_555
C20 C19 1_555 1_555
H17 C20 1_555 1_555
C21 C20 1_555 1_555
H18 C21 1_555 1_555
C22 C21 1_555 1_555
H19 C22 1_555 1_555
C23 C22 1_555 1_555
H20 C23 1_555 1_555
C24 C19 1_555 1_555
C25 C17 1_555 1_555
H21 C25 1_555 1_555
O1 C2 1_555 1_555
C26 O1 1_555 1_555
O2 C26 1_555 1_555
C27 C26 1_555 1_555
C28 C27 1_555 1_555
H22 C28 1_555 1_555
C29 C28 1_555 1_555
H23 C29 1_555 1_555
C30 C29 1_555 1_555
C31 C30 1_555 1_555
H24 C31 1_555 1_555
C32 C27 1_555 1_555
H25 C32 1_555 1_555
C7 C8 1_555 1_555
C8 C9 1_555 1_555
C15 C16 1_555 1_555
C23 C24 1_555 1_555
C24 C25 1_555 1_555
C31 C32 1_555 1_555

#END
