
#######################################################################
#
#                 Cambridge Crystallographic Data Centre
#                                CCDC 
#
#######################################################################
#
# If this CIF has been generated from an entry in the Cambridge 
# Structural Database, then it will include bibliographic, chemical, 
# crystal, experimental, refinement or atomic coordinate data resulting 
# from the CCDC's data processing and validation procedures.
#
#######################################################################

data_NOYDIQ
_chemical_formula_moiety         'C60 H62 S4,0.5(C1 H1 Cl3)'
_chemical_name_systematic        
"2,5,10,13-Tetrahexylacenaphtho[3',2',1',8':5,6,7,8]tristhieno[2',3':1,2;2'',3'':9,10;3''',2''':11,12]piceno[4,3-b]thiophene chloroform solvate"
_symmetry_cell_setting           triclinic
_symmetry_space_group_name_H-M   'P -1'
_symmetry_Int_Tables_number      2
_space_group_name_Hall           '-P 1'
loop_
_symmetry_equiv_pos_site_id
_symmetry_equiv_pos_as_xyz
1 x,y,z
2 -x,-y,-z
_cell_length_a                   11.7098(8)
_cell_length_b                   12.2432(8)
_cell_length_c                   19.7420(12)
_cell_angle_alpha                75.9530(10)
_cell_angle_beta                 72.973(2)
_cell_angle_gamma                75.614(2)
_cell_volume                     2576.88
_cell_formula_units_Z            2
loop_
_atom_site_label
_atom_site_type_symbol
_atom_site_fract_x
_atom_site_fract_y
_atom_site_fract_z
S1 S 2.18424(17) 0.16109(16) 0.59406(10)
S2 S 1.34002(18) 0.75552(17) 0.53330(10)
S3 S 1.81493(18) 0.50732(17) 0.35192(10)
S4 S 1.90557(18) 0.23825(17) 0.90406(10)
C1 C 1.5283(6) 0.5613(6) 0.6125(4)
C2 C 2.0879(7) 0.1976(6) 0.6742(3)
C3 C 1.6055(7) 0.4653(6) 0.6374(4)
C4 C 1.9668(6) 0.2632(6) 0.6846(4)
C5 C 1.7126(6) 0.4122(5) 0.5967(4)
C6 C 2.6008(7) -0.1399(6) 0.6030(4)
H1 H 2.6516 -0.0890 0.5689
H2 H 2.5783 -0.1842 0.5760
C7 C 1.9623(7) 0.2294(6) 0.8133(4)
C8 C 1.6148(6) 0.6546(6) 0.3788(4)
C9 C 1.6959(6) 0.5702(6) 0.4145(4)
C10 C 1.7709(7) 0.3359(6) 0.7712(4)
C11 C 2.1446(7) 0.1467(6) 0.7305(4)
C12 C 1.6737(6) 0.5404(6) 0.4897(4)
C13 C 1.5078(7) 0.7106(6) 0.4196(4)
C14 C 1.4422(7) 0.6178(7) 0.6688(4)
H3 H 1.3817 0.6787 0.6567
C15 C 2.0378(7) 0.1546(6) 0.9265(4)
C16 C 1.4109(6) 0.7963(6) 0.3948(4)
H4 H 1.4143 0.8273 0.3465
C17 C 2.7822(7) -0.3015(6) 0.6204(4)
H5 H 2.8383 -0.2568 0.5851
H6 H 2.7563 -0.3460 0.5951
C18 C 1.5610(6) 0.5942(6) 0.5329(4)
C19 C 1.5374(7) 0.4900(6) 0.7633(4)
C20 C 1.1829(7) 0.9585(6) 0.3700(4)
H7 H 1.2477 1.0000 0.3432
H8 H 1.1896 0.8961 0.3459
C21 C 2.4861(7) -0.0687(6) 0.6437(4)
H9 H 2.4364 -0.1204 0.6779
H10 H 2.5096 -0.0255 0.6709
C22 C 2.2599(7) 0.0791(6) 0.7083(4)
H11 H 2.3081 0.0396 0.7399
C23 C 2.2940(7) 0.0768(6) 0.6378(4)
C24 C 2.4101(6) 0.0137(6) 0.5960(4)
H12 H 2.4576 0.0690 0.5639
H13 H 2.3906 -0.0285 0.5665
C25 C 1.8972(7) 0.2743(6) 0.7576(4)
C26 C 1.8268(7) 0.5686(7) 0.2053(4)
H14 H 1.8520 0.4866 0.2066
H15 H 1.8998 0.6009 0.1911
C27 C 1.7168(6) 0.3548(6) 0.7153(4)
C28 C 1.7590(7) 0.5887(6) 0.2792(4)
C29 C 1.7850(7) 0.3467(6) 0.6428(4)
C30 C 2.6736(7) -0.2220(6) 0.6556(4)
H16 H 2.7006 -0.1765 0.6797
H17 H 2.6197 -0.2674 0.6921
C31 C 2.1192(7) 0.1240(7) 0.8669(4)
H18 H 2.1959 0.0797 0.8681
C32 C 1.3147(7) 0.8266(6) 0.4496(4)
C33 C 2.1898(7) 0.0412(7) 1.0867(4)
H19 H 2.1279 0.0008 1.1198
H20 H 2.1788 0.1145 1.1007
C34 C 2.0787(7) 0.1648(6) 0.8010(4)
C35 C 1.7608(6) 0.4543(6) 0.5251(4)
C36 C 1.6082(6) 0.4293(6) 0.7108(4)
C37 C 1.4813(6) 0.6796(6) 0.4957(4)
C38 C 1.4477(7) 0.5832(7) 0.7403(4)
H21 H 1.3908 0.6222 0.7746
C39 C 1.6538(7) 0.6626(6) 0.3015(4)
H22 H 1.6110 0.7135 0.2700
C40 C 1.9095(6) 0.3121(6) 0.6235(4)
C41 C 1.8299(8) 0.5856(7) 0.0747(4)
H23 H 1.9055 0.6138 0.0610
H24 H 1.8505 0.5026 0.0814
C42 C 1.7546(7) 0.6198(7) 0.1475(4)
H25 H 1.7354 0.7027 0.1422
H26 H 1.6787 0.5920 0.1622
C43 C 1.9589(7) 0.3481(6) 0.5477(4)
H27 H 2.0422 0.3263 0.5291
C44 C 1.8890(6) 0.4139(6) 0.5009(4)
H28 H 1.9266 0.4324 0.4522
C45 C 1.0597(7) 1.0393(7) 0.3701(4)
H29 H 0.9955 0.9985 0.3994
H30 H 1.0552 1.1033 0.3922
C46 C 1.6925(7) 0.3880(6) 0.8304(4)
H31 H 1.7174 0.3729 0.8730
C47 C 2.1738(7) 0.0616(7) 1.0098(4)
H32 H 2.2363 0.1015 0.9769
H33 H 2.1851 -0.0119 0.9960
C48 C 1.5828(7) 0.4590(7) 0.8272(4)
H34 H 1.5355 0.4885 0.8680
C49 C 1.0379(7) 1.0852(7) 0.2960(4)
H35 H 1.0441 1.0211 0.2735
H36 H 1.1012 1.1272 0.2670
C50 C 2.0496(7) 0.1313(7) 1.0023(4)
H37 H 1.9871 0.0899 1.0335
H38 H 2.0366 0.2036 1.0179
C51 C 1.1983(7) 0.9090(7) 0.4467(4)
H39 H 1.1938 0.9717 0.4700
H40 H 1.1312 0.8704 0.4738
C52 C 2.8483(7) -0.3834(7) 0.6753(4)
H41 H 2.9181 -0.4317 0.6506
H42 H 2.7941 -0.4301 0.7091
H43 H 2.8739 -0.3397 0.7005
C53 C 0.9150(8) 1.1633(8) 0.2963(5)
H44 H 0.9110 1.2301 0.3157
H45 H 0.8519 1.1230 0.3280
C54 C 0.8896(9) 1.2029(9) 0.2218(5)
H46 H 0.8106 1.2513 0.2255
H47 H 0.8921 1.1373 0.2025
H48 H 0.9502 1.2450 0.1905
C55 C 2.3164(8) -0.0292(8) 1.0922(4)
H49 H 2.3245 -0.1042 1.0812
H50 H 2.3777 0.0085 1.0562
C56 C 1.7915(11) 0.6320(10) -0.1201(5)
H51 H 1.8493 0.6056 -0.1614
H52 H 1.7700 0.7142 -0.1302
H53 H 1.7199 0.5999 -0.1095
C57 C 2.3409(9) -0.0447(8) 1.1647(5)
H54 H 2.2817 -0.0846 1.2010
H55 H 2.3321 0.0299 1.1765
C58 C 2.4724(9) -0.1147(9) 1.1656(5)
H56 H 2.4860 -0.1231 1.2124
H57 H 2.5311 -0.0748 1.1301
H58 H 2.4806 -0.1892 1.1550
C59 C 1.7679(8) 0.6296(8) 0.0135(4)
H59 H 1.6932 0.6004 0.0263
H60 H 1.7466 0.7126 0.0066
C60 C 1.8466(9) 0.5949(9) -0.0566(5)
H61 H 1.8701 0.5120 -0.0484
H62 H 1.9204 0.6257 -0.0691
Cl1 Cl 1.2806(5) 0.6752(7) -0.0717(3)
Cl2 Cl 1.4660(5) 0.7084(11) -0.0215(3)
Cl3 Cl 1.4210(7) 0.8312(5) -0.1542(3)
C61 C 1.3634(14) 0.7657(12) -0.0666(8)
H63 H 1.3075 0.8254 -0.0413
Cl4? Cl 1.412(4) 0.6226(15) -0.0250(11)
loop_
_geom_bond_atom_site_label_1
_geom_bond_atom_site_label_2
_geom_bond_site_symmetry_1
_geom_bond_site_symmetry_2
S1 C2 1_555 1_555
S2 C32 1_555 1_555
S3 C9 1_555 1_555
S4 C7 1_555 1_555
C1 C3 1_555 1_555
C2 C4 1_555 1_555
C3 C5 1_555 1_555
C4 C25 1_555 1_555
C5 C29 1_555 1_555
C6 H1 1_555 1_555
H2 C6 1_555 1_555
C7 C25 1_555 1_555
C8 C9 1_555 1_555
C9 C12 1_555 1_555
C10 C25 1_555 1_555
C11 C2 1_555 1_555
C12 C18 1_555 1_555
C13 C8 1_555 1_555
C14 C1 1_555 1_555
H3 C14 1_555 1_555
C15 S4 1_555 1_555
C16 C13 1_555 1_555
H4 C16 1_555 1_555
C17 H5 1_555 1_555
H6 C17 1_555 1_555
C18 C1 1_555 1_555
C19 C36 1_555 1_555
C20 H7 1_555 1_555
H8 C20 1_555 1_555
C21 C6 1_555 1_555
H9 C21 1_555 1_555
H10 C21 1_555 1_555
C22 C11 1_555 1_555
H11 C22 1_555 1_555
C23 S1 1_555 1_555
C24 C21 1_555 1_555
H12 C24 1_555 1_555
H13 C24 1_555 1_555
C26 H14 1_555 1_555
H15 C26 1_555 1_555
C27 C10 1_555 1_555
C28 S3 1_555 1_555
C29 C27 1_555 1_555
C30 C6 1_555 1_555
H16 C30 1_555 1_555
H17 C30 1_555 1_555
C31 C15 1_555 1_555
H18 C31 1_555 1_555
C32 C16 1_555 1_555
C33 H19 1_555 1_555
H20 C33 1_555 1_555
C34 C7 1_555 1_555
C35 C5 1_555 1_555
C36 C3 1_555 1_555
C37 S2 1_555 1_555
C38 C14 1_555 1_555
H21 C38 1_555 1_555
C39 C8 1_555 1_555
H22 C39 1_555 1_555
C40 C4 1_555 1_555
C41 H23 1_555 1_555
H24 C41 1_555 1_555
C42 C26 1_555 1_555
H25 C42 1_555 1_555
H26 C42 1_555 1_555
C43 C40 1_555 1_555
H27 C43 1_555 1_555
C44 C35 1_555 1_555
H28 C44 1_555 1_555
C45 C20 1_555 1_555
H29 C45 1_555 1_555
H30 C45 1_555 1_555
C46 C10 1_555 1_555
H31 C46 1_555 1_555
C47 C33 1_555 1_555
H32 C47 1_555 1_555
H33 C47 1_555 1_555
C48 C19 1_555 1_555
H34 C48 1_555 1_555
C49 C45 1_555 1_555
H35 C49 1_555 1_555
H36 C49 1_555 1_555
C50 C15 1_555 1_555
H37 C50 1_555 1_555
H38 C50 1_555 1_555
C51 C20 1_555 1_555
H39 C51 1_555 1_555
H40 C51 1_555 1_555
C52 C17 1_555 1_555
H41 C52 1_555 1_555
H42 C52 1_555 1_555
H43 C52 1_555 1_555
C53 C49 1_555 1_555
H44 C53 1_555 1_555
H45 C53 1_555 1_555
C54 C53 1_555 1_555
H46 C54 1_555 1_555
H47 C54 1_555 1_555
H48 C54 1_555 1_555
C55 C33 1_555 1_555
H49 C55 1_555 1_555
H50 C55 1_555 1_555
C56 H51 1_555 1_555
H52 C56 1_555 1_555
H53 C56 1_555 1_555
C57 C55 1_555 1_555
H54 C57 1_555 1_555
H55 C57 1_555 1_555
C58 C57 1_555 1_555
H56 C58 1_555 1_555
H57 C58 1_555 1_555
H58 C58 1_555 1_555
C59 C41 1_555 1_555
H59 C59 1_555 1_555
H60 C59 1_555 1_555
C60 C56 1_555 1_555
H61 C60 1_555 1_555
H62 C60 1_555 1_555
Cl1 C61 1_555 1_555
Cl2 C61 1_555 1_555
Cl3 C61 1_555 1_555
C61 H63 1_555 1_555
C11 C34 1_555 1_555
C12 C35 1_555 1_555
C13 C37 1_555 1_555
C17 C30 1_555 1_555
C18 C37 1_555 1_555
C19 C38 1_555 1_555
C22 C23 1_555 1_555
C23 C24 1_555 1_555
C26 C28 1_555 1_555
C27 C36 1_555 1_555
C28 C39 1_555 1_555
C29 C40 1_555 1_555
C31 C34 1_555 1_555
C32 C51 1_555 1_555
C41 C42 1_555 1_555
C43 C44 1_555 1_555
C46 C48 1_555 1_555
C47 C50 1_555 1_555
C59 C60 1_555 1_555

#END
