
#######################################################################
#
#                 Cambridge Crystallographic Data Centre
#                                CCDC 
#
#######################################################################
#
# If this CIF has been generated from an entry in the Cambridge 
# Structural Database, then it will include bibliographic, chemical, 
# crystal, experimental, refinement or atomic coordinate data resulting 
# from the CCDC's data processing and validation procedures.
#
#######################################################################

data_NOYFUE
_chemical_formula_moiety         'C31 H34 N2 O5 S1'
_chemical_name_systematic        
'Methyl 7-benzyl-6-(hydroxymethyl)-3-((4-methylphenyl)sulfonyl)-2,3,3a,4,5,6,6a,7-octahydro-1H-pyrrolo[2,3-d]carbazole-6-carboxylate'
_symmetry_cell_setting           triclinic
_symmetry_space_group_name_H-M   'P -1'
_symmetry_Int_Tables_number      2
_space_group_name_Hall           '-P 1'
loop_
_symmetry_equiv_pos_site_id
_symmetry_equiv_pos_as_xyz
1 x,y,z
2 -x,-y,-z
_cell_length_a                   8.720(2)
_cell_length_b                   10.851(2)
_cell_length_c                   15.550(4)
_cell_angle_alpha                80.214(5)
_cell_angle_beta                 74.756(5)
_cell_angle_gamma                81.999(5)
_cell_volume                     1392
_exptl_crystal_colour            colorless
_exptl_crystal_description       prismatic
_cell_formula_units_Z            2
loop_
_atom_site_label
_atom_site_type_symbol
_atom_site_fract_x
_atom_site_fract_y
_atom_site_fract_z
S1 S -0.32990(9) 0.36865(9) 0.29574(6)
N1 N -0.1843(3) 0.2604(2) 0.26921(15)
N2 N 0.3196(2) 0.0890(2) 0.11698(14)
O1 O 0.2258(6) 0.5437(5) 0.0722(3)
O2 O 0.2773(3) 0.43502(19) 0.19290(16)
O3 O 0.5420(3) 0.3081(3) 0.0463(2)
H1 H 0.6077 0.3535 0.0133
O4 O -0.3621(3) 0.4336(3) 0.21375(17)
O5 O -0.4507(3) 0.3072(3) 0.36320(19)
C1 C -0.1338(4) 0.1733(3) 0.34390(19)
H2 H -0.1829 0.0953 0.3551
H3 H -0.1633 0.2113 0.3988
C2 C 0.0455(3) 0.1499(3) 0.31197(17)
H4 H 0.0823 0.0634 0.3306
H5 H 0.0982 0.2052 0.3353
C3 C 0.0773(3) 0.1785(2) 0.20925(15)
C4 C -0.0400(3) 0.2953(2) 0.19895(17)
H6 H 0.0000 0.3654 0.2159
C5 C -0.0550(3) 0.3307(3) 0.10303(18)
H7 H -0.1036 0.4164 0.0945
H8 H -0.1228 0.2758 0.0905
C6 C 0.1116(3) 0.3185(3) 0.03831(17)
H9 H 0.1254 0.2406 0.0132
H10 H 0.1172 0.3871 -0.0110
C7 C 0.2494(3) 0.3199(2) 0.08227(17)
C8 C 0.2498(3) 0.2040(2) 0.15698(16)
H11 H 0.3104 0.2183 0.1987
C9 C 0.1969(3) 0.0150(2) 0.12388(16)
C10 C 0.0502(3) 0.0679(2) 0.16959(16)
C11 C -0.0866(3) 0.0147(3) 0.1751(2)
H12 H -0.1855 0.0508 0.2044
C12 C -0.0759(4) -0.0932(3) 0.1364(2)
H13 H -0.1681 -0.1288 0.1388
C13 C 0.0702(4) -0.1476(3) 0.0948(2)
H14 H 0.0760 -0.2215 0.0709
C14 C 0.2080(3) -0.0950(3) 0.08774(18)
H15 H 0.3067 -0.1325 0.0593
C15 C 0.4728(3) 0.0285(3) 0.13358(17)
H16 H 0.5490 0.0907 0.1171
H17 H 0.5129 -0.0359 0.0946
C16 C 0.4642(3) -0.0304(3) 0.22905(18)
C17 C 0.4365(4) -0.1544(3) 0.2568(2)
H18 H 0.4242 -0.2028 0.2156
C18 C 0.4266(6) -0.2078(4) 0.3448(3)
H19 H 0.4090 -0.2920 0.3622
C19 C 0.4424(5) -0.1382(4) 0.4067(2)
H20 H 0.4341 -0.1739 0.4663
C20 C 0.4706(4) -0.0150(4) 0.3798(2)
H21 H 0.4819 0.0333 0.4214
C21 C 0.4824(3) 0.0384(3) 0.2914(2)
H22 H 0.5029 0.1220 0.2740
C22 C 0.4061(4) 0.3175(3) 0.0095(2)
H23 H 0.4140 0.2459 -0.0201
H24 H 0.4040 0.3919 -0.0329
C23 C 0.2362(4) 0.4447(3) 0.1168(2)
C24 C 0.2773(4) 0.5513(3) 0.2264(3)
H25 H 0.3671 0.5940 0.1906
H26 H 0.2847 0.5335 0.2878
H27 H 0.1803 0.6036 0.2229
C25 C -0.2644(3) 0.4779(3) 0.3459(2)
C26 C -0.1879(5) 0.5782(3) 0.2937(2)
H28 H -0.1696 0.5879 0.2314
C27 C -0.1391(5) 0.6631(4) 0.3338(3)
H29 H -0.0867 0.7297 0.2977
C28 C -0.1644(5) 0.6539(4) 0.4240(3)
C29 C -0.2404(6) 0.5538(5) 0.4751(3)
H30 H -0.2585 0.5450 0.5374
C30 C -0.2909(5) 0.4660(4) 0.4371(2)
H31 H -0.3426 0.3991 0.4733
C31 C -0.1122(7) 0.7497(5) 0.4678(4)
H32 H -0.1199 0.7184 0.5302
H33 H -0.1799 0.8269 0.4627
H34 H -0.0036 0.7644 0.4383
O6? O 0.1370(10) 0.5370(8) 0.0939(6)
O7? O 0.4108(15) 0.4362(13) -0.0460(9)
H35? H 0.5036 0.4531 -0.0647
H36? H 0.4950 0.3019 0.0367
H37? H 0.4099 0.2519 -0.0261
loop_
_geom_bond_atom_site_label_1
_geom_bond_atom_site_label_2
_geom_bond_site_symmetry_1
_geom_bond_site_symmetry_2
S1 N1 1_555 1_555
N1 C1 1_555 1_555
N2 C8 1_555 1_555
O1 C23 1_555 1_555
O2 C23 1_555 1_555
O3 H1 1_555 1_555
O4 S1 1_555 1_555
O5 S1 1_555 1_555
C1 H2 1_555 1_555
H3 C1 1_555 1_555
C2 C1 1_555 1_555
H4 C2 1_555 1_555
H5 C2 1_555 1_555
C3 C2 1_555 1_555
C4 N1 1_555 1_555
H6 C4 1_555 1_555
C5 C4 1_555 1_555
H7 C5 1_555 1_555
H8 C5 1_555 1_555
C6 C5 1_555 1_555
H9 C6 1_555 1_555
H10 C6 1_555 1_555
C7 C6 1_555 1_555
C8 C3 1_555 1_555
H11 C8 1_555 1_555
C9 N2 1_555 1_555
C10 C3 1_555 1_555
C11 C10 1_555 1_555
H12 C11 1_555 1_555
C12 C11 1_555 1_555
H13 C12 1_555 1_555
C13 C12 1_555 1_555
H14 C13 1_555 1_555
C14 C9 1_555 1_555
H15 C14 1_555 1_555
C15 N2 1_555 1_555
H16 C15 1_555 1_555
H17 C15 1_555 1_555
C16 C15 1_555 1_555
C17 C16 1_555 1_555
H18 C17 1_555 1_555
C18 C17 1_555 1_555
H19 C18 1_555 1_555
C19 C18 1_555 1_555
H20 C19 1_555 1_555
C20 C19 1_555 1_555
H21 C20 1_555 1_555
C21 C16 1_555 1_555
H22 C21 1_555 1_555
C22 O3 1_555 1_555
H23 C22 1_555 1_555
H24 C22 1_555 1_555
C23 C7 1_555 1_555
C24 O2 1_555 1_555
H25 C24 1_555 1_555
H26 C24 1_555 1_555
H27 C24 1_555 1_555
C25 S1 1_555 1_555
C26 C25 1_555 1_555
H28 C26 1_555 1_555
C27 C26 1_555 1_555
H29 C27 1_555 1_555
C28 C27 1_555 1_555
C29 C28 1_555 1_555
H30 C29 1_555 1_555
C30 C25 1_555 1_555
H31 C30 1_555 1_555
C31 C28 1_555 1_555
H32 C31 1_555 1_555
H33 C31 1_555 1_555
H34 C31 1_555 1_555
C3 C4 1_555 1_555
C7 C8 1_555 1_555
C7 C22 1_555 1_555
C9 C10 1_555 1_555
C13 C14 1_555 1_555
C20 C21 1_555 1_555
C29 C30 1_555 1_555

#END
