
#######################################################################
#
#                 Cambridge Crystallographic Data Centre
#                                CCDC 
#
#######################################################################
#
# If this CIF has been generated from an entry in the Cambridge 
# Structural Database, then it will include bibliographic, chemical, 
# crystal, experimental, refinement or atomic coordinate data resulting 
# from the CCDC's data processing and validation procedures.
#
#######################################################################

data_NOYFIS
_chemical_formula_moiety         'C27 H32 N2 O6 S1'
_chemical_name_systematic        
'Dimethyl 8-methyl-4-((4-methylphenyl)sulfonyl)-2,3,4,4a,5,6,7a,8-octahydropyrido[2,3-d]carbazole-7,7(1H)-dicarboxylate'
_symmetry_cell_setting           monoclinic
_symmetry_space_group_name_H-M   'C 2/c'
_symmetry_Int_Tables_number      15
_space_group_name_Hall           '-C 2yn'
loop_
_symmetry_equiv_pos_site_id
_symmetry_equiv_pos_as_xyz
1 x,y,z
2 -x,y,1/2-z
3 1/2+x,1/2+y,z
4 1/2-x,1/2+y,1/2-z
5 -x,-y,-z
6 x,-y,1/2+z
7 1/2-x,1/2-y,-z
8 1/2+x,1/2-y,1/2+z
_cell_length_a                   22.090(11)
_cell_length_b                   7.320(4)
_cell_length_c                   32.635(16)
_cell_angle_alpha                90
_cell_angle_beta                 105.814(13)
_cell_angle_gamma                90
_cell_volume                     5077.31
_exptl_crystal_colour            colorless
_exptl_crystal_description       prismatic
_cell_formula_units_Z            8
loop_
_atom_site_label
_atom_site_type_symbol
_atom_site_fract_x
_atom_site_fract_y
_atom_site_fract_z
S1 S -0.00462(3) 0.10886(10) 0.10687(2)
N1 N 0.24313(9) 0.3852(3) 0.06658(7)
N2 N 0.05437(9) 0.1086(3) 0.08428(6)
O1 O 0.33842(9) 0.4380(3) 0.17101(8)
O2 O 0.28154(8) 0.6728(3) 0.13915(7)
O3 O 0.24905(9) 0.1042(3) 0.17947(6)
O4 O 0.22241(9) 0.3517(3) 0.21034(6)
O5 O -0.01236(8) 0.2893(2) 0.12156(6)
O6 O -0.05630(7) 0.0259(3) 0.07677(6)
C1 C 0.19102(11) 0.4208(3) 0.03302(8)
C2 C 0.18748(13) 0.5313(4) -0.00188(9)
H1 H 0.2230 0.5893 -0.0057
C3 C 0.12920(14) 0.5527(4) -0.03096(9)
H2 H 0.1258 0.6253 -0.0549
C4 C 0.07665(14) 0.4701(4) -0.02544(9)
H3 H 0.0378 0.4900 -0.0450
C5 C 0.08100(12) 0.3560(4) 0.00935(8)
H4 H 0.0453 0.2980 0.0128
C6 C 0.13809(11) 0.3292(3) 0.03849(8)
C7 C 0.15890(10) 0.1999(3) 0.07633(8)
C8 C 0.22635(11) 0.2749(3) 0.09904(8)
H5 H 0.2557 0.1722 0.1068
C9 C 0.22815(11) 0.3896(3) 0.13987(8)
C10 C 0.16880(10) 0.5062(3) 0.13031(8)
H6 H 0.1667 0.5802 0.1053
H7 H 0.1712 0.5883 0.1540
C11 C 0.10846(11) 0.3919(3) 0.12258(9)
H8 H 0.0963 0.3838 0.1489
H9 H 0.0749 0.4536 0.1018
C12 C 0.11581(10) 0.1981(3) 0.10663(8)
H10 H 0.1362 0.1229 0.1314
C13 C 0.06362(12) -0.0797(3) 0.06936(9)
H11 H 0.0230 -0.1318 0.0550
H12 H 0.0827 -0.1557 0.0938
C14 C 0.10471(12) -0.0805(4) 0.03941(9)
H13 H 0.0843 -0.0132 0.0138
H14 H 0.1111 -0.2051 0.0314
C15 C 0.16713(11) 0.0059(3) 0.06075(8)
H15 H 0.1926 0.0108 0.0408
H16 H 0.1891 -0.0686 0.0848
C16 C 0.30660(12) 0.4037(4) 0.06323(10)
H17 H 0.3105 0.3406 0.0383
H18 H 0.3354 0.3521 0.0880
H19 H 0.3162 0.5307 0.0611
C17 C 0.28896(12) 0.5015(4) 0.15194(8)
C18 C 0.33800(14) 0.7835(4) 0.14734(12)
H20 H 0.3611 0.7725 0.1768
H21 H 0.3266 0.9089 0.1409
H22 H 0.3637 0.7422 0.1297
C19 C 0.23432(11) 0.2619(4) 0.17778(8)
C20 C 0.23098(16) 0.2476(4) 0.24951(9)
H23 H 0.2043 0.1418 0.2441
H24 H 0.2202 0.3224 0.2706
H25 H 0.2741 0.2099 0.2597
C21 C 0.01808(11) -0.0366(4) 0.15107(9)
C22 C 0.00174(13) -0.2205(4) 0.14697(9)
H26 H -0.0239 -0.2644 0.1214
C23 C 0.02341(14) -0.3367(4) 0.18063(10)
H27 H 0.0119 -0.4592 0.1775
C24 C 0.06186(13) -0.2774(4) 0.21912(10)
C25 C 0.07614(14) -0.0925(5) 0.22286(10)
H28 H 0.1006 -0.0478 0.2488
C26 C 0.05530(13) 0.0262(4) 0.18963(9)
H29 H 0.0662 0.1491 0.1930
C27 C 0.08753(15) -0.4092(5) 0.25505(11)
H30 H 0.0624 -0.5181 0.2505
H31 H 0.0864 -0.3538 0.2815
H32 H 0.1302 -0.4397 0.2560
loop_
_geom_bond_atom_site_label_1
_geom_bond_atom_site_label_2
_geom_bond_site_symmetry_1
_geom_bond_site_symmetry_2
S1 N2 1_555 1_555
N1 C1 1_555 1_555
N2 C12 1_555 1_555
O1 C17 1_555 1_555
O2 C17 1_555 1_555
O3 C19 1_555 1_555
O4 C19 1_555 1_555
O5 S1 1_555 1_555
O6 S1 1_555 1_555
C1 C2 1_555 1_555
C2 H1 1_555 1_555
C3 C2 1_555 1_555
H2 C3 1_555 1_555
C4 C3 1_555 1_555
H3 C4 1_555 1_555
C5 C4 1_555 1_555
H4 C5 1_555 1_555
C6 C1 1_555 1_555
C7 C6 1_555 1_555
C8 N1 1_555 1_555
H5 C8 1_555 1_555
C9 C8 1_555 1_555
C10 C9 1_555 1_555
H6 C10 1_555 1_555
H7 C10 1_555 1_555
C11 C10 1_555 1_555
H8 C11 1_555 1_555
H9 C11 1_555 1_555
C12 C7 1_555 1_555
H10 C12 1_555 1_555
C13 N2 1_555 1_555
H11 C13 1_555 1_555
H12 C13 1_555 1_555
C14 C13 1_555 1_555
H13 C14 1_555 1_555
H14 C14 1_555 1_555
C15 C7 1_555 1_555
H15 C15 1_555 1_555
H16 C15 1_555 1_555
C16 N1 1_555 1_555
H17 C16 1_555 1_555
H18 C16 1_555 1_555
H19 C16 1_555 1_555
C17 C9 1_555 1_555
C18 O2 1_555 1_555
H20 C18 1_555 1_555
H21 C18 1_555 1_555
H22 C18 1_555 1_555
C19 C9 1_555 1_555
C20 O4 1_555 1_555
H23 C20 1_555 1_555
H24 C20 1_555 1_555
H25 C20 1_555 1_555
C21 S1 1_555 1_555
C22 C21 1_555 1_555
H26 C22 1_555 1_555
C23 C22 1_555 1_555
H27 C23 1_555 1_555
C24 C23 1_555 1_555
C25 C24 1_555 1_555
H28 C25 1_555 1_555
C26 C21 1_555 1_555
H29 C26 1_555 1_555
C27 C24 1_555 1_555
H30 C27 1_555 1_555
H31 C27 1_555 1_555
H32 C27 1_555 1_555
C5 C6 1_555 1_555
C7 C8 1_555 1_555
C11 C12 1_555 1_555
C14 C15 1_555 1_555
C25 C26 1_555 1_555

#END
