
#######################################################################
#
#                 Cambridge Crystallographic Data Centre
#                                CCDC 
#
#######################################################################
#
# If this CIF has been generated from an entry in the Cambridge 
# Structural Database, then it will include bibliographic, chemical, 
# crystal, experimental, refinement or atomic coordinate data resulting 
# from the CCDC's data processing and validation procedures.
#
#######################################################################

data_NOYFOY
_chemical_formula_moiety         'C32 H34 N2 O6 S1'
_chemical_name_systematic        
'Dimethyl 7-benzyl-3-((4-methylphenyl)sulfonyl)-1,2,3,3a,4,5,6a,7-octahydro-6H-pyrrolo[2,3-d]carbazole-6,6-dicarboxylate'
_symmetry_cell_setting           monoclinic
_symmetry_space_group_name_H-M   'P 21/n'
_symmetry_Int_Tables_number      14
_space_group_name_Hall           '-P 2yn'
loop_
_symmetry_equiv_pos_site_id
_symmetry_equiv_pos_as_xyz
1 x,y,z
2 1/2-x,1/2+y,1/2-z
3 -x,-y,-z
4 1/2+x,1/2-y,1/2+z
_cell_length_a                   18.8128(19)
_cell_length_b                   15.9299(16)
_cell_length_c                   20.238(2)
_cell_angle_alpha                90
_cell_angle_beta                 109.608(2)
_cell_angle_gamma                90
_cell_volume                     5713.34
_exptl_crystal_colour            colorless
_exptl_crystal_description       prismatic
_cell_formula_units_Z            8
loop_
_atom_site_label
_atom_site_type_symbol
_atom_site_fract_x
_atom_site_fract_y
_atom_site_fract_z
S1 S 0.56113(4) 0.21334(5) 0.62055(4)
N1 N 0.86305(13) 0.16256(16) 0.84209(12)
N2 N 0.64076(11) 0.20236(14) 0.68337(12)
O1 O 0.52663(11) 0.13307(12) 0.60758(12)
O2 O 0.57647(10) 0.25705(12) 0.56530(10)
O3 O 0.83930(12) -0.00835(13) 0.73416(14)
O4 O 0.87927(13) 0.03994(13) 0.64975(13)
O5 O 0.91786(10) 0.25529(13) 0.69967(11)
O6 O 0.96807(10) 0.14565(12) 0.76680(11)
C1 C 0.81712(15) 0.29381(19) 0.80964(14)
C2 C 0.81979(18) 0.3800(2) 0.80921(17)
H1 H 0.7808 0.4109 0.7783
C3 C 0.8828(2) 0.4204(2) 0.8566(2)
H2 H 0.8864 0.4787 0.8567
C4 C 0.9388(2) 0.3738(3) 0.9026(2)
H3 H 0.9798 0.4014 0.9341
C5 C 0.93664(19) 0.2877(3) 0.90402(17)
H4 H 0.9744 0.2571 0.9368
C6 C 0.87635(17) 0.2478(2) 0.85506(14)
C7 C 0.80559(14) 0.15256(16) 0.77345(14)
H5 H 0.7748 0.1035 0.7749
C8 C 0.83715(14) 0.14093(15) 0.71124(14)
C9 C 0.77797(15) 0.16884(17) 0.64116(13)
H6 H 0.8012 0.1680 0.6050
H7 H 0.7371 0.1284 0.6281
C10 C 0.74515(15) 0.25572(18) 0.64290(14)
H8 H 0.7853 0.2971 0.6540
H9 H 0.7094 0.2690 0.5970
C11 C 0.70653(14) 0.26011(17) 0.69608(14)
H10 H 0.6897 0.3179 0.6984
C12 C 0.75723(14) 0.23291(16) 0.76957(13)
C13 C 0.69858(16) 0.2142(2) 0.80537(16)
H11 H 0.7202 0.1798 0.8468
H12 H 0.6793 0.2657 0.8186
C14 C 0.63731(16) 0.1676(2) 0.74996(15)
H13 H 0.6470 0.1076 0.7528
H14 H 0.5884 0.1778 0.7546
C15 C 0.91080(17) 0.0965(2) 0.88253(16)
H15 H 0.9604 0.1197 0.9069
H16 H 0.9166 0.0539 0.8504
C16 C 0.88223(15) 0.05498(19) 0.93546(15)
C17 C 0.8415(2) 0.0963(2) 0.97078(18)
H17 H 0.8297 0.1526 0.9609
C18 C 0.8175(2) 0.0567(3) 1.02050(19)
H18 H 0.7899 0.0865 1.0433
C19 C 0.8342(2) -0.0258(2) 1.03612(18)
H19 H 0.8174 -0.0529 1.0689
C20 C 0.8749(3) -0.0673(2) 1.0037(2)
H20 H 0.8874 -0.1232 1.0148
C21 C 0.8983(2) -0.0276(2) 0.9541(2)
H21 H 0.9263 -0.0581 0.9322
C22 C 0.85245(15) 0.04924(19) 0.70203(18)
C23 C 0.8879(3) -0.0448(2) 0.6281(2)
H22 H 0.9312 -0.0702 0.6619
H23 H 0.8947 -0.0436 0.5831
H24 H 0.8436 -0.0768 0.6248
C24 C 0.91092(14) 0.18912(18) 0.72402(14)
C25 C 1.04188(16) 0.1822(2) 0.78464(19)
H25 H 1.0554 0.1874 0.7431
H26 H 1.0778 0.1470 0.8180
H27 H 1.0417 0.2368 0.8048
C26 C 0.50282(14) 0.27675(16) 0.65192(14)
C27 C 0.43897(15) 0.24577(17) 0.66061(14)
H28 H 0.4260 0.1897 0.6506
C28 C 0.39362(16) 0.29704(19) 0.68407(15)
H29 H 0.3503 0.2747 0.6897
C29 C 0.41054(16) 0.38059(19) 0.69951(15)
C30 C 0.47604(18) 0.4103(2) 0.69239(19)
H30 H 0.4895 0.4660 0.7037
C31 C 0.52211(17) 0.36079(19) 0.66935(19)
H31 H 0.5662 0.3828 0.6652
C32 C 0.35973(19) 0.4361(2) 0.72370(19)
H32 H 0.3269 0.4668 0.6845
H33 H 0.3897 0.4748 0.7583
H34 H 0.3300 0.4023 0.7439
S2 S 0.27172(4) 0.23385(5) -0.14595(4)
N3 N 0.57866(12) 0.17596(14) 0.07378(11)
N4 N 0.35238(11) 0.20748(12) -0.08882(11)
O7 O 0.22375(10) 0.16262(12) -0.15383(11)
O8 O 0.28630(10) 0.26715(13) -0.20573(9)
O9 O 0.56941(13) 0.01294(12) -0.04074(12)
O10 O 0.62520(11) 0.07490(11) -0.10813(11)
O11 O 0.61990(11) 0.28654(12) -0.08116(12)
O12 O 0.68436(11) 0.20474(12) 0.00519(11)
C33 C 0.52261(14) 0.30351(16) 0.04515(13)
C34 C 0.51659(17) 0.38840(19) 0.05075(16)
H35 H 0.4751 0.4171 0.0210
C35 C 0.5738(2) 0.4314(2) 0.10196(18)
H36 H 0.5711 0.4894 0.1056
C36 C 0.63341(19) 0.3888(2) 0.14659(18)
H37 H 0.6708 0.4183 0.1806
C37 C 0.63977(17) 0.3029(2) 0.14260(15)
H38 H 0.6800 0.2742 0.1741
C38 C 0.58432(15) 0.26051(18) 0.09017(13)
C39 C 0.52356(14) 0.16471(15) 0.00383(13)
H39 H 0.4966 0.1118 0.0028
C40 C 0.55804(13) 0.16361(14) -0.05709(13)
C41 C 0.49517(14) 0.18275(17) -0.12681(13)
H40 H 0.5168 0.1837 -0.1641
H41 H 0.4583 0.1378 -0.1369
C42 C 0.45522(15) 0.26561(17) -0.12687(14)
H42 H 0.4915 0.3111 -0.1179
H43 H 0.4177 0.2747 -0.1727
C43 C 0.41778(13) 0.26634(15) -0.07243(13)
H44 H 0.3997 0.3234 -0.0691
C44 C 0.46874(13) 0.23869(14) 0.00069(12)
C45 C 0.41004(14) 0.21144(17) 0.03390(14)
H45 H 0.4326 0.1745 0.0736
H46 H 0.3889 0.2599 0.0497
C46 C 0.35049(15) 0.16617(17) -0.02349(15)
H47 H 0.3622 0.1069 -0.0235
H48 H 0.3013 0.1725 -0.0183
C47 C 0.63238(17) 0.11304(19) 0.11146(15)
H49 H 0.6817 0.1390 0.1305
H50 H 0.6356 0.0702 0.0785
C48 C 0.61354(15) 0.07130(16) 0.17068(13)
C49 C 0.56417(18) 0.1047(2) 0.20022(15)
H51 H 0.5410 0.1557 0.1835
C50 C 0.5477(2) 0.0650(2) 0.25397(16)
H52 H 0.5141 0.0892 0.2732
C51 C 0.5813(2) -0.0099(2) 0.27871(19)
H53 H 0.5698 -0.0375 0.3143
C52 C 0.6320(2) -0.0446(2) 0.25103(19)
H54 H 0.6556 -0.0952 0.2685
C53 C 0.64805(17) -0.00408(17) 0.19686(15)
H55 H 0.6822 -0.0278 0.1781
C54 C 0.58546(15) 0.07525(17) -0.06539(15)
C55 C 0.6492(2) -0.00723(17) -0.12492(19)
H56 H 0.6747 -0.0370 -0.0823
H57 H 0.6829 0.0000 -0.1511
H58 H 0.6059 -0.0387 -0.1524
C56 C 0.62242(15) 0.22528(16) -0.04673(14)
C57 C 0.74433(18) 0.2673(2) 0.0209(2)
H59 H 0.7575 0.2775 -0.0203
H60 H 0.7877 0.2469 0.0579
H61 H 0.7272 0.3185 0.0355
C58 C 0.23565(13) 0.31478(17) -0.10810(14)
C59 C 0.25777(16) 0.39742(18) -0.11228(16)
H62 H 0.2896 0.4103 -0.1374
C60 C 0.23257(18) 0.4595(2) -0.07936(18)
H63 H 0.2483 0.5144 -0.0819
C61 C 0.18427(18) 0.4431(2) -0.04222(17)
C62 C 0.16277(16) 0.3617(2) -0.03895(16)
H64 H 0.1303 0.3494 -0.0143
C63 C 0.18773(15) 0.29759(19) -0.07104(15)
H65 H 0.1723 0.2427 -0.0678
C64 C 0.1558(2) 0.5131(2) -0.0073(2)
H66 H 0.1377 0.5584 -0.0400
H67 H 0.1961 0.5329 0.0328
H68 H 0.1154 0.4926 0.0073
loop_
_geom_bond_atom_site_label_1
_geom_bond_atom_site_label_2
_geom_bond_site_symmetry_1
_geom_bond_site_symmetry_2
S1 N2 1_555 1_555
N1 C6 1_555 1_555
N2 C11 1_555 1_555
O1 S1 1_555 1_555
O2 S1 1_555 1_555
O3 C22 1_555 1_555
O4 C22 1_555 1_555
O5 C24 1_555 1_555
O6 C24 1_555 1_555
C1 C2 1_555 1_555
C2 H1 1_555 1_555
C3 C2 1_555 1_555
H2 C3 1_555 1_555
C4 C3 1_555 1_555
H3 C4 1_555 1_555
C5 C4 1_555 1_555
H4 C5 1_555 1_555
C6 C1 1_555 1_555
C7 N1 1_555 1_555
H5 C7 1_555 1_555
C8 C7 1_555 1_555
C9 C8 1_555 1_555
H6 C9 1_555 1_555
H7 C9 1_555 1_555
C10 C9 1_555 1_555
H8 C10 1_555 1_555
H9 C10 1_555 1_555
C11 C10 1_555 1_555
H10 C11 1_555 1_555
C12 C1 1_555 1_555
C13 C12 1_555 1_555
H11 C13 1_555 1_555
H12 C13 1_555 1_555
C14 N2 1_555 1_555
H13 C14 1_555 1_555
H14 C14 1_555 1_555
C15 N1 1_555 1_555
H15 C15 1_555 1_555
H16 C15 1_555 1_555
C16 C15 1_555 1_555
C17 C16 1_555 1_555
H17 C17 1_555 1_555
C18 C17 1_555 1_555
H18 C18 1_555 1_555
C19 C18 1_555 1_555
H19 C19 1_555 1_555
C20 C19 1_555 1_555
H20 C20 1_555 1_555
C21 C16 1_555 1_555
H21 C21 1_555 1_555
C22 C8 1_555 1_555
C23 O4 1_555 1_555
H22 C23 1_555 1_555
H23 C23 1_555 1_555
H24 C23 1_555 1_555
C24 C8 1_555 1_555
C25 O6 1_555 1_555
H25 C25 1_555 1_555
H26 C25 1_555 1_555
H27 C25 1_555 1_555
C26 S1 1_555 1_555
C27 C26 1_555 1_555
H28 C27 1_555 1_555
C28 C27 1_555 1_555
H29 C28 1_555 1_555
C29 C28 1_555 1_555
C30 C29 1_555 1_555
H30 C30 1_555 1_555
C31 C26 1_555 1_555
H31 C31 1_555 1_555
C32 C29 1_555 1_555
H32 C32 1_555 1_555
H33 C32 1_555 1_555
H34 C32 1_555 1_555
S2 N4 1_555 1_555
N3 C38 1_555 1_555
N4 C43 1_555 1_555
O7 S2 1_555 1_555
O8 S2 1_555 1_555
O9 C54 1_555 1_555
O10 C54 1_555 1_555
O11 C56 1_555 1_555
O12 C56 1_555 1_555
C33 C34 1_555 1_555
C34 H35 1_555 1_555
C35 C34 1_555 1_555
H36 C35 1_555 1_555
C36 C35 1_555 1_555
H37 C36 1_555 1_555
C37 C36 1_555 1_555
H38 C37 1_555 1_555
C38 C33 1_555 1_555
C39 N3 1_555 1_555
H39 C39 1_555 1_555
C40 C39 1_555 1_555
C41 C40 1_555 1_555
H40 C41 1_555 1_555
H41 C41 1_555 1_555
C42 C41 1_555 1_555
H42 C42 1_555 1_555
H43 C42 1_555 1_555
C43 C42 1_555 1_555
H44 C43 1_555 1_555
C44 C33 1_555 1_555
C45 C44 1_555 1_555
H45 C45 1_555 1_555
H46 C45 1_555 1_555
C46 N4 1_555 1_555
H47 C46 1_555 1_555
H48 C46 1_555 1_555
C47 N3 1_555 1_555
H49 C47 1_555 1_555
H50 C47 1_555 1_555
C48 C47 1_555 1_555
C49 C48 1_555 1_555
H51 C49 1_555 1_555
C50 C49 1_555 1_555
H52 C50 1_555 1_555
C51 C50 1_555 1_555
H53 C51 1_555 1_555
C52 C51 1_555 1_555
H54 C52 1_555 1_555
C53 C48 1_555 1_555
H55 C53 1_555 1_555
C54 C40 1_555 1_555
C55 O10 1_555 1_555
H56 C55 1_555 1_555
H57 C55 1_555 1_555
H58 C55 1_555 1_555
C56 C40 1_555 1_555
C57 O12 1_555 1_555
H59 C57 1_555 1_555
H60 C57 1_555 1_555
H61 C57 1_555 1_555
C58 S2 1_555 1_555
C59 C58 1_555 1_555
H62 C59 1_555 1_555
C60 C59 1_555 1_555
H63 C60 1_555 1_555
C61 C60 1_555 1_555
C62 C61 1_555 1_555
H64 C62 1_555 1_555
C63 C58 1_555 1_555
H65 C63 1_555 1_555
C64 C61 1_555 1_555
H66 C64 1_555 1_555
H67 C64 1_555 1_555
H68 C64 1_555 1_555
C5 C6 1_555 1_555
C7 C12 1_555 1_555
C11 C12 1_555 1_555
C13 C14 1_555 1_555
C20 C21 1_555 1_555
C30 C31 1_555 1_555
C37 C38 1_555 1_555
C39 C44 1_555 1_555
C43 C44 1_555 1_555
C45 C46 1_555 1_555
C52 C53 1_555 1_555
C62 C63 1_555 1_555

#END
