
#######################################################################
#
#                 Cambridge Crystallographic Data Centre
#                                CCDC 
#
#######################################################################
#
# If this CIF has been generated from an entry in the Cambridge 
# Structural Database, then it will include bibliographic, chemical, 
# crystal, experimental, refinement or atomic coordinate data resulting 
# from the CCDC's data processing and validation procedures.
#
#######################################################################

data_NOYFEO
_chemical_formula_moiety         'C26 H30 N2 O6 S1'
_chemical_name_systematic        
'Dimethyl 7-methyl-3-((4-methylphenyl)sulfonyl)-1,2,3,3a,4,5,6a,7-octahydro-6H-pyrrolo[2,3-d]carbazole-6,6-dicarboxylate'
_symmetry_cell_setting           monoclinic
_symmetry_space_group_name_H-M   'P 21/n'
_symmetry_Int_Tables_number      14
_space_group_name_Hall           '-P 2yn'
loop_
_symmetry_equiv_pos_site_id
_symmetry_equiv_pos_as_xyz
1 x,y,z
2 1/2-x,1/2+y,1/2-z
3 -x,-y,-z
4 1/2+x,1/2-y,1/2+z
_cell_length_a                   13.8421(12)
_cell_length_b                   6.4047(6)
_cell_length_c                   28.592(3)
_cell_angle_alpha                90
_cell_angle_beta                 99.541(2)
_cell_angle_gamma                90
_cell_volume                     2499.75
_exptl_crystal_colour            colorless
_exptl_crystal_description       prismatic
_cell_formula_units_Z            4
loop_
_atom_site_label
_atom_site_type_symbol
_atom_site_fract_x
_atom_site_fract_y
_atom_site_fract_z
S1 S 0.72249(4) 0.82945(11) 0.55833(3)
N1 N 0.83176(13) 0.7255(3) 0.56483(7)
N2 N 1.12592(12) 0.4399(3) 0.64605(6)
O1 O 0.69020(13) 0.8488(3) 0.50860(8)
O2 O 0.72944(14) 1.0088(3) 0.58807(9)
O3 O 0.87325(14) 0.5952(3) 0.73957(8)
O4 O 0.87271(11) 0.3123(2) 0.69541(6)
O5 O 1.13923(14) 0.6310(3) 0.75610(7)
O6 O 1.08240(12) 0.3059(3) 0.74652(6)
C1 C 0.84698(18) 0.5472(4) 0.53318(9)
H1 H 0.8750 0.5952 0.5062
H2 H 0.7855 0.4769 0.5218
C2 C 0.91732(16) 0.4028(3) 0.56415(8)
H3 H 0.9640 0.3418 0.5463
H4 H 0.8822 0.2915 0.5771
C3 C 0.96896(14) 0.5449(3) 0.60363(7)
C4 C 0.88315(15) 0.6785(3) 0.61345(8)
H5 H 0.8402 0.5913 0.6293
C5 C 0.91713(18) 0.8606(3) 0.64524(9)
H6 H 0.8626 0.9147 0.6590
H7 H 0.9404 0.9712 0.6267
C6 C 0.99970(18) 0.7934(3) 0.68494(8)
H8 H 0.9921 0.8660 0.7139
H9 H 1.0620 0.8354 0.6766
C7 C 1.00186(14) 0.5569(3) 0.69437(7)
C8 C 1.02108(14) 0.4364(3) 0.64908(7)
H10 H 0.9983 0.2918 0.6501
C9 C 1.14087(15) 0.5789(3) 0.61033(7)
C10 C 1.05269(15) 0.6623(3) 0.58748(7)
C11 C 1.05432(18) 0.8191(4) 0.55415(8)
H11 H 0.9962 0.8801 0.5394
C12 C 1.14318(19) 0.8839(4) 0.54308(9)
H12 H 1.1446 0.9905 0.5211
C13 C 1.22909(18) 0.7928(4) 0.56410(8)
H13 H 1.2880 0.8352 0.5555
C14 C 1.22933(16) 0.6387(4) 0.59791(8)
H14 H 1.2876 0.5765 0.6120
C15 C 1.18124(18) 0.2467(4) 0.65246(9)
H15 H 1.1628 0.1589 0.6252
H16 H 1.1675 0.1762 0.6803
H17 H 1.2500 0.2772 0.6561
C16 C 0.90854(16) 0.4923(4) 0.71227(8)
C17 C 0.7877(2) 0.2349(5) 0.71351(12)
H18 H 0.8080 0.1745 0.7443
H19 H 0.7554 0.1307 0.6923
H20 H 0.7433 0.3481 0.7159
C18 C 1.08353(16) 0.5073(4) 0.73548(8)
C19 C 1.1535(2) 0.2370(5) 0.78639(11)
H21 H 1.2183 0.2678 0.7805
H22 H 1.1470 0.0893 0.7906
H23 H 1.1424 0.3084 0.8145
C20 C 0.64509(17) 0.6493(4) 0.58028(10)
C21 C 0.5993(2) 0.4950(5) 0.55107(11)
H24 H 0.6072 0.4893 0.5194
C22 C 0.5418(2) 0.3489(5) 0.56893(15)
H25 H 0.5120 0.2438 0.5492
C23 C 0.5278(2) 0.3561(7) 0.61545(16)
C24 C 0.5727(3) 0.5109(8) 0.64363(14)
H26 H 0.5638 0.5172 0.6751
C25 C 0.6313(2) 0.6590(6) 0.62692(13)
H27 H 0.6609 0.7636 0.6469
C26 C 0.4670(3) 0.1906(7) 0.6346(2)
H28 H 0.5060 0.0675 0.6423
H29 H 0.4112 0.1572 0.6111
H30 H 0.4452 0.2419 0.6627
loop_
_geom_bond_atom_site_label_1
_geom_bond_atom_site_label_2
_geom_bond_site_symmetry_1
_geom_bond_site_symmetry_2
S1 N1 1_555 1_555
N1 C1 1_555 1_555
N2 C8 1_555 1_555
O1 S1 1_555 1_555
O2 S1 1_555 1_555
O3 C16 1_555 1_555
O4 C16 1_555 1_555
O5 C18 1_555 1_555
O6 C18 1_555 1_555
C1 H1 1_555 1_555
H2 C1 1_555 1_555
C2 C1 1_555 1_555
H3 C2 1_555 1_555
H4 C2 1_555 1_555
C3 C2 1_555 1_555
C4 N1 1_555 1_555
H5 C4 1_555 1_555
C5 C4 1_555 1_555
H6 C5 1_555 1_555
H7 C5 1_555 1_555
C6 C5 1_555 1_555
H8 C6 1_555 1_555
H9 C6 1_555 1_555
C7 C6 1_555 1_555
C8 C3 1_555 1_555
H10 C8 1_555 1_555
C9 N2 1_555 1_555
C10 C3 1_555 1_555
C11 C10 1_555 1_555
H11 C11 1_555 1_555
C12 C11 1_555 1_555
H12 C12 1_555 1_555
C13 C12 1_555 1_555
H13 C13 1_555 1_555
C14 C9 1_555 1_555
H14 C14 1_555 1_555
C15 N2 1_555 1_555
H15 C15 1_555 1_555
H16 C15 1_555 1_555
H17 C15 1_555 1_555
C16 C7 1_555 1_555
C17 O4 1_555 1_555
H18 C17 1_555 1_555
H19 C17 1_555 1_555
H20 C17 1_555 1_555
C18 C7 1_555 1_555
C19 O6 1_555 1_555
H21 C19 1_555 1_555
H22 C19 1_555 1_555
H23 C19 1_555 1_555
C20 S1 1_555 1_555
C21 C20 1_555 1_555
H24 C21 1_555 1_555
C22 C21 1_555 1_555
H25 C22 1_555 1_555
C23 C22 1_555 1_555
C24 C23 1_555 1_555
H26 C24 1_555 1_555
C25 C20 1_555 1_555
H27 C25 1_555 1_555
C26 C23 1_555 1_555
H28 C26 1_555 1_555
H29 C26 1_555 1_555
H30 C26 1_555 1_555
C3 C4 1_555 1_555
C7 C8 1_555 1_555
C9 C10 1_555 1_555
C13 C14 1_555 1_555
C24 C25 1_555 1_555

#END
