
#######################################################################
#
#                 Cambridge Crystallographic Data Centre
#                                CCDC 
#
#######################################################################
#
# If this CIF has been generated from an entry in the Cambridge 
# Structural Database, then it will include bibliographic, chemical, 
# crystal, experimental, refinement or atomic coordinate data resulting 
# from the CCDC's data processing and validation procedures.
#
#######################################################################

data_NOYGAL
_chemical_formula_moiety         'C30 H32 N2 O4 S1'
_chemical_name_systematic        
'Methyl 7-benzyl-3-((4-methylphenyl)sulfonyl)-2,3,3a,4,5,6,6a,7-octahydro-1H-pyrrolo[2,3-d]carbazole-6-carboxylate'
_symmetry_cell_setting           monoclinic
_symmetry_space_group_name_H-M   'C 2/c'
_symmetry_Int_Tables_number      15
_space_group_name_Hall           '-C 2yn'
loop_
_symmetry_equiv_pos_site_id
_symmetry_equiv_pos_as_xyz
1 x,y,z
2 -x,y,1/2-z
3 1/2+x,1/2+y,z
4 1/2-x,1/2+y,1/2-z
5 -x,-y,-z
6 x,-y,1/2+z
7 1/2-x,1/2-y,-z
8 1/2+x,1/2-y,1/2+z
_cell_length_a                   18.943(3)
_cell_length_b                   9.0748(14)
_cell_length_c                   30.496(5)
_cell_angle_alpha                90
_cell_angle_beta                 91.549(4)
_cell_angle_gamma                90
_cell_volume                     5240.47
_exptl_crystal_colour            colorless
_exptl_crystal_description       prismatic
_cell_formula_units_Z            8
loop_
_atom_site_label
_atom_site_type_symbol
_atom_site_fract_x
_atom_site_fract_y
_atom_site_fract_z
S1 S 0.15997(5) 0.77612(10) 0.22182(3)
N1 N 0.32510(14) 0.8792(3) 0.05186(8)
N2 N 0.19233(15) 0.8240(3) 0.17499(8)
O1 O 0.47147(16) 0.5643(3) 0.07400(9)
O2 O 0.37051(13) 0.5075(2) 0.03937(8)
O3 O 0.10994(14) 0.8877(3) 0.23211(8)
O4 O 0.21842(13) 0.7483(3) 0.25100(7)
C1 C 0.34074(18) 0.9897(3) 0.08258(10)
C2 C 0.38643(18) 1.1060(3) 0.08004(11)
H1 H 0.4128 1.1207 0.0551
C3 C 0.39243(19) 1.2010(4) 0.11519(11)
H2 H 0.4232 1.2806 0.1138
C4 C 0.3539(2) 1.1804(4) 0.15233(11)
H3 H 0.3585 1.2462 0.1756
C5 C 0.30836(19) 1.0621(3) 0.15510(10)
H4 H 0.2820 1.0487 0.1801
C6 C 0.30214(18) 0.9638(3) 0.12071(10)
C7 C 0.25706(17) 0.8269(3) 0.11228(10)
C8 C 0.30165(18) 0.7512(3) 0.07763(10)
H5 H 0.2730 0.6835 0.0595
C9 C 0.36474(17) 0.6708(3) 0.09999(10)
H6 H 0.3964 0.7481 0.1113
C10 C 0.34433(18) 0.5778(3) 0.14001(10)
H7 H 0.3136 0.4979 0.1303
H8 H 0.3866 0.5347 0.1533
C11 C 0.30722(18) 0.6683(4) 0.17386(10)
H9 H 0.2950 0.6075 0.1987
H10 H 0.3373 0.7482 0.1843
C12 C 0.24171(17) 0.7279(3) 0.15132(10)
H11 H 0.2145 0.6434 0.1401
C13 C 0.1449(2) 0.8970(4) 0.14208(11)
H12 H 0.1401 1.0012 0.1485
H13 H 0.0984 0.8520 0.1415
C14 C 0.18173(19) 0.8735(4) 0.09818(11)
H14 H 0.1584 0.7970 0.0810
H15 H 0.1823 0.9638 0.0812
C15 C 0.37110(19) 0.8589(4) 0.01496(10)
H16 H 0.3617 0.7632 0.0019
H17 H 0.4198 0.8593 0.0257
C16 C 0.36238(19) 0.9748(4) -0.01989(10)
C17 C 0.4150(2) 0.9935(5) -0.04989(12)
H18 H 0.4563 0.9388 -0.0470
C18 C 0.4071(3) 1.0915(6) -0.08382(15)
H19 H 0.4436 1.1041 -0.1033
C19 C 0.3459(3) 1.1713(5) -0.08936(15)
H20 H 0.3405 1.2364 -0.1127
C20 C 0.2932(3) 1.1541(4) -0.06025(14)
H21 H 0.2516 1.2078 -0.0636
C21 C 0.3018(2) 1.0565(4) -0.02568(11)
H22 H 0.2657 1.0460 -0.0059
C22 C 0.4083(2) 0.5774(4) 0.06961(12)
C23 C 0.4074(2) 0.4186(4) 0.00791(14)
H23 H 0.4303 0.4818 -0.0126
H24 H 0.3742 0.3563 -0.0076
H25 H 0.4421 0.3588 0.0230
C24 C 0.11538(19) 0.6080(4) 0.21381(10)
C25 C 0.0451(2) 0.6056(4) 0.19994(11)
H26 H 0.0204 0.6932 0.1955
C26 C 0.0122(2) 0.4717(5) 0.19287(12)
H27 H -0.0350 0.4701 0.1835
C27 C 0.0476(2) 0.3391(4) 0.19941(11)
C28 C 0.1172(2) 0.3448(4) 0.21338(11)
H28 H 0.1420 0.2574 0.2181
C29 C 0.15074(19) 0.4764(4) 0.22051(11)
H29 H 0.1978 0.4774 0.2300
C30 C 0.0111(2) 0.1955(4) 0.19088(13)
H30 H 0.0138 0.1710 0.1604
H31 H -0.0376 0.2037 0.1986
H32 H 0.0335 0.1197 0.2082
loop_
_geom_bond_atom_site_label_1
_geom_bond_atom_site_label_2
_geom_bond_site_symmetry_1
_geom_bond_site_symmetry_2
S1 N2 1_555 1_555
N1 C1 1_555 1_555
N2 C12 1_555 1_555
O1 C22 1_555 1_555
O2 C22 1_555 1_555
O3 S1 1_555 1_555
O4 S1 1_555 1_555
C1 C2 1_555 1_555
C2 H1 1_555 1_555
C3 C2 1_555 1_555
H2 C3 1_555 1_555
C4 C3 1_555 1_555
H3 C4 1_555 1_555
C5 C4 1_555 1_555
H4 C5 1_555 1_555
C6 C1 1_555 1_555
C7 C6 1_555 1_555
C8 N1 1_555 1_555
H5 C8 1_555 1_555
C9 C8 1_555 1_555
H6 C9 1_555 1_555
C10 C9 1_555 1_555
H7 C10 1_555 1_555
H8 C10 1_555 1_555
C11 C10 1_555 1_555
H9 C11 1_555 1_555
H10 C11 1_555 1_555
C12 C7 1_555 1_555
H11 C12 1_555 1_555
C13 N2 1_555 1_555
H12 C13 1_555 1_555
H13 C13 1_555 1_555
C14 C7 1_555 1_555
H14 C14 1_555 1_555
H15 C14 1_555 1_555
C15 N1 1_555 1_555
H16 C15 1_555 1_555
H17 C15 1_555 1_555
C16 C15 1_555 1_555
C17 C16 1_555 1_555
H18 C17 1_555 1_555
C18 C17 1_555 1_555
H19 C18 1_555 1_555
C19 C18 1_555 1_555
H20 C19 1_555 1_555
C20 C19 1_555 1_555
H21 C20 1_555 1_555
C21 C16 1_555 1_555
H22 C21 1_555 1_555
C22 C9 1_555 1_555
C23 O2 1_555 1_555
H23 C23 1_555 1_555
H24 C23 1_555 1_555
H25 C23 1_555 1_555
C24 S1 1_555 1_555
C25 C24 1_555 1_555
H26 C25 1_555 1_555
C26 C25 1_555 1_555
H27 C26 1_555 1_555
C27 C26 1_555 1_555
C28 C27 1_555 1_555
H28 C28 1_555 1_555
C29 C24 1_555 1_555
H29 C29 1_555 1_555
C30 C27 1_555 1_555
H30 C30 1_555 1_555
H31 C30 1_555 1_555
H32 C30 1_555 1_555
C5 C6 1_555 1_555
C7 C8 1_555 1_555
C11 C12 1_555 1_555
C13 C14 1_555 1_555
C20 C21 1_555 1_555
C28 C29 1_555 1_555

#END
