
#######################################################################
#
#                 Cambridge Crystallographic Data Centre
#                                CCDC 
#
#######################################################################
#
# If this CIF has been generated from an entry in the Cambridge 
# Structural Database, then it will include bibliographic, chemical, 
# crystal, experimental, refinement or atomic coordinate data resulting 
# from the CCDC's data processing and validation procedures.
#
#######################################################################

data_NOZCUC
_chemical_formula_moiety         'C33 H26 N2 O3'
_chemical_name_systematic        
1,3-Dimethyl-5-(4-(1,2,2-triphenylvinyl)benzylidene)pyrimidine-2,4,6(1H,3H,5H)-trione
_symmetry_cell_setting           monoclinic
_symmetry_space_group_name_H-M   'P 21/c'
_symmetry_Int_Tables_number      14
_space_group_name_Hall           '-P 2ybc'
loop_
_symmetry_equiv_pos_site_id
_symmetry_equiv_pos_as_xyz
1 x,y,z
2 -x,1/2+y,1/2-z
3 -x,-y,-z
4 x,1/2-y,1/2+z
_cell_length_a                   22.694(4)
_cell_length_b                   6.0396(11)
_cell_length_c                   19.225(5)
_cell_angle_alpha                90
_cell_angle_beta                 104.465(3)
_cell_angle_gamma                90
_cell_volume                     2551.5
_exptl_crystal_colour            yellow
_exptl_crystal_description       rod
_cell_formula_units_Z            4
_exptl_crystal_recrystallization_method ethanol
_exptl_crystal_preparation       Luminescent
loop_
_atom_site_label
_atom_site_type_symbol
_atom_site_fract_x
_atom_site_fract_y
_atom_site_fract_z
O1 O 0.64140(7) 0.2382(3) 0.32588(8)
O2 O 0.48287(7) 0.2547(3) 0.44516(9)
O3 O 0.50233(7) -0.3058(3) 0.29673(8)
N1 N 0.49234(7) -0.0235(3) 0.37061(9)
N2 N 0.57722(7) -0.0481(3) 0.32070(8)
C1 C 0.59991(9) 0.1562(3) 0.34697(10)
C2 C 0.57134(9) 0.2604(3) 0.39955(10)
C3 C 0.51256(9) 0.1693(4) 0.40763(11)
C4 C 0.52265(9) -0.1360(3) 0.32719(10)
C5 C 0.60763(10) -0.1642(4) 0.27231(12)
H1 H 0.5902 -0.1156 0.2228
H2 H 0.6017 -0.3241 0.2758
H3 H 0.6512 -0.1303 0.2860
C6 C 0.43444(11) -0.1194(4) 0.37683(14)
H4 H 0.4423 -0.2324 0.4146
H5 H 0.4135 -0.1871 0.3310
H6 H 0.4088 -0.0026 0.3891
C7 C 0.59204(9) 0.4401(3) 0.44080(10)
H7 H 0.5644 0.4875 0.4675
C8 C 0.64662(9) 0.5785(3) 0.45412(10)
C9 C 0.70239(9) 0.5264(3) 0.43879(11)
H8 H 0.7069 0.3885 0.4169
C10 C 0.75053(9) 0.6719(4) 0.45492(10)
H9 H 0.7873 0.6327 0.4429
C11 C 0.74714(9) 0.8755(3) 0.48840(9)
C12 C 0.69159(8) 0.9287(3) 0.50302(10)
H10 H 0.6870 1.0679 0.5241
C13 C 0.64315(9) 0.7826(3) 0.48745(10)
H11 H 0.6065 0.8218 0.4997
C14 C 0.80282(9) 1.0184(3) 0.50772(10)
C15 C 0.83931(9) 1.0263(3) 0.45277(10)
C16 C 0.81435(9) 1.1008(4) 0.38355(10)
H12 H 0.7730 1.1465 0.3701
C17 C 0.84915(10) 1.1095(4) 0.33372(11)
H13 H 0.8319 1.1652 0.2868
C18 C 0.90855(10) 1.0377(4) 0.35193(11)
H14 H 0.9321 1.0412 0.3174
C19 C 0.93389(10) 0.9602(4) 0.42055(12)
H15 H 0.9749 0.9101 0.4333
C20 C 0.89948(9) 0.9560(4) 0.47061(11)
H16 H 0.9173 0.9043 0.5179
C21 C 0.82216(9) 1.1153(3) 0.57297(10)
C22 C 0.87995(9) 1.2443(3) 0.59687(10)
C23 C 0.90079(10) 1.3957(4) 0.55348(11)
H17 H 0.8763 1.4280 0.5068
C24 C 0.95659(10) 1.4994(4) 0.57758(13)
H18 H 0.9702 1.6000 0.5470
C25 C 0.99276(10) 1.4581(4) 0.64580(12)
H19 H 1.0312 1.5284 0.6619
C26 C 0.97228(10) 1.3139(4) 0.68984(11)
H20 H 0.9965 1.2858 0.7370
C27 C 0.91674(9) 1.2097(4) 0.66604(10)
H21 H 0.9032 1.1119 0.6975
C28 C 0.78826(9) 1.0841(3) 0.62992(10)
C29 C 0.75320(9) 1.2551(4) 0.64680(11)
H22 H 0.7509 1.3925 0.6223
C30 C 0.72160(10) 1.2262(4) 0.69918(12)
H23 H 0.6969 1.3424 0.7095
C31 C 0.72600(11) 1.0289(4) 0.73638(12)
H24 H 0.7047 1.0100 0.7726
C32 C 0.76132(11) 0.8599(4) 0.72094(12)
H25 H 0.7646 0.7246 0.7468
C33 C 0.79215(10) 0.8866(4) 0.66752(11)
H26 H 0.8161 0.7687 0.6567
loop_
_geom_bond_atom_site_label_1
_geom_bond_atom_site_label_2
_geom_bond_site_symmetry_1
_geom_bond_site_symmetry_2
O1 C1 1_555 1_555
O2 C3 1_555 1_555
O3 C4 1_555 1_555
N1 C3 1_555 1_555
N2 C1 1_555 1_555
C1 C2 1_555 1_555
C2 C3 1_555 1_555
C4 N1 1_555 1_555
C5 N2 1_555 1_555
H1 C5 1_555 1_555
H2 C5 1_555 1_555
H3 C5 1_555 1_555
C6 N1 1_555 1_555
H4 C6 1_555 1_555
H5 C6 1_555 1_555
H6 C6 1_555 1_555
C7 C2 1_555 1_555
H7 C7 1_555 1_555
C8 C7 1_555 1_555
C9 C8 1_555 1_555
H8 C9 1_555 1_555
C10 C9 1_555 1_555
H9 C10 1_555 1_555
C11 C10 1_555 1_555
C12 C11 1_555 1_555
H10 C12 1_555 1_555
C13 C8 1_555 1_555
H11 C13 1_555 1_555
C14 C11 1_555 1_555
C15 C14 1_555 1_555
C16 C15 1_555 1_555
H12 C16 1_555 1_555
C17 C16 1_555 1_555
H13 C17 1_555 1_555
C18 C17 1_555 1_555
H14 C18 1_555 1_555
C19 C18 1_555 1_555
H15 C19 1_555 1_555
C20 C15 1_555 1_555
H16 C20 1_555 1_555
C21 C14 1_555 1_555
C22 C21 1_555 1_555
C23 C22 1_555 1_555
H17 C23 1_555 1_555
C24 C23 1_555 1_555
H18 C24 1_555 1_555
C25 C24 1_555 1_555
H19 C25 1_555 1_555
C26 C25 1_555 1_555
H20 C26 1_555 1_555
C27 C22 1_555 1_555
H21 C27 1_555 1_555
C28 C21 1_555 1_555
C29 C28 1_555 1_555
H22 C29 1_555 1_555
C30 C29 1_555 1_555
H23 C30 1_555 1_555
C31 C30 1_555 1_555
H24 C31 1_555 1_555
C32 C31 1_555 1_555
H25 C32 1_555 1_555
C33 C28 1_555 1_555
H26 C33 1_555 1_555
N2 C4 1_555 1_555
C12 C13 1_555 1_555
C19 C20 1_555 1_555
C26 C27 1_555 1_555
C32 C33 1_555 1_555

#END
