
#######################################################################
#
#                 Cambridge Crystallographic Data Centre
#                                CCDC 
#
#######################################################################
#
# If this CIF has been generated from an entry in the Cambridge 
# Structural Database, then it will include bibliographic, chemical, 
# crystal, experimental, refinement or atomic coordinate data resulting 
# from the CCDC's data processing and validation procedures.
#
#######################################################################

data_NOZYIK
_chemical_formula_moiety         'C13 H27 N3 O3'
_chemical_name_systematic        
N-(2-(N'-Hydroxy-N-oxidodiaziniumyl)-3-methylbutyl)octanamide
_chemical_properties_biological  'weak herbicidal activity'
_symmetry_cell_setting           monoclinic
_symmetry_space_group_name_H-M   'P 21/c'
_symmetry_Int_Tables_number      14
_space_group_name_Hall           '-P 2ybc'
loop_
_symmetry_equiv_pos_site_id
_symmetry_equiv_pos_as_xyz
1 x,y,z
2 -x,1/2+y,1/2-z
3 -x,-y,-z
4 x,1/2-y,1/2+z
_cell_length_a                   14.669(7)
_cell_length_b                   10.722(8)
_cell_length_c                   10.802(6)
_cell_angle_alpha                90
_cell_angle_beta                 99.55(8)
_cell_angle_gamma                90
_cell_volume                     1675.4
_exptl_crystal_colour            colorless
_exptl_crystal_description       plate
_cell_formula_units_Z            4
_exptl_crystal_recrystallization_method ethanol
loop_
_atom_site_label
_atom_site_type_symbol
_atom_site_fract_x
_atom_site_fract_y
_atom_site_fract_z
C1 C -0.2613(4) 0.1944(6) -0.2616(7)
C2 C -0.2074(3) 0.0855(4) -0.3004(4)
C3 C -0.1046(3) 0.0981(4) -0.2557(3)
C4 C -0.0482(3) -0.0147(4) -0.2819(4)
C5 C 0.1118(3) 0.0551(4) -0.2738(3)
C6 C 0.2071(3) 0.0595(5) -0.1982(4)
C7 C 0.2248(3) 0.1838(5) -0.1323(5)
H1 H 0.1774(3) 0.1956(5) -0.0729(5)
H2 H 0.2142(3) 0.2537(5) -0.1984(5)
C8 C 0.3219(5) 0.1979(7) -0.0564(7)
H3 H 0.3689(5) 0.1819(7) -0.1157(7)
H4 H 0.3300(5) 0.2891(7) -0.0266(7)
C9 C 0.3440(5) 0.1222(9) 0.0460(7)
H5 H 0.3440(5) 0.0312(9) 0.0154(7)
H6 H 0.2930(5) 0.1301(9) 0.1005(7)
C10 C 0.4405(5) 0.1496(9) 0.1313(7)
H7 H 0.4924(5) 0.1447(9) 0.0780(7)
H8 H 0.4403(5) 0.2381(9) 0.1684(7)
C11 C 0.4570(5) 0.0581(9) 0.2327(8)
H9 H 0.4584(5) -0.0295(9) 0.1938(8)
H10 H 0.4022(5) 0.0605(9) 0.2812(8)
C12 C 0.5414(5) 0.0761(9) 0.3207(8)
H11 H 0.5970(6) 0.0713(55) 0.2740(12)
H12 H 0.5472(21) 0.0076(34) 0.3885(32)
H13 H 0.5401(18) 0.1623(25) 0.3625(41)
C13 C -0.2278(5) 0.0682(9) -0.4430(5)
N1 N 0.0481(2) -0.0059(3) -0.2245(3)
N2 N -0.0863(2) 0.1199(3) -0.1168(2)
N3 N -0.0356(2) 0.2140(3) -0.0825(3)
O1 O 0.0946(2) 0.1071(3) -0.3781(2)
O2 O -0.1181(2) 0.0428(2) -0.0462(2)
O3 O -0.0203(2) 0.2190(3) 0.0459(2)
H14 H -0.3290(41) 0.1907(52) -0.3020(49)
H15 H -0.2491(37) 0.1997(51) -0.1791(52)
H16 H -0.2380(35) 0.2728(52) -0.3082(49)
H17 H -0.2280(23) 0.0117(33) -0.2607(32)
H18 H -0.0830(21) 0.1702(31) -0.2893(29)
H19 H -0.0516(25) -0.0220(36) -0.3667(39)
H20 H -0.0757(23) -0.0876(36) -0.2488(32)
H21 H 0.2517(30) 0.0464(41) -0.2577(42)
H22 H 0.2123(27) -0.0059(38) -0.1365(40)
H23 H -0.2080(39) 0.1391(57) -0.4706(52)
H24 H -0.1943(48) 0.0006(66) -0.4800(66)
H25 H -0.3009(39) 0.0684(50) -0.4761(46)
H26 H 0.0597(24) -0.0362(36) -0.1541(38)
H27 H 0.0290(38) 0.2876(55) 0.0641(52)
loop_
_geom_bond_atom_site_label_1
_geom_bond_atom_site_label_2
_geom_bond_site_symmetry_1
_geom_bond_site_symmetry_2
C1 C2 1_555 1_555
C2 C3 1_555 1_555
C3 C4 1_555 1_555
C4 N1 1_555 1_555
C5 C6 1_555 1_555
C6 C7 1_555 1_555
C7 H1 1_555 1_555
H2 C7 1_555 1_555
C8 C7 1_555 1_555
H3 C8 1_555 1_555
H4 C8 1_555 1_555
C9 C8 1_555 1_555
H5 C9 1_555 1_555
H6 C9 1_555 1_555
C10 C9 1_555 1_555
H7 C10 1_555 1_555
H8 C10 1_555 1_555
C11 C10 1_555 1_555
H9 C11 1_555 1_555
H10 C11 1_555 1_555
C12 C11 1_555 1_555
H11 C12 1_555 1_555
H12 C12 1_555 1_555
H13 C12 1_555 1_555
C13 C2 1_555 1_555
N1 C5 1_555 1_555
N2 C3 1_555 1_555
N3 N2 1_555 1_555
O1 C5 1_555 1_555
O2 N2 1_555 1_555
O3 N3 1_555 1_555
H14 C1 1_555 1_555
H15 C1 1_555 1_555
H16 C1 1_555 1_555
H17 C2 1_555 1_555
H18 C3 1_555 1_555
H19 C4 1_555 1_555
H20 C4 1_555 1_555
H21 C6 1_555 1_555
H22 C6 1_555 1_555
H23 C13 1_555 1_555
H24 C13 1_555 1_555
H25 C13 1_555 1_555
H26 N1 1_555 1_555
H27 O3 1_555 1_555

#END
