
#######################################################################
#
#                 Cambridge Crystallographic Data Centre
#                                CCDC 
#
#######################################################################
#
# If this CIF has been generated from an entry in the Cambridge 
# Structural Database, then it will include bibliographic, chemical, 
# crystal, experimental, refinement or atomic coordinate data resulting 
# from the CCDC's data processing and validation procedures.
#
#######################################################################

data_NPCBCP
_chemical_formula_moiety         'C18 H16'
_chemical_name_systematic        
Naphtho(2,3-6,7)dicyclobutene(1,8:4,5)dicyclopentene
_symmetry_cell_setting           triclinic
_symmetry_space_group_name_H-M   'P -1'
_symmetry_Int_Tables_number      2
_space_group_name_Hall           '-P 1'
loop_
_symmetry_equiv_pos_site_id
_symmetry_equiv_pos_as_xyz
1 x,y,z
2 -x,-y,-z
_cell_length_a                   6.603(2)
_cell_length_b                   8.545(2)
_cell_length_c                   5.238(2)
_cell_angle_alpha                95.10(2)
_cell_angle_beta                 94.72(3)
_cell_angle_gamma                84.80(2)
_cell_volume                     292.338
_cell_formula_units_Z            1
loop_
_atom_site_label
_atom_site_type_symbol
_atom_site_fract_x
_atom_site_fract_y
_atom_site_fract_z
C1 C 0.01100 -0.19500 -0.19520
C2 C -0.14750 -0.25290 -0.09150
C3 C -0.25930 -0.16510 0.10290
C4 C -0.21860 -0.01750 0.20120
C5 C 0.05430 -0.04210 -0.09580
C6 C 0.16140 -0.25000 -0.40070
C7 C -0.27350 -0.39470 -0.09720
C8 C -0.39510 -0.29860 0.12260
C9 C -0.29810 0.10860 0.40140
H1 H 0.08100 -0.28500 -0.57800
H2 H 0.23300 -0.35300 -0.37000
H3 H -0.18800 -0.50400 -0.04600
H4 H -0.36200 -0.42100 -0.26900
H5 H -0.53700 -0.27200 0.08200
H6 H -0.37400 -0.34600 0.29200
H7 H -0.28600 0.06500 0.56900
H8 H -0.44700 0.14200 0.35300
C5A C -0.05430 0.04210 0.09580
C4A C 0.21860 0.01750 -0.20120
C9A C 0.29810 -0.10860 -0.40140
C6A C -0.16140 0.25000 0.40070
C1A C -0.01100 0.19500 0.19520
C3A C 0.25930 0.16510 -0.10290
H7A H 0.28600 -0.06500 -0.56900
H8A H 0.44700 -0.14200 -0.35300
H1A H -0.08100 0.28500 0.57800
H2A H -0.23300 0.35300 0.37000
C2A C 0.14750 0.25290 0.09150
C8A C 0.39510 0.29860 -0.12260
C7A C 0.27350 0.39470 0.09720
H5A H 0.53700 0.27200 -0.08200
H6A H 0.37400 0.34600 -0.29200
H3A H 0.18800 0.50400 0.04600
H4A H 0.36200 0.42100 0.26900
loop_
_geom_bond_atom_site_label_1
_geom_bond_atom_site_label_2
_geom_bond_site_symmetry_1
_geom_bond_site_symmetry_2
C1 C2 1_555 1_555
C2 C3 1_555 1_555
C3 C4 1_555 1_555
C4 C9 1_555 1_555
C5 C1 1_555 1_555
C6 C1 1_555 1_555
C7 C2 1_555 1_555
C8 C3 1_555 1_555
C9 H7 1_555 1_555
H1 C6 1_555 1_555
H2 C6 1_555 1_555
H3 C7 1_555 1_555
H4 C7 1_555 1_555
H5 C8 1_555 1_555
H6 C8 1_555 1_555
H8 C9 1_555 1_555
C5A C4 1_555 1_555
C4A C5 1_555 1_555
C9A C6 1_555 1_555
C6A C9 1_555 1_555
C1A C5A 1_555 1_555
C3A C4A 1_555 1_555
H7A C9A 1_555 1_555
H8A C9A 1_555 1_555
H1A C6A 1_555 1_555
H2A C6A 1_555 1_555
C2A C1A 1_555 1_555
C8A C3A 1_555 1_555
C7A C2A 1_555 1_555
H5A C8A 1_555 1_555
H6A C8A 1_555 1_555
H3A C7A 1_555 1_555
H4A C7A 1_555 1_555
C5 C5A 1_555 1_555
C7 C8 1_555 1_555
C4A C9A 1_555 1_555
C6A C1A 1_555 1_555
C3A C2A 1_555 1_555
C8A C7A 1_555 1_555

#END
