
#######################################################################
#
#                 Cambridge Crystallographic Data Centre
#                                CCDC 
#
#######################################################################
#
# If this CIF has been generated from an entry in the Cambridge 
# Structural Database, then it will include bibliographic, chemical, 
# crystal, experimental, refinement or atomic coordinate data resulting 
# from the CCDC's data processing and validation procedures.
#
#######################################################################

data_NPHYAC01
_chemical_formula_moiety         'C9 H11 N3 O2'
_chemical_name_systematic        'Acetone 3-nitrophenylhydrazone'
_symmetry_cell_setting           monoclinic
_symmetry_space_group_name_H-M   'C 2/c'
_symmetry_Int_Tables_number      15
_space_group_name_Hall           '-C 2yn'
loop_
_symmetry_equiv_pos_site_id
_symmetry_equiv_pos_as_xyz
1 x,y,z
2 1/2+x,1/2+y,z
3 -x,y,1/2-z
4 1/2-x,1/2+y,1/2-z
5 -x,-y,-z
6 1/2-x,1/2-y,-z
7 x,-y,1/2+z
8 1/2+x,1/2-y,1/2+z
_cell_length_a                   22.7837(15)
_cell_length_b                   3.8307(2)
_cell_length_c                   21.7292(13)
_cell_angle_alpha                90
_cell_angle_beta                 100.129(3)
_cell_angle_gamma                90
_cell_volume                     1866.91
_exptl_crystal_colour            colorless
_exptl_crystal_description       plate
_cell_formula_units_Z            8
_exptl_crystal_recrystallization_method ethanol
loop_
_atom_site_label
_atom_site_type_symbol
_atom_site_fract_x
_atom_site_fract_y
_atom_site_fract_z
C1 C 0.73046(9) 0.6977(5) 0.62467(9)
C2 C 0.76687(9) 0.5776(6) 0.58397(9)
C3 C 0.82780(9) 0.6216(6) 0.60016(9)
N1 N 0.86561(8) 0.4855(5) 0.55769(8)
O1 O 0.84193(7) 0.3164(5) 0.51155(7)
O2 O 0.91943(7) 0.5383(5) 0.56931(7)
C4 C 0.85489(9) 0.7812(6) 0.65520(10)
C5 C 0.81809(10) 0.9004(6) 0.69488(10)
C6 C 0.75668(9) 0.8622(5) 0.68035(9)
N2 N 0.66953(7) 0.6555(5) 0.60836(8)
N3 N 0.63415(8) 0.7306(5) 0.65204(8)
C7 C 0.57836(10) 0.6671(6) 0.63644(10)
C8 C 0.54023(10) 0.7472(7) 0.68419(11)
C9 C 0.54904(9) 0.5192(6) 0.57486(10)
H1 H 0.7501 0.4674 0.5457
H2 H 0.8970 0.8073 0.6652
H3 H 0.8352 1.0110 0.7329
H4 H 0.7323 0.9479 0.7083
H5 H 0.6569 0.5158 0.5792
H6 H 0.5645 0.8593 0.7205
H7 H 0.5233 0.5301 0.6973
H8 H 0.5079 0.9047 0.6660
H9 H 0.5556 0.6765 0.5411
H10 H 0.5062 0.4945 0.5744
H11 H 0.5662 0.2900 0.5688
loop_
_geom_bond_atom_site_label_1
_geom_bond_atom_site_label_2
_geom_bond_site_symmetry_1
_geom_bond_site_symmetry_2
C1 C2 1_555 1_555
C2 C3 1_555 1_555
C3 N1 1_555 1_555
N1 O1 1_555 1_555
O2 N1 1_555 1_555
C4 C3 1_555 1_555
C5 C4 1_555 1_555
C6 C1 1_555 1_555
N2 C1 1_555 1_555
N3 N2 1_555 1_555
C7 N3 1_555 1_555
C8 C7 1_555 1_555
C9 C7 1_555 1_555
H1 C2 1_555 1_555
H2 C4 1_555 1_555
H3 C5 1_555 1_555
H4 C6 1_555 1_555
H5 N2 1_555 1_555
H6 C8 1_555 1_555
H7 C8 1_555 1_555
H8 C8 1_555 1_555
H9 C9 1_555 1_555
H10 C9 1_555 1_555
H11 C9 1_555 1_555
C5 C6 1_555 1_555

#END
