
#######################################################################
#
#                 Cambridge Crystallographic Data Centre
#                                CCDC 
#
#######################################################################
#
# If this CIF has been generated from an entry in the Cambridge 
# Structural Database, then it will include bibliographic, chemical, 
# crystal, experimental, refinement or atomic coordinate data resulting 
# from the CCDC's data processing and validation procedures.
#
#######################################################################

data_NSBTOB
_chemical_formula_moiety         'C8 H7 N1 O3 S1'
_chemical_name_systematic        3-Nitro-4-(2-thienyl)-but-3-en-2-one
_symmetry_cell_setting           monoclinic
_symmetry_space_group_name_H-M   'P 21'
_symmetry_Int_Tables_number      4
_space_group_name_Hall           'P 2yb'
loop_
_symmetry_equiv_pos_site_id
_symmetry_equiv_pos_as_xyz
1 x,y,z
2 -x,1/2+y,-z
_cell_length_a                   6.354(1)
_cell_length_b                   6.698(1)
_cell_length_c                   10.401(1)
_cell_angle_alpha                90
_cell_angle_beta                 101.94(1)
_cell_angle_gamma                90
_cell_volume                     433.08
_exptl_crystal_colour            yellow
_chemical_melting_point          146deg.C
_cell_formula_units_Z            2
loop_
_atom_site_label
_atom_site_type_symbol
_atom_site_fract_x
_atom_site_fract_y
_atom_site_fract_z
S1 S 0.20570 0.00000 0.46890
N1 N 0.18720 -0.00800 0.76410
O1 O 0.39450 -0.00970 1.015
O2 O 0.10390 0.16970 0.76200
O3 O 0.08900 -0.15380 0.74620
C1 C 0.46730 -0.00050 0.55770
C2 C 0.61430 0.00060 0.47320
C3 C 0.50790 0.00180 0.34000
C4 C 0.28790 0.00580 0.32220
C5 C 0.53850 0.00620 0.69760
C6 C 0.42730 -0.00240 0.79540
C7 C 0.51700 -0.00270 0.93640
C8 C 0.76100 0.01120 0.981
loop_
_geom_bond_atom_site_label_1
_geom_bond_atom_site_label_2
_geom_bond_site_symmetry_1
_geom_bond_site_symmetry_2
S1 C1 1_555 1_555
N1 O2 1_555 1_555
O1 C7 1_555 1_555
O3 N1 1_555 1_555
C1 C2 1_555 1_555
C2 C3 1_555 1_555
C3 C4 1_555 1_555
C4 S1 1_555 1_555
C5 C1 1_555 1_555
C6 N1 1_555 1_555
C7 C6 1_555 1_555
C8 C7 1_555 1_555
C5 C6 1_555 1_555

#END
