
#######################################################################
#
#                 Cambridge Crystallographic Data Centre
#                                CCDC 
#
#######################################################################
#
# If this CIF has been generated from an entry in the Cambridge 
# Structural Database, then it will include bibliographic, chemical, 
# crystal, experimental, refinement or atomic coordinate data resulting 
# from the CCDC's data processing and validation procedures.
#
#######################################################################

data_NTPYRO03
_chemical_formula_moiety         'C5 H4 N2 O3'
_chemical_name_systematic        '4-Nitropyridine N-oxide'
_symmetry_cell_setting           orthorhombic
_symmetry_space_group_name_H-M   'P n m a'
_symmetry_Int_Tables_number      62
_space_group_name_Hall           '-P 2ac 2n'
loop_
_symmetry_equiv_pos_site_id
_symmetry_equiv_pos_as_xyz
1 x,y,z
2 1/2-x,1/2+y,1/2+z
3 x,1/2-y,z
4 1/2-x,-y,1/2+z
5 -x,-y,-z
6 1/2+x,1/2-y,1/2-z
7 -x,1/2+y,-z
8 1/2+x,y,1/2-z
_cell_length_a                   12.498(6)
_cell_length_b                   5.814(2)
_cell_length_c                   7.824(2)
_cell_angle_alpha                90
_cell_angle_beta                 90
_cell_angle_gamma                90
_cell_volume                     568.518
_cell_formula_units_Z            4
loop_
_atom_site_label
_atom_site_type_symbol
_atom_site_fract_x
_atom_site_fract_y
_atom_site_fract_z
C1 C 0.16440 0.25000 0.51620
C2 C 0.30650 0.25000 0.71720
C3 C 0.38130 0.25000 0.58790
C4 C 0.34480 0.25000 0.42060
C5 C 0.23640 0.25000 0.38310
H1 H 0.08940 0.25000 0.49990
H2 H 0.32260 0.25000 0.83640
H3 H 0.46000 0.25000 0.61720
H4 H 0.21170 0.25000 0.26570
N1 N 0.19930 0.25000 0.68190
N2 N 0.42200 0.25000 0.28150
O1 O 0.13080 0.25000 0.80640
O2 O 0.38810 0.25000 0.13310
O3 O 0.51790 0.25000 0.31830
loop_
_geom_bond_atom_site_label_1
_geom_bond_atom_site_label_2
_geom_bond_site_symmetry_1
_geom_bond_site_symmetry_2
C1 C5 1_555 1_555
C2 C3 1_555 1_555
C3 C4 1_555 1_555
C4 C5 1_555 1_555
C5 H4 1_555 1_555
H1 C1 1_555 1_555
H2 C2 1_555 1_555
H3 C3 1_555 1_555
N1 C1 1_555 1_555
N2 C4 1_555 1_555
O1 N1 1_555 1_555
O2 N2 1_555 1_555
O3 N2 1_555 1_555
C2 N1 1_555 1_555

#END
