
#######################################################################
#
#                 Cambridge Crystallographic Data Centre
#                                CCDC 
#
#######################################################################
#
# If this CIF has been generated from an entry in the Cambridge 
# Structural Database, then it will include bibliographic, chemical, 
# crystal, experimental, refinement or atomic coordinate data resulting 
# from the CCDC's data processing and validation procedures.
#
#######################################################################

data_NTPYRO11
_chemical_formula_moiety         'C5 H4 N2 O3'
_chemical_name_systematic        '4-Nitropyridine N-oxide'
_symmetry_cell_setting           orthorhombic
_symmetry_space_group_name_H-M   'P n m a'
_symmetry_Int_Tables_number      62
_space_group_name_Hall           '-P 2ac 2n'
loop_
_symmetry_equiv_pos_site_id
_symmetry_equiv_pos_as_xyz
1 x,y,z
2 1/2-x,1/2+y,1/2+z
3 x,1/2-y,z
4 1/2-x,-y,1/2+z
5 -x,-y,-z
6 1/2+x,1/2-y,1/2-z
7 -x,1/2+y,-z
8 1/2+x,y,1/2-z
_cell_length_a                   12.530(5)
_cell_length_b                   6.010(2)
_cell_length_c                   7.899(4)
_cell_angle_alpha                90
_cell_angle_beta                 90
_cell_angle_gamma                90
_cell_volume                     594.837
_cell_formula_units_Z            4
loop_
_atom_site_label
_atom_site_type_symbol
_atom_site_fract_x
_atom_site_fract_y
_atom_site_fract_z
C1 C 0.16780 0.25000 -0.48190
C2 C 0.30960 0.25000 -0.28630
C3 C 0.38230 0.25000 -0.41450
C4 C 0.34570 0.25000 -0.57920
C5 C 0.23740 0.25000 -0.61280
H1 H 0.09180 0.25000 -0.49450
H2 H 0.32720 0.25000 -0.17680
H3 H 0.45640 0.25000 -0.38780
H4 H 0.21700 0.25000 -0.72410
N1 N 0.20300 0.25000 -0.31850
N2 N 0.42130 0.25000 -0.71880
O1 O 0.13600 0.25000 -0.19320
O2 O 0.38720 0.25000 -0.86410
O3 O 0.51660 0.25000 -0.68440
loop_
_geom_bond_atom_site_label_1
_geom_bond_atom_site_label_2
_geom_bond_site_symmetry_1
_geom_bond_site_symmetry_2
C1 C5 1_555 1_555
C2 C3 1_555 1_555
C3 C4 1_555 1_555
C4 C5 1_555 1_555
C5 H4 1_555 1_555
H1 C1 1_555 1_555
H2 C2 1_555 1_555
H3 C3 1_555 1_555
N1 C1 1_555 1_555
N2 C4 1_555 1_555
O1 N1 1_555 1_555
O2 N2 1_555 1_555
O3 N2 1_555 1_555
C2 N1 1_555 1_555

#END
