
#######################################################################
#
#                 Cambridge Crystallographic Data Centre
#                                CCDC 
#
#######################################################################
#
# If this CIF has been generated from an entry in the Cambridge 
# Structural Database, then it will include bibliographic, chemical, 
# crystal, experimental, refinement or atomic coordinate data resulting 
# from the CCDC's data processing and validation procedures.
#
#######################################################################

data_NTRPLB
_chemical_formula_moiety         'C16 H13 N3 O8'
_chemical_name_systematic        
3,5,7-Trimethyl-tropylium-O,O-(2',4',6'-trinitrophenylide)
_symmetry_cell_setting           orthorhombic
_symmetry_space_group_name_H-M   'P b c n'
_symmetry_Int_Tables_number      60
_space_group_name_Hall           '-P 2n 2ab'
loop_
_symmetry_equiv_pos_site_id
_symmetry_equiv_pos_as_xyz
1 x,y,z
2 1/2-x,1/2+y,z
3 x,-y,1/2+z
4 1/2-x,1/2-y,1/2+z
5 -x,-y,-z
6 1/2+x,1/2-y,-z
7 -x,y,1/2-z
8 1/2+x,1/2+y,1/2-z
_cell_length_a                   8.7659(6)
_cell_length_b                   20.131(4)
_cell_length_c                   9.9848(5)
_cell_angle_alpha                90
_cell_angle_beta                 90
_cell_angle_gamma                90
_cell_volume                     1761.98
_exptl_crystal_colour            red
_cell_formula_units_Z            4
loop_
_atom_site_label
_atom_site_type_symbol
_atom_site_fract_x
_atom_site_fract_y
_atom_site_fract_z
O1 O 0.10220 0.38800 0.17920
O2 O 0.07950 0.67850 0.33300
O3 O 0.18010 0.38260 0.44740
O4 O 0.26430 0.47790 0.51460
N1 N 0.00000 0.64840 0.25000
N2 N 0.18460 0.44360 0.44040
C1 C 0.00000 0.57790 0.25000
C2 C 0.08840 0.54330 0.34180
C3 C 0.08900 0.47660 0.34320
C4 C 0.00000 0.43400 0.25000
C5 C 0.06400 0.32500 0.20800
C6 C 0.15080 0.27310 0.15780
C7 C 0.11610 0.20700 0.17770
C8 C 0.00000 0.17550 0.25000
C9 C 0.00000 0.10060 0.25000
C10 C 0.29090 0.29010 0.07890
H1 H 0.15200 0.56700 0.39900
H2 H 0.18600 0.17800 0.14500
H3 H 0.33600 0.25300 0.04100
H4 H 0.28100 0.32700 0.02600
H5 H 0.36000 0.30400 0.12800
O1F O -0.10220 0.38800 0.32080
C3F C -0.08900 0.47660 0.15680
C2F C -0.08840 0.54330 0.15820
O2F O -0.07950 0.67850 0.16700
C5F C -0.06400 0.32500 0.29200
C7F C -0.11610 0.20700 0.32230
N2F N -0.18460 0.44360 0.05960
H1F H -0.15200 0.56700 0.10100
C6F C -0.15080 0.27310 0.34220
H2F H -0.18600 0.17800 0.35500
O3F O -0.18010 0.38260 0.05260
O4F O -0.26430 0.47790 -0.01460
C10F C -0.29090 0.29010 0.42110
H3F H -0.33600 0.25300 0.45900
H4F H -0.28100 0.32700 0.47400
H5F H -0.36000 0.30400 0.37200
loop_
_geom_bond_atom_site_label_1
_geom_bond_atom_site_label_2
_geom_bond_site_symmetry_1
_geom_bond_site_symmetry_2
O1 C4 1_555 1_555
O2 N1 1_555 1_555
O3 N2 1_555 1_555
O4 N2 1_555 1_555
N1 C1 1_555 1_555
N2 C3 1_555 1_555
C1 C2 1_555 1_555
C2 C3 1_555 1_555
C3 C4 1_555 1_555
C4 O1F 1_555 1_555
C5 O1 1_555 1_555
C6 C5 1_555 1_555
C7 C6 1_555 1_555
C8 C7 1_555 1_555
C9 C8 1_555 1_555
C10 C6 1_555 1_555
H1 C2 1_555 1_555
H2 C7 1_555 1_555
H3 C10 1_555 1_555
H4 C10 1_555 1_555
H5 C10 1_555 1_555
O1F C5F 1_555 1_555
C3F C4 1_555 1_555
C2F C1 1_555 1_555
O2F N1 1_555 1_555
C5F C5 1_555 1_555
C7F C8 1_555 1_555
N2F C3F 1_555 1_555
H1F C2F 1_555 1_555
C6F C5F 1_555 1_555
H2F C7F 1_555 1_555
O3F N2F 1_555 1_555
O4F N2F 1_555 1_555
C10F C6F 1_555 1_555
H3F C10F 1_555 1_555
H4F C10F 1_555 1_555
H5F C10F 1_555 1_555
C3F C2F 1_555 1_555
C7F C6F 1_555 1_555

#END
