
#######################################################################
#
#                 Cambridge Crystallographic Data Centre
#                                CCDC 
#
#######################################################################
#
# If this CIF has been generated from an entry in the Cambridge 
# Structural Database, then it will include bibliographic, chemical, 
# crystal, experimental, refinement or atomic coordinate data resulting 
# from the CCDC's data processing and validation procedures.
#
#######################################################################

data_NTRPLA
_chemical_formula_moiety         'C16 H14 N2 O6'
_chemical_name_systematic        
O-(2',6'-Dinitrophenyl)-3,5,7-trimethyl-tropolone
_symmetry_cell_setting           orthorhombic
_symmetry_space_group_name_H-M   'P b c a'
_symmetry_Int_Tables_number      61
_space_group_name_Hall           '-P 2ac 2ab'
loop_
_symmetry_equiv_pos_site_id
_symmetry_equiv_pos_as_xyz
1 x,y,z
2 1/2-x,1/2+y,z
3 x,1/2-y,1/2+z
4 1/2-x,-y,1/2+z
5 -x,-y,-z
6 1/2+x,1/2-y,-z
7 -x,1/2+y,1/2-z
8 1/2+x,y,1/2-z
_cell_length_a                   10.6927(5)
_cell_length_b                   12.783(1)
_cell_length_c                   22.238(3)
_cell_angle_alpha                90
_cell_angle_beta                 90
_cell_angle_gamma                90
_cell_volume                     3039.6
_exptl_crystal_colour            yellow
_cell_formula_units_Z            8
loop_
_atom_site_label
_atom_site_type_symbol
_atom_site_fract_x
_atom_site_fract_y
_atom_site_fract_z
H1 H 0.58400 0.23600 -0.03500
H2 H 0.49500 0.38400 -0.08900
H3 H 0.34300 0.48800 -0.04300
H4 H 0.47200 0.47300 0.32900
H5 H 0.21800 0.24900 0.30300
H6 H 0.20700 0.14800 0.17300
H7 H 0.12200 0.24200 0.16500
H8 H 0.13300 0.16700 0.22700
H9 H 0.27200 0.42500 0.38900
H10 H 0.27200 0.31600 0.40100
H11 H 0.38100 0.38700 0.40900
O1 O 0.32540 0.29120 0.12090
O2 O 0.49710 0.43770 0.13820
O3 O 0.57640 0.10670 0.04470
O4 O 0.53110 0.17820 0.12960
O5 O 0.17180 0.44640 0.09980
O6 O 0.23080 0.56380 0.03830
N1 N 0.53030 0.17660 0.07500
N2 N 0.23820 0.47650 0.06000
C1 C 0.38020 0.32450 0.06930
C2 C 0.47280 0.26320 0.04170
C3 C 0.51710 0.28360 -0.01510
C4 C 0.46970 0.36670 -0.04700
C5 C 0.37700 0.42840 -0.02180
C6 C 0.33340 0.40570 0.03490
C7 C 0.34880 0.32670 0.17860
C8 C 0.44500 0.40600 0.18500
C9 C 0.48270 0.45020 0.24200
C10 C 0.43710 0.42810 0.29750
C11 C 0.34150 0.35980 0.31760
C12 C 0.27200 0.29480 0.28240
C13 C 0.27200 0.27940 0.21920
C14 C 0.17710 0.20320 0.19620
C15 C 0.31530 0.36080 0.38390
C16 C 0.58360 0.52900 0.23790
loop_
_geom_bond_atom_site_label_1
_geom_bond_atom_site_label_2
_geom_bond_site_symmetry_1
_geom_bond_site_symmetry_2
H1 C3 1_555 1_555
H2 C4 1_555 1_555
H3 C5 1_555 1_555
H4 C10 1_555 1_555
H5 C12 1_555 1_555
H6 C14 1_555 1_555
H7 C14 1_555 1_555
H8 C14 1_555 1_555
H9 C15 1_555 1_555
H10 C15 1_555 1_555
H11 C15 1_555 1_555
O1 C1 1_555 1_555
O2 C8 1_555 1_555
O3 N1 1_555 1_555
O4 N1 1_555 1_555
O5 N2 1_555 1_555
O6 N2 1_555 1_555
N1 C2 1_555 1_555
N2 C6 1_555 1_555
C1 C2 1_555 1_555
C2 C3 1_555 1_555
C3 C4 1_555 1_555
C4 C5 1_555 1_555
C5 C6 1_555 1_555
C6 C1 1_555 1_555
C7 O1 1_555 1_555
C8 C7 1_555 1_555
C9 C8 1_555 1_555
C10 C9 1_555 1_555
C11 C10 1_555 1_555
C12 C11 1_555 1_555
C13 C7 1_555 1_555
C14 C13 1_555 1_555
C15 C11 1_555 1_555
C16 C9 1_555 1_555
C12 C13 1_555 1_555

#END
