
#######################################################################
#
#                 Cambridge Crystallographic Data Centre
#                                CCDC 
#
#######################################################################
#
# If this CIF has been generated from an entry in the Cambridge 
# Structural Database, then it will include bibliographic, chemical, 
# crystal, experimental, refinement or atomic coordinate data resulting 
# from the CCDC's data processing and validation procedures.
#
#######################################################################

data_NUBYIT
_chemical_formula_moiety         'C33 H24 O2'
_chemical_name_systematic        
3-Benzoyl-1-phenyl-1-(4-phenylcyclobut-1-enyl)naphthalen-2(1H)-one
_symmetry_cell_setting           monoclinic
_symmetry_space_group_name_H-M   'P 21/n'
_symmetry_Int_Tables_number      14
_space_group_name_Hall           '-P 2yn'
loop_
_symmetry_equiv_pos_site_id
_symmetry_equiv_pos_as_xyz
1 x,y,z
2 1/2-x,1/2+y,1/2-z
3 -x,-y,-z
4 1/2+x,1/2-y,1/2+z
_cell_length_a                   10.4779(3)
_cell_length_b                   18.2926(5)
_cell_length_c                   12.5936(4)
_cell_angle_alpha                90
_cell_angle_beta                 94.802(1)
_cell_angle_gamma                90
_cell_volume                     2405.32
_exptl_crystal_colour            yellow
_exptl_crystal_description       block
_chemical_melting_point          '142-144 deg.C'
_cell_formula_units_Z            4
loop_
_atom_site_label
_atom_site_type_symbol
_atom_site_fract_x
_atom_site_fract_y
_atom_site_fract_z
C1 C 0.61636(13) 0.10959(8) 0.30627(12)
H1 H 0.6221 0.1139 0.2333
C2 C 0.72498(14) 0.09442(9) 0.37188(14)
H2 H 0.8033 0.0893 0.3430
C3 C 0.71809(15) 0.08688(9) 0.47941(14)
H3 H 0.7915 0.0769 0.5238
C4 C 0.60228(16) 0.09414(10) 0.52085(13)
H4 H 0.5970 0.0883 0.5937
C5 C 0.49272(14) 0.11007(8) 0.45574(12)
H5 H 0.4147 0.1151 0.4852
C6 C 0.49859(12) 0.11850(7) 0.34734(10)
C7 C 0.38028(12) 0.14074(7) 0.27152(10)
C8 C 0.26234(11) 0.14919(7) 0.33405(10)
C9 C 0.18995(13) 0.08910(8) 0.35750(11)
H6 H 0.2094 0.0434 0.3307
C10 C 0.08871(14) 0.09636(9) 0.42069(13)
H7 H 0.0403 0.0556 0.4354
C11 C 0.05918(14) 0.16323(10) 0.46179(13)
H8 H -0.0082 0.1676 0.5050
C12 C 0.12943(14) 0.22349(9) 0.43889(12)
H9 H 0.1094 0.2687 0.4668
C13 C 0.23065(12) 0.21771(7) 0.37415(10)
C14 C 0.30251(13) 0.28178(8) 0.34813(12)
H10 H 0.2835 0.3259 0.3801
C15 C 0.39471(13) 0.28141(7) 0.28082(11)
C16 C 0.42055(12) 0.21372(7) 0.22318(11)
C17 C 0.46274(15) 0.35045(7) 0.25383(12)
C18 C 0.60478(14) 0.35061(7) 0.26126(11)
C19 C 0.67553(15) 0.29692(8) 0.31615(13)
H11 H 0.6338 0.2595 0.3494
C20 C 0.80731(16) 0.29823(9) 0.32206(16)
H12 H 0.8540 0.2618 0.3592
C21 C 0.86985(18) 0.35304(10) 0.27353(18)
H13 H 0.9589 0.3537 0.2777
C22 C 0.8014(2) 0.40671(11) 0.21896(17)
H14 H 0.8440 0.4437 0.1856
C23 C 0.67003(18) 0.40633(9) 0.21321(14)
H15 H 0.6242 0.4435 0.1770
C24 C 0.03954(16) 0.06113(10) 0.11080(13)
H16 H 0.0604 0.0118 0.1156
C25 C -0.08407(18) 0.08355(13) 0.12596(14)
H17 H -0.1454 0.0490 0.1406
C26 C -0.11670(19) 0.15568(15) 0.11969(15)
H18 H -0.1996 0.1704 0.1304
C27 C -0.0269(2) 0.20572(12) 0.09764(15)
H19 H -0.0487 0.2550 0.0931
C28 C 0.09609(17) 0.18422(9) 0.08199(13)
H20 H 0.1561 0.2193 0.0667
C29 C 0.13208(14) 0.11141(8) 0.08860(11)
C30 C 0.26981(15) 0.09174(8) 0.07936(12)
H21 H 0.3079 0.1245 0.0292
C31 C 0.31139(19) 0.01079(11) 0.06096(16)
H22 H 0.2427 -0.0246 0.0625
H23 H 0.3597 0.0038 -0.0007
C32 C 0.39232(17) 0.01850(9) 0.16426(15)
H24 H 0.4486 -0.0133 0.2020
C33 C 0.35601(13) 0.08592(7) 0.18293(11)
O1 O 0.40105(13) 0.40489(6) 0.22868(12)
O2 O 0.47373(11) 0.21532(6) 0.14127(8)
loop_
_geom_bond_atom_site_label_1
_geom_bond_atom_site_label_2
_geom_bond_site_symmetry_1
_geom_bond_site_symmetry_2
C1 H1 1_555 1_555
C2 C1 1_555 1_555
H2 C2 1_555 1_555
C3 C2 1_555 1_555
H3 C3 1_555 1_555
C4 C3 1_555 1_555
H4 C4 1_555 1_555
C5 C4 1_555 1_555
H5 C5 1_555 1_555
C6 C1 1_555 1_555
C7 C6 1_555 1_555
C8 C7 1_555 1_555
C9 C8 1_555 1_555
H6 C9 1_555 1_555
C10 C9 1_555 1_555
H7 C10 1_555 1_555
C11 C10 1_555 1_555
H8 C11 1_555 1_555
C12 C11 1_555 1_555
H9 C12 1_555 1_555
C13 C8 1_555 1_555
C14 C13 1_555 1_555
H10 C14 1_555 1_555
C15 C14 1_555 1_555
C16 C7 1_555 1_555
C17 C15 1_555 1_555
C18 C17 1_555 1_555
C19 C18 1_555 1_555
H11 C19 1_555 1_555
C20 C19 1_555 1_555
H12 C20 1_555 1_555
C21 C20 1_555 1_555
H13 C21 1_555 1_555
C22 C21 1_555 1_555
H14 C22 1_555 1_555
C23 C18 1_555 1_555
H15 C23 1_555 1_555
C24 H16 1_555 1_555
C25 C24 1_555 1_555
H17 C25 1_555 1_555
C26 C25 1_555 1_555
H18 C26 1_555 1_555
C27 C26 1_555 1_555
H19 C27 1_555 1_555
C28 C27 1_555 1_555
H20 C28 1_555 1_555
C29 C24 1_555 1_555
C30 C29 1_555 1_555
H21 C30 1_555 1_555
C31 C30 1_555 1_555
H22 C31 1_555 1_555
H23 C31 1_555 1_555
C32 C31 1_555 1_555
H24 C32 1_555 1_555
C33 C7 1_555 1_555
O1 C17 1_555 1_555
O2 C16 1_555 1_555
C5 C6 1_555 1_555
C12 C13 1_555 1_555
C15 C16 1_555 1_555
C22 C23 1_555 1_555
C28 C29 1_555 1_555
C30 C33 1_555 1_555
C32 C33 1_555 1_555

#END
