
#######################################################################
#
#                 Cambridge Crystallographic Data Centre
#                                CCDC 
#
#######################################################################
#
# If this CIF has been generated from an entry in the Cambridge 
# Structural Database, then it will include bibliographic, chemical, 
# crystal, experimental, refinement or atomic coordinate data resulting 
# from the CCDC's data processing and validation procedures.
#
#######################################################################

data_NUCDIY
_chemical_formula_moiety         'C12 H12 N6 O5 S1'
_chemical_name_systematic        
N-(2-(4-Ethyl)triazinyl)-2-nitrobenzenesulfonylurea
_symmetry_cell_setting           monoclinic
_symmetry_space_group_name_H-M   'P 21/n'
_symmetry_Int_Tables_number      14
_space_group_name_Hall           '-P 2yn'
loop_
_symmetry_equiv_pos_site_id
_symmetry_equiv_pos_as_xyz
1 x,y,z
2 1/2-x,1/2+y,1/2-z
3 -x,-y,-z
4 1/2+x,1/2-y,1/2+z
_cell_length_a                   7.861(3)
_cell_length_b                   5.809(2)
_cell_length_c                   32.729(6)
_cell_angle_alpha                90
_cell_angle_beta                 93.25
_cell_angle_gamma                90
_cell_volume                     1492.15
_chemical_melting_point          182-183deg.C
_cell_formula_units_Z            4
loop_
_atom_site_label
_atom_site_type_symbol
_atom_site_fract_x
_atom_site_fract_y
_atom_site_fract_z
S1 S 0.7099(2) 0.3955(3) 0.13408(5)
O1 O 0.8362(7) 0.859(1) 0.1809(2)
O2 O 0.8526(6) 0.705(1) 0.2405(2)
O3 O 0.8756(5) 0.3990(9) 0.1532(1)
O4 O 0.6386(6) 0.1912(8) 0.1175(2)
O5 O 0.4499(5) 0.5227(9) 0.0687(1)
N1 N 0.7799(7) 0.743(1) 0.2081(2)
N2 N 0.7152(6) 0.588(1) 0.0978(2)
N3 N 0.6044(6) 0.802(1) 0.0418(2)
N4 N 0.9778(7) 1.268(1) 0.0311(2)
N5 N 0.8765(6) 0.9358(9) 0.0628(1)
N6 N 0.7068(5) 1.1207(9) 0.0112(1)
C1 C 0.5805(8) 0.629(1) 0.0701(2)
C2 C 0.5648(7) 0.502(1) 0.1689(2)
C3 C 0.3995(8) 0.424(1) 0.1642(2)
C4 C 0.2797(8) 0.494(1) 0.1904(2)
C5 C 0.3246(9) 0.636(1) 0.2216(2)
C6 C 0.4876(9) 0.715(1) 0.2276(2)
C7 C 0.6050(7) 0.652(1) 0.2006(2)
C8 C 0.7347(8) 0.957(1) 0.0386(2)
C9 C 0.8309(8) 1.268(1) 0.0085(2)
C10 C 0.9935(8) 1.098(1) 0.0583(2)
C11 C 1.1514(8) 1.094(1) 0.0843(2)
C12 C 1.1739(9) 0.905(2) 0.1139(3)
loop_
_geom_bond_atom_site_label_1
_geom_bond_atom_site_label_2
_geom_bond_site_symmetry_1
_geom_bond_site_symmetry_2
S1 O3 1_555 1_555
O1 N1 1_555 1_555
O2 N1 1_555 1_555
O4 S1 1_555 1_555
O5 C1 1_555 1_555
N1 C7 1_555 1_555
N2 S1 1_555 1_555
N3 C1 1_555 1_555
N4 C9 1_555 1_555
N5 C8 1_555 1_555
N6 C8 1_555 1_555
C1 N2 1_555 1_555
C2 S1 1_555 1_555
C3 C2 1_555 1_555
C4 C3 1_555 1_555
C5 C4 1_555 1_555
C6 C5 1_555 1_555
C7 C2 1_555 1_555
C8 N3 1_555 1_555
C9 N6 1_555 1_555
C10 N4 1_555 1_555
C11 C10 1_555 1_555
C12 C11 1_555 1_555
N5 C10 1_555 1_555
C6 C7 1_555 1_555

#END
