
#######################################################################
#
#                 Cambridge Crystallographic Data Centre
#                                CCDC 
#
#######################################################################
#
# If this CIF has been generated from an entry in the Cambridge 
# Structural Database, then it will include bibliographic, chemical, 
# crystal, experimental, refinement or atomic coordinate data resulting 
# from the CCDC's data processing and validation procedures.
#
#######################################################################

data_NUCKEC
_chemical_formula_moiety         'C28 H58 B2 N2 Si6'
_chemical_name_systematic        
1,4-bis(1-(bis(Trimethylsilyl)ammonio)-2-trimethylsilyl-1H-boriren-1-ide-3-yl)benzene
_symmetry_cell_setting           triclinic
_symmetry_space_group_name_H-M   'P -1'
_symmetry_Int_Tables_number      2
_space_group_name_Hall           '-P 1'
loop_
_symmetry_equiv_pos_site_id
_symmetry_equiv_pos_as_xyz
1 x,y,z
2 -x,-y,-z
_cell_length_a                   6.6063(9)
_cell_length_b                   10.7222(14)
_cell_length_c                   14.846(2)
_cell_angle_alpha                68.987(7)
_cell_angle_beta                 82.634(7)
_cell_angle_gamma                77.599(7)
_cell_volume                     957.253
_exptl_crystal_colour            colorless
_exptl_crystal_description       block
_cell_formula_units_Z            1
_chemical_properties_physical    'air- and moisture-sensitive'
_exptl_crystal_recrystallization_method hexane
loop_
_atom_site_label
_atom_site_type_symbol
_atom_site_fract_x
_atom_site_fract_y
_atom_site_fract_z
Si1 Si 0.21467(9) 1.21813(6) 0.70180(4)
N1 N 0.5755(3) 0.79291(17) 0.77511(12)
C1 C 0.0134(3) 1.3166(2) 0.61349(16)
H1 H -0.1109 1.2750 0.6320
H2 H 0.0670 1.3163 0.5489
H3 H -0.0220 1.4104 0.6130
B1 B 0.4265(4) 0.9019(2) 0.72047(16)
Si2 Si 0.68199(9) 0.65624(6) 0.73523(4)
C2 C 0.1226(4) 1.2167(2) 0.82557(16)
H4 H 0.0010 1.1725 0.8466
H5 H 0.0848 1.3103 0.8255
H6 H 0.2334 1.1666 0.8700
Si3 Si 0.62665(9) 0.80779(6) 0.88376(4)
C3 C 0.4466(4) 1.3014(2) 0.66233(18)
H7 H 0.4949 1.3028 0.5968
H8 H 0.5574 1.2505 0.7066
H9 H 0.4095 1.3948 0.6628
C4 C 0.5895(3) 0.6873(2) 0.61490(15)
H10 H 0.4379 0.6973 0.6194
H11 H 0.6514 0.6103 0.5934
H12 H 0.6303 0.7705 0.5684
C5 C 0.6026(4) 0.4963(2) 0.81975(17)
H13 H 0.4508 0.5080 0.8253
H14 H 0.6548 0.4747 0.8835
H15 H 0.6605 0.4219 0.7950
C6 C 0.9702(3) 0.6375(2) 0.72296(18)
H16 H 1.0090 0.7225 0.6782
H17 H 1.0293 0.5636 0.6979
H18 H 1.0237 0.6166 0.7863
C7 C 0.7992(4) 0.6532(3) 0.95851(18)
H19 H 0.7344 0.5736 0.9727
H20 H 0.8208 0.6641 1.0192
H21 H 0.9332 0.6405 0.9230
C8 C 0.3778(4) 0.8290(3) 0.95481(16)
H22 H 0.2845 0.9105 0.9173
H23 H 0.4039 0.8386 1.0153
H24 H 0.3133 0.7492 0.9694
C9 C 0.7566(4) 0.9550(3) 0.85907(17)
H25 H 0.6681 1.0383 0.8206
H26 H 0.8899 0.9412 0.8233
H27 H 0.7802 0.9633 0.9203
C10 C 0.2707(3) 0.96787(19) 0.64704(13)
C11 C 0.2979(3) 1.0411(2) 0.70155(14)
C12 C 0.2114(3) 0.9596(2) 0.48671(14)
H28 H 0.3566 0.9316 0.4770
C13 C 0.1340(3) 0.98511(19) 0.57110(13)
C14 C -0.0801(3) 1.02574(19) 0.58368(14)
H29 H -0.1364 1.0435 0.6410
Si1A Si -0.21467(9) 0.78187(6) 0.29820(4)
N1A N -0.5755(3) 1.20709(17) 0.22489(12)
C1A C -0.0134(3) 0.6834(2) 0.38651(16)
H1A H 0.1109 0.7250 0.3680
H2A H -0.0670 0.6837 0.4511
H3A H 0.0220 0.5896 0.3870
B1A B -0.4265(4) 1.0981(2) 0.27953(16)
Si2A Si -0.68199(9) 1.34376(6) 0.26477(4)
C2A C -0.1226(4) 0.7833(2) 0.17443(16)
H4A H -0.0010 0.8275 0.1534
H5A H -0.0848 0.6897 0.1745
H6A H -0.2334 0.8334 0.1300
Si3A Si -0.62665(9) 1.19221(6) 0.11624(4)
C3A C -0.4466(4) 0.6986(2) 0.33767(18)
H7A H -0.4949 0.6972 0.4032
H8A H -0.5574 0.7495 0.2934
H9A H -0.4095 0.6052 0.3372
C4A C -0.5895(3) 1.3127(2) 0.38510(15)
H10A H -0.4379 1.3027 0.3806
H11A H -0.6514 1.3897 0.4066
H12A H -0.6303 1.2295 0.4316
C5A C -0.6026(4) 1.5037(2) 0.18025(17)
H13A H -0.4508 1.4920 0.1747
H14A H -0.6548 1.5253 0.1165
H15A H -0.6605 1.5781 0.2050
C6A C -0.9702(3) 1.3625(2) 0.27704(18)
H16A H -1.0090 1.2775 0.3218
H17A H -1.0293 1.4364 0.3021
H18A H -1.0237 1.3834 0.2137
C7A C -0.7992(4) 1.3468(3) 0.04149(18)
H19A H -0.7344 1.4264 0.0273
H20A H -0.8208 1.3359 -0.0192
H21A H -0.9332 1.3595 0.0770
C8A C -0.3778(4) 1.1710(3) 0.04519(16)
H22A H -0.2845 1.0895 0.0827
H23A H -0.4039 1.1614 -0.0153
H24A H -0.3133 1.2508 0.0306
C9A C -0.7566(4) 1.0450(3) 0.14093(17)
H25A H -0.6681 0.9617 0.1794
H26A H -0.8899 1.0588 0.1767
H27A H -0.7802 1.0367 0.0797
C10A C -0.2707(3) 1.03213(19) 0.35296(13)
C11A C -0.2979(3) 0.9589(2) 0.29845(14)
C12A C -0.2114(3) 1.0404(2) 0.51329(14)
H28A H -0.3566 1.0684 0.5230
C13A C -0.1340(3) 1.01489(19) 0.42890(13)
C14A C 0.0801(3) 0.97426(19) 0.41632(14)
H29A H 0.1364 0.9565 0.3590
loop_
_geom_bond_atom_site_label_1
_geom_bond_atom_site_label_2
_geom_bond_site_symmetry_1
_geom_bond_site_symmetry_2
Si1 C1 1_555 1_555
N1 B1 1_555 1_555
C1 H1 1_555 1_555
H2 C1 1_555 1_555
H3 C1 1_555 1_555
B1 C10 1_555 1_555
Si2 N1 1_555 1_555
C2 Si1 1_555 1_555
H4 C2 1_555 1_555
H5 C2 1_555 1_555
H6 C2 1_555 1_555
Si3 N1 1_555 1_555
C3 Si1 1_555 1_555
H7 C3 1_555 1_555
H8 C3 1_555 1_555
H9 C3 1_555 1_555
C4 Si2 1_555 1_555
H10 C4 1_555 1_555
H11 C4 1_555 1_555
H12 C4 1_555 1_555
C5 Si2 1_555 1_555
H13 C5 1_555 1_555
H14 C5 1_555 1_555
H15 C5 1_555 1_555
C6 Si2 1_555 1_555
H16 C6 1_555 1_555
H17 C6 1_555 1_555
H18 C6 1_555 1_555
C7 Si3 1_555 1_555
H19 C7 1_555 1_555
H20 C7 1_555 1_555
H21 C7 1_555 1_555
C8 Si3 1_555 1_555
H22 C8 1_555 1_555
H23 C8 1_555 1_555
H24 C8 1_555 1_555
C9 Si3 1_555 1_555
H25 C9 1_555 1_555
H26 C9 1_555 1_555
H27 C9 1_555 1_555
C10 C11 1_555 1_555
C11 Si1 1_555 1_555
C12 H28 1_555 1_555
C13 C10 1_555 1_555
C14 C13 1_555 1_555
H29 C14 1_555 1_555
Si1A C1A 1_555 1_555
N1A B1A 1_555 1_555
C1A H1A 1_555 1_555
H2A C1A 1_555 1_555
H3A C1A 1_555 1_555
B1A C10A 1_555 1_555
Si2A N1A 1_555 1_555
C2A Si1A 1_555 1_555
H4A C2A 1_555 1_555
H5A C2A 1_555 1_555
H6A C2A 1_555 1_555
Si3A N1A 1_555 1_555
C3A Si1A 1_555 1_555
H7A C3A 1_555 1_555
H8A C3A 1_555 1_555
H9A C3A 1_555 1_555
C4A Si2A 1_555 1_555
H10A C4A 1_555 1_555
H11A C4A 1_555 1_555
H12A C4A 1_555 1_555
C5A Si2A 1_555 1_555
H13A C5A 1_555 1_555
H14A C5A 1_555 1_555
H15A C5A 1_555 1_555
C6A Si2A 1_555 1_555
H16A C6A 1_555 1_555
H17A C6A 1_555 1_555
H18A C6A 1_555 1_555
C7A Si3A 1_555 1_555
H19A C7A 1_555 1_555
H20A C7A 1_555 1_555
H21A C7A 1_555 1_555
C8A Si3A 1_555 1_555
H22A C8A 1_555 1_555
H23A C8A 1_555 1_555
H24A C8A 1_555 1_555
C9A Si3A 1_555 1_555
H25A C9A 1_555 1_555
H26A C9A 1_555 1_555
H27A C9A 1_555 1_555
C10A C11A 1_555 1_555
C11A Si1A 1_555 1_555
C12A C14 1_555 1_555
H28A C12A 1_555 1_555
C13A C10A 1_555 1_555
C14A C12 1_555 1_555
H29A C14A 1_555 1_555
B1 C11 1_555 1_555
C12 C13 1_555 1_555
B1A C11A 1_555 1_555
C12A C13A 1_555 1_555
C13A C14A 1_555 1_555

#END
