
#######################################################################
#
#                 Cambridge Crystallographic Data Centre
#                                CCDC 
#
#######################################################################
#
# If this CIF has been generated from an entry in the Cambridge 
# Structural Database, then it will include bibliographic, chemical, 
# crystal, experimental, refinement or atomic coordinate data resulting 
# from the CCDC's data processing and validation procedures.
#
#######################################################################

data_NUCNIK
_chemical_formula_moiety         'C16 H25 F1 O2'
_chemical_name_systematic        
8-fluoro-3a,6,6,9a-tetramethyldecahydronaphtho[2,1-b]furan-2(1H)-one
_symmetry_cell_setting           orthorhombic
_symmetry_space_group_name_H-M   'P 21 21 21'
_symmetry_Int_Tables_number      19
_space_group_name_Hall           'P 2ac 2ab'
loop_
_symmetry_equiv_pos_site_id
_symmetry_equiv_pos_as_xyz
1 x,y,z
2 1/2-x,-y,1/2+z
3 -x,1/2+y,1/2-z
4 1/2+x,1/2-y,-z
_cell_length_a                   5.9958(12)
_cell_length_b                   13.644(3)
_cell_length_c                   17.789(4)
_cell_angle_alpha                90
_cell_angle_beta                 90
_cell_angle_gamma                90
_cell_volume                     1455.26
_cell_formula_units_Z            4
loop_
_atom_site_label
_atom_site_type_symbol
_atom_site_fract_x
_atom_site_fract_y
_atom_site_fract_z
F1 F 0.9019(4) 0.16910(12) 0.58630(8)
O1 O 0.6716(3) 0.12668(11) 0.19597(8)
O2 O 0.5472(3) 0.28008(13) 0.18326(10)
C1 C 0.9864(4) 0.11545(14) 0.52509(11)
H1 H 1.1528 0.1198 0.5248
C2 C 0.8948(4) 0.16010(14) 0.45301(10)
H2 H 0.9516 0.2279 0.4478
H3 H 0.7302 0.1633 0.4562
C3 C 0.9616(3) 0.10051(12) 0.38286(10)
C4 C 0.8138(3) 0.13353(12) 0.31664(10)
H4 H 0.6588 0.1177 0.3335
C5 C 0.7969(4) 0.23881(15) 0.28831(11)
H5 H 0.7189 0.2817 0.3247
H6 H 0.9454 0.2667 0.2767
C6 C 0.6591(4) 0.22255(15) 0.21737(11)
C7 C 0.8402(3) 0.07614(14) 0.24303(10)
C8 C 0.7782(4) -0.03000(15) 0.25731(11)
H7 H 0.8071 -0.0694 0.2116
H8 H 0.6174 -0.0348 0.2694
C9 C 0.9178(4) -0.07027(13) 0.32353(11)
H9 H 0.8715 -0.1386 0.3340
H10 H 1.0770 -0.0714 0.3088
C10 C 0.8919(3) -0.00918(12) 0.39564(10)
H11 H 0.7270 -0.0061 0.4038
C11 C 0.9830(3) -0.05729(13) 0.46890(11)
C12 C 0.9170(4) 0.00973(15) 0.53537(11)
H12 H 0.7531 0.0070 0.5420
H13 H 0.9863 -0.0159 0.5819
C13 C 0.8677(4) -0.15674(16) 0.48097(14)
H14 H 0.9333 -0.2055 0.4471
H15 H 0.7080 -0.1503 0.4703
H16 H 0.8884 -0.1777 0.5332
C14 C 1.2367(4) -0.07596(16) 0.46924(12)
H17 H 1.2757 -0.1172 0.5124
H18 H 1.3158 -0.0133 0.4729
H19 H 1.2798 -0.1093 0.4226
C15 C 1.2121(3) 0.11722(15) 0.36635(12)
H20 H 1.2733 0.0596 0.3407
H21 H 1.2921 0.1277 0.4137
H22 H 1.2296 0.1750 0.3341
C16 C 1.0589(4) 0.08472(18) 0.19916(12)
H23 H 1.0369 0.0604 0.1478
H24 H 1.1745 0.0457 0.2241
H25 H 1.1055 0.1535 0.1975
loop_
_geom_bond_atom_site_label_1
_geom_bond_atom_site_label_2
_geom_bond_site_symmetry_1
_geom_bond_site_symmetry_2
F1 C1 1_555 1_555
O1 C6 1_555 1_555
O2 C6 1_555 1_555
C1 H1 1_555 1_555
C2 C1 1_555 1_555
H2 C2 1_555 1_555
H3 C2 1_555 1_555
C3 C2 1_555 1_555
C4 C3 1_555 1_555
H4 C4 1_555 1_555
C5 C4 1_555 1_555
H5 C5 1_555 1_555
H6 C5 1_555 1_555
C6 C5 1_555 1_555
C7 O1 1_555 1_555
C8 C7 1_555 1_555
H7 C8 1_555 1_555
H8 C8 1_555 1_555
C9 C8 1_555 1_555
H9 C9 1_555 1_555
H10 C9 1_555 1_555
C10 C3 1_555 1_555
H11 C10 1_555 1_555
C11 C10 1_555 1_555
C12 C1 1_555 1_555
H12 C12 1_555 1_555
H13 C12 1_555 1_555
C13 C11 1_555 1_555
H14 C13 1_555 1_555
H15 C13 1_555 1_555
H16 C13 1_555 1_555
C14 C11 1_555 1_555
H17 C14 1_555 1_555
H18 C14 1_555 1_555
H19 C14 1_555 1_555
C15 C3 1_555 1_555
H20 C15 1_555 1_555
H21 C15 1_555 1_555
H22 C15 1_555 1_555
C16 C7 1_555 1_555
H23 C16 1_555 1_555
H24 C16 1_555 1_555
H25 C16 1_555 1_555
C4 C7 1_555 1_555
C9 C10 1_555 1_555
C11 C12 1_555 1_555

#END
