
#######################################################################
#
#                 Cambridge Crystallographic Data Centre
#                                CCDC 
#
#######################################################################
#
# If this CIF has been generated from an entry in the Cambridge 
# Structural Database, then it will include bibliographic, chemical, 
# crystal, experimental, refinement or atomic coordinate data resulting 
# from the CCDC's data processing and validation procedures.
#
#######################################################################

data_NUCPIL
_chemical_formula_moiety         'C30 H16 F9 N1'
_chemical_name_systematic        
(Z)-3-(3',5'-bis(Trifluoromethyl)biphenyl-4-yl)-2-(4'-(trifluoromethyl)biphenyl-4-yl)acrylonitrile
_symmetry_cell_setting           triclinic
_symmetry_space_group_name_H-M   'P -1'
_symmetry_Int_Tables_number      2
_space_group_name_Hall           '-P 1'
loop_
_symmetry_equiv_pos_site_id
_symmetry_equiv_pos_as_xyz
1 x,y,z
2 -x,-y,-z
_cell_length_a                   8.7256(3)
_cell_length_b                   10.1686(4)
_cell_length_c                   15.1679(5)
_cell_angle_alpha                74.382(2)
_cell_angle_beta                 81.966(2)
_cell_angle_gamma                84.065(2)
_cell_volume                     1280.34
_exptl_crystal_colour            yellow
_exptl_crystal_description       block
_cell_formula_units_Z            2
_chemical_properties_physical    light-sensitive
_exptl_crystal_recrystallization_method methanol/tetrahydrofuran
_exptl_crystal_preparation       'photochromic; fluorescent'
loop_
_atom_site_label
_atom_site_type_symbol
_atom_site_fract_x
_atom_site_fract_y
_atom_site_fract_z
F1 F -0.5432(15) -0.163(2) 0.1245(8)
F2 F -0.6124(16) -0.2792(11) 0.2398(13)
F3 F -0.7307(12) -0.1130(11) 0.2004(8)
F4 F 0.0867(15) 0.7714(8) 1.0473(7)
F5 F 0.1874(9) 0.9389(7) 0.9744(6)
F6 F 0.0117(9) 0.8830(11) 0.9257(7)
F7 F 0.7263(8) 0.5291(9) 0.8964(8)
F8 F 0.6978(8) 0.6666(16) 0.9582(7)
F9 F 0.7434(7) 0.7178(11) 0.8227(6)
N1 N 0.3430(12) 0.3320(13) 0.4269(8)
C1 C -0.5894(17) -0.1554(14) 0.2002(10)
C2 C -0.4887(11) -0.0941(8) 0.2431(6)
C3 C -0.5541(10) -0.0053(9) 0.2933(6)
H1 H -0.6608 0.0155 0.2980
C4 C -0.4617(10) 0.0541(8) 0.3373(5)
H2 H -0.5073 0.1147 0.3712
C5 C -0.3039(9) 0.0246(7) 0.3316(5)
C6 C -0.2411(10) -0.0643(8) 0.2784(6)
H3 H -0.1343 -0.0846 0.2721
C7 C -0.3325(11) -0.1228(8) 0.2351(6)
H4 H -0.2876 -0.1822 0.2001
C8 C -0.2047(9) 0.0884(7) 0.3785(5)
C9 C -0.2611(10) 0.1251(9) 0.4580(5)
H5 H -0.3627 0.1074 0.4832
C10 C -0.1752(10) 0.1865(9) 0.5019(5)
H6 H -0.2181 0.2067 0.5568
C11 C -0.0248(8) 0.2194(7) 0.4660(5)
C12 C 0.0326(9) 0.1837(8) 0.3857(5)
H7 H 0.1331 0.2040 0.3594
C13 C -0.0541(9) 0.1191(8) 0.3433(5)
H8 H -0.0105 0.0955 0.2896
C14 C 0.0684(8) 0.2894(7) 0.5100(5)
C15 C 0.2215(11) 0.3160(11) 0.4642(7)
C16 C 0.0201(9) 0.3305(7) 0.5864(5)
H9 H -0.0813 0.3109 0.6106
C17 C 0.0957(8) 0.4007(7) 0.6398(5)
C18 C 0.0180(8) 0.4100(8) 0.7248(5)
H10 H -0.0781 0.3734 0.7442
C19 C 0.0793(8) 0.4716(7) 0.7806(5)
H11 H 0.0242 0.4758 0.8370
C20 C 0.2212(8) 0.5275(7) 0.7546(5)
C21 C 0.3009(8) 0.5180(7) 0.6706(5)
H12 H 0.3977 0.5536 0.6520
C22 C 0.2391(8) 0.4570(8) 0.6145(5)
H13 H 0.2944 0.4532 0.5581
C23 C 0.2838(7) 0.5993(6) 0.8141(4)
C24 C 0.1839(8) 0.6761(7) 0.8636(5)
H14 H 0.0777 0.6807 0.8605
C25 C 0.2401(8) 0.7459(7) 0.9174(5)
C26 C 0.3953(8) 0.7390(7) 0.9241(5)
H15 H 0.4330 0.7864 0.9602
C27 C 0.4956(7) 0.6607(7) 0.8767(5)
C28 C 0.4410(8) 0.5941(7) 0.8215(5)
H16 H 0.5106 0.5445 0.7883
C29 C 0.1297(11) 0.8295(11) 0.9664(7)
C30 C 0.6598(10) 0.6514(10) 0.8848(7)
loop_
_geom_bond_atom_site_label_1
_geom_bond_atom_site_label_2
_geom_bond_site_symmetry_1
_geom_bond_site_symmetry_2
F1 C1 1_555 1_555
F2 C1 1_555 1_555
F3 C1 1_555 1_555
F4 C29 1_555 1_555
F5 C29 1_555 1_555
F6 C29 1_555 1_555
F7 C30 1_555 1_555
F8 C30 1_555 1_555
F9 C30 1_555 1_555
N1 C15 1_555 1_555
C1 C2 1_555 1_555
C2 C3 1_555 1_555
C3 H1 1_555 1_555
C4 C3 1_555 1_555
H2 C4 1_555 1_555
C5 C4 1_555 1_555
C6 C5 1_555 1_555
H3 C6 1_555 1_555
C7 C2 1_555 1_555
H4 C7 1_555 1_555
C8 C5 1_555 1_555
C9 C8 1_555 1_555
H5 C9 1_555 1_555
C10 C9 1_555 1_555
H6 C10 1_555 1_555
C11 C10 1_555 1_555
C12 C11 1_555 1_555
H7 C12 1_555 1_555
C13 C8 1_555 1_555
H8 C13 1_555 1_555
C14 C11 1_555 1_555
C15 C14 1_555 1_555
C16 C14 1_555 1_555
H9 C16 1_555 1_555
C17 C16 1_555 1_555
C18 C17 1_555 1_555
H10 C18 1_555 1_555
C19 C18 1_555 1_555
H11 C19 1_555 1_555
C20 C19 1_555 1_555
C21 C20 1_555 1_555
H12 C21 1_555 1_555
C22 C17 1_555 1_555
H13 C22 1_555 1_555
C23 C20 1_555 1_555
C24 C23 1_555 1_555
H14 C24 1_555 1_555
C25 C24 1_555 1_555
C26 C25 1_555 1_555
H15 C26 1_555 1_555
C27 C26 1_555 1_555
C28 C23 1_555 1_555
H16 C28 1_555 1_555
C29 C25 1_555 1_555
C30 C27 1_555 1_555
C6 C7 1_555 1_555
C12 C13 1_555 1_555
C21 C22 1_555 1_555
C27 C28 1_555 1_555

#END
