
#######################################################################
#
#                 Cambridge Crystallographic Data Centre
#                                CCDC 
#
#######################################################################
#
# If this CIF has been generated from an entry in the Cambridge 
# Structural Database, then it will include bibliographic, chemical, 
# crystal, experimental, refinement or atomic coordinate data resulting 
# from the CCDC's data processing and validation procedures.
#
#######################################################################

data_NUCTOV
_chemical_formula_moiety         'C17 H24 O4'
_chemical_name_systematic        
'meso-Dimethyl (3aR,4S,6R,6aS)-2,3,3a,4,5,6,6a,7,8,9-decahydro-1H-cyclopenta[e]azulene-4,6-dicarboxylate'
_symmetry_cell_setting           triclinic
_symmetry_space_group_name_H-M   'P -1'
_symmetry_Int_Tables_number      2
_space_group_name_Hall           '-P 1'
loop_
_symmetry_equiv_pos_site_id
_symmetry_equiv_pos_as_xyz
1 x,y,z
2 -x,-y,-z
_cell_length_a                   9.6393(2)
_cell_length_b                   9.6637(2)
_cell_length_c                   17.7208(4)
_cell_angle_alpha                78.728(1)
_cell_angle_beta                 79.019(1)
_cell_angle_gamma                76.781(1)
_cell_volume                     1557.5
_exptl_crystal_colour            colorless
_exptl_crystal_description       plate
_chemical_melting_point          '68-69 deg.C'
_cell_formula_units_Z            4
loop_
_atom_site_label
_atom_site_type_symbol
_atom_site_fract_x
_atom_site_fract_y
_atom_site_fract_z
C1 C 0.2203(3) 0.2913(2) 0.62341(12)
H1 H 0.3177 0.2767 0.6377
H2 H 0.1529 0.2623 0.6704
C2 C 0.1692(3) 0.4472(3) 0.58789(13)
H3 H 0.2010 0.5143 0.6136
H4 H 0.0629 0.4717 0.5917
C3 C 0.2288(2) 0.3089(2) 0.48198(12)
H5 H 0.1351 0.3233 0.4623
C4 C 0.2418(3) 0.4514(3) 0.50333(13)
H6 H 0.3443 0.4582 0.4981
H7 H 0.1922 0.5346 0.4695
C5 C 0.3510(2) 0.2530(2) 0.41985(12)
H8 H 0.4401 0.2145 0.4445
C6 C 0.3224(2) 0.1340(2) 0.38302(12)
H9 H 0.3957 0.1207 0.3362
H10 H 0.2270 0.1669 0.3654
C7 C 0.2053(2) -0.0137(2) 0.50639(12)
H11 H 0.1110 0.0295 0.4876
C8 C 0.3242(2) -0.0126(2) 0.43554(12)
H12 H 0.4190 -0.0425 0.4551
C9 C 0.1973(3) -0.1673(2) 0.54999(13)
H13 H 0.1305 -0.2088 0.5290
H14 H 0.2937 -0.2311 0.5450
C10 C 0.1418(3) -0.1496(2) 0.63477(13)
H15 H 0.0354 -0.1193 0.6437
H16 H 0.1703 -0.2404 0.6702
C11 C 0.2138(3) -0.0329(2) 0.64636(13)
H17 H 0.1572 0.0180 0.6892
H18 H 0.3124 -0.0741 0.6585
C12 C 0.2181(2) 0.0682(2) 0.56922(12)
C13 C 0.2228(2) 0.2066(2) 0.55945(12)
O1 O 0.29308(17) 0.44890(17) 0.31581(9)
C14 C 0.3806(3) 0.3739(2) 0.35443(13)
O2 O 0.51909(16) 0.38504(16) 0.34243(8)
C15 C 0.5606(3) 0.4945(2) 0.27916(13)
H19 H 0.6632 0.4946 0.2759
H20 H 0.5035 0.5891 0.2887
H21 H 0.5431 0.4742 0.2301
O3 O 0.19266(18) -0.09371(17) 0.35983(10)
C16 C 0.1755(3) -0.1844(3) 0.30792(16)
H22 H 0.0811 -0.1499 0.2906
H23 H 0.1822 -0.2836 0.3352
H24 H 0.2517 -0.1812 0.2626
O4 O 0.4123(2) -0.2171(2) 0.36977(14)
C17 C 0.3178(3) -0.1195(3) 0.38557(13)
C18 C 0.4625(2) 0.2277(3) 0.16391(12)
H25 H 0.4193 0.3283 0.1713
H26 H 0.5133 0.1789 0.2084
C19 C 0.3475(2) 0.1483(3) 0.15642(13)
H27 H 0.2561 0.1787 0.1907
H28 H 0.3800 0.0427 0.1692
C20 C 0.4838(2) 0.1985(2) 0.02702(12)
H29 H 0.5282 0.1014 0.0125
C21 C 0.3301(2) 0.1933(3) 0.07075(12)
H30 H 0.2658 0.2889 0.0622
H31 H 0.2892 0.1224 0.0529
C22 C 0.4862(2) 0.3093(2) -0.04767(12)
H32 H 0.4593 0.4072 -0.0322
C23 C 0.6333(2) 0.2985(2) -0.10014(12)
H33 H 0.6641 0.1997 -0.1129
H34 H 0.6211 0.3653 -0.1495
C24 C 0.7542(2) 0.3322(2) -0.06636(12)
H35 H 0.7178 0.4265 -0.0471
C25 C 0.8067(2) 0.2199(3) 0.00093(12)
H36 H 0.8183 0.1221 -0.0131
C26 C 0.9511(3) 0.2338(3) 0.02101(13)
H37 H 1.0333 0.1766 -0.0095
H38 H 0.9616 0.3357 0.0102
C27 C 0.9436(3) 0.1755(3) 0.10766(13)
H39 H 0.9646 0.0689 0.1172
H40 H 1.0118 0.2108 0.1309
C28 C 0.7881(2) 0.2355(3) 0.13963(13)
H41 H 0.7563 0.1766 0.1895
H42 H 0.7766 0.3361 0.1480
C29 C 0.7036(2) 0.2280(2) 0.07741(12)
C30 C 0.5643(2) 0.2230(2) 0.08800(12)
O5 O 0.27054(19) 0.38829(18) -0.10716(10)
C31 C 0.3749(2) 0.2973(3) -0.09430(12)
O6 O 0.40534(16) 0.17139(18) -0.12072(9)
C32 C 0.3080(3) 0.1511(3) -0.16868(15)
H43 H 0.3354 0.0528 -0.1807
H44 H 0.3135 0.2200 -0.2172
H45 H 0.2092 0.1668 -0.1406
O7 O 0.88608(16) 0.48838(17) -0.15435(8)
C33 C 0.9906(3) 0.5203(3) -0.22214(14)
H46 H 0.9873 0.6243 -0.2337
H47 H 0.9682 0.4882 -0.2668
H48 H 1.0873 0.4700 -0.2119
O8 O 0.94931(17) 0.25444(18) -0.16607(9)
C34 C 0.8750(2) 0.3506(3) -0.13337(13)
loop_
_geom_bond_atom_site_label_1
_geom_bond_atom_site_label_2
_geom_bond_site_symmetry_1
_geom_bond_site_symmetry_2
C1 H1 1_555 1_555
H2 C1 1_555 1_555
C2 C1 1_555 1_555
H3 C2 1_555 1_555
H4 C2 1_555 1_555
C3 H5 1_555 1_555
C4 C2 1_555 1_555
H6 C4 1_555 1_555
H7 C4 1_555 1_555
C5 C3 1_555 1_555
H8 C5 1_555 1_555
C6 C5 1_555 1_555
H9 C6 1_555 1_555
H10 C6 1_555 1_555
C7 H11 1_555 1_555
C8 C6 1_555 1_555
H12 C8 1_555 1_555
C9 C7 1_555 1_555
H13 C9 1_555 1_555
H14 C9 1_555 1_555
C10 C9 1_555 1_555
H15 C10 1_555 1_555
H16 C10 1_555 1_555
C11 C10 1_555 1_555
H17 C11 1_555 1_555
H18 C11 1_555 1_555
C12 C7 1_555 1_555
C13 C1 1_555 1_555
O1 C14 1_555 1_555
C14 C5 1_555 1_555
O2 C14 1_555 1_555
C15 O2 1_555 1_555
H19 C15 1_555 1_555
H20 C15 1_555 1_555
H21 C15 1_555 1_555
O3 C16 1_555 1_555
C16 H22 1_555 1_555
H23 C16 1_555 1_555
H24 C16 1_555 1_555
O4 C17 1_555 1_555
C17 C8 1_555 1_555
C18 H25 1_555 1_555
H26 C18 1_555 1_555
C19 C18 1_555 1_555
H27 C19 1_555 1_555
H28 C19 1_555 1_555
C20 H29 1_555 1_555
C21 C19 1_555 1_555
H30 C21 1_555 1_555
H31 C21 1_555 1_555
C22 C20 1_555 1_555
H32 C22 1_555 1_555
C23 C22 1_555 1_555
H33 C23 1_555 1_555
H34 C23 1_555 1_555
C24 C23 1_555 1_555
H35 C24 1_555 1_555
C25 C24 1_555 1_555
H36 C25 1_555 1_555
C26 C25 1_555 1_555
H37 C26 1_555 1_555
H38 C26 1_555 1_555
C27 C26 1_555 1_555
H39 C27 1_555 1_555
H40 C27 1_555 1_555
C28 C27 1_555 1_555
H41 C28 1_555 1_555
H42 C28 1_555 1_555
C29 C25 1_555 1_555
C30 C18 1_555 1_555
O5 C31 1_555 1_555
C31 C22 1_555 1_555
O6 C31 1_555 1_555
C32 O6 1_555 1_555
H43 C32 1_555 1_555
H44 C32 1_555 1_555
H45 C32 1_555 1_555
O7 C33 1_555 1_555
C33 H46 1_555 1_555
H47 C33 1_555 1_555
H48 C33 1_555 1_555
O8 C34 1_555 1_555
C34 C24 1_555 1_555
C3 C4 1_555 1_555
C3 C13 1_555 1_555
C7 C8 1_555 1_555
C11 C12 1_555 1_555
C12 C13 1_555 1_555
O3 C17 1_555 1_555
C20 C21 1_555 1_555
C20 C30 1_555 1_555
C28 C29 1_555 1_555
C29 C30 1_555 1_555
O7 C34 1_555 1_555

#END
