
#######################################################################
#
#                 Cambridge Crystallographic Data Centre
#                                CCDC 
#
#######################################################################
#
# If this CIF has been generated from an entry in the Cambridge 
# Structural Database, then it will include bibliographic, chemical, 
# crystal, experimental, refinement or atomic coordinate data resulting 
# from the CCDC's data processing and validation procedures.
#
#######################################################################

data_NUCTIP
_chemical_formula_moiety         'C16 H21 Br1 O4'
_chemical_name_systematic        
'Methyl (1RS,2RS,3SR,7RS,8RS,12SR)-1-bromomethyl-14-oxa-13-oxotetracyclo[5.5.2.0^3,7^.0^8,12^]-tetradecane-2-carboxylate'
_symmetry_cell_setting           monoclinic
_symmetry_space_group_name_H-M   'P 21/n'
_symmetry_Int_Tables_number      14
_space_group_name_Hall           '-P 2yn'
loop_
_symmetry_equiv_pos_site_id
_symmetry_equiv_pos_as_xyz
1 x,y,z
2 1/2-x,1/2+y,1/2-z
3 -x,-y,-z
4 1/2+x,1/2-y,1/2+z
_cell_length_a                   9.3004(5)
_cell_length_b                   14.8301(9)
_cell_length_c                   11.6244(4)
_cell_angle_alpha                90
_cell_angle_beta                 108.528(3)
_cell_angle_gamma                90
_cell_volume                     1520.2
_exptl_crystal_colour            colorless
_exptl_crystal_description       needle
_chemical_melting_point          '158-159 deg.C'
_cell_formula_units_Z            4
loop_
_atom_site_label
_atom_site_type_symbol
_atom_site_fract_x
_atom_site_fract_y
_atom_site_fract_z
C1 C 0.1280(4) 0.3279(2) 0.4927(3)
C2 C -0.0064(4) 0.3775(3) 0.5134(4)
H1 H 0.0290 0.4181 0.5844
H2 H -0.0609 0.4137 0.4412
C3 C -0.1068(4) 0.3061(3) 0.5353(4)
H3 H -0.1955 0.2968 0.4620
H4 H -0.1437 0.3234 0.6033
C4 C -0.0116(4) 0.2190(3) 0.5668(4)
H5 H 0.0540 0.2181 0.6526
H6 H -0.0759 0.1643 0.5492
C5 C 0.0809(4) 0.2292(2) 0.4793(3)
H7 H 0.0098 0.2207 0.3950
C6 C 0.2214(4) 0.1697(2) 0.4926(3)
H8 H 0.2014 0.1312 0.4185
C7 C 0.3604(4) 0.2310(2) 0.5024(3)
C8 C 0.3194(4) 0.2946(2) 0.3885(3)
H9 H 0.2882 0.2570 0.3133
C9 C 0.4472(4) 0.3594(3) 0.3835(4)
H10 H 0.5196 0.3699 0.4656
H11 H 0.5031 0.3349 0.3307
C10 C 0.3641(5) 0.4461(3) 0.3307(4)
H12 H 0.3176 0.4416 0.2416
H13 H 0.4334 0.4986 0.3500
C11 C 0.2432(5) 0.4532(3) 0.3935(4)
H14 H 0.1609 0.4948 0.3492
H15 H 0.2875 0.4746 0.4781
C12 C 0.1847(4) 0.3564(2) 0.3898(3)
H16 H 0.1007 0.3477 0.3117
O1 O 0.2563(3) 0.33812(17) 0.6076(2)
C13 C 0.3839(4) 0.2938(2) 0.6092(3)
O2 O 0.5013(3) 0.30900(18) 0.6885(2)
C14 C 0.5070(4) 0.1785(3) 0.5197(3)
H17 H 0.5286 0.1409 0.5937
H18 H 0.5919 0.2215 0.5318
Br1 Br 0.49573(6) 0.10095(3) 0.38122(4)
C15 C 0.2480(4) 0.1085(2) 0.6027(3)
O3 O 0.3331(3) 0.1237(2) 0.7022(2)
O4 O 0.1563(3) 0.03732(17) 0.5745(2)
C16 C 0.1547(5) -0.0197(3) 0.6755(4)
H19 H 0.0712 -0.0630 0.6485
H20 H 0.1408 0.0177 0.7407
H21 H 0.2511 -0.0523 0.7057
loop_
_geom_bond_atom_site_label_1
_geom_bond_atom_site_label_2
_geom_bond_site_symmetry_1
_geom_bond_site_symmetry_2
C1 C2 1_555 1_555
C2 H1 1_555 1_555
H2 C2 1_555 1_555
C3 C2 1_555 1_555
H3 C3 1_555 1_555
H4 C3 1_555 1_555
C4 C3 1_555 1_555
H5 C4 1_555 1_555
H6 C4 1_555 1_555
C5 C1 1_555 1_555
H7 C5 1_555 1_555
C6 C5 1_555 1_555
H8 C6 1_555 1_555
C7 C6 1_555 1_555
C8 C7 1_555 1_555
H9 C8 1_555 1_555
C9 C8 1_555 1_555
H10 C9 1_555 1_555
H11 C9 1_555 1_555
C10 C9 1_555 1_555
H12 C10 1_555 1_555
H13 C10 1_555 1_555
C11 C10 1_555 1_555
H14 C11 1_555 1_555
H15 C11 1_555 1_555
C12 C1 1_555 1_555
H16 C12 1_555 1_555
O1 C1 1_555 1_555
C13 C7 1_555 1_555
O2 C13 1_555 1_555
C14 C7 1_555 1_555
H17 C14 1_555 1_555
H18 C14 1_555 1_555
Br1 C14 1_555 1_555
C15 C6 1_555 1_555
O3 C15 1_555 1_555
O4 C15 1_555 1_555
C16 O4 1_555 1_555
H19 C16 1_555 1_555
H20 C16 1_555 1_555
H21 C16 1_555 1_555
C4 C5 1_555 1_555
C8 C12 1_555 1_555
C11 C12 1_555 1_555
O1 C13 1_555 1_555

#END
