
#######################################################################
#
#                 Cambridge Crystallographic Data Centre
#                                CCDC 
#
#######################################################################
#
# If this CIF has been generated from an entry in the Cambridge 
# Structural Database, then it will include bibliographic, chemical, 
# crystal, experimental, refinement or atomic coordinate data resulting 
# from the CCDC's data processing and validation procedures.
#
#######################################################################

data_NUCYUH
_chemical_formula_moiety         'C17 H15 Cl1 N4 O3'
_chemical_name_systematic        
1-((6-chloropyridin-3-yl)methyl)-N-hydroxy-3-(4-methoxyphenyl)-1H-pyrazole-5-carboxamide
_symmetry_cell_setting           monoclinic
_symmetry_space_group_name_H-M   'C c'
_symmetry_Int_Tables_number      9
_space_group_name_Hall           'C -2yc'
loop_
_symmetry_equiv_pos_site_id
_symmetry_equiv_pos_as_xyz
1 x,y,z
2 x,-y,1/2+z
3 1/2+x,1/2+y,z
4 1/2+x,1/2-y,1/2+z
_cell_length_a                   9.2102(11)
_cell_length_b                   21.618(3)
_cell_length_c                   8.6897(11)
_cell_angle_alpha                90
_cell_angle_beta                 100.3643(18)
_cell_angle_gamma                90
_cell_volume                     1701.94
_cell_formula_units_Z            4
loop_
_atom_site_label
_atom_site_type_symbol
_atom_site_fract_x
_atom_site_fract_y
_atom_site_fract_z
C1 C -0.4154(6) -0.2041(2) -1.3425(5)
H1 H -0.4363 -0.1698 -1.4135
H2 H -0.4612 -0.2408 -1.3910
H3 H -0.3106 -0.2101 -1.3167
C2 C -0.4081(3) -0.30999(10) -0.8256(3)
C3 C -0.3364(3) -0.32245(13) -0.9478(3)
H4 H -0.2748 -0.3567 -0.9426
C4 C -0.3548(4) -0.28424(14) -1.0802(4)
H5 H -0.3061 -0.2930 -1.1626
C5 C -0.4465(3) -0.23345(12) -1.0862(3)
C6 C -0.5192(4) -0.22160(14) -0.9655(4)
H6 H -0.5822 -0.1877 -0.9709
C7 C -0.5004(4) -0.25887(13) -0.8375(4)
H7 H -0.5504 -0.2499 -0.7563
C8 C -0.3903(3) -0.34979(9) -0.6870(3)
C9 C -0.2774(2) -0.39175(9) -0.6314(3)
H8 H -0.1964 -0.4017 -0.6769
C10 C -0.3114(2) -0.41506(10) -0.4955(3)
C11 C -0.2286(2) -0.45846(10) -0.3807(3)
C12 C -0.5399(3) -0.40476(13) -0.3705(3)
H9 H -0.6045 -0.3704 -0.3583
H10 H -0.4850 -0.4155 -0.2679
C13 C -0.6300(3) -0.45904(12) -0.4388(3)
C14 C -0.5895(3) -0.51914(13) -0.4005(4)
H11 H -0.5084 -0.5270 -0.3225
C15 C -0.6672(3) -0.56734(13) -0.4761(4)
H12 H -0.6411 -0.6081 -0.4505
C16 C -0.7855(3) -0.55343(12) -0.5917(3)
C17 C -0.7540(3) -0.45087(12) -0.5534(3)
H13 H -0.7853 -0.4106 -0.5786
Cl1 Cl -0.88204(8) -0.61276(3) -0.69885(9)
N1 N -0.8313(2) -0.49719(10) -0.6302(3)
N2 N -0.4376(2) -0.38664(9) -0.4727(2)
N3 N -0.4895(2) -0.34756(9) -0.5921(2)
N4 N -0.1413(2) -0.49611(9) -0.4424(2)
H14 H -0.1323 -0.4919 -0.5387
O1 O -0.4702(3) -0.19167(11) -1.2075(3)
O2 O -0.2371(2) -0.45709(9) -0.2414(2)
O3 O -0.06404(19) -0.54248(8) -0.3517(2)
H15 H 0.0026 -0.5270 -0.2881
loop_
_geom_bond_atom_site_label_1
_geom_bond_atom_site_label_2
_geom_bond_site_symmetry_1
_geom_bond_site_symmetry_2
C1 H1 1_555 1_555
H2 C1 1_555 1_555
H3 C1 1_555 1_555
C2 C3 1_555 1_555
C3 H4 1_555 1_555
C4 C3 1_555 1_555
H5 C4 1_555 1_555
C5 C4 1_555 1_555
C6 C5 1_555 1_555
H6 C6 1_555 1_555
C7 C2 1_555 1_555
H7 C7 1_555 1_555
C8 C2 1_555 1_555
C9 C8 1_555 1_555
H8 C9 1_555 1_555
C10 C9 1_555 1_555
C11 C10 1_555 1_555
C12 H9 1_555 1_555
H10 C12 1_555 1_555
C13 C12 1_555 1_555
C14 C13 1_555 1_555
H11 C14 1_555 1_555
C15 C14 1_555 1_555
H12 C15 1_555 1_555
C16 C15 1_555 1_555
C17 C13 1_555 1_555
H13 C17 1_555 1_555
Cl1 C16 1_555 1_555
N1 C16 1_555 1_555
N2 C10 1_555 1_555
N3 C8 1_555 1_555
N4 C11 1_555 1_555
H14 N4 1_555 1_555
O1 C1 1_555 1_555
O2 C11 1_555 1_555
O3 N4 1_555 1_555
H15 O3 1_555 1_555
C5 O1 1_555 1_555
C6 C7 1_555 1_555
C12 N2 1_555 1_555
C17 N1 1_555 1_555
N2 N3 1_555 1_555

#END
