
#######################################################################
#
#                 Cambridge Crystallographic Data Centre
#                                CCDC 
#
#######################################################################
#
# If this CIF has been generated from an entry in the Cambridge 
# Structural Database, then it will include bibliographic, chemical, 
# crystal, experimental, refinement or atomic coordinate data resulting 
# from the CCDC's data processing and validation procedures.
#
#######################################################################

data_NUCZIW
_chemical_formula_moiety         'C17 H23 N5 O3 S1'
_chemical_name_systematic        
N^2^-(3-methoxyphenyl)-N^4^-(1-(methylsulfonyl)piperidin-4-yl)pyrimidine-2,4-diamine
_symmetry_cell_setting           triclinic
_symmetry_space_group_name_H-M   'P -1'
_symmetry_Int_Tables_number      2
_space_group_name_Hall           '-P 1'
loop_
_symmetry_equiv_pos_site_id
_symmetry_equiv_pos_as_xyz
1 x,y,z
2 -x,-y,-z
_cell_length_a                   7.9997(16)
_cell_length_b                   9.5775(19)
_cell_length_c                   12.184(2)
_cell_angle_alpha                90.85(3)
_cell_angle_beta                 95.99(3)
_cell_angle_gamma                92.66(3)
_cell_volume                     927.224
_cell_formula_units_Z            2
loop_
_atom_site_label
_atom_site_type_symbol
_atom_site_fract_x
_atom_site_fract_y
_atom_site_fract_z
S1 S 0.5062(2) 1.0004(2) 0.20635(13)
N1 N -0.0899(7) 0.6643(6) 0.4824(4)
N2 N 0.1433(6) 0.7848(6) 0.5638(4)
H1 H 0.1983 0.8224 0.6220
N3 N 0.4054(7) 0.9488(7) 0.3083(4)
N4 N -0.3263(6) 0.5377(6) 0.4000(4)
H2 H -0.4212 0.4968 0.4104
N5 N -0.3058(6) 0.5687(7) 0.5857(4)
O1 O 0.4170(6) 1.1114(6) 0.1544(4)
C1 C 0.2144(7) 0.8019(7) 0.4588(5)
H3 H 0.1820 0.7180 0.4131
O2 O 0.6784(6) 1.0235(6) 0.2483(4)
C2 C 0.4021(7) 0.8143(8) 0.4765(5)
H4 H 0.4442 0.7324 0.5141
H5 H 0.4377 0.8958 0.5227
C3 C -0.2374(8) 0.5919(8) 0.4917(5)
C4 C 0.4739(8) 0.8273(8) 0.3675(5)
H6 H 0.5956 0.8387 0.3797
H7 H 0.4453 0.7428 0.3232
C5 C -0.0597(8) 0.6932(8) 0.6774(5)
H8 H 0.0009 0.7256 0.7429
C6 C -0.0015(9) 0.7148(7) 0.5748(5)
C7 C -0.1825(8) 0.6325(8) 0.2479(5)
H9 H -0.1259 0.7009 0.2946
C8 C -0.2890(8) 0.5371(8) 0.2896(5)
O3 O -0.0505(7) 0.7302(7) 0.1036(4)
C9 C 0.2203(8) 0.9401(8) 0.2886(5)
H10 H 0.1837 0.8593 0.2418
H11 H 0.1814 1.0230 0.2510
C10 C -0.2110(9) 0.6216(9) 0.6756(5)
H12 H -0.2530 0.6079 0.7432
C11 C 0.1466(8) 0.9280(8) 0.3962(5)
H13 H 0.0249 0.9175 0.3827
H14 H 0.1751 1.0125 0.4403
C12 C -0.3742(9) 0.4361(9) 0.2194(6)
H15 H -0.4470 0.3700 0.2468
C13 C -0.1564(9) 0.6295(10) 0.1364(5)
C14 C 0.4968(11) 0.8594(10) 0.1100(5)
H16 H 0.5596 0.8852 0.0499
H17 H 0.3816 0.8373 0.0824
H18 H 0.5439 0.7793 0.1455
C15 C -0.2412(10) 0.5321(11) 0.0668(6)
H19 H -0.2269 0.5304 -0.0080
C16 C -0.3510(10) 0.4339(10) 0.1106(6)
H20 H -0.4089 0.3660 0.0641
C17 C -0.0473(11) 0.7540(12) -0.0106(6)
H21 H -0.0073 0.6733 -0.0454
H22 H 0.0264 0.8338 -0.0205
H23 H -0.1588 0.7711 -0.0432
loop_
_geom_bond_atom_site_label_1
_geom_bond_atom_site_label_2
_geom_bond_site_symmetry_1
_geom_bond_site_symmetry_2
S1 N3 1_555 1_555
N1 C3 1_555 1_555
N2 H1 1_555 1_555
N3 C4 1_555 1_555
N4 H2 1_555 1_555
N5 C3 1_555 1_555
O1 S1 1_555 1_555
C1 N2 1_555 1_555
H3 C1 1_555 1_555
O2 S1 1_555 1_555
C2 C1 1_555 1_555
H4 C2 1_555 1_555
H5 C2 1_555 1_555
C3 N4 1_555 1_555
C4 C2 1_555 1_555
H6 C4 1_555 1_555
H7 C4 1_555 1_555
C5 H8 1_555 1_555
C6 N1 1_555 1_555
C7 H9 1_555 1_555
C8 N4 1_555 1_555
O3 C13 1_555 1_555
C9 N3 1_555 1_555
H10 C9 1_555 1_555
H11 C9 1_555 1_555
C10 N5 1_555 1_555
H12 C10 1_555 1_555
C11 C1 1_555 1_555
H13 C11 1_555 1_555
H14 C11 1_555 1_555
C12 C8 1_555 1_555
H15 C12 1_555 1_555
C13 C7 1_555 1_555
C14 S1 1_555 1_555
H16 C14 1_555 1_555
H17 C14 1_555 1_555
H18 C14 1_555 1_555
C15 C13 1_555 1_555
H19 C15 1_555 1_555
C16 C12 1_555 1_555
H20 C16 1_555 1_555
C17 O3 1_555 1_555
H21 C17 1_555 1_555
H22 C17 1_555 1_555
H23 C17 1_555 1_555
N2 C6 1_555 1_555
C5 C6 1_555 1_555
C5 C10 1_555 1_555
C7 C8 1_555 1_555
C9 C11 1_555 1_555
C15 C16 1_555 1_555

#END
