
#######################################################################
#
#                 Cambridge Crystallographic Data Centre
#                                CCDC 
#
#######################################################################
#
# If this CIF has been generated from an entry in the Cambridge 
# Structural Database, then it will include bibliographic, chemical, 
# crystal, experimental, refinement or atomic coordinate data resulting 
# from the CCDC's data processing and validation procedures.
#
#######################################################################

data_NUDBOE
_chemical_formula_moiety         'C21 H26 O3'
_chemical_name_systematic        bis(5-Cyclohexyl-3-furyl)methanone
_symmetry_cell_setting           monoclinic
_symmetry_space_group_name_H-M   'C 2/c'
_symmetry_Int_Tables_number      15
_space_group_name_Hall           '-C 2yn'
loop_
_symmetry_equiv_pos_site_id
_symmetry_equiv_pos_as_xyz
1 x,y,z
2 -x,y,1/2-z
3 1/2+x,1/2+y,z
4 1/2-x,1/2+y,1/2-z
5 -x,-y,-z
6 x,-y,1/2+z
7 1/2-x,1/2-y,-z
8 1/2+x,1/2-y,1/2+z
_cell_length_a                   16.413(3)
_cell_length_b                   5.9653(10)
_cell_length_c                   19.487(4)
_cell_angle_alpha                90
_cell_angle_beta                 111.155(6)
_cell_angle_gamma                90
_cell_volume                     1779.36
_exptl_crystal_colour            colorless
_exptl_crystal_description       needle
_chemical_melting_point          '188 deg.C'
_cell_formula_units_Z            4
loop_
_atom_site_label
_atom_site_type_symbol
_atom_site_fract_x
_atom_site_fract_y
_atom_site_fract_z
C1 C 1.0000 0.7300(4) 0.7500
C2 C 0.7877(2) 1.0091(4) 0.44268(13)
H1 H 0.7494 0.9090 0.4572
H2 H 0.7837 1.1590 0.4618
C3 C 0.88146(16) 0.9254(4) 0.47613(12)
H3 H 0.9192 1.0346 0.4634
C4 C 0.89088(18) 0.7006(4) 0.44276(13)
H4 H 0.8569 0.5871 0.4572
H5 H 0.9523 0.6546 0.4622
C5 C 0.8595(2) 0.7121(5) 0.35893(14)
H6 H 0.8978 0.8124 0.3445
H7 H 0.8630 0.5626 0.3393
C6 C 0.7676(2) 0.7952(5) 0.32666(15)
H8 H 0.7284 0.6849 0.3357
H9 H 0.7510 0.8113 0.2733
C7 C 0.7569(2) 1.0185(5) 0.35942(15)
H10 H 0.6952 1.0623 0.3396
H11 H 0.7904 1.1330 0.3449
C8 C 0.91179(16) 0.9123(3) 0.55769(12)
C9 C 0.94595(15) 0.7519(3) 0.60854(11)
H12 H 0.9559 0.6018 0.5992
C10 C 0.93839(16) 1.0661(3) 0.66634(12)
H13 H 0.9417 1.1718 0.7030
C11 C 0.96438(14) 0.8511(3) 0.67939(11)
O1 O 0.90701(12) 1.1094(2) 0.59360(9)
O2 O 1.0000 0.5257(4) 0.7500
C2A C 1.2123(2) 1.0091(4) 1.05732(13)
H1A H 1.2506 0.9090 1.0428
H2A H 1.2163 1.1590 1.0382
C3A C 1.11854(16) 0.9254(4) 1.02387(12)
H3A H 1.0808 1.0346 1.0366
C4A C 1.10912(18) 0.7006(4) 1.05724(13)
H4A H 1.1431 0.5871 1.0428
H5A H 1.0477 0.6546 1.0378
C5A C 1.1405(2) 0.7121(5) 1.14107(14)
H6A H 1.1022 0.8124 1.1555
H7A H 1.1370 0.5626 1.1607
C6A C 1.2324(2) 0.7952(5) 1.17334(15)
H8A H 1.2716 0.6849 1.1643
H9A H 1.2490 0.8113 1.2267
C7A C 1.2431(2) 1.0185(5) 1.14058(15)
H10A H 1.3048 1.0623 1.1604
H11A H 1.2096 1.1330 1.1551
C8A C 1.08821(16) 0.9123(3) 0.94231(12)
C9A C 1.05405(15) 0.7519(3) 0.89146(11)
H12A H 1.0441 0.6018 0.9008
C10A C 1.06161(16) 1.0661(3) 0.83366(12)
H13A H 1.0583 1.1718 0.7970
C11A C 1.03562(14) 0.8511(3) 0.82061(11)
O1A O 1.09299(12) 1.1094(2) 0.90640(9)
loop_
_geom_bond_atom_site_label_1
_geom_bond_atom_site_label_2
_geom_bond_site_symmetry_1
_geom_bond_site_symmetry_2
C1 C11 1_555 1_555
C2 H1 1_555 1_555
H2 C2 1_555 1_555
C3 C2 1_555 1_555
H3 C3 1_555 1_555
C4 C3 1_555 1_555
H4 C4 1_555 1_555
H5 C4 1_555 1_555
C5 C4 1_555 1_555
H6 C5 1_555 1_555
H7 C5 1_555 1_555
C6 C5 1_555 1_555
H8 C6 1_555 1_555
H9 C6 1_555 1_555
C7 C2 1_555 1_555
H10 C7 1_555 1_555
H11 C7 1_555 1_555
C8 C3 1_555 1_555
C9 C8 1_555 1_555
H12 C9 1_555 1_555
C10 H13 1_555 1_555
C11 C9 1_555 1_555
O1 C8 1_555 1_555
O2 C1 1_555 1_555
C2A H1A 1_555 1_555
H2A C2A 1_555 1_555
C3A C2A 1_555 1_555
H3A C3A 1_555 1_555
C4A C3A 1_555 1_555
H4A C4A 1_555 1_555
H5A C4A 1_555 1_555
C5A C4A 1_555 1_555
H6A C5A 1_555 1_555
H7A C5A 1_555 1_555
C6A C5A 1_555 1_555
H8A C6A 1_555 1_555
H9A C6A 1_555 1_555
C7A C2A 1_555 1_555
H10A C7A 1_555 1_555
H11A C7A 1_555 1_555
C8A C3A 1_555 1_555
C9A C8A 1_555 1_555
H12A C9A 1_555 1_555
C10A H13A 1_555 1_555
C11A C1 1_555 1_555
O1A C8A 1_555 1_555
C6 C7 1_555 1_555
C10 C11 1_555 1_555
C10 O1 1_555 1_555
C6A C7A 1_555 1_555
C9A C11A 1_555 1_555
C10A C11A 1_555 1_555
C10A O1A 1_555 1_555

#END
