
#######################################################################
#
#                 Cambridge Crystallographic Data Centre
#                                CCDC 
#
#######################################################################
#
# If this CIF has been generated from an entry in the Cambridge 
# Structural Database, then it will include bibliographic, chemical, 
# crystal, experimental, refinement or atomic coordinate data resulting 
# from the CCDC's data processing and validation procedures.
#
#######################################################################

data_NUDCOF
_chemical_formula_moiety         'C37 H27 N5 O3'
_chemical_name_systematic        
4,4'-(5-Hydroxy-5-(pyridin-2-yl)-2,4-bis(pyridin-2-ylcarbonyl)cyclohexane-1,3-diyl)dibenzonitrile
_symmetry_cell_setting           triclinic
_symmetry_space_group_name_H-M   'P -1'
_symmetry_Int_Tables_number      2
_space_group_name_Hall           '-P 1'
loop_
_symmetry_equiv_pos_site_id
_symmetry_equiv_pos_as_xyz
1 x,y,z
2 -x,-y,-z
_cell_length_a                   9.8089(4)
_cell_length_b                   11.1946(4)
_cell_length_c                   14.5862(6)
_cell_angle_alpha                71.544(2)
_cell_angle_beta                 88.809(2)
_cell_angle_gamma                80.093(2)
_cell_volume                     1495.66
_exptl_crystal_colour            colorless
_exptl_crystal_description       plate
_chemical_melting_point          197-200deg.C
_cell_formula_units_Z            2
_exptl_crystal_recrystallization_method chloroform/methanol
loop_
_atom_site_label
_atom_site_type_symbol
_atom_site_fract_x
_atom_site_fract_y
_atom_site_fract_z
O1 O 0.54688(9) 0.62983(9) 0.33540(7)
O2 O 0.34808(10) 0.53307(11) 0.46786(7)
O3 O 0.38926(10) 0.37793(10) 0.15327(7)
N1 N 0.26372(12) 0.73920(11) 0.15785(9)
N2 N 0.07271(11) 0.56392(11) 0.30826(8)
N3 N 0.14098(17) -0.14051(14) 0.55853(11)
N4 N 0.65564(17) 0.11226(13) 0.22967(10)
N5 N 1.15591(14) 0.26941(13) -0.05213(10)
C1 C 0.45724(11) 0.61443(11) 0.26614(8)
C2 C 0.37073(11) 0.50730(10) 0.31197(8)
C3 C 0.46403(11) 0.37569(10) 0.35286(8)
C4 C 0.56297(11) 0.34073(11) 0.27758(8)
C5 C 0.64605(11) 0.45107(11) 0.23294(8)
C6 C 0.54934(12) 0.57913(11) 0.18874(8)
C7 C 0.35830(13) 0.74043(11) 0.22129(9)
C8 C 0.3680(2) 0.84918(15) 0.24544(13)
C9 C 0.2706(3) 0.95859(17) 0.20481(17)
C10 C 0.1680(2) 0.95579(16) 0.14339(15)
C11 C 0.16992(18) 0.84560(15) 0.12086(14)
C12 C 0.28919(11) 0.54000(11) 0.39317(8)
C13 C 0.13652(11) 0.58561(11) 0.37996(8)
C14 C 0.07015(14) 0.64599(14) 0.44214(11)
C15 C -0.07171(15) 0.68669(16) 0.42899(14)
C16 C -0.13930(14) 0.66657(16) 0.35572(13)
C17 C -0.06425(14) 0.60523(16) 0.29738(12)
C18 C 0.38336(11) 0.26954(11) 0.39982(8)
C19 C 0.26747(13) 0.25216(13) 0.35436(9)
C20 C 0.20380(14) 0.14746(13) 0.39584(10)
C21 C 0.25311(13) 0.05988(12) 0.48481(9)
C22 C 0.18913(16) -0.05118(14) 0.52652(11)
C23 C 0.36358(13) 0.07904(12) 0.53314(9)
C24 C 0.42803(12) 0.18298(12) 0.49043(8)
C25 C 0.49284(13) 0.31080(11) 0.19756(8)
C26 C 0.55969(15) 0.19724(12) 0.16904(9)
C27 C 0.5225(2) 0.18961(17) 0.07960(12)
C28 C 0.5910(3) 0.0891(2) 0.05176(16)
C29 C 0.6879(3) -0.0004(2) 0.1141(2)
C30 C 0.7170(3) 0.01384(19) 0.20144(17)
C31 C 0.75450(11) 0.41591(11) 0.16585(8)
C32 C 0.72895(13) 0.44265(13) 0.06733(9)
C33 C 0.83004(13) 0.40544(13) 0.00887(9)
C34 C 0.95999(13) 0.34231(11) 0.04967(9)
C35 C 1.06846(14) 0.30337(13) -0.00881(10)
C36 C 0.98778(14) 0.31580(14) 0.14772(10)
C37 C 0.88537(13) 0.35185(13) 0.20516(9)
H1 H 0.5250 0.5956 0.3904
H2 H 0.3043 0.5046 0.2615
H3 H 0.5236 0.3822 0.4042
H4 H 0.6297 0.2631 0.3101
H5 H 0.6972 0.4589 0.2863
H6 H 0.4926 0.5771 0.1361
H7 H 0.6059 0.6480 0.1622
H8 H 0.4384 0.8476 0.2902
H9 H 0.2768 1.0327 0.2211
H10 H 0.0973 1.0268 0.1151
H11 H 0.1006 0.8448 0.0750
H12 H 0.1196 0.6604 0.4894
H13 H -0.1186 0.7285 0.4689
H14 H -0.2362 0.6911 0.3468
H15 H -0.1106 0.5914 0.2463
H16 H 0.2332 0.3127 0.2946
H17 H 0.1292 0.1360 0.3641
H18 H 0.3956 0.0206 0.5953
H19 H 0.5019 0.1959 0.5241
H20 H 0.4503 0.2507 0.0380
H21 H 0.5666 0.0800 -0.0108
H22 H 0.7314 -0.0726 0.0952
H23 H 0.7871 -0.0451 0.2458
H24 H 0.6442 0.4851 0.0403
H25 H 0.8101 0.4219 -0.0581
H26 H 1.0756 0.2767 0.1754
H27 H 0.9026 0.3327 0.2703
loop_
_geom_bond_atom_site_label_1
_geom_bond_atom_site_label_2
_geom_bond_site_symmetry_1
_geom_bond_site_symmetry_2
O1 C1 1_555 1_555
O2 C12 1_555 1_555
O3 C25 1_555 1_555
N1 C7 1_555 1_555
N2 C13 1_555 1_555
N3 C22 1_555 1_555
N4 C26 1_555 1_555
N5 C35 1_555 1_555
C1 C2 1_555 1_555
C2 C3 1_555 1_555
C3 C4 1_555 1_555
C4 C5 1_555 1_555
C5 C6 1_555 1_555
C6 C1 1_555 1_555
C7 C1 1_555 1_555
C8 C7 1_555 1_555
C9 C8 1_555 1_555
C10 C9 1_555 1_555
C11 N1 1_555 1_555
C12 C2 1_555 1_555
C13 C12 1_555 1_555
C14 C13 1_555 1_555
C15 C14 1_555 1_555
C16 C15 1_555 1_555
C17 N2 1_555 1_555
C18 C3 1_555 1_555
C19 C18 1_555 1_555
C20 C19 1_555 1_555
C21 C20 1_555 1_555
C22 C21 1_555 1_555
C23 C21 1_555 1_555
C24 C18 1_555 1_555
C25 C4 1_555 1_555
C26 C25 1_555 1_555
C27 C26 1_555 1_555
C28 C27 1_555 1_555
C29 C28 1_555 1_555
C30 N4 1_555 1_555
C31 C5 1_555 1_555
C32 C31 1_555 1_555
C33 C32 1_555 1_555
C34 C33 1_555 1_555
C35 C34 1_555 1_555
C36 C34 1_555 1_555
C37 C31 1_555 1_555
H1 O1 1_555 1_555
H2 C2 1_555 1_555
H3 C3 1_555 1_555
H4 C4 1_555 1_555
H5 C5 1_555 1_555
H6 C6 1_555 1_555
H7 C6 1_555 1_555
H8 C8 1_555 1_555
H9 C9 1_555 1_555
H10 C10 1_555 1_555
H11 C11 1_555 1_555
H12 C14 1_555 1_555
H13 C15 1_555 1_555
H14 C16 1_555 1_555
H15 C17 1_555 1_555
H16 C19 1_555 1_555
H17 C20 1_555 1_555
H18 C23 1_555 1_555
H19 C24 1_555 1_555
H20 C27 1_555 1_555
H21 C28 1_555 1_555
H22 C29 1_555 1_555
H23 C30 1_555 1_555
H24 C32 1_555 1_555
H25 C33 1_555 1_555
H26 C36 1_555 1_555
H27 C37 1_555 1_555
C10 C11 1_555 1_555
C16 C17 1_555 1_555
C23 C24 1_555 1_555
C29 C30 1_555 1_555
C36 C37 1_555 1_555

#END
