
#######################################################################
#
#                 Cambridge Crystallographic Data Centre
#                                CCDC 
#
#######################################################################
#
# If this CIF has been generated from an entry in the Cambridge 
# Structural Database, then it will include bibliographic, chemical, 
# crystal, experimental, refinement or atomic coordinate data resulting 
# from the CCDC's data processing and validation procedures.
#
#######################################################################

data_NUDPEI
_chemical_formula_moiety         'C18 H21 N2 O1 1+,Cl1 1-'
_chemical_name_systematic        
'(2R,3S)-(2-Hydroxy-3-indol-1-yl-3-phenylpropyl)methylammonium chloride'
_chemical_properties_biological  'potent norepinephrine reuptake inhibitor'
_symmetry_cell_setting           orthorhombic
_symmetry_space_group_name_H-M   'P 21 21 21'
_symmetry_Int_Tables_number      19
_space_group_name_Hall           'P 2ac 2ab'
loop_
_symmetry_equiv_pos_site_id
_symmetry_equiv_pos_as_xyz
1 x,y,z
2 1/2-x,-y,1/2+z
3 -x,1/2+y,1/2-z
4 1/2+x,1/2-y,-z
_cell_length_a                   5.9789(3)
_cell_length_b                   9.6250(5)
_cell_length_c                   29.0252(16)
_cell_angle_alpha                90
_cell_angle_beta                 90
_cell_angle_gamma                90
_cell_volume                     1670.31
_exptl_crystal_colour            orange
_exptl_crystal_description       blade
_cell_formula_units_Z            4
_exptl_crystal_recrystallization_method 'methanol / diethyl ether'
loop_
_atom_site_label
_atom_site_type_symbol
_atom_site_fract_x
_atom_site_fract_y
_atom_site_fract_z
O1 O 0.8387(4) 0.2876(3) 0.19142(8)
H1 H 0.8029(74) 0.3607(47) 0.2068(15)
N1 N 0.7510(5) 0.0145(3) 0.21459(10)
H2 H 0.6448(81) 0.0261(48) 0.2320(15)
H3 H 0.8626(83) 0.0417(51) 0.2235(15)
N2 N 0.4529(5) 0.1980(3) 0.09688(9)
C1 C 0.7003(6) 0.0693(3) 0.16791(11)
H4 H 0.5710 0.0191 0.15462
H5 H 0.8307 0.0555 0.14737
C2 C 0.6468(5) 0.2236(3) 0.17192(10)
H6 H 0.5158 0.2368 0.19289
C3 C 0.5959(5) 0.2892(3) 0.12466(11)
H7 H 0.7417 0.2975 0.10802
C4 C 0.7812(7) -0.1387(4) 0.21522(14)
H8 H 0.8265 -0.1683 0.2462
H9 H 0.8971 -0.1649 0.1930
H10 H 0.6399 -0.1840 0.2069
C5 C 0.5011(5) 0.4358(3) 0.12914(10)
C6 C 0.3045(6) 0.4616(4) 0.15340(12)
H11 H 0.2273 0.3868 0.16765
C7 C 0.2198(7) 0.5960(4) 0.15697(14)
H12 H 0.0860 0.6123 0.17375
C8 C 0.3289(8) 0.7051(4) 0.1364(2)
H13 H 0.2708 0.7967 0.1388
C9 C 0.5217(9) 0.6808(4) 0.1123(2)
H14 H 0.5962 0.7559 0.0977
C10 C 0.6104(7) 0.5468(4) 0.10914(13)
H15 H 0.7468 0.5320 0.09308
C11 C 0.2530(6) 0.1412(4) 0.11070(12)
H16 H 0.1710 0.1692 0.13715
C12 C 0.1892(6) 0.0387(4) 0.08100(12)
H17 H 0.0577 -0.0163 0.08304
C13 C 0.3582(6) 0.0298(4) 0.04622(11)
C14 C 0.3905(7) -0.0557(4) 0.00770(13)
H18 H 0.2845 -0.1256 0.00013
C15 C 0.5790(8) -0.0367(5) -0.01907(14)
H19 H 0.6030 -0.0946 -0.04510
C16 C 0.7350(8) 0.0665(4) -0.00844(12)
H20 H 0.8617 0.0781 -0.02781
C17 C 0.7104(6) 0.1524(4) 0.02952(12)
H21 H 0.8165 0.2228 0.03654
C18 C 0.5213(6) 0.1304(3) 0.05699(10)
Cl1 Cl 0.25522(12) 0.03370(8) 0.24490(3)
loop_
_geom_bond_atom_site_label_1
_geom_bond_atom_site_label_2
_geom_bond_site_symmetry_1
_geom_bond_site_symmetry_2
O1 H1 1_555 1_555
N1 H2 1_555 1_555
H3 N1 1_555 1_555
N2 C3 1_555 1_555
C1 N1 1_555 1_555
H4 C1 1_555 1_555
H5 C1 1_555 1_555
C2 O1 1_555 1_555
H6 C2 1_555 1_555
C3 C2 1_555 1_555
H7 C3 1_555 1_555
C4 N1 1_555 1_555
H8 C4 1_555 1_555
H9 C4 1_555 1_555
H10 C4 1_555 1_555
C5 C3 1_555 1_555
C6 C5 1_555 1_555
H11 C6 1_555 1_555
C7 C6 1_555 1_555
H12 C7 1_555 1_555
C8 C7 1_555 1_555
H13 C8 1_555 1_555
C9 C8 1_555 1_555
H14 C9 1_555 1_555
C10 C5 1_555 1_555
H15 C10 1_555 1_555
C11 N2 1_555 1_555
H16 C11 1_555 1_555
C12 C11 1_555 1_555
H17 C12 1_555 1_555
C13 C12 1_555 1_555
C14 C13 1_555 1_555
H18 C14 1_555 1_555
C15 C14 1_555 1_555
H19 C15 1_555 1_555
C16 C15 1_555 1_555
H20 C16 1_555 1_555
C17 C16 1_555 1_555
H21 C17 1_555 1_555
C18 N2 1_555 1_555
C1 C2 1_555 1_555
C9 C10 1_555 1_555
C13 C18 1_555 1_555
C17 C18 1_555 1_555

#END
