
#######################################################################
#
#                 Cambridge Crystallographic Data Centre
#                                CCDC 
#
#######################################################################
#
# If this CIF has been generated from an entry in the Cambridge 
# Structural Database, then it will include bibliographic, chemical, 
# crystal, experimental, refinement or atomic coordinate data resulting 
# from the CCDC's data processing and validation procedures.
#
#######################################################################

data_NUDPAF
_chemical_formula_moiety         'H4 B5 O10 1-,C5 H11 N2 1+'
_chemical_name_systematic        
'2-Methyl-3,4,5,6-tetrahydropyrimidin-1-ium tetrahydroxypentaborate'
_symmetry_cell_setting           monoclinic
_symmetry_space_group_name_H-M   'P 21/c'
_symmetry_Int_Tables_number      14
_space_group_name_Hall           '-P 2ybc'
loop_
_symmetry_equiv_pos_site_id
_symmetry_equiv_pos_as_xyz
1 x,y,z
2 -x,1/2+y,1/2-z
3 -x,-y,-z
4 x,1/2-y,1/2+z
_cell_length_a                   9.3384(3)
_cell_length_b                   17.3774(5)
_cell_length_c                   9.1886(3)
_cell_angle_alpha                90
_cell_angle_beta                 93.172(3)
_cell_angle_gamma                90
_cell_volume                     1488.81
_exptl_crystal_colour            colorless
_exptl_crystal_description       block
_cell_formula_units_Z            4
loop_
_atom_site_label
_atom_site_type_symbol
_atom_site_fract_x
_atom_site_fract_y
_atom_site_fract_z
B1 B 0.4525(2) 0.08931(12) 0.6277(2)
B2 B 0.5351(2) 0.19670(14) 0.7689(3)
B3 B 0.7061(2) 0.12951(12) 0.6129(2)
B4 B 0.9606(2) 0.09101(11) 0.6102(2)
B5 B 0.8707(2) 0.17906(11) 0.4317(2)
O1 O 0.58517(12) 0.07759(7) 0.58039(14)
O2 O 0.42444(13) 0.14953(8) 0.71826(16)
O3 O 0.66954(12) 0.18644(7) 0.72397(14)
O4 O 0.73743(12) 0.17143(7) 0.47864(13)
O5 O 0.83058(12) 0.08532(7) 0.66594(13)
O6 O 0.98539(13) 0.13978(8) 0.49614(14)
O7 O 0.34135(13) 0.04194(8) 0.58958(17)
H1 H 0.3684 0.0084 0.5348
O8 O 0.50249(15) 0.25241(10) 0.8635(2)
H2 H 0.5755 0.2760 0.8895
O9 O 0.89885(14) 0.22697(8) 0.31887(14)
H3 H 0.8243 0.2477 0.2882
O10 O 1.06703(13) 0.04624(8) 0.67141(16)
H4 H 1.1439 0.0588 0.6395
C1 C 0.2344(3) 0.09491(19) 0.2186(3)
H5 H 0.2839 0.0484 0.2514
H6 H 0.2393 0.1315 0.2985
C2 C 0.3074(4) 0.1279(2) 0.0922(4)
H7 H 0.3209 0.0881 0.0204
H8 H 0.4010 0.1475 0.1249
C3 C 0.2187(3) 0.19184(18) 0.0246(4)
H9 H 0.2236 0.2365 0.0881
H10 H 0.2564 0.2063 -0.0678
C4 C -0.1415(3) 0.09307(17) 0.0474(3)
H11 H -0.1662 0.0501 0.1067
H12 H -0.1574 0.0798 -0.0537
H13 H -0.2002 0.1364 0.0694
C5 C 0.0111(3) 0.11287(13) 0.0776(2)
N1 N 0.0861(2) 0.07712(11) 0.1797(2)
H14 H 0.0455 0.0410 0.2265
N2 N 0.0708(2) 0.16735(12) 0.0014(2)
H15 H 0.0188 0.1897 -0.0663
loop_
_geom_bond_atom_site_label_1
_geom_bond_atom_site_label_2
_geom_bond_site_symmetry_1
_geom_bond_site_symmetry_2
B1 O1 1_555 1_555
B2 O2 1_555 1_555
B3 O1 1_555 1_555
B4 O5 1_555 1_555
B5 O4 1_555 1_555
O2 B1 1_555 1_555
O3 B2 1_555 1_555
O4 B3 1_555 1_555
O5 B3 1_555 1_555
O6 B4 1_555 1_555
O7 B1 1_555 1_555
H1 O7 1_555 1_555
O8 B2 1_555 1_555
H2 O8 1_555 1_555
O9 B5 1_555 1_555
H3 O9 1_555 1_555
O10 B4 1_555 1_555
H4 O10 1_555 1_555
C1 H5 1_555 1_555
H6 C1 1_555 1_555
C2 C1 1_555 1_555
H7 C2 1_555 1_555
H8 C2 1_555 1_555
C3 C2 1_555 1_555
H9 C3 1_555 1_555
H10 C3 1_555 1_555
C4 H11 1_555 1_555
H12 C4 1_555 1_555
H13 C4 1_555 1_555
C5 C4 1_555 1_555
N1 C1 1_555 1_555
H14 N1 1_555 1_555
N2 C3 1_555 1_555
H15 N2 1_555 1_555
B3 O3 1_555 1_555
B5 O6 1_555 1_555
C5 N1 1_555 1_555
C5 N2 1_555 1_555

#END
