
#######################################################################
#
#                 Cambridge Crystallographic Data Centre
#                                CCDC 
#
#######################################################################
#
# If this CIF has been generated from an entry in the Cambridge 
# Structural Database, then it will include bibliographic, chemical, 
# crystal, experimental, refinement or atomic coordinate data resulting 
# from the CCDC's data processing and validation procedures.
#
#######################################################################

data_NUDPUY
_chemical_formula_moiety         'C23 H22 F1 N3 O3,0.5(C4 H8 O2)'
_chemical_name_systematic        
'1-(4-Benzoyl-3,5-dimethylpiperazin-1-yl)-2-(4-fluoro-1H-indol-3-yl)ethane-1,2-dione ethyl acetate solvate'
_symmetry_cell_setting           orthorhombic
_symmetry_space_group_name_H-M   'P 21 21 21'
_symmetry_Int_Tables_number      19
_space_group_name_Hall           'P 2ac 2ab'
loop_
_symmetry_equiv_pos_site_id
_symmetry_equiv_pos_as_xyz
1 x,y,z
2 1/2-x,-y,1/2+z
3 -x,1/2+y,1/2-z
4 1/2+x,1/2-y,-z
_cell_length_a                   6.36590(10)
_cell_length_b                   16.7942(4)
_cell_length_c                   21.7178(6)
_cell_angle_alpha                90
_cell_angle_beta                 90
_cell_angle_gamma                90
_cell_volume                     2321.85
_exptl_crystal_colour            colorless
_exptl_crystal_description       plate
_cell_formula_units_Z            4
_exptl_crystal_recrystallization_method 'ethyl acetate'
loop_
_atom_site_label
_atom_site_type_symbol
_atom_site_fract_x
_atom_site_fract_y
_atom_site_fract_z
O1 O 0.9134(4) 0.46607(17) 0.62547(11)
O2 O 0.6312(5) 0.60459(13) 0.68073(10)
O3 O 0.1303(4) 0.60890(11) 0.41657(9)
N1 N 0.5939(4) 0.39331(13) 0.80606(10)
H1 H 0.5046 0.3903 0.8357
N2 N 0.4623(4) 0.53154(12) 0.60934(9)
N3 N 0.3334(4) 0.54746(12) 0.48662(10)
F1 F 1.1787(3) 0.35228(14) 0.68458(9)
C1 C 0.5785(4) 0.44225(16) 0.75785(13)
H2 H 0.4701 0.4785 0.7516
C2 C 0.7734(4) 0.34856(14) 0.80119(11)
C3 C 0.8536(6) 0.29257(16) 0.84180(13)
H3 H 0.7822 0.2795 0.8778
C4 C 1.0390(6) 0.25754(18) 0.82757(14)
H4 H 1.0948 0.2196 0.8541
C5 C 1.1466(5) 0.27687(19) 0.77471(15)
H5 H 1.2733 0.2519 0.7657
C6 C 1.0666(4) 0.33287(17) 0.73541(12)
C7 C 0.8753(4) 0.37092(14) 0.74611(11)
C8 C 0.7457(4) 0.43148(15) 0.71872(11)
C9 C 0.7706(4) 0.47604(18) 0.66261(12)
C10 C 0.6118(5) 0.54316(17) 0.65152(12)
C11 C 0.4330(5) 0.46033(15) 0.57228(12)
H6 H 0.2916 0.4401 0.5779
H7 H 0.5311 0.4195 0.5853
C12 C 0.4691(5) 0.48010(17) 0.50430(12)
H8 H 0.4260 0.4337 0.4800
C13 C 0.3230(5) 0.61875(15) 0.52786(12)
H9 H 0.1915 0.6463 0.5179
C14 C 0.3050(5) 0.59212(16) 0.59440(12)
H10 H 0.3236 0.6377 0.6213
H11 H 0.1657 0.5706 0.6016
C15 C 0.6975(6) 0.4963(3) 0.49040(17)
H12 H 0.7134 0.5081 0.4474
H13 H 0.7797 0.4502 0.5006
H14 H 0.7447 0.5409 0.5144
C16 C 0.4954(7) 0.6768(2) 0.51655(16)
H15 H 0.4985 0.6906 0.4737
H16 H 0.6273 0.6534 0.5280
H17 H 0.4717 0.7239 0.5407
C17 C 0.2351(4) 0.55120(15) 0.43169(12)
C18 C 0.2532(4) 0.48231(14) 0.38741(11)
C19 C 0.4102(6) 0.47953(18) 0.34428(14)
H18 H 0.5156 0.5179 0.3451
C20 C 0.4151(7) 0.4208(2) 0.29957(14)
H19 H 0.5230 0.4201 0.2707
C21 C 0.2648(7) 0.3650(2) 0.29767(16)
H20 H 0.2689 0.3254 0.2678
C22 C 0.1074(7) 0.3665(2) 0.3394(2)
H21 H 0.0020 0.3282 0.3376
C23 C 0.1012(5) 0.4247(2) 0.38474(17)
H22 H -0.0069 0.4245 0.4135
O4 O 1.4618 0.2289 0.4402
C24 C 1.5067 0.2790 0.5336
H23 H 1.4435 0.2943 0.5719
H24 H 1.5718 0.3246 0.5150
H25 H 1.6108 0.2388 0.5409
C25 C 1.3514 0.2489 0.4939
O5 O 1.1832 0.2278 0.5034
C26 C 1.1017 0.2400 0.5689
H26 H 1.1230 0.1909 0.5906
H27 H 1.1906 0.2790 0.5880
C27 C 0.8668 0.2665 0.5808
H28 H 0.8430 0.2712 0.6243
H29 H 0.7730 0.2273 0.5640
H30 H 0.8417 0.3169 0.5613
loop_
_geom_bond_atom_site_label_1
_geom_bond_atom_site_label_2
_geom_bond_site_symmetry_1
_geom_bond_site_symmetry_2
O1 C9 1_555 1_555
O2 C10 1_555 1_555
O3 C17 1_555 1_555
N1 H1 1_555 1_555
N2 C10 1_555 1_555
N3 C12 1_555 1_555
F1 C6 1_555 1_555
C1 N1 1_555 1_555
H2 C1 1_555 1_555
C2 N1 1_555 1_555
C3 C2 1_555 1_555
H3 C3 1_555 1_555
C4 C3 1_555 1_555
H4 C4 1_555 1_555
C5 C4 1_555 1_555
H5 C5 1_555 1_555
C6 C5 1_555 1_555
C7 C2 1_555 1_555
C8 C1 1_555 1_555
C9 C8 1_555 1_555
C10 C9 1_555 1_555
C11 N2 1_555 1_555
H6 C11 1_555 1_555
H7 C11 1_555 1_555
C12 C11 1_555 1_555
H8 C12 1_555 1_555
C13 N3 1_555 1_555
H9 C13 1_555 1_555
C14 N2 1_555 1_555
H10 C14 1_555 1_555
H11 C14 1_555 1_555
C15 C12 1_555 1_555
H12 C15 1_555 1_555
H13 C15 1_555 1_555
H14 C15 1_555 1_555
C16 C13 1_555 1_555
H15 C16 1_555 1_555
H16 C16 1_555 1_555
H17 C16 1_555 1_555
C17 N3 1_555 1_555
C18 C17 1_555 1_555
C19 C18 1_555 1_555
H18 C19 1_555 1_555
C20 C19 1_555 1_555
H19 C20 1_555 1_555
C21 C20 1_555 1_555
H20 C21 1_555 1_555
C22 C21 1_555 1_555
H21 C22 1_555 1_555
C23 C18 1_555 1_555
H22 C23 1_555 1_555
O4 C25 1_555 1_555
C24 H23 1_555 1_555
H24 C24 1_555 1_555
H25 C24 1_555 1_555
C25 C24 1_555 1_555
O5 C25 1_555 1_555
C26 O5 1_555 1_555
H26 C26 1_555 1_555
H27 C26 1_555 1_555
C27 C26 1_555 1_555
H28 C27 1_555 1_555
H29 C27 1_555 1_555
H30 C27 1_555 1_555
C6 C7 1_555 1_555
C7 C8 1_555 1_555
C13 C14 1_555 1_555
C22 C23 1_555 1_555

#END
