
#######################################################################
#
#                 Cambridge Crystallographic Data Centre
#                                CCDC 
#
#######################################################################
#
# If this CIF has been generated from an entry in the Cambridge 
# Structural Database, then it will include bibliographic, chemical, 
# crystal, experimental, refinement or atomic coordinate data resulting 
# from the CCDC's data processing and validation procedures.
#
#######################################################################

data_NUDRUB
_chemical_formula_moiety         'C20 H20 N1 P1 Se1'
_chemical_name_systematic        
'(S)-P,P-diphenyl-N-(1-phenylethyl)phosphinoselenoic amide'
_symmetry_cell_setting           triclinic
_symmetry_space_group_name_H-M   'P 1'
_symmetry_Int_Tables_number      1
_space_group_name_Hall           'P 1'
loop_
_symmetry_equiv_pos_site_id
_symmetry_equiv_pos_as_xyz
1 x,y,z
_cell_length_a                   6.0127(12)
_cell_length_b                   9.368(3)
_cell_length_c                   9.581(3)
_cell_angle_alpha                106.91(3)
_cell_angle_beta                 107.98(2)
_cell_angle_gamma                103.26(2)
_cell_volume                     459.926
_exptl_crystal_colour            colorless
_exptl_crystal_description       plates
_cell_formula_units_Z            1
loop_
_atom_site_label
_atom_site_type_symbol
_atom_site_fract_x
_atom_site_fract_y
_atom_site_fract_z
P1 P 0.8320(3) 0.3973(2) 0.9609(2)
Se1 Se 1.0079 0.4166 0.8024
C1 C 0.5601(17) 0.1306(10) 0.9871(11)
H1 H 0.6703 0.1761 1.0938
C2 C 1.0564(14) 0.4201(8) 1.1495(8)
C3 C 0.2085(18) -0.0835(10) 0.7711(14)
H2 H 0.0832 -0.1820 0.7323
C4 C 1.0578(19) 0.5132(11) 1.2938(10)
H3 H 0.9433 0.5652 1.2939
C5 C 1.399(2) 0.4497(13) 1.4360(14)
H4 H 1.5175 0.4616 1.5321
C6 C 1.231(2) 0.5276(12) 1.4365(11)
H5 H 1.2330 0.5899 1.5327
C7 C 0.366(2) -0.0139(11) 0.9290(13)
H6 H 0.3438 -0.0631 0.9976
C8 C 0.5893(13) 0.2067(8) 0.8862(9)
C9 C 1.2252(16) 0.3426(10) 1.1521(12)
H7 H 1.2265 0.2811 1.0569
C10 C 1.3940(19) 0.3555(13) 1.2963(13)
H8 H 1.5036 0.2997 1.2970
N1 N 0.6947(11) 0.5271(7) 1.0032(7)
H9 H 0.5522 0.4958 1.0082
C11 C 0.4251(18) 0.1373(10) 0.7275(11)
H10 H 0.4422 0.1882 0.6593
C12 C 0.705(2) 0.7254(12) 0.8811(12)
H11 H 0.7252 0.6532 0.7957
H12 H 0.7921 0.8331 0.8994
H13 H 0.5302 0.7088 0.8530
C13 C 0.8100(15) 0.6953(8) 1.0329(9)
H14 H 0.9896 0.7188 1.0627
C14 C 0.7745(14) 0.8067(8) 1.1688(8)
C15 C 0.5951(16) 0.7617(10) 1.2213(10)
H15 H 0.4960 0.6547 1.1789
C16 C 0.9266(18) 0.9681(9) 1.2375(10)
H16 H 1.0546 1.0020 1.2066
C17 C 0.886(2) 1.0762(11) 1.3506(11)
H17 H 0.9857 1.1833 1.3937
C18 C 0.554(2) 0.8719(12) 1.3384(13)
H18 H 0.4293 0.8395 1.3728
C19 C 0.706(2) 1.0301(11) 1.3996(12)
H19 H 0.6833 1.1058 1.4763
C20 C 0.233(2) -0.0096(12) 0.6690(13)
H20 H 0.1229 -0.0566 0.5622
loop_
_geom_bond_atom_site_label_1
_geom_bond_atom_site_label_2
_geom_bond_site_symmetry_1
_geom_bond_site_symmetry_2
P1 Se1 1_555 1_555
C1 H1 1_555 1_555
C2 P1 1_555 1_555
C3 H2 1_555 1_555
C4 C2 1_555 1_555
H3 C4 1_555 1_555
C5 H4 1_555 1_555
C6 C4 1_555 1_555
H5 C6 1_555 1_555
C7 C1 1_555 1_555
H6 C7 1_555 1_555
C8 P1 1_555 1_555
C9 C2 1_555 1_555
H7 C9 1_555 1_555
C10 C5 1_555 1_555
H8 C10 1_555 1_555
N1 P1 1_555 1_555
H9 N1 1_555 1_555
C11 C8 1_555 1_555
H10 C11 1_555 1_555
C12 H11 1_555 1_555
H12 C12 1_555 1_555
H13 C12 1_555 1_555
C13 N1 1_555 1_555
H14 C13 1_555 1_555
C14 C13 1_555 1_555
C15 C14 1_555 1_555
H15 C15 1_555 1_555
C16 C14 1_555 1_555
H16 C16 1_555 1_555
C17 C16 1_555 1_555
H17 C17 1_555 1_555
C18 C15 1_555 1_555
H18 C18 1_555 1_555
C19 C17 1_555 1_555
H19 C19 1_555 1_555
C20 C3 1_555 1_555
H20 C20 1_555 1_555
C1 C8 1_555 1_555
C3 C7 1_555 1_555
C5 C6 1_555 1_555
C9 C10 1_555 1_555
C11 C20 1_555 1_555
C12 C13 1_555 1_555
C18 C19 1_555 1_555

#END
