
#######################################################################
#
#                 Cambridge Crystallographic Data Centre
#                                CCDC 
#
#######################################################################
#
# If this CIF has been generated from an entry in the Cambridge 
# Structural Database, then it will include bibliographic, chemical, 
# crystal, experimental, refinement or atomic coordinate data resulting 
# from the CCDC's data processing and validation procedures.
#
#######################################################################

data_NUDSUC
_chemical_formula_moiety         'C48 H54 Ba1 N2 O2 P2 Se2'
_chemical_name_systematic        
'bis((S)-P,P-diphenyl-N-(1-phenylethyl)phosphinoselenoic amidato)-bis(tetrahydrofuran)-barium'
_symmetry_cell_setting           monoclinic
_symmetry_space_group_name_H-M   'P 21'
_symmetry_Int_Tables_number      4
_space_group_name_Hall           'P 2yb'
loop_
_symmetry_equiv_pos_site_id
_symmetry_equiv_pos_as_xyz
1 x,y,z
2 -x,1/2+y,-z
_cell_length_a                   12.5571(3)
_cell_length_b                   14.6478(3)
_cell_length_c                   14.0913(4)
_cell_angle_alpha                90
_cell_angle_beta                 115.305(3)
_cell_angle_gamma                90
_cell_volume                     2343.17
_exptl_crystal_colour            colorless
_exptl_crystal_description       needle
_cell_formula_units_Z            2
loop_
_atom_site_label
_atom_site_type_symbol
_atom_site_fract_x
_atom_site_fract_y
_atom_site_fract_z
Ba1 Ba 0.69807(3) 0.38240(3) 0.28998(3)
Se1 Se 0.87709(7) 0.52331(6) 0.24346(7)
Se2 Se 0.53357(7) 0.26301(7) 0.38121(7)
P1 P 0.70520(16) 0.20462(15) 0.46846(15)
P2 P 0.86035(16) 0.41448(13) 0.13622(14)
C1 C 1.1248(7) 0.2826(7) 0.0938(7)
H1 H 1.1330 0.2522 0.0394
C2 C 0.6296(8) 0.0224(7) 0.4517(7)
H2 H 0.5862 0.0415 0.4875
C3 C 1.0983(6) 0.3732(6) 0.2554(6)
H3 H 1.0897 0.4030 0.3100
C4 C 0.7390(7) 0.1974(6) 0.6072(6)
O1 O 0.4902(6) 0.4605(6) 0.1664(6)
O2 O 0.6972(7) 0.5273(6) 0.4114(6)
C5 C 0.6988(7) 0.0848(6) 0.4307(6)
C6 C 0.6697(18) 0.6093(11) 0.5366(15)
H4 H 0.6062 0.6277 0.5543
H5 H 0.7411 0.6030 0.6011
C7 C 0.8095(7) 0.1260(6) 0.6696(6)
H6 H 0.8326 0.0789 0.6381
C8 C 0.7086(10) 0.2666(7) 0.6579(8)
H7 H 0.6621 0.3147 0.6190
C9 C 0.6227(9) -0.0683(7) 0.4210(7)
H8 H 0.5773 -0.1098 0.4377
C10 C 0.7465(11) 0.2652(7) 0.7656(8)
H9 H 0.7270 0.3132 0.7985
C11 C 0.3945(9) 0.4922(9) 0.1857(9)
H10 H 0.4115 0.5524 0.2174
H11 H 0.3802 0.4509 0.2328
C12 C 0.9285(6) 0.2527(6) 0.5157(6)
H12 H 0.9456 0.1888 0.5374
N1 N 0.8009(5) 0.2627(5) 0.4457(5)
C13 C 0.9965(8) 0.2803(9) 0.4524(7)
H13 H 0.9679 0.2461 0.3882
H14 H 1.0788 0.2678 0.4927
H15 H 0.9857 0.3443 0.4367
C14 C 0.8118(10) 0.1944(7) 0.8238(7)
H16 H 0.8344 0.1930 0.8958
C15 C 0.6791(8) 0.4447(6) -0.0597(6)
H17 H 0.6343 0.4120 -0.0332
C16 C 0.6921(11) 0.5292(8) -0.1994(7)
H18 H 0.6570 0.5525 -0.2672
C17 C 1.0372(10) 0.2803(8) 0.7111(7)
H19 H 1.0632 0.2201 0.7180
C18 C 0.8453(8) 0.1745(6) 0.1498(7)
H20 H 0.9249 0.1959 0.1748
H21 H 0.8347 0.1219 0.1061
H22 H 0.8293 0.1585 0.2085
C19 C 0.7988(7) 0.4581(6) 0.0019(6)
C20 C 1.2038(7) 0.3295(7) 0.2735(7)
H23 H 1.2661 0.3315 0.3400
C21 C 1.2171(7) 0.2832(7) 0.1933(7)
H24 H 1.2870 0.2529 0.2062
C22 C 0.5883(8) 0.1977(6) 0.1216(7)
H25 H 0.6386 0.1957 0.1928
C23 C 0.9674(11) 0.4566(10) 0.6977(11)
H26 H 0.9441 0.5173 0.6926
C24 C 1.0354(11) 0.4200(11) 0.7941(10)
H27 H 1.0570 0.4550 0.8546
C25 C 0.7567(12) -0.0355(9) 0.3452(9)
H28 H 0.7994 -0.0553 0.3090
C26 C 0.5533(9) 0.2236(7) -0.0550(7)
H29 H 0.5797 0.2399 -0.1050
C27 C 0.3942(10) 0.1785(8) -0.0171(12)
H30 H 0.3151 0.1643 -0.0386
C28 C 1.0702(12) 0.3331(9) 0.7998(8)
H31 H 1.1175 0.3079 0.8649
C29 C 0.6328(7) 0.2226(6) 0.0482(6)
C30 C 0.685(3) 0.6717(12) 0.473(3)
H32 H 0.7408 0.7183 0.5139
H33 H 0.6110 0.7007 0.4286
C31 C 0.8647(9) 0.5106(7) -0.0373(7)
H34 H 0.9439 0.5225 0.0043
C32 C 0.8446(8) 0.1248(7) 0.7760(6)
H35 H 0.8905 0.0769 0.8160
C33 C 0.4350(10) 0.2016(8) -0.0890(9)
H36 H 0.3844 0.2026 -0.1601
C34 C 0.4706(10) 0.1764(7) 0.0879(10)
H37 H 0.4425 0.1603 0.1369
C35 C 0.9330(10) 0.4045(9) 0.6076(9)
H38 H 0.8864 0.4306 0.5428
C36 C 0.9673(7) 0.3131(6) 0.6127(6)
C37 C 0.6261(10) 0.4804(8) -0.1613(7)
H39 H 0.5462 0.4710 -0.2028
C38 C 0.6841(11) -0.0956(8) 0.3654(8)
H40 H 0.6768 -0.1554 0.3411
C39 C 1.0196(7) 0.3275(6) 0.0749(6)
H41 H 0.9584 0.3274 0.0077
C40 C 1.0058(6) 0.3721(5) 0.1552(5)
C41 C 0.7660(9) 0.0556(8) 0.3795(7)
H42 H 0.8166 0.0959 0.3681
C42 C 0.2881(9) 0.4957(9) 0.0803(9)
H43 H 0.2188 0.4714 0.0851
H44 H 0.2721 0.5577 0.0537
C43 C 0.6416(17) 0.5250(11) 0.4807(17)
H45 H 0.6708 0.4739 0.5288
H46 H 0.5570 0.5186 0.4414
C44 C 0.733(3) 0.6169(9) 0.4088(18)
H47 H 0.7007 0.6393 0.3372
H48 H 0.8178 0.6209 0.4388
C45 C 0.3239(10) 0.4371(10) 0.0120(10)
H49 H 0.2846 0.4557 -0.0609
H50 H 0.3069 0.3732 0.0177
N2 N 0.7804(5) 0.3347(4) 0.1491(5)
C46 C 0.4541(10) 0.4537(9) 0.0559(9)
H51 H 0.4937 0.4034 0.0394
H52 H 0.4709 0.5097 0.0282
C47 C 0.8107(11) 0.5442(7) -0.1381(9)
H53 H 0.8545 0.5775 -0.1652
C48 C 0.7604(7) 0.2502(5) 0.0861(6)
H54 H 0.7753 0.2636 0.0246
loop_
_geom_bond_atom_site_label_1
_geom_bond_atom_site_label_2
_geom_bond_site_symmetry_1
_geom_bond_site_symmetry_2
Ba1 Se1 1_555 1_555
Se1 P2 1_555 1_555
Se2 Ba1 1_555 1_555
P1 Se2 1_555 1_555
P2 C19 1_555 1_555
C1 H1 1_555 1_555
C2 H2 1_555 1_555
C3 H3 1_555 1_555
C4 P1 1_555 1_555
O1 Ba1 1_555 1_555
O2 Ba1 1_555 1_555
C5 P1 1_555 1_555
C6 H4 1_555 1_555
H5 C6 1_555 1_555
C7 C4 1_555 1_555
H6 C7 1_555 1_555
C8 C4 1_555 1_555
H7 C8 1_555 1_555
C9 C2 1_555 1_555
H8 C9 1_555 1_555
C10 C8 1_555 1_555
H9 C10 1_555 1_555
C11 O1 1_555 1_555
H10 C11 1_555 1_555
H11 C11 1_555 1_555
C12 H12 1_555 1_555
N1 Ba1 1_555 1_555
C13 C12 1_555 1_555
H13 C13 1_555 1_555
H14 C13 1_555 1_555
H15 C13 1_555 1_555
C14 C10 1_555 1_555
H16 C14 1_555 1_555
C15 H17 1_555 1_555
C16 H18 1_555 1_555
C17 H19 1_555 1_555
C18 H20 1_555 1_555
H21 C18 1_555 1_555
H22 C18 1_555 1_555
C19 C15 1_555 1_555
C20 C3 1_555 1_555
H23 C20 1_555 1_555
C21 C1 1_555 1_555
H24 C21 1_555 1_555
C22 H25 1_555 1_555
C23 H26 1_555 1_555
C24 C23 1_555 1_555
H27 C24 1_555 1_555
C25 H28 1_555 1_555
C26 H29 1_555 1_555
C27 H30 1_555 1_555
C28 C17 1_555 1_555
H31 C28 1_555 1_555
C29 C22 1_555 1_555
C30 C6 1_555 1_555
H32 C30 1_555 1_555
H33 C30 1_555 1_555
C31 C19 1_555 1_555
H34 C31 1_555 1_555
C32 C7 1_555 1_555
H35 C32 1_555 1_555
C33 C26 1_555 1_555
H36 C33 1_555 1_555
C34 C22 1_555 1_555
H37 C34 1_555 1_555
C35 C23 1_555 1_555
H38 C35 1_555 1_555
C36 C12 1_555 1_555
C37 C15 1_555 1_555
H39 C37 1_555 1_555
C38 C9 1_555 1_555
H40 C38 1_555 1_555
C39 C1 1_555 1_555
H41 C39 1_555 1_555
C40 P2 1_555 1_555
C41 C5 1_555 1_555
H42 C41 1_555 1_555
C42 C11 1_555 1_555
H43 C42 1_555 1_555
H44 C42 1_555 1_555
C43 O2 1_555 1_555
H45 C43 1_555 1_555
H46 C43 1_555 1_555
C44 O2 1_555 1_555
H47 C44 1_555 1_555
H48 C44 1_555 1_555
C45 C42 1_555 1_555
H49 C45 1_555 1_555
H50 C45 1_555 1_555
N2 Ba1 1_555 1_555
C46 O1 1_555 1_555
H51 C46 1_555 1_555
H52 C46 1_555 1_555
C47 C16 1_555 1_555
H53 C47 1_555 1_555
C48 C18 1_555 1_555
H54 C48 1_555 1_555
P1 N1 1_555 1_555
P2 N2 1_555 1_555
C2 C5 1_555 1_555
C3 C40 1_555 1_555
C6 C43 1_555 1_555
C12 N1 1_555 1_555
C14 C32 1_555 1_555
C16 C37 1_555 1_555
C17 C36 1_555 1_555
C20 C21 1_555 1_555
C24 C28 1_555 1_555
C25 C38 1_555 1_555
C25 C41 1_555 1_555
C26 C29 1_555 1_555
C27 C33 1_555 1_555
C27 C34 1_555 1_555
C29 C48 1_555 1_555
C30 C44 1_555 1_555
C31 C47 1_555 1_555
C35 C36 1_555 1_555
C39 C40 1_555 1_555
C45 C46 1_555 1_555
N2 C48 1_555 1_555

#END
