
#######################################################################
#
#                 Cambridge Crystallographic Data Centre
#                                CCDC 
#
#######################################################################
#
# If this CIF has been generated from an entry in the Cambridge 
# Structural Database, then it will include bibliographic, chemical, 
# crystal, experimental, refinement or atomic coordinate data resulting 
# from the CCDC's data processing and validation procedures.
#
#######################################################################

data_NUDSIQ
_chemical_formula_moiety         'C48 H54 N2 O2 P2 Se2 Sr1'
_chemical_name_systematic        
'bis((S)-P,P-diphenyl-N-(1-phenylethyl)phosphinoselenoic amidato)-bis(tetrahydrofuran)-strontium'
_symmetry_cell_setting           monoclinic
_symmetry_space_group_name_H-M   'P 21'
_symmetry_Int_Tables_number      4
_space_group_name_Hall           'P 2yb'
loop_
_symmetry_equiv_pos_site_id
_symmetry_equiv_pos_as_xyz
1 x,y,z
2 -x,1/2+y,-z
_cell_length_a                   12.4934(6)
_cell_length_b                   14.6187(7)
_cell_length_c                   13.9134(6)
_cell_angle_alpha                90
_cell_angle_beta                 115.041(5)
_cell_angle_gamma                90
_cell_volume                     2302.25
_exptl_crystal_colour            colorless
_exptl_crystal_description       block
_cell_formula_units_Z            2
loop_
_atom_site_label
_atom_site_type_symbol
_atom_site_fract_x
_atom_site_fract_y
_atom_site_fract_z
Sr1 Sr 0.79635(4) 0.85333(4) 0.70301(4)
Se1 Se 0.96103(5) 0.74389(5) 0.61651(6)
Se2 Se 0.62574(6) 0.99326(5) 0.74354(5)
P1 P 0.79025(13) 0.68243(12) 0.52956(12)
P2 P 0.64117(13) 0.88680(12) 0.85486(11)
O1 O 0.8051(4) 0.9886(3) 0.5870(3)
C1 C 0.4944(5) 0.8445(5) 0.8352(5)
O2 O 0.9912(4) 0.9285(4) 0.8226(4)
C2 C 0.7484(5) 0.7245(5) 0.9137(5)
H1 H 0.7341 0.7402 0.9758
C3 C 0.6490(6) 0.5985(6) 0.2199(5)
H2 H 0.6031 0.5500 0.1806
N1 N 0.6938(4) 0.7378(4) 0.5533(4)
C4 C 1.0856(7) 0.9605(7) 0.7978(6)
H3 H 1.0651 1.0192 0.7620
H4 H 1.1000 0.9174 0.7517
C5 C 0.5664(5) 0.7272(5) 0.4837(5)
H5 H 0.5517 0.6634 0.4601
C6 C 0.4614(6) 0.7553(6) 0.2862(5)
H6 H 0.4393 0.6940 0.2776
N2 N 0.7244(4) 0.8077(4) 0.8440(4)
C7 C 0.7473(7) 0.7397(6) 0.2259(6)
H7 H 0.7671 0.7867 0.1914
C8 C 0.7545(5) 0.6747(5) 0.3882(5)
C9 C 0.8432(7) 0.9870(5) 0.5032(6)
H8 H 0.8716 0.9369 0.4798
C10 C 1.1175(7) 0.6591(6) 1.0192(8)
H9 H 1.1974 0.6462 1.0419
C11 C 0.4598(7) 0.9017(7) 0.2076(7)
H10 H 0.4387 0.9390 0.1483
C12 C 1.0335(6) 0.9251(6) 0.9368(6)
H11 H 0.9993 0.8738 0.9582
H12 H 1.0150 0.9812 0.9638
C13 C 1.1934(6) 0.9697(7) 0.9006(6)
H13 H 1.2629 0.9463 0.8944
H14 H 1.2071 1.0331 0.9234
C14 C 0.7849(6) 0.7419(6) 0.3368(6)
H15 H 0.8315 0.7903 0.3756
C15 C 0.4949(5) 0.7485(6) 0.5471(5)
H16 H 0.5099 0.8103 0.5725
H17 H 0.5177 0.7074 0.6063
H18 H 0.4123 0.7411 0.5023
C16 C 0.8277(9) 1.0834(6) 0.4612(7)
H19 H 0.8827 1.0968 0.4305
H20 H 0.7477 1.0936 0.4081
C17 C 0.6848(5) 0.6014(5) 0.3283(5)
H21 H 0.6629 0.5548 0.3619
C18 C 0.6648(6) 0.6463(5) 0.8538(6)
H22 H 0.6780 0.6300 0.7928
H23 H 0.5844 0.6657 0.8314
H24 H 0.6798 0.5942 0.8996
C19 C 0.5233(7) 0.9371(7) 0.3067(7)
H25 H 0.5446 0.9986 0.3146
C20 C 0.8014(7) 1.0020(7) 1.1951(5)
H26 H 0.8348 1.0249 1.2640
C21 C 0.8761(6) 0.6984(5) 0.9510(5)
C22 C 0.6810(7) 0.6669(6) 0.1698(6)
H27 H 0.6573 0.6639 0.0969
C23 C 0.5260(5) 0.7886(5) 0.3858(5)
C24 C 0.5561(6) 0.8810(6) 0.3964(6)
H28 H 0.5984 0.9057 0.4636
C25 C 0.8714(7) 0.9551(6) 1.1573(5)
H29 H 0.9515 0.9467 1.1996
C26 C 0.8195(6) 0.9205(5) 1.0537(5)
H30 H 0.8657 0.8884 1.0275
C27 C 0.7000(5) 0.9333(5) 0.9895(5)
C28 C 1.0402(7) 0.6556(6) 0.9110(8)
H31 H 1.0683 0.6400 0.8610
C29 C 0.9215(6) 0.6755(5) 0.8793(6)
H32 H 0.8708 0.6733 0.8075
C30 C 1.0736(7) 0.6817(6) 1.0898(7)
H33 H 1.1243 0.6830 1.1616
C31 C 0.4008(5) 0.8459(5) 0.7340(5)
H34 H 0.4099 0.8751 0.6786
C32 C 0.3732(6) 0.7557(6) 0.8974(6)
H35 H 0.3637 0.7256 0.9522
C33 C 0.8736(6) 0.5013(5) 0.5469(5)
H36 H 0.9155 0.5218 0.5095
C34 C 0.7369(6) 0.5295(5) 0.6224(5)
H37 H 0.6852 0.5682 0.6350
C35 C 0.8000(5) 0.5623(5) 0.5682(4)
C36 C 0.8854(6) 0.4110(5) 0.5806(5)
H38 H 0.9343 0.3709 0.5657
C37 C 0.2956(6) 0.8045(6) 0.7163(6)
H39 H 0.2326 0.8081 0.6496
C38 C 0.8236(7) 0.3822(6) 0.6360(6)
H40 H 0.8319 0.3219 0.6593
C39 C 0.7497(7) 0.4392(6) 0.6586(6)
H41 H 0.7092 0.4182 0.6970
C40 C 0.4791(6) 0.7990(5) 0.9167(5)
H42 H 0.5403 0.7978 0.9845
C41 C 0.6311(6) 0.9818(5) 1.0297(5)
H43 H 0.5511 0.9912 0.9877
C42 C 0.2824(6) 0.7569(6) 0.7976(6)
H44 H 0.2123 0.7262 0.7841
C43 C 0.9543(6) 0.7033(6) 1.0580(6)
H45 H 0.9273 0.7209 1.1081
C44 C 1.1645(7) 0.9136(7) 0.9754(7)
H46 H 1.2060 0.9357 1.0476
H47 H 1.1849 0.8499 0.9728
C45 C 0.6827(7) 1.0156(6) 1.1326(6)
H48 H 0.6370 1.0476 1.1595
C46 C 0.8528(11) 1.1383(6) 0.5552(8)
H49 H 0.8197 1.1993 0.5368
H50 H 0.9370 1.1428 0.5989
C47 C 0.7908(12) 1.0833(6) 0.6105(9)
H51 H 0.8274 1.0941 0.6864
H52 H 0.7078 1.0994 0.5829
C48 C 0.4274(7) 0.8119(7) 0.1956(6)
H53 H 0.3832 0.7881 0.1283
loop_
_geom_bond_atom_site_label_1
_geom_bond_atom_site_label_2
_geom_bond_site_symmetry_1
_geom_bond_site_symmetry_2
Sr1 Se1 1_555 1_555
Se1 P1 1_555 1_555
Se2 Sr1 1_555 1_555
P1 N1 1_555 1_555
P2 Se2 1_555 1_555
O1 Sr1 1_555 1_555
C1 P2 1_555 1_555
O2 Sr1 1_555 1_555
C2 H1 1_555 1_555
C3 H2 1_555 1_555
N1 Sr1 1_555 1_555
C4 O2 1_555 1_555
H3 C4 1_555 1_555
H4 C4 1_555 1_555
C5 N1 1_555 1_555
H5 C5 1_555 1_555
C6 H6 1_555 1_555
N2 Sr1 1_555 1_555
C7 H7 1_555 1_555
C8 P1 1_555 1_555
C9 O1 1_555 1_555
H8 C9 1_555 1_555
C10 H9 1_555 1_555
C11 H10 1_555 1_555
C12 O2 1_555 1_555
H11 C12 1_555 1_555
H12 C12 1_555 1_555
C13 C4 1_555 1_555
H13 C13 1_555 1_555
H14 C13 1_555 1_555
C14 C7 1_555 1_555
H15 C14 1_555 1_555
C15 C5 1_555 1_555
H16 C15 1_555 1_555
H17 C15 1_555 1_555
H18 C15 1_555 1_555
C16 C9 1_555 1_555
H19 C16 1_555 1_555
H20 C16 1_555 1_555
C17 C3 1_555 1_555
H21 C17 1_555 1_555
C18 C2 1_555 1_555
H22 C18 1_555 1_555
H23 C18 1_555 1_555
H24 C18 1_555 1_555
C19 C11 1_555 1_555
H25 C19 1_555 1_555
C20 H26 1_555 1_555
C21 C2 1_555 1_555
C22 C3 1_555 1_555
H27 C22 1_555 1_555
C23 C5 1_555 1_555
C24 C19 1_555 1_555
H28 C24 1_555 1_555
C25 C20 1_555 1_555
H29 C25 1_555 1_555
C26 C25 1_555 1_555
H30 C26 1_555 1_555
C27 P2 1_555 1_555
C28 C10 1_555 1_555
H31 C28 1_555 1_555
C29 C21 1_555 1_555
H32 C29 1_555 1_555
C30 C10 1_555 1_555
H33 C30 1_555 1_555
C31 C1 1_555 1_555
H34 C31 1_555 1_555
C32 H35 1_555 1_555
C33 H36 1_555 1_555
C34 H37 1_555 1_555
C35 P1 1_555 1_555
C36 C33 1_555 1_555
H38 C36 1_555 1_555
C37 C31 1_555 1_555
H39 C37 1_555 1_555
C38 C36 1_555 1_555
H40 C38 1_555 1_555
C39 C34 1_555 1_555
H41 C39 1_555 1_555
C40 C1 1_555 1_555
H42 C40 1_555 1_555
C41 C27 1_555 1_555
H43 C41 1_555 1_555
C42 C32 1_555 1_555
H44 C42 1_555 1_555
C43 C21 1_555 1_555
H45 C43 1_555 1_555
C44 C12 1_555 1_555
H46 C44 1_555 1_555
H47 C44 1_555 1_555
C45 C20 1_555 1_555
H48 C45 1_555 1_555
C46 C16 1_555 1_555
H49 C46 1_555 1_555
H50 C46 1_555 1_555
C47 O1 1_555 1_555
H51 C47 1_555 1_555
H52 C47 1_555 1_555
C48 C6 1_555 1_555
H53 C48 1_555 1_555
P2 N2 1_555 1_555
C2 N2 1_555 1_555
C6 C23 1_555 1_555
C7 C22 1_555 1_555
C8 C14 1_555 1_555
C8 C17 1_555 1_555
C11 C48 1_555 1_555
C13 C44 1_555 1_555
C23 C24 1_555 1_555
C26 C27 1_555 1_555
C28 C29 1_555 1_555
C30 C43 1_555 1_555
C32 C40 1_555 1_555
C33 C35 1_555 1_555
C34 C35 1_555 1_555
C37 C42 1_555 1_555
C38 C39 1_555 1_555
C41 C45 1_555 1_555
C46 C47 1_555 1_555

#END
