
#######################################################################
#
#                 Cambridge Crystallographic Data Centre
#                                CCDC 
#
#######################################################################
#
# If this CIF has been generated from an entry in the Cambridge 
# Structural Database, then it will include bibliographic, chemical, 
# crystal, experimental, refinement or atomic coordinate data resulting 
# from the CCDC's data processing and validation procedures.
#
#######################################################################

data_NUDSAI
_chemical_formula_moiety         'C48 H54 Ca1 N2 O2 P2 Se2'
_chemical_name_systematic        
'bis((R)-P,P-diphenyl-N-(1-phenylethyl)phosphinoselenoic amidato)-bis(tetrahydrofuran)-calcium'
_symmetry_cell_setting           monoclinic
_symmetry_space_group_name_H-M   'P 21'
_symmetry_Int_Tables_number      4
_space_group_name_Hall           'P 2yb'
loop_
_symmetry_equiv_pos_site_id
_symmetry_equiv_pos_as_xyz
1 x,y,z
2 -x,1/2+y,-z
_cell_length_a                   13.0607(5)
_cell_length_b                   14.5382(5)
_cell_length_c                   13.6308(6)
_cell_angle_alpha                90
_cell_angle_beta                 118.032(5)
_cell_angle_gamma                90
_cell_volume                     2284.57
_exptl_crystal_colour            colorless
_exptl_crystal_description       plate
_cell_formula_units_Z            2
loop_
_atom_site_label
_atom_site_type_symbol
_atom_site_fract_x
_atom_site_fract_y
_atom_site_fract_z
Se1 Se 0.96277(3) 0.25451(3) 0.63305(4)
Se2 Se 0.62887(4) -0.00285(3) 0.68571(4)
Ca1 Ca 0.79846(6) 0.14139(6) 0.69009(6)
P1 P 0.63606(8) 0.09193(7) 0.80933(8)
P2 P 0.79608(8) 0.31481(7) 0.53328(8)
O1 O 0.9789(3) 0.0880(3) 0.8380(2)
O2 O 0.8443(3) 0.0160(2) 0.5977(3)
C1 C 0.4983(3) 0.2483(4) 0.5074(4)
H1 H 0.5093 0.1863 0.5350
H2 H 0.4188 0.2567 0.4526
H3 H 0.5172 0.2905 0.5677
C2 C 0.7186(4) 0.3485(4) 0.1688(4)
H4 H 0.7005 0.3542 0.0944
C3 C 0.6206(4) -0.0822(3) 1.0374(4)
H5 H 0.5691 -0.1262 1.0374
C4 C 0.7970(3) 0.4323(3) 0.5837(3)
C5 C 0.5770(3) 0.2661(3) 0.4548(3)
H6 H 0.5683 0.3305 0.4307
C6 C 0.8639(3) 0.2839(3) 0.9460(3)
C7 C 0.7361(3) 0.4157(3) 0.3364(3)
H7 H 0.7288 0.4666 0.3740
C8 C 0.7377(3) 0.2534(3) 0.8940(3)
H8 H 0.7201 0.2337 0.9531
C9 C 0.7208(4) -0.0628(4) 1.1346(4)
H9 H 0.7363 -0.0935 1.2000
C10 C 0.8884(4) 0.4915(4) 0.6067(4)
H10 H 0.9487 0.4729 0.5932
C11 C 0.7122(4) 0.4238(3) 0.2261(4)
H11 H 0.6916 0.4806 0.1909
C12 C 0.2729(4) 0.2024(4) 0.7258(4)
H12 H 0.2005 0.2266 0.7087
C13 C 0.4681(3) 0.1654(3) 0.8610(4)
H13 H 0.5261 0.1646 0.9345
C14 C 1.1700(4) 0.0440(7) 0.9353(5)
H14 H 1.2460 0.0717 0.9620
H15 H 1.1757 -0.0207 0.9214
C15 C 0.6567(3) 0.3332(3) 0.8298(4)
H16 H 0.6694 0.3500 0.7683
H17 H 0.6725 0.3850 0.8784
H18 H 0.5775 0.3144 0.8027
C16 C 1.0542(4) 0.2998(4) 1.1042(5)
H19 H 1.1025 0.2947 1.1803
C17 C 0.4756(5) 0.0932(5) 0.1660(5)
H20 H 0.4560 0.0568 0.1036
C18 C 0.5730(4) 0.1122(4) 0.3630(4)
H21 H 0.6165 0.0868 0.4332
C19 C 0.2934(3) 0.1681(4) 0.6423(4)
H22 H 0.2349 0.1692 0.5691
C20 C 0.9109(4) 0.3146(3) 0.8784(4)
H23 H 0.8632 0.3203 0.8022
C21 C 0.7746(3) 0.0493(3) 1.0362(3)
H24 H 0.8267 0.0930 1.0362
C22 C 0.8506(6) -0.0858(4) 0.4686(5)
H25 H 0.7702 -0.1001 0.4178
H26 H 0.8980 -0.1009 0.4335
C23 C 0.8646(5) 0.0138(3) 0.5035(4)
H27 H 0.9422 0.0354 0.5232
H28 H 0.8089 0.0520 0.4441
C24 C 0.7077(4) 0.4613(3) 0.6037(4)
H29 H 0.6453 0.4223 0.5878
C25 C 0.9371(4) 0.2778(3) 1.0597(4)
H30 H 0.9075 0.2589 1.1065
C26 C 1.0907(5) 0.0872(7) 0.8383(5)
H31 H 1.0846 0.0541 0.7739
H32 H 1.1155 0.1496 0.8357
C27 C 0.7796(4) 0.2561(4) 0.3327(4)
H33 H 0.8039 0.1998 0.3687
C28 C 0.7707(3) 0.3318(3) 0.3906(3)
C29 C 0.5970(4) -0.0361(3) 0.9399(4)
H34 H 0.5297 -0.0495 0.8749
C30 C 0.4718(5) 0.2383(4) 0.2479(4)
H35 H 0.4470 0.2991 0.2397
C31 C 0.8719(11) -0.0738(5) 0.6470(8)
H36 H 0.9409 -0.0704 0.7186
H37 H 0.8086 -0.0959 0.6589
C32 C 0.8908(5) 0.5783(4) 0.6496(5)
H38 H 0.9525 0.6177 0.6647
C33 C 0.5410(3) 0.2040(3) 0.3531(3)
C34 C 0.7980(4) 0.0026(4) 1.1340(3)
H39 H 0.8656 0.0154 1.1992
C35 C 0.7521(4) 0.2641(4) 0.2210(4)
H40 H 0.7562 0.2130 0.1819
C36 C 1.0274(4) 0.3365(4) 0.9232(5)
H41 H 1.0572 0.3565 0.8769
C37 C 1.0991(4) 0.3291(4) 1.0354(6)
H42 H 1.1773 0.3437 1.0652
N1 N 0.6996(2) 0.2502(3) 0.5397(2)
C38 C 0.4022(3) 0.1317(3) 0.6677(4)
H43 H 0.4155 0.1079 0.6114
C39 C 1.1295(4) 0.0548(4) 1.0181(4)
H44 H 1.1640 0.1086 1.0641
H45 H 1.1480 0.0010 1.0654
C40 C 0.8017(5) 0.6062(4) 0.6699(4)
H46 H 0.8034 0.6644 0.6989
C41 C 0.7105(5) 0.5482(4) 0.6473(4)
H47 H 0.6504 0.5670 0.6612
C42 C 0.8911(8) -0.1362(5) 0.5764(6)
H48 H 0.8469 -0.1924 0.5658
H49 H 0.9727 -0.1517 0.6078
C43 C 0.3590(4) 0.2008(3) 0.8343(4)
H50 H 0.3444 0.2236 0.8903
C44 C 0.4383(6) 0.1837(5) 0.1538(5)
H51 H 0.3914 0.2078 0.0834
N2 N 0.7236(3) 0.1734(2) 0.8204(3)
C45 C 0.4903(3) 0.1310(3) 0.7769(3)
C46 C 0.6741(3) 0.0305(3) 0.9391(3)
C47 C 0.9999(4) 0.0662(3) 0.9491(3)
H52 H 0.9602 0.0098 0.9492
H53 H 0.9722 0.1154 0.9786
C48 C 0.5410(4) 0.0576(4) 0.2694(5)
H54 H 0.5643 -0.0036 0.2775
loop_
_geom_bond_atom_site_label_1
_geom_bond_atom_site_label_2
_geom_bond_site_symmetry_1
_geom_bond_site_symmetry_2
Se1 Ca1 1_555 1_555
Se2 Ca1 1_555 1_555
Ca1 O1 1_555 1_555
P1 Se2 1_555 1_555
P2 Se1 1_555 1_555
O1 C26 1_555 1_555
O2 Ca1 1_555 1_555
C1 H1 1_555 1_555
H2 C1 1_555 1_555
H3 C1 1_555 1_555
C2 H4 1_555 1_555
C3 H5 1_555 1_555
C4 P2 1_555 1_555
C5 C1 1_555 1_555
H6 C5 1_555 1_555
C6 C8 1_555 1_555
C7 H7 1_555 1_555
C8 H8 1_555 1_555
C9 C3 1_555 1_555
H9 C9 1_555 1_555
C10 C4 1_555 1_555
H10 C10 1_555 1_555
C11 C2 1_555 1_555
H11 C11 1_555 1_555
C12 H12 1_555 1_555
C13 H13 1_555 1_555
C14 H14 1_555 1_555
H15 C14 1_555 1_555
C15 C8 1_555 1_555
H16 C15 1_555 1_555
H17 C15 1_555 1_555
H18 C15 1_555 1_555
C16 H19 1_555 1_555
C17 H20 1_555 1_555
C18 H21 1_555 1_555
C19 C12 1_555 1_555
H22 C19 1_555 1_555
C20 C6 1_555 1_555
H23 C20 1_555 1_555
C21 H24 1_555 1_555
C22 H25 1_555 1_555
H26 C22 1_555 1_555
C23 O2 1_555 1_555
H27 C23 1_555 1_555
H28 C23 1_555 1_555
C24 C4 1_555 1_555
H29 C24 1_555 1_555
C25 C6 1_555 1_555
H30 C25 1_555 1_555
C26 C14 1_555 1_555
H31 C26 1_555 1_555
H32 C26 1_555 1_555
C27 H33 1_555 1_555
C28 P2 1_555 1_555
C29 C3 1_555 1_555
H34 C29 1_555 1_555
C30 H35 1_555 1_555
C31 O2 1_555 1_555
H36 C31 1_555 1_555
H37 C31 1_555 1_555
C32 C10 1_555 1_555
H38 C32 1_555 1_555
C33 C5 1_555 1_555
C34 C9 1_555 1_555
H39 C34 1_555 1_555
C35 C2 1_555 1_555
H40 C35 1_555 1_555
C36 C20 1_555 1_555
H41 C36 1_555 1_555
C37 C16 1_555 1_555
H42 C37 1_555 1_555
N1 Ca1 1_555 1_555
C38 C19 1_555 1_555
H43 C38 1_555 1_555
C39 C14 1_555 1_555
H44 C39 1_555 1_555
H45 C39 1_555 1_555
C40 C32 1_555 1_555
H46 C40 1_555 1_555
C41 C24 1_555 1_555
H47 C41 1_555 1_555
C42 C22 1_555 1_555
H48 C42 1_555 1_555
H49 C42 1_555 1_555
C43 C12 1_555 1_555
H50 C43 1_555 1_555
C44 C17 1_555 1_555
H51 C44 1_555 1_555
N2 Ca1 1_555 1_555
C45 P1 1_555 1_555
C46 P1 1_555 1_555
C47 O1 1_555 1_555
H52 C47 1_555 1_555
H53 C47 1_555 1_555
C48 C17 1_555 1_555
H54 C48 1_555 1_555
P1 N2 1_555 1_555
P2 N1 1_555 1_555
C5 N1 1_555 1_555
C7 C11 1_555 1_555
C7 C28 1_555 1_555
C8 N2 1_555 1_555
C13 C43 1_555 1_555
C13 C45 1_555 1_555
C16 C25 1_555 1_555
C18 C33 1_555 1_555
C18 C48 1_555 1_555
C21 C34 1_555 1_555
C21 C46 1_555 1_555
C22 C23 1_555 1_555
C27 C28 1_555 1_555
C27 C35 1_555 1_555
C29 C46 1_555 1_555
C30 C33 1_555 1_555
C30 C44 1_555 1_555
C31 C42 1_555 1_555
C36 C37 1_555 1_555
C38 C45 1_555 1_555
C39 C47 1_555 1_555
C40 C41 1_555 1_555

#END
