
#######################################################################
#
#                 Cambridge Crystallographic Data Centre
#                                CCDC 
#
#######################################################################
#
# If this CIF has been generated from an entry in the Cambridge 
# Structural Database, then it will include bibliographic, chemical, 
# crystal, experimental, refinement or atomic coordinate data resulting 
# from the CCDC's data processing and validation procedures.
#
#######################################################################

data_NUDTEN
_chemical_formula_moiety         'C20 H23 B1 N1 P1'
_chemical_name_systematic        
(S)-N-(borane(diphenyl)phosphoranyl)-1-phenylethanamine
_symmetry_cell_setting           orthorhombic
_symmetry_space_group_name_H-M   'P 21 21 21'
_symmetry_Int_Tables_number      19
_space_group_name_Hall           'P 2ac 2ab'
loop_
_symmetry_equiv_pos_site_id
_symmetry_equiv_pos_as_xyz
1 x,y,z
2 1/2-x,-y,1/2+z
3 1/2+x,1/2-y,-z
4 -x,1/2+y,1/2-z
_cell_length_a                   8.8785(2)
_cell_length_b                   18.0839(4)
_cell_length_c                   23.6013(6)
_cell_angle_alpha                90
_cell_angle_beta                 90
_cell_angle_gamma                90
_cell_volume                     3789.38
_exptl_crystal_colour            colorless
_exptl_crystal_description       plate
_cell_formula_units_Z            8
loop_
_atom_site_label
_atom_site_type_symbol
_atom_site_fract_x
_atom_site_fract_y
_atom_site_fract_z
P1 P -0.20705(6) -0.50101(4) -0.08683(3)
C1 C -0.4115(3) -0.50187(14) -0.08909(11)
N1 N -0.1414(2) -0.57682(12) -0.11713(9)
H1 H -0.1230 -0.5764 -0.1529
C2 C -0.1523(3) -0.42675(15) -0.13343(12)
C3 C -0.4870(3) -0.50020(18) -0.14006(12)
H2 H -0.4332 -0.4944 -0.1736
C4 C -0.4945(3) -0.50933(17) -0.03954(13)
H3 H -0.4457 -0.5098 -0.0047
C5 C -0.6420(3) -0.5071(2) -0.14184(14)
H4 H -0.6919 -0.5059 -0.1765
C6 C -0.1130(3) -0.64538(15) -0.08477(12)
H5 H -0.1138 -0.6325 -0.0444
B1 B -0.1328(4) -0.4870(2) -0.01246(12)
H6 H -0.1718 -0.5250 0.0119
H7 H -0.1641 -0.4395 0.0013
H8 H -0.0248 -0.4895 -0.0128
C7 C -0.0415(3) -0.4359(2) -0.17395(14)
H9 H 0.0001 -0.4824 -0.1803
C8 C 0.0399(3) -0.67616(14) -0.09829(12)
C9 C -0.6497(3) -0.51614(18) -0.04188(15)
H10 H -0.7047 -0.5210 -0.0086
C10 C -0.2134(5) -0.35700(17) -0.12555(15)
H11 H -0.2884 -0.3502 -0.0985
C11 C 0.1380(4) -0.6955(2) -0.05536(16)
H12 H 0.1091 -0.6898 -0.0177
C12 C -0.7224(3) -0.51573(16) -0.09281(15)
H13 H -0.8265 -0.5213 -0.0942
C13 C -0.1650(7) -0.2978(2) -0.1569(2)
H14 H -0.2084 -0.2515 -0.1514
C14 C 0.2812(5) -0.7237(2) -0.0683(2)
H15 H 0.3469 -0.7364 -0.0392
C15 C 0.0879(4) -0.68706(17) -0.15357(14)
H16 H 0.0231 -0.6754 -0.1832
C16 C -0.0538(7) -0.3063(3) -0.1962(2)
H17 H -0.0194 -0.2658 -0.2167
C17 C 0.2282(4) -0.71463(18) -0.16578(18)
H18 H 0.2573 -0.7210 -0.2033
C18 C -0.2400(4) -0.7009(2) -0.09477(19)
H19 H -0.3313 -0.6827 -0.0780
H20 H -0.2139 -0.7474 -0.0778
H21 H -0.2546 -0.7075 -0.1348
C19 C 0.0073(5) -0.3752(3) -0.20525(19)
H22 H 0.0819 -0.3812 -0.2325
C20 C 0.3248(5) -0.73263(19) -0.1235(2)
H23 H 0.4200 -0.7509 -0.1319
P2 P -0.18536(6) -0.38883(3) 0.16037(2)
N2 N -0.2578(2) -0.46282(10) 0.12885(8)
H24 H -0.2842 -0.4601 0.0938
C21 C 0.0193(3) -0.39311(13) 0.15799(10)
C22 C 0.0942(3) -0.39389(17) 0.10617(12)
H25 H 0.0406 -0.3874 0.0727
C23 C 0.1013(3) -0.40175(17) 0.20726(12)
H26 H 0.0529 -0.4007 0.2422
C24 C -0.2332(3) -0.31318(13) 0.11370(10)
C25 C -0.2779(3) -0.53323(13) 0.15984(12)
H27 H -0.3266 -0.5221 0.1961
C26 C 0.2480(3) -0.40426(18) 0.10464(14)
H28 H 0.2975 -0.4048 0.0699
C27 C -0.3511(3) -0.31682(16) 0.07591(12)
H29 H -0.4041 -0.3608 0.0716
C28 C -0.1291(3) -0.57197(14) 0.17222(12)
B2 B -0.2620(4) -0.3755(2) 0.23550(12)
H30 H -0.3700 -0.3731 0.2343
H31 H -0.2230 -0.3304 0.2511
H32 H -0.2314 -0.4164 0.2588
C29 C 0.2565(3) -0.41206(18) 0.20466(15)
H33 H 0.3114 -0.4179 0.2379
C30 C -0.3836(3) -0.58254(17) 0.12576(16)
H34 H -0.4771 -0.5571 0.1195
H35 H -0.4023 -0.6274 0.1464
H36 H -0.3381 -0.5942 0.0900
C31 C -0.0147(3) -0.57679(15) 0.13317(14)
H37 H -0.0275 -0.5549 0.0979
C32 C -0.1945(5) -0.18602(17) 0.08646(16)
H38 H -0.1410 -0.1421 0.0902
C33 C 0.3289(3) -0.41373(17) 0.15338(15)
H39 H 0.4325 -0.4213 0.1518
C34 C -0.3921(4) -0.2545(2) 0.04377(14)
H40 H -0.4720 -0.2571 0.0184
C35 C -0.1076(5) -0.60527(18) 0.22427(13)
H41 H -0.1833 -0.6037 0.2515
C36 C -0.1533(4) -0.24765(15) 0.11788(13)
H42 H -0.0709 -0.2449 0.1421
C37 C 0.1189(4) -0.61313(17) 0.14466(18)
H43 H 0.1947 -0.6152 0.1175
C38 C 0.0264(6) -0.6408(2) 0.23573(18)
H44 H 0.0410 -0.6619 0.2713
C39 C -0.3131(5) -0.18998(19) 0.05030(15)
H45 H -0.3410 -0.1484 0.0297
C40 C 0.1384(5) -0.6459(2) 0.1961(2)
H46 H 0.2268 -0.6715 0.2042
loop_
_geom_bond_atom_site_label_1
_geom_bond_atom_site_label_2
_geom_bond_site_symmetry_1
_geom_bond_site_symmetry_2
P1 C1 1_555 1_555
C1 C3 1_555 1_555
N1 P1 1_555 1_555
H1 N1 1_555 1_555
C2 P1 1_555 1_555
C3 H2 1_555 1_555
C4 C1 1_555 1_555
H3 C4 1_555 1_555
C5 C3 1_555 1_555
H4 C5 1_555 1_555
C6 N1 1_555 1_555
H5 C6 1_555 1_555
B1 P1 1_555 1_555
H6 B1 1_555 1_555
H7 B1 1_555 1_555
H8 B1 1_555 1_555
C7 C2 1_555 1_555
H9 C7 1_555 1_555
C8 C6 1_555 1_555
C9 C4 1_555 1_555
H10 C9 1_555 1_555
C10 C2 1_555 1_555
H11 C10 1_555 1_555
C11 C8 1_555 1_555
H12 C11 1_555 1_555
C12 C5 1_555 1_555
H13 C12 1_555 1_555
C13 C10 1_555 1_555
H14 C13 1_555 1_555
C14 C11 1_555 1_555
H15 C14 1_555 1_555
C15 C8 1_555 1_555
H16 C15 1_555 1_555
C16 C13 1_555 1_555
H17 C16 1_555 1_555
C17 C15 1_555 1_555
H18 C17 1_555 1_555
C18 C6 1_555 1_555
H19 C18 1_555 1_555
H20 C18 1_555 1_555
H21 C18 1_555 1_555
C19 C7 1_555 1_555
H22 C19 1_555 1_555
C20 C14 1_555 1_555
H23 C20 1_555 1_555
P2 N2 1_555 1_555
N2 H24 1_555 1_555
C21 P2 1_555 1_555
C22 C21 1_555 1_555
H25 C22 1_555 1_555
C23 C21 1_555 1_555
H26 C23 1_555 1_555
C24 P2 1_555 1_555
C25 N2 1_555 1_555
H27 C25 1_555 1_555
C26 C22 1_555 1_555
H28 C26 1_555 1_555
C27 C24 1_555 1_555
H29 C27 1_555 1_555
C28 C25 1_555 1_555
B2 P2 1_555 1_555
H30 B2 1_555 1_555
H31 B2 1_555 1_555
H32 B2 1_555 1_555
C29 C23 1_555 1_555
H33 C29 1_555 1_555
C30 C25 1_555 1_555
H34 C30 1_555 1_555
H35 C30 1_555 1_555
H36 C30 1_555 1_555
C31 C28 1_555 1_555
H37 C31 1_555 1_555
C32 H38 1_555 1_555
C33 C26 1_555 1_555
H39 C33 1_555 1_555
C34 C27 1_555 1_555
H40 C34 1_555 1_555
C35 C28 1_555 1_555
H41 C35 1_555 1_555
C36 C24 1_555 1_555
H42 C36 1_555 1_555
C37 C31 1_555 1_555
H43 C37 1_555 1_555
C38 C35 1_555 1_555
H44 C38 1_555 1_555
C39 C32 1_555 1_555
H45 C39 1_555 1_555
C40 C37 1_555 1_555
H46 C40 1_555 1_555
C9 C12 1_555 1_555
C16 C19 1_555 1_555
C17 C20 1_555 1_555
C29 C33 1_555 1_555
C32 C36 1_555 1_555
C34 C39 1_555 1_555
C38 C40 1_555 1_555

#END
