
#######################################################################
#
#                 Cambridge Crystallographic Data Centre
#                                CCDC 
#
#######################################################################
#
# If this CIF has been generated from an entry in the Cambridge 
# Structural Database, then it will include bibliographic, chemical, 
# crystal, experimental, refinement or atomic coordinate data resulting 
# from the CCDC's data processing and validation procedures.
#
#######################################################################

data_NUDVIT
_chemical_formula_moiety         'C48 H54 Ca1 N2 O2 P2 Se2'
_chemical_name_systematic        
'bis((S)-P,P-diphenyl-N-(1-phenylethyl)phosphinoselenoic amidato)-bis(tetrahydrofuran)-calcium'
_symmetry_cell_setting           monoclinic
_symmetry_space_group_name_H-M   'P 21'
_symmetry_Int_Tables_number      4
_space_group_name_Hall           'P 2yb'
loop_
_symmetry_equiv_pos_site_id
_symmetry_equiv_pos_as_xyz
1 x,y,z
2 -x,1/2+y,-z
_cell_length_a                   13.0797(10)
_cell_length_b                   14.5246(8)
_cell_length_c                   13.6284(14)
_cell_angle_alpha                90
_cell_angle_beta                 117.984(11)
_cell_angle_gamma                90
_cell_volume                     2286.37
_exptl_crystal_colour            colorless
_exptl_crystal_description       block
_cell_formula_units_Z            2
loop_
_atom_site_label
_atom_site_type_symbol
_atom_site_fract_x
_atom_site_fract_y
_atom_site_fract_z
Se1 Se 0.62895(7) 0.56146(5) 0.68621(7)
Se2 Se 0.96278(6) 0.30424(6) 0.63269(7)
Ca1 Ca 0.79842(11) 0.41739(11) 0.68986(11)
P1 P 0.63640(14) 0.46661(12) 0.80992(14)
P2 P 0.79612(14) 0.24388(12) 0.53297(14)
O1 O 0.8436(6) 0.5433(4) 0.5982(5)
O2 O 0.9780(4) 0.4711(5) 0.8369(5)
C1 C 0.7352(6) 0.1437(5) 0.3357(6)
H1 H 0.7277 0.0930 0.3733
C2 C 1.0000(7) 0.4928(6) 0.9487(7)
H2 H 0.9726 0.4434 0.9783
H3 H 0.9603 0.5491 0.9491
C3 C 0.7963(6) 0.1270(5) 0.5837(6)
C4 C 0.7747(6) 0.5099(5) 1.0362(6)
H4 H 0.8274 0.4671 1.0358
C5 C 0.7210(8) 0.6213(7) 1.1342(7)
H5 H 0.7370 0.6527 1.1993
C6 C 0.6214(8) 0.6410(6) 1.0380(8)
H6 H 0.5700 0.6853 1.0381
C7 C 0.7108(7) 0.1354(6) 0.2249(7)
H7 H 0.6899 0.0785 0.1897
C8 C 0.7175(8) 0.2114(6) 0.1674(7)
H8 H 0.6992 0.2060 0.0929
C9 C 0.8644(6) 0.2748(5) 0.9457(6)
C10 C 0.7796(7) 0.3026(6) 0.3327(6)
H9 H 0.8044 0.3588 0.3689
C11 C 0.8885(7) 0.0669(7) 0.6058(8)
H10 H 0.9484 0.0856 0.5917
C12 C 1.0548(8) 0.2583(7) 1.1036(8)
H11 H 1.1031 0.2628 1.1797
C13 C 0.5981(7) 0.5945(6) 0.9412(7)
H12 H 0.5307 0.6078 0.8763
C14 C 0.7976(7) 0.5553(6) 1.1348(7)
H13 H 0.8639 0.5413 1.2004
C15 C 0.7122(9) 0.0090(7) 0.6478(8)
H14 H 0.6525 -0.0103 0.6618
C16 C 0.8909(9) -0.0203(7) 0.6486(9)
H15 H 0.9526 -0.0596 0.6632
C17 C 0.9372(7) 0.2815(5) 1.0599(7)
H16 H 0.9080 0.3013 1.1069
C18 C 0.7093(7) 0.0972(6) 0.6044(7)
H17 H 0.6471 0.1360 0.5896
C19 C 1.1701(8) 0.5133(12) 0.9352(8)
H18 H 1.1793 0.5778 0.9227
H19 H 1.2447 0.4833 0.9618
C20 C 0.7706(6) 0.2271(5) 0.3895(6)
C21 C 0.9114(6) 0.2447(5) 0.8789(7)
H20 H 0.8636 0.2390 0.8028
C22 C 0.7511(8) 0.2945(7) 0.2195(7)
H21 H 0.7551 0.3457 0.1805
C23 C 0.8472(12) 0.6444(7) 0.4650(10)
H22 H 0.8934 0.6600 0.4288
H23 H 0.7664 0.6574 0.4152
C24 C 1.1292(7) 0.5045(7) 1.0180(7)
H24 H 1.1474 0.5592 1.0640
H25 H 1.1635 0.4513 1.0653
C25 C 1.0911(9) 0.4731(13) 0.8378(10)
H26 H 1.1153 0.4110 0.8326
H27 H 1.0854 0.5082 0.7749
C26 C 0.8652(8) 0.5447(6) 0.5041(7)
H28 H 0.8117 0.5045 0.4458
H29 H 0.9437 0.5250 0.5253
C27 C 1.0998(8) 0.2288(7) 1.0353(10)
H30 H 1.1776 0.2133 1.0649
C28 C 1.0272(8) 0.2229(7) 0.9224(9)
H31 H 1.0566 0.2040 0.8754
N1 N 0.6998(4) 0.3077(5) 0.5399(4)
C29 C 0.7383(5) 0.3047(5) 0.8940(5)
H32 H 0.7211 0.3247 0.9534
C30 C 0.5767(5) 0.2923(5) 0.4541(5)
H33 H 0.5681 0.2282 0.4292
C31 C 0.4975(6) 0.3087(7) 0.5073(6)
H34 H 0.5098 0.3697 0.5378
H35 H 0.5151 0.2646 0.5655
H36 H 0.4181 0.3020 0.4519
C32 C 0.5407(6) 0.3543(6) 0.3546(6)
N2 N 0.7237(5) 0.3845(4) 0.8204(5)
C33 C 0.6579(6) 0.2257(5) 0.8313(6)
H37 H 0.6782 0.1722 0.8782
H38 H 0.6652 0.2120 0.7659
H39 H 0.5794 0.2428 0.8101
C34 C 0.6741(6) 0.5281(5) 0.9392(6)
C35 C 0.4019(6) 0.4282(6) 0.6673(6)
H40 H 0.4142 0.4539 0.6113
C36 C 0.4686(6) 0.3928(5) 0.8611(7)
H41 H 0.5267 0.3932 0.9345
C37 C 0.8037(10) -0.0488(7) 0.6694(8)
H42 H 0.8060 -0.1073 0.6981
C38 C 0.4717(8) 0.3203(8) 0.2486(7)
H43 H 0.4478 0.2591 0.2399
C39 C 0.5720(7) 0.4459(7) 0.3631(7)
H44 H 0.6160 0.4716 0.4331
C40 C 0.4907(5) 0.4269(5) 0.7771(6)
C41 C 0.8893(14) 0.6945(8) 0.5753(11)
H45 H 0.9708 0.7095 0.6064
H46 H 0.8459 0.7508 0.5657
C42 C 0.5393(7) 0.5007(8) 0.2694(9)
H47 H 0.5625 0.5620 0.2775
C43 C 0.2949(6) 0.3903(6) 0.6431(8)
H48 H 0.2369 0.3881 0.5697
C44 C 0.3599(6) 0.3583(6) 0.8351(7)
H49 H 0.3455 0.3366 0.8917
C45 C 0.2732(7) 0.3555(7) 0.7273(8)
H50 H 0.2011 0.3310 0.7104
C46 C 0.4743(9) 0.4658(10) 0.1672(9)
H51 H 0.4541 0.5024 0.1047
C47 C 0.4375(10) 0.3749(9) 0.1555(8)
H52 H 0.3901 0.3509 0.0853
C48 C 0.8702(19) 0.6318(8) 0.6455(14)
H53 H 0.9391 0.6287 0.7171
H54 H 0.8069 0.6539 0.6574
loop_
_geom_bond_atom_site_label_1
_geom_bond_atom_site_label_2
_geom_bond_site_symmetry_1
_geom_bond_site_symmetry_2
Se1 Ca1 1_555 1_555
Se2 Ca1 1_555 1_555
Ca1 O1 1_555 1_555
P1 Se1 1_555 1_555
P2 Se2 1_555 1_555
O1 C26 1_555 1_555
O2 Ca1 1_555 1_555
C1 H1 1_555 1_555
C2 O2 1_555 1_555
H2 C2 1_555 1_555
H3 C2 1_555 1_555
C3 P2 1_555 1_555
C4 H4 1_555 1_555
C5 H5 1_555 1_555
C6 C5 1_555 1_555
H6 C6 1_555 1_555
C7 C1 1_555 1_555
H7 C7 1_555 1_555
C8 C7 1_555 1_555
H8 C8 1_555 1_555
C9 C17 1_555 1_555
C10 H9 1_555 1_555
C11 C3 1_555 1_555
H10 C11 1_555 1_555
C12 H11 1_555 1_555
C13 C6 1_555 1_555
H12 C13 1_555 1_555
C14 C4 1_555 1_555
H13 C14 1_555 1_555
C15 H14 1_555 1_555
C16 C11 1_555 1_555
H15 C16 1_555 1_555
C17 C12 1_555 1_555
H16 C17 1_555 1_555
C18 C3 1_555 1_555
H17 C18 1_555 1_555
C19 H18 1_555 1_555
H19 C19 1_555 1_555
C20 P2 1_555 1_555
C21 C9 1_555 1_555
H20 C21 1_555 1_555
C22 C8 1_555 1_555
H21 C22 1_555 1_555
C23 H22 1_555 1_555
H23 C23 1_555 1_555
C24 C2 1_555 1_555
H24 C24 1_555 1_555
H25 C24 1_555 1_555
C25 O2 1_555 1_555
H26 C25 1_555 1_555
H27 C25 1_555 1_555
C26 C23 1_555 1_555
H28 C26 1_555 1_555
H29 C26 1_555 1_555
C27 C12 1_555 1_555
H30 C27 1_555 1_555
C28 C21 1_555 1_555
H31 C28 1_555 1_555
N1 Ca1 1_555 1_555
C29 C9 1_555 1_555
H32 C29 1_555 1_555
C30 N1 1_555 1_555
H33 C30 1_555 1_555
C31 C30 1_555 1_555
H34 C31 1_555 1_555
H35 C31 1_555 1_555
H36 C31 1_555 1_555
C32 C30 1_555 1_555
N2 Ca1 1_555 1_555
C33 C29 1_555 1_555
H37 C33 1_555 1_555
H38 C33 1_555 1_555
H39 C33 1_555 1_555
C34 P1 1_555 1_555
C35 H40 1_555 1_555
C36 H41 1_555 1_555
C37 C15 1_555 1_555
H42 C37 1_555 1_555
C38 C32 1_555 1_555
H43 C38 1_555 1_555
C39 C32 1_555 1_555
H44 C39 1_555 1_555
C40 P1 1_555 1_555
C41 C23 1_555 1_555
H45 C41 1_555 1_555
H46 C41 1_555 1_555
C42 C39 1_555 1_555
H47 C42 1_555 1_555
C43 C35 1_555 1_555
H48 C43 1_555 1_555
C44 C36 1_555 1_555
H49 C44 1_555 1_555
C45 C43 1_555 1_555
H50 C45 1_555 1_555
C46 C42 1_555 1_555
H51 C46 1_555 1_555
C47 C38 1_555 1_555
H52 C47 1_555 1_555
C48 O1 1_555 1_555
H53 C48 1_555 1_555
H54 C48 1_555 1_555
P1 N2 1_555 1_555
P2 N1 1_555 1_555
C1 C20 1_555 1_555
C4 C34 1_555 1_555
C5 C14 1_555 1_555
C10 C20 1_555 1_555
C10 C22 1_555 1_555
C13 C34 1_555 1_555
C15 C18 1_555 1_555
C16 C37 1_555 1_555
C19 C24 1_555 1_555
C19 C25 1_555 1_555
C27 C28 1_555 1_555
C29 N2 1_555 1_555
C35 C40 1_555 1_555
C36 C40 1_555 1_555
C41 C48 1_555 1_555
C44 C45 1_555 1_555
C46 C47 1_555 1_555

#END
