
#######################################################################
#
#                 Cambridge Crystallographic Data Centre
#                                CCDC 
#
#######################################################################
#
# If this CIF has been generated from an entry in the Cambridge 
# Structural Database, then it will include bibliographic, chemical, 
# crystal, experimental, refinement or atomic coordinate data resulting 
# from the CCDC's data processing and validation procedures.
#
#######################################################################

data_NUFCIC
_chemical_formula_moiety         'C26 H18 I1 N1 O2'
_chemical_name_systematic        
7-iodo-3-methyl-1,2,6-triphenylpyrano[3,4-c]pyrrol-4(2H)-one
_symmetry_cell_setting           triclinic
_symmetry_space_group_name_H-M   'P -1'
_symmetry_Int_Tables_number      2
_space_group_name_Hall           '-P 1'
loop_
_symmetry_equiv_pos_site_id
_symmetry_equiv_pos_as_xyz
1 x,y,z
2 -x,-y,-z
_cell_length_a                   8.2650(8)
_cell_length_b                   9.9045(9)
_cell_length_c                   12.9392(9)
_cell_angle_alpha                87.580(6)
_cell_angle_beta                 89.280(7)
_cell_angle_gamma                81.755(8)
_cell_volume                     1047.31
_cell_formula_units_Z            2
loop_
_atom_site_label
_atom_site_type_symbol
_atom_site_fract_x
_atom_site_fract_y
_atom_site_fract_z
C1 C 0.8225(4) 0.2299(3) 0.4273(2)
C2 C 0.8504(4) 0.2897(3) 0.3355(2)
C3 C 1.1037(4) 0.3680(3) 0.3938(2)
C4 C 1.0685(4) 0.3108(3) 0.4931(2)
C5 C 1.1523(4) 0.3138(3) 0.5846(2)
C6 C 0.9320(4) 0.2036(3) 0.6159(2)
C7 C 0.9303(4) 0.2410(3) 0.5123(2)
C8 C 0.7521(4) 0.3028(3) 0.2400(2)
C9 C 0.5861(4) 0.3516(3) 0.2422(3)
H1 H 0.5346 0.3725 0.3050
C10 C 0.4964(5) 0.3694(3) 0.1515(3)
H2 H 0.3853 0.4026 0.1536
C11 C 0.5721(5) 0.3379(4) 0.0583(3)
H3 H 0.5118 0.3489 -0.0025
C12 C 0.7359(5) 0.2903(4) 0.0551(3)
H4 H 0.7866 0.2696 -0.0080
C13 C 0.8273(4) 0.2727(3) 0.1457(2)
H5 H 0.9386 0.2407 0.1429
C14 C 1.3078(4) 0.3670(3) 0.6046(3)
H6 H 1.2930 0.4262 0.6618
H7 H 1.3388 0.4172 0.5442
H8 H 1.3921 0.2921 0.6206
C15 C 0.8164(4) 0.1374(3) 0.6826(2)
C16 C 0.8223(4) -0.0031(3) 0.6862(2)
H9 H 0.9003 -0.0563 0.6472
C17 C 0.7138(5) -0.0651(4) 0.7468(3)
H10 H 0.7187 -0.1596 0.7485
C18 C 0.5988(5) 0.0124(4) 0.8048(3)
H11 H 0.5258 -0.0294 0.8460
C19 C 0.5914(4) 0.1517(4) 0.8020(3)
H12 H 0.5126 0.2042 0.8409
C20 C 0.7008(4) 0.2144(3) 0.7417(3)
H13 H 0.6962 0.3088 0.7409
C21 C 1.1080(4) 0.2356(3) 0.7669(2)
C22 C 1.1507(4) 0.1075(3) 0.8134(3)
H14 H 1.1540 0.0297 0.7752
C23 C 1.1882(4) 0.0970(3) 0.9171(3)
H15 H 1.2149 0.0112 0.9494
C24 C 1.1867(4) 0.2116(4) 0.9734(3)
H16 H 1.2143 0.2035 1.0431
C25 C 1.1439(5) 0.3382(4) 0.9261(3)
H17 H 1.1433 0.4160 0.9639
C26 C 1.1021(4) 0.3508(3) 0.8234(3)
H18 H 1.0700 0.4367 0.7923
I1 I 0.63883(3) 0.10501(2) 0.43916(2)
N1 N 1.0676(3) 0.2493(2) 0.65859(19)
O1 O 0.9877(3) 0.3565(2) 0.31835(16)
O2 O 1.2158(3) 0.4261(2) 0.36530(17)
loop_
_geom_bond_atom_site_label_1
_geom_bond_atom_site_label_2
_geom_bond_site_symmetry_1
_geom_bond_site_symmetry_2
C1 C2 1_555 1_555
C2 C8 1_555 1_555
C3 C4 1_555 1_555
C4 C5 1_555 1_555
C5 C14 1_555 1_555
C6 C7 1_555 1_555
C7 C1 1_555 1_555
C8 C9 1_555 1_555
C9 H1 1_555 1_555
C10 C9 1_555 1_555
H2 C10 1_555 1_555
C11 C10 1_555 1_555
H3 C11 1_555 1_555
C12 C11 1_555 1_555
H4 C12 1_555 1_555
C13 C8 1_555 1_555
H5 C13 1_555 1_555
C14 H6 1_555 1_555
H7 C14 1_555 1_555
H8 C14 1_555 1_555
C15 C6 1_555 1_555
C16 C15 1_555 1_555
H9 C16 1_555 1_555
C17 C16 1_555 1_555
H10 C17 1_555 1_555
C18 C17 1_555 1_555
H11 C18 1_555 1_555
C19 C18 1_555 1_555
H12 C19 1_555 1_555
C20 C15 1_555 1_555
H13 C20 1_555 1_555
C21 C22 1_555 1_555
C22 H14 1_555 1_555
C23 C22 1_555 1_555
H15 C23 1_555 1_555
C24 C23 1_555 1_555
H16 C24 1_555 1_555
C25 C24 1_555 1_555
H17 C25 1_555 1_555
C26 C21 1_555 1_555
H18 C26 1_555 1_555
I1 C1 1_555 1_555
N1 C5 1_555 1_555
O1 C2 1_555 1_555
O2 C3 1_555 1_555
C3 O1 1_555 1_555
C4 C7 1_555 1_555
C6 N1 1_555 1_555
C12 C13 1_555 1_555
C19 C20 1_555 1_555
C21 N1 1_555 1_555
C25 C26 1_555 1_555

#END
