
#######################################################################
#
#                 Cambridge Crystallographic Data Centre
#                                CCDC 
#
#######################################################################
#
# If this CIF has been generated from an entry in the Cambridge 
# Structural Database, then it will include bibliographic, chemical, 
# crystal, experimental, refinement or atomic coordinate data resulting 
# from the CCDC's data processing and validation procedures.
#
#######################################################################

data_NUFDOJ
_chemical_formula_moiety         'C2 H3 N5 O3'
_chemical_name_systematic        (5-nitro-2H-tetrazol-2-yl)methanol
_symmetry_cell_setting           monoclinic
_symmetry_space_group_name_H-M   'P 21'
_symmetry_Int_Tables_number      4
_space_group_name_Hall           'P 2yb'
loop_
_symmetry_equiv_pos_site_id
_symmetry_equiv_pos_as_xyz
1 x,y,z
2 -x,1/2+y,-z
_cell_length_a                   6.6131(18)
_cell_length_b                   5.4905(15)
_cell_length_c                   7.566(2)
_cell_angle_alpha                90
_cell_angle_beta                 90.578(4)
_cell_angle_gamma                90
_cell_volume                     274.702
_exptl_crystal_colour            colorless
_exptl_crystal_description       prism
_cell_formula_units_Z            2
loop_
_atom_site_label
_atom_site_type_symbol
_atom_site_fract_x
_atom_site_fract_y
_atom_site_fract_z
N1 N 0.0546(4) 0.4153(6) 0.1747(4)
N2 N 0.1898(4) 0.2487(6) 0.1389(4)
N3 N 0.3586(4) 0.3196(5) 0.2206(3)
N4 N 0.3421(4) 0.5255(6) 0.3101(4)
N5 N 0.0525(4) 0.7920(5) 0.3449(4)
O1 O 0.6589(3) 0.2574(6) 0.0633(3)
H1 H 0.7510 0.3521 0.0977
O2 O -0.1212(4) 0.8305(5) 0.2956(4)
O3 O 0.1517(4) 0.9179(6) 0.4478(3)
C1 C 0.1512(5) 0.5757(7) 0.2759(4)
C2 C 0.5496(5) 0.1770(8) 0.2082(5)
H2 H 0.6310 0.1984 0.3176
H3 H 0.5180 0.0017 0.1948
loop_
_geom_bond_atom_site_label_1
_geom_bond_atom_site_label_2
_geom_bond_site_symmetry_1
_geom_bond_site_symmetry_2
N1 N2 1_555 1_555
N2 N3 1_555 1_555
N3 N4 1_555 1_555
N4 C1 1_555 1_555
N5 O2 1_555 1_555
O1 H1 1_555 1_555
O3 N5 1_555 1_555
C1 N1 1_555 1_555
C2 N3 1_555 1_555
H2 C2 1_555 1_555
H3 C2 1_555 1_555
N5 C1 1_555 1_555
O1 C2 1_555 1_555

#END
