
#######################################################################
#
#                 Cambridge Crystallographic Data Centre
#                                CCDC 
#
#######################################################################
#
# If this CIF has been generated from an entry in the Cambridge 
# Structural Database, then it will include bibliographic, chemical, 
# crystal, experimental, refinement or atomic coordinate data resulting 
# from the CCDC's data processing and validation procedures.
#
#######################################################################

data_NUFDUP
_chemical_formula_moiety         'C21 H23 N3 O2'
_chemical_name_systematic        
5-(1-(biphenyl-3-ylmethyl)-1H-pyrazol-5-yl)-N-hydroxypentanamide
_symmetry_cell_setting           monoclinic
_symmetry_space_group_name_H-M   'P c'
_symmetry_Int_Tables_number      7
_space_group_name_Hall           'P -2yc'
loop_
_symmetry_equiv_pos_site_id
_symmetry_equiv_pos_as_xyz
1 x,y,z
2 x,-y,1/2+z
_cell_length_a                   9.2614(3)
_cell_length_b                   10.9532(3)
_cell_length_c                   9.7376(3)
_cell_angle_alpha                90
_cell_angle_beta                 109.968(3)
_cell_angle_gamma                90
_cell_volume                     928.418
_cell_formula_units_Z            2
loop_
_atom_site_label
_atom_site_type_symbol
_atom_site_fract_x
_atom_site_fract_y
_atom_site_fract_z
O1 O 0.13547(14) 0.90375(12) 0.34055(15)
H1 H 0.1468 0.8294 0.3435
O2 O 0.31794(16) 0.95351(12) 0.18093(14)
N1 N 0.27814(17) 0.96005(14) 0.39743(16)
H2 H 0.3137 0.9800 0.4883
C1 C 0.83477(19) 1.71975(17) 0.7304(2)
C2 C 0.3595(2) 0.98295(17) 0.3115(2)
C3 C 0.8626(2) 1.79305(17) 0.4961(2)
H3 H 0.9591 1.8241 0.5490
C4 C 0.77501(19) 1.73611(16) 0.56908(19)
N2 N 0.22552(17) 1.66498(14) 0.36988(17)
N3 N 0.32221(16) 1.60179(13) 0.31796(15)
C5 C 0.9350(2) 1.6914(2) 1.0336(2)
H4 H 0.9672 1.6823 1.1345
C6 C 0.6283(2) 1.69310(16) 0.4867(2)
H5 H 0.5679 1.6562 0.5341
C7 C 0.8058(2) 1.61204(17) 0.7936(2)
H6 H 0.7527 1.5489 0.7338
C8 C 0.8548(2) 1.5980(2) 0.9435(2)
H7 H 0.8341 1.5260 0.9839
C9 C 0.1541(2) 1.57987(19) 0.4204(2)
H8 H 0.0804 1.5965 0.4630
C10 C 0.2036(2) 1.46206(18) 0.4014(2)
H9 H 0.1702 1.3883 0.4274
C11 C 0.5716(2) 1.70447(15) 0.33614(19)
C12 C 0.4126(2) 1.39031(17) 0.2941(2)
H10 H 0.5193 1.4131 0.3422
H11 H 0.3908 1.3951 0.1895
C13 C 0.9671(2) 1.7983(2) 0.9736(2)
H12 H 1.0215 1.8606 1.0342
C14 C 0.5095(2) 1.04773(17) 0.3867(2)
H13 H 0.5935 0.9985 0.3789
H14 H 0.5239 1.0572 0.4895
C15 C 0.5132(2) 1.17347(18) 0.3193(2)
H15 H 0.6133 1.2101 0.3665
H16 H 0.4989 1.1636 0.2165
C16 C 0.6632(2) 1.75860(17) 0.2654(2)
H17 H 0.6276 1.7645 0.1641
C17 C 0.3124(2) 1.47962(17) 0.33600(19)
C18 C 0.3901(2) 1.25897(17) 0.3345(2)
H18 H 0.3916 1.2567 0.4346
H19 H 0.2901 1.2305 0.2719
C19 C 0.9179(2) 1.81205(19) 0.8229(2)
H20 H 0.9405 1.8836 0.7830
C20 C 0.8072(2) 1.80363(18) 0.3458(2)
H21 H 0.8669 1.8412 0.2982
C21 C 0.4108(2) 1.66561(17) 0.24247(19)
H22 H 0.3540 1.7379 0.1967
H23 H 0.4187 1.6132 0.1651
loop_
_geom_bond_atom_site_label_1
_geom_bond_atom_site_label_2
_geom_bond_site_symmetry_1
_geom_bond_site_symmetry_2
O1 H1 1_555 1_555
O2 C2 1_555 1_555
N1 O1 1_555 1_555
H2 N1 1_555 1_555
C1 C4 1_555 1_555
C2 N1 1_555 1_555
C3 H3 1_555 1_555
C4 C3 1_555 1_555
N2 N3 1_555 1_555
N3 C17 1_555 1_555
C5 H4 1_555 1_555
C6 C4 1_555 1_555
H5 C6 1_555 1_555
C7 C1 1_555 1_555
H6 C7 1_555 1_555
C8 C5 1_555 1_555
H7 C8 1_555 1_555
C9 N2 1_555 1_555
H8 C9 1_555 1_555
C10 C9 1_555 1_555
H9 C10 1_555 1_555
C11 C6 1_555 1_555
C12 H10 1_555 1_555
H11 C12 1_555 1_555
C13 C5 1_555 1_555
H12 C13 1_555 1_555
C14 C2 1_555 1_555
H13 C14 1_555 1_555
H14 C14 1_555 1_555
C15 C14 1_555 1_555
H15 C15 1_555 1_555
H16 C15 1_555 1_555
C16 C11 1_555 1_555
H17 C16 1_555 1_555
C17 C10 1_555 1_555
C18 C12 1_555 1_555
H18 C18 1_555 1_555
H19 C18 1_555 1_555
C19 C1 1_555 1_555
H20 C19 1_555 1_555
C20 C3 1_555 1_555
H21 C20 1_555 1_555
C21 N3 1_555 1_555
H22 C21 1_555 1_555
H23 C21 1_555 1_555
C7 C8 1_555 1_555
C11 C21 1_555 1_555
C12 C17 1_555 1_555
C13 C19 1_555 1_555
C15 C18 1_555 1_555
C16 C20 1_555 1_555

#END
