
#######################################################################
#
#                 Cambridge Crystallographic Data Centre
#                                CCDC 
#
#######################################################################
#
# If this CIF has been generated from an entry in the Cambridge 
# Structural Database, then it will include bibliographic, chemical, 
# crystal, experimental, refinement or atomic coordinate data resulting 
# from the CCDC's data processing and validation procedures.
#
#######################################################################

data_NUFDAU
_chemical_formula_moiety         'C32 H28 N2 O4,C3 H6 O1'
_chemical_name_systematic        
'2,4,6,7,11,13,15,16-Octamethylacridino[9,8a-l]acridine-5,8,14,17-tetrone acetone solvate'
_symmetry_cell_setting           monoclinic
_symmetry_space_group_name_H-M   'P 21/c'
_symmetry_Int_Tables_number      14
_space_group_name_Hall           '-P 2ybc'
loop_
_symmetry_equiv_pos_site_id
_symmetry_equiv_pos_as_xyz
1 x,y,z
2 -x,1/2+y,1/2-z
3 -x,-y,-z
4 x,1/2-y,1/2+z
_cell_length_a                   12.9982(7)
_cell_length_b                   13.4719(8)
_cell_length_c                   18.1372(9)
_cell_angle_alpha                90
_cell_angle_beta                 108.346(2)
_cell_angle_gamma                90
_cell_volume                     3014.59
_exptl_crystal_colour            yellow
_exptl_crystal_description       prism
_chemical_melting_point          271-272deg.C(dec)
_cell_formula_units_Z            4
loop_
_atom_site_label
_atom_site_type_symbol
_atom_site_fract_x
_atom_site_fract_y
_atom_site_fract_z
C1 C 0.1545(3) 0.2195(2) 0.27065(18)
C2 C 0.0849(3) 0.1315(3) 0.26631(19)
C3 C -0.0325(3) 0.1450(3) 0.2217(3)
H1 H -0.0466 0.2139 0.2088
H2 H -0.0760 0.1235 0.2528
H3 H -0.0504 0.1064 0.1748
C4 C 0.0715(4) -0.0523(4) 0.2829(3)
H4 H 0.1208 -0.1045 0.3071
H5 H 0.0404 -0.0660 0.2285
H6 H 0.0149 -0.0483 0.3064
C5 C 0.1313(3) 0.0444(3) 0.2936(2)
C6 C 0.2505(3) 0.0384(3) 0.3341(2)
C7 C 0.3112(3) 0.1319(2) 0.36364(19)
C8 C 0.4694(2) 0.2115(2) 0.43194(18)
C9 C 0.5588(3) 0.2022(3) 0.49747(19)
H7 H 0.5757 0.1406 0.5213
C10 C 0.6233(3) 0.2833(3) 0.5281(2)
C11 C 0.7172(3) 0.2773(4) 0.6020(2)
H8 H 0.7511 0.3412 0.6136
H9 H 0.7690 0.2298 0.5957
H10 H 0.6916 0.2569 0.6438
C12 C 0.5992(3) 0.3711(3) 0.4876(2)
H11 H 0.6442 0.4253 0.5065
C13 C 0.5020(3) 0.4861(3) 0.3829(2)
H12 H 0.4403 0.4873 0.3367
H13 H 0.5664 0.5004 0.3697
H14 H 0.4929 0.5352 0.4187
C14 C 0.5118(3) 0.3844(3) 0.4199(2)
C15 C 0.4422(2) 0.3034(2) 0.39232(18)
C16 C 0.3369(2) 0.3023(2) 0.32224(18)
C17 C 0.3644(3) 0.2632(3) 0.25133(19)
C18 C 0.4100(3) 0.3346(3) 0.2077(2)
C19 C 0.4831(5) 0.2914(4) 0.1665(3)
H15 H 0.4959 0.2226 0.1802
H16 H 0.5508 0.3265 0.1816
H17 H 0.4494 0.2972 0.1114
C20 C 0.4132(4) 0.5061(4) 0.1541(3)
H18 H 0.3791 0.5685 0.1571
H19 H 0.3934 0.4851 0.1009
H20 H 0.4905 0.5136 0.1744
C21 C 0.3767(3) 0.4297(3) 0.2010(2)
C22 C 0.2978(3) 0.4640(3) 0.2388(2)
C23 C 0.2828(3) 0.4038(2) 0.30449(19)
C24 C 0.2076(2) 0.3832(2) 0.40315(18)
C25 C 0.1756(3) 0.4365(3) 0.4570(2)
H21 H 0.1638 0.5045 0.4506
C26 C 0.1606(3) 0.3887(3) 0.5214(2)
C27 C 0.1305(5) 0.4461(4) 0.5832(3)
H22 H 0.1248 0.5154 0.5702
H23 H 0.1853 0.4367 0.6325
H24 H 0.0622 0.4227 0.5862
C28 C 0.1738(3) 0.2874(3) 0.5255(2)
H25 H 0.1639 0.2549 0.5680
C29 C 0.2009(3) 0.2300(3) 0.47039(19)
C30 C 0.2076(4) 0.1196(3) 0.4848(3)
H26 H 0.2262 0.0869 0.4437
H27 H 0.1388 0.0957 0.4864
H28 H 0.2621 0.1060 0.5335
C31 C 0.2205(2) 0.2797(2) 0.40802(17)
C32 C 0.2552(2) 0.2314(2) 0.34163(18)
N1 N 0.2237(2) 0.4401(2) 0.34193(16)
N2 N 0.4094(2) 0.1239(2) 0.40664(15)
O1 O 0.1317(2) 0.28070(19) 0.21848(14)
O2 O 0.2969(2) -0.0408(2) 0.3442(2)
O3 O 0.3529(2) 0.1771(2) 0.23318(15)
O4 O 0.2485(3) 0.5405(3) 0.2200(2)
C33 C 0.7677(10) 0.2720(9) 0.3649(7)
H29 H 0.7600 0.3428 0.3612
H30 H 0.7012 0.2429 0.3669
H31 H 0.7843 0.2471 0.3203
C34 C 0.8561(11) 0.2460(10) 0.4359(8)
C35 C 0.8854(11) 0.1518(10) 0.4687(8)
H32 H 0.9422 0.1584 0.5173
H33 H 0.9105 0.1118 0.4339
H34 H 0.8236 0.1207 0.4771
O5 O 0.8822(6) 0.3144(6) 0.4920(5)
loop_
_geom_bond_atom_site_label_1
_geom_bond_atom_site_label_2
_geom_bond_site_symmetry_1
_geom_bond_site_symmetry_2
C1 C2 1_555 1_555
C2 C3 1_555 1_555
C3 H1 1_555 1_555
H2 C3 1_555 1_555
H3 C3 1_555 1_555
C4 H4 1_555 1_555
H5 C4 1_555 1_555
H6 C4 1_555 1_555
C5 C2 1_555 1_555
C6 C5 1_555 1_555
C7 C6 1_555 1_555
C8 C9 1_555 1_555
C9 H7 1_555 1_555
C10 C9 1_555 1_555
C11 C10 1_555 1_555
H8 C11 1_555 1_555
H9 C11 1_555 1_555
H10 C11 1_555 1_555
C12 C10 1_555 1_555
H11 C12 1_555 1_555
C13 H12 1_555 1_555
H13 C13 1_555 1_555
H14 C13 1_555 1_555
C14 C12 1_555 1_555
C15 C8 1_555 1_555
C16 C15 1_555 1_555
C17 C16 1_555 1_555
C18 C17 1_555 1_555
C19 C18 1_555 1_555
H15 C19 1_555 1_555
H16 C19 1_555 1_555
H17 C19 1_555 1_555
C20 H18 1_555 1_555
H19 C20 1_555 1_555
H20 C20 1_555 1_555
C21 C18 1_555 1_555
C22 C21 1_555 1_555
C23 C16 1_555 1_555
C24 C25 1_555 1_555
C25 H21 1_555 1_555
C26 C25 1_555 1_555
C27 C26 1_555 1_555
H22 C27 1_555 1_555
H23 C27 1_555 1_555
H24 C27 1_555 1_555
C28 C26 1_555 1_555
H25 C28 1_555 1_555
C29 C28 1_555 1_555
C30 C29 1_555 1_555
H26 C30 1_555 1_555
H27 C30 1_555 1_555
H28 C30 1_555 1_555
C31 C24 1_555 1_555
C32 C1 1_555 1_555
C33 H29 1_555 1_555
H30 C33 1_555 1_555
H31 C33 1_555 1_555
C34 C33 1_555 1_555
C35 C34 1_555 1_555
H32 C35 1_555 1_555
H33 C35 1_555 1_555
H34 C35 1_555 1_555
N1 C23 1_555 1_555
N2 C7 1_555 1_555
O1 C1 1_555 1_555
O2 C6 1_555 1_555
O3 C17 1_555 1_555
O4 C22 1_555 1_555
O5 C34 1_555 1_555
C4 C5 1_555 1_555
C7 C32 1_555 1_555
C8 N2 1_555 1_555
C13 C14 1_555 1_555
C14 C15 1_555 1_555
C16 C32 1_555 1_555
C20 C21 1_555 1_555
C22 C23 1_555 1_555
C24 N1 1_555 1_555
C29 C31 1_555 1_555
C31 C32 1_555 1_555

#END
