
#######################################################################
#
#                 Cambridge Crystallographic Data Centre
#                                CCDC 
#
#######################################################################
#
# If this CIF has been generated from an entry in the Cambridge 
# Structural Database, then it will include bibliographic, chemical, 
# crystal, experimental, refinement or atomic coordinate data resulting 
# from the CCDC's data processing and validation procedures.
#
#######################################################################

data_NUFNAF
_chemical_formula_moiety         'C30 H22 Cl2 N2 O1'
_chemical_name_systematic        
10-Chloro-4-(4-chlorophenyl)-2-ethoxy-12-phenyl-5,6-dihydrobenzo[j][1,7]phenanthroline
_symmetry_cell_setting           monoclinic
_symmetry_space_group_name_H-M   'P 21/c'
_symmetry_Int_Tables_number      14
_space_group_name_Hall           '-P 2ybc'
loop_
_symmetry_equiv_pos_site_id
_symmetry_equiv_pos_as_xyz
1 x,y,z
2 -x,1/2+y,1/2-z
3 -x,-y,-z
4 x,1/2-y,1/2+z
_cell_length_a                   11.3697(2)
_cell_length_b                   28.8078(5)
_cell_length_c                   15.2132(3)
_cell_angle_alpha                90
_cell_angle_beta                 98.4130(10)
_cell_angle_gamma                90
_cell_volume                     4929.25
_exptl_crystal_colour            yellow
_exptl_crystal_description       block
_chemical_melting_point          '154 deg.C'
_cell_formula_units_Z            8
_chemical_properties_physical    Moisture-sensitive
_exptl_crystal_recrystallization_method 'Ethyl acetate'
loop_
_atom_site_label
_atom_site_type_symbol
_atom_site_fract_x
_atom_site_fract_y
_atom_site_fract_z
C1 C 1.66960(18) 0.24215(7) 1.16470(14)
C2 C 1.69111(19) 0.22400(7) 1.25022(14)
H1 H 1.7368 0.2403 1.2957
C3 C 1.64441(18) 0.18216(7) 1.26618(13)
H2 H 1.6595 0.1696 1.3230
C4 C 1.57357(16) 0.15738(6) 1.19859(12)
C5 C 1.54816(15) 0.17688(6) 1.11314(12)
C6 C 1.60042(16) 0.22010(7) 1.09729(13)
H3 H 1.5874 0.2333 1.0409
C7 C 1.47478(15) 0.15133(6) 1.04565(11)
C8 C 1.43299(15) 0.10852(6) 1.06744(11)
C9 C 1.47041(15) 0.09088(6) 1.15496(11)
C10 C 1.43374(17) 0.04304(7) 1.17814(12)
H4 H 1.3585 0.0446 1.2009
H5 H 1.4926 0.0304 1.2245
C11 C 1.42130(17) 0.01141(7) 1.09815(12)
H6 H 1.4982 0.0070 1.0789
H7 H 1.3919 -0.0187 1.1135
C12 C 1.33619(16) 0.03283(6) 1.02445(12)
C13 C 1.34681(15) 0.07994(6) 1.00803(11)
C14 C 1.19595(18) 0.07796(7) 0.89255(13)
C15 C 1.17529(18) 0.03094(7) 0.90454(13)
H8 H 1.1151 0.0155 0.8680
C16 C 1.24594(17) 0.00797(6) 0.97159(12)
C17 C 1.22180(17) -0.04177(6) 0.98795(12)
C18 C 1.1805(2) -0.05543(8) 1.06475(14)
H9 H 1.1691 -0.0333 1.1072
C19 C 1.1559(2) -0.10121(8) 1.07962(16)
H10 H 1.1285 -0.1100 1.1318
C20 C 1.1720(2) -0.13371(8) 1.01738(18)
C21 C 1.21013(18) -0.12135(7) 0.93971(17)
H11 H 1.2188 -0.1436 0.8969
C22 C 1.23562(17) -0.07542(7) 0.92561(14)
H12 H 1.2627 -0.0669 0.8731
C23 C 1.1479(2) 0.14676(7) 0.80840(15)
H13 H 1.2297 0.1505 0.7985
H14 H 1.1351 0.1659 0.8586
C24 C 1.0654(2) 0.16076(8) 0.72783(16)
H15 H 1.0786 0.1928 0.7147
H16 H 0.9847 0.1567 0.7383
H17 H 1.0794 0.1418 0.6785
C25 C 1.45377(16) 0.17199(6) 0.95490(11)
C26 C 1.51127(19) 0.15436(8) 0.88887(13)
H18 H 1.5575 0.1277 0.8991
C27 C 1.5004(2) 0.17611(9) 0.80742(15)
H19 H 1.5398 0.1640 0.7631
C28 C 1.4325(2) 0.21522(8) 0.79094(15)
H20 H 1.4261 0.2298 0.7359
C29 C 1.3744(2) 0.23257(7) 0.85575(14)
H21 H 1.3271 0.2589 0.8447
C30 C 1.38512(19) 0.21135(7) 0.93756(13)
H22 H 1.3457 0.2237 0.9817
N1 N 1.53622(14) 0.11408(5) 1.21805(10)
N2 N 1.27681(13) 0.10241(5) 0.94247(10)
O1 O 1.12402(13) 0.09911(5) 0.82571(9)
Cl1 Cl 1.73480(6) 0.29495(2) 1.14422(5)
Cl2 Cl 1.14147(8) -0.19155(2) 1.03658(7)
C31 C 1.18389(17) 0.15947(7) 1.16313(13)
C32 C 1.11820(18) 0.13209(8) 1.09781(13)
H23 H 1.0954 0.1437 1.0408
C33 C 1.08797(17) 0.08822(7) 1.11851(12)
H24 H 1.0439 0.0699 1.0753
C34 C 1.12226(16) 0.07017(7) 1.20402(12)
C35 C 1.19128(15) 0.09766(6) 1.26924(11)
C36 C 1.22063(17) 0.14318(7) 1.24621(12)
H25 H 1.2653 0.1621 1.2881
C37 C 1.22505(15) 0.07839(6) 1.35566(11)
C38 C 1.18887(16) 0.03381(6) 1.37146(12)
C39 C 1.11578(17) 0.00974(6) 1.30135(12)
C40 C 1.0704(2) -0.03774(7) 1.31824(13)
H26 H 1.1282 -0.0608 1.3064
H27 H 0.9972 -0.0435 1.2783
C41 C 1.04773(18) -0.04221(7) 1.41299(13)
H28 H 0.9847 -0.0212 1.4235
H29 H 1.0227 -0.0736 1.4238
C42 C 1.15933(17) -0.03089(6) 1.47478(12)
C43 C 1.22403(17) 0.00784(6) 1.45550(12)
C44 C 1.35668(19) -0.00078(7) 1.58124(13)
C45 C 1.30138(19) -0.04073(7) 1.60539(13)
H30 H 1.3315 -0.0567 1.6569
C46 C 1.20138(18) -0.05628(7) 1.55188(12)
C47 C 1.14309(17) -0.09940(7) 1.57734(13)
C48 C 1.1281(2) -0.13750(7) 1.52143(15)
H31 H 1.1534 -0.1359 1.4661
C49 C 1.0763(2) -0.17775(8) 1.54642(17)
H32 H 1.0661 -0.2031 1.5081
C50 C 1.04025(19) -0.18001(8) 1.62764(17)
C51 C 1.05689(19) -0.14350(8) 1.68560(16)
H33 H 1.0341 -0.1459 1.7417
C52 C 1.10763(18) -0.10316(7) 1.66028(14)
H34 H 1.1182 -0.0782 1.6993
C53 C 1.5081(2) 0.05587(8) 1.61569(15)
H35 H 1.4499 0.0806 1.6057
H36 H 1.5443 0.0519 1.5623
C54 C 1.5995(2) 0.06713(9) 1.69192(17)
H37 H 1.6388 0.0955 1.6801
H38 H 1.6566 0.0424 1.7009
H39 H 1.5625 0.0708 1.7443
C55 C 1.29296(17) 0.10930(6) 1.42375(11)
C56 C 1.23660(19) 0.12941(7) 1.48809(13)
H40 H 1.1580 0.1218 1.4919
C57 C 1.2960(2) 0.16082(8) 1.54699(15)
H41 H 1.2573 0.1741 1.5906
C58 C 1.4105(2) 0.17250(8) 1.54180(15)
H42 H 1.4502 0.1937 1.5818
C59 C 1.4672(2) 0.15315(8) 1.47793(15)
H43 H 1.5454 0.1613 1.4742
C60 C 1.40894(19) 0.12158(8) 1.41876(13)
H44 H 1.4481 0.1085 1.3753
N3 N 1.08473(14) 0.02664(6) 1.22147(10)
N4 N 1.32263(14) 0.02259(5) 1.50811(10)
O2 O 1.45248(14) 0.01359(5) 1.63733(10)
Cl3 Cl 0.97264(7) -0.23001(2) 1.65885(7)
Cl4 Cl 1.21633(6) 0.21609(2) 1.13632(4)
loop_
_geom_bond_atom_site_label_1
_geom_bond_atom_site_label_2
_geom_bond_site_symmetry_1
_geom_bond_site_symmetry_2
C1 C2 1_555 1_555
C2 H1 1_555 1_555
C3 C2 1_555 1_555
H2 C3 1_555 1_555
C4 C3 1_555 1_555
C5 C4 1_555 1_555
C6 C1 1_555 1_555
H3 C6 1_555 1_555
C7 C5 1_555 1_555
C8 C7 1_555 1_555
C9 C8 1_555 1_555
C10 C9 1_555 1_555
H4 C10 1_555 1_555
H5 C10 1_555 1_555
C11 C10 1_555 1_555
H6 C11 1_555 1_555
H7 C11 1_555 1_555
C12 C11 1_555 1_555
C13 C8 1_555 1_555
C14 C15 1_555 1_555
C15 H8 1_555 1_555
C16 C12 1_555 1_555
C17 C16 1_555 1_555
C18 C17 1_555 1_555
H9 C18 1_555 1_555
C19 C18 1_555 1_555
H10 C19 1_555 1_555
C20 C19 1_555 1_555
C21 C20 1_555 1_555
H11 C21 1_555 1_555
C22 C17 1_555 1_555
H12 C22 1_555 1_555
C23 H13 1_555 1_555
H14 C23 1_555 1_555
C24 C23 1_555 1_555
H15 C24 1_555 1_555
H16 C24 1_555 1_555
H17 C24 1_555 1_555
C25 C7 1_555 1_555
C26 C25 1_555 1_555
H18 C26 1_555 1_555
C27 C26 1_555 1_555
H19 C27 1_555 1_555
C28 C27 1_555 1_555
H20 C28 1_555 1_555
C29 C28 1_555 1_555
H21 C29 1_555 1_555
C30 C25 1_555 1_555
H22 C30 1_555 1_555
N1 C4 1_555 1_555
N2 C13 1_555 1_555
O1 C14 1_555 1_555
Cl1 C1 1_555 1_555
Cl2 C20 1_555 1_555
C31 C32 1_555 1_555
C32 H23 1_555 1_555
C33 C32 1_555 1_555
H24 C33 1_555 1_555
C34 C33 1_555 1_555
C35 C34 1_555 1_555
C36 C31 1_555 1_555
H25 C36 1_555 1_555
C37 C35 1_555 1_555
C38 C37 1_555 1_555
C39 C38 1_555 1_555
C40 C39 1_555 1_555
H26 C40 1_555 1_555
H27 C40 1_555 1_555
C41 C40 1_555 1_555
H28 C41 1_555 1_555
H29 C41 1_555 1_555
C42 C41 1_555 1_555
C43 C38 1_555 1_555
C44 C45 1_555 1_555
C45 H30 1_555 1_555
C46 C42 1_555 1_555
C47 C46 1_555 1_555
C48 C47 1_555 1_555
H31 C48 1_555 1_555
C49 C48 1_555 1_555
H32 C49 1_555 1_555
C50 C49 1_555 1_555
C51 C50 1_555 1_555
H33 C51 1_555 1_555
C52 C47 1_555 1_555
H34 C52 1_555 1_555
C53 H35 1_555 1_555
H36 C53 1_555 1_555
C54 C53 1_555 1_555
H37 C54 1_555 1_555
H38 C54 1_555 1_555
H39 C54 1_555 1_555
C55 C37 1_555 1_555
C56 C55 1_555 1_555
H40 C56 1_555 1_555
C57 C56 1_555 1_555
H41 C57 1_555 1_555
C58 C57 1_555 1_555
H42 C58 1_555 1_555
C59 C58 1_555 1_555
H43 C59 1_555 1_555
C60 C55 1_555 1_555
H44 C60 1_555 1_555
N3 C34 1_555 1_555
N4 C43 1_555 1_555
O2 C44 1_555 1_555
Cl3 C50 1_555 1_555
Cl4 C31 1_555 1_555
C5 C6 1_555 1_555
C9 N1 1_555 1_555
C12 C13 1_555 1_555
C14 N2 1_555 1_555
C15 C16 1_555 1_555
C21 C22 1_555 1_555
C23 O1 1_555 1_555
C29 C30 1_555 1_555
C35 C36 1_555 1_555
C39 N3 1_555 1_555
C42 C43 1_555 1_555
C44 N4 1_555 1_555
C45 C46 1_555 1_555
C51 C52 1_555 1_555
C53 O2 1_555 1_555
C59 C60 1_555 1_555

#END
