
#######################################################################
#
#                 Cambridge Crystallographic Data Centre
#                                CCDC 
#
#######################################################################
#
# If this CIF has been generated from an entry in the Cambridge 
# Structural Database, then it will include bibliographic, chemical, 
# crystal, experimental, refinement or atomic coordinate data resulting 
# from the CCDC's data processing and validation procedures.
#
#######################################################################

data_NUFWOB
_chemical_formula_moiety         'C22 H35 Br1 Li1 N3 O1'
_chemical_name_systematic        
Bromo-(1-(2-(t-butylamino-N)ethyl)-3-mesityl-2,3-dihydro-1H-imidazol-2-ylidene)-(tetrahydrofuran)-lithium
_symmetry_cell_setting           triclinic
_symmetry_space_group_name_H-M   'P -1'
_symmetry_Int_Tables_number      2
_space_group_name_Hall           '-P 1'
loop_
_symmetry_equiv_pos_site_id
_symmetry_equiv_pos_as_xyz
1 x,y,z
2 -x,-y,-z
_cell_length_a                   12.1381(5)
_cell_length_b                   14.1671(5)
_cell_length_c                   14.4333(5)
_cell_angle_alpha                91.415(2)
_cell_angle_beta                 106.716(2)
_cell_angle_gamma                95.938(2)
_cell_volume                     2360.47
_exptl_crystal_colour            colorless
_exptl_crystal_description       prism
_chemical_melting_point          122deg.C
_cell_formula_units_Z            4
_exptl_crystal_recrystallization_method toluene/thf
loop_
_atom_site_label
_atom_site_type_symbol
_atom_site_fract_x
_atom_site_fract_y
_atom_site_fract_z
Br1 Br 0.43411(4) 0.32828(3) 0.01528(3)
Li1 Li 0.6486(6) 0.3215(5) 0.0533(5)
N1 N 0.7205(3) 0.4616(2) 0.0238(2)
H1 H 0.663(4) 0.492(3) 0.026(3)
N2 N 0.6857(3) 0.2983(2) -0.1346(2)
N3 N 0.7509(3) 0.1722(2) -0.0778(2)
O1 O 0.6988(3) 0.2802(2) 0.1874(2)
C1 C 0.8284(4) 0.5053(3) 0.0960(3)
C2 C 0.9177(4) 0.4355(4) 0.1094(4)
H3 H 0.8919 0.3795 0.1370
H4 H 0.9902 0.4644 0.1519
H5 H 0.9274 0.4184 0.0477
C3 C 0.7983(5) 0.5224(4) 0.1896(3)
H6 H 0.7379 0.5631 0.1787
H7 H 0.8657 0.5520 0.2382
H8 H 0.7725 0.4628 0.2111
C4 C 0.8767(4) 0.6006(3) 0.0672(4)
H9 H 0.9014 0.5906 0.0106
H10 H 0.9413 0.6284 0.1195
H11 H 0.8175 0.6426 0.0534
C5 C 0.7209(4) 0.4669(3) -0.0779(3)
H12 H 0.7985 0.4616 -0.0818
H13 H 0.6999 0.5283 -0.1005
C6 C 0.6377(4) 0.3893(3) -0.1429(3)
H14 H 0.5658 0.3826 -0.1256
H15 H 0.6203 0.4071 -0.2096
C7 C 0.6982(3) 0.2465(3) -0.0549(3)
C8 C 0.7285(4) 0.2586(3) -0.2032(3)
H16 H 0.7284 0.2825 -0.2627
C9 C 0.7697(4) 0.1795(3) -0.1680(3)
H17 H 0.8044 0.1372 -0.1978
C10 C 0.6959(4) 0.0187(3) -0.0216(3)
C11 C 0.7269(4) -0.0581(3) 0.0346(3)
H18 H 0.6709 -0.1085 0.0334
C12 C 0.8386(4) -0.0611(3) 0.0918(3)
C13 C 0.9208(4) 0.0149(3) 0.0939(3)
H19 H 0.9964 0.0130 0.1326
C14 C 0.8943(4) 0.0937(3) 0.0404(3)
C15 C 0.7806(4) 0.0936(3) -0.0177(3)
C16 C 0.5730(4) 0.0203(4) -0.0859(3)
H20 H 0.5396 0.0718 -0.0639
H21 H 0.5278 -0.0387 -0.0830
H22 H 0.5738 0.0288 -0.1514
C17 C 0.8716(5) -0.1451(3) 0.1515(4)
H23 H 0.8064 -0.1932 0.1380
H24 H 0.8949 -0.1253 0.2191
H25 H 0.9346 -0.1705 0.1355
C18 C 0.9850(4) 0.1768(3) 0.0475(4)
H26 H 0.9667 0.2091 -0.0118
H27 H 1.0594 0.1544 0.0585
H28 H 0.9866 0.2200 0.1003
C19 C 0.7734(5) 0.2099(4) 0.2207(4)
H29 H 0.8443 0.2377 0.2679
H30 H 0.7928 0.1801 0.1671
C20 C 0.7093(6) 0.1400(4) 0.2651(5)
H31 H 0.7604 0.1178 0.3232
H32 H 0.6740 0.0858 0.2202
C21 C 0.6179(6) 0.1919(5) 0.2892(5)
H33 H 0.5410 0.1614 0.2552
H34 H 0.6274 0.1934 0.3583
C22 C 0.6360(5) 0.2898(4) 0.2566(4)
H35 H 0.5624 0.3133 0.2269
H36 H 0.6802 0.3331 0.3107
Br2 Br 0.55697(4) 0.34527(3) 0.55770(3)
Li2 Li 0.3460(7) 0.2938(5) 0.4886(5)
N4 N 0.2790(3) 0.4188(2) 0.4182(2)
H2 H 0.333(4) 0.470(3) 0.451(3)
N5 N 0.3287(3) 0.2574(2) 0.2853(2)
N6 N 0.2677(3) 0.1181(2) 0.3121(2)
O2 O 0.2914(3) 0.2413(2) 0.5951(2)
C23 C 0.1750(4) 0.4516(3) 0.4382(3)
C24 C 0.0786(4) 0.3693(3) 0.4128(4)
H37 H 0.0631 0.3484 0.3460
H38 H 0.0099 0.3898 0.4230
H39 H 0.1020 0.3179 0.4532
C25 C 0.2106(5) 0.4790(4) 0.5457(4)
H40 H 0.2389 0.4259 0.5815
H41 H 0.1450 0.4969 0.5635
H42 H 0.2706 0.5316 0.5602
C26 C 0.1334(4) 0.5371(3) 0.3824(4)
H43 H 0.1969 0.5865 0.3928
H44 H 0.0732 0.5601 0.4047
H45 H 0.1038 0.5188 0.3145
C27 C 0.2755(4) 0.4172(3) 0.3157(3)
H46 H 0.2884 0.4819 0.2971
H47 H 0.1993 0.3898 0.2763
C28 C 0.3668(4) 0.3598(3) 0.2959(3)
H48 H 0.3833 0.3800 0.2371
H49 H 0.4377 0.3723 0.3489
C29 C 0.3070(3) 0.2062(3) 0.3574(3)
C30 C 0.3041(4) 0.2042(3) 0.1984(3)
H50 H 0.3123 0.2254 0.1399
C31 C 0.2663(4) 0.1163(3) 0.2158(3)
H51 H 0.2435 0.0640 0.1716
C32 C 0.3060(4) -0.0319(3) 0.3855(3)
C33 C 0.2659(5) -0.1138(3) 0.4239(3)
H52 H 0.3148 -0.1606 0.4433
C34 C 0.1566(5) -0.1267(3) 0.4336(4)
C35 C 0.0849(4) -0.0557(3) 0.4065(3)
H53 H 0.0115 -0.0634 0.4150
C36 C 0.1195(4) 0.0267(3) 0.3669(3)
C37 C 0.2309(4) 0.0367(3) 0.3563(3)
C38 C 0.4253(4) -0.0206(4) 0.3748(3)
H54 H 0.4206 -0.0196 0.3073
H55 H 0.4654 -0.0728 0.4025
H56 H 0.4665 0.0380 0.4076
C39 C 0.1147(7) -0.2172(4) 0.4723(5)
H57 H 0.1768 -0.2561 0.4914
H58 H 0.0515 -0.2512 0.4228
H59 H 0.0891 -0.2020 0.5274
C40 C 0.0408(4) 0.1025(3) 0.3395(4)
H60 H -0.0376 0.0761 0.3319
H61 H 0.0465 0.1275 0.2797
H62 H 0.0630 0.1527 0.3895
C41 C 0.2693(7) 0.1414(5) 0.5974(4)
H63 H 0.2975 0.1105 0.5494
H64 H 0.1866 0.1229 0.5819
C42 C 0.3282(5) 0.1113(3) 0.6951(4)
H65 H 0.3731 0.0593 0.6910
H66 H 0.2727 0.0915 0.7295
C43 C 0.4050(5) 0.1986(4) 0.7436(3)
H67 H 0.4123 0.2029 0.8123
H68 H 0.4815 0.1993 0.7351
C44 C 0.3444(5) 0.2766(3) 0.6935(3)
H69 H 0.2863 0.2932 0.7233
H70 H 0.3989 0.3326 0.6964
loop_
_geom_bond_atom_site_label_1
_geom_bond_atom_site_label_2
_geom_bond_site_symmetry_1
_geom_bond_site_symmetry_2
Br1 Li1 1_555 1_555
Br2 Li2 1_555 1_555
Li1 N1 1_555 1_555
Li2 N4 1_555 1_555
N1 H1 1_555 1_555
N2 C6 1_555 1_555
N3 C7 1_555 1_555
N4 H2 1_555 1_555
N5 C28 1_555 1_555
N6 C29 1_555 1_555
O1 Li1 1_555 1_555
O2 Li2 1_555 1_555
C1 N1 1_555 1_555
C2 C1 1_555 1_555
H3 C2 1_555 1_555
H4 C2 1_555 1_555
H5 C2 1_555 1_555
C3 C1 1_555 1_555
H6 C3 1_555 1_555
H7 C3 1_555 1_555
H8 C3 1_555 1_555
C4 C1 1_555 1_555
H9 C4 1_555 1_555
H10 C4 1_555 1_555
H11 C4 1_555 1_555
C5 N1 1_555 1_555
H12 C5 1_555 1_555
H13 C5 1_555 1_555
C6 C5 1_555 1_555
H14 C6 1_555 1_555
H15 C6 1_555 1_555
C7 Li1 1_555 1_555
C8 N2 1_555 1_555
H16 C8 1_555 1_555
C9 N3 1_555 1_555
H17 C9 1_555 1_555
C10 C11 1_555 1_555
C11 H18 1_555 1_555
C12 C11 1_555 1_555
C13 C12 1_555 1_555
H19 C13 1_555 1_555
C14 C13 1_555 1_555
C15 N3 1_555 1_555
C16 C10 1_555 1_555
H20 C16 1_555 1_555
H21 C16 1_555 1_555
H22 C16 1_555 1_555
C17 C12 1_555 1_555
H23 C17 1_555 1_555
H24 C17 1_555 1_555
H25 C17 1_555 1_555
C18 C14 1_555 1_555
H26 C18 1_555 1_555
H27 C18 1_555 1_555
H28 C18 1_555 1_555
C19 O1 1_555 1_555
H29 C19 1_555 1_555
H30 C19 1_555 1_555
C20 C19 1_555 1_555
H31 C20 1_555 1_555
H32 C20 1_555 1_555
C21 C20 1_555 1_555
H33 C21 1_555 1_555
H34 C21 1_555 1_555
C22 O1 1_555 1_555
H35 C22 1_555 1_555
H36 C22 1_555 1_555
C23 N4 1_555 1_555
C24 C23 1_555 1_555
H37 C24 1_555 1_555
H38 C24 1_555 1_555
H39 C24 1_555 1_555
C25 C23 1_555 1_555
H40 C25 1_555 1_555
H41 C25 1_555 1_555
H42 C25 1_555 1_555
C26 C23 1_555 1_555
H43 C26 1_555 1_555
H44 C26 1_555 1_555
H45 C26 1_555 1_555
C27 N4 1_555 1_555
H46 C27 1_555 1_555
H47 C27 1_555 1_555
C28 C27 1_555 1_555
H48 C28 1_555 1_555
H49 C28 1_555 1_555
C29 Li2 1_555 1_555
C30 N5 1_555 1_555
H50 C30 1_555 1_555
C31 N6 1_555 1_555
H51 C31 1_555 1_555
C32 C33 1_555 1_555
C33 H52 1_555 1_555
C34 C33 1_555 1_555
C35 C34 1_555 1_555
H53 C35 1_555 1_555
C36 C35 1_555 1_555
C37 N6 1_555 1_555
C38 C32 1_555 1_555
H54 C38 1_555 1_555
H55 C38 1_555 1_555
H56 C38 1_555 1_555
C39 C34 1_555 1_555
H57 C39 1_555 1_555
H58 C39 1_555 1_555
H59 C39 1_555 1_555
C40 C36 1_555 1_555
H60 C40 1_555 1_555
H61 C40 1_555 1_555
H62 C40 1_555 1_555
C41 O2 1_555 1_555
H63 C41 1_555 1_555
H64 C41 1_555 1_555
C42 C41 1_555 1_555
H65 C42 1_555 1_555
H66 C42 1_555 1_555
C43 C42 1_555 1_555
H67 C43 1_555 1_555
H68 C43 1_555 1_555
C44 O2 1_555 1_555
H69 C44 1_555 1_555
H70 C44 1_555 1_555
N2 C7 1_555 1_555
N5 C29 1_555 1_555
C8 C9 1_555 1_555
C10 C15 1_555 1_555
C14 C15 1_555 1_555
C21 C22 1_555 1_555
C30 C31 1_555 1_555
C32 C37 1_555 1_555
C36 C37 1_555 1_555
C43 C44 1_555 1_555

#END
