
#######################################################################
#
#                 Cambridge Crystallographic Data Centre
#                                CCDC 
#
#######################################################################
#
# If this CIF has been generated from an entry in the Cambridge 
# Structural Database, then it will include bibliographic, chemical, 
# crystal, experimental, refinement or atomic coordinate data resulting 
# from the CCDC's data processing and validation procedures.
#
#######################################################################

data_NUGCID
_chemical_formula_moiety         'C22 H18 N2 S1'
_chemical_name_systematic        
4-(5-methyl-1,3-thiazol-2-yl)-N,N-diphenylaniline
_symmetry_cell_setting           monoclinic
_symmetry_space_group_name_H-M   'P 21/c'
_symmetry_Int_Tables_number      14
_space_group_name_Hall           '-P 2ybc'
loop_
_symmetry_equiv_pos_site_id
_symmetry_equiv_pos_as_xyz
1 x,y,z
2 -x,1/2+y,1/2-z
3 -x,-y,-z
4 x,1/2-y,1/2+z
_cell_length_a                   14.4988(13)
_cell_length_b                   11.6363(11)
_cell_length_c                   11.2255(10)
_cell_angle_alpha                90
_cell_angle_beta                 109.791(2)
_cell_angle_gamma                90
_cell_volume                     1782.02
_exptl_crystal_colour            colorless
_exptl_crystal_description       block
_cell_formula_units_Z            4
loop_
_atom_site_label
_atom_site_type_symbol
_atom_site_fract_x
_atom_site_fract_y
_atom_site_fract_z
C1 C 0.55647(18) 0.8565(2) 0.4957(3)
H1 H 0.5128 0.8968 0.4241
H2 H 0.5985 0.8073 0.4683
H3 H 0.5955 0.9110 0.5561
C2 C 0.49803(14) 0.78564(16) 0.5560(2)
C3 C 0.39603(13) 0.64414(16) 0.61433(17)
C4 C 0.48915(16) 0.79775(18) 0.6693(2)
H4 H 0.5206 0.8570 0.7233
C5 C 0.33249(12) 0.54796(15) 0.62177(17)
C6 C 0.28679(14) 0.54819(17) 0.71264(19)
H5 H 0.2953 0.6105 0.7672
C7 C 0.22875(15) 0.45670(18) 0.7227(2)
H6 H 0.1991 0.4580 0.7843
C8 C 0.21438(14) 0.36314(17) 0.6419(2)
C9 C 0.25856(14) 0.36311(16) 0.5497(2)
H7 H 0.2487 0.3016 0.4939
C10 C 0.31728(13) 0.45436(16) 0.54067(18)
H8 H 0.3470 0.4529 0.4792
C11 C 0.06705(13) 0.28271(16) 0.67546(19)
C12 C 0.00556(16) 0.3717(2) 0.6197(3)
H9 H 0.0237 0.4239 0.5689
C13 C -0.08322(19) 0.3840(2) 0.6386(4)
H10 H -0.1238 0.4453 0.6012
C14 C -0.1120(2) 0.3089(3) 0.7103(3)
H11 H -0.1724 0.3174 0.7213
C15 C -0.0511(2) 0.2197(3) 0.7668(2)
H12 H -0.0701 0.1679 0.8173
C16 C 0.03831(16) 0.2061(2) 0.7496(2)
H13 H 0.0790 0.1452 0.7881
C17 C 0.18503(14) 0.15549(16) 0.6281(2)
C18 C 0.12151(17) 0.0862(2) 0.5382(2)
H14 H 0.0589 0.1123 0.4922
C19 C 0.1512(2) -0.0231(2) 0.5162(3)
H15 H 0.1080 -0.0701 0.4557
C20 C 0.2428(2) -0.0618(2) 0.5822(3)
H16 H 0.2623 -0.1349 0.5670
C21 C 0.30547(19) 0.0070(2) 0.6704(3)
H17 H 0.3682 -0.0193 0.7153
C22 C 0.27766(15) 0.11496(18) 0.6946(2)
H18 H 0.3214 0.1608 0.7559
N1 N 0.43181(13) 0.71960(15) 0.70363(16)
N2 N 0.15708(12) 0.26777(14) 0.65377(19)
S1 S 0.42977(5) 0.66859(5) 0.48276(5)
loop_
_geom_bond_atom_site_label_1
_geom_bond_atom_site_label_2
_geom_bond_site_symmetry_1
_geom_bond_site_symmetry_2
C1 H1 1_555 1_555
H2 C1 1_555 1_555
H3 C1 1_555 1_555
C2 C1 1_555 1_555
C3 C5 1_555 1_555
C4 C2 1_555 1_555
H4 C4 1_555 1_555
C5 C6 1_555 1_555
C6 H5 1_555 1_555
C7 C6 1_555 1_555
H6 C7 1_555 1_555
C8 C7 1_555 1_555
C9 C8 1_555 1_555
H7 C9 1_555 1_555
C10 C5 1_555 1_555
H8 C10 1_555 1_555
C11 C12 1_555 1_555
C12 H9 1_555 1_555
C13 C12 1_555 1_555
H10 C13 1_555 1_555
C14 C13 1_555 1_555
H11 C14 1_555 1_555
C15 C14 1_555 1_555
H12 C15 1_555 1_555
C16 C11 1_555 1_555
H13 C16 1_555 1_555
C17 C18 1_555 1_555
C18 H14 1_555 1_555
C19 C18 1_555 1_555
H15 C19 1_555 1_555
C20 C19 1_555 1_555
H16 C20 1_555 1_555
C21 C20 1_555 1_555
H17 C21 1_555 1_555
C22 C17 1_555 1_555
H18 C22 1_555 1_555
N1 C3 1_555 1_555
N2 C8 1_555 1_555
S1 C2 1_555 1_555
C3 S1 1_555 1_555
C4 N1 1_555 1_555
C9 C10 1_555 1_555
C11 N2 1_555 1_555
C15 C16 1_555 1_555
C17 N2 1_555 1_555
C21 C22 1_555 1_555

#END
