
#######################################################################
#
#                 Cambridge Crystallographic Data Centre
#                                CCDC 
#
#######################################################################
#
# If this CIF has been generated from an entry in the Cambridge 
# Structural Database, then it will include bibliographic, chemical, 
# crystal, experimental, refinement or atomic coordinate data resulting 
# from the CCDC's data processing and validation procedures.
#
#######################################################################

data_NUGCAV
_chemical_formula_moiety         'C23 H15 N1 O1 S1'
_chemical_name_systematic        
5-(4-(9H-carbazol-9-yl)phenyl)thiophene-2-carbaldehyde
_symmetry_cell_setting           monoclinic
_symmetry_space_group_name_H-M   'P 21/c'
_symmetry_Int_Tables_number      14
_space_group_name_Hall           '-P 2ybc'
loop_
_symmetry_equiv_pos_site_id
_symmetry_equiv_pos_as_xyz
1 x,y,z
2 -x,1/2+y,1/2-z
3 -x,-y,-z
4 x,1/2-y,1/2+z
_cell_length_a                   8.0010(10)
_cell_length_b                   27.025(3)
_cell_length_c                   8.2473(10)
_cell_angle_alpha                90
_cell_angle_beta                 97.133(2)
_cell_angle_gamma                90
_cell_volume                     1769.49
_exptl_crystal_colour            yellow
_exptl_crystal_description       block
_cell_formula_units_Z            4
loop_
_atom_site_label
_atom_site_type_symbol
_atom_site_fract_x
_atom_site_fract_y
_atom_site_fract_z
C1 C 0.6096(4) -0.06856(11) 1.5739(4)
H1 H 0.5415 -0.0965 1.5662
C2 C 0.6427(3) -0.04591(10) 1.4226(3)
C3 C 0.5830(3) -0.06075(9) 1.2692(3)
H2 H 0.5115 -0.0877 1.2467
C4 C 0.6403(3) -0.03129(9) 1.1491(3)
H3 H 0.6110 -0.0370 1.0380
C5 C 0.7428(3) 0.00650(9) 1.2079(3)
C6 C 0.8275(3) 0.04355(9) 1.1172(3)
C7 C 0.8320(3) 0.03720(9) 0.9500(3)
H4 H 0.7783 0.0100 0.8975
C8 C 0.9145(3) 0.07037(9) 0.8613(3)
H5 H 0.9176 0.0652 0.7502
C9 C 0.9928(3) 0.11138(9) 0.9372(3)
C10 C 0.9880(4) 0.11856(10) 1.1025(3)
H6 H 1.0396 0.1461 1.1543
C11 C 0.9066(3) 0.08473(10) 1.1905(3)
H7 H 0.9048 0.0898 1.3019
C12 C 1.0186(4) 0.16470(9) 0.6934(3)
C13 C 1.1480(5) 0.19205(9) 0.6352(4)
C14 C 1.2937(4) 0.18843(9) 0.7548(4)
C15 C 1.2480(4) 0.15937(9) 0.8835(4)
C16 C 0.8580(5) 0.16231(11) 0.6105(4)
H8 H 0.7736 0.1441 0.6507
C17 C 0.8277(6) 0.18827(13) 0.4646(4)
H9 H 0.7205 0.1878 0.4062
C18 C 0.9561(7) 0.21513(13) 0.4042(5)
H10 H 0.9330 0.2322 0.3061
C19 C 1.1133(6) 0.21664(12) 0.4863(5)
H11 H 1.1980 0.2340 0.4435
C20 C 1.4592(5) 0.20634(12) 0.7652(5)
H12 H 1.4924 0.2258 0.6819
C21 C 1.5715(5) 0.19494(14) 0.8990(6)
H13 H 1.6810 0.2070 0.9064
C22 C 1.5244(4) 0.16588(13) 1.0231(5)
H14 H 1.6035 0.1583 1.1120
C23 C 1.3620(4) 0.14767(11) 1.0183(4)
H15 H 1.3307 0.1283 1.1026
N1 N 1.0803(3) 0.14489(8) 0.8451(3)
O1 O 0.6623(3) -0.05449(9) 1.7091(3)
S1 S 0.77089(9) 0.00522(3) 1.41909(8)
loop_
_geom_bond_atom_site_label_1
_geom_bond_atom_site_label_2
_geom_bond_site_symmetry_1
_geom_bond_site_symmetry_2
C1 H1 1_555 1_555
C2 C1 1_555 1_555
C3 C2 1_555 1_555
H2 C3 1_555 1_555
C4 C3 1_555 1_555
H3 C4 1_555 1_555
C5 C4 1_555 1_555
C6 C5 1_555 1_555
C7 C6 1_555 1_555
H4 C7 1_555 1_555
C8 C7 1_555 1_555
H5 C8 1_555 1_555
C9 C8 1_555 1_555
C10 C9 1_555 1_555
H6 C10 1_555 1_555
C11 C6 1_555 1_555
H7 C11 1_555 1_555
C12 C13 1_555 1_555
C13 C14 1_555 1_555
C14 C15 1_555 1_555
C15 C23 1_555 1_555
C16 C12 1_555 1_555
H8 C16 1_555 1_555
C17 C16 1_555 1_555
H9 C17 1_555 1_555
C18 C17 1_555 1_555
H10 C18 1_555 1_555
C19 C13 1_555 1_555
H11 C19 1_555 1_555
C20 C14 1_555 1_555
H12 C20 1_555 1_555
C21 C20 1_555 1_555
H13 C21 1_555 1_555
C22 C21 1_555 1_555
H14 C22 1_555 1_555
C23 C22 1_555 1_555
H15 C23 1_555 1_555
N1 C9 1_555 1_555
O1 C1 1_555 1_555
S1 C2 1_555 1_555
C5 S1 1_555 1_555
C10 C11 1_555 1_555
C12 N1 1_555 1_555
C15 N1 1_555 1_555
C18 C19 1_555 1_555

#END
