
#######################################################################
#
#                 Cambridge Crystallographic Data Centre
#                                CCDC 
#
#######################################################################
#
# If this CIF has been generated from an entry in the Cambridge 
# Structural Database, then it will include bibliographic, chemical, 
# crystal, experimental, refinement or atomic coordinate data resulting 
# from the CCDC's data processing and validation procedures.
#
#######################################################################

data_NUGPIQ
_chemical_formula_moiety         'C19 H19 N5 O4 S1'
_chemical_name_systematic        
'Methyl N-ethyl-N-(4-((6-nitro-1,3-benzothiazol-2-yl)diazenyl)phenyl)-\b-alaninate'
_symmetry_cell_setting           orthorhombic
_symmetry_space_group_name_H-M   'P 21 21 21'
_symmetry_Int_Tables_number      19
_space_group_name_Hall           'P 2ac 2ab'
loop_
_symmetry_equiv_pos_site_id
_symmetry_equiv_pos_as_xyz
1 x,y,z
2 1/2-x,-y,1/2+z
3 -x,1/2+y,1/2-z
4 1/2+x,1/2-y,-z
_cell_length_a                   8.2666(7)
_cell_length_b                   11.2053(10)
_cell_length_c                   21.2669(18)
_cell_angle_alpha                90
_cell_angle_beta                 90
_cell_angle_gamma                90
_cell_volume                     1969.95
_exptl_crystal_colour            purple
_exptl_crystal_description       block
_cell_formula_units_Z            4
loop_
_atom_site_label
_atom_site_type_symbol
_atom_site_fract_x
_atom_site_fract_y
_atom_site_fract_z
C1 C 1.3903(3) 0.8613(2) 0.13821(9)
C2 C 1.2524(3) 0.9296(2) 0.14355(9)
H1 H 1.2447 1.0043 0.1247
C3 C 1.1259(3) 0.88234(18) 0.17819(9)
C4 C 1.1402(3) 0.77080(18) 0.20784(10)
C5 C 1.2822(3) 0.70523(19) 0.20093(12)
H2 H 1.2928 0.6314 0.2205
C6 C 1.4063(3) 0.74967(19) 0.16523(10)
H3 H 1.5002 0.7053 0.1592
C7 C 0.8969(3) 0.81694(19) 0.24022(11)
C8 C 0.5165(3) 0.89162(19) 0.29956(10)
C9 C 0.4058(3) 0.98294(19) 0.28830(9)
H4 H 0.4305 1.0406 0.2583
C10 C 0.2623(3) 0.99042(19) 0.31985(9)
H5 H 0.1906 1.0520 0.3109
C11 C 0.2226(3) 0.9051(2) 0.36597(10)
C12 C 0.3354(3) 0.8113(2) 0.37703(11)
H6 H 0.3116 0.7533 0.4069
C13 C 0.4768(3) 0.8051(2) 0.34494(10)
H7 H 0.5484 0.7429 0.3530
C14 C -0.0384(3) 1.0050(2) 0.38866(11)
H8 H -0.1443 0.9750 0.4004
H9 H -0.0412 1.0242 0.3442
C15 C -0.0026(4) 1.1171(3) 0.42584(12)
H10 H 0.0093 1.0973 0.4695
H11 H -0.0901 1.1726 0.4209
H12 H 0.0957 1.1525 0.4107
C16 C 0.0550(3) 0.8333(2) 0.45348(10)
H13 H -0.0221 0.8702 0.4818
H14 H 0.1558 0.8228 0.4761
C17 C -0.0085(3) 0.7121(2) 0.43350(12)
H15 H -0.1256 0.7148 0.4312
H16 H 0.0325 0.6930 0.3920
C18 C 0.0427(3) 0.6161(2) 0.47947(11)
C19 C -0.0113(4) 0.4230(3) 0.51599(14)
H17 H 0.0882 0.3898 0.5006
H18 H -0.0949 0.3636 0.5141
H19 H 0.0028 0.4484 0.5587
N1 N 1.5284(3) 0.9103(2) 0.10391(9)
N2 N 1.0088(2) 0.73637(15) 0.24317(10)
N3 N 0.7536(2) 0.80416(16) 0.27373(9)
N4 N 0.6590(2) 0.89345(16) 0.26536(9)
N5 N 0.0822(2) 0.91234(17) 0.39955(9)
O1 O 1.5270(3) 1.0159(2) 0.09038(10)
O2 O 1.6385(2) 0.8438(2) 0.08944(9)
O3 O 0.1598(2) 0.61992(18) 0.51240(10)
O4 O -0.0566(3) 0.52417(16) 0.47763(8)
S1 S 0.93853(7) 0.94422(5) 0.19506(3)
loop_
_geom_bond_atom_site_label_1
_geom_bond_atom_site_label_2
_geom_bond_site_symmetry_1
_geom_bond_site_symmetry_2
C1 C2 1_555 1_555
C2 H1 1_555 1_555
C3 C2 1_555 1_555
C4 C3 1_555 1_555
C5 C4 1_555 1_555
H2 C5 1_555 1_555
C6 C1 1_555 1_555
H3 C6 1_555 1_555
C7 N2 1_555 1_555
C8 C9 1_555 1_555
C9 H4 1_555 1_555
C10 C9 1_555 1_555
H5 C10 1_555 1_555
C11 C10 1_555 1_555
C12 C11 1_555 1_555
H6 C12 1_555 1_555
C13 C8 1_555 1_555
H7 C13 1_555 1_555
C14 H8 1_555 1_555
H9 C14 1_555 1_555
C15 C14 1_555 1_555
H10 C15 1_555 1_555
H11 C15 1_555 1_555
H12 C15 1_555 1_555
C16 H13 1_555 1_555
H14 C16 1_555 1_555
C17 C16 1_555 1_555
H15 C17 1_555 1_555
H16 C17 1_555 1_555
C18 C17 1_555 1_555
C19 H17 1_555 1_555
H18 C19 1_555 1_555
H19 C19 1_555 1_555
N1 C1 1_555 1_555
N2 C4 1_555 1_555
N3 C7 1_555 1_555
N4 C8 1_555 1_555
N5 C11 1_555 1_555
O1 N1 1_555 1_555
O2 N1 1_555 1_555
O3 C18 1_555 1_555
O4 C18 1_555 1_555
S1 C3 1_555 1_555
C5 C6 1_555 1_555
C7 S1 1_555 1_555
C12 C13 1_555 1_555
C14 N5 1_555 1_555
C16 N5 1_555 1_555
C19 O4 1_555 1_555
N3 N4 1_555 1_555

#END
