
#######################################################################
#
#                 Cambridge Crystallographic Data Centre
#                                CCDC 
#
#######################################################################
#
# If this CIF has been generated from an entry in the Cambridge 
# Structural Database, then it will include bibliographic, chemical, 
# crystal, experimental, refinement or atomic coordinate data resulting 
# from the CCDC's data processing and validation procedures.
#
#######################################################################

data_NUGZEW
_chemical_formula_moiety         
'C37 H45 N1 O14,C26 H26 N2 2+,2(F6 P1 1-),2(C2 H3 N1)'
_chemical_name_systematic        
"(2)-((4,4'-Ethane-1,2-diylbis(1-benzylpyridinium))-(5,8,11,14,17,25,33,37,40,43,46,49-dodecaoxa-50-azapentacyclo[19.15.13.1^27,31^.0^4,35^.0^18,23^]pentaconta-1,3,18,20,22,27(50),28,30,35-nonaene-26,32-dione)) pseudorotaxane bis(hexafluorophosphate) acetonitrile solvate"
_symmetry_cell_setting           triclinic
_symmetry_space_group_name_H-M   'P -1'
_symmetry_Int_Tables_number      2
_space_group_name_Hall           '-P 1'
loop_
_symmetry_equiv_pos_site_id
_symmetry_equiv_pos_as_xyz
1 x,y,z
2 -x,-y,-z
_cell_length_a                   16.4730(6)
_cell_length_b                   21.0698(6)
_cell_length_c                   22.2668(7)
_cell_angle_alpha                101.201(3)
_cell_angle_beta                 99.999(3)
_cell_angle_gamma                108.199(3)
_cell_volume                     6970.63
_exptl_crystal_colour            yellow
_exptl_crystal_description       block
_cell_formula_units_Z            4
loop_
_atom_site_label
_atom_site_type_symbol
_atom_site_fract_x
_atom_site_fract_y
_atom_site_fract_z
P1 P 0.59706(8) 0.54638(6) 0.64462(6)
F1 F 0.6477(2) 0.62308(16) 0.68849(17)
F2 F 0.5435(3) 0.47017(17) 0.60352(17)
F3 F 0.5626(6) 0.52429(19) 0.6989(2)
F4 F 0.5182(4) 0.5688(3) 0.6311(4)
F5 F 0.6320(6) 0.5679(3) 0.5916(3)
F6 F 0.6750(4) 0.5248(3) 0.6592(4)
P2 P 0.39491(9) 0.44406(6) 0.85413(6)
F7 F 0.3445(2) 0.36818(15) 0.80852(17)
F8 F 0.4492(3) 0.51883(17) 0.89736(18)
F9 F 0.4233(5) 0.46880(18) 0.7977(2)
F10 F 0.4776(3) 0.4223(3) 0.8638(3)
F11 F 0.3664(5) 0.4180(2) 0.9087(2)
F12 F 0.3134(3) 0.4642(3) 0.8438(3)
P3 P 0.91918(9) 0.14457(6) 0.94719(6)
F13 F 0.8974(3) 0.1018(3) 0.9970(2)
F14 F 0.9414(4) 0.1885(3) 0.9021(3)
F15 F 0.8354(3) 0.1635(2) 0.9548(2)
F16 F 0.8638(4) 0.0770(3) 0.8973(3)
F17 F 1.0019(3) 0.1259(3) 0.9411(3)
F18 F 0.9740(4) 0.2082(3) 1.0033(3)
P4 P 0.89960(12) 0.14674(7) 0.43818(8)
F19 F 0.8817(3) 0.1040(2) 0.48691(19)
F20 F 0.8119(3) 0.1608(3) 0.4425(3)
F21 F 0.8509(5) 0.0769(2) 0.3861(2)
F22 F 0.9136(6) 0.1884(3) 0.3904(4)
F23 F 0.9873(4) 0.1359(3) 0.4364(3)
F24 F 0.9477(4) 0.2149(3) 0.4941(3)
O1 O 0.99755(17) 0.38999(14) 0.82115(12)
O2 O 1.09573(17) 0.44921(13) 0.73980(11)
O3 O 0.46656(18) 0.20254(13) 0.79332(13)
O4 O 0.82821(18) 0.33733(14) 0.84775(13)
O5 O 0.30261(18) 0.16876(15) 0.70178(13)
O6 O 0.47680(18) 0.26455(15) 0.45914(13)
O7 O 0.83908(19) 0.39772(14) 0.53210(13)
C1 C 0.6987(3) 0.22950(19) 0.81258(17)
H1 H 0.7341 0.2021 0.8062
O8 O 0.50823(19) 0.08992(14) 0.71866(12)
O9 O 1.01089(18) 0.42169(15) 0.61023(12)
O10 O 0.54679(18) 0.14968(13) 0.47520(12)
C2 C 0.5559(2) 0.23828(19) 0.80766(17)
O11 O 0.21641(19) 0.13402(15) 0.56756(13)
C3 C 0.7387(3) 0.3013(2) 0.83465(18)
C4 C 0.6184(3) 0.26195(19) 0.46275(16)
C5 C 0.5960(3) 0.3098(2) 0.83077(17)
H2 H 0.5610 0.3375 0.8377
O12 O 0.31186(19) 0.20165(16) 0.48811(13)
C6 C 0.6865(3) 0.3407(2) 0.84363(18)
H3 H 0.7133 0.3897 0.8589
N1 N 0.5051(2) 0.08824(16) 0.56260(14)
C7 C 0.9777(3) 0.3452(2) 0.86131(19)
H4 H 0.9886 0.3731 0.9051
H5 H 1.0166 0.3177 0.8615
O13 O 0.6267(2) 0.11430(17) 0.67790(13)
C8 C 0.5656(3) 0.3007(2) 0.47722(17)
C9 C 0.6077(3) 0.1975(2) 0.79972(17)
C10 C 0.8835(3) 0.2978(2) 0.83851(19)
H6 H 0.8704 0.2741 0.7931
H7 H 0.8723 0.2621 0.8622
C11 C 0.5755(3) 0.1866(2) 0.42877(17)
H8 H 0.5242 0.1790 0.3940
H9 H 0.6180 0.1696 0.4106
C12 C 1.1045(3) 0.4856(2) 0.80278(17)
H10 H 1.0625 0.5105 0.8028
H11 H 1.1650 0.5202 0.8204
C13 C 0.4825(3) 0.0598(2) 0.60839(19)
C14 C 0.7493(3) 0.3626(2) 0.51189(17)
C15 C 0.7094(3) 0.29319(19) 0.48006(17)
H12 H 0.7447 0.2667 0.4700
C16 C 1.0863(3) 0.4364(2) 0.84326(17)
H13 H 1.1266 0.4100 0.8420
H14 H 1.0970 0.4627 0.8876
C17 C 1.1203(3) 0.4966(2) 0.70271(18)
H15 H 1.1839 0.5253 0.7191
H16 H 1.0863 0.5279 0.7058
C18 C 0.4118(3) 0.2427(2) 0.79529(19)
H17 H 0.4319 0.2917 0.8113
C19 C 0.5664(3) 0.1196(2) 0.78178(18)
H18 H 0.6140 0.1001 0.7849
H19 H 0.5325 0.1056 0.8126
O14 O 0.4343(2) 0.06909(17) 0.39870(13)
C20 C 0.8926(3) 0.3581(2) 0.51833(18)
H20 H 0.8795 0.3387 0.4720
H21 H 0.8799 0.3192 0.5383
C21 C 0.9872(3) 0.4036(2) 0.54316(18)
H22 H 1.0246 0.3793 0.5268
H23 H 0.9976 0.4462 0.5284
C22 C 0.3175(3) 0.1959(2) 0.76822(19)
H24 H 0.3040 0.1574 0.7887
H25 H 0.2781 0.2220 0.7764
C23 C 0.6061(3) 0.3708(2) 0.50840(18)
H26 H 0.5710 0.3978 0.5177
C24 C 0.5481(3) 0.0917(2) 0.67201(18)
C25 C 0.6965(3) 0.4011(2) 0.52578(18)
H27 H 0.7235 0.4489 0.5475
C26 C 0.3269(3) 0.2505(3) 0.45160(19)
H28 H 0.2853 0.2755 0.4544
H29 H 0.3163 0.2260 0.4067
C27 C 1.1028(3) 0.4583(2) 0.63511(19)
H30 H 1.1245 0.4914 0.6103
H31 H 1.1347 0.4254 0.6321
C28 C 0.4053(3) 0.0040(2) 0.5985(2)
H32 H 0.3900 -0.0138 0.6327
C29 C 0.4200(3) 0.3014(2) 0.4752(2)
H33 H 0.4276 0.3401 0.4550
H34 H 0.4344 0.3207 0.5216
C30 C 0.2139(3) 0.1241(2) 0.6731(2)
H35 H 0.1747 0.1514 0.6730
H36 H 0.1952 0.0899 0.6975
C31 C 0.4504(3) 0.0606(2) 0.50475(18)
C32 C 0.4752(3) 0.0928(2) 0.45363(18)
C33 C 0.2066(4) 0.0872(2) 0.6066(2)
H37 H 0.2528 0.0664 0.6063
H38 H 0.1483 0.0493 0.5895
C34 C 0.3733(3) 0.0028(2) 0.4899(2)
H39 H 0.3375 -0.0166 0.4478
C35 C 0.3508(3) -0.0254(2) 0.5380(2)
H40 H 0.2984 -0.0646 0.5298
C36 C 0.2257(3) 0.1512(3) 0.4659(2)
H41 H 0.2162 0.1262 0.4213
H42 H 0.1816 0.1740 0.4680
C37 C 0.2147(3) 0.1014(3) 0.5057(2)
H43 H 0.1578 0.0624 0.4867
H44 H 0.2627 0.0825 0.5070
O15 O 0.48319(19) 0.21839(14) 0.28358(13)
O16 O 1.01494(17) 0.40484(14) 0.32270(12)
O17 O 0.84428(18) 0.35647(14) 0.34893(13)
O18 O 1.02080(17) 0.42916(14) 0.11032(12)
O19 O 0.54439(17) 0.15101(13) -0.01102(11)
O20 O 0.48297(18) 0.26666(15) -0.03018(13)
O21 O 0.54308(19) 0.12208(13) 0.19614(12)
O22 O 1.11022(18) 0.45919(14) 0.23855(12)
O23 O 0.84556(18) 0.40020(14) 0.03827(13)
O24 O 0.21912(19) 0.14352(14) 0.07295(13)
C38 C 0.5717(3) 0.25566(19) 0.30085(16)
O25 O 0.31490(19) 0.20806(16) -0.00698(13)
C39 C 0.7013(3) 0.3580(2) 0.34455(17)
H45 H 0.7274 0.4065 0.3637
C40 C 0.7550(3) 0.3205(2) 0.33264(17)
C41 C 0.7155(2) 0.29427(19) -0.00805(16)
H46 H 0.7509 0.2674 -0.0169
C42 C 0.7162(3) 0.2492(2) 0.30514(16)
H47 H 0.7522 0.2226 0.2972
N2 N 0.4737(2) 0.07940(15) 0.06833(14)
O26 O 0.31026(19) 0.18014(16) 0.20483(13)
C43 C 0.9928(3) 0.3629(2) 0.36466(19)
H48 H 1.0025 0.3928 0.4074
H49 H 1.0315 0.3353 0.3677
C44 C 0.6250(3) 0.21728(19) 0.28933(16)
C45 C 0.6105(3) 0.3264(2) 0.32917(17)
H50 H 0.5748 0.3530 0.3379
O27 O 0.4574(2) 0.06395(16) -0.09511(13)
C46 C 0.6248(2) 0.26279(18) -0.02355(16)
C47 C 0.5812(3) 0.18723(19) -0.05590(17)
H51 H 0.5334 0.1799 -0.0932
H52 H 0.6247 0.1687 -0.0705
C48 C 0.6125(3) 0.3736(2) 0.01654(18)
H53 H 0.5776 0.4011 0.0249
C49 C 0.5719(2) 0.3027(2) -0.01208(17)
C50 C 0.8989(3) 0.3156(2) 0.34136(19)
H54 H 0.8864 0.2910 0.2962
H55 H 0.8865 0.2807 0.3658
C51 C 0.7555(2) 0.36495(19) 0.02036(17)
C52 C 1.1046(3) 0.4493(2) 0.34304(18)
H56 H 1.1431 0.4215 0.3409
H57 H 1.1177 0.4763 0.3875
C53 C 0.4800(3) 0.0899(2) -0.03853(18)
C54 C 0.7032(3) 0.4038(2) 0.03262(17)
H58 H 0.7303 0.4521 0.0524
C55 C 0.4331(3) 0.04403(19) 0.10551(19)
C56 C 0.5842(3) 0.1401(2) 0.26427(18)
H59 H 0.6301 0.1193 0.2715
H60 H 0.5391 0.1214 0.2867
C57 C 1.1227(3) 0.4973(2) 0.30192(19)
H61 H 1.0824 0.5237 0.3028
H62 H 1.1841 0.5308 0.3181
C58 C 0.8991(3) 0.3613(2) 0.02222(18)
H63 H 0.8827 0.3409 -0.0241
H64 H 0.8898 0.3231 0.0431
C59 C 0.4253(3) 0.2548(2) 0.29536(19)
H65 H 0.4338 0.2919 0.2732
H66 H 0.4382 0.2763 0.3413
C60 C 0.3322(3) 0.2043(2) 0.27183(19)
H67 H 0.3258 0.1647 0.2906
H68 H 0.2915 0.2271 0.2848
C61 C 1.1130(3) 0.4667(2) 0.13315(19)
H69 H 1.1323 0.4993 0.1075
H70 H 1.1454 0.4342 0.1293
C62 C 0.4721(3) 0.0651(2) 0.1754(2)
C63 C 0.3568(3) -0.0139(2) 0.0825(2)
H71 H 0.3296 -0.0368 0.1105
C64 C 0.9936(3) 0.4082(2) 0.04349(18)
H72 H 1.0307 0.3838 0.0266
H73 H 1.0011 0.4495 0.0269
C65 C 0.2207(3) 0.1355(2) 0.1796(2)
H74 H 0.1817 0.1630 0.1816
H75 H 0.2049 0.1018 0.2049
C66 C 0.4385(3) 0.05455(19) 0.00640(18)
C67 C 1.1335(3) 0.5057(2) 0.20043(19)
H76 H 1.1973 0.5338 0.2155
H77 H 1.1003 0.5376 0.2042
C68 C 0.3628(3) -0.0043(2) -0.0207(2)
H78 H 0.3407 -0.0208 -0.0654
O28 O 0.4415(3) 0.03074(18) 0.20896(15)
C69 C 0.3210(3) -0.0379(2) 0.0182(2)
H79 H 0.2680 -0.0771 0.0012
C70 C 0.3329(3) 0.2554(3) -0.04468(19)
H80 H 0.2921 0.2814 -0.0438
H81 H 0.3237 0.2298 -0.0891
C71 C 0.4265(3) 0.3050(2) -0.01955(19)
H82 H 0.4374 0.3422 -0.0416
H83 H 0.4382 0.3265 0.0262
C72 C 0.2276(3) 0.1591(3) -0.0294(2)
H84 H 0.2176 0.1337 -0.0740
H85 H 0.1848 0.1831 -0.0275
C73 C 0.2082(3) 0.0977(2) 0.1122(2)
H86 H 0.2515 0.0742 0.1102
H87 H 0.1482 0.0618 0.0965
C74 C 0.2147(3) 0.1094(2) 0.0111(2)
H88 H 0.2050 0.0615 -0.0032
N3 N 0.3967(2) 0.32270(17) 0.15913(14)
N4 N 0.9324(2) 0.26952(19) 0.14693(15)
C75 C 0.6680(3) 0.2578(2) 0.13900(17)
H89 H 0.6420 0.2219 0.1601
H90 H 0.6343 0.2417 0.0941
C76 C 0.4896(3) 0.2624(2) 0.13242(17)
H91 H 0.4961 0.2209 0.1120
C77 C 0.6575(3) 0.3243(2) 0.16957(19)
H92 H 0.6891 0.3390 0.2149
H93 H 0.6865 0.3606 0.1499
C78 C 0.5644(3) 0.3208(2) 0.16494(17)
C79 C 0.7618(3) 0.2643(2) 0.14195(16)
C80 C 0.2753(3) 0.3494(2) 0.09900(18)
C81 C 0.9187(3) 0.3235(2) 0.17930(18)
H94 H 0.9677 0.3633 0.2041
C82 C 0.8348(3) 0.3225(2) 0.17728(18)
H95 H 0.8261 0.3618 0.2002
C83 C 0.5505(3) 0.37934(19) 0.19489(18)
H96 H 0.5998 0.4197 0.2181
C84 C 0.4071(3) 0.2648(2) 0.12990(17)
H97 H 0.3566 0.2250 0.1072
C85 C 0.7795(3) 0.2095(2) 0.1087(2)
H98 H 0.7319 0.1688 0.0837
C86 C 1.0239(3) 0.2701(3) 0.1550(2)
H99 H 1.0641 0.3164 0.1555
H100 H 1.0267 0.2356 0.1190
C87 C 0.3066(3) 0.3250(2) 0.15506(19)
H101 H 0.3069 0.3566 0.1944
H102 H 0.2649 0.2782 0.1516
C88 C 0.8635(3) 0.2130(2) 0.1112(2)
H103 H 0.8740 0.1751 0.0873
C89 C 0.1956(3) 0.3092(2) 0.0560(2)
H104 H 0.1618 0.2661 0.0616
C90 C 1.1329(3) 0.2945(2) 0.2588(2)
H105 H 1.1700 0.3341 0.2496
C91 C 0.4677(3) 0.3799(2) 0.19154(18)
H106 H 0.4595 0.4205 0.2121
C92 C 1.1585(3) 0.2781(3) 0.3147(2)
H107 H 1.2134 0.3066 0.3437
C93 C 1.0529(3) 0.2530(2) 0.2164(2)
C94 C 0.1645(3) 0.3309(3) 0.0048(2)
H108 H 0.1092 0.3032 -0.0241
C95 C 0.9987(3) 0.1958(3) 0.2316(2)
H109 H 0.9434 0.1671 0.2033
C96 C 1.0255(4) 0.1811(3) 0.2874(3)
H110 H 0.9881 0.1426 0.2978
C97 C 0.3238(3) 0.4120(2) 0.0895(2)
H111 H 0.3783 0.4405 0.1189
C98 C 1.1059(3) 0.2215(3) 0.3284(2)
H112 H 1.1247 0.2100 0.3663
C99 C 0.2937(3) 0.4330(3) 0.0381(3)
H113 H 0.3281 0.4753 0.0315
C100 C 0.2137(3) 0.3926(3) -0.0040(2)
H114 H 0.1926 0.4076 -0.0391
N5 N 0.3910(2) 0.31604(17) 0.65875(14)
N6 N 0.9213(2) 0.25457(18) 0.64168(15)
C101 C 0.4626(3) 0.3718(2) 0.69303(19)
H115 H 0.4551 0.4122 0.7150
C102 C 0.4836(3) 0.2572(2) 0.62856(19)
H116 H 0.4899 0.2168 0.6056
C103 C 0.7542(3) 0.2584(2) 0.63666(18)
C104 C 0.8301(3) 0.3138(2) 0.67349(19)
H117 H 0.8244 0.3538 0.6977
C105 C 0.5583(3) 0.3137(2) 0.6637(2)
C106 C 0.3011(3) 0.3182(2) 0.6545(2)
H118 H 0.3011 0.3497 0.6938
H119 H 0.2594 0.2713 0.6508
C107 C 0.4010(3) 0.2592(2) 0.62665(18)
H120 H 0.3505 0.2203 0.6025
C108 C 0.5446(3) 0.3706(2) 0.69632(19)
H121 H 0.5940 0.4098 0.7217
C109 C 0.2700(3) 0.3429(2) 0.59841(19)
C110 C 0.8501(3) 0.2003(2) 0.6072(2)
H122 H 0.8574 0.1602 0.5844
C111 C 1.1204(3) 0.2856(2) 0.7534(2)
H123 H 1.1529 0.3273 0.7448
C112 C 0.9118(3) 0.3111(2) 0.67504(18)
H124 H 0.9626 0.3494 0.6999
C113 C 0.6635(3) 0.2576(2) 0.6320(3)
H125 H 0.6360 0.2513 0.5870
H126 H 0.6300 0.2161 0.6441
C114 C 0.7674(3) 0.2011(2) 0.6040(2)
H127 H 0.7179 0.1618 0.5790
C115 C 0.1594(3) 0.3252(3) 0.5047(2)
H128 H 0.1040 0.2978 0.4757
C116 C 0.1899(3) 0.3028(2) 0.5553(2)
H129 H 0.1559 0.2596 0.5606
C117 C 1.0450(3) 0.2390(2) 0.7092(2)
C118 C 1.1031(3) 0.2128(3) 0.8235(3)
H130 H 1.1233 0.2035 0.8623
C119 C 0.2887(4) 0.4265(3) 0.5375(3)
H131 H 0.3235 0.4686 0.5308
C120 C 0.3193(3) 0.4051(3) 0.5895(2)
H132 H 0.3740 0.4333 0.6189
C121 C 1.0116(3) 0.2530(3) 0.6476(2)
H133 H 1.0518 0.2981 0.6453
H134 H 1.0111 0.2165 0.6119
C122 C 0.9987(3) 0.1788(3) 0.7242(3)
H135 H 0.9465 0.1459 0.6949
C123 C 0.2091(4) 0.3872(3) 0.4960(2)
H136 H 0.1880 0.4027 0.4612
C124 C 0.6510(3) 0.3159(3) 0.6683(3)
H137 H 0.6835 0.3574 0.6558
H138 H 0.6791 0.3228 0.7133
C125 C 1.1490(3) 0.2719(3) 0.8104(2)
H139 H 1.2011 0.3042 0.8403
C126 C 1.0280(4) 0.1669(3) 0.7810(3)
H140 H 0.9955 0.1260 0.7908
N7 N 0.8011(4) 0.0450(3) 0.6354(3)
C127 C 0.7705(4) 0.0323(4) 0.6767(3)
C128 C 0.7319(4) 0.0164(4) 0.7287(3)
H141 H 0.6754 -0.0224 0.7119
H142 H 0.7222 0.0572 0.7512
H143 H 0.7722 0.0039 0.7579
N8 N 0.8859(6) -0.0502(4) 0.7228(4)
C129 C 0.9870(5) -0.0009(4) 0.6498(4)
H144 H 0.9884 -0.0397 0.6181
H145 H 1.0472 0.0272 0.6752
H146 H 0.9620 0.0279 0.6285
C130 C 0.9320(5) -0.0279(4) 0.6914(4)
C131 C 1.0279(7) -0.0215(5) 0.8623(4)
H147 H 0.9759 -0.0574 0.8318
H148 H 1.0095 0.0122 0.8880
H149 H 1.0577 -0.0428 0.8899
C132 C 1.0882(6) 0.0135(4) 0.8286(4)
N9 N 1.1363(5) 0.0413(4) 0.8004(4)
C133 C 0.3058(5) 0.0015(3) 0.7639(3)
H150 H 0.2680 -0.0056 0.7222
H151 H 0.3639 0.0011 0.7594
H152 H 0.3128 0.0461 0.7915
C134 C 0.2668(5) -0.0524(4) 0.7907(3)
N10 N 0.2342(5) -0.0937(5) 0.8129(4)
loop_
_geom_bond_atom_site_label_1
_geom_bond_atom_site_label_2
_geom_bond_site_symmetry_1
_geom_bond_site_symmetry_2
P1 F1 1_555 1_555
F2 P1 1_555 1_555
F3 P1 1_555 1_555
F4 P1 1_555 1_555
F5 P1 1_555 1_555
F6 P1 1_555 1_555
P2 F7 1_555 1_555
F8 P2 1_555 1_555
F9 P2 1_555 1_555
F10 P2 1_555 1_555
F11 P2 1_555 1_555
F12 P2 1_555 1_555
P3 F13 1_555 1_555
F14 P3 1_555 1_555
F15 P3 1_555 1_555
F16 P3 1_555 1_555
F17 P3 1_555 1_555
F18 P3 1_555 1_555
P4 F19 1_555 1_555
F20 P4 1_555 1_555
F21 P4 1_555 1_555
F22 P4 1_555 1_555
F23 P4 1_555 1_555
F24 P4 1_555 1_555
O1 C7 1_555 1_555
O2 C12 1_555 1_555
O3 C2 1_555 1_555
O4 C3 1_555 1_555
O5 C22 1_555 1_555
O6 C8 1_555 1_555
O7 C14 1_555 1_555
C1 H1 1_555 1_555
O8 C19 1_555 1_555
O9 C21 1_555 1_555
O10 C11 1_555 1_555
C2 C5 1_555 1_555
O11 C33 1_555 1_555
C3 C1 1_555 1_555
C4 C8 1_555 1_555
C5 H2 1_555 1_555
O12 C26 1_555 1_555
C6 C3 1_555 1_555
H3 C6 1_555 1_555
N1 C13 1_555 1_555
C7 H4 1_555 1_555
H5 C7 1_555 1_555
O13 C24 1_555 1_555
C8 C23 1_555 1_555
C9 C1 1_555 1_555
C10 O4 1_555 1_555
H6 C10 1_555 1_555
H7 C10 1_555 1_555
C11 C4 1_555 1_555
H8 C11 1_555 1_555
H9 C11 1_555 1_555
C12 H10 1_555 1_555
H11 C12 1_555 1_555
C13 C24 1_555 1_555
C14 C15 1_555 1_555
C15 C4 1_555 1_555
H12 C15 1_555 1_555
C16 O1 1_555 1_555
H13 C16 1_555 1_555
H14 C16 1_555 1_555
C17 O2 1_555 1_555
H15 C17 1_555 1_555
H16 C17 1_555 1_555
C18 O3 1_555 1_555
H17 C18 1_555 1_555
C19 C9 1_555 1_555
H18 C19 1_555 1_555
H19 C19 1_555 1_555
O14 C32 1_555 1_555
C20 O7 1_555 1_555
H20 C20 1_555 1_555
H21 C20 1_555 1_555
C21 C20 1_555 1_555
H22 C21 1_555 1_555
H23 C21 1_555 1_555
C22 C18 1_555 1_555
H24 C22 1_555 1_555
H25 C22 1_555 1_555
C23 H26 1_555 1_555
C24 O8 1_555 1_555
C25 C14 1_555 1_555
H27 C25 1_555 1_555
C26 H28 1_555 1_555
H29 C26 1_555 1_555
C27 O9 1_555 1_555
H30 C27 1_555 1_555
H31 C27 1_555 1_555
C28 C13 1_555 1_555
H32 C28 1_555 1_555
C29 O6 1_555 1_555
H33 C29 1_555 1_555
H34 C29 1_555 1_555
C30 O5 1_555 1_555
H35 C30 1_555 1_555
H36 C30 1_555 1_555
C31 N1 1_555 1_555
C32 O10 1_555 1_555
C33 C30 1_555 1_555
H37 C33 1_555 1_555
H38 C33 1_555 1_555
C34 C31 1_555 1_555
H39 C34 1_555 1_555
C35 C28 1_555 1_555
H40 C35 1_555 1_555
C36 O12 1_555 1_555
H41 C36 1_555 1_555
H42 C36 1_555 1_555
C37 O11 1_555 1_555
H43 C37 1_555 1_555
H44 C37 1_555 1_555
O15 C38 1_555 1_555
O16 C43 1_555 1_555
O17 C40 1_555 1_555
O18 C61 1_555 1_555
O19 C47 1_555 1_555
O20 C49 1_555 1_555
O21 C56 1_555 1_555
O22 C57 1_555 1_555
O23 C51 1_555 1_555
O24 C73 1_555 1_555
C38 C44 1_555 1_555
O25 C70 1_555 1_555
C39 H45 1_555 1_555
C40 C39 1_555 1_555
C41 H46 1_555 1_555
C42 C40 1_555 1_555
H47 C42 1_555 1_555
N2 C55 1_555 1_555
O26 C60 1_555 1_555
C43 H48 1_555 1_555
H49 C43 1_555 1_555
C44 C42 1_555 1_555
C45 C38 1_555 1_555
H50 C45 1_555 1_555
O27 C53 1_555 1_555
C46 C41 1_555 1_555
C47 C46 1_555 1_555
H51 C47 1_555 1_555
H52 C47 1_555 1_555
C48 H53 1_555 1_555
C49 C46 1_555 1_555
C50 O17 1_555 1_555
H54 C50 1_555 1_555
H55 C50 1_555 1_555
C51 C41 1_555 1_555
C52 O16 1_555 1_555
H56 C52 1_555 1_555
H57 C52 1_555 1_555
C53 O19 1_555 1_555
C54 C48 1_555 1_555
H58 C54 1_555 1_555
C55 C62 1_555 1_555
C56 C44 1_555 1_555
H59 C56 1_555 1_555
H60 C56 1_555 1_555
C57 C52 1_555 1_555
H61 C57 1_555 1_555
H62 C57 1_555 1_555
C58 O23 1_555 1_555
H63 C58 1_555 1_555
H64 C58 1_555 1_555
C59 O15 1_555 1_555
H65 C59 1_555 1_555
H66 C59 1_555 1_555
C60 C59 1_555 1_555
H67 C60 1_555 1_555
H68 C60 1_555 1_555
C61 H69 1_555 1_555
H70 C61 1_555 1_555
C62 O21 1_555 1_555
C63 C55 1_555 1_555
H71 C63 1_555 1_555
C64 O18 1_555 1_555
H72 C64 1_555 1_555
H73 C64 1_555 1_555
C65 O26 1_555 1_555
H74 C65 1_555 1_555
H75 C65 1_555 1_555
C66 N2 1_555 1_555
C67 O22 1_555 1_555
H76 C67 1_555 1_555
H77 C67 1_555 1_555
C68 C66 1_555 1_555
H78 C68 1_555 1_555
O28 C62 1_555 1_555
C69 C63 1_555 1_555
H79 C69 1_555 1_555
C70 H80 1_555 1_555
H81 C70 1_555 1_555
C71 O20 1_555 1_555
H82 C71 1_555 1_555
H83 C71 1_555 1_555
C72 O25 1_555 1_555
H84 C72 1_555 1_555
H85 C72 1_555 1_555
C73 C65 1_555 1_555
H86 C73 1_555 1_555
H87 C73 1_555 1_555
C74 O24 1_555 1_555
H88 C74 1_555 1_555
N3 C84 1_555 1_555
N4 C81 1_555 1_555
C75 H89 1_555 1_555
H90 C75 1_555 1_555
C76 H91 1_555 1_555
C77 C75 1_555 1_555
H92 C77 1_555 1_555
H93 C77 1_555 1_555
C78 C76 1_555 1_555
C79 C75 1_555 1_555
C80 C87 1_555 1_555
C81 H94 1_555 1_555
C82 C79 1_555 1_555
H95 C82 1_555 1_555
C83 C78 1_555 1_555
H96 C83 1_555 1_555
C84 C76 1_555 1_555
H97 C84 1_555 1_555
C85 C79 1_555 1_555
H98 C85 1_555 1_555
C86 N4 1_555 1_555
H99 C86 1_555 1_555
H100 C86 1_555 1_555
C87 N3 1_555 1_555
H101 C87 1_555 1_555
H102 C87 1_555 1_555
C88 N4 1_555 1_555
H103 C88 1_555 1_555
C89 C80 1_555 1_555
H104 C89 1_555 1_555
C90 H105 1_555 1_555
C91 N3 1_555 1_555
H106 C91 1_555 1_555
C92 C90 1_555 1_555
H107 C92 1_555 1_555
C93 C86 1_555 1_555
C94 C89 1_555 1_555
H108 C94 1_555 1_555
C95 C93 1_555 1_555
H109 C95 1_555 1_555
C96 C95 1_555 1_555
H110 C96 1_555 1_555
C97 C80 1_555 1_555
H111 C97 1_555 1_555
C98 C92 1_555 1_555
H112 C98 1_555 1_555
C99 C97 1_555 1_555
H113 C99 1_555 1_555
C100 C94 1_555 1_555
H114 C100 1_555 1_555
N5 C101 1_555 1_555
N6 C110 1_555 1_555
C101 H115 1_555 1_555
C102 H116 1_555 1_555
C103 C104 1_555 1_555
C104 H117 1_555 1_555
C105 C102 1_555 1_555
C106 N5 1_555 1_555
H118 C106 1_555 1_555
H119 C106 1_555 1_555
C107 N5 1_555 1_555
H120 C107 1_555 1_555
C108 C101 1_555 1_555
H121 C108 1_555 1_555
C109 C106 1_555 1_555
C110 H122 1_555 1_555
C111 H123 1_555 1_555
C112 N6 1_555 1_555
H124 C112 1_555 1_555
C113 C103 1_555 1_555
H125 C113 1_555 1_555
H126 C113 1_555 1_555
C114 C103 1_555 1_555
H127 C114 1_555 1_555
C115 H128 1_555 1_555
C116 C109 1_555 1_555
H129 C116 1_555 1_555
C117 C111 1_555 1_555
C118 H130 1_555 1_555
C119 H131 1_555 1_555
C120 C109 1_555 1_555
H132 C120 1_555 1_555
C121 N6 1_555 1_555
H133 C121 1_555 1_555
H134 C121 1_555 1_555
C122 C117 1_555 1_555
H135 C122 1_555 1_555
C123 C115 1_555 1_555
H136 C123 1_555 1_555
C124 C105 1_555 1_555
H137 C124 1_555 1_555
H138 C124 1_555 1_555
C125 C111 1_555 1_555
H139 C125 1_555 1_555
C126 C118 1_555 1_555
H140 C126 1_555 1_555
N7 C127 1_555 1_555
C127 C128 1_555 1_555
C128 H141 1_555 1_555
H142 C128 1_555 1_555
H143 C128 1_555 1_555
N8 C130 1_555 1_555
C129 H144 1_555 1_555
H145 C129 1_555 1_555
H146 C129 1_555 1_555
C130 C129 1_555 1_555
C131 H147 1_555 1_555
H148 C131 1_555 1_555
H149 C131 1_555 1_555
C132 C131 1_555 1_555
N9 C132 1_555 1_555
C133 H150 1_555 1_555
H151 C133 1_555 1_555
H152 C133 1_555 1_555
C134 C133 1_555 1_555
N10 C134 1_555 1_555
C2 C9 1_555 1_555
C5 C6 1_555 1_555
C7 C10 1_555 1_555
C12 C16 1_555 1_555
C17 C27 1_555 1_555
C23 C25 1_555 1_555
C26 C29 1_555 1_555
C31 C32 1_555 1_555
C34 C35 1_555 1_555
C36 C37 1_555 1_555
C39 C45 1_555 1_555
C43 C50 1_555 1_555
C48 C49 1_555 1_555
C51 C54 1_555 1_555
C53 C66 1_555 1_555
C58 C64 1_555 1_555
C61 C67 1_555 1_555
C68 C69 1_555 1_555
C70 C71 1_555 1_555
C72 C74 1_555 1_555
C77 C78 1_555 1_555
C81 C82 1_555 1_555
C83 C91 1_555 1_555
C85 C88 1_555 1_555
C90 C93 1_555 1_555
C96 C98 1_555 1_555
C99 C100 1_555 1_555
C102 C107 1_555 1_555
C104 C112 1_555 1_555
C105 C108 1_555 1_555
C110 C114 1_555 1_555
C113 C124 1_555 1_555
C115 C116 1_555 1_555
C117 C121 1_555 1_555
C118 C125 1_555 1_555
C119 C120 1_555 1_555
C119 C123 1_555 1_555
C122 C126 1_555 1_555

#END
