
#######################################################################
#
#                 Cambridge Crystallographic Data Centre
#                                CCDC 
#
#######################################################################
#
# If this CIF has been generated from an entry in the Cambridge 
# Structural Database, then it will include bibliographic, chemical, 
# crystal, experimental, refinement or atomic coordinate data resulting 
# from the CCDC's data processing and validation procedures.
#
#######################################################################

data_NUGZEV01
_chemical_formula_moiety         'C12 H10 N6,C8 H6 O4'
_chemical_name_systematic        
'Isophthalic acid 4-amino-3,5-bis(pyridin-4-yl)-1,2,4-triazole'
_symmetry_cell_setting           triclinic
_symmetry_space_group_name_H-M   'P -1'
_symmetry_Int_Tables_number      2
_space_group_name_Hall           '-P 1'
loop_
_symmetry_equiv_pos_site_id
_symmetry_equiv_pos_as_xyz
1 x,y,z
2 -x,-y,-z
_cell_length_a                   6.255(2)
_cell_length_b                   7.187(2)
_cell_length_c                   20.272(4)
_cell_angle_alpha                83.78(3)
_cell_angle_beta                 86.62(3)
_cell_angle_gamma                79.03(2)
_cell_volume                     888.715
_exptl_crystal_colour            colorless
_exptl_crystal_description       prism
_cell_formula_units_Z            2
loop_
_atom_site_label
_atom_site_type_symbol
_atom_site_fract_x
_atom_site_fract_y
_atom_site_fract_z
O1 O 0.2222(4) 0.1792(4) 0.76837(12)
H1 H 0.1768 0.1716 0.7318
O2 O 0.5319(4) 0.0352(4) 0.72196(12)
O3 O 0.5041(4) 0.2938(4) 1.05453(12)
O4 O 0.1981(4) 0.3393(4) 1.00011(12)
H2 H 0.1439 0.3722 1.0358
C13 C 0.4326(7) 0.1087(5) 0.76907(19)
C14 C 0.5360(6) 0.1270(5) 0.83114(17)
C15 C 0.7602(7) 0.0672(5) 0.83403(19)
H13 H 0.8398 0.0188 0.7975
C16 C 0.8659(6) 0.0794(5) 0.89115(19)
H14 H 1.0158 0.0380 0.8930
C17 C 0.7494(6) 0.1527(5) 0.94527(19)
H15 H 0.8208 0.1611 0.9835
C18 C 0.5249(6) 0.2143(5) 0.94276(18)
C19 C 0.4104(7) 0.2856(5) 1.00484(19)
C20 C 0.4190(6) 0.2013(5) 0.88600(17)
H16 H 0.2690 0.2423 0.8844
N1 N 0.0471(6) 0.3989(5) 0.12637(15)
N2 N -0.3186(5) 0.3860(4) 0.35837(15)
N3 N -0.3130(5) 0.3586(4) 0.42752(15)
N4 N 0.0211(5) 0.2884(4) 0.38511(14)
N5 N 0.2486(5) 0.2109(5) 0.38198(14)
H3 H 0.2843 0.1637 0.3426
H4 H 0.3317 0.2988 0.3851
N6 N 0.0663(6) 0.1880(4) 0.64605(15)
C1 C -0.1973(6) 0.3286(5) 0.21783(18)
H5 H -0.3280 0.2913 0.2323
C2 C -0.1392(7) 0.3516(6) 0.1501(2)
H6 H -0.2374 0.3325 0.1199
C3 C 0.1847(6) 0.4298(5) 0.16984(19)
H7 H 0.3154 0.4648 0.1540
C4 C 0.1401(7) 0.4117(5) 0.23855(18)
H8 H 0.2412 0.4322 0.2675
C5 C -0.0533(6) 0.3635(5) 0.26280(18)
C6 C -0.1162(6) 0.3434(5) 0.33447(18)
C7 C -0.1058(6) 0.2983(5) 0.44214(19)
C8 C -0.0385(6) 0.2561(5) 0.51151(18)
C9 C 0.1717(6) 0.1842(5) 0.52964(18)
H9 H 0.2830 0.1571 0.4977
C10 C 0.2139(7) 0.1527(6) 0.5971(2)
H10 H 0.3567 0.1032 0.6087
C11 C -0.1362(7) 0.2569(6) 0.62735(19)
H11 H -0.2450 0.2807 0.6603
C12 C -0.1948(6) 0.2953(5) 0.56183(19)
H12 H -0.3383 0.3471 0.5517
loop_
_geom_bond_atom_site_label_1
_geom_bond_atom_site_label_2
_geom_bond_site_symmetry_1
_geom_bond_site_symmetry_2
O1 H1 1_555 1_555
O2 C13 1_555 1_555
O3 C19 1_555 1_555
O4 H2 1_555 1_555
N1 C2 1_555 1_555
N2 N3 1_555 1_555
N3 C7 1_555 1_555
N4 N5 1_555 1_555
N5 H3 1_555 1_555
H4 N5 1_555 1_555
N6 C10 1_555 1_555
C1 H5 1_555 1_555
C2 C1 1_555 1_555
H6 C2 1_555 1_555
C3 N1 1_555 1_555
H7 C3 1_555 1_555
C4 C3 1_555 1_555
H8 C4 1_555 1_555
C5 C1 1_555 1_555
C6 N2 1_555 1_555
C7 N4 1_555 1_555
C8 C7 1_555 1_555
C9 C8 1_555 1_555
H9 C9 1_555 1_555
C10 C9 1_555 1_555
H10 C10 1_555 1_555
C11 N6 1_555 1_555
H11 C11 1_555 1_555
C12 C8 1_555 1_555
H12 C12 1_555 1_555
C13 O1 1_555 1_555
C14 C13 1_555 1_555
C15 C14 1_555 1_555
H13 C15 1_555 1_555
C16 C15 1_555 1_555
H14 C16 1_555 1_555
C17 C16 1_555 1_555
H15 C17 1_555 1_555
C18 C17 1_555 1_555
C19 O4 1_555 1_555
C20 C14 1_555 1_555
H16 C20 1_555 1_555
N4 C6 1_555 1_555
C4 C5 1_555 1_555
C5 C6 1_555 1_555
C11 C12 1_555 1_555
C18 C19 1_555 1_555
C18 C20 1_555 1_555

#END
