
#######################################################################
#
#                 Cambridge Crystallographic Data Centre
#                                CCDC 
#
#######################################################################
#
# If this CIF has been generated from an entry in the Cambridge 
# Structural Database, then it will include bibliographic, chemical, 
# crystal, experimental, refinement or atomic coordinate data resulting 
# from the CCDC's data processing and validation procedures.
#
#######################################################################

data_NUGZEV
_chemical_formula_moiety         'C12 H10 N6,C8 H6 O4'
_chemical_name_systematic        
'Isophthalic acid 4-amino-3,5-bis(pyridin-4-yl)-1,2,4-triazole'
_symmetry_cell_setting           monoclinic
_symmetry_space_group_name_H-M   'P 21/c'
_symmetry_Int_Tables_number      14
_space_group_name_Hall           '-P 2ybc'
loop_
_symmetry_equiv_pos_site_id
_symmetry_equiv_pos_as_xyz
1 x,y,z
2 -x,1/2+y,1/2-z
3 -x,-y,-z
4 x,1/2-y,1/2+z
_cell_length_a                   18.5354(9)
_cell_length_b                   6.5819(3)
_cell_length_c                   14.7391(7)
_cell_angle_alpha                90
_cell_angle_beta                 91.9870(10)
_cell_angle_gamma                90
_cell_volume                     1797.06
_exptl_crystal_colour            colorless
_exptl_crystal_description       rod
_cell_formula_units_Z            4
loop_
_atom_site_label
_atom_site_type_symbol
_atom_site_fract_x
_atom_site_fract_y
_atom_site_fract_z
O1 O 0.35821(6) 0.88762(19) 0.62120(9)
O2 O 0.32241(6) 0.64876(19) 0.52272(9)
H1 H 0.3585 0.5910 0.5435
O3 O 0.06795(6) 0.67717(18) 0.41019(10)
H2 H 0.0313 0.6372 0.3829
O4 O 0.01521(6) 0.97903(19) 0.39120(9)
C13 C 0.25025(8) 0.9432(2) 0.53373(10)
C14 C 0.24727(9) 1.1475(2) 0.55625(11)
H13 H 0.2858 1.2077 0.5882
C15 C 0.18720(9) 1.2622(3) 0.53136(12)
H14 H 0.1863 1.4003 0.5447
C16 C 0.12882(9) 1.1726(3) 0.48697(11)
H15 H 0.0883 1.2499 0.4712
C17 C 0.13033(8) 0.9674(2) 0.46575(10)
C18 C 0.19161(8) 0.8535(2) 0.48753(10)
H16 H 0.1935 0.7171 0.4712
C19 C 0.31524(8) 0.8243(2) 0.56328(11)
C20 C 0.06527(8) 0.8759(3) 0.41891(11)
N1 N 0.43820(7) 0.4669(2) 0.58612(9)
N2 N 0.62087(7) -0.0649(2) 0.68097(11)
N3 N 0.68816(7) -0.1334(2) 0.70915(11)
N4 N 0.69231(6) 0.19795(18) 0.69896(8)
N5 N 0.72159(7) 0.3948(2) 0.69415(11)
H3 H 0.7112 0.4477 0.6352
H4 H 0.7008 0.4707 0.7415
N6 N 0.94637(7) -0.0573(2) 0.82122(10)
C1 C 0.55131(9) 0.4608(3) 0.66954(12)
H5 H 0.5856 0.5301 0.7052
C2 C 0.48889(9) 0.5574(3) 0.63829(12)
H6 H 0.4820 0.6923 0.6545
C3 C 0.44808(9) 0.2726(3) 0.56504(12)
H7 H 0.4131 0.2074 0.5289
C4 C 0.50771(9) 0.1644(3) 0.59434(12)
H8 H 0.5120 0.0279 0.5792
C5 C 0.56164(8) 0.2591(2) 0.64666(11)
C6 C 0.62421(8) 0.1343(2) 0.67546(11)
C7 C 0.73045(8) 0.0260(2) 0.71903(10)
C8 C 0.80661(8) 0.0091(2) 0.75051(10)
C9 C 0.84587(8) 0.1641(3) 0.79272(11)
H9 H 0.8260 0.2932 0.7980
C10 C 0.91489(9) 0.1241(3) 0.82684(12)
H10 H 0.9406 0.2291 0.8551
C11 C 0.90914(8) -0.2045(3) 0.77804(11)
H11 H 0.9310 -0.3307 0.7719
C12 C 0.84019(8) -0.1790(2) 0.74232(11)
H12 H 0.8163 -0.2860 0.7131
loop_
_geom_bond_atom_site_label_1
_geom_bond_atom_site_label_2
_geom_bond_site_symmetry_1
_geom_bond_site_symmetry_2
O1 C19 1_555 1_555
O2 H1 1_555 1_555
O3 H2 1_555 1_555
O4 C20 1_555 1_555
N1 C2 1_555 1_555
N2 N3 1_555 1_555
N3 C7 1_555 1_555
N4 N5 1_555 1_555
N5 H3 1_555 1_555
H4 N5 1_555 1_555
N6 C10 1_555 1_555
C1 H5 1_555 1_555
C2 C1 1_555 1_555
H6 C2 1_555 1_555
C3 N1 1_555 1_555
H7 C3 1_555 1_555
C4 C3 1_555 1_555
H8 C4 1_555 1_555
C5 C1 1_555 1_555
C6 N2 1_555 1_555
C7 N4 1_555 1_555
C8 C7 1_555 1_555
C9 C8 1_555 1_555
H9 C9 1_555 1_555
C10 C9 1_555 1_555
H10 C10 1_555 1_555
C11 N6 1_555 1_555
H11 C11 1_555 1_555
C12 C8 1_555 1_555
H12 C12 1_555 1_555
C13 C14 1_555 1_555
C14 H13 1_555 1_555
C15 C14 1_555 1_555
H14 C15 1_555 1_555
C16 C15 1_555 1_555
H15 C16 1_555 1_555
C17 C16 1_555 1_555
C18 C13 1_555 1_555
H16 C18 1_555 1_555
C19 O2 1_555 1_555
C20 O3 1_555 1_555
N4 C6 1_555 1_555
C4 C5 1_555 1_555
C5 C6 1_555 1_555
C11 C12 1_555 1_555
C13 C19 1_555 1_555
C17 C18 1_555 1_555
C17 C20 1_555 1_555

#END
