
#######################################################################
#
#                 Cambridge Crystallographic Data Centre
#                                CCDC 
#
#######################################################################
#
# If this CIF has been generated from an entry in the Cambridge 
# Structural Database, then it will include bibliographic, chemical, 
# crystal, experimental, refinement or atomic coordinate data resulting 
# from the CCDC's data processing and validation procedures.
#
#######################################################################

data_NUHCID
_chemical_formula_moiety         'C16 H14 O4,C4 H8 O1'
_chemical_name_systematic        
'(+-)-2,3-Diphenylsuccinic acid tetrahydrofuran clathrate'
_symmetry_cell_setting           triclinic
_symmetry_space_group_name_H-M   'P -1'
_symmetry_Int_Tables_number      2
_space_group_name_Hall           '-P 1'
loop_
_symmetry_equiv_pos_site_id
_symmetry_equiv_pos_as_xyz
1 x,y,z
2 -x,-y,-z
_cell_length_a                   9.1569(7)
_cell_length_b                   10.3223(9)
_cell_length_c                   11.0400(9)
_cell_angle_alpha                69.8170(10)
_cell_angle_beta                 74.207(2)
_cell_angle_gamma                64.6770(10)
_cell_volume                     875.717
_exptl_crystal_colour            colorless
_exptl_crystal_description       block
_cell_formula_units_Z            2
loop_
_atom_site_label
_atom_site_type_symbol
_atom_site_fract_x
_atom_site_fract_y
_atom_site_fract_z
O1 O 0.1191(6) 1.0141(4) 0.5997(4)
O2 O 0.1715(5) 0.8553(4) 0.4832(4)
O3 O 0.5018(6) 0.9300(4) 0.3549(4)
O4 O 0.5922(6) 0.7121(5) 0.3072(4)
H1 H 0.010(17) 1.062(14) 0.564(12)
H2 H 0.623(8) 0.766(7) 0.231(7)
C1 C 0.2098(6) 0.8961(6) 0.5565(5)
C2 C 0.3692(7) 0.8117(6) 0.6118(5)
H3 H 0.4124 0.8849 0.6141
C3 C 0.4971(7) 0.7101(6) 0.5284(5)
H4 H 0.4552 0.6350 0.5286
C4 C 0.5275(7) 0.7988(6) 0.3880(5)
C5 C 0.3341(7) 0.7222(6) 0.7515(5)
C6 C 0.2621(8) 0.6187(7) 0.7739(6)
H5 H 0.2388 0.6030 0.7025
C7 C 0.2248(9) 0.5390(7) 0.9005(6)
H6 H 0.1754 0.4693 0.9164
C8 C 0.2608(10) 0.5627(8) 1.0033(6)
H7 H 0.2376 0.5073 1.0899
C9 C 0.3292(10) 0.6647(8) 0.9819(6)
H8 H 0.3533 0.6804 1.0529
C10 C 0.3628(8) 0.7449(7) 0.8553(6)
H9 H 0.4073 0.8178 0.8408
C11 C 0.6601(7) 0.6279(6) 0.5820(5)
C12 C 0.7457(9) 0.7049(7) 0.5925(5)
H10 H 0.7008 0.8104 0.5693
C13 C 0.8971(8) 0.6305(7) 0.6364(5)
H11 H 0.9546 0.6850 0.6430
C14 C 0.9629(8) 0.4775(7) 0.6700(5)
H12 H 1.0668 0.4264 0.6986
C15 C 0.8784(8) 0.3987(7) 0.6622(5)
H13 H 0.9235 0.2932 0.6862
C16 C 0.7268(8) 0.4733(6) 0.6192(5)
H14 H 0.6683 0.4182 0.6152
O5 O 0.7087(7) 0.8364(6) 0.0656(4)
C17 C 0.8403(10) 0.8794(9) 0.0559(6)
H15 H 0.9375 0.7912 0.0841
H16 H 0.8096 0.9473 0.1114
C18 C 0.8755(13) 0.9565(10) -0.0850(7)
H17 H 0.8281 1.0657 -0.0993
H18 H 0.9946 0.9252 -0.1153
C19 C 0.6810(11) 0.8557(9) -0.0620(6)
H19 H 0.5693 0.9275 -0.0766
H20 H 0.6948 0.7600 -0.0735
C20 C 0.8002(19) 0.911(2) -0.1503(9)
H21 H 0.8841 0.8326 -0.1910
H22 H 0.7471 0.9964 -0.2205
loop_
_geom_bond_atom_site_label_1
_geom_bond_atom_site_label_2
_geom_bond_site_symmetry_1
_geom_bond_site_symmetry_2
O1 H1 1_555 1_555
O2 C1 1_555 1_555
O3 C4 1_555 1_555
O4 H2 1_555 1_555
C1 O1 1_555 1_555
C2 C1 1_555 1_555
H3 C2 1_555 1_555
C3 C2 1_555 1_555
H4 C3 1_555 1_555
C4 O4 1_555 1_555
C5 C2 1_555 1_555
C6 C5 1_555 1_555
H5 C6 1_555 1_555
C7 C6 1_555 1_555
H6 C7 1_555 1_555
C8 C7 1_555 1_555
H7 C8 1_555 1_555
C9 C8 1_555 1_555
H8 C9 1_555 1_555
C10 C5 1_555 1_555
H9 C10 1_555 1_555
C11 C3 1_555 1_555
C12 C11 1_555 1_555
H10 C12 1_555 1_555
C13 C12 1_555 1_555
H11 C13 1_555 1_555
C14 C13 1_555 1_555
H12 C14 1_555 1_555
C15 C14 1_555 1_555
H13 C15 1_555 1_555
C16 C11 1_555 1_555
H14 C16 1_555 1_555
O5 C17 1_555 1_555
C17 H15 1_555 1_555
H16 C17 1_555 1_555
C18 C17 1_555 1_555
H17 C18 1_555 1_555
H18 C18 1_555 1_555
C19 O5 1_555 1_555
H19 C19 1_555 1_555
H20 C19 1_555 1_555
C20 C18 1_555 1_555
H21 C20 1_555 1_555
H22 C20 1_555 1_555
C3 C4 1_555 1_555
C9 C10 1_555 1_555
C15 C16 1_555 1_555
C19 C20 1_555 1_555

#END
