
#######################################################################
#
#                 Cambridge Crystallographic Data Centre
#                                CCDC 
#
#######################################################################
#
# If this CIF has been generated from an entry in the Cambridge 
# Structural Database, then it will include bibliographic, chemical, 
# crystal, experimental, refinement or atomic coordinate data resulting 
# from the CCDC's data processing and validation procedures.
#
#######################################################################

data_NUHJIL
_chemical_formula_moiety         'C25 H30 O5,C1 H4 O1'
_chemical_name_systematic        
'2,5-Dihydroxy-7a,10,10,13a-tetramethyl-1,8,9,9a,10,13a,13b,14-octahydro-2H-dibenzo[a,j]xanthene-4,11(3H,7aH)-dione methanol solvate'
_symmetry_cell_setting           monoclinic
_symmetry_space_group_name_H-M   'P 21'
_symmetry_Int_Tables_number      4
_space_group_name_Hall           'P 2yb'
loop_
_symmetry_equiv_pos_site_id
_symmetry_equiv_pos_as_xyz
1 x,y,z
2 -x,1/2+y,-z
_cell_length_a                   8.13420(10)
_cell_length_b                   18.9651(2)
_cell_length_c                   15.10890(10)
_cell_angle_alpha                90
_cell_angle_beta                 102.4910(10)
_cell_angle_gamma                90
_cell_volume                     2275.62
_exptl_crystal_colour            colorless
_exptl_crystal_description       block
_cell_formula_units_Z            4
loop_
_atom_site_label
_atom_site_type_symbol
_atom_site_fract_x
_atom_site_fract_y
_atom_site_fract_z
O1 O 1.10074(17) 0.42233(9) 0.50714(10)
O2 O 0.4908(2) 0.55080(11) 0.11720(10)
H1 H 0.4478 0.5334 0.0679
O3 O 1.0652(3) 0.51590(13) 0.10300(13)
C1 C 0.8669(2) 0.50107(11) 0.29543(13)
O4 O 0.3982(2) 0.50668(11) 0.76591(11)
O5 O 1.2724(2) 0.45820(12) 0.23639(13)
H2 H 1.2413 0.4751 0.1856
C2 C 0.9634(2) 0.41466(12) 0.55514(13)
C3 C 0.8722(2) 0.48599(11) 0.54624(13)
H3 H 0.9629 0.5210 0.5558
C4 C 0.7529(3) 0.43460(11) 0.67666(12)
H4 H 0.6903 0.4019 0.6315
C5 C 0.6969(3) 0.53151(13) 0.25313(13)
H5 H 0.6985 0.5819 0.2640
H6 H 0.6126 0.5109 0.2819
C6 C 1.0492(3) 0.40240(14) 0.65329(14)
H7 H 1.1270 0.4407 0.6740
H8 H 1.1135 0.3590 0.6581
C7 C 1.0576(3) 0.44773(12) 0.42127(14)
C8 C 0.8620(3) 0.35055(13) 0.51390(16)
H9 H 0.8121 0.3597 0.4514
H10 H 0.7749 0.3412 0.5462
H11 H 0.9350 0.3104 0.5181
C9 C 0.7803(2) 0.49609(13) 0.44723(13)
H12 H 0.6841 0.4647 0.4329
H13 H 0.7401 0.5442 0.4377
C10 C 0.9899(3) 0.49411(12) 0.24246(14)
C11 C 0.9014(2) 0.48006(12) 0.38617(13)
C12 C 0.7389(4) 0.4653(2) 0.84402(16)
H14 H 0.8148 0.4285 0.8706
H15 H 0.6603 0.4744 0.8818
H16 H 0.8017 0.5074 0.8388
C13 C 0.9568(3) 0.51782(13) 0.14852(15)
C14 C 1.1486(3) 0.46465(12) 0.28232(16)
C15 C 0.9210(3) 0.39772(16) 0.71399(15)
H17 H 0.8990 0.3484 0.7237
H18 H 0.9708 0.4181 0.7725
C16 C 0.7717(3) 0.50231(12) 0.62272(13)
C17 C 0.6483(3) 0.51801(12) 0.15193(13)
H19 H 0.6371 0.4671 0.1413
C18 C 0.7853(3) 0.54644(15) 0.10722(15)
H20 H 0.7575 0.5346 0.0433
H21 H 0.7879 0.5974 0.1122
C19 C 0.8690(4) 0.56121(16) 0.6836(2)
H22 H 0.9779 0.5440 0.7134
H23 H 0.8072 0.5749 0.7282
H24 H 0.8823 0.6012 0.6469
C20 C 0.4727(3) 0.52558(17) 0.62862(16)
H25 H 0.3676 0.5437 0.6016
C21 C 0.6424(3) 0.44210(13) 0.74912(13)
C22 C 0.5984(3) 0.53043(16) 0.58537(16)
H26 H 0.5776 0.5524 0.5290
C23 C 1.1795(3) 0.44078(13) 0.37053(16)
H27 H 1.2824 0.4200 0.3960
C24 C 0.4965(3) 0.49223(14) 0.71785(14)
C25 C 0.5613(4) 0.36982(16) 0.7588(2)
H28 H 0.4889 0.3570 0.7022
H29 H 0.4966 0.3726 0.8049
H30 H 0.6480 0.3349 0.7755
O6 O 0.3875(2) 0.73466(10) 0.40257(11)
H31 H 0.4356 0.7379 0.4560
O7 O -0.09507(17) 0.75965(10) 0.02030(10)
O8 O 0.5778(2) 0.68624(12) -0.25312(11)
O9 O -0.2638(2) 0.72689(11) 0.29277(13)
H32 H -0.2347 0.7082 0.3426
C26 C 0.1932(2) 0.75188(11) 0.00261(12)
H33 H 0.1963 0.8009 0.0234
O10 O -0.0582(3) 0.66833(11) 0.42556(12)
C27 C 0.3205(2) 0.74809(11) -0.06157(12)
C28 C 0.2423(2) 0.70736(12) 0.08868(12)
H34 H 0.2552 0.6586 0.0721
H35 H 0.3499 0.7235 0.1238
C29 C -0.1386(3) 0.72124(13) 0.24719(15)
C30 C 0.4785(3) 0.69759(13) -0.20514(13)
C31 C 0.2232(2) 0.75130(12) -0.16175(12)
H36 H 0.1601 0.7069 -0.1714
C32 C 0.0086(2) 0.73742(13) -0.04316(13)
C33 C 0.1130(2) 0.71165(11) 0.14601(13)
C34 C 0.1456(2) 0.68887(11) 0.23559(13)
C35 C 0.3343(2) 0.75025(12) -0.23318(12)
C36 C 0.4958(3) 0.65964(14) -0.11919(16)
H37 H 0.5580 0.6181 -0.1111
C37 C 0.4265(3) 0.68196(13) -0.05205(14)
H38 H 0.4436 0.6564 0.0017
C38 C 0.4052(4) 0.82237(15) -0.25288(18)
H39 H 0.4811 0.8392 -0.1994
H40 H 0.3143 0.8553 -0.2705
H41 H 0.4643 0.8176 -0.3011
C39 C 0.0200(3) 0.69254(12) 0.28728(14)
C40 C 0.0518(3) 0.66582(13) 0.37991(15)
C41 C 0.4445(3) 0.80946(14) -0.03307(15)
H42 H 0.3879 0.8534 -0.0501
H43 H 0.5371 0.8048 -0.0627
H44 H 0.4860 0.8084 0.0314
C42 C -0.0490(2) 0.73795(12) 0.10796(14)
C43 C -0.1718(3) 0.74387(13) 0.15847(16)
H45 H -0.2763 0.7631 0.1325
C44 C 0.0890(3) 0.80813(14) -0.17285(15)
H46 H 0.0416 0.8156 -0.2368
H47 H 0.1392 0.8521 -0.1475
C45 C 0.3159(3) 0.65795(14) 0.27689(13)
H48 H 0.4013 0.6826 0.2529
H49 H 0.3176 0.6088 0.2591
C46 C -0.0506(3) 0.78659(17) -0.12494(16)
H50 H -0.1391 0.7631 -0.1683
H51 H -0.0986 0.8288 -0.1045
C47 C 0.3595(3) 0.66268(14) 0.37931(14)
H52 H 0.4628 0.6359 0.4026
C48 C -0.0293(3) 0.65986(15) -0.06451(16)
H53 H -0.0069 0.6332 -0.0092
H54 H 0.0406 0.6429 -0.1036
H55 H -0.1456 0.6546 -0.0941
C49 C 0.2189(3) 0.63334(15) 0.41947(15)
H56 H 0.2117 0.5828 0.4094
H57 H 0.2456 0.6413 0.4844
C50 C 0.2276(3) 0.72097(18) -0.32274(15)
H58 H 0.2928 0.7218 -0.3687
H59 H 0.1288 0.7495 -0.3416
H60 H 0.1949 0.6733 -0.3136
O11 O 0.3767(3) 0.48661(17) 0.95011(13)
H61 H 0.3997 0.4895 0.9000
C51 C 0.2385(4) 0.4444(2) 0.9447(2)
H62 H 0.2451 0.4053 0.9054
H63 H 0.1384 0.4712 0.9210
H64 H 0.2349 0.4273 1.0041
O12 O 0.5904(3) 0.7291(2) 0.57241(14)
H65 H 0.5886 0.7128 0.6225
C52 C 0.7469(4) 0.7536(2) 0.5725(3)
H66 H 0.7419 0.7848 0.5219
H67 H 0.8200 0.7148 0.5676
H68 H 0.7896 0.7787 0.6279
loop_
_geom_bond_atom_site_label_1
_geom_bond_atom_site_label_2
_geom_bond_site_symmetry_1
_geom_bond_site_symmetry_2
O1 C2 1_555 1_555
O2 H1 1_555 1_555
O3 C13 1_555 1_555
C1 C5 1_555 1_555
O4 C24 1_555 1_555
O5 H2 1_555 1_555
C2 C3 1_555 1_555
C3 H3 1_555 1_555
C4 H4 1_555 1_555
C5 H5 1_555 1_555
H6 C5 1_555 1_555
C6 C2 1_555 1_555
H7 C6 1_555 1_555
H8 C6 1_555 1_555
C7 O1 1_555 1_555
C8 C2 1_555 1_555
H9 C8 1_555 1_555
H10 C8 1_555 1_555
H11 C8 1_555 1_555
C9 C3 1_555 1_555
H12 C9 1_555 1_555
H13 C9 1_555 1_555
C10 C1 1_555 1_555
C11 C1 1_555 1_555
C12 H14 1_555 1_555
H15 C12 1_555 1_555
H16 C12 1_555 1_555
C13 C10 1_555 1_555
C14 O5 1_555 1_555
C15 C4 1_555 1_555
H17 C15 1_555 1_555
H18 C15 1_555 1_555
C16 C3 1_555 1_555
C17 O2 1_555 1_555
H19 C17 1_555 1_555
C18 C13 1_555 1_555
H20 C18 1_555 1_555
H21 C18 1_555 1_555
C19 C16 1_555 1_555
H22 C19 1_555 1_555
H23 C19 1_555 1_555
H24 C19 1_555 1_555
C20 H25 1_555 1_555
C21 C4 1_555 1_555
C22 C16 1_555 1_555
H26 C22 1_555 1_555
C23 C7 1_555 1_555
H27 C23 1_555 1_555
C24 C20 1_555 1_555
C25 C21 1_555 1_555
H28 C25 1_555 1_555
H29 C25 1_555 1_555
H30 C25 1_555 1_555
O6 H31 1_555 1_555
O7 C32 1_555 1_555
O8 C30 1_555 1_555
O9 H32 1_555 1_555
C26 H33 1_555 1_555
O10 C40 1_555 1_555
C27 C26 1_555 1_555
C28 C26 1_555 1_555
H34 C28 1_555 1_555
H35 C28 1_555 1_555
C29 O9 1_555 1_555
C30 C35 1_555 1_555
C31 C27 1_555 1_555
H36 C31 1_555 1_555
C32 C26 1_555 1_555
C33 C28 1_555 1_555
C34 C33 1_555 1_555
C35 C31 1_555 1_555
C36 C30 1_555 1_555
H37 C36 1_555 1_555
C37 C27 1_555 1_555
H38 C37 1_555 1_555
C38 C35 1_555 1_555
H39 C38 1_555 1_555
H40 C38 1_555 1_555
H41 C38 1_555 1_555
C39 C29 1_555 1_555
C40 C39 1_555 1_555
C41 C27 1_555 1_555
H42 C41 1_555 1_555
H43 C41 1_555 1_555
H44 C41 1_555 1_555
C42 O7 1_555 1_555
C43 C29 1_555 1_555
H45 C43 1_555 1_555
C44 C31 1_555 1_555
H46 C44 1_555 1_555
H47 C44 1_555 1_555
C45 C34 1_555 1_555
H48 C45 1_555 1_555
H49 C45 1_555 1_555
C46 C32 1_555 1_555
H50 C46 1_555 1_555
H51 C46 1_555 1_555
C47 O6 1_555 1_555
H52 C47 1_555 1_555
C48 C32 1_555 1_555
H53 C48 1_555 1_555
H54 C48 1_555 1_555
H55 C48 1_555 1_555
C49 C40 1_555 1_555
H56 C49 1_555 1_555
H57 C49 1_555 1_555
C50 C35 1_555 1_555
H58 C50 1_555 1_555
H59 C50 1_555 1_555
H60 C50 1_555 1_555
O11 H61 1_555 1_555
C51 O11 1_555 1_555
H62 C51 1_555 1_555
H63 C51 1_555 1_555
H64 C51 1_555 1_555
O12 H65 1_555 1_555
C52 O12 1_555 1_555
H66 C52 1_555 1_555
H67 C52 1_555 1_555
H68 C52 1_555 1_555
C4 C16 1_555 1_555
C5 C17 1_555 1_555
C6 C15 1_555 1_555
C7 C11 1_555 1_555
C9 C11 1_555 1_555
C10 C14 1_555 1_555
C12 C21 1_555 1_555
C14 C23 1_555 1_555
C17 C18 1_555 1_555
C20 C22 1_555 1_555
C21 C24 1_555 1_555
C33 C42 1_555 1_555
C34 C39 1_555 1_555
C36 C37 1_555 1_555
C42 C43 1_555 1_555
C44 C46 1_555 1_555
C45 C47 1_555 1_555
C47 C49 1_555 1_555

#END
