
#######################################################################
#
#                 Cambridge Crystallographic Data Centre
#                                CCDC 
#
#######################################################################
#
# If this CIF has been generated from an entry in the Cambridge 
# Structural Database, then it will include bibliographic, chemical, 
# crystal, experimental, refinement or atomic coordinate data resulting 
# from the CCDC's data processing and validation procedures.
#
#######################################################################

data_NUHMIM
_chemical_formula_moiety         'C42 H37 N7,2(C8 H6 O5),3(C4 H8 O2)'
_chemical_name_systematic        
'2-Amino-4,6-bis(((3-(2-(butylamino)pyridin-6-yl)ethynyl)phenylene)ethynyl)pyrimidine bis(5-hydroxyisophthalic acid) dioxane solvate'
_symmetry_cell_setting           triclinic
_symmetry_space_group_name_H-M   'P -1'
_symmetry_Int_Tables_number      2
_space_group_name_Hall           '-P 1'
loop_
_symmetry_equiv_pos_site_id
_symmetry_equiv_pos_as_xyz
1 x,y,z
2 -x,-y,-z
_cell_length_a                   13.0983(11)
_cell_length_b                   14.6384(13)
_cell_length_c                   18.0368(15)
_cell_angle_alpha                106.833(2)
_cell_angle_beta                 93.572(2)
_cell_angle_gamma                93.343(2)
_cell_volume                     3293.16
_exptl_crystal_colour            'pale yellow'
_exptl_crystal_description       tabular
_cell_formula_units_Z            2
loop_
_atom_site_label
_atom_site_type_symbol
_atom_site_fract_x
_atom_site_fract_y
_atom_site_fract_z
O1 O 0.0601(9) 0.0795(8) -0.2862(6)
H1 H 0.1008(72) 0.071(11) -0.3213(52)
O2 O 0.2638(10) -0.1982(8) -0.2797(6)
O3 O 0.2695(9) -0.1983(7) -0.1556(6)
H2 H 0.3045(9) -0.2455(7) -0.1713(6)
O4 O 0.1188(8) 0.0543(8) 0.0376(6)
H3 H 0.1025(8) 0.0832(8) 0.0822(6)
O5 O 0.0365(10) 0.1670(7) 0.0013(6)
C43 C 0.0953(12) 0.0400(10) -0.2303(9)
C44 C 0.1503(12) -0.0382(10) -0.2474(8)
H44 H 0.1667(12) -0.0660(10) -0.2993(8)
C45 C 0.1836(11) -0.0790(11) -0.1883(9)
C46 C 0.1574(11) -0.0367(10) -0.1133(8)
H45 H 0.1750(11) -0.0642(10) -0.0730(8)
C47 C 0.1050(11) 0.0468(11) -0.0973(9)
C48 C 0.0733(11) 0.0844(10) -0.1547(8)
H46 H 0.0366(11) 0.1403(10) -0.1432(8)
C49 C 0.2460(12) -0.1635(11) -0.2133(8)
C50 C 0.0790(12) 0.0952(12) -0.0138(9)
O6 O -0.3484(13) 0.7031(11) 0.2762(7)
H4 H -0.3069(73) 0.712(15) 0.2447(98)
O7 O -0.3305(9) 0.7429(7) 0.5558(5)
O8 O -0.2637(8) 0.6154(7) 0.5745(6)
H5 H -0.2769(8) 0.6405(7) 0.6207(6)
O9 O -0.1054(9) 0.4042(7) 0.3537(6)
H6 H -0.0706(9) 0.3593(7) 0.3315(6)
O10 O -0.1308(9) 0.4199(8) 0.2345(6)
C51 C -0.3063(15) 0.6503(13) 0.3194(9)
C52 C -0.3189(11) 0.6808(10) 0.3997(8)
H47 H -0.3567(11) 0.7346(10) 0.4204(8)
C53 C -0.2777(11) 0.6339(9) 0.4477(8)
C54 C -0.2202(10) 0.5558(10) 0.4155(8)
H48 H -0.1894(10) 0.5233(10) 0.4485(8)
C55 C -0.2075(12) 0.5252(10) 0.3366(8)
C56 C -0.2482(12) 0.5755(11) 0.2902(9)
H49 H -0.2359(12) 0.5581(11) 0.2367(9)
C57 C -0.2945(14) 0.6672(12) 0.5322(10)
C58 C -0.1446(12) 0.4444(11) 0.3013(10)
H7 H 0.340(13) -0.298(13) -0.3082(97)
N1 N 0.4023(12) -0.3446(10) -0.3213(8)
N2 N -0.3785(10) 0.8148(8) 0.7126(7)
H8 H -0.3641(10) 0.7989(8) 0.6637(7)
N3 N 0.3889(9) -0.3500(8) -0.1979(6)
N4 N 0.0844(9) 0.1426(9) 0.1860(7)
N5 N 0.0144(11) 0.2594(9) 0.2901(8)
N6 N -0.0089(9) 0.2632(9) 0.1639(7)
H9 H -0.0450(9) 0.3131(9) 0.1800(7)
H10 H 0.0007(9) 0.2405(9) 0.1143(7)
N7 N -0.2882(10) 0.6849(9) 0.7246(7)
C1 C 0.4273(13) -0.3785(12) -0.4006(9)
H11 H 0.4038(13) -0.4472(12) -0.4217(9)
H12 H 0.5028(13) -0.3725(12) -0.4018(9)
C2 C 0.3795(14) -0.3244(11) -0.4524(9)
H13 H 0.3044(14) -0.3272(11) -0.4487(9)
H14 H 0.4062(14) -0.2563(11) -0.4329(9)
C3 C 0.4007(16) -0.3631(13) -0.5360(9)
H15 H 0.4756(16) -0.3668(13) -0.5391(9)
H16 H 0.3675(16) -0.4289(13) -0.5570(9)
C4 C 0.3633(18) -0.3042(16) -0.5851(11)
H17 H 0.2908(18) -0.3233(16) -0.6024(11)
H18 H 0.4034(18) -0.3140(16) -0.6305(11)
H19 H 0.3712(18) -0.2364(16) -0.5548(11)
C5 C -0.4389(13) 0.8955(10) 0.7385(8)
H20 H -0.4085(13) 0.9379(10) 0.7893(8)
H21 H -0.5096(13) 0.8730(10) 0.7451(8)
C6 C -0.4416(12) 0.9504(11) 0.6790(10)
H22 H -0.3704(12) 0.9664(11) 0.6687(10)
H23 H -0.4773(12) 0.9089(11) 0.6297(10)
C7 C -0.4948(13) 1.0412(12) 0.7048(11)
H24 H -0.5684(13) 1.0247(12) 0.7083(11)
H25 H -0.4652(13) 1.0787(12) 0.7574(11)
C8 C -0.4861(15) 1.1024(13) 0.6512(11)
H26 H -0.5216(15) 1.1605(13) 0.6713(11)
H27 H -0.5174(15) 1.0666(13) 0.5994(11)
H28 H -0.4135(15) 1.1200(13) 0.6479(11)
C9 C 0.4266(12) -0.3863(12) -0.2671(9)
C10 C 0.4960(11) -0.4596(11) -0.2784(8)
H29 H 0.5246(11) -0.4828(11) -0.3269(8)
C11 C 0.5210(14) -0.4966(12) -0.2181(9)
H30 H 0.5650(14) -0.5472(12) -0.2249(9)
C12 C 0.4807(12) -0.4584(12) -0.1472(9)
H31 H 0.4985(12) -0.4818(12) -0.1046(9)
C13 C 0.4149(11) -0.3865(11) -0.1387(9)
C14 C 0.3696(12) -0.3504(11) -0.0664(9)
C15 C 0.3378(15) -0.3210(11) -0.0056(9)
C16 C 0.3028(14) -0.2840(13) 0.0729(9)
C17 C 0.3097(12) -0.3365(12) 0.1246(9)
H32 H 0.3381(12) -0.3968(12) 0.1101(9)
C18 C 0.2753(14) -0.3017(13) 0.1981(10)
H33 H 0.2756(14) -0.3399(13) 0.2327(10)
C19 C 0.2410(13) -0.2120(13) 0.2203(10)
H34 H 0.2232(13) -0.1855(13) 0.2720(10)
C20 C 0.2323(13) -0.1597(11) 0.1677(9)
C21 C 0.2640(10) -0.1951(11) 0.0938(8)
H35 H 0.2591(10) -0.1589(11) 0.0578(8)
C22 C 0.2005(11) -0.0643(10) 0.1910(8)
C23 C 0.1679(14) 0.0151(12) 0.2098(8)
C24 C 0.0312(11) 0.2220(11) 0.2149(9)
C25 C 0.1208(12) 0.1026(12) 0.2381(9)
C26 C 0.1116(11) 0.1386(11) 0.3177(8)
H36 H 0.1410(11) 0.1096(11) 0.3538(8)
C27 C 0.0570(12) 0.2192(10) 0.3413(9)
C28 C -0.0814(13) 0.4157(12) 0.6766(9)
C29 C -0.0394(11) 0.3642(11) 0.7215(9)
H37 H -0.0528(11) 0.3810(11) 0.7747(9)
C30 C 0.0209(11) 0.2897(11) 0.6948(8)
H38 H 0.0501(11) 0.2580(11) 0.7292(8)
C31 C 0.0379(14) 0.2622(11) 0.6185(9)
H39 H 0.0761(14) 0.2084(11) 0.5988(9)
C32 C -0.0002(11) 0.3123(11) 0.5674(9)
C33 C -0.0609(10) 0.3877(10) 0.5962(8)
H40 H -0.0888(10) 0.4207(10) 0.5625(8)
C34 C 0.0176(11) 0.2830(11) 0.4873(8)
C35 C 0.0350(14) 0.2566(13) 0.4211(9)
C36 C -0.3414(14) 0.7605(12) 0.7572(9)
C37 C -0.3590(13) 0.7859(12) 0.8368(9)
H41 H -0.3996(13) 0.8371(12) 0.8588(9)
C38 C -0.3171(14) 0.7360(12) 0.8803(10)
H42 H -0.3287(14) 0.7524(12) 0.9339(10)
C39 C -0.2566(14) 0.6605(13) 0.8500(9)
H43 H -0.2242(14) 0.6266(13) 0.8814(9)
C40 C -0.2474(12) 0.6384(10) 0.7703(8)
C41 C -0.1889(13) 0.5608(11) 0.7342(9)
C42 C -0.1410(12) 0.4954(11) 0.7064(8)
O11 O 0.2468(10) -0.0305(9) -0.5613(6)
C59 C 0.2677(11) 0.0599(10) -0.5041(7)
H50 H 0.2242(11) 0.1069(10) -0.5174(7)
H51 H 0.3403(11) 0.0828(10) -0.5038(7)
C60 C 0.2473(10) 0.0534(10) -0.4254(6)
H52 H 0.2961(10) 0.0119(10) -0.4097(6)
H53 H 0.2586(10) 0.1179(10) -0.3874(6)
O12 O 0.1457(8) 0.0157(8) -0.4238(5)
C61 C 0.1240(12) -0.0743(10) -0.4812(8)
H54 H 0.0517(12) -0.0977(10) -0.4806(8)
H55 H 0.1686(12) -0.1214(10) -0.4693(8)
C62 C 0.1421(12) -0.0653(13) -0.5605(7)
H56 H 0.1276(12) -0.1285(13) -0.6000(7)
H57 H 0.0953(12) -0.0205(13) -0.5736(7)
O17 O 0.0044(27) 0.4336(22) 0.9256(16)
C71 C -0.0612(30) 0.4009(26) 0.9739(21)
H74 H -0.0490(30) 0.3338(26) 0.9706(21)
H75 H -0.1335(30) 0.4024(26) 0.9552(21)
C72 C 0.0433(31) 0.5391(31) 0.9440(18)
H76 H 0.0935(31) 0.5612(31) 0.9129(18)
H77 H -0.0263(31) 0.5474(31) 0.9234(18)
C72A C -0.0433(31) 0.4609(31) 1.0560(18)
O17A O -0.0044(27) 0.5664(22) 1.0744(16)
C71A C 0.0612(30) 0.5991(26) 1.0261(21)
H74A H 0.0490(30) 0.6662(26) 1.0294(21)
H75A H 0.1335(30) 0.5976(26) 1.0448(21)
H76A H -0.0935(31) 0.4388(31) 1.0871(18)
H77A H 0.0263(31) 0.4526(31) 1.0766(18)
O19 O -0.2692(17) 0.7894(16) 1.0735(14)
C75 C -0.2279(16) 0.7028(19) 1.0765(19)
H82 H -0.1883(16) 0.7135(19) 1.1273(19)
H83 H -0.1804(16) 0.6833(19) 1.0352(19)
C76 C -0.3102(22) 0.6251(14) 1.0662(19)
H84 H -0.3439(22) 0.6090(14) 1.0128(19)
H85 H -0.2793(22) 0.5673(14) 1.0721(19)
O20 O -0.3849(18) 0.6508(16) 1.1202(14)
C77 C -0.4245(16) 0.7385(19) 1.1195(19)
H86 H -0.4730(16) 0.7567(19) 1.1603(19)
H87 H -0.4626(16) 0.7307(19) 1.0686(19)
C78 C -0.3393(22) 0.8164(14) 1.1335(18)
H88 H -0.3680(22) 0.8773(14) 1.1328(18)
H89 H -0.3023(22) 0.8261(14) 1.1852(18)
O13? O -0.4235(27) 1.0835(30) 1.0102(24)
C63? C -0.4888(30) 1.0437(36) 0.9409(21)
H58? H -0.4660(30) 0.9808(36) 0.9121(21)
H59? H -0.4840(30) 1.0863(36) 0.9073(21)
C64? C -0.5970(25) 1.0312(34) 0.9586(21)
H60? H -0.6220(25) 1.0949(34) 0.9820(21)
H61? H -0.6399(25) 1.0000(34) 0.9096(21)
O14? O -0.6080(19) 0.9754(24) 1.0102(16)
C65? C -0.5408(25) 1.0111(31) 1.0780(16)
H62? H -0.5467(25) 0.9673(31) 1.1106(16)
H63? H -0.5606(25) 1.0745(31) 1.1083(16)
C66? C -0.4316(21) 1.0205(38) 1.0586(26)
H64? H -0.3860(21) 1.0468(38) 1.1069(26)
H65? H -0.4101(21) 0.9567(38) 1.0307(26)
O15? O -0.5142(39) 1.1078(26) 1.0041(28)
C67? C -0.5885(29) 1.0433(34) 1.0207(26)
H66? H -0.6234(29) 1.0011(34) 0.9713(26)
H67? H -0.6409(29) 1.0799(34) 1.0511(26)
C68? C -0.5402(33) 0.9839(32) 1.0650(23)
H68? H -0.5126(33) 1.0257(32) 1.1169(23)
H69? H -0.5931(33) 0.9372(32) 1.0728(23)
O16? O -0.4600(39) 0.9341(32) 1.0269(31)
C69? C -0.3871(30) 0.9968(44) 1.0075(39)
H70? H -0.3347(30) 0.9592(44) 0.9777(39)
H71? H -0.3519(30) 1.0414(44) 1.0557(39)
C70? C -0.4382(39) 1.0529(38) 0.9599(33)
H72? H -0.3864(39) 1.0964(38) 0.9468(33)
H73? H -0.4715(39) 1.0086(38) 0.9109(33)
O18? O -0.0523(32) 0.5590(31) 1.0643(20)
C73? C 0.0116(34) 0.5919(23) 1.0152(21)
H78? H 0.0844(34) 0.5882(23) 1.0315(21)
H79? H 0.0008(34) 0.6597(23) 1.0199(21)
C74? C -0.0123(33) 0.5322(24) 0.9321(19)
H80? H -0.0846(33) 0.5371(24) 0.9151(19)
H81? H 0.0324(33) 0.5558(24) 0.8982(19)
O21? O -0.2407(17) 0.7405(16) 1.1586(11)
C79? C -0.1911(16) 0.6714(20) 1.1034(16)
H90? H -0.1581(16) 0.7023(20) 1.0679(16)
H91? H -0.1367(16) 0.6461(20) 1.1307(16)
C80? C -0.2644(23) 0.5912(15) 1.0574(17)
H92? H -0.2281(23) 0.5471(15) 1.0170(17)
H93? H -0.2901(23) 0.5550(15) 1.0920(17)
O22? O -0.3485(20) 0.6226(17) 1.0214(12)
C81? C -0.3970(16) 0.6937(21) 1.0749(17)
H94? H -0.4296(16) 0.6654(21) 1.1121(17)
H95? H -0.4516(16) 0.7178(21) 1.0468(17)
C82? C -0.3215(21) 0.7756(15) 1.1188(18)
H96? H -0.2920(21) 0.8070(15) 1.0823(18)
H97? H -0.3569(21) 0.8237(15) 1.1570(18)
loop_
_geom_bond_atom_site_label_1
_geom_bond_atom_site_label_2
_geom_bond_site_symmetry_1
_geom_bond_site_symmetry_2
O1 H1 1_555 1_555
O2 C49 1_555 1_555
O3 H2 1_555 1_555
O4 H3 1_555 1_555
O5 C50 1_555 1_555
O6 H4 1_555 1_555
O7 C57 1_555 1_555
O8 H5 1_555 1_555
O9 H6 1_555 1_555
O10 C58 1_555 1_555
H7 N1 1_555 1_555
N1 C1 1_555 1_555
N2 H8 1_555 1_555
N3 C9 1_555 1_555
N4 C24 1_555 1_555
N5 C24 1_555 1_555
N6 H9 1_555 1_555
H10 N6 1_555 1_555
N7 C36 1_555 1_555
C1 H11 1_555 1_555
H12 C1 1_555 1_555
C2 C1 1_555 1_555
H13 C2 1_555 1_555
H14 C2 1_555 1_555
C3 C2 1_555 1_555
H15 C3 1_555 1_555
H16 C3 1_555 1_555
C4 C3 1_555 1_555
H17 C4 1_555 1_555
H18 C4 1_555 1_555
H19 C4 1_555 1_555
C5 N2 1_555 1_555
H20 C5 1_555 1_555
H21 C5 1_555 1_555
C6 C5 1_555 1_555
H22 C6 1_555 1_555
H23 C6 1_555 1_555
C7 C6 1_555 1_555
H24 C7 1_555 1_555
H25 C7 1_555 1_555
C8 C7 1_555 1_555
H26 C8 1_555 1_555
H27 C8 1_555 1_555
H28 C8 1_555 1_555
C9 N1 1_555 1_555
C10 C9 1_555 1_555
H29 C10 1_555 1_555
C11 C10 1_555 1_555
H30 C11 1_555 1_555
C12 C11 1_555 1_555
H31 C12 1_555 1_555
C13 N3 1_555 1_555
C14 C13 1_555 1_555
C15 C14 1_555 1_555
C16 C15 1_555 1_555
C17 C16 1_555 1_555
H32 C17 1_555 1_555
C18 C17 1_555 1_555
H33 C18 1_555 1_555
C19 C18 1_555 1_555
H34 C19 1_555 1_555
C20 C19 1_555 1_555
C21 C16 1_555 1_555
H35 C21 1_555 1_555
C22 C20 1_555 1_555
C23 C22 1_555 1_555
C24 N6 1_555 1_555
C25 N4 1_555 1_555
C26 C25 1_555 1_555
H36 C26 1_555 1_555
C27 N5 1_555 1_555
C28 C29 1_555 1_555
C29 H37 1_555 1_555
C30 C29 1_555 1_555
H38 C30 1_555 1_555
C31 C30 1_555 1_555
H39 C31 1_555 1_555
C32 C31 1_555 1_555
C33 C28 1_555 1_555
H40 C33 1_555 1_555
C34 C32 1_555 1_555
C35 C27 1_555 1_555
C36 N2 1_555 1_555
C37 C36 1_555 1_555
H41 C37 1_555 1_555
C38 C37 1_555 1_555
H42 C38 1_555 1_555
C39 C38 1_555 1_555
H43 C39 1_555 1_555
C40 N7 1_555 1_555
C41 C40 1_555 1_555
C42 C28 1_555 1_555
C43 O1 1_555 1_555
C44 C43 1_555 1_555
H44 C44 1_555 1_555
C45 C44 1_555 1_555
C46 C45 1_555 1_555
H45 C46 1_555 1_555
C47 C46 1_555 1_555
C48 C43 1_555 1_555
H46 C48 1_555 1_555
C49 O3 1_555 1_555
C50 O4 1_555 1_555
C51 O6 1_555 1_555
C52 C51 1_555 1_555
H47 C52 1_555 1_555
C53 C52 1_555 1_555
C54 C53 1_555 1_555
H48 C54 1_555 1_555
C55 C54 1_555 1_555
C56 C51 1_555 1_555
H49 C56 1_555 1_555
C57 O8 1_555 1_555
C58 O9 1_555 1_555
O11 C59 1_555 1_555
C59 H50 1_555 1_555
H51 C59 1_555 1_555
C60 C59 1_555 1_555
H52 C60 1_555 1_555
H53 C60 1_555 1_555
O12 C60 1_555 1_555
C61 O12 1_555 1_555
H54 C61 1_555 1_555
H55 C61 1_555 1_555
C62 O11 1_555 1_555
H56 C62 1_555 1_555
H57 C62 1_555 1_555
O17 C71 1_555 1_555
C71 H74 1_555 1_555
H75 C71 1_555 1_555
C72 O17 1_555 1_555
H76 C72 1_555 1_555
H77 C72 1_555 1_555
O19 C75 1_555 1_555
C75 H82 1_555 1_555
H83 C75 1_555 1_555
C76 C75 1_555 1_555
H84 C76 1_555 1_555
H85 C76 1_555 1_555
O20 C76 1_555 1_555
C77 O20 1_555 1_555
H86 C77 1_555 1_555
H87 C77 1_555 1_555
C78 O19 1_555 1_555
H88 C78 1_555 1_555
H89 C78 1_555 1_555
C72A C71 1_555 1_555
O17A C72A 1_555 1_555
C71A C72 1_555 1_555
H74A C71A 1_555 1_555
H75A C71A 1_555 1_555
H76A C72A 1_555 1_555
H77A C72A 1_555 1_555
C12 C13 1_555 1_555
C20 C21 1_555 1_555
C23 C25 1_555 1_555
C26 C27 1_555 1_555
C32 C33 1_555 1_555
C34 C35 1_555 1_555
C39 C40 1_555 1_555
C41 C42 1_555 1_555
C45 C49 1_555 1_555
C47 C48 1_555 1_555
C47 C50 1_555 1_555
C53 C57 1_555 1_555
C55 C56 1_555 1_555
C55 C58 1_555 1_555
C61 C62 1_555 1_555
C77 C78 1_555 1_555
O17A C71A 1_555 1_555

#END
