
#######################################################################
#
#                 Cambridge Crystallographic Data Centre
#                                CCDC 
#
#######################################################################
#
# If this CIF has been generated from an entry in the Cambridge 
# Structural Database, then it will include bibliographic, chemical, 
# crystal, experimental, refinement or atomic coordinate data resulting 
# from the CCDC's data processing and validation procedures.
#
#######################################################################

data_NUHVAO
_chemical_formula_moiety         'C19 H19 N3 O3'
_chemical_name_systematic        
'Ethyl N-(4-oxo-3-phenyl-3,4-dihydroquinazolin-2-yl)alaninate'
_symmetry_cell_setting           monoclinic
_symmetry_space_group_name_H-M   'P 21/c'
_symmetry_Int_Tables_number      14
_space_group_name_Hall           '-P 2ybc'
loop_
_symmetry_equiv_pos_site_id
_symmetry_equiv_pos_as_xyz
1 x,y,z
2 -x,1/2+y,1/2-z
3 -x,-y,-z
4 x,1/2-y,1/2+z
_cell_length_a                   9.5141(10)
_cell_length_b                   19.973(2)
_cell_length_c                   9.2022(10)
_cell_angle_alpha                90
_cell_angle_beta                 106.225(2)
_cell_angle_gamma                90
_cell_volume                     1679
_exptl_crystal_colour            colorless
_exptl_crystal_description       prism
_chemical_melting_point          '72-74 deg.C'
_cell_formula_units_Z            4
_exptl_crystal_recrystallization_method 'dichloromethane/petroleum ether'
loop_
_atom_site_label
_atom_site_type_symbol
_atom_site_fract_x
_atom_site_fract_y
_atom_site_fract_z
C1 C -0.06512(15) 0.52438(7) 0.26175(15)
C2 C -0.16690(16) 0.57387(8) 0.27264(17)
H1 H -0.1613 0.6163 0.2329
C3 C -0.27430(17) 0.56003(9) 0.34143(17)
H2 H -0.3408 0.5933 0.3477
C4 C -0.28547(17) 0.49702(9) 0.40205(18)
H3 H -0.3581 0.4883 0.4493
C5 C -0.18800(17) 0.44789(8) 0.39116(17)
H4 H -0.1952 0.4055 0.4304
C6 C -0.07796(15) 0.46113(7) 0.32138(14)
C7 C 0.02440(16) 0.40861(7) 0.30927(16)
C8 C 0.22445(16) 0.37631(7) 0.20766(16)
C9 C 0.36013(18) 0.36588(9) 0.30853(19)
H5 H 0.3948 0.3941 0.3913
C10 C 0.4436(2) 0.31257(10) 0.2840(2)
H6 H 0.5364 0.3055 0.3495
C11 C 0.3906(2) 0.27007(9) 0.1637(2)
H7 H 0.4462 0.2335 0.1501
C12 C 0.2559(2) 0.28139(9) 0.0634(2)
H8 H 0.2209 0.2530 -0.0189
C13 C 0.17307(18) 0.33491(8) 0.08509(19)
H9 H 0.0822 0.3431 0.0168
C14 C 0.13584(15) 0.49355(7) 0.18637(15)
C15 C 0.39021(17) 0.58114(9) 0.00962(18)
H10 H 0.4788 0.5670 0.0822
H11 H 0.4007 0.6266 -0.0196
H12 H 0.3711 0.5528 -0.0779
C16 C 0.26355(15) 0.57650(7) 0.07957(16)
H13 H 0.1735 0.5896 0.0032
C17 C 0.28763(16) 0.62415(7) 0.21370(17)
C18 C 0.2209(2) 0.73155(9) 0.2858(2)
H14 H 0.2157 0.7763 0.2437
H15 H 0.3105 0.7281 0.3678
C19 C 0.0934(2) 0.71994(9) 0.3450(2)
H16 H 0.0047 0.7264 0.2652
H17 H 0.0962 0.7509 0.4255
H18 H 0.0965 0.6750 0.3826
N1 N 0.12926(12) 0.42843(6) 0.23565(13)
N2 N 0.04450(13) 0.54058(6) 0.19576(13)
N3 N 0.24695(14) 0.50871(6) 0.12659(15)
H19 H 0.3068(16) 0.4805(7) 0.1267(17)
O1 O 0.02405(13) 0.35163(5) 0.35504(14)
O2 O 0.36153(12) 0.61205(6) 0.33965(12)
O3 O 0.22300(13) 0.68238(5) 0.16889(12)
loop_
_geom_bond_atom_site_label_1
_geom_bond_atom_site_label_2
_geom_bond_site_symmetry_1
_geom_bond_site_symmetry_2
C1 C2 1_555 1_555
C2 H1 1_555 1_555
C3 C2 1_555 1_555
H2 C3 1_555 1_555
C4 C3 1_555 1_555
H3 C4 1_555 1_555
C5 C4 1_555 1_555
H4 C5 1_555 1_555
C6 C1 1_555 1_555
C7 C6 1_555 1_555
C8 C9 1_555 1_555
C9 H5 1_555 1_555
C10 C9 1_555 1_555
H6 C10 1_555 1_555
C11 C10 1_555 1_555
H7 C11 1_555 1_555
C12 C11 1_555 1_555
H8 C12 1_555 1_555
C13 C8 1_555 1_555
H9 C13 1_555 1_555
C14 N1 1_555 1_555
C15 H10 1_555 1_555
H11 C15 1_555 1_555
H12 C15 1_555 1_555
C16 C15 1_555 1_555
H13 C16 1_555 1_555
C17 C16 1_555 1_555
C18 H14 1_555 1_555
H15 C18 1_555 1_555
C19 C18 1_555 1_555
H16 C19 1_555 1_555
H17 C19 1_555 1_555
H18 C19 1_555 1_555
N1 C7 1_555 1_555
N2 C1 1_555 1_555
N3 C14 1_555 1_555
H19 N3 1_555 1_555
O1 C7 1_555 1_555
O2 C17 1_555 1_555
O3 C17 1_555 1_555
C5 C6 1_555 1_555
C8 N1 1_555 1_555
C12 C13 1_555 1_555
C14 N2 1_555 1_555
C16 N3 1_555 1_555
C18 O3 1_555 1_555

#END
