
#######################################################################
#
#                 Cambridge Crystallographic Data Centre
#                                CCDC 
#
#######################################################################
#
# If this CIF has been generated from an entry in the Cambridge 
# Structural Database, then it will include bibliographic, chemical, 
# crystal, experimental, refinement or atomic coordinate data resulting 
# from the CCDC's data processing and validation procedures.
#
#######################################################################

data_NUHVIX
_chemical_formula_moiety         'C44 H30,C1 H1 Cl3'
_chemical_name_systematic        
'5,12-bis(diphenylmethylene)-5,12-dihydrotetracene chloroform solvate'
_symmetry_cell_setting           monoclinic
_symmetry_space_group_name_H-M   'P 21/n'
_symmetry_Int_Tables_number      14
_space_group_name_Hall           '-P 2yn'
loop_
_symmetry_equiv_pos_site_id
_symmetry_equiv_pos_as_xyz
1 x,y,z
2 1/2-x,1/2+y,1/2-z
3 -x,-y,-z
4 1/2+x,1/2-y,1/2+z
_cell_length_a                   9.6681(2)
_cell_length_b                   17.2389(4)
_cell_length_c                   20.8625(5)
_cell_angle_alpha                90
_cell_angle_beta                 90.222(2)
_cell_angle_gamma                90
_cell_volume                     3477.07
_exptl_crystal_colour            colorless
_exptl_crystal_description       block
_cell_formula_units_Z            4
loop_
_atom_site_label
_atom_site_type_symbol
_atom_site_fract_x
_atom_site_fract_y
_atom_site_fract_z
C1 C 0.4800(2) 0.53154(15) 0.34513(11)
C2 C 0.6171(3) 0.55360(14) 0.31809(13)
C3 C 0.7421(3) 0.54178(15) 0.35118(13)
H1 H 0.7415 0.5165 0.3916
C4 C 0.8654(3) 0.56651(16) 0.32558(14)
H2 H 0.9492 0.5585 0.3485
C5 C 0.8676(3) 0.60318(17) 0.26617(15)
H3 H 0.9527 0.6201 0.2484
C6 C 0.7446(3) 0.61494(15) 0.23292(13)
H4 H 0.7461 0.6399 0.1923
C7 C 0.6192(2) 0.59055(14) 0.25847(12)
C8 C 0.4826(2) 0.60576(13) 0.22629(12)
C9 C 0.3765(2) 0.63123(14) 0.27299(12)
C10 C 0.2858(3) 0.69127(15) 0.26191(12)
H5 H 0.2886 0.7173 0.2218
C11 C 0.1891(3) 0.71540(15) 0.30796(13)
C12 C 0.0950(3) 0.77699(18) 0.29676(16)
H6 H 0.0952 0.8029 0.2566
C13 C 0.0043(3) 0.7994(2) 0.34284(18)
H7 H -0.0588 0.8404 0.3343
C14 C 0.0029(3) 0.7628(2) 0.40296(16)
H8 H -0.0599 0.7797 0.4350
C15 C 0.0913(3) 0.70303(18) 0.41560(14)
H9 H 0.0888 0.6782 0.4562
C16 C 0.1871(2) 0.67757(15) 0.36866(13)
C17 C 0.2820(3) 0.61679(16) 0.38012(13)
H10 H 0.2820 0.5917 0.4206
C18 C 0.3745(2) 0.59298(14) 0.33407(12)
C19 C 0.4530(3) 0.46327(15) 0.37421(12)
C20 C 0.5566(3) 0.39932(14) 0.38065(13)
C21 C 0.5843(3) 0.36398(17) 0.43948(15)
H11 H 0.5385 0.3817 0.4769
C22 C 0.6779(3) 0.30345(17) 0.44380(17)
H12 H 0.6970 0.2805 0.4843
C23 C 0.7435(3) 0.27615(17) 0.38976(18)
H13 H 0.8074 0.2344 0.3930
C24 C 0.7164(3) 0.30957(17) 0.33091(17)
H14 H 0.7610 0.2906 0.2935
C25 C 0.6239(3) 0.37079(16) 0.32645(14)
H15 H 0.6059 0.3937 0.2858
C26 C 0.3102(3) 0.44164(15) 0.39555(13)
C27 C 0.2711(3) 0.4410(2) 0.45946(15)
H16 H 0.3363 0.4552 0.4916
C28 C 0.1386(4) 0.4199(2) 0.47700(16)
H17 H 0.1132 0.4198 0.5209
C29 C 0.0429(3) 0.3990(2) 0.43072(17)
H18 H -0.0485 0.3851 0.4427
C30 C 0.0805(3) 0.3984(2) 0.36738(16)
H19 H 0.0151 0.3838 0.3355
C31 C 0.2131(3) 0.41891(18) 0.34979(14)
H20 H 0.2385 0.4175 0.3059
C32 C 0.4551(3) 0.59463(14) 0.16301(12)
C33 C 0.5549(3) 0.56250(15) 0.11533(13)
C34 C 0.5638(3) 0.59332(17) 0.05384(13)
H21 H 0.5086 0.6368 0.0426
C35 C 0.6520(3) 0.5615(2) 0.00887(14)
H22 H 0.6582 0.5841 -0.0326
C36 C 0.7310(3) 0.4973(2) 0.02372(15)
H23 H 0.7913 0.4754 -0.0072
C37 C 0.7213(3) 0.46537(19) 0.08406(16)
H24 H 0.7747 0.4209 0.0946
C38 C 0.6345(3) 0.49740(16) 0.12939(14)
H25 H 0.6290 0.4746 0.1708
C39 C 0.3114(3) 0.60761(15) 0.13722(12)
C40 C 0.2735(3) 0.67371(18) 0.10384(15)
H26 H 0.3406 0.7126 0.0954
C41 C 0.1380(4) 0.6838(2) 0.08254(16)
H27 H 0.1130 0.7298 0.0602
C42 C 0.0400(3) 0.6275(2) 0.09359(16)
H28 H -0.0523 0.6345 0.0788
C43 C 0.0766(3) 0.5608(2) 0.12624(16)
H29 H 0.0092 0.5219 0.1341
C44 C 0.2116(3) 0.55065(17) 0.14763(13)
H30 H 0.2362 0.5044 0.1696
C45 C 0.9994(15) 0.2897(8) 0.1323(5)
H31 H 1.0695 0.2505 0.1462
Cl1 Cl 1.07257(11) 0.34825(6) 0.07305(5)
Cl2 Cl 0.8589(4) 0.2414(2) 0.09977(18)
Cl3 Cl 0.9548(4) 0.3459(3) 0.19781(19)
C46? C 1.004(2) 0.3033(13) 0.1405(9)
H32? H 1.0744 0.2655 0.1565
Cl4? Cl 0.8500(9) 0.2526(5) 0.1298(3)
Cl5? Cl 0.9782(11) 0.3709(5) 0.2003(4)
loop_
_geom_bond_atom_site_label_1
_geom_bond_atom_site_label_2
_geom_bond_site_symmetry_1
_geom_bond_site_symmetry_2
C1 C2 1_555 1_555
C2 C3 1_555 1_555
C3 H1 1_555 1_555
C4 C3 1_555 1_555
H2 C4 1_555 1_555
C5 C4 1_555 1_555
H3 C5 1_555 1_555
C6 C5 1_555 1_555
H4 C6 1_555 1_555
C7 C2 1_555 1_555
C8 C7 1_555 1_555
C9 C8 1_555 1_555
C10 C9 1_555 1_555
H5 C10 1_555 1_555
C11 C10 1_555 1_555
C12 C11 1_555 1_555
H6 C12 1_555 1_555
C13 C12 1_555 1_555
H7 C13 1_555 1_555
C14 C13 1_555 1_555
H8 C14 1_555 1_555
C15 C14 1_555 1_555
H9 C15 1_555 1_555
C16 C11 1_555 1_555
C17 C16 1_555 1_555
H10 C17 1_555 1_555
C18 C1 1_555 1_555
C19 C1 1_555 1_555
C20 C19 1_555 1_555
C21 C20 1_555 1_555
H11 C21 1_555 1_555
C22 C21 1_555 1_555
H12 C22 1_555 1_555
C23 C22 1_555 1_555
H13 C23 1_555 1_555
C24 C23 1_555 1_555
H14 C24 1_555 1_555
C25 C20 1_555 1_555
H15 C25 1_555 1_555
C26 C19 1_555 1_555
C27 C26 1_555 1_555
H16 C27 1_555 1_555
C28 C27 1_555 1_555
H17 C28 1_555 1_555
C29 C28 1_555 1_555
H18 C29 1_555 1_555
C30 C29 1_555 1_555
H19 C30 1_555 1_555
C31 C26 1_555 1_555
H20 C31 1_555 1_555
C32 C8 1_555 1_555
C33 C32 1_555 1_555
C34 C33 1_555 1_555
H21 C34 1_555 1_555
C35 C34 1_555 1_555
H22 C35 1_555 1_555
C36 C35 1_555 1_555
H23 C36 1_555 1_555
C37 C36 1_555 1_555
H24 C37 1_555 1_555
C38 C33 1_555 1_555
H25 C38 1_555 1_555
C39 C32 1_555 1_555
C40 C39 1_555 1_555
H26 C40 1_555 1_555
C41 C40 1_555 1_555
H27 C41 1_555 1_555
C42 C41 1_555 1_555
H28 C42 1_555 1_555
C43 C42 1_555 1_555
H29 C43 1_555 1_555
C44 C39 1_555 1_555
H30 C44 1_555 1_555
C45 H31 1_555 1_555
Cl1 C45 1_555 1_555
Cl2 C45 1_555 1_555
Cl3 C45 1_555 1_555
C6 C7 1_555 1_555
C9 C18 1_555 1_555
C15 C16 1_555 1_555
C17 C18 1_555 1_555
C24 C25 1_555 1_555
C30 C31 1_555 1_555
C37 C38 1_555 1_555
C43 C44 1_555 1_555

#END
