
#######################################################################
#
#                 Cambridge Crystallographic Data Centre
#                                CCDC 
#
#######################################################################
#
# If this CIF has been generated from an entry in the Cambridge 
# Structural Database, then it will include bibliographic, chemical, 
# crystal, experimental, refinement or atomic coordinate data resulting 
# from the CCDC's data processing and validation procedures.
#
#######################################################################

data_NUHVES
_chemical_formula_moiety         'C25 H24 N4 O3 S1'
_chemical_name_systematic        
6-Benzyl-3-(4-(2-oxo-2-(piperidin-1-yl)ethoxy)phenyl)-7H-[1,3]thiazolo[3,2-b][1,2,4]triazin-7-one
_chemical_properties_biological  'potent AChE inhibitor'
_symmetry_cell_setting           triclinic
_symmetry_space_group_name_H-M   'P -1'
_symmetry_Int_Tables_number      2
_space_group_name_Hall           '-P 1'
loop_
_symmetry_equiv_pos_site_id
_symmetry_equiv_pos_as_xyz
1 x,y,z
2 -x,-y,-z
_cell_length_a                   9.6575(19)
_cell_length_b                   10.099(2)
_cell_length_c                   11.970(2)
_cell_angle_alpha                74.94(3)
_cell_angle_beta                 82.67(3)
_cell_angle_gamma                81.20(3)
_cell_volume                     1109.35
_exptl_crystal_colour            colorless
_exptl_crystal_description       cuboid
_chemical_melting_point          '480 K'
_cell_formula_units_Z            2
_exptl_crystal_recrystallization_method ethanol
loop_
_atom_site_label
_atom_site_type_symbol
_atom_site_fract_x
_atom_site_fract_y
_atom_site_fract_z
S1 S 1.48752(6) -0.02600(7) 1.32945(6)
O1 O 1.02934(18) -0.17676(17) 1.51723(15)
O2 O 1.18756(18) 0.41957(17) 0.71896(15)
O3 O 0.9507(2) 0.30377(18) 0.73139(17)
N1 N 1.10958(18) 0.03372(18) 1.23680(16)
N2 N 1.25018(18) 0.02950(18) 1.24689(16)
N3 N 1.2440(2) -0.11761(19) 1.43746(18)
N4 N 0.8089(2) 0.5064(2) 0.7042(2)
C1 C 0.7747(2) 0.2091(2) 1.2319(2)
H1 H 0.7650 0.2260 1.3054
C2 C 0.7328(3) 0.3142(3) 1.1368(3)
H2 H 0.6950 0.4012 1.1469
C3 C 0.7475(3) 0.2887(3) 1.0270(2)
H3 H 0.7194 0.3590 0.9638
C4 C 0.8034(3) 0.1601(3) 1.0111(2)
H4 H 0.8141 0.1439 0.9373
C5 C 0.8436(2) 0.0552(3) 1.1062(2)
H5 H 0.8795 -0.0322 1.0959
C6 C 0.8309(2) 0.0790(2) 1.2168(2)
C7 C 0.8847(2) -0.0318(2) 1.3190(2)
H6 H 0.8336 -0.0154 1.3902
H7 H 0.8669 -0.1212 1.3120
C8 C 1.0393(2) -0.0349(2) 1.3259(2)
C9 C 1.1024(3) -0.1158(2) 1.4340(2)
C10 C 1.3100(2) -0.0450(2) 1.3454(2)
C11 C 1.4710(2) 0.0798(2) 1.1915(2)
H8 H 1.5463 0.1184 1.1445
C12 C 1.3405(2) 0.1013(2) 1.1582(2)
C13 C 1.2923(2) 0.1858(2) 1.0459(2)
C14 C 1.1597(2) 0.2631(2) 1.0347(2)
H9 H 1.0961 0.2610 1.1002
C15 C 1.1209(2) 0.3428(2) 0.9277(2)
H10 H 1.0324 0.3942 0.9220
C16 C 1.2141(2) 0.3458(2) 0.8299(2)
C17 C 1.3470(2) 0.2724(2) 0.8390(2)
H11 H 1.4107 0.2763 0.7734
C18 C 1.3849(2) 0.1930(2) 0.9462(2)
H12 H 1.4743 0.1434 0.9516
C19 C 1.0602(3) 0.5102(2) 0.7037(2)
H13 H 1.0677 0.5751 0.6282
H14 H 1.0443 0.5624 0.7626
C20 C 0.9358(3) 0.4303(3) 0.7122(2)
C21 C 0.6830(3) 0.4400(3) 0.7118(3)
H15 H 0.6188 0.4582 0.7769
H16 H 0.7087 0.3408 0.7255
C22 C 0.6106(4) 0.4926(3) 0.6019(3)
H17 H 0.5229 0.4534 0.6115
H18 H 0.6698 0.4635 0.5386
C23 C 0.5800(4) 0.6524(3) 0.5716(3)
H19 H 0.5394 0.6853 0.4978
H20 H 0.5133 0.6817 0.6309
C24 C 0.7167(3) 0.7126(3) 0.5644(3)
H21 H 0.7809 0.6881 0.5016
H22 H 0.6979 0.8125 0.5478
C25 C 0.7835(3) 0.6583(2) 0.6770(3)
H23 H 0.8718 0.6954 0.6707
H24 H 0.7220 0.6877 0.7391
loop_
_geom_bond_atom_site_label_1
_geom_bond_atom_site_label_2
_geom_bond_site_symmetry_1
_geom_bond_site_symmetry_2
S1 C10 1_555 1_555
O1 C9 1_555 1_555
O2 C16 1_555 1_555
O3 C20 1_555 1_555
N1 N2 1_555 1_555
N2 C10 1_555 1_555
N3 C9 1_555 1_555
N4 C20 1_555 1_555
C1 H1 1_555 1_555
C2 C1 1_555 1_555
H2 C2 1_555 1_555
C3 C2 1_555 1_555
H3 C3 1_555 1_555
C4 C3 1_555 1_555
H4 C4 1_555 1_555
C5 C4 1_555 1_555
H5 C5 1_555 1_555
C6 C1 1_555 1_555
C7 C6 1_555 1_555
H6 C7 1_555 1_555
H7 C7 1_555 1_555
C8 N1 1_555 1_555
C9 C8 1_555 1_555
C10 N3 1_555 1_555
C11 S1 1_555 1_555
H8 C11 1_555 1_555
C12 N2 1_555 1_555
C13 C12 1_555 1_555
C14 C13 1_555 1_555
H9 C14 1_555 1_555
C15 C14 1_555 1_555
H10 C15 1_555 1_555
C16 C15 1_555 1_555
C17 C16 1_555 1_555
H11 C17 1_555 1_555
C18 C13 1_555 1_555
H12 C18 1_555 1_555
C19 O2 1_555 1_555
H13 C19 1_555 1_555
H14 C19 1_555 1_555
C20 C19 1_555 1_555
C21 N4 1_555 1_555
H15 C21 1_555 1_555
H16 C21 1_555 1_555
C22 C21 1_555 1_555
H17 C22 1_555 1_555
H18 C22 1_555 1_555
C23 C22 1_555 1_555
H19 C23 1_555 1_555
H20 C23 1_555 1_555
C24 C23 1_555 1_555
H21 C24 1_555 1_555
H22 C24 1_555 1_555
C25 N4 1_555 1_555
H23 C25 1_555 1_555
H24 C25 1_555 1_555
C5 C6 1_555 1_555
C7 C8 1_555 1_555
C11 C12 1_555 1_555
C17 C18 1_555 1_555
C24 C25 1_555 1_555

#END
