
#######################################################################
#
#                 Cambridge Crystallographic Data Centre
#                                CCDC 
#
#######################################################################
#
# If this CIF has been generated from an entry in the Cambridge 
# Structural Database, then it will include bibliographic, chemical, 
# crystal, experimental, refinement or atomic coordinate data resulting 
# from the CCDC's data processing and validation procedures.
#
#######################################################################

data_NUKHUY
_chemical_formula_moiety         'C21 H19 N3 O2'
_chemical_name_systematic        
'Methyl 2-cyano-5,5-bis(methyl(phenyl)amino)penta-2,3,4-trienoate'
_symmetry_cell_setting           triclinic
_symmetry_space_group_name_H-M   'P -1'
_symmetry_Int_Tables_number      2
_space_group_name_Hall           '-P 1'
loop_
_symmetry_equiv_pos_site_id
_symmetry_equiv_pos_as_xyz
1 x,y,z
2 -x,-y,-z
_cell_length_a                   7.7193(7)
_cell_length_b                   9.7067(11)
_cell_length_c                   12.7299(14)
_cell_angle_alpha                69.820(4)
_cell_angle_beta                 83.184(4)
_cell_angle_gamma                86.599(4)
_cell_volume                     888.785
_exptl_crystal_colour            yellow
_exptl_crystal_description       plate
_chemical_melting_point          '448 K'
_cell_formula_units_Z            2
_exptl_crystal_recrystallization_method 'DCM/ hexane'
loop_
_atom_site_label
_atom_site_type_symbol
_atom_site_fract_x
_atom_site_fract_y
_atom_site_fract_z
O1 O 1.24358(11) 0.64738(10) -0.29103(8)
O2 O 1.29686(11) 0.72578(10) -0.15057(8)
N1 N 0.82428(14) 0.52993(13) -0.25237(10)
N2 N 0.89933(13) 0.81850(12) 0.15586(9)
N3 N 0.62848(13) 0.72802(12) 0.14190(9)
C1 C 1.41975(17) 0.68509(17) -0.34084(12)
H1 H 1.4438 0.6556 -0.4075
H2 H 1.5016 0.6340 -0.2861
H3 H 1.4335 0.7913 -0.3628
C2 C 1.19622(16) 0.67908(14) -0.19573(11)
C3 C 1.01335(16) 0.65273(14) -0.15815(11)
C4 C 0.90968(16) 0.58652(14) -0.21138(11)
C5 C 0.93900(16) 0.68842(14) -0.06691(11)
C6 C 0.87147(16) 0.72186(15) 0.01218(11)
C7 C 0.79840(16) 0.75655(14) 0.10552(10)
C8 C 1.08183(16) 0.85030(15) 0.10844(11)
H4 H 1.1543 0.7616 0.1368
H5 H 1.1234 0.9285 0.1308
H6 H 1.0893 0.8819 0.0262
C9 C 0.86398(16) 0.80742(14) 0.27236(10)
C10 C 0.85116(16) 0.67096(14) 0.35567(11)
H7 H 0.8566 0.5841 0.3368
C11 C 0.83018(17) 0.66315(15) 0.46733(11)
H8 H 0.8210 0.5702 0.5256
C12 C 0.82254(17) 0.78996(16) 0.49433(11)
H9 H 0.8085 0.7838 0.5710
C13 C 0.83536(18) 0.92557(15) 0.41000(12)
H10 H 0.8294 1.0125 0.4287
C14 C 0.85680(17) 0.93464(15) 0.29857(11)
H11 H 0.8665 1.0276 0.2404
C15 C 0.53300(16) 0.64838(15) 0.08806(11)
H12 H 0.5007 0.7161 0.0157
H13 H 0.4273 0.6071 0.1370
H14 H 0.6074 0.5689 0.0757
C16 C 0.52226(16) 0.80782(14) 0.20344(11)
C17 C 0.41778(16) 0.73051(15) 0.29956(11)
H15 H 0.4216 0.6262 0.3270
C18 C 0.30760(17) 0.80661(16) 0.35545(12)
H16 H 0.2349 0.7543 0.4212
C19 C 0.30304(17) 0.95833(16) 0.31594(12)
H17 H 0.2277 1.0100 0.3548
C20 C 0.40801(17) 1.03505(16) 0.21999(12)
H18 H 0.4056 1.1393 0.1933
C21 C 0.51680(16) 0.95949(15) 0.16268(11)
H19 H 0.5872 1.0118 0.0958
loop_
_geom_bond_atom_site_label_1
_geom_bond_atom_site_label_2
_geom_bond_site_symmetry_1
_geom_bond_site_symmetry_2
O1 C1 1_555 1_555
O2 C2 1_555 1_555
N1 C4 1_555 1_555
N2 C7 1_555 1_555
N3 C7 1_555 1_555
C1 H1 1_555 1_555
H2 C1 1_555 1_555
H3 C1 1_555 1_555
C2 O1 1_555 1_555
C3 C2 1_555 1_555
C4 C3 1_555 1_555
C5 C3 1_555 1_555
C6 C5 1_555 1_555
C7 C6 1_555 1_555
C8 N2 1_555 1_555
H4 C8 1_555 1_555
H5 C8 1_555 1_555
H6 C8 1_555 1_555
C9 N2 1_555 1_555
C10 C9 1_555 1_555
H7 C10 1_555 1_555
C11 C10 1_555 1_555
H8 C11 1_555 1_555
C12 C11 1_555 1_555
H9 C12 1_555 1_555
C13 C12 1_555 1_555
H10 C13 1_555 1_555
C14 C9 1_555 1_555
H11 C14 1_555 1_555
C15 N3 1_555 1_555
H12 C15 1_555 1_555
H13 C15 1_555 1_555
H14 C15 1_555 1_555
C16 N3 1_555 1_555
C17 C16 1_555 1_555
H15 C17 1_555 1_555
C18 C17 1_555 1_555
H16 C18 1_555 1_555
C19 C18 1_555 1_555
H17 C19 1_555 1_555
C20 C19 1_555 1_555
H18 C20 1_555 1_555
C21 C16 1_555 1_555
H19 C21 1_555 1_555
C13 C14 1_555 1_555
C20 C21 1_555 1_555

#END
