
#######################################################################
#
#                 Cambridge Crystallographic Data Centre
#                                CCDC 
#
#######################################################################
#
# If this CIF has been generated from an entry in the Cambridge 
# Structural Database, then it will include bibliographic, chemical, 
# crystal, experimental, refinement or atomic coordinate data resulting 
# from the CCDC's data processing and validation procedures.
#
#######################################################################

data_NUKJAG
_chemical_formula_moiety         'C23 H23 N3 O2'
_chemical_name_systematic        
'methyl 2-cyano-5,5-bis(4-(dimethylamino)phenyl)penta-2,3,4-trienoate'
_symmetry_cell_setting           monoclinic
_symmetry_space_group_name_H-M   'P 21/c'
_symmetry_Int_Tables_number      14
_space_group_name_Hall           '-P 2ybc'
loop_
_symmetry_equiv_pos_site_id
_symmetry_equiv_pos_as_xyz
1 x,y,z
2 -x,1/2+y,1/2-z
3 -x,-y,-z
4 x,1/2-y,1/2+z
_cell_length_a                   7.2648(8)
_cell_length_b                   21.906(2)
_cell_length_c                   12.9240(12)
_cell_angle_alpha                90
_cell_angle_beta                 108.764(6)
_cell_angle_gamma                90
_cell_volume                     1947.45
_exptl_crystal_colour            'metallic black'
_exptl_crystal_description       block
_chemical_melting_point          '403-405 K'
_cell_formula_units_Z            4
_exptl_crystal_recrystallization_method 'DCM/ hexane'
loop_
_atom_site_label
_atom_site_type_symbol
_atom_site_fract_x
_atom_site_fract_y
_atom_site_fract_z
O1 O 1.1884(3) 0.23538(10) 0.5619(2)
O2 O 1.3515(3) 0.29559(12) 0.70273(18)
N1 N 1.3189(4) 0.44297(13) 0.6377(2)
N2 N 0.7195(4) 0.09373(11) 0.0503(2)
N3 N 0.7160(3) 0.54304(11) -0.03506(19)
C1 C 1.2629(4) 0.39832(14) 0.5941(2)
C2 C 1.1895(4) 0.34230(13) 0.5405(2)
C3 C 1.0796(4) 0.34187(13) 0.4328(2)
C4 C 0.9841(4) 0.33745(13) 0.3357(2)
C5 C 0.8909(4) 0.33028(13) 0.2258(2)
C6 C 0.8404(4) 0.26932(13) 0.1829(2)
C7 C 0.6991(4) 0.25863(13) 0.0814(2)
H1 H 0.6321 0.2924 0.0402
C8 C 0.6545(4) 0.20133(13) 0.0398(2)
H2 H 0.5562 0.1961 -0.0289
C9 C 0.7511(4) 0.14989(13) 0.0964(2)
C10 C 0.8834(4) 0.15952(14) 0.2027(2)
H3 H 0.9439 0.1255 0.2460
C11 C 0.9246(4) 0.21709(13) 0.2432(2)
H4 H 1.0134 0.2222 0.3149
C12 C 0.5893(4) 0.08637(14) -0.0609(2)
H5 H 0.4562 0.0964 -0.0639
H6 H 0.5941 0.0440 -0.0843
H7 H 0.6297 0.1137 -0.1096
C13 C 0.8029(5) 0.03949(14) 0.1119(3)
H8 H 0.9447 0.0436 0.1401
H9 H 0.7685 0.0037 0.0640
H10 H 0.7521 0.0345 0.1730
C14 C 0.8453(4) 0.38449(13) 0.1573(2)
C15 C 0.8436(4) 0.38415(13) 0.0480(2)
H11 H 0.8717 0.3473 0.0174
C16 C 0.8025(4) 0.43563(13) -0.0150(2)
H12 H 0.8019 0.4337 -0.0886
C17 C 0.7608(3) 0.49187(13) 0.0269(2)
C18 C 0.7691(4) 0.49262(13) 0.1380(2)
H13 H 0.7449 0.5296 0.1698
C19 C 0.8116(4) 0.44052(13) 0.2001(2)
H14 H 0.8184 0.4425 0.2746
C20 C 0.7004(4) 0.54126(15) -0.1501(2)
H15 H 0.8275 0.5314 -0.1571
H16 H 0.6573 0.5812 -0.1834
H17 H 0.6058 0.5100 -0.1874
C21 C 0.6968(4) 0.60141(14) 0.0133(3)
H18 H 0.5869 0.5999 0.0416
H19 H 0.6743 0.6335 -0.0422
H20 H 0.8164 0.6103 0.0733
C22 C 1.2378(4) 0.28513(15) 0.5994(2)
C23 C 1.4170(6) 0.2419(2) 0.7680(4)
H21 H 1.4633 0.2118 0.7260
H22 H 1.3092 0.2245 0.7883
H23 H 1.5233 0.2527 0.8342
loop_
_geom_bond_atom_site_label_1
_geom_bond_atom_site_label_2
_geom_bond_site_symmetry_1
_geom_bond_site_symmetry_2
O1 C22 1_555 1_555
O2 C22 1_555 1_555
N1 C1 1_555 1_555
N2 C9 1_555 1_555
N3 C17 1_555 1_555
C1 C2 1_555 1_555
C2 C3 1_555 1_555
C3 C4 1_555 1_555
C4 C5 1_555 1_555
C5 C6 1_555 1_555
C6 C7 1_555 1_555
C7 H1 1_555 1_555
C8 C7 1_555 1_555
H2 C8 1_555 1_555
C9 C8 1_555 1_555
C10 C9 1_555 1_555
H3 C10 1_555 1_555
C11 C6 1_555 1_555
H4 C11 1_555 1_555
C12 N2 1_555 1_555
H5 C12 1_555 1_555
H6 C12 1_555 1_555
H7 C12 1_555 1_555
C13 N2 1_555 1_555
H8 C13 1_555 1_555
H9 C13 1_555 1_555
H10 C13 1_555 1_555
C14 C5 1_555 1_555
C15 C14 1_555 1_555
H11 C15 1_555 1_555
C16 C15 1_555 1_555
H12 C16 1_555 1_555
C17 C16 1_555 1_555
C18 C17 1_555 1_555
H13 C18 1_555 1_555
C19 C14 1_555 1_555
H14 C19 1_555 1_555
C20 N3 1_555 1_555
H15 C20 1_555 1_555
H16 C20 1_555 1_555
H17 C20 1_555 1_555
C21 N3 1_555 1_555
H18 C21 1_555 1_555
H19 C21 1_555 1_555
H20 C21 1_555 1_555
C22 C2 1_555 1_555
C23 O2 1_555 1_555
H21 C23 1_555 1_555
H22 C23 1_555 1_555
H23 C23 1_555 1_555
C10 C11 1_555 1_555
C18 C19 1_555 1_555

#END
