
#######################################################################
#
#                 Cambridge Crystallographic Data Centre
#                                CCDC 
#
#######################################################################
#
# If this CIF has been generated from an entry in the Cambridge 
# Structural Database, then it will include bibliographic, chemical, 
# crystal, experimental, refinement or atomic coordinate data resulting 
# from the CCDC's data processing and validation procedures.
#
#######################################################################

data_NUKJIO
_chemical_formula_moiety         'C23 H23 N3 O2'
_chemical_name_systematic        
'(E)-methyl 2-cyano-5-(isopropyl(phenyl)amino)-5-(methyl(phenyl)amino)penta-2,3,4-trienoate'
_symmetry_cell_setting           monoclinic
_symmetry_space_group_name_H-M   'P 21/c'
_symmetry_Int_Tables_number      14
_space_group_name_Hall           '-P 2ybc'
loop_
_symmetry_equiv_pos_site_id
_symmetry_equiv_pos_as_xyz
1 x,y,z
2 -x,1/2+y,1/2-z
3 -x,-y,-z
4 x,1/2-y,1/2+z
_cell_length_a                   8.453(3)
_cell_length_b                   15.781(6)
_cell_length_c                   14.770(5)
_cell_angle_alpha                90
_cell_angle_beta                 96.057(7)
_cell_angle_gamma                90
_cell_volume                     1959.27
_exptl_crystal_colour            yellow
_exptl_crystal_description       plate
_chemical_melting_point          '434-436 K'
_cell_formula_units_Z            4
_exptl_crystal_recrystallization_method 'ethyl acetate, hexane'
loop_
_atom_site_label
_atom_site_type_symbol
_atom_site_fract_x
_atom_site_fract_y
_atom_site_fract_z
O1 O -0.18159(13) 0.42538(7) 0.48124(8)
O2 O -0.29554(13) 0.52790(7) 0.39086(8)
N1 N 0.40238(14) 0.29300(7) 0.37320(8)
N2 N -0.08050(16) 0.53542(9) 0.19548(10)
N3 N 0.26202(14) 0.22941(8) 0.48411(8)
C1 C 0.68434(18) 0.08355(10) 0.31863(10)
H1 H 0.7480 0.0363 0.3058
C2 C 0.52128(18) 0.08131(9) 0.29533(10)
H2 H 0.4732 0.0327 0.2662
C3 C 0.42812(17) 0.15010(9) 0.31455(9)
H3 H 0.3164 0.1490 0.2981
C4 C 0.49938(17) 0.22026(9) 0.35784(9)
C5 C 0.26821(17) 0.28555(9) 0.41558(10)
C6 C 0.13770(18) 0.33643(10) 0.38741(10)
C7 C 0.03715(18) 0.39013(9) 0.36631(10)
C8 C -0.07741(18) 0.45099(10) 0.34455(10)
C9 C -0.19479(18) 0.47301(9) 0.40521(11)
C10 C -0.2893(2) 0.44703(11) 0.54593(12)
H4 H -0.2850 0.5082 0.5571
H5 H -0.2592 0.4168 0.6031
H6 H -0.3977 0.4309 0.5219
C11 C -0.07729(17) 0.49755(10) 0.26277(11)
C12 C 0.10862(17) 0.21539(10) 0.52396(10)
H7 H 0.0207 0.2334 0.4773
C13 C 0.09895(19) 0.27053(11) 0.60771(12)
H8 H 0.1775 0.2511 0.6569
H9 H -0.0079 0.2664 0.6274
H10 H 0.1210 0.3296 0.5928
C14 C 0.08477(18) 0.12192(10) 0.54282(11)
H11 H 0.0981 0.0890 0.4878
H12 H -0.0226 0.1130 0.5604
H13 H 0.1634 0.1034 0.5924
C15 C 0.40745(16) 0.20526(9) 0.53846(9)
C16 C 0.46232(17) 0.12238(9) 0.53913(10)
H14 H 0.4041 0.0800 0.5041
C17 C 0.60295(18) 0.10205(9) 0.59149(10)
H15 H 0.6417 0.0455 0.5922
C18 C 0.68714(17) 0.16379(10) 0.64278(10)
H16 H 0.7842 0.1497 0.6780
C19 C 0.63009(17) 0.24586(10) 0.64284(10)
H17 H 0.6875 0.2879 0.6787
C20 C 0.48932(16) 0.26712(9) 0.59079(9)
H18 H 0.4496 0.3234 0.5911
C21 C 0.4202(2) 0.36465(10) 0.31164(11)
H19 H 0.3645 0.3521 0.2516
H20 H 0.5334 0.3740 0.3060
H21 H 0.3747 0.4157 0.3363
C22 C 0.75461(18) 0.15466(10) 0.36060(10)
H22 H 0.8667 0.1563 0.3756
C23 C 0.66278(17) 0.22349(9) 0.38094(10)
H23 H 0.7109 0.2721 0.4102
loop_
_geom_bond_atom_site_label_1
_geom_bond_atom_site_label_2
_geom_bond_site_symmetry_1
_geom_bond_site_symmetry_2
O1 C9 1_555 1_555
O2 C9 1_555 1_555
N1 C4 1_555 1_555
N2 C11 1_555 1_555
N3 C5 1_555 1_555
C1 H1 1_555 1_555
C2 C1 1_555 1_555
H2 C2 1_555 1_555
C3 C2 1_555 1_555
H3 C3 1_555 1_555
C4 C3 1_555 1_555
C5 N1 1_555 1_555
C6 C5 1_555 1_555
C7 C6 1_555 1_555
C8 C7 1_555 1_555
C9 C8 1_555 1_555
C10 O1 1_555 1_555
H4 C10 1_555 1_555
H5 C10 1_555 1_555
H6 C10 1_555 1_555
C11 C8 1_555 1_555
C12 N3 1_555 1_555
H7 C12 1_555 1_555
C13 C12 1_555 1_555
H8 C13 1_555 1_555
H9 C13 1_555 1_555
H10 C13 1_555 1_555
C14 C12 1_555 1_555
H11 C14 1_555 1_555
H12 C14 1_555 1_555
H13 C14 1_555 1_555
C15 N3 1_555 1_555
C16 C15 1_555 1_555
H14 C16 1_555 1_555
C17 C16 1_555 1_555
H15 C17 1_555 1_555
C18 C17 1_555 1_555
H16 C18 1_555 1_555
C19 C18 1_555 1_555
H17 C19 1_555 1_555
C20 C15 1_555 1_555
H18 C20 1_555 1_555
C21 N1 1_555 1_555
H19 C21 1_555 1_555
H20 C21 1_555 1_555
H21 C21 1_555 1_555
C22 C1 1_555 1_555
H22 C22 1_555 1_555
C23 C4 1_555 1_555
H23 C23 1_555 1_555
C19 C20 1_555 1_555
C22 C23 1_555 1_555

#END
