
#######################################################################
#
#                 Cambridge Crystallographic Data Centre
#                                CCDC 
#
#######################################################################
#
# If this CIF has been generated from an entry in the Cambridge 
# Structural Database, then it will include bibliographic, chemical, 
# crystal, experimental, refinement or atomic coordinate data resulting 
# from the CCDC's data processing and validation procedures.
#
#######################################################################

data_NUKMOV
_chemical_formula_moiety         'C20 H20 O2'
_chemical_name_systematic        'rac-1-Methylbutyl anthracene-9-carboxylate'
_symmetry_cell_setting           orthorhombic
_symmetry_space_group_name_H-M   'P b c a'
_symmetry_Int_Tables_number      61
_space_group_name_Hall           '-P 2ac 2ab'
loop_
_symmetry_equiv_pos_site_id
_symmetry_equiv_pos_as_xyz
1 x,y,z
2 1/2-x,-y,1/2+z
3 1/2+x,1/2-y,-z
4 -x,1/2+y,1/2-z
5 -x,-y,-z
6 1/2+x,y,1/2-z
7 1/2-x,1/2+y,z
8 x,1/2-y,1/2+z
_cell_length_a                   35.31(2)
_cell_length_b                   10.239(5)
_cell_length_c                   9.089(4)
_cell_angle_alpha                90
_cell_angle_beta                 90
_cell_angle_gamma                90
_cell_volume                     3286.03
_exptl_crystal_colour            colorless
_exptl_crystal_description       cubes
_chemical_melting_point          77-78deg.C
_cell_formula_units_Z            8
_exptl_crystal_recrystallization_method ethanol
loop_
_atom_site_label
_atom_site_type_symbol
_atom_site_fract_x
_atom_site_fract_y
_atom_site_fract_z
O1 O 0.1782(2) -0.1411(6) 0.3820(6)
O2 O 0.1332(1) -0.2290(5) 0.5238(5)
C1 C 0.0813(2) -0.0093(8) 0.4374(8)
C2 C 0.0476(2) 0.0462(8) 0.4196(10)
C3 C 0.0377(2) 0.1658(9) 0.4891(12)
C4 C 0.0641(2) 0.2265(10) 0.5774(10)
C5 C 0.1919(2) 0.2487(9) 0.7842(9)
C6 C 0.2269(2) 0.1975(8) 0.8010(10)
C7 C 0.2361(2) 0.0753(9) 0.7359(9)
C8 C 0.2106(2) 0.0092(9) 0.6555(9)
C9 C 0.1442(2) -0.0013(7) 0.5493(7)
C10 C 0.1276(2) 0.2331(8) 0.6831(8)
C11 C 0.1088(2) 0.0492(7) 0.5268(8)
C12 C 0.1006(2) 0.1710(7) 0.5969(8)
C13 C 0.1733(2) 0.0596(7) 0.6311(7)
C14 C 0.1637(2) 0.1816(7) 0.7008(8)
C15 C 0.1537(2) -0.1300(8) 0.4771(9)
C16 C 0.1386(2) -0.3582(7) 0.4529(9)
C17 C 0.1730(2) -0.4239(8) 0.5169(10)
C19 C 0.1005(6) -0.4408(22) 0.5176(27)
C21 C 0.0640(4) -0.3728(15) 0.4739(19)
C23 C 0.0344(5) -0.4508(20) 0.3816(27)
H1 H 0.0868 -0.0902 0.3885
H2 H 0.0292 0.0042 0.3577
H3 H 0.0131 0.2038 0.4749
H4 H 0.0577 0.3068 0.6260
H5 H 0.1859 0.3312 0.8286
H6 H 0.2455 0.2439 0.8573
H7 H 0.2610 0.0397 0.7498
H8 H 0.2176 -0.0735 0.6136
H9 H 0.1212 0.3133 0.7316
H10 H 0.1767 -0.5069 0.4701
H11 H 0.1695 -0.4366 0.6206
H12 H 0.1949 -0.3699 0.5007
C18? C 0.1046(4) -0.4262(16) 0.4569(20)
C20? C 0.0690(6) -0.3629(22) 0.3636(27)
C22? C 0.0519(8) -0.3788(28) 0.3000(39)
loop_
_geom_bond_atom_site_label_1
_geom_bond_atom_site_label_2
_geom_bond_site_symmetry_1
_geom_bond_site_symmetry_2
O1 C15 1_555 1_555
O2 C15 1_555 1_555
C1 C2 1_555 1_555
C2 C3 1_555 1_555
C3 C4 1_555 1_555
C4 C12 1_555 1_555
C5 C6 1_555 1_555
C6 C7 1_555 1_555
C7 C8 1_555 1_555
C8 C13 1_555 1_555
C9 C11 1_555 1_555
C10 C12 1_555 1_555
C11 C1 1_555 1_555
C12 C11 1_555 1_555
C13 C9 1_555 1_555
C14 C5 1_555 1_555
C15 C9 1_555 1_555
C16 O2 1_555 1_555
C17 C16 1_555 1_555
C19 C16 1_555 1_555
C21 C19 1_555 1_555
C23 C21 1_555 1_555
H1 C1 1_555 1_555
H2 C2 1_555 1_555
H3 C3 1_555 1_555
H4 C4 1_555 1_555
H5 C5 1_555 1_555
H6 C6 1_555 1_555
H7 C7 1_555 1_555
H8 C8 1_555 1_555
H9 C10 1_555 1_555
H10 C17 1_555 1_555
H11 C17 1_555 1_555
H12 C17 1_555 1_555
C10 C14 1_555 1_555
C13 C14 1_555 1_555

#END
