
#######################################################################
#
#                 Cambridge Crystallographic Data Centre
#                                CCDC 
#
#######################################################################
#
# If this CIF has been generated from an entry in the Cambridge 
# Structural Database, then it will include bibliographic, chemical, 
# crystal, experimental, refinement or atomic coordinate data resulting 
# from the CCDC's data processing and validation procedures.
#
#######################################################################

data_NUKMAH
_chemical_formula_moiety         'C18 H16 O2'
_chemical_name_systematic        'Isopropyl anthracene-9-carboxylate'
_symmetry_cell_setting           orthorhombic
_symmetry_space_group_name_H-M   'P b c a'
_symmetry_Int_Tables_number      61
_space_group_name_Hall           '-P 2ac 2ab'
loop_
_symmetry_equiv_pos_site_id
_symmetry_equiv_pos_as_xyz
1 x,y,z
2 1/2-x,-y,1/2+z
3 1/2+x,1/2-y,-z
4 -x,1/2+y,1/2-z
5 -x,-y,-z
6 1/2+x,y,1/2-z
7 1/2-x,1/2+y,z
8 x,1/2-y,1/2+z
_cell_length_a                   10.268(5)
_cell_length_b                   9.077(4)
_cell_length_c                   30.58(1)
_cell_angle_alpha                90
_cell_angle_beta                 90
_cell_angle_gamma                90
_cell_volume                     2850.14
_exptl_crystal_colour            yellow
_exptl_crystal_description       'needles or hexagonal plates'
_chemical_melting_point          96-100deg.C
_cell_formula_units_Z            8
_exptl_crystal_recrystallization_method ethanol
loop_
_atom_site_label
_atom_site_type_symbol
_atom_site_fract_x
_atom_site_fract_y
_atom_site_fract_z
C1 C 0.0051(3) 1.1362(4) 0.2965(1)
C2 C 0.0734(4) 1.2234(4) 0.2691(1)
C3 C 0.1964(4) 1.2792(4) 0.2812(1)
C4 C 0.2485(4) 1.2482(4) 0.3206(1)
C5 C 0.2273(3) 0.9845(4) 0.4614(1)
C6 C 0.1666(4) 0.8889(4) 0.4884(1)
C7 C 0.0444(3) 0.8292(4) 0.4772(1)
C8 C -0.0147(3) 0.8662(4) 0.4393(1)
C9 C -0.0105(3) 1.0052(4) 0.3685(1)
C10 C 0.2329(3) 1.1206(4) 0.3915(1)
C11 C 0.0558(3) 1.0969(4) 0.3386(1)
C12 C 0.1805(3) 1.1557(4) 0.3508(1)
C13 C 0.1700(3) 1.0267(4) 0.4205(1)
C14 C 0.0444(3) 0.9668(3) 0.4091(1)
C15 C -0.1394(3) 0.9428(4) 0.3554(1)
C16 C -0.3635(3) 0.9170(4) 0.3749(1)
C17 C -0.4376(4) 1.0112(5) 0.3431(1)
C18 C -0.4276(4) 0.9064(5) 0.4191(1)
O1 O -0.1556(2) 0.8637(3) 0.3244(1)
O2 O -0.2346(2) 0.9824(2) 0.3828(1)
H1 H -0.0786 1.0989 0.2880
H2 H 0.0370 1.2481 0.2412
H3 H 0.2439 1.3393 0.2608
H4 H 0.3311 1.2892 0.3288
H5 H 0.3092 1.0267 0.4700
H6 H 0.2085 0.8597 0.5151
H7 H 0.0025 0.7628 0.4972
H8 H -0.0974 0.8233 0.4320
H9 H 0.3146 1.1635 0.4000
H10 H -0.3602 0.8207 0.3620
H11 H -0.5215 0.9692 0.3371
H12 H -0.3892 1.0194 0.3164
H13 H -0.4484 1.1071 0.3558
H14 H -0.5124 0.8629 0.4163
H15 H -0.4359 1.0039 0.4310
H16 H -0.3751 0.8473 0.4382
loop_
_geom_bond_atom_site_label_1
_geom_bond_atom_site_label_2
_geom_bond_site_symmetry_1
_geom_bond_site_symmetry_2
C1 C2 1_555 1_555
C2 C3 1_555 1_555
C3 C4 1_555 1_555
C4 C12 1_555 1_555
C5 C6 1_555 1_555
C6 C7 1_555 1_555
C7 C8 1_555 1_555
C8 C14 1_555 1_555
C9 C11 1_555 1_555
C10 C12 1_555 1_555
C11 C1 1_555 1_555
C12 C11 1_555 1_555
C13 C5 1_555 1_555
C14 C9 1_555 1_555
C15 C9 1_555 1_555
C16 C17 1_555 1_555
C17 H11 1_555 1_555
C18 C16 1_555 1_555
O1 C15 1_555 1_555
O2 C15 1_555 1_555
H1 C1 1_555 1_555
H2 C2 1_555 1_555
H3 C3 1_555 1_555
H4 C4 1_555 1_555
H5 C5 1_555 1_555
H6 C6 1_555 1_555
H7 C7 1_555 1_555
H8 C8 1_555 1_555
H9 C10 1_555 1_555
H10 C16 1_555 1_555
H12 C17 1_555 1_555
H13 C17 1_555 1_555
H14 C18 1_555 1_555
H15 C18 1_555 1_555
H16 C18 1_555 1_555
C10 C13 1_555 1_555
C13 C14 1_555 1_555
C16 O2 1_555 1_555

#END
