
#######################################################################
#
#                 Cambridge Crystallographic Data Centre
#                                CCDC 
#
#######################################################################
#
# If this CIF has been generated from an entry in the Cambridge 
# Structural Database, then it will include bibliographic, chemical, 
# crystal, experimental, refinement or atomic coordinate data resulting 
# from the CCDC's data processing and validation procedures.
#
#######################################################################

data_NUKQER
_chemical_formula_moiety         'C19 H14 Br2 N2 O3 S1,C2 H6 O1 S1'
_chemical_name_systematic        
'6,10-bis(4-Bromophenyl)-8-thioxo-2-oxa-7,9-diazaspiro[4.5]decane-1,4-dione dimethyl sulfoxide solvate'
_symmetry_cell_setting           triclinic
_symmetry_space_group_name_H-M   'P -1'
_symmetry_Int_Tables_number      2
_space_group_name_Hall           '-P 1'
loop_
_symmetry_equiv_pos_site_id
_symmetry_equiv_pos_as_xyz
1 x,y,z
2 -x,-y,-z
_cell_length_a                   8.5966(11)
_cell_length_b                   12.2512(13)
_cell_length_c                   12.5165(14)
_cell_angle_alpha                68.4950(10)
_cell_angle_beta                 84.216(2)
_cell_angle_gamma                72.7180(10)
_cell_volume                     1171.04
_cell_formula_units_Z            2
loop_
_atom_site_label
_atom_site_type_symbol
_atom_site_fract_x
_atom_site_fract_y
_atom_site_fract_z
Br1 Br 0.60015(13) 0.22203(10) 0.05535(9)
Br2 Br 1.29941(11) 1.02063(8) 0.08647(8)
N1 N 0.8258(6) 0.6576(4) 0.4034(4)
H1 H 0.8197 0.7187 0.4235
N2 N 0.7085(6) 0.5159(5) 0.3997(4)
H2 H 0.6278 0.4848 0.4184
O1 O 1.1793(7) 0.4303(5) 0.2439(5)
O2 O 0.6798(6) 0.7260(4) 0.1617(4)
O3 O 1.0475(7) 0.5636(6) 0.0857(5)
S1 S 0.5487(2) 0.65621(17) 0.51349(16)
C1 C 0.7034(8) 0.6056(6) 0.4333(5)
C2 C 0.8371(8) 0.4631(6) 0.3340(5)
H3 H 0.9201 0.3987 0.3880
C3 C 0.9160(7) 0.5649(6) 0.2587(5)
C4 C 0.9676(8) 0.6177(6) 0.3396(5)
H4 H 1.0476 0.5514 0.3946
C5 C 1.0657(10) 0.5092(8) 0.2010(7)
C6 C 0.8102(9) 0.6581(7) 0.1592(6)
C7 C 0.8987(9) 0.6552(7) 0.0559(6)
H5 H 0.8355 0.6383 0.0069
H6 H 0.9184 0.7339 0.0141
C8 C 0.7738(8) 0.4060(6) 0.2665(5)
C9 C 0.6235(8) 0.4570(6) 0.2123(5)
H7 H 0.5560 0.5300 0.2172
C10 C 0.5736(9) 0.4011(7) 0.1516(5)
H8 H 0.4714 0.4355 0.1165
C11 C 0.6711(10) 0.2962(7) 0.1420(6)
C12 C 0.8179(10) 0.2440(7) 0.1957(6)
H9 H 0.8840 0.1708 0.1904
C13 C 0.8694(9) 0.2987(7) 0.2580(6)
H10 H 0.9704 0.2622 0.2947
C14 C 1.0443(8) 0.7207(6) 0.2797(5)
C15 C 0.9553(8) 0.8355(6) 0.2153(5)
H11 H 0.8428 0.8531 0.2101
C16 C 1.0307(8) 0.9251(6) 0.1580(6)
H12 H 0.9703 1.0028 0.1129
C17 C 1.1957(9) 0.8983(6) 0.1684(6)
C18 C 1.2858(8) 0.7869(7) 0.2330(6)
H13 H 1.3978 0.7711 0.2394
C19 C 1.2115(8) 0.6962(6) 0.2896(6)
H14 H 1.2732 0.6189 0.3344
O4 O 0.1405(6) 0.1717(5) 0.4957(5)
S2 S 0.2872(3) 0.0850(3) 0.4757(2)
C20 C 0.2263(11) -0.0321(8) 0.4552(9)
H15 H 0.2002 -0.0859 0.5281
H16 H 0.3136 -0.0776 0.4208
H17 H 0.1322 0.0037 0.4058
C21 C 0.3605(12) 0.1344(10) 0.3378(8)
H18 H 0.2814 0.1430 0.2841
H19 H 0.4602 0.0758 0.3310
H20 H 0.3805 0.2120 0.3215
loop_
_geom_bond_atom_site_label_1
_geom_bond_atom_site_label_2
_geom_bond_site_symmetry_1
_geom_bond_site_symmetry_2
Br1 C11 1_555 1_555
Br2 C17 1_555 1_555
N1 H1 1_555 1_555
N2 H2 1_555 1_555
O1 C5 1_555 1_555
O2 C6 1_555 1_555
O3 C5 1_555 1_555
S1 C1 1_555 1_555
C1 N1 1_555 1_555
C2 N2 1_555 1_555
H3 C2 1_555 1_555
C3 C2 1_555 1_555
C4 N1 1_555 1_555
H4 C4 1_555 1_555
C5 C3 1_555 1_555
C6 C3 1_555 1_555
C7 O3 1_555 1_555
H5 C7 1_555 1_555
H6 C7 1_555 1_555
C8 C2 1_555 1_555
C9 C8 1_555 1_555
H7 C9 1_555 1_555
C10 C9 1_555 1_555
H8 C10 1_555 1_555
C11 C10 1_555 1_555
C12 C11 1_555 1_555
H9 C12 1_555 1_555
C13 C8 1_555 1_555
H10 C13 1_555 1_555
C14 C4 1_555 1_555
C15 C14 1_555 1_555
H11 C15 1_555 1_555
C16 C15 1_555 1_555
H12 C16 1_555 1_555
C17 C16 1_555 1_555
C18 C17 1_555 1_555
H13 C18 1_555 1_555
C19 C14 1_555 1_555
H14 C19 1_555 1_555
O4 S2 1_555 1_555
S2 C20 1_555 1_555
C20 H15 1_555 1_555
H16 C20 1_555 1_555
H17 C20 1_555 1_555
C21 S2 1_555 1_555
H18 C21 1_555 1_555
H19 C21 1_555 1_555
H20 C21 1_555 1_555
N2 C1 1_555 1_555
C3 C4 1_555 1_555
C6 C7 1_555 1_555
C12 C13 1_555 1_555
C18 C19 1_555 1_555

#END
