
#######################################################################
#
#                 Cambridge Crystallographic Data Centre
#                                CCDC 
#
#######################################################################
#
# If this CIF has been generated from an entry in the Cambridge 
# Structural Database, then it will include bibliographic, chemical, 
# crystal, experimental, refinement or atomic coordinate data resulting 
# from the CCDC's data processing and validation procedures.
#
#######################################################################

data_NUKTOE
_chemical_name_common            
(3-(4-(diisopropylamino)phenyl)-3-(4-(dimethylamino)phenyl)propadienylidene)malononitrile
_chemical_formula_moiety         'C26 H28 N4'
_chemical_name_systematic        
2-(3-(4-(diisopropylamino)phenyl)-3-(4-(dimethylamino)phenyl)propa-1,2-dien-1-ylidene)malononitrile
_symmetry_cell_setting           monoclinic
_symmetry_space_group_name_H-M   'P 21/c'
_symmetry_Int_Tables_number      14
_space_group_name_Hall           '-P 2ybc'
loop_
_symmetry_equiv_pos_site_id
_symmetry_equiv_pos_as_xyz
1 x,y,z
2 -x,1/2+y,1/2-z
3 -x,-y,-z
4 x,1/2-y,1/2+z
_cell_length_a                   17.2332(13)
_cell_length_b                   9.8708(7)
_cell_length_c                   26.634(2)
_cell_angle_alpha                90
_cell_angle_beta                 102.721(4)
_cell_angle_gamma                90
_cell_volume                     4419.38
_exptl_crystal_colour            black
_exptl_crystal_description       needle
_chemical_melting_point          '443 K'
_cell_formula_units_Z            8
_exptl_crystal_recrystallization_method 'dichloromethane/n-hexane/Ethyl acetate'
loop_
_atom_site_label
_atom_site_type_symbol
_atom_site_fract_x
_atom_site_fract_y
_atom_site_fract_z
N1 N 0.35103(13) 0.0214(2) -0.00505(9)
N2 N 0.14277(12) 0.8820(2) -0.17819(8)
N3 N 0.08403(13) 0.4553(2) 0.17196(9)
N4 N 0.00509(13) 0.8424(3) 0.09465(9)
C1 C 0.40437(16) -0.0043(3) 0.04461(11)
H1 H 0.4375 0.0758 0.0553
H2 H 0.4385 -0.0820 0.0417
H3 H 0.3730 -0.0239 0.0703
C2 C 0.29928(15) 0.1267(3) -0.01078(10)
C3 C 0.25181(15) 0.1622(3) -0.05885(10)
H4 H 0.2532 0.1079 -0.0881
C4 C 0.20343(14) 0.2738(3) -0.06430(10)
H5 H 0.1737 0.2972 -0.0976
C5 C 0.19637(14) 0.3546(2) -0.02242(9)
C6 C 0.14949(14) 0.4771(2) -0.02695(10)
C7 C 0.14192(14) 0.5686(3) -0.06998(9)
C8 C 0.19622(14) 0.5709(3) -0.10211(10)
H6 H 0.2346 0.5006 -0.0991
C9 C 0.19574(15) 0.6711(3) -0.13767(10)
H7 H 0.2334 0.6674 -0.1588
C10 C 0.14112(15) 0.7798(3) -0.14401(10)
C11 C 0.08528(16) 0.9950(3) -0.18117(11)
H8 H 0.0743 1.0062 -0.1461
C12 C 0.11803(18) 1.1295(3) -0.19548(11)
H9 H 0.1729 1.1407 -0.1760
H10 H 0.0853 1.2039 -0.1872
H11 H 0.1169 1.1305 -0.2324
C13 C 0.11593(14) 0.5148(3) 0.01305(10)
C14 C 0.09076(14) 0.5576(3) 0.04976(10)
C15 C 0.06475(14) 0.6042(3) 0.09156(10)
C16 C 0.07362(14) 0.5235(3) 0.13585(11)
C17 C 0.03179(15) 0.7362(3) 0.09273(10)
C18 C 0.29033(14) 0.2040(3) 0.03196(10)
H12 H 0.3201 0.1811 0.0653
C19 C 0.23930(14) 0.3115(3) 0.02598(10)
H13 H 0.2326 0.3591 0.0557
C20 C 0.36157(17) -0.0567(3) -0.04948(11)
H14 H 0.3103 -0.0944 -0.0673
H15 H 0.3992 -0.1307 -0.0380
H16 H 0.3823 0.0024 -0.0730
C21 C 0.08666(14) 0.6753(3) -0.07699(10)
H17 H 0.0483 0.6776 -0.0563
C22 C 0.08561(15) 0.7756(3) -0.11214(10)
H18 H 0.0465 0.8448 -0.1153
C23 C 0.18634(16) 0.8731(3) -0.21967(10)
H19 H 0.1679 0.9528 -0.2423
C24 C 0.27582(17) 0.8927(3) -0.20102(13)
H20 H 0.2861 0.9749 -0.1800
H21 H 0.3004 0.9014 -0.2307
H22 H 0.2986 0.8143 -0.1803
C25 C 0.16398(19) 0.7495(3) -0.25424(11)
H23 H 0.1844 0.6674 -0.2351
H24 H 0.1872 0.7580 -0.2845
H25 H 0.1059 0.7436 -0.2653
C26 C 0.00717(17) 0.9598(3) -0.21733(12)
H26 H 0.0144 0.9583 -0.2528
H27 H -0.0329 1.0279 -0.2142
H28 H -0.0106 0.8705 -0.2084
N5 N 0.39465(12) 0.2427(2) 0.23984(8)
N6 N 0.13204(12) 1.0870(2) 0.07743(8)
N7 N 0.39880(13) 0.6346(3) -0.12555(10)
N8 N 0.46139(13) 0.2601(3) -0.03512(9)
C27 C 0.54128(15) 0.1928(3) 0.26389(11)
H29 H 0.5560 0.2541 0.2386
H30 H 0.5787 0.1168 0.2704
H31 H 0.5430 0.2420 0.2961
C28 C 0.45753(15) 0.1392(3) 0.24313(11)
H32 H 0.4479 0.0728 0.2694
C29 C 0.37575(14) 0.3331(3) 0.20010(10)
C30 C 0.30269(14) 0.4035(2) 0.18890(9)
H33 H 0.2637 0.3841 0.2082
C31 C 0.28689(14) 0.4993(2) 0.15072(9)
H34 H 0.2378 0.5468 0.1451
C32 C 0.34005(14) 0.5296(2) 0.11984(9)
C33 C 0.32042(14) 0.6226(2) 0.07666(10)
C34 C 0.27116(14) 0.7401(2) 0.07714(10)
C35 C 0.22726(14) 0.7963(2) 0.03137(10)
H35 H 0.2308 0.7563 -0.0005
C36 C 0.17940(14) 0.9069(2) 0.03105(10)
H36 H 0.1482 0.9388 -0.0007
C37 C 0.17573(14) 0.9739(2) 0.07680(10)
C38 C 0.13071(16) 1.1539(3) 0.12557(11)
H37 H 0.1106 1.0910 0.1482
H38 H 0.0959 1.2334 0.1189
H39 H 0.1847 1.1824 0.1422
C39 C 0.07790(15) 1.1372(3) 0.03163(11)
H40 H 0.0997 1.1181 0.0014
H41 H 0.0711 1.2352 0.0347
H42 H 0.0262 1.0923 0.0279
C40 C 0.45043(18) 0.0575(3) 0.19376(12)
H43 H 0.3958 0.0242 0.1824
H44 H 0.4871 -0.0196 0.2002
H45 H 0.4638 0.1152 0.1670
C41 C 0.34506(16) 0.2313(3) 0.27844(10)
H46 H 0.3104 0.3135 0.2745
C42 C 0.39437(17) 0.2330(3) 0.33292(11)
H47 H 0.4289 0.1531 0.3386
H48 H 0.3591 0.2320 0.3572
H49 H 0.4271 0.3152 0.3383
C43 C 0.29014(17) 0.1099(3) 0.26832(12)
H50 H 0.2569 0.1159 0.2334
H51 H 0.2561 0.1086 0.2934
H52 H 0.3218 0.0267 0.2716
C44 C 0.42916(15) 0.3635(2) 0.16839(10)
H53 H 0.4790 0.3182 0.1742
C45 C 0.41102(14) 0.4561(2) 0.12958(9)
H54 H 0.4480 0.4712 0.1084
C46 C 0.34826(14) 0.5911(2) 0.03400(10)
C47 C 0.37342(14) 0.5525(3) -0.00316(10)
C48 C 0.40178(14) 0.5005(3) -0.04285(10)
C49 C 0.39996(15) 0.5752(3) -0.08803(11)
C50 C 0.43516(15) 0.3679(3) -0.03880(10)
C51 C 0.26642(14) 0.8057(2) 0.12283(10)
H55 H 0.2953 0.7702 0.1546
C52 C 0.22132(14) 0.9195(2) 0.12299(10)
H56 H 0.2206 0.9628 0.1547
loop_
_geom_bond_atom_site_label_1
_geom_bond_atom_site_label_2
_geom_bond_site_symmetry_1
_geom_bond_site_symmetry_2
N1 C1 1_555 1_555
N2 C10 1_555 1_555
N3 C16 1_555 1_555
N4 C17 1_555 1_555
C1 H1 1_555 1_555
H2 C1 1_555 1_555
H3 C1 1_555 1_555
C2 N1 1_555 1_555
C3 C2 1_555 1_555
H4 C3 1_555 1_555
C4 C3 1_555 1_555
H5 C4 1_555 1_555
C5 C4 1_555 1_555
C6 C5 1_555 1_555
C7 C6 1_555 1_555
C8 C7 1_555 1_555
H6 C8 1_555 1_555
C9 C8 1_555 1_555
H7 C9 1_555 1_555
C10 C9 1_555 1_555
C11 N2 1_555 1_555
H8 C11 1_555 1_555
C12 C11 1_555 1_555
H9 C12 1_555 1_555
H10 C12 1_555 1_555
H11 C12 1_555 1_555
C13 C6 1_555 1_555
C14 C13 1_555 1_555
C15 C14 1_555 1_555
C16 C15 1_555 1_555
C17 C15 1_555 1_555
C18 C2 1_555 1_555
H12 C18 1_555 1_555
C19 C5 1_555 1_555
H13 C19 1_555 1_555
C20 N1 1_555 1_555
H14 C20 1_555 1_555
H15 C20 1_555 1_555
H16 C20 1_555 1_555
C21 C7 1_555 1_555
H17 C21 1_555 1_555
C22 C10 1_555 1_555
H18 C22 1_555 1_555
C23 N2 1_555 1_555
H19 C23 1_555 1_555
C24 C23 1_555 1_555
H20 C24 1_555 1_555
H21 C24 1_555 1_555
H22 C24 1_555 1_555
C25 C23 1_555 1_555
H23 C25 1_555 1_555
H24 C25 1_555 1_555
H25 C25 1_555 1_555
C26 C11 1_555 1_555
H26 C26 1_555 1_555
H27 C26 1_555 1_555
H28 C26 1_555 1_555
N5 C28 1_555 1_555
N6 C37 1_555 1_555
N7 C49 1_555 1_555
N8 C50 1_555 1_555
C27 H29 1_555 1_555
H30 C27 1_555 1_555
H31 C27 1_555 1_555
C28 C27 1_555 1_555
H32 C28 1_555 1_555
C29 N5 1_555 1_555
C30 C29 1_555 1_555
H33 C30 1_555 1_555
C31 C30 1_555 1_555
H34 C31 1_555 1_555
C32 C31 1_555 1_555
C33 C32 1_555 1_555
C34 C33 1_555 1_555
C35 C34 1_555 1_555
H35 C35 1_555 1_555
C36 C35 1_555 1_555
H36 C36 1_555 1_555
C37 C36 1_555 1_555
C38 N6 1_555 1_555
H37 C38 1_555 1_555
H38 C38 1_555 1_555
H39 C38 1_555 1_555
C39 N6 1_555 1_555
H40 C39 1_555 1_555
H41 C39 1_555 1_555
H42 C39 1_555 1_555
C40 C28 1_555 1_555
H43 C40 1_555 1_555
H44 C40 1_555 1_555
H45 C40 1_555 1_555
C41 N5 1_555 1_555
H46 C41 1_555 1_555
C42 C41 1_555 1_555
H47 C42 1_555 1_555
H48 C42 1_555 1_555
H49 C42 1_555 1_555
C43 C41 1_555 1_555
H50 C43 1_555 1_555
H51 C43 1_555 1_555
H52 C43 1_555 1_555
C44 C29 1_555 1_555
H53 C44 1_555 1_555
C45 C32 1_555 1_555
H54 C45 1_555 1_555
C46 C33 1_555 1_555
C47 C46 1_555 1_555
C48 C47 1_555 1_555
C49 C48 1_555 1_555
C50 C48 1_555 1_555
C51 C34 1_555 1_555
H55 C51 1_555 1_555
C52 C37 1_555 1_555
H56 C52 1_555 1_555
C18 C19 1_555 1_555
C21 C22 1_555 1_555
C44 C45 1_555 1_555
C51 C52 1_555 1_555

#END
