
#######################################################################
#
#                 Cambridge Crystallographic Data Centre
#                                CCDC 
#
#######################################################################
#
# If this CIF has been generated from an entry in the Cambridge 
# Structural Database, then it will include bibliographic, chemical, 
# crystal, experimental, refinement or atomic coordinate data resulting 
# from the CCDC's data processing and validation procedures.
#
#######################################################################

data_NUKWEW02
_chemical_formula_moiety         '2(C7 H6 O2),C4 H5 N3'
_chemical_name_systematic        '2-Aminopyrimidine bis(benzoic acid)'
_symmetry_cell_setting           orthorhombic
_symmetry_space_group_name_H-M   'P n m a'
_symmetry_Int_Tables_number      62
_space_group_name_Hall           '-P 2ac 2n'
loop_
_symmetry_equiv_pos_site_id
_symmetry_equiv_pos_as_xyz
1 x,y,z
2 1/2-x,-y,1/2+z
3 -x,1/2+y,-z
4 1/2+x,1/2-y,1/2-z
5 -x,-y,-z
6 1/2+x,y,1/2-z
7 x,1/2-y,z
8 1/2-x,1/2+y,1/2+z
_cell_length_a                   12.5118(5)
_cell_length_b                   34.2721(13)
_cell_length_c                   3.84590(10)
_cell_angle_alpha                90
_cell_angle_beta                 90
_cell_angle_gamma                90
_cell_volume                     1649.14
_exptl_crystal_colour            colorless
_exptl_crystal_description       block
_chemical_melting_point          '353 K'
_cell_formula_units_Z            4
loop_
_atom_site_label
_atom_site_type_symbol
_atom_site_fract_x
_atom_site_fract_y
_atom_site_fract_z
C1 C 0.81338(11) 0.60806(4) 0.4042(4)
C2 C 0.74324(12) 0.57995(4) 0.5326(3)
H1 H 0.6685 0.5848 0.5336
C3 C 0.78272(13) 0.54503(4) 0.6585(4)
H2 H 0.7350 0.5260 0.7492
C4 C 0.89091(13) 0.53767(4) 0.6531(4)
H3 H 0.9177 0.5136 0.7382
C5 C 0.96055(13) 0.56543(5) 0.5235(4)
H4 H 1.0351 0.5602 0.5186
C6 C 0.92223(11) 0.60069(4) 0.4011(4)
H5 H 0.9704 0.6198 0.3150
C7 C 0.77297(11) 0.64608(4) 0.2704(4)
O1 O 0.83209(7) 0.67300(3) 0.1966(3)
O2 O 0.66829(8) 0.64779(3) 0.2418(3)
H6 H 0.6470(15) 0.6743(6) 0.146(5)
C8 C 0.63863(14) 0.7500 0.1015(5)
C9 C 0.45516(16) 0.7500 -0.2607(5)
H7 H 0.3899 0.7500 -0.3871
C10 C 0.50443(10) 0.71570(4) -0.1651(4)
H8 H 0.4725 0.6916 -0.2299
N1 N 0.59566(9) 0.71514(3) 0.0156(3)
N2 N 0.72785(13) 0.7500 0.2932(4)
H9 H 0.7658(12) 0.7280(4) 0.302(4)
C10F C 0.50443(10) 0.78430(4) -0.1651(4)
H8F H 0.4725 0.8084 -0.2299
N1F N 0.59566(9) 0.78486(3) 0.0156(3)
H9F H 0.7658(12) 0.7720(4) 0.302(4)
loop_
_geom_bond_atom_site_label_1
_geom_bond_atom_site_label_2
_geom_bond_site_symmetry_1
_geom_bond_site_symmetry_2
C1 C2 1_555 1_555
C2 H1 1_555 1_555
C3 C2 1_555 1_555
H2 C3 1_555 1_555
C4 C3 1_555 1_555
H3 C4 1_555 1_555
C5 C4 1_555 1_555
H4 C5 1_555 1_555
C6 C1 1_555 1_555
H5 C6 1_555 1_555
C7 C1 1_555 1_555
O1 C7 1_555 1_555
O2 C7 1_555 1_555
H6 O2 1_555 1_555
C8 N1 1_555 1_555
C9 H7 1_555 1_555
C10 C9 1_555 1_555
H8 C10 1_555 1_555
N1 C10 1_555 1_555
N2 C8 1_555 1_555
H9 N2 1_555 1_555
C10F C9 1_555 1_555
H8F C10F 1_555 1_555
N1F C8 1_555 1_555
H9F N2 1_555 1_555
C5 C6 1_555 1_555
C10F N1F 1_555 1_555

#END
