
#######################################################################
#
#                 Cambridge Crystallographic Data Centre
#                                CCDC 
#
#######################################################################
#
# If this CIF has been generated from an entry in the Cambridge 
# Structural Database, then it will include bibliographic, chemical, 
# crystal, experimental, refinement or atomic coordinate data resulting 
# from the CCDC's data processing and validation procedures.
#
#######################################################################

data_NUKZAW
_chemical_formula_moiety         'C23 H20 N2 O3'
_chemical_name_systematic        
'methyl 2-((2-acetyl-1-cyano-1,2-dihydroisoquinolin-1-yl)methyl)-3-phenylacrylate'
_symmetry_cell_setting           monoclinic
_symmetry_space_group_name_H-M   'P 21/c'
_symmetry_Int_Tables_number      14
_space_group_name_Hall           '-P 2ybc'
loop_
_symmetry_equiv_pos_site_id
_symmetry_equiv_pos_as_xyz
1 x,y,z
2 -x,1/2+y,1/2-z
3 -x,-y,-z
4 x,1/2-y,1/2+z
_cell_length_a                   13.374(3)
_cell_length_b                   12.504(2)
_cell_length_c                   12.304(4)
_cell_angle_alpha                90
_cell_angle_beta                 109.334(19)
_cell_angle_gamma                90
_cell_volume                     1941.54
_cell_formula_units_Z            4
loop_
_atom_site_label
_atom_site_type_symbol
_atom_site_fract_x
_atom_site_fract_y
_atom_site_fract_z
C1 C 0.86710(14) 0.98394(14) 0.69727(15)
C2 C 0.92314(16) 0.91009(16) 0.65612(18)
H1 H 0.9158 0.9096 0.5783
C3 C 0.98980(16) 0.83715(18) 0.7298(2)
H2 H 1.0278 0.7887 0.7014
C4 C 1.00019(16) 0.83586(18) 0.8444(2)
H3 H 1.0437 0.7856 0.8934
C5 C 0.94577(15) 0.90954(17) 0.88682(17)
H4 H 0.9531 0.9086 0.9647
C6 C 0.87975(14) 0.98571(14) 0.81463(15)
C7 C 0.82812(14) 1.06905(15) 0.85709(15)
H5 H 0.8302 1.0669 0.9334
C8 C 0.77791(14) 1.14834(15) 0.79058(15)
H6 H 0.7497 1.2027 0.8232
C9 C 0.78423(14) 1.05630(13) 0.61452(14)
C10 C 0.82693(17) 1.08754(15) 0.52138(17)
C11 C 0.71085(17) 1.23801(16) 0.60424(19)
C12 C 0.6806(2) 1.33243(17) 0.6617(2)
H7 H 0.6534 1.3882 0.6060
H8 H 0.7418 1.3581 0.7220
H9 H 0.6272 1.3115 0.6938
C13 C 0.67882(15) 0.99251(14) 0.55783(15)
H10 H 0.6283 1.0386 0.5031
H11 H 0.6932 0.9323 0.5155
C14 C 0.62974(14) 0.95161(14) 0.64400(15)
C15 C 0.64076(14) 0.85292(14) 0.68807(16)
H12 H 0.6073 0.8409 0.7423
C16 C 0.69781(15) 0.76046(14) 0.66362(16)
C17 C 0.76619(16) 0.70422(15) 0.75558(17)
H13 H 0.7746 0.7261 0.8303
C18 C 0.82184(18) 0.61668(16) 0.7386(2)
H14 H 0.8690 0.5812 0.8011
C19 C 0.8069(2) 0.58238(17) 0.6283(2)
H15 H 0.8445 0.5237 0.6161
C20 C 0.7367(2) 0.63422(17) 0.5358(2)
H16 H 0.7255 0.6091 0.4615
C21 C 0.68259(18) 0.72349(16) 0.55265(18)
H17 H 0.6360 0.7589 0.4897
C22 C 0.56451(15) 1.03064(17) 0.68110(19)
C23 C 0.4845(2) 1.0755(2) 0.8200(3)
H18 H 0.5236 1.1410 0.8407
H19 H 0.4726 1.0458 0.8867
H20 H 0.4176 1.0895 0.7616
N1 N 0.86525(19) 1.10201(16) 0.45306(17)
N2 N 0.76504(11) 1.15448(11) 0.67261(12)
O1 O 0.68883(14) 1.23351(12) 0.49976(13)
O2 O 0.53246(11) 1.11334(12) 0.63192(13)
O3 O 0.54421(12) 1.00039(11) 0.77657(15)
loop_
_geom_bond_atom_site_label_1
_geom_bond_atom_site_label_2
_geom_bond_site_symmetry_1
_geom_bond_site_symmetry_2
C1 C2 1_555 1_555
C2 H1 1_555 1_555
C3 C2 1_555 1_555
H2 C3 1_555 1_555
C4 C3 1_555 1_555
H3 C4 1_555 1_555
C5 C4 1_555 1_555
H4 C5 1_555 1_555
C6 C1 1_555 1_555
C7 C6 1_555 1_555
H5 C7 1_555 1_555
C8 C7 1_555 1_555
H6 C8 1_555 1_555
C9 C1 1_555 1_555
C10 C9 1_555 1_555
C11 C12 1_555 1_555
C12 H7 1_555 1_555
H8 C12 1_555 1_555
H9 C12 1_555 1_555
C13 C9 1_555 1_555
H10 C13 1_555 1_555
H11 C13 1_555 1_555
C14 C13 1_555 1_555
C15 C14 1_555 1_555
H12 C15 1_555 1_555
C16 C15 1_555 1_555
C17 C16 1_555 1_555
H13 C17 1_555 1_555
C18 C17 1_555 1_555
H14 C18 1_555 1_555
C19 C18 1_555 1_555
H15 C19 1_555 1_555
C20 C19 1_555 1_555
H16 C20 1_555 1_555
C21 C16 1_555 1_555
H17 C21 1_555 1_555
C22 C14 1_555 1_555
C23 H18 1_555 1_555
H19 C23 1_555 1_555
H20 C23 1_555 1_555
N1 C10 1_555 1_555
N2 C8 1_555 1_555
O1 C11 1_555 1_555
O2 C22 1_555 1_555
O3 C22 1_555 1_555
C5 C6 1_555 1_555
C9 N2 1_555 1_555
C11 N2 1_555 1_555
C20 C21 1_555 1_555
C23 O3 1_555 1_555

#END
