
#######################################################################
#
#                 Cambridge Crystallographic Data Centre
#                                CCDC 
#
#######################################################################
#
# If this CIF has been generated from an entry in the Cambridge 
# Structural Database, then it will include bibliographic, chemical, 
# crystal, experimental, refinement or atomic coordinate data resulting 
# from the CCDC's data processing and validation procedures.
#
#######################################################################

data_NUKZEZ01
_chemical_name_common            'bis(Nicotinamide) suberic acid'
_chemical_formula_moiety         '2(C6 H6 N2 O1),C8 H14 O4'
_chemical_name_systematic        'bis(Nicotinamide) octanedioic acid'
_symmetry_cell_setting           triclinic
_symmetry_space_group_name_H-M   'P -1'
_symmetry_Int_Tables_number      2
_space_group_name_Hall           '-P 1'
loop_
_symmetry_equiv_pos_site_id
_symmetry_equiv_pos_as_xyz
1 x,y,z
2 -x,-y,-z
_cell_length_a                   5.0346(10)
_cell_length_b                   5.5000(11)
_cell_length_c                   18.968(4)
_cell_angle_alpha                88.025(2)
_cell_angle_beta                 86.707(2)
_cell_angle_gamma                89.457(2)
_cell_volume                     524.036
_exptl_crystal_colour            colorless
_exptl_crystal_description       plate
_cell_formula_units_Z            1
loop_
_atom_site_label
_atom_site_type_symbol
_atom_site_fract_x
_atom_site_fract_y
_atom_site_fract_z
C1 C 0.4999(5) -0.1182(5) 0.34415(14)
C2 C 0.6651(6) -0.1380(6) 0.40690(15)
H1 H 0.8009 -0.0137 0.4016
H2 H 0.5523 -0.1013 0.4484
C3 C 0.7990(6) -0.3761(5) 0.42049(15)
H3 H 0.9301 -0.4061 0.3822
H4 H 0.6684 -0.5049 0.4216
C4 C 0.9361(6) -0.3816(5) 0.49056(16)
H5 H 1.0707 -0.2562 0.4882
H6 H 0.8054 -0.3419 0.5281
O1 O 0.5048(5) -0.2565(4) 0.29640(11)
O2 O 0.3435(5) 0.0760(4) 0.34593(11)
H7 H 0.2480 0.0768 0.3123
C1A C 1.5001(5) -0.8818(5) 0.65585(14)
C2A C 1.3349(6) -0.8620(6) 0.59310(15)
H1A H 1.1991 -0.9863 0.5984
H2A H 1.4477 -0.8987 0.5516
C3A C 1.2010(6) -0.6239(5) 0.57951(15)
H3A H 1.0699 -0.5939 0.6178
H4A H 1.3316 -0.4951 0.5784
C4A C 1.0639(6) -0.6184(5) 0.50944(16)
H5A H 0.9293 -0.7438 0.5118
H6A H 1.1946 -0.6581 0.4719
O1A O 1.4952(5) -0.7435(4) 0.70360(11)
O2A O 1.6565(5) -1.0760(4) 0.65407(11)
H7A H 1.7520 -1.0768 0.6877
C5 C 0.0596(5) 0.9630(5) 0.18395(13)
H8 H 0.1932 0.8457 0.1865
C6 C -0.1003(4) 0.9635(4) 0.12702(12)
C7 C -0.3003(5) 1.1388(5) 0.12409(14)
H9 H -0.4131 1.1443 0.0869
C8 C -0.3295(5) 1.3045(5) 0.17698(14)
H10 H -0.4618 1.4236 0.1760
C9 C -0.1602(6) 1.2902(5) 0.23096(15)
H11 H -0.1799 1.4031 0.2663
C10 C -0.0474(4) 0.7805(4) 0.07132(12)
N1 N -0.2505(4) 0.7189(4) 0.03436(11)
H12 H -0.2282 0.6140 0.0019
H13 H -0.4046 0.7838 0.0428
N2 N 0.0314(4) 1.1226(4) 0.23531(12)
O3 O 0.1779(3) 0.6920(3) 0.06102(10)
loop_
_geom_bond_atom_site_label_1
_geom_bond_atom_site_label_2
_geom_bond_site_symmetry_1
_geom_bond_site_symmetry_2
C1 C2 1_555 1_555
C2 H1 1_555 1_555
H2 C2 1_555 1_555
C3 C2 1_555 1_555
H3 C3 1_555 1_555
H4 C3 1_555 1_555
C4 C3 1_555 1_555
H5 C4 1_555 1_555
H6 C4 1_555 1_555
O1 C1 1_555 1_555
O2 C1 1_555 1_555
H7 O2 1_555 1_555
C5 H8 1_555 1_555
C6 C5 1_555 1_555
C7 C6 1_555 1_555
H9 C7 1_555 1_555
C8 C7 1_555 1_555
H10 C8 1_555 1_555
C9 C8 1_555 1_555
H11 C9 1_555 1_555
C10 C6 1_555 1_555
N1 C10 1_555 1_555
H12 N1 1_555 1_555
H13 N1 1_555 1_555
N2 C5 1_555 1_555
O3 C10 1_555 1_555
C1A C2A 1_555 1_555
C2A H1A 1_555 1_555
H2A C2A 1_555 1_555
C3A C2A 1_555 1_555
H3A C3A 1_555 1_555
H4A C3A 1_555 1_555
C4A C4 1_555 1_555
H5A C4A 1_555 1_555
H6A C4A 1_555 1_555
O1A C1A 1_555 1_555
O2A C1A 1_555 1_555
H7A O2A 1_555 1_555
C9 N2 1_555 1_555
C3A C4A 1_555 1_555

#END
