
#######################################################################
#
#                 Cambridge Crystallographic Data Centre
#                                CCDC 
#
#######################################################################
#
# If this CIF has been generated from an entry in the Cambridge 
# Structural Database, then it will include bibliographic, chemical, 
# crystal, experimental, refinement or atomic coordinate data resulting 
# from the CCDC's data processing and validation procedures.
#
#######################################################################

data_NUKZEA
_chemical_formula_moiety         'C24 H24 O3 S1'
_chemical_name_systematic        
2-((4-methylphenyl)sulfonyl)-1,5-diphenylpent-4-en-1-ol
_symmetry_cell_setting           orthorhombic
_symmetry_space_group_name_H-M   'P 21 21 21'
_symmetry_Int_Tables_number      19
_space_group_name_Hall           'P 2ac 2ab'
loop_
_symmetry_equiv_pos_site_id
_symmetry_equiv_pos_as_xyz
1 x,y,z
2 1/2-x,-y,1/2+z
3 -x,1/2+y,1/2-z
4 1/2+x,1/2-y,-z
_cell_length_a                   6.9943(4)
_cell_length_b                   12.0306(9)
_cell_length_c                   23.6891(18)
_cell_angle_alpha                90
_cell_angle_beta                 90
_cell_angle_gamma                90
_cell_volume                     1993.33
_exptl_crystal_colour            colorless
_exptl_crystal_description       Columnar
_cell_formula_units_Z            4
loop_
_atom_site_label
_atom_site_type_symbol
_atom_site_fract_x
_atom_site_fract_y
_atom_site_fract_z
C1 C 0.977(2) 1.0141(12) 0.6687(6)
H1 H 0.9963 1.0718 0.6401
C2 C 0.749(2) 0.9940(15) 0.6727(6)
H2 H 0.7251 0.9464 0.7055
C3 C 0.642(2) 1.1018(13) 0.6823(6)
C4 C 0.567(3) 1.1540(18) 0.6359(8)
H3 H 0.5834 1.1232 0.6002
C5 C 0.461(3) 1.2603(19) 0.6427(9)
H4 H 0.4011 1.2969 0.6129
C6 C 0.459(4) 1.3006(19) 0.6995(10)
H5 H 0.4164 1.3728 0.7059
C7 C 0.512(2) 1.2420(19) 0.7424(7)
H6 H 0.4903 1.2683 0.7787
C8 C 0.599(3) 1.1440(19) 0.7349(8)
H7 H 0.6316 1.1025 0.7665
C9 C 1.054(3) 1.0603(14) 0.7233(7)
H8 H 0.9917 1.1306 0.7311
H9 H 1.1899 1.0748 0.7188
C10 C 1.025(3) 0.9822(14) 0.7737(6)
H10 H 1.0285 0.9061 0.7669
C11 C 0.996(2) 1.0147(12) 0.8245(6)
H11 H 0.9812 1.0909 0.8294
C12 C 0.983(2) 0.9462(13) 0.8769(6)
C13 C 1.039(3) 0.8377(14) 0.8793(7)
H12 H 1.0842 0.8021 0.8471
C14 C 1.026(3) 0.7806(16) 0.9301(7)
H13 H 1.0721 0.7081 0.9314
C15 C 0.954(3) 0.8226(17) 0.9758(8)
H14 H 0.9593 0.7830 1.0095
C16 C 0.870(3) 0.9248(19) 0.9745(8)
H15 H 0.8045 0.9542 1.0052
C17 C 0.890(3) 0.9833(17) 0.9225(7)
H16 H 0.8336 1.0532 0.9201
C18 C 1.066(3) 0.8908(15) 0.5694(7)
C19 C 1.155(2) 0.9728(14) 0.5372(7)
H17 H 1.2231 1.0291 0.5551
C20 C 1.145(2) 0.9712(19) 0.4795(7)
H18 H 1.1945 1.0289 0.4580
C21 C 1.053(3) 0.8762(15) 0.4531(8)
C22 C 0.985(3) 0.7934(16) 0.4854(8)
H19 H 0.9352 0.7301 0.4683
C23 C 0.988(2) 0.8005(13) 0.5440(7)
H20 H 0.9362 0.7435 0.5657
C24 C 1.058(4) 0.864(2) 0.3886(7)
H21 H 0.9844 0.8004 0.3776
H22 H 1.1875 0.8556 0.3763
H23 H 1.0039 0.9297 0.3716
O1 O 0.6939(17) 0.9370(11) 0.6264(6)
H24 H 0.7277 0.9707 0.5980
O2 O 1.2944(14) 0.9220(10) 0.6507(6)
O3 O 1.0135(15) 0.7941(8) 0.6679(5)
S1 S 1.0944(5) 0.8947(4) 0.64379(18)
loop_
_geom_bond_atom_site_label_1
_geom_bond_atom_site_label_2
_geom_bond_site_symmetry_1
_geom_bond_site_symmetry_2
C1 H1 1_555 1_555
C2 C1 1_555 1_555
H2 C2 1_555 1_555
C3 C2 1_555 1_555
C4 C3 1_555 1_555
H3 C4 1_555 1_555
C5 C4 1_555 1_555
H4 C5 1_555 1_555
C6 C5 1_555 1_555
H5 C6 1_555 1_555
C7 C6 1_555 1_555
H6 C7 1_555 1_555
C8 C3 1_555 1_555
H7 C8 1_555 1_555
C9 C1 1_555 1_555
H8 C9 1_555 1_555
H9 C9 1_555 1_555
C10 C9 1_555 1_555
H10 C10 1_555 1_555
C11 C10 1_555 1_555
H11 C11 1_555 1_555
C12 C11 1_555 1_555
C13 C12 1_555 1_555
H12 C13 1_555 1_555
C14 C13 1_555 1_555
H13 C14 1_555 1_555
C15 C14 1_555 1_555
H14 C15 1_555 1_555
C16 C15 1_555 1_555
H15 C16 1_555 1_555
C17 C12 1_555 1_555
H16 C17 1_555 1_555
C18 C19 1_555 1_555
C19 H17 1_555 1_555
C20 C19 1_555 1_555
H18 C20 1_555 1_555
C21 C20 1_555 1_555
C22 C21 1_555 1_555
H19 C22 1_555 1_555
C23 C18 1_555 1_555
H20 C23 1_555 1_555
C24 C21 1_555 1_555
H21 C24 1_555 1_555
H22 C24 1_555 1_555
H23 C24 1_555 1_555
O1 C2 1_555 1_555
H24 O1 1_555 1_555
O2 S1 1_555 1_555
O3 S1 1_555 1_555
S1 C1 1_555 1_555
C7 C8 1_555 1_555
C16 C17 1_555 1_555
C18 S1 1_555 1_555
C22 C23 1_555 1_555

#END
