
#######################################################################
#
#                 Cambridge Crystallographic Data Centre
#                                CCDC 
#
#######################################################################
#
# If this CIF has been generated from an entry in the Cambridge 
# Structural Database, then it will include bibliographic, chemical, 
# crystal, experimental, refinement or atomic coordinate data resulting 
# from the CCDC's data processing and validation procedures.
#
#######################################################################

data_NUKZUQ
_chemical_formula_moiety         'C25 H26 O5 S1'
_chemical_name_systematic        
6-(4-methoxyphenyl)-5-((4-methylphenyl)sulfonyl)-2-phenyltetrahydro-2H-pyran-3-ol
_symmetry_cell_setting           orthorhombic
_symmetry_space_group_name_H-M   'P 21 21 21'
_symmetry_Int_Tables_number      19
_space_group_name_Hall           'P 2ac 2ab'
loop_
_symmetry_equiv_pos_site_id
_symmetry_equiv_pos_as_xyz
1 x,y,z
2 1/2+x,1/2-y,-z
3 -x,1/2+y,1/2-z
4 1/2-x,-y,1/2+z
_cell_length_a                   5.86780(10)
_cell_length_b                   15.0626(5)
_cell_length_c                   25.1038(7)
_cell_angle_alpha                90
_cell_angle_beta                 90
_cell_angle_gamma                90
_cell_volume                     2218.78
_exptl_crystal_colour            colorless
_exptl_crystal_description       Columnar
_cell_formula_units_Z            4
loop_
_atom_site_label
_atom_site_type_symbol
_atom_site_fract_x
_atom_site_fract_y
_atom_site_fract_z
S1 S 0.95734(15) 0.77866(6) 0.89098(4)
O1 O 0.9535(5) 0.99734(19) 0.92884(10)
O2 O 0.9341(5) 0.69383(18) 0.91724(10)
O3 O 1.1810(4) 0.8174(2) 0.88858(11)
O4 O 1.0219(6) 0.8957(2) 1.06021(10)
H1 H 1.1204 0.8580 1.0691
O5 O 0.6783(6) 0.9990(2) 0.68604(12)
C1 C 1.5024(12) 1.1790(4) 1.0312(3)
H2 H 1.6208 1.2183 1.0417
C2 C 1.4872(9) 1.1501(3) 0.9793(2)
H3 H 1.5947 1.1697 0.9536
C3 C 1.3137(8) 1.0920(3) 0.96474(19)
H4 H 1.3026 1.0731 0.9287
C4 C 1.1557(8) 1.0610(3) 1.00180(17)
C5 C 0.9705(7) 0.9964(3) 0.98603(14)
H5 H 0.8227 1.0175 1.0013
C6 C 0.7609(6) 0.9499(3) 0.90871(15)
H6 H 0.6231 0.9769 0.9257
C7 C 0.7635(6) 0.8510(3) 0.92520(14)
H7 H 0.6065 0.8274 0.9189
C8 C 0.8563(6) 0.7634(3) 0.82552(15)
C9 C 0.9858(7) 0.7912(3) 0.78309(15)
H8 H 1.1251 0.8219 0.7889
C10 C 0.9110(9) 0.7740(3) 0.73165(18)
H9 H 1.0025 0.7918 0.7023
C11 C 0.7071(9) 0.7317(3) 0.72228(18)
C12 C 0.6238(14) 0.7156(4) 0.6662(2)
H10 H 0.5568 0.7703 0.6520
H11 H 0.5084 0.6686 0.6665
H12 H 0.7521 0.6974 0.6437
C13 C 1.0087(7) 0.9000(3) 1.00341(13)
H13 H 1.1533 0.8770 0.9874
C14 C 0.8103(7) 0.8433(3) 0.98545(14)
H14 H 0.6720 0.8614 1.0053
H15 H 0.8423 0.7805 0.9943
C15 C 1.3456(13) 1.1505(4) 1.0675(3)
H16 H 1.3547 1.1715 1.1032
C16 C 1.1733(11) 1.0919(4) 1.0538(2)
H17 H 1.0671 1.0729 1.0799
C17 C 0.7436(6) 0.9690(3) 0.84984(15)
C18 C 0.5471(7) 0.9448(3) 0.82217(16)
H18 H 0.4221 0.9199 0.8410
C19 C 0.5319(7) 0.9562(3) 0.76857(17)
H19 H 0.3974 0.9384 0.7504
C20 C 0.7107(7) 0.9937(3) 0.74001(16)
C21 C 0.8550(11) 1.0366(5) 0.6551(2)
H20 H 0.8877 1.0967 0.6680
H21 H 0.8074 1.0393 0.6177
H22 H 0.9923 0.9999 0.6582
C22 C 0.9021(7) 1.0214(3) 0.76673(17)
H23 H 1.0226 1.0497 0.7480
C23 C 0.9184(6) 1.0080(3) 0.82126(16)
H24 H 1.0528 1.0260 0.8394
C24 C 0.6512(7) 0.7193(3) 0.81734(17)
H25 H 0.5618 0.7002 0.8467
C25 C 0.5800(8) 0.7036(3) 0.76597(19)
H26 H 0.4408 0.6729 0.7602
loop_
_geom_bond_atom_site_label_1
_geom_bond_atom_site_label_2
_geom_bond_site_symmetry_1
_geom_bond_site_symmetry_2
S1 O2 1_555 1_555
O1 C5 1_555 1_555
O3 S1 1_555 1_555
O4 H1 1_555 1_555
O5 C20 1_555 1_555
C1 H2 1_555 1_555
C2 C1 1_555 1_555
H3 C2 1_555 1_555
C3 C2 1_555 1_555
H4 C3 1_555 1_555
C4 C3 1_555 1_555
C5 C4 1_555 1_555
H5 C5 1_555 1_555
C6 O1 1_555 1_555
H6 C6 1_555 1_555
C7 S1 1_555 1_555
H7 C7 1_555 1_555
C8 S1 1_555 1_555
C9 C8 1_555 1_555
H8 C9 1_555 1_555
C10 C9 1_555 1_555
H9 C10 1_555 1_555
C11 C10 1_555 1_555
C12 C11 1_555 1_555
H10 C12 1_555 1_555
H11 C12 1_555 1_555
H12 C12 1_555 1_555
C13 O4 1_555 1_555
H13 C13 1_555 1_555
C14 C7 1_555 1_555
H14 C14 1_555 1_555
H15 C14 1_555 1_555
C15 C1 1_555 1_555
H16 C15 1_555 1_555
C16 C4 1_555 1_555
H17 C16 1_555 1_555
C17 C6 1_555 1_555
C18 C17 1_555 1_555
H18 C18 1_555 1_555
C19 C18 1_555 1_555
H19 C19 1_555 1_555
C20 C19 1_555 1_555
C21 O5 1_555 1_555
H20 C21 1_555 1_555
H21 C21 1_555 1_555
H22 C21 1_555 1_555
C22 C20 1_555 1_555
H23 C22 1_555 1_555
C23 C17 1_555 1_555
H24 C23 1_555 1_555
C24 C8 1_555 1_555
H25 C24 1_555 1_555
C25 C11 1_555 1_555
H26 C25 1_555 1_555
C5 C13 1_555 1_555
C6 C7 1_555 1_555
C13 C14 1_555 1_555
C15 C16 1_555 1_555
C22 C23 1_555 1_555
C24 C25 1_555 1_555

#END
