
#######################################################################
#
#                 Cambridge Crystallographic Data Centre
#                                CCDC 
#
#######################################################################
#
# If this CIF has been generated from an entry in the Cambridge 
# Structural Database, then it will include bibliographic, chemical, 
# crystal, experimental, refinement or atomic coordinate data resulting 
# from the CCDC's data processing and validation procedures.
#
#######################################################################

data_NUKZOK
_chemical_formula_moiety         'C27 H30 O4 S1,0.5(C1 H2 Cl2)'
_chemical_name_systematic        
'5-((4-t-butylphenyl)sulfonyl)-2,6-diphenyltetrahydro-2H-pyran-3-ol dichloromethane'
_symmetry_cell_setting           triclinic
_symmetry_space_group_name_H-M   'P -1'
_symmetry_Int_Tables_number      2
_space_group_name_Hall           '-P 1'
loop_
_symmetry_equiv_pos_site_id
_symmetry_equiv_pos_as_xyz
1 x,y,z
2 -x,-y,-z
_cell_length_a                   11.8674(6)
_cell_length_b                   13.6155(7)
_cell_length_c                   16.9842(7)
_cell_angle_alpha                100.645(2)
_cell_angle_beta                 104.725(2)
_cell_angle_gamma                100.118(2)
_cell_volume                     2535.95
_exptl_crystal_colour            colorless
_cell_formula_units_Z            4
loop_
_atom_site_label
_atom_site_type_symbol
_atom_site_fract_x
_atom_site_fract_y
_atom_site_fract_z
S1 S 0.79106(7) 0.17579(6) 0.39723(4)
O1 O 0.84595(17) -0.07404(16) 0.25398(11)
O2 O 0.6733(2) 0.14860(17) 0.40593(13)
O3 O 0.8936(2) 0.18502(18) 0.46667(12)
O4 O 0.58026(17) -0.05065(16) 0.09989(12)
H1 H 0.5518 0.0004 0.0925
C1 C 0.9508(4) 0.6463(3) 0.3112(3)
H2 H 0.9519 0.7037 0.2839
H3 H 1.0150 0.6126 0.3034
H4 H 0.9630 0.6722 0.3713
C2 C 0.8304(3) 0.5692(3) 0.2725(2)
C3 C 0.8229(3) 0.4729(2) 0.30638(19)
C4 C 0.9232(3) 0.4471(3) 0.3529(2)
H5 H 0.9997 0.4920 0.3655
C5 C 0.9152(3) 0.3580(3) 0.3814(2)
H6 H 0.9852 0.3420 0.4126
C6 C 0.8038(3) 0.2925(2) 0.36404(18)
C7 C 0.8004(3) 0.0853(2) 0.30828(16)
H7 H 0.8639 0.1224 0.2882
C8 C 0.8438(3) -0.0098(2) 0.33131(17)
H8 H 0.9296 0.0169 0.3658
C9 C 0.7335(2) -0.1095(2) 0.18948(16)
H9 H 0.6722 -0.1453 0.2120
C10 C 0.7496(3) -0.1842(2) 0.11848(17)
C11 C 0.8584(3) -0.1765(3) 0.1015(2)
H10 H 0.9257 -0.1240 0.1364
C12 C 0.8705(4) -0.2441(3) 0.0344(2)
H11 H 0.9459 -0.2385 0.0238
C13 C 0.7727(5) -0.3198(3) -0.0171(2)
H12 H 0.7806 -0.3665 -0.0633
C14 C 0.7314(5) 0.6219(4) 0.2834(4)
H13 H 0.6535 0.5754 0.2516
H14 H 0.7402 0.6845 0.2627
H15 H 0.7363 0.6398 0.3430
C15 C 0.8147(5) 0.5367(4) 0.1780(3)
H16 H 0.7340 0.4937 0.1491
H17 H 0.8741 0.4977 0.1688
H18 H 0.8262 0.5981 0.1558
C16 C 0.7130(3) 0.4045(3) 0.2904(2)
H19 H 0.6427 0.4192 0.2581
C17 C 0.7028(3) 0.3167(2) 0.31953(19)
H20 H 0.6261 0.2729 0.3090
C18 C 0.6643(4) -0.3273(3) -0.0016(2)
H21 H 0.5966 -0.3788 -0.0374
C19 C 0.6530(3) -0.2603(3) 0.06619(19)
H22 H 0.5776 -0.2666 0.0769
C20 C 0.6944(2) -0.0169(2) 0.16209(16)
H23 H 0.7544 0.0175 0.1378
C21 C 0.6854(3) 0.0592(2) 0.23622(16)
H24 H 0.6172 0.0295 0.2547
H25 H 0.6706 0.1227 0.2193
C22 C 0.6626(3) -0.0990(3) 0.37112(19)
H26 H 0.6087 -0.0759 0.3308
C23 C 0.7849(3) -0.0712(2) 0.38175(16)
C24 C 0.8603(3) -0.1063(3) 0.4413(2)
H27 H 0.9442 -0.0894 0.4492
C25 C 0.8153(4) -0.1659(3) 0.4899(2)
H28 H 0.8685 -0.1882 0.5311
C26 C 0.6944(4) -0.1924(3) 0.4782(2)
H29 H 0.6633 -0.2332 0.5110
C27 C 0.6185(3) -0.1595(3) 0.4183(2)
H30 H 0.5344 -0.1787 0.4093
S2 S 0.73162(7) 0.73123(6) 0.70469(4)
O5 O 0.8368(2) 0.75471(17) 0.67807(13)
O6 O 0.56423(16) 0.91112(15) 0.93118(11)
H31 H 0.5798 0.9291 0.9836
O7 O 0.6148(2) 0.72045(18) 0.64810(13)
O8 O 0.83846(16) 1.00323(15) 0.87607(11)
C28 C 0.7315(3) 0.4428(2) 0.8053(2)
C29 C 0.6259(3) 0.4674(3) 0.7680(2)
H32 H 0.5520 0.4238 0.7646
C30 C 0.6235(3) 0.5532(3) 0.7352(2)
H33 H 0.5494 0.5680 0.7097
C31 C 0.7310(3) 0.6169(2) 0.74008(17)
C32 C 0.7541(2) 0.8276(2) 0.79955(16)
H34 H 0.8125 0.8084 0.8445
C33 C 0.8166(2) 0.9355(2) 0.79524(16)
H35 H 0.8977 0.9292 0.7909
C34 C 0.7335(2) 1.0123(2) 0.90190(16)
H36 H 0.6767 1.0359 0.8590
C35 C 0.7734(2) 1.0913(2) 0.98427(16)
C36 C 0.6956(3) 1.1506(2) 1.00531(18)
H37 H 0.6196 1.1429 0.9662
C37 C 0.7277(3) 1.2201(2) 1.08198(19)
H38 H 0.6733 1.2591 1.0955
C38 C 0.8372(3) 1.2332(2) 1.13854(19)
H39 H 0.8599 1.2820 1.1909
C39 C 0.6416(2) 0.8257(2) 0.82801(16)
H40 H 0.5777 0.8402 0.7846
H41 H 0.6121 0.7569 0.8364
C40 C 0.6725(2) 0.9068(2) 0.90991(16)
H42 H 0.7283 0.8857 0.9551
C41 C 0.7637(3) 0.9809(2) 0.72252(16)
C42 C 0.6430(3) 0.9631(2) 0.68020(18)
H43 H 0.5856 0.9197 0.6964
C43 C 0.6051(3) 1.0082(3) 0.61418(18)
H44 H 0.5221 0.9952 0.5854
C44 C 0.6873(3) 1.0714(3) 0.59026(19)
H45 H 0.6611 1.1024 0.5453
C45 C 0.8068(3) 1.0896(3) 0.6314(2)
H46 H 0.8636 1.1334 0.6150
C46 C 0.8450(3) 1.0443(3) 0.69652(19)
H47 H 0.9283 1.0568 0.7241
C47 C 0.9143(3) 1.1749(2) 1.11883(18)
H48 H 0.9900 1.1831 1.1585
C48 C 0.8838(3) 1.1045(2) 1.04224(18)
H49 H 0.9385 1.0653 1.0296
C49 C 0.8380(3) 0.5922(2) 0.7739(2)
H50 H 0.9117 0.6335 0.7745
C50 C 0.8367(3) 0.5070(2) 0.8068(2)
H51 H 0.9109 0.4917 0.8315
C51 C 0.731(3) 0.3534(15) 0.8494(19)
C52 C 0.8451(10) 0.3207(10) 0.8649(11)
H52 H 0.8802 0.3292 0.8195
H53 H 0.8303 0.2483 0.8671
H54 H 0.9007 0.3629 0.9184
C53 C 0.6353(15) 0.2560(10) 0.7889(9)
H55 H 0.6604 0.2332 0.7392
H56 H 0.5575 0.2735 0.7716
H57 H 0.6283 0.2006 0.8182
C54 C 0.6825(14) 0.3839(8) 0.9244(6)
H58 H 0.6756 0.3274 0.9525
H59 H 0.6035 0.3982 0.9041
H60 H 0.7377 0.4455 0.9641
Cl1 Cl 0.6816(2) 0.51570(15) 0.49791(12)
Cl2 Cl 0.72698(17) 0.35578(13) 0.58158(9)
C59 C 0.6238(5) 0.3978(5) 0.5159(3)
H70 H 0.5569 0.4044 0.5400
H71 H 0.5908 0.3460 0.4616
C55? C 0.733(4) 0.350(2) 0.841(2)
C56? C 0.6144(14) 0.2849(15) 0.8293(14)
H61? H 0.5624 0.2794 0.7729
H62? H 0.5792 0.3160 0.8711
H63? H 0.6224 0.2163 0.8360
C57? C 0.8058(19) 0.3877(9) 0.9379(6)
H64? H 0.7590 0.4239 0.9681
H65? H 0.8826 0.4343 0.9451
H66? H 0.8204 0.3282 0.9604
C58? C 0.8046(18) 0.2785(10) 0.8023(11)
H67? H 0.7935 0.2139 0.8202
H68? H 0.8900 0.3127 0.8212
H69? H 0.7751 0.2638 0.7410
loop_
_geom_bond_atom_site_label_1
_geom_bond_atom_site_label_2
_geom_bond_site_symmetry_1
_geom_bond_site_symmetry_2
S1 O2 1_555 1_555
O1 C8 1_555 1_555
O3 S1 1_555 1_555
O4 H1 1_555 1_555
C1 H2 1_555 1_555
H3 C1 1_555 1_555
H4 C1 1_555 1_555
C2 C1 1_555 1_555
C3 C2 1_555 1_555
C4 C3 1_555 1_555
H5 C4 1_555 1_555
C5 C4 1_555 1_555
H6 C5 1_555 1_555
C6 S1 1_555 1_555
C7 S1 1_555 1_555
H7 C7 1_555 1_555
C8 C7 1_555 1_555
H8 C8 1_555 1_555
C9 O1 1_555 1_555
H9 C9 1_555 1_555
C10 C9 1_555 1_555
C11 C10 1_555 1_555
H10 C11 1_555 1_555
C12 C11 1_555 1_555
H11 C12 1_555 1_555
C13 C12 1_555 1_555
H12 C13 1_555 1_555
C14 C2 1_555 1_555
H13 C14 1_555 1_555
H14 C14 1_555 1_555
H15 C14 1_555 1_555
C15 C2 1_555 1_555
H16 C15 1_555 1_555
H17 C15 1_555 1_555
H18 C15 1_555 1_555
C16 C3 1_555 1_555
H19 C16 1_555 1_555
C17 C6 1_555 1_555
H20 C17 1_555 1_555
C18 C13 1_555 1_555
H21 C18 1_555 1_555
C19 C10 1_555 1_555
H22 C19 1_555 1_555
C20 O4 1_555 1_555
H23 C20 1_555 1_555
C21 C7 1_555 1_555
H24 C21 1_555 1_555
H25 C21 1_555 1_555
C22 H26 1_555 1_555
C23 C8 1_555 1_555
C24 C23 1_555 1_555
H27 C24 1_555 1_555
C25 C24 1_555 1_555
H28 C25 1_555 1_555
C26 C25 1_555 1_555
H29 C26 1_555 1_555
C27 C22 1_555 1_555
H30 C27 1_555 1_555
S2 O5 1_555 1_555
O6 H31 1_555 1_555
O7 S2 1_555 1_555
O8 C33 1_555 1_555
C28 C29 1_555 1_555
C29 H32 1_555 1_555
C30 C29 1_555 1_555
H33 C30 1_555 1_555
C31 S2 1_555 1_555
C32 S2 1_555 1_555
H34 C32 1_555 1_555
C33 C32 1_555 1_555
H35 C33 1_555 1_555
C34 O8 1_555 1_555
H36 C34 1_555 1_555
C35 C34 1_555 1_555
C36 C35 1_555 1_555
H37 C36 1_555 1_555
C37 C36 1_555 1_555
H38 C37 1_555 1_555
C38 C37 1_555 1_555
H39 C38 1_555 1_555
C39 C32 1_555 1_555
H40 C39 1_555 1_555
H41 C39 1_555 1_555
C40 O6 1_555 1_555
H42 C40 1_555 1_555
C41 C33 1_555 1_555
C42 C41 1_555 1_555
H43 C42 1_555 1_555
C43 C42 1_555 1_555
H44 C43 1_555 1_555
C44 C43 1_555 1_555
H45 C44 1_555 1_555
C45 C44 1_555 1_555
H46 C45 1_555 1_555
C46 C41 1_555 1_555
H47 C46 1_555 1_555
C47 C38 1_555 1_555
H48 C47 1_555 1_555
C48 C35 1_555 1_555
H49 C48 1_555 1_555
C49 C31 1_555 1_555
H50 C49 1_555 1_555
C50 C28 1_555 1_555
H51 C50 1_555 1_555
C51 C28 1_555 1_555
C52 C51 1_555 1_555
H52 C52 1_555 1_555
H53 C52 1_555 1_555
H54 C52 1_555 1_555
C53 C51 1_555 1_555
H55 C53 1_555 1_555
H56 C53 1_555 1_555
H57 C53 1_555 1_555
C54 C51 1_555 1_555
H58 C54 1_555 1_555
H59 C54 1_555 1_555
H60 C54 1_555 1_555
Cl1 C59 1_555 1_555
Cl2 C59 1_555 1_555
C59 H70 1_555 1_555
H71 C59 1_555 1_555
C5 C6 1_555 1_555
C9 C20 1_555 1_555
C16 C17 1_555 1_555
C18 C19 1_555 1_555
C20 C21 1_555 1_555
C22 C23 1_555 1_555
C26 C27 1_555 1_555
C30 C31 1_555 1_555
C34 C40 1_555 1_555
C39 C40 1_555 1_555
C45 C46 1_555 1_555
C47 C48 1_555 1_555
C49 C50 1_555 1_555

#END
