
#######################################################################
#
#                 Cambridge Crystallographic Data Centre
#                                CCDC 
#
#######################################################################
#
# If this CIF has been generated from an entry in the Cambridge 
# Structural Database, then it will include bibliographic, chemical, 
# crystal, experimental, refinement or atomic coordinate data resulting 
# from the CCDC's data processing and validation procedures.
#
#######################################################################

data_NULDUV
_chemical_name_common            
'Palustrine hydrochloride dichloromethane solvate'
_chemical_formula_moiety         'C17 H32 N3 O2 1+,Cl1 1-,C1 H2 Cl2'
_chemical_name_systematic        
'13-(1-Hydroxypropyl)-2-oxo-1,2,3,4,5,6,7,8,9,10,11,13,14,16a-tetradecahydropyrido[2,1-d][1,5,9]triazacyclotridecin-8-ium chloride dichloromethane solvate'
_symmetry_cell_setting           orthorhombic
_symmetry_space_group_name_H-M   'P 21 21 21'
_symmetry_Int_Tables_number      19
_space_group_name_Hall           'P 2ac 2ab'
loop_
_symmetry_equiv_pos_site_id
_symmetry_equiv_pos_as_xyz
1 x,y,z
2 1/2-x,-y,1/2+z
3 -x,1/2+y,1/2-z
4 1/2+x,1/2-y,-z
_cell_length_a                   10.6046(3)
_cell_length_b                   10.8023(3)
_cell_length_c                   19.4966(3)
_cell_angle_alpha                90
_cell_angle_beta                 90
_cell_angle_gamma                90
_cell_volume                     2233.41
_exptl_crystal_colour            colorless
_exptl_crystal_description       tablet
_cell_formula_units_Z            4
loop_
_atom_site_label
_atom_site_type_symbol
_atom_site_fract_x
_atom_site_fract_y
_atom_site_fract_z
O1 O 0.60639(12) 0.12094(11) 0.66934(6)
O2 O 0.38943(11) 0.35937(10) 0.51833(6)
H1 H 0.423(3) 0.321(3) 0.4848(15)
N1 N 0.49570(12) 0.39690(12) 0.64616(6)
C1 C 0.45730(15) 0.40959(17) 0.71931(8)
H2 H 0.4754 0.4950 0.7348
H3 H 0.5085 0.3524 0.7476
C2 C 0.31791(16) 0.38181(17) 0.73112(8)
H4 H 0.2961 0.4022 0.7792
H5 H 0.2668 0.4357 0.7009
C3 C 0.28391(16) 0.24833(17) 0.71734(8)
H6 H 0.3403 0.1936 0.7441
H7 H 0.1962 0.2329 0.7326
N2 N 0.29551(13) 0.21772(13) 0.64271(7)
H8 H 0.2261(17) 0.2457(19) 0.6235(10)
H9 H 0.3608(19) 0.254(2) 0.6231(11)
C4 C 0.30247(16) 0.08129(15) 0.63071(8)
H10 H 0.2256 0.0413 0.6491
H11 H 0.3762 0.0469 0.6554
C5 C 0.31429(16) 0.05254(15) 0.55418(8)
H12 H 0.2290 0.0371 0.5353
H13 H 0.3491 0.1261 0.5306
C6 C 0.39775(17) -0.05883(15) 0.53817(9)
H14 H 0.4020 -0.0698 0.4878
H15 H 0.3584 -0.1340 0.5578
C7 C 0.53238(16) -0.04683(14) 0.56636(9)
H16 H 0.5320 -0.0664 0.6160
H17 H 0.5874 -0.1079 0.5432
N3 N 0.58402(13) 0.07660(12) 0.55639(7)
H18 H 0.592(2) 0.107(2) 0.5162(9)
C8 C 0.61567(14) 0.15177(14) 0.60846(8)
C9 C 0.66773(14) 0.27679(13) 0.58800(8)
H19 H 0.6335 0.3002 0.5426
H20 H 0.7606 0.2712 0.5839
C10 C 0.63381(14) 0.37704(14) 0.64036(7)
H21 H 0.6618 0.3447 0.6859
C11 C 0.70940(16) 0.49312(15) 0.62789(8)
H22 H 0.7985 0.4859 0.6246
C12 C 0.65860(17) 0.60476(15) 0.62126(8)
H23 H 0.7122 0.6743 0.6149
C13 C 0.51833(17) 0.62357(15) 0.62353(9)
H24 H 0.4943 0.6895 0.5908
H25 H 0.4932 0.6505 0.6701
C14 C 0.44856(14) 0.50339(14) 0.60510(8)
H26 H 0.3579 0.5156 0.6175
C15 C 0.45337(15) 0.47458(14) 0.52783(8)
H27 H 0.5433 0.4652 0.5134
C16 C 0.39111(19) 0.57517(16) 0.48438(9)
H28 H 0.3017 0.5834 0.4983
H29 H 0.4334 0.6552 0.4935
C17 C 0.39716(18) 0.54775(16) 0.40773(9)
H30 H 0.4855 0.5406 0.3935
H31 H 0.3567 0.6151 0.3823
H32 H 0.3532 0.4698 0.3982
C18 C -0.12688(18) 0.18794(19) 0.75021(10)
H33 H -0.1927 0.1467 0.7223
H34 H -0.0820 0.2475 0.7203
Cl1 Cl -0.01961(5) 0.07631(5) 0.78032(3)
Cl2 Cl -0.19939(6) 0.26918(6) 0.81890(3)
Cl3 Cl 0.02859(3) 0.29584(3) 0.594766(18)
loop_
_geom_bond_atom_site_label_1
_geom_bond_atom_site_label_2
_geom_bond_site_symmetry_1
_geom_bond_site_symmetry_2
O1 C8 1_555 1_555
O2 H1 1_555 1_555
N1 C1 1_555 1_555
C1 H2 1_555 1_555
H3 C1 1_555 1_555
C2 C1 1_555 1_555
H4 C2 1_555 1_555
H5 C2 1_555 1_555
C3 C2 1_555 1_555
H6 C3 1_555 1_555
H7 C3 1_555 1_555
N2 C3 1_555 1_555
H8 N2 1_555 1_555
H9 N2 1_555 1_555
C4 N2 1_555 1_555
H10 C4 1_555 1_555
H11 C4 1_555 1_555
C5 C4 1_555 1_555
H12 C5 1_555 1_555
H13 C5 1_555 1_555
C6 C5 1_555 1_555
H14 C6 1_555 1_555
H15 C6 1_555 1_555
C7 C6 1_555 1_555
H16 C7 1_555 1_555
H17 C7 1_555 1_555
N3 C7 1_555 1_555
H18 N3 1_555 1_555
C8 N3 1_555 1_555
C9 C8 1_555 1_555
H19 C9 1_555 1_555
H20 C9 1_555 1_555
C10 N1 1_555 1_555
H21 C10 1_555 1_555
C11 C10 1_555 1_555
H22 C11 1_555 1_555
C12 C11 1_555 1_555
H23 C12 1_555 1_555
C13 C12 1_555 1_555
H24 C13 1_555 1_555
H25 C13 1_555 1_555
C14 N1 1_555 1_555
H26 C14 1_555 1_555
C15 O2 1_555 1_555
H27 C15 1_555 1_555
C16 C15 1_555 1_555
H28 C16 1_555 1_555
H29 C16 1_555 1_555
C17 C16 1_555 1_555
H30 C17 1_555 1_555
H31 C17 1_555 1_555
H32 C17 1_555 1_555
C18 H33 1_555 1_555
H34 C18 1_555 1_555
Cl1 C18 1_555 1_555
Cl2 C18 1_555 1_555
C9 C10 1_555 1_555
C13 C14 1_555 1_555
C14 C15 1_555 1_555

#END
