
#######################################################################
#
#                 Cambridge Crystallographic Data Centre
#                                CCDC 
#
#######################################################################
#
# If this CIF has been generated from an entry in the Cambridge 
# Structural Database, then it will include bibliographic, chemical, 
# crystal, experimental, refinement or atomic coordinate data resulting 
# from the CCDC's data processing and validation procedures.
#
#######################################################################

data_NULJOV
_chemical_formula_moiety         'C26 H40 O2 S2 Si2'
_chemical_name_systematic        
(oct-1-ene-1,2-diylbis(sulfinyl-4,1-phenylene))bis(trimethylsilane)
_symmetry_cell_setting           triclinic
_symmetry_space_group_name_H-M   'P -1'
_symmetry_Int_Tables_number      2
_space_group_name_Hall           '-P 1'
loop_
_symmetry_equiv_pos_site_id
_symmetry_equiv_pos_as_xyz
1 x,y,z
2 -x,-y,-z
_cell_length_a                   11.205(3)
_cell_length_b                   11.346(3)
_cell_length_c                   13.093(4)
_cell_angle_alpha                108.312(3)
_cell_angle_beta                 90.218(3)
_cell_angle_gamma                112.482(3)
_cell_volume                     1445.5
_exptl_crystal_colour            colorless
_exptl_crystal_description       prismatic
_cell_formula_units_Z            2
loop_
_atom_site_label
_atom_site_type_symbol
_atom_site_fract_x
_atom_site_fract_y
_atom_site_fract_z
C1 C 0.38474(19) 0.3670(2) 0.09259(16)
H1 H 0.4285 0.4613 0.1046
C2 C 0.34352(19) 0.3324(2) 0.17839(17)
C3 C 0.3765(2) 0.4281(2) 0.29401(17)
H2 H 0.4064 0.3876 0.3402
H3 H 0.2962 0.4374 0.3188
C4 C 0.4812(2) 0.5691(2) 0.31087(18)
H4 H 0.4492 0.6135 0.2697
H5 H 0.5601 0.5605 0.2820
C5 C 0.5172(3) 0.6580(2) 0.43091(19)
H6 H 0.5276 0.6039 0.4740
H7 H 0.4444 0.6843 0.4547
C6 C 0.6429(6) 0.7871(6) 0.4553(5)
H8 H 0.6276 0.8427 0.4159
H9 H 0.6551 0.8390 0.5339
C7 C 0.771(2) 0.7771(19) 0.4292(12)
H10 H 0.7846 0.7149 0.4624
H11 H 0.7650 0.7361 0.3495
C8 C 0.8885(5) 0.9094(5) 0.4678(4)
H12 H 0.8796 0.9697 0.4314
H13 H 0.9672 0.8933 0.4506
H14 H 0.8952 0.9518 0.5465
C9 C 0.23413(19) 0.2772(2) -0.09974(16)
C10 C 0.12746(19) 0.1598(2) -0.15852(17)
H15 H 0.1288 0.0733 -0.1707
C11 C 0.0190(2) 0.1703(2) -0.19929(17)
H16 H -0.0541 0.0898 -0.2391
C12 C 0.0148(2) 0.2962(2) -0.18322(17)
C13 C 0.1273(2) 0.4126(2) -0.12761(18)
H17 H 0.1285 0.4995 -0.1188
C14 C 0.2358(2) 0.4047(2) -0.08557(17)
H18 H 0.3104 0.4847 -0.0476
C15 C -0.1181(3) 0.4842(3) -0.1880(2)
H19 H -0.0581 0.5272 -0.2325
H20 H -0.0815 0.5318 -0.1110
H21 H -0.2023 0.4889 -0.2003
C16 C -0.1951(4) 0.2121(4) -0.3725(3)
H22 H -0.2782 0.2141 -0.3932
H23 H -0.2062 0.1178 -0.3891
H24 H -0.1291 0.2553 -0.4132
C17 C -0.2664(3) 0.2196(3) -0.1478(3)
H25 H -0.2347 0.2641 -0.0698
H26 H -0.2812 0.1237 -0.1692
H27 H -0.3485 0.2267 -0.1635
C18 C 0.09375(19) 0.17637(19) 0.18458(17)
C19 C 0.0094(2) 0.1601(2) 0.09940(17)
H28 H 0.0324 0.1435 0.0281
C20 C -0.1096(2) 0.1682(2) 0.11891(18)
H29 H -0.1677 0.1565 0.0600
C21 C -0.1461(2) 0.1931(2) 0.22313(18)
C22 C -0.0579(2) 0.2081(2) 0.30702(18)
H30 H -0.0801 0.2246 0.3786
C23 C 0.0609(2) 0.1996(2) 0.28905(18)
H31 H 0.1188 0.2096 0.3473
C24 C -0.4028(3) 0.1687(5) 0.1201(3)
H32 H -0.4051 0.0846 0.0670
H33 H -0.3617 0.2440 0.0928
H34 H -0.4920 0.1588 0.1317
C25 C -0.3969(3) 0.0786(3) 0.3156(2)
H35 H -0.3457 0.0986 0.3845
H36 H -0.4114 -0.0126 0.2670
H37 H -0.4812 0.0832 0.3295
C26 C -0.2721(4) 0.3796(3) 0.3450(3)
H38 H -0.3544 0.3881 0.3609
H39 H -0.2232 0.4455 0.3107
H40 H -0.2203 0.3972 0.4128
S1 S 0.36625(5) 0.25446(5) -0.04276(4)
S2 S 0.24399(5) 0.15650(5) 0.15873(4)
O1 O 0.48794(13) 0.32560(15) -0.08398(12)
O2 O 0.28786(14) 0.12882(16) 0.25321(13)
Si1 Si -0.14184(6) 0.30444(6) -0.22599(6)
Si2 Si -0.30703(7) 0.20468(8) 0.25118(6)
C27? C 0.5898(7) 0.8148(6) 0.4476(5)
H41? H 0.5318 0.8442 0.4143
H42? H 0.6116 0.8685 0.5262
C28? C 0.7132(5) 0.8396(5) 0.3957(4)
H43? H 0.6895 0.7929 0.3161
H44? H 0.7593 0.9381 0.4092
C29? C 0.805(2) 0.791(2) 0.4375(15)
H45? H 0.8282 0.8364 0.5164
H46? H 0.8835 0.8121 0.4025
H47? H 0.7613 0.6926 0.4210
loop_
_geom_bond_atom_site_label_1
_geom_bond_atom_site_label_2
_geom_bond_site_symmetry_1
_geom_bond_site_symmetry_2
C1 H1 1_555 1_555
C2 C1 1_555 1_555
C3 C2 1_555 1_555
H2 C3 1_555 1_555
H3 C3 1_555 1_555
C4 C3 1_555 1_555
H4 C4 1_555 1_555
H5 C4 1_555 1_555
C5 C4 1_555 1_555
H6 C5 1_555 1_555
H7 C5 1_555 1_555
C6 C5 1_555 1_555
H8 C6 1_555 1_555
H9 C6 1_555 1_555
C7 C6 1_555 1_555
H10 C7 1_555 1_555
H11 C7 1_555 1_555
C8 C7 1_555 1_555
H12 C8 1_555 1_555
H13 C8 1_555 1_555
H14 C8 1_555 1_555
C9 C10 1_555 1_555
C10 H15 1_555 1_555
C11 C10 1_555 1_555
H16 C11 1_555 1_555
C12 C11 1_555 1_555
C13 C12 1_555 1_555
H17 C13 1_555 1_555
C14 C9 1_555 1_555
H18 C14 1_555 1_555
C15 H19 1_555 1_555
H20 C15 1_555 1_555
H21 C15 1_555 1_555
C16 H22 1_555 1_555
H23 C16 1_555 1_555
H24 C16 1_555 1_555
C17 H25 1_555 1_555
H26 C17 1_555 1_555
H27 C17 1_555 1_555
C18 C19 1_555 1_555
C19 H28 1_555 1_555
C20 C19 1_555 1_555
H29 C20 1_555 1_555
C21 C20 1_555 1_555
C22 C21 1_555 1_555
H30 C22 1_555 1_555
C23 C18 1_555 1_555
H31 C23 1_555 1_555
C24 H32 1_555 1_555
H33 C24 1_555 1_555
H34 C24 1_555 1_555
C25 H35 1_555 1_555
H36 C25 1_555 1_555
H37 C25 1_555 1_555
C26 H38 1_555 1_555
H39 C26 1_555 1_555
H40 C26 1_555 1_555
S1 C1 1_555 1_555
S2 C2 1_555 1_555
O1 S1 1_555 1_555
O2 S2 1_555 1_555
Si1 C12 1_555 1_555
Si2 C21 1_555 1_555
C9 S1 1_555 1_555
C13 C14 1_555 1_555
C15 Si1 1_555 1_555
C16 Si1 1_555 1_555
C17 Si1 1_555 1_555
C18 S2 1_555 1_555
C22 C23 1_555 1_555
C24 Si2 1_555 1_555
C25 Si2 1_555 1_555
C26 Si2 1_555 1_555

#END
