
#######################################################################
#
#                 Cambridge Crystallographic Data Centre
#                                CCDC 
#
#######################################################################
#
# If this CIF has been generated from an entry in the Cambridge 
# Structural Database, then it will include bibliographic, chemical, 
# crystal, experimental, refinement or atomic coordinate data resulting 
# from the CCDC's data processing and validation procedures.
#
#######################################################################

data_NUMBON
_chemical_formula_moiety         'C38 H36 S4,C4 H8 O2'
_chemical_name_systematic        
"2,5,10,13-Tetra-n-propyltristhieno[2',3':1,2;2'',3'':7,8;3''',2''':9,10]chryseno[4,3-b]thiophene 1,4-dioxane solvate"
_symmetry_cell_setting           triclinic
_symmetry_space_group_name_H-M   'P -1'
_symmetry_Int_Tables_number      2
_space_group_name_Hall           '-P 1'
loop_
_symmetry_equiv_pos_site_id
_symmetry_equiv_pos_as_xyz
1 x,y,z
2 -x,-y,-z
_cell_length_a                   5.6102(11)
_cell_length_b                   12.937(3)
_cell_length_c                   13.201(3)
_cell_angle_alpha                111.53(3)
_cell_angle_beta                 99.42(3)
_cell_angle_gamma                94.75(3)
_cell_volume                     868.525
_exptl_crystal_colour            yellow
_exptl_crystal_description       prism
_cell_formula_units_Z            1
loop_
_atom_site_label
_atom_site_type_symbol
_atom_site_fract_x
_atom_site_fract_y
_atom_site_fract_z
S1 S 0.11247(13) 0.43941(6) 0.59235(6)
S2 S 0.50689(12) 0.28342(6) 0.97106(6)
C1 C 0.3172(5) 0.3589(2) 0.5256(3)
C2 C 0.4444(5) 0.3127(2) 0.5902(2)
H1 H 0.5657 0.2672 0.5675
C3 C 0.3771(5) 0.3392(2) 0.6958(2)
C4 C 0.2003(5) 0.4101(2) 0.7102(2)
C5 C 0.6737(5) 0.2077(2) 0.8782(2)
C6 C 0.6314(5) 0.2275(2) 0.7837(2)
H2 H 0.7076 0.1938 0.7229
C7 C 0.4600(5) 0.3045(2) 0.7837(2)
C8 C 0.3704(5) 0.3436(2) 0.8817(2)
C9 C 0.1918(5) 0.4201(2) 0.8985(2)
C10 C 0.1072(5) 0.4511(2) 0.8080(2)
C11 C -0.0761(5) 0.5219(2) 0.8158(2)
H3 H -0.1324 0.5421 0.7548
C12 C 0.0916(5) 0.4640(2) 0.9972(2)
C13 C 0.1722(5) 0.4390(2) 1.0921(2)
H4 H 0.2970 0.3935 1.0909
C14 C 0.3263(5) 0.3474(2) 0.4086(2)
H5 H 0.3859 0.4222 0.4100
H6 H 0.1583 0.3227 0.3626
C15 C 0.4896(5) 0.2647(3) 0.3537(3)
H7 H 0.4279 0.1888 0.3491
H8 H 0.6579 0.2879 0.3995
C16 C 0.4931(6) 0.2607(3) 0.2372(3)
H9 H 0.3256 0.2403 0.1928
H10 H 0.5923 0.2046 0.2015
H11 H 0.5636 0.3348 0.2422
C17 C 0.8354(5) 0.1325(3) 0.9097(3)
H12 H 0.7350 0.0777 0.9278
H13 H 0.9598 0.1788 0.9775
C18 C 0.9655(5) 0.0682(3) 0.8178(3)
H14 H 0.8420 0.0230 0.7493
H15 H 1.0705 0.1226 0.8010
C19 C 1.1221(6) -0.0093(3) 0.8518(3)
H16 H 1.2369 0.0344 0.9224
H17 H 1.2136 -0.0439 0.7940
H18 H 1.0165 -0.0683 0.8607
S1A S -0.11247(13) 0.56059(6) 1.40765(6)
S2A S -0.50689(12) 0.71658(6) 1.02894(6)
C1A C -0.3172(5) 0.6411(2) 1.4744(3)
C2A C -0.4444(5) 0.6873(2) 1.4098(2)
H1A H -0.5657 0.7328 1.4325
C3A C -0.3771(5) 0.6608(2) 1.3042(2)
C4A C -0.2003(5) 0.5899(2) 1.2898(2)
C5A C -0.6737(5) 0.7923(2) 1.1218(2)
C6A C -0.6314(5) 0.7725(2) 1.2163(2)
H2A H -0.7076 0.8062 1.2771
C7A C -0.4600(5) 0.6955(2) 1.2163(2)
C8A C -0.3704(5) 0.6564(2) 1.1183(2)
C9A C -0.1918(5) 0.5799(2) 1.1015(2)
C10A C -0.1072(5) 0.5489(2) 1.1920(2)
C11A C 0.0761(5) 0.4781(2) 1.1842(2)
H3A H 0.1324 0.4579 1.2452
C12A C -0.0916(5) 0.5360(2) 1.0028(2)
C13A C -0.1722(5) 0.5610(2) 0.9079(2)
H4A H -0.2970 0.6065 0.9091
C14A C -0.3263(5) 0.6526(2) 1.5914(2)
H5A H -0.3859 0.5778 1.5900
H6A H -0.1583 0.6773 1.6374
C15A C -0.4896(5) 0.7353(3) 1.6463(3)
H7A H -0.4279 0.8112 1.6509
H8A H -0.6579 0.7121 1.6005
C16A C -0.4931(6) 0.7393(3) 1.7628(3)
H9A H -0.3256 0.7597 1.8072
H10A H -0.5923 0.7954 1.7985
H11A H -0.5636 0.6652 1.7578
C17A C -0.8354(5) 0.8675(3) 1.0903(3)
H12A H -0.7350 0.9223 1.0722
H13A H -0.9598 0.8212 1.0225
C18A C -0.9655(5) 0.9318(3) 1.1822(3)
H14A H -0.8420 0.9770 1.2507
H15A H -1.0705 0.8774 1.1990
C19A C -1.1221(6) 1.0093(3) 1.1482(3)
H16A H -1.2369 0.9656 1.0776
H17A H -1.2136 1.0439 1.2060
H18A H -1.0165 1.0683 1.1393
C20 C -0.0099(5) 0.0958(3) 0.4752(3)
H19 H -0.0218 0.1314 0.4202
H20 H -0.0099 0.1544 0.5489
C21 C 0.2275(5) -0.0047(3) 0.5574(3)
H21 H 0.2326 0.0516 0.6329
H22 H 0.3799 -0.0380 0.5593
O1 O 0.2136(3) 0.04966(18) 0.47988(19)
C20A C 0.0099(5) -0.0958(3) 0.5248(3)
H19A H 0.0218 -0.1314 0.5798
H20A H 0.0099 -0.1544 0.4511
C21A C -0.2275(5) 0.0047(3) 0.4426(3)
H21A H -0.2326 -0.0516 0.3671
H22A H -0.3799 0.0380 0.4407
O1A O -0.2136(3) -0.04966(18) 0.52012(19)
loop_
_geom_bond_atom_site_label_1
_geom_bond_atom_site_label_2
_geom_bond_site_symmetry_1
_geom_bond_site_symmetry_2
S1 C1 1_555 1_555
S2 C5 1_555 1_555
C1 C2 1_555 1_555
C2 H1 1_555 1_555
C3 C2 1_555 1_555
C4 S1 1_555 1_555
C5 C6 1_555 1_555
C6 H2 1_555 1_555
C7 C3 1_555 1_555
C8 S2 1_555 1_555
C9 C8 1_555 1_555
C10 C4 1_555 1_555
C11 C10 1_555 1_555
H3 C11 1_555 1_555
C12 C9 1_555 1_555
C13 C12 1_555 1_555
H4 C13 1_555 1_555
C14 C1 1_555 1_555
H5 C14 1_555 1_555
H6 C14 1_555 1_555
C15 C14 1_555 1_555
H7 C15 1_555 1_555
H8 C15 1_555 1_555
C16 C15 1_555 1_555
H9 C16 1_555 1_555
H10 C16 1_555 1_555
H11 C16 1_555 1_555
C17 C5 1_555 1_555
H12 C17 1_555 1_555
H13 C17 1_555 1_555
C18 C17 1_555 1_555
H14 C18 1_555 1_555
H15 C18 1_555 1_555
C19 C18 1_555 1_555
H16 C19 1_555 1_555
H17 C19 1_555 1_555
H18 C19 1_555 1_555
C20 H19 1_555 1_555
H20 C20 1_555 1_555
C21 H21 1_555 1_555
H22 C21 1_555 1_555
O1 C20 1_555 1_555
S1A C1A 1_555 1_555
S2A C5A 1_555 1_555
C1A C2A 1_555 1_555
C2A H1A 1_555 1_555
C3A C2A 1_555 1_555
C4A S1A 1_555 1_555
C5A C6A 1_555 1_555
C6A H2A 1_555 1_555
C7A C3A 1_555 1_555
C8A S2A 1_555 1_555
C9A C8A 1_555 1_555
C10A C4A 1_555 1_555
C11A C13 1_555 1_555
H3A C11A 1_555 1_555
C12A C12 1_555 1_555
C13A C11 1_555 1_555
H4A C13A 1_555 1_555
C14A C1A 1_555 1_555
H5A C14A 1_555 1_555
H6A C14A 1_555 1_555
C15A C14A 1_555 1_555
H7A C15A 1_555 1_555
H8A C15A 1_555 1_555
C16A C15A 1_555 1_555
H9A C16A 1_555 1_555
H10A C16A 1_555 1_555
H11A C16A 1_555 1_555
C17A C5A 1_555 1_555
H12A C17A 1_555 1_555
H13A C17A 1_555 1_555
C18A C17A 1_555 1_555
H14A C18A 1_555 1_555
H15A C18A 1_555 1_555
C19A C18A 1_555 1_555
H16A C19A 1_555 1_555
H17A C19A 1_555 1_555
H18A C19A 1_555 1_555
C20A C21 1_555 1_555
H19A C20A 1_555 1_555
H20A C20A 1_555 1_555
C21A C20 1_555 1_555
H21A C21A 1_555 1_555
H22A C21A 1_555 1_555
O1A C20A 1_555 1_555
C3 C4 1_555 1_555
C6 C7 1_555 1_555
C7 C8 1_555 1_555
C9 C10 1_555 1_555
C21 O1 1_555 1_555
C3A C4A 1_555 1_555
C6A C7A 1_555 1_555
C7A C8A 1_555 1_555
C9A C10A 1_555 1_555
C9A C12A 1_555 1_555
C10A C11A 1_555 1_555
C12A C13A 1_555 1_555
C21A O1A 1_555 1_555

#END
