
#######################################################################
#
#                 Cambridge Crystallographic Data Centre
#                                CCDC 
#
#######################################################################
#
# If this CIF has been generated from an entry in the Cambridge 
# Structural Database, then it will include bibliographic, chemical, 
# crystal, experimental, refinement or atomic coordinate data resulting 
# from the CCDC's data processing and validation procedures.
#
#######################################################################

data_NUMDEG
_chemical_formula_moiety         'C22 H21 F3 N2 O3 S1'
_chemical_name_systematic        
N-(8a-(2,4-difluorophenyl)-4-(fluoromethyl)-6-(hydroxymethyl)-4,4a,5,6,8,8a-hexahydropyrano[3,4-d][1,3]thiazin-2-yl)benzamide
_symmetry_cell_setting           orthorhombic
_symmetry_space_group_name_H-M   'P 21 21 21'
_symmetry_Int_Tables_number      19
_space_group_name_Hall           'P 2ac 2ab'
loop_
_symmetry_equiv_pos_site_id
_symmetry_equiv_pos_as_xyz
1 x,y,z
2 1/2-x,-y,1/2+z
3 -x,1/2+y,1/2-z
4 1/2+x,1/2-y,-z
_cell_length_a                   10.9786(4)
_cell_length_b                   11.5484(4)
_cell_length_c                   16.9703(6)
_cell_angle_alpha                90
_cell_angle_beta                 90
_cell_angle_gamma                90
_cell_volume                     2151.58
_cell_formula_units_Z            4
loop_
_atom_site_label
_atom_site_type_symbol
_atom_site_fract_x
_atom_site_fract_y
_atom_site_fract_z
C1 C 0.1906(2) 0.6227(2) -0.03014(13)
C2 C 0.2816(3) 0.6823(2) -0.06839(13)
H1 H 0.2671 0.7532 -0.0926
C3 C 0.3934(3) 0.6326(3) -0.06909(15)
C4 C 0.4181(3) 0.5307(3) -0.03395(16)
H2 H 0.4966 0.5004 -0.0341
C5 C 0.3234(2) 0.4724(2) 0.00235(13)
H3 H 0.3394 0.4012 0.0257
C6 C 0.2055(2) 0.51556(19) 0.00542(11)
C7 C 0.1008(2) 0.44727(18) 0.04232(12)
C8 C 0.0038(2) 0.4258(2) -0.02197(12)
H4 H -0.0217 0.4996 -0.0437
H5 H 0.0399 0.3808 -0.0642
C9 C -0.1605(2) 0.4316(2) 0.06735(13)
H6 H -0.1837 0.5072 0.0457
C10 C -0.0768(2) 0.4504(2) 0.13713(12)
H7 H -0.0572 0.3762 0.1608
H8 H -0.1182 0.4970 0.1764
C11 C 0.0403(2) 0.51073(19) 0.11223(12)
H9 H 0.0172 0.5878 0.0932
C12 C -0.2743(2) 0.3663(2) 0.08903(15)
H10 H -0.2533 0.2867 0.1013
H11 H -0.3101 0.4007 0.1358
C13 C 0.1333(2) 0.5291(2) 0.17813(13)
H12 H 0.2022 0.5720 0.1560
C14 C 0.1851(2) 0.30737(19) 0.13311(12)
C15 C 0.2778(2) 0.13920(19) 0.20425(13)
C16 C 0.3191(2) 0.01889(18) 0.19035(12)
C17 C 0.4232(2) -0.0203(2) 0.22847(15)
H13 H 0.4657 0.0289 0.2620
C18 C 0.4637(3) -0.1329(3) 0.21645(19)
H14 H 0.5345 -0.1590 0.2408
C19 C 0.3984(3) -0.2050(3) 0.1685(2)
H15 H 0.4243 -0.2809 0.1613
C20 C 0.2976(3) -0.1680(2) 0.13176(17)
H16 H 0.2545 -0.2182 0.0993
C21 C 0.2580(2) -0.0564(2) 0.14188(15)
H17 H 0.1886 -0.0313 0.1155
F1 F 0.07943(14) 0.67474(12) -0.02771(9)
F2 F 0.48483(15) 0.69032(15) -0.10753(10)
C22 C 0.0835(3) 0.5985(3) 0.24648(16)
H18 H 0.0466 0.6692 0.2269
H19 H 0.0211 0.5540 0.2733
F3 F 0.1739(2) 0.62514(19) 0.29789(12)
N1 N 0.14530(16) 0.33252(15) 0.06457(10)
N2 N 0.23113(19) 0.19432(16) 0.14062(11)
O1 O -0.09995(14) 0.36622(12) 0.00716(8)
O2 O -0.36081(15) 0.36781(16) 0.02702(11)
O3 O 0.28468(19) 0.18488(15) 0.26879(10)
S1 S 0.19175(6) 0.39329(5) 0.21818(3)
H20 H 0.226(2) 0.153(2) 0.0937(12)
H21 H -0.362(4) 0.294(2) -0.002(2)
H22? H 0.1520 0.6170 0.2804
H23? H 0.0542 0.6712 0.2251
F4? F 0.0022(9) 0.5599(9) 0.2892(5)
loop_
_geom_bond_atom_site_label_1
_geom_bond_atom_site_label_2
_geom_bond_site_symmetry_1
_geom_bond_site_symmetry_2
C1 C2 1_555 1_555
C2 H1 1_555 1_555
C3 C2 1_555 1_555
C4 C3 1_555 1_555
H2 C4 1_555 1_555
C5 C4 1_555 1_555
H3 C5 1_555 1_555
C6 C1 1_555 1_555
C7 C6 1_555 1_555
C8 C7 1_555 1_555
H4 C8 1_555 1_555
H5 C8 1_555 1_555
C9 H6 1_555 1_555
C10 C9 1_555 1_555
H7 C10 1_555 1_555
H8 C10 1_555 1_555
C11 C7 1_555 1_555
H9 C11 1_555 1_555
C12 C9 1_555 1_555
H10 C12 1_555 1_555
H11 C12 1_555 1_555
C13 C11 1_555 1_555
H12 C13 1_555 1_555
C14 N1 1_555 1_555
C15 C16 1_555 1_555
C16 C17 1_555 1_555
C17 H13 1_555 1_555
C18 C17 1_555 1_555
H14 C18 1_555 1_555
C19 C18 1_555 1_555
H15 C19 1_555 1_555
C20 C19 1_555 1_555
H16 C20 1_555 1_555
C21 C16 1_555 1_555
H17 C21 1_555 1_555
F1 C1 1_555 1_555
F2 C3 1_555 1_555
C22 C13 1_555 1_555
H18 C22 1_555 1_555
H19 C22 1_555 1_555
F3 C22 1_555 1_555
N1 C7 1_555 1_555
N2 C14 1_555 1_555
O1 C8 1_555 1_555
O2 C12 1_555 1_555
O3 C15 1_555 1_555
S1 C13 1_555 1_555
H20 N2 1_555 1_555
H21 O2 1_555 1_555
C5 C6 1_555 1_555
C9 O1 1_555 1_555
C10 C11 1_555 1_555
C14 S1 1_555 1_555
C15 N2 1_555 1_555
C20 C21 1_555 1_555

#END
