
#######################################################################
#
#                 Cambridge Crystallographic Data Centre
#                                CCDC 
#
#######################################################################
#
# If this CIF has been generated from an entry in the Cambridge 
# Structural Database, then it will include bibliographic, chemical, 
# crystal, experimental, refinement or atomic coordinate data resulting 
# from the CCDC's data processing and validation procedures.
#
#######################################################################

data_NUMDAC
_chemical_formula_moiety         'C24 H22 F2 N4 O2 S1'
_chemical_name_systematic        
N-(8a-(2,4-difluorophenyl)-6-(1-methyl-1H-pyrazol-4-yl)hexahydropyrano[3,4-d][1,3]thiazin-2(1H)-ylidene)benzamide
_symmetry_cell_setting           monoclinic
_symmetry_space_group_name_H-M   'P 21'
_symmetry_Int_Tables_number      4
_space_group_name_Hall           'P 2yb'
loop_
_symmetry_equiv_pos_site_id
_symmetry_equiv_pos_as_xyz
1 x,y,z
2 -x,1/2+y,-z
_cell_length_a                   9.8090(2)
_cell_length_b                   12.3169(2)
_cell_length_c                   10.1983(2)
_cell_angle_alpha                90
_cell_angle_beta                 117.9320(10)
_cell_angle_gamma                90
_cell_volume                     1088.59
_cell_formula_units_Z            2
loop_
_atom_site_label
_atom_site_type_symbol
_atom_site_fract_x
_atom_site_fract_y
_atom_site_fract_z
C1 C 0.2513(5) 0.8761(4) 0.7563(5)
H1 H 0.3199 0.8206 0.8078
C2 C 0.2222(7) 0.9560(5) 0.8326(6)
H2 H 0.2706 0.9542 0.9358
C3 C 0.1209(6) 1.0397(5) 0.7575(8)
H3 H 0.1012 1.0938 0.8099
C4 C 0.0493(6) 1.0422(5) 0.6037(7)
H4 H -0.0174 1.0986 0.5522
C5 C 0.0776(5) 0.9612(4) 0.5289(6)
H5 H 0.0276 0.9622 0.4257
C6 C 0.1793(4) 0.8771(3) 0.6026(4)
C7 C 0.2218(4) 0.7939(3) 0.5231(4)
C8 C 0.2022(4) 0.7562(3) 0.2909(3)
C9 C 0.4177(3) 0.6703(3) 0.2603(3)
C10 C 0.2997(4) 0.6202(3) 0.1117(3)
H6 H 0.3570 0.5982 0.0590
C11 C 0.1821(4) 0.7048(3) 0.0153(3)
H7 H 0.1078 0.6700 -0.0756
H8 H 0.2351 0.7600 -0.0116
C12 C 0.5094(3) 0.7650(3) 0.2432(3)
C13 C 0.5821(4) 0.7601(3) 0.1545(3)
C14 C 0.6699(5) 0.8439(4) 0.1423(4)
H9 H 0.7174 0.8375 0.0823
C15 C 0.6840(5) 0.9370(4) 0.2226(4)
C16 C 0.6167(5) 0.9470(4) 0.3123(4)
H10 H 0.6274 1.0107 0.3653
C17 C 0.5315(4) 0.8606(3) 0.3233(3)
H11 H 0.4878 0.8668 0.3865
C18 C 0.2295(4) 0.5171(3) 0.1385(3)
H12 H 0.1625 0.4830 0.0442
H13 H 0.1676 0.5358 0.1867
C19 C 0.3565(4) 0.4376(3) 0.2361(3)
H14 H 0.4176 0.4198 0.1857
C20 C 0.5321(3) 0.5806(3) 0.3542(3)
H15 H 0.5913 0.5575 0.3051
H16 H 0.6036 0.6104 0.4501
C21 C 0.2926(4) 0.3343(3) 0.2621(3)
C22 C 0.3185(5) 0.2315(3) 0.2246(4)
H17 H 0.3844 0.2135 0.1856
C23 C 0.2113(6) 0.0468(4) 0.2236(7)
H18 H 0.1552 0.0355 0.1183
H19 H 0.1547 0.0161 0.2701
H20 H 0.3104 0.0124 0.2621
C24 C 0.1865(4) 0.3191(3) 0.3131(4)
H21 H 0.1455 0.3748 0.3454
F1 F 0.5691(3) 0.6699(2) 0.0728(3)
F2 F 0.7668(3) 1.0193(2) 0.2093(3)
H22 H 0.378(4) 0.679(3) 0.442(2)
N1 N 0.1442(3) 0.8014(2) 0.3712(3)
N2 N 0.3367(3) 0.7038(2) 0.3435(3)
N3 N 0.2318(4) 0.1625(3) 0.2545(3)
N4 N 0.1492(4) 0.2132(3) 0.3105(4)
O1 O 0.3201(3) 0.7245(2) 0.5942(3)
O2 O 0.4569(3) 0.48870(19) 0.3759(2)
S1 S 0.08002(10) 0.76971(7) 0.10030(9)
loop_
_geom_bond_atom_site_label_1
_geom_bond_atom_site_label_2
_geom_bond_site_symmetry_1
_geom_bond_site_symmetry_2
C1 H1 1_555 1_555
C2 C1 1_555 1_555
H2 C2 1_555 1_555
C3 C2 1_555 1_555
H3 C3 1_555 1_555
C4 C3 1_555 1_555
H4 C4 1_555 1_555
C5 C4 1_555 1_555
H5 C5 1_555 1_555
C6 C1 1_555 1_555
C7 C6 1_555 1_555
C8 N1 1_555 1_555
C9 C10 1_555 1_555
C10 H6 1_555 1_555
C11 C10 1_555 1_555
H7 C11 1_555 1_555
H8 C11 1_555 1_555
C12 C9 1_555 1_555
C13 C12 1_555 1_555
C14 C13 1_555 1_555
H9 C14 1_555 1_555
C15 C14 1_555 1_555
C16 C15 1_555 1_555
H10 C16 1_555 1_555
C17 C12 1_555 1_555
H11 C17 1_555 1_555
C18 C10 1_555 1_555
H12 C18 1_555 1_555
H13 C18 1_555 1_555
C19 C18 1_555 1_555
H14 C19 1_555 1_555
C20 C9 1_555 1_555
H15 C20 1_555 1_555
H16 C20 1_555 1_555
C21 C19 1_555 1_555
C22 C21 1_555 1_555
H17 C22 1_555 1_555
C23 H18 1_555 1_555
H19 C23 1_555 1_555
H20 C23 1_555 1_555
C24 C21 1_555 1_555
H21 C24 1_555 1_555
F1 C13 1_555 1_555
F2 C15 1_555 1_555
H22 N2 1_555 1_555
N1 C7 1_555 1_555
N2 C8 1_555 1_555
N3 C22 1_555 1_555
N4 C24 1_555 1_555
O1 C7 1_555 1_555
O2 C19 1_555 1_555
S1 C8 1_555 1_555
C5 C6 1_555 1_555
C9 N2 1_555 1_555
C11 S1 1_555 1_555
C16 C17 1_555 1_555
C20 O2 1_555 1_555
C23 N3 1_555 1_555
N3 N4 1_555 1_555

#END
