
#######################################################################
#
#                 Cambridge Crystallographic Data Centre
#                                CCDC 
#
#######################################################################
#
# If this CIF has been generated from an entry in the Cambridge 
# Structural Database, then it will include bibliographic, chemical, 
# crystal, experimental, refinement or atomic coordinate data resulting 
# from the CCDC's data processing and validation procedures.
#
#######################################################################

data_NUMQUI
_chemical_formula_moiety         'C18 H12 Br2 S2'
_chemical_name_systematic        
4-(bis(Methylsulfanyl)methylene)-2,6-dibromo-4H-cyclopenta[def]phenanthrene
_symmetry_cell_setting           triclinic
_symmetry_space_group_name_H-M   'P -1'
_symmetry_Int_Tables_number      2
_space_group_name_Hall           '-P 1'
loop_
_symmetry_equiv_pos_site_id
_symmetry_equiv_pos_as_xyz
1 x,y,z
2 -x,-y,-z
_cell_length_a                   11.1829(8)
_cell_length_b                   11.5384(8)
_cell_length_c                   14.5606(10)
_cell_angle_alpha                109.6670(10)
_cell_angle_beta                 103.2930(10)
_cell_angle_gamma                104.4060(10)
_cell_volume                     1609.04
_exptl_crystal_colour            orange
_exptl_crystal_description       block
_cell_formula_units_Z            4
loop_
_atom_site_label
_atom_site_type_symbol
_atom_site_fract_x
_atom_site_fract_y
_atom_site_fract_z
Br1 Br 0.59560(3) 0.16400(3) 1.10346(3)
Br2 Br 1.29214(3) 0.99348(3) 1.14172(3)
S1 S 0.60149(7) 0.42488(7) 0.84721(6)
S2 S 0.77537(8) 0.70069(8) 0.89658(6)
C1 C 0.8185(3) 0.4671(3) 1.0552(2)
C2 C 0.7186(3) 0.3586(3) 1.0421(2)
H1 H 0.6385 0.3204 0.9849
C3 C 0.7397(3) 0.3060(3) 1.1173(2)
C4 C 0.8537(3) 0.3512(3) 1.1996(2)
H2 H 0.8621 0.3097 1.2459
C5 C 0.9584(3) 0.4610(3) 1.2139(2)
C6 C 1.0849(3) 0.5294(3) 1.2962(2)
H3 H 1.1067 0.4967 1.3472
C7 C 1.1740(3) 0.6395(3) 1.3027(2)
H4 H 1.2559 0.6814 1.3582
C8 C 1.1475(3) 0.6943(3) 1.2277(2)
C9 C 1.2279(3) 0.8071(3) 1.2244(2)
H5 H 1.3121 0.8591 1.2761
C10 C 1.1811(3) 0.8400(3) 1.1442(2)
C11 C 1.0571(3) 0.7707(3) 1.0647(2)
H6 H 1.0307 0.7986 1.0114
C12 C 0.9754(3) 0.6609(3) 1.0670(2)
C13 C 1.0258(3) 0.6267(3) 1.1485(2)
C14 C 0.9338(3) 0.5136(3) 1.1415(2)
C15 C 0.8389(3) 0.5603(3) 1.0037(2)
C16 C 0.7489(3) 0.5601(3) 0.9228(2)
C17 C 0.4795(3) 0.5011(4) 0.8565(4)
H7 H 0.3915 0.4339 0.8169
H8 H 0.4930 0.5674 0.8282
H9 H 0.4876 0.5435 0.9295
C18 C 0.6931(4) 0.6416(4) 0.7589(3)
H10 H 0.7047 0.7163 0.7398
H11 H 0.5991 0.5950 0.7411
H12 H 0.7308 0.5814 0.7209
Br3 Br -0.49767(3) -0.33364(3) 0.51603(3)
Br4 Br 0.24656(3) 0.48109(3) 0.58019(3)
S3 S 0.03243(8) -0.09450(7) 0.74568(6)
S4 S 0.21262(8) 0.18566(8) 0.80885(6)
C19 C -0.1579(3) -0.0271(3) 0.5865(2)
C20 C -0.2465(3) -0.1359(3) 0.5854(2)
H13 H -0.2202 -0.1772 0.6290
C21 C -0.3774(3) -0.1833(3) 0.5173(2)
C22 C -0.4244(3) -0.1293(3) 0.4515(2)
H14 H -0.5138 -0.1660 0.4074
C23 C -0.3357(3) -0.0181(3) 0.4517(2)
C24 C -0.3603(3) 0.0572(3) 0.3923(3)
H15 H -0.4468 0.0323 0.3461
C25 C -0.2640(3) 0.1623(3) 0.4005(2)
H16 H -0.2849 0.2080 0.3592
C26 C -0.1305(3) 0.2071(3) 0.4699(2)
C27 C -0.0206(3) 0.3130(3) 0.4869(2)
H17 H -0.0274 0.3659 0.4494
C28 C 0.0977(3) 0.3381(3) 0.5595(2)
C29 C 0.1180(3) 0.2665(3) 0.6199(2)
H18 H 0.2017 0.2894 0.6693
C30 C 0.0113(3) 0.1619(3) 0.6044(2)
C31 C -0.1079(3) 0.1360(3) 0.5286(2)
C32 C -0.2071(3) 0.0267(3) 0.5196(2)
C33 C -0.0160(3) 0.0590(3) 0.6463(2)
C34 C 0.0683(3) 0.0504(3) 0.7257(2)
C35 C 0.0671(4) -0.0388(3) 0.8832(2)
H19 H 0.0492 -0.1149 0.9005
H20 H 0.0113 0.0110 0.9040
H21 H 0.1598 0.0179 0.9201
C36 C 0.3335(3) 0.1181(4) 0.8490(3)
H22 H 0.4165 0.1900 0.8960
H23 H 0.3474 0.0622 0.7879
H24 H 0.3024 0.0654 0.8851
loop_
_geom_bond_atom_site_label_1
_geom_bond_atom_site_label_2
_geom_bond_site_symmetry_1
_geom_bond_site_symmetry_2
Br1 C3 1_555 1_555
Br2 C10 1_555 1_555
Br3 C21 1_555 1_555
Br4 C28 1_555 1_555
S1 C16 1_555 1_555
S2 C16 1_555 1_555
S3 C34 1_555 1_555
S4 C34 1_555 1_555
C1 C2 1_555 1_555
C2 H1 1_555 1_555
C3 C2 1_555 1_555
C4 C3 1_555 1_555
H2 C4 1_555 1_555
C5 C4 1_555 1_555
C6 C5 1_555 1_555
H3 C6 1_555 1_555
C7 C6 1_555 1_555
H4 C7 1_555 1_555
C8 C7 1_555 1_555
C9 C8 1_555 1_555
H5 C9 1_555 1_555
C10 C9 1_555 1_555
C11 C10 1_555 1_555
H6 C11 1_555 1_555
C12 C11 1_555 1_555
C13 C8 1_555 1_555
C14 C1 1_555 1_555
C15 C1 1_555 1_555
C16 C15 1_555 1_555
C17 S1 1_555 1_555
H7 C17 1_555 1_555
H8 C17 1_555 1_555
H9 C17 1_555 1_555
C18 S2 1_555 1_555
H10 C18 1_555 1_555
H11 C18 1_555 1_555
H12 C18 1_555 1_555
C19 C20 1_555 1_555
C20 H13 1_555 1_555
C21 C20 1_555 1_555
C22 C21 1_555 1_555
H14 C22 1_555 1_555
C23 C22 1_555 1_555
C24 C23 1_555 1_555
H15 C24 1_555 1_555
C25 C24 1_555 1_555
H16 C25 1_555 1_555
C26 C25 1_555 1_555
C27 C26 1_555 1_555
H17 C27 1_555 1_555
C28 C27 1_555 1_555
C29 C28 1_555 1_555
H18 C29 1_555 1_555
C30 C29 1_555 1_555
C31 C26 1_555 1_555
C32 C19 1_555 1_555
C33 C19 1_555 1_555
C34 C33 1_555 1_555
C35 S3 1_555 1_555
H19 C35 1_555 1_555
H20 C35 1_555 1_555
H21 C35 1_555 1_555
C36 S4 1_555 1_555
H22 C36 1_555 1_555
H23 C36 1_555 1_555
H24 C36 1_555 1_555
C5 C14 1_555 1_555
C12 C13 1_555 1_555
C12 C15 1_555 1_555
C13 C14 1_555 1_555
C23 C32 1_555 1_555
C30 C31 1_555 1_555
C30 C33 1_555 1_555
C31 C32 1_555 1_555

#END
