
#######################################################################
#
#                 Cambridge Crystallographic Data Centre
#                                CCDC 
#
#######################################################################
#
# If this CIF has been generated from an entry in the Cambridge 
# Structural Database, then it will include bibliographic, chemical, 
# crystal, experimental, refinement or atomic coordinate data resulting 
# from the CCDC's data processing and validation procedures.
#
#######################################################################

data_NUMTUM
_chemical_formula_moiety         'C26 H26 I1 N1 O1'
_chemical_name_systematic        
2-(1-Benzyl-4-benzylidenepyrrolidin-3-yl)-1-(2-iodophenyl)ethanol
_symmetry_cell_setting           monoclinic
_symmetry_space_group_name_H-M   'C 2/c'
_symmetry_Int_Tables_number      15
_space_group_name_Hall           '-C 2yn'
loop_
_symmetry_equiv_pos_site_id
_symmetry_equiv_pos_as_xyz
1 x,y,z
2 -x,y,1/2-z
3 1/2+x,1/2+y,z
4 1/2-x,1/2+y,1/2-z
5 -x,-y,-z
6 x,-y,1/2+z
7 1/2-x,1/2-y,-z
8 1/2+x,1/2-y,1/2+z
_cell_length_a                   25.5603(11)
_cell_length_b                   9.1949(4)
_cell_length_c                   22.2527(14)
_cell_angle_alpha                90
_cell_angle_beta                 120.6740(10)
_cell_angle_gamma                90
_cell_volume                     4498.18
_exptl_crystal_colour            colorless
_exptl_crystal_description       prism
_cell_formula_units_Z            8
loop_
_atom_site_label
_atom_site_type_symbol
_atom_site_fract_x
_atom_site_fract_y
_atom_site_fract_z
I1 I 0.714055(8) 0.17936(2) 0.363658(8)
N1 N 0.87109(8) 0.1891(2) 0.32994(9)
C1 C 0.83318(10) 0.0568(3) 0.30115(12)
H1 H 0.8087 0.0390 0.3235
H2 H 0.8587 -0.0297 0.3079
C2 C 0.79231(10) 0.0924(3) 0.22347(12)
H3 H 0.7827 0.0009 0.1955
C3 C 0.83323(10) 0.1884(3) 0.20899(12)
C4 C 0.88873(10) 0.2257(3) 0.27821(12)
H4 H 0.9243 0.1674 0.2861
H5 H 0.8988 0.3303 0.2805
C5 C 0.73295(10) 0.1675(3) 0.20744(12)
H6 H 0.7143 0.2143 0.1609
H7 H 0.7422 0.2445 0.2426
C6 C 0.68734(10) 0.0595(3) 0.20822(11)
H8 H 0.7081 0.0013 0.2523
C7 C 0.63414(10) 0.1414(3) 0.20457(12)
C8 C 0.63613(11) 0.2002(3) 0.26362(13)
C9 C 0.58810(13) 0.2802(4) 0.25898(16)
H9 H 0.5905 0.3183 0.3000
C10 C 0.53705(13) 0.3039(4) 0.19471(18)
H10 H 0.5041 0.3587 0.1913
C11 C 0.53357(11) 0.2484(3) 0.13551(15)
H11 H 0.4984 0.2659 0.0912
C12 C 0.58140(11) 0.1667(3) 0.14022(14)
H12 H 0.5783 0.1281 0.0989
C13 C 0.92465(10) 0.1633(3) 0.39959(12)
H13 H 0.9494 0.2531 0.4159
H14 H 0.9500 0.0859 0.3962
C14 C 0.90709(10) 0.1189(3) 0.45220(11)
C15 C 0.87687(11) 0.2143(3) 0.47226(12)
H15 H 0.8673 0.3094 0.4529
C16 C 0.86031(12) 0.1731(3) 0.52030(13)
H16 H 0.8394 0.2397 0.5333
C17 C 0.87415(13) 0.0362(3) 0.54906(14)
H17 H 0.8627 0.0077 0.5818
C18 C 0.90481(15) -0.0597(3) 0.53020(16)
H18 H 0.9148 -0.1541 0.5504
C19 C 0.92101(13) -0.0187(3) 0.48188(14)
H19 H 0.9419 -0.0856 0.4690
C20 C 0.81998(11) 0.2277(3) 0.14511(13)
H20 H 0.7815 0.1956 0.1085
C21 C 0.85539(12) 0.3130(3) 0.12215(13)
C22 C 0.82582(14) 0.3626(3) 0.05316(14)
H21 H 0.7834 0.3455 0.0239
C23 C 0.85683(15) 0.4361(3) 0.02644(15)
H22 H 0.8360 0.4667 -0.0210
C24 C 0.91805(14) 0.4647(3) 0.06882(16)
H23 H 0.9396 0.5141 0.0506
C25 C 0.94773(13) 0.4214(3) 0.13767(16)
H24 H 0.9895 0.4442 0.1675
C26 C 0.91690(12) 0.3445(3) 0.16375(14)
H25 H 0.9383 0.3129 0.2110
O1 O 0.66827(8) -0.03473(19) 0.15010(9)
H26 H 0.6566 -0.1290 0.1626
I1D I 0.285945(8) -0.17936(2) -0.363658(8)
N1D N 0.12891(8) -0.1891(2) -0.32994(9)
C1D C 0.16682(10) -0.0568(3) -0.30115(12)
H1D H 0.1913 -0.0390 -0.3235
H2D H 0.1413 0.0297 -0.3079
C2D C 0.20769(10) -0.0924(3) -0.22347(12)
H3D H 0.2173 -0.0009 -0.1955
C3D C 0.16677(10) -0.1884(3) -0.20899(12)
C4D C 0.11127(10) -0.2257(3) -0.27821(12)
H4D H 0.0757 -0.1674 -0.2861
H5D H 0.1012 -0.3303 -0.2805
C5D C 0.26705(10) -0.1675(3) -0.20744(12)
H6D H 0.2857 -0.2143 -0.1609
H7D H 0.2578 -0.2445 -0.2426
C6D C 0.31266(10) -0.0595(3) -0.20822(11)
H8D H 0.2919 -0.0013 -0.2523
C7D C 0.36586(10) -0.1414(3) -0.20457(12)
C8D C 0.36387(11) -0.2002(3) -0.26362(13)
C9D C 0.41190(13) -0.2802(4) -0.25898(16)
H9D H 0.4095 -0.3183 -0.3000
C10D C 0.46295(13) -0.3039(4) -0.19471(18)
H10D H 0.4959 -0.3587 -0.1913
C11D C 0.46643(11) -0.2484(3) -0.13551(15)
H11D H 0.5016 -0.2659 -0.0912
C12D C 0.41860(11) -0.1667(3) -0.14022(14)
H12D H 0.4217 -0.1281 -0.0989
C13D C 0.07535(10) -0.1633(3) -0.39959(12)
H13D H 0.0506 -0.2531 -0.4159
H14D H 0.0500 -0.0859 -0.3962
C14D C 0.09291(10) -0.1189(3) -0.45220(11)
C15D C 0.12313(11) -0.2143(3) -0.47226(12)
H15D H 0.1327 -0.3094 -0.4529
C16D C 0.13969(12) -0.1731(3) -0.52030(13)
H16D H 0.1606 -0.2397 -0.5333
C17D C 0.12585(13) -0.0362(3) -0.54906(14)
H17D H 0.1373 -0.0077 -0.5818
C18D C 0.09519(15) 0.0597(3) -0.53020(16)
H18D H 0.0852 0.1541 -0.5504
C19D C 0.07899(13) 0.0187(3) -0.48188(14)
H19D H 0.0581 0.0856 -0.4690
C20D C 0.18002(11) -0.2277(3) -0.14511(13)
H20D H 0.2185 -0.1956 -0.1085
C21D C 0.14461(12) -0.3130(3) -0.12215(13)
C22D C 0.17418(14) -0.3626(3) -0.05316(14)
H21D H 0.2166 -0.3455 -0.0239
C23D C 0.14317(15) -0.4361(3) -0.02644(15)
H22D H 0.1640 -0.4667 0.0210
C24D C 0.08195(14) -0.4647(3) -0.06882(16)
H23D H 0.0604 -0.5141 -0.0506
C25D C 0.05227(13) -0.4214(3) -0.13767(16)
H24D H 0.0105 -0.4442 -0.1675
C26D C 0.08310(12) -0.3445(3) -0.16375(14)
H25D H 0.0617 -0.3129 -0.2110
O1D O 0.33173(8) 0.03473(19) -0.15010(9)
H26D H 0.3434 0.1290 -0.1626
I2? I 0.5519(3) 0.0827(7) 0.0449(3)
H27? H 0.6714 0.1854 0.3082
loop_
_geom_bond_atom_site_label_1
_geom_bond_atom_site_label_2
_geom_bond_site_symmetry_1
_geom_bond_site_symmetry_2
I1 C8 1_555 1_555
N1 C1 1_555 1_555
C1 H1 1_555 1_555
H2 C1 1_555 1_555
C2 C1 1_555 1_555
H3 C2 1_555 1_555
C3 C2 1_555 1_555
C4 N1 1_555 1_555
H4 C4 1_555 1_555
H5 C4 1_555 1_555
C5 C2 1_555 1_555
H6 C5 1_555 1_555
H7 C5 1_555 1_555
C6 C5 1_555 1_555
H8 C6 1_555 1_555
C7 C6 1_555 1_555
C8 C7 1_555 1_555
C9 C8 1_555 1_555
H9 C9 1_555 1_555
C10 C9 1_555 1_555
H10 C10 1_555 1_555
C11 C10 1_555 1_555
H11 C11 1_555 1_555
C12 C7 1_555 1_555
H12 C12 1_555 1_555
C13 N1 1_555 1_555
H13 C13 1_555 1_555
H14 C13 1_555 1_555
C14 C13 1_555 1_555
C15 C14 1_555 1_555
H15 C15 1_555 1_555
C16 C15 1_555 1_555
H16 C16 1_555 1_555
C17 C16 1_555 1_555
H17 C17 1_555 1_555
C18 C17 1_555 1_555
H18 C18 1_555 1_555
C19 C14 1_555 1_555
H19 C19 1_555 1_555
C20 C3 1_555 1_555
H20 C20 1_555 1_555
C21 C20 1_555 1_555
C22 C21 1_555 1_555
H21 C22 1_555 1_555
C23 C22 1_555 1_555
H22 C23 1_555 1_555
C24 C23 1_555 1_555
H23 C24 1_555 1_555
C25 C24 1_555 1_555
H24 C25 1_555 1_555
C26 C21 1_555 1_555
H25 C26 1_555 1_555
O1 C6 1_555 1_555
H26 O1 1_555 1_555
I1D C8D 1_555 1_555
N1D C1D 1_555 1_555
C1D H1D 1_555 1_555
H2D C1D 1_555 1_555
C2D C1D 1_555 1_555
H3D C2D 1_555 1_555
C3D C2D 1_555 1_555
C4D N1D 1_555 1_555
H4D C4D 1_555 1_555
H5D C4D 1_555 1_555
C5D C2D 1_555 1_555
H6D C5D 1_555 1_555
H7D C5D 1_555 1_555
C6D C5D 1_555 1_555
H8D C6D 1_555 1_555
C7D C6D 1_555 1_555
C8D C7D 1_555 1_555
C9D C8D 1_555 1_555
H9D C9D 1_555 1_555
C10D C9D 1_555 1_555
H10D C10D 1_555 1_555
C11D C10D 1_555 1_555
H11D C11D 1_555 1_555
C12D C7D 1_555 1_555
H12D C12D 1_555 1_555
C13D N1D 1_555 1_555
H13D C13D 1_555 1_555
H14D C13D 1_555 1_555
C14D C13D 1_555 1_555
C15D C14D 1_555 1_555
H15D C15D 1_555 1_555
C16D C15D 1_555 1_555
H16D C16D 1_555 1_555
C17D C16D 1_555 1_555
H17D C17D 1_555 1_555
C18D C17D 1_555 1_555
H18D C18D 1_555 1_555
C19D C14D 1_555 1_555
H19D C19D 1_555 1_555
C20D C3D 1_555 1_555
H20D C20D 1_555 1_555
C21D C20D 1_555 1_555
C22D C21D 1_555 1_555
H21D C22D 1_555 1_555
C23D C22D 1_555 1_555
H22D C23D 1_555 1_555
C24D C23D 1_555 1_555
H23D C24D 1_555 1_555
C25D C24D 1_555 1_555
H24D C25D 1_555 1_555
C26D C21D 1_555 1_555
H25D C26D 1_555 1_555
O1D C6D 1_555 1_555
H26D O1D 1_555 1_555
C3 C4 1_555 1_555
C11 C12 1_555 1_555
C18 C19 1_555 1_555
C25 C26 1_555 1_555
C3D C4D 1_555 1_555
C11D C12D 1_555 1_555
C18D C19D 1_555 1_555
C25D C26D 1_555 1_555

#END
