
#######################################################################
#
#                 Cambridge Crystallographic Data Centre
#                                CCDC 
#
#######################################################################
#
# If this CIF has been generated from an entry in the Cambridge 
# Structural Database, then it will include bibliographic, chemical, 
# crystal, experimental, refinement or atomic coordinate data resulting 
# from the CCDC's data processing and validation procedures.
#
#######################################################################

data_NUMWEZ
_chemical_compound_source        'Aspergillus ochraceopetaliformis SCSIO 05702'
_chemical_formula_moiety         'C22 H30 O6'
_chemical_name_systematic        
4a,6-dihydroxy-4,4,6a,8,9,12b-hexamethyl-1,4a,5,6,6a,12,12a,12b-octahydro-2H,11H-benzo[f]pyrano[4,3-b]chromene-3,11(4H)-dione
_chemical_properties_biological  
'tested for antiviral, cytotoxic, antibacterial, and antitubercular activity'
_symmetry_cell_setting           triclinic
_symmetry_space_group_name_H-M   'P 1'
_symmetry_Int_Tables_number      1
_space_group_name_Hall           'P 1'
loop_
_symmetry_equiv_pos_site_id
_symmetry_equiv_pos_as_xyz
1 x,y,z
_cell_length_a                   7.4876(11)
_cell_length_b                   7.5455(12)
_cell_length_c                   10.2187(16)
_cell_angle_alpha                101.928(13)
_cell_angle_beta                 99.986(13)
_cell_angle_gamma                111.845(14)
_cell_volume                     503.997
_cell_formula_units_Z            1
loop_
_atom_site_label
_atom_site_type_symbol
_atom_site_fract_x
_atom_site_fract_y
_atom_site_fract_z
O1 O 0.2008(6) 0.1386(6) 0.7629(5)
O2 O 0.2934(7) -0.0494(6) 0.6214(5)
O3 O 0.4844(6) 0.6312(6) 0.6494(4)
O4 O 0.4953(7) 0.8169(6) 0.4545(5)
H1 H 0.4444 0.8585 0.5114
O5 O 0.5157(6) 0.6031(6) 0.2228(4)
H2 H 0.4679 0.6592 0.2745
O6 O 0.6984(8) 0.4587(8) -0.0552(5)
C1 C 0.2976(9) 0.1153(9) 0.6630(6)
C2 C 0.3921(9) 0.2856(8) 0.6180(6)
C3 C 0.3895(9) 0.4605(9) 0.6813(6)
C4 C 0.2869(9) 0.4801(9) 0.7861(7)
C5 C 0.1986(10) 0.3179(10) 0.8248(7)
C6 C 0.0849(11) 0.2971(11) 0.9306(8)
H3 H 0.0075 0.3736 0.9263
H4 H 0.1767 0.3453 1.0215
H5 H -0.0029 0.1588 0.9122
C7 C 0.4983(9) 0.2625(8) 0.5079(6)
H6 H 0.4120 0.1431 0.4314
H7 H 0.6184 0.2483 0.5463
C8 C 0.5541(9) 0.4469(9) 0.4546(6)
H8 H 0.4277 0.4392 0.4016
C9 C 0.6410(9) 0.6382(9) 0.5783(7)
C10 C 0.6794(9) 0.8221(9) 0.5254(7)
H9 H 0.7495 0.9439 0.6045
C11 C 0.8039(9) 0.8264(9) 0.4239(6)
H10 H 0.9358 0.8450 0.4728
H11 H 0.8203 0.9406 0.3896
C12 C 0.7135(9) 0.6359(9) 0.2988(6)
C13 C 0.6844(9) 0.4484(9) 0.3519(7)
C14 C 0.5666(11) 0.2609(9) 0.2236(7)
H12 H 0.5599 0.1434 0.2510
H13 H 0.4308 0.2471 0.1929
C15 C 0.6598(12) 0.2685(10) 0.1017(7)
H14 H 0.7762 0.2407 0.1231
H15 H 0.5640 0.1620 0.0202
C16 C 0.7233(10) 0.4630(11) 0.0644(7)
C17 C 0.8297(10) 0.6573(10) 0.1859(7)
C18 C 0.8237(9) 0.6739(9) 0.6900(7)
H16 H 0.8004 0.5556 0.7186
H17 H 0.8483 0.7834 0.7686
H18 H 0.9379 0.7053 0.6536
C19 C 0.8854(9) 0.4436(10) 0.4192(7)
H19 H 0.9333 0.3871 0.3477
H20 H 0.8639 0.3636 0.4818
H21 H 0.9826 0.5772 0.4698
C20 C 0.8277(11) 0.8340(10) 0.1298(7)
H22 H 0.6953 0.8285 0.1123
H23 H 0.8669 0.8236 0.0449
H24 H 0.9197 0.9585 0.1976
C21 C 1.0535(10) 0.6945(10) 0.2296(8)
H25 H 1.1184 0.7913 0.3198
H26 H 1.1184 0.7436 0.1630
H27 H 1.0616 0.5714 0.2330
C22 C 0.2972(11) 0.6818(9) 0.8558(7)
H28 H 0.4312 0.7680 0.9124
H29 H 0.2068 0.6664 0.9131
H30 H 0.2601 0.7395 0.7862
loop_
_geom_bond_atom_site_label_1
_geom_bond_atom_site_label_2
_geom_bond_site_symmetry_1
_geom_bond_site_symmetry_2
O1 C1 1_555 1_555
O2 C1 1_555 1_555
O3 C3 1_555 1_555
O4 H1 1_555 1_555
O5 H2 1_555 1_555
O6 C16 1_555 1_555
C1 C2 1_555 1_555
C2 C3 1_555 1_555
C3 C4 1_555 1_555
C4 C5 1_555 1_555
C5 O1 1_555 1_555
C6 C5 1_555 1_555
H3 C6 1_555 1_555
H4 C6 1_555 1_555
H5 C6 1_555 1_555
C7 C2 1_555 1_555
H6 C7 1_555 1_555
H7 C7 1_555 1_555
C8 C7 1_555 1_555
H8 C8 1_555 1_555
C9 O3 1_555 1_555
C10 O4 1_555 1_555
H9 C10 1_555 1_555
C11 C10 1_555 1_555
H10 C11 1_555 1_555
H11 C11 1_555 1_555
C12 O5 1_555 1_555
C13 C8 1_555 1_555
C14 C13 1_555 1_555
H12 C14 1_555 1_555
H13 C14 1_555 1_555
C15 C14 1_555 1_555
H14 C15 1_555 1_555
H15 C15 1_555 1_555
C16 C15 1_555 1_555
C17 C12 1_555 1_555
C18 C9 1_555 1_555
H16 C18 1_555 1_555
H17 C18 1_555 1_555
H18 C18 1_555 1_555
C19 C13 1_555 1_555
H19 C19 1_555 1_555
H20 C19 1_555 1_555
H21 C19 1_555 1_555
C20 C17 1_555 1_555
H22 C20 1_555 1_555
H23 C20 1_555 1_555
H24 C20 1_555 1_555
C21 C17 1_555 1_555
H25 C21 1_555 1_555
H26 C21 1_555 1_555
H27 C21 1_555 1_555
C22 C4 1_555 1_555
H28 C22 1_555 1_555
H29 C22 1_555 1_555
H30 C22 1_555 1_555
C8 C9 1_555 1_555
C9 C10 1_555 1_555
C11 C12 1_555 1_555
C12 C13 1_555 1_555
C16 C17 1_555 1_555

#END
