
#######################################################################
#
#                 Cambridge Crystallographic Data Centre
#                                CCDC 
#
#######################################################################
#
# If this CIF has been generated from an entry in the Cambridge 
# Structural Database, then it will include bibliographic, chemical, 
# crystal, experimental, refinement or atomic coordinate data resulting 
# from the CCDC's data processing and validation procedures.
#
#######################################################################

data_NUMXAV
_chemical_name_common            N-Methyl-2,2-dinitroethene-1,1-diamine
_chemical_formula_moiety         'C3 H6 N4 O4'
_chemical_name_systematic        1-Amino-1-methylamino-2,2-dinitroethylene
_symmetry_cell_setting           monoclinic
_symmetry_space_group_name_H-M   'P 21'
_symmetry_Int_Tables_number      4
_space_group_name_Hall           'P 2yb'
loop_
_symmetry_equiv_pos_site_id
_symmetry_equiv_pos_as_xyz
1 x,y,z
2 -x,1/2+y,-z
_cell_length_a                   6.361(3)
_cell_length_b                   7.462(4)
_cell_length_c                   6.788(3)
_cell_angle_alpha                90
_cell_angle_beta                 107.367(9)
_cell_angle_gamma                90
_cell_volume                     307.51
_cell_formula_units_Z            2
_exptl_crystal_preparation       explosive
loop_
_atom_site_label
_atom_site_type_symbol
_atom_site_fract_x
_atom_site_fract_y
_atom_site_fract_z
O1 O 0.3264(17) -0.0802(9) 1.3074(10)
O2 O 0.3277(14) 0.2729(8) 1.3113(11)
N1 N 0.2728(16) 0.2590(11) 1.1155(11)
N2 N 0.2789(17) -0.0665(11) 1.1207(14)
O3 O 0.2453(14) -0.2075(7) 1.0063(12)
O4 O 0.2473(17) 0.3909(7) 1.0035(13)
C1 C 0.1871(7) 0.0969(18) 0.7907(5)
N3 N -0.0213(5) 0.0933(15) 0.6882(4)
H1 H -0.1130 0.0956 0.7592
C2 C 0.2487(6) 0.090(2) 1.0175(5)
N4 N 0.3435(5) 0.0916(19) 0.7035(4)
H2 H 0.3113 0.0854 0.5713
H3 H 0.4791 0.0944 0.7780
C3 C -0.1145(7) 0.086(2) 0.4636(5)
H4 H -0.2723 0.0879 0.4274
H5 H -0.0681 -0.0230 0.4131
H6 H -0.0642 0.1868 0.4029
loop_
_geom_bond_atom_site_label_1
_geom_bond_atom_site_label_2
_geom_bond_site_symmetry_1
_geom_bond_site_symmetry_2
O1 N2 1_555 1_555
O2 N1 1_555 1_555
N1 O4 1_555 1_555
N2 O3 1_555 1_555
C1 N3 1_555 1_555
N3 H1 1_555 1_555
C2 N1 1_555 1_555
N4 C1 1_555 1_555
H2 N4 1_555 1_555
H3 N4 1_555 1_555
C3 N3 1_555 1_555
H4 C3 1_555 1_555
H5 C3 1_555 1_555
H6 C3 1_555 1_555
N2 C2 1_555 1_555
C1 C2 1_555 1_555

#END
