
#######################################################################
#
#                 Cambridge Crystallographic Data Centre
#                                CCDC 
#
#######################################################################
#
# If this CIF has been generated from an entry in the Cambridge 
# Structural Database, then it will include bibliographic, chemical, 
# crystal, experimental, refinement or atomic coordinate data resulting 
# from the CCDC's data processing and validation procedures.
#
#######################################################################

data_NUMYOL
_chemical_name_common            'hyphenrone J methanol solvate'
_chemical_formula_moiety         'C33 H40 O5,1.5(C1 H4 O1)'
_chemical_name_systematic        
'9-benzoyl-5-hydroxy-4,4,8,8-tetramethyl-11-(3-methylbut-2-en-1-yl)-3-(prop-1-en-2-yl)tetracyclo[7.3.1.1^7,11^.0^1,6^]tetradecane-10,12,13-trione methanol solvate'
_symmetry_cell_setting           monoclinic
_symmetry_space_group_name_H-M   'C 2'
_symmetry_Int_Tables_number      5
_space_group_name_Hall           'C 2y'
loop_
_symmetry_equiv_pos_site_id
_symmetry_equiv_pos_as_xyz
1 x,y,z
2 -x,y,-z
3 1/2+x,1/2+y,z
4 1/2-x,1/2+y,-z
_cell_length_a                   18.0066(3)
_cell_length_b                   13.5854(2)
_cell_length_c                   13.2739(2)
_cell_angle_alpha                90
_cell_angle_beta                 93.8980(10)
_cell_angle_gamma                90
_cell_volume                     3239.64
_exptl_crystal_colour            colorless
_exptl_crystal_description       prism
_cell_formula_units_Z            4
loop_
_atom_site_label
_atom_site_type_symbol
_atom_site_fract_x
_atom_site_fract_y
_atom_site_fract_z
O1 O 0.85054(13) 1.20640(15) 0.47988(16)
O2 O 0.91757(9) 0.97205(13) 0.48094(12)
O3 O 0.82793(9) 0.80710(14) 0.23832(14)
C1 C 1.08183(15) 0.7764(2) 0.1192(2)
H1 H 1.1108 0.8191 0.0771
H2 H 1.0396 0.7487 0.0781
H3 H 1.1135 0.7229 0.1469
C2 C 1.05292(13) 0.83692(19) 0.20612(18)
C3 C 1.00129(13) 0.91841(19) 0.16024(17)
H4 H 0.9581 0.8855 0.1227
C4 C 0.97046(12) 0.98360(18) 0.24157(17)
H5 H 1.0136 1.0086 0.2857
C5 C 0.92538(14) 1.07273(19) 0.20158(19)
H6 H 0.9574 1.1117 0.1575
C6 C 0.90480(16) 1.14050(19) 0.2911(2)
C7 C 0.85246(14) 1.07617(19) 0.35887(18)
C8 C 0.82564(15) 1.12776(18) 0.4531(2)
C9 C 0.76824(14) 1.07833(19) 0.51202(18)
C10 C 0.74422(14) 0.9826(2) 0.49660(19)
H7 H 0.7662 0.9431 0.4476
C11 C 0.68853(16) 0.9431(2) 0.5515(2)
H8 H 0.6726 0.8771 0.5402
C12 C 0.65643(17) 1.0005(2) 0.6229(2)
H9 H 0.6181 0.9739 0.6606
C13 C 0.7267(3) 0.9513(3) -0.0934(3)
H10 H 0.7514 0.8981 -0.0541
H11 H 0.7639 0.9887 -0.1281
H12 H 0.6901 0.9232 -0.1434
C14 C 0.68808(16) 1.0184(2) -0.0241(2)
C15 C 0.69244(17) 1.0131(3) 0.0762(2)
H13 H 0.6663 1.0621 0.1106
C16 C 0.73376(15) 0.9388(2) 0.1402(2)
H14 H 0.7485 0.8842 0.0964
H15 H 0.6995 0.9114 0.1884
C17 C 0.80380(13) 0.9769(2) 0.20050(17)
C18 C 0.84899(13) 0.89118(18) 0.24750(17)
C19 C 0.92147(12) 0.91868(17) 0.30817(17)
C20 C 0.89879(12) 0.98688(17) 0.39269(17)
C21 C 0.85718(15) 1.0379(2) 0.13672(18)
H16 H 0.8733 0.9969 0.0806
H17 H 0.8302 1.0957 0.1072
C22 C 1.00242(12) 0.77039(18) 0.26891(18)
H18 H 0.9616 0.7456 0.2206
C23 C 0.96461(12) 0.82902(17) 0.34976(17)
H19 H 0.9300 0.7850 0.3831
H20 H 1.0030 0.8512 0.4017
C24 C 1.04172(15) 0.6794(2) 0.3144(2)
C25 C 1.03370(17) 0.5907(2) 0.2658(2)
H21 H 1.0569 0.5335 0.2946
H22 H 1.0049 0.5863 0.2033
C26 C 1.0852(2) 0.6854(3) 0.4086(2)
H23 H 1.0521 0.6943 0.4636
H24 H 1.1193 0.7415 0.4071
H25 H 1.1139 0.6246 0.4196
C27 C 1.12038(14) 0.8792(2) 0.2677(2)
H26 H 1.1556 0.8261 0.2862
H27 H 1.1040 0.9102 0.3291
H28 H 1.1448 0.9285 0.2273
O4 O 1.03860(11) 0.97701(14) 0.08929(14)
H29 H 1.0621 1.0227 0.1200
C28 C 0.8625(2) 1.2316(2) 0.2487(2)
H30 H 0.8540 1.2772 0.3039
H31 H 0.8146 1.2111 0.2160
H32 H 0.8920 1.2644 0.1992
C29 C 0.97579(18) 1.1747(2) 0.3519(2)
H33 H 1.0116 1.1993 0.3056
H34 H 0.9977 1.1193 0.3907
H35 H 0.9633 1.2275 0.3982
C30 C 0.78608(14) 1.04677(19) 0.28583(19)
O5 O 0.72579(10) 1.08284(16) 0.29178(14)
C31 C 0.73601(17) 1.1348(2) 0.5849(2)
H36 H 0.7527 1.2003 0.5973
C32 C 0.67978(17) 1.0964(2) 0.63979(19)
H37 H 0.6575 1.1358 0.6886
C33 C 0.6433(2) 1.0971(3) -0.0770(3)
H38 H 0.6110 1.1282 -0.0297
H39 H 0.6127 1.0685 -0.1335
H40 H 0.6767 1.1467 -0.1028
O6 O 0.90396(18) 0.1563(2) 0.8840(3)
H41 H 0.9210 0.2057 0.9158
C34 C 0.8453(4) 0.1820(5) 0.8263(9)
H42 H 0.8011 0.1799 0.8656
H43 H 0.8387 0.1363 0.7692
H44 H 0.8520 0.2489 0.8010
O7? O 0.9900(8) 0.2708(5) 0.0235(10)
H45? H 0.9455 0.2547 0.0087
C35? C 0.9999(12) 0.3702(7) 0.000(2)
H46? H 0.9569 0.3936 -0.0424
H47? H 1.0451 0.3777 -0.0365
H48? H 1.0048 0.4088 0.0625
loop_
_geom_bond_atom_site_label_1
_geom_bond_atom_site_label_2
_geom_bond_site_symmetry_1
_geom_bond_site_symmetry_2
O1 C8 1_555 1_555
O2 C20 1_555 1_555
O3 C18 1_555 1_555
C1 H1 1_555 1_555
H2 C1 1_555 1_555
H3 C1 1_555 1_555
C2 C1 1_555 1_555
C3 C2 1_555 1_555
H4 C3 1_555 1_555
C4 C3 1_555 1_555
H5 C4 1_555 1_555
C5 C4 1_555 1_555
H6 C5 1_555 1_555
C6 C5 1_555 1_555
C7 C6 1_555 1_555
C8 C7 1_555 1_555
C9 C8 1_555 1_555
C10 C9 1_555 1_555
H7 C10 1_555 1_555
C11 C10 1_555 1_555
H8 C11 1_555 1_555
C12 C11 1_555 1_555
H9 C12 1_555 1_555
C13 H10 1_555 1_555
H11 C13 1_555 1_555
H12 C13 1_555 1_555
C14 C13 1_555 1_555
C15 C14 1_555 1_555
H13 C15 1_555 1_555
C16 C15 1_555 1_555
H14 C16 1_555 1_555
H15 C16 1_555 1_555
C17 C16 1_555 1_555
C18 C17 1_555 1_555
C19 C4 1_555 1_555
C20 C7 1_555 1_555
C21 C5 1_555 1_555
H16 C21 1_555 1_555
H17 C21 1_555 1_555
C22 C2 1_555 1_555
H18 C22 1_555 1_555
C23 C19 1_555 1_555
H19 C23 1_555 1_555
H20 C23 1_555 1_555
C24 C22 1_555 1_555
C25 C24 1_555 1_555
H21 C25 1_555 1_555
H22 C25 1_555 1_555
C26 C24 1_555 1_555
H23 C26 1_555 1_555
H24 C26 1_555 1_555
H25 C26 1_555 1_555
C27 C2 1_555 1_555
H26 C27 1_555 1_555
H27 C27 1_555 1_555
H28 C27 1_555 1_555
O4 C3 1_555 1_555
H29 O4 1_555 1_555
C28 C6 1_555 1_555
H30 C28 1_555 1_555
H31 C28 1_555 1_555
H32 C28 1_555 1_555
C29 C6 1_555 1_555
H33 C29 1_555 1_555
H34 C29 1_555 1_555
H35 C29 1_555 1_555
C30 C7 1_555 1_555
O5 C30 1_555 1_555
C31 C9 1_555 1_555
H36 C31 1_555 1_555
C32 C12 1_555 1_555
H37 C32 1_555 1_555
C33 C14 1_555 1_555
H38 C33 1_555 1_555
H39 C33 1_555 1_555
H40 C33 1_555 1_555
O6 H41 1_555 1_555
C34 O6 1_555 1_555
H42 C34 1_555 1_555
H43 C34 1_555 1_555
H44 C34 1_555 1_555
C17 C21 1_555 1_555
C17 C30 1_555 1_555
C18 C19 1_555 1_555
C19 C20 1_555 1_555
C22 C23 1_555 1_555
C31 C32 1_555 1_555

#END
