
#######################################################################
#
#                 Cambridge Crystallographic Data Centre
#                                CCDC 
#
#######################################################################
#
# If this CIF has been generated from an entry in the Cambridge 
# Structural Database, then it will include bibliographic, chemical, 
# crystal, experimental, refinement or atomic coordinate data resulting 
# from the CCDC's data processing and validation procedures.
#
#######################################################################

data_NUMZOM
_chemical_formula_moiety         'C12 H17 Cl1 N2 O2,H2 O1'
_chemical_name_systematic        
'2-(3-chloro-4-hydroxyphenyl)-N-(2-(dimethylamino)ethyl)acetamide monohydrate'
_symmetry_cell_setting           monoclinic
_symmetry_space_group_name_H-M   'P 21/c'
_symmetry_Int_Tables_number      14
_space_group_name_Hall           '-P 2ybc'
loop_
_symmetry_equiv_pos_site_id
_symmetry_equiv_pos_as_xyz
1 x,y,z
2 -x,1/2+y,1/2-z
3 -x,-y,-z
4 x,1/2-y,1/2+z
_cell_length_a                   7.0579(7)
_cell_length_b                   10.7514(11)
_cell_length_c                   19.068(2)
_cell_angle_alpha                90
_cell_angle_beta                 100.289(10)
_cell_angle_gamma                90
_cell_volume                     1423.66
_exptl_crystal_colour            colorless
_exptl_crystal_description       block
_cell_formula_units_Z            4
loop_
_atom_site_label
_atom_site_type_symbol
_atom_site_fract_x
_atom_site_fract_y
_atom_site_fract_z
Cl1 Cl -0.18478(7) 0.04681(5) 0.63172(3)
O1 O 0.10722(19) -0.12530(11) 0.59850(7)
O2 O 0.2445(2) 0.54236(11) 0.46186(7)
N1 N 0.1284(2) 0.35366(15) 0.42540(8)
N2 N 0.3704(2) 0.33007(16) 0.31010(8)
C1 C 0.2236(2) 0.24823(15) 0.56357(8)
C2 C 0.0564(2) 0.21258(16) 0.58747(9)
C3 C 0.0214(2) 0.08816(16) 0.59906(9)
C4 C 0.1480(2) -0.00484(15) 0.58618(9)
C5 C 0.3142(3) 0.03136(16) 0.56228(9)
C6 C 0.3513(2) 0.15589(16) 0.55147(9)
C7 C 0.2660(3) 0.38376(15) 0.55123(9)
C8 C 0.2113(2) 0.43236(15) 0.47524(9)
C9 C 0.0645(3) 0.38639(18) 0.35063(9)
C10 C 0.1627(3) 0.30886(19) 0.30130(10)
C11 C 0.4549(4) 0.2335(3) 0.27071(14)
C12 C 0.4124(4) 0.4533(3) 0.28479(14)
H1 H 0.110(3) 0.284(2) 0.4369(11)
H2 H -0.03400 0.27380 0.59590
H3 H 0.189(3) -0.171(2) 0.5870(12)
H4 H 0.40380 -0.02990 0.55320
H5 H 0.46650 0.17850 0.53540
H6 H 0.40570 0.39750 0.56720
H7 H 0.19800 0.43470 0.58220
H8 H 0.09200 0.47540 0.34380
H9 H -0.07650 0.37430 0.33800
H10 H 0.13970 0.21980 0.30990
H11 H 0.10320 0.32770 0.25140
H12 H 0.42630 0.15130 0.28850
H13 H 0.59470 0.24500 0.27750
H14 H 0.40000 0.23960 0.21990
H15 H 0.35140 0.46240 0.23470
H16 H 0.55200 0.46350 0.28920
H17 H 0.36210 0.51680 0.31340
O3 O 0.6375(2) 0.28069(13) 0.43462(9)
H18 H 0.664(3) 0.334(2) 0.4620(13)
H19 H 0.540(4) 0.305(2) 0.3995(15)
loop_
_geom_bond_atom_site_label_1
_geom_bond_atom_site_label_2
_geom_bond_site_symmetry_1
_geom_bond_site_symmetry_2
Cl1 C3 1_555 1_555
O1 C4 1_555 1_555
O2 C8 1_555 1_555
N1 C8 1_555 1_555
N2 C10 1_555 1_555
C1 C2 1_555 1_555
C2 C3 1_555 1_555
C3 C4 1_555 1_555
C4 C5 1_555 1_555
C5 C6 1_555 1_555
C6 C1 1_555 1_555
C7 C1 1_555 1_555
C8 C7 1_555 1_555
C9 N1 1_555 1_555
C10 C9 1_555 1_555
C11 N2 1_555 1_555
C12 N2 1_555 1_555
H1 N1 1_555 1_555
H2 C2 1_555 1_555
H3 O1 1_555 1_555
H4 C5 1_555 1_555
H5 C6 1_555 1_555
H6 C7 1_555 1_555
H7 C7 1_555 1_555
H8 C9 1_555 1_555
H9 C9 1_555 1_555
H10 C10 1_555 1_555
H11 C10 1_555 1_555
H12 C11 1_555 1_555
H13 C11 1_555 1_555
H14 C11 1_555 1_555
H15 C12 1_555 1_555
H16 C12 1_555 1_555
H17 C12 1_555 1_555
O3 H18 1_555 1_555
H19 O3 1_555 1_555

#END
