
#######################################################################
#
#                 Cambridge Crystallographic Data Centre
#                                CCDC 
#
#######################################################################
#
# If this CIF has been generated from an entry in the Cambridge 
# Structural Database, then it will include bibliographic, chemical, 
# crystal, experimental, refinement or atomic coordinate data resulting 
# from the CCDC's data processing and validation procedures.
#
#######################################################################

data_NUNBUV
_chemical_formula_moiety         'C15 H16 F3 N1 O4 S1'
_chemical_name_systematic        
'1-(ethylamino)-2-(methylsulfanyl)-1,3-dioxo-3-(4-(trifluoromethyl)phenyl)propan-2-yl acetate'
_symmetry_cell_setting           monoclinic
_symmetry_space_group_name_H-M   'P 21/n'
_symmetry_Int_Tables_number      14
_space_group_name_Hall           '-P 2yn'
loop_
_symmetry_equiv_pos_site_id
_symmetry_equiv_pos_as_xyz
1 x,y,z
2 1/2-x,1/2+y,1/2-z
3 -x,-y,-z
4 1/2+x,1/2-y,1/2+z
_cell_length_a                   7.4724(6)
_cell_length_b                   24.2647(16)
_cell_length_c                   10.0623(9)
_cell_angle_alpha                90
_cell_angle_beta                 107.984(10)
_cell_angle_gamma                90
_cell_volume                     1735.31
_exptl_crystal_colour            colorless
_exptl_crystal_description       prismatic
_cell_formula_units_Z            4
loop_
_atom_site_label
_atom_site_type_symbol
_atom_site_fract_x
_atom_site_fract_y
_atom_site_fract_z
S1 S 0.36758(10) 0.22646(3) 1.10520(8)
O1 O 0.3081(2) 0.14002(8) 0.9172(2)
O2 O 0.5555(3) 0.24082(8) 0.84998(18)
O3 O 0.7133(2) 0.17905(7) 1.18074(17)
O4 O 0.5517(3) 0.10684(9) 1.2229(2)
N1 N 0.7931(3) 0.26267(9) 1.0441(2)
C1 C 0.5613(3) 0.19412(10) 1.0598(2)
C2 C 0.4771(3) 0.14432(10) 0.9643(3)
C3 C 0.6045(3) 0.10487(10) 0.9238(3)
C4 C 0.5260(4) 0.05561(11) 0.8625(3)
H1 H 0.4033 0.0468 0.8584
C5 C 0.6268(4) 0.01998(12) 0.8081(4)
H2 H 0.5727 -0.0129 0.7674
C6 C 0.8092(4) 0.03281(11) 0.8134(3)
C7 C 0.8914(4) 0.08042(11) 0.8776(3)
H3 H 1.0150 0.0886 0.8830
C8 C 0.7906(4) 0.11622(10) 0.9342(3)
H4 H 0.8476 0.1480 0.9795
C9 C 0.9128(6) -0.00382(18) 0.7449(6)
C10 C 0.6400(3) 0.23524(9) 0.9746(3)
C11 C 0.8788(4) 0.30496(11) 0.9794(3)
H5 H 0.7978 0.3117 0.8850
H6 H 0.9984 0.2915 0.9736
C12 C 0.9102(6) 0.35759(13) 1.0586(4)
H7 H 0.7927 0.3708 1.0662
H8 H 0.9617 0.3844 1.0104
H9 H 0.9965 0.3516 1.1503
C13 C 0.6865(4) 0.13558(10) 1.2592(3)
C14 C 0.8469(5) 0.13077(12) 1.3896(3)
H10 H 0.8493 0.1623 1.4476
H11 H 0.9625 0.1289 1.3669
H12 H 0.8328 0.0980 1.4387
C15 C 0.4910(5) 0.28030(12) 1.2201(3)
H13 H 0.5973 0.2649 1.2902
H14 H 0.4081 0.2973 1.2643
H15 H 0.5336 0.3074 1.1672
F1 F 0.8689(10) 0.0014(3) 0.6144(6)
F2 F 0.8752(6) -0.05902(12) 0.7632(5)
F3 F 1.1014(6) -0.00583(19) 0.8138(7)
H16 H 0.844(4) 0.2556(10) 1.129(3)
F4? F 0.8121(18) -0.0320(5) 0.6414(17)
F5? F 1.037(2) -0.0293(5) 0.8159(16)
F6? F 1.0192(13) 0.0285(3) 0.6739(11)
loop_
_geom_bond_atom_site_label_1
_geom_bond_atom_site_label_2
_geom_bond_site_symmetry_1
_geom_bond_site_symmetry_2
S1 C1 1_555 1_555
O1 C2 1_555 1_555
O2 C10 1_555 1_555
O3 C1 1_555 1_555
O4 C13 1_555 1_555
N1 C10 1_555 1_555
C1 C2 1_555 1_555
C2 C3 1_555 1_555
C3 C4 1_555 1_555
C4 H1 1_555 1_555
C5 C4 1_555 1_555
H2 C5 1_555 1_555
C6 C5 1_555 1_555
C7 C6 1_555 1_555
H3 C7 1_555 1_555
C8 C3 1_555 1_555
H4 C8 1_555 1_555
C9 C6 1_555 1_555
C10 C1 1_555 1_555
C11 N1 1_555 1_555
H5 C11 1_555 1_555
H6 C11 1_555 1_555
C12 C11 1_555 1_555
H7 C12 1_555 1_555
H8 C12 1_555 1_555
H9 C12 1_555 1_555
C13 O3 1_555 1_555
C14 C13 1_555 1_555
H10 C14 1_555 1_555
H11 C14 1_555 1_555
H12 C14 1_555 1_555
C15 S1 1_555 1_555
H13 C15 1_555 1_555
H14 C15 1_555 1_555
H15 C15 1_555 1_555
F1 C9 1_555 1_555
F2 C9 1_555 1_555
F3 C9 1_555 1_555
H16 N1 1_555 1_555
C7 C8 1_555 1_555

#END
