
#######################################################################
#
#                 Cambridge Crystallographic Data Centre
#                                CCDC 
#
#######################################################################
#
# If this CIF has been generated from an entry in the Cambridge 
# Structural Database, then it will include bibliographic, chemical, 
# crystal, experimental, refinement or atomic coordinate data resulting 
# from the CCDC's data processing and validation procedures.
#
#######################################################################

data_NUNFUY
_chemical_formula_moiety         'C25 H24 Cl2 N2 O1'
_chemical_name_systematic        
trans-2-((bis(4-Chlorobenzyl)amino)methyl)-1-phenylcyclopropanecarboxamide
_symmetry_cell_setting           monoclinic
_symmetry_space_group_name_H-M   'P 21/n'
_symmetry_Int_Tables_number      14
_space_group_name_Hall           '-P 2yn'
loop_
_symmetry_equiv_pos_site_id
_symmetry_equiv_pos_as_xyz
1 x,y,z
2 1/2-x,1/2+y,1/2-z
3 -x,-y,-z
4 1/2+x,1/2-y,1/2+z
_cell_length_a                   17.910(15)
_cell_length_b                   6.296(5)
_cell_length_c                   19.948(16)
_cell_angle_alpha                90
_cell_angle_beta                 90.40(3)
_cell_angle_gamma                90
_cell_volume                     2249.31
_exptl_crystal_colour            colorless
_exptl_crystal_description       penguin
_chemical_melting_point          '111.1 deg.C'
_cell_formula_units_Z            4
loop_
_atom_site_label
_atom_site_type_symbol
_atom_site_fract_x
_atom_site_fract_y
_atom_site_fract_z
Cl1 Cl 1.22416(3) 1.51710(10) 0.00118(3)
O1 O 0.98778(7) 0.9654(2) 0.40997(6)
N1 N 0.92301(8) 1.4112(3) 0.19991(7)
C1 C 1.05304(10) 1.2151(3) 0.34176(9)
Cl2 Cl 0.63118(3) 0.89588(9) 0.05578(3)
N2 N 1.07095(9) 1.1769(3) 0.46208(8)
H1 H 1.0572(12) 1.130(4) 0.5000(9)
H2 H 1.1010(11) 1.280(3) 0.4593(10)
C2 C 0.98340(10) 1.2508(3) 0.29811(9)
H3 H 0.9356 1.1991 0.3180
C3 C 1.03768(11) 1.0801(3) 0.28000(9)
H4 H 1.0694 1.1035 0.2402
H5 H 1.0222 0.9309 0.2871
C4 C 1.03479(10) 1.1095(3) 0.40757(9)
C5 C 0.97625(11) 1.4466(3) 0.25550(9)
H6 H 0.9588 1.5666 0.2834
H7 H 1.0257 1.4845 0.2371
C6 C 1.11646(10) 1.3709(3) 0.34113(8)
C7 C 1.18628(10) 1.3106(3) 0.31668(9)
H8 H 1.1929 1.1719 0.2989
C8 C 1.24607(11) 1.4505(3) 0.31801(10)
H9 H 1.2930 1.4083 0.3006
C9 C 1.23741(11) 1.6516(3) 0.34475(10)
H10 H 1.2784 1.7474 0.3460
C10 C 1.16866(11) 1.7128(3) 0.36969(9)
H11 H 1.1628 1.8505 0.3884
C11 C 1.10830(10) 1.5745(3) 0.36752(9)
H12 H 1.0612 1.6188 0.3841
C12 C 0.93109(11) 1.5725(3) 0.14743(9)
H13 H 0.9267 1.7151 0.1679
H14 H 0.8898 1.5564 0.1145
C13 C 1.00465(10) 1.5576(3) 0.11111(9)
C14 C 1.02627(11) 1.3698(3) 0.08029(9)
H15 H 0.9946 1.2490 0.0825
C15 C 1.09332(11) 1.3560(3) 0.04639(10)
H16 H 1.1078 1.2266 0.0257
C16 C 1.13885(11) 1.5327(3) 0.04298(9)
C17 C 1.11876(12) 1.7214(3) 0.07252(10)
H17 H 1.1503 1.8422 0.0696
C18 C 1.05158(11) 1.7328(3) 0.10672(9)
H18 H 1.0375 1.8624 0.1274
C19 C 0.84537(10) 1.4133(3) 0.22368(9)
H19 H 0.8281 1.5622 0.2270
H20 H 0.8437 1.3503 0.2691
C20 C 0.79295(10) 1.2922(3) 0.17814(9)
C21 C 0.72092(10) 1.3648(3) 0.16472(9)
H21 H 0.7057 1.4987 0.1818
C22 C 0.67078(10) 1.2456(3) 0.12691(9)
H22 H 0.6216 1.2961 0.1184
C23 C 0.69391(11) 1.0522(3) 0.10204(9)
C24 C 0.76537(11) 0.9767(3) 0.11341(10)
H23 H 0.7807 0.8440 0.0955
C25 C 0.81412(11) 1.0979(3) 0.15138(10)
H24 H 0.8633 1.0471 0.1594
loop_
_geom_bond_atom_site_label_1
_geom_bond_atom_site_label_2
_geom_bond_site_symmetry_1
_geom_bond_site_symmetry_2
Cl1 C16 1_555 1_555
O1 C4 1_555 1_555
N1 C5 1_555 1_555
C1 C2 1_555 1_555
Cl2 C23 1_555 1_555
N2 H1 1_555 1_555
H2 N2 1_555 1_555
C2 H3 1_555 1_555
C3 C1 1_555 1_555
H4 C3 1_555 1_555
H5 C3 1_555 1_555
C4 C1 1_555 1_555
C5 C2 1_555 1_555
H6 C5 1_555 1_555
H7 C5 1_555 1_555
C6 C1 1_555 1_555
C7 C6 1_555 1_555
H8 C7 1_555 1_555
C8 C7 1_555 1_555
H9 C8 1_555 1_555
C9 C8 1_555 1_555
H10 C9 1_555 1_555
C10 C9 1_555 1_555
H11 C10 1_555 1_555
C11 C6 1_555 1_555
H12 C11 1_555 1_555
C12 N1 1_555 1_555
H13 C12 1_555 1_555
H14 C12 1_555 1_555
C13 C12 1_555 1_555
C14 C13 1_555 1_555
H15 C14 1_555 1_555
C15 C14 1_555 1_555
H16 C15 1_555 1_555
C16 C15 1_555 1_555
C17 C16 1_555 1_555
H17 C17 1_555 1_555
C18 C13 1_555 1_555
H18 C18 1_555 1_555
C19 N1 1_555 1_555
H19 C19 1_555 1_555
H20 C19 1_555 1_555
C20 C19 1_555 1_555
C21 C20 1_555 1_555
H21 C21 1_555 1_555
C22 C21 1_555 1_555
H22 C22 1_555 1_555
C23 C22 1_555 1_555
C24 C23 1_555 1_555
H23 C24 1_555 1_555
C25 C20 1_555 1_555
H24 C25 1_555 1_555
N2 C4 1_555 1_555
C2 C3 1_555 1_555
C10 C11 1_555 1_555
C17 C18 1_555 1_555
C24 C25 1_555 1_555

#END
