
#######################################################################
#
#                 Cambridge Crystallographic Data Centre
#                                CCDC 
#
#######################################################################
#
# If this CIF has been generated from an entry in the Cambridge 
# Structural Database, then it will include bibliographic, chemical, 
# crystal, experimental, refinement or atomic coordinate data resulting 
# from the CCDC's data processing and validation procedures.
#
#######################################################################

data_NUNGUA
_chemical_formula_moiety         'C27 H20 O1'
_chemical_name_systematic        2,7-bis(2-methylphenyl)-9H-fluoren-9-one
_symmetry_cell_setting           orthorhombic
_symmetry_space_group_name_H-M   'P m c 21'
_symmetry_Int_Tables_number      26
_space_group_name_Hall           'P 2c -2'
loop_
_symmetry_equiv_pos_site_id
_symmetry_equiv_pos_as_xyz
1 x,y,z
2 -x,-y,1/2+z
3 -x,y,z
4 x,-y,1/2+z
_cell_length_a                   34.426(3)
_cell_length_b                   7.5271(7)
_cell_length_c                   7.6109(8)
_cell_angle_alpha                90
_cell_angle_beta                 90
_cell_angle_gamma                90
_cell_volume                     1972.2
_exptl_crystal_colour            yellow
_cell_formula_units_Z            4
_exptl_crystal_recrystallization_method 'Vapour Deposition'
loop_
_atom_site_label
_atom_site_type_symbol
_atom_site_fract_x
_atom_site_fract_y
_atom_site_fract_z
O1 O 0.0000 -0.0301(6) 0.2743(11)
C1 C 0.0000 0.1312(7) 0.2678(12)
C2 C 0.03446(11) 0.2513(5) 0.2561(7)
C3 C 0.07316(10) 0.2090(6) 0.2620(7)
H1 H 0.0810 0.0910 0.2705
C4 C 0.10076(10) 0.3455(5) 0.2550(7)
C5 C 0.08719(10) 0.5212(5) 0.2456(7)
H2 H 0.1052 0.6134 0.2423
C6 C 0.04794(11) 0.5620(5) 0.2408(8)
H3 H 0.0397 0.6794 0.2337
C7 C 0.02160(10) 0.4257(5) 0.2469(7)
C8 C 0.14310(10) 0.3100(5) 0.2681(6)
C9 C 0.16219(11) 0.1922(6) 0.1543(6)
C10 C 0.20174(14) 0.1718(8) 0.1777(8)
H4 H 0.2151 0.0990 0.0998
C11 C 0.22236(16) 0.2530(8) 0.3096(9)
H5 H 0.2485 0.2276 0.3267
C12 C 0.20385(15) 0.3699(9) 0.4133(9)
H6 H 0.2177 0.4326 0.4979
C13 C 0.16430(12) 0.3977(6) 0.3950(7)
H7 H 0.1518 0.4770 0.4698
C14 C 0.14185(15) 0.0943(7) 0.0105(8)
H8 H 0.1584 0.0884 -0.0908
H9 H 0.1183 0.1556 -0.0194
H10 H 0.1358 -0.0238 0.0493
C2B C -0.03446(11) 0.2513(5) 0.2561(7)
C3B C -0.07316(10) 0.2090(6) 0.2620(7)
H1B H -0.0810 0.0910 0.2705
C4B C -0.10076(10) 0.3455(5) 0.2550(7)
C5B C -0.08719(10) 0.5212(5) 0.2456(7)
H2B H -0.1052 0.6134 0.2423
C6B C -0.04794(11) 0.5620(5) 0.2408(8)
H3B H -0.0397 0.6794 0.2337
C7B C -0.02160(10) 0.4257(5) 0.2469(7)
C8B C -0.14310(10) 0.3100(5) 0.2681(6)
C9B C -0.16219(11) 0.1922(6) 0.1543(6)
C10B C -0.20174(14) 0.1718(8) 0.1777(8)
H4B H -0.2151 0.0990 0.0998
C11B C -0.22236(16) 0.2530(8) 0.3096(9)
H5B H -0.2485 0.2276 0.3267
C12B C -0.20385(15) 0.3699(9) 0.4133(9)
H6B H -0.2177 0.4326 0.4979
C13B C -0.16430(12) 0.3977(6) 0.3950(7)
H7B H -0.1518 0.4770 0.4698
C14B C -0.14185(15) 0.0943(7) 0.0105(8)
H8B H -0.1584 0.0884 -0.0908
H9B H -0.1183 0.1556 -0.0194
H10B H -0.1358 -0.0238 0.0493
O2 O 0.5000 1.0288(15) 0.281(2)
C15 C 0.5000 0.8661(19) 0.271(3)
C16 C 0.4654(8) 0.749(4) 0.263(3)
C17 C 0.4267(3) 0.7913(17) 0.263(2)
H11 H 0.4191 0.9098 0.2662
C18 C 0.3988(3) 0.6582(13) 0.259(2)
C19 C 0.4129(3) 0.4795(13) 0.2498(19)
H12 H 0.3949 0.3872 0.2458
C20 C 0.4519(3) 0.4380(12) 0.2464(19)
H13 H 0.4602 0.3206 0.2397
C21 C 0.4782(3) 0.5740(13) 0.253(2)
C22 C 0.3568(2) 0.6901(13) 0.266(2)
C23 C 0.3369(3) 0.8102(17) 0.1600(19)
C24 C 0.297(2) 0.828(6) 0.189(10)
H14 H 0.2826 0.9057 0.1190
C25 C 0.277(3) 0.733(10) 0.320(13)
H15 H 0.2507 0.7457 0.3334
C26 C 0.297(2) 0.625(6) 0.426(11)
H16 H 0.2848 0.5647 0.5165
C27 C 0.3362(4) 0.6053(17) 0.397(2)
H17 H 0.3498 0.5291 0.4712
C28 C 0.3591(3) 0.9096(15) 0.0140(18)
H18 H 0.3409 0.9653 -0.0640
H19 H 0.3748 0.8268 -0.0508
H20 H 0.3755 0.9985 0.0658
C16B C 0.5346(8) 0.749(4) 0.263(3)
C17B C 0.5733(3) 0.7913(17) 0.263(2)
H11B H 0.5809 0.9098 0.2662
C18B C 0.6012(3) 0.6582(13) 0.259(2)
C19B C 0.5871(3) 0.4795(13) 0.2498(19)
H12B H 0.6051 0.3872 0.2458
C20B C 0.5481(3) 0.4380(12) 0.2464(19)
H13B H 0.5398 0.3206 0.2397
C21B C 0.5218(3) 0.5740(13) 0.253(2)
C22B C 0.6432(2) 0.6901(13) 0.266(2)
C23B C 0.6631(3) 0.8102(17) 0.1600(19)
C24B C 0.703(2) 0.828(6) 0.189(10)
H14B H 0.7174 0.9057 0.1190
C25B C 0.723(3) 0.733(10) 0.320(13)
H15B H 0.7493 0.7457 0.3334
C26B C 0.703(2) 0.625(6) 0.426(11)
H16B H 0.7152 0.5647 0.5165
C27B C 0.6638(4) 0.6053(17) 0.397(2)
H17B H 0.6502 0.5291 0.4712
C28B C 0.6409(3) 0.9096(15) 0.0140(18)
H18B H 0.6591 0.9653 -0.0640
H19B H 0.6252 0.8268 -0.0508
H20B H 0.6245 0.9985 0.0658
O3? O 0.5000 0.476(2) 0.320(3)
C29? C 0.5000 0.634(3) 0.332(4)
C30? C 0.4665(10) 0.755(6) 0.340(4)
C31? C 0.4266(5) 0.715(3) 0.337(3)
H21? H 0.4186 0.5969 0.3277
C32? C 0.3994(4) 0.8454(19) 0.349(2)
C33? C 0.4119(4) 1.0178(19) 0.360(2)
H22? H 0.3935 1.1076 0.3691
C34? C 0.4513(4) 1.0644(19) 0.360(2)
H23? H 0.4592 1.1825 0.3645
C35? C 0.4782(4) 0.927(2) 0.352(3)
C36? C 0.3563(4) 0.817(2) 0.342(2)
C37? C 0.3362(6) 0.695(3) 0.444(3)
C38? C 0.296(3) 0.677(7) 0.421(13)
H24? H 0.2825 0.5986 0.4912
C39? C 0.277(4) 0.774(13) 0.293(16)
H25? H 0.2499 0.7681 0.2847
C40? C 0.298(3) 0.881(7) 0.179(14)
H26? H 0.2857 0.9328 0.0823
C41? C 0.3364(5) 0.908(2) 0.213(3)
H27? H 0.3499 0.9910 0.1455
C42? C 0.3570(4) 0.590(2) 0.582(2)
H28? H 0.3789 0.5305 0.5305
H29? H 0.3397 0.5030 0.6314
H30? H 0.3659 0.6679 0.6737
loop_
_geom_bond_atom_site_label_1
_geom_bond_atom_site_label_2
_geom_bond_site_symmetry_1
_geom_bond_site_symmetry_2
O1 C1 1_555 1_555
C1 C2 1_555 1_555
C2 C3 1_555 1_555
C3 H1 1_555 1_555
C4 C3 1_555 1_555
C5 C4 1_555 1_555
H2 C5 1_555 1_555
C6 C5 1_555 1_555
H3 C6 1_555 1_555
C7 C2 1_555 1_555
C8 C4 1_555 1_555
C9 C8 1_555 1_555
C10 C9 1_555 1_555
H4 C10 1_555 1_555
C11 C10 1_555 1_555
H5 C11 1_555 1_555
C12 C11 1_555 1_555
H6 C12 1_555 1_555
C13 C8 1_555 1_555
H7 C13 1_555 1_555
C14 C9 1_555 1_555
H8 C14 1_555 1_555
H9 C14 1_555 1_555
H10 C14 1_555 1_555
O2 C15 1_555 1_555
C15 C16 1_555 1_555
C16 C17 1_555 1_555
C17 H11 1_555 1_555
C18 C17 1_555 1_555
C19 C18 1_555 1_555
H12 C19 1_555 1_555
C20 C19 1_555 1_555
H13 C20 1_555 1_555
C21 C16 1_555 1_555
C22 C18 1_555 1_555
C23 C22 1_555 1_555
C24 C23 1_555 1_555
H14 C24 1_555 1_555
C25 C24 1_555 1_555
H15 C25 1_555 1_555
C26 C25 1_555 1_555
H16 C26 1_555 1_555
C27 C22 1_555 1_555
H17 C27 1_555 1_555
C28 C23 1_555 1_555
H18 C28 1_555 1_555
H19 C28 1_555 1_555
H20 C28 1_555 1_555
C2B C1 1_555 1_555
C3B C2B 1_555 1_555
H1B C3B 1_555 1_555
C4B C3B 1_555 1_555
C5B C4B 1_555 1_555
H2B C5B 1_555 1_555
C6B C5B 1_555 1_555
H3B C6B 1_555 1_555
C7B C7 1_555 1_555
C8B C4B 1_555 1_555
C9B C8B 1_555 1_555
C10B C9B 1_555 1_555
H4B C10B 1_555 1_555
C11B C10B 1_555 1_555
H5B C11B 1_555 1_555
C12B C11B 1_555 1_555
H6B C12B 1_555 1_555
C13B C8B 1_555 1_555
H7B C13B 1_555 1_555
C14B C9B 1_555 1_555
H8B C14B 1_555 1_555
H9B C14B 1_555 1_555
H10B C14B 1_555 1_555
C16B C15 1_555 1_555
C17B C16B 1_555 1_555
H11B C17B 1_555 1_555
C18B C17B 1_555 1_555
C19B C18B 1_555 1_555
H12B C19B 1_555 1_555
C20B C19B 1_555 1_555
H13B C20B 1_555 1_555
C21B C21 1_555 1_555
C22B C18B 1_555 1_555
C23B C22B 1_555 1_555
C24B C23B 1_555 1_555
H14B C24B 1_555 1_555
C25B C24B 1_555 1_555
H15B C25B 1_555 1_555
C26B C25B 1_555 1_555
H16B C26B 1_555 1_555
C27B C22B 1_555 1_555
H17B C27B 1_555 1_555
C28B C23B 1_555 1_555
H18B C28B 1_555 1_555
H19B C28B 1_555 1_555
H20B C28B 1_555 1_555
C6 C7 1_555 1_555
C12 C13 1_555 1_555
C20 C21 1_555 1_555
C26 C27 1_555 1_555
C2B C7B 1_555 1_555
C6B C7B 1_555 1_555
C12B C13B 1_555 1_555
C16B C21B 1_555 1_555
C20B C21B 1_555 1_555
C26B C27B 1_555 1_555

#END
