
#######################################################################
#
#                 Cambridge Crystallographic Data Centre
#                                CCDC 
#
#######################################################################
#
# If this CIF has been generated from an entry in the Cambridge 
# Structural Database, then it will include bibliographic, chemical, 
# crystal, experimental, refinement or atomic coordinate data resulting 
# from the CCDC's data processing and validation procedures.
#
#######################################################################

data_NUNGAF
_chemical_name_common            
trans-N-(2-Bromocyclohexyl)-4-methylbenzenesulfonamide
_chemical_formula_moiety         'C13 H18 Br1 N1 O2 S1'
_chemical_name_systematic        trans-1-Bromo-2-(tosylamido)cyclohexane
_symmetry_cell_setting           triclinic
_symmetry_space_group_name_H-M   'P -1'
_symmetry_Int_Tables_number      2
_space_group_name_Hall           '-P 1'
loop_
_symmetry_equiv_pos_site_id
_symmetry_equiv_pos_as_xyz
1 x,y,z
2 -x,-y,-z
_cell_length_a                   7.0140(14)
_cell_length_b                   9.4940(19)
_cell_length_c                   11.755(2)
_cell_angle_alpha                74.26(3)
_cell_angle_beta                 79.41(3)
_cell_angle_gamma                86.75(3)
_cell_volume                     740.572
_exptl_crystal_colour            colorless
_exptl_crystal_description       block
_cell_formula_units_Z            2
loop_
_atom_site_label
_atom_site_type_symbol
_atom_site_fract_x
_atom_site_fract_y
_atom_site_fract_z
Br1 Br 1.12707(12) 0.92588(10) 0.15096(8)
C1 C 0.6821(7) 0.4083(5) 0.2714(4)
C2 C 0.4070(8) 0.3450(7) 0.2021(5)
H1 H 0.2738 0.3319 0.2130
C3 C 0.7216(9) 0.3415(7) 0.0862(5)
H2 H 0.8021 0.3260 0.0184
C4 C 0.4836(8) 0.3894(6) 0.2869(5)
H3 H 0.4025 0.4065 0.3540
C5 C 0.8013(8) 0.3857(6) 0.1695(5)
H4 H 0.9343 0.4003 0.1576
C6 C 0.8050(8) 0.7462(6) 0.2736(5)
H5 H 0.8419 0.7084 0.2028
C7 C 0.9841(8) 0.7988(7) 0.3036(5)
H6 H 1.0657 0.7140 0.3323
C8 C 0.6519(9) 0.8670(7) 0.2494(6)
H7 H 0.6975 0.9374 0.1735
H8 H 0.5334 0.8244 0.2425
C9 C 0.5246(9) 0.3198(6) 0.1014(5)
C10 C 0.6078(10) 0.9460(7) 0.3485(7)
H9 H 0.5188 1.0266 0.3262
H10 H 0.5454 0.8789 0.4222
C11 C 0.9389(11) 0.8819(8) 0.3970(7)
H11 H 1.0579 0.9236 0.4041
H12 H 0.8903 0.8143 0.4738
C12 C 0.7906(12) 1.0041(8) 0.3697(7)
H13 H 0.7594 1.0479 0.4366
H14 H 0.8453 1.0795 0.2990
C13 C 0.4356(11) 0.2702(8) 0.0110(6)
H15 H 0.4743 0.3351 -0.0674
H16 H 0.2968 0.2714 0.0325
H17 H 0.4793 0.1727 0.0105
N1 N 0.7237(6) 0.6251(5) 0.3784(4)
O1 O 0.9897(5) 0.4479(4) 0.3516(3)
O2 O 0.6858(5) 0.3727(4) 0.4977(3)
S1 S 0.78245(18) 0.45698(14) 0.38282(12)
H18 H 0.597(2) 0.635(6) 0.408(5)
loop_
_geom_bond_atom_site_label_1
_geom_bond_atom_site_label_2
_geom_bond_site_symmetry_1
_geom_bond_site_symmetry_2
Br1 C7 1_555 1_555
C1 C4 1_555 1_555
C2 H1 1_555 1_555
C3 H2 1_555 1_555
C4 C2 1_555 1_555
H3 C4 1_555 1_555
C5 C1 1_555 1_555
H4 C5 1_555 1_555
C6 H5 1_555 1_555
C7 C6 1_555 1_555
H6 C7 1_555 1_555
C8 C6 1_555 1_555
H7 C8 1_555 1_555
H8 C8 1_555 1_555
C9 C2 1_555 1_555
C10 C8 1_555 1_555
H9 C10 1_555 1_555
H10 C10 1_555 1_555
C11 C7 1_555 1_555
H11 C11 1_555 1_555
H12 C11 1_555 1_555
C12 C10 1_555 1_555
H13 C12 1_555 1_555
H14 C12 1_555 1_555
C13 C9 1_555 1_555
H15 C13 1_555 1_555
H16 C13 1_555 1_555
H17 C13 1_555 1_555
N1 C6 1_555 1_555
O1 S1 1_555 1_555
O2 S1 1_555 1_555
S1 C1 1_555 1_555
H18 N1 1_555 1_555
C3 C5 1_555 1_555
C3 C9 1_555 1_555
C11 C12 1_555 1_555
N1 S1 1_555 1_555

#END
