
#######################################################################
#
#                 Cambridge Crystallographic Data Centre
#                                CCDC 
#
#######################################################################
#
# If this CIF has been generated from an entry in the Cambridge 
# Structural Database, then it will include bibliographic, chemical, 
# crystal, experimental, refinement or atomic coordinate data resulting 
# from the CCDC's data processing and validation procedures.
#
#######################################################################

data_NUNGUZ
_chemical_name_common            
'2-Phenylethanaminium 3,5-bis(ethoxycarbonyl)pyrazol-1-ide'
_chemical_formula_moiety         'C8 H12 N1 1+,C9 H11 N2 O4 1-'
_chemical_name_systematic        
'\b-Phenethylammonium 3,5-bis(ethoxycarbonyl)pyrazolate'
_symmetry_cell_setting           monoclinic
_symmetry_space_group_name_H-M   'P 21/n'
_symmetry_Int_Tables_number      14
_space_group_name_Hall           '-P 2yn'
loop_
_symmetry_equiv_pos_site_id
_symmetry_equiv_pos_as_xyz
1 x,y,z
2 1/2-x,1/2+y,1/2-z
3 -x,-y,-z
4 1/2+x,1/2-y,1/2+z
_cell_length_a                   16.2750(8)
_cell_length_b                   5.7027(2)
_cell_length_c                   20.1112(10)
_cell_angle_alpha                90
_cell_angle_beta                 100.273(2)
_cell_angle_gamma                90
_cell_volume                     1836.63
_chemical_melting_point          '108-110 deg.C'
_cell_formula_units_Z            4
_exptl_crystal_recrystallization_method ethanol
loop_
_atom_site_label
_atom_site_type_symbol
_atom_site_fract_x
_atom_site_fract_y
_atom_site_fract_z
O1 O 0.3640(4) 0.1335(9) -0.01407(18)
O2 O 0.4120(3) 0.3134(7) 0.08277(19)
O3 O 0.1462(2) -0.5486(5) 0.03432(13)
O4 O 0.1507(2) -0.5553(6) 0.14642(15)
N1 N 0.3125(2) 0.0021(6) 0.14604(15)
N2 N 0.2610(2) -0.1695(6) 0.15795(15)
C1 C 0.2316(3) -0.2776(7) 0.09870(18)
C2 C 0.2652(3) -0.1776(8) 0.0479(2)
H4 H 0.2561 -0.2193 0.0025
C3 C 0.3156(3) -0.0004(8) 0.07933(19)
C4 C 0.3690(4) 0.1661(10) 0.0518(2)
C5 C 0.1729(3) -0.4729(7) 0.0973(2)
C6 C 0.3919(11) 0.359(3) -0.0542(9)
H5 H 0.3453 0.4418 -0.0809
H6 H 0.4283 0.4668 -0.0254
C7 C 0.4392(11) 0.194(3) -0.0970(9)
H7 H 0.4368 0.0355 -0.0815
H8 H 0.4965 0.2426 -0.0921
H9 H 0.4134 0.2033 -0.1438
C8 C 0.0905(3) -0.7468(9) 0.0255(2)
H10 H 0.0393 -0.7091 0.0415
H11 H 0.1164 -0.8801 0.051
C9 C 0.0724(4) -0.8031(11) -0.0472(3)
H12 H 0.0511 -0.6662 -0.0723
H13 H 0.0316 -0.9262 -0.0551
H14 H 0.1227 -0.8536 -0.0616
N3 N -0.1663(2) 0.1085(6) -0.26227(15)
H1 H -0.1657 0.2257 -0.2914
H2 H -0.2006 0.1441 -0.2338
H3 H -0.1841 -0.0217 -0.2848
C10 C -0.0265(3) -0.0529(11) -0.2656(2)
H15 H -0.0254 0.0372 -0.3064
H16 H -0.0503 -0.2054 -0.2789
C11 C -0.0801(3) 0.0702(9) -0.2233(2)
H17 H -0.0831 -0.0228 -0.1835
H18 H -0.0553 0.2203 -0.2086
C12 C 0.0626(3) -0.0842(9) -0.2271(2)
C13 C 0.0825(3) -0.2689(10) -0.1843(3)
H19 H 0.0414 -0.3765 -0.1785
C14 C 0.1626(4) -0.2981(10) -0.1495(3)
H20 H 0.1756 -0.4264 -0.121
C15 C 0.2234(3) -0.1390(11) -0.1567(2)
H21 H 0.2777 -0.1584 -0.1333
C16 C 0.2034(4) 0.0474(11) -0.1984(3)
H22 H 0.2443 0.1571 -0.203
C17 C 0.1245(4) 0.0762(10) -0.2335(2)
H23 H 0.1121 0.2047 -0.262
C18? C 0.4391(7) 0.238(2) -0.0458(5)
C19? C 0.390(2) 0.398(6) -0.0897(14)
H24? H 0.4805 0.3164 -0.0124
H25? H 0.4657 0.1214 -0.0699
H26? H 0.3565 0.3128 -0.1262
H27? H 0.4252 0.5063 -0.1075
H28? H 0.3535 0.4817 -0.0652
loop_
_geom_bond_atom_site_label_1
_geom_bond_atom_site_label_2
_geom_bond_site_symmetry_1
_geom_bond_site_symmetry_2
O1 C4 1_555 1_555
O2 C4 1_555 1_555
O3 C5 1_555 1_555
O4 C5 1_555 1_555
N1 N2 1_555 1_555
N2 C1 1_555 1_555
N3 H1 1_555 1_555
H2 N3 1_555 1_555
H3 N3 1_555 1_555
C1 C2 1_555 1_555
C2 H4 1_555 1_555
C3 N1 1_555 1_555
C4 C3 1_555 1_555
C5 C1 1_555 1_555
C6 O1 1_555 1_555
H5 C6 1_555 1_555
H6 C6 1_555 1_555
C7 C6 1_555 1_555
H7 C7 1_555 1_555
H8 C7 1_555 1_555
H9 C7 1_555 1_555
C8 O3 1_555 1_555
H10 C8 1_555 1_555
H11 C8 1_555 1_555
C9 C8 1_555 1_555
H12 C9 1_555 1_555
H13 C9 1_555 1_555
H14 C9 1_555 1_555
C10 H15 1_555 1_555
H16 C10 1_555 1_555
C11 N3 1_555 1_555
H17 C11 1_555 1_555
H18 C11 1_555 1_555
C12 C10 1_555 1_555
C13 C12 1_555 1_555
H19 C13 1_555 1_555
C14 C13 1_555 1_555
H20 C14 1_555 1_555
C15 C14 1_555 1_555
H21 C15 1_555 1_555
C16 C15 1_555 1_555
H22 C16 1_555 1_555
C17 C12 1_555 1_555
H23 C17 1_555 1_555
C2 C3 1_555 1_555
C10 C11 1_555 1_555
C16 C17 1_555 1_555

#END
