
#######################################################################
#
#                 Cambridge Crystallographic Data Centre
#                                CCDC 
#
#######################################################################
#
# If this CIF has been generated from an entry in the Cambridge 
# Structural Database, then it will include bibliographic, chemical, 
# crystal, experimental, refinement or atomic coordinate data resulting 
# from the CCDC's data processing and validation procedures.
#
#######################################################################

data_NUNHEJ
_chemical_name_common            
'5,11,17,23-tetrahydroxy-2,8,14,20-tetrakis(undecyl)calix[4]resorcinarene ethanol solvate monohydrate'
_chemical_formula_moiety         'C72 H112 O12,2.5(C2 H6 O1),H2 O1'
_chemical_name_systematic        
'2,8,14,20-Tetraundecylpentacyclo(19.3.1.1^3,7^.1^9,13^.1^15,19^)octacosa-1(25),3,5,7(28),9,11,13(27),15,17,19(26),21,23-dodecaene-4,5,6,10,11,12,16,17,18,22,23,24-dodecol ethanol solvate monohydrate'
_symmetry_cell_setting           triclinic
_symmetry_space_group_name_H-M   'P -1'
_symmetry_Int_Tables_number      2
_space_group_name_Hall           '-P 1'
loop_
_symmetry_equiv_pos_site_id
_symmetry_equiv_pos_as_xyz
1 x,y,z
2 -x,-y,-z
_cell_length_a                   11.9971(14)
_cell_length_b                   12.700(2)
_cell_length_c                   25.742(4)
_cell_angle_alpha                80.06(2)
_cell_angle_beta                 84.22(2)
_cell_angle_gamma                82.372(9)
_cell_volume                     3816.89
_exptl_crystal_colour            colorless
_exptl_crystal_description       prism
_chemical_melting_point          353K
_cell_formula_units_Z            2
loop_
_atom_site_label
_atom_site_type_symbol
_atom_site_fract_x
_atom_site_fract_y
_atom_site_fract_z
C1 C 0.4799(5) 0.4834(5) 0.6410(2)
C2 C 0.5799(5) 0.4081(5) 0.6632(2)
H1 H 0.5763(5) 0.3387(5) 0.6520(2)
C3 C 0.6929(5) 0.4462(5) 0.6379(2)
C4 C 0.7551(5) 0.3997(5) 0.5979(2)
C5 C 0.8576(6) 0.4349(5) 0.5772(2)
C6 C 0.8981(5) 0.5140(5) 0.5973(2)
C7 C 0.8399(5) 0.5639(4) 0.6370(2)
C8 C 0.8842(4) 0.6528(4) 0.6599(2)
H2 H 0.9644(4) 0.6508(4) 0.6477(2)
C9 C 0.8280(4) 0.7641(4) 0.6357(2)
C10 C 0.8718(4) 0.8157(4) 0.5872(2)
C11 C 0.8219(4) 0.9158(4) 0.5649(2)
C12 C 0.7279(4) 0.9671(4) 0.5901(2)
C13 C 0.6819(4) 0.9175(4) 0.6392(2)
C14 C 0.5798(4) 0.9744(4) 0.6673(2)
H3 H 0.5829(4) 1.0518(4) 0.6564(2)
C15 C 0.4696(4) 0.9487(5) 0.6482(2)
C16 C 0.4147(4) 1.0213(5) 0.6100(2)
C17 C 0.3158(4) 1.0003(5) 0.5917(2)
C18 C 0.2714(4) 0.9071(5) 0.6133(2)
C19 C 0.3227(4) 0.8308(5) 0.6524(2)
C20 C 0.2740(4) 0.7258(5) 0.6746(2)
H4 H 0.1948(4) 0.7366(5) 0.6665(2)
C21 C 0.3315(4) 0.6344(5) 0.6471(2)
C22 C 0.2939(5) 0.6170(5) 0.6002(3)
C23 C 0.3476(6) 0.5355(5) 0.5735(3)
C24 C 0.4400(5) 0.4692(5) 0.5934(3)
C25 C 0.7365(5) 0.5301(4) 0.6558(2)
H5 H 0.6935(5) 0.5643(4) 0.6815(2)
C26 C 0.7339(4) 0.8177(4) 0.6601(2)
H6 H 0.7041(4) 0.7842(4) 0.6925(2)
C27 C 0.4216(4) 0.8558(5) 0.6680(2)
H7 H 0.4582(4) 0.8066(5) 0.6937(2)
C28 C 0.4245(4) 0.5672(4) 0.6659(2)
H8 H 0.4515(4) 0.5785(4) 0.6968(2)
C29 C 0.5741(5) 0.3861(5) 0.7237(2)
H9 H 0.4994(5) 0.3680(5) 0.7372(2)
H10 H 0.5854(5) 0.4511(5) 0.7364(2)
C30 C 0.6629(5) 0.2935(5) 0.7456(2)
H11 H 0.6516(5) 0.2296(5) 0.7319(2)
H12 H 0.7370(5) 0.3125(5) 0.7315(2)
C31 C 0.6632(7) 0.2665(8) 0.8020(3)
H13 H 0.6173(7) 0.2076(8) 0.8110(3)
H14 H 0.7399(7) 0.2343(8) 0.8076(3)
C32 C 0.6361(14) 0.3229(15) 0.8413(7)
H15 H 0.5693(14) 0.3715(15) 0.8315(7)
H16 H 0.6961(14) 0.3678(15) 0.8399(7)
C34 C 0.6131(5) 0.2784(6) 0.8988(3)
H19 H 0.5509(5) 0.2357(6) 0.9012(3)
H20 H 0.6787(5) 0.2287(6) 0.9092(3)
C35 C 0.5867(12) 0.3477(12) 0.9392(5)
H21 H 0.5248(12) 0.4013(12) 0.9277(5)
H22 H 0.6516(12) 0.3858(12) 0.9393(5)
C37 C 0.5553(5) 0.2988(5) 0.9959(3)
H25 H 0.4908(5) 0.2602(5) 0.9959(3)
H26 H 0.6174(5) 0.2459(5) 1.0076(3)
C38 C 0.5283(13) 0.3690(11) 1.0350(5)
H27 H 0.4658(13) 0.4216(11) 1.0234(5)
H28 H 0.5926(13) 0.4081(11) 1.0349(5)
C40 C 0.4980(5) 0.3202(5) 1.0913(2)
H31 H 0.4327(5) 0.2825(5) 1.0916(2)
H32 H 0.5599(5) 0.2666(5) 1.1027(2)
C41 C 0.4730(12) 0.3918(11) 1.1311(5)
H33 H 0.4131(12) 0.4469(11) 1.1189(5)
H34 H 0.5393(12) 0.4277(11) 1.1315(5)
C43 C 0.4387(6) 0.3452(6) 1.1876(3)
C44 C 0.8787(4) 0.6337(5) 0.7197(2)
H37 H 0.8016(4) 0.6254(5) 0.7336(2)
H38 H 0.9001(4) 0.6962(5) 0.7315(2)
C45 C 0.9559(5) 0.5338(5) 0.7420(3)
H39 H 0.9401(5) 0.4737(5) 0.7264(3)
H40 H 1.0334(5) 0.5461(5) 0.7307(3)
C46 C 0.9469(7) 0.5030(8) 0.7990(3)
H41 H 0.9078(7) 0.4394(8) 0.8047(3)
H42 H 1.0239(7) 0.4770(8) 0.8072(3)
C47 C 0.9049(8) 0.5539(7) 0.8399(3)
H43 H 0.8280(8) 0.5812(7) 0.8320(3)
H44 H 0.9450(8) 0.6168(7) 0.8353(3)
C48 C 0.8973(6) 0.5174(6) 0.8955(3)
H45 H 0.8402(6) 0.4684(6) 0.9022(3)
H46 H 0.9684(6) 0.4739(6) 0.9030(3)
C49 C 0.8744(13) 0.5840(12) 0.9348(6)
H47 H 0.8141(13) 0.6393(12) 0.9233(6)
H48 H 0.9408(13) 0.6200(12) 0.9347(6)
C51 C 0.8421(6) 0.5386(7) 0.9918(3)
H51 H 0.7766(6) 0.5012(7) 0.9918(3)
H52 H 0.9031(6) 0.4843(7) 1.0035(3)
C52 C 0.8173(12) 0.6056(11) 1.0307(5)
H53 H 0.7561(12) 0.6595(11) 1.0189(5)
H54 H 0.8826(12) 0.6434(11) 1.0303(5)
C54 C 0.7859(6) 0.5625(7) 1.0873(3)
H57 H 0.7198(6) 0.5256(7) 1.0881(3)
H58 H 0.8467(6) 0.5084(7) 1.0994(3)
C55 C 0.7626(15) 0.6327(13) 1.1251(6)
H59 H 0.7019(15) 0.6867(13) 1.1126(6)
H60 H 0.8286(15) 0.6699(13) 1.1237(6)
C57 C 0.7299(7) 0.5930(7) 1.1844(3)
C58 C 0.5802(4) 0.9522(5) 0.7267(2)
H63 H 0.6509(4) 0.9695(5) 0.7364(2)
H64 H 0.5771(4) 0.8758(5) 0.7387(2)
C59 C 0.4828(5) 1.0150(5) 0.7560(2)
H65 H 0.4851(5) 1.0914(5) 0.7440(2)
H66 H 0.4118(5) 0.9969(5) 0.7470(2)
C60 C 0.4866(5) 0.9922(6) 0.8146(2)
H67 H 0.5564(5) 1.0140(6) 0.8229(2)
H68 H 0.4910(5) 0.9148(6) 0.8254(2)
C61 C 0.3917(5) 1.0431(6) 0.8487(3)
H69 H 0.3859(5) 1.1206(6) 0.8380(3)
H70 H 0.3217(5) 1.0197(6) 0.8418(3)
C62 C 0.4029(5) 1.0185(6) 0.9070(3)
H71 H 0.4094(5) 0.9409(6) 0.9172(3)
H72 H 0.4737(5) 1.0413(6) 0.9134(3)
C63 C 0.3146(6) 1.0649(7) 0.9427(3)
H73 H 0.2444(6) 1.0396(7) 0.9375(3)
H74 H 0.3058(6) 1.1423(7) 0.9316(3)
C64 C 0.3284(6) 1.0439(6) 1.0002(3)
H75 H 0.3366(6) 0.9665(6) 1.0114(3)
H76 H 0.3988(6) 1.0688(6) 1.0055(3)
C65 C 0.2403(6) 1.0909(7) 1.0357(3)
H77 H 0.1702(6) 1.0654(7) 1.0305(3)
H78 H 0.2315(6) 1.1682(7) 1.0240(3)
C66 C 0.2528(5) 1.0719(7) 1.0932(3)
H79 H 0.2654(5) 0.9947(7) 1.1046(3)
H80 H 0.3207(5) 1.1011(7) 1.0986(3)
C67 C 0.1606(7) 1.1156(8) 1.1285(3)
H81 H 0.0932(7) 1.0854(8) 1.1233(3)
H82 H 0.1471(7) 1.1925(8) 1.1163(3)
C68 C 0.1713(6) 1.0998(7) 1.1868(3)
H83 H 0.1837(41) 1.0242(7) 1.2002(4)
H84 H 0.1032(18) 1.1309(37) 1.2040(4)
H85 H 0.2338(27) 1.1341(34) 1.1935(3)
C69 C 0.2746(5) 0.6966(5) 0.7351(2)
H86 H 0.2471(5) 0.6270(5) 0.7458(2)
H87 H 0.3522(5) 0.6885(5) 0.7441(2)
C70 C 0.2061(5) 0.7748(5) 0.7677(2)
H88 H 0.2293(5) 0.8459(5) 0.7560(2)
H89 H 0.1270(5) 0.7786(5) 0.7617(2)
C71 C 0.2190(5) 0.7439(6) 0.8247(3)
H90 H 0.2039(5) 0.6696(6) 0.8346(3)
H91 H 0.2978(5) 0.7454(6) 0.8299(3)
C72 C 0.1519(6) 0.8050(6) 0.8622(3)
H92 H 0.0731(6) 0.8048(6) 0.8568(3)
H93 H 0.1682(6) 0.8790(6) 0.8531(3)
C73 C 0.1652(5) 0.7706(6) 0.9195(3)
H94 H 0.1545(5) 0.6950(6) 0.9276(3)
H95 H 0.2431(5) 0.7753(6) 0.9248(3)
C74 C 0.0948(6) 0.8246(6) 0.9593(3)
H96 H 0.1063(6) 0.9000(6) 0.9511(3)
H97 H 0.0170(6) 0.8208(6) 0.9533(3)
C75 C 0.1053(6) 0.7914(6) 1.0160(3)
H98 H 0.0984(6) 0.7150(6) 1.0237(3)
H99 H 0.1820(6) 0.7993(6) 1.0222(3)
C76 C 0.0319(6) 0.8408(6) 1.0559(3)
H100 H 0.0379(6) 0.9174(6) 1.0476(3)
H101 H -0.0446(6) 0.8319(6) 1.0498(3)
C77 C 0.0411(6) 0.8109(6) 1.1118(3)
H102 H 0.1177(6) 0.8188(6) 1.1181(3)
H103 H 0.0333(6) 0.7347(6) 1.1205(3)
C78 C -0.0329(7) 0.8638(8) 1.1500(3)
H104 H -0.1094(7) 0.8553(8) 1.1438(3)
H105 H -0.0256(7) 0.9400(8) 1.1410(3)
C79 C -0.0236(8) 0.8348(9) 1.2069(3)
H106 H -0.0871(31) 0.8704(42) 1.2254(3)
H107 H 0.0448(30) 0.8566(48) 1.2157(5)
H108 H -0.0224(55) 0.7583(10) 1.2169(5)
O1 O 0.7211(4) 0.3190(3) 0.5760(2)
H109 H 0.6598(30) 0.3396(22) 0.5640(27)
O2 O 0.9156(4) 0.3913(4) 0.5356(2)
H110 H 0.9090(57) 0.3269(14) 0.5395(16)
O3 O 1.0043(4) 0.5414(4) 0.5750(2)
H111 H 1.0075(25) 0.6053(16) 0.5754(30)
O4 O 0.9656(3) 0.7673(3) 0.5609(2)
H112 H 0.9468(10) 0.7209(38) 0.5461(22)
O5 O 0.8705(3) 0.9609(3) 0.51623(15)
H113 H 0.8574(42) 1.0267(3) 0.5126(10)
O6 O 0.6878(3) 1.0648(3) 0.5639(2)
H114 H 0.6200(11) 1.0770(23) 0.5720(20)
O7 O 0.4607(3) 1.1148(3) 0.5883(2)
H115 H 0.4152(22) 1.1550(23) 0.5702(22)
O8 O 0.2661(3) 1.0774(3) 0.5542(2)
H116 H 0.2132(38) 1.0543(21) 0.5436(20)
O9 O 0.1713(3) 0.8871(3) 0.5941(2)
H117 H 0.1200(13) 0.9336(30) 0.6005(23)
O10 O 0.2041(4) 0.6804(4) 0.5765(2)
H118 H 0.2014(38) 0.6663(43) 0.5468(11)
O11 O 0.3075(4) 0.5203(4) 0.5277(2)
H119 H 0.3545(33) 0.5339(73) 0.5028(6)
O12 O 0.4945(4) 0.3883(4) 0.5671(2)
H120 H 0.4491(14) 0.3664(43) 0.5509(25)
O13 O 0.3557(4) 1.2876(3) 0.5274(2)
H121 H 0.3651(55) 1.2243(3) 0.5413(4)
C80 C 0.3504(9) 1.2939(7) 0.4725(3)
H122 H 0.3408(9) 1.3688(7) 0.4557(3)
H123 H 0.2863(9) 1.2604(7) 0.4658(3)
C81 C 0.4542(9) 1.2392(9) 0.4504(4)
H124 H 0.4524(34) 1.2461(63) 0.4128(6)
H125 H 0.4611(40) 1.1644(18) 0.4658(27)
H126 H 0.5175(10) 1.2711(50) 0.4582(32)
O14 O 0.0239(4) 1.0588(5) 0.6145(2)
H127 H 0.0445(72) 1.1179(36) 0.6143(16)
C82 C -0.0396(6) 1.0265(7) 0.6640(3)
H128 H 0.0111(6) 1.0099(7) 0.6922(3)
H129 H -0.0726(6) 0.9616(7) 0.6622(3)
C83 C -0.1305(6) 1.1115(7) 0.6767(4)
H130 H -0.0984(9) 1.1764(15) 0.6777(23)
H131 H -0.1685(32) 1.0882(20) 0.7106(11)
H132 H -0.1835(28) 1.1249(34) 0.6501(13)
O15 O 1.1420(8) 0.2956(11) 0.5890(5)
H133 H 1.105(16) 0.246(12) 0.5901(7)
C84 C 1.1511(11) 0.3135(13) 0.6402(5)
H134 H 1.0817(11) 0.2966(13) 0.6608(5)
H135 H 1.1536(11) 0.3902(13) 0.6383(5)
C85 C 1.2441(9) 0.2581(12) 0.6706(5)
H136 H 1.2370(44) 0.1824(15) 0.6783(31)
H137 H 1.2419(47) 0.2861(52) 0.7031(18)
H138 H 1.3144(10) 0.2692(63) 0.6503(16)
O16 O 0.9055(3) 1.1604(3) 0.5299(2)
H139 H 0.8430 1.1997 0.5483
H140 H 0.9304 1.2249 0.5112
C33? C 0.5841(15) 0.2923(17) 0.8430(7)
H17? H 0.5220(15) 0.2507(17) 0.8428(7)
H18? H 0.5549(15) 0.3674(17) 0.8332(7)
C36? C 0.5246(14) 0.3021(13) 0.9427(6)
H23? H 0.4862(14) 0.3734(13) 0.9315(6)
H24? H 0.4694(14) 0.2519(13) 0.9447(6)
C39? C 0.4657(13) 0.3210(14) 1.0391(6)
H29? H 0.4249(13) 0.3910(14) 1.0276(6)
H30? H 0.4128(13) 0.2684(14) 1.0417(6)
C42? C 0.4100(12) 0.3443(14) 1.1346(6)
H35? H 0.3701(12) 0.4145(14) 1.1226(6)
H36? H 0.3562(12) 0.2926(14) 1.1373(6)
C50? C 0.8131(18) 0.5441(20) 0.9405(7)
H49? H 0.7783(18) 0.6170(20) 0.9296(7)
H50? H 0.7544(18) 0.4975(20) 0.9425(7)
C53? C 0.7513(15) 0.5633(16) 1.0361(6)
H55? H 0.7113(15) 0.6337(16) 1.0246(6)
H56? H 0.6974(15) 0.5115(16) 1.0393(6)
C56? C 0.6983(16) 0.5877(21) 1.1343(8)
H61? H 0.6553(16) 0.6563(21) 1.1222(8)
H62? H 0.6461(16) 0.5340(21) 1.1391(8)
loop_
_geom_bond_atom_site_label_1
_geom_bond_atom_site_label_2
_geom_bond_site_symmetry_1
_geom_bond_site_symmetry_2
C1 C2 1_555 1_555
C2 H1 1_555 1_555
C3 C2 1_555 1_555
C4 C3 1_555 1_555
C5 C4 1_555 1_555
C6 C5 1_555 1_555
C7 C6 1_555 1_555
C8 C7 1_555 1_555
H2 C8 1_555 1_555
C9 C8 1_555 1_555
C10 C9 1_555 1_555
C11 C10 1_555 1_555
C12 C11 1_555 1_555
C13 C12 1_555 1_555
C14 C13 1_555 1_555
H3 C14 1_555 1_555
C15 C14 1_555 1_555
C16 C15 1_555 1_555
C17 C16 1_555 1_555
C18 C17 1_555 1_555
C19 C18 1_555 1_555
C20 C19 1_555 1_555
H4 C20 1_555 1_555
C21 C20 1_555 1_555
C22 C21 1_555 1_555
C23 C22 1_555 1_555
C24 C1 1_555 1_555
C25 C3 1_555 1_555
H5 C25 1_555 1_555
C26 C9 1_555 1_555
H6 C26 1_555 1_555
C27 C15 1_555 1_555
H7 C27 1_555 1_555
C28 C1 1_555 1_555
H8 C28 1_555 1_555
C29 C2 1_555 1_555
H9 C29 1_555 1_555
H10 C29 1_555 1_555
C30 C29 1_555 1_555
H11 C30 1_555 1_555
H12 C30 1_555 1_555
C31 C30 1_555 1_555
H13 C31 1_555 1_555
H14 C31 1_555 1_555
C32 C31 1_555 1_555
H15 C32 1_555 1_555
H16 C32 1_555 1_555
C34 C32 1_555 1_555
H19 C34 1_555 1_555
H20 C34 1_555 1_555
C35 C34 1_555 1_555
H21 C35 1_555 1_555
H22 C35 1_555 1_555
C37 C35 1_555 1_555
H25 C37 1_555 1_555
H26 C37 1_555 1_555
C38 C37 1_555 1_555
H27 C38 1_555 1_555
H28 C38 1_555 1_555
C40 C38 1_555 1_555
H31 C40 1_555 1_555
H32 C40 1_555 1_555
C41 C40 1_555 1_555
H33 C41 1_555 1_555
H34 C41 1_555 1_555
C43 C41 1_555 1_555
C44 C8 1_555 1_555
H37 C44 1_555 1_555
H38 C44 1_555 1_555
C45 C44 1_555 1_555
H39 C45 1_555 1_555
H40 C45 1_555 1_555
C46 C45 1_555 1_555
H41 C46 1_555 1_555
H42 C46 1_555 1_555
C47 C46 1_555 1_555
H43 C47 1_555 1_555
H44 C47 1_555 1_555
C48 C47 1_555 1_555
H45 C48 1_555 1_555
H46 C48 1_555 1_555
C49 C48 1_555 1_555
H47 C49 1_555 1_555
H48 C49 1_555 1_555
C51 C49 1_555 1_555
H51 C51 1_555 1_555
H52 C51 1_555 1_555
C52 C51 1_555 1_555
H53 C52 1_555 1_555
H54 C52 1_555 1_555
C54 C52 1_555 1_555
H57 C54 1_555 1_555
H58 C54 1_555 1_555
C55 C54 1_555 1_555
H59 C55 1_555 1_555
H60 C55 1_555 1_555
C57 C55 1_555 1_555
C58 C14 1_555 1_555
H63 C58 1_555 1_555
H64 C58 1_555 1_555
C59 C58 1_555 1_555
H65 C59 1_555 1_555
H66 C59 1_555 1_555
C60 C59 1_555 1_555
H67 C60 1_555 1_555
H68 C60 1_555 1_555
C61 C60 1_555 1_555
H69 C61 1_555 1_555
H70 C61 1_555 1_555
C62 C61 1_555 1_555
H71 C62 1_555 1_555
H72 C62 1_555 1_555
C63 C62 1_555 1_555
H73 C63 1_555 1_555
H74 C63 1_555 1_555
C64 C63 1_555 1_555
H75 C64 1_555 1_555
H76 C64 1_555 1_555
C65 C64 1_555 1_555
H77 C65 1_555 1_555
H78 C65 1_555 1_555
C66 C65 1_555 1_555
H79 C66 1_555 1_555
H80 C66 1_555 1_555
C67 C66 1_555 1_555
H81 C67 1_555 1_555
H82 C67 1_555 1_555
C68 C67 1_555 1_555
H83 C68 1_555 1_555
H84 C68 1_555 1_555
H85 C68 1_555 1_555
C69 C20 1_555 1_555
H86 C69 1_555 1_555
H87 C69 1_555 1_555
C70 C69 1_555 1_555
H88 C70 1_555 1_555
H89 C70 1_555 1_555
C71 C70 1_555 1_555
H90 C71 1_555 1_555
H91 C71 1_555 1_555
C72 C71 1_555 1_555
H92 C72 1_555 1_555
H93 C72 1_555 1_555
C73 C72 1_555 1_555
H94 C73 1_555 1_555
H95 C73 1_555 1_555
C74 C73 1_555 1_555
H96 C74 1_555 1_555
H97 C74 1_555 1_555
C75 C74 1_555 1_555
H98 C75 1_555 1_555
H99 C75 1_555 1_555
C76 C75 1_555 1_555
H100 C76 1_555 1_555
H101 C76 1_555 1_555
C77 C76 1_555 1_555
H102 C77 1_555 1_555
H103 C77 1_555 1_555
C78 C77 1_555 1_555
H104 C78 1_555 1_555
H105 C78 1_555 1_555
C79 C78 1_555 1_555
H106 C79 1_555 1_555
H107 C79 1_555 1_555
H108 C79 1_555 1_555
O1 C4 1_555 1_555
H109 O1 1_555 1_555
O2 C5 1_555 1_555
H110 O2 1_555 1_555
O3 C6 1_555 1_555
H111 O3 1_555 1_555
O4 C10 1_555 1_555
H112 O4 1_555 1_555
O5 C11 1_555 1_555
H113 O5 1_555 1_555
O6 C12 1_555 1_555
H114 O6 1_555 1_555
O7 C16 1_555 1_555
H115 O7 1_555 1_555
O8 C17 1_555 1_555
H116 O8 1_555 1_555
O9 C18 1_555 1_555
H117 O9 1_555 1_555
O10 C22 1_555 1_555
H118 O10 1_555 1_555
O11 C23 1_555 1_555
H119 O11 1_555 1_555
O12 C24 1_555 1_555
H120 O12 1_555 1_555
O13 H121 1_555 1_555
C80 O13 1_555 1_555
H122 C80 1_555 1_555
H123 C80 1_555 1_555
C81 C80 1_555 1_555
H124 C81 1_555 1_555
H125 C81 1_555 1_555
H126 C81 1_555 1_555
O14 H127 1_555 1_555
C82 O14 1_555 1_555
H128 C82 1_555 1_555
H129 C82 1_555 1_555
C83 C82 1_555 1_555
H130 C83 1_555 1_555
H131 C83 1_555 1_555
H132 C83 1_555 1_555
O15 H133 1_555 1_555
C84 O15 1_555 1_555
H134 C84 1_555 1_555
H135 C84 1_555 1_555
C85 C84 1_555 1_555
H136 C85 1_555 1_555
H137 C85 1_555 1_555
H138 C85 1_555 1_555
O16 H139 1_555 1_555
H140 O16 1_555 1_555
C7 C25 1_555 1_555
C13 C26 1_555 1_555
C19 C27 1_555 1_555
C21 C28 1_555 1_555
C23 C24 1_555 1_555

#END
