
#######################################################################
#
#                 Cambridge Crystallographic Data Centre
#                                CCDC 
#
#######################################################################
#
# If this CIF has been generated from an entry in the Cambridge 
# Structural Database, then it will include bibliographic, chemical, 
# crystal, experimental, refinement or atomic coordinate data resulting 
# from the CCDC's data processing and validation procedures.
#
#######################################################################

data_NUNKUE
_chemical_formula_moiety         
'C12 H30 Na1 O6 1+,C60 H50 B3 N12 1-,0.5(C6 H14)'
_chemical_name_systematic        
"tris(1,2-di(methoxy)ethane)-sodium(i) 1,9,18-tris(4-methylphenyl)-3,5,7,11,20-pentaphenyl-6,7-dihydro-3H,5H,11H,20H-6\l^5^-bis[1,2,4,3]triazaborolo[4',3':2,3;4'',3'':4,5][1,2,4,6,3,5,7]tetrazatriborepino[7,1-c][1,2,4,3]triazaborolo[4,3-b][1,2,4,3]benzotriazaborinine"
_symmetry_cell_setting           monoclinic
_symmetry_space_group_name_H-M   'P 21/n'
_symmetry_Int_Tables_number      14
_space_group_name_Hall           '-P 2yn'
loop_
_symmetry_equiv_pos_site_id
_symmetry_equiv_pos_as_xyz
1 x,y,z
2 1/2-x,1/2+y,1/2-z
3 -x,-y,-z
4 1/2+x,1/2-y,1/2+z
_cell_length_a                   13.1785(6)
_cell_length_b                   21.1594(9)
_cell_length_c                   26.1619(10)
_cell_angle_alpha                90
_cell_angle_beta                 94.1169(13)
_cell_angle_gamma                90
_cell_volume                     7276.4
_exptl_crystal_colour            yellow
_exptl_crystal_description       block
_cell_formula_units_Z            4
loop_
_atom_site_label
_atom_site_type_symbol
_atom_site_fract_x
_atom_site_fract_y
_atom_site_fract_z
N1 N 0.04885(17) 0.25721(11) 0.68197(8)
N2 N 0.11659(18) 0.21354(11) 0.70557(9)
N3 N 0.13131(17) 0.20428(10) 0.62021(8)
N4 N 0.13008(17) 0.15850(10) 0.58060(8)
N5 N -0.05575(17) 0.20736(11) 0.60414(9)
N6 N -0.15336(17) 0.23293(12) 0.60940(9)
N7 N -0.3063(2) 0.25105(14) 0.63792(10)
N8 N -0.29266(16) 0.29373(11) 0.59722(9)
N9 N -0.00976(17) 0.36208(11) 0.50432(8)
N10 N -0.09966(18) 0.37250(11) 0.47321(9)
N11 N -0.13791(17) 0.31220(11) 0.54046(9)
N12 N 0.03810(16) 0.31056(10) 0.59323(8)
C1 C -0.0058(2) 0.29328(14) 0.71475(11)
C2 C -0.0780(2) 0.33709(15) 0.69580(12)
H1 H -0.0873 0.3438 0.6599
C3 C -0.1361(3) 0.37101(16) 0.72804(14)
H2 H -0.1857 0.3999 0.7139
C4 C -0.1230(3) 0.36348(18) 0.78068(15)
H3 H -0.1633 0.3866 0.8029
C5 C -0.0505(3) 0.32189(18) 0.79993(14)
H4 H -0.0399 0.3169 0.8360
C6 C 0.0077(3) 0.28690(16) 0.76822(12)
H5 H 0.0573 0.2583 0.7828
C7 C 0.1579(2) 0.18222(13) 0.66996(10)
C8 C 0.2317(2) 0.13165(13) 0.68356(11)
C9 C 0.2215(3) 0.09785(14) 0.72881(11)
H6 H 0.1642 0.1050 0.7481
C10 C 0.2942(3) 0.05423(16) 0.74554(14)
H7 H 0.2862 0.0322 0.7766
C11 C 0.3776(3) 0.04168(15) 0.71876(15)
C12 C 0.3866(3) 0.07354(15) 0.67259(14)
H8 H 0.4428 0.0650 0.6529
C13 C 0.3139(2) 0.11770(14) 0.65527(12)
H9 H 0.3207 0.1386 0.6236
C14 C 0.4583(3) -0.00472(18) 0.73944(18)
H10 H 0.4987 -0.0187 0.7115
H11 H 0.4254 -0.0414 0.7541
H12 H 0.5028 0.0159 0.7660
C15 C 0.1943(2) 0.16676(13) 0.54077(10)
C16 C 0.2732(2) 0.21058(13) 0.54495(10)
H13 H 0.2824 0.2363 0.5747
C17 C 0.3386(2) 0.21709(14) 0.50609(11)
H14 H 0.3921 0.2472 0.5097
C18 C 0.3274(2) 0.18060(14) 0.46223(11)
H15 H 0.3727 0.1850 0.4358
C19 C 0.2490(2) 0.13779(15) 0.45795(12)
H16 H 0.2402 0.1125 0.4280
C20 C 0.1828(2) 0.13053(14) 0.49581(11)
H17 H 0.1288 0.1008 0.4915
C21 C -0.0521(2) 0.14487(13) 0.58751(10)
C22 C -0.1380(2) 0.10633(14) 0.57933(10)
H18 H -0.2035 0.1233 0.5835
C23 C -0.1285(3) 0.04373(15) 0.56519(11)
H19 H -0.1879 0.0186 0.5590
C24 C -0.0337(3) 0.01712(15) 0.55989(11)
H20 H -0.0274 -0.0264 0.5516
C25 C 0.0514(2) 0.05499(14) 0.56683(10)
H21 H 0.1169 0.0371 0.5640
C26 C 0.0429(2) 0.11885(13) 0.57789(10)
C27 C -0.2237(2) 0.21728(16) 0.64487(11)
C28 C -0.2151(3) 0.16909(16) 0.68508(12)
C29 C -0.3051(3) 0.1453(2) 0.70236(13)
H22 H -0.3685 0.1592 0.6868
C30 C -0.3036(4) 0.1024(2) 0.74118(15)
H23 H -0.3662 0.0874 0.7524
C31 C -0.2134(4) 0.08013(17) 0.76469(13)
C32 C -0.1217(3) 0.10293(16) 0.74729(12)
H24 H -0.0584 0.0882 0.7625
C33 C -0.1238(3) 0.14711(15) 0.70773(11)
H25 H -0.0617 0.1623 0.6962
C34 C -0.2089(4) 0.03335(19) 0.80889(15)
H26 H -0.1384 0.0197 0.8166
H27 H -0.2513 -0.0034 0.7994
H28 H -0.2341 0.0536 0.8392
C35 C 0.0786(2) 0.38853(13) 0.48613(10)
C36 C 0.1704(2) 0.35687(14) 0.49343(10)
H29 H 0.1742 0.3180 0.5116
C37 C 0.2556(2) 0.38177(17) 0.47435(13)
H30 H 0.3192 0.3609 0.4801
C38 C 0.2492(3) 0.4372(2) 0.44674(16)
H31 H 0.3076 0.4533 0.4320
C39 C 0.1584(3) 0.46927(19) 0.44048(16)
H32 H 0.1550 0.5083 0.4225
C40 C 0.0730(2) 0.44542(15) 0.46002(12)
H33 H 0.0103 0.4677 0.4557
C41 C -0.1708(2) 0.34281(14) 0.49486(11)
C42 C -0.2739(2) 0.33909(14) 0.46956(12)
C43 C -0.3153(2) 0.39174(15) 0.44342(13)
H34 H -0.2790 0.4306 0.4444
C44 C -0.4089(2) 0.38758(16) 0.41612(13)
H35 H -0.4363 0.4238 0.3987
C45 C -0.4639(2) 0.33154(15) 0.41363(12)
C46 C -0.4229(2) 0.27972(15) 0.44045(11)
H36 H -0.4598 0.2411 0.4398
C47 C -0.3289(2) 0.28305(14) 0.46822(11)
H37 H -0.3023 0.2470 0.4862
C48 C -0.5640(2) 0.32687(17) 0.38214(13)
H38 H -0.6084 0.2969 0.3983
H39 H -0.5520 0.3122 0.3476
H40 H -0.5965 0.3685 0.3801
C49 C 0.1073(2) 0.35901(13) 0.61107(10)
C50 C 0.2002(2) 0.34552(13) 0.63792(10)
H41 H 0.2176 0.3029 0.6460
C51 C 0.2672(2) 0.39361(13) 0.65298(10)
H42 H 0.3299 0.3835 0.6714
C52 C 0.2443(2) 0.45571(14) 0.64171(11)
H43 H 0.2920 0.4882 0.6508
C53 C 0.1512(2) 0.47012(14) 0.61709(11)
H44 H 0.1339 0.5129 0.6097
C54 C 0.0831(2) 0.42273(13) 0.60308(10)
H45 H 0.0180 0.4336 0.5876
B1 B 0.0379(2) 0.24801(15) 0.62327(12)
B2 B -0.1958(3) 0.28261(17) 0.57813(13)
B3 B -0.0289(2) 0.32509(15) 0.54869(12)
C55 C -0.3706(2) 0.33826(15) 0.58338(17)
C56 C -0.4688(3) 0.31530(13) 0.58625(19)
H46 H -0.4793 0.2729 0.5966
C57 C -0.5518(2) 0.35436(16) 0.57393(16)
H47 H -0.6190 0.3387 0.5759
C58 C -0.53654(18) 0.41637(14) 0.55872(15)
H48 H -0.5933 0.4431 0.5503
C59 C -0.4383(2) 0.43933(11) 0.55584(19)
H49 H -0.4279 0.4817 0.5454
C60 C -0.35532(16) 0.40028(15) 0.56817(18)
H50 H -0.2882 0.4160 0.5662
Na1 Na -0.03910(9) 0.19267(5) 0.33046(4)
O1 O 0.07294(16) 0.11560(10) 0.30243(8)
O2 O -0.05242(15) 0.19217(10) 0.23920(7)
O3 O -0.19037(18) 0.13615(11) 0.33646(9)
O4 O -0.05044(18) 0.15928(10) 0.41755(8)
O5 O 0.07963(17) 0.27670(11) 0.32927(9)
O6 O -0.12145(19) 0.28629(11) 0.34798(8)
C67 C 0.0956(3) 0.05730(17) 0.32799(14)
H56 H 0.1612 0.0413 0.3181
H57 H 0.0422 0.0264 0.3183
H58 H 0.0990 0.0640 0.3651
C68 C 0.0668(3) 0.10867(19) 0.24826(13)
H59 H 0.0124 0.0782 0.2374
H60 H 0.1320 0.0923 0.2371
C69 C 0.0441(3) 0.1711(2) 0.22442(13)
H61 H 0.0975 0.2019 0.2359
H62 H 0.0427 0.1675 0.1866
C70 C -0.0848(3) 0.24900(16) 0.21374(12)
H63 H -0.0904 0.2419 0.1766
H64 H -0.0350 0.2825 0.2221
H65 H -0.1512 0.2616 0.2250
C71 C -0.2414(4) 0.1085(2) 0.29239(17)
H66 H -0.3104 0.0964 0.3001
H67 H -0.2041 0.0709 0.2824
H68 H -0.2449 0.1391 0.2642
C72 C -0.1828(3) 0.09541(19) 0.37964(16)
H69 H -0.1335 0.0611 0.3744
H70 H -0.2497 0.0761 0.3847
C73 C -0.1480(3) 0.1339(2) 0.42520(15)
H71 H -0.1968 0.1686 0.4300
H72 H -0.1443 0.1071 0.4563
C74 C -0.0242(4) 0.20878(19) 0.45324(13)
H73 H -0.0258 0.1925 0.4883
H74 H -0.0731 0.2435 0.4481
H75 H 0.0443 0.2242 0.4479
C75 C 0.1861(3) 0.2670(2) 0.33937(17)
H76 H 0.2232 0.3032 0.3266
H77 H 0.2065 0.2285 0.3221
H78 H 0.2019 0.2627 0.3764
C76 C 0.0434(3) 0.33108(17) 0.35451(15)
H79 H 0.0838 0.3685 0.3459
H80 H 0.0514 0.3249 0.3921
C77 C -0.0653(3) 0.34173(16) 0.33824(14)
H81 H -0.0917 0.3778 0.3574
H82 H -0.0727 0.3519 0.3012
C78 C -0.2287(3) 0.2935(2) 0.33629(15)
H83 H -0.2534 0.3296 0.3552
H84 H -0.2638 0.2550 0.3462
H85 H -0.2422 0.3006 0.2994
C79 C 0.5714(3) 0.1273(2) 0.55709(17)
H86 H 0.6154 0.1631 0.5499
H87 H 0.5987 0.1057 0.5882
H88 H 0.5027 0.1427 0.5621
C80 C 0.5673(3) 0.0820(2) 0.51274(17)
H89 H 0.6374 0.0685 0.5067
H90 H 0.5390 0.1041 0.4816
C81 C 0.5032(3) 0.0236(2) 0.52136(16)
H91 H 0.5315 0.0023 0.5529
H92 H 0.4334 0.0376 0.5274
C79B C 0.4286(3) -0.1273(2) 0.44291(17)
H86B H 0.3846 -0.1631 0.4501
H87B H 0.4013 -0.1057 0.4118
H88B H 0.4973 -0.1427 0.4379
C80B C 0.4327(3) -0.0820(2) 0.48726(17)
H89B H 0.3626 -0.0685 0.4933
H90B H 0.4610 -0.1041 0.5184
C81B C 0.4968(3) -0.0236(2) 0.47864(16)
H91B H 0.4685 -0.0023 0.4471
H92B H 0.5666 -0.0376 0.4726
C61? C -0.3858(4) 0.3263(4) 0.5935(5)
C62? C -0.4874(5) 0.3111(3) 0.5816(6)
H51? H -0.5075 0.2682 0.5778
C63? C -0.5596(4) 0.3589(4) 0.5752(6)
H52? H -0.6291 0.3485 0.5671
C64? C -0.5303(6) 0.4218(4) 0.5808(5)
H53? H -0.5797 0.4544 0.5764
C65? C -0.4287(7) 0.4369(3) 0.5927(5)
H54? H -0.4087 0.4798 0.5965
C66? C -0.3565(4) 0.3891(5) 0.5991(5)
H55? H -0.2870 0.3995 0.6072
loop_
_geom_bond_atom_site_label_1
_geom_bond_atom_site_label_2
_geom_bond_site_symmetry_1
_geom_bond_site_symmetry_2
N1 N2 1_555 1_555
N2 C7 1_555 1_555
N3 N4 1_555 1_555
N4 C15 1_555 1_555
N5 N6 1_555 1_555
N6 C27 1_555 1_555
N7 N8 1_555 1_555
N8 B2 1_555 1_555
N9 N10 1_555 1_555
N10 C41 1_555 1_555
N11 C41 1_555 1_555
N12 C49 1_555 1_555
C1 N1 1_555 1_555
C2 C1 1_555 1_555
H1 C2 1_555 1_555
C3 C2 1_555 1_555
H2 C3 1_555 1_555
C4 C3 1_555 1_555
H3 C4 1_555 1_555
C5 C4 1_555 1_555
H4 C5 1_555 1_555
C6 C1 1_555 1_555
H5 C6 1_555 1_555
C7 N3 1_555 1_555
C8 C7 1_555 1_555
C9 C8 1_555 1_555
H6 C9 1_555 1_555
C10 C9 1_555 1_555
H7 C10 1_555 1_555
C11 C10 1_555 1_555
C12 C11 1_555 1_555
H8 C12 1_555 1_555
C13 C8 1_555 1_555
H9 C13 1_555 1_555
C14 C11 1_555 1_555
H10 C14 1_555 1_555
H11 C14 1_555 1_555
H12 C14 1_555 1_555
C15 C16 1_555 1_555
C16 H13 1_555 1_555
C17 C16 1_555 1_555
H14 C17 1_555 1_555
C18 C17 1_555 1_555
H15 C18 1_555 1_555
C19 C18 1_555 1_555
H16 C19 1_555 1_555
C20 C15 1_555 1_555
H17 C20 1_555 1_555
C21 N5 1_555 1_555
C22 C21 1_555 1_555
H18 C22 1_555 1_555
C23 C22 1_555 1_555
H19 C23 1_555 1_555
C24 C23 1_555 1_555
H20 C24 1_555 1_555
C25 C24 1_555 1_555
H21 C25 1_555 1_555
C26 N4 1_555 1_555
C27 N7 1_555 1_555
C28 C27 1_555 1_555
C29 C28 1_555 1_555
H22 C29 1_555 1_555
C30 C29 1_555 1_555
H23 C30 1_555 1_555
C31 C30 1_555 1_555
C32 C31 1_555 1_555
H24 C32 1_555 1_555
C33 C28 1_555 1_555
H25 C33 1_555 1_555
C34 C31 1_555 1_555
H26 C34 1_555 1_555
H27 C34 1_555 1_555
H28 C34 1_555 1_555
C35 N9 1_555 1_555
C36 C35 1_555 1_555
H29 C36 1_555 1_555
C37 C36 1_555 1_555
H30 C37 1_555 1_555
C38 C37 1_555 1_555
H31 C38 1_555 1_555
C39 C38 1_555 1_555
H32 C39 1_555 1_555
C40 C35 1_555 1_555
H33 C40 1_555 1_555
C41 C42 1_555 1_555
C42 C43 1_555 1_555
C43 H34 1_555 1_555
C44 C43 1_555 1_555
H35 C44 1_555 1_555
C45 C44 1_555 1_555
C46 C45 1_555 1_555
H36 C46 1_555 1_555
C47 C42 1_555 1_555
H37 C47 1_555 1_555
C48 C45 1_555 1_555
H38 C48 1_555 1_555
H39 C48 1_555 1_555
H40 C48 1_555 1_555
C49 C50 1_555 1_555
C50 H41 1_555 1_555
C51 C50 1_555 1_555
H42 C51 1_555 1_555
C52 C51 1_555 1_555
H43 C52 1_555 1_555
C53 C52 1_555 1_555
H44 C53 1_555 1_555
C54 C49 1_555 1_555
H45 C54 1_555 1_555
B1 N1 1_555 1_555
B2 N6 1_555 1_555
B3 N9 1_555 1_555
C55 N8 1_555 1_555
C56 C55 1_555 1_555
H46 C56 1_555 1_555
C57 C56 1_555 1_555
H47 C57 1_555 1_555
C58 C57 1_555 1_555
H48 C58 1_555 1_555
C59 C58 1_555 1_555
H49 C59 1_555 1_555
C60 C55 1_555 1_555
H50 C60 1_555 1_555
Na1 O1 1_555 1_555
O1 C67 1_555 1_555
O2 Na1 1_555 1_555
O3 Na1 1_555 1_555
O4 Na1 1_555 1_555
O5 Na1 1_555 1_555
O6 Na1 1_555 1_555
C67 H56 1_555 1_555
H57 C67 1_555 1_555
H58 C67 1_555 1_555
C68 O1 1_555 1_555
H59 C68 1_555 1_555
H60 C68 1_555 1_555
C69 O2 1_555 1_555
H61 C69 1_555 1_555
H62 C69 1_555 1_555
C70 O2 1_555 1_555
H63 C70 1_555 1_555
H64 C70 1_555 1_555
H65 C70 1_555 1_555
C71 O3 1_555 1_555
H66 C71 1_555 1_555
H67 C71 1_555 1_555
H68 C71 1_555 1_555
C72 O3 1_555 1_555
H69 C72 1_555 1_555
H70 C72 1_555 1_555
C73 O4 1_555 1_555
H71 C73 1_555 1_555
H72 C73 1_555 1_555
C74 O4 1_555 1_555
H73 C74 1_555 1_555
H74 C74 1_555 1_555
H75 C74 1_555 1_555
C75 O5 1_555 1_555
H76 C75 1_555 1_555
H77 C75 1_555 1_555
H78 C75 1_555 1_555
C76 O5 1_555 1_555
H79 C76 1_555 1_555
H80 C76 1_555 1_555
C77 O6 1_555 1_555
H81 C77 1_555 1_555
H82 C77 1_555 1_555
C78 O6 1_555 1_555
H83 C78 1_555 1_555
H84 C78 1_555 1_555
H85 C78 1_555 1_555
C79 H86 1_555 1_555
H87 C79 1_555 1_555
H88 C79 1_555 1_555
C80 C79 1_555 1_555
H89 C80 1_555 1_555
H90 C80 1_555 1_555
C81 C80 1_555 1_555
H91 C81 1_555 1_555
H92 C81 1_555 1_555
C79B H86B 1_555 1_555
H87B C79B 1_555 1_555
H88B C79B 1_555 1_555
C80B C79B 1_555 1_555
H89B C80B 1_555 1_555
H90B C80B 1_555 1_555
C81B C81 1_555 1_555
H91B C81B 1_555 1_555
H92B C81B 1_555 1_555
N3 B1 1_555 1_555
N5 B1 1_555 1_555
N11 B2 1_555 1_555
N11 B3 1_555 1_555
N12 B1 1_555 1_555
N12 B3 1_555 1_555
C5 C6 1_555 1_555
C12 C13 1_555 1_555
C19 C20 1_555 1_555
C21 C26 1_555 1_555
C25 C26 1_555 1_555
C32 C33 1_555 1_555
C39 C40 1_555 1_555
C46 C47 1_555 1_555
C53 C54 1_555 1_555
C59 C60 1_555 1_555
C68 C69 1_555 1_555
C72 C73 1_555 1_555
C76 C77 1_555 1_555
C80B C81B 1_555 1_555

#END
