
#######################################################################
#
#                 Cambridge Crystallographic Data Centre
#                                CCDC 
#
#######################################################################
#
# If this CIF has been generated from an entry in the Cambridge 
# Structural Database, then it will include bibliographic, chemical, 
# crystal, experimental, refinement or atomic coordinate data resulting 
# from the CCDC's data processing and validation procedures.
#
#######################################################################

data_NUNKIS
_chemical_formula_moiety         'C60 H51 B3 N12'
_chemical_name_systematic        
3,6',11-tris(4-methylphenyl)-1,2',4',5,7,9-hexaphenyl-6,7-dihydro-1H,2'H,5H,9H-spiro[bis[1,2,4,3]triazaborolo[4,3-b:4',3'-d][1,2,4,6,3,5,7]tetrazatriborepine-6,3'-[1,2,4,5,3]tetrazaborinine]
_symmetry_cell_setting           orthorhombic
_symmetry_space_group_name_H-M   'P 21 21 21'
_symmetry_Int_Tables_number      19
_space_group_name_Hall           'P 2ac 2ab'
loop_
_symmetry_equiv_pos_site_id
_symmetry_equiv_pos_as_xyz
1 x,y,z
2 1/2-x,-y,1/2+z
3 -x,1/2+y,1/2-z
4 1/2+x,1/2-y,-z
_cell_length_a                   11.0453(10)
_cell_length_b                   19.3899(17)
_cell_length_c                   22.940(2)
_cell_angle_alpha                90
_cell_angle_beta                 90
_cell_angle_gamma                90
_cell_volume                     4913
_exptl_crystal_colour            purple
_exptl_crystal_description       plate
_cell_formula_units_Z            4
loop_
_atom_site_label
_atom_site_type_symbol
_atom_site_fract_x
_atom_site_fract_y
_atom_site_fract_z
N1 N 0.4836(6) 0.7080(3) 0.6959(3)
N2 N 0.4728(6) 0.7489(4) 0.6513(3)
N3 N 0.4932(6) 0.8471(3) 0.7104(3)
N4 N 0.5025(6) 0.8082(3) 0.7576(3)
N5 N 0.5153(6) 0.6900(3) 0.8057(3)
N6 N 0.3360(6) 0.6371(3) 0.8606(3)
N7 N 0.4070(6) 0.6277(3) 0.9521(3)
N8 N 0.4972(6) 0.6597(3) 0.9179(3)
N9 N 0.2100(6) 0.5622(3) 0.7847(3)
N10 N 0.1724(6) 0.5761(3) 0.7269(3)
N11 N 0.2652(6) 0.6688(3) 0.7621(3)
N12 N 0.3131(6) 0.7363(3) 0.7637(3)
C1 C 0.5319(7) 0.6422(4) 0.6790(3)
C2 C 0.6243(7) 0.6419(5) 0.6372(4)
H1 H 0.6570 0.6842 0.6233
C3 C 0.6677(8) 0.5798(5) 0.6164(4)
H2 H 0.7295 0.5792 0.5876
C4 C 0.6217(8) 0.5195(5) 0.6372(4)
H3 H 0.6500 0.4769 0.6219
C5 C 0.5350(8) 0.5195(5) 0.6800(4)
H4 H 0.5056 0.4770 0.6950
C6 C 0.4899(7) 0.5811(4) 0.7015(3)
H5 H 0.4306 0.5811 0.7315
C7 C 0.4600(7) 0.8170(4) 0.6610(3)
C8 C 0.4443(7) 0.8602(4) 0.6087(3)
C9 C 0.4422(7) 0.9313(4) 0.6131(4)
H6 H 0.4385 0.9526 0.6503
C10 C 0.4456(7) 0.9715(5) 0.5631(3)
H7 H 0.4445 1.0203 0.5666
C11 C 0.4507(7) 0.9422(5) 0.5083(4)
C12 C 0.4432(7) 0.8716(4) 0.5049(4)
H8 H 0.4399 0.8502 0.4677
C13 C 0.4403(7) 0.8312(5) 0.5541(3)
H9 H 0.4355 0.7825 0.5503
C14 C 0.4618(8) 0.9865(5) 0.4541(4)
H10 H 0.5266 1.0204 0.4597
H11 H 0.3851 1.0106 0.4472
H12 H 0.4809 0.9573 0.4205
C15 C 0.5648(7) 0.8423(4) 0.8041(3)
C16 C 0.5192(8) 0.8389(4) 0.8603(3)
H13 H 0.4477 0.8134 0.8682
C17 C 0.5788(8) 0.8731(4) 0.9043(4)
H14 H 0.5486 0.8711 0.9431
C18 C 0.6815(8) 0.9098(4) 0.8922(4)
H15 H 0.7230 0.9325 0.9231
C19 C 0.7258(8) 0.9145(4) 0.8366(3)
H16 H 0.7956 0.9415 0.8285
C20 C 0.6675(7) 0.8795(4) 0.7923(4)
H17 H 0.6985 0.8811 0.7537
C21 C 0.6361(7) 0.6676(4) 0.7955(3)
C22 C 0.6725(8) 0.6027(4) 0.8158(3)
H18 H 0.6164 0.5750 0.8367
C23 C 0.7874(8) 0.5781(5) 0.8062(4)
H19 H 0.8093 0.5338 0.8205
C24 C 0.8710(8) 0.6165(5) 0.7762(4)
H20 H 0.9505 0.5994 0.7697
C25 C 0.8373(7) 0.6807(5) 0.7554(4)
H21 H 0.8939 0.7079 0.7343
C26 C 0.7214(7) 0.7056(5) 0.7652(3)
H22 H 0.7001 0.7498 0.7508
C27 C 0.3167(8) 0.6167(4) 0.9181(3)
C28 C 0.2001(7) 0.5864(4) 0.9358(3)
C29 C 0.0931(8) 0.6173(5) 0.9187(3)
H23 H 0.0954 0.6600 0.8985
C30 C -0.0151(8) 0.5873(5) 0.9305(3)
H24 H -0.0876 0.6091 0.9180
C31 C -0.0222(8) 0.5254(5) 0.9605(4)
C32 C 0.0843(7) 0.4960(5) 0.9795(4)
H25 H 0.0811 0.4546 1.0017
C33 C 0.1943(8) 0.5248(4) 0.9674(3)
H26 H 0.2666 0.5030 0.9803
C34 C -0.1432(8) 0.4901(6) 0.9702(4)
H27 H -0.1986 0.5219 0.9899
H28 H -0.1315 0.4489 0.9943
H29 H -0.1777 0.4767 0.9325
C35 C 0.6029(7) 0.6800(5) 0.9496(3)
C36 C 0.6143(7) 0.6616(5) 1.0078(4)
H30 H 0.5522 0.6360 1.0266
C37 C 0.7174(8) 0.6809(5) 1.0382(4)
H31 H 0.7254 0.6679 1.0780
C38 C 0.8073(8) 0.7179(4) 1.0125(4)
H32 H 0.8782 0.7301 1.0335
C39 C 0.7933(8) 0.7375(5) 0.9551(4)
H33 H 0.8541 0.7646 0.9370
C40 C 0.6929(7) 0.7184(4) 0.9237(4)
H34 H 0.6856 0.7317 0.8840
C41 C 0.1837(7) 0.4960(4) 0.8059(3)
C42 C 0.2642(8) 0.4646(4) 0.8437(3)
H35 H 0.3362 0.4879 0.8548
C43 C 0.2408(8) 0.3994(5) 0.8656(4)
H36 H 0.2960 0.3784 0.8920
C44 C 0.1376(7) 0.3650(5) 0.8492(4)
H37 H 0.1213 0.3202 0.8640
C45 C 0.0578(8) 0.3957(4) 0.8110(3)
H38 H -0.0133 0.3718 0.7995
C46 C 0.0802(7) 0.4608(4) 0.7894(3)
H39 H 0.0245 0.4815 0.7632
C47 C 0.2075(7) 0.6387(4) 0.7150(3)
C48 C 0.1976(7) 0.6687(4) 0.6568(3)
C49 C 0.1615(7) 0.7367(4) 0.6482(4)
H40 H 0.1392 0.7642 0.6807
C50 C 0.1579(8) 0.7643(5) 0.5932(4)
H41 H 0.1314 0.8106 0.5882
C51 C 0.1921(8) 0.7261(5) 0.5447(4)
C52 C 0.2245(8) 0.6579(5) 0.5534(4)
H42 H 0.2445 0.6302 0.5206
C53 C 0.2285(7) 0.6290(5) 0.6086(3)
H43 H 0.2524 0.5823 0.6135
C54 C 0.1951(10) 0.7573(5) 0.4843(4)
H44 H 0.1518 0.8015 0.4846
H45 H 0.1561 0.7259 0.4567
H46 H 0.2794 0.7650 0.4726
C55 C 0.2293(7) 0.7853(4) 0.7864(3)
C56 C 0.1163(7) 0.7641(5) 0.8069(3)
H47 H 0.0965 0.7164 0.8060
C57 C 0.0327(8) 0.8103(4) 0.8284(3)
H48 H -0.0431 0.7938 0.8422
C58 C 0.0573(8) 0.8799(5) 0.8303(3)
H49 H 0.0010 0.9116 0.8464
C59 C 0.1664(7) 0.9017(5) 0.8081(3)
H50 H 0.1838 0.9496 0.8078
C60 C 0.2515(7) 0.8565(4) 0.7863(4)
H51 H 0.3256 0.8737 0.7712
B1 B 0.4509(9) 0.7346(5) 0.7607(4)
B2 B 0.4573(9) 0.6657(5) 0.8581(4)
B3 B 0.2686(8) 0.6209(5) 0.8084(4)
loop_
_geom_bond_atom_site_label_1
_geom_bond_atom_site_label_2
_geom_bond_site_symmetry_1
_geom_bond_site_symmetry_2
N1 N2 1_555 1_555
N2 C7 1_555 1_555
N3 N4 1_555 1_555
N4 C15 1_555 1_555
N5 C21 1_555 1_555
N6 C27 1_555 1_555
N7 N8 1_555 1_555
N8 C35 1_555 1_555
N9 N10 1_555 1_555
N10 C47 1_555 1_555
N11 N12 1_555 1_555
N12 C55 1_555 1_555
C1 N1 1_555 1_555
C2 C1 1_555 1_555
H1 C2 1_555 1_555
C3 C2 1_555 1_555
H2 C3 1_555 1_555
C4 C3 1_555 1_555
H3 C4 1_555 1_555
C5 C4 1_555 1_555
H4 C5 1_555 1_555
C6 C1 1_555 1_555
H5 C6 1_555 1_555
C7 N3 1_555 1_555
C8 C7 1_555 1_555
C9 C8 1_555 1_555
H6 C9 1_555 1_555
C10 C9 1_555 1_555
H7 C10 1_555 1_555
C11 C10 1_555 1_555
C12 C11 1_555 1_555
H8 C12 1_555 1_555
C13 C8 1_555 1_555
H9 C13 1_555 1_555
C14 C11 1_555 1_555
H10 C14 1_555 1_555
H11 C14 1_555 1_555
H12 C14 1_555 1_555
C15 C16 1_555 1_555
C16 H13 1_555 1_555
C17 C16 1_555 1_555
H14 C17 1_555 1_555
C18 C17 1_555 1_555
H15 C18 1_555 1_555
C19 C18 1_555 1_555
H16 C19 1_555 1_555
C20 C15 1_555 1_555
H17 C20 1_555 1_555
C21 C22 1_555 1_555
C22 H18 1_555 1_555
C23 C22 1_555 1_555
H19 C23 1_555 1_555
C24 C23 1_555 1_555
H20 C24 1_555 1_555
C25 C24 1_555 1_555
H21 C25 1_555 1_555
C26 C21 1_555 1_555
H22 C26 1_555 1_555
C27 N7 1_555 1_555
C28 C27 1_555 1_555
C29 C28 1_555 1_555
H23 C29 1_555 1_555
C30 C29 1_555 1_555
H24 C30 1_555 1_555
C31 C30 1_555 1_555
C32 C31 1_555 1_555
H25 C32 1_555 1_555
C33 C28 1_555 1_555
H26 C33 1_555 1_555
C34 C31 1_555 1_555
H27 C34 1_555 1_555
H28 C34 1_555 1_555
H29 C34 1_555 1_555
C35 C36 1_555 1_555
C36 H30 1_555 1_555
C37 C36 1_555 1_555
H31 C37 1_555 1_555
C38 C37 1_555 1_555
H32 C38 1_555 1_555
C39 C38 1_555 1_555
H33 C39 1_555 1_555
C40 C35 1_555 1_555
H34 C40 1_555 1_555
C41 N9 1_555 1_555
C42 C41 1_555 1_555
H35 C42 1_555 1_555
C43 C42 1_555 1_555
H36 C43 1_555 1_555
C44 C43 1_555 1_555
H37 C44 1_555 1_555
C45 C44 1_555 1_555
H38 C45 1_555 1_555
C46 C41 1_555 1_555
H39 C46 1_555 1_555
C47 N11 1_555 1_555
C48 C47 1_555 1_555
C49 C48 1_555 1_555
H40 C49 1_555 1_555
C50 C49 1_555 1_555
H41 C50 1_555 1_555
C51 C50 1_555 1_555
C52 C51 1_555 1_555
H42 C52 1_555 1_555
C53 C48 1_555 1_555
H43 C53 1_555 1_555
C54 C51 1_555 1_555
H44 C54 1_555 1_555
H45 C54 1_555 1_555
H46 C54 1_555 1_555
C55 C56 1_555 1_555
C56 H47 1_555 1_555
C57 C56 1_555 1_555
H48 C57 1_555 1_555
C58 C57 1_555 1_555
H49 C58 1_555 1_555
C59 C58 1_555 1_555
H50 C59 1_555 1_555
C60 C55 1_555 1_555
H51 C60 1_555 1_555
B1 N1 1_555 1_555
B2 N5 1_555 1_555
B3 N6 1_555 1_555
N4 B1 1_555 1_555
N5 B1 1_555 1_555
N6 B2 1_555 1_555
N8 B2 1_555 1_555
N9 B3 1_555 1_555
N11 B3 1_555 1_555
N12 B1 1_555 1_555
C5 C6 1_555 1_555
C12 C13 1_555 1_555
C19 C20 1_555 1_555
C25 C26 1_555 1_555
C32 C33 1_555 1_555
C39 C40 1_555 1_555
C45 C46 1_555 1_555
C52 C53 1_555 1_555
C59 C60 1_555 1_555

#END
