
#######################################################################
#
#                 Cambridge Crystallographic Data Centre
#                                CCDC 
#
#######################################################################
#
# If this CIF has been generated from an entry in the Cambridge 
# Structural Database, then it will include bibliographic, chemical, 
# crystal, experimental, refinement or atomic coordinate data resulting 
# from the CCDC's data processing and validation procedures.
#
#######################################################################

data_NUNLAL
_chemical_formula_moiety         'C72 H75 B3 N12 Na1 O3,C4 H8 O1'
_chemical_name_systematic        
"(N-(6,8'-bis(4-methylphenyl)-2,2',4,4',6'-pentaphenyl-2',3-dihydro-2H,6'H-spiro[1,2,4,5,3-tetrazaborinine-3,1'-[1,2,4,3]triazaborolo[4,3-a][1,3,5,2,4,6]triazatriborinin]-3'(4'H)-yl)-1-(4-methylphenyl)-1-(phenyldiazenyl)methanimine)-tris(tetrahydrofuran)-sodium(i) tetrahydrofuran solvate"
_symmetry_cell_setting           monoclinic
_symmetry_space_group_name_H-M   'P 21/n'
_symmetry_Int_Tables_number      14
_space_group_name_Hall           '-P 2yn'
loop_
_symmetry_equiv_pos_site_id
_symmetry_equiv_pos_as_xyz
1 x,y,z
2 1/2-x,1/2+y,1/2-z
3 -x,-y,-z
4 1/2+x,1/2-y,1/2+z
_cell_length_a                   11.1938(4)
_cell_length_b                   20.4602(7)
_cell_length_c                   31.0805(11)
_cell_angle_alpha                90
_cell_angle_beta                 100.366(2)
_cell_angle_gamma                90
_cell_volume                     7002.1
_exptl_crystal_colour            green
_exptl_crystal_description       plate
_cell_formula_units_Z            4
loop_
_atom_site_label
_atom_site_type_symbol
_atom_site_fract_x
_atom_site_fract_y
_atom_site_fract_z
N1 N 0.0743(3) 0.33232(16) 0.60386(10)
N2 N 0.0174(3) 0.38337(16) 0.61957(11)
N3 N -0.1689(3) 0.32204(16) 0.61282(10)
N4 N -0.1170(3) 0.26910(15) 0.59753(10)
N5 N 0.0835(3) 0.21358(16) 0.63080(10)
N6 N 0.1557(3) 0.10281(17) 0.65610(11)
N7 N 0.3237(3) 0.13039(18) 0.71253(13)
N8 N 0.3760(3) 0.15724(18) 0.68524(12)
N9 N 0.1603(3) 0.13741(16) 0.57946(10)
N10 N 0.0386(3) 0.23668(15) 0.55131(10)
N11 N 0.0232(3) 0.22836(17) 0.47795(10)
N12 N 0.0992(3) 0.17655(16) 0.49763(10)
C1 C 0.1890(3) 0.3501(2) 0.59497(13)
C2 C 0.2782(4) 0.3033(2) 0.59265(14)
H1 H 0.2623 0.2584 0.5973
C3 C 0.3899(4) 0.3221(2) 0.58355(15)
H2 H 0.4499 0.2897 0.5822
C4 C 0.4164(4) 0.3866(2) 0.57638(15)
H3 H 0.4929 0.3985 0.5696
C5 C 0.3292(4) 0.4337(2) 0.57934(14)
H4 H 0.3467 0.4784 0.5752
C6 C 0.2164(4) 0.4161(2) 0.58838(13)
H5 H 0.1573 0.4488 0.5901
C7 C -0.0985(3) 0.37458(19) 0.62331(12)
C8 C -0.1574(4) 0.4318(2) 0.64002(13)
C9 C -0.0944(4) 0.4891(2) 0.65144(17)
H6 H -0.0107 0.4910 0.6496
C10 C -0.1491(5) 0.5438(3) 0.66550(19)
H7 H -0.1032 0.5825 0.6727
C11 C -0.2719(4) 0.5422(2) 0.66915(16)
C12 C -0.3346(4) 0.4852(2) 0.65794(15)
H8 H -0.4182 0.4832 0.6599
C13 C -0.2797(4) 0.4307(2) 0.64388(14)
H9 H -0.3258 0.3919 0.6367
C14 C -0.3330(5) 0.6014(3) 0.6848(2)
H10 H -0.3816 0.5878 0.7065
H11 H -0.3859 0.6219 0.6599
H12 H -0.2711 0.6328 0.6981
C15 C -0.2018(3) 0.2199(2) 0.58244(12)
C16 C -0.3256(4) 0.2344(2) 0.57172(13)
H13 H -0.3529 0.2778 0.5751
C17 C -0.4087(4) 0.1860(2) 0.55625(15)
H14 H -0.4924 0.1969 0.5489
C18 C -0.3729(4) 0.1220(2) 0.55117(15)
H15 H -0.4306 0.0890 0.5408
C19 C -0.2507(4) 0.1080(2) 0.56173(14)
H16 H -0.2243 0.0645 0.5583
C20 C -0.1655(4) 0.1550(2) 0.57713(13)
H17 H -0.0820 0.1436 0.5842
C21 C 0.0602(4) 0.2268(2) 0.67389(12)
C22 C -0.0254(4) 0.1913(2) 0.69103(14)
H18 H -0.0668 0.1563 0.6746
C23 C -0.0517(4) 0.2062(2) 0.73178(14)
H19 H -0.1101 0.1812 0.7433
C24 C 0.0072(4) 0.2573(3) 0.75552(15)
H20 H -0.0110 0.2676 0.7834
C25 C 0.0922(4) 0.2935(3) 0.73893(14)
H21 H 0.1322 0.3290 0.7552
C26 C 0.1192(4) 0.2780(2) 0.69845(14)
H22 H 0.1788 0.3026 0.6873
C27 C 0.2200(4) 0.0909(2) 0.69290(14)
C28 C 0.1893(4) 0.0397(2) 0.72197(13)
C29 C 0.2755(4) 0.0125(2) 0.75636(14)
H23 H 0.3560 0.0292 0.7619
C30 C 0.2451(4) -0.0371(2) 0.78176(14)
H24 H 0.3054 -0.0549 0.8041
C31 C 0.1265(4) -0.0624(2) 0.77554(15)
C32 C 0.0419(4) -0.0343(2) 0.74246(14)
H25 H -0.0400 -0.0488 0.7383
C33 C 0.0729(4) 0.0138(2) 0.71553(14)
H26 H 0.0135 0.0295 0.6921
C34 C 0.0931(5) -0.1161(2) 0.80292(16)
H27 H 0.0058 -0.1142 0.8033
H28 H 0.1385 -0.1115 0.8328
H29 H 0.1129 -0.1582 0.7908
C35 C 0.4760(4) 0.1981(2) 0.70282(15)
C36 C 0.5030(5) 0.2179(3) 0.74584(16)
H30 H 0.4541 0.2037 0.7660
C37 C 0.6010(5) 0.2585(3) 0.75960(19)
H31 H 0.6186 0.2729 0.7891
C38 C 0.6743(5) 0.2783(3) 0.73005(18)
H32 H 0.7410 0.3068 0.7392
C39 C 0.6488(5) 0.2562(3) 0.68756(18)
H33 H 0.7010 0.2675 0.6678
C40 C 0.5492(4) 0.2181(2) 0.67364(15)
H34 H 0.5298 0.2053 0.6438
C41 C 0.2112(3) 0.07551(19) 0.57109(13)
C42 C 0.3331(4) 0.0622(2) 0.58643(13)
H35 H 0.3823 0.0932 0.6043
C43 C 0.3828(4) 0.0041(2) 0.57573(14)
H36 H 0.4664 -0.0046 0.5862
C44 C 0.3127(4) -0.0417(2) 0.54991(14)
H37 H 0.3482 -0.0810 0.5419
C45 C 0.1900(4) -0.0296(2) 0.53592(14)
H38 H 0.1402 -0.0613 0.5190
C46 C 0.1402(4) 0.0286(2) 0.54652(13)
H39 H 0.0561 0.0366 0.5368
C47 C -0.0076(3) 0.26007(19) 0.51069(13)
C48 C -0.0896(4) 0.3182(2) 0.50414(13)
C49 C -0.2130(4) 0.3099(2) 0.49387(14)
H40 H -0.2463 0.2682 0.4855
C50 C -0.2899(4) 0.3640(3) 0.49591(16)
H41 H -0.3755 0.3584 0.4887
C51 C -0.2428(4) 0.4245(2) 0.50821(14)
C52 C -0.1197(4) 0.4333(2) 0.51481(14)
H42 H -0.0869 0.4758 0.5208
C53 C -0.0428(4) 0.3813(2) 0.51291(14)
H43 H 0.0425 0.3882 0.5176
C54 C -0.3256(5) 0.4806(3) 0.51674(18)
H44 H -0.2904 0.5222 0.5097
H45 H -0.3337 0.4804 0.5476
H46 H -0.4058 0.4750 0.4984
C55 C 0.1569(4) 0.13809(19) 0.46954(13)
C56 C 0.2802(4) 0.1252(2) 0.48102(14)
H47 H 0.3251 0.1432 0.5072
C57 C 0.3382(4) 0.0866(2) 0.45462(14)
H48 H 0.4218 0.0762 0.4634
C58 C 0.2752(4) 0.0632(2) 0.41592(15)
H49 H 0.3156 0.0379 0.3973
C59 C 0.1528(4) 0.0764(2) 0.40382(15)
H50 H 0.1092 0.0601 0.3769
C60 C 0.0934(4) 0.1134(2) 0.43076(14)
H51 H 0.0089 0.1218 0.4226
B1 B 0.0210(4) 0.2618(2) 0.59604(15)
B2 B 0.1396(4) 0.1535(2) 0.62323(15)
B3 B 0.1073(4) 0.1794(2) 0.54422(15)
Na1 Na -0.00600(15) 0.26375(9) 0.40385(5)
O1 O -0.1400(3) 0.34279(15) 0.37217(10)
O2 O -0.1433(3) 0.19027(15) 0.36819(10)
O3 O 0.1894(3) 0.29539(19) 0.40180(12)
C61 C -0.1801(5) 0.4026(2) 0.38871(17)
H52 H -0.1326 0.4399 0.3805
H53 H -0.1702 0.4009 0.4210
C62 C -0.3136(5) 0.4099(3) 0.36823(16)
H54 H -0.3320 0.4552 0.3581
H55 H -0.3664 0.3982 0.3894
C63 C -0.3315(5) 0.3624(3) 0.32983(16)
H56 H -0.3850 0.3257 0.3348
H57 H -0.3671 0.3848 0.3023
C64 C -0.2048(4) 0.3385(2) 0.32836(14)
H58 H -0.2066 0.2928 0.3178
H59 H -0.1660 0.3662 0.3086
C65 C -0.2499(4) 0.1870(2) 0.38837(16)
H60 H -0.2843 0.2312 0.3908
H61 H -0.2297 0.1677 0.4180
C66 C -0.3386(5) 0.1444(3) 0.35869(16)
H62 H -0.3884 0.1703 0.3351
H63 H -0.3929 0.1207 0.3752
C67 C -0.2554(5) 0.0978(3) 0.34051(17)
H64 H -0.2289 0.0616 0.3612
H65 H -0.2955 0.0794 0.3121
C68 C -0.1498(5) 0.1410(3) 0.33508(16)
H66 H -0.0735 0.1155 0.3390
H67 H -0.1635 0.1611 0.3056
C69 C 0.2269(6) 0.3457(3) 0.4338(2)
H68 H 0.1990 0.3345 0.4614
H69 H 0.1893 0.3878 0.4231
C70 C 0.3969(6) 0.2788(3) 0.4319(2)
H70 H 0.4743 0.2777 0.4208
H71 H 0.4051 0.2512 0.4585
C71 C 0.2916(5) 0.2552(3) 0.3971(2)
H72 H 0.3116 0.2602 0.3675
H73 H 0.2738 0.2085 0.4017
C72 C 0.3611(10) 0.3523(8) 0.4423(6)
H74 H 0.3931 0.3648 0.4729
H75 H 0.3890 0.3842 0.4222
O4 O 0.2521(4) 0.5163(2) 0.18484(14)
C74 C 0.1941(8) 0.4555(4) 0.1920(3)
H78 H 0.2472 0.4285 0.2140
H79 H 0.1736 0.4303 0.1644
C75 C 0.0795(6) 0.4758(4) 0.2085(2)
H80 H 0.0079 0.4750 0.1846
H81 H 0.0642 0.4468 0.2324
C76 C 0.1076(8) 0.5449(4) 0.2250(3)
H82 H 0.0331 0.5719 0.2210
H83 H 0.1454 0.5448 0.2563
C77 C 0.1887(8) 0.5681(4) 0.1992(3)
H84 H 0.1435 0.5920 0.1737
H85 H 0.2467 0.5988 0.2165
C73? C 0.3311(14) 0.3099(9) 0.4620(4)
H76? H 0.3840 0.3409 0.4811
H77? H 0.3001 0.2770 0.4806
loop_
_geom_bond_atom_site_label_1
_geom_bond_atom_site_label_2
_geom_bond_site_symmetry_1
_geom_bond_site_symmetry_2
N1 N2 1_555 1_555
N2 C7 1_555 1_555
N3 N4 1_555 1_555
N4 C15 1_555 1_555
N5 C21 1_555 1_555
N6 C27 1_555 1_555
N7 N8 1_555 1_555
N8 C35 1_555 1_555
N9 C41 1_555 1_555
N10 C47 1_555 1_555
N11 N12 1_555 1_555
N12 C55 1_555 1_555
C1 N1 1_555 1_555
C2 C1 1_555 1_555
H1 C2 1_555 1_555
C3 C2 1_555 1_555
H2 C3 1_555 1_555
C4 C3 1_555 1_555
H3 C4 1_555 1_555
C5 C4 1_555 1_555
H4 C5 1_555 1_555
C6 C1 1_555 1_555
H5 C6 1_555 1_555
C7 N3 1_555 1_555
C8 C7 1_555 1_555
C9 C8 1_555 1_555
H6 C9 1_555 1_555
C10 C9 1_555 1_555
H7 C10 1_555 1_555
C11 C10 1_555 1_555
C12 C11 1_555 1_555
H8 C12 1_555 1_555
C13 C8 1_555 1_555
H9 C13 1_555 1_555
C14 C11 1_555 1_555
H10 C14 1_555 1_555
H11 C14 1_555 1_555
H12 C14 1_555 1_555
C15 C16 1_555 1_555
C16 H13 1_555 1_555
C17 C16 1_555 1_555
H14 C17 1_555 1_555
C18 C17 1_555 1_555
H15 C18 1_555 1_555
C19 C18 1_555 1_555
H16 C19 1_555 1_555
C20 C15 1_555 1_555
H17 C20 1_555 1_555
C21 C22 1_555 1_555
C22 H18 1_555 1_555
C23 C22 1_555 1_555
H19 C23 1_555 1_555
C24 C23 1_555 1_555
H20 C24 1_555 1_555
C25 C24 1_555 1_555
H21 C25 1_555 1_555
C26 C21 1_555 1_555
H22 C26 1_555 1_555
C27 N7 1_555 1_555
C28 C27 1_555 1_555
C29 C28 1_555 1_555
H23 C29 1_555 1_555
C30 C29 1_555 1_555
H24 C30 1_555 1_555
C31 C30 1_555 1_555
C32 C31 1_555 1_555
H25 C32 1_555 1_555
C33 C28 1_555 1_555
H26 C33 1_555 1_555
C34 C31 1_555 1_555
H27 C34 1_555 1_555
H28 C34 1_555 1_555
H29 C34 1_555 1_555
C35 C36 1_555 1_555
C36 H30 1_555 1_555
C37 C36 1_555 1_555
H31 C37 1_555 1_555
C38 C37 1_555 1_555
H32 C38 1_555 1_555
C39 C38 1_555 1_555
H33 C39 1_555 1_555
C40 C35 1_555 1_555
H34 C40 1_555 1_555
C41 C42 1_555 1_555
C42 H35 1_555 1_555
C43 C42 1_555 1_555
H36 C43 1_555 1_555
C44 C43 1_555 1_555
H37 C44 1_555 1_555
C45 C44 1_555 1_555
H38 C45 1_555 1_555
C46 C41 1_555 1_555
H39 C46 1_555 1_555
C47 N11 1_555 1_555
C48 C47 1_555 1_555
C49 C48 1_555 1_555
H40 C49 1_555 1_555
C50 C49 1_555 1_555
H41 C50 1_555 1_555
C51 C50 1_555 1_555
C52 C51 1_555 1_555
H42 C52 1_555 1_555
C53 C48 1_555 1_555
H43 C53 1_555 1_555
C54 C51 1_555 1_555
H44 C54 1_555 1_555
H45 C54 1_555 1_555
H46 C54 1_555 1_555
C55 C56 1_555 1_555
C56 H47 1_555 1_555
C57 C56 1_555 1_555
H48 C57 1_555 1_555
C58 C57 1_555 1_555
H49 C58 1_555 1_555
C59 C58 1_555 1_555
H50 C59 1_555 1_555
C60 C55 1_555 1_555
H51 C60 1_555 1_555
B1 N1 1_555 1_555
B2 N5 1_555 1_555
B3 N9 1_555 1_555
Na1 N11 1_555 1_555
O1 Na1 1_555 1_555
O2 Na1 1_555 1_555
O3 Na1 1_555 1_555
C61 O1 1_555 1_555
H52 C61 1_555 1_555
H53 C61 1_555 1_555
C62 C61 1_555 1_555
H54 C62 1_555 1_555
H55 C62 1_555 1_555
C63 C62 1_555 1_555
H56 C63 1_555 1_555
H57 C63 1_555 1_555
C64 O1 1_555 1_555
H58 C64 1_555 1_555
H59 C64 1_555 1_555
C65 O2 1_555 1_555
H60 C65 1_555 1_555
H61 C65 1_555 1_555
C66 C65 1_555 1_555
H62 C66 1_555 1_555
H63 C66 1_555 1_555
C67 C66 1_555 1_555
H64 C67 1_555 1_555
H65 C67 1_555 1_555
C68 O2 1_555 1_555
H66 C68 1_555 1_555
H67 C68 1_555 1_555
C69 O3 1_555 1_555
H68 C69 1_555 1_555
H69 C69 1_555 1_555
C70 H70 1_555 1_555
H71 C70 1_555 1_555
C71 O3 1_555 1_555
H72 C71 1_555 1_555
H73 C71 1_555 1_555
C72 C69 1_555 1_555
H74 C72 1_555 1_555
H75 C72 1_555 1_555
O4 C74 1_555 1_555
C74 H78 1_555 1_555
H79 C74 1_555 1_555
C75 C74 1_555 1_555
H80 C75 1_555 1_555
H81 C75 1_555 1_555
C76 C75 1_555 1_555
H82 C76 1_555 1_555
H83 C76 1_555 1_555
C77 O4 1_555 1_555
H84 C77 1_555 1_555
H85 C77 1_555 1_555
N4 B1 1_555 1_555
N5 B1 1_555 1_555
N6 B2 1_555 1_555
N9 B2 1_555 1_555
N10 B1 1_555 1_555
N10 B3 1_555 1_555
N12 B3 1_555 1_555
C5 C6 1_555 1_555
C12 C13 1_555 1_555
C19 C20 1_555 1_555
C25 C26 1_555 1_555
C32 C33 1_555 1_555
C39 C40 1_555 1_555
C45 C46 1_555 1_555
C52 C53 1_555 1_555
C59 C60 1_555 1_555
C63 C64 1_555 1_555
C67 C68 1_555 1_555
C70 C71 1_555 1_555
C70 C72 1_555 1_555
C76 C77 1_555 1_555

#END
