
#######################################################################
#
#                 Cambridge Crystallographic Data Centre
#                                CCDC 
#
#######################################################################
#
# If this CIF has been generated from an entry in the Cambridge 
# Structural Database, then it will include bibliographic, chemical, 
# crystal, experimental, refinement or atomic coordinate data resulting 
# from the CCDC's data processing and validation procedures.
#
#######################################################################

data_NUNLEP
_chemical_formula_moiety         'C60 H51 B3 N12,C10 H20 Na1 O5'
_chemical_name_systematic        
"(15-crown-5)-sodium 4',6,8'-tris(4-methylphenyl)-1',2,2',4,10',12'-hexaphenyl-1',2,2',3-tetrahydro-10'H-spiro[1,2,4,5,3-tetrazaborinine-3,6'-[1,2,3,5,4]tetrazaborinino[5,4-a][1,2,4,3]triazaborolo[3,4-d][1,3,5,2,4,6]triazatriborinine]"
_symmetry_cell_setting           triclinic
_symmetry_space_group_name_H-M   'P -1'
_symmetry_Int_Tables_number      2
_space_group_name_Hall           '-P 1'
loop_
_symmetry_equiv_pos_site_id
_symmetry_equiv_pos_as_xyz
1 x,y,z
2 -x,-y,-z
_cell_length_a                   11.8029(5)
_cell_length_b                   22.3034(8)
_cell_length_c                   25.7940(10)
_cell_angle_alpha                97.5364(17)
_cell_angle_beta                 100.8958(18)
_cell_angle_gamma                94.8132(17)
_cell_volume                     6568.79
_exptl_crystal_colour            green
_exptl_crystal_description       platelet
_cell_formula_units_Z            4
loop_
_atom_site_label
_atom_site_type_symbol
_atom_site_fract_x
_atom_site_fract_y
_atom_site_fract_z
Na1 Na -0.42771(17) 0.31340(9) -0.46061(7)
O1 O -0.5892(3) 0.23576(16) -0.45579(13)
O2 O -0.5922(3) 0.35908(15) -0.44344(12)
O3 O -0.4328(3) 0.41503(17) -0.49101(13)
O4 O -0.2956(3) 0.3299(2) -0.51953(14)
O5 O -0.4597(4) 0.2355(2) -0.53598(14)
C1 C -0.6795(5) 0.2628(3) -0.4347(2)
H1 H -0.6582 0.2696 -0.3952
H2 H -0.7519 0.2344 -0.4455
C2 C -0.7009(5) 0.3218(3) -0.4539(2)
H3 H -0.7345 0.3148 -0.4926
H4 H -0.7561 0.3421 -0.4350
C3 C -0.6012(4) 0.4192(2) -0.45479(19)
H5 H -0.6397 0.4422 -0.4289
H6 H -0.6476 0.4184 -0.4912
C4 C -0.4813(5) 0.4486(2) -0.45083(19)
H7 H -0.4832 0.4915 -0.4568
H8 H -0.4339 0.4479 -0.4149
C5 C -0.3128(4) 0.4322(3) -0.4882(2)
H9 H -0.2668 0.4277 -0.4530
H10 H -0.2996 0.4752 -0.4938
C6 C -0.2790(5) 0.3908(4) -0.5315(3)
H11 H -0.3279 0.3940 -0.5665
H12 H -0.1968 0.4017 -0.5330
C7 C -0.3029(6) 0.2830(4) -0.5638(2)
H13 H -0.2248 0.2790 -0.5718
H14 H -0.3536 0.2934 -0.5959
C8 C -0.3516(6) 0.2249(4) -0.5501(3)
H15 H -0.3631 0.1922 -0.5811
H16 H -0.2983 0.2126 -0.5199
C9 C -0.5286(6) 0.1819(3) -0.5293(2)
H17 H -0.4821 0.1592 -0.5040
H18 H -0.5545 0.1549 -0.5640
C10 C -0.6299(6) 0.2010(3) -0.5084(2)
H19 H -0.6733 0.2261 -0.5324
H20 H -0.6827 0.1648 -0.5064
B1 B -0.1768(4) 0.3841(2) -0.22630(17)
B2 B 0.0189(4) 0.3332(2) -0.20654(18)
B3 B -0.0666(4) 0.3358(2) -0.30130(18)
N1 N -0.1775(3) 0.45338(14) -0.21232(12)
N2 N -0.2654(3) 0.47953(15) -0.19403(12)
N3 N -0.3771(3) 0.38235(14) -0.20162(12)
N4 N -0.2921(3) 0.35252(14) -0.21867(12)
N5 N -0.0723(3) 0.36301(15) -0.19084(12)
N6 N 0.0256(3) 0.31973(15) -0.26264(12)
N7 N -0.1615(3) 0.36526(14) -0.28631(12)
N8 N 0.0505(3) 0.35436(18) -0.11451(13)
N9 N 0.0957(3) 0.32563(16) -0.15789(12)
N10 N -0.0732(3) 0.32005(16) -0.35919(12)
N11 N -0.1898(3) 0.29796(17) -0.38429(13)
N12 N -0.2753(3) 0.33693(17) -0.37471(13)
C11 C -0.0870(4) 0.49661(18) -0.21769(14)
C12 C -0.1012(4) 0.55842(19) -0.21341(16)
H21 H -0.1716 0.5717 -0.2059
C13 C -0.0140(4) 0.6007(2) -0.21995(19)
H22 H -0.0252 0.6426 -0.2164
C14 C 0.0891(4) 0.5829(2) -0.23151(18)
H23 H 0.1484 0.6119 -0.2363
C15 C 0.1036(4) 0.5222(2) -0.23588(17)
H24 H 0.1741 0.5093 -0.2436
C16 C 0.0176(4) 0.47902(19) -0.22922(16)
H25 H 0.0300 0.4373 -0.2325
C17 C -0.3576(4) 0.44272(18) -0.19041(14)
C18 C -0.4501(4) 0.47315(18) -0.16988(15)
C19 C -0.4344(4) 0.53467(19) -0.14858(16)
H26 H -0.3633 0.5582 -0.1482
C20 C -0.5203(4) 0.5621(2) -0.12802(17)
H27 H -0.5062 0.6040 -0.1133
C21 C -0.6265(4) 0.5302(2) -0.12824(16)
C22 C -0.6421(4) 0.4692(2) -0.14942(18)
H28 H -0.7140 0.4460 -0.1504
C23 C -0.5565(4) 0.4411(2) -0.16914(18)
H29 H -0.5701 0.3988 -0.1826
C24 C -0.7195(4) 0.5605(2) -0.10521(19)
H30 H -0.7737 0.5295 -0.0964
H31 H -0.7617 0.5829 -0.1315
H32 H -0.6835 0.5888 -0.0728
C25 C -0.3157(3) 0.28823(18) -0.22398(14)
C26 C -0.4110(4) 0.2620(2) -0.20645(18)
H33 H -0.4594 0.2872 -0.1901
C27 C -0.4346(4) 0.1995(2) -0.2130(2)
H34 H -0.5006 0.1825 -0.2016
C28 C -0.3658(4) 0.1608(2) -0.23540(17)
H35 H -0.3831 0.1179 -0.2393
C29 C -0.2710(4) 0.18644(19) -0.25197(16)
H36 H -0.2223 0.1609 -0.2677
C30 C -0.2459(4) 0.24891(18) -0.24602(15)
H37 H -0.1793 0.2654 -0.2572
C31 C 0.1987(4) 0.29916(19) -0.14284(15)
C32 C 0.2113(4) 0.24197(19) -0.16821(16)
H38 H 0.1500 0.2208 -0.1955
C33 C 0.3118(4) 0.2156(2) -0.15416(17)
H39 H 0.3202 0.1768 -0.1722
C34 C 0.4001(4) 0.2454(2) -0.11416(19)
H40 H 0.4693 0.2270 -0.1045
C35 C 0.3882(4) 0.3020(2) -0.08801(19)
H41 H 0.4490 0.3225 -0.0602
C36 C 0.2878(4) 0.3288(2) -0.10240(17)
H42 H 0.2798 0.3677 -0.0844
C37 C -0.0443(4) 0.3746(2) -0.13576(15)
C38 C -0.1120(4) 0.4096(2) -0.10174(16)
C39 C -0.0655(6) 0.4681(3) -0.07665(19)
H43 H 0.0087 0.4846 -0.0805
C40 C -0.1299(7) 0.5020(3) -0.0457(2)
H44 H -0.0972 0.5413 -0.0278
C41 C -0.2382(7) 0.4805(3) -0.0401(2)
C42 C -0.2816(6) 0.4224(3) -0.0640(2)
H45 H -0.3553 0.4060 -0.0594
C43 C -0.2196(5) 0.3868(3) -0.09496(17)
H46 H -0.2517 0.3467 -0.1114
C44 C -0.3082(7) 0.5211(4) -0.0091(2)
H47 H -0.3772 0.4968 -0.0039
H48 H -0.3320 0.5539 -0.0291
H49 H -0.2602 0.5387 0.0258
C45 C 0.1233(4) 0.29264(19) -0.27808(15)
C46 C 0.2321(4) 0.3259(2) -0.26533(16)
H50 H 0.2405 0.3674 -0.2496
C47 C 0.3282(4) 0.2987(2) -0.27554(18)
H51 H 0.4029 0.3212 -0.2660
C48 C 0.3155(4) 0.2391(2) -0.29950(18)
H52 H 0.3818 0.2204 -0.3062
C49 C 0.2070(5) 0.2063(2) -0.31383(18)
H53 H 0.1984 0.1655 -0.3314
C50 C 0.1103(4) 0.2328(2) -0.30259(16)
H54 H 0.0359 0.2099 -0.3116
C51 C -0.0186(4) 0.3564(2) -0.39023(16)
C52 C -0.0344(4) 0.3387(2) -0.44554(17)
H55 H -0.0805 0.3018 -0.4621
C53 C 0.0174(4) 0.3751(3) -0.4759(2)
H56 H 0.0067 0.3626 -0.5133
C54 C 0.0838(5) 0.4289(3) -0.4532(2)
H57 H 0.1179 0.4537 -0.4747
C55 C 0.1006(5) 0.4467(3) -0.3979(2)
H58 H 0.1469 0.4837 -0.3816
C56 C 0.0499(4) 0.4105(2) -0.36701(19)
H59 H 0.0619 0.4227 -0.3295
C57 C -0.2213(4) 0.2348(2) -0.38802(15)
C58 C -0.1412(5) 0.1945(2) -0.39793(16)
H60 H -0.0652 0.2101 -0.4003
C59 C -0.1702(6) 0.1328(2) -0.40427(19)
H61 H -0.1143 0.1058 -0.4103
C60 C -0.2818(7) 0.1100(3) -0.4018(2)
H62 H -0.3027 0.0672 -0.4066
C61 C -0.3618(6) 0.1489(3) -0.39258(19)
H63 H -0.4381 0.1327 -0.3913
C62 C -0.3333(4) 0.2120(2) -0.38496(17)
H64 H -0.3889 0.2388 -0.3779
C63 C -0.2544(3) 0.37010(19) -0.32783(15)
C64 C -0.3388(3) 0.41405(19) -0.32086(15)
C65 C -0.3084(4) 0.47639(19) -0.31714(15)
H65 H -0.2308 0.4913 -0.3175
C66 C -0.3900(4) 0.5169(2) -0.31295(15)
H66 H -0.3676 0.5592 -0.3110
C67 C -0.5039(4) 0.4970(2) -0.31158(16)
C68 C -0.5349(4) 0.4344(2) -0.31658(16)
H67 H -0.6128 0.4196 -0.3166
C69 C -0.4544(4) 0.3938(2) -0.32144(15)
H68 H -0.4778 0.3513 -0.3252
C70 C -0.5910(4) 0.5411(2) -0.3038(2)
H69 H -0.6676 0.5237 -0.3247
H70 H -0.5676 0.5794 -0.3157
H71 H -0.5947 0.5489 -0.2659
B4 B 0.1573(4) 0.1188(2) 0.22253(17)
B5 B -0.0387(4) 0.1692(2) 0.19707(19)
B6 B 0.0428(4) 0.1723(2) 0.29313(18)
N13 N 0.1605(3) 0.05003(15) 0.21248(12)
N14 N 0.2489(3) 0.02294(15) 0.19560(12)
N15 N 0.3585(3) 0.11979(15) 0.19823(12)
N16 N 0.2734(3) 0.14998(15) 0.21438(12)
N17 N 0.0548(3) 0.13850(15) 0.18441(12)
N18 N -0.0497(3) 0.18491(15) 0.25234(12)
N19 N 0.1383(3) 0.14174(15) 0.28112(12)
N20 N -0.0621(3) 0.14563(18) 0.10562(13)
N21 N -0.1105(3) 0.17543(16) 0.14702(13)
N22 N 0.0493(3) 0.19521(16) 0.34969(13)
N23 N 0.1652(3) 0.21933(18) 0.37263(14)
N24 N 0.2517(3) 0.18040(18) 0.36808(13)
C71 C 0.0734(4) 0.00736(19) 0.22119(15)
C72 C -0.0351(4) 0.0244(2) 0.22842(17)
H72 H -0.0513 0.0651 0.2264
C73 C -0.1191(4) -0.0176(2) 0.23853(19)
H73 H -0.1921 -0.0053 0.2432
C74 C -0.0971(4) -0.0768(2) 0.24176(19)
H74 H -0.1545 -0.1053 0.2489
C75 C 0.0094(4) -0.0945(2) 0.2346(2)
H75 H 0.0245 -0.1354 0.2363
C76 C 0.0939(4) -0.0530(2) 0.22486(17)
H76 H 0.1669 -0.0656 0.2206
C77 C 0.3398(4) 0.05883(19) 0.18977(15)
C78 C 0.4339(4) 0.02802(19) 0.17011(15)
C79 C 0.4240(4) -0.0352(2) 0.15694(17)
H77 H 0.3573 -0.0590 0.1617
C80 C 0.5096(4) -0.0635(2) 0.13711(18)
H78 H 0.4999 -0.1066 0.1283
C81 C 0.6095(4) -0.0312(2) 0.12966(17)
C82 C 0.6186(4) 0.0314(2) 0.14271(18)
H79 H 0.6858 0.0550 0.1381
C83 C 0.5335(4) 0.0607(2) 0.16219(18)
H80 H 0.5430 0.1038 0.1703
C84 C 0.7024(5) -0.0623(2) 0.1071(2)
H81 H 0.7500 -0.0327 0.0932
H82 H 0.6658 -0.0952 0.0783
H83 H 0.7515 -0.0793 0.1354
C85 C 0.2970(3) 0.21378(18) 0.21614(14)
C86 C 0.3828(4) 0.2373(2) 0.19088(17)
H84 H 0.4242 0.2105 0.1718
C87 C 0.4068(4) 0.2998(2) 0.19383(18)
H85 H 0.4646 0.3150 0.1763
C88 C 0.3497(3) 0.34024(19) 0.22133(16)
H86 H 0.3682 0.3829 0.2235
C89 C 0.2646(4) 0.31733(19) 0.24572(15)
H87 H 0.2238 0.3446 0.2648
C90 C 0.2380(4) 0.25563(19) 0.24285(16)
H88 H 0.1780 0.2411 0.2594
C91 C -0.2141(4) 0.2012(2) 0.13026(16)
C92 C -0.2297(4) 0.25799(19) 0.15491(16)
H89 H -0.1697 0.2802 0.1822
C93 C -0.3326(4) 0.2825(2) 0.13987(18)
H90 H -0.3441 0.3208 0.1578
C94 C -0.4185(4) 0.2516(2) 0.09899(19)
H91 H -0.4890 0.2687 0.0886
C95 C -0.4016(4) 0.1963(2) 0.07347(18)
H92 H -0.4601 0.1754 0.0449
C96 C -0.3004(4) 0.1704(2) 0.08878(17)
H93 H -0.2899 0.1318 0.0710
C97 C 0.0316(4) 0.1256(2) 0.12911(16)
C98 C 0.1022(4) 0.0899(2) 0.09757(16)
C99 C 0.2073(5) 0.1136(3) 0.08992(18)
H94 H 0.2357 0.1547 0.1042
C100 C 0.2738(6) 0.0780(4) 0.0613(2)
H95 H 0.3470 0.0952 0.0568
C101 C 0.2347(8) 0.0187(4) 0.0397(2)
C102 C 0.1277(8) -0.0037(3) 0.0465(2)
H96 H 0.0979 -0.0443 0.0310
C103 C 0.0621(6) 0.0302(3) 0.0749(2)
H97 H -0.0113 0.0127 0.0790
C104 C 0.3103(8) -0.0210(4) 0.0119(2)
H98 H 0.2730 -0.0330 -0.0258
H99 H 0.3204 -0.0574 0.0290
H100 H 0.3863 0.0019 0.0145
C105 C -0.1487(4) 0.21183(19) 0.26565(15)
C106 C -0.1394(4) 0.2724(2) 0.28887(16)
H101 H -0.0658 0.2961 0.2975
C107 C -0.2365(4) 0.2985(2) 0.29951(17)
H102 H -0.2288 0.3396 0.3161
C108 C -0.3446(4) 0.2650(2) 0.28608(18)
H103 H -0.4114 0.2830 0.2930
C109 C -0.3545(4) 0.2050(2) 0.26249(18)
H104 H -0.4285 0.1817 0.2531
C110 C -0.2575(4) 0.1787(2) 0.25250(16)
H105 H -0.2654 0.1373 0.2364
C111 C -0.0123(4) 0.1713(2) 0.38553(15)
C112 C 0.0183(4) 0.1929(2) 0.43981(17)
H106 H 0.0818 0.2236 0.4530
C113 C -0.0438(5) 0.1699(2) 0.47473(19)
H107 H -0.0208 0.1839 0.5120
C114 C -0.1383(5) 0.1270(3) 0.4560(2)
H108 H -0.1817 0.1118 0.4800
C115 C -0.1692(5) 0.1064(3) 0.40199(19)
H109 H -0.2350 0.0771 0.3887
C116 C -0.1059(4) 0.1277(2) 0.36665(18)
H110 H -0.1271 0.1124 0.3296
C117 C 0.1951(4) 0.2823(2) 0.38151(15)
C118 C 0.3103(4) 0.3066(2) 0.38670(16)
H111 H 0.3691 0.2806 0.3834
C119 C 0.3379(5) 0.3691(3) 0.39664(18)
H112 H 0.4165 0.3857 0.4013
C120 C 0.2537(5) 0.4074(2) 0.39988(18)
H113 H 0.2733 0.4502 0.4050
C121 C 0.1402(5) 0.3832(2) 0.39565(17)
H114 H 0.0816 0.4095 0.3985
C122 C 0.1115(4) 0.3209(2) 0.38730(16)
H115 H 0.0337 0.3045 0.3855
C123 C 0.2319(3) 0.14204(19) 0.32371(15)
C124 C 0.3208(4) 0.0993(2) 0.32097(14)
C125 C 0.4351(4) 0.1212(2) 0.32045(15)
H116 H 0.4555 0.1636 0.3218
C126 C 0.5188(4) 0.0816(2) 0.31797(17)
H117 H 0.5957 0.0974 0.3172
C127 C 0.4934(4) 0.0195(2) 0.31652(16)
C128 C 0.3809(4) -0.0015(2) 0.31965(17)
H118 H 0.3618 -0.0436 0.3201
C129 C 0.2964(4) 0.0373(2) 0.32205(15)
H119 H 0.2205 0.0215 0.3245
C130 C 0.5822(4) -0.0235(2) 0.3090(2)
H120 H 0.5671 -0.0593 0.3261
H121 H 0.6599 -0.0030 0.3252
H122 H 0.5775 -0.0363 0.2707
Na2 Na -0.0360(3) 0.20126(14) 0.02453(12)
O6 O -0.1658(5) 0.2718(3) -0.0065(2)
O7 O -0.0098(6) 0.2963(3) 0.0876(2)
O8 O 0.1637(7) 0.2528(3) 0.0397(3)
O9 O 0.0626(7) 0.1713(5) -0.0507(4)
O10 O -0.1767(8) 0.1601(4) -0.0641(4)
C131 C -0.1819(9) 0.3205(6) 0.0315(5)
H123 H -0.2383 0.3063 0.0525
H124 H -0.2135 0.3536 0.0130
C132 C -0.0696(8) 0.3437(4) 0.0676(4)
H125 H -0.0203 0.3666 0.0480
H126 H -0.0833 0.3723 0.0979
C133 C 0.1085(6) 0.3121(6) 0.1128(4)
H127 H 0.1325 0.2831 0.1375
H128 H 0.1187 0.3534 0.1338
C134 C 0.1817(9) 0.3109(4) 0.0721(4)
H129 H 0.1624 0.3426 0.0494
H130 H 0.2645 0.3200 0.0900
C135 C 0.2085(13) 0.2534(5) -0.0077(4)
H131 H 0.2930 0.2666 0.0011
H132 H 0.1696 0.2818 -0.0299
C136 C 0.1847(7) 0.1899(5) -0.0370(4)
H133 H 0.2169 0.1876 -0.0698
H134 H 0.2233 0.1620 -0.0143
C137 C -0.0046(17) 0.1759(18) -0.1019(8)
H135 H 0.0341 0.1593 -0.1307
H136 H -0.0158 0.2188 -0.1052
C138 C -0.1180(11) 0.1392(7) -0.1052(5)
H137 H -0.1685 0.1404 -0.1403
H138 H -0.1045 0.0963 -0.1031
C139 C -0.237(3) 0.2068(10) -0.0858(6)
H139 H -0.3066 0.1886 -0.1128
H140 H -0.1861 0.2315 -0.1033
C140 C -0.2716(8) 0.2459(5) -0.0416(4)
H141 H -0.3162 0.2781 -0.0554
H142 H -0.3201 0.2213 -0.0229
Na3? Na 0.0210(3) 0.29147(17) -0.04107(13)
O11? O 0.1631(7) 0.2279(4) -0.0125(3)
O12? O -0.0111(7) 0.1872(5) -0.1002(3)
O13? O -0.1885(8) 0.2525(4) -0.0592(3)
O14? O -0.0712(7) 0.3099(4) 0.0350(3)
O15? O 0.1563(7) 0.3474(4) 0.0388(3)
C141? C 0.1248(14) 0.1645(4) -0.0279(4)
H143? H 0.0682 0.1528 -0.0061
H144? H 0.1922 0.1414 -0.0193
C142? C 0.0702(11) 0.1462(6) -0.0852(5)
H145? H 0.1304 0.1470 -0.1072
H146? H 0.0305 0.1042 -0.0910
C143? C -0.1239(11) 0.1629(9) -0.0949(14)
H147? H -0.1148 0.1490 -0.0596
H148? H -0.1482 0.1262 -0.1221
C144? C -0.2222(14) 0.2009(5) -0.0993(5)
H149? H -0.2385 0.2136 -0.1351
H150? H -0.2931 0.1775 -0.0940
C145? C -0.2255(16) 0.2412(6) -0.0115(5)
H151? H -0.1848 0.2087 0.0041
H152? H -0.3102 0.2291 -0.0187
C146? C -0.1941(7) 0.3003(6) 0.0247(6)
H153? H -0.2282 0.3335 0.0074
H154? H -0.2223 0.2983 0.0583
C147? C -0.0127(10) 0.3647(5) 0.0668(6)
H155? H -0.0501 0.3754 0.0975
H156? H -0.0165 0.3984 0.0454
C148? C 0.1105(9) 0.3551(6) 0.0862(4)
H157? H 0.1525 0.3908 0.1115
H158? H 0.1156 0.3184 0.1040
C149? C 0.2566(9) 0.3157(5) 0.0472(6)
H159? H 0.3007 0.3296 0.0840
H160? H 0.3067 0.3270 0.0225
C150? C 0.2330(14) 0.2482(5) 0.0393(4)
H161? H 0.3070 0.2298 0.0427
H162? H 0.1920 0.2355 0.0669
loop_
_geom_bond_atom_site_label_1
_geom_bond_atom_site_label_2
_geom_bond_site_symmetry_1
_geom_bond_site_symmetry_2
Na1 O1 1_555 1_555
O1 C1 1_555 1_555
O2 Na1 1_555 1_555
O3 Na1 1_555 1_555
O4 Na1 1_555 1_555
O5 Na1 1_555 1_555
C1 H1 1_555 1_555
H2 C1 1_555 1_555
C2 O2 1_555 1_555
H3 C2 1_555 1_555
H4 C2 1_555 1_555
C3 O2 1_555 1_555
H5 C3 1_555 1_555
H6 C3 1_555 1_555
C4 O3 1_555 1_555
H7 C4 1_555 1_555
H8 C4 1_555 1_555
C5 O3 1_555 1_555
H9 C5 1_555 1_555
H10 C5 1_555 1_555
C6 O4 1_555 1_555
H11 C6 1_555 1_555
H12 C6 1_555 1_555
C7 O4 1_555 1_555
H13 C7 1_555 1_555
H14 C7 1_555 1_555
C8 O5 1_555 1_555
H15 C8 1_555 1_555
H16 C8 1_555 1_555
C9 O5 1_555 1_555
H17 C9 1_555 1_555
H18 C9 1_555 1_555
C10 O1 1_555 1_555
H19 C10 1_555 1_555
H20 C10 1_555 1_555
B1 N1 1_555 1_555
B2 N5 1_555 1_555
B3 N6 1_555 1_555
N1 N2 1_555 1_555
N2 C17 1_555 1_555
N3 N4 1_555 1_555
N4 B1 1_555 1_555
N5 B1 1_555 1_555
N6 B2 1_555 1_555
N7 B1 1_555 1_555
N8 N9 1_555 1_555
N9 B2 1_555 1_555
N10 B3 1_555 1_555
N11 N10 1_555 1_555
N12 N11 1_555 1_555
C11 N1 1_555 1_555
C12 C11 1_555 1_555
H21 C12 1_555 1_555
C13 C12 1_555 1_555
H22 C13 1_555 1_555
C14 C13 1_555 1_555
H23 C14 1_555 1_555
C15 C14 1_555 1_555
H24 C15 1_555 1_555
C16 C11 1_555 1_555
H25 C16 1_555 1_555
C17 N3 1_555 1_555
C18 C17 1_555 1_555
C19 C18 1_555 1_555
H26 C19 1_555 1_555
C20 C19 1_555 1_555
H27 C20 1_555 1_555
C21 C20 1_555 1_555
C22 C21 1_555 1_555
H28 C22 1_555 1_555
C23 C18 1_555 1_555
H29 C23 1_555 1_555
C24 C21 1_555 1_555
H30 C24 1_555 1_555
H31 C24 1_555 1_555
H32 C24 1_555 1_555
C25 N4 1_555 1_555
C26 C25 1_555 1_555
H33 C26 1_555 1_555
C27 C26 1_555 1_555
H34 C27 1_555 1_555
C28 C27 1_555 1_555
H35 C28 1_555 1_555
C29 C28 1_555 1_555
H36 C29 1_555 1_555
C30 C25 1_555 1_555
H37 C30 1_555 1_555
C31 N9 1_555 1_555
C32 C31 1_555 1_555
H38 C32 1_555 1_555
C33 C32 1_555 1_555
H39 C33 1_555 1_555
C34 C33 1_555 1_555
H40 C34 1_555 1_555
C35 C34 1_555 1_555
H41 C35 1_555 1_555
C36 C31 1_555 1_555
H42 C36 1_555 1_555
C37 N5 1_555 1_555
C38 C37 1_555 1_555
C39 C38 1_555 1_555
H43 C39 1_555 1_555
C40 C39 1_555 1_555
H44 C40 1_555 1_555
C41 C40 1_555 1_555
C42 C41 1_555 1_555
H45 C42 1_555 1_555
C43 C38 1_555 1_555
H46 C43 1_555 1_555
C44 C41 1_555 1_555
H47 C44 1_555 1_555
H48 C44 1_555 1_555
H49 C44 1_555 1_555
C45 N6 1_555 1_555
C46 C45 1_555 1_555
H50 C46 1_555 1_555
C47 C46 1_555 1_555
H51 C47 1_555 1_555
C48 C47 1_555 1_555
H52 C48 1_555 1_555
C49 C48 1_555 1_555
H53 C49 1_555 1_555
C50 C45 1_555 1_555
H54 C50 1_555 1_555
C51 N10 1_555 1_555
C52 C51 1_555 1_555
H55 C52 1_555 1_555
C53 C52 1_555 1_555
H56 C53 1_555 1_555
C54 C53 1_555 1_555
H57 C54 1_555 1_555
C55 C54 1_555 1_555
H58 C55 1_555 1_555
C56 C51 1_555 1_555
H59 C56 1_555 1_555
C57 N11 1_555 1_555
C58 C57 1_555 1_555
H60 C58 1_555 1_555
C59 C58 1_555 1_555
H61 C59 1_555 1_555
C60 C59 1_555 1_555
H62 C60 1_555 1_555
C61 C60 1_555 1_555
H63 C61 1_555 1_555
C62 C57 1_555 1_555
H64 C62 1_555 1_555
C63 N7 1_555 1_555
C64 C63 1_555 1_555
C65 C64 1_555 1_555
H65 C65 1_555 1_555
C66 C65 1_555 1_555
H66 C66 1_555 1_555
C67 C66 1_555 1_555
C68 C67 1_555 1_555
H67 C68 1_555 1_555
C69 C64 1_555 1_555
H68 C69 1_555 1_555
C70 C67 1_555 1_555
H69 C70 1_555 1_555
H70 C70 1_555 1_555
H71 C70 1_555 1_555
B4 N13 1_555 1_555
B5 N17 1_555 1_555
B6 N18 1_555 1_555
N13 N14 1_555 1_555
N14 C77 1_555 1_555
N15 N16 1_555 1_555
N16 B4 1_555 1_555
N17 B4 1_555 1_555
N18 B5 1_555 1_555
N19 B4 1_555 1_555
N20 N21 1_555 1_555
N21 B5 1_555 1_555
N22 B6 1_555 1_555
N23 N22 1_555 1_555
N24 N23 1_555 1_555
C71 N13 1_555 1_555
C72 C71 1_555 1_555
H72 C72 1_555 1_555
C73 C72 1_555 1_555
H73 C73 1_555 1_555
C74 C73 1_555 1_555
H74 C74 1_555 1_555
C75 C74 1_555 1_555
H75 C75 1_555 1_555
C76 C71 1_555 1_555
H76 C76 1_555 1_555
C77 N15 1_555 1_555
C78 C77 1_555 1_555
C79 C78 1_555 1_555
H77 C79 1_555 1_555
C80 C79 1_555 1_555
H78 C80 1_555 1_555
C81 C80 1_555 1_555
C82 C81 1_555 1_555
H79 C82 1_555 1_555
C83 C78 1_555 1_555
H80 C83 1_555 1_555
C84 C81 1_555 1_555
H81 C84 1_555 1_555
H82 C84 1_555 1_555
H83 C84 1_555 1_555
C85 N16 1_555 1_555
C86 C85 1_555 1_555
H84 C86 1_555 1_555
C87 C86 1_555 1_555
H85 C87 1_555 1_555
C88 C87 1_555 1_555
H86 C88 1_555 1_555
C89 C88 1_555 1_555
H87 C89 1_555 1_555
C90 C85 1_555 1_555
H88 C90 1_555 1_555
C91 N21 1_555 1_555
C92 C91 1_555 1_555
H89 C92 1_555 1_555
C93 C92 1_555 1_555
H90 C93 1_555 1_555
C94 C93 1_555 1_555
H91 C94 1_555 1_555
C95 C94 1_555 1_555
H92 C95 1_555 1_555
C96 C91 1_555 1_555
H93 C96 1_555 1_555
C97 N17 1_555 1_555
C98 C97 1_555 1_555
C99 C98 1_555 1_555
H94 C99 1_555 1_555
C100 C99 1_555 1_555
H95 C100 1_555 1_555
C101 C100 1_555 1_555
C102 C101 1_555 1_555
H96 C102 1_555 1_555
C103 C98 1_555 1_555
H97 C103 1_555 1_555
C104 C101 1_555 1_555
H98 C104 1_555 1_555
H99 C104 1_555 1_555
H100 C104 1_555 1_555
C105 N18 1_555 1_555
C106 C105 1_555 1_555
H101 C106 1_555 1_555
C107 C106 1_555 1_555
H102 C107 1_555 1_555
C108 C107 1_555 1_555
H103 C108 1_555 1_555
C109 C108 1_555 1_555
H104 C109 1_555 1_555
C110 C105 1_555 1_555
H105 C110 1_555 1_555
C111 N22 1_555 1_555
C112 C111 1_555 1_555
H106 C112 1_555 1_555
C113 C112 1_555 1_555
H107 C113 1_555 1_555
C114 C113 1_555 1_555
H108 C114 1_555 1_555
C115 C114 1_555 1_555
H109 C115 1_555 1_555
C116 C111 1_555 1_555
H110 C116 1_555 1_555
C117 N23 1_555 1_555
C118 C117 1_555 1_555
H111 C118 1_555 1_555
C119 C118 1_555 1_555
H112 C119 1_555 1_555
C120 C119 1_555 1_555
H113 C120 1_555 1_555
C121 C120 1_555 1_555
H114 C121 1_555 1_555
C122 C117 1_555 1_555
H115 C122 1_555 1_555
C123 N19 1_555 1_555
C124 C123 1_555 1_555
C125 C124 1_555 1_555
H116 C125 1_555 1_555
C126 C125 1_555 1_555
H117 C126 1_555 1_555
C127 C126 1_555 1_555
C128 C127 1_555 1_555
H118 C128 1_555 1_555
C129 C124 1_555 1_555
H119 C129 1_555 1_555
C130 C127 1_555 1_555
H120 C130 1_555 1_555
H121 C130 1_555 1_555
H122 C130 1_555 1_555
Na2 O6 1_555 1_555
O6 C131 1_555 1_555
O7 Na2 1_555 1_555
O8 Na2 1_555 1_555
O9 Na2 1_555 1_555
O10 Na2 1_555 1_555
C131 H123 1_555 1_555
H124 C131 1_555 1_555
C132 O7 1_555 1_555
H125 C132 1_555 1_555
H126 C132 1_555 1_555
C133 O7 1_555 1_555
H127 C133 1_555 1_555
H128 C133 1_555 1_555
C134 O8 1_555 1_555
H129 C134 1_555 1_555
H130 C134 1_555 1_555
C135 O8 1_555 1_555
H131 C135 1_555 1_555
H132 C135 1_555 1_555
C136 O9 1_555 1_555
H133 C136 1_555 1_555
H134 C136 1_555 1_555
C137 O9 1_555 1_555
H135 C137 1_555 1_555
H136 C137 1_555 1_555
C138 O10 1_555 1_555
H137 C138 1_555 1_555
H138 C138 1_555 1_555
C139 O10 1_555 1_555
H139 C139 1_555 1_555
H140 C139 1_555 1_555
C140 O6 1_555 1_555
H141 C140 1_555 1_555
H142 C140 1_555 1_555
C1 C2 1_555 1_555
C3 C4 1_555 1_555
C5 C6 1_555 1_555
C7 C8 1_555 1_555
C9 C10 1_555 1_555
B3 N7 1_555 1_555
N8 C37 1_555 1_555
N12 C63 1_555 1_555
C15 C16 1_555 1_555
C22 C23 1_555 1_555
C29 C30 1_555 1_555
C35 C36 1_555 1_555
C42 C43 1_555 1_555
C49 C50 1_555 1_555
C55 C56 1_555 1_555
C61 C62 1_555 1_555
C68 C69 1_555 1_555
B6 N19 1_555 1_555
N20 C97 1_555 1_555
N24 C123 1_555 1_555
C75 C76 1_555 1_555
C82 C83 1_555 1_555
C89 C90 1_555 1_555
C95 C96 1_555 1_555
C102 C103 1_555 1_555
C109 C110 1_555 1_555
C115 C116 1_555 1_555
C121 C122 1_555 1_555
C128 C129 1_555 1_555
C131 C132 1_555 1_555
C133 C134 1_555 1_555
C135 C136 1_555 1_555
C137 C138 1_555 1_555
C139 C140 1_555 1_555

#END
