
#######################################################################
#
#                 Cambridge Crystallographic Data Centre
#                                CCDC 
#
#######################################################################
#
# If this CIF has been generated from an entry in the Cambridge 
# Structural Database, then it will include bibliographic, chemical, 
# crystal, experimental, refinement or atomic coordinate data resulting 
# from the CCDC's data processing and validation procedures.
#
#######################################################################

data_NUNWEY
_chemical_formula_moiety         'C23 H25 Cl1 O3'
_chemical_name_systematic        
3,3,6,6-Tetramethyl-9-(2-chlorophenyl)-1,8-dioxo-3,4,5,6,7,9-hexahydroxanthene
_symmetry_cell_setting           monoclinic
_symmetry_space_group_name_H-M   'C 2/c'
_symmetry_Int_Tables_number      15
_space_group_name_Hall           '-C 2yn'
loop_
_symmetry_equiv_pos_site_id
_symmetry_equiv_pos_as_xyz
1 x,y,z
2 -x,y,1/2-z
3 1/2+x,1/2+y,z
4 1/2-x,1/2+y,1/2-z
5 -x,-y,-z
6 x,-y,1/2+z
7 1/2-x,1/2-y,-z
8 1/2+x,1/2-y,1/2+z
_cell_length_a                   17.095(3)
_cell_length_b                   11.496(2)
_cell_length_c                   21.822(4)
_cell_angle_alpha                90
_cell_angle_beta                 111.73(1)
_cell_angle_gamma                90
_cell_volume                     3983.8
_chemical_melting_point          212-214deg.C
_cell_formula_units_Z            8
loop_
_atom_site_label
_atom_site_type_symbol
_atom_site_fract_x
_atom_site_fract_y
_atom_site_fract_z
Cl1 Cl 0.2384(9) 0.0247(1) 0.6403(8)
O1 O 0.0489(2) 0.0292(3) 0.6654(2)
O2 O 0.1823(2) -0.1230(3) 0.4977(2)
O3 O -0.0824(2) -0.2399(3) 0.4956(1)
C1 C 0.2198(3) -0.1161(5) 0.6575(2)
C2 C 0.2854(3) -0.1746(7) 0.7074(3)
C3 C 0.2713(4) -0.2866(7) 0.7216(3)
C4 C 0.1962(4) -0.3417(5) 0.6900(3)
C5 C 0.1329(3) -0.2857(5) 0.6413(2)
C6 C 0.1437(3) -0.1697(4) 0.6236(2)
C7 C 0.0718(3) -0.1127(4) 0.5670(2)
C8 C -0.0080(3) -0.1089(4) 0.5820(2)
C9 C -0.0109(3) -0.0339(4) 0.6356(2)
C10 C -0.0898(3) -0.0332(4) 0.6508(2)
C11 C -0.1429(3) -0.1444(4) 0.6317(2)
C12 C -0.1564(3) -0.1727(4) 0.5607(2)
C13 C -0.0770(3) -0.1700(4) 0.5479(2)
C14 C -0.0157(3) -0.2424(4) 0.4747(2)
C15 C 0.0556(2) -0.1822(4) 0.5049(2)
C16 C 0.1204(3) -0.1853(4) 0.4759(2)
C17 C 0.1073(3) -0.2628(4) 0.4169(2)
C18 C 0.0469(3) -0.3654(4) 0.4098(2)
C19 C -0.0339(3) -0.3175(4) 0.4155(2)
C20 C -0.0974(3) -0.2444(5) 0.6773(2)
C21 C -0.2283(3) -0.1245(5) 0.6381(3)
C22 C 0.0885(3) -0.4555(4) 0.4630(3)
C23 C 0.0250(3) -0.4205(5) 0.3417(2)
loop_
_geom_bond_atom_site_label_1
_geom_bond_atom_site_label_2
_geom_bond_site_symmetry_1
_geom_bond_site_symmetry_2
Cl1 C1 1_555 1_555
O1 C9 1_555 1_555
O2 C16 1_555 1_555
O3 C13 1_555 1_555
C1 C2 1_555 1_555
C2 C3 1_555 1_555
C3 C4 1_555 1_555
C4 C5 1_555 1_555
C5 C6 1_555 1_555
C6 C1 1_555 1_555
C7 C6 1_555 1_555
C8 C7 1_555 1_555
C9 C8 1_555 1_555
C10 C9 1_555 1_555
C11 C10 1_555 1_555
C12 C11 1_555 1_555
C13 C8 1_555 1_555
C14 O3 1_555 1_555
C15 C7 1_555 1_555
C16 C15 1_555 1_555
C17 C16 1_555 1_555
C18 C17 1_555 1_555
C19 C14 1_555 1_555
C20 C11 1_555 1_555
C21 C11 1_555 1_555
C22 C18 1_555 1_555
C23 C18 1_555 1_555
C12 C13 1_555 1_555
C14 C15 1_555 1_555
C18 C19 1_555 1_555

#END
