
#######################################################################
#
#                 Cambridge Crystallographic Data Centre
#                                CCDC 
#
#######################################################################
#
# If this CIF has been generated from an entry in the Cambridge 
# Structural Database, then it will include bibliographic, chemical, 
# crystal, experimental, refinement or atomic coordinate data resulting 
# from the CCDC's data processing and validation procedures.
#
#######################################################################

data_NUPKAM
_chemical_formula_moiety         'C32 H26 N2 O4,H2 O1'
_chemical_name_systematic        
"5'-(4-Methoxyphenyl)-3',3'-dimethyl-3',4',5',11'-tetrahydrospiro[indene-2,6'-indolo[3,2-c]quinoline]-1,1',3(2'H)-trione monohydrate"
_symmetry_cell_setting           triclinic
_symmetry_space_group_name_H-M   'P -1'
_symmetry_Int_Tables_number      2
_space_group_name_Hall           '-P 1'
loop_
_symmetry_equiv_pos_site_id
_symmetry_equiv_pos_as_xyz
1 x,y,z
2 -x,-y,-z
_cell_length_a                   9.231(3)
_cell_length_b                   10.439(4)
_cell_length_c                   15.222(4)
_cell_angle_alpha                92.356(5)
_cell_angle_beta                 94.503(6)
_cell_angle_gamma                113.508(8)
_cell_volume                     1336.72
_exptl_crystal_colour            black
_exptl_crystal_description       block
_cell_formula_units_Z            2
loop_
_atom_site_label
_atom_site_type_symbol
_atom_site_fract_x
_atom_site_fract_y
_atom_site_fract_z
O1 O 0.5334(3) 0.6677(3) 0.63243(19)
O2 O 0.1141(3) 0.3223(3) 0.75992(18)
O3 O 0.8061(3) 0.5482(3) 0.97852(16)
O4 O -0.0263(4) 0.8633(4) 0.7504(2)
N1 N 0.6648(4) 0.3739(3) 0.8249(2)
H1 H 0.741(5) 0.377(4) 0.861(2)
N2 N 0.3903(3) 0.6011(3) 0.80317(17)
C1 C 0.3734(4) 0.4966(4) 0.7297(2)
C2 C 0.4129(5) 0.5685(4) 0.6415(2)
C3 C 0.2787(5) 0.4912(4) 0.5747(2)
C4 C 0.2656(6) 0.5055(6) 0.4842(3)
H2 H 0.3484 0.5714 0.4581
C5 C 0.1268(9) 0.4198(8) 0.4344(3)
H3 H 0.1163 0.4266 0.3737
C6 C 0.0034(8) 0.3239(7) 0.4734(4)
H4 H -0.0899 0.2688 0.4383
C7 C 0.0135(6) 0.3072(5) 0.5620(3)
H5 H -0.0700 0.2409 0.5873
C8 C 0.1536(5) 0.3933(4) 0.6128(2)
C9 C 0.1975(4) 0.3937(4) 0.7077(2)
C10 C 0.4756(4) 0.4201(4) 0.7503(2)
C11 C 0.4923(4) 0.3079(4) 0.7012(2)
C12 C 0.4222(5) 0.2254(4) 0.6216(2)
H6 H 0.3420 0.2386 0.5874
C13 C 0.4745(5) 0.1246(4) 0.5950(3)
H7 H 0.4288 0.0703 0.5421
C14 C 0.5929(5) 0.1020(5) 0.6448(3)
H8 H 0.6254 0.0333 0.6247
C15 C 0.6630(5) 0.1794(4) 0.7233(3)
H9 H 0.7417 0.1635 0.7571
C16 C 0.6132(4) 0.2814(4) 0.7506(2)
C17 C 0.5827(4) 0.4575(4) 0.8243(2)
C18 C 0.5998(4) 0.5682(4) 0.8890(2)
C19 C 0.7177(4) 0.6111(4) 0.9643(2)
C20 C 0.7336(5) 0.7322(4) 1.0265(2)
H10 H 0.8452 0.7843 1.0467
H11 H 0.6791 0.6957 1.0777
C21 C 0.6685(4) 0.8332(4) 0.9877(2)
C22 C 0.5030(4) 0.7465(4) 0.9422(2)
H12 H 0.4330 0.7029 0.9866
H13 H 0.4629 0.8084 0.9129
C23 C 0.4985(4) 0.6353(3) 0.8758(2)
C24 C 0.6603(5) 0.9309(5) 1.0625(3)
H14 H 0.6216 0.9963 1.0385
H15 H 0.7644 0.9811 1.0930
H16 H 0.5898 0.8770 1.1031
C25 C 0.7732(5) 0.9183(4) 0.9198(3)
H17 H 0.8792 0.9698 0.9475
H18 H 0.7312 0.9824 0.8973
H19 H 0.7749 0.8560 0.8721
C26 C 0.2845(4) 0.6728(4) 0.7903(2)
C27 C 0.3303(4) 0.7917(4) 0.7453(2)
H20 H 0.4295 0.8266 0.7241
C28 C 0.2302(5) 0.8605(4) 0.7311(2)
H21 H 0.2620 0.9414 0.7010
C29 C 0.0832(5) 0.8073(4) 0.7621(2)
C30 C 0.0385(5) 0.6888(4) 0.8079(3)
H22 H -0.0606 0.6535 0.8292
C31 C 0.1392(4) 0.6220(4) 0.8225(2)
H23 H 0.1087 0.5427 0.8542
C32 C 0.0130(8) 0.9868(7) 0.7054(4)
H24 H 0.0389 0.9703 0.6474
H25 H 0.1028 1.0611 0.7377
H26 H -0.0758 1.0127 0.7007
O5 O 0.0883(7) 0.6985(6) 0.0930(4)
O6? O 0.1201(8) 0.7046(7) 0.0547(5)
loop_
_geom_bond_atom_site_label_1
_geom_bond_atom_site_label_2
_geom_bond_site_symmetry_1
_geom_bond_site_symmetry_2
O1 C2 1_555 1_555
O2 C9 1_555 1_555
O3 C19 1_555 1_555
O4 C29 1_555 1_555
N1 H1 1_555 1_555
N2 C1 1_555 1_555
C1 C2 1_555 1_555
C2 C3 1_555 1_555
C3 C4 1_555 1_555
C4 H2 1_555 1_555
C5 C4 1_555 1_555
H3 C5 1_555 1_555
C6 C5 1_555 1_555
H4 C6 1_555 1_555
C7 C6 1_555 1_555
H5 C7 1_555 1_555
C8 C3 1_555 1_555
C9 C1 1_555 1_555
C10 C1 1_555 1_555
C11 C10 1_555 1_555
C12 C11 1_555 1_555
H6 C12 1_555 1_555
C13 C12 1_555 1_555
H7 C13 1_555 1_555
C14 C13 1_555 1_555
H8 C14 1_555 1_555
C15 C14 1_555 1_555
H9 C15 1_555 1_555
C16 N1 1_555 1_555
C17 N1 1_555 1_555
C18 C17 1_555 1_555
C19 C18 1_555 1_555
C20 C19 1_555 1_555
H10 C20 1_555 1_555
H11 C20 1_555 1_555
C21 C20 1_555 1_555
C22 C21 1_555 1_555
H12 C22 1_555 1_555
H13 C22 1_555 1_555
C23 N2 1_555 1_555
C24 C21 1_555 1_555
H14 C24 1_555 1_555
H15 C24 1_555 1_555
H16 C24 1_555 1_555
C25 C21 1_555 1_555
H17 C25 1_555 1_555
H18 C25 1_555 1_555
H19 C25 1_555 1_555
C26 N2 1_555 1_555
C27 C26 1_555 1_555
H20 C27 1_555 1_555
C28 C27 1_555 1_555
H21 C28 1_555 1_555
C29 C28 1_555 1_555
C30 C29 1_555 1_555
H22 C30 1_555 1_555
C31 C26 1_555 1_555
H23 C31 1_555 1_555
C32 O4 1_555 1_555
H24 C32 1_555 1_555
H25 C32 1_555 1_555
H26 C32 1_555 1_555
C7 C8 1_555 1_555
C8 C9 1_555 1_555
C10 C17 1_555 1_555
C11 C16 1_555 1_555
C15 C16 1_555 1_555
C18 C23 1_555 1_555
C22 C23 1_555 1_555
C30 C31 1_555 1_555

#END
