
#######################################################################
#
#                 Cambridge Crystallographic Data Centre
#                                CCDC 
#
#######################################################################
#
# If this CIF has been generated from an entry in the Cambridge 
# Structural Database, then it will include bibliographic, chemical, 
# crystal, experimental, refinement or atomic coordinate data resulting 
# from the CCDC's data processing and validation procedures.
#
#######################################################################

data_NUPPUL
_chemical_name_common            flumioxazin
_chemical_formula_moiety         'C19 H15 F1 N2 O4'
_chemical_name_systematic        
2-(7-fluoro-3-oxo-4-(prop-2-yn-1-yl)-3,4-dihydro-2H-1,4-benzoxazin-6-yl)-4,5,6,7-tetrahydro-1H-isoindole-1,3(2H)-dione
_chemical_properties_biological  
'A soil applied pre-emergent herbicide used to inhibit development of redroot pigweed.'
_symmetry_cell_setting           monoclinic
_symmetry_space_group_name_H-M   'P 21/c'
_symmetry_Int_Tables_number      14
_space_group_name_Hall           '-P 2ybc'
loop_
_symmetry_equiv_pos_site_id
_symmetry_equiv_pos_as_xyz
1 x,y,z
2 -x,1/2+y,1/2-z
3 -x,-y,-z
4 x,1/2-y,1/2+z
_cell_length_a                   8.8960(10)
_cell_length_b                   7.1592(8)
_cell_length_c                   25.708(3)
_cell_angle_alpha                90
_cell_angle_beta                 96.039(6)
_cell_angle_gamma                90
_cell_volume                     1628.21
_exptl_crystal_colour            colorless
_exptl_crystal_description       plate
_cell_formula_units_Z            4
_exptl_crystal_recrystallization_method acetonitrile
loop_
_atom_site_label
_atom_site_type_symbol
_atom_site_fract_x
_atom_site_fract_y
_atom_site_fract_z
F1 F 0.77768(12) 0.66568(18) 0.33755(5)
O1 O 1.40190(15) 0.41585(19) 0.54636(5)
O2 O 1.12467(13) 0.73087(17) 0.48786(4)
O3 O 0.94166(16) 0.4892(2) 0.25135(5)
O4 O 0.74322(15) 0.08897(18) 0.36415(5)
N1 N 1.22083(15) 0.3652(2) 0.47885(5)
N2 N 0.86942(16) 0.3094(2) 0.31951(5)
C1 C 1.30559(18) 0.4767(3) 0.51371(6)
C2 C 1.27631(19) 0.6824(3) 0.50845(7)
H1 H 1.2983 0.7410 0.5433
H2 H 1.3474 0.7360 0.4853
C3 C 1.06753(17) 0.6259(2) 0.44577(6)
C4 C 1.11458(17) 0.4423(2) 0.43988(6)
C5 C 1.2461(2) 0.1636(2) 0.48166(6)
H3 H 1.1481 0.0987 0.4739
H4 H 1.2872 0.1300 0.5177
C6 C 1.3508(2) 0.0983(2) 0.44508(7)
C7 C 1.4371(2) 0.0447(3) 0.41648(7)
H5 H 1.5064 0.0015 0.3935
C8 C 0.95463(18) 0.7036(3) 0.41121(6)
H6 H 0.9225 0.8288 0.4154
C9 C 0.89012(18) 0.5945(3) 0.37066(7)
C10 C 0.93760(18) 0.4142(3) 0.36273(6)
C11 C 1.05195(18) 0.3384(2) 0.39736(6)
H7 H 1.0873 0.2154 0.3920
C12 C 0.87139(19) 0.3604(3) 0.26659(7)
C13 C 0.76914(17) 0.2264(3) 0.23609(6)
C14 C 0.70932(18) 0.1121(2) 0.26880(6)
C15 C 0.77039(17) 0.1593(2) 0.32346(6)
C16 C 0.7429(2) 0.2189(3) 0.17802(6)
H8 H 0.8355 0.1746 0.1637
H9 H 0.7193 0.3457 0.1640
C17 C 0.6125(2) 0.0878(3) 0.16111(7)
H10 H 0.5158 0.1542 0.1634
H11 H 0.6171 0.0519 0.1241
C18 C 0.6158(3) -0.0865(3) 0.19432(8)
H12 H 0.7113 -0.1546 0.1912
H13 H 0.5311 -0.1690 0.1809
C19 C 0.6033(2) -0.0436(3) 0.25236(7)
H14 H 0.4984 -0.0070 0.2573
H15 H 0.6297 -0.1559 0.2739
loop_
_geom_bond_atom_site_label_1
_geom_bond_atom_site_label_2
_geom_bond_site_symmetry_1
_geom_bond_site_symmetry_2
F1 C9 1_555 1_555
O1 C1 1_555 1_555
O2 C2 1_555 1_555
O3 C12 1_555 1_555
O4 C15 1_555 1_555
N1 C1 1_555 1_555
N2 C10 1_555 1_555
C1 C2 1_555 1_555
C2 H1 1_555 1_555
H2 C2 1_555 1_555
C3 O2 1_555 1_555
C4 N1 1_555 1_555
C5 N1 1_555 1_555
H3 C5 1_555 1_555
H4 C5 1_555 1_555
C6 C5 1_555 1_555
C7 C6 1_555 1_555
H5 C7 1_555 1_555
C8 C3 1_555 1_555
H6 C8 1_555 1_555
C9 C8 1_555 1_555
C10 C9 1_555 1_555
C11 C4 1_555 1_555
H7 C11 1_555 1_555
C12 N2 1_555 1_555
C13 C12 1_555 1_555
C14 C13 1_555 1_555
C15 N2 1_555 1_555
C16 C13 1_555 1_555
H8 C16 1_555 1_555
H9 C16 1_555 1_555
C17 C16 1_555 1_555
H10 C17 1_555 1_555
H11 C17 1_555 1_555
C18 C17 1_555 1_555
H12 C18 1_555 1_555
H13 C18 1_555 1_555
C19 C14 1_555 1_555
H14 C19 1_555 1_555
H15 C19 1_555 1_555
C3 C4 1_555 1_555
C10 C11 1_555 1_555
C14 C15 1_555 1_555
C18 C19 1_555 1_555

#END
