
#######################################################################
#
#                 Cambridge Crystallographic Data Centre
#                                CCDC 
#
#######################################################################
#
# If this CIF has been generated from an entry in the Cambridge 
# Structural Database, then it will include bibliographic, chemical, 
# crystal, experimental, refinement or atomic coordinate data resulting 
# from the CCDC's data processing and validation procedures.
#
#######################################################################

data_NUPSAS
_chemical_name_common            
bis((2,2-Bipyridyl)-(hexafluoroacetylacetonato))-strontium
_chemical_formula_moiety         'C30 H18 F12 N4 O4 Sr1'
_chemical_name_systematic        
bis((2,2-Bipyridyl)-(1,1,1,5,5,5-hexafluoropentane-2,4-dionato))-strontium
_symmetry_cell_setting           monoclinic
_symmetry_space_group_name_H-M   'C 2/c'
_symmetry_Int_Tables_number      15
_space_group_name_Hall           '-C 2yn'
loop_
_symmetry_equiv_pos_site_id
_symmetry_equiv_pos_as_xyz
1 x,y,z
2 -x,y,1/2-z
3 1/2+x,1/2+y,z
4 1/2-x,1/2+y,1/2-z
5 -x,-y,-z
6 x,-y,1/2+z
7 1/2-x,1/2-y,-z
8 1/2+x,1/2-y,1/2+z
_cell_length_a                   28.105(2)
_cell_length_b                   16.3456(2)
_cell_length_c                   17.106(3)
_cell_angle_alpha                90
_cell_angle_beta                 121.926(9)
_cell_angle_gamma                90
_cell_volume                     6669.66
_exptl_crystal_colour            colorless
_chemical_melting_point          179-181deg.C
_cell_formula_units_Z            8
_exptl_crystal_recrystallization_method ethanol
loop_
_atom_site_label
_atom_site_type_symbol
_atom_site_fract_x
_atom_site_fract_y
_atom_site_fract_z
Sr1 Sr 0.63223(2) 0.3114(3) 0.08196(3)
F1 F 0.583(2) 0.400(2) 0.3354(19)
F3 F 0.665(3) 0.374(5) 0.382(3)
F5 F 0.627(3) 0.2895(15) 0.4037(16)
F7 F 0.5004(17) 0.096(2) 0.167(2)
F9 F 0.534(2) 0.0635(16) 0.095(5)
F11 F 0.4663(11) 0.124(3) 0.022(3)
F13 F 0.6961(16) 0.1386(19) 0.391(2)
F15 F 0.671(4) 0.066(2) 0.273(4)
F17 F 0.745(2) 0.073(3) 0.355(6)
F19 F 0.7922(7) 0.4592(8) 0.3450(9)
F20 F 0.8430(5) 0.3908(12) 0.3349(9)
F21 F 0.8284(4) 0.3715(8) 0.4438(4)
O1 O 0.6138(2) 0.3497(3) 0.2069(3)
O2 O 0.5555(2) 0.2209(4) 0.0699(3)
O3 O 0.6809(2) 0.1941(3) 0.1968(4)
O4 O 0.7302(2) 0.3523(3) 0.2104(3)
N1 N 0.6335(2) 0.1949(4) -0.0310(4)
N2 N 0.6781(2) 0.3432(3) -0.0214(3)
N3 N 0.6068(2) 0.4722(3) 0.0543(4)
N4 N 0.5367(2) 0.3635(4) -0.0704(3)
C1 C 0.6096(4) 0.1231(6) -0.0377(9)
C2 C 0.6052(5) 0.0631(6) -0.0947(11)
C3 C 0.6243(6) 0.0780(8) -0.1521(10)
C4 C 0.6503(5) 0.1491(6) -0.1464(7)
C5 C 0.6546(3) 0.2078(4) -0.0844(4)
C6 C 0.6811(2) 0.2876(4) -0.0759(4)
C7 C 0.7100(3) 0.3060(6) -0.1205(4)
C8 C 0.7337(3) 0.3814(6) -0.1098(5)
C9 C 0.7296(3) 0.4375(6) -0.0556(6)
C10 C 0.7013(3) 0.4153(5) -0.0129(5)
C11 C 0.6416(3) 0.5247(5) 0.1207(5)
C12 C 0.6311(4) 0.6071(5) 0.1173(7)
C13 C 0.5827(5) 0.6382(5) 0.0433(7)
C14 C 0.5463(4) 0.5850(5) -0.0235(6)
C15 C 0.5593(3) 0.5023(4) -0.0178(4)
C16 C 0.5224(3) 0.4421(4) -0.0879(4)
C17 C 0.4734(3) 0.4658(6) -0.1700(5)
C18 C 0.4401(4) 0.4065(9) -0.2321(6)
C19 C 0.4543(3) 0.3274(8) -0.2125(6)
C20 C 0.5029(3) 0.3070(6) -0.1313(5)
C21 C 0.5945(4) 0.3057(6) 0.2447(6)
C22 C 0.5630(5) 0.2368(8) 0.2146(8)
C23 C 0.5462(4) 0.1981(8) 0.1287(6)
C24 C 0.6139(15) 0.3403(12) 0.3432(16)
C25 C 0.5059(8) 0.1286(11) 0.1008(14)
C26 C 0.7150(4) 0.1977(6) 0.2818(6)
C27 C 0.7525(4) 0.2575(7) 0.3309(6)
C28 C 0.7589(3) 0.3305(6) 0.2935(5)
C29 C 0.7096(6) 0.1216(9) 0.3311(9)
C30 C 0.8045(4) 0.3815(7) 0.3542(6)
H1 H 0.5947 0.1136 0.0001
H2 H 0.5893 0.0117 -0.0952
H3 H 0.6192 0.0380 -0.1962
H4 H 0.6652 0.1588 -0.1840
H5 H 0.7130 0.2660 -0.1579
H6 H 0.7528 0.3943 -0.1403
H7 H 0.7456 0.4904 -0.0472
H8 H 0.6985 0.4548 0.0252
H9 H 0.6751 0.5038 0.1723
H10 H 0.6570 0.6422 0.1655
H11 H 0.5748 0.6951 0.0386
H12 H 0.5118 0.6047 -0.0740
H13 H 0.4634 0.5220 -0.1824
H14 H 0.4072 0.4215 -0.2886
H15 H 0.4310 0.2859 -0.2542
H16 H 0.5128 0.2509 -0.1180
H17 H 0.5515 0.2129 0.2526
H18 H 0.7763 0.2497 0.3955
F2? F 0.622(2) 0.4110(18) 0.365(2)
F4? F 0.6714(17) 0.327(5) 0.403(3)
F6? F 0.589(3) 0.285(2) 0.380(3)
F8? F 0.530(3) 0.066(4) 0.163(7)
F10? F 0.497(6) 0.093(6) 0.026(5)
F12? F 0.4606(15) 0.146(3) 0.091(6)
F14? F 0.6639(13) 0.115(3) 0.321(4)
F16? F 0.723(2) 0.0517(12) 0.3120(18)
F18? F 0.7564(17) 0.121(2) 0.4243(13)
loop_
_geom_bond_atom_site_label_1
_geom_bond_atom_site_label_2
_geom_bond_site_symmetry_1
_geom_bond_site_symmetry_2
Sr1 O1 1_555 1_555
F1 C24 1_555 1_555
F3 C24 1_555 1_555
F5 C24 1_555 1_555
F7 C25 1_555 1_555
F9 C25 1_555 1_555
F11 C25 1_555 1_555
F13 C29 1_555 1_555
F15 C29 1_555 1_555
F17 C29 1_555 1_555
F19 C30 1_555 1_555
F20 C30 1_555 1_555
F21 C30 1_555 1_555
O1 C21 1_555 1_555
O2 Sr1 1_555 1_555
O3 Sr1 1_555 1_555
O4 Sr1 1_555 1_555
N1 Sr1 1_555 1_555
N2 Sr1 1_555 1_555
N3 Sr1 1_555 1_555
N4 Sr1 1_555 1_555
C1 N1 1_555 1_555
C2 C1 1_555 1_555
C3 C2 1_555 1_555
C4 C3 1_555 1_555
C5 N1 1_555 1_555
C6 N2 1_555 1_555
C7 C6 1_555 1_555
C8 C7 1_555 1_555
C9 C8 1_555 1_555
C10 N2 1_555 1_555
C11 N3 1_555 1_555
C12 C11 1_555 1_555
C13 C12 1_555 1_555
C14 C13 1_555 1_555
C15 N3 1_555 1_555
C16 N4 1_555 1_555
C17 C16 1_555 1_555
C18 C17 1_555 1_555
C19 C18 1_555 1_555
C20 N4 1_555 1_555
C21 C22 1_555 1_555
C22 C23 1_555 1_555
C23 O2 1_555 1_555
C24 C21 1_555 1_555
C25 C23 1_555 1_555
C26 O3 1_555 1_555
C27 C26 1_555 1_555
C28 O4 1_555 1_555
C29 C26 1_555 1_555
C30 C28 1_555 1_555
H1 C1 1_555 1_555
H2 C2 1_555 1_555
H3 C3 1_555 1_555
H4 C4 1_555 1_555
H5 C7 1_555 1_555
H6 C8 1_555 1_555
H7 C9 1_555 1_555
H8 C10 1_555 1_555
H9 C11 1_555 1_555
H10 C12 1_555 1_555
H11 C13 1_555 1_555
H12 C14 1_555 1_555
H13 C17 1_555 1_555
H14 C18 1_555 1_555
H15 C19 1_555 1_555
H16 C20 1_555 1_555
H17 C22 1_555 1_555
H18 C27 1_555 1_555
C4 C5 1_555 1_555
C5 C6 1_555 1_555
C9 C10 1_555 1_555
C14 C15 1_555 1_555
C15 C16 1_555 1_555
C19 C20 1_555 1_555
C27 C28 1_555 1_555

#END
