
#######################################################################
#
#                 Cambridge Crystallographic Data Centre
#                                CCDC 
#
#######################################################################
#
# If this CIF has been generated from an entry in the Cambridge 
# Structural Database, then it will include bibliographic, chemical, 
# crystal, experimental, refinement or atomic coordinate data resulting 
# from the CCDC's data processing and validation procedures.
#
#######################################################################

data_NUPWAX
_chemical_formula_moiety         'C15 H13 Br1 N2 O1'
_chemical_name_systematic        
2-(4-Bromophenyl)-2-methyl-2,3-dihydroquinazolin-4(1H)-one
_symmetry_cell_setting           monoclinic
_symmetry_space_group_name_H-M   'P 21/c'
_symmetry_Int_Tables_number      14
_space_group_name_Hall           '-P 2ybc'
loop_
_symmetry_equiv_pos_site_id
_symmetry_equiv_pos_as_xyz
1 x,y,z
2 -x,1/2+y,1/2-z
3 -x,-y,-z
4 x,1/2-y,1/2+z
_cell_length_a                   12.2106(3)
_cell_length_b                   9.0507(2)
_cell_length_c                   12.4046(3)
_cell_angle_alpha                90
_cell_angle_beta                 101.7190(10)
_cell_angle_gamma                90
_cell_volume                     1342.31
_exptl_crystal_colour            colorless
_exptl_crystal_description       block
_cell_formula_units_Z            4
loop_
_atom_site_label
_atom_site_type_symbol
_atom_site_fract_x
_atom_site_fract_y
_atom_site_fract_z
Br1 Br 0.39200(3) 0.15530(4) 0.53610(3)
O1 O 0.12331(16) 0.5903(2) -0.02983(14)
N1 N 0.14117(19) 0.7611(2) 0.27005(18)
C1 C 0.1400(2) 0.6296(3) 0.0687(2)
C2 C 0.1575(2) 0.4972(3) 0.3192(2)
N2 N 0.07053(18) 0.5872(3) 0.13329(17)
C3 C 0.1462(2) 0.4648(3) 0.4258(2)
H1 H 0.0918 0.5136 0.4550
C4 C 0.2278(2) 0.7955(3) 0.2193(2)
C5 C 0.3078(2) 0.9022(3) 0.2615(2)
H2 H 0.3047 0.9501 0.3271
C6 C 0.2387(2) 0.4209(3) 0.2788(2)
H3 H 0.2471 0.4391 0.2071
C7 C 0.2318(2) 0.7284(3) 0.1177(2)
C8 C -0.0294(2) 0.6307(3) 0.2795(2)
H4 H -0.0752 0.6953 0.2278
H5 H -0.0224 0.6699 0.3525
H6 H -0.0633 0.5346 0.2760
C9 C 0.0863(2) 0.6182(3) 0.2514(2)
C10 C 0.2944(2) 0.2903(3) 0.4473(2)
C11 C 0.2138(3) 0.3620(3) 0.4894(2)
H7 H 0.2046 0.3415 0.5605
C12 C 0.3171(2) 0.7652(3) 0.0637(2)
H8 H 0.3202 0.7199 -0.0030
C13 C 0.3972(2) 0.8676(4) 0.1070(3)
H9 H 0.4546 0.8906 0.0707
C14 C 0.3077(2) 0.3185(3) 0.3416(2)
H10 H 0.3623 0.2693 0.3129
C15 C 0.3913(3) 0.9364(3) 0.2060(3)
H11 H 0.4447 1.0067 0.2352
H12 H 0.146(2) 0.794(3) 0.3350(12)
H13 H 0.0147(16) 0.535(3) 0.103(2)
loop_
_geom_bond_atom_site_label_1
_geom_bond_atom_site_label_2
_geom_bond_site_symmetry_1
_geom_bond_site_symmetry_2
Br1 C10 1_555 1_555
O1 C1 1_555 1_555
N1 C4 1_555 1_555
C1 N2 1_555 1_555
C2 C3 1_555 1_555
N2 C9 1_555 1_555
C3 H1 1_555 1_555
C4 C5 1_555 1_555
C5 H2 1_555 1_555
C6 C2 1_555 1_555
H3 C6 1_555 1_555
C7 C1 1_555 1_555
C8 H4 1_555 1_555
H5 C8 1_555 1_555
H6 C8 1_555 1_555
C9 N1 1_555 1_555
C10 C11 1_555 1_555
C11 C3 1_555 1_555
H7 C11 1_555 1_555
C12 C7 1_555 1_555
H8 C12 1_555 1_555
C13 C12 1_555 1_555
H9 C13 1_555 1_555
C14 C6 1_555 1_555
H10 C14 1_555 1_555
C15 C5 1_555 1_555
H11 C15 1_555 1_555
H12 N1 1_555 1_555
H13 N2 1_555 1_555
C2 C9 1_555 1_555
C4 C7 1_555 1_555
C8 C9 1_555 1_555
C10 C14 1_555 1_555
C13 C15 1_555 1_555

#END
