
#######################################################################
#
#                 Cambridge Crystallographic Data Centre
#                                CCDC 
#
#######################################################################
#
# If this CIF has been generated from an entry in the Cambridge 
# Structural Database, then it will include bibliographic, chemical, 
# crystal, experimental, refinement or atomic coordinate data resulting 
# from the CCDC's data processing and validation procedures.
#
#######################################################################

data_NUPYIH
_chemical_formula_moiety         'C16 H20 F3 N3 O4'
_chemical_name_systematic        
'Ethyl 6-(4-(dimethylamino)phenyl)-4-hydroxy-2-oxo-4-(trifluoromethyl)hexahydropyrimidine-5-carboxylate'
_symmetry_cell_setting           monoclinic
_symmetry_space_group_name_H-M   'P 21/n'
_symmetry_Int_Tables_number      14
_space_group_name_Hall           '-P 2yn'
loop_
_symmetry_equiv_pos_site_id
_symmetry_equiv_pos_as_xyz
1 x,y,z
2 1/2-x,1/2+y,1/2-z
3 -x,-y,-z
4 1/2+x,1/2-y,1/2+z
_cell_length_a                   13.319(4)
_cell_length_b                   7.923(2)
_cell_length_c                   16.530(5)
_cell_angle_alpha                90
_cell_angle_beta                 92.720(5)
_cell_angle_gamma                90
_cell_volume                     1742.39
_exptl_crystal_colour            colorless
_exptl_crystal_description       prism
_cell_formula_units_Z            4
_exptl_crystal_recrystallization_method ethanol
loop_
_atom_site_label
_atom_site_type_symbol
_atom_site_fract_x
_atom_site_fract_y
_atom_site_fract_z
F1 F 0.76872(7) 0.70609(12) 1.19210(5)
F2 F 0.87687(7) 0.90599(12) 1.18384(5)
F3 F 0.73912(7) 0.91322(12) 1.11033(6)
O1 O 0.93596(8) 0.60732(13) 1.11199(6)
O2 O 0.96896(7) 0.91625(12) 0.90354(6)
O3 O 0.78789(9) 0.36331(13) 1.10635(6)
O4 O 0.63911(8) 0.47358(14) 1.06174(7)
N1 N 0.90896(9) 0.83310(15) 1.02318(7)
N2 N 0.87955(8) 0.67473(14) 0.90588(7)
N3 N 0.57474(8) 0.09436(13) 0.76740(7)
C1 C 0.81144(11) 0.81114(19) 1.14029(9)
C2 C 0.86240(10) 0.71282(17) 1.07362(8)
C3 C 0.78493(10) 0.60970(16) 1.02222(8)
H1 H 0.7317 0.6850 1.0007
C4 C 0.84102(10) 0.53309(17) 0.95139(8)
H2 H 0.8980 0.4669 0.9736
C5 C 0.92246(10) 0.81105(16) 0.94208(8)
C6 C 0.73872(11) 0.46902(19) 1.06923(9)
C7 C 0.58484(14) 0.3318(2) 1.09539(11)
H3 H 0.5231 0.3717 1.1176
H4 H 0.6256 0.2799 1.1388
C8 C 0.56152(16) 0.2067(2) 1.03137(11)
H5 H 0.5235 0.2597 0.9876
H6 H 0.5229 0.1164 1.0530
H7 H 0.6230 0.1625 1.0118
C9 C 0.77484(10) 0.41978(16) 0.89851(8)
C10 C 0.79225(10) 0.24776(18) 0.89719(8)
H8 H 0.8479 0.2040 0.9262
C11 C 0.72844(10) 0.13904(17) 0.85356(8)
H9 H 0.7419 0.0239 0.8535
C12 C 0.64423(10) 0.20114(16) 0.80974(8)
C13 C 0.63014(10) 0.37648(17) 0.80716(8)
H10 H 0.5772 0.4215 0.7754
C14 C 0.69393(10) 0.48298(17) 0.85123(8)
H11 H 0.6827 0.5988 0.8493
C15 C 0.58978(11) -0.08702(17) 0.77979(8)
H12 H 0.6557 -0.1179 0.7640
H13 H 0.5403 -0.1483 0.7476
H14 H 0.5832 -0.1137 0.8359
C16 C 0.46919(10) 0.14840(19) 0.77106(9)
H15 H 0.4564 0.1830 0.8253
H16 H 0.4256 0.0561 0.7557
H17 H 0.4568 0.2412 0.7346
H18 H 0.9050(13) 0.5138(16) 1.1199(12)
H19 H 0.9442(11) 0.9186(15) 1.0458(9)
H20 H 0.8942(11) 0.6524(19) 0.8542(6)
loop_
_geom_bond_atom_site_label_1
_geom_bond_atom_site_label_2
_geom_bond_site_symmetry_1
_geom_bond_site_symmetry_2
F1 C1 1_555 1_555
F2 C1 1_555 1_555
F3 C1 1_555 1_555
O1 C2 1_555 1_555
O2 C5 1_555 1_555
O3 C6 1_555 1_555
O4 C6 1_555 1_555
N1 C2 1_555 1_555
N2 C4 1_555 1_555
N3 C12 1_555 1_555
C1 C2 1_555 1_555
C2 C3 1_555 1_555
C3 H1 1_555 1_555
C4 C3 1_555 1_555
H2 C4 1_555 1_555
C5 N1 1_555 1_555
C6 C3 1_555 1_555
C7 O4 1_555 1_555
H3 C7 1_555 1_555
H4 C7 1_555 1_555
C8 C7 1_555 1_555
H5 C8 1_555 1_555
H6 C8 1_555 1_555
H7 C8 1_555 1_555
C9 C4 1_555 1_555
C10 C9 1_555 1_555
H8 C10 1_555 1_555
C11 C10 1_555 1_555
H9 C11 1_555 1_555
C12 C11 1_555 1_555
C13 C12 1_555 1_555
H10 C13 1_555 1_555
C14 C9 1_555 1_555
H11 C14 1_555 1_555
C15 N3 1_555 1_555
H12 C15 1_555 1_555
H13 C15 1_555 1_555
H14 C15 1_555 1_555
C16 N3 1_555 1_555
H15 C16 1_555 1_555
H16 C16 1_555 1_555
H17 C16 1_555 1_555
H18 O1 1_555 1_555
H19 N1 1_555 1_555
H20 N2 1_555 1_555
N2 C5 1_555 1_555
C13 C14 1_555 1_555

#END
