
#######################################################################
#
#                 Cambridge Crystallographic Data Centre
#                                CCDC 
#
#######################################################################
#
# If this CIF has been generated from an entry in the Cambridge 
# Structural Database, then it will include bibliographic, chemical, 
# crystal, experimental, refinement or atomic coordinate data resulting 
# from the CCDC's data processing and validation procedures.
#
#######################################################################

data_NUPZOP
_chemical_formula_moiety         'C12 H20 Cl1 N1 O1'
_chemical_name_systematic        
2-chloro-N-(1,7,7-trimethylbicyclo[2.2.1]hept-2-yl)acetamide
_symmetry_cell_setting           orthorhombic
_symmetry_space_group_name_H-M   'P c a b'
_symmetry_Int_Tables_number      61
_space_group_name_Hall           '-P 2bc 2ac'
loop_
_symmetry_equiv_pos_site_id
_symmetry_equiv_pos_as_xyz
1 x,y,z
2 -x,1/2-y,1/2+z
3 1/2+x,-y,1/2-z
4 1/2-x,1/2+y,-z
5 -x,-y,-z
6 x,1/2+y,1/2-z
7 1/2-x,y,1/2+z
8 1/2+x,1/2-y,z
_cell_length_a                   9.6852(2)
_cell_length_b                   10.7589(3)
_cell_length_c                   23.7261(8)
_cell_angle_alpha                90
_cell_angle_beta                 90
_cell_angle_gamma                90
_cell_volume                     2472.31
_exptl_crystal_colour            colorless
_exptl_crystal_description       plate
_cell_formula_units_Z            8
loop_
_atom_site_label
_atom_site_type_symbol
_atom_site_fract_x
_atom_site_fract_y
_atom_site_fract_z
Cl1 Cl 0.83924(7) 1.01572(7) 0.43765(4)
O1 O 0.68852(15) 0.76668(17) 0.44335(8)
N1 N 0.8914(2) 0.6671(2) 0.42922(10)
H1 H 0.972(3) 0.673(2) 0.4329(11)
C1 C 0.7790(3) 0.3051(3) 0.36991(15)
H2 H 0.7757 0.2399 0.3417
H3 H 0.7467 0.2723 0.4056
C2 C 0.6933(3) 0.4183(3) 0.35161(14)
H4 H 0.6194 0.4345 0.3782
H5 H 0.6539 0.4055 0.3145
C3 C 0.7980(2) 0.5264(2) 0.35096(12)
C4 C 0.8313(2) 0.5475(2) 0.41407(11)
H6 H 0.7456 0.5373 0.4355
C5 C 0.9296(3) 0.4360(2) 0.42903(13)
H7 H 1.0224 0.4647 0.4373
H8 H 0.8950 0.3891 0.4609
C6 C 0.9261(3) 0.3591(3) 0.37543(15)
H9 H 0.9999 0.2970 0.3727
C7 C 0.9285(3) 0.4580(3) 0.32796(12)
C8 C 1.0598(3) 0.5389(3) 0.32675(14)
H10 H 1.1362 0.4900 0.3136
H11 H 1.0792 0.5688 0.3640
H12 H 1.0458 0.6082 0.3019
C9 C 0.9126(4) 0.4040(4) 0.26906(16)
H13 H 0.9126 0.4701 0.2419
H14 H 0.8271 0.3592 0.2667
H15 H 0.9880 0.3486 0.2614
C10 C 0.7496(3) 0.6398(3) 0.31989(14)
H16 H 0.7357 0.6197 0.2809
H17 H 0.8179 0.7042 0.3230
H18 H 0.6642 0.6682 0.3359
C11 C 0.8159(2) 0.7647(2) 0.44464(11)
C12 C 0.8982(2) 0.8735(2) 0.46654(14)
H19 H 0.9947 0.8620 0.4571
H20 H 0.8906 0.8767 0.5073
loop_
_geom_bond_atom_site_label_1
_geom_bond_atom_site_label_2
_geom_bond_site_symmetry_1
_geom_bond_site_symmetry_2
Cl1 C12 1_555 1_555
O1 C11 1_555 1_555
N1 H1 1_555 1_555
C1 H2 1_555 1_555
H3 C1 1_555 1_555
C2 C1 1_555 1_555
H4 C2 1_555 1_555
H5 C2 1_555 1_555
C3 C2 1_555 1_555
C4 N1 1_555 1_555
H6 C4 1_555 1_555
C5 C4 1_555 1_555
H7 C5 1_555 1_555
H8 C5 1_555 1_555
C6 C1 1_555 1_555
H9 C6 1_555 1_555
C7 C3 1_555 1_555
C8 C7 1_555 1_555
H10 C8 1_555 1_555
H11 C8 1_555 1_555
H12 C8 1_555 1_555
C9 C7 1_555 1_555
H13 C9 1_555 1_555
H14 C9 1_555 1_555
H15 C9 1_555 1_555
C10 C3 1_555 1_555
H16 C10 1_555 1_555
H17 C10 1_555 1_555
H18 C10 1_555 1_555
C11 N1 1_555 1_555
C12 C11 1_555 1_555
H19 C12 1_555 1_555
H20 C12 1_555 1_555
C3 C4 1_555 1_555
C5 C6 1_555 1_555
C6 C7 1_555 1_555

#END
