
#######################################################################
#
#                 Cambridge Crystallographic Data Centre
#                                CCDC 
#
#######################################################################
#
# If this CIF has been generated from an entry in the Cambridge 
# Structural Database, then it will include bibliographic, chemical, 
# crystal, experimental, refinement or atomic coordinate data resulting 
# from the CCDC's data processing and validation procedures.
#
#######################################################################

data_NUQDUA
_chemical_formula_moiety         'C14 H12 F2 N2 O2 S1'
_chemical_name_systematic        
(E)-N'-(3,4-difluorobenzylidene)-4-methylbenzenesulfonohydrazide
_symmetry_cell_setting           monoclinic
_symmetry_space_group_name_H-M   'P 21/c'
_symmetry_Int_Tables_number      14
_space_group_name_Hall           '-P 2ybc'
loop_
_symmetry_equiv_pos_site_id
_symmetry_equiv_pos_as_xyz
1 x,y,z
2 -x,1/2+y,1/2-z
3 -x,-y,-z
4 x,1/2-y,1/2+z
_cell_length_a                   5.3161(11)
_cell_length_b                   15.388(3)
_cell_length_c                   17.293(4)
_cell_angle_alpha                90
_cell_angle_beta                 97.44(3)
_cell_angle_gamma                90
_cell_volume                     1402.73
_exptl_crystal_colour            colorless
_exptl_crystal_description       prism
_chemical_melting_point          '426 K'
_cell_formula_units_Z            4
loop_
_atom_site_label
_atom_site_type_symbol
_atom_site_fract_x
_atom_site_fract_y
_atom_site_fract_z
S1 S 0.17639(7) 0.83591(2) 0.34262(2)
F1 F 0.15725(18) 0.45775(6) 0.58632(6)
F2 F 0.52921(19) 0.43477(7) 0.70237(6)
O1 O -0.0478(2) 0.83384(7) 0.38043(6)
O2 O 0.2561(2) 0.91533(7) 0.31005(6)
N1 N 0.3852(2) 0.73655(8) 0.45229(7)
N2 N 0.4159(2) 0.81054(9) 0.40836(7)
C1 C 0.3568(3) 0.58214(10) 0.54189(9)
H1 H 0.2203 0.5908 0.5014
C2 C 0.3516(3) 0.51491(10) 0.59364(9)
C3 C 0.5465(3) 0.50210(10) 0.65353(9)
C4 C 0.7535(3) 0.55625(10) 0.66269(9)
H2 H 0.8868 0.5476 0.7042
C5 C 0.7641(3) 0.62404(10) 0.60986(9)
H3 H 0.9075 0.6614 0.6148
C6 C 0.5666(3) 0.63768(9) 0.54969(8)
C7 C 0.5820(3) 0.71137(10) 0.49678(8)
H4 H 0.7391 0.7405 0.4956
C8 C 0.1461(3) 0.75599(9) 0.26968(8)
C9 C 0.3114(3) 0.75831(10) 0.21365(9)
H5 H 0.4410 0.8011 0.2162
C10 C 0.2849(3) 0.69783(11) 0.15446(9)
H6 H 0.3983 0.6992 0.1163
C11 C 0.0951(4) 0.63458(10) 0.14931(10)
C12 C -0.0658(3) 0.63306(11) 0.20640(10)
H7 H -0.1949 0.5901 0.2041
C13 C -0.0418(3) 0.69311(10) 0.26667(9)
H8 H -0.1528 0.6912 0.3055
C14 C 0.0698(5) 0.56939(13) 0.08375(12)
H9 H 0.1822 0.5199 0.0982
H10 H 0.1170 0.5968 0.0365
H11 H -0.1062 0.5491 0.0739
H12 H 0.573(2) 0.8215(12) 0.3993(12)
loop_
_geom_bond_atom_site_label_1
_geom_bond_atom_site_label_2
_geom_bond_site_symmetry_1
_geom_bond_site_symmetry_2
S1 O1 1_555 1_555
F1 C2 1_555 1_555
F2 C3 1_555 1_555
O2 S1 1_555 1_555
N1 N2 1_555 1_555
N2 S1 1_555 1_555
C1 H1 1_555 1_555
C2 C1 1_555 1_555
C3 C2 1_555 1_555
C4 C3 1_555 1_555
H2 C4 1_555 1_555
C5 C4 1_555 1_555
H3 C5 1_555 1_555
C6 C1 1_555 1_555
C7 N1 1_555 1_555
H4 C7 1_555 1_555
C8 S1 1_555 1_555
C9 C8 1_555 1_555
H5 C9 1_555 1_555
C10 C9 1_555 1_555
H6 C10 1_555 1_555
C11 C10 1_555 1_555
C12 C11 1_555 1_555
H7 C12 1_555 1_555
C13 C8 1_555 1_555
H8 C13 1_555 1_555
C14 C11 1_555 1_555
H9 C14 1_555 1_555
H10 C14 1_555 1_555
H11 C14 1_555 1_555
H12 N2 1_555 1_555
C5 C6 1_555 1_555
C6 C7 1_555 1_555
C12 C13 1_555 1_555

#END
