
#######################################################################
#
#                 Cambridge Crystallographic Data Centre
#                                CCDC 
#
#######################################################################
#
# If this CIF has been generated from an entry in the Cambridge 
# Structural Database, then it will include bibliographic, chemical, 
# crystal, experimental, refinement or atomic coordinate data resulting 
# from the CCDC's data processing and validation procedures.
#
#######################################################################

data_NUQHOX
_chemical_formula_moiety         'C9 H6 Cl1 N1 O3'
_chemical_name_systematic        
6-Chloro-8-methyl-4H-3,1-benzoxazine-2,4(1H)-dione
_symmetry_cell_setting           monoclinic
_symmetry_space_group_name_H-M   'P 21/n'
_symmetry_Int_Tables_number      14
_space_group_name_Hall           '-P 2yn'
loop_
_symmetry_equiv_pos_site_id
_symmetry_equiv_pos_as_xyz
1 x,y,z
2 1/2-x,1/2+y,1/2-z
3 -x,-y,-z
4 1/2+x,1/2-y,1/2+z
_cell_length_a                   8.3019(12)
_cell_length_b                   13.1322(18)
_cell_length_c                   15.742(2)
_cell_angle_alpha                90
_cell_angle_beta                 99.675(9)
_cell_angle_gamma                90
_cell_volume                     1691.82
_exptl_crystal_colour            colorless
_exptl_crystal_description       plate
_cell_formula_units_Z            8
loop_
_atom_site_label
_atom_site_type_symbol
_atom_site_fract_x
_atom_site_fract_y
_atom_site_fract_z
Cl1 Cl 0.74255(7) 0.37308(4) 0.31233(4)
O1 O 0.15834(17) 0.35341(10) 0.42141(10)
O2 O 0.21462(17) 0.36049(9) 0.56311(10)
O3 O 0.25940(17) 0.36009(10) 0.70532(10)
N1 N 0.4795(2) 0.37337(11) 0.63750(11)
H1 H 0.5472 0.3789 0.6867
C1 C 0.6645(3) 0.37491(14) 0.40801(14)
C2 C 0.4986(3) 0.36648(13) 0.40569(14)
H3 H 0.4261 0.3607 0.3524
C3 C 0.4396(3) 0.36668(13) 0.48353(14)
C4 C 0.5457(3) 0.37476(13) 0.56177(13)
C5 C 0.7156(3) 0.38488(13) 0.56459(14)
C6 C 0.7711(3) 0.38478(13) 0.48592(14)
H4 H 0.8849 0.3916 0.4854
C7 C 0.2637(3) 0.35950(14) 0.48294(14)
C8 C 0.3186(3) 0.36409(14) 0.64046(15)
C9 C 0.8305(2) 0.39789(15) 0.64787(13)
H5 H 0.9427 0.4032 0.6365
H6 H 0.8217 0.3390 0.6851
H7 H 0.8023 0.4600 0.6766
Cl2 Cl 0.15868(6) 0.36329(4) 0.20423(3)
O4 O 0.74385(17) 0.36875(10) 0.09544(10)
O5 O 0.68671(17) 0.37641(10) -0.04621(9)
O6 O 0.64195(17) 0.37865(10) -0.18829(10)
N2 N 0.4212(2) 0.38050(11) -0.12090(11)
H2 H 0.3531 0.3836 -0.1701
C10 C 0.2366(3) 0.37177(13) 0.10859(14)
C11 C 0.4028(2) 0.36882(13) 0.11139(14)
H8 H 0.4754 0.3641 0.1648
C12 C 0.4623(3) 0.37296(13) 0.03310(14)
C13 C 0.3552(3) 0.37864(12) -0.04491(13)
C14 C 0.1853(2) 0.38394(14) -0.04755(14)
C15 C 0.1296(3) 0.38043(12) 0.03084(14)
H9 H 0.0155 0.3841 0.0313
C16 C 0.6380(3) 0.37193(13) 0.03436(14)
C17 C 0.5828(3) 0.37785(14) -0.12356(15)
C18 C 0.0708(2) 0.39453(15) -0.13148(14)
H10 H -0.0421 0.3958 -0.1208
H11 H 0.0852 0.3367 -0.1688
H12 H 0.0944 0.4580 -0.1597
loop_
_geom_bond_atom_site_label_1
_geom_bond_atom_site_label_2
_geom_bond_site_symmetry_1
_geom_bond_site_symmetry_2
Cl1 C1 1_555 1_555
Cl2 C10 1_555 1_555
O1 C7 1_555 1_555
O2 C7 1_555 1_555
O3 C8 1_555 1_555
O4 C16 1_555 1_555
O5 C16 1_555 1_555
O6 C17 1_555 1_555
N1 H1 1_555 1_555
N2 H2 1_555 1_555
C1 C2 1_555 1_555
C2 H3 1_555 1_555
C3 C2 1_555 1_555
C4 N1 1_555 1_555
C5 C4 1_555 1_555
C6 C1 1_555 1_555
H4 C6 1_555 1_555
C7 C3 1_555 1_555
C8 O2 1_555 1_555
C9 C5 1_555 1_555
H5 C9 1_555 1_555
H6 C9 1_555 1_555
H7 C9 1_555 1_555
C10 C11 1_555 1_555
C11 H8 1_555 1_555
C12 C11 1_555 1_555
C13 N2 1_555 1_555
C14 C13 1_555 1_555
C15 C10 1_555 1_555
H9 C15 1_555 1_555
C16 C12 1_555 1_555
C17 O5 1_555 1_555
C18 C14 1_555 1_555
H10 C18 1_555 1_555
H11 C18 1_555 1_555
H12 C18 1_555 1_555
N1 C8 1_555 1_555
N2 C17 1_555 1_555
C3 C4 1_555 1_555
C5 C6 1_555 1_555
C12 C13 1_555 1_555
C14 C15 1_555 1_555

#END
