
#######################################################################
#
#                 Cambridge Crystallographic Data Centre
#                                CCDC 
#
#######################################################################
#
# If this CIF has been generated from an entry in the Cambridge 
# Structural Database, then it will include bibliographic, chemical, 
# crystal, experimental, refinement or atomic coordinate data resulting 
# from the CCDC's data processing and validation procedures.
#
#######################################################################

data_NUQJAL
_chemical_formula_moiety         'C10 H8 N2,C10 H10 O6,H2 O1'
_chemical_name_systematic        
"4,4'-Bipyridine 2,2'-(1,2-phenylenedioxy)diacetic acid monohydrate"
_symmetry_cell_setting           monoclinic
_symmetry_space_group_name_H-M   'P 21/c'
_symmetry_Int_Tables_number      14
_space_group_name_Hall           '-P 2ybc'
loop_
_symmetry_equiv_pos_site_id
_symmetry_equiv_pos_as_xyz
1 x,y,z
2 -x,1/2+y,1/2-z
3 -x,-y,-z
4 x,1/2-y,1/2+z
_cell_length_a                   11.566(5)
_cell_length_b                   9.712(5)
_cell_length_c                   16.810(7)
_cell_angle_alpha                90
_cell_angle_beta                 90.81(2)
_cell_angle_gamma                90
_cell_volume                     1888.06
_exptl_crystal_colour            colorless
_exptl_crystal_description       rod
_cell_formula_units_Z            4
loop_
_atom_site_label
_atom_site_type_symbol
_atom_site_fract_x
_atom_site_fract_y
_atom_site_fract_z
N1 N 0.60888(10) 0.06435(13) 0.44070(7)
C1 C 0.59235(13) -0.04189(17) 0.39244(9)
H1 H 0.5467 -0.0293 0.3470
C2 C 0.63933(12) -0.16976(16) 0.40627(8)
H2 H 0.6265 -0.2406 0.3700
C3 C 0.70588(11) -0.19349(14) 0.47429(8)
C4 C 0.72238(12) -0.08127(15) 0.52468(9)
H3 H 0.7662 -0.0910 0.5712
C5 C 0.67402(13) 0.04364(16) 0.50574(9)
H4 H 0.6873 0.1175 0.5399
C6 C 0.75714(11) -0.33068(14) 0.49263(8)
C7 C 0.72463(14) -0.44768(16) 0.45093(9)
H5 H 0.6697 -0.4416 0.4101
C8 C 0.77316(14) -0.57246(17) 0.46966(10)
H6 H 0.7498 -0.6493 0.4406
C9 C 0.88302(13) -0.47824(16) 0.56821(9)
H7 H 0.9375 -0.4879 0.6091
C10 C 0.83819(12) -0.34962(15) 0.55282(9)
H8 H 0.8626 -0.2748 0.5832
N2 N 0.85154(10) -0.58951(13) 0.52696(7)
C11 C 0.27722(11) 0.59624(14) 0.26783(7)
C12 C 0.32396(13) 0.71838(15) 0.29545(8)
H9 H 0.3895 0.7167 0.3282
C13 C 0.27396(13) 0.84376(16) 0.27477(9)
H10 H 0.3061 0.9256 0.2935
C14 C 0.17787(14) 0.84657(15) 0.22704(9)
H11 H 0.1442 0.9305 0.2135
C15 C 0.12991(12) 0.72505(14) 0.19859(9)
H12 H 0.0644 0.7282 0.1659
C16 C 0.17855(11) 0.59898(13) 0.21839(8)
C17 C 0.04541(11) 0.47710(14) 0.13642(8)
H13 H 0.0694 0.5276 0.0897
H14 H -0.0208 0.5239 0.1587
C18 C 0.01249(11) 0.33352(14) 0.11347(8)
C19 C 0.41863(12) 0.46231(15) 0.33609(8)
H15 H 0.4001 0.5044 0.3867
H16 H 0.4818 0.5135 0.3130
C20 C 0.45447(12) 0.31491(16) 0.34906(9)
O1 O 0.13736(8) 0.47386(9) 0.19334(6)
O2 O 0.05129(9) 0.23016(10) 0.14397(6)
O3 O -0.06491(9) 0.33379(10) 0.05595(6)
H17 H -0.0867 0.2512 0.0481
O4 O 0.32100(8) 0.46709(9) 0.28462(6)
O5 O 0.42135(9) 0.21927(11) 0.30849(7)
O6 O 0.52702(9) 0.30628(11) 0.40864(6)
H18 H 0.5506 0.2251 0.4185
O7 O 0.17765(9) 0.17334(11) 0.28219(6)
H19 H 0.2472 0.2012 0.2804
H20 H 0.1466 0.2093 0.2410
loop_
_geom_bond_atom_site_label_1
_geom_bond_atom_site_label_2
_geom_bond_site_symmetry_1
_geom_bond_site_symmetry_2
N1 C1 1_555 1_555
C1 H1 1_555 1_555
C2 C1 1_555 1_555
H2 C2 1_555 1_555
C3 C2 1_555 1_555
C4 C3 1_555 1_555
H3 C4 1_555 1_555
C5 N1 1_555 1_555
H4 C5 1_555 1_555
C6 C3 1_555 1_555
C7 C6 1_555 1_555
H5 C7 1_555 1_555
C8 C7 1_555 1_555
H6 C8 1_555 1_555
C9 H7 1_555 1_555
C10 C6 1_555 1_555
H8 C10 1_555 1_555
C11 C12 1_555 1_555
C12 H9 1_555 1_555
C13 C12 1_555 1_555
H10 C13 1_555 1_555
C14 C13 1_555 1_555
H11 C14 1_555 1_555
C15 C14 1_555 1_555
H12 C15 1_555 1_555
C16 C11 1_555 1_555
C17 H13 1_555 1_555
H14 C17 1_555 1_555
C18 C17 1_555 1_555
C19 H15 1_555 1_555
H16 C19 1_555 1_555
C20 C19 1_555 1_555
N2 C8 1_555 1_555
O1 C16 1_555 1_555
O2 C18 1_555 1_555
O3 C18 1_555 1_555
H17 O3 1_555 1_555
O4 C11 1_555 1_555
O5 C20 1_555 1_555
O6 C20 1_555 1_555
H18 O6 1_555 1_555
O7 H19 1_555 1_555
H20 O7 1_555 1_555
C4 C5 1_555 1_555
C9 C10 1_555 1_555
C9 N2 1_555 1_555
C15 C16 1_555 1_555
C17 O1 1_555 1_555
C19 O4 1_555 1_555

#END
