
#######################################################################
#
#                 Cambridge Crystallographic Data Centre
#                                CCDC 
#
#######################################################################
#
# If this CIF has been generated from an entry in the Cambridge 
# Structural Database, then it will include bibliographic, chemical, 
# crystal, experimental, refinement or atomic coordinate data resulting 
# from the CCDC's data processing and validation procedures.
#
#######################################################################

data_NUQKIU
_chemical_formula_moiety         'C11 H8 F4 O3'
_chemical_name_systematic        
3,3,4,4-Tetrafluoro-2,3,4,5-tetrahydro-1,6-benzodioxocine-8-carbaldehyde
_symmetry_cell_setting           monoclinic
_symmetry_space_group_name_H-M   'P 21/n'
_symmetry_Int_Tables_number      14
_space_group_name_Hall           '-P 2yn'
loop_
_symmetry_equiv_pos_site_id
_symmetry_equiv_pos_as_xyz
1 x,y,z
2 1/2-x,1/2+y,1/2-z
3 -x,-y,-z
4 1/2+x,1/2-y,1/2+z
_cell_length_a                   9.142(5)
_cell_length_b                   11.4935(14)
_cell_length_c                   10.928(10)
_cell_angle_alpha                90
_cell_angle_beta                 104.109(15)
_cell_angle_gamma                90
_cell_volume                     1113.61
_exptl_crystal_colour            colorless
_exptl_crystal_description       block
_cell_formula_units_Z            4
_exptl_crystal_recrystallization_method dichloromethane
loop_
_atom_site_label
_atom_site_type_symbol
_atom_site_fract_x
_atom_site_fract_y
_atom_site_fract_z
F1 F 0.5814(2) 0.90137(19) 0.9443(2)
F2 F 0.9709(3) 0.8853(2) 1.0613(2)
F3 F 0.7668(3) 0.9585(2) 0.8674(2)
F4 F 0.7960(3) 0.9756(2) 1.1293(3)
C1 C 0.8950(4) 0.4731(3) 1.1272(3)
H1 H 0.9789 0.4745 1.1953
C2 C 0.6454(3) 0.4699(3) 0.9227(3)
H2 H 0.5614 0.4689 0.8547
C3 C 0.7048(3) 0.5746(3) 0.9715(3)
C4 C 0.8301(3) 0.5770(3) 1.0754(3)
C5 C 0.7096(3) 0.3650(3) 0.9738(3)
C6 C 0.8354(3) 0.3678(3) 1.0779(3)
H3 H 0.8785 0.2986 1.1136
C7 C 0.7221(4) 0.8729(4) 0.9373(4)
C8 C 0.8155(4) 0.7738(3) 1.1564(3)
H4 H 0.8542 0.7957 1.2441
H5 H 0.7108 0.7509 1.1445
C9 C 0.6488(4) 0.2520(4) 0.9223(4)
H6 H 0.6927 0.1853 0.9636
C10 C 0.8265(4) 0.8762(4) 1.0718(4)
C11 C 0.7179(4) 0.7596(3) 0.8678(3)
H7 H 0.6716 0.7710 0.7788
H8 H 0.8197 0.7310 0.8761
O1 O 0.9011(2) 0.6785(2) 1.1261(2)
O2 O 0.6327(2) 0.6767(2) 0.9195(2)
O3 O 0.5453(3) 0.2397(2) 0.8295(3)
loop_
_geom_bond_atom_site_label_1
_geom_bond_atom_site_label_2
_geom_bond_site_symmetry_1
_geom_bond_site_symmetry_2
F1 C7 1_555 1_555
F2 C10 1_555 1_555
F3 C7 1_555 1_555
F4 C10 1_555 1_555
C1 H1 1_555 1_555
C2 H2 1_555 1_555
C3 C2 1_555 1_555
C4 C1 1_555 1_555
C5 C2 1_555 1_555
C6 C1 1_555 1_555
H3 C6 1_555 1_555
C7 C10 1_555 1_555
C8 H4 1_555 1_555
H5 C8 1_555 1_555
C9 C5 1_555 1_555
H6 C9 1_555 1_555
C10 C8 1_555 1_555
C11 C7 1_555 1_555
H7 C11 1_555 1_555
H8 C11 1_555 1_555
O1 C4 1_555 1_555
O2 C3 1_555 1_555
O3 C9 1_555 1_555
C3 C4 1_555 1_555
C5 C6 1_555 1_555
C8 O1 1_555 1_555
C11 O2 1_555 1_555

#END
