
#######################################################################
#
#                 Cambridge Crystallographic Data Centre
#                                CCDC 
#
#######################################################################
#
# If this CIF has been generated from an entry in the Cambridge 
# Structural Database, then it will include bibliographic, chemical, 
# crystal, experimental, refinement or atomic coordinate data resulting 
# from the CCDC's data processing and validation procedures.
#
#######################################################################

data_NUQLOB
_chemical_name_common            '1,2-Diphenylvinyl methanesulfonate'
_chemical_formula_moiety         'C15 H14 O3 S1'
_chemical_name_systematic        '(E)-1,2-Diphenylethenyl methanesulfonate'
_symmetry_cell_setting           orthorhombic
_symmetry_space_group_name_H-M   'P 21 21 21'
_symmetry_Int_Tables_number      19
_space_group_name_Hall           'P 2ac 2ab'
loop_
_symmetry_equiv_pos_site_id
_symmetry_equiv_pos_as_xyz
1 x,y,z
2 1/2+x,1/2-y,-z
3 -x,1/2+y,1/2-z
4 1/2-x,-y,1/2+z
_cell_length_a                   8.3789(3)
_cell_length_b                   11.1397(4)
_cell_length_c                   14.8365(5)
_cell_angle_alpha                90
_cell_angle_beta                 90
_cell_angle_gamma                90
_cell_volume                     1384.82
_exptl_crystal_colour            colorless
_exptl_crystal_description       chunk
_cell_formula_units_Z            4
loop_
_atom_site_label
_atom_site_type_symbol
_atom_site_fract_x
_atom_site_fract_y
_atom_site_fract_z
S1 S 0.61979(6) 0.70614(5) 0.09128(3)
O1 O 0.47962(16) 0.75814(11) 0.15261(8)
O2 O 0.6188(2) 0.78154(19) 0.01488(11)
O3 O 0.6001(2) 0.58046(14) 0.08152(12)
C1 C 0.3992(2) 0.68265(13) 0.21579(10)
C2 C 0.4741(2) 0.68403(14) 0.30602(11)
C3 C 0.4984(2) 0.57768(18) 0.35269(12)
C4 C 0.5742(2) 0.5788(2) 0.43570(13)
C5 C 0.6285(3) 0.6847(2) 0.47133(13)
C6 C 0.6049(3) 0.7911(2) 0.42591(13)
C7 C 0.5272(2) 0.7914(2) 0.34348(12)
C8 C 0.2696(2) 0.62793(16) 0.18488(12)
C9 C 0.1462(2) 0.56029(14) 0.23397(11)
C10 C 0.0528(2) 0.47874(19) 0.18648(13)
C11 C -0.0714(2) 0.4185(2) 0.22810(16)
C12 C -0.1058(2) 0.43858(18) 0.31661(16)
C13 C -0.0169(2) 0.51958(19) 0.36462(14)
C14 C 0.1080(2) 0.57984(17) 0.32428(12)
C15 C 0.7899(2) 0.7341(2) 0.15510(18)
H1 H 0.4637 0.5054 0.3282
H2 H 0.5884 0.5075 0.4673
H3 H 0.6815 0.6847 0.5264
H4 H 0.6411 0.8628 0.4506
H5 H 0.5106 0.8634 0.3132
H6 H 0.2544 0.6331 0.1229
H7 H 0.0741 0.4645 0.1259
H8 H -0.1320 0.3637 0.1954
H9 H -0.1891 0.3975 0.3443
H10 H -0.0409 0.5341 0.4248
H11 H 0.1677 0.6343 0.3578
H12 H 0.8829 0.7131 0.1208
H13 H 0.7940 0.8178 0.1705
H14 H 0.7865 0.6870 0.2092
loop_
_geom_bond_atom_site_label_1
_geom_bond_atom_site_label_2
_geom_bond_site_symmetry_1
_geom_bond_site_symmetry_2
S1 O1 1_555 1_555
O1 C1 1_555 1_555
O2 S1 1_555 1_555
O3 S1 1_555 1_555
C1 C2 1_555 1_555
C2 C3 1_555 1_555
C3 C4 1_555 1_555
C4 C5 1_555 1_555
C5 C6 1_555 1_555
C6 C7 1_555 1_555
C7 C2 1_555 1_555
C8 C1 1_555 1_555
C9 C8 1_555 1_555
C10 C9 1_555 1_555
C11 C10 1_555 1_555
C12 C11 1_555 1_555
C13 C12 1_555 1_555
C14 C9 1_555 1_555
C15 S1 1_555 1_555
H1 C3 1_555 1_555
H2 C4 1_555 1_555
H3 C5 1_555 1_555
H4 C6 1_555 1_555
H5 C7 1_555 1_555
H6 C8 1_555 1_555
H7 C10 1_555 1_555
H8 C11 1_555 1_555
H9 C12 1_555 1_555
H10 C13 1_555 1_555
H11 C14 1_555 1_555
H12 C15 1_555 1_555
H13 C15 1_555 1_555
H14 C15 1_555 1_555
C13 C14 1_555 1_555

#END
