
#######################################################################
#
#                 Cambridge Crystallographic Data Centre
#                                CCDC 
#
#######################################################################
#
# If this CIF has been generated from an entry in the Cambridge 
# Structural Database, then it will include bibliographic, chemical, 
# crystal, experimental, refinement or atomic coordinate data resulting 
# from the CCDC's data processing and validation procedures.
#
#######################################################################

data_NUQLUH
_chemical_formula_moiety         'C16 H12 Br2 O6,C2 H6 O1'
_chemical_name_systematic        
"3,3'-Dibromo-6,6'-dimethoxybiphenyl-2,2'-dicarboxylic acid ethanol solvate"
_symmetry_cell_setting           monoclinic
_symmetry_space_group_name_H-M   'P 21/c'
_symmetry_Int_Tables_number      14
_space_group_name_Hall           '-P 2ybc'
loop_
_symmetry_equiv_pos_site_id
_symmetry_equiv_pos_as_xyz
1 x,y,z
2 -x,1/2+y,1/2-z
3 -x,-y,-z
4 x,1/2-y,1/2+z
_cell_length_a                   9.9872(9)
_cell_length_b                   23.230(2)
_cell_length_c                   8.3967(7)
_cell_angle_alpha                90
_cell_angle_beta                 90.1430(10)
_cell_angle_gamma                90
_cell_volume                     1948.05
_exptl_crystal_colour            colorless
_exptl_crystal_description       block
_cell_formula_units_Z            4
loop_
_atom_site_label
_atom_site_type_symbol
_atom_site_fract_x
_atom_site_fract_y
_atom_site_fract_z
Br1 Br 1.29076(3) 0.321685(15) 0.54701(4)
Br2 Br 0.56847(4) 0.521511(14) 0.30185(4)
C1 C 0.7693(3) 0.43425(10) 0.2858(3)
C2 C 0.8694(3) 0.40203(10) 0.2113(3)
C3 C 0.9035(3) 0.41516(11) 0.0534(3)
C4 C 0.8397(3) 0.45929(12) -0.0261(3)
H1 H 0.8629 0.4676 -0.1307
C5 C 0.7418(3) 0.49106(12) 0.0482(3)
H2 H 0.6992 0.5208 -0.0061
C6 C 0.7069(3) 0.47879(11) 0.2029(3)
C7 C 1.0635(3) 0.35965(11) 0.3670(3)
C8 C 0.9375(3) 0.35320(11) 0.2973(3)
C9 C 0.8739(3) 0.29955(11) 0.3056(3)
C10 C 0.9326(3) 0.25405(12) 0.3876(4)
H3 H 0.8887 0.2189 0.3952
C11 C 1.0562(3) 0.26145(12) 0.4574(4)
H4 H 1.0956 0.2312 0.5128
C12 C 1.1220(3) 0.31319(12) 0.4460(3)
C13 C 0.7292(3) 0.42070(11) 0.4544(3)
C14 C 1.1369(3) 0.41600(11) 0.3540(3)
C15 C 1.0350(3) 0.39177(14) -0.1754(3)
H5 H 0.9570 0.3871 -0.2412
H6 H 1.1028 0.3650 -0.2082
H7 H 1.0682 0.4304 -0.1859
C16 C 0.6822(4) 0.24274(15) 0.2386(5)
H8 H 0.7326 0.2127 0.1882
H9 H 0.5972 0.2468 0.1862
H10 H 0.6682 0.2331 0.3485
O1 O 1.0004(2) 0.38108(8) -0.0119(2)
O2 O 0.7542(2) 0.29550(8) 0.2283(2)
O3 O 0.7835(2) 0.44226(8) 0.5689(2)
O4 O 0.6324(2) 0.38329(9) 0.4742(2)
H16 H 0.5983 0.3758 0.3877
O5 O 1.2337(2) 0.42307(9) 0.2715(3)
O6 O 1.0841(2) 0.45596(8) 0.4443(3)
H17 H 1.1260 0.4860 0.4336
C17 C 0.5058(3) 0.37183(15) 0.0619(4)
H11 H 0.5957 0.3592 0.0357
H12 H 0.4998 0.4126 0.0382
C18 C 0.4087(4) 0.34029(17) -0.0378(5)
H13 H 0.4097 0.3003 -0.0093
H14 H 0.4325 0.3444 -0.1479
H15 H 0.3206 0.3557 -0.0211
O7 O 0.4832(2) 0.36322(12) 0.2271(3)
H18 H 0.4102 0.3767 0.2514
loop_
_geom_bond_atom_site_label_1
_geom_bond_atom_site_label_2
_geom_bond_site_symmetry_1
_geom_bond_site_symmetry_2
Br1 C12 1_555 1_555
Br2 C6 1_555 1_555
C1 C2 1_555 1_555
C2 C3 1_555 1_555
C3 C4 1_555 1_555
C4 H1 1_555 1_555
C5 C4 1_555 1_555
H2 C5 1_555 1_555
C6 C1 1_555 1_555
C7 C8 1_555 1_555
C8 C2 1_555 1_555
C9 C8 1_555 1_555
C10 C9 1_555 1_555
H3 C10 1_555 1_555
C11 C10 1_555 1_555
H4 C11 1_555 1_555
C12 C7 1_555 1_555
C13 C1 1_555 1_555
C14 C7 1_555 1_555
C15 H5 1_555 1_555
H6 C15 1_555 1_555
H7 C15 1_555 1_555
C16 H8 1_555 1_555
H9 C16 1_555 1_555
H10 C16 1_555 1_555
C17 H11 1_555 1_555
H12 C17 1_555 1_555
C18 C17 1_555 1_555
H13 C18 1_555 1_555
H14 C18 1_555 1_555
H15 C18 1_555 1_555
O1 C3 1_555 1_555
O2 C9 1_555 1_555
O3 C13 1_555 1_555
O4 C13 1_555 1_555
H16 O4 1_555 1_555
O5 C14 1_555 1_555
O6 C14 1_555 1_555
H17 O6 1_555 1_555
O7 C17 1_555 1_555
H18 O7 1_555 1_555
C5 C6 1_555 1_555
C11 C12 1_555 1_555
C15 O1 1_555 1_555
C16 O2 1_555 1_555

#END
