
#######################################################################
#
#                 Cambridge Crystallographic Data Centre
#                                CCDC 
#
#######################################################################
#
# If this CIF has been generated from an entry in the Cambridge 
# Structural Database, then it will include bibliographic, chemical, 
# crystal, experimental, refinement or atomic coordinate data resulting 
# from the CCDC's data processing and validation procedures.
#
#######################################################################

data_NUQVOL
_chemical_formula_moiety         'C23 H26 N2 O6'
_chemical_name_systematic        
'2-(t-Butoxycarbonylamino)-6-(1,3-dioxo-1H-2,3-dihydrobenzo[de]isoquinolin-2-yl)hexanoic acid'
_symmetry_cell_setting           monoclinic
_symmetry_space_group_name_H-M   'P 21'
_symmetry_Int_Tables_number      4
_space_group_name_Hall           'P 2yb'
loop_
_symmetry_equiv_pos_site_id
_symmetry_equiv_pos_as_xyz
1 x,y,z
2 -x,1/2+y,-z
_cell_length_a                   5.1681(13)
_cell_length_b                   15.427(4)
_cell_length_c                   13.426(3)
_cell_angle_alpha                90
_cell_angle_beta                 91.491(5)
_cell_angle_gamma                90
_cell_volume                     1070.07
_exptl_crystal_colour            colorless
_exptl_crystal_description       block
_cell_formula_units_Z            2
_exptl_crystal_recrystallization_method 'methanol/diethyl ether'
loop_
_atom_site_label
_atom_site_type_symbol
_atom_site_fract_x
_atom_site_fract_y
_atom_site_fract_z
O1 O 0.5844(3) 0.09878(10) 0.34654(12)
O2 O 0.2687(3) 0.19431(9) 0.29685(12)
O3 O 0.4054(3) 0.22297(10) 0.73839(12)
O4 O 0.1240(3) -0.03594(11) 0.85133(11)
O5 O 0.2044(3) -0.08287(11) 0.24623(12)
O6 O 0.4014(3) -0.14959(11) 0.37506(12)
N1 N 0.2618(3) 0.09498(12) 0.79736(13)
N2 N 0.1589(3) 0.06803(11) 0.36137(13)
C1 C 0.4270(4) 0.16611(13) 0.80155(16)
C2 C 0.6260(4) 0.16820(14) 0.88308(16)
C3 C 0.7899(4) 0.23814(14) 0.89240(16)
H1 H 0.7728 0.2848 0.8488
C4 C 0.9847(4) 0.23901(15) 0.96853(17)
H2 H 1.0956 0.2863 0.9748
C5 C 1.0105(4) 0.17055(15) 1.03290(17)
H3 H 1.1410 0.1716 1.0819
C6 C 0.8428(4) 0.09837(14) 1.02641(15)
C7 C 0.8582(4) 0.02823(15) 1.09386(17)
H4 H 0.9857 0.0281 1.1440
C8 C 0.6875(4) -0.03981(16) 1.08636(17)
H5 H 0.6989 -0.0853 1.1317
C9 C 0.4951(4) -0.04085(15) 1.01006(17)
H6 H 0.3801 -0.0871 1.0051
C10 C 0.4767(4) 0.02633(14) 0.94287(15)
C11 C 0.2741(4) 0.02366(13) 0.86285(16)
C12 C 0.6468(4) 0.09776(14) 0.95005(15)
C13 C 0.0601(4) 0.09147(14) 0.71759(15)
H7 H 0.0173 0.1500 0.6966
H8 H -0.0949 0.0654 0.7436
C14 C 0.1460(4) 0.03956(14) 0.62756(16)
H9 H 0.2178 -0.0154 0.6498
H10 H 0.2805 0.0711 0.5940
C15 C -0.0811(4) 0.02293(14) 0.55430(15)
H11 H -0.2266 0.0013 0.5911
H12 H -0.1330 0.0776 0.5241
C16 C -0.0208(4) -0.04160(14) 0.47149(15)
H13 H -0.1728 -0.0478 0.4282
H14 H 0.0158 -0.0977 0.5012
C17 C 0.2092(4) -0.01458(13) 0.40848(15)
H15 H 0.3611 -0.0081 0.4531
C18 C 0.3572(4) 0.11921(13) 0.33550(15)
C19 C 0.4489(4) 0.26771(13) 0.28446(17)
C20 C 0.2696(4) 0.34116(15) 0.25217(18)
H16 H 0.1394 0.3491 0.3011
H17 H 0.1883 0.3271 0.1891
H18 H 0.3678 0.3936 0.2460
C21 C 0.5825(5) 0.28823(16) 0.38377(18)
H19 H 0.7006 0.2423 0.4013
H20 H 0.4552 0.2936 0.4342
H21 H 0.6761 0.3417 0.3785
C22 C 0.6367(4) 0.24803(15) 0.20234(17)
H22 H 0.7565 0.2042 0.2247
H23 H 0.7299 0.2997 0.1861
H24 H 0.5424 0.2278 0.1444
C23 C 0.2680(4) -0.08485(14) 0.33260(15)
H25 H 0.002(6) 0.0845(19) 0.351(2)
H26 H 0.451(6) -0.186(2) 0.330(2)
loop_
_geom_bond_atom_site_label_1
_geom_bond_atom_site_label_2
_geom_bond_site_symmetry_1
_geom_bond_site_symmetry_2
O1 C18 1_555 1_555
O2 C18 1_555 1_555
O3 C1 1_555 1_555
O4 C11 1_555 1_555
O5 C23 1_555 1_555
O6 C23 1_555 1_555
N1 C1 1_555 1_555
N2 C17 1_555 1_555
C1 C2 1_555 1_555
C2 C3 1_555 1_555
C3 H1 1_555 1_555
C4 C3 1_555 1_555
H2 C4 1_555 1_555
C5 C4 1_555 1_555
H3 C5 1_555 1_555
C6 C5 1_555 1_555
C7 C6 1_555 1_555
H4 C7 1_555 1_555
C8 C7 1_555 1_555
H5 C8 1_555 1_555
C9 C8 1_555 1_555
H6 C9 1_555 1_555
C10 C9 1_555 1_555
C11 N1 1_555 1_555
C12 C2 1_555 1_555
C13 N1 1_555 1_555
H7 C13 1_555 1_555
H8 C13 1_555 1_555
C14 C13 1_555 1_555
H9 C14 1_555 1_555
H10 C14 1_555 1_555
C15 C14 1_555 1_555
H11 C15 1_555 1_555
H12 C15 1_555 1_555
C16 C15 1_555 1_555
H13 C16 1_555 1_555
H14 C16 1_555 1_555
C17 C16 1_555 1_555
H15 C17 1_555 1_555
C18 N2 1_555 1_555
C19 O2 1_555 1_555
C20 C19 1_555 1_555
H16 C20 1_555 1_555
H17 C20 1_555 1_555
H18 C20 1_555 1_555
C21 C19 1_555 1_555
H19 C21 1_555 1_555
H20 C21 1_555 1_555
H21 C21 1_555 1_555
C22 C19 1_555 1_555
H22 C22 1_555 1_555
H23 C22 1_555 1_555
H24 C22 1_555 1_555
C23 C17 1_555 1_555
H25 N2 1_555 1_555
H26 O6 1_555 1_555
C6 C12 1_555 1_555
C10 C11 1_555 1_555
C10 C12 1_555 1_555

#END
