
#######################################################################
#
#                 Cambridge Crystallographic Data Centre
#                                CCDC 
#
#######################################################################
#
# If this CIF has been generated from an entry in the Cambridge 
# Structural Database, then it will include bibliographic, chemical, 
# crystal, experimental, refinement or atomic coordinate data resulting 
# from the CCDC's data processing and validation procedures.
#
#######################################################################

data_NUQWIG
_chemical_name_common            
4-(6,8-Dibromo-2-(2-chloro-5-nitrophenyl)-1,4-dihydroquinazolin-3(2H)-yl)cyclohexanol
_chemical_formula_moiety         'C20 H20 Br2 Cl1 N3 O3'
_chemical_name_systematic        
4-[6,8-Dibromo-2-(2-chloro-5-nitrophenyl)-1,2,3,4-tetrahydroquinazolin-3-yl]cyclohexanol
_symmetry_cell_setting           triclinic
_symmetry_space_group_name_H-M   'P -1'
_symmetry_Int_Tables_number      2
_space_group_name_Hall           '-P 1'
loop_
_symmetry_equiv_pos_site_id
_symmetry_equiv_pos_as_xyz
1 x,y,z
2 -x,-y,-z
_cell_length_a                   10.2614(13)
_cell_length_b                   13.1418(17)
_cell_length_c                   16.931(2)
_cell_angle_alpha                83.764(2)
_cell_angle_beta                 73.309(2)
_cell_angle_gamma                84.750(2)
_cell_volume                     2169.7
_exptl_crystal_colour            colorless
_exptl_crystal_description       block
_cell_formula_units_Z            4
loop_
_atom_site_label
_atom_site_type_symbol
_atom_site_fract_x
_atom_site_fract_y
_atom_site_fract_z
Br1 Br 0.39058(9) -0.05133(6) 0.42693(4)
Br2 Br -0.06018(7) 0.08773(7) 0.30819(7)
Cl1 Cl 0.87128(15) -0.09542(13) 0.01005(10)
O1 O 0.4691(6) -0.4725(4) 0.1616(4)
O2 O 0.3509(5) -0.3554(4) 0.2309(4)
O3 O 0.8184(5) 0.4244(3) 0.0419(3)
H1 H 0.8561 0.4573 -0.0030
N1 N 0.4516(6) -0.3856(4) 0.1802(4)
N2 N 0.5854(4) 0.0384(3) 0.0978(3)
N3 N 0.5434(4) -0.0321(3) 0.2395(2)
H2 H 0.5793 -0.0464 0.2797
C1 C 0.3494(5) 0.0295(4) 0.1906(3)
C2 C 0.4071(6) -0.0031(4) 0.2565(3)
C3 C 0.3189(7) -0.0040(4) 0.3370(3)
C4 C 0.1815(7) 0.0235(4) 0.3527(4)
H4 H 0.1251 0.0217 0.4067
C5 C 0.1303(6) 0.0533(5) 0.2873(5)
C6 C 0.2116(6) 0.0578(4) 0.2078(4)
H5 H 0.1740 0.0801 0.1646
C7 C 0.4418(5) 0.0291(4) 0.1042(3)
H6 H 0.4333 -0.0342 0.0819
H7 H 0.4119 0.0854 0.0702
C8 C 0.6281(5) -0.0394(4) 0.1557(3)
H8 H 0.7206 -0.0254 0.1549
C9 C 0.6166(6) 0.1452(4) 0.1032(4)
H9 H 0.5423 0.1758 0.1462
C10 C 0.6231(9) 0.2061(5) 0.0216(5)
H10 H 0.5357 0.2064 0.0102
H11 H 0.6912 0.1731 -0.0221
C11 C 0.6590(10) 0.3179(6) 0.0215(6)
H12 H 0.6649 0.3539 -0.0324
H13 H 0.5873 0.3528 0.0622
C12 C 0.7856(8) 0.3205(5) 0.0402(4)
H14 H 0.8577 0.2879 -0.0027
C13 C 0.7829(8) 0.2642(5) 0.1224(5)
H15 H 0.7152 0.2978 0.1659
H16 H 0.8711 0.2656 0.1325
C14 C 0.7484(7) 0.1518(5) 0.1241(4)
H17 H 0.8216 0.1165 0.0847
H18 H 0.7417 0.1176 0.1787
C15 C 0.6360(5) -0.1458(4) 0.1260(3)
C16 C 0.5412(5) -0.2159(4) 0.1637(3)
H19 H 0.4664 -0.1973 0.2069
C17 C 0.5551(6) -0.3135(4) 0.1386(3)
C18 C 0.6655(6) -0.3457(5) 0.0763(4)
H20 H 0.6752 -0.4123 0.0607
C19 C 0.7607(6) -0.2758(5) 0.0380(4)
H21 H 0.8361 -0.2950 -0.0045
C20 C 0.7458(5) -0.1784(4) 0.0618(3)
Br3 Br 0.65212(7) 0.61194(6) 0.35191(6)
Br4 Br 0.59092(6) 0.18627(5) 0.36046(5)
Cl2 Cl -0.17164(14) 0.27481(12) 0.47738(9)
O4 O 0.2375(7) 0.1609(5) 0.7120(4)
O5 O 0.0491(7) 0.1570(6) 0.8042(4)
N4 N 0.1168(8) 0.1719(5) 0.7331(4)
N5 N 0.1019(4) 0.3814(3) 0.4122(2)
N6 N 0.2870(4) 0.2572(3) 0.4237(3)
H3 H 0.3209 0.1949 0.4251
C21 C 0.3193(5) 0.4363(4) 0.4205(3)
C22 C 0.3731(5) 0.3365(4) 0.4085(3)
C23 C 0.5137(5) 0.3210(4) 0.3792(3)
C24 C 0.5984(6) 0.4014(5) 0.3633(3)
H22 H 0.6925 0.3895 0.3440
C25 C 0.5415(6) 0.4989(5) 0.3765(4)
C26 C 0.4024(6) 0.5159(4) 0.4057(3)
H23 H 0.3647 0.5820 0.4155
C27 C 0.1651(5) 0.4519(4) 0.4489(3)
H24 H 0.1338 0.4407 0.5087
H25 H 0.1378 0.5220 0.4331
C28 C 0.1395(5) 0.2766(4) 0.4373(3)
H26 H 0.1110 0.2319 0.4034
O6 O 0.0198(12) 0.4810(10) 0.0975(6)
H27 H -0.0436 0.4642 0.0802
C29 C 0.1191(7) 0.4085(5) 0.3235(3)
H28 H 0.2138 0.4277 0.3026
C30 C 0.0385(12) 0.5058(7) 0.3093(5)
H29 H 0.0738 0.5610 0.3292
H30 H -0.0552 0.4992 0.3425
C31 C 0.0389(12) 0.5356(7) 0.2214(5)
H31 H -0.0314 0.5897 0.2198
H32 H 0.1262 0.5619 0.1908
C32 C 0.0143(13) 0.4461(8) 0.1814(6)
H33 H -0.0764 0.4224 0.2101
C33 C 0.1193(15) 0.3608(7) 0.1855(5)
H34 H 0.2091 0.3839 0.1565
H35 H 0.1037 0.3037 0.1583
C34 C 0.1142(13) 0.3259(6) 0.2735(5)
H36 H 0.0309 0.2912 0.2989
H37 H 0.1902 0.2764 0.2739
C35 C 0.0602(5) 0.2507(4) 0.5269(3)
C36 C 0.1226(6) 0.2241(4) 0.5892(4)
H38 H 0.2172 0.2205 0.5769
C37 C 0.0451(7) 0.2028(4) 0.6695(4)
C38 C -0.0942(7) 0.2086(4) 0.6919(4)
H39 H -0.1444 0.1964 0.7469
C39 C -0.1569(6) 0.2328(4) 0.6310(3)
H40 H -0.2515 0.2360 0.6442
C40 C -0.0820(5) 0.2523(4) 0.5505(3)
C41? C 0.1191(7) 0.4085(5) 0.3235(3)
C42? C 0.0096(19) 0.4808(16) 0.3083(8)
C43? C -0.0137(17) 0.4906(19) 0.2262(8)
C44? C 0.1012(18) 0.4595(13) 0.1567(7)
C45? C 0.1854(18) 0.3684(13) 0.1758(7)
C46? C 0.2156(15) 0.3599(13) 0.2562(6)
H41? H 0.1792 0.4634 0.3210
H42? H 0.0273 0.5481 0.3197
H43? H -0.0748 0.4616 0.3485
H44? H -0.0412 0.5617 0.2137
H45? H -0.0896 0.4502 0.2290
H46? H 0.1618 0.5162 0.1437
H47? H 0.1398 0.3080 0.1731
H48? H 0.2713 0.3671 0.1327
H49? H 0.2257 0.2876 0.2737
H50? H 0.3032 0.3881 0.2476
H51? H -0.0051 0.4425 0.0696
O7? O 0.0678(19) 0.4493(13) 0.0811(8)
loop_
_geom_bond_atom_site_label_1
_geom_bond_atom_site_label_2
_geom_bond_site_symmetry_1
_geom_bond_site_symmetry_2
Br1 C3 1_555 1_555
Br2 C5 1_555 1_555
Br3 C25 1_555 1_555
Br4 C23 1_555 1_555
Cl1 C20 1_555 1_555
Cl2 C40 1_555 1_555
O1 N1 1_555 1_555
O2 N1 1_555 1_555
O3 H1 1_555 1_555
O4 N4 1_555 1_555
O5 N4 1_555 1_555
N1 C17 1_555 1_555
N2 C7 1_555 1_555
N3 H2 1_555 1_555
N4 C37 1_555 1_555
N5 C27 1_555 1_555
N6 H3 1_555 1_555
C1 C2 1_555 1_555
C2 N3 1_555 1_555
C3 C2 1_555 1_555
C4 C3 1_555 1_555
H4 C4 1_555 1_555
C5 C4 1_555 1_555
C6 C1 1_555 1_555
H5 C6 1_555 1_555
C7 C1 1_555 1_555
H6 C7 1_555 1_555
H7 C7 1_555 1_555
C8 N2 1_555 1_555
H8 C8 1_555 1_555
C9 N2 1_555 1_555
H9 C9 1_555 1_555
C10 C9 1_555 1_555
H10 C10 1_555 1_555
H11 C10 1_555 1_555
C11 C10 1_555 1_555
H12 C11 1_555 1_555
H13 C11 1_555 1_555
C12 O3 1_555 1_555
H14 C12 1_555 1_555
C13 C12 1_555 1_555
H15 C13 1_555 1_555
H16 C13 1_555 1_555
C14 C9 1_555 1_555
H17 C14 1_555 1_555
H18 C14 1_555 1_555
C15 C8 1_555 1_555
C16 C15 1_555 1_555
H19 C16 1_555 1_555
C17 C16 1_555 1_555
C18 C17 1_555 1_555
H20 C18 1_555 1_555
C19 C18 1_555 1_555
H21 C19 1_555 1_555
C20 C15 1_555 1_555
C21 C22 1_555 1_555
C22 N6 1_555 1_555
C23 C22 1_555 1_555
C24 C23 1_555 1_555
H22 C24 1_555 1_555
C25 C24 1_555 1_555
C26 C21 1_555 1_555
H23 C26 1_555 1_555
C27 C21 1_555 1_555
H24 C27 1_555 1_555
H25 C27 1_555 1_555
C28 N5 1_555 1_555
H26 C28 1_555 1_555
O6 H27 1_555 1_555
C29 N5 1_555 1_555
H28 C29 1_555 1_555
C30 C29 1_555 1_555
H29 C30 1_555 1_555
H30 C30 1_555 1_555
C31 C30 1_555 1_555
H31 C31 1_555 1_555
H32 C31 1_555 1_555
C32 O6 1_555 1_555
H33 C32 1_555 1_555
C33 C32 1_555 1_555
H34 C33 1_555 1_555
H35 C33 1_555 1_555
C34 C29 1_555 1_555
H36 C34 1_555 1_555
H37 C34 1_555 1_555
C35 C28 1_555 1_555
C36 C35 1_555 1_555
H38 C36 1_555 1_555
C37 C36 1_555 1_555
C38 C37 1_555 1_555
H39 C38 1_555 1_555
C39 C38 1_555 1_555
H40 C39 1_555 1_555
C40 C35 1_555 1_555
N3 C8 1_555 1_555
N6 C28 1_555 1_555
C5 C6 1_555 1_555
C11 C12 1_555 1_555
C13 C14 1_555 1_555
C19 C20 1_555 1_555
C25 C26 1_555 1_555
C31 C32 1_555 1_555
C33 C34 1_555 1_555
C39 C40 1_555 1_555

#END
