
#######################################################################
#
#                 Cambridge Crystallographic Data Centre
#                                CCDC 
#
#######################################################################
#
# If this CIF has been generated from an entry in the Cambridge 
# Structural Database, then it will include bibliographic, chemical, 
# crystal, experimental, refinement or atomic coordinate data resulting 
# from the CCDC's data processing and validation procedures.
#
#######################################################################

data_NUQXED
_chemical_formula_moiety         'C11 H12 N2 2+,H2 O1,2(Cl1 1-)'
_chemical_name_systematic        
"1,1'-Methylenedipyridinium dichloride monohydrate"
_symmetry_cell_setting           orthorhombic
_symmetry_space_group_name_H-M   'F d d 2'
_symmetry_Int_Tables_number      43
_space_group_name_Hall           'F 2 -2d'
loop_
_symmetry_equiv_pos_site_id
_symmetry_equiv_pos_as_xyz
1 x,y,z
2 -x,-y,z
3 1/4+x,1/4-y,1/4+z
4 1/4-x,1/4+y,1/4+z
5 x,1/2+y,1/2+z
6 -x,1/2-y,1/2+z
7 1/4+x,3/4-y,3/4+z
8 1/4-x,3/4+y,3/4+z
9 1/2+x,y,1/2+z
10 1/2-x,-y,1/2+z
11 3/4+x,1/4-y,3/4+z
12 3/4-x,1/4+y,3/4+z
13 1/2+x,1/2+y,z
14 1/2-x,1/2-y,z
15 3/4+x,3/4-y,1/4+z
16 3/4-x,3/4+y,1/4+z
_cell_length_a                   16.3384(15)
_cell_length_b                   19.0958(18)
_cell_length_c                   7.7916(7)
_cell_angle_alpha                90
_cell_angle_beta                 90
_cell_angle_gamma                90
_cell_volume                     2430.94
_exptl_crystal_colour            yellow
_exptl_crystal_description       bead
_cell_formula_units_Z            8
loop_
_atom_site_label
_atom_site_type_symbol
_atom_site_fract_x
_atom_site_fract_y
_atom_site_fract_z
Cl1 Cl 0.12462(2) 0.17275(2) 0.49998(5)
O1 O 0.2500 0.2500 0.2443(2)
H1 H 0.2178(13) 0.2280(11) 0.311(3)
H1M H 0.2822(13) 0.2720(11) 0.311(3)
N1 N 0.18673(8) 0.21731(7) -0.11511(17)
C1 C 0.19934(9) 0.15212(8) -0.0531(2)
H2 H 0.2490 0.1283 -0.0780
C2 C 0.14070(9) 0.12028(8) 0.0456(2)
H3 H 0.1495 0.0744 0.0892
C3 C 0.06819(9) 0.15569(8) 0.0813(2)
H4 H 0.0272 0.1345 0.1503
C4 C 0.05662(9) 0.22220(8) 0.0150(2)
H5 H 0.0072 0.2468 0.0373
C5 C 0.11688(10) 0.25259(9) -0.0834(2)
H6 H 0.1093 0.2983 -0.1289
C6 C 0.2500 0.2500 -0.2232(3)
H7 H 0.2754 0.2141 -0.2978
N1M N 0.31327(8) 0.28269(7) -0.11511(17)
C1M C 0.30066(9) 0.34788(8) -0.0531(2)
H2M H 0.2510 0.3717 -0.0780
C2M C 0.35930(9) 0.37972(8) 0.0456(2)
H3M H 0.3505 0.4256 0.0892
C3M C 0.43181(9) 0.34431(8) 0.0813(2)
H4M H 0.4728 0.3655 0.1503
C4M C 0.44338(9) 0.27780(8) 0.0150(2)
H5M H 0.4928 0.2532 0.0373
C5M C 0.38312(10) 0.24741(9) -0.0834(2)
H6M H 0.3907 0.2017 -0.1289
H7M H 0.2246 0.2859 -0.2978
loop_
_geom_bond_atom_site_label_1
_geom_bond_atom_site_label_2
_geom_bond_site_symmetry_1
_geom_bond_site_symmetry_2
O1 H1 1_555 1_555
N1 C1 1_555 1_555
C1 H2 1_555 1_555
C2 C1 1_555 1_555
H3 C2 1_555 1_555
C3 C2 1_555 1_555
H4 C3 1_555 1_555
C4 C3 1_555 1_555
H5 C4 1_555 1_555
C5 N1 1_555 1_555
H6 C5 1_555 1_555
C6 N1 1_555 1_555
H7 C6 1_555 1_555
H1M O1 1_555 1_555
N1M C6 1_555 1_555
C1M N1M 1_555 1_555
H2M C1M 1_555 1_555
C2M C1M 1_555 1_555
H3M C2M 1_555 1_555
C3M C2M 1_555 1_555
H4M C3M 1_555 1_555
C4M C3M 1_555 1_555
H5M C4M 1_555 1_555
C5M N1M 1_555 1_555
H6M C5M 1_555 1_555
H7M C6 1_555 1_555
C4 C5 1_555 1_555
C4M C5M 1_555 1_555

#END
