
#######################################################################
#
#                 Cambridge Crystallographic Data Centre
#                                CCDC 
#
#######################################################################
#
# If this CIF has been generated from an entry in the Cambridge 
# Structural Database, then it will include bibliographic, chemical, 
# crystal, experimental, refinement or atomic coordinate data resulting 
# from the CCDC's data processing and validation procedures.
#
#######################################################################

data_NUQZIK
_chemical_formula_moiety         'C16 H21 N1 O5,0.22(H2 O1)'
_chemical_name_systematic        
'(+-)-(3R,9aR)-Ethyl 5-oxo-3-((R)-5-oxo-2,5-dihydrofuran-2-yl)octahydro-1H-pyrrolo[1,2-a]azepine-9a-carboxylate hydrate'
_symmetry_cell_setting           monoclinic
_symmetry_space_group_name_H-M   'C 2/c'
_symmetry_Int_Tables_number      15
_space_group_name_Hall           '-C 2yn'
loop_
_symmetry_equiv_pos_site_id
_symmetry_equiv_pos_as_xyz
1 x,y,z
2 -x,y,1/2-z
3 1/2+x,1/2+y,z
4 1/2-x,1/2+y,1/2-z
5 -x,-y,-z
6 x,-y,1/2+z
7 1/2-x,1/2-y,-z
8 1/2+x,1/2-y,1/2+z
_cell_length_a                   26.249(6)
_cell_length_b                   7.9639(17)
_cell_length_c                   15.227(3)
_cell_angle_alpha                90
_cell_angle_beta                 101.740(4)
_cell_angle_gamma                90
_cell_volume                     3116.53
_exptl_crystal_colour            colorless
_exptl_crystal_description       'Square plate'
_cell_formula_units_Z            8
_exptl_crystal_recrystallization_method 'ethyl acetate/heptane'
loop_
_atom_site_label
_atom_site_type_symbol
_atom_site_fract_x
_atom_site_fract_y
_atom_site_fract_z
O1 O 0.36012(3) 0.49080(11) 0.20168(6)
O2 O 0.25580(3) 0.08039(12) 0.14160(6)
O3 O 0.40351(4) 0.51572(13) 0.08992(7)
O4 O 0.42616(4) -0.11229(11) 0.37887(6)
O5 O 0.33917(4) -0.12908(12) 0.34256(7)
N1 N 0.33232(4) 0.14751(13) 0.23077(7)
C1 C 0.30192(5) 0.04801(16) 0.16815(8)
C2 C 0.32655(6) -0.09939(17) 0.12968(9)
H1 H 0.2982(7) -0.142(2) 0.0806(12)
H2 H 0.3345(6) -0.188(2) 0.1769(12)
C3 C 0.37607(6) -0.06179(18) 0.09457(9)
H3 H 0.3729(7) 0.047(2) 0.0603(13)
H4 H 0.3802(6) -0.151(2) 0.0525(11)
C4 C 0.42517(5) -0.05388(18) 0.16714(9)
H5 H 0.4568(6) -0.046(2) 0.1398(11)
H6 H 0.4287(6) -0.162(2) 0.1998(11)
C5 C 0.42705(5) 0.09362(16) 0.23142(9)
H7 H 0.4601(6) 0.0920(19) 0.2752(10)
H8 H 0.4257(6) 0.202(2) 0.1966(10)
C6 C 0.38364(5) 0.10217(15) 0.28504(8)
C7 C 0.39446(5) 0.24688(16) 0.35448(9)
H9 H 0.4153(6) 0.2057(19) 0.4120(10)
H10 H 0.4145(6) 0.3320(19) 0.3309(10)
C8 C 0.34100(5) 0.31072(17) 0.36236(9)
H11 H 0.3419(6) 0.426(2) 0.3833(11)
H12 H 0.3270(6) 0.239(2) 0.4021(11)
C9 C 0.30816(5) 0.29062(16) 0.26812(8)
H13 H 0.2715(5) 0.2645(18) 0.2669(9)
C10 C 0.30775(5) 0.44863(16) 0.20998(9)
H14 H 0.2955(6) 0.539(2) 0.2409(10)
C11 C 0.27900(5) 0.42911(17) 0.11558(9)
H15 H 0.2422(7) 0.406(2) 0.1016(11)
C12 C 0.31121(6) 0.44944(17) 0.06013(10)
H16 H 0.3041(7) 0.441(2) -0.0036(12)
C13 C 0.36301(5) 0.48772(16) 0.11289(9)
C14 C 0.37920(5) -0.06073(16) 0.33719(8)
C15 C 0.42812(5) -0.26328(17) 0.43380(10)
H17 H 0.4002(6) -0.2528(19) 0.4657(11)
H18 H 0.4212(7) -0.356(2) 0.3926(11)
C16 C 0.48111(6) -0.2694(2) 0.49297(11)
H19 H 0.5077(8) -0.285(3) 0.4589(14)
H20 H 0.4827(7) -0.361(2) 0.5341(12)
H21 H 0.4878(7) -0.164(3) 0.5290(13)
O6 O 0.5118(3) 0.4999(11) 0.2150(5)
loop_
_geom_bond_atom_site_label_1
_geom_bond_atom_site_label_2
_geom_bond_site_symmetry_1
_geom_bond_site_symmetry_2
O1 C10 1_555 1_555
O2 C1 1_555 1_555
O3 C13 1_555 1_555
O4 C14 1_555 1_555
O5 C14 1_555 1_555
N1 C1 1_555 1_555
C1 C2 1_555 1_555
C2 H1 1_555 1_555
H2 C2 1_555 1_555
C3 C2 1_555 1_555
H3 C3 1_555 1_555
H4 C3 1_555 1_555
C4 C3 1_555 1_555
H5 C4 1_555 1_555
H6 C4 1_555 1_555
C5 C4 1_555 1_555
H7 C5 1_555 1_555
H8 C5 1_555 1_555
C6 N1 1_555 1_555
C7 C6 1_555 1_555
H9 C7 1_555 1_555
H10 C7 1_555 1_555
C8 C7 1_555 1_555
H11 C8 1_555 1_555
H12 C8 1_555 1_555
C9 N1 1_555 1_555
H13 C9 1_555 1_555
C10 C9 1_555 1_555
H14 C10 1_555 1_555
C11 C10 1_555 1_555
H15 C11 1_555 1_555
C12 C11 1_555 1_555
H16 C12 1_555 1_555
C13 O1 1_555 1_555
C14 C6 1_555 1_555
C15 O4 1_555 1_555
H17 C15 1_555 1_555
H18 C15 1_555 1_555
C16 C15 1_555 1_555
H19 C16 1_555 1_555
H20 C16 1_555 1_555
H21 C16 1_555 1_555
C5 C6 1_555 1_555
C8 C9 1_555 1_555
C12 C13 1_555 1_555

#END
