
#######################################################################
#
#                 Cambridge Crystallographic Data Centre
#                                CCDC 
#
#######################################################################
#
# If this CIF has been generated from an entry in the Cambridge 
# Structural Database, then it will include bibliographic, chemical, 
# crystal, experimental, refinement or atomic coordinate data resulting 
# from the CCDC's data processing and validation procedures.
#
#######################################################################

data_NURCOT
_chemical_name_common            
'3-Ethyl-4-hydroxy-3-(3-methoxyphenyl)-1-methylazepanium 2,3-bis(benzoyloxy)-3-carboxypropanoate'
_chemical_formula_moiety         'C16 H26 N1 O2 1+,C18 H13 O8 1-'
_chemical_name_systematic        
(3S,4R)-3-ethyl-4-hydroxy-3-(3-methoxyphenyl)-1-methylazepanium(2R,3R)-2,3-bis(benzoyloxy)-3-carboxypropionate
_symmetry_cell_setting           triclinic
_symmetry_space_group_name_H-M   'P 1'
_symmetry_Int_Tables_number      1
_space_group_name_Hall           'P 1'
loop_
_symmetry_equiv_pos_site_id
_symmetry_equiv_pos_as_xyz
1 x,y,z
_cell_length_a                   7.772(3)
_cell_length_b                   14.603(6)
_cell_length_c                   15.060(6)
_cell_angle_alpha                75.313(6)
_cell_angle_beta                 82.182(6)
_cell_angle_gamma                88.367(6)
_cell_volume                     1637.98
_exptl_crystal_colour            colorless
_exptl_crystal_description       parallelepiped
_cell_formula_units_Z            2
loop_
_atom_site_label
_atom_site_type_symbol
_atom_site_fract_x
_atom_site_fract_y
_atom_site_fract_z
N1 N 0.1267(6) 0.8021(3) 0.0702(3)
H1 H 0.1645 0.7617 0.1184
O1 O 0.0083(7) 1.1593(4) 0.3418(4)
O2 O 0.2316(5) 1.0406(3) 0.0160(3)
H2 H 0.2882 1.0897 -0.0042
C1 C -0.0586(9) 1.1148(5) 0.2846(5)
C2 C 0.0504(8) 1.0513(4) 0.2549(4)
H3 H 0.1577 1.0400 0.2762
C3 C 0.0037(7) 1.0018(4) 0.1921(4)
C4 C -0.1594(9) 1.0219(4) 0.1656(4)
H4 H -0.1961 0.9926 0.1233
C5 C -0.2679(9) 1.0837(5) 0.1996(6)
H5 H -0.3787 1.0925 0.1822
C6 C -0.2200(9) 1.1326(5) 0.2579(5)
H6 H -0.2938 1.1762 0.2788
C7 C -0.0919(13) 1.2314(6) 0.3748(7)
H7 H -0.0979 1.2864 0.3244
H8 H -0.0375 1.2479 0.4222
H9 H -0.2071 1.2079 0.3998
C8 C 0.1294(7) 0.9302(4) 0.1599(4)
C9 C 0.2899(7) 0.9882(4) 0.0996(4)
H10 H 0.3217 1.0339 0.1324
C10 C 0.4512(7) 0.9319(4) 0.0800(4)
H11 H 0.5360 0.9763 0.0396
H12 H 0.4975 0.9087 0.1382
C11 C 0.4455(8) 0.8496(5) 0.0383(5)
H13 H 0.4633 0.7925 0.0856
H14 H 0.5432 0.8556 -0.0103
C12 C 0.2830(8) 0.8353(5) -0.0022(4)
H15 H 0.3069 0.7891 -0.0385
H16 H 0.2547 0.8945 -0.0438
C13 C 0.0350(7) 0.8796(4) 0.1046(4)
H17 H -0.0719 0.8535 0.1427
H18 H 0.0026 0.9266 0.0515
C14 C 0.1910(7) 0.8608(4) 0.2444(4)
H19 H 0.2729 0.8175 0.2224
H20 H 0.2533 0.8966 0.2763
C15 C 0.0492(8) 0.8022(4) 0.3150(4)
H21 H -0.0362 0.8438 0.3354
H22 H 0.1002 0.7653 0.3671
H23 H -0.0051 0.7608 0.2865
C16 C 0.0031(8) 0.7502(4) 0.0333(4)
H24 H -0.0941 0.7285 0.0800
H25 H 0.0605 0.6969 0.0163
H26 H -0.0369 0.7916 -0.0201
N2 N 0.3412(8) 0.3378(4) 0.0241(4)
H27 H 0.3398 0.3845 0.0525
O3 O 0.3518(6) 0.8128(3) -0.2301(3)
O4 O 0.1594(5) 0.5076(3) 0.0450(3)
H28 H 0.0856 0.5362 0.0716
C17 C 0.4215(9) 0.7309(5) -0.1845(4)
C18 C 0.3197(8) 0.6523(4) -0.1683(4)
H29 H 0.2124 0.6581 -0.1899
C19 C 0.3720(7) 0.5635(4) -0.1202(4)
C20 C 0.5353(8) 0.5589(5) -0.0888(5)
H30 H 0.5776 0.5010 -0.0579
C21 C 0.6320(11) 0.6402(7) -0.1041(7)
H31 H 0.7365 0.6368 -0.0798
C22 C 0.5800(10) 0.7256(6) -0.1535(6)
H32 H 0.6503 0.7790 -0.1659
C23 C 0.4469(11) 0.9008(5) -0.2537(5)
H33 H 0.4747 0.9145 -0.1983
H34 H 0.3771 0.9508 -0.2850
H35 H 0.5521 0.8957 -0.2936
C24 C 0.2545(7) 0.4771(4) -0.1023(4)
C25 C 0.0952(8) 0.4885(5) -0.0333(4)
H36 H 0.0284 0.5432 -0.0624
C26 C -0.0287(8) 0.3998(6) 0.0010(5)
H37 H -0.1444 0.4208 0.0197
H38 H -0.0350 0.3719 -0.0504
C27 C 0.0271(11) 0.3245(5) 0.0811(5)
H39 H 0.0270 0.3533 0.1324
H40 H -0.0629 0.2761 0.0996
C28 C 0.1907(11) 0.2767(5) 0.0714(5)
H41 H 0.1785 0.2295 0.0375
H42 H 0.2157 0.2435 0.1327
C29 C 0.3472(8) 0.3816(6) -0.0691(5)
H43 H 0.3012 0.3369 -0.0978
H44 H 0.4688 0.3911 -0.0944
C30 C 0.1910(8) 0.4722(4) -0.1929(4)
H45 H 0.1113 0.4191 -0.1794
H46 H 0.1255 0.5292 -0.2146
C31 C 0.3281(9) 0.4621(5) -0.2713(4)
H47 H 0.4206 0.5066 -0.2778
H48 H 0.2775 0.4745 -0.3278
H49 H 0.3733 0.3990 -0.2579
C32 C 0.5075(11) 0.2821(6) 0.0447(5)
H50 H 0.5225 0.2348 0.0103
H51 H 0.4987 0.2521 0.1098
H52 H 0.6054 0.3245 0.0271
O5 O 0.9452(8) -0.0629(3) 0.8618(3)
O6 O 0.9088(5) 0.0795(3) 0.7676(2)
O7 O 1.2214(5) 0.1267(3) 0.7907(3)
H53 H 1.3074 0.1189 0.8177
O8 O 1.1174(5) 0.2261(3) 0.8756(3)
O9 O 0.5471(6) 0.1132(4) 0.9168(4)
O10 O 0.5145(5) 0.1943(3) 0.7770(3)
O11 O 0.8346(4) 0.2695(3) 0.7461(2)
O12 O 0.7405(5) 0.3877(3) 0.8101(3)
C33 C 1.0994(8) 0.1653(5) 0.8366(4)
C34 C 0.9188(7) 0.1249(4) 0.8400(4)
H54 H 0.8902 0.0783 0.8995
C35 C 0.7844(6) 0.2025(4) 0.8329(4)
H55 H 0.7914 0.2338 0.8827
C36 C 0.5973(7) 0.1672(5) 0.8413(5)
C37 C 0.9283(8) -0.0146(5) 0.7871(5)
C38 C 0.9312(6) -0.0507(4) 0.7052(3)
C39 C 0.8973(7) 0.0068(3) 0.6206(4)
H56 H 0.8763 0.0710 0.6145
C40 C 0.8949(9) -0.0316(5) 0.5452(3)
H57 H 0.8723 0.0069 0.4887
C41 C 0.9264(9) -0.1275(5) 0.5544(4)
H58 H 0.9248 -0.1532 0.5040
C42 C 0.9603(7) -0.1850(4) 0.6389(5)
H59 H 0.9813 -0.2492 0.6451
C43 C 0.9627(6) -0.1466(4) 0.7143(4)
H60 H 0.9853 -0.1851 0.7709
C44 C 0.8058(8) 0.3597(5) 0.7438(4)
C45 C 0.8647(8) 0.4249(5) 0.6522(4)
C46 C 0.9568(11) 0.3910(5) 0.5829(5)
H61 H 0.9810 0.3267 0.5928
C47 C 1.0134(16) 0.4525(7) 0.4984(6)
H62 H 1.0783 0.4299 0.4519
C48 C 0.9737(16) 0.5470(8) 0.4832(6)
H63 H 1.0101 0.5880 0.4258
C49 C 0.8808(14) 0.5815(6) 0.5517(7)
H64 H 0.8537 0.6455 0.5413
C50 C 0.8279(10) 0.5192(5) 0.6369(5)
H65 H 0.7665 0.5420 0.6842
O13 O 0.4031(7) 0.3360(3) 0.2308(3)
O14 O 0.4754(4) 0.4456(3) 0.3002(2)
O15 O 0.1637(5) 0.5055(3) 0.2669(3)
H66 H 0.0680 0.5303 0.2635
O16 O 0.2626(5) 0.6433(3) 0.1736(3)
O17 O 0.8683(5) 0.5661(3) 0.2735(3)
O18 O 0.8313(5) 0.5233(3) 0.1457(3)
O19 O 0.5475(4) 0.6277(3) 0.2977(2)
O20 O 0.6701(5) 0.7679(3) 0.2244(3)
C51 C 0.2803(8) 0.5636(5) 0.2179(4)
C52 C 0.4637(6) 0.5201(4) 0.2181(3)
H67 H 0.4928 0.4951 0.1634
C53 C 0.5935(7) 0.5941(4) 0.2166(3)
H68 H 0.5850 0.6468 0.1622
C54 C 0.7800(7) 0.5580(4) 0.2117(4)
C55 C 0.4332(7) 0.3582(5) 0.2999(4)
C56 C 0.4315(8) 0.2927(4) 0.3917(4)
C57 C 0.3754(10) 0.2014(5) 0.4064(5)
H69 H 0.3409 0.1818 0.3573
C58 C 0.3682(14) 0.1371(6) 0.4925(7)
H70 H 0.3303 0.0752 0.5013
C59 C 0.4179(16) 0.1670(7) 0.5627(7)
H71 H 0.4052 0.1265 0.6218
C60 C 0.4871(14) 0.2563(7) 0.5494(5)
H72 H 0.5320 0.2729 0.5974
C61 C 0.4891(10) 0.3209(5) 0.4643(5)
H73 H 0.5285 0.3825 0.4557
C62 C 0.5936(7) 0.7161(5) 0.2930(4)
C63 C 0.5347(6) 0.7444(3) 0.3800(3)
C64 C 0.5617(6) 0.8376(3) 0.3815(3)
H74 H 0.6191 0.8797 0.3296
C65 C 0.5027(7) 0.8680(3) 0.4605(4)
H75 H 0.5207 0.9304 0.4615
C66 C 0.4168(8) 0.8052(5) 0.5381(3)
H76 H 0.3773 0.8255 0.5910
C67 C 0.3898(7) 0.7119(5) 0.5366(3)
H77 H 0.3323 0.6698 0.5885
C68 C 0.4488(7) 0.6815(3) 0.4576(4)
H78 H 0.4308 0.6191 0.4566
loop_
_geom_bond_atom_site_label_1
_geom_bond_atom_site_label_2
_geom_bond_site_symmetry_1
_geom_bond_site_symmetry_2
N1 H1 1_555 1_555
O1 C1 1_555 1_555
O2 H2 1_555 1_555
C1 C2 1_555 1_555
C2 H3 1_555 1_555
C3 C2 1_555 1_555
C4 C3 1_555 1_555
H4 C4 1_555 1_555
C5 C4 1_555 1_555
H5 C5 1_555 1_555
C6 C1 1_555 1_555
H6 C6 1_555 1_555
C7 O1 1_555 1_555
H7 C7 1_555 1_555
H8 C7 1_555 1_555
H9 C7 1_555 1_555
C8 C3 1_555 1_555
C9 O2 1_555 1_555
H10 C9 1_555 1_555
C10 C9 1_555 1_555
H11 C10 1_555 1_555
H12 C10 1_555 1_555
C11 C10 1_555 1_555
H13 C11 1_555 1_555
H14 C11 1_555 1_555
C12 N1 1_555 1_555
H15 C12 1_555 1_555
H16 C12 1_555 1_555
C13 N1 1_555 1_555
H17 C13 1_555 1_555
H18 C13 1_555 1_555
C14 C8 1_555 1_555
H19 C14 1_555 1_555
H20 C14 1_555 1_555
C15 C14 1_555 1_555
H21 C15 1_555 1_555
H22 C15 1_555 1_555
H23 C15 1_555 1_555
C16 N1 1_555 1_555
H24 C16 1_555 1_555
H25 C16 1_555 1_555
H26 C16 1_555 1_555
N2 H27 1_555 1_555
O3 C17 1_555 1_555
O4 H28 1_555 1_555
C17 C18 1_555 1_555
C18 H29 1_555 1_555
C19 C18 1_555 1_555
C20 C19 1_555 1_555
H30 C20 1_555 1_555
C21 C20 1_555 1_555
H31 C21 1_555 1_555
C22 C17 1_555 1_555
H32 C22 1_555 1_555
C23 O3 1_555 1_555
H33 C23 1_555 1_555
H34 C23 1_555 1_555
H35 C23 1_555 1_555
C24 C19 1_555 1_555
C25 O4 1_555 1_555
H36 C25 1_555 1_555
C26 C25 1_555 1_555
H37 C26 1_555 1_555
H38 C26 1_555 1_555
C27 C26 1_555 1_555
H39 C27 1_555 1_555
H40 C27 1_555 1_555
C28 N2 1_555 1_555
H41 C28 1_555 1_555
H42 C28 1_555 1_555
C29 N2 1_555 1_555
H43 C29 1_555 1_555
H44 C29 1_555 1_555
C30 C24 1_555 1_555
H45 C30 1_555 1_555
H46 C30 1_555 1_555
C31 C30 1_555 1_555
H47 C31 1_555 1_555
H48 C31 1_555 1_555
H49 C31 1_555 1_555
C32 N2 1_555 1_555
H50 C32 1_555 1_555
H51 C32 1_555 1_555
H52 C32 1_555 1_555
O5 C37 1_555 1_555
O6 C34 1_555 1_555
O7 H53 1_555 1_555
O8 C33 1_555 1_555
O9 C36 1_555 1_555
O10 C36 1_555 1_555
O11 C35 1_555 1_555
O12 C44 1_555 1_555
C33 O7 1_555 1_555
C34 C33 1_555 1_555
H54 C34 1_555 1_555
C35 C34 1_555 1_555
H55 C35 1_555 1_555
C36 C35 1_555 1_555
C37 O6 1_555 1_555
C38 C37 1_555 1_555
C39 C38 1_555 1_555
H56 C39 1_555 1_555
C40 C39 1_555 1_555
H57 C40 1_555 1_555
C41 C40 1_555 1_555
H58 C41 1_555 1_555
C42 C41 1_555 1_555
H59 C42 1_555 1_555
C43 C38 1_555 1_555
H60 C43 1_555 1_555
C44 O11 1_555 1_555
C45 C44 1_555 1_555
C46 C45 1_555 1_555
H61 C46 1_555 1_555
C47 C46 1_555 1_555
H62 C47 1_555 1_555
C48 C47 1_555 1_555
H63 C48 1_555 1_555
C49 C48 1_555 1_555
H64 C49 1_555 1_555
C50 C45 1_555 1_555
H65 C50 1_555 1_555
O13 C55 1_555 1_555
O14 C52 1_555 1_555
O15 H66 1_555 1_555
O16 C51 1_555 1_555
O17 C54 1_555 1_555
O18 C54 1_555 1_555
O19 C53 1_555 1_555
O20 C62 1_555 1_555
C51 O15 1_555 1_555
C52 C51 1_555 1_555
H67 C52 1_555 1_555
C53 C52 1_555 1_555
H68 C53 1_555 1_555
C54 C53 1_555 1_555
C55 O14 1_555 1_555
C56 C55 1_555 1_555
C57 C56 1_555 1_555
H69 C57 1_555 1_555
C58 C57 1_555 1_555
H70 C58 1_555 1_555
C59 C58 1_555 1_555
H71 C59 1_555 1_555
C60 C59 1_555 1_555
H72 C60 1_555 1_555
C61 C56 1_555 1_555
H73 C61 1_555 1_555
C62 O19 1_555 1_555
C63 C62 1_555 1_555
C64 C63 1_555 1_555
H74 C64 1_555 1_555
C65 C64 1_555 1_555
H75 C65 1_555 1_555
C66 C65 1_555 1_555
H76 C66 1_555 1_555
C67 C66 1_555 1_555
H77 C67 1_555 1_555
C68 C63 1_555 1_555
H78 C68 1_555 1_555
C5 C6 1_555 1_555
C8 C9 1_555 1_555
C8 C13 1_555 1_555
C11 C12 1_555 1_555
C21 C22 1_555 1_555
C24 C25 1_555 1_555
C24 C29 1_555 1_555
C27 C28 1_555 1_555
C42 C43 1_555 1_555
C49 C50 1_555 1_555
C60 C61 1_555 1_555
C67 C68 1_555 1_555

#END
