
#######################################################################
#
#                 Cambridge Crystallographic Data Centre
#                                CCDC 
#
#######################################################################
#
# If this CIF has been generated from an entry in the Cambridge 
# Structural Database, then it will include bibliographic, chemical, 
# crystal, experimental, refinement or atomic coordinate data resulting 
# from the CCDC's data processing and validation procedures.
#
#######################################################################

data_NURGUC
_chemical_formula_moiety         'C16 H21 Cl1 O1 Te1'
_chemical_name_systematic        
(1S,R~Te~)-5-Chloro-10,10-dimethyl-5-phenyl-5\l^4^-tellura-4-oxatricyclo(5.2.1.0^3,7^)decane
_symmetry_cell_setting           trigonal
_symmetry_space_group_name_H-M   'P 32'
_symmetry_Int_Tables_number      145
_space_group_name_Hall           'P 32'
loop_
_symmetry_equiv_pos_site_id
_symmetry_equiv_pos_as_xyz
1 x,y,z
2 -y,x-y,2/3+z
3 -x+y,-x,1/3+z
_cell_length_a                   24.700(3)
_cell_length_b                   24.700(3)
_cell_length_c                   14.047(8)
_cell_angle_alpha                90
_cell_angle_beta                 90
_cell_angle_gamma                120
_cell_volume                     7421.78
_exptl_crystal_colour            colorless
_exptl_crystal_description       prismatic
_chemical_melting_point          154-156deg.C
_cell_formula_units_Z            18
_exptl_crystal_recrystallization_method hexane/dichloromethane
loop_
_atom_site_label
_atom_site_type_symbol
_atom_site_fract_x
_atom_site_fract_y
_atom_site_fract_z
Te1 Te -0.3551(1) 0.4117(1) -0.685(2)
Cl1 Cl -0.4129(4) 0.2991(4) -0.609(2)
O1 O -0.314(1) 0.502(1) -0.724(3)
C1 C -0.337(1) 0.449(1) -0.545(3)
C2 C -0.304(1) 0.517(1) -0.550(4)
C3 C -0.314(2) 0.540(2) -0.649(4)
C4 C -0.261(2) 0.608(2) -0.658(5)
C5 C -0.229(2) 0.621(1) -0.563(4)
C6 C -0.272(2) 0.618(2) -0.482(4)
C7 C -0.324(2) 0.550(2) -0.473(4)
C8 C -0.232(1) 0.556(1) -0.544(4)
C9 C -0.195(2) 0.541(2) -0.609(4)
C10 C -0.209(2) 0.551(2) -0.439(4)
C11 C -0.446(2) 0.405(2) -0.699(3)
C12 C -0.454(2) 0.427(2) -0.783(3)
C13 C -0.513(2) 0.426(2) -0.796(4)
C14 C -0.556(2) 0.398(2) -0.727(4)
C15 C -0.545(2) 0.377(2) -0.644(4)
C16 C -0.490(2) 0.378(1) -0.630(3)
H1 H -0.3117 0.4356 -0.5130
H2 H -0.3754 0.4338 -0.5123
H3 H -0.3529 0.5392 -0.6489
H4 H -0.2776 0.6350 -0.6689
H5 H -0.2337 0.6123 -0.7086
H6 H -0.1880 0.6564 -0.5619
H7 H -0.2889 0.6437 -0.4966
H8 H -0.2487 0.6315 -0.4244
H9 H -0.3635 0.5456 -0.4863
H10 H -0.3245 0.5342 -0.4108
H11 H -0.2061 0.5437 -0.6731
H12 H -0.2027 0.4998 -0.5973
H13 H -0.1516 0.5698 -0.6003
H14 H -0.2320 0.5599 -0.3937
H15 H -0.1659 0.5794 -0.4326
H16 H -0.2169 0.5093 -0.4289
H17 H -0.4230 0.4436 -0.8309
H18 H -0.5209 0.4433 -0.8503
H19 H -0.5961 0.3927 -0.7375
H20 H -0.5766 0.3609 -0.5963
H21 H -0.4829 0.3611 -0.5743
Te2 Te -0.7478(1) 0.5681(1) -0.384(2)
Cl2 Cl -0.6353(4) 0.6216(4) -0.311(2)
O2 O -0.837(1) 0.521(1) -0.424(3)
C17 C -0.783(1) 0.551(1) -0.242(3)
C18 C -0.855(1) 0.512(1) -0.252(3)
C19 C -0.876(2) 0.481(2) -0.349(4)
C20 C -0.946(2) 0.464(2) -0.355(4)
C21 C -0.955(1) 0.486(2) -0.258(4)
C22 C -0.954(2) 0.439(2) -0.184(4)
C23 C -0.886(2) 0.459(1) -0.176(4)
C24 C -0.895(1) 0.545(2) -0.236(4)
C25 C -0.892(2) 0.570(2) -0.136(4)
C26 C -0.880(2) 0.598(2) -0.305(4)
C27 C -0.767(2) 0.449(2) -0.479(4)
C28 C -0.740(2) 0.485(2) -0.400(4)
C29 C -0.713(1) 0.469(1) -0.331(3)
C30 C -0.711(2) 0.412(2) -0.345(4)
C31 C -0.737(2) 0.377(2) -0.422(4)
C32 C -0.761(2) 0.394(2) -0.491(4)
H22 H -0.7675 0.5278 -0.2085
H23 H -0.7708 0.5889 -0.2104
H24 H -0.8744 0.4432 -0.3498
H25 H -0.9523 0.4852 -0.4050
H26 H -0.9723 0.4199 -0.3624
H27 H -0.9912 0.4896 -0.2543
H28 H -0.9771 0.3972 -0.2067
H29 H -0.9702 0.4423 -0.1247
H30 H -0.8707 0.4751 -0.1142
H31 H -0.8788 0.4257 -0.1896
H32 H -0.9104 0.6112 -0.2982
H33 H -0.8816 0.5843 -0.3689
H34 H -0.8399 0.6323 -0.2923
H35 H -0.9217 0.5831 -0.1303
H36 H -0.9010 0.5376 -0.0912
H37 H -0.8513 0.6039 -0.1252
H38 H -0.6955 0.4936 -0.2757
H39 H -0.6909 0.3993 -0.2995
H40 H -0.7390 0.3380 -0.4269
H41 H -0.7752 0.3706 -0.5476
H42 H -0.7881 0.4601 -0.5248
Te3 Te -0.6325(1) 0.5968(1) -0.058(2)
Cl3 Cl -0.5711(4) 0.7031(4) 0.029(2)
O3 O -0.6778(10) 0.509(1) -0.110(3)
C33 C -0.649(2) 0.552(2) 0.075(3)
C34 C -0.675(2) 0.482(2) 0.055(4)
C35 C -0.669(1) 0.468(1) -0.050(4)
C36 C -0.721(2) 0.399(2) -0.058(4)
C37 C -0.746(2) 0.380(2) 0.043(4)
C38 C -0.693(2) 0.380(2) 0.098(4)
C39 C -0.645(2) 0.451(2) 0.115(4)
C40 C -0.746(2) 0.440(2) 0.081(4)
C41 C -0.790(2) 0.453(2) 0.027(4)
C42 C -0.759(2) 0.436(2) 0.186(4)
C43 C -0.543(2) 0.605(2) -0.088(4)
C44 C -0.501(2) 0.620(2) -0.016(4)
C45 C -0.444(2) 0.619(2) -0.030(4)
C46 C -0.435(2) 0.607(2) -0.126(5)
C47 C -0.476(2) 0.593(2) -0.194(4)
C48 C -0.529(2) 0.592(2) -0.174(4)
H43 H -0.6106 0.5689 0.1093
H44 H -0.6781 0.5581 0.1098
H45 H -0.6289 0.4722 -0.0619
H46 H -0.7533 0.3945 -0.0993
H47 H -0.7045 0.3736 -0.0807
H48 H -0.7850 0.3420 0.0473
H49 H -0.6743 0.3605 0.0628
H50 H -0.7075 0.3586 0.1575
H51 H -0.6421 0.4624 0.1801
H52 H -0.6044 0.4624 0.0917
H53 H -0.7855 0.4910 0.0475
H54 H -0.8312 0.4198 0.0376
H55 H -0.7803 0.4549 -0.0392
H56 H -0.7547 0.4740 0.2074
H57 H -0.8002 0.4027 0.1977
H58 H -0.7301 0.4276 0.2190
H59 H -0.5091 0.6313 0.0451
H60 H -0.4150 0.6261 0.0191
H61 H -0.3965 0.6091 -0.1411
H62 H -0.4679 0.5848 -0.2569
H63 H -0.5594 0.5815 -0.2230
Te4 Te -0.8938(1) 0.0378(1) -0.440(2)
Cl4 Cl -0.9843(4) -0.0638(4) -0.524(2)
O4 O -0.818(1) 0.117(1) -0.398(3)
C49 C -0.860(2) 0.071(1) -0.584(3)
C50 C -0.796(1) 0.132(2) -0.570(3)
C51 C -0.771(1) 0.140(1) -0.468(4)
C52 C -0.726(2) 0.211(2) -0.461(4)
C53 C -0.727(2) 0.235(2) -0.561(4)
C54 C -0.697(2) 0.210(2) -0.629(4)
C55 C -0.745(2) 0.138(2) -0.639(4)
C56 C -0.800(2) 0.192(2) -0.592(4)
C57 C -0.809(2) 0.202(2) -0.698(4)
C58 C -0.841(2) 0.204(2) -0.531(4)
C59 C -0.845(1) -0.013(2) -0.424(3)
C60 C -0.843(2) -0.051(2) -0.495(4)
C61 C -0.808(2) -0.079(2) -0.481(4)
C62 C -0.780(2) -0.073(2) -0.393(4)
C63 C -0.783(2) -0.039(2) -0.323(4)
C64 C -0.817(2) -0.010(2) -0.337(3)
H64 H -0.8883 0.0789 -0.6179
H65 H -0.8542 0.0405 -0.6182
H66 H -0.7477 0.1188 -0.4617
H67 H -0.7409 0.2296 -0.4160
H68 H -0.6852 0.2205 -0.4444
H69 H -0.7114 0.2784 -0.5652
H70 H -0.6586 0.2169 -0.6046
H71 H -0.6906 0.2301 -0.6893
H72 H -0.7602 0.1266 -0.7023
H73 H -0.7272 0.1133 -0.6190
H74 H -0.8837 0.1768 -0.5481
H75 H -0.8355 0.1973 -0.4657
H76 H -0.8318 0.2462 -0.5386
H77 H -0.7992 0.2442 -0.7072
H78 H -0.7817 0.1944 -0.7362
H79 H -0.8509 0.1746 -0.7159
H80 H -0.8668 -0.0579 -0.5517
H81 H -0.8021 -0.1014 -0.5316
H82 H -0.7573 -0.0948 -0.3818
H83 H -0.7628 -0.0350 -0.2643
H84 H -0.8209 0.0135 -0.2866
Te5 Te -0.9320(1) 0.0990(1) -0.102(2)
Cl5 Cl -0.9204(4) 0.0112(4) -0.192(2)
O5 O -0.935(1) 0.176(1) -0.059(3)
C65 C -0.924(2) 0.141(2) -0.242(3)
C66 C -0.916(2) 0.205(2) -0.230(3)
C67 C -0.903(2) 0.227(1) -0.126(3)
C68 C -0.929(2) 0.275(2) -0.122(4)
C69 C -0.941(2) 0.282(2) -0.218(4)
C70 C -0.883(2) 0.308(2) -0.275(4)
C71 C -0.864(2) 0.257(2) -0.282(4)
C72 C -0.974(2) 0.209(2) -0.256(4)
C73 C -0.988(2) 0.203(2) -0.363(4)
C74 C -1.034(2) 0.168(2) -0.204(5)
C75 C -0.835(1) 0.147(2) -0.079(4)
C76 C -0.810(2) 0.178(2) 0.005(4)
C77 C -0.745(2) 0.212(1) 0.021(3)
C78 C -0.709(2) 0.213(2) -0.053(4)
C79 C -0.729(2) 0.181(2) -0.133(4)
C80 C -0.791(2) 0.144(2) -0.144(4)
H85 H -0.8893 0.1439 -0.2746
H86 H -0.9612 0.1156 -0.2773
H87 H -0.8244 0.2697 -0.2525
H88 H -0.8619 0.2457 -0.3466
H89 H -0.8508 0.3438 -0.2446
H90 H -0.8902 0.3183 -0.3367
H91 H -0.9646 0.3018 -0.2278
H92 H -0.8988 0.3137 -0.0951
H93 H -0.9666 0.2583 -0.0851
H94 H -0.8598 0.2483 -0.1145
H95 H -1.0638 0.1804 -0.2181
H96 H -1.0498 0.1259 -0.2232
H97 H -1.0264 0.1713 -0.1372
H98 H -1.0182 0.2154 -0.3761
H99 H -1.0043 0.1607 -0.3813
H100 H -0.9509 0.2290 -0.3967
H101 H -0.8378 0.1763 0.0540
H102 H -0.7278 0.2336 0.0787
H103 H -0.6648 0.2379 -0.0450
H104 H -0.7009 0.1845 -0.1818
H105 H -0.8065 0.1160 -0.1959
Te6 Te -0.4372(1) 0.3002(1) -0.358(2)
Cl6 Cl -0.3919(4) 0.2403(4) -0.268(2)
O6 O -0.480(1) 0.346(1) -0.411(3)
C81 C -0.464(2) 0.318(2) -0.224(4)
C82 C -0.508(2) 0.344(2) -0.244(4)
C83 C -0.530(2) 0.335(2) -0.347(4)
C84 C -0.547(2) 0.391(2) -0.359(4)
C85 C -0.544(2) 0.411(2) -0.261(5)
C86 C -0.595(2) 0.357(2) -0.204(5)
C87 C -0.569(2) 0.313(2) -0.184(4)
C88 C -0.482(2) 0.415(2) -0.221(4)
C89 C -0.472(2) 0.430(2) -0.113(4)
C90 C -0.425(2) 0.459(2) -0.279(4)
C91 C -0.520(1) 0.210(2) -0.382(4)
C92 C -0.547(2) 0.169(2) -0.304(4)
C93 C -0.601(2) 0.115(2) -0.328(5)
C94 C -0.629(2) 0.102(2) -0.409(5)
C95 C -0.601(2) 0.144(2) -0.484(5)
C96 C -0.546(2) 0.198(2) -0.474(4)
H106 H -0.4857 0.2803 -0.1884
H107 H -0.4286 0.3475 -0.1895
H108 H -0.5661 0.2955 -0.3569
H109 H -0.5872 0.3753 -0.3858
H110 H -0.5167 0.4235 -0.3980
H111 H -0.5450 0.4491 -0.2543
H112 H -0.6030 0.3712 -0.1463
H113 H -0.6322 0.3358 -0.2406
H114 H -0.5609 0.3119 -0.1179
H115 H -0.5974 0.2712 -0.2047
H116 H -0.4328 0.4485 -0.3449
H117 H -0.3899 0.4562 -0.2592
H118 H -0.4167 0.5008 -0.2705
H119 H -0.4383 0.4256 -0.0906
H120 H -0.5093 0.4013 -0.0794
H121 H -0.4639 0.4712 -0.1023
H122 H -0.5294 0.1773 -0.2420
H123 H -0.6203 0.0840 -0.2801
H124 H -0.6678 0.0646 -0.4173
H125 H -0.6215 0.1338 -0.5441
H126 H -0.5267 0.2265 -0.5256
loop_
_geom_bond_atom_site_label_1
_geom_bond_atom_site_label_2
_geom_bond_site_symmetry_1
_geom_bond_site_symmetry_2
Te1 Cl1 1_555 1_555
O1 Te1 1_555 1_555
C1 Te1 1_555 1_555
C2 C1 1_555 1_555
C3 O1 1_555 1_555
C4 C3 1_555 1_555
C5 C4 1_555 1_555
C6 C5 1_555 1_555
C7 C2 1_555 1_555
C8 C2 1_555 1_555
C9 C8 1_555 1_555
C10 C8 1_555 1_555
C11 Te1 1_555 1_555
C12 C11 1_555 1_555
C13 C12 1_555 1_555
C14 C13 1_555 1_555
C15 C14 1_555 1_555
C16 C11 1_555 1_555
H1 C1 1_555 1_555
H2 C1 1_555 1_555
H3 C3 1_555 1_555
H4 C4 1_555 1_555
H5 C4 1_555 1_555
H6 C5 1_555 1_555
H7 C6 1_555 1_555
H8 C6 1_555 1_555
H9 C7 1_555 1_555
H10 C7 1_555 1_555
H11 C9 1_555 1_555
H12 C9 1_555 1_555
H13 C9 1_555 1_555
H14 C10 1_555 1_555
H15 C10 1_555 1_555
H16 C10 1_555 1_555
H17 C12 1_555 1_555
H18 C13 1_555 1_555
H19 C14 1_555 1_555
H20 C15 1_555 1_555
H21 C16 1_555 1_555
Te2 Cl2 1_555 1_555
O2 Te2 1_555 1_555
C17 Te2 1_555 1_555
C18 C17 1_555 1_555
C19 O2 1_555 1_555
C20 C19 1_555 1_555
C21 C20 1_555 1_555
C22 C21 1_555 1_555
C23 C18 1_555 1_555
C24 C18 1_555 1_555
C25 C24 1_555 1_555
C26 C24 1_555 1_555
C27 C28 1_555 1_555
C28 Te2 1_555 1_555
C29 C28 1_555 1_555
C30 C29 1_555 1_555
C31 C30 1_555 1_555
C32 C27 1_555 1_555
H22 C17 1_555 1_555
H23 C17 1_555 1_555
H24 C19 1_555 1_555
H25 C20 1_555 1_555
H26 C20 1_555 1_555
H27 C21 1_555 1_555
H28 C22 1_555 1_555
H29 C22 1_555 1_555
H30 C23 1_555 1_555
H31 C23 1_555 1_555
H32 C26 1_555 1_555
H33 C26 1_555 1_555
H34 C26 1_555 1_555
H35 C25 1_555 1_555
H36 C25 1_555 1_555
H37 C25 1_555 1_555
H38 C29 1_555 1_555
H39 C30 1_555 1_555
H40 C31 1_555 1_555
H41 C32 1_555 1_555
H42 C27 1_555 1_555
Te3 Cl3 1_555 1_555
O3 Te3 1_555 1_555
C33 Te3 1_555 1_555
C34 C33 1_555 1_555
C35 O3 1_555 1_555
C36 C35 1_555 1_555
C37 C36 1_555 1_555
C38 C37 1_555 1_555
C39 C34 1_555 1_555
C40 C34 1_555 1_555
C41 C40 1_555 1_555
C42 C40 1_555 1_555
C43 Te3 1_555 1_555
C44 C43 1_555 1_555
C45 C44 1_555 1_555
C46 C45 1_555 1_555
C47 C46 1_555 1_555
C48 C43 1_555 1_555
H43 C33 1_555 1_555
H44 C33 1_555 1_555
H45 C35 1_555 1_555
H46 C36 1_555 1_555
H47 C36 1_555 1_555
H48 C37 1_555 1_555
H49 C38 1_555 1_555
H50 C38 1_555 1_555
H51 C39 1_555 1_555
H52 C39 1_555 1_555
H53 C41 1_555 1_555
H54 C41 1_555 1_555
H55 C41 1_555 1_555
H56 C42 1_555 1_555
H57 C42 1_555 1_555
H58 C42 1_555 1_555
H59 C44 1_555 1_555
H60 C45 1_555 1_555
H61 C46 1_555 1_555
H62 C47 1_555 1_555
H63 C48 1_555 1_555
Te4 Cl4 1_555 1_555
O4 Te4 1_555 1_555
C49 Te4 1_555 1_555
C50 C49 1_555 1_555
C51 O4 1_555 1_555
C52 C51 1_555 1_555
C53 C52 1_555 1_555
C54 C53 1_555 1_555
C55 C50 1_555 1_555
C56 C50 1_555 1_555
C57 C56 1_555 1_555
C58 C56 1_555 1_555
C59 Te4 1_555 1_555
C60 C59 1_555 1_555
C61 C60 1_555 1_555
C62 C61 1_555 1_555
C63 C62 1_555 1_555
C64 C59 1_555 1_555
H64 C49 1_555 1_555
H65 C49 1_555 1_555
H66 C51 1_555 1_555
H67 C52 1_555 1_555
H68 C52 1_555 1_555
H69 C53 1_555 1_555
H70 C54 1_555 1_555
H71 C54 1_555 1_555
H72 C55 1_555 1_555
H73 C55 1_555 1_555
H74 C58 1_555 1_555
H75 C58 1_555 1_555
H76 C58 1_555 1_555
H77 C57 1_555 1_555
H78 C57 1_555 1_555
H79 C57 1_555 1_555
H80 C60 1_555 1_555
H81 C61 1_555 1_555
H82 C62 1_555 1_555
H83 C63 1_555 1_555
H84 C64 1_555 1_555
Te5 Cl5 1_555 1_555
O5 Te5 1_555 1_555
C65 Te5 1_555 1_555
C66 C65 1_555 1_555
C67 O5 1_555 1_555
C68 C67 1_555 1_555
C69 C68 1_555 1_555
C70 C69 1_555 1_555
C71 C66 1_555 1_555
C72 C66 1_555 1_555
C73 C72 1_555 1_555
C74 C72 1_555 1_555
C75 Te5 1_555 1_555
C76 C75 1_555 1_555
C77 C76 1_555 1_555
C78 C77 1_555 1_555
C79 C78 1_555 1_555
C80 C75 1_555 1_555
H85 C65 1_555 1_555
H86 C65 1_555 1_555
H87 C71 1_555 1_555
H88 C71 1_555 1_555
H89 C70 1_555 1_555
H90 C70 1_555 1_555
H91 C69 1_555 1_555
H92 C68 1_555 1_555
H93 C68 1_555 1_555
H94 C67 1_555 1_555
H95 C74 1_555 1_555
H96 C74 1_555 1_555
H97 C74 1_555 1_555
H98 C73 1_555 1_555
H99 C73 1_555 1_555
H100 C73 1_555 1_555
H101 C76 1_555 1_555
H102 C77 1_555 1_555
H103 C78 1_555 1_555
H104 C79 1_555 1_555
H105 C80 1_555 1_555
Te6 Cl6 1_555 1_555
O6 Te6 1_555 1_555
C81 Te6 1_555 1_555
C82 C81 1_555 1_555
C83 O6 1_555 1_555
C84 C83 1_555 1_555
C85 C84 1_555 1_555
C86 C85 1_555 1_555
C87 C82 1_555 1_555
C88 C82 1_555 1_555
C89 C88 1_555 1_555
C90 C88 1_555 1_555
C91 Te6 1_555 1_555
C92 C91 1_555 1_555
C93 C92 1_555 1_555
C94 C93 1_555 1_555
C95 C94 1_555 1_555
C96 C91 1_555 1_555
H106 C81 1_555 1_555
H107 C81 1_555 1_555
H108 C83 1_555 1_555
H109 C84 1_555 1_555
H110 C84 1_555 1_555
H111 C85 1_555 1_555
H112 C86 1_555 1_555
H113 C86 1_555 1_555
H114 C87 1_555 1_555
H115 C87 1_555 1_555
H116 C90 1_555 1_555
H117 C90 1_555 1_555
H118 C90 1_555 1_555
H119 C89 1_555 1_555
H120 C89 1_555 1_555
H121 C89 1_555 1_555
H122 C92 1_555 1_555
H123 C93 1_555 1_555
H124 C94 1_555 1_555
H125 C95 1_555 1_555
H126 C96 1_555 1_555
C2 C3 1_555 1_555
C5 C8 1_555 1_555
C6 C7 1_555 1_555
C15 C16 1_555 1_555
C18 C19 1_555 1_555
C21 C24 1_555 1_555
C22 C23 1_555 1_555
C31 C32 1_555 1_555
C34 C35 1_555 1_555
C37 C40 1_555 1_555
C38 C39 1_555 1_555
C47 C48 1_555 1_555
C50 C51 1_555 1_555
C53 C56 1_555 1_555
C54 C55 1_555 1_555
C63 C64 1_555 1_555
C66 C67 1_555 1_555
C69 C72 1_555 1_555
C70 C71 1_555 1_555
C79 C80 1_555 1_555
C82 C83 1_555 1_555
C85 C88 1_555 1_555
C86 C87 1_555 1_555
C95 C96 1_555 1_555

#END
