
#######################################################################
#
#                 Cambridge Crystallographic Data Centre
#                                CCDC 
#
#######################################################################
#
# If this CIF has been generated from an entry in the Cambridge 
# Structural Database, then it will include bibliographic, chemical, 
# crystal, experimental, refinement or atomic coordinate data resulting 
# from the CCDC's data processing and validation procedures.
#
#######################################################################

data_NURGIR
_chemical_formula_moiety         'C20 H16 Cl1 N1 O3 S2'
_chemical_name_systematic        
7-Chloro-6-(4-methoxyphenyl)-9-(4-nitrophenyl)-1,4-dithiaspiro(4.4)nona-6,8-diene
_symmetry_cell_setting           monoclinic
_symmetry_space_group_name_H-M   'P 21/c'
_symmetry_Int_Tables_number      14
_space_group_name_Hall           '-P 2ybc'
loop_
_symmetry_equiv_pos_site_id
_symmetry_equiv_pos_as_xyz
1 x,y,z
2 -x,1/2+y,1/2-z
3 -x,-y,-z
4 x,1/2-y,1/2+z
_cell_length_a                   6.808(2)
_cell_length_b                   16.045(5)
_cell_length_c                   18.120(6)
_cell_angle_alpha                90
_cell_angle_beta                 96.286(6)
_cell_angle_gamma                90
_cell_volume                     1967.43
_exptl_crystal_colour            yellow
_exptl_crystal_description       acicular
_chemical_melting_point          '193-195 deg.C'
_cell_formula_units_Z            4
loop_
_atom_site_label
_atom_site_type_symbol
_atom_site_fract_x
_atom_site_fract_y
_atom_site_fract_z
C1 C 0.5712(6) 0.6508(2) 0.3997(2)
H1 H 0.4815 0.6706 0.3613
C2 C 0.6800(6) 0.7071(2) 0.4451(2)
H2 H 0.6634 0.7642 0.4382
C3 C 0.8141(5) 0.6762(2) 0.50104(18)
C4 C 0.8368(5) 0.5929(2) 0.51360(18)
H3 H 0.9271 0.5735 0.5520
C5 C 0.7252(4) 0.5382(2) 0.46912(17)
H4 H 0.7380 0.4813 0.4784
C6 C 0.5922(5) 0.56548(19) 0.41002(16)
C7 C 0.0005(15) 0.6225(9) 0.2640(6)
H5 H -0.0605 0.5820 0.2288
H6 H -0.0984 0.6629 0.2746
C8 C 0.175(2) 0.6658(9) 0.2327(7)
H7 H 0.2209 0.7123 0.2641
H8 H 0.1339 0.6869 0.1832
C9 C 0.3051(5) 0.5219(2) 0.30487(17)
C10 C 0.4808(4) 0.5038(2) 0.36226(16)
C11 C 0.5103(5) 0.4213(2) 0.36326(18)
H9 H 0.6087 0.3937 0.3935
C12 C 0.3663(5) 0.3820(2) 0.31035(19)
C13 C 0.2444(5) 0.4359(2) 0.27442(17)
C14 C 0.0773(5) 0.4214(2) 0.21611(17)
C15 C -0.1106(6) 0.4056(3) 0.2337(2)
H10 H -0.1330 0.4021 0.2834
C16 C -0.2666(6) 0.3947(3) 0.1791(2)
H11 H -0.3918 0.3838 0.1927
C17 C -0.2413(5) 0.3996(2) 0.1062(2)
C18 C -0.0544(6) 0.4140(3) 0.0874(2)
H12 H -0.0332 0.4170 0.0376
C19 C 0.1027(6) 0.4241(3) 0.1419(2)
H13 H 0.2285 0.4328 0.1280
C20 C -0.3870(7) 0.3935(4) -0.0201(2)
H14 H -0.5139 0.3850 -0.0477
H15 H -0.2970 0.3512 -0.0330
H16 H -0.3373 0.4474 -0.0317
O1 O 0.8864(5) 0.80795(19) 0.54840(15)
O2 O 1.0813(5) 0.7073(2) 0.58620(18)
O3 O -0.4058(4) 0.38903(19) 0.05691(15)
S1 S 0.10563(14) 0.57140(6) 0.34843(5)
S2 S 0.36988(16) 0.58973(6) 0.22963(5)
N1 N 0.9356(5) 0.7349(2) 0.54862(17)
Cl1 Cl 0.36590(16) 0.27525(6) 0.29772(7)
C21? C 0.052(2) 0.6577(12) 0.2870(9)
C22? C 0.124(2) 0.6357(11) 0.2162(8)
H17? H -0.0889 0.6682 0.2800
H18? H 0.1183 0.7075 0.3073
H19? H 0.1268 0.6853 0.1858
H20? H 0.0328 0.5964 0.1901
loop_
_geom_bond_atom_site_label_1
_geom_bond_atom_site_label_2
_geom_bond_site_symmetry_1
_geom_bond_site_symmetry_2
C1 H1 1_555 1_555
C2 C1 1_555 1_555
H2 C2 1_555 1_555
C3 C2 1_555 1_555
C4 C3 1_555 1_555
H3 C4 1_555 1_555
C5 C4 1_555 1_555
H4 C5 1_555 1_555
C6 C1 1_555 1_555
C7 H5 1_555 1_555
H6 C7 1_555 1_555
C8 C7 1_555 1_555
H7 C8 1_555 1_555
H8 C8 1_555 1_555
C9 C10 1_555 1_555
C10 C6 1_555 1_555
C11 C10 1_555 1_555
H9 C11 1_555 1_555
C12 C11 1_555 1_555
C13 C9 1_555 1_555
C14 C13 1_555 1_555
C15 C14 1_555 1_555
H10 C15 1_555 1_555
C16 C15 1_555 1_555
H11 C16 1_555 1_555
C17 C16 1_555 1_555
C18 C17 1_555 1_555
H12 C18 1_555 1_555
C19 C14 1_555 1_555
H13 C19 1_555 1_555
C20 H14 1_555 1_555
H15 C20 1_555 1_555
H16 C20 1_555 1_555
O1 N1 1_555 1_555
O2 N1 1_555 1_555
O3 C17 1_555 1_555
S1 C7 1_555 1_555
S2 C8 1_555 1_555
N1 C3 1_555 1_555
Cl1 C12 1_555 1_555
C5 C6 1_555 1_555
C9 S1 1_555 1_555
C9 S2 1_555 1_555
C12 C13 1_555 1_555
C18 C19 1_555 1_555
C20 O3 1_555 1_555

#END
