
#######################################################################
#
#                 Cambridge Crystallographic Data Centre
#                                CCDC 
#
#######################################################################
#
# If this CIF has been generated from an entry in the Cambridge 
# Structural Database, then it will include bibliographic, chemical, 
# crystal, experimental, refinement or atomic coordinate data resulting 
# from the CCDC's data processing and validation procedures.
#
#######################################################################

data_NURJIU
_chemical_formula_moiety         'C46 H40 N2'
_chemical_name_systematic        
meso-4,4'-(1,4-Phenylenebis((4,4-dimethylpent-1-yne-3,1-diyl)-2,1-phenylene-ethyne-2,1-diyl))dipyridine
_symmetry_cell_setting           monoclinic
_symmetry_space_group_name_H-M   'P 21/n'
_symmetry_Int_Tables_number      14
_space_group_name_Hall           '-P 2yn'
loop_
_symmetry_equiv_pos_site_id
_symmetry_equiv_pos_as_xyz
1 x,y,z
2 1/2-x,1/2+y,1/2-z
3 -x,-y,-z
4 1/2+x,1/2-y,1/2+z
_cell_length_a                   12.4736(7)
_cell_length_b                   5.9821(3)
_cell_length_c                   24.7092(14)
_cell_angle_alpha                90
_cell_angle_beta                 100.7890(10)
_cell_angle_gamma                90
_cell_volume                     1811.17
_exptl_crystal_colour            colorless
_exptl_crystal_description       irregular
_cell_formula_units_Z            2
_exptl_crystal_recrystallization_method dichloromethane/methanol
loop_
_atom_site_label
_atom_site_type_symbol
_atom_site_fract_x
_atom_site_fract_y
_atom_site_fract_z
N1 N 0.14292(16) 0.3341(3) -0.07769(7)
C1 C 0.55243(14) 1.1012(3) -0.03772(7)
H1 H 0.5885 1.1711 -0.0628
C2 C 0.55860(14) 1.1931(3) 0.01455(7)
H2 H 0.5983 1.3237 0.0237
C3 C 0.50672(13) 1.0937(3) 0.05319(7)
C4 C 0.51661(13) 1.1938(3) 0.11070(7)
H3 H 0.5324 1.3531 0.1072
C5 C 0.61256(13) 1.0968(3) 0.15476(7)
C6 C 0.60086(19) 0.8432(3) 0.16023(10)
H4 H 0.6072 0.7726 0.1261
H5 H 0.5308 0.8095 0.1689
H6 H 0.6572 0.7887 0.1891
C7 C 0.72109(16) 1.1509(4) 0.13786(10)
H7 H 0.7287 1.3100 0.1352
H8 H 0.7231 1.0839 0.1028
H9 H 0.7798 1.0928 0.1649
C8 C 0.61043(17) 1.2062(4) 0.21048(8)
H10 H 0.6710 1.1530 0.2372
H11 H 0.5435 1.1687 0.2221
H12 H 0.6155 1.3655 0.2071
C9 C 0.41199(13) 1.1818(3) 0.12991(7)
C10 C 0.32696(13) 1.1754(3) 0.14508(6)
C11 C 0.22616(12) 1.1725(3) 0.16534(6)
C12 C 0.21211(14) 1.3138(3) 0.20819(7)
H13 H 0.2672 1.4137 0.2227
C13 C 0.11746(15) 1.3076(3) 0.22943(8)
H14 H 0.1091 1.4031 0.2580
C14 C 0.03547(15) 1.1608(3) 0.20850(8)
H15 H -0.0276 1.1555 0.2235
C15 C 0.04609(14) 1.0216(3) 0.16545(8)
H16 H -0.0102 0.9241 0.1512
C16 C 0.14106(13) 1.0260(3) 0.14310(7)
C17 C 0.14986(14) 0.8852(3) 0.09716(7)
C18 C 0.15214(14) 0.7700(3) 0.05811(7)
C19 C 0.15105(13) 0.6258(3) 0.01152(7)
C20 C 0.08318(16) 0.6656(3) -0.03821(8)
H17 H 0.0388 0.7917 -0.0431
C21 C 0.08185(18) 0.5160(3) -0.08070(8)
H18 H 0.0347 0.5449 -0.1138
C22 C 0.2086(2) 0.2995(3) -0.02995(10)
H19 H 0.2531 0.1736 -0.0267
C23 C 0.21591(18) 0.4361(3) 0.01528(8)
H20 H 0.2636 0.4019 0.0479
N1B N 0.85708(16) 1.6659(3) 0.07769(7)
C1B C 0.44757(14) 0.8988(3) 0.03772(7)
H1B H 0.4115 0.8289 0.0628
C2B C 0.44140(14) 0.8069(3) -0.01455(7)
H2B H 0.4017 0.6763 -0.0237
C3B C 0.49328(13) 0.9063(3) -0.05319(7)
C4B C 0.48339(13) 0.8062(3) -0.11070(7)
H3B H 0.4676 0.6469 -0.1072
C5B C 0.38744(13) 0.9032(3) -0.15476(7)
C6B C 0.39914(19) 1.1568(3) -0.16023(10)
H4B H 0.3928 1.2274 -0.1261
H5B H 0.4692 1.1905 -0.1689
H6B H 0.3428 1.2113 -0.1891
C7B C 0.27891(16) 0.8491(4) -0.13786(10)
H7B H 0.2713 0.6900 -0.1352
H8B H 0.2769 0.9161 -0.1028
H9B H 0.2202 0.9072 -0.1649
C8B C 0.38957(17) 0.7938(4) -0.21048(8)
H10B H 0.3290 0.8470 -0.2372
H11B H 0.4565 0.8313 -0.2221
H12B H 0.3845 0.6345 -0.2071
C9B C 0.58801(13) 0.8182(3) -0.12991(7)
C10B C 0.67304(13) 0.8246(3) -0.14508(6)
C11B C 0.77384(12) 0.8275(3) -0.16534(6)
C12B C 0.78789(14) 0.6862(3) -0.20819(7)
H13B H 0.7328 0.5863 -0.2227
C13B C 0.88254(15) 0.6924(3) -0.22943(8)
H14B H 0.8909 0.5969 -0.2580
C14B C 0.96453(15) 0.8392(3) -0.20850(8)
H15B H 1.0276 0.8445 -0.2235
C15B C 0.95391(14) 0.9784(3) -0.16545(8)
H16B H 1.0102 1.0759 -0.1512
C16B C 0.85894(13) 0.9740(3) -0.14310(7)
C17B C 0.85014(14) 1.1148(3) -0.09716(7)
C18B C 0.84786(14) 1.2300(3) -0.05811(7)
C19B C 0.84895(13) 1.3742(3) -0.01152(7)
C20B C 0.91682(16) 1.3344(3) 0.03821(8)
H17B H 0.9612 1.2083 0.0431
C21B C 0.91815(18) 1.4840(3) 0.08070(8)
H18B H 0.9653 1.4551 0.1138
C22B C 0.7914(2) 1.7005(3) 0.02995(10)
H19B H 0.7469 1.8264 0.0267
C23B C 0.78409(18) 1.5639(3) -0.01528(8)
H20B H 0.7364 1.5981 -0.0479
loop_
_geom_bond_atom_site_label_1
_geom_bond_atom_site_label_2
_geom_bond_site_symmetry_1
_geom_bond_site_symmetry_2
N1 C21 1_555 1_555
C1 H1 1_555 1_555
C2 C1 1_555 1_555
H2 C2 1_555 1_555
C3 C2 1_555 1_555
C4 C3 1_555 1_555
H3 C4 1_555 1_555
C5 C4 1_555 1_555
C6 C5 1_555 1_555
H4 C6 1_555 1_555
H5 C6 1_555 1_555
H6 C6 1_555 1_555
C7 C5 1_555 1_555
H7 C7 1_555 1_555
H8 C7 1_555 1_555
H9 C7 1_555 1_555
C8 C5 1_555 1_555
H10 C8 1_555 1_555
H11 C8 1_555 1_555
H12 C8 1_555 1_555
C9 C4 1_555 1_555
C10 C9 1_555 1_555
C11 C10 1_555 1_555
C12 C11 1_555 1_555
H13 C12 1_555 1_555
C13 C12 1_555 1_555
H14 C13 1_555 1_555
C14 C13 1_555 1_555
H15 C14 1_555 1_555
C15 C14 1_555 1_555
H16 C15 1_555 1_555
C16 C11 1_555 1_555
C17 C16 1_555 1_555
C18 C17 1_555 1_555
C19 C18 1_555 1_555
C20 C19 1_555 1_555
H17 C20 1_555 1_555
C21 C20 1_555 1_555
H18 C21 1_555 1_555
C22 N1 1_555 1_555
H19 C22 1_555 1_555
C23 C19 1_555 1_555
H20 C23 1_555 1_555
N1B C21B 1_555 1_555
C1B C3 1_555 1_555
H1B C1B 1_555 1_555
C2B C1B 1_555 1_555
H2B C2B 1_555 1_555
C3B C1 1_555 1_555
C4B C3B 1_555 1_555
H3B C4B 1_555 1_555
C5B C4B 1_555 1_555
C6B C5B 1_555 1_555
H4B C6B 1_555 1_555
H5B C6B 1_555 1_555
H6B C6B 1_555 1_555
C7B C5B 1_555 1_555
H7B C7B 1_555 1_555
H8B C7B 1_555 1_555
H9B C7B 1_555 1_555
C8B C5B 1_555 1_555
H10B C8B 1_555 1_555
H11B C8B 1_555 1_555
H12B C8B 1_555 1_555
C9B C4B 1_555 1_555
C10B C9B 1_555 1_555
C11B C10B 1_555 1_555
C12B C11B 1_555 1_555
H13B C12B 1_555 1_555
C13B C12B 1_555 1_555
H14B C13B 1_555 1_555
C14B C13B 1_555 1_555
H15B C14B 1_555 1_555
C15B C14B 1_555 1_555
H16B C15B 1_555 1_555
C16B C11B 1_555 1_555
C17B C16B 1_555 1_555
C18B C17B 1_555 1_555
C19B C18B 1_555 1_555
C20B C19B 1_555 1_555
H17B C20B 1_555 1_555
C21B C20B 1_555 1_555
H18B C21B 1_555 1_555
C22B N1B 1_555 1_555
H19B C22B 1_555 1_555
C23B C19B 1_555 1_555
H20B C23B 1_555 1_555
C15 C16 1_555 1_555
C22 C23 1_555 1_555
C2B C3B 1_555 1_555
C15B C16B 1_555 1_555
C22B C23B 1_555 1_555

#END
