
#######################################################################
#
#                 Cambridge Crystallographic Data Centre
#                                CCDC 
#
#######################################################################
#
# If this CIF has been generated from an entry in the Cambridge 
# Structural Database, then it will include bibliographic, chemical, 
# crystal, experimental, refinement or atomic coordinate data resulting 
# from the CCDC's data processing and validation procedures.
#
#######################################################################

data_NURKAN
_chemical_formula_moiety         'C46 H40 N2'
_chemical_name_systematic        
4,4'-(6,9-Di-t-butyl-5,10-dihydrodiindeno[2,1-b:1',2'-h]phenanthrene-15,16-diyl)dipyridine
_symmetry_cell_setting           monoclinic
_symmetry_space_group_name_H-M   'C 2/c'
_symmetry_Int_Tables_number      15
_space_group_name_Hall           '-C 2yn'
loop_
_symmetry_equiv_pos_site_id
_symmetry_equiv_pos_as_xyz
1 x,y,z
2 -x,y,1/2-z
3 1/2+x,1/2+y,z
4 1/2-x,1/2+y,1/2-z
5 -x,-y,-z
6 x,-y,1/2+z
7 1/2-x,1/2-y,-z
8 1/2+x,1/2-y,1/2+z
_cell_length_a                   17.9360(11)
_cell_length_b                   10.3982(7)
_cell_length_c                   20.0030(13)
_cell_angle_alpha                90
_cell_angle_beta                 116.370(1)
_cell_angle_gamma                90
_cell_volume                     3342.41
_exptl_crystal_colour            colorless
_exptl_crystal_description       irregular
_chemical_melting_point          'above 350 deg.C'
_cell_formula_units_Z            4
_exptl_crystal_recrystallization_method dichloromethane/methanol
loop_
_atom_site_label
_atom_site_type_symbol
_atom_site_fract_x
_atom_site_fract_y
_atom_site_fract_z
N1 N 0.16446(13) 0.16880(19) 0.39840(12)
C1 C 0.00610(11) 0.78913(14) 0.21912(10)
H1 H 0.0046 0.8671 0.1958
C2 C 0.02139(9) 0.67353(13) 0.18782(9)
C3 C 0.04584(10) 0.67354(14) 0.12838(9)
C4 C 0.08749(9) 0.56451(14) 0.12276(9)
C5 C 0.13119(11) 0.54096(16) 0.07389(10)
H2 H 0.0912 0.5277 0.0223
H3 H 0.1669 0.6128 0.0765
C6 C 0.18113(10) 0.42207(16) 0.10598(10)
C7 C 0.23647(12) 0.36343(18) 0.08427(12)
H4 H 0.2449 0.3968 0.0450
C8 C 0.27863(12) 0.2552(2) 0.12167(12)
H5 H 0.3149 0.2138 0.1070
C9 C 0.26702(12) 0.2080(2) 0.18104(12)
H6 H 0.2965 0.1356 0.2064
C10 C 0.21240(11) 0.26645(18) 0.20330(11)
H7 H 0.2058 0.2343 0.2437
C11 C 0.16730(9) 0.37404(15) 0.16463(9)
C12 C 0.10512(9) 0.45884(14) 0.17341(8)
C13 C 0.06972(8) 0.45178(13) 0.22275(8)
C14 C 0.02172(8) 0.55848(13) 0.22618(8)
C15 C 0.09697(9) 0.35056(14) 0.28206(9)
C16 C 0.08908(10) 0.21948(15) 0.26807(11)
H8 H 0.0609 0.1891 0.2194
C17 C 0.12366(13) 0.13374(18) 0.32749(14)
H9 H 0.1178 0.0462 0.3168
C18 C 0.17095(14) 0.2953(2) 0.41121(11)
H10 H 0.1991 0.3229 0.4604
C19 C 0.13869(11) 0.38735(17) 0.35633(9)
H11 H 0.1448 0.4741 0.3690
C20 C 0.02981(11) 0.79470(16) 0.07810(10)
C21 C 0.03073(17) 0.7670(2) 0.00274(13)
H12 H 0.0870 0.7535 0.0106
H13 H 0.0074 0.8389 -0.0301
H14 H -0.0016 0.6914 -0.0192
C22 C 0.09782(14) 0.89559(19) 0.11957(14)
H15 H 0.1002 0.9121 0.1677
H16 H 0.0849 0.9739 0.0912
H17 H 0.1507 0.8636 0.1256
C23 C -0.05873(13) 0.8482(2) 0.05485(13)
H18 H -0.0991 0.7832 0.0283
H19 H -0.0677 0.9218 0.0232
H20 H -0.0644 0.8730 0.0986
N1A N -0.16446(13) 0.16880(19) 0.10160(12)
C1A C -0.00610(11) 0.78913(14) 0.28088(10)
H1A H -0.0046 0.8671 0.3042
C2A C -0.02139(9) 0.67353(13) 0.31218(9)
C3A C -0.04584(10) 0.67354(14) 0.37162(9)
C4A C -0.08749(9) 0.56451(14) 0.37724(9)
C5A C -0.13119(11) 0.54096(16) 0.42611(10)
H2A H -0.0912 0.5277 0.4777
H3A H -0.1669 0.6128 0.4235
C6A C -0.18113(10) 0.42207(16) 0.39402(10)
C7A C -0.23647(12) 0.36343(18) 0.41573(12)
H4A H -0.2449 0.3968 0.4550
C8A C -0.27863(12) 0.2552(2) 0.37833(12)
H5A H -0.3149 0.2138 0.3930
C9A C -0.26702(12) 0.2080(2) 0.31896(12)
H6A H -0.2965 0.1356 0.2936
C10A C -0.21240(11) 0.26645(18) 0.29670(11)
H7A H -0.2058 0.2343 0.2563
C11A C -0.16730(9) 0.37404(15) 0.33537(9)
C12A C -0.10512(9) 0.45884(14) 0.32659(8)
C13A C -0.06972(8) 0.45178(13) 0.27725(8)
C14A C -0.02172(8) 0.55848(13) 0.27382(8)
C15A C -0.09697(9) 0.35056(14) 0.21794(9)
C16A C -0.08908(10) 0.21948(15) 0.23193(11)
H8A H -0.0609 0.1891 0.2806
C17A C -0.12366(13) 0.13374(18) 0.17251(14)
H9A H -0.1178 0.0462 0.1832
C18A C -0.17095(14) 0.2953(2) 0.08879(11)
H10A H -0.1991 0.3229 0.0396
C19A C -0.13869(11) 0.38735(17) 0.14367(9)
H11A H -0.1448 0.4741 0.1310
C20A C -0.02981(11) 0.79470(16) 0.42190(10)
C21A C -0.03073(17) 0.7670(2) 0.49726(13)
H12A H -0.0870 0.7535 0.4894
H13A H -0.0074 0.8389 0.5301
H14A H 0.0016 0.6914 0.5192
C22A C -0.09782(14) 0.89559(19) 0.38043(14)
H15A H -0.1002 0.9121 0.3323
H16A H -0.0849 0.9739 0.4088
H17A H -0.1507 0.8636 0.3744
C23A C 0.05873(13) 0.8482(2) 0.44515(13)
H18A H 0.0991 0.7832 0.4717
H19A H 0.0677 0.9218 0.4768
H20A H 0.0644 0.8730 0.4014
loop_
_geom_bond_atom_site_label_1
_geom_bond_atom_site_label_2
_geom_bond_site_symmetry_1
_geom_bond_site_symmetry_2
N1 C17 1_555 1_555
C1 H1 1_555 1_555
C2 C1 1_555 1_555
C3 C2 1_555 1_555
C4 C3 1_555 1_555
C5 C4 1_555 1_555
H2 C5 1_555 1_555
H3 C5 1_555 1_555
C6 C5 1_555 1_555
C7 C6 1_555 1_555
H4 C7 1_555 1_555
C8 C7 1_555 1_555
H5 C8 1_555 1_555
C9 C8 1_555 1_555
H6 C9 1_555 1_555
C10 C9 1_555 1_555
H7 C10 1_555 1_555
C11 C6 1_555 1_555
C12 C4 1_555 1_555
C13 C12 1_555 1_555
C14 C2 1_555 1_555
C15 C13 1_555 1_555
C16 C15 1_555 1_555
H8 C16 1_555 1_555
C17 C16 1_555 1_555
H9 C17 1_555 1_555
C18 N1 1_555 1_555
H10 C18 1_555 1_555
C19 C15 1_555 1_555
H11 C19 1_555 1_555
C20 C3 1_555 1_555
C21 C20 1_555 1_555
H12 C21 1_555 1_555
H13 C21 1_555 1_555
H14 C21 1_555 1_555
C22 C20 1_555 1_555
H15 C22 1_555 1_555
H16 C22 1_555 1_555
H17 C22 1_555 1_555
C23 C20 1_555 1_555
H18 C23 1_555 1_555
H19 C23 1_555 1_555
H20 C23 1_555 1_555
N1A C17A 1_555 1_555
C1A C1 1_555 1_555
H1A C1A 1_555 1_555
C2A C1A 1_555 1_555
C3A C2A 1_555 1_555
C4A C3A 1_555 1_555
C5A C4A 1_555 1_555
H2A C5A 1_555 1_555
H3A C5A 1_555 1_555
C6A C5A 1_555 1_555
C7A C6A 1_555 1_555
H4A C7A 1_555 1_555
C8A C7A 1_555 1_555
H5A C8A 1_555 1_555
C9A C8A 1_555 1_555
H6A C9A 1_555 1_555
C10A C9A 1_555 1_555
H7A C10A 1_555 1_555
C11A C6A 1_555 1_555
C12A C4A 1_555 1_555
C13A C12A 1_555 1_555
C14A C14 1_555 1_555
C15A C13A 1_555 1_555
C16A C15A 1_555 1_555
H8A C16A 1_555 1_555
C17A C16A 1_555 1_555
H9A C17A 1_555 1_555
C18A N1A 1_555 1_555
H10A C18A 1_555 1_555
C19A C15A 1_555 1_555
H11A C19A 1_555 1_555
C20A C3A 1_555 1_555
C21A C20A 1_555 1_555
H12A C21A 1_555 1_555
H13A C21A 1_555 1_555
H14A C21A 1_555 1_555
C22A C20A 1_555 1_555
H15A C22A 1_555 1_555
H16A C22A 1_555 1_555
H17A C22A 1_555 1_555
C23A C20A 1_555 1_555
H18A C23A 1_555 1_555
H19A C23A 1_555 1_555
H20A C23A 1_555 1_555
C10 C11 1_555 1_555
C11 C12 1_555 1_555
C13 C14 1_555 1_555
C18 C19 1_555 1_555
C2A C14A 1_555 1_555
C10A C11A 1_555 1_555
C11A C12A 1_555 1_555
C13A C14A 1_555 1_555
C18A C19A 1_555 1_555

#END
