
#######################################################################
#
#                 Cambridge Crystallographic Data Centre
#                                CCDC 
#
#######################################################################
#
# If this CIF has been generated from an entry in the Cambridge 
# Structural Database, then it will include bibliographic, chemical, 
# crystal, experimental, refinement or atomic coordinate data resulting 
# from the CCDC's data processing and validation procedures.
#
#######################################################################

data_NURLER
_chemical_name_common            
'1,2-bis(4-(1-o-Carboranyl)phenyl)-o-carborane acetonitrile solvate'
_chemical_formula_moiety         'C18 H40 B30,C2 H3 N1'
_chemical_name_systematic        
'1,2-bis(4-(1,2-Dicarba-closo-dodecaboranyl(12))phenyl)-1,2-dicarba-closo-dodecaborane(12) acetonitrile solvate'
_symmetry_cell_setting           monoclinic
_symmetry_space_group_name_H-M   'P 21/c'
_symmetry_Int_Tables_number      14
_space_group_name_Hall           '-P 2ybc'
loop_
_symmetry_equiv_pos_site_id
_symmetry_equiv_pos_as_xyz
1 x,y,z
2 x,1/2-y,1/2+z
3 -x,-y,-z
4 -x,1/2+y,1/2-z
_cell_length_a                   20.6055(3)
_cell_length_b                   12.4998(2)
_cell_length_c                   15.174
_cell_angle_alpha                90
_cell_angle_beta                 109.1790(10)
_cell_angle_gamma                90
_cell_volume                     3691.36
_exptl_crystal_colour            colorless
_exptl_crystal_description       plate
_cell_formula_units_Z            4
loop_
_atom_site_label
_atom_site_type_symbol
_atom_site_fract_x
_atom_site_fract_y
_atom_site_fract_z
C1 C 0.1095(3) 0.0569(5) 0.3405(4)
C2 C 0.1736(3) 0.0069(5) 0.3623(4)
H1 H 0.1976(3) 0.0079(5) 0.3185(4)
C3 C 0.2023(3) -0.0438(5) 0.4470(5)
H2 H 0.2464(3) -0.0755(5) 0.4611(5)
C4 C 0.1684(3) -0.0496(5) 0.5121(4)
C5 C 0.1040(3) -0.0005(5) 0.4895(4)
H3 H 0.0793(3) -0.0032(5) 0.5325(4)
C6 C 0.0758(3) 0.0518(5) 0.4055(4)
H4 H 0.0322(3) 0.0852(5) 0.3921(4)
C7 C 0.1741(3) 0.2731(5) 0.3128(4)
C8 C 0.1659(3) 0.3382(5) 0.3824(5)
H5 H 0.1211(3) 0.3616(5) 0.3784(5)
C9 C 0.2219(3) 0.3701(5) 0.4580(5)
H6 H 0.2153(3) 0.4152(5) 0.5047(5)
C10 C 0.2879(3) 0.3356(5) 0.4651(4)
C11 C 0.2960(3) 0.2762(6) 0.3920(5)
H7 H 0.3408(3) 0.2569(6) 0.3932(5)
C12 C 0.2400(3) 0.2450(5) 0.3181(5)
H8 H 0.2469(3) 0.2032(5) 0.2696(5)
C13 C 0.0763(3) 0.1136(5) 0.2491(4)
C14 C 0.1121(3) 0.2351(5) 0.2349(4)
C15 C 0.2004(3) -0.1067(5) 0.6031(4)
C16 C 0.1751(3) -0.2319(5) 0.6144(5)
H9 H 0.1413(24) -0.2636(23) 0.5660(34)
C17 C 0.3481(3) 0.3662(5) 0.5495(4)
C18 C 0.4202(3) 0.2990(6) 0.5688(5)
H10 H 0.4227(4) 0.2432(41) 0.5277(30)
B1 B 0.1214(4) 0.1230(6) 0.1708(5)
H11 H 0.1717(4) 0.0818(6) 0.1815(5)
B2 B 0.0443(4) 0.0501(6) 0.1441(5)
H12 H 0.0433(4) -0.0390(6) 0.1360(5)
B3 B -0.0110(3) 0.1175(6) 0.1955(5)
H13 H -0.0486(3) 0.0731(6) 0.2208(5)
B4 B 0.0337(4) 0.2325(6) 0.2549(5)
H14 H 0.0264(4) 0.2632(6) 0.3203(5)
B5 B 0.1046(4) 0.2518(6) 0.1201(5)
H15 H 0.1433(4) 0.2958(6) 0.0965(5)
B6 B 0.0595(4) 0.1370(6) 0.0600(5)
H16 H 0.0679(4) 0.1056(6) -0.0046(5)
B7 B -0.0228(4) 0.1340(6) 0.0749(5)
H17 H -0.0690(4) 0.1006(6) 0.0200(5)
B8 B -0.0288(4) 0.2471(6) 0.1443(5)
H18 H -0.0788(4) 0.2886(6) 0.1354(5)
B9 B 0.0493(4) 0.3191(6) 0.1712(5)
H19 H 0.0513(4) 0.4081(6) 0.1805(5)
B10 B 0.0141(4) 0.2583(6) 0.0594(5)
H20 H -0.0076(4) 0.3067(6) -0.0058(5)
B11 B 0.1507(4) -0.1318(7) 0.6737(5)
H21 H 0.0967(4) -0.1026(7) 0.6578(5)
B12 B 0.2217(4) -0.0436(7) 0.7087(5)
H22 H 0.2150(4) 0.0444(7) 0.7168(5)
B13 B 0.2862(4) -0.0943(7) 0.6653(5)
H23 H 0.3219(4) -0.0397(7) 0.6449(5)
B14 B 0.2544(4) -0.2155(6) 0.6019(6)
H24 H 0.2682(4) -0.2410(6) 0.5396(6)
B15 B 0.1769(4) -0.2582(7) 0.7241(5)
H25 H 0.1402(4) -0.3129(7) 0.7423(5)
B16 B 0.2081(4) -0.1398(7) 0.7885(6)
H26 H 0.1929(4) -0.1157(7) 0.8500(6)
B17 B 0.2929(4) -0.1166(7) 0.7839(6)
H27 H 0.3336(4) -0.0768(7) 0.8427(6)
B18 B 0.3131(4) -0.2222(7) 0.7175(6)
H28 H 0.3670(4) -0.2517(7) 0.7328(6)
B19 B 0.2408(4) -0.3096(7) 0.6799(6)
H29 H 0.2461(4) -0.3973(7) 0.6690(6)
B20 B 0.2649(4) -0.2505(7) 0.7934(6)
H30 H 0.2870(4) -0.2991(7) 0.8583(6)
B21 B 0.4168(4) 0.4281(7) 0.5283(6)
H31 H 0.4177(4) 0.4510(7) 0.4573(6)
B22 B 0.3652(4) 0.4969(7) 0.5843(6)
H32 H 0.3320(4) 0.5665(7) 0.5509(6)
B23 B 0.3391(4) 0.4002(7) 0.6543(5)
H33 H 0.2885(4) 0.4070(7) 0.6664(5)
B24 B 0.3727(4) 0.2732(7) 0.6412(5)
H34 H 0.3450(4) 0.1967(7) 0.6435(5)
B25 B 0.4913(4) 0.3789(7) 0.6153(6)
H35 H 0.5414(4) 0.3705(7) 0.6020(6)
B26 B 0.4566(4) 0.5057(7) 0.6284(6)
H36 H 0.4839(4) 0.5820(7) 0.6244(6)
B27 B 0.4091(4) 0.4886(7) 0.7079(6)
H37 H 0.4053(4) 0.5540(7) 0.7565(6)
B28 B 0.4136(4) 0.3512(8) 0.7407(6)
H38 H 0.4130(4) 0.3261(8) 0.8113(6)
B29 B 0.4640(4) 0.2837(7) 0.6848(6)
H39 H 0.4966(4) 0.2129(7) 0.7166(6)
B30 B 0.4859(4) 0.4154(7) 0.7260(6)
H40 H 0.5331(4) 0.4325(7) 0.7868(6)
N1 N 0.4047(4) 0.0517(7) 0.4875(5)
C19 C 0.4150(4) -0.0370(8) 0.4949(6)
C20 C 0.4297(4) -0.1513(7) 0.5072(7)
H41 H 0.4227(30) -0.1844(11) 0.4462(8)
H42 H 0.3989(21) -0.1845(11) 0.5365(38)
H43 H 0.4775(10) -0.1617(7) 0.5471(35)
loop_
_geom_bond_atom_site_label_1
_geom_bond_atom_site_label_2
_geom_bond_site_symmetry_1
_geom_bond_site_symmetry_2
C1 C2 1_555 1_555
C2 H1 1_555 1_555
C3 C2 1_555 1_555
H2 C3 1_555 1_555
C4 C3 1_555 1_555
C5 C4 1_555 1_555
H3 C5 1_555 1_555
C6 C1 1_555 1_555
H4 C6 1_555 1_555
C7 C8 1_555 1_555
C8 H5 1_555 1_555
C9 C8 1_555 1_555
H6 C9 1_555 1_555
C10 C9 1_555 1_555
C11 C10 1_555 1_555
H7 C11 1_555 1_555
C12 C7 1_555 1_555
H8 C12 1_555 1_555
C13 C1 1_555 1_555
C14 C7 1_555 1_555
C15 C4 1_555 1_555
C16 C15 1_555 1_555
H9 C16 1_555 1_555
C17 C10 1_555 1_555
C18 C17 1_555 1_555
H10 C18 1_555 1_555
B1 C13 1_555 1_555
H11 B1 1_555 1_555
B2 C13 1_555 1_555
H12 B2 1_555 1_555
B3 C13 1_555 1_555
H13 B3 1_555 1_555
B4 C13 1_555 1_555
H14 B4 1_555 1_555
B5 C14 1_555 1_555
H15 B5 1_555 1_555
B6 B1 1_555 1_555
H16 B6 1_555 1_555
B7 B2 1_555 1_555
H17 B7 1_555 1_555
B8 B3 1_555 1_555
H18 B8 1_555 1_555
B9 C14 1_555 1_555
H19 B9 1_555 1_555
B10 B5 1_555 1_555
H20 B10 1_555 1_555
B11 C15 1_555 1_555
H21 B11 1_555 1_555
B12 C15 1_555 1_555
H22 B12 1_555 1_555
B13 C15 1_555 1_555
H23 B13 1_555 1_555
B14 C15 1_555 1_555
H24 B14 1_555 1_555
B15 C16 1_555 1_555
H25 B15 1_555 1_555
B16 B11 1_555 1_555
H26 B16 1_555 1_555
B17 B12 1_555 1_555
H27 B17 1_555 1_555
B18 B13 1_555 1_555
H28 B18 1_555 1_555
B19 C16 1_555 1_555
H29 B19 1_555 1_555
B20 B15 1_555 1_555
H30 B20 1_555 1_555
B21 C17 1_555 1_555
H31 B21 1_555 1_555
B22 C17 1_555 1_555
H32 B22 1_555 1_555
B23 C17 1_555 1_555
H33 B23 1_555 1_555
B24 C17 1_555 1_555
H34 B24 1_555 1_555
B25 C18 1_555 1_555
H35 B25 1_555 1_555
B26 B21 1_555 1_555
H36 B26 1_555 1_555
B27 B22 1_555 1_555
H37 B27 1_555 1_555
B28 B23 1_555 1_555
H38 B28 1_555 1_555
B29 C18 1_555 1_555
H39 B29 1_555 1_555
B30 B25 1_555 1_555
H40 B30 1_555 1_555
N1 C19 1_555 1_555
C19 C20 1_555 1_555
C20 H41 1_555 1_555
H42 C20 1_555 1_555
H43 C20 1_555 1_555
C5 C6 1_555 1_555
C11 C12 1_555 1_555
C13 C14 1_555 1_555
C14 B1 1_555 1_555
C14 B4 1_555 1_555
C16 B11 1_555 1_555
C16 B14 1_555 1_555
C18 B21 1_555 1_555
C18 B24 1_555 1_555
B1 B5 1_555 1_555
B1 B2 1_555 1_555
B2 B6 1_555 1_555
B2 B3 1_555 1_555
B3 B7 1_555 1_555
B3 B4 1_555 1_555
B4 B9 1_555 1_555
B4 B8 1_555 1_555
B5 B9 1_555 1_555
B5 B6 1_555 1_555
B6 B10 1_555 1_555
B6 B7 1_555 1_555
B7 B8 1_555 1_555
B7 B10 1_555 1_555
B8 B9 1_555 1_555
B8 B10 1_555 1_555
B9 B10 1_555 1_555
B11 B15 1_555 1_555
B11 B12 1_555 1_555
B12 B16 1_555 1_555
B12 B13 1_555 1_555
B13 B17 1_555 1_555
B13 B14 1_555 1_555
B14 B19 1_555 1_555
B14 B18 1_555 1_555
B15 B19 1_555 1_555
B15 B16 1_555 1_555
B16 B20 1_555 1_555
B16 B17 1_555 1_555
B17 B18 1_555 1_555
B17 B20 1_555 1_555
B18 B19 1_555 1_555
B18 B20 1_555 1_555
B19 B20 1_555 1_555
B21 B25 1_555 1_555
B21 B22 1_555 1_555
B22 B26 1_555 1_555
B22 B23 1_555 1_555
B23 B27 1_555 1_555
B23 B24 1_555 1_555
B24 B29 1_555 1_555
B24 B28 1_555 1_555
B25 B29 1_555 1_555
B25 B26 1_555 1_555
B26 B30 1_555 1_555
B26 B27 1_555 1_555
B27 B28 1_555 1_555
B27 B30 1_555 1_555
B28 B29 1_555 1_555
B28 B30 1_555 1_555
B29 B30 1_555 1_555

#END
