
#######################################################################
#
#                 Cambridge Crystallographic Data Centre
#                                CCDC 
#
#######################################################################
#
# If this CIF has been generated from an entry in the Cambridge 
# Structural Database, then it will include bibliographic, chemical, 
# crystal, experimental, refinement or atomic coordinate data resulting 
# from the CCDC's data processing and validation procedures.
#
#######################################################################

data_NURNIY
_chemical_formula_moiety         'C9 H13 Cl1 N6 O2 S1'
_chemical_name_systematic        
1-((2-Chloro-1,3-thiazol-5-yl)methyl)-5-ethyl-N-nitro-1,3,5-triazinan-2-imine
_symmetry_cell_setting           monoclinic
_symmetry_space_group_name_H-M   'P 21/c'
_symmetry_Int_Tables_number      14
_space_group_name_Hall           '-P 2ybc'
loop_
_symmetry_equiv_pos_site_id
_symmetry_equiv_pos_as_xyz
1 x,y,z
2 -x,1/2+y,1/2-z
3 -x,-y,-z
4 x,1/2-y,1/2+z
_cell_length_a                   13.7711(5)
_cell_length_b                   10.3883(4)
_cell_length_c                   9.7623(2)
_cell_angle_alpha                90
_cell_angle_beta                 105.7010(10)
_cell_angle_gamma                90
_cell_volume                     1344.47
_exptl_crystal_colour            colorless
_exptl_crystal_description       block
_cell_formula_units_Z            4
loop_
_atom_site_label
_atom_site_type_symbol
_atom_site_fract_x
_atom_site_fract_y
_atom_site_fract_z
C1 C 0.59901(18) 0.1308(2) 1.1821(3)
C2 C 0.65300(18) -0.0595(2) 1.1615(3)
H1 H 0.6493 -0.1489 1.1569
C3 C 0.73633(16) 0.00394(19) 1.1515(2)
C4 C 0.83277(16) -0.0512(2) 1.1347(2)
H2 H 0.8889 -0.0045 1.1960
H3 H 0.8380 -0.1402 1.1658
C5 C 0.79363(17) -0.15302(19) 0.8931(2)
H4 H 0.8374 -0.2277 0.9139
H5 H 0.7303 -0.1757 0.9126
C6 C 0.86723(16) -0.0685(2) 0.7255(2)
H6 H 0.8577 -0.0481 0.6258
H7 H 0.9210 -0.1315 0.7530
C7 C 0.88132(13) 0.05617(17) 0.93931(19)
C8 C 0.68658(17) -0.0358(2) 0.6952(3)
H8 H 0.7007 0.0460 0.7445
H9 H 0.6288 -0.0738 0.7187
C9 C 0.6611(2) -0.0126(3) 0.5385(3)
H10 H 0.7121 0.0404 0.5170
H11 H 0.5970 0.0300 0.5081
H12 H 0.6577 -0.0935 0.4898
Cl1 Cl 0.52308(7) 0.25434(8) 1.20855(15)
N1 N 0.57358(15) 0.0134(2) 1.1789(2)
N2 N 0.84110(13) -0.04583(15) 0.98884(17)
N3 N 0.77488(13) -0.12190(16) 0.74591(19)
N4 N 0.89546(12) 0.04808(15) 0.81116(17)
H13 H 0.9155(15) 0.1125(15) 0.772(2)
N5 N 0.90148(13) 0.15672(14) 1.03135(17)
N6 N 0.94592(13) 0.26130(15) 0.99551(18)
O1 O 0.96770(16) 0.34660(15) 1.08597(18)
O2 O 0.96671(15) 0.27409(16) 0.88155(18)
S1 S 0.71636(5) 0.16576(5) 1.16309(10)
loop_
_geom_bond_atom_site_label_1
_geom_bond_atom_site_label_2
_geom_bond_site_symmetry_1
_geom_bond_site_symmetry_2
C1 Cl1 1_555 1_555
C2 H1 1_555 1_555
C3 C2 1_555 1_555
C4 C3 1_555 1_555
H2 C4 1_555 1_555
H3 C4 1_555 1_555
C5 H4 1_555 1_555
H5 C5 1_555 1_555
C6 H6 1_555 1_555
H7 C6 1_555 1_555
C7 N2 1_555 1_555
C8 H8 1_555 1_555
H9 C8 1_555 1_555
C9 C8 1_555 1_555
H10 C9 1_555 1_555
H11 C9 1_555 1_555
H12 C9 1_555 1_555
N1 C1 1_555 1_555
N2 C4 1_555 1_555
N3 C5 1_555 1_555
N4 C6 1_555 1_555
H13 N4 1_555 1_555
N5 C7 1_555 1_555
N6 N5 1_555 1_555
O1 N6 1_555 1_555
O2 N6 1_555 1_555
S1 C1 1_555 1_555
C2 N1 1_555 1_555
C3 S1 1_555 1_555
C5 N2 1_555 1_555
C6 N3 1_555 1_555
C7 N4 1_555 1_555
C8 N3 1_555 1_555

#END
