
#######################################################################
#
#                 Cambridge Crystallographic Data Centre
#                                CCDC 
#
#######################################################################
#
# If this CIF has been generated from an entry in the Cambridge 
# Structural Database, then it will include bibliographic, chemical, 
# crystal, experimental, refinement or atomic coordinate data resulting 
# from the CCDC's data processing and validation procedures.
#
#######################################################################

data_NURNUK
_chemical_formula_moiety         'C21 H20 N2 O5'
_chemical_name_systematic        
'Ethyl 3-amino-1-(1-cyano-2-ethoxy-2-oxoethyl)-1H-benzo[f]chromene-2-carboxylate'
_symmetry_cell_setting           monoclinic
_symmetry_space_group_name_H-M   'P 21/n'
_symmetry_Int_Tables_number      14
_space_group_name_Hall           '-P 2yn'
loop_
_symmetry_equiv_pos_site_id
_symmetry_equiv_pos_as_xyz
1 x,y,z
2 1/2-x,1/2+y,1/2-z
3 -x,-y,-z
4 1/2+x,1/2-y,1/2+z
_cell_length_a                   12.9408(18)
_cell_length_b                   11.1870(13)
_cell_length_c                   13.8975(19)
_cell_angle_alpha                90
_cell_angle_beta                 109.261(2)
_cell_angle_gamma                90
_cell_volume                     1899.31
_exptl_crystal_colour            colorless
_exptl_crystal_description       block
_chemical_melting_point          '415 K'
_cell_formula_units_Z            4
loop_
_atom_site_label
_atom_site_type_symbol
_atom_site_fract_x
_atom_site_fract_y
_atom_site_fract_z
N1 N 0.6031(2) 0.0941(2) 0.6715(2)
H1 H 0.6405 0.0525 0.6427
H2 H 0.6148 0.0868 0.7359
N2 N 0.2722(2) 0.0298(3) 0.4994(2)
O1 O 0.52212(17) 0.1670(2) 0.5179(2)
O2 O 0.41140(18) 0.3303(2) 0.77852(16)
O3 O 0.55132(18) 0.19927(19) 0.82516(17)
O4 O 0.1927(18) 0.3939(12) 0.6312(17)
O5 O 0.17053(19) 0.1979(2) 0.66071(19)
C1 C 0.5267(3) 0.1700(3) 0.6163(3)
C2 C 0.4606(2) 0.2414(3) 0.6500(2)
C3 C 0.3746(2) 0.3147(2) 0.5738(2)
H3 H 0.3692 0.3916 0.6056
C4 C 0.4060(2) 0.3393(3) 0.4810(2)
C5 C 0.4764(3) 0.2651(3) 0.4574(3)
C6 C 0.5084(3) 0.2780(4) 0.3710(3)
H4 H 0.5573 0.2246 0.3581
C7 C 0.4666(3) 0.3701(4) 0.3067(3)
H5 H 0.4869 0.3797 0.2489
C8 C 0.3935(3) 0.4509(3) 0.3258(3)
C9 C 0.3634(2) 0.4372(3) 0.4144(2)
C10 C 0.2916(3) 0.5219(3) 0.4322(2)
H6 H 0.2716 0.5156 0.4904
C11 C 0.2505(3) 0.6138(3) 0.3651(3)
H7 H 0.2033 0.6692 0.3782
C12 C 0.2793(3) 0.6246(4) 0.2774(3)
H8 H 0.2506 0.6867 0.2319
C13 C 0.3484(3) 0.5454(4) 0.2582(3)
H9 H 0.3667 0.5533 0.1992
C14 C 0.4800(3) 0.2511(3) 0.7570(3)
C15 C 0.4310(3) 0.3659(4) 0.8871(3)
H10 H 0.5090 0.3698 0.9239
H11 H 0.3996 0.4441 0.8898
C16 C 0.3801(4) 0.2772(4) 0.9328(3)
H12 H 0.3069 0.2620 0.8883
H13 H 0.3777 0.3064 0.9970
H14 H 0.4218 0.2046 0.9434
C17 C 0.2573(2) 0.2549(3) 0.5385(2)
H15 H 0.2149 0.2928 0.4739
C18 C 0.2647(2) 0.1277(4) 0.5174(2)
C19 C 0.1944(3) 0.2741(4) 0.6117(3)
C20 C 0.1422(15) 0.431(2) 0.7045(18)
H16 H 0.1636 0.5125 0.7253
H17 H 0.1684 0.3804 0.7645
C21 C 0.021(2) 0.4236(13) 0.6625(13)
H18 H -0.0061 0.4813 0.6089
H19 H -0.0094 0.4399 0.7156
H20 H -0.0005 0.3448 0.6359
C22? C 0.078(2) 0.4183(14) 0.6482(13)
C23? C 0.1422(16) 0.4712(18) 0.7473(19)
H21? H 0.0376 0.3497 0.6600
H22? H 0.0249 0.4765 0.6093
H23? H 0.1891 0.4112 0.7891
H24? H 0.0935 0.5010 0.7809
H25? H 0.1860 0.5356 0.7363
O6? O 0.145(2) 0.3812(12) 0.5899(17)
loop_
_geom_bond_atom_site_label_1
_geom_bond_atom_site_label_2
_geom_bond_site_symmetry_1
_geom_bond_site_symmetry_2
N1 H1 1_555 1_555
H2 N1 1_555 1_555
N2 C18 1_555 1_555
O1 C1 1_555 1_555
O2 C14 1_555 1_555
O3 C14 1_555 1_555
O4 C19 1_555 1_555
O5 C19 1_555 1_555
C1 N1 1_555 1_555
C2 C1 1_555 1_555
C3 C2 1_555 1_555
H3 C3 1_555 1_555
C4 C3 1_555 1_555
C5 O1 1_555 1_555
C6 C5 1_555 1_555
H4 C6 1_555 1_555
C7 C6 1_555 1_555
H5 C7 1_555 1_555
C8 C7 1_555 1_555
C9 C4 1_555 1_555
C10 C9 1_555 1_555
H6 C10 1_555 1_555
C11 C10 1_555 1_555
H7 C11 1_555 1_555
C12 C11 1_555 1_555
H8 C12 1_555 1_555
C13 C8 1_555 1_555
H9 C13 1_555 1_555
C14 C2 1_555 1_555
C15 O2 1_555 1_555
H10 C15 1_555 1_555
H11 C15 1_555 1_555
C16 C15 1_555 1_555
H12 C16 1_555 1_555
H13 C16 1_555 1_555
H14 C16 1_555 1_555
C17 C3 1_555 1_555
H15 C17 1_555 1_555
C18 C17 1_555 1_555
C19 C17 1_555 1_555
C20 O4 1_555 1_555
H16 C20 1_555 1_555
H17 C20 1_555 1_555
C21 C20 1_555 1_555
H18 C21 1_555 1_555
H19 C21 1_555 1_555
H20 C21 1_555 1_555
C4 C5 1_555 1_555
C8 C9 1_555 1_555
C12 C13 1_555 1_555

#END
