
#######################################################################
#
#                 Cambridge Crystallographic Data Centre
#                                CCDC 
#
#######################################################################
#
# If this CIF has been generated from an entry in the Cambridge 
# Structural Database, then it will include bibliographic, chemical, 
# crystal, experimental, refinement or atomic coordinate data resulting 
# from the CCDC's data processing and validation procedures.
#
#######################################################################

data_NURVIH
_chemical_formula_moiety         'C17 H16 N2 O2 S1,H2 O1'
_chemical_name_systematic        
'N-(4-(2-cyanovinyl)phenyl)-N,4-dimethylbenzenesulfonamide monohydrate'
_symmetry_cell_setting           monoclinic
_symmetry_space_group_name_H-M   'P 21/c'
_symmetry_Int_Tables_number      14
_space_group_name_Hall           '-P 2ybc'
loop_
_symmetry_equiv_pos_site_id
_symmetry_equiv_pos_as_xyz
1 x,y,z
2 -x,1/2+y,1/2-z
3 -x,-y,-z
4 x,1/2-y,1/2+z
_cell_length_a                   12.5145(8)
_cell_length_b                   15.6544(10)
_cell_length_c                   9.2215(5)
_cell_angle_alpha                90
_cell_angle_beta                 91.271(5)
_cell_angle_gamma                90
_cell_volume                     1806.11
_exptl_crystal_colour            'light colorless'
_exptl_crystal_description       plate
_cell_formula_units_Z            4
loop_
_atom_site_label
_atom_site_type_symbol
_atom_site_fract_x
_atom_site_fract_y
_atom_site_fract_z
S1 S 0.25231(11) 0.40369(10) 0.68001(13)
O1 O 0.2233(4) 0.3573(3) 0.8068(4)
O2 O 0.2664(3) 0.4933(3) 0.6889(4)
N1 N 0.0894(4) 0.6932(3) -0.2711(6)
N2 N 0.1565(3) 0.3859(3) 0.5588(4)
C1 C 0.1540(4) 0.4356(3) 0.4295(5)
C2 C 0.1251(5) 0.5208(4) 0.4351(7)
H1 H 0.1103 0.5468 0.5230
C3 C 0.1187(5) 0.5666(4) 0.3062(10)
H2 H 0.1012 0.6243 0.3103
C4 C 0.1367(5) 0.5313(6) 0.1747(9)
C5 C 0.1643(5) 0.4476(5) 0.1729(6)
H3 H 0.1776 0.4223 0.0839
C6 C 0.1738(5) 0.3978(4) 0.2970(6)
H4 H 0.1929 0.3405 0.2914
C7 C 0.1149(9) 0.6009(11) 0.0657(13)
H5 H 0.0996 0.6564 0.0946
C8 C 0.1183(10) 0.5802(12) -0.0715(14)
H6 H 0.1310 0.5246 -0.1023
C9 C 0.1004(5) 0.6521(5) -0.1744(7)
C10 C 0.1208(5) 0.2951(4) 0.5473(7)
H7 H 0.1785 0.2606 0.5134
H8 H 0.0612 0.2911 0.4803
H9 H 0.0997 0.2751 0.6409
C11 C 0.3693(4) 0.3579(3) 0.6114(5)
C12 C 0.4248(4) 0.4023(3) 0.5064(6)
H10 H 0.3984 0.4535 0.4691
C13 C 0.5199(5) 0.3690(4) 0.4587(7)
H11 H 0.5577 0.3990 0.3896
C14 C 0.5602(5) 0.2931(5) 0.5097(7)
C15 C 0.5021(6) 0.2489(5) 0.6111(8)
H12 H 0.5279 0.1971 0.6466
C16 C 0.4069(5) 0.2802(4) 0.6605(7)
H13 H 0.3679 0.2490 0.7269
C17 C 0.6648(6) 0.2577(7) 0.4612(10)
H14 H 0.6736 0.2701 0.3602
H15 H 0.6658 0.1970 0.4756
H16 H 0.7222 0.2833 0.5167
O3 O 0.4462(4) 0.5211(3) 0.1352(5)
H19 H 0.4243 0.5034 0.0527
H20 H 0.4083 0.5632 0.1611
C18? C 0.1000(11) 0.6314(11) -0.020(2)
H17? H 0.0782 0.6698 0.0500
C19? C 0.1331(13) 0.5540(10) 0.010(2)
H18? H 0.1530 0.5154 -0.0610
loop_
_geom_bond_atom_site_label_1
_geom_bond_atom_site_label_2
_geom_bond_site_symmetry_1
_geom_bond_site_symmetry_2
S1 O1 1_555 1_555
O2 S1 1_555 1_555
N1 C9 1_555 1_555
N2 S1 1_555 1_555
C1 N2 1_555 1_555
C2 C1 1_555 1_555
H1 C2 1_555 1_555
C3 C2 1_555 1_555
H2 C3 1_555 1_555
C4 C3 1_555 1_555
C5 C4 1_555 1_555
H3 C5 1_555 1_555
C6 C1 1_555 1_555
H4 C6 1_555 1_555
C7 C4 1_555 1_555
H5 C7 1_555 1_555
C8 C7 1_555 1_555
H6 C8 1_555 1_555
C9 C8 1_555 1_555
C10 N2 1_555 1_555
H7 C10 1_555 1_555
H8 C10 1_555 1_555
H9 C10 1_555 1_555
C11 S1 1_555 1_555
C12 C11 1_555 1_555
H10 C12 1_555 1_555
C13 C12 1_555 1_555
H11 C13 1_555 1_555
C14 C13 1_555 1_555
C15 C14 1_555 1_555
H12 C15 1_555 1_555
C16 C11 1_555 1_555
H13 C16 1_555 1_555
C17 C14 1_555 1_555
H14 C17 1_555 1_555
H15 C17 1_555 1_555
H16 C17 1_555 1_555
O3 H19 1_555 1_555
H20 O3 1_555 1_555
C5 C6 1_555 1_555
C15 C16 1_555 1_555

#END
