
#######################################################################
#
#                 Cambridge Crystallographic Data Centre
#                                CCDC 
#
#######################################################################
#
# If this CIF has been generated from an entry in the Cambridge 
# Structural Database, then it will include bibliographic, chemical, 
# crystal, experimental, refinement or atomic coordinate data resulting 
# from the CCDC's data processing and validation procedures.
#
#######################################################################

data_NURWEE
_chemical_formula_moiety         'C28 H22 O2 S1'
_chemical_name_systematic        '4-methylphenyl triphenylpropadienyl sulfone'
_symmetry_cell_setting           monoclinic
_symmetry_space_group_name_H-M   'P 21/n'
_symmetry_Int_Tables_number      14
_space_group_name_Hall           '-P 2yn'
loop_
_symmetry_equiv_pos_site_id
_symmetry_equiv_pos_as_xyz
1 x,y,z
2 1/2-x,1/2+y,1/2-z
3 -x,-y,-z
4 1/2+x,1/2-y,1/2+z
_cell_length_a                   10.5311(9)
_cell_length_b                   14.0448(12)
_cell_length_c                   15.9503(14)
_cell_angle_alpha                90
_cell_angle_beta                 108.442(2)
_cell_angle_gamma                90
_cell_volume                     2238.01
_exptl_crystal_colour            white
_exptl_crystal_description       block
_cell_formula_units_Z            4
loop_
_atom_site_label
_atom_site_type_symbol
_atom_site_fract_x
_atom_site_fract_y
_atom_site_fract_z
O1 O 0.80697(17) 0.36797(13) 0.51758(11)
O2 O 0.69408(17) 0.21883(13) 0.45239(11)
S1 S 0.72240(8) 0.28926(6) 0.52192(5)
C1 C 0.7965(3) 0.23129(16) 0.62636(17)
C2 C 0.7218(3) 0.21814(18) 0.67568(18)
C3 C 0.6430(3) 0.2049(2) 0.72348(17)
C4 C 0.9391(3) 0.20193(17) 0.6499(2)
C5 C 1.0019(3) 0.18784(18) 0.5868(2)
H1 H 0.9566 0.2017 0.5279
C6 C 1.1316(3) 0.1534(2) 0.6105(2)
H2 H 1.1735 0.1442 0.5678
C7 C 1.1982(3) 0.1327(2) 0.6980(3)
H3 H 1.2844 0.1078 0.7140
C8 C 1.1384(3) 0.1486(2) 0.7615(2)
H4 H 1.1849 0.1364 0.8205
C9 C 1.0090(3) 0.18287(18) 0.73781(19)
H5 H 0.9684 0.1932 0.7810
C10 C 0.6224(3) 0.2809(2) 0.78200(17)
C11 C 0.7144(3) 0.3528(2) 0.81150(18)
H6 H 0.7945 0.3509 0.7984
C12 C 0.6900(4) 0.4272(2) 0.8598(2)
H7 H 0.7536 0.4751 0.8794
C13 C 0.5720(4) 0.4315(2) 0.8795(2)
H8 H 0.5554 0.4824 0.9118
C14 C 0.4788(3) 0.3601(3) 0.8515(2)
H9 H 0.3994 0.3621 0.8652
C15 C 0.5043(3) 0.2858(2) 0.80274(18)
H10 H 0.4409 0.2378 0.7834
C16 C 0.5706(3) 0.11188(19) 0.7157(2)
C17 C 0.5766(2) 0.0602(2) 0.79026(19)
H11 H 0.6223 0.0846 0.8458
C18 C 0.5151(3) -0.0278(2) 0.7831(2)
H12 H 0.5208 -0.0629 0.8336
C19 C 0.4457(3) -0.0634(2) 0.7011(2)
H13 H 0.4022 -0.1217 0.6964
C20 C 0.4401(3) -0.0135(2) 0.6266(2)
H14 H 0.3950 -0.0384 0.5711
C21 C 0.5018(3) 0.0739(2) 0.63413(19)
H15 H 0.4970 0.1081 0.5833
C22 C 0.5706(3) 0.3316(2) 0.53098(19)
C23 C 0.5712(3) 0.4083(2) 0.58544(19)
H16 H 0.6502 0.4411 0.6127
C24 C 0.4535(4) 0.4356(2) 0.5988(2)
H17 H 0.4542 0.4865 0.6362
C25 C 0.3340(4) 0.3890(2) 0.5578(2)
C26 C 0.3362(3) 0.3148(2) 0.5013(2)
H18 H 0.2568 0.2837 0.4715
C27 C 0.4534(3) 0.2859(2) 0.48829(18)
H19 H 0.4528 0.2354 0.4505
C28 C 0.2076(3) 0.41675(19) 0.5761(2)
H20 H 0.1338 0.3811 0.5383
H21 H 0.1915 0.4836 0.5651
H22 H 0.2166 0.4033 0.6367
loop_
_geom_bond_atom_site_label_1
_geom_bond_atom_site_label_2
_geom_bond_site_symmetry_1
_geom_bond_site_symmetry_2
O1 S1 1_555 1_555
O2 S1 1_555 1_555
S1 C1 1_555 1_555
C1 C2 1_555 1_555
C2 C3 1_555 1_555
C3 C10 1_555 1_555
C4 C1 1_555 1_555
C5 C4 1_555 1_555
H1 C5 1_555 1_555
C6 C5 1_555 1_555
H2 C6 1_555 1_555
C7 C6 1_555 1_555
H3 C7 1_555 1_555
C8 C7 1_555 1_555
H4 C8 1_555 1_555
C9 C4 1_555 1_555
H5 C9 1_555 1_555
C10 C11 1_555 1_555
C11 H6 1_555 1_555
C12 C11 1_555 1_555
H7 C12 1_555 1_555
C13 C12 1_555 1_555
H8 C13 1_555 1_555
C14 C13 1_555 1_555
H9 C14 1_555 1_555
C15 C10 1_555 1_555
H10 C15 1_555 1_555
C16 C3 1_555 1_555
C17 C16 1_555 1_555
H11 C17 1_555 1_555
C18 C17 1_555 1_555
H12 C18 1_555 1_555
C19 C18 1_555 1_555
H13 C19 1_555 1_555
C20 C19 1_555 1_555
H14 C20 1_555 1_555
C21 C16 1_555 1_555
H15 C21 1_555 1_555
C22 S1 1_555 1_555
C23 C22 1_555 1_555
H16 C23 1_555 1_555
C24 C23 1_555 1_555
H17 C24 1_555 1_555
C25 C24 1_555 1_555
C26 C25 1_555 1_555
H18 C26 1_555 1_555
C27 C22 1_555 1_555
H19 C27 1_555 1_555
C28 C25 1_555 1_555
H20 C28 1_555 1_555
H21 C28 1_555 1_555
H22 C28 1_555 1_555
C8 C9 1_555 1_555
C14 C15 1_555 1_555
C20 C21 1_555 1_555
C26 C27 1_555 1_555

#END
