
#######################################################################
#
#                 Cambridge Crystallographic Data Centre
#                                CCDC 
#
#######################################################################
#
# If this CIF has been generated from an entry in the Cambridge 
# Structural Database, then it will include bibliographic, chemical, 
# crystal, experimental, refinement or atomic coordinate data resulting 
# from the CCDC's data processing and validation procedures.
#
#######################################################################

data_NURYIK
_chemical_formula_moiety         'C29 H36 B2 N2 O2'
_chemical_name_systematic        
2-(5-methyl-3-phenyl-2-(4,4,5,5-tetramethyl-1,3,2-dioxaborolan-2-yl)hex-2-en-1-yl)-2,3-dihydro-1H-naphtho[1,8-de][1,3,2]diazaborinine
_symmetry_cell_setting           triclinic
_symmetry_space_group_name_H-M   'P -1'
_symmetry_Int_Tables_number      2
_space_group_name_Hall           '-P 1'
loop_
_symmetry_equiv_pos_site_id
_symmetry_equiv_pos_as_xyz
1 x,y,z
2 -x,-y,-z
_cell_length_a                   9.4154(8)
_cell_length_b                   12.1344(11)
_cell_length_c                   12.7263(8)
_cell_angle_alpha                86.819(6)
_cell_angle_beta                 68.635(7)
_cell_angle_gamma                79.790(7)
_cell_volume                     1332.56
_exptl_crystal_colour            colorless
_exptl_crystal_description       prism
_cell_formula_units_Z            2
loop_
_atom_site_label
_atom_site_type_symbol
_atom_site_fract_x
_atom_site_fract_y
_atom_site_fract_z
O1 O 0.57156(10) 0.07471(7) 0.32499(7)
O2 O 0.73262(10) 0.01366(7) 0.14732(7)
N1 N 0.99044(11) -0.00327(9) 0.29531(8)
H1 H 0.9238 0.0451 0.3463
N2 N 1.14013(11) -0.05413(8) 0.10020(8)
H2 H 1.1695 -0.0375 0.0281
C1 C 0.50063(14) -0.01048(10) 0.29361(10)
C2 C 0.64057(14) -0.07546(10) 0.19611(10)
C3 C 0.37410(15) 0.05255(12) 0.25363(13)
H3 H 0.3017 0.1047 0.3129
H4 H 0.3184 -0.0011 0.2371
H5 H 0.4212 0.0944 0.1853
C4 C 0.43181(17) -0.07974(12) 0.39735(11)
H6 H 0.5125 -0.1119 0.4271
H7 H 0.3901 -0.1402 0.3766
H8 H 0.3485 -0.0317 0.4551
C5 C 0.59908(17) -0.12288(12) 0.10497(12)
H9 H 0.5489 -0.0618 0.0702
H10 H 0.5283 -0.1762 0.1387
H11 H 0.6934 -0.1613 0.0473
C6 C 0.74221(16) -0.16568(11) 0.23786(13)
H12 H 0.8401 -0.1900 0.1758
H13 H 0.6887 -0.2298 0.2651
H14 H 0.7630 -0.1352 0.2995
C7 C 1.04799(13) -0.10642(10) 0.33191(10)
C8 C 1.00454(15) -0.13414(12) 0.44513(11)
H15 H 0.9323 -0.0827 0.5008
C9 C 1.06761(16) -0.23872(13) 0.47753(12)
H16 H 1.0375 -0.2566 0.5554
C10 C 1.17134(16) -0.31522(12) 0.39943(12)
H17 H 1.2124 -0.3849 0.4237
C11 C 1.21801(14) -0.29089(11) 0.28205(12)
C12 C 1.32437(16) -0.36795(11) 0.19809(13)
H18 H 1.3689 -0.4378 0.2197
C13 C 1.36312(16) -0.34195(11) 0.08580(13)
H19 H 1.4331 -0.3947 0.0305
C14 C 1.30084(15) -0.23834(11) 0.05136(11)
H20 H 1.3280 -0.2223 -0.0268
C15 C 1.20013(13) -0.15947(10) 0.13073(10)
C16 C 1.15527(13) -0.18503(10) 0.24827(10)
C17 C 0.96704(13) 0.14622(10) 0.14309(10)
H21 H 1.0295 0.2018 0.1485
H22 H 0.9759 0.1424 0.0634
C18 C 0.79779(13) 0.18539(10) 0.21668(10)
C19 C 0.74526(13) 0.28601(10) 0.27037(9)
C20 C 0.57614(14) 0.32104(10) 0.33774(10)
C21 C 0.46381(14) 0.32423(11) 0.28950(11)
H23 H 0.4949 0.3076 0.2115
C22 C 0.30658(15) 0.35154(11) 0.35433(12)
H24 H 0.2317 0.3532 0.3203
C23 C 0.25937(16) 0.37625(11) 0.46847(12)
H25 H 0.1524 0.3934 0.5130
C24 C 0.36973(16) 0.37565(11) 0.51698(11)
H26 H 0.3380 0.3933 0.5949
C25 C 0.52698(15) 0.34930(10) 0.45214(11)
H27 H 0.6015 0.3506 0.4860
C26 C 0.84934(14) 0.36959(10) 0.26737(10)
H28 H 0.9472 0.3277 0.2719
H29 H 0.7985 0.4181 0.3354
C27 C 0.88920(14) 0.44539(11) 0.16245(10)
H30 H 0.9486 0.3964 0.0946
C28 C 0.74490(16) 0.51100(11) 0.14553(12)
H31 H 0.6857 0.4587 0.1311
H32 H 0.7758 0.5610 0.0810
H33 H 0.6807 0.5554 0.2136
C29 C 0.99415(16) 0.52430(12) 0.17291(12)
H34 H 0.9396 0.5713 0.2406
H35 H 1.0212 0.5719 0.1062
H36 H 1.0887 0.4800 0.1786
B1 B 0.69506(15) 0.09315(11) 0.23159(11)
B2 B 1.03436(15) 0.02765(11) 0.17923(11)
loop_
_geom_bond_atom_site_label_1
_geom_bond_atom_site_label_2
_geom_bond_site_symmetry_1
_geom_bond_site_symmetry_2
O1 C1 1_555 1_555
O2 C2 1_555 1_555
N1 H1 1_555 1_555
N2 H2 1_555 1_555
C1 C2 1_555 1_555
C2 C5 1_555 1_555
C3 C1 1_555 1_555
H3 C3 1_555 1_555
H4 C3 1_555 1_555
H5 C3 1_555 1_555
C4 C1 1_555 1_555
H6 C4 1_555 1_555
H7 C4 1_555 1_555
H8 C4 1_555 1_555
C5 H9 1_555 1_555
H10 C5 1_555 1_555
H11 C5 1_555 1_555
C6 C2 1_555 1_555
H12 C6 1_555 1_555
H13 C6 1_555 1_555
H14 C6 1_555 1_555
C7 N1 1_555 1_555
C8 C7 1_555 1_555
H15 C8 1_555 1_555
C9 C8 1_555 1_555
H16 C9 1_555 1_555
C10 C9 1_555 1_555
H17 C10 1_555 1_555
C11 C10 1_555 1_555
C12 C11 1_555 1_555
H18 C12 1_555 1_555
C13 C12 1_555 1_555
H19 C13 1_555 1_555
C14 C13 1_555 1_555
H20 C14 1_555 1_555
C15 N2 1_555 1_555
C16 C7 1_555 1_555
C17 H21 1_555 1_555
H22 C17 1_555 1_555
C18 C17 1_555 1_555
C19 C18 1_555 1_555
C20 C19 1_555 1_555
C21 C20 1_555 1_555
H23 C21 1_555 1_555
C22 C21 1_555 1_555
H24 C22 1_555 1_555
C23 C22 1_555 1_555
H25 C23 1_555 1_555
C24 C23 1_555 1_555
H26 C24 1_555 1_555
C25 C20 1_555 1_555
H27 C25 1_555 1_555
C26 C19 1_555 1_555
H28 C26 1_555 1_555
H29 C26 1_555 1_555
C27 C26 1_555 1_555
H30 C27 1_555 1_555
C28 C27 1_555 1_555
H31 C28 1_555 1_555
H32 C28 1_555 1_555
H33 C28 1_555 1_555
C29 C27 1_555 1_555
H34 C29 1_555 1_555
H35 C29 1_555 1_555
H36 C29 1_555 1_555
B1 O1 1_555 1_555
B2 N1 1_555 1_555
O2 B1 1_555 1_555
N2 B2 1_555 1_555
C11 C16 1_555 1_555
C14 C15 1_555 1_555
C15 C16 1_555 1_555
C17 B2 1_555 1_555
C18 B1 1_555 1_555
C24 C25 1_555 1_555

#END
