
#######################################################################
#
#                 Cambridge Crystallographic Data Centre
#                                CCDC 
#
#######################################################################
#
# If this CIF has been generated from an entry in the Cambridge 
# Structural Database, then it will include bibliographic, chemical, 
# crystal, experimental, refinement or atomic coordinate data resulting 
# from the CCDC's data processing and validation procedures.
#
#######################################################################

data_NURYAC
_chemical_formula_moiety         'C31 H32 B2 N2 O2'
_chemical_name_systematic        
2-(3,3-diphenyl-2-(4,4,5,5-tetramethyl-1,3,2-dioxaborolan-2-yl)prop-2-en-1-yl)-2,3-dihydro-1H-naphtho[1,8-de][1,3,2]diazaborinine
_symmetry_cell_setting           triclinic
_symmetry_space_group_name_H-M   'P -1'
_symmetry_Int_Tables_number      2
_space_group_name_Hall           '-P 1'
loop_
_symmetry_equiv_pos_site_id
_symmetry_equiv_pos_as_xyz
1 x,y,z
2 -x,-y,-z
_cell_length_a                   9.5673(4)
_cell_length_b                   12.0514(4)
_cell_length_c                   12.4802(5)
_cell_angle_alpha                85.896(3)
_cell_angle_beta                 77.575(3)
_cell_angle_gamma                73.572(3)
_cell_volume                     1347.8
_exptl_crystal_colour            colorless
_exptl_crystal_description       prism
_cell_formula_units_Z            2
loop_
_atom_site_label
_atom_site_type_symbol
_atom_site_fract_x
_atom_site_fract_y
_atom_site_fract_z
N1 N 0.27731(9) 0.91832(7) 0.41834(7)
H1 H 0.2447 0.9292 0.4894
O1 O -0.04271(9) 1.03749(6) 0.16998(6)
O2 O -0.18164(9) 1.05404(7) 0.34406(6)
N2 N 0.27952(9) 0.98665(8) 0.23188(7)
H2 H 0.2475 1.0408 0.1848
C1 C 0.43642(11) 0.79809(9) 0.26788(8)
C2 C 0.09516(11) 1.12212(9) 0.38760(8)
H3 H 0.0272 1.1044 0.4542
H4 H 0.1423 1.1788 0.4076
C3 C 0.00536(11) 1.27836(8) 0.25080(8)
C4 C -0.08380(11) 1.32092(8) 0.16412(8)
C5 C 0.00613(10) 1.17492(8) 0.30033(8)
C6 C -0.01842(13) 1.36118(9) 0.06324(9)
H5 H 0.0803 1.3679 0.0525
C7 C 0.38229(11) 0.81480(9) 0.38316(8)
C8 C -0.10732(12) 0.93898(9) 0.18712(8)
C9 C 0.08897(12) 1.35620(9) 0.27917(8)
C10 C -0.23123(12) 1.31666(9) 0.17888(9)
H6 H -0.2791 1.2927 0.2478
C11 C 0.38558(11) 0.88540(9) 0.19102(8)
C12 C -0.23828(12) 0.97918(10) 0.28620(9)
C13 C 0.54483(11) 0.69355(9) 0.22927(10)
B1 B -0.07714(12) 1.09176(9) 0.26803(9)
B2 B 0.22028(12) 1.00704(10) 0.34581(9)
C14 C 0.43618(13) 0.72986(9) 0.45630(9)
H7 H 0.4003 0.7409 0.5330
C15 C 0.44257(12) 0.86871(11) 0.07993(9)
H8 H 0.4095 0.9272 0.0286
C16 C -0.24084(15) 1.38373(10) -0.00659(10)
H9 H -0.2931 1.4033 -0.0650
C17 C -0.09615(15) 1.39153(10) -0.02144(9)
H10 H -0.0498 1.4178 -0.0898
C18 C 0.59948(13) 0.67908(11) 0.11447(10)
H11 H 0.6710 0.6095 0.0874
C19 C 0.01426(14) 0.83514(10) 0.21445(11)
H12 H 0.1026 0.8238 0.1552
H13 H -0.0216 0.7658 0.2225
H14 H 0.0400 0.8490 0.2833
C20 C 0.54398(13) 0.62730(10) 0.41716(11)
H15 H 0.5811 0.5700 0.4681
C21 C 0.54970(13) 0.76480(12) 0.04297(10)
H16 H 0.5882 0.7542 -0.0335
C22 C -0.15160(16) 0.91907(11) 0.08234(9)
H17 H -0.2126 0.9921 0.0573
H18 H -0.2090 0.8620 0.0960
H19 H -0.0620 0.8903 0.0258
C23 C -0.30887(14) 1.34720(10) 0.09376(10)
H20 H -0.4086 1.3429 0.1046
C24 C 0.24358(13) 1.32193(12) 0.26775(10)
H21 H 0.2989 1.2473 0.2403
C25 C -0.27180(16) 0.88302(12) 0.36379(10)
H22 H -0.1841 0.8443 0.3946
H23 H -0.2970 0.8269 0.3236
H24 H -0.3559 0.9157 0.4233
C26 C 0.59643(13) 0.60838(10) 0.30696(11)
H25 H 0.6678 0.5378 0.2824
C27 C 0.01188(15) 1.46579(10) 0.31985(11)
H26 H -0.0932 1.4911 0.3276
C28 C -0.37934(14) 1.05519(12) 0.25247(13)
H27 H -0.4503 1.0916 0.3176
H28 H -0.4240 1.0076 0.2173
H29 H -0.3543 1.1152 0.2008
C29 C 0.31737(16) 1.39634(15) 0.29636(12)
H30 H 0.4226 1.3721 0.2878
C30 C 0.08634(18) 1.53929(11) 0.34942(13)
H31 H 0.0316 1.6134 0.3783
C31 C 0.23913(18) 1.50483(13) 0.33694(11)
H32 H 0.2900 1.5553 0.3561
loop_
_geom_bond_atom_site_label_1
_geom_bond_atom_site_label_2
_geom_bond_site_symmetry_1
_geom_bond_site_symmetry_2
N1 H1 1_555 1_555
O1 C8 1_555 1_555
O2 C12 1_555 1_555
N2 H2 1_555 1_555
C1 C7 1_555 1_555
C2 H3 1_555 1_555
H4 C2 1_555 1_555
C3 C4 1_555 1_555
C4 C6 1_555 1_555
C5 C2 1_555 1_555
C6 H5 1_555 1_555
C7 N1 1_555 1_555
C8 C12 1_555 1_555
C9 C3 1_555 1_555
C10 C4 1_555 1_555
H6 C10 1_555 1_555
C11 N2 1_555 1_555
C12 C25 1_555 1_555
C13 C1 1_555 1_555
B1 O1 1_555 1_555
B2 N1 1_555 1_555
C14 C7 1_555 1_555
H7 C14 1_555 1_555
C15 C11 1_555 1_555
H8 C15 1_555 1_555
C16 H9 1_555 1_555
C17 C6 1_555 1_555
H10 C17 1_555 1_555
C18 C13 1_555 1_555
H11 C18 1_555 1_555
C19 C8 1_555 1_555
H12 C19 1_555 1_555
H13 C19 1_555 1_555
H14 C19 1_555 1_555
C20 C14 1_555 1_555
H15 C20 1_555 1_555
C21 C15 1_555 1_555
H16 C21 1_555 1_555
C22 C8 1_555 1_555
H17 C22 1_555 1_555
H18 C22 1_555 1_555
H19 C22 1_555 1_555
C23 C10 1_555 1_555
H20 C23 1_555 1_555
C24 C9 1_555 1_555
H21 C24 1_555 1_555
C25 H22 1_555 1_555
H23 C25 1_555 1_555
H24 C25 1_555 1_555
C26 C13 1_555 1_555
H25 C26 1_555 1_555
C27 C9 1_555 1_555
H26 C27 1_555 1_555
C28 C12 1_555 1_555
H27 C28 1_555 1_555
H28 C28 1_555 1_555
H29 C28 1_555 1_555
C29 C24 1_555 1_555
H30 C29 1_555 1_555
C30 C27 1_555 1_555
H31 C30 1_555 1_555
C31 C29 1_555 1_555
H32 C31 1_555 1_555
O2 B1 1_555 1_555
N2 B2 1_555 1_555
C1 C11 1_555 1_555
C2 B2 1_555 1_555
C3 C5 1_555 1_555
C5 B1 1_555 1_555
C16 C17 1_555 1_555
C16 C23 1_555 1_555
C18 C21 1_555 1_555
C20 C26 1_555 1_555
C30 C31 1_555 1_555

#END
