
#######################################################################
#
#                 Cambridge Crystallographic Data Centre
#                                CCDC 
#
#######################################################################
#
# If this CIF has been generated from an entry in the Cambridge 
# Structural Database, then it will include bibliographic, chemical, 
# crystal, experimental, refinement or atomic coordinate data resulting 
# from the CCDC's data processing and validation procedures.
#
#######################################################################

data_NURYUW
_chemical_formula_moiety         'C31 H30 B2 F2 N2 O2'
_chemical_name_systematic        
2-(3,3-bis(4-fluorophenyl)-2-(4,4,5,5-tetramethyl-1,3,2-dioxaborolan-2-yl)prop-2-en-1-yl)-2,3-dihydro-1H-naphtho[1,8-de][1,3,2]diazaborinine
_symmetry_cell_setting           monoclinic
_symmetry_space_group_name_H-M   'P 21/c'
_symmetry_Int_Tables_number      14
_space_group_name_Hall           '-P 2ybc'
loop_
_symmetry_equiv_pos_site_id
_symmetry_equiv_pos_as_xyz
1 x,y,z
2 -x,1/2+y,1/2-z
3 -x,-y,-z
4 x,1/2-y,1/2+z
_cell_length_a                   11.85040(18)
_cell_length_b                   15.8584(2)
_cell_length_c                   14.6051(2)
_cell_angle_alpha                90
_cell_angle_beta                 103.9907(16)
_cell_angle_gamma                90
_cell_volume                     2663.29
_exptl_crystal_colour            colorless
_exptl_crystal_description       parallelepiped
_cell_formula_units_Z            4
loop_
_atom_site_label
_atom_site_type_symbol
_atom_site_fract_x
_atom_site_fract_y
_atom_site_fract_z
F1 F 0.50675(7) 0.39689(5) 1.27197(5)
F2 F -0.05273(7) 0.81746(5) 1.01346(6)
O1 O 0.30824(7) 0.40817(5) 0.77493(6)
O2 O 0.22595(7) 0.34310(5) 0.88251(5)
N1 N -0.03132(8) 0.42705(6) 0.75949(6)
H1 H 0.0071 0.4087 0.8152
N2 N -0.04883(8) 0.52187(6) 0.62817(7)
H2 H -0.0204 0.5629 0.5999
C1 C 0.34800(10) 0.32069(7) 0.77814(8)
C2 C 0.26439(9) 0.27445(6) 0.83036(7)
C3 C 0.47491(10) 0.32071(8) 0.83314(10)
H3 H 0.4801 0.3390 0.8981
H4 H 0.5194 0.3594 0.8031
H5 H 0.5068 0.2637 0.8336
C4 C 0.33779(12) 0.29263(8) 0.67701(9)
H6 H 0.3915 0.3256 0.6497
H7 H 0.2579 0.3016 0.6400
H8 H 0.3573 0.2326 0.6762
C5 C 0.32148(11) 0.20787(8) 0.90086(9)
H9 H 0.2629 0.1821 0.9293
H10 H 0.3822 0.2340 0.9503
H11 H 0.3563 0.1644 0.8686
C6 C 0.15537(11) 0.23879(8) 0.76463(9)
H12 H 0.1189 0.2822 0.7194
H13 H 0.1008 0.2209 0.8016
H14 H 0.1762 0.1902 0.7305
C7 C 0.19531(9) 0.50415(6) 0.86275(7)
C8 C 0.12613(9) 0.54676(7) 0.77374(7)
H15 H 0.1777 0.5548 0.7302
H16 H 0.1023 0.6034 0.7907
C9 C -0.13397(9) 0.38550(7) 0.71456(7)
C10 C -0.17542(10) 0.31704(8) 0.75468(8)
H17 H -0.1313 0.2945 0.8126
C11 C -0.28268(11) 0.28045(8) 0.71011(9)
H18 H -0.3107 0.2336 0.7386
C12 C -0.34735(10) 0.31127(8) 0.62638(9)
H19 H -0.4207 0.2867 0.5984
C13 C -0.30606(10) 0.37970(7) 0.58089(8)
C14 C -0.36647(11) 0.41043(8) 0.49114(9)
H20 H -0.4398 0.3870 0.4608
C15 C -0.31966(12) 0.47369(8) 0.44789(9)
H21 H -0.3604 0.4927 0.3872
C16 C -0.21263(11) 0.51087(8) 0.49160(9)
H22 H -0.1811 0.5541 0.4601
C17 C -0.15316(10) 0.48466(7) 0.58034(8)
C18 C -0.19755(9) 0.41716(7) 0.62587(7)
C19 C 0.20632(9) 0.53649(6) 0.95007(7)
C20 C 0.28577(9) 0.49975(6) 1.03561(7)
C21 C 0.26238(9) 0.50776(7) 1.12465(7)
H23 H 0.1946 0.5372 1.1305
C22 C 0.33635(10) 0.47349(7) 1.20493(8)
H24 H 0.3198 0.4789 1.2651
C23 C 0.43417(10) 0.43160(7) 1.19444(8)
C24 C 0.46274(9) 0.42339(7) 1.10890(8)
H25 H 0.5314 0.3946 1.1041
C25 C 0.38804(9) 0.45845(7) 1.02986(7)
H26 H 0.4070 0.4542 0.9704
C26 C 0.13873(9) 0.61220(6) 0.96671(7)
C27 C 0.01831(9) 0.60608(7) 0.95518(8)
H27 H -0.0196 0.5541 0.9353
C28 C -0.04690(10) 0.67448(7) 0.97224(8)
H28 H -0.1283 0.6698 0.9662
C29 C 0.01085(10) 0.74923(7) 0.99829(8)
C30 C 0.12894(10) 0.75905(7) 1.01039(8)
H29 H 0.1654 0.8119 1.0282
C31 C 0.19327(10) 0.68896(7) 0.99561(7)
H30 H 0.2753 0.6935 1.0053
B1 B 0.24719(10) 0.41735(7) 0.84234(8)
B2 B 0.01398(10) 0.49738(7) 0.71967(8)
loop_
_geom_bond_atom_site_label_1
_geom_bond_atom_site_label_2
_geom_bond_site_symmetry_1
_geom_bond_site_symmetry_2
F1 C23 1_555 1_555
F2 C29 1_555 1_555
O1 C1 1_555 1_555
O2 C2 1_555 1_555
N1 H1 1_555 1_555
N2 H2 1_555 1_555
C1 C2 1_555 1_555
C2 C5 1_555 1_555
C3 C1 1_555 1_555
H3 C3 1_555 1_555
H4 C3 1_555 1_555
H5 C3 1_555 1_555
C4 C1 1_555 1_555
H6 C4 1_555 1_555
H7 C4 1_555 1_555
H8 C4 1_555 1_555
C5 H9 1_555 1_555
H10 C5 1_555 1_555
H11 C5 1_555 1_555
C6 C2 1_555 1_555
H12 C6 1_555 1_555
H13 C6 1_555 1_555
H14 C6 1_555 1_555
C7 C8 1_555 1_555
C8 H15 1_555 1_555
H16 C8 1_555 1_555
C9 N1 1_555 1_555
C10 C9 1_555 1_555
H17 C10 1_555 1_555
C11 C10 1_555 1_555
H18 C11 1_555 1_555
C12 C11 1_555 1_555
H19 C12 1_555 1_555
C13 C12 1_555 1_555
C14 C13 1_555 1_555
H20 C14 1_555 1_555
C15 C14 1_555 1_555
H21 C15 1_555 1_555
C16 C15 1_555 1_555
H22 C16 1_555 1_555
C17 N2 1_555 1_555
C18 C9 1_555 1_555
C19 C7 1_555 1_555
C20 C19 1_555 1_555
C21 C20 1_555 1_555
H23 C21 1_555 1_555
C22 C21 1_555 1_555
H24 C22 1_555 1_555
C23 C22 1_555 1_555
C24 C23 1_555 1_555
H25 C24 1_555 1_555
C25 C20 1_555 1_555
H26 C25 1_555 1_555
C26 C19 1_555 1_555
C27 C26 1_555 1_555
H27 C27 1_555 1_555
C28 C27 1_555 1_555
H28 C28 1_555 1_555
C29 C28 1_555 1_555
C30 C29 1_555 1_555
H29 C30 1_555 1_555
C31 C26 1_555 1_555
H30 C31 1_555 1_555
B1 O1 1_555 1_555
B2 N1 1_555 1_555
O2 B1 1_555 1_555
N2 B2 1_555 1_555
C7 B1 1_555 1_555
C8 B2 1_555 1_555
C13 C18 1_555 1_555
C16 C17 1_555 1_555
C17 C18 1_555 1_555
C24 C25 1_555 1_555
C30 C31 1_555 1_555

#END
