
#######################################################################
#
#                 Cambridge Crystallographic Data Centre
#                                CCDC 
#
#######################################################################
#
# If this CIF has been generated from an entry in the Cambridge 
# Structural Database, then it will include bibliographic, chemical, 
# crystal, experimental, refinement or atomic coordinate data resulting 
# from the CCDC's data processing and validation procedures.
#
#######################################################################

data_NURZAD
_chemical_formula_moiety         'C33 H36 B2 N2 O4'
_chemical_name_systematic        
2-(3,3-bis(4-methoxyphenyl)-2-(4,4,5,5-tetramethyl-1,3,2-dioxaborolan-2-yl)prop-2-en-1-yl)-2,3-dihydro-1H-naphtho[1,8-de][1,3,2]diazaborinine
_symmetry_cell_setting           triclinic
_symmetry_space_group_name_H-M   'P -1'
_symmetry_Int_Tables_number      2
_space_group_name_Hall           '-P 1'
loop_
_symmetry_equiv_pos_site_id
_symmetry_equiv_pos_as_xyz
1 x,y,z
2 -x,-y,-z
_cell_length_a                   13.3316(3)
_cell_length_b                   13.8103(5)
_cell_length_c                   24.3824(5)
_cell_angle_alpha                86.137(2)
_cell_angle_beta                 82.5474(19)
_cell_angle_gamma                81.408(2)
_cell_volume                     4395.97
_exptl_crystal_colour            colorless
_exptl_crystal_description       prism
_cell_formula_units_Z            6
_exptl_crystal_recrystallization_method 'hexanes/ ethyl acetate'
loop_
_atom_site_label
_atom_site_type_symbol
_atom_site_fract_x
_atom_site_fract_y
_atom_site_fract_z
O1 O 0.01352(7) 0.37621(6) 0.44171(4)
O2 O 0.04280(8) 0.21482(6) 0.42155(4)
O3 O -0.11997(8) 0.51422(9) 0.09942(4)
O4 O -0.39263(7) 0.52122(7) 0.49336(4)
N1 N 0.18975(7) 0.42498(8) 0.33372(4)
H1 H 0.1291 0.4573 0.3444
N2 N 0.29466(7) 0.28849(7) 0.28804(4)
H2 H 0.3005 0.2343 0.2702
B1 B 0.01571(10) 0.30997(10) 0.40235(6)
B2 B 0.19495(10) 0.33524(10) 0.30710(6)
C1 C 0.04396(10) 0.21574(9) 0.48168(5)
C2 C 0.05820(10) 0.32412(9) 0.48896(5)
C3 C 0.13049(13) 0.13940(11) 0.49790(6)
H3 H 0.1154 0.0739 0.4920
H4 H 0.1377 0.1443 0.5371
H5 H 0.1943 0.1507 0.4752
C4 C -0.05853(13) 0.18938(13) 0.50881(7)
H6 H -0.1136 0.2398 0.4983
H7 H -0.0595 0.1855 0.5492
H8 H -0.0685 0.1258 0.4964
C5 C 0.00268(15) 0.36704(12) 0.54196(6)
H9 H 0.0170 0.4342 0.5439
H10 H 0.0261 0.3270 0.5738
H11 H -0.0710 0.3677 0.5424
C6 C 0.16981(12) 0.33988(13) 0.48184(7)
H12 H 0.2047 0.3109 0.4476
H13 H 0.2027 0.3085 0.5135
H14 H 0.1739 0.4103 0.4798
C7 C 0.00317(9) 0.33552(9) 0.33977(5)
C8 C 0.09434(9) 0.29091(9) 0.30072(5)
H15 H 0.0786 0.3030 0.2621
H16 H 0.1062 0.2191 0.3085
C9 C 0.27594(9) 0.46437(9) 0.34379(5)
C10 C 0.26864(10) 0.54997(9) 0.37123(6)
H17 H 0.2034 0.5849 0.3831
C11 C 0.35755(11) 0.58549(10) 0.38162(6)
H18 H 0.3516 0.6443 0.4006
C12 C 0.45267(10) 0.53664(10) 0.36483(6)
H19 H 0.5117 0.5617 0.3725
C13 C 0.46360(9) 0.44909(10) 0.33614(5)
C14 C 0.56091(10) 0.39622(11) 0.31813(6)
H20 H 0.6212 0.4187 0.3260
C15 C 0.56832(10) 0.31273(10) 0.28936(6)
H21 H 0.6339 0.2788 0.2770
C16 C 0.48028(9) 0.27664(9) 0.27782(6)
H22 H 0.4869 0.2194 0.2573
C17 C 0.38395(9) 0.32449(9) 0.29632(5)
C18 C 0.37415(9) 0.41276(9) 0.32512(5)
C19 C -0.07817(9) 0.39650(9) 0.32331(5)
C20 C -0.08892(9) 0.43011(9) 0.26481(5)
C21 C -0.18080(9) 0.42591(10) 0.24389(5)
H23 H -0.2355 0.4036 0.2679
C22 C -0.19506(10) 0.45318(11) 0.18930(6)
H24 H -0.2583 0.4489 0.1762
C23 C -0.11551(10) 0.48688(10) 0.15401(6)
C24 C -0.02365(10) 0.49436(10) 0.17414(6)
H25 H 0.0300 0.5189 0.1503
C25 C -0.01038(9) 0.46625(9) 0.22870(5)
H26 H 0.0525 0.4715 0.2418
C26 C -0.21490(13) 0.51066(14) 0.07838(7)
H27 H -0.2089 0.5312 0.0390
H28 H -0.2694 0.5548 0.0987
H29 H -0.2313 0.4435 0.0831
C27 C -0.16629(9) 0.43007(9) 0.36513(5)
C28 C -0.20911(9) 0.52854(9) 0.36645(5)
H30 H -0.1856 0.5735 0.3382
C29 C -0.28557(9) 0.56277(9) 0.40809(5)
H31 H -0.3135 0.6302 0.4083
C30 C -0.32059(9) 0.49708(10) 0.44941(5)
C31 C -0.28239(10) 0.39763(10) 0.44727(6)
H32 H -0.3083 0.3522 0.4745
C32 C -0.20679(9) 0.36487(9) 0.40553(5)
H33 H -0.1819 0.2968 0.4043
C33 C -0.43789(11) 0.62102(11) 0.49734(7)
H34 H -0.4757 0.6410 0.4656
H35 H -0.3843 0.6624 0.4975
H36 H -0.4848 0.6283 0.5317
O5 O 0.34797(8) 0.70930(7) 0.11890(4)
O6 O 0.36238(9) 0.55090(7) 0.09646(4)
O7 O -0.06837(7) 0.93973(7) 0.14909(4)
O8 O 0.20091(8) 0.84665(8) -0.22512(4)
N3 N 0.61232(7) 0.63406(7) -0.04162(4)
H37 H 0.6178 0.5786 -0.0583
N4 N 0.50783(7) 0.77117(7) 0.00357(4)
H38 H 0.4472 0.8020 0.0157
B3 B 0.34029(10) 0.64742(10) 0.07896(6)
B4 B 0.51330(10) 0.67908(10) -0.02048(6)
C34 C 0.39905(10) 0.65128(9) 0.16262(5)
C35 C 0.37339(12) 0.54734(10) 0.15593(6)
C36 C 0.35940(16) 0.69363(12) 0.21811(7)
H39 H 0.3805 0.7584 0.2192
H40 H 0.3874 0.6501 0.2476
H41 H 0.2846 0.6998 0.2236
C37 C 0.51228(13) 0.65851(16) 0.14847(8)
H42 H 0.5372 0.6300 0.1126
H43 H 0.5501 0.6227 0.1772
H44 H 0.5225 0.7275 0.1464
C38 C 0.27045(15) 0.52962(17) 0.18700(8)
H45 H 0.2186 0.5855 0.1797
H46 H 0.2756 0.5221 0.2268
H47 H 0.2509 0.4699 0.1745
C39 C 0.45652(17) 0.46445(12) 0.16820(7)
H48 H 0.4337 0.4016 0.1636
H49 H 0.4712 0.4673 0.2064
H50 H 0.5185 0.4708 0.1426
C40 C 0.32375(9) 0.67590(9) 0.01728(5)
C41 C 0.41321(9) 0.63037(9) -0.02263(5)
H51 H 0.3942 0.6385 -0.0608
H52 H 0.4277 0.5592 -0.0132
C42 C 0.70125(9) 0.67344(9) -0.03730(5)
C43 C 0.79736(9) 0.62683(9) -0.05705(6)
H53 H 0.8038 0.5672 -0.0753
C44 C 0.88542(10) 0.66748(10) -0.05017(6)
H54 H 0.9509 0.6342 -0.0633
C45 C 0.87825(10) 0.75437(11) -0.02474(6)
H55 H 0.9386 0.7803 -0.0202
C46 C 0.78109(9) 0.80571(9) -0.00514(6)
C47 C 0.77096(10) 0.89631(10) 0.02063(6)
H56 H 0.8302 0.9239 0.0255
C48 C 0.67569(11) 0.94430(10) 0.03855(6)
H57 H 0.6698 1.0056 0.0551
C49 C 0.58653(10) 0.90436(9) 0.03285(6)
H58 H 0.5213 0.9387 0.0455
C50 C 0.59374(9) 0.81506(9) 0.00884(5)
C51 C 0.69175(9) 0.76459(9) -0.01124(5)
C52 C 0.24416(9) 0.73843(9) 0.00009(5)
C53 C 0.15804(9) 0.78473(9) 0.03952(5)
C54 C 0.11621(9) 0.88281(9) 0.02926(5)
H59 H 0.1400 0.9164 -0.0041
C55 C 0.04141(9) 0.93205(9) 0.06616(5)
H60 H 0.0151 0.9986 0.0582
C56 C 0.00475(9) 0.88389(10) 0.11513(5)
C57 C 0.04206(10) 0.78567(10) 0.12581(5)
H61 H 0.0166 0.7519 0.1587
C58 C 0.11739(9) 0.73706(9) 0.08770(5)
H62 H 0.1415 0.6697 0.0949
C59 C -0.09111(10) 0.90190(11) 0.20455(6)
H63 H -0.1189 0.8402 0.2040
H64 H -0.1415 0.9495 0.2251
H65 H -0.0285 0.8900 0.2225
C60 C 0.23530(9) 0.76600(9) -0.05957(5)
C61 C 0.14572(9) 0.75382(10) -0.08102(5)
H66 H 0.0933 0.7272 -0.0572
C62 C 0.13066(10) 0.77916(10) -0.13568(6)
H67 H 0.0692 0.7696 -0.1491
C63 C 0.20712(10) 0.81899(10) -0.17070(5)
C64 C 0.29713(10) 0.83212(10) -0.15033(6)
H68 H 0.3493 0.8590 -0.1742
C65 C 0.31087(9) 0.80627(9) -0.09577(5)
H69 H 0.3724 0.8159 -0.0825
C66 C 0.10598(12) 0.84185(13) -0.24573(7)
H70 H 0.1102 0.8652 -0.2847
H71 H 0.0507 0.8831 -0.2241
H72 H 0.0920 0.7739 -0.2425
O9 O 0.31974(7) 0.93792(6) 0.21997(4)
O10 O 0.32802(8) 1.09629(7) 0.23689(4)
O11 O 0.74221(7) 0.71686(7) 0.19034(4)
O12 O 0.45167(8) 0.84305(8) 0.56933(4)
N5 N 0.05626(7) 1.02501(7) 0.37229(4)
H73 H 0.0505 1.0825 0.3868
N6 N 0.16126(7) 0.88110(7) 0.33451(4)
H74 H 0.2220 0.8479 0.3250
B5 B 0.33659(10) 1.00068(10) 0.25760(6)
B6 B 0.15587(10) 0.97628(10) 0.35498(6)
C67 C 0.27474(10) 0.99755(9) 0.17500(5)
C68 C 0.31551(10) 1.09635(9) 0.17786(5)
C69 C 0.15928(11) 1.00489(15) 0.18990(7)
H75 H 0.1398 0.9389 0.1947
H76 H 0.1250 1.0417 0.1601
H77 H 0.1388 1.0388 0.2245
C70 C 0.30755(13) 0.94710(11) 0.12091(6)
H78 H 0.3821 0.9305 0.1156
H79 H 0.2855 0.9911 0.0902
H80 H 0.2762 0.8870 0.1220
C71 C 0.24268(15) 1.18621(11) 0.16320(7)
H81 H 0.1786 1.1880 0.1881
H82 H 0.2287 1.1838 0.1249
H83 H 0.2734 1.2452 0.1671
C72 C 0.42120(13) 1.09912(14) 0.14545(7)
H84 H 0.4490 1.1567 0.1551
H85 H 0.4156 1.1029 0.1057
H86 H 0.4668 1.0395 0.1548
C73 C 0.34772(9) 0.97456(9) 0.32023(5)
C74 C 0.25618(9) 1.02438(9) 0.35736(5)
H87 H 0.2433 1.0947 0.3457
H88 H 0.2724 1.0198 0.3960
C75 C -0.03289(9) 0.98622(9) 0.36740(5)
C76 C -0.12936(9) 1.03678(10) 0.38252(5)
H89 H -0.1361 1.0986 0.3985
C77 C -0.21747(10) 0.99718(10) 0.37434(6)
H90 H -0.2830 1.0335 0.3841
C78 C -0.20990(10) 0.90677(11) 0.35247(6)
H91 H -0.2701 0.8814 0.3470
C79 C -0.11239(9) 0.85106(9) 0.33796(5)
C80 C -0.10141(10) 0.75745(10) 0.31548(6)
H92 H -0.1605 0.7299 0.3103
C81 C -0.00624(11) 0.70629(10) 0.30116(6)
H93 H -0.0003 0.6433 0.2866
C82 C 0.08290(10) 0.74585(9) 0.30767(6)
H94 H 0.1482 0.7094 0.2975
C83 C 0.07537(9) 0.83777(9) 0.32882(5)
C84 C -0.02300(9) 0.89151(9) 0.34511(5)
C85 C 0.42524(9) 0.91181(9) 0.33930(5)
C86 C 0.51281(9) 0.86568(9) 0.30067(5)
C87 C 0.55334(9) 0.76678(9) 0.30954(5)
H95 H 0.5277 0.7313 0.3418
C88 C 0.62967(10) 0.71961(9) 0.27252(5)
H96 H 0.6559 0.6527 0.2796
C89 C 0.66815(9) 0.77047(10) 0.22470(5)
C90 C 0.63163(9) 0.86905(10) 0.21575(6)
H97 H 0.6583 0.9046 0.1838
C91 C 0.55560(9) 0.91569(9) 0.25389(5)
H98 H 0.5323 0.9835 0.2478
C92 C 0.76470(10) 0.75697(11) 0.13517(6)
H99 H 0.8163 0.7109 0.1142
H100 H 0.7908 0.8193 0.1365
H101 H 0.7023 0.7681 0.1170
C93 C 0.43241(9) 0.88809(9) 0.39942(5)
C94 C 0.35101(9) 0.86131(9) 0.43717(5)
H102 H 0.2889 0.8531 0.4241
C95 C 0.36015(10) 0.84673(10) 0.49331(5)
H103 H 0.3040 0.8294 0.5182
C96 C 0.45114(10) 0.85732(9) 0.51349(5)
C97 C 0.53389(10) 0.88109(10) 0.47659(6)
H104 H 0.5968 0.8870 0.4896
C98 C 0.52335(9) 0.89604(10) 0.42055(5)
H105 H 0.5800 0.9123 0.3957
C99 C 0.54635(13) 0.84608(12) 0.59065(6)
H106 H 0.5977 0.7930 0.5756
H107 H 0.5363 0.8380 0.6311
H108 H 0.5698 0.9093 0.5798
loop_
_geom_bond_atom_site_label_1
_geom_bond_atom_site_label_2
_geom_bond_site_symmetry_1
_geom_bond_site_symmetry_2
O1 B1 1_555 1_555
O2 B1 1_555 1_555
O3 C23 1_555 1_555
O4 C30 1_555 1_555
N1 H1 1_555 1_555
N2 H2 1_555 1_555
B1 C7 1_555 1_555
B2 N1 1_555 1_555
C1 O2 1_555 1_555
C2 O1 1_555 1_555
C3 C1 1_555 1_555
H3 C3 1_555 1_555
H4 C3 1_555 1_555
H5 C3 1_555 1_555
C4 C1 1_555 1_555
H6 C4 1_555 1_555
H7 C4 1_555 1_555
H8 C4 1_555 1_555
C5 C2 1_555 1_555
H9 C5 1_555 1_555
H10 C5 1_555 1_555
H11 C5 1_555 1_555
C6 C2 1_555 1_555
H12 C6 1_555 1_555
H13 C6 1_555 1_555
H14 C6 1_555 1_555
C7 C8 1_555 1_555
C8 B2 1_555 1_555
H15 C8 1_555 1_555
H16 C8 1_555 1_555
C9 N1 1_555 1_555
C10 C9 1_555 1_555
H17 C10 1_555 1_555
C11 C10 1_555 1_555
H18 C11 1_555 1_555
C12 C11 1_555 1_555
H19 C12 1_555 1_555
C13 C12 1_555 1_555
C14 C13 1_555 1_555
H20 C14 1_555 1_555
C15 C14 1_555 1_555
H21 C15 1_555 1_555
C16 C15 1_555 1_555
H22 C16 1_555 1_555
C17 N2 1_555 1_555
C18 C9 1_555 1_555
C19 C7 1_555 1_555
C20 C19 1_555 1_555
C21 C20 1_555 1_555
H23 C21 1_555 1_555
C22 C21 1_555 1_555
H24 C22 1_555 1_555
C23 C22 1_555 1_555
C24 C23 1_555 1_555
H25 C24 1_555 1_555
C25 C20 1_555 1_555
H26 C25 1_555 1_555
C26 O3 1_555 1_555
H27 C26 1_555 1_555
H28 C26 1_555 1_555
H29 C26 1_555 1_555
C27 C19 1_555 1_555
C28 C27 1_555 1_555
H30 C28 1_555 1_555
C29 C28 1_555 1_555
H31 C29 1_555 1_555
C30 C29 1_555 1_555
C31 C30 1_555 1_555
H32 C31 1_555 1_555
C32 C27 1_555 1_555
H33 C32 1_555 1_555
C33 O4 1_555 1_555
H34 C33 1_555 1_555
H35 C33 1_555 1_555
H36 C33 1_555 1_555
O5 B3 1_555 1_555
O6 B3 1_555 1_555
O7 C56 1_555 1_555
O8 C63 1_555 1_555
N3 H37 1_555 1_555
N4 H38 1_555 1_555
B3 C40 1_555 1_555
B4 N3 1_555 1_555
C34 O5 1_555 1_555
C35 O6 1_555 1_555
C36 C34 1_555 1_555
H39 C36 1_555 1_555
H40 C36 1_555 1_555
H41 C36 1_555 1_555
C37 C34 1_555 1_555
H42 C37 1_555 1_555
H43 C37 1_555 1_555
H44 C37 1_555 1_555
C38 C35 1_555 1_555
H45 C38 1_555 1_555
H46 C38 1_555 1_555
H47 C38 1_555 1_555
C39 C35 1_555 1_555
H48 C39 1_555 1_555
H49 C39 1_555 1_555
H50 C39 1_555 1_555
C40 C41 1_555 1_555
C41 B4 1_555 1_555
H51 C41 1_555 1_555
H52 C41 1_555 1_555
C42 N3 1_555 1_555
C43 C42 1_555 1_555
H53 C43 1_555 1_555
C44 C43 1_555 1_555
H54 C44 1_555 1_555
C45 C44 1_555 1_555
H55 C45 1_555 1_555
C46 C45 1_555 1_555
C47 C46 1_555 1_555
H56 C47 1_555 1_555
C48 C47 1_555 1_555
H57 C48 1_555 1_555
C49 C48 1_555 1_555
H58 C49 1_555 1_555
C50 N4 1_555 1_555
C51 C42 1_555 1_555
C52 C40 1_555 1_555
C53 C52 1_555 1_555
C54 C53 1_555 1_555
H59 C54 1_555 1_555
C55 C54 1_555 1_555
H60 C55 1_555 1_555
C56 C55 1_555 1_555
C57 C56 1_555 1_555
H61 C57 1_555 1_555
C58 C53 1_555 1_555
H62 C58 1_555 1_555
C59 O7 1_555 1_555
H63 C59 1_555 1_555
H64 C59 1_555 1_555
H65 C59 1_555 1_555
C60 C52 1_555 1_555
C61 C60 1_555 1_555
H66 C61 1_555 1_555
C62 C61 1_555 1_555
H67 C62 1_555 1_555
C63 C62 1_555 1_555
C64 C63 1_555 1_555
H68 C64 1_555 1_555
C65 C60 1_555 1_555
H69 C65 1_555 1_555
C66 O8 1_555 1_555
H70 C66 1_555 1_555
H71 C66 1_555 1_555
H72 C66 1_555 1_555
O9 B5 1_555 1_555
O10 B5 1_555 1_555
O11 C89 1_555 1_555
O12 C96 1_555 1_555
N5 H73 1_555 1_555
N6 H74 1_555 1_555
B5 C73 1_555 1_555
B6 N5 1_555 1_555
C67 O9 1_555 1_555
C68 O10 1_555 1_555
C69 C67 1_555 1_555
H75 C69 1_555 1_555
H76 C69 1_555 1_555
H77 C69 1_555 1_555
C70 C67 1_555 1_555
H78 C70 1_555 1_555
H79 C70 1_555 1_555
H80 C70 1_555 1_555
C71 C68 1_555 1_555
H81 C71 1_555 1_555
H82 C71 1_555 1_555
H83 C71 1_555 1_555
C72 C68 1_555 1_555
H84 C72 1_555 1_555
H85 C72 1_555 1_555
H86 C72 1_555 1_555
C73 C74 1_555 1_555
C74 B6 1_555 1_555
H87 C74 1_555 1_555
H88 C74 1_555 1_555
C75 N5 1_555 1_555
C76 C75 1_555 1_555
H89 C76 1_555 1_555
C77 C76 1_555 1_555
H90 C77 1_555 1_555
C78 C77 1_555 1_555
H91 C78 1_555 1_555
C79 C78 1_555 1_555
C80 C79 1_555 1_555
H92 C80 1_555 1_555
C81 C80 1_555 1_555
H93 C81 1_555 1_555
C82 C81 1_555 1_555
H94 C82 1_555 1_555
C83 N6 1_555 1_555
C84 C75 1_555 1_555
C85 C73 1_555 1_555
C86 C85 1_555 1_555
C87 C86 1_555 1_555
H95 C87 1_555 1_555
C88 C87 1_555 1_555
H96 C88 1_555 1_555
C89 C88 1_555 1_555
C90 C89 1_555 1_555
H97 C90 1_555 1_555
C91 C86 1_555 1_555
H98 C91 1_555 1_555
C92 O11 1_555 1_555
H99 C92 1_555 1_555
H100 C92 1_555 1_555
H101 C92 1_555 1_555
C93 C85 1_555 1_555
C94 C93 1_555 1_555
H102 C94 1_555 1_555
C95 C94 1_555 1_555
H103 C95 1_555 1_555
C96 C95 1_555 1_555
C97 C96 1_555 1_555
H104 C97 1_555 1_555
C98 C93 1_555 1_555
H105 C98 1_555 1_555
C99 O12 1_555 1_555
H106 C99 1_555 1_555
H107 C99 1_555 1_555
H108 C99 1_555 1_555
N2 B2 1_555 1_555
C1 C2 1_555 1_555
C13 C18 1_555 1_555
C16 C17 1_555 1_555
C17 C18 1_555 1_555
C24 C25 1_555 1_555
C31 C32 1_555 1_555
N4 B4 1_555 1_555
C34 C35 1_555 1_555
C46 C51 1_555 1_555
C49 C50 1_555 1_555
C50 C51 1_555 1_555
C57 C58 1_555 1_555
C64 C65 1_555 1_555
N6 B6 1_555 1_555
C67 C68 1_555 1_555
C79 C84 1_555 1_555
C82 C83 1_555 1_555
C83 C84 1_555 1_555
C90 C91 1_555 1_555
C97 C98 1_555 1_555

#END
