
#######################################################################
#
#                 Cambridge Crystallographic Data Centre
#                                CCDC 
#
#######################################################################
#
# If this CIF has been generated from an entry in the Cambridge 
# Structural Database, then it will include bibliographic, chemical, 
# crystal, experimental, refinement or atomic coordinate data resulting 
# from the CCDC's data processing and validation procedures.
#
#######################################################################

data_NUSBIO
_chemical_name_common            "guanidinium 4'-ethylbiphenyl-4-sulfonate"
_chemical_formula_moiety         'C14 H13 O3 S1 1-,C1 H6 N3 1+'
_chemical_name_systematic        
"diaminomethaniminium 4'-ethylbiphenyl-4-sulfonate"
_symmetry_cell_setting           monoclinic
_symmetry_space_group_name_H-M   'P 21'
_symmetry_Int_Tables_number      4
_space_group_name_Hall           'P 2yb'
loop_
_symmetry_equiv_pos_site_id
_symmetry_equiv_pos_as_xyz
1 x,y,z
2 -x,1/2+y,-z
_cell_length_a                   12.180(4)
_cell_length_b                   7.250(2)
_cell_length_c                   17.807(5)
_cell_angle_alpha                90
_cell_angle_beta                 100.204(6)
_cell_angle_gamma                90
_cell_volume                     1547.58
_exptl_crystal_colour            colorless
_exptl_crystal_description       needles
_chemical_melting_point          '296 deg.C'
_cell_formula_units_Z            4
loop_
_atom_site_label
_atom_site_type_symbol
_atom_site_fract_x
_atom_site_fract_y
_atom_site_fract_z
O1 O 0.67310(18) 0.2479(12) 0.37110(13)
O2 O 0.5066(5) 0.0815(9) 0.3874(4)
O3 O 0.5077(5) 0.4152(9) 0.3886(3)
S1 S 0.55144(7) 0.2483(6) 0.35958(5)
C1 C 0.5072(3) 0.2601(11) 0.2589(2)
C2 C 0.5573(6) 0.1582(11) 0.2104(4)
H1 H 0.6208 0.0852 0.2298
C3 C 0.5160(6) 0.1605(10) 0.1326(4)
H2 H 0.5528 0.0887 0.1000
C4 C 0.4259(3) 0.2600(11) 0.1012(2)
C5 C 0.3724(6) 0.3687(11) 0.1518(5)
H3 H 0.3090 0.4411 0.1316
C6 C 0.4125(6) 0.3690(12) 0.2303(5)
H4 H 0.3771 0.4407 0.2637
C7 C 0.3770(3) 0.2514(11) 0.01790(19)
C8 C 0.2776(3) 0.2470(11) -0.1389(2)
C9 C 0.4329(8) 0.3157(13) -0.0369(6)
H5 H 0.5064 0.3621 -0.0213
C10 C 0.3877(8) 0.3163(14) -0.1137(6)
H6 H 0.4297 0.3627 -0.1497
C11 C 0.2213(9) 0.1824(15) -0.0836(6)
H7 H 0.1478 0.1360 -0.0988
C12 C 0.2673(8) 0.1823(14) -0.0075(7)
H8 H 0.2256 0.1356 0.0286
C13 C 0.2269(4) 0.257(2) -0.2234(2)
H9 H 0.2516 0.3736 -0.2442
H10 H 0.2573 0.1542 -0.2499
C14 C 0.1013(3) 0.249(2) -0.2420(2)
H11 H 0.0776 0.2265 -0.2968
H12 H 0.0701 0.3663 -0.2284
H13 H 0.0744 0.1487 -0.2131
O4 O 1.18213(18) 0.2457(11) 0.40403(13)
O5 O 1.0164(5) 0.0842(9) 0.4224(4)
O6 O 1.0174(5) 0.4160(9) 0.4231(3)
S2 S 1.06033(7) 0.2487(6) 0.39319(4)
C23 C 1.0132(3) 0.2497(14) 0.29368(18)
C24 C 1.0891(3) 0.2492(16) 0.2441(2)
H22 H 1.1669 0.2539 0.2636
C25 C 1.0511(3) 0.2418(17) 0.1660(2)
H23 H 1.1033 0.2275 0.1326
C26 C 0.9378(3) 0.2548(16) 0.13565(19)
C27 C 0.8623(3) 0.2462(17) 0.18649(18)
H24 H 0.7846 0.2370 0.1670
C28 C 0.8990(3) 0.2511(16) 0.26458(18)
H25 H 0.8467 0.2553 0.2983
C29 C 0.8982(3) 0.2481(11) 0.05145(18)
C30 C 0.9612(9) 0.1614(13) 0.0024(6)
H26 H 1.0291 0.1012 0.0232
C31 C 0.9255(8) 0.1631(13) -0.0752(6)
H27 H 0.9700 0.1036 -0.1067
C32 C 0.8289(3) 0.2464(11) -0.10917(18)
C33 C 0.7648(9) 0.3344(14) -0.0597(6)
H28 H 0.6970 0.3948 -0.0805
C34 C 0.8008(7) 0.3322(13) 0.0178(6)
H29 H 0.7565 0.3914 0.0495
C35 C 0.7962(3) 0.2543(17) -0.1958(2)
H30 H 0.7883 0.1267 -0.2159
H31 H 0.8573 0.3140 -0.2169
C36 C 0.6847(5) 0.3617(10) -0.2252(3)
H32 H 0.6662 0.3523 -0.2810
H33 H 0.6942 0.4918 -0.2105
H34 H 0.6243 0.3080 -0.2026
C41 C 0.7464(3) -0.2545(14) 0.41072(18)
N1 N 0.7987(5) -0.0938(10) 0.4163(4)
H39 H 0.8721 -0.0903 0.4247
H40 H 0.7602 0.0095 0.4116
N2 N 0.6352(2) -0.2538(14) 0.39676(19)
H41 H 0.5983 -0.3587 0.3920
H42 H 0.5988 -0.1484 0.3922
N3 N 0.7999(6) -0.4118(11) 0.4174(4)
H43 H 0.8733 -0.4131 0.4258
H44 H 0.7625 -0.5163 0.4133
C42 C 0.7421(3) 0.2463(15) 0.56616(19)
N4 N 0.8498(3) 0.2448(15) 0.5631(2)
H45 H 0.8849 0.1392 0.5615
H46 H 0.8863 0.3494 0.5626
N5 N 0.6901(6) 0.0886(11) 0.5668(4)
H47 H 0.7267 -0.0155 0.5652
H48 H 0.6184 0.0866 0.5688
N6 N 0.6898(6) 0.4059(11) 0.5683(4)
H49 H 0.6181 0.4078 0.5702
H50 H 0.7267 0.5101 0.5678
C15? C 0.5448(9) 0.3762(16) 0.2119(7)
H14? H 0.6012 0.4619 0.2323
C16? C 0.5052(8) 0.3775(15) 0.1342(7)
H15? H 0.5349 0.4642 0.1032
C17? C 0.3815(10) 0.1278(18) 0.1504(7)
H16? H 0.3254 0.0426 0.1289
C18? C 0.4215(9) 0.1268(18) 0.2292(8)
H17? H 0.3936 0.0421 0.2619
C19? C 0.4365(9) 0.1812(14) -0.0348(6)
H18? H 0.5099 0.1351 -0.0187
C20? C 0.3879(8) 0.1784(14) -0.1121(7)
H19? H 0.4294 0.1296 -0.1479
C21? C 0.2219(9) 0.3138(14) -0.0867(6)
H20? H 0.1484 0.3595 -0.1027
C22? C 0.2686(8) 0.3182(15) -0.0095(6)
H21? H 0.2262 0.3676 0.0257
C37? C 0.9623(9) 0.3354(13) 0.0013(6)
H35? H 1.0300 0.3962 0.0218
C38? C 0.9262(8) 0.3317(13) -0.0768(7)
H36? H 0.9701 0.3901 -0.1090
C39? C 0.7665(9) 0.1611(14) -0.0589(6)
H37? H 0.6988 0.1006 -0.0799
C40? C 0.8005(8) 0.1621(14) 0.0205(6)
H38? H 0.7563 0.1037 0.0525
loop_
_geom_bond_atom_site_label_1
_geom_bond_atom_site_label_2
_geom_bond_site_symmetry_1
_geom_bond_site_symmetry_2
O1 S1 1_555 1_555
O2 S1 1_555 1_555
O3 S1 1_555 1_555
S1 C1 1_555 1_555
C1 C2 1_555 1_555
C2 H1 1_555 1_555
C3 C2 1_555 1_555
H2 C3 1_555 1_555
C4 C3 1_555 1_555
C5 C4 1_555 1_555
H3 C5 1_555 1_555
C6 C1 1_555 1_555
H4 C6 1_555 1_555
C7 C4 1_555 1_555
C8 C10 1_555 1_555
C9 C7 1_555 1_555
H5 C9 1_555 1_555
C10 C9 1_555 1_555
H6 C10 1_555 1_555
C11 C8 1_555 1_555
H7 C11 1_555 1_555
C12 C7 1_555 1_555
H8 C12 1_555 1_555
C13 C8 1_555 1_555
H9 C13 1_555 1_555
H10 C13 1_555 1_555
C14 C13 1_555 1_555
H11 C14 1_555 1_555
H12 C14 1_555 1_555
H13 C14 1_555 1_555
O4 S2 1_555 1_555
O5 S2 1_555 1_555
O6 S2 1_555 1_555
S2 C23 1_555 1_555
C23 C24 1_555 1_555
C24 H22 1_555 1_555
C25 C24 1_555 1_555
H23 C25 1_555 1_555
C26 C25 1_555 1_555
C27 C26 1_555 1_555
H24 C27 1_555 1_555
C28 C23 1_555 1_555
H25 C28 1_555 1_555
C29 C26 1_555 1_555
C30 C29 1_555 1_555
H26 C30 1_555 1_555
C31 C30 1_555 1_555
H27 C31 1_555 1_555
C32 C31 1_555 1_555
C33 C32 1_555 1_555
H28 C33 1_555 1_555
C34 C29 1_555 1_555
H29 C34 1_555 1_555
C35 C32 1_555 1_555
H30 C35 1_555 1_555
H31 C35 1_555 1_555
C36 C35 1_555 1_555
H32 C36 1_555 1_555
H33 C36 1_555 1_555
H34 C36 1_555 1_555
C41 N1 1_555 1_555
N1 H39 1_555 1_555
H40 N1 1_555 1_555
N2 C41 1_555 1_555
H41 N2 1_555 1_555
H42 N2 1_555 1_555
N3 C41 1_555 1_555
H43 N3 1_555 1_555
H44 N3 1_555 1_555
C42 N4 1_555 1_555
N4 H45 1_555 1_555
H46 N4 1_555 1_555
N5 C42 1_555 1_555
H47 N5 1_555 1_555
H48 N5 1_555 1_555
N6 C42 1_555 1_555
H49 N6 1_555 1_555
H50 N6 1_555 1_555
C5 C6 1_555 1_555
C11 C12 1_555 1_555
C27 C28 1_555 1_555
C33 C34 1_555 1_555

#END
