
#######################################################################
#
#                 Cambridge Crystallographic Data Centre
#                                CCDC 
#
#######################################################################
#
# If this CIF has been generated from an entry in the Cambridge 
# Structural Database, then it will include bibliographic, chemical, 
# crystal, experimental, refinement or atomic coordinate data resulting 
# from the CCDC's data processing and validation procedures.
#
#######################################################################

data_NUSGIR
_chemical_formula_moiety         'C9 H12 O4'
_chemical_name_systematic        
'Cyclopent-3-ene-1,1-dicarboxylic acid dimethyl ester'
_symmetry_cell_setting           monoclinic
_symmetry_space_group_name_H-M   'P 21/c'
_symmetry_Int_Tables_number      14
_space_group_name_Hall           '-P 2ybc'
loop_
_symmetry_equiv_pos_site_id
_symmetry_equiv_pos_as_xyz
1 x,y,z
2 x,1/2-y,1/2+z
3 -x,-y,-z
4 -x,1/2+y,1/2-z
_cell_length_a                   13.5576(6)
_cell_length_b                   6.0160(3)
_cell_length_c                   12.2027(5)
_cell_angle_alpha                90
_cell_angle_beta                 113.278(1)
_cell_angle_gamma                90
_cell_volume                     914.265
_exptl_crystal_colour            colorless
_exptl_crystal_description       block
_cell_formula_units_Z            4
loop_
_atom_site_label
_atom_site_type_symbol
_atom_site_fract_x
_atom_site_fract_y
_atom_site_fract_z
O1 O 0.38013(7) 0.1999(2) 0.37494(8)
O2 O 0.15643(7) 0.3413(2) 0.21149(8)
O3 O 0.41597(8) 0.5596(2) 0.35529(9)
O4 O 0.10494(8) 0.2333(2) 0.35747(9)
C1 C 0.26494(10) 0.4608(2) 0.40654(11)
C2 C 0.29708(11) 0.3983(2) 0.54072(12)
C3 C 0.23078(12) 0.7108(2) 0.39610(13)
C4 C 0.36096(10) 0.4190(2) 0.37359(11)
C5 C 0.16770(10) 0.3277(2) 0.32557(12)
C6 C 0.47717(12) 0.1355(3) 0.35933(14)
C7 C 0.25754(11) 0.5920(3) 0.58974(13)
C8 C 0.22194(11) 0.7569(3) 0.51316(13)
C9 C 0.05791(13) 0.2476(3) 0.12409(14)
H1 H 0.1629(14) 0.7397(28) 0.3263(15)
H2 H 0.2854(14) 0.8008(29) 0.3857(15)
H3 H 0.2640(13) 0.2558(31) 0.5491(14)
H4 H 0.4725(14) -0.0244(36) 0.3539(16)
H5 H 0.3780(15) 0.3846(28) 0.5839(15)
H6 H 0.0658(15) 0.2541(33) 0.0506(19)
H7 H 0.5389(16) 0.1804(30) 0.4291(17)
H8 H 0.1975(14) 0.8905(32) 0.5295(15)
H9 H 0.0508(15) 0.0955(36) 0.1455(17)
H10 H -0.0030(17) 0.3355(32) 0.1224(16)
H11 H 0.4764(15) 0.2008(32) 0.2898(18)
H12 H 0.2628(15) 0.5889(31) 0.6701(17)
loop_
_geom_bond_atom_site_label_1
_geom_bond_atom_site_label_2
_geom_bond_site_symmetry_1
_geom_bond_site_symmetry_2
O1 C4 1_555 1_555
O2 C5 1_555 1_555
O3 C4 1_555 1_555
O4 C5 1_555 1_555
C1 C2 1_555 1_555
C2 C7 1_555 1_555
C3 C1 1_555 1_555
C4 C1 1_555 1_555
C5 C1 1_555 1_555
C6 O1 1_555 1_555
C7 C8 1_555 1_555
C8 C3 1_555 1_555
C9 O2 1_555 1_555
H1 C3 1_555 1_555
H2 C3 1_555 1_555
H3 C2 1_555 1_555
H4 C6 1_555 1_555
H5 C2 1_555 1_555
H6 C9 1_555 1_555
H7 C6 1_555 1_555
H8 C8 1_555 1_555
H9 C9 1_555 1_555
H10 C9 1_555 1_555
H11 C6 1_555 1_555
H12 C7 1_555 1_555

#END
