
#######################################################################
#
#                 Cambridge Crystallographic Data Centre
#                                CCDC 
#
#######################################################################
#
# If this CIF has been generated from an entry in the Cambridge 
# Structural Database, then it will include bibliographic, chemical, 
# crystal, experimental, refinement or atomic coordinate data resulting 
# from the CCDC's data processing and validation procedures.
#
#######################################################################

data_NUSJUI
_chemical_formula_moiety         'C16 H20 N4 O2 S1'
_chemical_name_systematic        
N-t-Butyl-4-methyl-N'-(3-methylbenzoyl)-1,2,3-thiadiazole-5-carbohydrazide
_symmetry_cell_setting           monoclinic
_symmetry_space_group_name_H-M   'P 21/c'
_symmetry_Int_Tables_number      14
_space_group_name_Hall           '-P 2ybc'
loop_
_symmetry_equiv_pos_site_id
_symmetry_equiv_pos_as_xyz
1 x,y,z
2 -x,1/2+y,1/2-z
3 -x,-y,-z
4 x,1/2-y,1/2+z
_cell_length_a                   11.724(2)
_cell_length_b                   9.2465(18)
_cell_length_c                   15.567(3)
_cell_angle_alpha                90
_cell_angle_beta                 95.26(3)
_cell_angle_gamma                90
_cell_volume                     1680.45
_cell_formula_units_Z            4
loop_
_atom_site_label
_atom_site_type_symbol
_atom_site_fract_x
_atom_site_fract_y
_atom_site_fract_z
S1 S 0.40904(5) 0.47821(7) 0.09597(4)
O1 O 0.16277(13) 0.50376(19) 0.25269(12)
O2 O 0.49279(13) 0.65177(16) 0.31152(12)
N1 N 0.3593(2) 0.5488(2) 0.00151(15)
N2 N 0.2568(2) 0.6012(2) 0.00454(15)
N3 N 0.34343(14) 0.42950(19) 0.29256(13)
N4 N 0.45579(15) 0.4217(2) 0.26978(14)
C1 C 0.0953(2) 0.6410(4) 0.0916(2)
H1 H 0.0706 0.6984 0.0419
H2 H 0.0954 0.6993 0.1426
H3 H 0.0439 0.5609 0.0955
C2 C 0.2137(2) 0.5856(3) 0.08326(18)
C3 C 0.2884(2) 0.5178(2) 0.14400(17)
C4 C 0.2601(2) 0.4846(2) 0.23386(17)
C5 C 0.32025(19) 0.3994(2) 0.38533(16)
C6 C 0.2274(2) 0.2832(3) 0.38636(18)
H4 H 0.1568 0.3197 0.3586
H5 H 0.2169 0.2580 0.4449
H6 H 0.2503 0.1990 0.3562
C7 C 0.2860(2) 0.5387(2) 0.42865(18)
H7 H 0.3458 0.6091 0.4262
H8 H 0.2743 0.5193 0.4878
H9 H 0.2164 0.5753 0.3992
C8 C 0.4295(2) 0.3408(3) 0.43309(17)
H10 H 0.4526 0.2546 0.4050
H11 H 0.4159 0.3188 0.4915
H12 H 0.4890 0.4121 0.4329
C9 C 0.52822(19) 0.5351(2) 0.28711(16)
C10 C 0.65121(19) 0.5102(2) 0.27661(17)
C11 C 0.69010(19) 0.4093(2) 0.21897(17)
H13 H 0.6383 0.3524 0.1851
C12 C 0.80637(19) 0.3955(3) 0.21299(18)
H14 H 0.8328 0.3290 0.1746
C13 C 0.8842(2) 0.4797(3) 0.26360(18)
H15 H 0.9622 0.4686 0.2589
C14 C 0.84695(19) 0.5806(3) 0.32140(18)
C15 C 0.73018(18) 0.5956(2) 0.32645(16)
H16 H 0.7038 0.6638 0.3638
C16 C 0.9317(2) 0.6727(3) 0.3760(2)
H17 H 1.0063 0.6627 0.3557
H18 H 0.9345 0.6419 0.4350
H19 H 0.9084 0.7722 0.3718
H20 H 0.4780(17) 0.3341(14) 0.2539(16)
loop_
_geom_bond_atom_site_label_1
_geom_bond_atom_site_label_2
_geom_bond_site_symmetry_1
_geom_bond_site_symmetry_2
S1 N1 1_555 1_555
O1 C4 1_555 1_555
O2 C9 1_555 1_555
N1 N2 1_555 1_555
N2 C2 1_555 1_555
N3 N4 1_555 1_555
N4 C9 1_555 1_555
C1 H1 1_555 1_555
H2 C1 1_555 1_555
H3 C1 1_555 1_555
C2 C1 1_555 1_555
C3 S1 1_555 1_555
C4 N3 1_555 1_555
C5 N3 1_555 1_555
C6 C5 1_555 1_555
H4 C6 1_555 1_555
H5 C6 1_555 1_555
H6 C6 1_555 1_555
C7 C5 1_555 1_555
H7 C7 1_555 1_555
H8 C7 1_555 1_555
H9 C7 1_555 1_555
C8 C5 1_555 1_555
H10 C8 1_555 1_555
H11 C8 1_555 1_555
H12 C8 1_555 1_555
C9 C10 1_555 1_555
C10 C11 1_555 1_555
C11 H13 1_555 1_555
C12 C11 1_555 1_555
H14 C12 1_555 1_555
C13 C12 1_555 1_555
H15 C13 1_555 1_555
C14 C13 1_555 1_555
C15 C10 1_555 1_555
H16 C15 1_555 1_555
C16 C14 1_555 1_555
H17 C16 1_555 1_555
H18 C16 1_555 1_555
H19 C16 1_555 1_555
H20 N4 1_555 1_555
C2 C3 1_555 1_555
C3 C4 1_555 1_555
C14 C15 1_555 1_555

#END
