
#######################################################################
#
#                 Cambridge Crystallographic Data Centre
#                                CCDC 
#
#######################################################################
#
# If this CIF has been generated from an entry in the Cambridge 
# Structural Database, then it will include bibliographic, chemical, 
# crystal, experimental, refinement or atomic coordinate data resulting 
# from the CCDC's data processing and validation procedures.
#
#######################################################################

data_NUSJIU
_chemical_formula_moiety         'C24 H20 N6'
_chemical_name_systematic        1,2-bis(3-(2-Pyridyl)imidazolyl)benzene
_symmetry_cell_setting           monoclinic
_symmetry_space_group_name_H-M   'P 21/c'
_symmetry_Int_Tables_number      14
_space_group_name_Hall           '-P 2ybc'
loop_
_symmetry_equiv_pos_site_id
_symmetry_equiv_pos_as_xyz
1 x,y,z
2 x,1/2-y,1/2+z
3 -x,-y,-z
4 -x,1/2+y,1/2-z
_cell_length_a                   10.1831(10)
_cell_length_b                   24.930(3)
_cell_length_c                   8.1034(7)
_cell_angle_alpha                90
_cell_angle_beta                 102.111(6)
_cell_angle_gamma                90
_cell_volume                     2011.38
_cell_formula_units_Z            4
loop_
_atom_site_label
_atom_site_type_symbol
_atom_site_fract_x
_atom_site_fract_y
_atom_site_fract_z
C1 C -0.1042(2) 0.27814(7) 0.7070(2)
C2 C -0.1066(2) 0.22243(7) 0.7208(2)
H1 H -0.0358(2) 0.20474(7) 0.7962(2)
C3 C -0.2101(2) 0.19244(8) 0.6269(2)
H2 H -0.2091(2) 0.15445(8) 0.6362(2)
C4 C -0.3154(2) 0.21798(8) 0.5190(2)
H3 H -0.3874(2) 0.19762(8) 0.4555(2)
C5 C -0.3148(2) 0.27332(8) 0.5046(2)
H4 H -0.3873(2) 0.29073(8) 0.4313(2)
C6 C -0.2093(2) 0.30402(7) 0.5961(2)
C7 C -0.2115(2) 0.36429(7) 0.5686(2)
H5 H -0.1181(2) 0.37725(7) 0.5801(2)
H6 H -0.2603(2) 0.37218(7) 0.4521(2)
N1 N -0.19988(14) 0.41605(6) 0.8281(2)
N2 N -0.27532(14) 0.39357(6) 0.6878(2)
C8 C -0.4081(2) 0.39699(8) 0.6838(3)
H7 H -0.4786(2) 0.38391(8) 0.5973(3)
C9 C -0.4220(2) 0.42288(8) 0.8281(2)
H8 H -0.5032(2) 0.43131(8) 0.8626(2)
C10 C -0.2901(2) 0.43430(7) 0.9141(2)
N3 N -0.3421(2) 0.46377(9) 1.1793(2)
C11 C -0.2486(2) 0.46191(7) 1.0778(2)
C12 C -0.1235(2) 0.48418(7) 1.1211(2)
H9 H -0.0611(2) 0.48129(7) 1.0493(2)
C13 C -0.0918(3) 0.51054(10) 1.2705(3)
H10 H -0.0058(3) 0.52680(10) 1.3017(3)
C14 C -0.1780(4) 0.51473(10) 1.3777(3)
H11 H -0.1530(4) 0.53333(10) 1.4819(3)
C15 C -0.3027(3) 0.49112(12) 1.3301(3)
H12 H -0.3638(3) 0.49373(12) 1.4036(3)
C16 C 0.0132(2) 0.30837(8) 0.8130(2)
H13 H -0.0163(2) 0.34499(8) 0.8356(2)
H14 H 0.0423(2) 0.28990(8) 0.9227(2)
N4 N 0.11336(14) 0.33970(6) 0.5828(2)
N5 N 0.12707(14) 0.31196(6) 0.7285(2)
C17 C 0.2482(2) 0.28792(7) 0.7722(2)
H15 H 0.2789(2) 0.26625(7) 0.8690(2)
C18 C 0.3190(2) 0.30062(7) 0.6504(2)
H16 H 0.4076(2) 0.28989(7) 0.6454(2)
C19 C 0.2310(2) 0.33303(6) 0.5350(2)
N6 N 0.36928(14) 0.34758(7) 0.3334(2)
C20 C 0.2490(2) 0.35617(6) 0.3739(2)
C21 C 0.1456(2) 0.38396(7) 0.2684(2)
H17 H 0.0629(2) 0.38988(7) 0.3021(2)
C22 C 0.1641(2) 0.40288(8) 0.1144(2)
H18 H 0.0944(2) 0.42166(8) 0.0405(2)
C23 C 0.2863(2) 0.39380(9) 0.0705(3)
H19 H 0.3021(2) 0.40597(9) -0.0347(3)
C24 C 0.3853(2) 0.36662(9) 0.1829(3)
H20 H 0.4693(2) 0.36105(9) 0.1523(3)
loop_
_geom_bond_atom_site_label_1
_geom_bond_atom_site_label_2
_geom_bond_site_symmetry_1
_geom_bond_site_symmetry_2
C1 C2 1_555 1_555
C2 H1 1_555 1_555
C3 C2 1_555 1_555
H2 C3 1_555 1_555
C4 C3 1_555 1_555
H3 C4 1_555 1_555
C5 C4 1_555 1_555
H4 C5 1_555 1_555
C6 C1 1_555 1_555
C7 C6 1_555 1_555
H5 C7 1_555 1_555
H6 C7 1_555 1_555
N1 N2 1_555 1_555
N2 C7 1_555 1_555
C8 N2 1_555 1_555
H7 C8 1_555 1_555
C9 C8 1_555 1_555
H8 C9 1_555 1_555
C10 N1 1_555 1_555
N3 C11 1_555 1_555
C11 C10 1_555 1_555
C12 C11 1_555 1_555
H9 C12 1_555 1_555
C13 C12 1_555 1_555
H10 C13 1_555 1_555
C14 C13 1_555 1_555
H11 C14 1_555 1_555
C15 N3 1_555 1_555
H12 C15 1_555 1_555
C16 C1 1_555 1_555
H13 C16 1_555 1_555
H14 C16 1_555 1_555
N4 N5 1_555 1_555
N5 C16 1_555 1_555
C17 N5 1_555 1_555
H15 C17 1_555 1_555
C18 C17 1_555 1_555
H16 C18 1_555 1_555
C19 N4 1_555 1_555
N6 C20 1_555 1_555
C20 C19 1_555 1_555
C21 C20 1_555 1_555
H17 C21 1_555 1_555
C22 C21 1_555 1_555
H18 C22 1_555 1_555
C23 C22 1_555 1_555
H19 C23 1_555 1_555
C24 N6 1_555 1_555
H20 C24 1_555 1_555
C5 C6 1_555 1_555
C9 C10 1_555 1_555
C14 C15 1_555 1_555
C18 C19 1_555 1_555
C23 C24 1_555 1_555

#END
