
#######################################################################
#
#                 Cambridge Crystallographic Data Centre
#                                CCDC 
#
#######################################################################
#
# If this CIF has been generated from an entry in the Cambridge 
# Structural Database, then it will include bibliographic, chemical, 
# crystal, experimental, refinement or atomic coordinate data resulting 
# from the CCDC's data processing and validation procedures.
#
#######################################################################

data_NUSQEZ
_chemical_formula_moiety         'C22 H17 N1 O1 S1'
_chemical_name_systematic        
4-(2-methoxyphenyl)-1,2-dihydrobenzo[f]thieno[2,3-c]quinoline
_symmetry_cell_setting           orthorhombic
_symmetry_space_group_name_H-M   'P c a 21'
_symmetry_Int_Tables_number      29
_space_group_name_Hall           'P 2c -2ac'
loop_
_symmetry_equiv_pos_site_id
_symmetry_equiv_pos_as_xyz
1 x,y,z
2 -x,-y,1/2+z
3 1/2+x,-y,z
4 1/2-x,y,1/2+z
_cell_length_a                   28.2746(6)
_cell_length_b                   7.6602(2)
_cell_length_c                   7.6661(2)
_cell_angle_alpha                90
_cell_angle_beta                 90
_cell_angle_gamma                90
_cell_volume                     1660.39
_exptl_crystal_colour            colorless
_exptl_crystal_description       block
_cell_formula_units_Z            4
loop_
_atom_site_label
_atom_site_type_symbol
_atom_site_fract_x
_atom_site_fract_y
_atom_site_fract_z
S1 S 0.41142(4) 0.20676(15) -0.0098(2)
C1 C 0.31963(11) 0.1705(4) 0.0036(5)
C2 C 0.36126(12) 0.0841(4) 0.0291(5)
C3 C 0.28081(13) -0.0947(5) 0.1004(5)
C4 C 0.36186(12) -0.0887(4) 0.0889(5)
N1 N 0.32188(11) -0.1737(4) 0.1254(4)
C5 C 0.27619(11) 0.0799(5) 0.0358(5)
C6 C 0.22886(12) 0.1527(5) 0.0123(5)
C7 C 0.44443(12) -0.2055(4) 0.0183(6)
C8 C 0.40645(13) -0.1841(5) 0.1349(5)
C9 C 0.38231(11) 0.4090(4) -0.0314(6)
H1 H 0.3870 0.4806 0.0715
H2 H 0.3937 0.4720 -0.1328
C10 C 0.23934(15) -0.1900(5) 0.1473(6)
H3 H 0.2424 -0.3031 0.1899
O1 O 0.43729(10) -0.1452(4) -0.1488(4)
C11 C 0.13581(15) 0.2806(8) -0.0231(9)
H4 H 0.1053 0.3248 -0.0315
C12 C 0.32627(12) 0.3562(5) -0.0543(6)
H5 H 0.3067 0.4331 0.0157
H6 H 0.3169 0.3685 -0.1754
C13 C 0.21878(15) 0.3161(6) -0.0635(7)
H7 H 0.2437 0.3839 -0.1045
C14 C 0.18960(13) 0.0482(6) 0.0638(5)
C15 C 0.14292(15) 0.1183(7) 0.0447(7)
H8 H 0.1170 0.0520 0.0793
C16 C 0.41053(16) -0.2548(5) 0.3006(6)
H9 H 0.3856 -0.2441 0.3789
C17 C 0.17326(15) 0.3794(7) -0.0791(7)
H10 H 0.1680 0.4890 -0.1276
C18 C 0.47843(17) -0.1172(7) -0.2538(7)
H11 H 0.4691 -0.0751 -0.3666
H12 H 0.4953 -0.2252 -0.2668
H13 H 0.4985 -0.0327 -0.1985
C19 C 0.4517(2) -0.3421(6) 0.3514(8)
H14 H 0.4543 -0.3879 0.4633
C20 C 0.48832(18) -0.3596(6) 0.2352(9)
H15 H 0.5157 -0.4177 0.2692
C21 C 0.19611(14) -0.1208(6) 0.1314(6)
H16 H 0.1699 -0.1857 0.1657
C22 C 0.48512(15) -0.2926(5) 0.0693(8)
H17 H 0.5101 -0.3055 -0.0083
loop_
_geom_bond_atom_site_label_1
_geom_bond_atom_site_label_2
_geom_bond_site_symmetry_1
_geom_bond_site_symmetry_2
S1 C2 1_555 1_555
C1 C2 1_555 1_555
C2 C4 1_555 1_555
C3 N1 1_555 1_555
C4 N1 1_555 1_555
C5 C1 1_555 1_555
C6 C5 1_555 1_555
C7 C8 1_555 1_555
C8 C4 1_555 1_555
C9 S1 1_555 1_555
H1 C9 1_555 1_555
H2 C9 1_555 1_555
C10 C3 1_555 1_555
H3 C10 1_555 1_555
O1 C7 1_555 1_555
C11 H4 1_555 1_555
C12 C1 1_555 1_555
H5 C12 1_555 1_555
H6 C12 1_555 1_555
C13 C6 1_555 1_555
H7 C13 1_555 1_555
C14 C6 1_555 1_555
C15 C11 1_555 1_555
H8 C15 1_555 1_555
C16 C8 1_555 1_555
H9 C16 1_555 1_555
C17 C11 1_555 1_555
H10 C17 1_555 1_555
C18 O1 1_555 1_555
H11 C18 1_555 1_555
H12 C18 1_555 1_555
H13 C18 1_555 1_555
C19 C16 1_555 1_555
H14 C19 1_555 1_555
C20 C19 1_555 1_555
H15 C20 1_555 1_555
C21 C10 1_555 1_555
H16 C21 1_555 1_555
C22 C7 1_555 1_555
H17 C22 1_555 1_555
C3 C5 1_555 1_555
C9 C12 1_555 1_555
C13 C17 1_555 1_555
C14 C15 1_555 1_555
C14 C21 1_555 1_555
C20 C22 1_555 1_555

#END
