
#######################################################################
#
#                 Cambridge Crystallographic Data Centre
#                                CCDC 
#
#######################################################################
#
# If this CIF has been generated from an entry in the Cambridge 
# Structural Database, then it will include bibliographic, chemical, 
# crystal, experimental, refinement or atomic coordinate data resulting 
# from the CCDC's data processing and validation procedures.
#
#######################################################################

data_NUSWOP
_chemical_formula_moiety         'C22 H26 N2 O2 S1 Si1'
_chemical_name_systematic        
8-((4-(Diethylsilyl)-3,4-dihydroisoquinolin-2(1H)-yl)sulfonyl)quinoline
_symmetry_cell_setting           monoclinic
_symmetry_space_group_name_H-M   'C c'
_symmetry_Int_Tables_number      9
_space_group_name_Hall           'C -2yc'
loop_
_symmetry_equiv_pos_site_id
_symmetry_equiv_pos_as_xyz
1 x,y,z
2 x,-y,1/2+z
3 1/2+x,1/2+y,z
4 1/2+x,1/2-y,1/2+z
_cell_length_a                   18.662(15)
_cell_length_b                   10.727(9)
_cell_length_c                   11.793(10)
_cell_angle_alpha                90
_cell_angle_beta                 119.34(5)
_cell_angle_gamma                90
_cell_volume                     2057.98
_exptl_crystal_colour            white
_exptl_crystal_description       platy
_cell_formula_units_Z            4
loop_
_atom_site_label
_atom_site_type_symbol
_atom_site_fract_x
_atom_site_fract_y
_atom_site_fract_z
S1 S 0.05860(7) -0.12723(10) 0.38245(10)
O1 O 0.0815(2) -0.1849(3) 0.5054(3)
O2 O 0.1018(2) -0.1609(3) 0.3160(4)
N1 N -0.0889(3) -0.0838(4) 0.4173(4)
N2 N 0.0666(3) 0.0228(3) 0.4032(4)
Si1 Si 0.23596(12) 0.1353(3) 0.62953(17)
H1 H 0.2511 0.0865 0.5258
C1 C -0.1079(3) -0.1385(4) 0.3015(5)
C2 C -0.0456(3) -0.1646(4) 0.2715(5)
C3 C 0.0719(3) 0.2392(5) 0.3261(5)
C4 C 0.0487(4) 0.4509(5) 0.2448(7)
H2 H 0.0303 0.5054 0.1746
C5 C 0.0451(4) 0.3220(5) 0.2234(6)
H3 H 0.0246 0.2918 0.1392
C6 C -0.0635(3) -0.2212(4) 0.1565(5)
H4 H -0.0211 -0.2385 0.1387
C7 C -0.1901(3) -0.1740(4) 0.2072(5)
C8 C 0.0684(3) 0.0977(5) 0.2997(5)
H5 H 0.0197 0.0794 0.2175
H6 H 0.1160 0.0739 0.2920
C9 C -0.2519(3) -0.1501(5) 0.2399(6)
H7 H -0.3062 -0.1715 0.1827
C10 C -0.2060(3) -0.2306(5) 0.0886(5)
H8 H -0.2596 -0.2514 0.0275
C11 C 0.1027(4) 0.2822(5) 0.4521(6)
C12 C -0.1495(3) -0.0645(5) 0.4415(6)
H9 H -0.1375 -0.0282 0.5205
C13 C 0.0663(3) 0.0840(5) 0.5151(5)
H10 H 0.0807 0.0241 0.5846
H11 H 0.0119 0.1161 0.4893
C14 C 0.1053(4) 0.4129(5) 0.4722(7)
H12 H 0.1248 0.4436 0.5560
C15 C 0.0788(4) 0.4972(5) 0.3674(7)
H13 H 0.0818 0.5828 0.3818
C16 C -0.2317(3) -0.0959(5) 0.3542(6)
H14 H -0.2724 -0.0790 0.3758
C17 C -0.1453(4) -0.2541(5) 0.0638(6)
H15 H -0.1563 -0.2920 -0.0140
C18 C 0.1285(4) 0.1907(5) 0.5625(6)
H16 H 0.1246 0.2333 0.6328
C19 C 0.2629(4) 0.0164(5) 0.7622(6)
H17 H 0.2475 0.0501 0.8236
H18 H 0.2296 -0.0572 0.7236
C20 C 0.3532(4) -0.0239(5) 0.8381(7)
H19 H 0.3598 -0.0852 0.9019
H20 H 0.3869 0.0472 0.8808
H21 H 0.3693 -0.0590 0.7791
C21 C 0.2953(6) 0.2988(7) 0.7013(9)
H22 H 0.2704 0.3627 0.6350
H23 H 0.2887 0.3236 0.7747
C22 C 0.3755(7) 0.2915(9) 0.7393(9)
H24 H 0.4010 0.3707 0.7731
H25 H 0.3824 0.2694 0.6664
H26 H 0.4006 0.2291 0.8058
loop_
_geom_bond_atom_site_label_1
_geom_bond_atom_site_label_2
_geom_bond_site_symmetry_1
_geom_bond_site_symmetry_2
S1 O1 1_555 1_555
O2 S1 1_555 1_555
N1 C1 1_555 1_555
N2 S1 1_555 1_555
Si1 H1 1_555 1_555
C1 C2 1_555 1_555
C2 S1 1_555 1_555
C3 C5 1_555 1_555
C4 H2 1_555 1_555
C5 C4 1_555 1_555
H3 C5 1_555 1_555
C6 C2 1_555 1_555
H4 C6 1_555 1_555
C7 C1 1_555 1_555
C8 N2 1_555 1_555
H5 C8 1_555 1_555
H6 C8 1_555 1_555
C9 C7 1_555 1_555
H7 C9 1_555 1_555
C10 C7 1_555 1_555
H8 C10 1_555 1_555
C11 C3 1_555 1_555
C12 N1 1_555 1_555
H9 C12 1_555 1_555
C13 N2 1_555 1_555
H10 C13 1_555 1_555
H11 C13 1_555 1_555
C14 C11 1_555 1_555
H12 C14 1_555 1_555
C15 C4 1_555 1_555
H13 C15 1_555 1_555
C16 C9 1_555 1_555
H14 C16 1_555 1_555
C17 C6 1_555 1_555
H15 C17 1_555 1_555
C18 Si1 1_555 1_555
H16 C18 1_555 1_555
C19 Si1 1_555 1_555
H17 C19 1_555 1_555
H18 C19 1_555 1_555
C20 C19 1_555 1_555
H19 C20 1_555 1_555
H20 C20 1_555 1_555
H21 C20 1_555 1_555
C21 Si1 1_555 1_555
H22 C21 1_555 1_555
H23 C21 1_555 1_555
C22 C21 1_555 1_555
H24 C22 1_555 1_555
H25 C22 1_555 1_555
H26 C22 1_555 1_555
C3 C8 1_555 1_555
C10 C17 1_555 1_555
C11 C18 1_555 1_555
C12 C16 1_555 1_555
C13 C18 1_555 1_555
C14 C15 1_555 1_555

#END
