
#######################################################################
#
#                 Cambridge Crystallographic Data Centre
#                                CCDC 
#
#######################################################################
#
# If this CIF has been generated from an entry in the Cambridge 
# Structural Database, then it will include bibliographic, chemical, 
# crystal, experimental, refinement or atomic coordinate data resulting 
# from the CCDC's data processing and validation procedures.
#
#######################################################################

data_NUSWEF
_chemical_formula_moiety         'C22 H25 Br1 N2 O2 S1 Si1'
_chemical_name_systematic        
8-((6-Bromo-3-(diethylsilyl)-3,4-dihydroquinolin-1(2H)-yl)sulfonyl)quinoline
_symmetry_cell_setting           triclinic
_symmetry_space_group_name_H-M   'P -1'
_symmetry_Int_Tables_number      2
_space_group_name_Hall           '-P 1'
loop_
_symmetry_equiv_pos_site_id
_symmetry_equiv_pos_as_xyz
1 x,y,z
2 -x,-y,-z
_cell_length_a                   7.6277(3)
_cell_length_b                   16.5219(6)
_cell_length_c                   18.3654(7)
_cell_angle_alpha                71.5700(10)
_cell_angle_beta                 78.1050(10)
_cell_angle_gamma                89.9540(10)
_cell_volume                     2143.45
_exptl_crystal_colour            orange
_exptl_crystal_description       platy
_cell_formula_units_Z            4
loop_
_atom_site_label
_atom_site_type_symbol
_atom_site_fract_x
_atom_site_fract_y
_atom_site_fract_z
Br1 Br 1.13721(9) 0.34534(4) 0.53715(4)
S1 S 0.46900(16) 0.32280(8) 0.88261(7)
Si1 Si 0.1954(2) 0.54582(10) 0.65128(9)
H1 H 0.1329 0.5059 0.5999
O1 O 0.5411(5) 0.2404(2) 0.9019(2)
O2 O 0.2878(4) 0.3281(2) 0.9214(2)
N1 N 0.4776(6) 0.3584(3) 0.7872(3)
N2 N 0.4232(5) 0.5095(3) 0.8681(3)
C1 C 0.7692(7) 0.3618(3) 0.9254(3)
H2 H 0.7935 0.3039 0.9313
C2 C 0.6166(6) 0.3933(3) 0.9011(3)
C3 C 0.5744(6) 0.4797(3) 0.8931(3)
C4 C 0.6955(6) 0.5308(3) 0.9122(3)
C5 C 0.8535(7) 0.4975(3) 0.9351(3)
H3 H 0.9355 0.5330 0.9462
C6 C 0.8895(6) 0.4149(3) 0.9416(3)
H4 H 0.9962 0.3932 0.9571
C7 C 0.9303(7) 0.3058(3) 0.6933(3)
H5 H 1.0272 0.2729 0.7080
C8 C 0.9372(8) 0.3506(4) 0.6163(3)
C9 C 0.7803(7) 0.3085(3) 0.7503(3)
H6 H 0.7755 0.2766 0.8038
C10 C 0.6366(7) 0.3573(3) 0.7304(3)
C11 C 0.6504(7) 0.6150(3) 0.9077(3)
H7 H 0.7267 0.6512 0.9208
C12 C 0.3886(7) 0.5885(3) 0.8651(3)
H8 H 0.2826 0.6096 0.8484
C13 C 0.4966(8) 0.6441(4) 0.8846(3)
H9 H 0.4633 0.7002 0.8817
C14 C -0.1593(7) 0.5909(4) 0.6939(3)
H10 H -0.2595 0.5923 0.7364
H11 H -0.1977 0.5569 0.6641
H12 H -0.1215 0.6493 0.6587
C15 C 0.2954(8) 0.6559(4) 0.5906(4)
H13 H 0.3920 0.6517 0.5470
H14 H 0.2017 0.6894 0.5670
C16 C 0.7989(8) 0.4011(4) 0.5948(3)
H15 H 0.8069 0.4336 0.5412
C17 C 0.6485(7) 0.4046(3) 0.6511(3)
C18 C 0.0000(7) 0.5501(4) 0.7292(4)
H16 H -0.0391 0.4914 0.7652
H17 H 0.0367 0.5838 0.7602
C19 C 0.5040(8) 0.4621(4) 0.6238(3)
H18 H 0.4313 0.4337 0.5988
H19 H 0.5612 0.5161 0.5838
C20 C 0.3812(7) 0.4826(4) 0.6913(3)
H20 H 0.4526 0.5203 0.7094
C21 C 0.3213(7) 0.4013(4) 0.7588(4)
H21 H 0.2400 0.4145 0.8024
H22 H 0.2536 0.3621 0.7417
C22 C 0.3723(11) 0.7036(5) 0.6366(6)
H23 H 0.4221 0.7605 0.6014
H24 H 0.4674 0.6717 0.6591
H25 H 0.2769 0.7095 0.6791
Br2 Br 1.17525(9) 0.15498(4) 0.46285(4)
S2 S 0.85201(16) 0.17658(8) 0.11745(7)
Si2 Si 0.3462(2) -0.04468(10) 0.34901(9)
H26 H 0.2333 -0.0058 0.4015
O3 O 0.7094(5) 0.1713(2) 0.0789(2)
O4 O 0.9426(5) 0.2590(2) 0.0985(2)
N3 N 0.7660(6) 0.1412(3) 0.2128(3)
N4 N 0.7930(6) -0.0098(3) 0.1300(3)
C23 C 1.3331(6) 0.0849(3) 0.0593(3)
H27 H 1.4550 0.1067 0.0443
C24 C 1.1960(6) 0.1377(3) 0.0752(3)
H28 H 1.2254 0.1955 0.0697
C25 C 1.2921(7) 0.0029(3) 0.0652(3)
H29 H 1.3858 -0.0322 0.0542
C26 C 0.9696(6) 0.0200(3) 0.1061(3)
C27 C 1.1105(7) -0.0312(3) 0.0878(3)
C28 C 1.0617(8) -0.1156(3) 0.0921(3)
H30 H 1.1514 -0.1519 0.0795
C29 C 1.0306(7) 0.1915(4) 0.2498(3)
H31 H 1.0784 0.2235 0.1963
C30 C 1.1235(7) 0.1944(4) 0.3066(3)
H32 H 1.2350 0.2271 0.2918
C31 C 0.8951(8) 0.0997(4) 0.4049(3)
H33 H 0.8496 0.0676 0.4586
C32 C 1.0191(6) 0.1061(3) 0.0987(3)
C33 C 0.0344(7) -0.0908(4) 0.3059(3)
H34 H -0.0228 -0.0915 0.2630
H35 H -0.0356 -0.0584 0.3368
H36 H 0.0397 -0.1496 0.3399
C34 C 1.0533(8) 0.1496(4) 0.3840(3)
C35 C 0.8681(7) 0.1426(3) 0.2697(3)
C36 C 0.6297(8) 0.0382(4) 0.3765(3)
H37 H 0.5328 0.0665 0.4021
H38 H 0.6476 -0.0161 0.4161
C37 C 0.8009(7) 0.0952(3) 0.3491(3)
C38 C 0.7555(8) -0.0891(4) 0.1334(4)
H39 H 0.6332 -0.1103 0.1496
C39 C 0.8852(9) -0.1442(4) 0.1144(3)
H40 H 0.8500 -0.2005 0.1171
C40 C 0.2281(8) -0.0479(5) 0.2712(4)
H41 H 0.2222 0.0112 0.2364
H42 H 0.2974 -0.0799 0.2389
C41 C 0.3889(9) -0.1548(4) 0.4075(4)
H43 H 0.4419 -0.1512 0.4513
H44 H 0.2724 -0.1888 0.4307
C42 C 0.5819(8) 0.0987(4) 0.2406(4)
H45 H 0.5453 0.0850 0.1970
H46 H 0.4970 0.1385 0.2567
C43 C 0.5719(9) 0.0186(4) 0.3084(4)
H47 H 0.6603 -0.0197 0.2906
C44 C 0.5114(11) -0.2017(5) 0.3617(6)
H48 H 0.5267 -0.2587 0.3968
H49 H 0.6286 -0.1696 0.3395
H50 H 0.4588 -0.2074 0.3191
loop_
_geom_bond_atom_site_label_1
_geom_bond_atom_site_label_2
_geom_bond_site_symmetry_1
_geom_bond_site_symmetry_2
Br1 C8 1_555 1_555
S1 O1 1_555 1_555
Si1 H1 1_555 1_555
O2 S1 1_555 1_555
N1 S1 1_555 1_555
N2 C3 1_555 1_555
C1 H2 1_555 1_555
C2 S1 1_555 1_555
C3 C2 1_555 1_555
C4 C3 1_555 1_555
C5 C4 1_555 1_555
H3 C5 1_555 1_555
C6 C1 1_555 1_555
H4 C6 1_555 1_555
C7 H5 1_555 1_555
C8 C7 1_555 1_555
C9 C7 1_555 1_555
H6 C9 1_555 1_555
C10 N1 1_555 1_555
C11 C4 1_555 1_555
H7 C11 1_555 1_555
C12 N2 1_555 1_555
H8 C12 1_555 1_555
C13 C11 1_555 1_555
H9 C13 1_555 1_555
C14 H10 1_555 1_555
H11 C14 1_555 1_555
H12 C14 1_555 1_555
C15 Si1 1_555 1_555
H13 C15 1_555 1_555
H14 C15 1_555 1_555
C16 C8 1_555 1_555
H15 C16 1_555 1_555
C17 C10 1_555 1_555
C18 Si1 1_555 1_555
H16 C18 1_555 1_555
H17 C18 1_555 1_555
C19 C17 1_555 1_555
H18 C19 1_555 1_555
H19 C19 1_555 1_555
C20 Si1 1_555 1_555
H20 C20 1_555 1_555
C21 N1 1_555 1_555
H21 C21 1_555 1_555
H22 C21 1_555 1_555
C22 C15 1_555 1_555
H23 C22 1_555 1_555
H24 C22 1_555 1_555
H25 C22 1_555 1_555
Br2 C34 1_555 1_555
S2 O3 1_555 1_555
Si2 H26 1_555 1_555
O4 S2 1_555 1_555
N3 S2 1_555 1_555
N4 C26 1_555 1_555
C23 H27 1_555 1_555
C24 C23 1_555 1_555
H28 C24 1_555 1_555
C25 C23 1_555 1_555
H29 C25 1_555 1_555
C26 C27 1_555 1_555
C27 C25 1_555 1_555
C28 C27 1_555 1_555
H30 C28 1_555 1_555
C29 H31 1_555 1_555
C30 C29 1_555 1_555
H32 C30 1_555 1_555
C31 H33 1_555 1_555
C32 S2 1_555 1_555
C33 H34 1_555 1_555
H35 C33 1_555 1_555
H36 C33 1_555 1_555
C34 C30 1_555 1_555
C35 N3 1_555 1_555
C36 H37 1_555 1_555
H38 C36 1_555 1_555
C37 C31 1_555 1_555
C38 N4 1_555 1_555
H39 C38 1_555 1_555
C39 C28 1_555 1_555
H40 C39 1_555 1_555
C40 Si2 1_555 1_555
H41 C40 1_555 1_555
H42 C40 1_555 1_555
C41 Si2 1_555 1_555
H43 C41 1_555 1_555
H44 C41 1_555 1_555
C42 N3 1_555 1_555
H45 C42 1_555 1_555
H46 C42 1_555 1_555
C43 Si2 1_555 1_555
H47 C43 1_555 1_555
C44 C41 1_555 1_555
H48 C44 1_555 1_555
H49 C44 1_555 1_555
H50 C44 1_555 1_555
C1 C2 1_555 1_555
C5 C6 1_555 1_555
C9 C10 1_555 1_555
C12 C13 1_555 1_555
C14 C18 1_555 1_555
C16 C17 1_555 1_555
C19 C20 1_555 1_555
C20 C21 1_555 1_555
C24 C32 1_555 1_555
C26 C32 1_555 1_555
C29 C35 1_555 1_555
C31 C34 1_555 1_555
C33 C40 1_555 1_555
C35 C37 1_555 1_555
C36 C37 1_555 1_555
C36 C43 1_555 1_555
C38 C39 1_555 1_555
C42 C43 1_555 1_555

#END
