
#######################################################################
#
#                 Cambridge Crystallographic Data Centre
#                                CCDC 
#
#######################################################################
#
# If this CIF has been generated from an entry in the Cambridge 
# Structural Database, then it will include bibliographic, chemical, 
# crystal, experimental, refinement or atomic coordinate data resulting 
# from the CCDC's data processing and validation procedures.
#
#######################################################################

data_NUTDEN
_chemical_formula_moiety         'C44 H30'
_chemical_name_systematic        
2,7-bis(Biphenyl-2-yl)-9-(cyclohepta-2,4,6-trien-1-ylidene)-9H-fluorene
_symmetry_cell_setting           rhombohedral
_symmetry_space_group_name_H-M   'R -3'
_symmetry_Int_Tables_number      148
_space_group_name_Hall           '-R 3'
loop_
_symmetry_equiv_pos_site_id
_symmetry_equiv_pos_as_xyz
1 x,y,z
2 -y,x-y,z
3 -x+y,-x,z
4 2/3+x,1/3+y,1/3+z
5 2/3-y,1/3+x-y,1/3+z
6 2/3-x+y,1/3-x,1/3+z
7 1/3+x,2/3+y,2/3+z
8 1/3-y,2/3+x-y,2/3+z
9 1/3-x+y,2/3-x,2/3+z
10 -x,-y,-z
11 y,-x+y,-z
12 x-y,x,-z
13 1/3-x,2/3-y,2/3-z
14 1/3+y,2/3-x+y,2/3-z
15 1/3+x-y,2/3+x,2/3-z
16 2/3-x,1/3-y,1/3-z
17 2/3+y,1/3-x+y,1/3-z
18 2/3+x-y,1/3+x,1/3-z
_cell_length_a                   39.1553(7)
_cell_length_b                   39.1553(7)
_cell_length_c                   11.16743(18)
_cell_angle_alpha                90
_cell_angle_beta                 90
_cell_angle_gamma                120
_cell_volume                     14827.4
_exptl_crystal_colour            red
_exptl_crystal_description       block
_cell_formula_units_Z            18
loop_
_atom_site_label
_atom_site_type_symbol
_atom_site_fract_x
_atom_site_fract_y
_atom_site_fract_z
C1 C 0.40989(4) 0.16575(4) 0.17085(12)
C2 C 0.44528(4) 0.13587(4) 0.07963(13)
H1 H 0.4483 0.1141 0.0671
C3 C 0.35338(4) 0.10913(4) 0.24194(12)
C4 C 0.41414(4) 0.13266(4) 0.14760(12)
C5 C 0.43597(4) 0.20165(4) 0.11828(13)
H2 H 0.4329 0.2234 0.1302
C6 C 0.31495(4) 0.08008(4) 0.26986(13)
H3 H 0.2971 0.0872 0.2991
C7 C 0.37931(4) 0.09760(4) 0.19254(12)
C8 C 0.25410(4) 0.03491(4) 0.47338(13)
C9 C 0.46697(4) 0.20498(4) 0.04721(13)
C10 C 0.30310(5) 0.04023(4) 0.25404(13)
C11 C 0.47168(4) 0.17214(4) 0.03093(13)
H4 H 0.4930 0.1747 -0.0135
C12 C 0.36482(4) 0.17628(4) 0.31310(12)
C13 C 0.49403(4) 0.24252(5) -0.01586(14)
C14 C 0.36843(5) 0.05825(5) 0.18149(15)
H5 H 0.3862 0.0510 0.1531
C15 C 0.31017(5) 0.17504(6) 0.43757(15)
H6 H 0.2898 0.1592 0.4898
C16 C 0.37374(4) 0.15276(4) 0.24386(12)
C17 C 0.23848(5) 0.00616(5) 0.37214(14)
C18 C 0.33057(5) 0.02997(5) 0.21362(15)
H7 H 0.3232 0.0035 0.2082
C19 C 0.23391(5) 0.05360(5) 0.51061(14)
H8 H 0.2109 0.0486 0.4714
C20 C 0.38411(6) 0.24763(5) 0.34794(15)
H9 H 0.4058 0.2730 0.3492
C21 C 0.49916(5) 0.24113(5) -0.13885(15)
H10 H 0.4856 0.2171 -0.1784
C22 C 0.26128(5) 0.00844(4) 0.27168(14)
C23 C 0.19975(5) -0.02457(5) 0.37873(16)
H11 H 0.1846 -0.0263 0.4451
C24 C 0.33148(5) 0.15921(5) 0.39617(14)
H12 H 0.3240 0.1341 0.4241
C25 C 0.39219(5) 0.21862(5) 0.32304(14)
H13 H 0.4186 0.2267 0.3106
C26 C 0.52400(6) 0.27465(6) -0.20376(17)
H14 H 0.5271 0.2729 -0.2857
C27 C 0.51427(5) 0.27914(5) 0.04298(16)
C28 C 0.31440(6) 0.21282(6) 0.41253(15)
H15 H 0.2924 0.2155 0.4254
C29 C 0.53871(6) 0.31249(5) -0.0254(2)
H16 H 0.5519 0.3369 0.0121
C30 C 0.28831(5) 0.04307(6) 0.53386(15)
H17 H 0.3022 0.0307 0.5104
C31 C 0.51088(6) 0.28356(5) 0.17420(17)
C32 C 0.24763(6) 0.07972(6) 0.60560(16)
H18 H 0.2336 0.0919 0.6302
C33 C 0.34687(7) 0.24467(6) 0.37257(16)
H19 H 0.3451 0.2672 0.3594
C34 C 0.24355(6) -0.02019(5) 0.18240(16)
H20 H 0.2582 -0.0188 0.1152
C35 C 0.18301(6) -0.05273(6) 0.28909(19)
H21 H 0.1570 -0.0731 0.2956
C36 C 0.28177(6) 0.08784(6) 0.66411(16)
H22 H 0.2911 0.1057 0.7273
C37 C 0.30199(6) 0.06922(7) 0.62807(16)
H23 H 0.3250 0.0743 0.6676
C38 C 0.54390(6) 0.31027(6) -0.1471(2)
H24 H 0.5608 0.3329 -0.1901
C39 C 0.20518(6) -0.05029(6) 0.19062(19)
H25 H 0.1942 -0.0689 0.1298
C40 C 0.49992(7) 0.30996(6) 0.2174(2)
H26 H 0.4945 0.3248 0.1636
C41 C 0.49694(9) 0.31460(8) 0.3391(2)
H27 H 0.4897 0.3326 0.3664
C42 C 0.50450(11) 0.29295(9) 0.4193(2)
H28 H 0.5021 0.2958 0.5010
C43 C 0.51861(8) 0.26186(7) 0.2564(2)
H29 H 0.5258 0.2438 0.2298
C44 C 0.51565(11) 0.26683(9) 0.3784(2)
H30 H 0.5213 0.2524 0.4329
loop_
_geom_bond_atom_site_label_1
_geom_bond_atom_site_label_2
_geom_bond_site_symmetry_1
_geom_bond_site_symmetry_2
C1 C4 1_555 1_555
C2 H1 1_555 1_555
C3 C6 1_555 1_555
C4 C2 1_555 1_555
C5 C1 1_555 1_555
H2 C5 1_555 1_555
C6 H3 1_555 1_555
C7 C3 1_555 1_555
C8 C17 1_555 1_555
C9 C5 1_555 1_555
C10 C6 1_555 1_555
C11 C2 1_555 1_555
H4 C11 1_555 1_555
C12 C16 1_555 1_555
C13 C9 1_555 1_555
C14 C7 1_555 1_555
H5 C14 1_555 1_555
C15 H6 1_555 1_555
C16 C1 1_555 1_555
C17 C22 1_555 1_555
C18 C10 1_555 1_555
H7 C18 1_555 1_555
C19 C8 1_555 1_555
H8 C19 1_555 1_555
C20 H9 1_555 1_555
C21 C13 1_555 1_555
H10 C21 1_555 1_555
C22 C10 1_555 1_555
C23 C17 1_555 1_555
H11 C23 1_555 1_555
C24 C12 1_555 1_555
H12 C24 1_555 1_555
C25 C12 1_555 1_555
H13 C25 1_555 1_555
C26 C21 1_555 1_555
H14 C26 1_555 1_555
C27 C13 1_555 1_555
C28 C15 1_555 1_555
H15 C28 1_555 1_555
C29 C27 1_555 1_555
H16 C29 1_555 1_555
C30 C8 1_555 1_555
H17 C30 1_555 1_555
C31 C27 1_555 1_555
C32 C19 1_555 1_555
H18 C32 1_555 1_555
C33 C20 1_555 1_555
H19 C33 1_555 1_555
C34 C22 1_555 1_555
H20 C34 1_555 1_555
C35 C23 1_555 1_555
H21 C35 1_555 1_555
C36 C32 1_555 1_555
H22 C36 1_555 1_555
C37 C30 1_555 1_555
H23 C37 1_555 1_555
C38 C26 1_555 1_555
H24 C38 1_555 1_555
C39 C34 1_555 1_555
H25 C39 1_555 1_555
C40 C31 1_555 1_555
H26 C40 1_555 1_555
C41 C40 1_555 1_555
H27 C41 1_555 1_555
C42 C41 1_555 1_555
H28 C42 1_555 1_555
C43 C31 1_555 1_555
H29 C43 1_555 1_555
C44 C42 1_555 1_555
H30 C44 1_555 1_555
C3 C16 1_555 1_555
C4 C7 1_555 1_555
C9 C11 1_555 1_555
C14 C18 1_555 1_555
C15 C24 1_555 1_555
C20 C25 1_555 1_555
C28 C33 1_555 1_555
C29 C38 1_555 1_555
C35 C39 1_555 1_555
C36 C37 1_555 1_555
C43 C44 1_555 1_555

#END
