
#######################################################################
#
#                 Cambridge Crystallographic Data Centre
#                                CCDC 
#
#######################################################################
#
# If this CIF has been generated from an entry in the Cambridge 
# Structural Database, then it will include bibliographic, chemical, 
# crystal, experimental, refinement or atomic coordinate data resulting 
# from the CCDC's data processing and validation procedures.
#
#######################################################################

data_NUTNOG
_chemical_formula_moiety         'C17 H12 Cl1 N1 O2'
_chemical_name_systematic        
6-(4-Chlorophenyl)-1-phenyl-2-oxa-6-azabicyclo[3.2.0]hept-3-en-7-one
_symmetry_cell_setting           monoclinic
_symmetry_space_group_name_H-M   'P 21/c'
_symmetry_Int_Tables_number      14
_space_group_name_Hall           '-P 2ybc'
loop_
_symmetry_equiv_pos_site_id
_symmetry_equiv_pos_as_xyz
1 x,y,z
2 -x,1/2+y,1/2-z
3 -x,-y,-z
4 x,1/2-y,1/2+z
_cell_length_a                   16.718(5)
_cell_length_b                   5.683(5)
_cell_length_c                   14.780(5)
_cell_angle_alpha                90
_cell_angle_beta                 92.722(5)
_cell_angle_gamma                90
_cell_volume                     1402.64
_exptl_crystal_colour            colorless
_exptl_crystal_description       block
_cell_formula_units_Z            4
loop_
_atom_site_label
_atom_site_type_symbol
_atom_site_fract_x
_atom_site_fract_y
_atom_site_fract_z
Cl1 Cl 1.16264(5) -0.03270(17) 0.67322(6)
N1 N 0.81957(13) 0.1147(4) 0.57841(15)
O1 O 0.65705(12) 0.3046(4) 0.62676(15)
O2 O 0.79561(13) 0.4697(4) 0.49925(16)
C1 C 0.63678(15) 0.1111(5) 0.48100(18)
C2 C 0.69613(16) 0.1715(5) 0.5578(2)
C3 C 0.90123(15) 0.0812(5) 0.60020(17)
C4 C 0.77651(16) 0.2907(5) 0.5357(2)
C5 C 0.92628(17) -0.1201(5) 0.64603(19)
H1 H 0.8889 -0.2320 0.6621
C6 C 1.03799(16) 0.2118(5) 0.59781(19)
H2 H 1.0757 0.3221 0.5812
C7 C 0.64614(17) -0.0916(5) 0.4304(2)
H3 H 0.6894 -0.1913 0.4430
C8 C 1.06175(16) 0.0121(5) 0.64412(18)
C9 C 1.00697(17) -0.1551(5) 0.66803(19)
H4 H 1.0240 -0.2904 0.6987
C10 C 0.57222(18) 0.2580(5) 0.4604(2)
H5 H 0.5659 0.3960 0.4931
C11 C 0.95740(16) 0.2476(5) 0.57611(19)
H6 H 0.9408 0.3831 0.5453
C12 C 0.74773(16) -0.0178(5) 0.60816(19)
H7 H 0.7417 -0.1793 0.5855
C13 C 0.52640(19) -0.0004(6) 0.3420(2)
H8 H 0.4891 -0.0384 0.2956
C14 C 0.72897(19) 0.0204(6) 0.7039(2)
H9 H 0.7483 -0.0688 0.7530
C15 C 0.5903(2) -0.1447(6) 0.3606(2)
H10 H 0.5965 -0.2800 0.3263
C16 C 0.51722(18) 0.1994(6) 0.3913(2)
H11 H 0.4736 0.2973 0.3784
C17 C 0.6807(2) 0.2010(7) 0.7079(2)
H12 H 0.6632 0.2565 0.7628
loop_
_geom_bond_atom_site_label_1
_geom_bond_atom_site_label_2
_geom_bond_site_symmetry_1
_geom_bond_site_symmetry_2
Cl1 C8 1_555 1_555
N1 C3 1_555 1_555
O1 C2 1_555 1_555
O2 C4 1_555 1_555
C1 C2 1_555 1_555
C2 C4 1_555 1_555
C3 C5 1_555 1_555
C4 N1 1_555 1_555
C5 H1 1_555 1_555
C6 H2 1_555 1_555
C7 C1 1_555 1_555
H3 C7 1_555 1_555
C8 C6 1_555 1_555
C9 C5 1_555 1_555
H4 C9 1_555 1_555
C10 C1 1_555 1_555
H5 C10 1_555 1_555
C11 C3 1_555 1_555
H6 C11 1_555 1_555
C12 N1 1_555 1_555
H7 C12 1_555 1_555
C13 H8 1_555 1_555
C14 C12 1_555 1_555
H9 C14 1_555 1_555
C15 C7 1_555 1_555
H10 C15 1_555 1_555
C16 C10 1_555 1_555
H11 C16 1_555 1_555
C17 O1 1_555 1_555
H12 C17 1_555 1_555
C2 C12 1_555 1_555
C6 C11 1_555 1_555
C8 C9 1_555 1_555
C13 C15 1_555 1_555
C13 C16 1_555 1_555
C14 C17 1_555 1_555

#END
