
#######################################################################
#
#                 Cambridge Crystallographic Data Centre
#                                CCDC 
#
#######################################################################
#
# If this CIF has been generated from an entry in the Cambridge 
# Structural Database, then it will include bibliographic, chemical, 
# crystal, experimental, refinement or atomic coordinate data resulting 
# from the CCDC's data processing and validation procedures.
#
#######################################################################

data_NUTNIA
_chemical_formula_moiety         'C21 H22 Br1 Cl1 O3'
_chemical_name_systematic        
'Adamantan-1-yl 7-bromo-2-chloro-1-oxo-1,2,3,4-tetrahydronaphthalene-2-carboxylate'
_symmetry_cell_setting           orthorhombic
_symmetry_space_group_name_H-M   'P 21 21 21'
_symmetry_Int_Tables_number      19
_space_group_name_Hall           'P 2ac 2ab'
loop_
_symmetry_equiv_pos_site_id
_symmetry_equiv_pos_as_xyz
1 x,y,z
2 1/2-x,-y,1/2+z
3 -x,1/2+y,1/2-z
4 1/2+x,1/2-y,-z
_cell_length_a                   6.9369(14)
_cell_length_b                   7.2436(14)
_cell_length_c                   36.835(7)
_cell_angle_alpha                90
_cell_angle_beta                 90
_cell_angle_gamma                90
_cell_volume                     1850.89
_exptl_crystal_colour            colorless
_exptl_crystal_description       block
_cell_formula_units_Z            4
loop_
_atom_site_label
_atom_site_type_symbol
_atom_site_fract_x
_atom_site_fract_y
_atom_site_fract_z
Br1 Br -0.02199(8) 0.85073(8) 0.186466(18)
Cl1 Cl 0.1729(2) 1.0251(2) 0.39292(6)
O1 O -0.0003(5) 0.8210(5) 0.33282(12)
O2 O 0.4801(6) 0.7638(6) 0.40281(13)
O3 O 0.3986(5) 0.5989(5) 0.35268(10)
C1 C 0.3050(7) 0.9162(8) 0.35722(19)
C2 C 0.1638(6) 0.8697(7) 0.32603(17)
C3 C 0.2330(6) 0.8882(6) 0.28784(17)
C4 C 0.1001(6) 0.8587(7) 0.26026(17)
H1 H -0.0278 0.8212 0.2658
C5 C 0.1568(7) 0.8849(7) 0.22431(17)
C6 C 0.3441(7) 0.9404(8) 0.2162(2)
H2 H 0.3812 0.9611 0.1918
C7 C 0.4757(7) 0.9653(7) 0.24384(19)
H3 H 0.6042 0.9996 0.2380
C8 C 0.4248(6) 0.9412(7) 0.2804(2)
C9 C 0.5658(6) 0.9701(7) 0.3107(2)
H4 H 0.6676 1.0568 0.3027
H5 H 0.6279 0.8511 0.3169
C10 C 0.4650(8) 1.0478(8) 0.3445(2)
H6 H 0.4086 1.1699 0.3387
H7 H 0.5604 1.0646 0.3642
C11 C 0.3957(7) 0.7379(8) 0.37084(18)
C12 C 0.5968(7) 0.6216(9) 0.42090(15)
C13 C 0.7814(7) 0.5840(8) 0.39990(14)
H8 H 0.8510 0.7011 0.3954
H9 H 0.7506 0.5271 0.3762
C14 C 0.9090(7) 0.4517(9) 0.42254(12)
H10 H 1.0306 0.4252 0.4089
C15 C 0.8013(7) 0.2753(9) 0.42843(14)
H11 H 0.8832 0.1879 0.4422
H12 H 0.7705 0.2186 0.4047
C16 C 0.6152(7) 0.3107(11) 0.44940(14)
H13 H 0.5457 0.1917 0.4536
C17 C 0.4871(7) 0.4430(9) 0.42719(14)
H14 H 0.4535 0.3858 0.4036
H15 H 0.3662 0.4686 0.4405
C18 C 0.6645(8) 0.4003(14) 0.48537(13)
H16 H 0.7461 0.3156 0.4998
H17 H 0.5446 0.4240 0.4992
C19 C 0.7710(8) 0.5810(13) 0.47932(16)
H18 H 0.8009 0.6395 0.5032
C20 C 0.9587(8) 0.5432(12) 0.45868(14)
H19 H 1.0284 0.6604 0.4543
H20 H 1.0429 0.4609 0.4731
C21 C 0.6453(9) 0.7107(13) 0.4568(2)
H21 H 0.5251 0.7389 0.4701
H22 H 0.7148 0.8280 0.4525
loop_
_geom_bond_atom_site_label_1
_geom_bond_atom_site_label_2
_geom_bond_site_symmetry_1
_geom_bond_site_symmetry_2
Br1 C5 1_555 1_555
Cl1 C1 1_555 1_555
O1 C2 1_555 1_555
O2 C11 1_555 1_555
O3 C11 1_555 1_555
C1 C2 1_555 1_555
C2 C3 1_555 1_555
C3 C4 1_555 1_555
C4 H1 1_555 1_555
C5 C4 1_555 1_555
C6 C5 1_555 1_555
H2 C6 1_555 1_555
C7 C6 1_555 1_555
H3 C7 1_555 1_555
C8 C3 1_555 1_555
C9 C8 1_555 1_555
H4 C9 1_555 1_555
H5 C9 1_555 1_555
C10 C1 1_555 1_555
H6 C10 1_555 1_555
H7 C10 1_555 1_555
C11 C1 1_555 1_555
C12 O2 1_555 1_555
C13 C12 1_555 1_555
H8 C13 1_555 1_555
H9 C13 1_555 1_555
C14 C13 1_555 1_555
H10 C14 1_555 1_555
C15 C14 1_555 1_555
H11 C15 1_555 1_555
H12 C15 1_555 1_555
C16 C15 1_555 1_555
H13 C16 1_555 1_555
C17 C12 1_555 1_555
H14 C17 1_555 1_555
H15 C17 1_555 1_555
C18 C16 1_555 1_555
H16 C18 1_555 1_555
H17 C18 1_555 1_555
C19 C18 1_555 1_555
H18 C19 1_555 1_555
C20 C14 1_555 1_555
H19 C20 1_555 1_555
H20 C20 1_555 1_555
C21 C12 1_555 1_555
H21 C21 1_555 1_555
H22 C21 1_555 1_555
C7 C8 1_555 1_555
C9 C10 1_555 1_555
C16 C17 1_555 1_555
C19 C20 1_555 1_555
C19 C21 1_555 1_555

#END
