
#######################################################################
#
#                 Cambridge Crystallographic Data Centre
#                                CCDC 
#
#######################################################################
#
# If this CIF has been generated from an entry in the Cambridge 
# Structural Database, then it will include bibliographic, chemical, 
# crystal, experimental, refinement or atomic coordinate data resulting 
# from the CCDC's data processing and validation procedures.
#
#######################################################################

data_NUTQOJ
_chemical_formula_moiety         'C38 H48 N4 O1,2(C1 H4 O1),H2 O1'
_chemical_name_systematic        
'17-(14,15-Dihydroeburnamenin-14-yl)aspidospermidin-14-ol methanol solvate monohydrate'
_symmetry_cell_setting           orthorhombic
_symmetry_space_group_name_H-M   'P 21 21 21'
_symmetry_Int_Tables_number      19
_space_group_name_Hall           'P 2ac 2ab'
loop_
_symmetry_equiv_pos_site_id
_symmetry_equiv_pos_as_xyz
1 x,y,z
2 1/2+x,1/2-y,-z
3 -x,1/2+y,1/2-z
4 1/2-x,-y,1/2+z
_cell_length_a                   11.9506(2)
_cell_length_b                   16.8306(3)
_cell_length_c                   18.0488(3)
_cell_angle_alpha                90
_cell_angle_beta                 90
_cell_angle_gamma                90
_cell_volume                     3630.26
_exptl_crystal_colour            colorless
_exptl_crystal_description       platelet
_cell_formula_units_Z            4
loop_
_atom_site_label
_atom_site_type_symbol
_atom_site_fract_x
_atom_site_fract_y
_atom_site_fract_z
N1 N 0.47942(9) 0.49657(6) 0.42770(6)
C1 C 0.47156(11) 0.41508(8) 0.43841(7)
C2 C 0.37303(12) 0.31126(8) 0.55852(8)
H1 H 0.3378 0.2599 0.5717
H2 H 0.3192 0.3418 0.5280
N2 N 0.47573(10) 0.29650(7) 0.51521(7)
C3 C 0.44944(13) 0.25258(8) 0.44653(8)
H3 H 0.4169 0.2005 0.4602
H4 H 0.5202 0.2422 0.4197
C4 C 0.36814(13) 0.29483(8) 0.39338(8)
H5 H 0.3757 0.2724 0.3429
H6 H 0.2901 0.2866 0.4101
C5 C 0.39461(12) 0.38245(8) 0.39216(8)
C6 C 0.34614(12) 0.44659(8) 0.35118(8)
C7 C 0.26094(12) 0.45147(9) 0.29809(8)
H7 H 0.2241 0.4049 0.2811
C8 C 0.23150(12) 0.52519(9) 0.27098(8)
H8 H 0.1727 0.5291 0.2358
C9 C 0.28651(12) 0.59459(9) 0.29428(8)
H9 H 0.2648 0.6445 0.2742
C10 C 0.37183(12) 0.59134(8) 0.34603(8)
H10 H 0.4097 0.6381 0.3615
C11 C 0.40045(11) 0.51731(8) 0.37473(7)
C12 C 0.39909(12) 0.35726(8) 0.62868(8)
H11 H 0.4501 0.3259 0.6605
H12 H 0.3292 0.3671 0.6567
C13 C 0.45413(12) 0.43656(8) 0.60839(8)
H13 H 0.4011 0.4688 0.5788
H14 H 0.4717 0.4663 0.6543
C14 C 0.52816(11) 0.55085(8) 0.48306(7)
H15 H 0.4662 0.5726 0.5143
C15 C 0.60754(11) 0.50312(8) 0.53326(7)
H16 H 0.6287 0.5371 0.5758
H17 H 0.6767 0.4917 0.5050
C16 C 0.67624(14) 0.42068(10) 0.68613(9)
H18 H 0.6113 0.4119 0.7182
H19 H 0.6890 0.4779 0.6805
H20 H 0.7425 0.3960 0.7084
C17 C 0.65453(12) 0.38390(9) 0.61065(8)
H21 H 0.6344 0.3274 0.6179
H22 H 0.7251 0.3853 0.5819
C18 C 0.56174(11) 0.42371(8) 0.56386(8)
C19 C 0.53671(11) 0.37096(8) 0.49622(7)
H23 H 0.6100 0.3554 0.4738
N3 N 0.49010(10) 0.72932(6) 0.51705(6)
H24 H 0.4279 0.6978 0.5248
C20 C 0.46740(11) 0.81300(8) 0.49640(7)
H25 H 0.4518 0.8446 0.5422
C21 C 0.58632(13) 1.05384(8) 0.41589(9)
H26 H 0.6543 1.0522 0.3846
H27 H 0.5929 1.0993 0.4504
N4 N 0.57582(10) 0.97952(6) 0.45777(6)
C22 C 0.67272(12) 0.96300(8) 0.50549(8)
H28 H 0.6705 0.9959 0.5509
H29 H 0.7437 0.9733 0.4789
C23 C 0.66046(12) 0.87457(8) 0.52414(8)
H30 H 0.6268 0.8676 0.5738
H31 H 0.7342 0.8478 0.5233
C24 C 0.58183(11) 0.83979(8) 0.46274(7)
C25 C 0.62583(11) 0.76186(8) 0.43284(7)
C26 C 0.71447(11) 0.74666(8) 0.38528(8)
O1 O 0.77734(8) 0.80891(6) 0.36018(6)
H32 H 0.8244 0.7923 0.3293
C27 C 0.73737(12) 0.66787(8) 0.36538(7)
H33 H 0.7956 0.6564 0.3312
C28 C 0.67462(12) 0.60665(8) 0.39582(7)
H34 H 0.6902 0.5537 0.3809
C29 C 0.58944(11) 0.61975(8) 0.44754(7)
C30 C 0.56723(11) 0.69902(8) 0.46555(7)
C31 C 0.48321(13) 1.06387(8) 0.36748(8)
H35 H 0.4905 1.1130 0.3377
H36 H 0.4161 1.0693 0.3993
C32 C 0.46869(12) 0.99260(8) 0.31580(8)
H37 H 0.5295 0.9933 0.2786
H38 H 0.3969 0.9983 0.2890
C33 C 0.36713(12) 0.81916(8) 0.44365(8)
H39 H 0.3710 0.7754 0.4071
H40 H 0.2972 0.8127 0.4724
C34 C 0.36362(11) 0.89851(8) 0.40255(8)
H41 H 0.3564 0.9423 0.4389
H42 H 0.2972 0.8998 0.3698
C35 C 0.38714(14) 0.83771(10) 0.24125(9)
H43 H 0.3179 0.8256 0.2681
H44 H 0.4034 0.7948 0.2062
H45 H 0.3781 0.8877 0.2141
C36 C 0.48377(12) 0.84561(8) 0.29637(7)
H46 H 0.5533 0.8563 0.2682
H47 H 0.4935 0.7940 0.3220
C37 C 0.46980(12) 0.91136(8) 0.35579(7)
C38 C 0.57185(11) 0.90959(7) 0.40746(7)
H48 H 0.6408 0.9103 0.3761
O2 O 0.93470(10) 0.78113(7) 0.25550(6)
H49 H 0.9254 0.8007 0.2131
C39 C 1.04112(17) 0.80512(14) 0.28383(11)
H50 H 1.1006 0.7836 0.2523
H51 H 1.0501 0.7850 0.3344
H52 H 1.0456 0.8633 0.2842
O3 O 0.43534(10) 1.04722(6) 0.56487(6)
H53 H 0.4689 1.0199 0.5329
C40 C 0.43560(16) 1.00630(10) 0.63371(9)
H54 H 0.4098 0.9516 0.6262
H55 H 0.3855 1.0334 0.6685
H56 H 0.5117 1.0056 0.6539
O4 O 0.56583(10) 0.17893(6) 0.60856(6)
H57 H 0.5461 0.2186 0.5714
H58 H 0.5201 0.1441 0.5980
loop_
_geom_bond_atom_site_label_1
_geom_bond_atom_site_label_2
_geom_bond_site_symmetry_1
_geom_bond_site_symmetry_2
N1 C1 1_555 1_555
C1 C5 1_555 1_555
C2 H1 1_555 1_555
H2 C2 1_555 1_555
N2 C2 1_555 1_555
C3 N2 1_555 1_555
H3 C3 1_555 1_555
H4 C3 1_555 1_555
C4 C3 1_555 1_555
H5 C4 1_555 1_555
H6 C4 1_555 1_555
C5 C4 1_555 1_555
C6 C5 1_555 1_555
C7 C6 1_555 1_555
H7 C7 1_555 1_555
C8 C7 1_555 1_555
H8 C8 1_555 1_555
C9 C8 1_555 1_555
H9 C9 1_555 1_555
C10 C9 1_555 1_555
H10 C10 1_555 1_555
C11 N1 1_555 1_555
C12 C2 1_555 1_555
H11 C12 1_555 1_555
H12 C12 1_555 1_555
C13 C12 1_555 1_555
H13 C13 1_555 1_555
H14 C13 1_555 1_555
C14 N1 1_555 1_555
H15 C14 1_555 1_555
C15 C14 1_555 1_555
H16 C15 1_555 1_555
H17 C15 1_555 1_555
C16 H18 1_555 1_555
H19 C16 1_555 1_555
H20 C16 1_555 1_555
C17 C16 1_555 1_555
H21 C17 1_555 1_555
H22 C17 1_555 1_555
C18 C13 1_555 1_555
C19 C1 1_555 1_555
H23 C19 1_555 1_555
N3 H24 1_555 1_555
C20 N3 1_555 1_555
H25 C20 1_555 1_555
C21 H26 1_555 1_555
H27 C21 1_555 1_555
N4 C21 1_555 1_555
C22 N4 1_555 1_555
H28 C22 1_555 1_555
H29 C22 1_555 1_555
C23 C22 1_555 1_555
H30 C23 1_555 1_555
H31 C23 1_555 1_555
C24 C20 1_555 1_555
C25 C24 1_555 1_555
C26 C25 1_555 1_555
O1 C26 1_555 1_555
H32 O1 1_555 1_555
C27 C26 1_555 1_555
H33 C27 1_555 1_555
C28 C27 1_555 1_555
H34 C28 1_555 1_555
C29 C14 1_555 1_555
C30 N3 1_555 1_555
C31 C21 1_555 1_555
H35 C31 1_555 1_555
H36 C31 1_555 1_555
C32 C31 1_555 1_555
H37 C32 1_555 1_555
H38 C32 1_555 1_555
C33 C20 1_555 1_555
H39 C33 1_555 1_555
H40 C33 1_555 1_555
C34 C33 1_555 1_555
H41 C34 1_555 1_555
H42 C34 1_555 1_555
C35 H43 1_555 1_555
H44 C35 1_555 1_555
H45 C35 1_555 1_555
C36 C35 1_555 1_555
H46 C36 1_555 1_555
H47 C36 1_555 1_555
C37 C32 1_555 1_555
C38 N4 1_555 1_555
H48 C38 1_555 1_555
O2 H49 1_555 1_555
C39 O2 1_555 1_555
H50 C39 1_555 1_555
H51 C39 1_555 1_555
H52 C39 1_555 1_555
O3 H53 1_555 1_555
C40 O3 1_555 1_555
H54 C40 1_555 1_555
H55 C40 1_555 1_555
H56 C40 1_555 1_555
O4 H57 1_555 1_555
H58 O4 1_555 1_555
N2 C19 1_555 1_555
C6 C11 1_555 1_555
C10 C11 1_555 1_555
C15 C18 1_555 1_555
C17 C18 1_555 1_555
C18 C19 1_555 1_555
C23 C24 1_555 1_555
C24 C38 1_555 1_555
C25 C30 1_555 1_555
C28 C29 1_555 1_555
C29 C30 1_555 1_555
C34 C37 1_555 1_555
C36 C37 1_555 1_555
C37 C38 1_555 1_555

#END
