
#######################################################################
#
#                 Cambridge Crystallographic Data Centre
#                                CCDC 
#
#######################################################################
#
# If this CIF has been generated from an entry in the Cambridge 
# Structural Database, then it will include bibliographic, chemical, 
# crystal, experimental, refinement or atomic coordinate data resulting 
# from the CCDC's data processing and validation procedures.
#
#######################################################################

data_NUTRID
_chemical_formula_moiety         'C12 H18 O6,C2 H3 N1'
_chemical_name_systematic        
'(1\a,3\a,5\a)-1,3,5-Trimethyl-1,3,5-cyclohexanetricarboxylic acid acetonitrile solvate'
_symmetry_cell_setting           rhombohedral
_symmetry_space_group_name_H-M   'R -3'
_symmetry_Int_Tables_number      148
_space_group_name_Hall           '-R 3'
loop_
_symmetry_equiv_pos_site_id
_symmetry_equiv_pos_as_xyz
1 x,y,z
2 -y,x-y,z
3 -x+y,-x,z
4 2/3+x,1/3+y,1/3+z
5 2/3-y,1/3+x-y,1/3+z
6 2/3-x+y,1/3-x,1/3+z
7 1/3+x,2/3+y,2/3+z
8 1/3-y,2/3+x-y,2/3+z
9 1/3-x+y,2/3-x,2/3+z
10 -x,-y,-z
11 y,-x+y,-z
12 x-y,x,-z
13 1/3-x,2/3-y,2/3-z
14 1/3+y,2/3-x+y,2/3-z
15 1/3+x-y,2/3+x,2/3-z
16 2/3-x,1/3-y,1/3-z
17 2/3+y,1/3-x+y,1/3-z
18 2/3+x-y,1/3+x,1/3-z
_cell_length_a                   8.972(1)
_cell_length_b                   8.972(1)
_cell_length_c                   34.15(2)
_cell_angle_alpha                90
_cell_angle_beta                 90
_cell_angle_gamma                120
_cell_volume                     2380.67
_exptl_crystal_colour            colorless
_exptl_crystal_description       block
_cell_formula_units_Z            6
loop_
_atom_site_label
_atom_site_type_symbol
_atom_site_fract_x
_atom_site_fract_y
_atom_site_fract_z
C1 C 0.5643(4) 0.4260(4) 0.09573(7)
C2 C 0.4798(4) 0.2346(4) 0.10653(8)
C3 C 0.5353(4) 0.4538(4) 0.05314(8)
C4 C 0.4760(8) 0.5053(7) 0.12003(12)
O1 O 0.4608(3) 0.3369(3) 0.02979(6)
O2 O 0.5903(3) 0.6154(3) 0.04444(7)
H1 H 0.568(5) 0.627(6) 0.0163(13)
H2 H 0.495(5) 0.496(5) 0.1491(12)
H3 H 0.369(6) 0.467(5) 0.1150(12)
H4 H 0.542(6) 0.643(6) 0.1134(12)
H5 H 0.474(3) 0.231(4) 0.1363(9)
H6 H 0.360(4) 0.176(4) 0.0971(9)
C1A C 0.5740(4) 0.1383(6) 0.09573(7)
C2A C 0.7654(4) 0.2452(6) 0.10653(8)
C1B C 0.8617(6) 0.4357(4) 0.09573(7)
C2B C 0.7548(6) 0.5202(4) 0.10653(8)
H5B H 0.757(5) 0.526(3) 0.1363(9)
H6B H 0.816(6) 0.640(4) 0.0971(9)
C3B C 0.9185(6) 0.4647(4) 0.05314(8)
O1B O 0.8761(4) 0.5392(3) 0.02979(6)
O2B O 1.0251(4) 0.4097(3) 0.04444(7)
H1B H 1.059(8) 0.432(5) 0.0163(13)
C4B C 1.0293(11) 0.5240(8) 0.12003(12)
H2B H 1.001(7) 0.505(5) 0.1491(12)
H3B H 1.098(8) 0.631(6) 0.1150(12)
H4B H 1.101(8) 0.458(6) 0.1134(12)
H5A H 0.769(4) 0.243(5) 0.1363(9)
H6A H 0.824(4) 0.184(6) 0.0971(9)
C3A C 0.5462(4) 0.0815(6) 0.05314(8)
O1A O 0.6631(3) 0.1239(4) 0.02979(6)
O2A O 0.3846(3) -0.0251(4) 0.04444(7)
H1A H 0.373(6) -0.059(8) 0.0163(13)
C4A C 0.4947(7) -0.0293(11) 0.12003(12)
H2A H 0.504(5) -0.001(7) 0.1491(12)
H3A H 0.533(5) -0.098(8) 0.1150(12)
H4A H 0.357(6) -0.101(8) 0.1134(12)
C5 C 0.6667 0.3333 0.2828(2)
C6 C 0.6667 0.3333 0.2403(2)
N1 N 0.6667 0.3333 0.2077(2)
H7 H 0.770(6) 0.309(9) 0.2910(16)
H7A H 0.691(9) 0.461(11) 0.2910(16)
H7B H 0.539(11) 0.230(6) 0.2910(16)
loop_
_geom_bond_atom_site_label_1
_geom_bond_atom_site_label_2
_geom_bond_site_symmetry_1
_geom_bond_site_symmetry_2
C1 C2 1_555 1_555
C2 H5 1_555 1_555
C3 C1 1_555 1_555
C4 C1 1_555 1_555
O1 C3 1_555 1_555
O2 C3 1_555 1_555
C5 C6 1_555 1_555
C6 N1 1_555 1_555
H1 O2 1_555 1_555
H2 C4 1_555 1_555
H3 C4 1_555 1_555
H4 C4 1_555 1_555
H6 C2 1_555 1_555
H7 C5 1_555 1_555
C1A C2 1_555 1_555
C2A C1A 1_555 1_555
C1B C2A 1_555 1_555
C2B C1 1_555 1_555
H5B C2B 1_555 1_555
H6B C2B 1_555 1_555
C3B C1B 1_555 1_555
O1B C3B 1_555 1_555
O2B C3B 1_555 1_555
H1B O2B 1_555 1_555
C4B C1B 1_555 1_555
H2B C4B 1_555 1_555
H3B C4B 1_555 1_555
H4B C4B 1_555 1_555
H5A C2A 1_555 1_555
H6A C2A 1_555 1_555
C3A C1A 1_555 1_555
O1A C3A 1_555 1_555
O2A C3A 1_555 1_555
H1A O2A 1_555 1_555
C4A C1A 1_555 1_555
H2A C4A 1_555 1_555
H3A C4A 1_555 1_555
H4A C4A 1_555 1_555
H7A C5 1_555 1_555
H7B C5 1_555 1_555
C1B C2B 1_555 1_555

#END
