
#######################################################################
#
#                 Cambridge Crystallographic Data Centre
#                                CCDC 
#
#######################################################################
#
# If this CIF has been generated from an entry in the Cambridge 
# Structural Database, then it will include bibliographic, chemical, 
# crystal, experimental, refinement or atomic coordinate data resulting 
# from the CCDC's data processing and validation procedures.
#
#######################################################################

data_NUTTAZ
_chemical_formula_moiety         'C52 H58 N6 O4,C1 H4 O1,Cs1 1+,F1 1-'
_chemical_name_systematic        
'Cesium fluoride 49,50-diethyl-1,26,31,31,40,40-hexamethyl-5,22-dioxa-8,19,45,46,47,48-hexa-azadecacyclo[24.9.9.1^7,10^.1^17,20^.1^27,30^.1^32,35^.1^36,39^.1^41,44^.0^9,18^.0^11,16^]pentaconta-7(50),9,11(16),12,14,17,20(49),27,29,32,34,36,38,41,43-pentadecaene-6,21-dione methanol solvate'
_symmetry_cell_setting           monoclinic
_symmetry_space_group_name_H-M   'P 21/n'
_symmetry_Int_Tables_number      14
_space_group_name_Hall           '-P 2yn'
loop_
_symmetry_equiv_pos_site_id
_symmetry_equiv_pos_as_xyz
1 x,y,z
2 1/2-x,1/2+y,1/2-z
3 -x,-y,-z
4 1/2+x,1/2-y,1/2+z
_cell_length_a                   13.421(2)
_cell_length_b                   21.477(3)
_cell_length_c                   17.353(2)
_cell_angle_alpha                90
_cell_angle_beta                 96.674(3)
_cell_angle_gamma                90
_cell_volume                     4967.98
_exptl_crystal_colour            colorless
_exptl_crystal_description       prism
_cell_formula_units_Z            4
loop_
_atom_site_label
_atom_site_type_symbol
_atom_site_fract_x
_atom_site_fract_y
_atom_site_fract_z
Cs1 Cs 0.247481(16) 0.362444(11) 0.270155(13)
O1 O -0.02092(17) 0.23652(11) 0.59007(14)
O2 O -0.14465(17) 0.17376(11) 0.62226(15)
O3 O 0.61585(17) 0.08677(11) 0.63365(14)
O4 O 0.52540(16) 0.16945(11) 0.58378(14)
N1 N 0.4076(2) 0.39087(12) 0.43452(16)
H1 H 0.3833 0.3674 0.4695
N2 N 0.3567(2) 0.24487(12) 0.37359(16)
H2 H 0.3341 0.2612 0.4147
N3 N 0.1060(2) 0.27197(13) 0.37295(16)
H3 H 0.1408 0.2771 0.4187
N4 N 0.1558(2) 0.41897(13) 0.42951(16)
H4 H 0.1809 0.3874 0.4578
N5 N 0.11824(19) 0.14458(12) 0.61167(16)
H5 H 0.1445 0.1813 0.6038
N6 N 0.3496(2) 0.11686(12) 0.61283(15)
H6 H 0.3437 0.1568 0.6021
C1 C 0.4756(2) 0.37118(15) 0.3859(2)
C2 C 0.4941(3) 0.42081(16) 0.3399(2)
H7 H 0.5379 0.4211 0.3007
C3 C 0.4356(3) 0.47202(16) 0.3619(2)
H8 H 0.4335 0.5125 0.3397
C4 C 0.3830(2) 0.45246(15) 0.4206(2)
C5 C 0.3073(3) 0.48668(15) 0.4637(2)
C6 C 0.2035(3) 0.47531(16) 0.4224(2)
C7 C 0.1401(3) 0.51124(18) 0.3732(3)
H9 H 0.1531 0.5524 0.3570
C8 C 0.0521(3) 0.47652(18) 0.3506(2)
H10 H -0.0045 0.4904 0.3170
C9 C 0.0626(2) 0.41941(17) 0.3854(2)
C10 C -0.0091(3) 0.36503(16) 0.38645(19)
C11 C 0.0268(2) 0.30885(16) 0.3433(2)
C12 C -0.0064(3) 0.28612(18) 0.2711(2)
H11 H -0.0605 0.3023 0.2367
C13 C 0.0540(3) 0.23428(18) 0.2566(2)
H12 H 0.0477 0.2098 0.2107
C14 C 0.1231(2) 0.22556(16) 0.3205(2)
C15 C 0.2038(3) 0.17617(16) 0.3382(2)
C16 C 0.3067(3) 0.20122(15) 0.32536(19)
C17 C 0.3664(3) 0.18748(16) 0.2689(2)
H13 H 0.3511 0.1589 0.2275
C18 C 0.4560(3) 0.22385(17) 0.2834(2)
H14 H 0.5111 0.2235 0.2537
C19 C 0.4477(2) 0.25919(16) 0.34792(19)
C20 C 0.5202(2) 0.30583(16) 0.39008(19)
C21 C 0.3144(3) 0.46479(18) 0.5492(2)
H15 H 0.3007 0.4200 0.5507
H16 H 0.2652 0.4874 0.5760
H17 H 0.3820 0.4731 0.5750
C22 C 0.3306(3) 0.55695(16) 0.4632(3)
H18 H 0.3987 0.5642 0.4886
H19 H 0.2824 0.5794 0.4912
H20 H 0.3255 0.5718 0.4095
C23 C -0.1122(3) 0.38543(18) 0.3466(2)
H21 H -0.1397 0.4180 0.3775
H22 H -0.1578 0.3496 0.3421
H23 H -0.1049 0.4016 0.2948
C24 C 0.2051(3) 0.15331(16) 0.4229(2)
H24 H 0.2546 0.1199 0.4329
H25 H 0.1385 0.1376 0.4309
H26 H 0.2230 0.1880 0.4586
C25 C 0.1792(3) 0.12115(17) 0.2826(2)
H27 H 0.1834 0.1347 0.2292
H28 H 0.1112 0.1062 0.2874
H29 H 0.2273 0.0874 0.2959
C26 C 0.6165(2) 0.30804(17) 0.3494(2)
H30 H 0.6002 0.3232 0.2961
H31 H 0.6454 0.2662 0.3483
H32 H 0.6652 0.3362 0.3778
C27 C -0.0161(2) 0.34897(16) 0.4735(2)
H33 H 0.0484 0.3302 0.4954
H34 H -0.0243 0.3883 0.5018
C28 C -0.1009(3) 0.30470(17) 0.4893(2)
H35 H -0.1663 0.3251 0.4738
H36 H -0.0976 0.2667 0.4575
C29 C -0.0938(3) 0.28668(17) 0.5746(2)
H37 H -0.0728 0.3232 0.6074
H38 H -0.1603 0.2728 0.5875
C30 C -0.0579(2) 0.18102(16) 0.61099(19)
C31 C 0.0179(2) 0.13240(15) 0.61799(19)
C32 C 0.0046(2) 0.06898(15) 0.62927(19)
C33 C 0.1018(2) 0.04106(15) 0.62966(19)
C34 C 0.1686(2) 0.08975(15) 0.61984(19)
C35 C 0.2730(2) 0.07703(15) 0.62164(19)
C36 C 0.3112(2) 0.01663(15) 0.63535(19)
C37 C 0.4180(2) 0.02174(15) 0.63880(19)
C38 C 0.4387(2) 0.08375(15) 0.62372(18)
C39 C 0.5350(3) 0.11229(16) 0.61539(18)
C40 C 0.6191(2) 0.20014(17) 0.5687(2)
H39 H 0.6750 0.1698 0.5750
H40 H 0.6351 0.2343 0.6065
C41 C 0.6076(3) 0.22602(16) 0.4870(2)
H41 H 0.5755 0.1940 0.4513
H42 H 0.6751 0.2343 0.4717
C42 C 0.5455(2) 0.28593(15) 0.47673(19)
H43 H 0.5830 0.3200 0.5055
H44 H 0.4821 0.2799 0.4998
C43 C -0.0943(2) 0.03863(16) 0.6389(2)
H45 H -0.1345 0.0675 0.6674
H46 H -0.0816 0.0007 0.6710
C44 C -0.1553(3) 0.02086(19) 0.5623(2)
H47 H -0.1714 0.0585 0.5313
H48 H -0.2176 0.0004 0.5728
H49 H -0.1161 -0.0076 0.5336
C45 C 0.1369(3) -0.02316(15) 0.6356(2)
C46 C 0.0704(3) -0.07401(16) 0.6321(2)
H50 H 0.0003 -0.0662 0.6281
C47 C 0.1038(3) -0.13496(17) 0.6344(3)
H51 H 0.0573 -0.1684 0.6322
C48 C 0.2062(3) -0.14670(17) 0.6400(2)
H52 H 0.2297 -0.1885 0.6423
C49 C 0.2742(3) -0.09807(16) 0.6423(2)
H53 H 0.3439 -0.1070 0.6454
C50 C 0.2419(3) -0.03560(16) 0.6400(2)
C51 C 0.4960(2) -0.02985(15) 0.6535(2)
H54 H 0.5594 -0.0116 0.6785
H55 H 0.4723 -0.0605 0.6899
C52 C 0.5168(3) -0.06360(17) 0.5797(2)
H56 H 0.4534 -0.0784 0.5520
H57 H 0.5611 -0.0991 0.5934
H58 H 0.5492 -0.0349 0.5464
F1 F 0.26238(14) 0.30976(9) 0.48584(11)
O5 O 0.26064(19) 0.24278(11) 0.60689(14)
H59 H 0.2593 0.2648 0.5667
C53 C 0.2564(4) 0.2820(2) 0.6727(2)
H60 H 0.3186 0.3061 0.6821
H61 H 0.2485 0.2564 0.7183
H62 H 0.1993 0.3105 0.6630
loop_
_geom_bond_atom_site_label_1
_geom_bond_atom_site_label_2
_geom_bond_site_symmetry_1
_geom_bond_site_symmetry_2
O1 C29 1_555 1_555
O2 C30 1_555 1_555
O3 C39 1_555 1_555
O4 C39 1_555 1_555
N1 H1 1_555 1_555
N2 H2 1_555 1_555
N3 H3 1_555 1_555
N4 H4 1_555 1_555
N5 H5 1_555 1_555
N6 H6 1_555 1_555
C1 N1 1_555 1_555
C2 C1 1_555 1_555
H7 C2 1_555 1_555
C3 C2 1_555 1_555
H8 C3 1_555 1_555
C4 N1 1_555 1_555
C5 C4 1_555 1_555
C6 N4 1_555 1_555
C7 C6 1_555 1_555
H9 C7 1_555 1_555
C8 C7 1_555 1_555
H10 C8 1_555 1_555
C9 N4 1_555 1_555
C10 C9 1_555 1_555
C11 N3 1_555 1_555
C12 C11 1_555 1_555
H11 C12 1_555 1_555
C13 C12 1_555 1_555
H12 C13 1_555 1_555
C14 N3 1_555 1_555
C15 C14 1_555 1_555
C16 N2 1_555 1_555
C17 C16 1_555 1_555
H13 C17 1_555 1_555
C18 C17 1_555 1_555
H14 C18 1_555 1_555
C19 N2 1_555 1_555
C20 C1 1_555 1_555
C21 C5 1_555 1_555
H15 C21 1_555 1_555
H16 C21 1_555 1_555
H17 C21 1_555 1_555
C22 C5 1_555 1_555
H18 C22 1_555 1_555
H19 C22 1_555 1_555
H20 C22 1_555 1_555
C23 C10 1_555 1_555
H21 C23 1_555 1_555
H22 C23 1_555 1_555
H23 C23 1_555 1_555
C24 C15 1_555 1_555
H24 C24 1_555 1_555
H25 C24 1_555 1_555
H26 C24 1_555 1_555
C25 C15 1_555 1_555
H27 C25 1_555 1_555
H28 C25 1_555 1_555
H29 C25 1_555 1_555
C26 C20 1_555 1_555
H30 C26 1_555 1_555
H31 C26 1_555 1_555
H32 C26 1_555 1_555
C27 C10 1_555 1_555
H33 C27 1_555 1_555
H34 C27 1_555 1_555
C28 C27 1_555 1_555
H35 C28 1_555 1_555
H36 C28 1_555 1_555
C29 C28 1_555 1_555
H37 C29 1_555 1_555
H38 C29 1_555 1_555
C30 O1 1_555 1_555
C31 N5 1_555 1_555
C32 C31 1_555 1_555
C33 C32 1_555 1_555
C34 N5 1_555 1_555
C35 N6 1_555 1_555
C36 C35 1_555 1_555
C37 C36 1_555 1_555
C38 N6 1_555 1_555
C39 C38 1_555 1_555
C40 O4 1_555 1_555
H39 C40 1_555 1_555
H40 C40 1_555 1_555
C41 C40 1_555 1_555
H41 C41 1_555 1_555
H42 C41 1_555 1_555
C42 C20 1_555 1_555
H43 C42 1_555 1_555
H44 C42 1_555 1_555
C43 C32 1_555 1_555
H45 C43 1_555 1_555
H46 C43 1_555 1_555
C44 C43 1_555 1_555
H47 C44 1_555 1_555
H48 C44 1_555 1_555
H49 C44 1_555 1_555
C45 C33 1_555 1_555
C46 C45 1_555 1_555
H50 C46 1_555 1_555
C47 C46 1_555 1_555
H51 C47 1_555 1_555
C48 C47 1_555 1_555
H52 C48 1_555 1_555
C49 C48 1_555 1_555
H53 C49 1_555 1_555
C50 C36 1_555 1_555
C51 C37 1_555 1_555
H54 C51 1_555 1_555
H55 C51 1_555 1_555
C52 C51 1_555 1_555
H56 C52 1_555 1_555
H57 C52 1_555 1_555
H58 C52 1_555 1_555
O5 H59 1_555 1_555
C53 O5 1_555 1_555
H60 C53 1_555 1_555
H61 C53 1_555 1_555
H62 C53 1_555 1_555
C3 C4 1_555 1_555
C5 C6 1_555 1_555
C8 C9 1_555 1_555
C10 C11 1_555 1_555
C13 C14 1_555 1_555
C15 C16 1_555 1_555
C18 C19 1_555 1_555
C19 C20 1_555 1_555
C30 C31 1_555 1_555
C33 C34 1_555 1_555
C34 C35 1_555 1_555
C37 C38 1_555 1_555
C41 C42 1_555 1_555
C45 C50 1_555 1_555
C49 C50 1_555 1_555

#END
