
#######################################################################
#
#                 Cambridge Crystallographic Data Centre
#                                CCDC 
#
#######################################################################
#
# If this CIF has been generated from an entry in the Cambridge 
# Structural Database, then it will include bibliographic, chemical, 
# crystal, experimental, refinement or atomic coordinate data resulting 
# from the CCDC's data processing and validation procedures.
#
#######################################################################

data_NUTTED
_chemical_formula_moiety         'C52 H58 N6 O4,Cl1 1-,C8 H20 N1 1+'
_chemical_name_systematic        
'Tetraethylammonium chloride 49,50-diethyl-1,26,31,31,40,40-hexamethyl-5,22-dioxa-8,19,45,46,47,48-hexa-azadecacyclo[24.9.9.1^7,10^.1^17,20^.1^27,30^.1^32,35^.1^36,39^.1^41,44^.0^9,18^.0^11,16^]pentaconta-7(50),9,11(16),12,14,17,20(49),27,29,32,34,36,38,41,43-pentadecaene-6,21-dione'
_symmetry_cell_setting           monoclinic
_symmetry_space_group_name_H-M   'P 21/c'
_symmetry_Int_Tables_number      14
_space_group_name_Hall           '-P 2ybc'
loop_
_symmetry_equiv_pos_site_id
_symmetry_equiv_pos_as_xyz
1 x,y,z
2 -x,1/2+y,1/2-z
3 -x,-y,-z
4 x,1/2-y,1/2+z
_cell_length_a                   24.031(3)
_cell_length_b                   20.452(2)
_cell_length_c                   24.097(2)
_cell_angle_alpha                90
_cell_angle_beta                 112.993(4)
_cell_angle_gamma                90
_cell_volume                     10902.3
_exptl_crystal_colour            colorless
_exptl_crystal_description       prisms
_cell_formula_units_Z            8
loop_
_atom_site_label
_atom_site_type_symbol
_atom_site_fract_x
_atom_site_fract_y
_atom_site_fract_z
Cl1 Cl 0.08304(3) 0.43717(4) 0.27452(3)
O1 O 0.27016(10) 0.69256(10) 0.09611(9)
O2 O 0.20328(12) 0.77336(12) 0.05468(10)
O3 O 0.49888(14) 0.68619(12) 0.49397(11)
O4 O 0.47028(10) 0.62035(10) 0.41263(9)
N1 N 0.53099(11) 0.52353(13) 0.24426(11)
H1 H 0.5023 0.5497 0.2452
N2 N 0.40242(11) 0.51421(12) 0.12425(11)
H2 H 0.4052 0.5358 0.1568
N3 N 0.32788(11) 0.47548(12) 0.21125(11)
H3 H 0.3503 0.5109 0.2180
N4 N 0.45560(11) 0.47932(12) 0.32960(11)
H4 H 0.4447 0.5125 0.3044
N5 N 0.30713(11) 0.74326(12) 0.20765(11)
H5 H 0.3267 0.7077 0.2052
N6 N 0.39100(11) 0.71069(12) 0.34242(11)
H6 H 0.3978 0.6787 0.3215
C1 C 0.56988(13) 0.48825(15) 0.29298(14)
C2 C 0.60708(14) 0.45350(16) 0.27237(15)
H7 H 0.6383 0.4244 0.2957
C3 C 0.59102(14) 0.46839(17) 0.21080(15)
H8 H 0.6097 0.4513 0.1856
C4 C 0.54371(14) 0.51182(16) 0.19372(14)
C5 C 0.50875(15) 0.54368(16) 0.13382(14)
C6 C 0.44750(14) 0.51091(15) 0.10227(14)
C7 C 0.42584(15) 0.47265(17) 0.05180(14)
H9 H 0.4469 0.4615 0.0270
C8 C 0.36643(15) 0.45240(16) 0.04292(14)
H10 H 0.3409 0.4252 0.0112
C9 C 0.35228(14) 0.47890(15) 0.08793(13)
C10 C 0.29293(14) 0.47978(15) 0.09640(13)
C11 C 0.29608(13) 0.44860(15) 0.15486(13)
C12 C 0.26759(14) 0.39387(15) 0.16392(15)
H11 H 0.2425 0.3651 0.1335
C13 C 0.28219(13) 0.38792(15) 0.22658(14)
H12 H 0.2685 0.3544 0.2454
C14 C 0.31922(13) 0.43851(14) 0.25533(13)
C15 C 0.34847(13) 0.45475(15) 0.32169(13)
C16 C 0.41618(13) 0.44172(15) 0.34577(13)
C17 C 0.45035(14) 0.39434(15) 0.38437(13)
H13 H 0.4356 0.3608 0.4023
C18 C 0.51166(14) 0.40432(15) 0.39274(14)
H14 H 0.5451 0.3787 0.4176
C19 C 0.51429(13) 0.45729(15) 0.35872(13)
C20 C 0.56834(13) 0.49286(15) 0.35559(14)
C21 C 0.50093(16) 0.61749(16) 0.14258(15)
H15 H 0.4763 0.6234 0.1664
H16 H 0.4808 0.6384 0.1031
H17 H 0.5407 0.6375 0.1638
C22 C 0.54522(17) 0.5365(2) 0.09379(17)
H18 H 0.5852 0.5563 0.1142
H19 H 0.5238 0.5586 0.0552
H20 H 0.5498 0.4900 0.0866
C23 C 0.24509(15) 0.44274(17) 0.04392(14)
H21 H 0.2414 0.4626 0.0056
H22 H 0.2061 0.4451 0.0478
H23 H 0.2572 0.3969 0.0448
C24 C 0.32080(15) 0.41034(17) 0.35602(15)
H24 H 0.2771 0.4181 0.3412
H25 H 0.3394 0.4203 0.3992
H26 H 0.3283 0.3644 0.3495
C25 C 0.33655(14) 0.52683(15) 0.33337(14)
H27 H 0.3546 0.5558 0.3126
H28 H 0.3546 0.5357 0.3768
H29 H 0.2929 0.5346 0.3181
C26 C 0.62645(14) 0.45991(17) 0.39982(15)
H30 H 0.6263 0.4600 0.4404
H31 H 0.6618 0.4840 0.4001
H32 H 0.6282 0.4147 0.3870
C27 C 0.27223(14) 0.55202(15) 0.09511(13)
H33 H 0.2299 0.5521 0.0919
H34 H 0.2973 0.5727 0.1341
C28 C 0.27589(16) 0.59424(16) 0.04421(14)
H35 H 0.3189 0.6024 0.0519
H36 H 0.2577 0.5701 0.0057
C29 C 0.24386(15) 0.65889(16) 0.03826(14)
H37 H 0.2489 0.6856 0.0063
H38 H 0.2001 0.6517 0.0273
C30 C 0.24249(15) 0.74920(15) 0.09879(14)
C31 C 0.26369(14) 0.77578(15) 0.15953(14)
C32 C 0.24258(14) 0.82965(15) 0.18087(14)
C33 C 0.27569(14) 0.83061(15) 0.24490(14)
C34 C 0.31403(13) 0.77586(15) 0.25905(13)
C35 C 0.35117(13) 0.76125(14) 0.31952(13)
C36 C 0.35189(14) 0.80184(15) 0.36694(14)
C37 C 0.39613(14) 0.77483(15) 0.42101(14)
C38 C 0.41873(14) 0.71890(15) 0.40441(13)
C39 C 0.46635(15) 0.67502(16) 0.44223(14)
C40 C 0.51541(15) 0.57241(16) 0.44791(14)
H39 H 0.4995 0.5277 0.4361
H40 H 0.5242 0.5782 0.4913
C41 C 0.57301(15) 0.58114(17) 0.43703(15)
H41 H 0.6045 0.5525 0.4654
H42 H 0.5869 0.6269 0.4469
C42 C 0.56848(14) 0.56635(15) 0.37286(14)
H43 H 0.6028 0.5880 0.3674
H44 H 0.5309 0.5867 0.3440
C43 C 0.19407(15) 0.87589(16) 0.14230(15)
H45 H 0.1685 0.8884 0.1643
H46 H 0.1681 0.8530 0.1050
C44 C 0.21943(16) 0.93749(17) 0.12546(16)
H47 H 0.2427 0.9622 0.1621
H48 H 0.1861 0.9645 0.0987
H49 H 0.2459 0.9254 0.1048
C45 C 0.27478(14) 0.87410(15) 0.29261(14)
C46 C 0.23862(16) 0.93057(17) 0.28113(16)
H50 H 0.2137 0.9412 0.2406
C47 C 0.23801(19) 0.97125(19) 0.32677(17)
H51 H 0.2129 1.0089 0.3177
C48 C 0.2743(2) 0.95639(19) 0.38559(18)
H52 H 0.2743 0.9842 0.4172
C49 C 0.31039(18) 0.90180(17) 0.39895(16)
H53 H 0.3347 0.8924 0.4399
C50 C 0.31245(15) 0.85932(15) 0.35386(14)
C51 C 0.41482(16) 0.79789(18) 0.48523(14)
H54 H 0.4126 0.8462 0.4858
H55 H 0.4573 0.7849 0.5087
C52 C 0.3744(2) 0.7691(2) 0.51478(17)
H56 H 0.3326 0.7831 0.4924
H57 H 0.3882 0.7844 0.5565
H58 H 0.3766 0.7213 0.5143
N7 N 0.55188(12) 0.79234(12) 0.29841(12)
C53 C 0.49751(15) 0.75184(16) 0.25975(15)
H59 H 0.5123 0.7125 0.2457
H60 H 0.4764 0.7367 0.2854
C54 C 0.45238(16) 0.78612(19) 0.20563(17)
H61 H 0.4358 0.8240 0.2189
H62 H 0.4196 0.7559 0.1834
H63 H 0.4724 0.8008 0.1794
C55 C 0.53305(15) 0.85142(15) 0.32554(15)
H64 H 0.5696 0.8774 0.3484
H65 H 0.5060 0.8792 0.2923
C56 C 0.50114(17) 0.83526(19) 0.36690(17)
H66 H 0.4640 0.8109 0.3444
H67 H 0.4910 0.8758 0.3825
H68 H 0.5277 0.8086 0.4006
C57 C 0.58528(15) 0.81910(15) 0.26131(15)
H69 H 0.5583 0.8499 0.2311
H70 H 0.6207 0.8443 0.2883
C58 C 0.60690(18) 0.76800(18) 0.22881(18)
H71 H 0.6344 0.7377 0.2583
H72 H 0.6282 0.7895 0.2064
H73 H 0.5721 0.7438 0.2007
C59 C 0.59190(16) 0.74642(17) 0.34749(16)
H74 H 0.5678 0.7284 0.3691
H75 H 0.6038 0.7093 0.3281
C60 C 0.64848(17) 0.77688(19) 0.39312(18)
H76 H 0.6741 0.7926 0.3727
H77 H 0.6706 0.7442 0.4234
H78 H 0.6375 0.8137 0.4129
Cl2 Cl 0.40789(3) 0.61395(4) 0.23885(3)
O5 O 0.07310(11) 0.41393(13) 0.03352(10)
O6 O 0.02828(10) 0.41726(10) 0.10024(9)
N8 N 0.16866(11) 0.57316(12) 0.30492(11)
H79 H 0.1439 0.5396 0.2976
N9 N 0.08892(11) 0.54000(13) 0.38608(11)
H80 H 0.0876 0.5149 0.3559
N10 N -0.03754(11) 0.53003(13) 0.26143(11)
H81 H -0.0079 0.5036 0.2635
N11 N 0.04286(11) 0.56761(12) 0.18067(11)
H82 H 0.0525 0.5360 0.2076
N12 N 0.18181(12) 0.31175(14) 0.31847(12)
H83 H 0.1596 0.3465 0.3170
N13 N 0.12010(11) 0.34704(12) 0.18127(11)
H84 H 0.1040 0.3746 0.1989
C61 C 0.17970(13) 0.60870(15) 0.26138(13)
C62 C 0.22047(14) 0.65661(16) 0.29126(15)
H85 H 0.2365 0.6888 0.2732
C63 C 0.23434(14) 0.64963(16) 0.35352(15)
H86 H 0.2615 0.6763 0.3846
C64 C 0.20212(13) 0.59809(15) 0.36163(14)
C65 C 0.20083(14) 0.56848(16) 0.41893(14)
C66 C 0.13920(14) 0.57494(15) 0.42274(13)
C67 C 0.12269(15) 0.60769(17) 0.46353(14)
H87 H 0.1479 0.6358 0.4945
C68 C 0.06129(15) 0.59223(16) 0.45134(14)
H88 H 0.0383 0.6085 0.4727
C69 C 0.04094(14) 0.54991(16) 0.40345(14)
C70 C -0.02027(15) 0.51737(17) 0.37191(15)
C71 C -0.05326(14) 0.54534(17) 0.30920(14)
C72 C -0.10133(15) 0.58741(17) 0.28756(15)
H89 H -0.1221 0.6059 0.3102
C73 C -0.11475(14) 0.59858(17) 0.22578(15)
H90 H -0.1458 0.6263 0.1999
C74 C -0.07512(13) 0.56237(15) 0.20971(14)
C75 C -0.07090(13) 0.55395(15) 0.14867(13)
C76 C -0.01577(13) 0.58773(15) 0.14618(13)
C77 C -0.01091(15) 0.63811(16) 0.11088(14)
H91 H -0.0437 0.6619 0.0826
C78 C 0.05089(15) 0.64883(16) 0.12360(15)
H92 H 0.0669 0.6811 0.1056
C79 C 0.08387(14) 0.60415(15) 0.16680(14)
C80 C 0.15172(14) 0.59200(15) 0.19481(14)
C81 C 0.18154(15) 0.63554(17) 0.16234(15)
H93 H 0.1647 0.6251 0.1192
H94 H 0.2252 0.6277 0.1791
H95 H 0.1737 0.6816 0.1680
C82 C 0.16459(15) 0.51969(16) 0.18525(15)
H96 H 0.2084 0.5126 0.2004
H97 H 0.1463 0.5093 0.1422
H98 H 0.1472 0.4914 0.2072
C83 C 0.24752(15) 0.60607(19) 0.47221(14)
H99 H 0.2872 0.6036 0.4698
H100 H 0.2499 0.5866 0.5102
H101 H 0.2352 0.6519 0.4705
C84 C -0.05912(16) 0.5310(2) 0.40909(16)
H102 H -0.0641 0.5783 0.4118
H103 H -0.0389 0.5129 0.4497
H104 H -0.0989 0.5105 0.3893
C85 C -0.01174(16) 0.44238(17) 0.36960(16)
H105 H -0.0514 0.4213 0.3512
H106 H 0.0095 0.4256 0.4106
H107 H 0.0121 0.4329 0.3456
C86 C -0.12770(14) 0.58565(16) 0.10124(14)
H108 H -0.1296 0.6318 0.1114
H109 H -0.1638 0.5629 0.1007
H110 H -0.1259 0.5825 0.0614
C87 C 0.21900(16) 0.49523(17) 0.42290(15)
H111 H 0.2616 0.4917 0.4325
H112 H 0.1979 0.4748 0.3845
C88 C 0.2030(4) 0.4593(3) 0.4720(3)
H113 H 0.2181 0.4854 0.5095
H114 H 0.1585 0.4562 0.4581
C89 C 0.2302(3) 0.3902(3) 0.4858(3)
H115 H 0.2749 0.3924 0.5039
H116 H 0.2161 0.3674 0.5141
C90 C 0.2340(4) 0.2957(4) 0.4285(4)
O7 O 0.2093(3) 0.3558(3) 0.4277(2)
O8 O 0.2646(3) 0.2686(3) 0.4754(3)
C91 C 0.21784(17) 0.2787(2) 0.37029(16)
C92 C 0.24530(17) 0.2264(2) 0.35497(18)
C93 C 0.22657(15) 0.22809(17) 0.29069(16)
C94 C 0.18650(13) 0.28156(15) 0.27058(14)
C95 C 0.15917(13) 0.29744(14) 0.20910(14)
C96 C 0.17310(14) 0.26258(15) 0.16586(15)
C97 C 0.14164(14) 0.29525(15) 0.10914(14)
C98 C 0.11022(14) 0.34663(15) 0.12085(13)
C99 C 0.07008(15) 0.39500(16) 0.08001(14)
C100 C -0.01516(14) 0.46521(16) 0.06168(14)
H117 H -0.0235 0.4563 0.0188
H118 H 0.0018 0.5099 0.0714
C101 C -0.07314(14) 0.46022(17) 0.07247(14)
H119 H -0.0876 0.4145 0.0645
H120 H -0.1039 0.4881 0.0423
C102 C -0.07046(14) 0.47936(15) 0.13500(13)
H121 H -0.0333 0.4601 0.1656
H122 H -0.1053 0.4589 0.1405
C103 C 0.28810(18) 0.1795(2) 0.4003(2)
H123 H 0.2822 0.1350 0.3828
H124 H 0.2786 0.1781 0.4368
C104 C 0.35477(19) 0.2002(3) 0.4183(2)
H125 H 0.3634 0.2048 0.3819
H126 H 0.3814 0.1669 0.4446
H127 H 0.3618 0.2421 0.4396
C105 C 0.24112(15) 0.19016(17) 0.24713(17)
C106 C 0.28242(17) 0.13640(19) 0.2640(2)
H128 H 0.3003 0.1237 0.3052
C107 C 0.29689(19) 0.10248(19) 0.2218(3)
H129 H 0.3245 0.0669 0.2342
C108 C 0.27147(19) 0.1201(2) 0.1619(2)
H130 H 0.2815 0.0967 0.1331
C109 C 0.23147(17) 0.17165(18) 0.14385(19)
H131 H 0.2144 0.1832 0.1024
C110 C 0.21508(14) 0.20770(16) 0.18488(17)
C111 C 0.14022(16) 0.27920(17) 0.04749(15)
H132 H 0.1815 0.2673 0.0512
H133 H 0.1276 0.3185 0.0216
C112 C 0.09728(19) 0.2232(2) 0.01741(18)
H134 H 0.1085 0.1847 0.0437
H135 H 0.1000 0.2126 -0.0211
H136 H 0.0558 0.2361 0.0103
N14 N -0.05111(11) 0.26216(12) 0.20289(12)
C116 C -0.0136(2) 0.2173(2) 0.2499(2)
H143 H -0.0024 0.1795 0.2307
H144 H -0.0376 0.2005 0.2722
C117 C 0.0432(6) 0.2485(6) 0.2940(5)
H145 H 0.0683 0.2631 0.2727
H146 H 0.0657 0.2165 0.3250
H147 H 0.0326 0.2861 0.3132
C118 C -0.0181(3) 0.2901(3) 0.1647(2)
H148 H -0.0454 0.3213 0.1352
H149 H 0.0176 0.3149 0.1916
C119 C 0.0028(6) 0.2397(6) 0.1308(6)
H150 H 0.0249 0.2048 0.1586
H151 H 0.0293 0.2607 0.1138
H152 H -0.0325 0.2211 0.0982
C120 C -0.1069(2) 0.2245(2) 0.1590(2)
H153 H -0.0921 0.1866 0.1430
H154 H -0.1293 0.2069 0.1825
C121 C -0.1508(6) 0.2616(5) 0.1064(6)
H155 H -0.1652 0.3001 0.1210
H156 H -0.1851 0.2333 0.0838
H157 H -0.1306 0.2755 0.0800
C122 C -0.0734(2) 0.3209(2) 0.2270(2)
H158 H -0.0380 0.3462 0.2538
H159 H -0.0970 0.3495 0.1927
C123 C -0.1120(6) 0.3038(5) 0.2613(6)
H160 H -0.1481 0.2803 0.2347
H161 H -0.1241 0.3439 0.2759
H162 H -0.0889 0.2759 0.2957
H137? H 0.1877 0.4727 0.3885
H138? H 0.2571 0.4928 0.4162
C113? C 0.2282(4) 0.4553(4) 0.4792(3)
H139? H 0.2673 0.4317 0.4922
H140? H 0.2299 0.4850 0.5123
C114? C 0.1773(3) 0.4063(3) 0.4674(3)
H141? H 0.1848 0.3801 0.5041
H142? H 0.1385 0.4298 0.4570
C115? C 0.2149(4) 0.3141(5) 0.4295(3)
O9? O 0.1735(3) 0.3631(3) 0.4178(2)
O10? O 0.2461(3) 0.2956(4) 0.4794(3)
C124? C 0.0043(3) 0.2969(3) 0.2510(3)
H163? H 0.0313 0.3107 0.2308
H164? H -0.0106 0.3373 0.2632
C125? C 0.0427(8) 0.2614(9) 0.3077(6)
H165? H 0.0185 0.2518 0.3314
H166? H 0.0772 0.2889 0.3316
H167? H 0.0574 0.2205 0.2973
C126? C -0.0277(3) 0.2044(3) 0.1783(3)
H168? H -0.0056 0.1745 0.2121
H169? H -0.0627 0.1801 0.1496
C127? C 0.0138(7) 0.2224(8) 0.1468(7)
H170? H -0.0056 0.2561 0.1163
H171? H 0.0217 0.1836 0.1272
H172? H 0.0520 0.2393 0.1764
C128? C -0.0856(3) 0.3094(3) 0.1573(3)
H173? H -0.0598 0.3253 0.1366
H174? H -0.0946 0.3474 0.1779
C129? C -0.1437(7) 0.2853(7) 0.1105(9)
H175? H -0.1361 0.2460 0.0913
H176? H -0.1613 0.3194 0.0800
H177? H -0.1720 0.2748 0.1296
C130? C -0.0869(3) 0.2324(3) 0.2376(3)
H178? H -0.1226 0.2093 0.2086
H179? H -0.0611 0.1994 0.2662
C131? C -0.1080(9) 0.2808(6) 0.2722(7)
H180? H -0.0729 0.3015 0.3034
H181? H -0.1320 0.2581 0.2911
H182? H -0.1329 0.3143 0.2446
loop_
_geom_bond_atom_site_label_1
_geom_bond_atom_site_label_2
_geom_bond_site_symmetry_1
_geom_bond_site_symmetry_2
O1 C29 1_555 1_555
O2 C30 1_555 1_555
O3 C39 1_555 1_555
O4 C39 1_555 1_555
N1 H1 1_555 1_555
N2 H2 1_555 1_555
N3 H3 1_555 1_555
N4 H4 1_555 1_555
N5 H5 1_555 1_555
N6 H6 1_555 1_555
C1 N1 1_555 1_555
C2 C1 1_555 1_555
H7 C2 1_555 1_555
C3 C2 1_555 1_555
H8 C3 1_555 1_555
C4 N1 1_555 1_555
C5 C4 1_555 1_555
C6 N2 1_555 1_555
C7 C6 1_555 1_555
H9 C7 1_555 1_555
C8 C7 1_555 1_555
H10 C8 1_555 1_555
C9 N2 1_555 1_555
C10 C9 1_555 1_555
C11 N3 1_555 1_555
C12 C11 1_555 1_555
H11 C12 1_555 1_555
C13 C12 1_555 1_555
H12 C13 1_555 1_555
C14 N3 1_555 1_555
C15 C14 1_555 1_555
C16 N4 1_555 1_555
C17 C16 1_555 1_555
H13 C17 1_555 1_555
C18 C17 1_555 1_555
H14 C18 1_555 1_555
C19 N4 1_555 1_555
C20 C1 1_555 1_555
C21 C5 1_555 1_555
H15 C21 1_555 1_555
H16 C21 1_555 1_555
H17 C21 1_555 1_555
C22 C5 1_555 1_555
H18 C22 1_555 1_555
H19 C22 1_555 1_555
H20 C22 1_555 1_555
C23 C10 1_555 1_555
H21 C23 1_555 1_555
H22 C23 1_555 1_555
H23 C23 1_555 1_555
C24 C15 1_555 1_555
H24 C24 1_555 1_555
H25 C24 1_555 1_555
H26 C24 1_555 1_555
C25 C15 1_555 1_555
H27 C25 1_555 1_555
H28 C25 1_555 1_555
H29 C25 1_555 1_555
C26 C20 1_555 1_555
H30 C26 1_555 1_555
H31 C26 1_555 1_555
H32 C26 1_555 1_555
C27 C10 1_555 1_555
H33 C27 1_555 1_555
H34 C27 1_555 1_555
C28 C27 1_555 1_555
H35 C28 1_555 1_555
H36 C28 1_555 1_555
C29 C28 1_555 1_555
H37 C29 1_555 1_555
H38 C29 1_555 1_555
C30 O1 1_555 1_555
C31 N5 1_555 1_555
C32 C31 1_555 1_555
C33 C32 1_555 1_555
C34 N5 1_555 1_555
C35 N6 1_555 1_555
C36 C35 1_555 1_555
C37 C36 1_555 1_555
C38 N6 1_555 1_555
C39 C38 1_555 1_555
C40 O4 1_555 1_555
H39 C40 1_555 1_555
H40 C40 1_555 1_555
C41 C40 1_555 1_555
H41 C41 1_555 1_555
H42 C41 1_555 1_555
C42 C20 1_555 1_555
H43 C42 1_555 1_555
H44 C42 1_555 1_555
C43 C32 1_555 1_555
H45 C43 1_555 1_555
H46 C43 1_555 1_555
C44 C43 1_555 1_555
H47 C44 1_555 1_555
H48 C44 1_555 1_555
H49 C44 1_555 1_555
C45 C33 1_555 1_555
C46 C45 1_555 1_555
H50 C46 1_555 1_555
C47 C46 1_555 1_555
H51 C47 1_555 1_555
C48 C47 1_555 1_555
H52 C48 1_555 1_555
C49 C48 1_555 1_555
H53 C49 1_555 1_555
C50 C36 1_555 1_555
C51 C37 1_555 1_555
H54 C51 1_555 1_555
H55 C51 1_555 1_555
C52 C51 1_555 1_555
H56 C52 1_555 1_555
H57 C52 1_555 1_555
H58 C52 1_555 1_555
N7 C53 1_555 1_555
C53 H59 1_555 1_555
H60 C53 1_555 1_555
C54 C53 1_555 1_555
H61 C54 1_555 1_555
H62 C54 1_555 1_555
H63 C54 1_555 1_555
C55 N7 1_555 1_555
H64 C55 1_555 1_555
H65 C55 1_555 1_555
C56 C55 1_555 1_555
H66 C56 1_555 1_555
H67 C56 1_555 1_555
H68 C56 1_555 1_555
C57 N7 1_555 1_555
H69 C57 1_555 1_555
H70 C57 1_555 1_555
C58 C57 1_555 1_555
H71 C58 1_555 1_555
H72 C58 1_555 1_555
H73 C58 1_555 1_555
C59 N7 1_555 1_555
H74 C59 1_555 1_555
H75 C59 1_555 1_555
C60 C59 1_555 1_555
H76 C60 1_555 1_555
H77 C60 1_555 1_555
H78 C60 1_555 1_555
O5 C99 1_555 1_555
O6 C99 1_555 1_555
N8 H79 1_555 1_555
N9 H80 1_555 1_555
N10 H81 1_555 1_555
N11 H82 1_555 1_555
N12 H83 1_555 1_555
N13 H84 1_555 1_555
C61 N8 1_555 1_555
C62 C61 1_555 1_555
H85 C62 1_555 1_555
C63 C62 1_555 1_555
H86 C63 1_555 1_555
C64 N8 1_555 1_555
C65 C64 1_555 1_555
C66 N9 1_555 1_555
C67 C66 1_555 1_555
H87 C67 1_555 1_555
C68 C67 1_555 1_555
H88 C68 1_555 1_555
C69 N9 1_555 1_555
C70 C69 1_555 1_555
C71 N10 1_555 1_555
C72 C71 1_555 1_555
H89 C72 1_555 1_555
C73 C72 1_555 1_555
H90 C73 1_555 1_555
C74 N10 1_555 1_555
C75 C74 1_555 1_555
C76 N11 1_555 1_555
C77 C76 1_555 1_555
H91 C77 1_555 1_555
C78 C77 1_555 1_555
H92 C78 1_555 1_555
C79 N11 1_555 1_555
C80 C61 1_555 1_555
C81 C80 1_555 1_555
H93 C81 1_555 1_555
H94 C81 1_555 1_555
H95 C81 1_555 1_555
C82 C80 1_555 1_555
H96 C82 1_555 1_555
H97 C82 1_555 1_555
H98 C82 1_555 1_555
C83 C65 1_555 1_555
H99 C83 1_555 1_555
H100 C83 1_555 1_555
H101 C83 1_555 1_555
C84 C70 1_555 1_555
H102 C84 1_555 1_555
H103 C84 1_555 1_555
H104 C84 1_555 1_555
C85 C70 1_555 1_555
H105 C85 1_555 1_555
H106 C85 1_555 1_555
H107 C85 1_555 1_555
C86 C75 1_555 1_555
H108 C86 1_555 1_555
H109 C86 1_555 1_555
H110 C86 1_555 1_555
C87 C65 1_555 1_555
H111 C87 1_555 1_555
H112 C87 1_555 1_555
C88 C87 1_555 1_555
H113 C88 1_555 1_555
H114 C88 1_555 1_555
C89 C88 1_555 1_555
H115 C89 1_555 1_555
H116 C89 1_555 1_555
C90 O7 1_555 1_555
O7 C89 1_555 1_555
O8 C90 1_555 1_555
C91 N12 1_555 1_555
C92 C91 1_555 1_555
C93 C92 1_555 1_555
C94 N12 1_555 1_555
C95 N13 1_555 1_555
C96 C95 1_555 1_555
C97 C96 1_555 1_555
C98 N13 1_555 1_555
C99 C98 1_555 1_555
C100 O6 1_555 1_555
H117 C100 1_555 1_555
H118 C100 1_555 1_555
C101 C100 1_555 1_555
H119 C101 1_555 1_555
H120 C101 1_555 1_555
C102 C75 1_555 1_555
H121 C102 1_555 1_555
H122 C102 1_555 1_555
C103 C92 1_555 1_555
H123 C103 1_555 1_555
H124 C103 1_555 1_555
C104 C103 1_555 1_555
H125 C104 1_555 1_555
H126 C104 1_555 1_555
H127 C104 1_555 1_555
C105 C93 1_555 1_555
C106 C105 1_555 1_555
H128 C106 1_555 1_555
C107 C106 1_555 1_555
H129 C107 1_555 1_555
C108 C107 1_555 1_555
H130 C108 1_555 1_555
C109 C108 1_555 1_555
H131 C109 1_555 1_555
C110 C96 1_555 1_555
C111 C97 1_555 1_555
H132 C111 1_555 1_555
H133 C111 1_555 1_555
C112 C111 1_555 1_555
H134 C112 1_555 1_555
H135 C112 1_555 1_555
H136 C112 1_555 1_555
N14 C116 1_555 1_555
C116 H143 1_555 1_555
H144 C116 1_555 1_555
C117 C116 1_555 1_555
H145 C117 1_555 1_555
H146 C117 1_555 1_555
H147 C117 1_555 1_555
C118 N14 1_555 1_555
H148 C118 1_555 1_555
H149 C118 1_555 1_555
C119 C118 1_555 1_555
H150 C119 1_555 1_555
H151 C119 1_555 1_555
H152 C119 1_555 1_555
C120 N14 1_555 1_555
H153 C120 1_555 1_555
H154 C120 1_555 1_555
C121 C120 1_555 1_555
H155 C121 1_555 1_555
H156 C121 1_555 1_555
H157 C121 1_555 1_555
C122 N14 1_555 1_555
H158 C122 1_555 1_555
H159 C122 1_555 1_555
C123 C122 1_555 1_555
H160 C123 1_555 1_555
H161 C123 1_555 1_555
H162 C123 1_555 1_555
C3 C4 1_555 1_555
C5 C6 1_555 1_555
C8 C9 1_555 1_555
C10 C11 1_555 1_555
C13 C14 1_555 1_555
C15 C16 1_555 1_555
C18 C19 1_555 1_555
C19 C20 1_555 1_555
C30 C31 1_555 1_555
C33 C34 1_555 1_555
C34 C35 1_555 1_555
C37 C38 1_555 1_555
C41 C42 1_555 1_555
C45 C50 1_555 1_555
C49 C50 1_555 1_555
C63 C64 1_555 1_555
C65 C66 1_555 1_555
C68 C69 1_555 1_555
C70 C71 1_555 1_555
C73 C74 1_555 1_555
C75 C76 1_555 1_555
C78 C79 1_555 1_555
C79 C80 1_555 1_555
C90 C91 1_555 1_555
C93 C94 1_555 1_555
C94 C95 1_555 1_555
C97 C98 1_555 1_555
C101 C102 1_555 1_555
C105 C110 1_555 1_555
C109 C110 1_555 1_555

#END
