
#######################################################################
#
#                 Cambridge Crystallographic Data Centre
#                                CCDC 
#
#######################################################################
#
# If this CIF has been generated from an entry in the Cambridge 
# Structural Database, then it will include bibliographic, chemical, 
# crystal, experimental, refinement or atomic coordinate data resulting 
# from the CCDC's data processing and validation procedures.
#
#######################################################################

data_NUTWOP
_chemical_formula_moiety         'C22 H16 O1'
_chemical_name_systematic        2,3,5-Triphenylfuran
_symmetry_cell_setting           orthorhombic
_symmetry_space_group_name_H-M   'P b c a'
_symmetry_Int_Tables_number      61
_space_group_name_Hall           '-P 2ac 2ab'
loop_
_symmetry_equiv_pos_site_id
_symmetry_equiv_pos_as_xyz
1 x,y,z
2 1/2-x,-y,1/2+z
3 -x,1/2+y,1/2-z
4 1/2+x,1/2-y,-z
5 -x,-y,-z
6 1/2+x,y,1/2-z
7 x,1/2-y,1/2+z
8 1/2-x,1/2+y,z
_cell_length_a                   7.7124(4)
_cell_length_b                   19.8082(9)
_cell_length_c                   20.3303(10)
_cell_angle_alpha                90
_cell_angle_beta                 90
_cell_angle_gamma                90
_cell_volume                     3105.83
_exptl_crystal_colour            colorless
_exptl_crystal_description       block
_chemical_melting_point          90-91deg.C
_cell_formula_units_Z            8
loop_
_atom_site_label
_atom_site_type_symbol
_atom_site_fract_x
_atom_site_fract_y
_atom_site_fract_z
O1 O 0.25474(17) 0.14911(6) 0.30254(6)
C1 C -0.0161(3) 0.35750(10) 0.28401(10)
H1 H -0.0710 0.3338 0.2491
C2 C -0.0637(3) 0.42329(10) 0.29695(10)
H2 H -0.1525 0.4441 0.2717
C3 C 0.0174(3) 0.45877(10) 0.34636(10)
H3 H -0.0157 0.5040 0.3556
C4 C 0.1472(3) 0.42817(9) 0.38255(9)
H4 H 0.2051 0.4529 0.4160
C5 C 0.1937(2) 0.36177(9) 0.37041(9)
H5 H 0.2826 0.3412 0.3958
C6 C 0.1107(2) 0.32504(9) 0.32110(9)
C7 C 0.0947(2) 0.22459(9) 0.45637(9)
H6 H 0.0263 0.2606 0.4397
C8 C 0.0885(3) 0.20933(10) 0.52238(10)
H7 H 0.0171 0.2351 0.5510
C9 C 0.1863(3) 0.15651(11) 0.54716(11)
H8 H 0.1823 0.1457 0.5927
C10 C 0.2899(3) 0.11954(11) 0.50471(13)
H9 H 0.3571 0.0832 0.5214
C11 C 0.2969(3) 0.13467(10) 0.43890(11)
H10 H 0.3683 0.1086 0.4105
C12 C 0.2004(2) 0.18774(9) 0.41357(10)
C13 C 0.3775(3) 0.06456(10) 0.19884(10)
H11 H 0.4071 0.0533 0.2429
C14 C 0.4254(3) 0.02227(13) 0.14934(13)
H12 H 0.4871 -0.0179 0.1594
C15 C 0.3872(4) 0.03631(14) 0.08688(14)
H13 H 0.4216 0.0062 0.0529
C16 C 0.2979(4) 0.09432(16) 0.07148(10)
H14 H 0.2717 0.1044 0.0269
C17 C 0.2450(3) 0.13893(12) 0.12202(10)
H15 H 0.1821 0.1788 0.1118
C18 C 0.2864(2) 0.12361(9) 0.18668(8)
C19 C 0.2379(2) 0.16899(9) 0.23924(9)
C20 C 0.1801(2) 0.23273(8) 0.23909(9)
H16 H 0.1563 0.2586 0.2008
C21 C 0.1599(2) 0.25559(9) 0.30403(9)
C22 C 0.2051(2) 0.20192(9) 0.34293(10)
loop_
_geom_bond_atom_site_label_1
_geom_bond_atom_site_label_2
_geom_bond_site_symmetry_1
_geom_bond_site_symmetry_2
O1 C19 1_555 1_555
C1 H1 1_555 1_555
C2 C1 1_555 1_555
H2 C2 1_555 1_555
C3 C2 1_555 1_555
H3 C3 1_555 1_555
C4 C3 1_555 1_555
H4 C4 1_555 1_555
C5 C4 1_555 1_555
H5 C5 1_555 1_555
C6 C1 1_555 1_555
C7 H6 1_555 1_555
C8 C7 1_555 1_555
H7 C8 1_555 1_555
C9 C8 1_555 1_555
H8 C9 1_555 1_555
C10 C9 1_555 1_555
H9 C10 1_555 1_555
C11 C10 1_555 1_555
H10 C11 1_555 1_555
C12 C7 1_555 1_555
C13 H11 1_555 1_555
C14 C13 1_555 1_555
H12 C14 1_555 1_555
C15 C14 1_555 1_555
H13 C15 1_555 1_555
C16 C15 1_555 1_555
H14 C16 1_555 1_555
C17 C16 1_555 1_555
H15 C17 1_555 1_555
C18 C13 1_555 1_555
C19 C18 1_555 1_555
C20 C19 1_555 1_555
H16 C20 1_555 1_555
C21 C6 1_555 1_555
C22 O1 1_555 1_555
C5 C6 1_555 1_555
C11 C12 1_555 1_555
C12 C22 1_555 1_555
C17 C18 1_555 1_555
C20 C21 1_555 1_555
C21 C22 1_555 1_555

#END
