
#######################################################################
#
#                 Cambridge Crystallographic Data Centre
#                                CCDC 
#
#######################################################################
#
# If this CIF has been generated from an entry in the Cambridge 
# Structural Database, then it will include bibliographic, chemical, 
# crystal, experimental, refinement or atomic coordinate data resulting 
# from the CCDC's data processing and validation procedures.
#
#######################################################################

data_NUTXAC
_chemical_formula_moiety         'C31 H27 Br1 O4'
_chemical_name_systematic        
'(2S*,3S*)-Methyl 2-(benzyloxy)-2-(4-bromophenyl)-5-oxo-3,5-diphenylpentanoate'
_symmetry_cell_setting           monoclinic
_symmetry_space_group_name_H-M   'P 21/c'
_symmetry_Int_Tables_number      14
_space_group_name_Hall           '-P 2ybc'
loop_
_symmetry_equiv_pos_site_id
_symmetry_equiv_pos_as_xyz
1 x,y,z
2 -x,1/2+y,1/2-z
3 -x,-y,-z
4 x,1/2-y,1/2+z
_cell_length_a                   11.0837(4)
_cell_length_b                   12.5162(4)
_cell_length_c                   19.9846(7)
_cell_angle_alpha                90
_cell_angle_beta                 105.7030(10)
_cell_angle_gamma                90
_cell_volume                     2668.91
_exptl_crystal_colour            colorless
_exptl_crystal_description       hexagon
_chemical_melting_point          134-135deg.C
_cell_formula_units_Z            4
loop_
_atom_site_label
_atom_site_type_symbol
_atom_site_fract_x
_atom_site_fract_y
_atom_site_fract_z
Br1 Br 0.83901(5) 0.17370(5) 0.74645(2)
O1 O 0.42305(18) 0.11166(17) 0.35772(12)
O2 O 0.63011(19) 0.13041(18) 0.38316(12)
O3 O 0.6299(2) 0.55192(18) 0.39829(18)
O4 O 0.38923(15) 0.24766(15) 0.44719(10)
C1 C 0.7445(3) 0.1965(3) 0.65326(17)
C2 C 0.6541(3) 0.2747(3) 0.63802(17)
H1 H 0.6406 0.3184 0.6730
C3 C 0.5837(3) 0.2876(2) 0.57025(16)
H2 H 0.5226 0.3405 0.5597
C4 C 0.6022(2) 0.2231(2) 0.51717(14)
C5 C 0.6953(3) 0.1462(2) 0.53436(17)
H3 H 0.7102 0.1028 0.4997
C6 C 0.7666(3) 0.1331(3) 0.60258(19)
H4 H 0.8290 0.0813 0.6135
C7 C 0.2059(3) 0.1541(2) 0.45389(18)
C8 C 0.1314(4) 0.1452(4) 0.4969(3)
H5 H 0.1663 0.1488 0.5448
C9 C 0.0025(5) 0.1306(5) 0.4704(4)
H6 H -0.0477 0.1247 0.5008
C10 C -0.0493(4) 0.1250(4) 0.4025(4)
H7 H -0.1354 0.1154 0.3853
C11 C 0.0225(4) 0.1330(3) 0.3586(3)
H8 H -0.0135 0.1277 0.3109
C12 C 0.1500(3) 0.1492(3) 0.3838(2)
H9 H 0.1987 0.1569 0.3528
C13 C 0.4482(2) 0.3667(2) 0.34219(15)
C14 C 0.3360(3) 0.4187(3) 0.33704(18)
H10 H 0.3206 0.4479 0.3767
C15 C 0.2465(3) 0.4280(4) 0.2741(2)
H11 H 0.1716 0.4632 0.2716
C16 C 0.2679(4) 0.3856(4) 0.2153(2)
H12 H 0.2076 0.3920 0.1729
C17 C 0.3776(4) 0.3340(3) 0.21906(19)
H13 H 0.3916 0.3042 0.1792
C18 C 0.4682(3) 0.3256(3) 0.28159(17)
H14 H 0.5437 0.2919 0.2832
C19 C 0.8358(3) 0.5079(2) 0.39877(15)
C20 C 0.8592(3) 0.6089(3) 0.3780(2)
H15 H 0.7948 0.6590 0.3667
C21 C 0.9770(4) 0.6363(3) 0.3737(3)
H16 H 0.9915 0.7046 0.3593
C22 C 1.0720(3) 0.5648(3) 0.3904(2)
H17 H 1.1518 0.5844 0.3884
C23 C 1.0506(3) 0.4645(3) 0.41020(19)
H18 H 1.1156 0.4150 0.4209
C24 C 0.9326(3) 0.4356(2) 0.41444(16)
H19 H 0.9186 0.3666 0.4280
C25 C 0.7072(3) 0.4822(2) 0.40346(16)
C26 C 0.6771(2) 0.3674(2) 0.41495(16)
H20 H 0.7295 0.3440 0.4597
H21 H 0.6969 0.3234 0.3794
C27 C 0.5390(2) 0.3504(2) 0.41311(14)
H22 H 0.5189 0.4051 0.4435
C28 C 0.5157(2) 0.2398(2) 0.44428(14)
C29 C 0.3452(3) 0.1628(3) 0.48223(16)
H23 H 0.3665 0.1772 0.5317
H24 H 0.3846 0.0961 0.4751
C30 C 0.5309(3) 0.1533(2) 0.39259(15)
C31 C 0.4277(4) 0.0380(3) 0.3028(2)
H25 H 0.3447 0.0127 0.2807
H26 H 0.4805 -0.0215 0.3221
H27 H 0.4610 0.0737 0.2692
loop_
_geom_bond_atom_site_label_1
_geom_bond_atom_site_label_2
_geom_bond_site_symmetry_1
_geom_bond_site_symmetry_2
Br1 C1 1_555 1_555
O1 C30 1_555 1_555
O2 C30 1_555 1_555
O3 C25 1_555 1_555
O4 C28 1_555 1_555
C1 C2 1_555 1_555
C2 H1 1_555 1_555
C3 C2 1_555 1_555
H2 C3 1_555 1_555
C4 C3 1_555 1_555
C5 C4 1_555 1_555
H3 C5 1_555 1_555
C6 C1 1_555 1_555
H4 C6 1_555 1_555
C7 C8 1_555 1_555
C8 H5 1_555 1_555
C9 C8 1_555 1_555
H6 C9 1_555 1_555
C10 C9 1_555 1_555
H7 C10 1_555 1_555
C11 C10 1_555 1_555
H8 C11 1_555 1_555
C12 C7 1_555 1_555
H9 C12 1_555 1_555
C13 C14 1_555 1_555
C14 H10 1_555 1_555
C15 C14 1_555 1_555
H11 C15 1_555 1_555
C16 C15 1_555 1_555
H12 C16 1_555 1_555
C17 C16 1_555 1_555
H13 C17 1_555 1_555
C18 C13 1_555 1_555
H14 C18 1_555 1_555
C19 C20 1_555 1_555
C20 H15 1_555 1_555
C21 C20 1_555 1_555
H16 C21 1_555 1_555
C22 C21 1_555 1_555
H17 C22 1_555 1_555
C23 C22 1_555 1_555
H18 C23 1_555 1_555
C24 C19 1_555 1_555
H19 C24 1_555 1_555
C25 C19 1_555 1_555
C26 C25 1_555 1_555
H20 C26 1_555 1_555
H21 C26 1_555 1_555
C27 C13 1_555 1_555
H22 C27 1_555 1_555
C28 C4 1_555 1_555
C29 O4 1_555 1_555
H23 C29 1_555 1_555
H24 C29 1_555 1_555
C30 C28 1_555 1_555
C31 O1 1_555 1_555
H25 C31 1_555 1_555
H26 C31 1_555 1_555
H27 C31 1_555 1_555
C5 C6 1_555 1_555
C7 C29 1_555 1_555
C11 C12 1_555 1_555
C17 C18 1_555 1_555
C23 C24 1_555 1_555
C26 C27 1_555 1_555
C27 C28 1_555 1_555

#END
