
#######################################################################
#
#                 Cambridge Crystallographic Data Centre
#                                CCDC 
#
#######################################################################
#
# If this CIF has been generated from an entry in the Cambridge 
# Structural Database, then it will include bibliographic, chemical, 
# crystal, experimental, refinement or atomic coordinate data resulting 
# from the CCDC's data processing and validation procedures.
#
#######################################################################

data_NUVBAH
_chemical_compound_source        'Illicium dunnianum'
_chemical_formula_moiety         'C15 H22 O7,0.5(C1 H4 O1)'
_chemical_name_systematic        'Neodunnianin methanol solvate'
_chemical_properties_biological  
'agent used in folk-medicine for the relief of pain which may have toxic side effects'
_symmetry_cell_setting           monoclinic
_symmetry_space_group_name_H-M   'P 21'
_symmetry_Int_Tables_number      4
_space_group_name_Hall           'P 2yb'
loop_
_symmetry_equiv_pos_site_id
_symmetry_equiv_pos_as_xyz
1 x,y,z
2 -x,1/2+y,-z
_cell_length_a                   8.353
_cell_length_b                   10.628
_cell_length_c                   17.725
_cell_angle_alpha                90
_cell_angle_beta                 84.229
_cell_angle_gamma                90
_cell_volume                     1565.57
_chemical_melting_point          213-215deg.C
_cell_formula_units_Z            4
loop_
_atom_site_label
_atom_site_type_symbol
_atom_site_fract_x
_atom_site_fract_y
_atom_site_fract_z
O1 O 0.8070(5) -0.1020 0.0573(2)
O5 O 1.1722(5) 0.0962(6) 0.2285(2)
O7 O 0.9569(6) -0.0832(6) -0.0619(3)
O11 O 1.2164(5) 0.2652(6) 0.1581(2)
O12 O 0.5399(5) 0.2173(6) 0.1721(3)
O13 O 0.6560(5) 0.0161(6) -0.0674(2)
O14 O 0.6445(6) 0.0091(7) 0.2464(3)
C1 C 0.7583(7) -0.0047(7) 0.1135(3)
C2 C 1.1207(8) 0.1866(7) 0.1836(3)
C6 C 0.9312(7) 0.0437(7) 0.1283(3)
C7 C 0.9888(8) -0.0593(7) 0.1828(3)
C10 C 0.7518(7) 0.0759(7) -0.0139(3)
C13 C 0.8891(7) -0.0182(7) 0.0011(3)
C15 C 0.6144(7) 0.2165(8) 0.0946(3)
C17 C 0.9489(7) 0.1764(7) 0.1649(3)
C20 C 0.6494(7) 0.0792(7) 0.0671(3)
C22 C 0.6954(8) -0.0758(8) 0.1856(4)
C26 C 0.8430(9) -0.1460(8) 0.2071(4)
C27 C 1.0502(9) 0.0008(8) 0.2530(3)
C28 C 0.4841(7) 0.0110(8) 0.0652(4)
C29 C 1.0206(7) 0.0401(7) 0.0462(3)
C30 C 0.8140(8) 0.2003(8) -0.0471(4)
H2 H 1.07462 -0.10695 0.15642
H8 H 0.71395 0.26206 0.09214
H9 H 0.54395 0.25576 0.06204
H10 H 0.92490 0.23928 0.12882
H11 H 0.87330 0.18258 0.20922
H17 H 0.60618 -0.12931 0.17730
H25 H 0.83150 -0.16023 0.26091
H26 H 0.85180 -0.22533 0.18111
H27 H 0.96108 0.03819 0.28340
H28 H 1.09808 -0.06291 0.28190
H29 H 0.50198 -0.07447 0.04912
H30 H 0.42308 0.05393 0.02992
H31 H 0.42558 0.01223 0.11472
H32 H 1.11362 -0.01354 0.04177
H33 H 1.04962 0.12166 0.02597
H34 H 0.87234 0.18484 -0.09573
H35 H 0.88474 0.23744 -0.01393
H36 H 0.72634 0.25674 -0.05303
H39 H 0.697(9) 0.021(9) -0.101(4)
H40 H 0.447(8) 0.227(8) 0.172(4)
H42 H 0.901(9) -0.114(8) -0.079(4)
H46 H 0.598(9) 0.072(7) 0.235(4)
O2 O 0.2128(6) 0.5332(6) 0.2242(3)
O3 O 0.0954(5) 0.6175(7) 0.5377(3)
O4 O 0.3842(6) 0.7196(6) 0.5190(2)
O6 O 0.7221(5) 0.4547(3) 0.2460(2)
O8 O 0.0677(5) 0.3548(6) 0.3174(3)
O9 O 0.2862(5) 0.7028(5) 0.3992(2)
O10 O 0.7417(5) 0.3089(6) 0.3331(2)
C3 C 0.2645(7) 0.5895(7) 0.3531(3)
C4 C 0.5252(7) 0.6237(7) 0.2767(3)
C5 C 0.3467(7) 0.6364(7) 0.4636(3)
C8 C 0.4767(7) 0.3982(7) 0.3257(3)
C9 C 0.2047(7) 0.5428(7) 0.4874(3)
C11 C 0.2315(8) 0.6366(7) 0.2744(3)
C12 C 0.4449(7) 0.5406(7) 0.3441(3)
C14 C 0.1103(7) 0.3768(7) 0.3934(3)
C16 C 0.1353(7) 0.5175(7) 0.4073(3)
C18 C 0.4982(7) 0.5742(7) 0.4237(3)
C19 C -0.0289(7) 0.5843(7) 0.4031(3)
C21 C 0.6562(8) 0.3809(8) 0.3027(3)
C23 C 0.3892(8) 0.7029(7) 0.2460(3)
C24 C 0.2538(8) 0.4280(8) 0.5321(4)
C25 C 0.6097(8) 0.5408(8) 0.2137(3)
H1 H 0.60405 0.67826 0.29508
H3 H 0.41753 0.37201 0.28466
H4 H 0.44663 0.34701 0.36946
H5 H 0.13740 0.68877 0.27613
H6 H 0.20881 0.33339 0.39991
H7 H 0.02651 0.34649 0.42991
H12 H 0.52960 0.49898 0.44839
H13 H 0.58780 0.63108 0.41719
H14 H -0.01684 0.67323 0.41023
H15 H -0.10474 0.55143 0.44253
H16 H -0.06734 0.56903 0.35473
H18 H 0.40028 0.70483 0.19164
H19 H 0.38838 0.78743 0.26524
H20 H 0.29313 0.45530 0.57845
H21 H 0.33683 0.38230 0.50225
H22 H 0.16203 0.37450 0.54345
H23 H 0.53055 0.49359 0.18999
H24 H 0.66795 0.59399 0.17669
H37 H 0.033(9) 0.591(8) 0.551(4)
H43 H 0.168(9) 0.489(8) 0.237(5)
H44 H -0.017(8) 0.344(8) 0.316(4)
H48 H 0.314(8) 0.730(8) 0.546(4)
O15 O 0.1788(8) 0.9588(7) 0.4205(4)
C31 C 0.3187(10) 1.0283(11) 0.3945(5)
H38 H 0.351(8) 1.089(7) 0.436(4)
H41 H 0.332(8) 1.032(7) 0.346(4)
H45 H 0.399(8) 0.976(7) 0.394(4)
H47 H 0.190(12) 0.908(8) 0.424(5)
loop_
_geom_bond_atom_site_label_1
_geom_bond_atom_site_label_2
_geom_bond_site_symmetry_1
_geom_bond_site_symmetry_2
O1 C1 1_555 1_555
O2 C11 1_555 1_555
O3 C9 1_555 1_555
O4 C5 1_555 1_555
O5 C2 1_555 1_555
O6 C21 1_555 1_555
O7 C13 1_555 1_555
O8 C14 1_555 1_555
O9 C3 1_555 1_555
O10 C21 1_555 1_555
O11 C2 1_555 1_555
O12 C15 1_555 1_555
O13 C10 1_555 1_555
O14 C22 1_555 1_555
C1 C6 1_555 1_555
C2 C17 1_555 1_555
O15 C31 1_555 1_555
C3 C11 1_555 1_555
C4 C12 1_555 1_555
C5 O9 1_555 1_555
C6 C7 1_555 1_555
C7 C26 1_555 1_555
C8 C12 1_555 1_555
C9 C5 1_555 1_555
C10 C13 1_555 1_555
C11 C23 1_555 1_555
C12 C3 1_555 1_555
C13 O1 1_555 1_555
C14 C16 1_555 1_555
C15 C20 1_555 1_555
C16 C3 1_555 1_555
C17 C6 1_555 1_555
C18 C5 1_555 1_555
C19 C16 1_555 1_555
C20 C1 1_555 1_555
C21 C8 1_555 1_555
C22 C1 1_555 1_555
C23 C4 1_555 1_555
C24 C9 1_555 1_555
C25 O6 1_555 1_555
C26 C22 1_555 1_555
C27 O5 1_555 1_555
C28 C20 1_555 1_555
C29 C6 1_555 1_555
C30 C10 1_555 1_555
C31 H38 1_555 1_555
H1 C4 1_555 1_555
H2 C7 1_555 1_555
H3 C8 1_555 1_555
H4 C8 1_555 1_555
H5 C11 1_555 1_555
H6 C14 1_555 1_555
H7 C14 1_555 1_555
H8 C15 1_555 1_555
H9 C15 1_555 1_555
H10 C17 1_555 1_555
H11 C17 1_555 1_555
H12 C18 1_555 1_555
H13 C18 1_555 1_555
H14 C19 1_555 1_555
H15 C19 1_555 1_555
H16 C19 1_555 1_555
H17 C22 1_555 1_555
H18 C23 1_555 1_555
H19 C23 1_555 1_555
H20 C24 1_555 1_555
H21 C24 1_555 1_555
H22 C24 1_555 1_555
H23 C25 1_555 1_555
H24 C25 1_555 1_555
H25 C26 1_555 1_555
H26 C26 1_555 1_555
H27 C27 1_555 1_555
H28 C27 1_555 1_555
H29 C28 1_555 1_555
H30 C28 1_555 1_555
H31 C28 1_555 1_555
H32 C29 1_555 1_555
H33 C29 1_555 1_555
H34 C30 1_555 1_555
H35 C30 1_555 1_555
H36 C30 1_555 1_555
H37 O3 1_555 1_555
H39 O13 1_555 1_555
H40 O12 1_555 1_555
H41 C31 1_555 1_555
H42 O7 1_555 1_555
H43 O2 1_555 1_555
H44 O8 1_555 1_555
H45 C31 1_555 1_555
H46 O14 1_555 1_555
H47 O15 1_555 1_555
H48 O4 1_555 1_555
C4 C25 1_555 1_555
C7 C27 1_555 1_555
C9 C16 1_555 1_555
C10 C20 1_555 1_555
C12 C18 1_555 1_555
C13 C29 1_555 1_555

#END
