
#######################################################################
#
#                 Cambridge Crystallographic Data Centre
#                                CCDC 
#
#######################################################################
#
# If this CIF has been generated from an entry in the Cambridge 
# Structural Database, then it will include bibliographic, chemical, 
# crystal, experimental, refinement or atomic coordinate data resulting 
# from the CCDC's data processing and validation procedures.
#
#######################################################################

data_NUVBIP
_chemical_formula_moiety         'C19 H31 Cl1 N2 Na1 O5 1+,Br1 1-'
_chemical_name_systematic        
"(16-Chloro-N,N'-bis(2-hydroxyethyl)-18-methoxy-6,9-dioxa-3,12-diazabicy clo(12.3.1)octadeca-1(18),14,16-triene)-sodium bromide"
_symmetry_cell_setting           monoclinic
_symmetry_space_group_name_H-M   'P 21/n'
_symmetry_Int_Tables_number      14
_space_group_name_Hall           '-P 2yn'
loop_
_symmetry_equiv_pos_site_id
_symmetry_equiv_pos_as_xyz
1 x,y,z
2 1/2-x,1/2+y,1/2-z
3 -x,-y,-z
4 1/2+x,1/2-y,1/2+z
_cell_length_a                   9.767(2)
_cell_length_b                   13.943(3)
_cell_length_c                   17.160(4)
_cell_angle_alpha                90
_cell_angle_beta                 84.06(2)
_cell_angle_gamma                90
_cell_volume                     2324.32
_chemical_melting_point          180-182deg.C
_cell_formula_units_Z            4
loop_
_atom_site_label
_atom_site_type_symbol
_atom_site_fract_x
_atom_site_fract_y
_atom_site_fract_z
Na1 Na 0.6819(2) 0.1867(1) 0.1159(1)
Cl1 Cl 0.8960(2) 0.6105(1) -0.01852(9)
O1 O 0.8504(4) 0.1128(1) 0.0101(2)
O2 O 0.5970(4) 0.1473(3) 0.2505(2)
O3 O 0.9317(4) 0.2162(3) 0.1345(2)
O4 O 0.5240(3) 0.3151(2) 0.1243(2)
O5 O 0.4899(4) 0.0902(3) 0.0804(2)
N1 N 0.7455(4) 0.3279(3) 0.2349(2)
N2 N 0.6125(4) 0.2240(3) -0.0322(2)
C1 C 0.7840(4) 0.5224(4) 0.0240(2)
C2 C 0.7682(6) 0.5131(4) 0.1041(3)
C3 C 0.6808(5) 0.4432(4) 0.1388(3)
C4 C 0.6090(5) 0.3868(3) 0.0905(3)
C5 C 0.6301(5) 0.3923(3) 0.0093(3)
C6 C 0.7192(5) 0.4623(4) -0.0233(3)
C7 C 0.6758(6) 0.4193(4) 0.2258(3)
C8 C 0.8952(6) 0.3410(4) 0.2265(2)
C9 C 0.9709(5) 0.2490(5) 0.2074(3)
C10 C 1.0116(6) 0.1393(5) 0.1011(4)
C11 C 0.9902(6) 0.1327(4) 0.0185(4)
C12 C 0.8146(6) 0.1193(4) -0.0680(3)
C13 C 0.7416(5) 0.2107(4) -0.0836(3)
C14 C 0.5073(6) 0.1539(4) -0.0479(3)
C15 C 0.4129(6) 0.1293(4) 0.0223(3)
C16 C 0.3858(5) 0.3442(4) 0.1507(3)
C17 C 0.6970(5) 0.2812(4) 0.3092(3)
C18 C 0.5677(5) 0.2249(4) 0.3037(3)
C19 C 0.5611(5) 0.3221(4) -0.0398(3)
Br1 Br 0.29185(7) 0.05522(5) 0.24080(4)
loop_
_geom_bond_atom_site_label_1
_geom_bond_atom_site_label_2
_geom_bond_site_symmetry_1
_geom_bond_site_symmetry_2
Na1 O1 1_555 1_555
Cl1 C1 1_555 1_555
O1 C11 1_555 1_555
O2 Na1 1_555 1_555
O3 Na1 1_555 1_555
O4 Na1 1_555 1_555
O5 Na1 1_555 1_555
N1 C7 1_555 1_555
N2 C13 1_555 1_555
C1 C2 1_555 1_555
C2 C3 1_555 1_555
C3 C4 1_555 1_555
C4 O4 1_555 1_555
C5 C4 1_555 1_555
C6 C1 1_555 1_555
C7 C3 1_555 1_555
C8 N1 1_555 1_555
C9 O3 1_555 1_555
C10 O3 1_555 1_555
C11 C10 1_555 1_555
C12 O1 1_555 1_555
C13 C12 1_555 1_555
C14 N2 1_555 1_555
C15 O5 1_555 1_555
C16 O4 1_555 1_555
C17 N1 1_555 1_555
C18 O2 1_555 1_555
C19 N2 1_555 1_555
C5 C6 1_555 1_555
C5 C19 1_555 1_555
C8 C9 1_555 1_555
C14 C15 1_555 1_555
C17 C18 1_555 1_555

#END
