
#######################################################################
#
#                 Cambridge Crystallographic Data Centre
#                                CCDC 
#
#######################################################################
#
# If this CIF has been generated from an entry in the Cambridge 
# Structural Database, then it will include bibliographic, chemical, 
# crystal, experimental, refinement or atomic coordinate data resulting 
# from the CCDC's data processing and validation procedures.
#
#######################################################################

data_NUVCAI
_chemical_formula_moiety         'C16 H18 N4 O5 S1'
_chemical_name_systematic        
N-((4,6-Dimethyl)pyrimidinyl)-N'-(2-ethylcarboxylatebenzenesulfonyl)urea
_symmetry_cell_setting           triclinic
_symmetry_space_group_name_H-M   'P -1'
_symmetry_Int_Tables_number      2
_space_group_name_Hall           '-P 1'
loop_
_symmetry_equiv_pos_site_id
_symmetry_equiv_pos_as_xyz
1 x,y,z
2 -x,-y,-z
_cell_length_a                   9.134(2)
_cell_length_b                   9.567(4)
_cell_length_c                   12.647(3)
_cell_angle_alpha                73.88(3)
_cell_angle_beta                 70.93(2)
_cell_angle_gamma                64.05(4)
_cell_volume                     927.327
_cell_formula_units_Z            2
loop_
_atom_site_label
_atom_site_type_symbol
_atom_site_fract_x
_atom_site_fract_y
_atom_site_fract_z
S1 S 0.8547(2) 0.1231(2) 0.2677(1)
O1 O 0.7178(5) 0.0748(4) 0.3266(4)
O2 O 1.0008(6) 0.0181(5) 0.2052(4)
O3 O 1.0125(4) 0.3334(5) 0.0960(4)
O4 O 0.5288(5) 0.3809(5) 0.4100(4)
O5 O 0.5528(5) 0.2191(5) 0.574(4)
N1 N 0.7702(5) 0.5153(5) 0.0561(4)
N2 N 0.7736(5) 0.2851(5) 0.1830(4)
N3 N 0.5018(5) 0.5081(5) 0.1378(4)
N4 N 0.5465(5) 0.7291(5) 0.0104(4)
C1 C 0.8614(6) 0.3747(6) 0.1110(5)
C2 C 0.5968(6) 0.5865(6) 0.0697(7)
C3 C 0.3351(7) 0.5824(6) 0.1484(5)
C4 C 0.2722(7) 0.7298(7) 0.0897(6)
C5 C 0.3807(7) 0.8032(6) 0.0208(5)
C6 C 0.2314(7) 0.4935(8) 0.2243(6)
C7 C 0.3219(9) 0.9634(8) -0.0443(7)
C8 C 0.9131(6) 0.1798(6) 0.3641(5)
C9 C 0.7939(6) 0.2477(6) 0.4571(5)
C10 C 0.8485(7) 0.2788(7) 0.5331(6)
C11 C 1.0136(8) 0.2488(8) 0.5202(6)
C12 C 1.1286(7) 0.1813(8) 0.4299(6)
C13 C 1.0806(7) 0.1466(7) 0.3499(6)
C14 C 0.6099(7) 0.2906(6) 0.4750(5)
C15 C 0.3748(8) 0.2529(9) 0.6086(7)
C16 C 0.303(1) 0.311(1) 0.7134(8)
loop_
_geom_bond_atom_site_label_1
_geom_bond_atom_site_label_2
_geom_bond_site_symmetry_1
_geom_bond_site_symmetry_2
S1 O1 1_555 1_555
O2 S1 1_555 1_555
O3 C1 1_555 1_555
O4 C14 1_555 1_555
O5 C14 1_555 1_555
N1 C1 1_555 1_555
N2 S1 1_555 1_555
N3 C2 1_555 1_555
N4 C2 1_555 1_555
C1 N2 1_555 1_555
C2 N1 1_555 1_555
C3 N3 1_555 1_555
C4 C3 1_555 1_555
C5 N4 1_555 1_555
C6 C3 1_555 1_555
C7 C5 1_555 1_555
C8 S1 1_555 1_555
C9 C8 1_555 1_555
C10 C9 1_555 1_555
C11 C10 1_555 1_555
C12 C11 1_555 1_555
C13 C8 1_555 1_555
C14 C9 1_555 1_555
C15 O5 1_555 1_555
C16 C15 1_555 1_555
C4 C5 1_555 1_555
C12 C13 1_555 1_555

#END
