
#######################################################################
#
#                 Cambridge Crystallographic Data Centre
#                                CCDC 
#
#######################################################################
#
# If this CIF has been generated from an entry in the Cambridge 
# Structural Database, then it will include bibliographic, chemical, 
# crystal, experimental, refinement or atomic coordinate data resulting 
# from the CCDC's data processing and validation procedures.
#
#######################################################################

data_NUVDAL
_chemical_formula_moiety         'C25 H18 O2'
_chemical_name_systematic        
14-Phenyl-7,8-dihydro-6H-benzo[b]naphtho[2,3-d]oxocin-6-one
_symmetry_cell_setting           triclinic
_symmetry_space_group_name_H-M   'P -1'
_symmetry_Int_Tables_number      2
_space_group_name_Hall           '-P 1'
loop_
_symmetry_equiv_pos_site_id
_symmetry_equiv_pos_as_xyz
1 x,y,z
2 -x,-y,-z
_cell_length_a                   9.284(8)
_cell_length_b                   9.320(8)
_cell_length_c                   11.404(9)
_cell_angle_alpha                77.278(10)
_cell_angle_beta                 70.928(9)
_cell_angle_gamma                88.102(9)
_cell_volume                     908.886
_exptl_crystal_colour            colorless
_exptl_crystal_description       prism
_cell_formula_units_Z            2
loop_
_atom_site_label
_atom_site_type_symbol
_atom_site_fract_x
_atom_site_fract_y
_atom_site_fract_z
O1 O 0.9287(2) 0.8539(2) 0.44335(15)
O2 O 0.77170(16) 0.90676(15) 0.61737(13)
C1 C 0.8951(2) 0.8358(3) 0.5559(2)
C2 C 0.9811(2) 0.7435(3) 0.6331(2)
H1 H 1.0002 0.8004 0.6886
H2 H 1.0794 0.7251 0.5756
C3 C 0.9052(2) 0.5943(3) 0.7156(2)
H3 H 0.9734 0.5177 0.6896
H4 H 0.8958 0.5926 0.8031
C4 C 0.74937(19) 0.5550(2) 0.71224(17)
C5 C 0.7295(2) 0.4395(2) 0.66217(19)
H5 H 0.8136 0.3860 0.6290
C6 C 0.5857(2) 0.39833(19) 0.65901(17)
C7 C 0.5645(3) 0.2798(2) 0.6046(2)
H6 H 0.6471 0.2244 0.5721
C8 C 0.4250(3) 0.2467(2) 0.5995(2)
H7 H 0.4135 0.1700 0.5627
C9 C 0.2987(3) 0.3282(2) 0.6498(2)
H8 H 0.2039 0.3047 0.6462
C10 C 0.3133(2) 0.4401(2) 0.70315(19)
H9 H 0.2280 0.4925 0.7355
C11 C 0.45672(19) 0.48036(18) 0.71136(16)
C12 C 0.47614(18) 0.59881(17) 0.76608(16)
C13 C 0.61965(18) 0.63567(18) 0.76683(16)
C14 C 0.64331(18) 0.75616(18) 0.82658(17)
C15 C 0.7248(2) 0.8860(2) 0.75179(17)
C16 C 0.7537(2) 0.9982(2) 0.8033(2)
H10 H 0.8068 1.0841 0.7508
C17 C 0.7029(2) 0.9813(2) 0.9337(2)
H11 H 0.7215 1.0562 0.9695
C18 C 0.6238(2) 0.8528(2) 1.0115(2)
H12 H 0.5916 0.8407 1.0994
C19 C 0.5932(2) 0.7434(2) 0.95859(17)
H13 H 0.5379 0.6588 1.0117
C20 C 0.34001(19) 0.68374(18) 0.82154(17)
C21 C 0.3222(2) 0.8263(2) 0.7599(2)
H14 H 0.3982 0.8718 0.6857
C22 C 0.1925(3) 0.9011(2) 0.8079(2)
H15 H 0.1819 0.9964 0.7660
C23 C 0.0788(2) 0.8345(2) 0.9178(2)
H16 H -0.0085 0.8846 0.9499
C24 C 0.0950(2) 0.6948(3) 0.9792(2)
H17 H 0.0187 0.6498 1.0533
C25 C 0.2247(2) 0.6198(2) 0.9314(2)
H18 H 0.2343 0.5246 0.9742
loop_
_geom_bond_atom_site_label_1
_geom_bond_atom_site_label_2
_geom_bond_site_symmetry_1
_geom_bond_site_symmetry_2
O1 C1 1_555 1_555
O2 C1 1_555 1_555
C1 C2 1_555 1_555
C2 H1 1_555 1_555
H2 C2 1_555 1_555
C3 C2 1_555 1_555
H3 C3 1_555 1_555
H4 C3 1_555 1_555
C4 C3 1_555 1_555
C5 C4 1_555 1_555
H5 C5 1_555 1_555
C6 C5 1_555 1_555
C7 C6 1_555 1_555
H6 C7 1_555 1_555
C8 C7 1_555 1_555
H7 C8 1_555 1_555
C9 C8 1_555 1_555
H8 C9 1_555 1_555
C10 C9 1_555 1_555
H9 C10 1_555 1_555
C11 C6 1_555 1_555
C12 C11 1_555 1_555
C13 C4 1_555 1_555
C14 C13 1_555 1_555
C15 O2 1_555 1_555
C16 C15 1_555 1_555
H10 C16 1_555 1_555
C17 C16 1_555 1_555
H11 C17 1_555 1_555
C18 C17 1_555 1_555
H12 C18 1_555 1_555
C19 C14 1_555 1_555
H13 C19 1_555 1_555
C20 C12 1_555 1_555
C21 C20 1_555 1_555
H14 C21 1_555 1_555
C22 C21 1_555 1_555
H15 C22 1_555 1_555
C23 C22 1_555 1_555
H16 C23 1_555 1_555
C24 C23 1_555 1_555
H17 C24 1_555 1_555
C25 C20 1_555 1_555
H18 C25 1_555 1_555
C10 C11 1_555 1_555
C12 C13 1_555 1_555
C14 C15 1_555 1_555
C18 C19 1_555 1_555
C24 C25 1_555 1_555

#END
