
#######################################################################
#
#                 Cambridge Crystallographic Data Centre
#                                CCDC 
#
#######################################################################
#
# If this CIF has been generated from an entry in the Cambridge 
# Structural Database, then it will include bibliographic, chemical, 
# crystal, experimental, refinement or atomic coordinate data resulting 
# from the CCDC's data processing and validation procedures.
#
#######################################################################

data_NUVHAO
_chemical_formula_moiety         'C20 H20 N4 Si1,1.52(H2 O1)'
_chemical_name_systematic        
'dimethylbis(4-(imidazol-1-yl)phenyl)silane hydrate'
_symmetry_cell_setting           orthorhombic
_symmetry_space_group_name_H-M   'P n m a'
_symmetry_Int_Tables_number      62
_space_group_name_Hall           '-P 2ac 2n'
loop_
_symmetry_equiv_pos_site_id
_symmetry_equiv_pos_as_xyz
1 x,y,z
2 1/2-x,-y,1/2+z
3 1/2+x,1/2-y,1/2-z
4 -x,1/2+y,-z
5 -x,-y,-z
6 1/2+x,y,1/2-z
7 1/2-x,1/2+y,1/2+z
8 x,1/2-y,z
_cell_length_a                   5.772(2)
_cell_length_b                   19.128(7)
_cell_length_c                   17.295(6)
_cell_angle_alpha                90
_cell_angle_beta                 90
_cell_angle_gamma                90
_cell_volume                     1909.49
_exptl_crystal_colour            colorless
_exptl_crystal_description       block
_cell_formula_units_Z            4
loop_
_atom_site_label
_atom_site_type_symbol
_atom_site_fract_x
_atom_site_fract_y
_atom_site_fract_z
Si1 Si 0.0733(2) 0.7500 0.42035(7)
N1 N 0.7037(5) 0.49770(13) 0.37601(15)
N2 N 1.0169(7) 0.4325(2) 0.3818(2)
C1 C 0.2590(5) 0.67064(16) 0.40730(17)
C2 C 0.4003(6) 0.64591(17) 0.46662(19)
H1 H 0.3970 0.6684 0.5143
C3 C 0.5451(6) 0.58909(17) 0.45703(19)
H2 H 0.6372 0.5737 0.4978
C4 C 0.5522(5) 0.55547(17) 0.38699(18)
C5 C 0.4151(6) 0.57785(16) 0.32695(18)
H3 H 0.4192 0.5549 0.2796
C6 C 0.2710(6) 0.63481(16) 0.33753(18)
H4 H 0.1791 0.6497 0.2965
C7 C 0.6579(8) 0.4370(2) 0.3372(2)
C8 C 0.8433(9) 0.3974(2) 0.3406(2)
H5 H 0.8574 0.3531 0.3190
C9 C 0.9254(7) 0.4924(2) 0.4016(2)
C10 C -0.0465(9) 0.7500 0.5204(3)
H6 H -0.1419 0.7906 0.5276
H7 H 0.0785 0.7507 0.5570
C11 C -0.1555(8) 0.7500 0.3465(3)
H8 H -0.0863 0.7500 0.2960
H10 H 0.9956 0.5316 0.4304
H11 H 0.5077 0.4277 0.3058
N1G N 0.7037(5) 1.00230(13) 0.37601(15)
N2G N 1.0169(7) 1.0675(2) 0.3818(2)
C1G C 0.2590(5) 0.82936(16) 0.40730(17)
C2G C 0.4003(6) 0.85409(17) 0.46662(19)
H1G H 0.3970 0.8316 0.5143
C3G C 0.5451(6) 0.91091(17) 0.45703(19)
H2G H 0.6372 0.9263 0.4978
C4G C 0.5522(5) 0.94453(17) 0.38699(18)
C5G C 0.4151(6) 0.92215(16) 0.32695(18)
H3G H 0.4192 0.9451 0.2796
C6G C 0.2710(6) 0.86519(16) 0.33753(18)
H4G H 0.1791 0.8503 0.2965
C7G C 0.6579(8) 1.0630(2) 0.3372(2)
C8G C 0.8433(9) 1.1026(2) 0.3406(2)
H5G H 0.8574 1.1469 0.3190
C9G C 0.9254(7) 1.0076(2) 0.4016(2)
H6G H -0.1419 0.7094 0.5276
H10G H 0.9956 0.9684 0.4304
H11G H 0.5077 1.0723 0.3058
O1 O 0.899(5) 0.2500 0.2152(15)
H9? H -0.2499 0.7910 0.3524
H12? H -0.1379 0.7087 0.5281
loop_
_geom_bond_atom_site_label_1
_geom_bond_atom_site_label_2
_geom_bond_site_symmetry_1
_geom_bond_site_symmetry_2
Si1 C1 1_555 1_555
N1 C4 1_555 1_555
N2 C8 1_555 1_555
C1 C2 1_555 1_555
C2 H1 1_555 1_555
C3 C2 1_555 1_555
H2 C3 1_555 1_555
C4 C3 1_555 1_555
C5 C4 1_555 1_555
H3 C5 1_555 1_555
C6 C1 1_555 1_555
H4 C6 1_555 1_555
C7 N1 1_555 1_555
C8 C7 1_555 1_555
H5 C8 1_555 1_555
C9 N1 1_555 1_555
C10 Si1 1_555 1_555
H6 C10 1_555 1_555
H7 C10 1_555 1_555
C11 Si1 1_555 1_555
H8 C11 1_555 1_555
H10 C9 1_555 1_555
H11 C7 1_555 1_555
N1G C4G 1_555 1_555
N2G C8G 1_555 1_555
C1G Si1 1_555 1_555
C2G C1G 1_555 1_555
H1G C2G 1_555 1_555
C3G C2G 1_555 1_555
H2G C3G 1_555 1_555
C4G C3G 1_555 1_555
C5G C4G 1_555 1_555
H3G C5G 1_555 1_555
C6G C1G 1_555 1_555
H4G C6G 1_555 1_555
C7G N1G 1_555 1_555
C8G C7G 1_555 1_555
H5G C8G 1_555 1_555
C9G N1G 1_555 1_555
H6G C10 1_555 1_555
H10G C9G 1_555 1_555
H11G C7G 1_555 1_555
N2 C9 1_555 1_555
C5 C6 1_555 1_555
N2G C9G 1_555 1_555
C5G C6G 1_555 1_555

#END
