
#######################################################################
#
#                 Cambridge Crystallographic Data Centre
#                                CCDC 
#
#######################################################################
#
# If this CIF has been generated from an entry in the Cambridge 
# Structural Database, then it will include bibliographic, chemical, 
# crystal, experimental, refinement or atomic coordinate data resulting 
# from the CCDC's data processing and validation procedures.
#
#######################################################################

data_NUVPEB
_chemical_formula_moiety         'C16 H25 N4 O2 1+,2(H2 O1),Cl1 1-'
_chemical_name_systematic        
'4-((2-amino-3-carbamoylphenyl)carbamoyl)-1-propylpiperidinium chloride dihydrate'
_symmetry_cell_setting           tetragonal
_symmetry_space_group_name_H-M   'I 41/a'
_symmetry_Int_Tables_number      88
_space_group_name_Hall           '-I 4ad'
loop_
_symmetry_equiv_pos_site_id
_symmetry_equiv_pos_as_xyz
1 x,y,z
2 1/2-x,-y,1/2+z
3 3/4-y,1/4+x,1/4+z
4 3/4+y,3/4-x,3/4+z
5 1/2+x,1/2+y,1/2+z
6 -x,1/2-y,z
7 1/4-y,3/4+x,3/4+z
8 1/4+y,1/4-x,1/4+z
9 -x,-y,-z
10 1/2+x,y,1/2-z
11 1/4+y,3/4-x,3/4-z
12 1/4-y,1/4+x,1/4-z
13 1/2-x,1/2-y,1/2-z
14 x,1/2+y,-z
15 3/4+y,1/4-x,1/4-z
16 3/4-y,3/4+x,3/4-z
_cell_length_a                   30.683(5)
_cell_length_b                   30.683(5)
_cell_length_c                   8.352(2)
_cell_angle_alpha                90
_cell_angle_beta                 90
_cell_angle_gamma                90
_cell_volume                     7862.96
_exptl_crystal_colour            colorless
_exptl_crystal_description       rod
_cell_formula_units_Z            16
loop_
_atom_site_label
_atom_site_type_symbol
_atom_site_fract_x
_atom_site_fract_y
_atom_site_fract_z
Cl1 Cl 0.876386(14) 0.938991(14) 0.04198(5)
O1 O 0.88642(6) 0.81090(5) 0.7386(2)
O2 O 0.79255(4) 0.69824(5) 0.16317(15)
N1 N 0.81533(4) 0.86756(4) 1.18803(15)
H1 H 0.8362 0.8868 1.1564
N2 N 0.84301(5) 0.75212(5) 0.71834(16)
H2 H 0.8208 0.7388 0.7575
N3 N 0.79454(5) 0.73264(5) 0.45322(16)
H3 H 0.7781 0.7264 0.3731
H4 H 0.7836 0.7449 0.5368
N4 N 0.85262(5) 0.67021(5) 0.05131(17)
H5 H 0.8382 0.6629 -0.0328
H6 H 0.8800 0.6646 0.0573
C1 C 0.80117(8) 0.92809(7) 1.5861(2)
H7 H 0.7892 0.9535 1.5354
H8 H 0.8214 0.9368 1.6679
H9 H 0.7781 0.9114 1.6333
C2 C 0.82477(6) 0.90045(7) 1.4618(2)
H10 H 0.8484 0.9171 1.4149
H11 H 0.8371 0.8748 1.5126
C3 C 0.79290(6) 0.88669(6) 1.33143(19)
H12 H 0.7728 0.8653 1.3750
H13 H 0.7760 0.9118 1.2981
C4 C 0.78398(6) 0.86235(6) 1.0518(2)
H14 H 0.7703 0.8901 1.0288
H15 H 0.7613 0.8418 1.0814
C5 C 0.80750(6) 0.84608(6) 0.9038(2)
H16 H 0.8288 0.8676 0.8703
H17 H 0.7867 0.8423 0.8175
C6 C 0.83045(6) 0.80291(6) 0.9359(2)
H18 H 0.8087 0.7806 0.9610
C7 C 0.86109(6) 0.80837(6) 1.0776(2)
H19 H 0.8744 0.7805 1.1025
H20 H 0.8842 0.8285 1.0488
C8 C 0.83767(6) 0.82534(6) 1.2245(2)
H21 H 0.8163 0.8041 1.2597
H22 H 0.8585 0.8296 1.3105
C9 C 0.85604(7) 0.78916(6) 0.7889(2)
C10 C 0.86393(5) 0.73369(5) 0.58218(19)
C11 C 0.90813(6) 0.72620(6) 0.5821(2)
H23 H 0.9246 0.7335 0.6715
C12 C 0.92832(6) 0.70779(6) 0.4497(2)
H24 H 0.9583 0.7034 0.4488
C13 C 0.90329(6) 0.69602(6) 0.3194(2)
H25 H 0.9168 0.6830 0.2319
C14 C 0.85824(5) 0.70307(5) 0.31498(18)
C15 C 0.83762(5) 0.72320(5) 0.44779(19)
C16 C 0.83243(6) 0.69022(5) 0.17269(19)
O3 O 0.95770(4) 0.98493(4) 0.89385(16)
H26 H 0.9293(17) 0.9738(17) 0.982(6)
H27 H 0.9487(8) 0.9781(8) 0.796(3)
O4 O 0.78125(6) 0.97553(5) 0.10377(19)
H28 H 0.8078(11) 0.9698(10) 0.074(3)
H29 H 0.7657(9) 0.9756(8) 0.018(3)
loop_
_geom_bond_atom_site_label_1
_geom_bond_atom_site_label_2
_geom_bond_site_symmetry_1
_geom_bond_site_symmetry_2
O1 C9 1_555 1_555
O2 C16 1_555 1_555
N1 H1 1_555 1_555
N2 H2 1_555 1_555
N3 H3 1_555 1_555
H4 N3 1_555 1_555
N4 H5 1_555 1_555
H6 N4 1_555 1_555
C1 H7 1_555 1_555
H8 C1 1_555 1_555
H9 C1 1_555 1_555
C2 C1 1_555 1_555
H10 C2 1_555 1_555
H11 C2 1_555 1_555
C3 N1 1_555 1_555
H12 C3 1_555 1_555
H13 C3 1_555 1_555
C4 N1 1_555 1_555
H14 C4 1_555 1_555
H15 C4 1_555 1_555
C5 C4 1_555 1_555
H16 C5 1_555 1_555
H17 C5 1_555 1_555
C6 C5 1_555 1_555
H18 C6 1_555 1_555
C7 C6 1_555 1_555
H19 C7 1_555 1_555
H20 C7 1_555 1_555
C8 N1 1_555 1_555
H21 C8 1_555 1_555
H22 C8 1_555 1_555
C9 N2 1_555 1_555
C10 N2 1_555 1_555
C11 C10 1_555 1_555
H23 C11 1_555 1_555
C12 C11 1_555 1_555
H24 C12 1_555 1_555
C13 C12 1_555 1_555
H25 C13 1_555 1_555
C14 C13 1_555 1_555
C15 N3 1_555 1_555
C16 N4 1_555 1_555
O3 H26 1_555 1_555
H27 O3 1_555 1_555
O4 H28 1_555 1_555
H29 O4 1_555 1_555
C2 C3 1_555 1_555
C6 C9 1_555 1_555
C7 C8 1_555 1_555
C10 C15 1_555 1_555
C14 C15 1_555 1_555
C14 C16 1_555 1_555

#END
