
#######################################################################
#
#                 Cambridge Crystallographic Data Centre
#                                CCDC 
#
#######################################################################
#
# If this CIF has been generated from an entry in the Cambridge 
# Structural Database, then it will include bibliographic, chemical, 
# crystal, experimental, refinement or atomic coordinate data resulting 
# from the CCDC's data processing and validation procedures.
#
#######################################################################

data_NUVSON
_chemical_formula_moiety         'C19 H12'
_chemical_name_systematic        4-(Prop-1-yn-1-yl)pyrene
_symmetry_cell_setting           orthorhombic
_symmetry_space_group_name_H-M   'P b c a'
_symmetry_Int_Tables_number      61
_space_group_name_Hall           '-P 2ac 2ab'
loop_
_symmetry_equiv_pos_site_id
_symmetry_equiv_pos_as_xyz
1 x,y,z
2 1/2-x,-y,1/2+z
3 1/2+x,1/2-y,-z
4 -x,1/2+y,1/2-z
5 -x,-y,-z
6 1/2+x,y,1/2-z
7 1/2-x,1/2+y,z
8 x,1/2-y,1/2+z
_cell_length_a                   9.90(5)
_cell_length_b                   13.17(5)
_cell_length_c                   19.40(5)
_cell_angle_alpha                90
_cell_angle_beta                 90
_cell_angle_gamma                90
_cell_volume                     2529.43
_exptl_crystal_colour            colorless
_exptl_crystal_description       cube
_cell_formula_units_Z            8
loop_
_atom_site_label
_atom_site_type_symbol
_atom_site_fract_x
_atom_site_fract_y
_atom_site_fract_z
C1 C 0.4382(4) 0.1878(3) 0.1833(2)
C2 C 0.3387(4) 0.2101(3) 0.1358(2)
C3 C 0.3018(3) 0.1389(3) 0.0874(2)
C4 C 0.3277(3) -0.0290(3) 0.03309(17)
C5 C 0.3936(3) -0.1201(3) 0.03179(18)
C6 C 0.5653(4) -0.2384(3) 0.0784(2)
C7 C 0.6655(4) -0.2601(3) 0.1245(2)
C8 C 0.6987(4) -0.1902(4) 0.1742(2)
C9 C 0.6685(4) -0.0224(4) 0.2296(2)
C10 C 0.6076(4) 0.0678(4) 0.23201(19)
C11 C 0.3625(3) 0.0453(3) 0.08466(17)
C12 C 0.4965(3) -0.1455(3) 0.08018(18)
C13 C 0.6348(4) -0.0979(3) 0.17947(18)
C14 C 0.5029(4) 0.0948(3) 0.18316(18)
C15 C 0.4654(3) 0.0213(3) 0.13347(16)
C16 C 0.5306(3) -0.0742(3) 0.13084(17)
C17 C 0.2246(3) -0.0062(3) -0.01602(17)
C18 C 0.1390(3) 0.0142(3) -0.05665(17)
C19 C 0.0355(4) 0.0358(4) -0.1078(2)
H1 H 0.464330 0.237955 0.216621
H2 H 0.294297 0.274815 0.136677
H3 H 0.232522 0.153651 0.054337
H4 H 0.370301 -0.168796 -0.003066
H5 H 0.538086 -0.287319 0.044461
H6 H 0.713067 -0.323367 0.120580
H7 H 0.768194 -0.206023 0.206959
H8 H 0.737032 -0.039180 0.262696
H9 H 0.633010 0.116361 0.266560
H10 H -0.023343 0.087968 -0.090751
H11 H -0.015918 -0.024643 -0.116588
H12 H 0.077294 0.058207 -0.149756
loop_
_geom_bond_atom_site_label_1
_geom_bond_atom_site_label_2
_geom_bond_site_symmetry_1
_geom_bond_site_symmetry_2
C1 C2 1_555 1_555
C2 C3 1_555 1_555
C3 C11 1_555 1_555
C4 C5 1_555 1_555
C5 C12 1_555 1_555
C6 C7 1_555 1_555
C7 C8 1_555 1_555
C8 C13 1_555 1_555
C9 C10 1_555 1_555
C10 C14 1_555 1_555
C11 C4 1_555 1_555
C12 C6 1_555 1_555
C13 C9 1_555 1_555
C14 C1 1_555 1_555
C15 C11 1_555 1_555
C16 C12 1_555 1_555
C17 C4 1_555 1_555
C18 C17 1_555 1_555
C19 C18 1_555 1_555
H1 C1 1_555 1_555
H2 C2 1_555 1_555
H3 C3 1_555 1_555
H4 C5 1_555 1_555
H5 C6 1_555 1_555
H6 C7 1_555 1_555
H7 C8 1_555 1_555
H8 C9 1_555 1_555
H9 C10 1_555 1_555
H10 C19 1_555 1_555
H11 C19 1_555 1_555
H12 C19 1_555 1_555
C13 C16 1_555 1_555
C14 C15 1_555 1_555
C15 C16 1_555 1_555

#END
