
#######################################################################
#
#                 Cambridge Crystallographic Data Centre
#                                CCDC 
#
#######################################################################
#
# If this CIF has been generated from an entry in the Cambridge 
# Structural Database, then it will include bibliographic, chemical, 
# crystal, experimental, refinement or atomic coordinate data resulting 
# from the CCDC's data processing and validation procedures.
#
#######################################################################

data_NUWBEO
_chemical_formula_moiety         'C14 H11 N1 O1'
_chemical_name_systematic        2-(4-methylphenyl)-1,3-benzoxazole
_symmetry_cell_setting           monoclinic
_symmetry_space_group_name_H-M   'P 21/c'
_symmetry_Int_Tables_number      14
_space_group_name_Hall           '-P 2ybc'
loop_
_symmetry_equiv_pos_site_id
_symmetry_equiv_pos_as_xyz
1 x,y,z
2 -x,1/2+y,1/2-z
3 -x,-y,-z
4 x,1/2-y,1/2+z
_cell_length_a                   17.7321(19)
_cell_length_b                   4.9836(5)
_cell_length_c                   12.4973(13)
_cell_angle_alpha                90
_cell_angle_beta                 100.166(8)
_cell_angle_gamma                90
_cell_volume                     1087.04
_exptl_crystal_colour            colorless
_exptl_crystal_description       needle
_cell_formula_units_Z            4
loop_
_atom_site_label
_atom_site_type_symbol
_atom_site_fract_x
_atom_site_fract_y
_atom_site_fract_z
C1 C 0.1445(2) -0.1753(8) 0.9223(3)
C2 C 0.1797(2) -0.1777(8) 0.8330(3)
C3 C 0.23650(19) 0.1110(7) 0.9487(3)
O1 O 0.2378(15) -0.011(4) 0.8510(12)
N1 N 0.1815(14) 0.043(5) 0.999(2)
C4 C 0.4554(2) 0.9014(7) 1.1439(3)
H1 H 0.5057 0.8564 1.1287
H2 H 0.4572 0.9052 1.2219
H3 H 0.4402 1.0764 1.1135
C5 C 0.39863(18) 0.6952(7) 1.0938(3)
C6 C 0.3971(2) 0.6066(8) 0.9879(3)
H4 H 0.4325 0.6775 0.9476
C7 C 0.34454(19) 0.4159(8) 0.9401(3)
H5 H 0.3455 0.3567 0.8689
C8 C 0.29094(17) 0.3131(7) 0.9971(3)
C9 C 0.29154(19) 0.4018(7) 1.1027(3)
H6 H 0.2556 0.3331 1.1426
C10 C 0.34447(19) 0.5901(7) 1.1495(3)
H7 H 0.3437 0.6482 1.2209
C11 C 0.0845(2) -0.3419(9) 0.9303(3)
H8 H 0.0601 -0.3408 0.9913
C12 C 0.0617(2) -0.5122(9) 0.8433(4)
H9 H 0.0206 -0.6301 0.8450
C13 C 0.0977(2) -0.5144(9) 0.7537(3)
H10 H 0.0807 -0.6345 0.6965
C14 C 0.1581(2) -0.3441(9) 0.7462(3)
H11 H 0.1827 -0.3429 0.6855
O2? O 0.1809(16) -0.018(6) 0.993(3)
N2? N 0.241(3) 0.046(8) 0.850(2)
loop_
_geom_bond_atom_site_label_1
_geom_bond_atom_site_label_2
_geom_bond_site_symmetry_1
_geom_bond_site_symmetry_2
C1 C2 1_555 1_555
C2 O1 1_555 1_555
C3 O1 1_555 1_555
N1 C1 1_555 1_555
C4 H1 1_555 1_555
H2 C4 1_555 1_555
H3 C4 1_555 1_555
C5 C4 1_555 1_555
C6 C5 1_555 1_555
H4 C6 1_555 1_555
C7 C6 1_555 1_555
H5 C7 1_555 1_555
C8 C3 1_555 1_555
C9 C8 1_555 1_555
H6 C9 1_555 1_555
C10 C5 1_555 1_555
H7 C10 1_555 1_555
C11 C1 1_555 1_555
H8 C11 1_555 1_555
C12 C11 1_555 1_555
H9 C12 1_555 1_555
C13 C12 1_555 1_555
H10 C13 1_555 1_555
C14 C2 1_555 1_555
H11 C14 1_555 1_555
C3 N1 1_555 1_555
C7 C8 1_555 1_555
C9 C10 1_555 1_555
C13 C14 1_555 1_555

#END
