
#######################################################################
#
#                 Cambridge Crystallographic Data Centre
#                                CCDC 
#
#######################################################################
#
# If this CIF has been generated from an entry in the Cambridge 
# Structural Database, then it will include bibliographic, chemical, 
# crystal, experimental, refinement or atomic coordinate data resulting 
# from the CCDC's data processing and validation procedures.
#
#######################################################################

data_NUWCIT
_chemical_formula_moiety         'C23 H17 N1 O2'
_chemical_name_systematic        
1-benzyl-3-hydroxy-3-(phenylethynyl)-1,3-dihydro-2H-indol-2-one
_symmetry_cell_setting           triclinic
_symmetry_space_group_name_H-M   'P 1'
_symmetry_Int_Tables_number      1
_space_group_name_Hall           'P 1'
loop_
_symmetry_equiv_pos_site_id
_symmetry_equiv_pos_as_xyz
1 x,y,z
_cell_length_a                   10.2556(3)
_cell_length_b                   10.7216(3)
_cell_length_c                   17.1126(4)
_cell_angle_alpha                99.655(2)
_cell_angle_beta                 91.197(2)
_cell_angle_gamma                106.495(3)
_cell_volume                     1773.97
_exptl_crystal_colour            'light colorless'
_cell_formula_units_Z            4
loop_
_atom_site_label
_atom_site_type_symbol
_atom_site_fract_x
_atom_site_fract_y
_atom_site_fract_z
O1 O 0.7681(2) 1.0144(2) 0.68143(14)
H1 H 0.6897 0.9770 0.6903
O2 O 0.8176(2) 0.9477(3) 0.83966(14)
N1 N 1.0327(3) 1.0173(3) 0.79810(16)
C1 C 1.1703(3) 1.2033(3) 0.90190(19)
C2 C 1.1233(4) 1.2972(4) 0.8726(2)
H2 H 1.0550 1.2705 0.8315
C3 C 1.1090(3) 1.0564(3) 0.87547(19)
H3 H 1.1817 1.0148 0.8738
H4 H 1.0487 1.0227 0.9149
C4 C 0.7184(3) 0.6921(3) 0.62823(19)
C5 C 0.8957(3) 0.9654(3) 0.78726(19)
C6 C 1.1778(4) 1.4302(4) 0.9042(2)
H5 H 1.1458 1.4923 0.8842
C7 C 1.2749(3) 1.2461(4) 0.9623(2)
H6 H 1.3091 1.1845 0.9814
C8 C 1.2292(4) 1.0717(4) 0.7120(2)
H7 H 1.2958 1.1014 0.7541
C9 C 0.7874(3) 0.7962(3) 0.66474(19)
C10 C 1.0265(4) 0.9823(4) 0.5848(2)
H8 H 0.9597 0.9527 0.5429
C11 C 0.9919(3) 0.9839(3) 0.66279(19)
C12 C 1.2633(4) 1.0694(4) 0.6332(2)
H9 H 1.3545 1.0975 0.6225
C13 C 0.6287(4) 0.5765(3) 0.5796(2)
C14 C 0.8542(3) 0.9369(3) 0.69622(19)
C15 C 1.0934(3) 1.0283(3) 0.72464(19)
C16 C 1.3284(4) 1.3790(4) 0.9944(2)
H10 H 1.3970 1.4063 1.0353
C17 C 0.6567(4) 0.5403(4) 0.5007(2)
H11 H 0.7377 0.5855 0.4818
C18 C 0.4441(4) 0.3683(4) 0.4782(2)
H12 H 0.3822 0.2991 0.4441
C19 C 0.5086(4) 0.5053(4) 0.6070(2)
H13 H 0.4904 0.5271 0.6597
C20 C 1.1638(4) 1.0261(4) 0.5709(2)
H14 H 1.1890 1.0262 0.5191
C21 C 1.2792(4) 1.4713(4) 0.9651(2)
H15 H 1.3144 1.5608 0.9866
C22 C 0.5640(4) 0.4377(4) 0.4513(2)
H16 H 0.5826 0.4148 0.3988
C23 C 0.4164(5) 0.4027(5) 0.5570(3)
H17 H 0.3357 0.3564 0.5758
O3 O 0.4633(2) 0.2122(2) 0.10437(14)
H18 H 0.3869 0.1701 0.1138
O4 O 0.5260(2) 0.2544(2) 0.27798(14)
N2 N 0.7421(3) 0.2803(3) 0.23603(16)
C24 C 0.4714(3) -0.0896(3) 0.15074(19)
C25 C 0.7995(3) 0.2628(3) 0.1616(2)
C26 C 0.5128(3) 0.0231(3) 0.14187(19)
C27 C 0.6958(3) 0.2011(3) 0.10171(19)
C28 C 0.6045(3) 0.2384(3) 0.22682(19)
C29 C 0.8205(3) 0.3381(3) 0.31155(19)
H19 H 0.8988 0.3046 0.3129
H20 H 0.7646 0.3085 0.3537
C30 C 0.9349(4) 0.3028(3) 0.1456(2)
H21 H 1.0035 0.3418 0.1861
C31 C 0.4107(4) -0.2218(3) 0.16510(19)
C32 C 0.8701(4) 0.4873(3) 0.32859(19)
C33 C 0.5615(3) 0.1659(3) 0.13942(19)
C34 C 0.9643(4) 0.2821(4) 0.0659(2)
H22 H 1.0543 0.3087 0.0528
C35 C 0.4887(4) -0.3061(4) 0.1750(2)
H23 H 0.5821 -0.2797 0.1696
C36 C 0.2697(4) -0.2644(4) 0.1711(2)
H24 H 0.2166 -0.2098 0.1628
C37 C 0.4261(4) -0.4296(4) 0.1931(2)
H25 H 0.4781 -0.4858 0.2001
C38 C 0.2872(4) -0.4701(4) 0.2010(2)
H26 H 0.2464 -0.5524 0.2140
C39 C 0.7254(4) 0.1790(4) 0.0232(2)
H27 H 0.6570 0.1364 -0.0169
C40 C 0.2091(4) -0.3879(4) 0.1893(3)
H28 H 0.1154 -0.4157 0.1937
C41 C 0.8612(4) 0.2226(4) 0.0059(2)
H29 H 0.8833 0.2117 -0.0467
C42 C 0.7913(5) 0.5622(4) 0.3057(2)
H30 H 0.7092 0.5203 0.2755
C43 C 0.9925(4) 0.5507(4) 0.3733(3)
H31 H 1.0468 0.5020 0.3894
C44 C 0.8325(7) 0.6972(5) 0.3267(3)
H32 H 0.7783 0.7459 0.3106
C45 C 0.9524(6) 0.7612(4) 0.3712(3)
H33 H 0.9792 0.8529 0.3860
C46 C 1.0332(5) 0.6884(5) 0.3939(3)
H34 H 1.1157 0.7315 0.4233
O5 O 0.4921(2) 0.8580(2) 0.68820(14)
O6 O 0.5531(2) 0.9475(2) 0.86228(14)
H35 H 0.6300 0.9458 0.8513
N3 N 0.2779(3) 0.7675(3) 0.72833(16)
C47 C 0.5461(3) 0.6130(3) 0.81839(19)
C48 C 0.5982(3) 0.5002(3) 0.81042(19)
C49 C 0.2204(3) 0.7624(3) 0.80245(19)
C50 C 0.5092(3) 0.7109(3) 0.82633(19)
C51 C 0.4159(3) 0.8224(3) 0.7385(2)
C52 C 0.3227(3) 0.8037(3) 0.8637(2)
C53 C 0.0835(4) 0.7269(3) 0.8175(2)
H36 H 0.0154 0.6987 0.7763
C54 C -0.0034(4) 0.5372(4) 0.5901(2)
H37 H -0.0335 0.5981 0.5676
C55 C 0.2000(4) 0.7249(4) 0.6516(2)
H38 H 0.2620 0.7395 0.6098
H39 H 0.1385 0.7782 0.6485
C56 C 0.4583(3) 0.8274(3) 0.82735(19)
C57 C 0.1535(4) 0.7789(4) 0.9581(2)
H40 H 0.1301 0.7855 1.0105
C58 C -0.0372(4) 0.3137(4) 0.6097(2)
H41 H -0.0887 0.2253 0.6002
C59 C 0.2904(4) 0.8135(4) 0.9423(2)
H42 H 0.3586 0.8426 0.9834
C60 C 0.1179(4) 0.5797(4) 0.63798(19)
C61 C 0.5208(4) 0.3794(4) 0.8267(2)
H43 H 0.4318 0.3687 0.8409
C62 C 0.7313(4) 0.5152(4) 0.7884(2)
H44 H 0.7833 0.5958 0.7774
C63 C 0.0518(4) 0.7349(4) 0.8971(2)
H45 H -0.0390 0.7103 0.9090
C64 C 0.1595(4) 0.4871(4) 0.6721(2)
H46 H 0.2395 0.5142 0.7050
C65 C 0.0838(4) 0.3556(4) 0.6579(2)
H47 H 0.1137 0.2948 0.6807
C66 C 0.7082(5) 0.2900(4) 0.7989(3)
H48 H 0.7443 0.2189 0.7943
C67 C 0.7860(4) 0.4102(5) 0.7830(3)
H49 H 0.8748 0.4204 0.7686
C68 C -0.0796(5) 0.4061(4) 0.5758(3)
H50 H -0.1600 0.3792 0.5433
C69 C 0.5765(5) 0.2752(4) 0.8216(3)
H51 H 0.5253 0.1949 0.8335
O7 O 0.2116(2) 0.0618(3) 0.13432(15)
O8 O 0.2518(2) 0.2534(2) 0.28571(14)
H52 H 0.3323 0.2598 0.2794
N4 N -0.0033(3) 0.0123(3) 0.17812(16)
C70 C -0.0621(3) 0.0344(3) 0.25140(19)
C71 C 0.3199(3) -0.0059(3) 0.35103(19)
C72 C 0.4027(3) -0.0568(4) 0.39931(19)
C73 C 0.2543(3) 0.0435(3) 0.31390(19)
C74 C -0.1520(3) -0.1822(3) 0.08443(19)
C75 C 0.1350(3) 0.0606(3) 0.18752(19)
C76 C 0.0386(3) 0.0994(3) 0.3115(2)
C77 C -0.2626(4) -0.2307(4) 0.0284(2)
H53 H -0.2928 -0.1721 0.0036
C78 C -0.1988(3) -0.0017(3) 0.2653(2)
H54 H -0.2658 -0.0436 0.2243
C79 C 0.0058(4) 0.1295(3) 0.3892(2)
H55 H 0.0732 0.1734 0.4296
C80 C 0.1768(3) 0.1179(3) 0.2773(2)
C81 C -0.0796(3) -0.0360(3) 0.1010(2)
H56 H -0.0174 -0.0157 0.0599
H57 H -0.1466 0.0115 0.0977
C82 C 0.4054(4) -0.1869(4) 0.3814(2)
H58 H 0.3538 -0.2434 0.3373
C83 C -0.2316(4) 0.0274(3) 0.3436(2)
H59 H -0.3225 0.0031 0.3553
C84 C -0.1102(4) -0.2719(4) 0.1219(2)
H60 H -0.0383 -0.2412 0.1609
C85 C 0.5594(4) -0.0201(4) 0.5128(2)
H61 H 0.6108 0.0360 0.5571
C86 C 0.4813(4) 0.0273(4) 0.4653(2)
H62 H 0.4810 0.1151 0.4773
C87 C -0.3282(4) -0.3638(4) 0.0091(2)
H63 H -0.4027 -0.3945 -0.0281
C88 C -0.1314(4) 0.0922(4) 0.4049(2)
H64 H -0.1562 0.1106 0.4566
C89 C 0.5625(4) -0.1486(5) 0.4958(2)
H65 H 0.6158 -0.1793 0.5282
C90 C -0.2836(4) -0.4528(4) 0.0448(2)
H66 H -0.3264 -0.5431 0.0307
C91 C -0.1748(4) -0.4057(4) 0.1015(3)
H67 H -0.1449 -0.4647 0.1261
C92 C 0.4856(4) -0.2328(4) 0.4298(3)
H68 H 0.4877 -0.3201 0.4179
loop_
_geom_bond_atom_site_label_1
_geom_bond_atom_site_label_2
_geom_bond_site_symmetry_1
_geom_bond_site_symmetry_2
O1 H1 1_555 1_555
O2 C5 1_555 1_555
N1 C3 1_555 1_555
C1 C2 1_555 1_555
C2 H2 1_555 1_555
C3 C1 1_555 1_555
H3 C3 1_555 1_555
H4 C3 1_555 1_555
C4 C9 1_555 1_555
C5 N1 1_555 1_555
C6 C2 1_555 1_555
H5 C6 1_555 1_555
C7 C1 1_555 1_555
H6 C7 1_555 1_555
C8 H7 1_555 1_555
C9 C14 1_555 1_555
C10 H8 1_555 1_555
C11 C10 1_555 1_555
C12 C8 1_555 1_555
H9 C12 1_555 1_555
C13 C4 1_555 1_555
C14 O1 1_555 1_555
C15 N1 1_555 1_555
C16 C7 1_555 1_555
H10 C16 1_555 1_555
C17 C13 1_555 1_555
H11 C17 1_555 1_555
C18 H12 1_555 1_555
C19 C13 1_555 1_555
H13 C19 1_555 1_555
C20 C10 1_555 1_555
H14 C20 1_555 1_555
C21 C6 1_555 1_555
H15 C21 1_555 1_555
C22 C17 1_555 1_555
H16 C22 1_555 1_555
C23 C18 1_555 1_555
H17 C23 1_555 1_555
O3 H18 1_555 1_555
O4 C28 1_555 1_555
N2 C25 1_555 1_555
C24 C26 1_555 1_555
C25 C27 1_555 1_555
C26 C33 1_555 1_555
C27 C33 1_555 1_555
C28 N2 1_555 1_555
C29 N2 1_555 1_555
H19 C29 1_555 1_555
H20 C29 1_555 1_555
C30 C25 1_555 1_555
H21 C30 1_555 1_555
C31 C24 1_555 1_555
C32 C29 1_555 1_555
C33 O3 1_555 1_555
C34 C30 1_555 1_555
H22 C34 1_555 1_555
C35 C31 1_555 1_555
H23 C35 1_555 1_555
C36 C31 1_555 1_555
H24 C36 1_555 1_555
C37 C35 1_555 1_555
H25 C37 1_555 1_555
C38 C37 1_555 1_555
H26 C38 1_555 1_555
C39 C27 1_555 1_555
H27 C39 1_555 1_555
C40 C36 1_555 1_555
H28 C40 1_555 1_555
C41 C34 1_555 1_555
H29 C41 1_555 1_555
C42 C32 1_555 1_555
H30 C42 1_555 1_555
C43 C32 1_555 1_555
H31 C43 1_555 1_555
C44 C42 1_555 1_555
H32 C44 1_555 1_555
C45 C44 1_555 1_555
H33 C45 1_555 1_555
C46 C43 1_555 1_555
H34 C46 1_555 1_555
O5 C51 1_555 1_555
O6 H35 1_555 1_555
N3 C49 1_555 1_555
C47 C48 1_555 1_555
C48 C61 1_555 1_555
C49 C52 1_555 1_555
C50 C47 1_555 1_555
C51 N3 1_555 1_555
C52 C56 1_555 1_555
C53 C49 1_555 1_555
H36 C53 1_555 1_555
C54 H37 1_555 1_555
C55 N3 1_555 1_555
H38 C55 1_555 1_555
H39 C55 1_555 1_555
C56 O6 1_555 1_555
C57 H40 1_555 1_555
C58 H41 1_555 1_555
C59 C52 1_555 1_555
H42 C59 1_555 1_555
C60 C54 1_555 1_555
C61 H43 1_555 1_555
C62 C48 1_555 1_555
H44 C62 1_555 1_555
C63 C53 1_555 1_555
H45 C63 1_555 1_555
C64 C60 1_555 1_555
H46 C64 1_555 1_555
C65 C58 1_555 1_555
H47 C65 1_555 1_555
C66 H48 1_555 1_555
C67 C62 1_555 1_555
H49 C67 1_555 1_555
C68 C54 1_555 1_555
H50 C68 1_555 1_555
C69 C61 1_555 1_555
H51 C69 1_555 1_555
O7 C75 1_555 1_555
O8 H52 1_555 1_555
N4 C70 1_555 1_555
C70 C76 1_555 1_555
C71 C72 1_555 1_555
C72 C82 1_555 1_555
C73 C71 1_555 1_555
C74 C77 1_555 1_555
C75 N4 1_555 1_555
C76 C79 1_555 1_555
C77 H53 1_555 1_555
C78 C70 1_555 1_555
H54 C78 1_555 1_555
C79 H55 1_555 1_555
C80 O8 1_555 1_555
C81 N4 1_555 1_555
H56 C81 1_555 1_555
H57 C81 1_555 1_555
C82 H58 1_555 1_555
C83 C78 1_555 1_555
H59 C83 1_555 1_555
C84 C74 1_555 1_555
H60 C84 1_555 1_555
C85 H61 1_555 1_555
C86 C72 1_555 1_555
H62 C86 1_555 1_555
C87 C77 1_555 1_555
H63 C87 1_555 1_555
C88 C79 1_555 1_555
H64 C88 1_555 1_555
C89 C85 1_555 1_555
H65 C89 1_555 1_555
C90 C87 1_555 1_555
H66 C90 1_555 1_555
C91 C84 1_555 1_555
H67 C91 1_555 1_555
C92 C82 1_555 1_555
H68 C92 1_555 1_555
C5 C14 1_555 1_555
C8 C15 1_555 1_555
C11 C14 1_555 1_555
C11 C15 1_555 1_555
C12 C20 1_555 1_555
C16 C21 1_555 1_555
C18 C22 1_555 1_555
C19 C23 1_555 1_555
C28 C33 1_555 1_555
C38 C40 1_555 1_555
C39 C41 1_555 1_555
C45 C46 1_555 1_555
C50 C56 1_555 1_555
C51 C56 1_555 1_555
C55 C60 1_555 1_555
C57 C59 1_555 1_555
C57 C63 1_555 1_555
C58 C68 1_555 1_555
C64 C65 1_555 1_555
C66 C67 1_555 1_555
C66 C69 1_555 1_555
C73 C80 1_555 1_555
C74 C81 1_555 1_555
C75 C80 1_555 1_555
C76 C80 1_555 1_555
C83 C88 1_555 1_555
C85 C86 1_555 1_555
C89 C92 1_555 1_555
C90 C91 1_555 1_555

#END
