
#######################################################################
#
#                 Cambridge Crystallographic Data Centre
#                                CCDC 
#
#######################################################################
#
# If this CIF has been generated from an entry in the Cambridge 
# Structural Database, then it will include bibliographic, chemical, 
# crystal, experimental, refinement or atomic coordinate data resulting 
# from the CCDC's data processing and validation procedures.
#
#######################################################################

data_NUWHAQ
_chemical_formula_moiety         'C19 H17 Cl1 N2 O2'
_chemical_name_systematic        
4-(4-chlorophenyl)-3,7,7-trimethyl-7,8-dihydro[1,2]oxazolo[5,4-b]quinolin-5(6H)-one
_symmetry_cell_setting           orthorhombic
_symmetry_space_group_name_H-M   'P n m a'
_symmetry_Int_Tables_number      62
_space_group_name_Hall           '-P 2ac 2n'
loop_
_symmetry_equiv_pos_site_id
_symmetry_equiv_pos_as_xyz
1 x,y,z
2 1/2-x,-y,1/2+z
3 1/2+x,1/2-y,1/2-z
4 -x,1/2+y,-z
5 -x,-y,-z
6 1/2+x,y,1/2-z
7 1/2-x,1/2+y,1/2+z
8 x,1/2-y,z
_cell_length_a                   11.7147(14)
_cell_length_b                   6.9466(9)
_cell_length_c                   20.785(2)
_cell_angle_alpha                90
_cell_angle_beta                 90
_cell_angle_gamma                90
_cell_volume                     1691.43
_cell_formula_units_Z            4
loop_
_atom_site_label
_atom_site_type_symbol
_atom_site_fract_x
_atom_site_fract_y
_atom_site_fract_z
Cl1 Cl 0.60576(12) 0.2500 0.63303(9)
N1 N -0.0424(3) 0.2500 0.41609(19)
N2 N -0.0738(3) 0.2500 0.5837(2)
O1 O -0.1186(2) 0.2500 0.51919(16)
O2 O 0.3636(2) 0.2500 0.38983(14)
C1 C -0.0283(3) 0.2500 0.4786(2)
C2 C 0.0370(3) 0.2500 0.5791(2)
C3 C 0.0725(3) 0.2500 0.51317(19)
C4 C 0.1747(3) 0.2500 0.47911(19)
C5 C 0.1653(3) 0.2500 0.4121(2)
C6 C 0.2684(4) 0.2500 0.3704(2)
C7 C 0.2478(5) 0.3463(10) 0.3021(3)
H1 H 0.2335 0.4830 0.3073
H2 H 0.3150 0.3304 0.2753
C8 C 0.1459(4) 0.2500 0.2710(2)
C9 C 0.0419(4) 0.2500 0.3116(2)
H3 H -0.0029 0.1377 0.3001
C10 C 0.0559(3) 0.2500 0.3832(2)
C11 C 0.1071(4) 0.2500 0.6390(2)
H4 H 0.0589 0.2500 0.6769
H5 H 0.1552 0.1363 0.6399
C12 C 0.2851(3) 0.2500 0.51554(18)
C13 C 0.3347(2) 0.0795(5) 0.53376(14)
H6 H 0.3014 -0.0366 0.5218
C14 C 0.4339(2) 0.0793(5) 0.56980(16)
H7 H 0.4677 -0.0364 0.5819
C15 C 0.4818(4) 0.2500 0.5874(2)
C16 C 0.1291(6) 0.3227(11) 0.2025(3)
H8 H 0.0634 0.2500 0.1839
H9 H 0.1956 0.2917 0.1775
H10 H 0.1181 0.4596 0.2028
C17 C 0.1655(6) 0.0287(12) 0.2689(3)
H11 H 0.1687 -0.0208 0.3120
H12 H 0.2359 0.0011 0.2472
H13 H 0.1035 -0.0310 0.2462
C7G C 0.2478(5) 0.1537(10) 0.3021(3)
H1G H 0.2335 0.0170 0.3073
H2G H 0.3150 0.1696 0.2753
H3G H -0.0029 0.3623 0.3001
H5G H 0.1552 0.3637 0.6399
C13G C 0.3347(2) 0.4205(5) 0.53376(14)
H6G H 0.3014 0.5366 0.5218
C14G C 0.4339(2) 0.4207(5) 0.56980(16)
H7G H 0.4677 0.5364 0.5819
C16G C 0.1291(6) 0.1773(11) 0.2025(3)
H9G H 0.1956 0.2083 0.1775
H10G H 0.1181 0.0404 0.2028
C17G C 0.1655(6) 0.4713(12) 0.2689(3)
H11G H 0.1687 0.5208 0.3120
H12G H 0.2359 0.4989 0.2472
H13G H 0.1035 0.5310 0.2462
H14? H -0.0029 0.1377 0.3001
loop_
_geom_bond_atom_site_label_1
_geom_bond_atom_site_label_2
_geom_bond_site_symmetry_1
_geom_bond_site_symmetry_2
Cl1 C15 1_555 1_555
N1 C1 1_555 1_555
N2 O1 1_555 1_555
O1 C1 1_555 1_555
O2 C6 1_555 1_555
C1 C3 1_555 1_555
C2 N2 1_555 1_555
C3 C2 1_555 1_555
C4 C3 1_555 1_555
C5 C4 1_555 1_555
C6 C5 1_555 1_555
C7 C6 1_555 1_555
H1 C7 1_555 1_555
H2 C7 1_555 1_555
C8 C7 1_555 1_555
C9 C8 1_555 1_555
H3 C9 1_555 1_555
C10 N1 1_555 1_555
C11 C2 1_555 1_555
H4 C11 1_555 1_555
H5 C11 1_555 1_555
C12 C4 1_555 1_555
C13 C12 1_555 1_555
H6 C13 1_555 1_555
C14 C13 1_555 1_555
H7 C14 1_555 1_555
C15 C14 1_555 1_555
C16 C8 1_555 1_555
H8 C16 1_555 1_555
H9 C16G 1_555 1_555
H10 C16 1_555 1_555
C17 C8 1_555 1_555
H11 C17 1_555 1_555
H12 C17 1_555 1_555
H13 C17 1_555 1_555
C7G C6 1_555 1_555
H1G C7G 1_555 1_555
H2G C7G 1_555 1_555
H3G C9 1_555 1_555
H5G C11 1_555 1_555
C13G C12 1_555 1_555
H6G C13G 1_555 1_555
C14G C15 1_555 1_555
H7G C14G 1_555 1_555
C16G C8 1_555 1_555
H9G C16 1_555 1_555
H10G C16G 1_555 1_555
C17G C8 1_555 1_555
H11G C17G 1_555 1_555
H12G C17G 1_555 1_555
H13G C17G 1_555 1_555
C5 C10 1_555 1_555
C8 C7G 1_555 1_555
C9 C10 1_555 1_555
H8 C16G 1_555 1_555
C13G C14G 1_555 1_555

#END
