
#######################################################################
#
#                 Cambridge Crystallographic Data Centre
#                                CCDC 
#
#######################################################################
#
# If this CIF has been generated from an entry in the Cambridge 
# Structural Database, then it will include bibliographic, chemical, 
# crystal, experimental, refinement or atomic coordinate data resulting 
# from the CCDC's data processing and validation procedures.
#
#######################################################################

data_NUWKOH
_chemical_formula_moiety         'C9 H9 N1 O3'
_chemical_name_systematic        6-nitroindan-1-ol
_symmetry_cell_setting           monoclinic
_symmetry_space_group_name_H-M   'C 2/c'
_symmetry_Int_Tables_number      15
_space_group_name_Hall           '-C 2yn'
loop_
_symmetry_equiv_pos_site_id
_symmetry_equiv_pos_as_xyz
1 x,y,z
2 -x,y,1/2-z
3 1/2+x,1/2+y,z
4 1/2-x,1/2+y,1/2-z
5 -x,-y,-z
6 x,-y,1/2+z
7 1/2-x,1/2-y,-z
8 1/2+x,1/2-y,1/2+z
_cell_length_a                   16.038(12)
_cell_length_b                   14.670(11)
_cell_length_c                   15.634(12)
_cell_angle_alpha                90
_cell_angle_beta                 116.362(11)
_cell_angle_gamma                90
_cell_volume                     3295.81
_exptl_crystal_description       platy
_cell_formula_units_Z            16
loop_
_atom_site_label
_atom_site_type_symbol
_atom_site_fract_x
_atom_site_fract_y
_atom_site_fract_z
O1 O 0.1798(3) 0.1232(2) 0.0509(2)
O2 O 0.2022(2) -0.0047(3) -0.0089(2)
N1 N 0.1815(3) 0.0778(3) -0.0151(3)
O3 O 0.0267(2) 0.0170(2) -0.4052(2)
H1 H 0.0373 -0.0307 -0.3722
C1 C 0.1580(4) 0.1227(3) -0.1076(3)
C2 C 0.1479(3) 0.2184(3) -0.1115(3)
H2 H 0.1575 0.2520 -0.0559
C3 C 0.1100(3) 0.2118(3) -0.2796(3)
C4 C 0.1234(3) 0.2632(4) -0.1986(3)
H3 H 0.1161 0.3275 -0.2029
C5 C 0.1234(3) 0.1166(3) -0.2714(3)
C6 C 0.1472(3) 0.0709(3) -0.1857(3)
H4 H 0.1556 0.0066 -0.1810
C7 C 0.1081(4) 0.0746(3) -0.3668(3)
H5 H 0.1643 0.0393 -0.3591
C8 C 0.0809(4) 0.2436(4) -0.3800(3)
H6 H 0.1205 0.2947 -0.3817
H7 H 0.0151 0.2635 -0.4101
C9 C 0.0947(4) 0.1580(3) -0.4312(4)
H8 H 0.0396 0.1490 -0.4934
H9 H 0.1500 0.1661 -0.4431
O4 O 0.3918(2) 0.0920(2) 0.0326(2)
O5 O 0.3991(2) -0.0447(2) -0.0202(2)
N2 N 0.3931(3) 0.0405(3) -0.0294(3)
C10 C 0.3853(3) 0.0801(3) -0.1207(3)
O6 O 0.4482(2) 0.3553(2) -0.2011(2)
H10 H 0.4426 0.4027 -0.1740
C11 C 0.3746(3) 0.1751(3) -0.1325(3)
H11 H 0.3717 0.2136 -0.0850
C12 C 0.3698(3) 0.1522(3) -0.2894(3)
C13 C 0.3796(4) 0.0578(3) -0.2746(4)
H12 H 0.3811 0.0190 -0.3224
C14 C 0.3684(3) 0.2093(3) -0.2183(3)
C15 C 0.3870(3) 0.0214(3) -0.1897(3)
H13 H 0.3930 -0.0425 -0.1789
C16 C 0.3612(4) 0.2075(3) -0.3746(3)
H14 H 0.3156 0.1797 -0.4350
H15 H 0.4220 0.2126 -0.3763
C17 C 0.3580(4) 0.3100(3) -0.2493(3)
H16 H 0.3098 0.3415 -0.2358
C18 C 0.3269(4) 0.3025(3) -0.3584(3)
H17 H 0.3552 0.3519 -0.3800
H18 H 0.2584 0.3071 -0.3943
loop_
_geom_bond_atom_site_label_1
_geom_bond_atom_site_label_2
_geom_bond_site_symmetry_1
_geom_bond_site_symmetry_2
O1 N1 1_555 1_555
O2 N1 1_555 1_555
N1 C1 1_555 1_555
O3 H1 1_555 1_555
C1 C2 1_555 1_555
C2 H2 1_555 1_555
C3 C4 1_555 1_555
C4 C2 1_555 1_555
H3 C4 1_555 1_555
C5 C3 1_555 1_555
C6 C1 1_555 1_555
H4 C6 1_555 1_555
C7 O3 1_555 1_555
H5 C7 1_555 1_555
C8 C3 1_555 1_555
H6 C8 1_555 1_555
H7 C8 1_555 1_555
C9 C7 1_555 1_555
H8 C9 1_555 1_555
H9 C9 1_555 1_555
O4 N2 1_555 1_555
O5 N2 1_555 1_555
N2 C10 1_555 1_555
C10 C11 1_555 1_555
O6 H10 1_555 1_555
C11 H11 1_555 1_555
C12 C13 1_555 1_555
C13 H12 1_555 1_555
C14 C11 1_555 1_555
C15 C10 1_555 1_555
H13 C15 1_555 1_555
C16 C12 1_555 1_555
H14 C16 1_555 1_555
H15 C16 1_555 1_555
C17 O6 1_555 1_555
H16 C17 1_555 1_555
C18 C16 1_555 1_555
H17 C18 1_555 1_555
H18 C18 1_555 1_555
C5 C6 1_555 1_555
C5 C7 1_555 1_555
C8 C9 1_555 1_555
C12 C14 1_555 1_555
C13 C15 1_555 1_555
C14 C17 1_555 1_555
C17 C18 1_555 1_555

#END
