
#######################################################################
#
#                 Cambridge Crystallographic Data Centre
#                                CCDC 
#
#######################################################################
#
# If this CIF has been generated from an entry in the Cambridge 
# Structural Database, then it will include bibliographic, chemical, 
# crystal, experimental, refinement or atomic coordinate data resulting 
# from the CCDC's data processing and validation procedures.
#
#######################################################################

data_NUWKIB
_chemical_formula_moiety         'C9 H9 N1 O3,C9 H9 N1 O3'
_chemical_name_systematic        '4-nitroindan-1-ol 6-nitroindan-1-ol'
_symmetry_cell_setting           orthorhombic
_symmetry_space_group_name_H-M   'P b c a'
_symmetry_Int_Tables_number      61
_space_group_name_Hall           '-P 2ac 2ab'
loop_
_symmetry_equiv_pos_site_id
_symmetry_equiv_pos_as_xyz
1 x,y,z
2 1/2-x,-y,1/2+z
3 -x,1/2+y,1/2-z
4 1/2+x,1/2-y,-z
5 -x,-y,-z
6 1/2+x,y,1/2-z
7 x,1/2-y,1/2+z
8 1/2-x,1/2+y,z
_cell_length_a                   16.163(10)
_cell_length_b                   8.953(5)
_cell_length_c                   22.950(14)
_cell_angle_alpha                90
_cell_angle_beta                 90
_cell_angle_gamma                90
_cell_volume                     3321.03
_exptl_crystal_description       prismatic
_cell_formula_units_Z            8
loop_
_atom_site_label
_atom_site_type_symbol
_atom_site_fract_x
_atom_site_fract_y
_atom_site_fract_z
O1 O 0.74591(8) 0.73062(15) 0.96607(6)
O2 O 0.50200(9) 0.43517(15) 0.85535(6)
O3 O 0.37647(8) 0.50447(15) 0.87644(6)
N1 N 0.45210(10) 0.51016(16) 0.88402(7)
C1 C 0.56876(12) 0.60671(19) 0.94229(8)
H1 H 0.6059 0.5468 0.9203
C2 C 0.54091(12) 0.78439(19) 1.02010(8)
C3 C 0.48419(12) 0.60787(19) 0.93074(8)
C4 C 0.59627(11) 0.69735(18) 0.98744(8)
C5 C 0.45710(12) 0.7836(2) 1.00708(8)
H2 H 0.4198 0.8438 1.0288
C6 C 0.68366(11) 0.71505(19) 1.01045(8)
H3 H 0.6976 0.6285 1.0362
C7 C 0.42806(12) 0.6943(2) 0.96203(8)
H4 H 0.3708 0.6923 0.9527
C8 C 0.58702(11) 0.8666(2) 1.06780(8)
H5 H 0.5798 0.8166 1.1059
H6 H 0.5680 0.9714 1.0710
C9 C 0.67801(12) 0.8587(2) 1.04731(8)
H7 H 0.6924 0.9474 1.0236
H8 H 0.7160 0.8535 1.0811
H9 H 0.7523(15) 0.649(3) 0.9433(10)
O4 O 0.75677(9) 0.47777(16) 0.90048(6)
O5 O 0.92318(10) 0.79212(17) 0.69284(7)
N2 N 0.84866(12) 0.79981(18) 0.68195(8)
C10 C 0.75916(12) 0.55391(19) 0.79908(8)
C11 C 0.81899(12) 0.62889(19) 0.76572(8)
O6 O 0.81984(11) 0.87059(17) 0.64055(7)
C12 C 0.67521(13) 0.5672(2) 0.78747(9)
H10 H 0.6360 0.5134 0.8100
C13 C 0.79031(12) 0.7179(2) 0.71996(8)
C14 C 0.70654(13) 0.7357(2) 0.70885(9)
H11 H 0.6887 0.7996 0.6783
C15 C 0.79964(13) 0.4607(2) 0.84587(8)
H12 H 0.7995 0.3532 0.8340
C16 C 0.64900(13) 0.6599(2) 0.74251(9)
H13 H 0.5916 0.6713 0.7348
C17 C 0.90506(12) 0.5915(2) 0.78729(9)
H14 H 0.9393 0.6826 0.7911
H15 H 0.9331 0.5207 0.7607
C18 C 0.88891(14) 0.5198(3) 0.84691(9)
H16 H 0.8957 0.5946 0.8783
H17 H 0.9283 0.4370 0.8539
H18 H 0.7586(16) 0.388(3) 0.9205(10)
loop_
_geom_bond_atom_site_label_1
_geom_bond_atom_site_label_2
_geom_bond_site_symmetry_1
_geom_bond_site_symmetry_2
O1 C6 1_555 1_555
O2 N1 1_555 1_555
O3 N1 1_555 1_555
N1 C3 1_555 1_555
C1 H1 1_555 1_555
C2 C4 1_555 1_555
C3 C1 1_555 1_555
C4 C1 1_555 1_555
C5 C2 1_555 1_555
H2 C5 1_555 1_555
C6 C4 1_555 1_555
H3 C6 1_555 1_555
C7 C3 1_555 1_555
H4 C7 1_555 1_555
C8 C2 1_555 1_555
H5 C8 1_555 1_555
H6 C8 1_555 1_555
C9 C6 1_555 1_555
H7 C9 1_555 1_555
H8 C9 1_555 1_555
H9 O1 1_555 1_555
O4 C15 1_555 1_555
O5 N2 1_555 1_555
N2 O6 1_555 1_555
C10 C11 1_555 1_555
C11 C13 1_555 1_555
C12 C10 1_555 1_555
H10 C12 1_555 1_555
C13 N2 1_555 1_555
C14 C13 1_555 1_555
H11 C14 1_555 1_555
C15 C10 1_555 1_555
H12 C15 1_555 1_555
C16 C12 1_555 1_555
H13 C16 1_555 1_555
C17 C11 1_555 1_555
H14 C17 1_555 1_555
H15 C17 1_555 1_555
C18 C15 1_555 1_555
H16 C18 1_555 1_555
H17 C18 1_555 1_555
H18 O4 1_555 1_555
C5 C7 1_555 1_555
C8 C9 1_555 1_555
C14 C16 1_555 1_555
C17 C18 1_555 1_555

#END
