
#######################################################################
#
#                 Cambridge Crystallographic Data Centre
#                                CCDC 
#
#######################################################################
#
# If this CIF has been generated from an entry in the Cambridge 
# Structural Database, then it will include bibliographic, chemical, 
# crystal, experimental, refinement or atomic coordinate data resulting 
# from the CCDC's data processing and validation procedures.
#
#######################################################################

data_NUWKEW
_chemical_formula_moiety         'C19 H19 Cl1 N2 O4 S2'
_chemical_name_systematic        
'Ethyl 5-(3-chlorophenyl)-1-((4-methylphenyl)sulfonyl)-2-thioxoimidazolidine-4-carboxylate'
_symmetry_cell_setting           orthorhombic
_symmetry_space_group_name_H-M   'P 21 21 21'
_symmetry_Int_Tables_number      19
_space_group_name_Hall           'P 2ac 2ab'
loop_
_symmetry_equiv_pos_site_id
_symmetry_equiv_pos_as_xyz
1 x,y,z
2 1/2-x,-y,1/2+z
3 -x,1/2+y,1/2-z
4 1/2+x,1/2-y,-z
_cell_length_a                   8.7317(3)
_cell_length_b                   11.5353(4)
_cell_length_c                   20.0501(6)
_cell_angle_alpha                90
_cell_angle_beta                 90
_cell_angle_gamma                90
_cell_volume                     2019.5
_exptl_crystal_colour            colorless
_exptl_crystal_description       block
_cell_formula_units_Z            4
loop_
_atom_site_label
_atom_site_type_symbol
_atom_site_fract_x
_atom_site_fract_y
_atom_site_fract_z
C1 C 0.9899(2) 0.25386(17) 0.04840(9)
C2 C 0.9279(2) 0.36534(18) -0.04488(9)
H1 H 0.8266 0.3910 -0.0629
C3 C 0.9842(2) 0.45105(16) 0.01022(8)
H2 H 1.0720 0.4979 -0.0070
C4 C 1.0439(2) 0.35279(19) -0.10135(9)
C5 C 1.1444(4) 0.4424(3) -0.19778(12)
H3 H 1.2441 0.4108 -0.1828
H4 H 1.1614 0.5228 -0.2135
C6 C 1.0847(3) 0.3708(4) -0.25384(12)
H5 H 1.1577 0.3726 -0.2910
H6 H 0.9860 0.4020 -0.2687
H7 H 1.0711 0.2906 -0.2388
C7 C 0.8606(2) 0.53053(17) 0.03589(8)
C8 C 0.8878(2) 0.64901(18) 0.03697(9)
H8 H 0.9830 0.6790 0.0219
C9 C 0.7746(3) 0.7236(2) 0.06029(10)
C10 C 0.6360(3) 0.6818(2) 0.08245(11)
H9 H 0.5598 0.7336 0.0983
C11 C 0.6085(3) 0.5636(2) 0.08141(11)
H10 H 0.5130 0.5344 0.0968
C12 C 0.7195(2) 0.4872(2) 0.05804(10)
H11 H 0.6999 0.4062 0.0571
C13 C 1.0329(2) 0.38711(16) 0.19784(8)
C14 C 1.0644(3) 0.2948(2) 0.23989(10)
H12 H 1.1436 0.2413 0.2296
C15 C 0.9779(3) 0.2824(2) 0.29708(10)
H13 H 0.9980 0.2188 0.3259
C16 C 0.8625(2) 0.35998(18) 0.31367(9)
C17 C 0.7740(3) 0.3468(2) 0.37746(11)
H14 H 0.8280 0.3870 0.4135
H15 H 0.7646 0.2644 0.3885
H16 H 0.6717 0.3805 0.3720
C18 C 0.8334(2) 0.45090(19) 0.27043(10)
H17 H 0.7544 0.5046 0.2809
C19 C 0.9167(2) 0.46549(18) 0.21224(10)
H18 H 0.8948 0.5278 0.1828
Cl1 Cl 0.81287(8) 0.87087(5) 0.06105(4)
N1 N 1.03996(18) 0.36646(14) 0.06088(7)
N2 N 0.9115(2) 0.25735(16) -0.00915(8)
O1 O 1.1281(2) 0.27238(17) -0.10788(9)
O2 O 1.0371(2) 0.44345(15) -0.14171(8)
O3 O 1.27790(16) 0.33734(15) 0.13017(7)
O4 O 1.16256(18) 0.53096(13) 0.11460(7)
S1 S 1.01753(6) 0.13746(5) 0.09467(3)
S2 S 1.14446(5) 0.40898(4) 0.12612(2)
loop_
_geom_bond_atom_site_label_1
_geom_bond_atom_site_label_2
_geom_bond_site_symmetry_1
_geom_bond_site_symmetry_2
C1 N1 1_555 1_555
C2 H1 1_555 1_555
C3 C2 1_555 1_555
H2 C3 1_555 1_555
C4 C2 1_555 1_555
C5 H3 1_555 1_555
H4 C5 1_555 1_555
C6 C5 1_555 1_555
H5 C6 1_555 1_555
H6 C6 1_555 1_555
H7 C6 1_555 1_555
C7 C3 1_555 1_555
C8 C7 1_555 1_555
H8 C8 1_555 1_555
C9 C8 1_555 1_555
C10 C9 1_555 1_555
H9 C10 1_555 1_555
C11 C10 1_555 1_555
H10 C11 1_555 1_555
C12 C7 1_555 1_555
H11 C12 1_555 1_555
C13 C14 1_555 1_555
C14 H12 1_555 1_555
C15 C14 1_555 1_555
H13 C15 1_555 1_555
C16 C15 1_555 1_555
C17 C16 1_555 1_555
H14 C17 1_555 1_555
H15 C17 1_555 1_555
H16 C17 1_555 1_555
C18 C16 1_555 1_555
H17 C18 1_555 1_555
C19 C13 1_555 1_555
H18 C19 1_555 1_555
Cl1 C9 1_555 1_555
N1 C3 1_555 1_555
N2 C1 1_555 1_555
O1 C4 1_555 1_555
O2 C4 1_555 1_555
O3 S2 1_555 1_555
O4 S2 1_555 1_555
S1 C1 1_555 1_555
S2 C13 1_555 1_555
C2 N2 1_555 1_555
C5 O2 1_555 1_555
C11 C12 1_555 1_555
C18 C19 1_555 1_555
N1 S2 1_555 1_555

#END
