
#######################################################################
#
#                 Cambridge Crystallographic Data Centre
#                                CCDC 
#
#######################################################################
#
# If this CIF has been generated from an entry in the Cambridge 
# Structural Database, then it will include bibliographic, chemical, 
# crystal, experimental, refinement or atomic coordinate data resulting 
# from the CCDC's data processing and validation procedures.
#
#######################################################################

data_NUWLAT
_chemical_formula_moiety         'C17 H17 N1 O3'
_chemical_name_systematic        
'Ethyl 1-formyl-3-methyl-5,6-dihydropyrrolo[2,1-a]isoquinoline-2-carboxylate'
_symmetry_cell_setting           triclinic
_symmetry_space_group_name_H-M   'P -1'
_symmetry_Int_Tables_number      2
_space_group_name_Hall           '-P 1'
loop_
_symmetry_equiv_pos_site_id
_symmetry_equiv_pos_as_xyz
1 x,y,z
2 -x,-y,-z
_cell_length_a                   7.567(7)
_cell_length_b                   8.805(8)
_cell_length_c                   10.992(10)
_cell_angle_alpha                90.170(19)
_cell_angle_beta                 100.558(17)
_cell_angle_gamma                90.186(17)
_cell_volume                     719.961
_exptl_crystal_colour            colorless
_exptl_crystal_description       block
_cell_formula_units_Z            2
loop_
_atom_site_label
_atom_site_type_symbol
_atom_site_fract_x
_atom_site_fract_y
_atom_site_fract_z
C1 C 0.2972(13) 0.1730(12) 1.2297(9)
C2 C 0.3152(15) 0.0901(17) 1.3385(13)
H1 H 0.3084 -0.0154 1.3381
C3 C 0.3447(18) 0.1753(16) 1.4511(14)
H2 H 0.3678 0.1253 1.5268
C4 C 0.339(2) 0.332(2) 1.4478(19)
H3 H 0.3403 0.3850 1.5214
C5 C 0.3310(18) 0.4128(19) 1.3420(12)
H4 H 0.3419 0.5181 1.3433
C6 C 0.3058(17) 0.3311(17) 1.2313(14)
C7 C 0.2830(18) 0.4160(14) 1.1071(14)
H5 H 0.2332 0.5158 1.1166
H6 H 0.3999 0.4298 1.0842
C8 C 0.1661(17) 0.3344(15) 1.0091(12)
H7 H 0.0429 0.3471 1.0206
H8 H 0.1762 0.3806 0.9307
C9 C 0.2681(14) 0.0962(16) 1.1138(12)
C10 C 0.2996(13) -0.0564(16) 1.0627(12)
C11 C 0.2433(16) -0.058(2) 0.9383(14)
C12 C 0.1807(14) 0.0891(16) 0.8973(10)
C13 C 0.110(2) 0.146(2) 0.7738(16)
H9 H -0.0180 0.1599 0.7649
H10 H 0.1341 0.0746 0.7131
H11 H 0.1656 0.2417 0.7621
C14 C 0.3890(19) -0.1717(17) 1.1322(13)
H12 H 0.4345 -0.2456 1.0859
C15 C 0.2367(13) -0.1899(17) 0.8620(11)
C16 C 0.185(2) -0.298(2) 0.6565(12)
H13 H 0.0820 -0.3576 0.6702
H14 H 0.2900 -0.3625 0.6721
C17 C 0.153(3) -0.243(3) 0.5227(15)
H15 H 0.1006 -0.1433 0.5183
H16 H 0.0739 -0.3116 0.4713
H17 H 0.2662 -0.2380 0.4946
N1 N 0.2010(12) 0.1753(12) 1.0015(11)
O1 O 0.4205(17) -0.1955(13) 1.2469(11)
O2 O 0.2531(13) -0.3172(13) 0.9032(10)
O3 O 0.2102(12) -0.1689(12) 0.7408(10)
loop_
_geom_bond_atom_site_label_1
_geom_bond_atom_site_label_2
_geom_bond_site_symmetry_1
_geom_bond_site_symmetry_2
C1 C2 1_555 1_555
C2 H1 1_555 1_555
C3 C2 1_555 1_555
H2 C3 1_555 1_555
C4 C3 1_555 1_555
H3 C4 1_555 1_555
C5 C4 1_555 1_555
H4 C5 1_555 1_555
C6 C1 1_555 1_555
C7 C6 1_555 1_555
H5 C7 1_555 1_555
H6 C7 1_555 1_555
C8 C7 1_555 1_555
H7 C8 1_555 1_555
H8 C8 1_555 1_555
C9 C1 1_555 1_555
C10 C9 1_555 1_555
C11 C10 1_555 1_555
C12 C11 1_555 1_555
C13 C12 1_555 1_555
H9 C13 1_555 1_555
H10 C13 1_555 1_555
H11 C13 1_555 1_555
C14 C10 1_555 1_555
H12 C14 1_555 1_555
C15 C11 1_555 1_555
C16 H13 1_555 1_555
H14 C16 1_555 1_555
C17 C16 1_555 1_555
H15 C17 1_555 1_555
H16 C17 1_555 1_555
H17 C17 1_555 1_555
N1 C8 1_555 1_555
O1 C14 1_555 1_555
O2 C15 1_555 1_555
O3 C15 1_555 1_555
C5 C6 1_555 1_555
C9 N1 1_555 1_555
C12 N1 1_555 1_555
C16 O3 1_555 1_555

#END
