
#######################################################################
#
#                 Cambridge Crystallographic Data Centre
#                                CCDC 
#
#######################################################################
#
# If this CIF has been generated from an entry in the Cambridge 
# Structural Database, then it will include bibliographic, chemical, 
# crystal, experimental, refinement or atomic coordinate data resulting 
# from the CCDC's data processing and validation procedures.
#
#######################################################################

data_NUWPOL
_chemical_formula_moiety         'C19 H21 N1 O4 S1'
_chemical_name_systematic        
'Methyl 5-(2-methylphenyl)-4-(phenylsulfonyl)prolinate'
_symmetry_cell_setting           orthorhombic
_symmetry_space_group_name_H-M   'P b c a'
_symmetry_Int_Tables_number      61
_space_group_name_Hall           '-P 2ac 2ab'
loop_
_symmetry_equiv_pos_site_id
_symmetry_equiv_pos_as_xyz
1 x,y,z
2 1/2-x,-y,1/2+z
3 -x,1/2+y,1/2-z
4 1/2+x,1/2-y,-z
5 -x,-y,-z
6 1/2+x,y,1/2-z
7 x,1/2-y,1/2+z
8 1/2-x,1/2+y,z
_cell_length_a                   11.9819(12)
_cell_length_b                   11.1860(12)
_cell_length_c                   27.029(3)
_cell_angle_alpha                90
_cell_angle_beta                 90
_cell_angle_gamma                90
_cell_volume                     3622.68
_exptl_crystal_description       block
_cell_formula_units_Z            8
loop_
_atom_site_label
_atom_site_type_symbol
_atom_site_fract_x
_atom_site_fract_y
_atom_site_fract_z
C1 C 0.17006(15) 0.41035(17) 0.19215(6)
C2 C 0.18869(19) 0.29470(19) 0.20787(8)
H1 H 0.2401 0.2463 0.1917
C3 C 0.1296(2) 0.2518(2) 0.24820(9)
H2 H 0.1401 0.1736 0.2588
C4 C 0.0554(2) 0.3249(2) 0.27249(8)
H3 H 0.0159 0.2958 0.2995
C5 C 0.03939(19) 0.4402(2) 0.25713(8)
H4 H -0.0099 0.4895 0.2742
C6 C 0.09582(17) 0.4838(2) 0.21661(8)
H5 H 0.0840 0.5617 0.2058
C7 C 0.29069(16) 0.4142(2) 0.04601(7)
H6 H 0.3313 0.3455 0.0335
H7 H 0.3439 0.4737 0.0573
C8 C 0.21132(14) 0.37745(17) 0.08828(6)
H8 H 0.2212 0.2924 0.0958
C9 C 0.09277(15) 0.39904(16) 0.06634(6)
H9 H 0.0745 0.3280 0.0467
C10 C 0.21344(16) 0.46649(17) 0.00579(7)
H10 H 0.1982 0.4049 -0.0191
C11 C 0.26427(18) 0.5735(2) -0.01906(8)
C12 C 0.4049(2) 0.6372(3) -0.07335(11)
H11 H 0.3514 0.6854 -0.0907
H12 H 0.4568 0.6035 -0.0966
H13 H 0.4445 0.6859 -0.0500
C13 C -0.00473(15) 0.41943(17) 0.10094(7)
C14 C -0.05522(17) 0.3222(2) 0.12498(8)
C15 C -0.14378(19) 0.3459(3) 0.15685(9)
H14 H -0.1768 0.2828 0.1738
C16 C -0.1838(2) 0.4592(3) 0.16407(10)
H15 H -0.2432 0.4723 0.1856
C17 C -0.1363(2) 0.5528(2) 0.13949(9)
H16 H -0.1642 0.6297 0.1436
C18 C -0.04645(17) 0.53318(19) 0.10841(8)
H17 H -0.0136 0.5976 0.0923
C19 C -0.0196(2) 0.1963(2) 0.11660(11)
H18 H -0.0618 0.1441 0.1377
H19 H 0.0584 0.1885 0.1240
H20 H -0.0325 0.1750 0.0827
N1 N 0.11071(13) 0.49616(15) 0.03122(6)
H21 H 0.0692 0.5578 0.0266
O1 O 0.21443(14) 0.58788(12) 0.13278(5)
O2 O 0.36253(12) 0.44175(15) 0.15095(5)
O3 O 0.34815(14) 0.54266(14) -0.04766(6)
O4 O 0.2343(2) 0.67309(17) -0.01388(10)
S1 S 0.24700(4) 0.46575(4) 0.141287(16)
loop_
_geom_bond_atom_site_label_1
_geom_bond_atom_site_label_2
_geom_bond_site_symmetry_1
_geom_bond_site_symmetry_2
C1 C2 1_555 1_555
C2 H1 1_555 1_555
C3 C2 1_555 1_555
H2 C3 1_555 1_555
C4 C3 1_555 1_555
H3 C4 1_555 1_555
C5 C4 1_555 1_555
H4 C5 1_555 1_555
C6 C1 1_555 1_555
H5 C6 1_555 1_555
C7 H6 1_555 1_555
H7 C7 1_555 1_555
C8 C7 1_555 1_555
H8 C8 1_555 1_555
C9 C8 1_555 1_555
H9 C9 1_555 1_555
C10 C7 1_555 1_555
H10 C10 1_555 1_555
C11 C10 1_555 1_555
C12 H11 1_555 1_555
H12 C12 1_555 1_555
H13 C12 1_555 1_555
C13 C9 1_555 1_555
C14 C13 1_555 1_555
C15 C14 1_555 1_555
H14 C15 1_555 1_555
C16 C15 1_555 1_555
H15 C16 1_555 1_555
C17 C16 1_555 1_555
H16 C17 1_555 1_555
C18 C13 1_555 1_555
H17 C18 1_555 1_555
C19 C14 1_555 1_555
H18 C19 1_555 1_555
H19 C19 1_555 1_555
H20 C19 1_555 1_555
N1 C9 1_555 1_555
H21 N1 1_555 1_555
O1 S1 1_555 1_555
O2 S1 1_555 1_555
O3 C11 1_555 1_555
O4 C11 1_555 1_555
S1 C1 1_555 1_555
C5 C6 1_555 1_555
C8 S1 1_555 1_555
C10 N1 1_555 1_555
C12 O3 1_555 1_555
C17 C18 1_555 1_555

#END
