
#######################################################################
#
#                 Cambridge Crystallographic Data Centre
#                                CCDC 
#
#######################################################################
#
# If this CIF has been generated from an entry in the Cambridge 
# Structural Database, then it will include bibliographic, chemical, 
# crystal, experimental, refinement or atomic coordinate data resulting 
# from the CCDC's data processing and validation procedures.
#
#######################################################################

data_NUXDAN
_chemical_formula_moiety         'C44 H38 O2 P2'
_chemical_name_systematic        
5a,6,7,8,8a,9-hexahydro-5H-chromeno[3,2-d]xanthene-1,13-diylbis(diphenylphosphine)
_symmetry_cell_setting           orthorhombic
_symmetry_space_group_name_H-M   'P 21 21 21'
_symmetry_Int_Tables_number      19
_space_group_name_Hall           'P 2ac 2ab'
loop_
_symmetry_equiv_pos_site_id
_symmetry_equiv_pos_as_xyz
1 x,y,z
2 1/2-x,-y,1/2+z
3 -x,1/2+y,1/2-z
4 1/2+x,1/2-y,-z
_cell_length_a                   7.5337(13)
_cell_length_b                   17.205(3)
_cell_length_c                   27.444(5)
_cell_angle_alpha                90
_cell_angle_beta                 90
_cell_angle_gamma                90
_cell_volume                     3557.22
_exptl_crystal_colour            colorless
_exptl_crystal_description       prismatic
_cell_formula_units_Z            4
loop_
_atom_site_label
_atom_site_type_symbol
_atom_site_fract_x
_atom_site_fract_y
_atom_site_fract_z
P1 P 1.13513(8) 0.88765(4) 0.35010(2)
P2 P 1.00947(9) 0.92438(3) 0.124530(19)
O1 O 0.8576(2) 0.94703(8) 0.28965(5)
O2 O 0.7976(2) 0.93781(8) 0.20939(5)
C1 C 0.8638(3) 0.99160(12) 0.33113(7)
C2 C 0.9871(3) 0.96844(12) 0.36594(7)
C3 C 0.9946(4) 1.01030(14) 0.40931(7)
H1 H 1.0742 0.9954 0.4335
C4 C 0.8861(4) 1.07342(14) 0.41700(8)
H2 H 0.8926 1.1009 0.4461
C5 C 0.7691(4) 1.09563(13) 0.38179(8)
H3 H 0.6964 1.1384 0.3873
C6 C 0.7561(3) 1.05587(12) 0.33793(7)
C7 C 0.6312(4) 1.08130(15) 0.29842(8)
H4 H 0.6336 1.1375 0.2961
H5 H 0.5114 1.0659 0.3071
C8 C 0.6784(4) 1.04658(13) 0.24897(8)
H6 H 0.7853 1.0727 0.2369
C9 C 0.5308(4) 1.05839(15) 0.21174(8)
H7 H 0.4991 1.1130 0.2108
H8 H 0.5744 1.0441 0.1797
C10 C 0.3674(4) 1.01132(17) 0.22297(9)
H9 H 0.2814 1.0179 0.1970
H10 H 0.3142 1.0300 0.2530
C11 C 0.4129(4) 0.92567(16) 0.22824(8)
H11 H 0.4513 0.9057 0.1969
H12 H 0.3071 0.8974 0.2378
C12 C 0.5586(3) 0.91127(14) 0.26581(7)
H13 H 0.5136 0.9268 0.2979
C13 C 0.7194(3) 0.96047(13) 0.25424(7)
C14 C 0.6131(4) 0.82622(14) 0.26842(7)
H14 H 0.6836 0.8177 0.2975
H15 H 0.5079 0.7939 0.2706
C15 C 0.7180(3) 0.80332(13) 0.22464(7)
C16 C 0.7347(4) 0.72708(14) 0.20915(8)
H16 H 0.6806 0.6878 0.2271
C17 C 0.8282(4) 0.70811(15) 0.16838(9)
H17 H 0.8376 0.6564 0.1589
C18 C 0.9090(4) 0.76531(14) 0.14121(8)
H18 H 0.9710 0.7520 0.1131
C19 C 0.8988(3) 0.84269(13) 0.15522(8)
C20 C 0.8049(3) 0.86009(12) 0.19751(7)
C21 C 0.9844(3) 0.80523(13) 0.35471(7)
C22 C 1.0132(4) 0.74079(14) 0.32550(8)
H19 H 1.1068 0.7410 0.3034
C23 C 0.9050(4) 0.67634(15) 0.32871(10)
H20 H 0.9262 0.6335 0.3088
C24 C 0.7682(4) 0.67511(15) 0.36068(9)
H21 H 0.6972 0.6311 0.3632
C25 C 0.7339(4) 0.73893(15) 0.38949(9)
H22 H 0.6383 0.7385 0.4109
C26 C 0.8418(3) 0.80342(14) 0.38648(8)
H23 H 0.8185 0.8463 0.4061
C27 C 1.2659(3) 0.87728(14) 0.40595(8)
C28 C 1.2371(4) 0.81997(16) 0.44099(8)
H24 H 1.1430 0.7855 0.4372
C29 C 1.3453(5) 0.8135(2) 0.48108(10)
H25 H 1.3243 0.7749 0.5041
C30 C 1.4828(6) 0.8635(2) 0.48708(12)
H26 H 1.5551 0.8591 0.5144
C31 C 1.5165(4) 0.9203(2) 0.45343(13)
H27 H 1.6108 0.9545 0.4579
C32 C 1.4090(4) 0.92661(16) 0.41254(10)
H28 H 1.4334 0.9644 0.3893
C33 C 0.8209(3) 0.97349(13) 0.09638(7)
C34 C 0.8172(4) 1.05375(14) 0.09729(9)
H29 H 0.9106 1.0806 0.1117
C35 C 0.6780(5) 1.09484(17) 0.07732(11)
H30 H 0.6780 1.1489 0.0786
C36 C 0.5403(5) 1.05661(19) 0.05572(11)
H31 H 0.4467 1.0842 0.0420
C37 C 0.5420(4) 0.9776(2) 0.05458(11)
H32 H 0.4487 0.9512 0.0398
C38 C 0.6786(4) 0.93621(16) 0.07484(10)
H33 H 0.6755 0.8822 0.0741
C39 C 1.1153(3) 0.87498(14) 0.07273(8)
C40 C 1.0797(4) 0.89092(16) 0.02440(8)
H34 H 0.9894 0.9254 0.0163
C41 C 1.1782(5) 0.8556(2) -0.01192(10)
H35 H 1.1560 0.8676 -0.0444
C42 C 1.3074(6) 0.8035(2) -0.00046(15)
H36 H 1.3708 0.7790 -0.0251
C43 C 1.3442(5) 0.78725(18) 0.04668(15)
H37 H 1.4318 0.7512 0.0544
C44 C 1.2519(4) 0.82404(16) 0.08319(11)
H38 H 1.2820 0.8145 0.1155
loop_
_geom_bond_atom_site_label_1
_geom_bond_atom_site_label_2
_geom_bond_site_symmetry_1
_geom_bond_site_symmetry_2
P1 C2 1_555 1_555
P2 C19 1_555 1_555
O1 C1 1_555 1_555
O2 C13 1_555 1_555
C1 C2 1_555 1_555
C2 C3 1_555 1_555
C3 H1 1_555 1_555
C4 C3 1_555 1_555
H2 C4 1_555 1_555
C5 C4 1_555 1_555
H3 C5 1_555 1_555
C6 C1 1_555 1_555
C7 C6 1_555 1_555
H4 C7 1_555 1_555
H5 C7 1_555 1_555
C8 C7 1_555 1_555
H6 C8 1_555 1_555
C9 C8 1_555 1_555
H7 C9 1_555 1_555
H8 C9 1_555 1_555
C10 C9 1_555 1_555
H9 C10 1_555 1_555
H10 C10 1_555 1_555
C11 C10 1_555 1_555
H11 C11 1_555 1_555
H12 C11 1_555 1_555
C12 C11 1_555 1_555
H13 C12 1_555 1_555
C13 O1 1_555 1_555
C14 C12 1_555 1_555
H14 C14 1_555 1_555
H15 C14 1_555 1_555
C15 C14 1_555 1_555
C16 C15 1_555 1_555
H16 C16 1_555 1_555
C17 C16 1_555 1_555
H17 C17 1_555 1_555
C18 C17 1_555 1_555
H18 C18 1_555 1_555
C19 C18 1_555 1_555
C20 O2 1_555 1_555
C21 P1 1_555 1_555
C22 C21 1_555 1_555
H19 C22 1_555 1_555
C23 C22 1_555 1_555
H20 C23 1_555 1_555
C24 C23 1_555 1_555
H21 C24 1_555 1_555
C25 C24 1_555 1_555
H22 C25 1_555 1_555
C26 C21 1_555 1_555
H23 C26 1_555 1_555
C27 P1 1_555 1_555
C28 C27 1_555 1_555
H24 C28 1_555 1_555
C29 C28 1_555 1_555
H25 C29 1_555 1_555
C30 C29 1_555 1_555
H26 C30 1_555 1_555
C31 C30 1_555 1_555
H27 C31 1_555 1_555
C32 C27 1_555 1_555
H28 C32 1_555 1_555
C33 P2 1_555 1_555
C34 C33 1_555 1_555
H29 C34 1_555 1_555
C35 C34 1_555 1_555
H30 C35 1_555 1_555
C36 C35 1_555 1_555
H31 C36 1_555 1_555
C37 C36 1_555 1_555
H32 C37 1_555 1_555
C38 C33 1_555 1_555
H33 C38 1_555 1_555
C39 P2 1_555 1_555
C40 C39 1_555 1_555
H34 C40 1_555 1_555
C41 C40 1_555 1_555
H35 C41 1_555 1_555
C42 C41 1_555 1_555
H36 C42 1_555 1_555
C43 C42 1_555 1_555
H37 C43 1_555 1_555
C44 C39 1_555 1_555
H38 C44 1_555 1_555
C5 C6 1_555 1_555
C8 C13 1_555 1_555
C12 C13 1_555 1_555
C15 C20 1_555 1_555
C19 C20 1_555 1_555
C25 C26 1_555 1_555
C31 C32 1_555 1_555
C37 C38 1_555 1_555
C43 C44 1_555 1_555

#END
