
#######################################################################
#
#                 Cambridge Crystallographic Data Centre
#                                CCDC 
#
#######################################################################
#
# If this CIF has been generated from an entry in the Cambridge 
# Structural Database, then it will include bibliographic, chemical, 
# crystal, experimental, refinement or atomic coordinate data resulting 
# from the CCDC's data processing and validation procedures.
#
#######################################################################

data_NUXFUJ
_chemical_formula_moiety         'C27 H28 Cl1 N1 O6 S1'
_chemical_name_systematic        
'3a-ethyl 1-methyl 3-(4-chlorophenyl)-2-((4-methylphenyl)sulfonyl)-2,3,8,8a-tetrahydrocyclohepta[c]pyrrole-1,3a(1H)-dicarboxylate'
_symmetry_cell_setting           trigonal
_symmetry_space_group_name_H-M   'P 32'
_symmetry_Int_Tables_number      145
_space_group_name_Hall           'P 32'
loop_
_symmetry_equiv_pos_site_id
_symmetry_equiv_pos_as_xyz
1 x,y,z
2 -y,x-y,2/3+z
3 -x+y,-x,1/3+z
_cell_length_a                   13.8575(15)
_cell_length_b                   13.8575(15)
_cell_length_c                   12.3672(13)
_cell_angle_alpha                90
_cell_angle_beta                 90
_cell_angle_gamma                120
_cell_volume                     2056.7
_exptl_crystal_description       block
_cell_formula_units_Z            3
loop_
_atom_site_label
_atom_site_type_symbol
_atom_site_fract_x
_atom_site_fract_y
_atom_site_fract_z
C1 C 0.2420(4) -0.1538(3) 0.7935(4)
C2 C 0.3065(4) -0.0927(4) 0.8787(4)
H1 H 0.3521 -0.1142 0.9140
C3 C 0.3036(3) 0.0030(3) 0.9128(3)
H2 H 0.3464 0.0447 0.9712
C4 C 0.2367(3) 0.0338(3) 0.8586(3)
C5 C 0.1710(3) -0.0313(3) 0.7746(3)
H3 H 0.1243 -0.0115 0.7391
C6 C 0.1735(4) -0.1261(3) 0.7420(3)
H4 H 0.1285 -0.1698 0.6856
C7 C 0.2357(2) 0.1402(2) 0.8857(2)
H5 H 0.1610 0.1285 0.8714
C8 C 0.3702(2) 0.2792(3) 1.0109(2)
H6 H 0.3566 0.3407 1.0269
C9 C 0.4233(2) 0.2939(2) 0.8990(2)
H7 H 0.4541 0.2439 0.8957
C10 C 0.5193(3) 0.4114(3) 0.8791(3)
H8 H 0.5834 0.4214 0.9198
H9 H 0.5388 0.4187 0.8031
C11 C 0.4966(5) 0.5024(4) 0.9090(3)
H10 H 0.5527 0.5630 0.9459
C12 C 0.4042(5) 0.5053(3) 0.8879(4)
H11 H 0.4018 0.5671 0.9137
C13 C 0.3076(3) 0.4247(3) 0.8301(3)
H12 H 0.2597 0.4501 0.8091
C14 C 0.2741(3) 0.3199(3) 0.8011(2)
H13 H 0.2088 0.2863 0.7605
C15 C 0.3233(2) 0.2466(2) 0.8225(2)
C16 C 0.3531(3) 0.2139(3) 0.7153(2)
C17 C 0.2864(3) 0.1482(3) 0.5369(3)
H14 H 0.3167 0.0988 0.5455
H15 H 0.2137 0.1061 0.5033
C18 C 0.3591(4) 0.2403(4) 0.4675(3)
H16 H 0.3372 0.2959 0.4694
H17 H 0.3537 0.2139 0.3947
H18 H 0.4346 0.2720 0.4922
C19 C 0.4438(3) 0.2707(4) 1.0967(3)
C20 C 0.5610(4) 0.3618(5) 1.2453(4)
H19 H 0.5324 0.2890 1.2764
H20 H 0.5695 0.4138 1.3009
H21 H 0.6321 0.3847 1.2126
C21 C 0.1215(3) 0.2477(3) 1.0465(2)
C22 C 0.1768(3) 0.3570(3) 1.0825(3)
H22 H 0.2328 0.3797 1.1341
C23 C 0.1484(4) 0.4315(3) 1.0414(3)
H23 H 0.1868 0.5052 1.0645
C24 C 0.0632(4) 0.3986(4) 0.9658(3)
C25 C 0.0085(3) 0.2903(3) 0.9325(3)
H24 H -0.0489 0.2672 0.8824
C26 C 0.0366(3) 0.2145(3) 0.9716(3)
H25 H -0.0016 0.1410 0.9477
C27 C 0.0342(5) 0.4829(4) 0.9200(4)
H26 H -0.0450 0.4483 0.9111
H27 H 0.0700 0.5089 0.8511
H28 H 0.0595 0.5448 0.9688
Cl1 Cl 0.24890(15) -0.27032(10) 0.75282(14)
N1 N 0.26444(17) 0.17326(18) 1.00088(18)
O1 O 0.4375(2) 0.2117(2) 0.69950(18)
O2 O 0.27438(19) 0.1870(2) 0.64299(16)
O3 O 0.4672(2) 0.1994(3) 1.1020(2)
O4 O 0.4830(2) 0.3584(2) 1.1626(2)
O5 O 0.21939(17) 0.19009(17) 1.18812(15)
O6 O 0.07624(16) 0.04348(17) 1.07000(17)
S1 S 0.16557(6) 0.15482(6) 1.08519(6)
loop_
_geom_bond_atom_site_label_1
_geom_bond_atom_site_label_2
_geom_bond_site_symmetry_1
_geom_bond_site_symmetry_2
C1 C2 1_555 1_555
C2 H1 1_555 1_555
C3 C2 1_555 1_555
H2 C3 1_555 1_555
C4 C3 1_555 1_555
C5 C4 1_555 1_555
H3 C5 1_555 1_555
C6 C1 1_555 1_555
H4 C6 1_555 1_555
C7 C4 1_555 1_555
H5 C7 1_555 1_555
C8 H6 1_555 1_555
C9 C8 1_555 1_555
H7 C9 1_555 1_555
C10 C9 1_555 1_555
H8 C10 1_555 1_555
H9 C10 1_555 1_555
C11 C10 1_555 1_555
H10 C11 1_555 1_555
C12 C11 1_555 1_555
H11 C12 1_555 1_555
C13 C12 1_555 1_555
H12 C13 1_555 1_555
C14 C13 1_555 1_555
H13 C14 1_555 1_555
C15 C7 1_555 1_555
C16 C15 1_555 1_555
C17 H14 1_555 1_555
H15 C17 1_555 1_555
C18 C17 1_555 1_555
H16 C18 1_555 1_555
H17 C18 1_555 1_555
H18 C18 1_555 1_555
C19 C8 1_555 1_555
C20 H19 1_555 1_555
H20 C20 1_555 1_555
H21 C20 1_555 1_555
C21 C22 1_555 1_555
C22 H22 1_555 1_555
C23 C22 1_555 1_555
H23 C23 1_555 1_555
C24 C23 1_555 1_555
C25 C24 1_555 1_555
H24 C25 1_555 1_555
C26 C21 1_555 1_555
H25 C26 1_555 1_555
C27 C24 1_555 1_555
H26 C27 1_555 1_555
H27 C27 1_555 1_555
H28 C27 1_555 1_555
Cl1 C1 1_555 1_555
N1 C7 1_555 1_555
O1 C16 1_555 1_555
O2 C16 1_555 1_555
O3 C19 1_555 1_555
O4 C19 1_555 1_555
O5 S1 1_555 1_555
O6 S1 1_555 1_555
S1 C21 1_555 1_555
C5 C6 1_555 1_555
C8 N1 1_555 1_555
C9 C15 1_555 1_555
C14 C15 1_555 1_555
C17 O2 1_555 1_555
C20 O4 1_555 1_555
C25 C26 1_555 1_555
N1 S1 1_555 1_555

#END
