
#######################################################################
#
#                 Cambridge Crystallographic Data Centre
#                                CCDC 
#
#######################################################################
#
# If this CIF has been generated from an entry in the Cambridge 
# Structural Database, then it will include bibliographic, chemical, 
# crystal, experimental, refinement or atomic coordinate data resulting 
# from the CCDC's data processing and validation procedures.
#
#######################################################################

data_NUXGEU
_chemical_formula_moiety         'C30 H25 N1 O11'
_chemical_name_systematic        
8,13,15,16-tetrahydroxy-1-(hydroxymethyl)-12-methoxy-1,3a-dimethyl-3a,4,6,7-tetrahydrochromeno[2',3':6,7]naphtho[2,1-g][1,3]oxazolo[3,2-b]isoquinoline-2,14,17(1H)-trione
_symmetry_cell_setting           orthorhombic
_symmetry_space_group_name_H-M   'P 21 21 21'
_symmetry_Int_Tables_number      19
_space_group_name_Hall           'P 2ac 2ab'
loop_
_symmetry_equiv_pos_site_id
_symmetry_equiv_pos_as_xyz
1 x,y,z
2 1/2-x,-y,1/2+z
3 -x,1/2+y,1/2-z
4 1/2+x,1/2-y,-z
_cell_length_a                   8.1965(16)
_cell_length_b                   14.197(3)
_cell_length_c                   21.934(4)
_cell_angle_alpha                90
_cell_angle_beta                 90
_cell_angle_gamma                90
_cell_volume                     2552.37
_exptl_crystal_colour            red
_exptl_crystal_description       block
_cell_formula_units_Z            4
loop_
_atom_site_label
_atom_site_type_symbol
_atom_site_fract_x
_atom_site_fract_y
_atom_site_fract_z
O1 O 0.9595(4) 0.57468(18) 0.03953(12)
O2 O 0.9635(4) 0.5784(2) -0.08197(13)
H1 H 1.0568 0.5697 -0.0943
O3 O 1.0469(4) 1.34556(19) -0.17573(11)
O4 O 1.1985(4) 1.4716(2) -0.15483(13)
O5 O 1.4246(4) 1.2722(2) -0.15303(18)
H2 H 1.3434 1.2764 -0.1747
O6 O 1.2344(3) 1.15893(16) -0.02437(10)
O7 O 1.1217(3) 0.99227(16) -0.00580(9)
H3 H 1.1733 1.0405 0.0012
O8 O 0.8629(4) 0.90879(17) 0.04272(11)
H4 H 0.8658 0.9000 0.0797
O9 O 0.8579(4) 0.80904(18) 0.14145(11)
O10 O 0.8640(4) 0.7085(2) 0.23789(12)
H5 H 0.8535 0.7564 0.2174
O11 O 0.9004(5) 0.5441(2) 0.28895(14)
N1 N 1.1192(4) 1.2477(2) -0.09788(11)
C1 C 0.8933(5) 0.6343(3) 0.20073(18)
C2 C 0.9124(6) 0.5463(3) 0.22695(19)
C3 C 0.9460(6) 0.4711(3) 0.1894(2)
H6 H 0.9596 0.4121 0.2071
C4 C 0.9606(6) 0.4789(3) 0.1267(2)
H7 H 0.9831 0.4267 0.1025
C5 C 0.9403(5) 0.5673(3) 0.10141(17)
C6 C 0.9442(4) 0.6606(3) 0.01194(16)
C7 C 0.9562(5) 0.6617(3) -0.05139(17)
C8 C 0.9516(5) 0.7478(3) -0.08121(15)
C9 C 0.9507(5) 0.7532(3) -0.14944(15)
H8 H 0.9095 0.6946 -0.1663
H9 H 1.0610 0.7625 -0.1643
C10 C 0.8429(5) 0.8348(3) -0.16986(16)
H10 H 0.8428 0.8387 -0.2140
H11 H 0.7317 0.8242 -0.1564
C11 C 0.9061(5) 0.9257(3) -0.14327(15)
C12 C 0.9200(5) 1.0072(3) -0.17757(15)
H12 H 0.8812 1.0079 -0.2174
C13 C 0.9903(5) 1.0873(3) -0.15381(15)
C14 C 1.0083(5) 1.1774(3) -0.18899(15)
H13 H 1.1128 1.1783 -0.2098
H14 H 0.9229 1.1819 -0.2195
C15 C 0.9973(5) 1.2594(3) -0.14623(14)
C16 C 1.1550(6) 1.3934(3) -0.14152(17)
C17 C 1.2121(5) 1.3347(3) -0.08761(16)
C18 C 1.1410(4) 1.1652(3) -0.06940(14)
C19 C 1.0542(5) 1.0835(3) -0.09441(14)
C20 C 1.0446(5) 1.0006(3) -0.06001(13)
C21 C 0.9599(5) 0.9224(3) -0.08299(14)
C22 C 0.9411(4) 0.8338(3) -0.04848(15)
C23 C 0.9066(4) 0.8293(3) 0.01361(15)
C24 C 0.9134(4) 0.7428(3) 0.04488(16)
C25 C 0.8902(5) 0.7372(3) 0.10972(16)
C26 C 0.9065(5) 0.6457(3) 0.13705(17)
C27 C 1.3950(6) 1.3180(3) -0.0966(2)
H15 H 1.4520 1.3779 -0.0959
H16 H 1.4366 1.2796 -0.0635
C28 C 1.1774(7) 1.3828(3) -0.02686(17)
H17 H 1.0620 1.3924 -0.0226
H18 H 1.2324 1.4424 -0.0256
H19 H 1.2158 1.3437 0.0058
C29 C 0.8266(5) 1.2751(3) -0.12133(18)
H20 H 0.8275 1.3278 -0.0939
H21 H 0.7913 1.2198 -0.0999
H22 H 0.7532 1.2877 -0.1544
C30 C 0.8542(11) 0.4676(4) 0.3173(3)
H23 H 0.8537 0.4788 0.3605
H24 H 0.9286 0.4174 0.3081
H25 H 0.7464 0.4506 0.3042
loop_
_geom_bond_atom_site_label_1
_geom_bond_atom_site_label_2
_geom_bond_site_symmetry_1
_geom_bond_site_symmetry_2
O1 C5 1_555 1_555
O2 H1 1_555 1_555
O3 C15 1_555 1_555
O4 C16 1_555 1_555
O5 H2 1_555 1_555
O6 C18 1_555 1_555
O7 H3 1_555 1_555
O8 H4 1_555 1_555
O9 C25 1_555 1_555
O10 H5 1_555 1_555
O11 C2 1_555 1_555
N1 C15 1_555 1_555
C1 O10 1_555 1_555
C2 C1 1_555 1_555
C3 C2 1_555 1_555
H6 C3 1_555 1_555
C4 C3 1_555 1_555
H7 C4 1_555 1_555
C5 C4 1_555 1_555
C6 O1 1_555 1_555
C7 O2 1_555 1_555
C8 C7 1_555 1_555
C9 C8 1_555 1_555
H8 C9 1_555 1_555
H9 C9 1_555 1_555
C10 C9 1_555 1_555
H10 C10 1_555 1_555
H11 C10 1_555 1_555
C11 C10 1_555 1_555
C12 C11 1_555 1_555
H12 C12 1_555 1_555
C13 C12 1_555 1_555
C14 C13 1_555 1_555
H13 C14 1_555 1_555
H14 C14 1_555 1_555
C15 C14 1_555 1_555
C16 O3 1_555 1_555
C17 N1 1_555 1_555
C18 N1 1_555 1_555
C19 C13 1_555 1_555
C20 O7 1_555 1_555
C21 C11 1_555 1_555
C22 C8 1_555 1_555
C23 O8 1_555 1_555
C24 C6 1_555 1_555
C25 C24 1_555 1_555
C26 C1 1_555 1_555
C27 O5 1_555 1_555
H15 C27 1_555 1_555
H16 C27 1_555 1_555
C28 C17 1_555 1_555
H17 C28 1_555 1_555
H18 C28 1_555 1_555
H19 C28 1_555 1_555
C29 C15 1_555 1_555
H20 C29 1_555 1_555
H21 C29 1_555 1_555
H22 C29 1_555 1_555
C30 O11 1_555 1_555
H23 C30 1_555 1_555
H24 C30 1_555 1_555
H25 C30 1_555 1_555
C5 C26 1_555 1_555
C6 C7 1_555 1_555
C16 C17 1_555 1_555
C17 C27 1_555 1_555
C18 C19 1_555 1_555
C19 C20 1_555 1_555
C20 C21 1_555 1_555
C21 C22 1_555 1_555
C22 C23 1_555 1_555
C23 C24 1_555 1_555
C25 C26 1_555 1_555

#END
