
#######################################################################
#
#                 Cambridge Crystallographic Data Centre
#                                CCDC 
#
#######################################################################
#
# If this CIF has been generated from an entry in the Cambridge 
# Structural Database, then it will include bibliographic, chemical, 
# crystal, experimental, refinement or atomic coordinate data resulting 
# from the CCDC's data processing and validation procedures.
#
#######################################################################

data_NUXHUL
_chemical_formula_moiety         'C60 H42 N6 O12'
_chemical_name_systematic        
'1,3,4(2,7)-tris(1,3,6,8-tetraoxo-1,3,6,8-tetrahydrobenzo[lmn][3,8]phenanthroline-2,7-diyl)-2,4,6(1,2)-tris(cyclohexane)cyclohexaphane unknown solvate'
_symmetry_cell_setting           monoclinic
_symmetry_space_group_name_H-M   'C 2'
_symmetry_Int_Tables_number      5
_space_group_name_Hall           'C 2y'
loop_
_symmetry_equiv_pos_site_id
_symmetry_equiv_pos_as_xyz
1 x,y,z
2 -x,y,-z
3 1/2+x,1/2+y,z
4 1/2-x,1/2+y,-z
_cell_length_a                   46.8926(8)
_cell_length_b                   16.3192(3)
_cell_length_c                   40.7083(7)
_cell_angle_alpha                90
_cell_angle_beta                 90.6571(12)
_cell_angle_gamma                90
_cell_volume                     31150
_exptl_crystal_colour            colorless
_exptl_crystal_description       tabular
_cell_formula_units_Z            16
loop_
_atom_site_label
_atom_site_type_symbol
_atom_site_fract_x
_atom_site_fract_y
_atom_site_fract_z
O1 O 0.70501(7) 0.16763(19) 0.61784(8)
O2 O 0.76005(7) 0.55553(19) 0.57840(9)
O3 O 0.83660(5) 0.50601(15) 0.64473(6)
O4 O 0.77847(7) 0.1274(2) 0.68910(9)
O5 O 0.81052(7) 0.5605(2) 0.52704(8)
O6 O 0.83630(9) 0.2233(3) 0.42529(10)
O7 O 0.91558(6) 0.1608(2) 0.48686(8)
O8 O 0.88749(7) 0.49370(18) 0.59000(8)
O9 O 0.82198(6) 0.0360(2) 0.44078(8)
O10 O 0.71827(7) 0.0366(2) 0.56337(8)
O11 O 0.78539(8) -0.0334(2) 0.63960(8)
O12 O 0.89115(7) -0.0058(3) 0.51775(8)
N1 N 0.74369(7) 0.14230(19) 0.64976(9)
N2 N 0.79963(7) 0.52860(19) 0.60759(8)
N3 N 0.84758(7) 0.52530(18) 0.56129(8)
N4 N 0.87470(8) 0.1864(2) 0.45718(9)
N5 N 0.85722(7) 0.0236(2) 0.47973(8)
N6 N 0.75205(6) 0.00755(16) 0.60215(7)
C1 C 0.72873(8) 0.0028(2) 0.62753(9)
H1 H 0.7113 0.0250 0.6168
C2 C 0.72177(13) -0.0861(3) 0.63676(15)
H2 H 0.7176 -0.1178 0.6168
H3 H 0.7383 -0.1111 0.6478
C3 C 0.69631(13) -0.0884(4) 0.65925(16)
H4 H 0.6932 -0.1447 0.6667
H5 H 0.6793 -0.0710 0.6470
C4 C 0.70067(12) -0.0310(4) 0.68993(18)
H6 H 0.6833 -0.0307 0.7031
H7 H 0.7163 -0.0520 0.7037
C5 C 0.70750(10) 0.0561(3) 0.67899(13)
H8 H 0.7105 0.0910 0.6983
H9 H 0.6914 0.0783 0.6663
C6 C 0.73422(10) 0.0565(3) 0.65802(11)
H10 H 0.7497 0.0304 0.6710
C7 C 0.72701(9) 0.1904(3) 0.62918(10)
C8 C 0.73894(8) 0.2721(2) 0.62094(10)
C9 C 0.72416(9) 0.3235(3) 0.59944(11)
H11 H 0.7064 0.3072 0.5907
C10 C 0.73596(10) 0.4013(3) 0.59054(12)
H12 H 0.7265 0.4351 0.5753
C11 C 0.76129(8) 0.4257(2) 0.60454(11)
C12 C 0.77331(8) 0.5085(2) 0.59538(9)
C13 C 0.81381(9) 0.4828(3) 0.63354(10)
C14 C 0.80079(8) 0.4073(3) 0.64325(10)
C15 C 0.81320(8) 0.3576(2) 0.66840(11)
H13 H 0.8299 0.3763 0.6790
C16 C 0.80210(9) 0.2846(3) 0.67776(11)
H14 H 0.8105 0.2558 0.6954
C17 C 0.77743(8) 0.2503(3) 0.66088(10)
C18 C 0.76668(9) 0.1692(3) 0.66770(10)
C19 C 0.76428(8) 0.2991(2) 0.63606(9)
C20 C 0.77526(8) 0.3775(2) 0.62813(9)
C21 C 0.81247(9) 0.6055(2) 0.59542(10)
H15 H 0.8005 0.6248 0.5768
C22 C 0.81265(11) 0.6745(3) 0.62163(12)
H16 H 0.7935 0.6809 0.6306
H17 H 0.8256 0.6596 0.6397
C23 C 0.82210(11) 0.7537(3) 0.60673(13)
H18 H 0.8081 0.7708 0.5901
H19 H 0.8227 0.7960 0.6238
C24 C 0.85058(11) 0.7479(3) 0.59132(14)
H20 H 0.8652 0.7398 0.6084
H21 H 0.8548 0.7993 0.5799
C25 C 0.85176(10) 0.6756(3) 0.56639(12)
H22 H 0.8392 0.6873 0.5476
H23 H 0.8712 0.6697 0.5582
C26 C 0.84255(9) 0.5965(2) 0.58277(11)
H24 H 0.8551 0.5892 0.6023
C27 C 0.82933(8) 0.5145(2) 0.53296(9)
C28 C 0.83469(9) 0.4407(2) 0.51290(10)
C29 C 0.81709(11) 0.4222(3) 0.48633(12)
H25 H 0.8013 0.4563 0.4820
C30 C 0.82159(13) 0.3583(4) 0.46670(15)
H26 H 0.8087 0.3471 0.4494
C31 C 0.84579(10) 0.3065(3) 0.47170(11)
C32 C 0.85149(11) 0.2364(3) 0.44944(13)
C33 C 0.89443(10) 0.2050(3) 0.48211(10)
C34 C 0.88896(8) 0.2778(2) 0.50290(11)
C35 C 0.90812(9) 0.2971(3) 0.52881(10)
H27 H 0.9241 0.2638 0.5327
C36 C 0.90348(9) 0.3634(2) 0.54796(10)
H28 H 0.9171 0.3789 0.5639
C37 C 0.87799(10) 0.4096(2) 0.54404(11)
C38 C 0.87186(9) 0.4789(2) 0.56699(10)
C39 C 0.85940(8) 0.3932(2) 0.51796(9)
C40 C 0.86449(10) 0.3267(3) 0.49766(10)
C41 C 0.87801(10) 0.1122(3) 0.43578(10)
H29 H 0.8609 0.1095 0.4214
C42 C 0.90472(12) 0.1228(4) 0.41260(12)
H30 H 0.9028 0.1727 0.3993
H31 H 0.9223 0.1265 0.4257
C43 C 0.90521(12) 0.0476(5) 0.39069(14)
H32 H 0.8883 0.0490 0.3763
H33 H 0.9220 0.0509 0.3767
C44 C 0.90579(13) -0.0333(4) 0.40826(16)
H34 H 0.9233 -0.0381 0.4215
H35 H 0.9053 -0.0782 0.3923
C45 C 0.88010(10) -0.0379(3) 0.43017(13)
H36 H 0.8627 -0.0366 0.4166
H37 H 0.8804 -0.0899 0.4422
C46 C 0.87965(10) 0.0321(3) 0.45423(12)
H38 H 0.8983 0.0315 0.4660
C47 C 0.82888(9) 0.0308(3) 0.46994(12)
C48 C 0.80706(8) 0.0321(3) 0.49598(11)
C49 C 0.77773(10) 0.0492(3) 0.48830(12)
H39 H 0.7721 0.0618 0.4667
C50 C 0.75819(9) 0.0469(3) 0.51283(11)
H40 H 0.7391 0.0598 0.5077
C51 C 0.76498(8) 0.0269(2) 0.54452(10)
C52 C 0.74353(9) 0.0239(3) 0.56974(10)
C53 C 0.77972(10) -0.0145(3) 0.60965(11)
C54 C 0.80116(9) -0.0127(2) 0.58520(12)
C55 C 0.82948(9) -0.0342(2) 0.59242(11)
H41 H 0.8347 -0.0518 0.6136
C56 C 0.84962(9) -0.0293(3) 0.56826(11)
H42 H 0.8686 -0.0422 0.5737
C57 C 0.84342(8) -0.0068(2) 0.53687(11)
C58 C 0.86539(8) 0.0034(3) 0.51134(11)
C59 C 0.81495(7) 0.01062(18) 0.52760(8)
C60 C 0.79401(7) 0.0089(2) 0.55287(8)
O13 O 0.36437(7) 0.8799(2) 0.73632(7)
O14 O 0.45529(6) 0.9149(2) 0.60157(7)
O15 O 0.53180(6) 0.8653(2) 0.66756(8)
O16 O 0.44059(6) 0.8449(2) 0.80441(7)
O17 O 0.47955(7) 0.75960(19) 0.56578(8)
O18 O 0.40965(7) 0.3866(2) 0.59593(9)
O19 O 0.47728(7) 0.31968(18) 0.67269(9)
O20 O 0.54796(6) 0.6907(2) 0.64110(7)
O21 O 0.37253(7) 0.35986(19) 0.65868(8)
O22 O 0.33003(8) 0.7125(2) 0.74404(8)
O23 O 0.40329(7) 0.6756(2) 0.81685(8)
O24 O 0.43922(7) 0.30825(19) 0.73845(8)
N7 N 0.40187(7) 0.85258(19) 0.77017(8)
N8 N 0.49333(6) 0.8818(2) 0.63377(8)
N9 N 0.51343(7) 0.72881(18) 0.60494(8)
N10 N 0.44212(6) 0.35664(19) 0.63700(8)
N11 N 0.40838(6) 0.33793(17) 0.69676(8)
N12 N 0.36836(7) 0.7002(2) 0.77826(7)
C61 C 0.35947(9) 0.7784(2) 0.79440(10)
H43 H 0.3452 0.8052 0.7798
C62 C 0.34510(11) 0.7631(3) 0.82790(12)
H44 H 0.3299 0.7224 0.8252
H45 H 0.3592 0.7413 0.8436
C63 C 0.33267(12) 0.8425(3) 0.84120(12)
H46 H 0.3170 0.8609 0.8269
H47 H 0.3250 0.8330 0.8632
C64 C 0.35508(11) 0.9071(3) 0.84294(12)
H48 H 0.3463 0.9588 0.8497
H49 H 0.3691 0.8919 0.8599
C65 C 0.37011(11) 0.9205(3) 0.81140(11)
H50 H 0.3847 0.9628 0.8143
H51 H 0.3565 0.9394 0.7946
C66 C 0.38418(10) 0.8395(2) 0.80000(10)
H52 H 0.3966 0.8187 0.8179
C67 C 0.38979(9) 0.8704(3) 0.73983(10)
C68 C 0.40906(8) 0.8784(2) 0.71148(9)
C69 C 0.39822(8) 0.8967(2) 0.68097(9)
H53 H 0.3785 0.9056 0.6782
C70 C 0.41637(8) 0.9025(2) 0.65374(11)
H54 H 0.4087 0.9146 0.6329
C71 C 0.44500(8) 0.8906(2) 0.65734(10)
C72 C 0.46452(8) 0.8978(3) 0.62895(10)
C73 C 0.50608(9) 0.8730(2) 0.66523(10)
C74 C 0.48630(8) 0.8683(2) 0.69398(9)
C75 C 0.49784(9) 0.8585(3) 0.72508(10)
H55 H 0.5177 0.8549 0.7282
C76 C 0.47955(9) 0.8539(3) 0.75170(11)
H56 H 0.4873 0.8473 0.7729
C77 C 0.45052(9) 0.8588(3) 0.74772(9)
C78 C 0.43093(9) 0.8519(3) 0.77691(10)
C79 C 0.43874(8) 0.8706(2) 0.71635(10)
C80 C 0.45723(8) 0.8770(2) 0.68891(9)
C81 C 0.51111(9) 0.8826(2) 0.60478(11)
H57 H 0.4980 0.8884 0.5857
C82 C 0.53189(10) 0.9583(3) 0.60372(12)
H58 H 0.5213 1.0091 0.6076
H59 H 0.5467 0.9529 0.6208
C83 C 0.54548(10) 0.9603(3) 0.56984(12)
H60 H 0.5305 0.9679 0.5532
H61 H 0.5584 1.0075 0.5687
C84 C 0.56189(12) 0.8837(4) 0.56211(14)
H62 H 0.5782 0.8783 0.5773
H63 H 0.5691 0.8865 0.5397
C85 C 0.54221(10) 0.8108(3) 0.56558(12)
H64 H 0.5270 0.8145 0.5489
H65 H 0.5530 0.7605 0.5614
C86 C 0.52921(9) 0.8055(2) 0.59843(12)
H66 H 0.5452 0.8071 0.6145
C87 C 0.48763(9) 0.7107(3) 0.58726(12)
C88 C 0.47372(9) 0.6343(2) 0.59344(10)
C89 C 0.44847(9) 0.6122(3) 0.57631(13)
H67 H 0.4405 0.6481 0.5607
C90 C 0.43567(10) 0.5388(3) 0.58244(14)
H68 H 0.4189 0.5259 0.5707
C91 C 0.44561(8) 0.4841(3) 0.60419(11)
C92 C 0.43080(10) 0.4053(3) 0.61068(12)
C93 C 0.46751(9) 0.3701(2) 0.65262(11)
C94 C 0.48230(8) 0.4467(2) 0.64447(10)
C95 C 0.50885(8) 0.4634(3) 0.66043(10)
H69 H 0.5169 0.4250 0.6751
C96 C 0.52292(9) 0.5373(3) 0.65413(11)
H70 H 0.5404 0.5483 0.6647
C97 C 0.51141(8) 0.5948(2) 0.63238(10)
C98 C 0.52558(9) 0.6731(3) 0.62665(10)
C99 C 0.48478(8) 0.5775(2) 0.61610(9)
C100 C 0.47130(8) 0.5034(2) 0.62209(10)
C101 C 0.42584(9) 0.2772(2) 0.64301(11)
H71 H 0.4075 0.2815 0.6309
C102 C 0.44160(10) 0.2018(2) 0.62944(11)
H72 H 0.4466 0.2110 0.6064
H73 H 0.4592 0.1925 0.6420
C103 C 0.42249(11) 0.1294(3) 0.63214(15)
H74 H 0.4330 0.0802 0.6258
H75 H 0.4065 0.1358 0.6167
C104 C 0.41087(11) 0.1178(3) 0.66670(14)
H76 H 0.3963 0.0746 0.6661
H77 H 0.4264 0.0990 0.6811
C105 C 0.39821(9) 0.1927(3) 0.68101(11)
H78 H 0.3933 0.1825 0.7040
H79 H 0.3806 0.2066 0.6690
C106 C 0.41892(9) 0.2638(2) 0.67922(11)
H80 H 0.4368 0.2463 0.6904
C107 C 0.38521(9) 0.3819(3) 0.68323(11)
C108 C 0.37591(10) 0.4558(3) 0.70203(10)
C109 C 0.35300(8) 0.5025(2) 0.69123(10)
H81 H 0.3426 0.4856 0.6725
C110 C 0.34504(9) 0.5730(3) 0.70732(11)
H82 H 0.3291 0.6030 0.6998
C111 C 0.36019(9) 0.5995(2) 0.73418(10)
C112 C 0.35097(9) 0.6731(3) 0.75203(10)
C113 C 0.39051(10) 0.6536(3) 0.79266(11)
C114 C 0.39729(8) 0.5752(2) 0.77640(10)
C115 C 0.41779(10) 0.5247(3) 0.78975(11)
H83 H 0.4264 0.5387 0.8100
C116 C 0.42621(9) 0.4520(3) 0.77352(11)
H84 H 0.4404 0.4183 0.7828
C117 C 0.41300(8) 0.4307(2) 0.74314(10)
C118 C 0.42127(9) 0.3549(3) 0.72566(12)
C119 C 0.39115(8) 0.4803(2) 0.73057(9)
C120 C 0.38299(9) 0.5527(2) 0.74678(10)
O25 O 0.59039(7) 0.8110(2) 0.88804(10)
O26 O 0.52550(7) 0.4507(2) 0.94512(9)
O27 O 0.45291(7) 0.48425(19) 0.87091(9)
O28 O 0.51200(7) 0.86218(19) 0.82530(9)
O29 O 0.53068(7) 0.2891(2) 0.90075(8)
O30 O 0.63518(7) 0.2797(2) 0.77904(7)
O31 O 0.56707(6) 0.3141(2) 0.70054(8)
O32 O 0.46212(7) 0.3244(2) 0.82275(9)
O33 O 0.66233(7) 0.4385(2) 0.74274(9)
O34 O 0.64082(7) 0.7969(2) 0.83541(8)
O35 O 0.56307(7) 0.85751(19) 0.77177(8)
O36 O 0.58255(8) 0.4962(2) 0.68384(9)
N13 N 0.55239(7) 0.83414(19) 0.85362(8)
N14 N 0.49107(7) 0.4611(2) 0.90469(9)
N15 N 0.49621(7) 0.3161(2) 0.86261(9)
N16 N 0.60199(7) 0.3062(2) 0.73958(8)
N17 N 0.62157(6) 0.4625(2) 0.71429(8)
N18 N 0.59959(7) 0.82362(18) 0.80733(9)
C121 C 0.59546(9) 0.8984(2) 0.82724(11)
H85 H 0.6086 0.8932 0.8463
C122 C 0.60432(13) 0.9743(3) 0.80952(14)
H86 H 0.5913 0.9841 0.7910
H87 H 0.6235 0.9666 0.8008
C123 C 0.60420(13) 1.0489(3) 0.83237(16)
H88 H 0.6187 1.0414 0.8497
H89 H 0.6092 1.0980 0.8198
C124 C 0.57665(16) 1.0606(3) 0.84729(15)
H90 H 0.5627 1.0761 0.8303
H91 H 0.5779 1.1056 0.8632
C125 C 0.56553(12) 0.9789(3) 0.86582(12)
H92 H 0.5779 0.9664 0.8848
H93 H 0.5460 0.9869 0.8736
C126 C 0.56643(11) 0.9095(2) 0.84114(13)
H94 H 0.5543 0.9280 0.8225
C127 C 0.56760(9) 0.7872(3) 0.87721(12)
C128 C 0.55344(9) 0.7107(3) 0.89048(11)
C129 C 0.56618(9) 0.6639(3) 0.91331(12)
H95 H 0.5838 0.6805 0.9222
C130 C 0.55429(9) 0.5932(3) 0.92389(11)
H96 H 0.5633 0.5622 0.9405
C131 C 0.52875(9) 0.5669(3) 0.91017(11)
C132 C 0.51544(9) 0.4875(3) 0.92166(12)
C133 C 0.47545(9) 0.5082(3) 0.88285(11)
C134 C 0.48824(9) 0.5896(2) 0.87309(11)
C135 C 0.47320(10) 0.6397(3) 0.85279(11)
H97 H 0.4550 0.6241 0.8451
C136 C 0.48483(10) 0.7140(3) 0.84339(11)
H98 H 0.4741 0.7492 0.8298
C137 C 0.51170(9) 0.7373(2) 0.85357(10)
C138 C 0.52493(9) 0.8168(3) 0.84282(10)
C139 C 0.52650(9) 0.6853(2) 0.87609(10)
C140 C 0.51405(9) 0.6121(3) 0.88586(11)
C141 C 0.47942(9) 0.3811(3) 0.91553(12)
H99 H 0.4946 0.3556 0.9291
C142 C 0.45365(11) 0.3867(3) 0.93734(13)
H100 H 0.4376 0.4103 0.9248
H101 H 0.4579 0.4233 0.9559
C143 C 0.44523(13) 0.3033(4) 0.95030(13)
H102 H 0.4598 0.2843 0.9660
H103 H 0.4272 0.3081 0.9621
C144 C 0.44191(12) 0.2412(3) 0.92351(14)
H104 H 0.4388 0.1873 0.9334
H105 H 0.4249 0.2548 0.9103
C145 C 0.46684(12) 0.2363(3) 0.90153(13)
H106 H 0.4628 0.1971 0.8838
H107 H 0.4834 0.2163 0.9140
C146 C 0.47362(9) 0.3205(2) 0.88672(11)
H108 H 0.4562 0.3396 0.8751
C147 C 0.52447(10) 0.3002(3) 0.87232(12)
C148 C 0.54667(9) 0.2959(2) 0.84608(10)
C149 C 0.57476(9) 0.2810(3) 0.85457(11)
H109 H 0.5800 0.2729 0.8767
C150 C 0.59554(10) 0.2781(3) 0.83004(10)
H110 H 0.6147 0.2674 0.8355
C151 C 0.58733(8) 0.2910(3) 0.79774(10)
C152 C 0.61038(9) 0.2922(3) 0.77197(11)
C153 C 0.57292(8) 0.3100(3) 0.72899(10)
C154 C 0.55133(9) 0.3137(3) 0.75557(10)
C155 C 0.52296(9) 0.3194(3) 0.74720(11)
H111 H 0.5174 0.3211 0.7249
C156 C 0.50226(9) 0.3228(3) 0.77153(12)
H112 H 0.4830 0.3295 0.7655
C157 C 0.50972(9) 0.3163(2) 0.80483(11)
C158 C 0.48830(9) 0.3192(2) 0.82941(11)
C159 C 0.53783(9) 0.3074(2) 0.81313(9)
C160 C 0.55964(9) 0.3053(2) 0.78893(9)
C161 C 0.62480(9) 0.3090(3) 0.71489(11)
H113 H 0.6430 0.3105 0.7274
C162 C 0.62605(11) 0.2338(3) 0.69350(12)
H114 H 0.6082 0.2288 0.6809
H115 H 0.6280 0.1851 0.7074
C163 C 0.65098(14) 0.2377(4) 0.66984(15)
H116 H 0.6689 0.2346 0.6824
H117 H 0.6501 0.1904 0.6550
C164 C 0.65065(14) 0.3146(4) 0.65000(14)
H118 H 0.6339 0.3149 0.6354
H119 H 0.6678 0.3171 0.6364
C165 C 0.64977(11) 0.3878(4) 0.67237(13)
H120 H 0.6671 0.3890 0.6861
H121 H 0.6493 0.4379 0.6592
C166 C 0.62430(9) 0.3853(3) 0.69385(10)
H122 H 0.6072 0.3819 0.6794
C167 C 0.64236(9) 0.4828(3) 0.73758(12)
C168 C 0.63722(8) 0.5579(3) 0.75778(11)
C169 C 0.65533(10) 0.5792(3) 0.78168(13)
H123 H 0.6713 0.5458 0.7859
C170 C 0.65140(9) 0.6507(3) 0.80113(12)
H124 H 0.6645 0.6635 0.8180
C171 C 0.62841(9) 0.7012(3) 0.79513(11)
C172 C 0.62309(10) 0.7767(3) 0.81446(12)
C173 C 0.58230(10) 0.8094(3) 0.77838(11)
C174 C 0.58719(10) 0.7373(3) 0.75948(11)
C175 C 0.57089(11) 0.7191(3) 0.73246(13)
H125 H 0.5563 0.7555 0.7262
C176 C 0.57527(10) 0.6466(3) 0.71331(11)
H126 H 0.5642 0.6362 0.6943
C177 C 0.59571(10) 0.5938(3) 0.72335(11)
C178 C 0.59868(9) 0.5157(3) 0.70528(10)
C179 C 0.61409(8) 0.6096(2) 0.74926(10)
C180 C 0.61019(8) 0.6827(3) 0.76798(11)
O37 O 0.65382(8) 0.5075(2) 1.06994(8)
O38 O 0.68445(8) 0.1277(2) 0.99731(9)
O39 O 0.61359(6) 0.16967(18) 0.92208(8)
O40 O 0.57912(7) 0.5403(2) 0.99808(8)
O41 O 0.71948(6) 0.11815(19) 0.93332(8)
O42 O 0.79812(7) 0.46992(19) 0.89292(7)
O43 O 0.73340(7) 0.5314(2) 0.81331(8)
O44 O 0.65366(7) 0.18561(19) 0.85486(9)
O45 O 0.78507(7) 0.6517(2) 0.91380(8)
O46 O 0.69566(8) 0.6485(3) 1.05032(8)
O47 O 0.61918(7) 0.6989(2) 0.98277(8)
O48 O 0.70918(7) 0.6951(2) 0.84645(9)
N19 N 0.61877(8) 0.5282(2) 1.03194(8)
N20 N 0.65065(7) 0.15038(19) 0.95743(8)
N21 N 0.68479(7) 0.15472(19) 0.89678(8)
N22 N 0.76507(7) 0.5044(2) 0.85393(8)
N23 N 0.74749(7) 0.6634(2) 0.87859(9)
N24 N 0.65675(8) 0.6668(2) 1.01664(9)
C181 C 0.63823(10) 0.6700(3) 1.04612(13)
H127 H 0.6503 0.6508 1.0647
C182 C 0.62860(12) 0.7566(3) 1.05530(15)
H128 H 0.6452 0.7932 1.0558
H129 H 0.6152 0.7770 1.0386
C183 C 0.61514(16) 0.7570(4) 1.08677(16)
H130 H 0.6086 0.8128 1.0915
H131 H 0.6293 0.7422 1.1036
C184 C 0.58957(13) 0.6983(4) 1.08942(16)
H132 H 0.5828 0.6980 1.1121
H133 H 0.5740 0.7179 1.0752
C185 C 0.59765(11) 0.6107(3) 1.07935(14)
H134 H 0.6111 0.5876 1.0955
H135 H 0.5806 0.5762 1.0788
C186 C 0.61133(11) 0.6120(3) 1.04539(12)
H136 H 0.5973 0.6367 1.0300
C187 C 0.64035(11) 0.4812(3) 1.04499(12)
C188 C 0.64672(9) 0.4010(3) 1.03030(10)
C189 C 0.66736(11) 0.3536(3) 1.04242(12)
H137 H 0.6778 0.3721 1.0608
C190 C 0.67425(12) 0.2767(3) 1.02876(13)
H138 H 0.6888 0.2440 1.0379
C191 C 0.65910(9) 0.2516(3) 1.00188(12)
C192 C 0.66641(9) 0.1729(3) 0.98572(11)
C193 C 0.62733(9) 0.1924(3) 0.94642(11)
C194 C 0.61943(9) 0.2684(3) 0.96234(10)
C195 C 0.59459(9) 0.3132(3) 0.95411(10)
H139 H 0.5821 0.2920 0.9381
C196 C 0.58808(9) 0.3867(3) 0.96877(10)
H140 H 0.5717 0.4157 0.9620
C197 C 0.60522(8) 0.4179(3) 0.99312(9)
C198 C 0.59944(10) 0.4988(3) 1.00641(11)
C199 C 0.62980(8) 0.3723(2) 1.00423(10)
C200 C 0.63568(8) 0.2985(2) 0.98981(10)
C201 C 0.65929(9) 0.0746(2) 0.94105(11)
H141 H 0.6770 0.0574 0.9527
C202 C 0.63759(9) 0.0031(2) 0.94713(12)
H142 H 0.6344 -0.0027 0.9708
H143 H 0.6193 0.0163 0.9365
C203 C 0.64831(16) -0.0738(3) 0.93405(17)
H144 H 0.6333 -0.1153 0.9354
H145 H 0.6644 -0.0923 0.9477
C204 C 0.65856(12) -0.0672(3) 0.89662(16)
H146 H 0.6681 -0.1182 0.8903
H147 H 0.6419 -0.0599 0.8821
C205 C 0.67868(11) 0.0037(3) 0.89242(13)
H148 H 0.6966 -0.0087 0.9039
H149 H 0.6829 0.0099 0.8690
C206 C 0.66765(9) 0.0806(2) 0.90467(11)
H150 H 0.6494 0.0886 0.8927
C207 C 0.71138(9) 0.1644(3) 0.91305(11)
C208 C 0.72809(8) 0.2402(3) 0.90372(11)
C209 C 0.75240(10) 0.2579(3) 0.91947(11)
H151 H 0.7588 0.2232 0.9365
C210 C 0.76881(10) 0.3272(3) 0.91128(11)
H152 H 0.7863 0.3376 0.9220
C211 C 0.75868(8) 0.3796(2) 0.88718(10)
C212 C 0.77611(9) 0.4529(3) 0.87916(10)
C213 C 0.74095(7) 0.4860(2) 0.83484(9)
C214 C 0.72520(9) 0.4108(2) 0.84329(10)
C215 C 0.70128(10) 0.3907(3) 0.82630(13)
H153 H 0.6955 0.4238 0.8085
C216 C 0.68471(10) 0.3211(3) 0.83459(12)
H154 H 0.6681 0.3090 0.8224
C217 C 0.69267(9) 0.2719(3) 0.85992(11)
C218 C 0.67505(11) 0.2037(3) 0.86953(11)
C219 C 0.71825(8) 0.2901(2) 0.87743(9)
C220 C 0.73449(8) 0.3617(3) 0.86915(10)
C221 C 0.78234(10) 0.5782(3) 0.84621(12)
H155 H 0.7976 0.5808 0.8631
C222 C 0.79653(11) 0.5736(4) 0.81474(14)
H156 H 0.7822 0.5735 0.7970
H157 H 0.8074 0.5225 0.8134
C223 C 0.81686(16) 0.6475(4) 0.81047(19)
H158 H 0.8319 0.6458 0.8274
H159 H 0.8259 0.6446 0.7889
C224 C 0.79997(14) 0.7278(5) 0.81330(18)
H160 H 0.8130 0.7745 0.8118
H161 H 0.7861 0.7316 0.7951
C225 C 0.78547(13) 0.7307(4) 0.84370(16)
H162 H 0.7747 0.7821 0.8448
H163 H 0.7997 0.7314 0.8616
C226 C 0.76492(10) 0.6595(3) 0.84950(12)
H164 H 0.7514 0.6601 0.8306
C227 C 0.75945(10) 0.6568(3) 0.91016(13)
C228 C 0.74028(9) 0.6558(2) 0.93907(11)
C229 C 0.75069(9) 0.6388(3) 0.96874(15)
H165 H 0.7703 0.6281 0.9712
C230 C 0.73360(11) 0.6363(3) 0.99617(13)
H166 H 0.7415 0.6236 1.0169
C231 C 0.70418(9) 0.6530(2) 0.99295(11)
C232 C 0.68589(10) 0.6549(3) 1.02195(12)
C233 C 0.64419(12) 0.6865(3) 0.98474(12)
C234 C 0.66393(9) 0.6883(2) 0.95733(11)
C235 C 0.65327(10) 0.7078(3) 0.92681(13)
H167 H 0.6339 0.7209 0.9242
C236 C 0.67134(9) 0.7083(2) 0.89952(12)
H168 H 0.6638 0.7218 0.8787
C237 C 0.69986(9) 0.6894(2) 0.90271(11)
C238 C 0.71785(9) 0.6845(3) 0.87408(12)
C239 C 0.71143(9) 0.6698(2) 0.93474(11)
C240 C 0.69280(10) 0.6708(2) 0.96185(11)
loop_
_geom_bond_atom_site_label_1
_geom_bond_atom_site_label_2
_geom_bond_site_symmetry_1
_geom_bond_site_symmetry_2
O1 C7 1_555 1_555
O2 C12 1_555 1_555
O3 C13 1_555 1_555
O4 C18 1_555 1_555
O5 C27 1_555 1_555
O6 C32 1_555 1_555
O7 C33 1_555 1_555
O8 C38 1_555 1_555
O9 C47 1_555 1_555
O10 C52 1_555 1_555
O11 C53 1_555 1_555
O12 C58 1_555 1_555
N1 C6 1_555 1_555
N2 C12 1_555 1_555
N3 C26 1_555 1_555
N4 C32 1_555 1_555
N5 C46 1_555 1_555
N6 C1 1_555 1_555
C1 H1 1_555 1_555
C2 C1 1_555 1_555
H2 C2 1_555 1_555
H3 C2 1_555 1_555
C3 C2 1_555 1_555
H4 C3 1_555 1_555
H5 C3 1_555 1_555
C4 C3 1_555 1_555
H6 C4 1_555 1_555
H7 C4 1_555 1_555
C5 C4 1_555 1_555
H8 C5 1_555 1_555
H9 C5 1_555 1_555
C6 C1 1_555 1_555
H10 C6 1_555 1_555
C7 N1 1_555 1_555
C8 C7 1_555 1_555
C9 C8 1_555 1_555
H11 C9 1_555 1_555
C10 C9 1_555 1_555
H12 C10 1_555 1_555
C11 C10 1_555 1_555
C12 C11 1_555 1_555
C13 N2 1_555 1_555
C14 C13 1_555 1_555
C15 C14 1_555 1_555
H13 C15 1_555 1_555
C16 C15 1_555 1_555
H14 C16 1_555 1_555
C17 C16 1_555 1_555
C18 N1 1_555 1_555
C19 C8 1_555 1_555
C20 C11 1_555 1_555
C21 N2 1_555 1_555
H15 C21 1_555 1_555
C22 C21 1_555 1_555
H16 C22 1_555 1_555
H17 C22 1_555 1_555
C23 C22 1_555 1_555
H18 C23 1_555 1_555
H19 C23 1_555 1_555
C24 C23 1_555 1_555
H20 C24 1_555 1_555
H21 C24 1_555 1_555
C25 C24 1_555 1_555
H22 C25 1_555 1_555
H23 C25 1_555 1_555
C26 C21 1_555 1_555
H24 C26 1_555 1_555
C27 N3 1_555 1_555
C28 C27 1_555 1_555
C29 C28 1_555 1_555
H25 C29 1_555 1_555
C30 C29 1_555 1_555
H26 C30 1_555 1_555
C31 C30 1_555 1_555
C32 C31 1_555 1_555
C33 N4 1_555 1_555
C34 C33 1_555 1_555
C35 C34 1_555 1_555
H27 C35 1_555 1_555
C36 C35 1_555 1_555
H28 C36 1_555 1_555
C37 C36 1_555 1_555
C38 N3 1_555 1_555
C39 C28 1_555 1_555
C40 C31 1_555 1_555
C41 N4 1_555 1_555
H29 C41 1_555 1_555
C42 C41 1_555 1_555
H30 C42 1_555 1_555
H31 C42 1_555 1_555
C43 C42 1_555 1_555
H32 C43 1_555 1_555
H33 C43 1_555 1_555
C44 C43 1_555 1_555
H34 C44 1_555 1_555
H35 C44 1_555 1_555
C45 C44 1_555 1_555
H36 C45 1_555 1_555
H37 C45 1_555 1_555
C46 C41 1_555 1_555
H38 C46 1_555 1_555
C47 N5 1_555 1_555
C48 C47 1_555 1_555
C49 C48 1_555 1_555
H39 C49 1_555 1_555
C50 C49 1_555 1_555
H40 C50 1_555 1_555
C51 C50 1_555 1_555
C52 N6 1_555 1_555
C53 N6 1_555 1_555
C54 C53 1_555 1_555
C55 C54 1_555 1_555
H41 C55 1_555 1_555
C56 C55 1_555 1_555
H42 C56 1_555 1_555
C57 C56 1_555 1_555
C58 N5 1_555 1_555
C59 C48 1_555 1_555
C60 C51 1_555 1_555
O13 C67 1_555 1_555
O14 C72 1_555 1_555
O15 C73 1_555 1_555
O16 C78 1_555 1_555
O17 C87 1_555 1_555
O18 C92 1_555 1_555
O19 C93 1_555 1_555
O20 C98 1_555 1_555
O21 C107 1_555 1_555
O22 C112 1_555 1_555
O23 C113 1_555 1_555
O24 C118 1_555 1_555
N7 C66 1_555 1_555
N8 C72 1_555 1_555
N9 C86 1_555 1_555
N10 C92 1_555 1_555
N11 C106 1_555 1_555
N12 C61 1_555 1_555
C61 H43 1_555 1_555
C62 C61 1_555 1_555
H44 C62 1_555 1_555
H45 C62 1_555 1_555
C63 C62 1_555 1_555
H46 C63 1_555 1_555
H47 C63 1_555 1_555
C64 C63 1_555 1_555
H48 C64 1_555 1_555
H49 C64 1_555 1_555
C65 C64 1_555 1_555
H50 C65 1_555 1_555
H51 C65 1_555 1_555
C66 C61 1_555 1_555
H52 C66 1_555 1_555
C67 N7 1_555 1_555
C68 C67 1_555 1_555
C69 C68 1_555 1_555
H53 C69 1_555 1_555
C70 C69 1_555 1_555
H54 C70 1_555 1_555
C71 C70 1_555 1_555
C72 C71 1_555 1_555
C73 N8 1_555 1_555
C74 C73 1_555 1_555
C75 C74 1_555 1_555
H55 C75 1_555 1_555
C76 C75 1_555 1_555
H56 C76 1_555 1_555
C77 C76 1_555 1_555
C78 N7 1_555 1_555
C79 C68 1_555 1_555
C80 C71 1_555 1_555
C81 N8 1_555 1_555
H57 C81 1_555 1_555
C82 C81 1_555 1_555
H58 C82 1_555 1_555
H59 C82 1_555 1_555
C83 C82 1_555 1_555
H60 C83 1_555 1_555
H61 C83 1_555 1_555
C84 C83 1_555 1_555
H62 C84 1_555 1_555
H63 C84 1_555 1_555
C85 C84 1_555 1_555
H64 C85 1_555 1_555
H65 C85 1_555 1_555
C86 C81 1_555 1_555
H66 C86 1_555 1_555
C87 N9 1_555 1_555
C88 C87 1_555 1_555
C89 C88 1_555 1_555
H67 C89 1_555 1_555
C90 C89 1_555 1_555
H68 C90 1_555 1_555
C91 C90 1_555 1_555
C92 C91 1_555 1_555
C93 N10 1_555 1_555
C94 C93 1_555 1_555
C95 C94 1_555 1_555
H69 C95 1_555 1_555
C96 C95 1_555 1_555
H70 C96 1_555 1_555
C97 C96 1_555 1_555
C98 N9 1_555 1_555
C99 C88 1_555 1_555
C100 C91 1_555 1_555
C101 N10 1_555 1_555
H71 C101 1_555 1_555
C102 C101 1_555 1_555
H72 C102 1_555 1_555
H73 C102 1_555 1_555
C103 C102 1_555 1_555
H74 C103 1_555 1_555
H75 C103 1_555 1_555
C104 C103 1_555 1_555
H76 C104 1_555 1_555
H77 C104 1_555 1_555
C105 C104 1_555 1_555
H78 C105 1_555 1_555
H79 C105 1_555 1_555
C106 C101 1_555 1_555
H80 C106 1_555 1_555
C107 N11 1_555 1_555
C108 C107 1_555 1_555
C109 C108 1_555 1_555
H81 C109 1_555 1_555
C110 C109 1_555 1_555
H82 C110 1_555 1_555
C111 C110 1_555 1_555
C112 N12 1_555 1_555
C113 N12 1_555 1_555
C114 C113 1_555 1_555
C115 C114 1_555 1_555
H83 C115 1_555 1_555
C116 C115 1_555 1_555
H84 C116 1_555 1_555
C117 C116 1_555 1_555
C118 N11 1_555 1_555
C119 C108 1_555 1_555
C120 C111 1_555 1_555
O25 C127 1_555 1_555
O26 C132 1_555 1_555
O27 C133 1_555 1_555
O28 C138 1_555 1_555
O29 C147 1_555 1_555
O30 C152 1_555 1_555
O31 C153 1_555 1_555
O32 C158 1_555 1_555
O33 C167 1_555 1_555
O34 C172 1_555 1_555
O35 C173 1_555 1_555
O36 C178 1_555 1_555
N13 C126 1_555 1_555
N14 C132 1_555 1_555
N15 C146 1_555 1_555
N16 C152 1_555 1_555
N17 C166 1_555 1_555
N18 C121 1_555 1_555
C121 H85 1_555 1_555
C122 C121 1_555 1_555
H86 C122 1_555 1_555
H87 C122 1_555 1_555
C123 C122 1_555 1_555
H88 C123 1_555 1_555
H89 C123 1_555 1_555
C124 C123 1_555 1_555
H90 C124 1_555 1_555
H91 C124 1_555 1_555
C125 C124 1_555 1_555
H92 C125 1_555 1_555
H93 C125 1_555 1_555
C126 C121 1_555 1_555
H94 C126 1_555 1_555
C127 N13 1_555 1_555
C128 C127 1_555 1_555
C129 C128 1_555 1_555
H95 C129 1_555 1_555
C130 C129 1_555 1_555
H96 C130 1_555 1_555
C131 C130 1_555 1_555
C132 C131 1_555 1_555
C133 N14 1_555 1_555
C134 C133 1_555 1_555
C135 C134 1_555 1_555
H97 C135 1_555 1_555
C136 C135 1_555 1_555
H98 C136 1_555 1_555
C137 C136 1_555 1_555
C138 N13 1_555 1_555
C139 C128 1_555 1_555
C140 C131 1_555 1_555
C141 N14 1_555 1_555
H99 C141 1_555 1_555
C142 C141 1_555 1_555
H100 C142 1_555 1_555
H101 C142 1_555 1_555
C143 C142 1_555 1_555
H102 C143 1_555 1_555
H103 C143 1_555 1_555
C144 C143 1_555 1_555
H104 C144 1_555 1_555
H105 C144 1_555 1_555
C145 C144 1_555 1_555
H106 C145 1_555 1_555
H107 C145 1_555 1_555
C146 C141 1_555 1_555
H108 C146 1_555 1_555
C147 N15 1_555 1_555
C148 C147 1_555 1_555
C149 C148 1_555 1_555
H109 C149 1_555 1_555
C150 C149 1_555 1_555
H110 C150 1_555 1_555
C151 C150 1_555 1_555
C152 C151 1_555 1_555
C153 N16 1_555 1_555
C154 C153 1_555 1_555
C155 C154 1_555 1_555
H111 C155 1_555 1_555
C156 C155 1_555 1_555
H112 C156 1_555 1_555
C157 C156 1_555 1_555
C158 N15 1_555 1_555
C159 C148 1_555 1_555
C160 C151 1_555 1_555
C161 N16 1_555 1_555
H113 C161 1_555 1_555
C162 C161 1_555 1_555
H114 C162 1_555 1_555
H115 C162 1_555 1_555
C163 C162 1_555 1_555
H116 C163 1_555 1_555
H117 C163 1_555 1_555
C164 C163 1_555 1_555
H118 C164 1_555 1_555
H119 C164 1_555 1_555
C165 C164 1_555 1_555
H120 C165 1_555 1_555
H121 C165 1_555 1_555
C166 C161 1_555 1_555
H122 C166 1_555 1_555
C167 N17 1_555 1_555
C168 C167 1_555 1_555
C169 C168 1_555 1_555
H123 C169 1_555 1_555
C170 C169 1_555 1_555
H124 C170 1_555 1_555
C171 C170 1_555 1_555
C172 N18 1_555 1_555
C173 N18 1_555 1_555
C174 C173 1_555 1_555
C175 C174 1_555 1_555
H125 C175 1_555 1_555
C176 C175 1_555 1_555
H126 C176 1_555 1_555
C177 C176 1_555 1_555
C178 N17 1_555 1_555
C179 C168 1_555 1_555
C180 C171 1_555 1_555
O37 C187 1_555 1_555
O38 C192 1_555 1_555
O39 C193 1_555 1_555
O40 C198 1_555 1_555
O41 C207 1_555 1_555
O42 C212 1_555 1_555
O43 C213 1_555 1_555
O44 C218 1_555 1_555
O45 C227 1_555 1_555
O46 C232 1_555 1_555
O47 C233 1_555 1_555
O48 C238 1_555 1_555
N19 C186 1_555 1_555
N20 C192 1_555 1_555
N21 C206 1_555 1_555
N22 C212 1_555 1_555
N23 C226 1_555 1_555
N24 C181 1_555 1_555
C181 H127 1_555 1_555
C182 C181 1_555 1_555
H128 C182 1_555 1_555
H129 C182 1_555 1_555
C183 C182 1_555 1_555
H130 C183 1_555 1_555
H131 C183 1_555 1_555
C184 C183 1_555 1_555
H132 C184 1_555 1_555
H133 C184 1_555 1_555
C185 C184 1_555 1_555
H134 C185 1_555 1_555
H135 C185 1_555 1_555
C186 C181 1_555 1_555
H136 C186 1_555 1_555
C187 N19 1_555 1_555
C188 C187 1_555 1_555
C189 C188 1_555 1_555
H137 C189 1_555 1_555
C190 C189 1_555 1_555
H138 C190 1_555 1_555
C191 C190 1_555 1_555
C192 C191 1_555 1_555
C193 N20 1_555 1_555
C194 C193 1_555 1_555
C195 C194 1_555 1_555
H139 C195 1_555 1_555
C196 C195 1_555 1_555
H140 C196 1_555 1_555
C197 C196 1_555 1_555
C198 N19 1_555 1_555
C199 C188 1_555 1_555
C200 C191 1_555 1_555
C201 N20 1_555 1_555
H141 C201 1_555 1_555
C202 C201 1_555 1_555
H142 C202 1_555 1_555
H143 C202 1_555 1_555
C203 C202 1_555 1_555
H144 C203 1_555 1_555
H145 C203 1_555 1_555
C204 C203 1_555 1_555
H146 C204 1_555 1_555
H147 C204 1_555 1_555
C205 C204 1_555 1_555
H148 C205 1_555 1_555
H149 C205 1_555 1_555
C206 C201 1_555 1_555
H150 C206 1_555 1_555
C207 N21 1_555 1_555
C208 C207 1_555 1_555
C209 C208 1_555 1_555
H151 C209 1_555 1_555
C210 C209 1_555 1_555
H152 C210 1_555 1_555
C211 C210 1_555 1_555
C212 C211 1_555 1_555
C213 N22 1_555 1_555
C214 C213 1_555 1_555
C215 C214 1_555 1_555
H153 C215 1_555 1_555
C216 C215 1_555 1_555
H154 C216 1_555 1_555
C217 C216 1_555 1_555
C218 N21 1_555 1_555
C219 C208 1_555 1_555
C220 C211 1_555 1_555
C221 N22 1_555 1_555
H155 C221 1_555 1_555
C222 C221 1_555 1_555
H156 C222 1_555 1_555
H157 C222 1_555 1_555
C223 C222 1_555 1_555
H158 C223 1_555 1_555
H159 C223 1_555 1_555
C224 C223 1_555 1_555
H160 C224 1_555 1_555
H161 C224 1_555 1_555
C225 C224 1_555 1_555
H162 C225 1_555 1_555
H163 C225 1_555 1_555
C226 C221 1_555 1_555
H164 C226 1_555 1_555
C227 N23 1_555 1_555
C228 C227 1_555 1_555
C229 C228 1_555 1_555
H165 C229 1_555 1_555
C230 C229 1_555 1_555
H166 C230 1_555 1_555
C231 C230 1_555 1_555
C232 N24 1_555 1_555
C233 N24 1_555 1_555
C234 C233 1_555 1_555
C235 C234 1_555 1_555
H167 C235 1_555 1_555
C236 C235 1_555 1_555
H168 C236 1_555 1_555
C237 C236 1_555 1_555
C238 N23 1_555 1_555
C239 C228 1_555 1_555
C240 C231 1_555 1_555
C5 C6 1_555 1_555
C14 C20 1_555 1_555
C17 C18 1_555 1_555
C17 C19 1_555 1_555
C19 C20 1_555 1_555
C25 C26 1_555 1_555
C34 C40 1_555 1_555
C37 C38 1_555 1_555
C37 C39 1_555 1_555
C39 C40 1_555 1_555
C45 C46 1_555 1_555
C51 C52 1_555 1_555
C54 C60 1_555 1_555
C57 C58 1_555 1_555
C57 C59 1_555 1_555
C59 C60 1_555 1_555
C65 C66 1_555 1_555
C74 C80 1_555 1_555
C77 C78 1_555 1_555
C77 C79 1_555 1_555
C79 C80 1_555 1_555
C85 C86 1_555 1_555
C94 C100 1_555 1_555
C97 C98 1_555 1_555
C97 C99 1_555 1_555
C99 C100 1_555 1_555
C105 C106 1_555 1_555
C111 C112 1_555 1_555
C114 C120 1_555 1_555
C117 C118 1_555 1_555
C117 C119 1_555 1_555
C119 C120 1_555 1_555
C125 C126 1_555 1_555
C134 C140 1_555 1_555
C137 C138 1_555 1_555
C137 C139 1_555 1_555
C139 C140 1_555 1_555
C145 C146 1_555 1_555
C154 C160 1_555 1_555
C157 C158 1_555 1_555
C157 C159 1_555 1_555
C159 C160 1_555 1_555
C165 C166 1_555 1_555
C171 C172 1_555 1_555
C174 C180 1_555 1_555
C177 C178 1_555 1_555
C177 C179 1_555 1_555
C179 C180 1_555 1_555
C185 C186 1_555 1_555
C194 C200 1_555 1_555
C197 C198 1_555 1_555
C197 C199 1_555 1_555
C199 C200 1_555 1_555
C205 C206 1_555 1_555
C214 C220 1_555 1_555
C217 C218 1_555 1_555
C217 C219 1_555 1_555
C219 C220 1_555 1_555
C225 C226 1_555 1_555
C231 C232 1_555 1_555
C234 C240 1_555 1_555
C237 C238 1_555 1_555
C237 C239 1_555 1_555
C239 C240 1_555 1_555

#END
