
#######################################################################
#
#                 Cambridge Crystallographic Data Centre
#                                CCDC 
#
#######################################################################
#
# If this CIF has been generated from an entry in the Cambridge 
# Structural Database, then it will include bibliographic, chemical, 
# crystal, experimental, refinement or atomic coordinate data resulting 
# from the CCDC's data processing and validation procedures.
#
#######################################################################

data_NUXXEL
_chemical_formula_moiety         'C25 H29 N3 O6 S1'
_chemical_name_systematic        
9-ethyl-2-(2-nitrophenyl)-5-((2-nitrophenyl)sulfonyl)-5-azabicyclo[7.2.1]dodec-1(12)-ene
_symmetry_cell_setting           triclinic
_symmetry_space_group_name_H-M   'P -1'
_symmetry_Int_Tables_number      2
_space_group_name_Hall           '-P 1'
loop_
_symmetry_equiv_pos_site_id
_symmetry_equiv_pos_as_xyz
1 x,y,z
2 -x,-y,-z
_cell_length_a                   8.0074(3)
_cell_length_b                   11.6089(6)
_cell_length_c                   13.7965(8)
_cell_angle_alpha                86.976(4)
_cell_angle_beta                 78.153(4)
_cell_angle_gamma                73.826(4)
_cell_volume                     1205.47
_exptl_crystal_colour            colorless
_exptl_crystal_description       prismatic
_cell_formula_units_Z            2
loop_
_atom_site_label
_atom_site_type_symbol
_atom_site_fract_x
_atom_site_fract_y
_atom_site_fract_z
S1 S 0.33217(4) 0.35753(3) 0.35852(2)
O1 O 0.26333(14) 0.29614(9) 0.44299(8)
O2 O 0.23057(13) 0.47385(9) 0.33452(8)
O3 O 0.5090(2) 0.25205(14) 0.60533(11)
O4 O 0.5896(3) 0.13015(12) 0.48068(11)
O5 O 0.3977(2) -0.34120(11) 0.14846(11)
O6 O 0.34369(16) -0.16775(10) 0.07889(8)
N1 N 0.37354(15) 0.27350(10) 0.26223(9)
N2 N 0.5660(2) 0.22855(15) 0.51744(12)
N3 N 0.31950(17) -0.23434(11) 0.14919(10)
C1 C 0.4594(2) 0.14405(13) 0.27352(11)
H1 H 0.5430 0.1352 0.3190
H2 H 0.5293 0.1110 0.2083
C2 C 0.3285(2) 0.07026(13) 0.31343(11)
H3 H 0.2201 0.1231 0.3538
H4 H 0.3825 0.0067 0.3573
C3 C 0.2759(2) 0.01146(12) 0.23047(10)
H5 H 0.3877 -0.0395 0.1897
C4 C 0.18735(19) 0.10441(12) 0.16241(10)
C5 C -0.0036(2) 0.17927(14) 0.18813(11)
H6 H -0.0217 0.2346 0.2439
H7 H -0.0853 0.1278 0.2058
C6 C -0.0320(2) 0.24928(14) 0.09173(12)
H8 H -0.0952 0.3346 0.1070
H9 H -0.1036 0.2150 0.0567
C7 C 0.15473(19) 0.23809(13) 0.02636(11)
C8 C 0.26880(19) 0.13558(12) 0.07557(10)
H10 H 0.3886 0.0967 0.0468
C9 C 0.2107(2) 0.35499(13) 0.02850(11)
H11 H 0.3283 0.3442 -0.0156
H12 H 0.1252 0.4203 0.0006
C10 C 0.2214(2) 0.39504(13) 0.13050(12)
H13 H 0.1216 0.3798 0.1801
H14 H 0.2072 0.4826 0.1292
C11 C 0.3972(2) 0.33076(14) 0.16334(11)
H15 H 0.4682 0.2685 0.1136
H16 H 0.4654 0.3897 0.1645
C12 C 0.53419(18) 0.37835(14) 0.37904(12)
C13 C 0.5985(2) 0.46536(16) 0.32232(14)
H17 H 0.5385 0.5071 0.2728
C14 C 0.7501(3) 0.4914(2) 0.3380(2)
H18 H 0.7963 0.5481 0.2969
C15 C 0.8327(3) 0.4366(3) 0.4113(2)
H19 H 0.9344 0.4567 0.4223
C16 C 0.7704(3) 0.3522(2) 0.4697(2)
H20 H 0.8281 0.3147 0.5214
C17 C 0.6215(2) 0.32153(16) 0.45288(13)
C18 C 0.1605(2) -0.07081(12) 0.27332(10)
C19 C 0.0203(2) -0.03441(13) 0.35418(11)
H21 H -0.0005 0.0421 0.3830
C20 C -0.0899(2) -0.10600(15) 0.39392(11)
H22 H -0.1867 -0.0767 0.4472
C21 C -0.0593(2) -0.22003(14) 0.35604(11)
H23 H -0.1338 -0.2693 0.3835
C22 C 0.0808(2) -0.26096(13) 0.27800(11)
H24 H 0.1060 -0.3397 0.2524
C23 C 0.18437(19) -0.18587(12) 0.23733(10)
C24 C 0.1653(2) 0.20950(14) -0.08307(11)
H25 H 0.0720 0.2716 -0.1083
H26 H 0.2814 0.2152 -0.1217
C25 C 0.1439(2) 0.08639(15) -0.10188(12)
H27 H 0.2319 0.0241 -0.0743
H28 H 0.1618 0.0735 -0.1733
H29 H 0.0244 0.0826 -0.0700
loop_
_geom_bond_atom_site_label_1
_geom_bond_atom_site_label_2
_geom_bond_site_symmetry_1
_geom_bond_site_symmetry_2
S1 O1 1_555 1_555
O2 S1 1_555 1_555
O3 N2 1_555 1_555
O4 N2 1_555 1_555
O5 N3 1_555 1_555
O6 N3 1_555 1_555
N1 S1 1_555 1_555
N2 C17 1_555 1_555
N3 C23 1_555 1_555
C1 N1 1_555 1_555
H1 C1 1_555 1_555
H2 C1 1_555 1_555
C2 C1 1_555 1_555
H3 C2 1_555 1_555
H4 C2 1_555 1_555
C3 C2 1_555 1_555
H5 C3 1_555 1_555
C4 C3 1_555 1_555
C5 C4 1_555 1_555
H6 C5 1_555 1_555
H7 C5 1_555 1_555
C6 C5 1_555 1_555
H8 C6 1_555 1_555
H9 C6 1_555 1_555
C7 C6 1_555 1_555
C8 C4 1_555 1_555
H10 C8 1_555 1_555
C9 C7 1_555 1_555
H11 C9 1_555 1_555
H12 C9 1_555 1_555
C10 C9 1_555 1_555
H13 C10 1_555 1_555
H14 C10 1_555 1_555
C11 N1 1_555 1_555
H15 C11 1_555 1_555
H16 C11 1_555 1_555
C12 S1 1_555 1_555
C13 C12 1_555 1_555
H17 C13 1_555 1_555
C14 C13 1_555 1_555
H18 C14 1_555 1_555
C15 C14 1_555 1_555
H19 C15 1_555 1_555
C16 C15 1_555 1_555
H20 C16 1_555 1_555
C17 C12 1_555 1_555
C18 C3 1_555 1_555
C19 C18 1_555 1_555
H21 C19 1_555 1_555
C20 C19 1_555 1_555
H22 C20 1_555 1_555
C21 C20 1_555 1_555
H23 C21 1_555 1_555
C22 C21 1_555 1_555
H24 C22 1_555 1_555
C23 C18 1_555 1_555
C24 C7 1_555 1_555
H25 C24 1_555 1_555
H26 C24 1_555 1_555
C25 C24 1_555 1_555
H27 C25 1_555 1_555
H28 C25 1_555 1_555
H29 C25 1_555 1_555
C7 C8 1_555 1_555
C10 C11 1_555 1_555
C16 C17 1_555 1_555
C22 C23 1_555 1_555

#END
