
#######################################################################
#
#                 Cambridge Crystallographic Data Centre
#                                CCDC 
#
#######################################################################
#
# If this CIF has been generated from an entry in the Cambridge 
# Structural Database, then it will include bibliographic, chemical, 
# crystal, experimental, refinement or atomic coordinate data resulting 
# from the CCDC's data processing and validation procedures.
#
#######################################################################

data_NUYDES
_chemical_formula_moiety         'C17 H15 N1 O1 S4'
_chemical_name_systematic        
2-(4,5-Dimethyl-1,3-dithiol-2-ylidene)-5-(4-methoxyphenyl)-5H-[1,3]dithiolo[4,5-c]pyrrole
_symmetry_cell_setting           triclinic
_symmetry_space_group_name_H-M   'P -1'
_symmetry_Int_Tables_number      2
_space_group_name_Hall           '-P 1'
loop_
_symmetry_equiv_pos_site_id
_symmetry_equiv_pos_as_xyz
1 x,y,z
2 -x,-y,-z
_cell_length_a                   7.8445(19)
_cell_length_b                   8.762(2)
_cell_length_c                   12.265(3)
_cell_angle_alpha                86.427(3)
_cell_angle_beta                 81.337(3)
_cell_angle_gamma                81.142(3)
_cell_volume                     822.798
_exptl_crystal_colour            orange
_exptl_crystal_description       block
_chemical_melting_point          '487 K'
_cell_formula_units_Z            2
_exptl_crystal_recrystallization_method dichloromethane
loop_
_atom_site_label
_atom_site_type_symbol
_atom_site_fract_x
_atom_site_fract_y
_atom_site_fract_z
C1 C -0.35025(13) 0.75735(11) 0.33270(8)
C2 C -0.20045(13) 0.81652(11) 0.30147(8)
C3 C -0.76069(14) 0.63359(13) 0.54031(9)
H1 H -0.8269 0.7328 0.5646
H2 H -0.7017 0.5821 0.6005
H3 H -0.8404 0.5680 0.5197
C4 C -0.62782(13) 0.66097(11) 0.44253(8)
C5 C -0.62311(13) 0.61866(11) 0.33909(8)
C6 C -0.74742(15) 0.53173(13) 0.29590(10)
H4 H -0.8107 0.5988 0.2437
H5 H -0.8305 0.4989 0.3575
H6 H -0.6823 0.4406 0.2583
C7 C 0.19315(13) 1.04781(12) 0.29954(8)
H7 H 0.2239 1.0887 0.3626
C8 C 0.05919(13) 0.96434(11) 0.29791(8)
C9 C 0.05947(13) 0.92558(11) 0.18749(8)
C10 C 0.19364(13) 0.98693(11) 0.12294(8)
H8 H 0.2247 0.9797 0.0453
C11 C 0.41977(12) 1.14124(11) 0.15978(8)
C12 C 0.54490(13) 1.13693(11) 0.22922(8)
H9 H 0.5344 1.0783 0.2971
C13 C 0.68547(13) 1.21762(11) 0.20036(8)
H10 H 0.7705 1.2144 0.2484
C14 C 0.70113(13) 1.30308(11) 0.10081(8)
C15 C 0.57606(13) 1.30605(12) 0.03074(8)
H11 H 0.5873 1.3634 -0.0376
C16 C 0.43561(13) 1.22623(12) 0.05981(8)
H12 H 0.3505 1.2294 0.0119
C17 C 0.96191(14) 1.38741(13) 0.13557(10)
H13 H 1.0155 1.2813 0.1514
H14 H 0.9060 1.4349 0.2047
H15 H 1.0519 1.4474 0.0996
N1 N 0.27471(11) 1.06104(10) 0.19225(7)
O1 O 0.83423(10) 1.38549(9) 0.06424(6)
S1 S -0.46206(3) 0.76359(3) 0.46765(2)
S2 S -0.45207(3) 0.67022(3) 0.24071(2)
S3 S -0.10035(4) 0.90161(3) 0.39741(2)
S4 S -0.09602(3) 0.81405(3) 0.16340(2)
loop_
_geom_bond_atom_site_label_1
_geom_bond_atom_site_label_2
_geom_bond_site_symmetry_1
_geom_bond_site_symmetry_2
C1 C2 1_555 1_555
C2 S3 1_555 1_555
C3 H1 1_555 1_555
H2 C3 1_555 1_555
H3 C3 1_555 1_555
C4 C3 1_555 1_555
C5 C4 1_555 1_555
C6 C5 1_555 1_555
H4 C6 1_555 1_555
H5 C6 1_555 1_555
H6 C6 1_555 1_555
C7 H7 1_555 1_555
C8 C7 1_555 1_555
C9 C8 1_555 1_555
C10 C9 1_555 1_555
H8 C10 1_555 1_555
C11 C12 1_555 1_555
C12 H9 1_555 1_555
C13 C12 1_555 1_555
H10 C13 1_555 1_555
C14 C13 1_555 1_555
C15 C14 1_555 1_555
H11 C15 1_555 1_555
C16 C11 1_555 1_555
H12 C16 1_555 1_555
C17 H13 1_555 1_555
H14 C17 1_555 1_555
H15 C17 1_555 1_555
N1 C7 1_555 1_555
O1 C14 1_555 1_555
S1 C1 1_555 1_555
S2 C1 1_555 1_555
S3 C8 1_555 1_555
S4 C2 1_555 1_555
C4 S1 1_555 1_555
C5 S2 1_555 1_555
C9 S4 1_555 1_555
C10 N1 1_555 1_555
C11 N1 1_555 1_555
C15 C16 1_555 1_555
C17 O1 1_555 1_555

#END
