
#######################################################################
#
#                 Cambridge Crystallographic Data Centre
#                                CCDC 
#
#######################################################################
#
# If this CIF has been generated from an entry in the Cambridge 
# Structural Database, then it will include bibliographic, chemical, 
# crystal, experimental, refinement or atomic coordinate data resulting 
# from the CCDC's data processing and validation procedures.
#
#######################################################################

data_NUYMUQ
_chemical_name_common            
'5-deoxy-3,4-di-O-acetyl-2-S-ethyl-2-thio-D-lyxose diethyl dithioacetal'
_chemical_formula_moiety         'C15 H28 O4 S3'
_chemical_name_systematic        
'4,5,5-tris(ethylsulfanyl)pentane-2,3-diyl diacetate'
_symmetry_cell_setting           trigonal
_symmetry_space_group_name_H-M   'P 32'
_symmetry_Int_Tables_number      145
_space_group_name_Hall           'P 32'
loop_
_symmetry_equiv_pos_site_id
_symmetry_equiv_pos_as_xyz
1 x,y,z
2 -y,x-y,2/3+z
3 -x+y,-x,1/3+z
_cell_length_a                   8.9934(13)
_cell_length_b                   8.9934(13)
_cell_length_c                   22.219(4)
_cell_angle_alpha                90
_cell_angle_beta                 90
_cell_angle_gamma                120
_cell_volume                     1556.33
_exptl_crystal_colour            colorless
_exptl_crystal_description       block
_cell_formula_units_Z            3
loop_
_atom_site_label
_atom_site_type_symbol
_atom_site_fract_x
_atom_site_fract_y
_atom_site_fract_z
S1 S 0.2346(3) -0.0875(3) 0.21979(12)
S2 S 0.1410(2) -0.1328(3) 0.34834(12)
S3 S 0.2116(2) 0.2320(2) 0.26493(11)
O1 O -0.2345(5) -0.1777(6) 0.21155(19)
O2 O -0.1704(8) -0.2310(8) 0.1181(2)
O3 O -0.2635(6) 0.0779(6) 0.2620(2)
O4 O -0.2258(7) 0.3440(8) 0.2616(3)
C1 C 0.0683(8) -0.1257(9) 0.2724(3)
H1 H -0.0323 -0.2375 0.2634
C2 C 0.0175(8) 0.0152(8) 0.2650(3)
H2 H -0.0511 0.0085 0.3003
C3 C -0.0907(8) -0.0068(8) 0.2094(3)
H3 H -0.0235 0.0102 0.1727
C4 C -0.1595(10) 0.1162(9) 0.2110(3)
H4 H -0.0653 0.2355 0.2122
C5 C -0.2795(8) 0.0851(8) 0.1552(3)
H5 H -0.3210 0.1648 0.1564
H6 H -0.3750 -0.0301 0.1564
H7 H -0.2157 0.1016 0.1188
C6 C 0.1839(14) -0.3024(6) 0.2146(4)
H8 H 0.2615 -0.3176 0.2408
H9 H 0.0688 -0.3735 0.2303
C7 C 0.1908(13) -0.3676(13) 0.1555(3)
H10 H 0.1553 -0.4873 0.1584
H11 H 0.3062 -0.3055 0.1403
H12 H 0.1155 -0.3531 0.1285
C8 C -0.0345(8) -0.2104(12) 0.3979(3)
H13 H -0.0074 -0.2592 0.4323
H14 H -0.0403 -0.1118 0.4126
C9 C -0.2084(13) -0.3385(13) 0.3776(4)
H15 H -0.2872 -0.3694 0.4107
H16 H -0.2078 -0.4388 0.3632
H17 H -0.2435 -0.2906 0.3458
C10 C 0.1728(12) 0.3483(11) 0.3277(3)
H18 H 0.0842 0.3744 0.3164
H19 H 0.1361 0.2780 0.3637
C11 C 0.3430(11) 0.5145(10) 0.3390(4)
H20 H 0.3279 0.5784 0.3707
H21 H 0.3784 0.5822 0.3030
H22 H 0.4292 0.4868 0.3506
C12 C -0.2485(10) -0.2831(9) 0.1609(4)
C13 C -0.3959(10) -0.4583(10) 0.1763(4)
H23 H -0.4298 -0.4589 0.2174
H24 H -0.3609 -0.5424 0.1713
H25 H -0.4911 -0.4853 0.1502
C14 C -0.2853(9) 0.1995(14) 0.2872(4)
C15 C -0.3796(9) 0.1461(11) 0.3432(3)
H26 H -0.4064 0.0311 0.3526
H27 H -0.4840 0.1498 0.3394
H28 H -0.3109 0.2221 0.3749
loop_
_geom_bond_atom_site_label_1
_geom_bond_atom_site_label_2
_geom_bond_site_symmetry_1
_geom_bond_site_symmetry_2
S1 C1 1_555 1_555
S2 C1 1_555 1_555
S3 C2 1_555 1_555
O1 C3 1_555 1_555
O2 C12 1_555 1_555
O3 C4 1_555 1_555
O4 C14 1_555 1_555
C1 H1 1_555 1_555
C2 C1 1_555 1_555
H2 C2 1_555 1_555
C3 C2 1_555 1_555
H3 C3 1_555 1_555
C4 C3 1_555 1_555
H4 C4 1_555 1_555
C5 C4 1_555 1_555
H5 C5 1_555 1_555
H6 C5 1_555 1_555
H7 C5 1_555 1_555
C6 S1 1_555 1_555
H8 C6 1_555 1_555
H9 C6 1_555 1_555
C7 C6 1_555 1_555
H10 C7 1_555 1_555
H11 C7 1_555 1_555
H12 C7 1_555 1_555
C8 S2 1_555 1_555
H13 C8 1_555 1_555
H14 C8 1_555 1_555
C9 C8 1_555 1_555
H15 C9 1_555 1_555
H16 C9 1_555 1_555
H17 C9 1_555 1_555
C10 S3 1_555 1_555
H18 C10 1_555 1_555
H19 C10 1_555 1_555
C11 C10 1_555 1_555
H20 C11 1_555 1_555
H21 C11 1_555 1_555
H22 C11 1_555 1_555
C12 O1 1_555 1_555
C13 C12 1_555 1_555
H23 C13 1_555 1_555
H24 C13 1_555 1_555
H25 C13 1_555 1_555
C14 O3 1_555 1_555
C15 C14 1_555 1_555
H26 C15 1_555 1_555
H27 C15 1_555 1_555
H28 C15 1_555 1_555

#END
