
#######################################################################
#
#                 Cambridge Crystallographic Data Centre
#                                CCDC 
#
#######################################################################
#
# If this CIF has been generated from an entry in the Cambridge 
# Structural Database, then it will include bibliographic, chemical, 
# crystal, experimental, refinement or atomic coordinate data resulting 
# from the CCDC's data processing and validation procedures.
#
#######################################################################

data_NUYSEH
_chemical_formula_moiety         'C80 H104 O12,C12 H14 N2 2+,2(F6 P1 1-)'
_chemical_name_systematic        
"1,1'-dimethyl-4,4'-bipyridinium 6,13,19,26,32,39,45,52-octabutoxy-3,16,29,42-tetraoxanonacyclo[46.4.0.0^5,10^.0^9,14^.0^18,23^.0^22,27^.0^31,36^.0^35,40^.0^44,49^]dopentaconta-1(52),5,7,9,11,13,18,20,22,24,26,31,33,35,37,39,44,46,48,50-icosaene bis(hexafluorophosphate)"
_symmetry_cell_setting           rhombohedral
_symmetry_space_group_name_H-M   'R -3'
_symmetry_Int_Tables_number      148
_space_group_name_Hall           '-R 3'
loop_
_symmetry_equiv_pos_site_id
_symmetry_equiv_pos_as_xyz
1 x,y,z
2 -y,x-y,z
3 -x+y,-x,z
4 2/3+x,1/3+y,1/3+z
5 2/3-y,1/3+x-y,1/3+z
6 2/3-x+y,1/3-x,1/3+z
7 1/3+x,2/3+y,2/3+z
8 1/3-y,2/3+x-y,2/3+z
9 1/3-x+y,2/3-x,2/3+z
10 -x,-y,-z
11 y,-x+y,-z
12 x-y,x,-z
13 1/3-x,2/3-y,2/3-z
14 1/3+y,2/3-x+y,2/3-z
15 1/3+x-y,2/3+x,2/3-z
16 2/3-x,1/3-y,1/3-z
17 2/3+y,1/3-x+y,1/3-z
18 2/3+x-y,1/3+x,1/3-z
_cell_length_a                   43.2165(13)
_cell_length_b                   43.2165(13)
_cell_length_c                   12.4664(4)
_cell_angle_alpha                90
_cell_angle_beta                 90
_cell_angle_gamma                120
_cell_volume                     20163.7
_exptl_crystal_colour            red
_exptl_crystal_description       Prism
_cell_formula_units_Z            9
_exptl_crystal_recrystallization_method acetonitrile/dichloromethane
loop_
_atom_site_label
_atom_site_type_symbol
_atom_site_fract_x
_atom_site_fract_y
_atom_site_fract_z
F1 F 0.89298(11) 0.14466(9) 0.02473(18)
F2 F 0.90929(7) 0.11389(7) 0.23702(17)
F3 F 0.8803(2) 0.09289(14) 0.0806(6)
F4 F 0.93668(16) 0.1306(2) 0.0790(4)
F5 F 0.9301(2) 0.16852(11) 0.1813(4)
F6 F 0.8745(2) 0.1351(3) 0.1940(5)
P1 P 0.90148(3) 0.12972(2) 0.13059(6)
N1 N 0.88545(7) 0.13161(7) 0.76559(18)
C1 C 0.90702(9) 0.11633(10) 0.8071(3)
H1 H 0.8947 0.0911 0.7939
H2 H 0.9106 0.1206 0.8828
H3 H 0.9298 0.1274 0.7715
C2 C 0.85405(10) 0.11026(9) 0.7189(3)
H4 H 0.8462 0.0860 0.7126
C3 C 0.83315(10) 0.12325(9) 0.6800(3)
H5 H 0.8113 0.1078 0.6482
C4 C 0.84436(7) 0.15925(7) 0.6875(2)
C5 C 0.87738(8) 0.18086(8) 0.7357(3)
H6 H 0.8862 0.2053 0.7417
C6 C 0.89689(8) 0.16628(9) 0.7745(3)
H7 H 0.9187 0.1810 0.8078
N1O N 0.78122(7) 0.20172(7) 0.56774(18)
C1O C 0.75965(9) 0.21700(10) 0.5262(3)
H1O H 0.7720 0.2422 0.5394
H2O H 0.7561 0.2127 0.4505
H3O H 0.7369 0.2059 0.5618
C2O C 0.81262(10) 0.22307(9) 0.6144(3)
H4O H 0.8205 0.2473 0.6207
C3O C 0.83352(10) 0.21008(9) 0.6533(3)
H5O H 0.8554 0.2255 0.6851
C4O C 0.82231(7) 0.17408(7) 0.6458(2)
C5O C 0.78929(8) 0.15247(8) 0.5976(3)
H6O H 0.7805 0.1280 0.5916
C6O C 0.76978(8) 0.16705(9) 0.5588(3)
H7O H 0.7480 0.1523 0.5255
O1 O 0.91099(5) 0.10589(5) 0.55217(15)
O2 O 0.87932(6) 0.02378(6) 0.6706(2)
O3 O 0.75236(6) 0.07833(8) 0.4051(2)
O4 O 0.99443(6) 0.15353(6) 0.68296(19)
O5 O 0.90602(7) 0.25388(6) 0.4339(2)
O6 O 0.74236(5) 0.06485(5) 0.64716(17)
C7 C 0.98043(7) 0.23054(7) 0.6723(2)
H8 H 0.9876 0.2519 0.7084
C8 C 0.99353(8) 0.20927(8) 0.7040(2)
H9 H 1.0099 0.2166 0.7601
C9 C 0.98268(8) 0.17623(8) 0.6531(2)
C10 C 0.95871(7) 0.16541(7) 0.5689(2)
C11 C 0.92037(8) 0.17740(8) 0.4480(2)
H10 H 0.9128 0.1557 0.4135
C12 C 0.90750(9) 0.19868(9) 0.4144(2)
H11 H 0.8915 0.1915 0.3574
C13 C 0.91830(8) 0.23161(8) 0.4658(2)
C14 C 0.94216(7) 0.24304(7) 0.5497(2)
C15 C 0.95598(7) 0.22100(7) 0.5855(2)
C16 C 0.94510(7) 0.18739(7) 0.5345(2)
C17 C 1.01823(10) 0.16283(10) 0.7730(3)
H12 H 1.0076 0.1669 0.8361
H13 H 1.0406 0.1845 0.7578
C18 C 1.02453(12) 0.13234(11) 0.7916(4)
H14 H 1.0341 0.1282 0.7262
H15 H 1.0426 0.1392 0.8468
C19 C 0.99248(16) 0.09823(14) 0.8242(5)
H16 H 0.9733 0.0928 0.7738
H17 H 0.9981 0.0792 0.8200
C20 C 0.9802(2) 0.0991(2) 0.9304(7)
H18 H 0.9596 0.0764 0.9465
H19 H 0.9740 0.1174 0.9347
H20 H 0.9988 0.1039 0.9810
C21 C 0.87841(18) 0.24124(14) 0.3549(6)
C22 C 0.87728(16) 0.2758(2) 0.3121(5)
C23 C 0.94651(7) 0.12986(7) 0.5155(2)
H21 H 0.9467 0.1324 0.4381
H22 H 0.9623 0.1208 0.5344
C24 C 0.89615(8) 0.07137(7) 0.5042(2)
H23 H 0.9100 0.0601 0.5237
H24 H 0.8961 0.0732 0.4266
C25 C 0.85860(8) 0.04998(7) 0.5462(2)
C26 C 0.85134(8) 0.02664(8) 0.6308(2)
C27 C 0.81671(9) 0.00820(8) 0.6762(2)
H25 H 0.8116 -0.0085 0.7304
C28 C 0.79102(8) 0.01486(7) 0.6404(2)
H26 H 0.7686 0.0030 0.6727
C29 C 0.77075(8) 0.04764(7) 0.5200(2)
C30 C 0.77854(8) 0.07116(8) 0.4354(3)
C31 C 0.81239(8) 0.08748(8) 0.3849(2)
H27 H 0.8172 0.1030 0.3275
C32 C 0.83788(8) 0.08035(8) 0.4208(2)
H28 H 0.8602 0.0916 0.3882
C33 C 0.83137(8) 0.05621(7) 0.5063(2)
C34 C 0.79679(7) 0.03914(7) 0.5555(2)
C35 C 0.87299(10) -0.00468(10) 0.7420(3)
H29 H 0.8561 -0.0275 0.7104
H30 H 0.8632 -0.0021 0.8092
C36 C 0.90818(13) -0.00287(12) 0.7611(4)
C37 C 0.9336(3) 0.0034(4) 0.6731(10)
C38 C 0.9545(6) -0.0098(7) 0.6616(17)
C39 C 0.75702(11) 0.09915(11) 0.3115(4)
H31 H 0.7672 0.0920 0.2539
H32 H 0.7729 0.1243 0.3264
C40 C 0.72059(13) 0.09255(13) 0.2806(5)
H33 H 0.7231 0.1077 0.2200
H34 H 0.7109 0.0996 0.3399
C41 C 0.69419(12) 0.05445(15) 0.2514(5)
H35 H 0.6897 0.0398 0.3149
H36 H 0.6719 0.0532 0.2320
C42 C 0.70454(15) 0.03808(18) 0.1617(6)
H37 H 0.6859 0.0138 0.1510
H38 H 0.7264 0.0386 0.1799
H39 H 0.7079 0.0514 0.0969
C43 C 0.73625(8) 0.03534(8) 0.5796(3)
H40 H 0.7168 0.0296 0.5299
H41 H 0.7303 0.0143 0.6223
C44 C 0.71566(7) 0.05613(7) 0.7271(2)
H42 H 0.7156 0.0390 0.7775
H43 H 0.6922 0.0457 0.6942
C45 C 0.85906(14) 0.2758(2) 0.3993(3)
C46 C 0.8605(3) 0.3197(3) 0.3572(5)
O1O O 0.75568(5) 0.22744(5) 0.78116(15)
O2O O 0.78735(6) 0.30955(6) 0.6627(2)
O3O O 0.91431(6) 0.25500(8) 0.9282(2)
O4O O 0.67224(6) 0.17980(6) 0.65037(19)
O5O O 0.76065(7) 0.07945(6) 0.8994(2)
O6O O 0.92431(5) 0.26848(5) 0.68617(17)
C7O C 0.68624(7) 0.10279(7) 0.6610(2)
H8O H 0.6791 0.0814 0.6249
C8O C 0.67314(8) 0.12406(8) 0.6293(2)
H9O H 0.6568 0.1167 0.5732
C9O C 0.68399(8) 0.15710(8) 0.6802(2)
C10O C 0.70796(7) 0.16792(7) 0.7644(2)
C11O C 0.74630(8) 0.15593(8) 0.8853(2)
H10O H 0.7539 0.1776 0.9198
C12O C 0.75917(9) 0.13465(9) 0.9189(2)
H11O H 0.7752 0.1418 0.9759
C13O C 0.74837(8) 0.10172(8) 0.8675(2)
C14O C 0.72451(7) 0.09029(7) 0.7836(2)
C15O C 0.71069(7) 0.11233(7) 0.7478(2)
C16O C 0.72157(7) 0.14594(7) 0.7988(2)
C17O C 0.64844(10) 0.17050(10) 0.5603(3)
H12O H 0.6591 0.1664 0.4972
H13O H 0.6261 0.1488 0.5755
C18O C 0.64214(12) 0.20099(11) 0.5417(4)
H14O H 0.6326 0.2051 0.6071
H15O H 0.6241 0.1941 0.4865
C19O C 0.67419(16) 0.23510(14) 0.5091(5)
H16O H 0.6934 0.2405 0.5595
H17O H 0.6686 0.2541 0.5133
C20O C 0.6865(2) 0.2342(2) 0.4029(7)
H18O H 0.7071 0.2569 0.3868
H19O H 0.6927 0.2159 0.3986
H20O H 0.6679 0.2294 0.3523
C21O C 0.78826(18) 0.09209(14) 0.9784(6)
C22O C 0.78939(16) 0.0575(2) 1.0212(5)
C23O C 0.72016(7) 0.20347(7) 0.8178(2)
H21O H 0.7200 0.2009 0.8952
H22O H 0.7044 0.2125 0.7989
C24O C 0.77052(8) 0.26196(7) 0.8291(2)
H23O H 0.7567 0.2732 0.8096
H24O H 0.7706 0.2601 0.9067
C25O C 0.80807(8) 0.28335(7) 0.7871(2)
C26O C 0.81533(8) 0.30669(8) 0.7025(2)
C27O C 0.84996(9) 0.32513(8) 0.6571(2)
H25O H 0.8551 0.3418 0.6029
C28O C 0.87565(8) 0.31847(7) 0.6929(2)
H26O H 0.8981 0.3303 0.6606
C29O C 0.89592(8) 0.28569(7) 0.8133(2)
C30O C 0.88813(8) 0.26217(8) 0.8979(3)
C31O C 0.85428(8) 0.24585(8) 0.9484(2)
H27O H 0.8495 0.2303 1.0058
C32O C 0.82879(8) 0.25298(8) 0.9125(2)
H28O H 0.8065 0.2417 0.9451
C33O C 0.83530(8) 0.27712(7) 0.8270(2)
C34O C 0.86988(7) 0.29419(7) 0.7778(2)
C35O C 0.79368(10) 0.33801(10) 0.5913(3)
H29O H 0.8106 0.3608 0.6229
H30O H 0.8035 0.3354 0.5241
C36O C 0.75849(13) 0.33620(12) 0.5722(4)
C37O C 0.7331(3) 0.3299(4) 0.6602(10)
C38O C 0.7122(6) 0.3431(7) 0.6717(17)
C39O C 0.90965(11) 0.23418(11) 1.0218(4)
H31O H 0.8995 0.2413 1.0794
H32O H 0.8938 0.2090 1.0069
C40O C 0.94608(13) 0.24078(13) 1.0527(5)
H33O H 0.9436 0.2256 1.1133
H34O H 0.9558 0.2337 0.9934
C41O C 0.97248(12) 0.27888(15) 1.0819(5)
H35O H 0.9770 0.2935 1.0184
H36O H 0.9948 0.2801 1.1013
C42O C 0.96213(15) 0.29525(18) 1.1716(6)
H37O H 0.9808 0.3195 1.1823
H38O H 0.9403 0.2947 1.1534
H39O H 0.9588 0.2819 1.2364
C43O C 0.93042(8) 0.29799(8) 0.7537(3)
H40O H 0.9499 0.3037 0.8034
H41O H 0.9364 0.3190 0.7110
C44O C 0.95101(7) 0.27720(7) 0.6062(2)
H42O H 0.9511 0.2943 0.5558
H43O H 0.9745 0.2876 0.6391
C45O C 0.80761(14) 0.0575(2) 0.9340(3)
C46O C 0.8062(3) 0.0136(3) 0.9761(5)
F7? F 0.9014(6) 0.0989(4) 0.0688(7)
F8? F 0.9376(2) 0.1527(3) 0.0934(10)
F9? F 0.8982(4) 0.1599(3) 0.1879(6)
C47? C 0.9147(6) -0.0169(5) 0.6454(19)
C48? C 0.9195(6) -0.0224(7) 0.5890(19)
F10? F 0.85880(17) 0.1064(3) 0.1643(6)
C49? C 0.8772(3) 0.2982(2) 0.3264(8)
loop_
_geom_bond_atom_site_label_1
_geom_bond_atom_site_label_2
_geom_bond_site_symmetry_1
_geom_bond_site_symmetry_2
F1 P1 1_555 1_555
F2 P1 1_555 1_555
F3 P1 1_555 1_555
F4 P1 1_555 1_555
F5 P1 1_555 1_555
F6 P1 1_555 1_555
N1 C1 1_555 1_555
C1 H1 1_555 1_555
H2 C1 1_555 1_555
H3 C1 1_555 1_555
C2 N1 1_555 1_555
H4 C2 1_555 1_555
C3 C2 1_555 1_555
H5 C3 1_555 1_555
C4 C3 1_555 1_555
C5 C4 1_555 1_555
H6 C5 1_555 1_555
C6 N1 1_555 1_555
H7 C6 1_555 1_555
O1 C23 1_555 1_555
O2 C26 1_555 1_555
O3 C30 1_555 1_555
O4 C9 1_555 1_555
O5 C13 1_555 1_555
O6 C43 1_555 1_555
C7 H8 1_555 1_555
C8 C7 1_555 1_555
H9 C8 1_555 1_555
C9 C8 1_555 1_555
C10 C9 1_555 1_555
C11 H10 1_555 1_555
C12 C11 1_555 1_555
H11 C12 1_555 1_555
C13 C12 1_555 1_555
C14 C13 1_555 1_555
C15 C7 1_555 1_555
C16 C10 1_555 1_555
C17 O4 1_555 1_555
H12 C17 1_555 1_555
H13 C17 1_555 1_555
C18 C17 1_555 1_555
H14 C18 1_555 1_555
H15 C18 1_555 1_555
C19 C18 1_555 1_555
H16 C19 1_555 1_555
H17 C19 1_555 1_555
C20 C19 1_555 1_555
H18 C20 1_555 1_555
H19 C20 1_555 1_555
H20 C20 1_555 1_555
C21 O5 1_555 1_555
C22 C21 1_555 1_555
C23 C10 1_555 1_555
H21 C23 1_555 1_555
H22 C23 1_555 1_555
C24 O1 1_555 1_555
H23 C24 1_555 1_555
H24 C24 1_555 1_555
C25 C24 1_555 1_555
C26 C25 1_555 1_555
C27 C26 1_555 1_555
H25 C27 1_555 1_555
C28 C27 1_555 1_555
H26 C28 1_555 1_555
C29 C30 1_555 1_555
C30 C31 1_555 1_555
C31 H27 1_555 1_555
C32 C31 1_555 1_555
H28 C32 1_555 1_555
C33 C25 1_555 1_555
C34 C28 1_555 1_555
C35 O2 1_555 1_555
H29 C35 1_555 1_555
H30 C35 1_555 1_555
C36 C35 1_555 1_555
C37 C36 1_555 1_555
C38 C37 1_555 1_555
C39 O3 1_555 1_555
H31 C39 1_555 1_555
H32 C39 1_555 1_555
C40 C39 1_555 1_555
H33 C40 1_555 1_555
H34 C40 1_555 1_555
C41 C40 1_555 1_555
H35 C41 1_555 1_555
H36 C41 1_555 1_555
C42 C41 1_555 1_555
H37 C42 1_555 1_555
H38 C42 1_555 1_555
H39 C42 1_555 1_555
C43 C29 1_555 1_555
H40 C43 1_555 1_555
H41 C43 1_555 1_555
C44 O6 1_555 1_555
H42 C44 1_555 1_555
H43 C44 1_555 1_555
C45 C22 1_555 1_555
C46 C45 1_555 1_555
N1O C1O 1_555 1_555
C1O H1O 1_555 1_555
H2O C1O 1_555 1_555
H3O C1O 1_555 1_555
C2O N1O 1_555 1_555
H4O C2O 1_555 1_555
C3O C2O 1_555 1_555
H5O C3O 1_555 1_555
C4O C4 1_555 1_555
C5O C4O 1_555 1_555
H6O C5O 1_555 1_555
C6O N1O 1_555 1_555
H7O C6O 1_555 1_555
O1O C23O 1_555 1_555
O2O C26O 1_555 1_555
O3O C30O 1_555 1_555
O4O C9O 1_555 1_555
O5O C13O 1_555 1_555
O6O C43O 1_555 1_555
C7O H8O 1_555 1_555
C8O C7O 1_555 1_555
H9O C8O 1_555 1_555
C9O C8O 1_555 1_555
C10O C9O 1_555 1_555
C11O H10O 1_555 1_555
C12O C11O 1_555 1_555
H11O C12O 1_555 1_555
C13O C12O 1_555 1_555
C14O C44 1_555 1_555
C15O C7O 1_555 1_555
C16O C10O 1_555 1_555
C17O O4O 1_555 1_555
H12O C17O 1_555 1_555
H13O C17O 1_555 1_555
C18O C17O 1_555 1_555
H14O C18O 1_555 1_555
H15O C18O 1_555 1_555
C19O C18O 1_555 1_555
H16O C19O 1_555 1_555
H17O C19O 1_555 1_555
C20O C19O 1_555 1_555
H18O C20O 1_555 1_555
H19O C20O 1_555 1_555
H20O C20O 1_555 1_555
C21O O5O 1_555 1_555
C22O C21O 1_555 1_555
C23O C10O 1_555 1_555
H21O C23O 1_555 1_555
H22O C23O 1_555 1_555
C24O O1O 1_555 1_555
H23O C24O 1_555 1_555
H24O C24O 1_555 1_555
C25O C24O 1_555 1_555
C26O C25O 1_555 1_555
C27O C26O 1_555 1_555
H25O C27O 1_555 1_555
C28O C27O 1_555 1_555
H26O C28O 1_555 1_555
C29O C30O 1_555 1_555
C30O C31O 1_555 1_555
C31O H27O 1_555 1_555
C32O C31O 1_555 1_555
H28O C32O 1_555 1_555
C33O C25O 1_555 1_555
C34O C28O 1_555 1_555
C35O O2O 1_555 1_555
H29O C35O 1_555 1_555
H30O C35O 1_555 1_555
C36O C35O 1_555 1_555
C37O C36O 1_555 1_555
C38O C37O 1_555 1_555
C39O O3O 1_555 1_555
H31O C39O 1_555 1_555
H32O C39O 1_555 1_555
C40O C39O 1_555 1_555
H33O C40O 1_555 1_555
H34O C40O 1_555 1_555
C41O C40O 1_555 1_555
H35O C41O 1_555 1_555
H36O C41O 1_555 1_555
C42O C41O 1_555 1_555
H37O C42O 1_555 1_555
H38O C42O 1_555 1_555
H39O C42O 1_555 1_555
C43O C29O 1_555 1_555
H40O C43O 1_555 1_555
H41O C43O 1_555 1_555
C44O C14 1_555 1_555
H42O C44O 1_555 1_555
H43O C44O 1_555 1_555
C45O C22O 1_555 1_555
C46O C45O 1_555 1_555
C5 C6 1_555 1_555
C11 C16 1_555 1_555
C14 C15 1_555 1_555
C15 C16 1_555 1_555
C29 C34 1_555 1_555
C32 C33 1_555 1_555
C33 C34 1_555 1_555
C3O C4O 1_555 1_555
C5O C6O 1_555 1_555
O6O C44O 1_555 1_555
C11O C16O 1_555 1_555
C13O C14O 1_555 1_555
C14O C15O 1_555 1_555
C15O C16O 1_555 1_555
C29O C34O 1_555 1_555
C32O C33O 1_555 1_555
C33O C34O 1_555 1_555

#END
