
#######################################################################
#
#                 Cambridge Crystallographic Data Centre
#                                CCDC 
#
#######################################################################
#
# If this CIF has been generated from an entry in the Cambridge 
# Structural Database, then it will include bibliographic, chemical, 
# crystal, experimental, refinement or atomic coordinate data resulting 
# from the CCDC's data processing and validation procedures.
#
#######################################################################

data_NUYVIO
_chemical_formula_moiety         'C16 H16 Cl1 N1 O2 S2'
_chemical_name_systematic        
3-(bis(ethylsulfanyl)methylene)-1-(4-chlorophenyl)pyridine-2,6(1H,3H)-dione
_symmetry_cell_setting           monoclinic
_symmetry_space_group_name_H-M   'P 21/n'
_symmetry_Int_Tables_number      14
_space_group_name_Hall           '-P 2yn'
loop_
_symmetry_equiv_pos_site_id
_symmetry_equiv_pos_as_xyz
1 x,y,z
2 1/2-x,1/2+y,1/2-z
3 -x,-y,-z
4 1/2+x,1/2-y,1/2+z
_cell_length_a                   12.739(5)
_cell_length_b                   5.382(2)
_cell_length_c                   24.848(10)
_cell_angle_alpha                90
_cell_angle_beta                 103.362(6)
_cell_angle_gamma                90
_cell_volume                     1657.49
_exptl_crystal_colour            yellow
_exptl_crystal_description       block
_cell_formula_units_Z            4
loop_
_atom_site_label
_atom_site_type_symbol
_atom_site_fract_x
_atom_site_fract_y
_atom_site_fract_z
Cl1 Cl 0.37965(11) 0.5731(3) -0.13587(5)
N1 N 0.8059(2) 0.4907(5) 0.02038(12)
O1 O 0.7617(2) 0.8210(5) 0.06742(11)
O2 O 0.8523(2) 0.1680(5) -0.02853(12)
S1 S 0.86537(9) 1.00627(18) 0.16463(4)
S2 S 1.08274(9) 0.7594(2) 0.19805(5)
C1 C 0.6258(3) 0.3269(7) -0.01848(17)
H1 H 0.6402 0.1945 0.0062
C2 C 0.5263(3) 0.3451(8) -0.05553(18)
H2 H 0.4738 0.2244 -0.0561
C3 C 0.5058(3) 0.5431(8) -0.09156(17)
C4 C 0.5815(4) 0.7229(8) -0.09244(18)
C5 C 0.6812(4) 0.7012(7) -0.05567(18)
H3 H 0.7341 0.8197 -0.0561
C6 C 0.7032(3) 0.5063(7) -0.01841(16)
C7 C 0.8281(3) 0.6612(7) 0.06447(16)
C8 C 0.9317(3) 0.6376(6) 0.10413(16)
C9 C 1.0042(3) 0.4454(7) 0.09465(17)
H4 H 1.0706 0.4278 0.1195
C10 C 0.9795(3) 0.2923(7) 0.05153(18)
H5 H 1.0294 0.1722 0.0472
C11 C 0.8781(3) 0.3057(7) 0.01120(18)
C12 C 0.9560(3) 0.7901(7) 0.14963(16)
C13 C 0.9357(4) 1.1515(8) 0.22866(17)
H6 H 0.9535 1.0285 0.2579
H7 H 1.0021 1.2274 0.2240
C14 C 0.8614(4) 1.3478(8) 0.24339(18)
H8 H 0.8461 1.4712 0.2147
H9 H 0.8958 1.4250 0.2778
H10 H 0.7952 1.2714 0.2470
C15 C 1.1782(4) 0.8830(11) 0.1611(2)
H11 H 1.1532 0.8479 0.1220
H12 H 1.1829 1.0619 0.1658
C16 C 1.2859(4) 0.7720(12) 0.1818(3)
H13 H 1.3086 0.7976 0.2210
H14 H 1.3365 0.8491 0.1638
H15 H 1.2826 0.5970 0.1741
loop_
_geom_bond_atom_site_label_1
_geom_bond_atom_site_label_2
_geom_bond_site_symmetry_1
_geom_bond_site_symmetry_2
Cl1 C3 1_555 1_555
N1 C6 1_555 1_555
O1 C7 1_555 1_555
O2 C11 1_555 1_555
S1 C12 1_555 1_555
S2 C12 1_555 1_555
C1 H1 1_555 1_555
C2 C1 1_555 1_555
H2 C2 1_555 1_555
C3 C2 1_555 1_555
C4 C3 1_555 1_555
C5 C4 1_555 1_555
H3 C5 1_555 1_555
C6 C1 1_555 1_555
C7 N1 1_555 1_555
C8 C7 1_555 1_555
C9 C8 1_555 1_555
H4 C9 1_555 1_555
C10 C9 1_555 1_555
H5 C10 1_555 1_555
C11 N1 1_555 1_555
C12 C8 1_555 1_555
C13 S1 1_555 1_555
H6 C13 1_555 1_555
H7 C13 1_555 1_555
C14 C13 1_555 1_555
H8 C14 1_555 1_555
H9 C14 1_555 1_555
H10 C14 1_555 1_555
C15 S2 1_555 1_555
H11 C15 1_555 1_555
H12 C15 1_555 1_555
C16 C15 1_555 1_555
H13 C16 1_555 1_555
H14 C16 1_555 1_555
H15 C16 1_555 1_555
C5 C6 1_555 1_555
C10 C11 1_555 1_555

#END
