
#######################################################################
#
#                 Cambridge Crystallographic Data Centre
#                                CCDC 
#
#######################################################################
#
# If this CIF has been generated from an entry in the Cambridge 
# Structural Database, then it will include bibliographic, chemical, 
# crystal, experimental, refinement or atomic coordinate data resulting 
# from the CCDC's data processing and validation procedures.
#
#######################################################################

data_NUYWUB
_chemical_name_common            2,5,8-tris(pyridin-4-yl)-1H-perimidine
_chemical_formula_moiety         'C27 H18 N4'
_chemical_name_systematic        
2,5,8-tris(pyridin-4-yl)-1H-benzo[de]quinoline
_symmetry_cell_setting           monoclinic
_symmetry_space_group_name_H-M   'P 21/c'
_symmetry_Int_Tables_number      14
_space_group_name_Hall           '-P 2ybc'
loop_
_symmetry_equiv_pos_site_id
_symmetry_equiv_pos_as_xyz
1 x,y,z
2 -x,1/2+y,1/2-z
3 -x,-y,-z
4 x,1/2-y,1/2+z
_cell_length_a                   3.7491(7)
_cell_length_b                   24.269(5)
_cell_length_c                   20.429(4)
_cell_angle_alpha                90
_cell_angle_beta                 94.98(3)
_cell_angle_gamma                90
_cell_volume                     1851.75
_exptl_crystal_colour            orange
_exptl_crystal_description       needle
_cell_formula_units_Z            4
loop_
_atom_site_label
_atom_site_type_symbol
_atom_site_fract_x
_atom_site_fract_y
_atom_site_fract_z
N1 N 0.0156(4) 0.39062(7) 0.53634(7)
C1 C 0.1534(5) 0.33985(8) 0.53758(8)
H1 H 0.1936 0.3220 0.5790
C2 C 0.2416(4) 0.31146(7) 0.48228(7)
H2 H 0.3380 0.2753 0.4864
C3 C 0.1881(4) 0.33625(6) 0.42075(7)
C4 C 0.0439(4) 0.38921(7) 0.41878(8)
H3 H 0.0011 0.4081 0.3781
C5 C -0.0368(4) 0.41410(7) 0.47713(8)
H4 H -0.1357 0.4502 0.4747
N2 N 0.8813(4) 0.41536(7) -0.02690(7)
C6 C 0.7823(5) 0.43806(8) 0.02795(9)
H5 H 0.7658 0.4771 0.0297
C7 C 0.7017(5) 0.40845(7) 0.08279(8)
H6 H 0.6281 0.4272 0.1202
C8 C 0.7286(4) 0.35118(6) 0.08312(7)
C9 C 0.8356(5) 0.32715(7) 0.02595(8)
H7 H 0.8605 0.2883 0.0232
C10 C 0.9050(5) 0.36012(9) -0.02665(8)
H8 H 0.9741 0.3426 -0.0651
C11 C 0.2902(4) 0.30735(6) 0.36113(7)
C12 C 0.4625(4) 0.31392(6) 0.25060(6)
C13 C 0.6491(4) 0.31727(6) 0.14065(7)
C14 C 0.6152(4) 0.23017(6) 0.19301(6)
C15 C 0.6490(4) 0.17274(5) 0.19282(6)
H9 H 0.7218 0.1546 0.1550
C16 C 0.5765(4) 0.14199(6) 0.24784(6)
C17 C 0.4728(4) 0.16777(6) 0.30422(6)
H10 H 0.4279 0.1463 0.3415
C18 C 0.4343(4) 0.22503(6) 0.30628(6)
C19 C 0.5034(4) 0.25607(6) 0.24999(6)
N3 N 0.353(3) 0.3409(5) 0.3068(4)
H11 H 0.3247 0.3769 0.3078
C20 C 0.534(3) 0.3466(6) 0.1952(3)
H12 H 0.5062 0.3855 0.1949
C21 C 0.693(4) 0.2609(4) 0.1353(8)
H13 H 0.7671 0.2438 0.0969
N4 N 0.6442(10) -0.03292(14) 0.2626(2)
C22 C 0.7572(9) -0.00039(13) 0.3135(2)
H14 H 0.8505 -0.0173 0.3533
C23 C 0.7442(13) 0.05615(18) 0.3108(2)
H15 H 0.8244 0.0770 0.3485
C24 C 0.615(4) 0.0835(4) 0.2533(5)
C25 C 0.5082(15) 0.0496(2) 0.2004(2)
H16 H 0.4220 0.0654 0.1595
C26 C 0.5267(10) -0.00727(14) 0.2070(2)
H17 H 0.4514 -0.0292 0.1699
C27 C 0.325(6) 0.2474(8) 0.3625(10)
H18 H 0.2759 0.2258 0.3994
N5? N 0.6703(8) -0.03513(11) 0.22089(16)
C28? C 0.5402(9) -0.00195(12) 0.17187(19)
H19? H 0.4718 -0.0182 0.1304
C29? C 0.4996(14) 0.05454(19) 0.1781(2)
H20? H 0.4044 0.0761 0.1419
C30? C 0.600(4) 0.0789(3) 0.2380(4)
C31? C 0.7350(13) 0.04550(19) 0.2892(2)
H21? H 0.8076 0.0609 0.3310
C32? C 0.7624(10) -0.01049(17) 0.2786(2)
H22? H 0.8520 -0.0329 0.3145
N6? N 0.330(5) 0.2568(6) 0.3615(7)
C33? C 0.353(5) 0.3359(8) 0.3048(6)
H23? H 0.3156 0.3746 0.3049
N7? N 0.537(3) 0.3405(5) 0.1971(4)
H24? H 0.5128 0.3766 0.1975
N8? N 0.682(4) 0.2635(4) 0.1419(6)
loop_
_geom_bond_atom_site_label_1
_geom_bond_atom_site_label_2
_geom_bond_site_symmetry_1
_geom_bond_site_symmetry_2
N1 C1 1_555 1_555
C1 H1 1_555 1_555
C2 C1 1_555 1_555
H2 C2 1_555 1_555
C3 C2 1_555 1_555
C4 C3 1_555 1_555
H3 C4 1_555 1_555
C5 N1 1_555 1_555
H4 C5 1_555 1_555
N2 C6 1_555 1_555
C6 H5 1_555 1_555
C7 C6 1_555 1_555
H6 C7 1_555 1_555
C8 C7 1_555 1_555
C9 C8 1_555 1_555
H7 C9 1_555 1_555
C10 N2 1_555 1_555
H8 C10 1_555 1_555
C11 C3 1_555 1_555
C12 C19 1_555 1_555
C13 C8 1_555 1_555
C14 C15 1_555 1_555
C15 H9 1_555 1_555
C16 C15 1_555 1_555
C17 C16 1_555 1_555
H10 C17 1_555 1_555
C18 C17 1_555 1_555
C19 C14 1_555 1_555
N3 C11 1_555 1_555
H11 N3 1_555 1_555
C20 C12 1_555 1_555
H12 C20 1_555 1_555
C21 C13 1_555 1_555
H13 C21 1_555 1_555
N4 C22 1_555 1_555
C22 H14 1_555 1_555
C23 C22 1_555 1_555
H15 C23 1_555 1_555
C24 C16 1_555 1_555
C25 C24 1_555 1_555
H16 C25 1_555 1_555
C26 N4 1_555 1_555
H17 C26 1_555 1_555
C27 C11 1_555 1_555
H18 C27 1_555 1_555
C4 C5 1_555 1_555
C9 C10 1_555 1_555
C12 N3 1_555 1_555
C13 C20 1_555 1_555
C14 C21 1_555 1_555
C18 C19 1_555 1_555
C18 C27 1_555 1_555
C23 C24 1_555 1_555
C25 C26 1_555 1_555

#END
