
#######################################################################
#
#                 Cambridge Crystallographic Data Centre
#                                CCDC 
#
#######################################################################
#
# If this CIF has been generated from an entry in the Cambridge 
# Structural Database, then it will include bibliographic, chemical, 
# crystal, experimental, refinement or atomic coordinate data resulting 
# from the CCDC's data processing and validation procedures.
#
#######################################################################

data_NUZCAO
_chemical_formula_moiety         'C32 H45 N3 O2,2(C7 H8)'
_chemical_name_systematic        
'N-(3,5-Di-t-butyl-2-hydroxybenzyl)-N-(2,6-di-isopropylphenyl)-2-(1H-imidazol-1-yl)acetamide toluene solvate'
_symmetry_cell_setting           monoclinic
_symmetry_space_group_name_H-M   'P 21/c'
_symmetry_Int_Tables_number      14
_space_group_name_Hall           '-P 2ybc'
loop_
_symmetry_equiv_pos_site_id
_symmetry_equiv_pos_as_xyz
1 x,y,z
2 -x,1/2+y,1/2-z
3 -x,-y,-z
4 x,1/2-y,1/2+z
_cell_length_a                   10.3474(8)
_cell_length_b                   23.8857(18)
_cell_length_c                   16.5887(13)
_cell_angle_alpha                90
_cell_angle_beta                 93.1840(10)
_cell_angle_gamma                90
_cell_volume                     4093.65
_exptl_crystal_colour            colorless
_exptl_crystal_description       cubic
_cell_formula_units_Z            4
loop_
_atom_site_label
_atom_site_type_symbol
_atom_site_fract_x
_atom_site_fract_y
_atom_site_fract_z
N1 N 0.47823(13) 0.66828(6) 0.96403(8)
N2 N 0.32422(15) 0.54263(6) 1.04400(9)
N3 N 0.2939(2) 0.45266(7) 1.06496(11)
O1 O 0.71484(13) 0.63118(5) 0.82481(8)
H1 H 0.701(3) 0.6047(12) 0.8682(18)
O2 O 0.38991(13) 0.59043(5) 0.90427(8)
C1 C 0.73731(17) 0.68606(7) 0.84726(10)
C2 C 0.85674(16) 0.71126(7) 0.83324(10)
C3 C 0.87200(17) 0.76750(7) 0.85577(10)
H2 H 0.9523 0.7852 0.8470
C4 C 0.77662(17) 0.79889(7) 0.89021(10)
C5 C 0.65859(17) 0.77252(7) 0.90044(10)
H3 H 0.5907 0.7931 0.9229
C6 C 0.63752(17) 0.71707(7) 0.87868(10)
C7 C 0.50407(17) 0.69281(7) 0.88457(10)
H4 H 0.4397 0.7227 0.8722
H5 H 0.4910 0.6634 0.8428
C8 C 0.41775(16) 0.61799(7) 0.96480(10)
C9 C 0.3846(2) 0.59743(7) 1.04802(11)
H6 H 0.4646 0.5956 1.0835
H7 H 0.3250 0.6244 1.0720
C10 C 0.3734(2) 0.49505(7) 1.07607(12)
H8 H 0.4562 0.4924 1.1036
C11 C 0.1874(2) 0.47459(9) 1.02345(14)
H9 H 0.1123 0.4539 1.0066
C12 C 0.2045(2) 0.52985(9) 1.00990(14)
H10 H 0.1455 0.5547 0.9824
C13 C 0.96704(18) 0.67857(7) 0.79602(11)
C14 C 1.0133(2) 0.63167(9) 0.85444(13)
H11 H 0.9413 0.6061 0.8632
H12 H 1.0441 0.6481 0.9061
H13 H 1.0840 0.6109 0.8312
C15 C 0.9212(2) 0.65377(9) 0.71413(12)
H14 H 0.8902 0.6839 0.6779
H15 H 0.8506 0.6272 0.7217
H16 H 0.9933 0.6343 0.6904
C16 C 1.0837(2) 0.71545(9) 0.78151(13)
H17 H 1.1506 0.6931 0.7571
H18 H 1.1184 0.7308 0.8331
H19 H 1.0573 0.7462 0.7451
C17 C 0.79880(18) 0.85918(7) 0.91978(11)
C18 C 0.6807(3) 0.89546(10) 0.8955(2)
H20 H 0.6060 0.8826 0.9242
H21 H 0.6614 0.8924 0.8371
H22 H 0.6993 0.9346 0.9095
C19 C 0.8267(4) 0.85764(11) 1.00919(16)
H23 H 0.7546 0.8396 1.0349
H24 H 0.8374 0.8959 1.0297
H25 H 0.9064 0.8364 1.0215
C20 C 0.9112(3) 0.88685(10) 0.87973(18)
H26 H 0.9162 0.9264 0.8953
H27 H 0.8977 0.8840 0.8209
H28 H 0.9922 0.8680 0.8971
C21 C 0.49343(16) 0.70397(7) 1.03472(10)
C22 C 0.39801(17) 0.74406(7) 1.04778(10)
C23 C 0.41808(19) 0.78078(8) 1.11266(11)
H29 H 0.3555 0.8089 1.1217
C24 C 0.5272(2) 0.77702(8) 1.16394(11)
H30 H 0.5395 0.8025 1.2077
C25 C 0.61843(19) 0.73634(8) 1.15181(11)
H31 H 0.6922 0.7335 1.1883
C26 C 0.60477(17) 0.69913(7) 1.08685(10)
C27 C 0.27478(18) 0.74996(8) 0.99389(11)
H32 H 0.2762 0.7206 0.9509
C28 C 0.1536(2) 0.74084(10) 1.04098(14)
H33 H 0.1590 0.7044 1.0681
H34 H 0.0768 0.7418 1.0037
H35 H 0.1474 0.7705 1.0814
C29 C 0.2693(2) 0.80717(8) 0.95259(14)
H36 H 0.2676 0.8367 0.9936
H37 H 0.1911 0.8096 0.9167
H38 H 0.3458 0.8120 0.9210
C30 C 0.70938(17) 0.65585(8) 1.07548(11)
H39 H 0.6831 0.6326 1.0271
C31 C 0.83917(19) 0.68349(10) 1.06081(13)
H40 H 0.8293 0.7081 1.0136
H41 H 0.9036 0.6545 1.0511
H42 H 0.8678 0.7056 1.1083
C32 C 0.7252(2) 0.61692(10) 1.14904(14)
H43 H 0.7582 0.6384 1.1961
H44 H 0.7863 0.5869 1.1379
H45 H 0.6411 0.6006 1.1601
C33 C 0.2826(3) 0.55065(9) 0.56069(18)
C34 C 0.4124(3) 0.55790(10) 0.55642(17)
H46 H 0.4491 0.5556 0.5053
C35 C 0.4928(3) 0.56851(11) 0.6244(2)
H47 H 0.5830 0.5736 0.6192
C36 C 0.4430(4) 0.57162(11) 0.6987(2)
H48 H 0.4979 0.5787 0.7454
C37 C 0.3169(4) 0.56459(13) 0.7049(2)
H49 H 0.2823 0.5666 0.7567
C38 C 0.2336(3) 0.55436(11) 0.6375(2)
H50 H 0.1435 0.5499 0.6438
C39 C 0.1980(4) 0.53871(13) 0.4884(3)
H51 H 0.2330 0.5569 0.4413
H52 H 0.1109 0.5531 0.4962
H53 H 0.1938 0.4982 0.4795
C40 C 0.1664(3) 0.56106(11) 0.23214(15)
C41 C 0.2821(3) 0.53805(12) 0.25854(16)
H54 H 0.2882 0.4988 0.2671
C42 C 0.3890(3) 0.57090(12) 0.27282(16)
H55 H 0.4682 0.5541 0.2918
C43 C 0.3843(3) 0.62816(11) 0.26021(14)
H56 H 0.4596 0.6505 0.2697
C44 C 0.2696(3) 0.65212(11) 0.23382(14)
H57 H 0.2643 0.6914 0.2251
C45 C 0.1605(3) 0.61856(12) 0.21979(15)
H58 H 0.0809 0.6353 0.2015
C46 C 0.0486(3) 0.52416(13) 0.2165(2)
H59 H 0.0697 0.4857 0.2329
H60 H 0.0223 0.5249 0.1588
H61 H -0.0225 0.5380 0.2477
loop_
_geom_bond_atom_site_label_1
_geom_bond_atom_site_label_2
_geom_bond_site_symmetry_1
_geom_bond_site_symmetry_2
N1 C7 1_555 1_555
N2 C9 1_555 1_555
N3 C10 1_555 1_555
O1 H1 1_555 1_555
O2 C8 1_555 1_555
C1 O1 1_555 1_555
C2 C1 1_555 1_555
C3 C2 1_555 1_555
H2 C3 1_555 1_555
C4 C3 1_555 1_555
C5 C4 1_555 1_555
H3 C5 1_555 1_555
C6 C1 1_555 1_555
C7 C6 1_555 1_555
H4 C7 1_555 1_555
H5 C7 1_555 1_555
C8 N1 1_555 1_555
C9 C8 1_555 1_555
H6 C9 1_555 1_555
H7 C9 1_555 1_555
C10 N2 1_555 1_555
H8 C10 1_555 1_555
C11 N3 1_555 1_555
H9 C11 1_555 1_555
C12 N2 1_555 1_555
H10 C12 1_555 1_555
C13 C2 1_555 1_555
C14 C13 1_555 1_555
H11 C14 1_555 1_555
H12 C14 1_555 1_555
H13 C14 1_555 1_555
C15 C13 1_555 1_555
H14 C15 1_555 1_555
H15 C15 1_555 1_555
H16 C15 1_555 1_555
C16 C13 1_555 1_555
H17 C16 1_555 1_555
H18 C16 1_555 1_555
H19 C16 1_555 1_555
C17 C4 1_555 1_555
C18 C17 1_555 1_555
H20 C18 1_555 1_555
H21 C18 1_555 1_555
H22 C18 1_555 1_555
C19 C17 1_555 1_555
H23 C19 1_555 1_555
H24 C19 1_555 1_555
H25 C19 1_555 1_555
C20 C17 1_555 1_555
H26 C20 1_555 1_555
H27 C20 1_555 1_555
H28 C20 1_555 1_555
C21 N1 1_555 1_555
C22 C21 1_555 1_555
C23 C22 1_555 1_555
H29 C23 1_555 1_555
C24 C23 1_555 1_555
H30 C24 1_555 1_555
C25 C24 1_555 1_555
H31 C25 1_555 1_555
C26 C21 1_555 1_555
C27 C22 1_555 1_555
H32 C27 1_555 1_555
C28 C27 1_555 1_555
H33 C28 1_555 1_555
H34 C28 1_555 1_555
H35 C28 1_555 1_555
C29 C27 1_555 1_555
H36 C29 1_555 1_555
H37 C29 1_555 1_555
H38 C29 1_555 1_555
C30 C26 1_555 1_555
H39 C30 1_555 1_555
C31 C30 1_555 1_555
H40 C31 1_555 1_555
H41 C31 1_555 1_555
H42 C31 1_555 1_555
C32 C30 1_555 1_555
H43 C32 1_555 1_555
H44 C32 1_555 1_555
H45 C32 1_555 1_555
C33 C34 1_555 1_555
C34 H46 1_555 1_555
C35 C34 1_555 1_555
H47 C35 1_555 1_555
C36 C35 1_555 1_555
H48 C36 1_555 1_555
C37 C36 1_555 1_555
H49 C37 1_555 1_555
C38 C33 1_555 1_555
H50 C38 1_555 1_555
C39 C33 1_555 1_555
H51 C39 1_555 1_555
H52 C39 1_555 1_555
H53 C39 1_555 1_555
C40 C41 1_555 1_555
C41 H54 1_555 1_555
C42 C41 1_555 1_555
H55 C42 1_555 1_555
C43 C42 1_555 1_555
H56 C43 1_555 1_555
C44 C43 1_555 1_555
H57 C44 1_555 1_555
C45 C40 1_555 1_555
H58 C45 1_555 1_555
C46 C40 1_555 1_555
H59 C46 1_555 1_555
H60 C46 1_555 1_555
H61 C46 1_555 1_555
C5 C6 1_555 1_555
C11 C12 1_555 1_555
C25 C26 1_555 1_555
C37 C38 1_555 1_555
C44 C45 1_555 1_555

#END
