
#######################################################################
#
#                 Cambridge Crystallographic Data Centre
#                                CCDC 
#
#######################################################################
#
# If this CIF has been generated from an entry in the Cambridge 
# Structural Database, then it will include bibliographic, chemical, 
# crystal, experimental, refinement or atomic coordinate data resulting 
# from the CCDC's data processing and validation procedures.
#
#######################################################################

data_NUZFIX
_chemical_formula_moiety         'C16 H20 O6'
_chemical_name_systematic        
"(3aR*,4S*,8S*,8aR*)-Dimethyl decahydro-8-hydroxy-(2'-oxapropanediylidene)azulene-3a,4-dicarboxylate"
_symmetry_cell_setting           monoclinic
_symmetry_space_group_name_H-M   'P 21/c'
_symmetry_Int_Tables_number      14
_space_group_name_Hall           '-P 2ybc'
loop_
_symmetry_equiv_pos_site_id
_symmetry_equiv_pos_as_xyz
1 x,y,z
2 -x,1/2+y,1/2-z
3 -x,-y,-z
4 x,1/2-y,1/2+z
_cell_length_a                   8.672
_cell_length_b                   22.448(1)
_cell_length_c                   15.586(1)
_cell_angle_alpha                90
_cell_angle_beta                 102.92
_cell_angle_gamma                90
_cell_volume                     2957.3
_exptl_crystal_colour            colorless
_exptl_crystal_description       prism
_cell_formula_units_Z            8
loop_
_atom_site_label
_atom_site_type_symbol
_atom_site_fract_x
_atom_site_fract_y
_atom_site_fract_z
C1 C -0.14739(31) 0.45659(13) 0.18444(18)
H1 H -0.21234(31) 0.48991(13) 0.16055(18)
H2 H -0.19435(31) 0.43625(13) 0.22643(18)
C2 C -0.12737(32) 0.41392(13) 0.11099(17)
H3 H -0.11593(32) 0.43510(13) 0.05927(17)
H4 H -0.21424(32) 0.38654(13) 0.09583(17)
C3 C 0.02387(29) 0.38274(11) 0.15530(15)
C4 C 0.27349(28) 0.40679(10) 0.26963(15)
H5 H 0.33198(28) 0.37844(10) 0.24343(15)
C5 C 0.21223(29) 0.37056(11) 0.33680(16)
C6 C 0.17655(32) 0.39989(12) 0.41683(16)
H6 H 0.15593(32) 0.36974(12) 0.45649(16)
H7 H 0.26603(32) 0.42326(12) 0.44548(16)
C7 C 0.03076(34) 0.44043(12) 0.39076(17)
H8 H 0.01027(34) 0.45762(12) 0.44350(17)
H9 H -0.05771(34) 0.41633(12) 0.36278(17)
C8 C 0.04819(33) 0.49127(11) 0.32794(16)
H10 H 0.15751(33) 0.50265(11) 0.34482(16)
O1 O -0.06668(28) 0.53523(9) 0.33827(15)
H11 H -0.0623(45) 0.5623(16) 0.3048(23)
C9 C 0.02219(29) 0.47772(11) 0.22842(16)
H12 H 0.04492(29) 0.51659(11) 0.20874(16)
C10 C 0.13654(27) 0.43192(10) 0.19890(14)
C11 C 0.03615(34) 0.32463(12) 0.16766(18)
H13 H -0.04478(34) 0.30032(12) 0.13225(18)
O2 O 0.15629(25) 0.29513(8) 0.22755(13)
C12 C 0.16153(33) 0.31627(11) 0.31278(18)
H14 H 0.12780(33) 0.29076(11) 0.35451(18)
C13 C 0.39771(28) 0.45339(11) 0.30444(15)
O3 O 0.41195(23) 0.49885(8) 0.26655(12)
O4 O 0.49511(21) 0.43709(8) 0.37934(11)
C14 C 0.61878(33) 0.47938(14) 0.41584(19)
H15 H 0.68236(33) 0.46373(14) 0.46953(19)
H16 H 0.57181(33) 0.51631(14) 0.42774(19)
H17 H 0.68400(33) 0.48609(14) 0.37446(19)
C15 C 0.20350(29) 0.46049(11) 0.12441(15)
O5 O 0.15820(24) 0.50586(9) 0.08694(12)
O6 O 0.31587(22) 0.42586(8) 0.10386(11)
C16 C 0.39963(35) 0.45231(13) 0.04336(18)
H18 H 0.47770(35) 0.42489(13) 0.03207(18)
H19 H 0.45070(35) 0.48820(13) 0.06855(18)
H20 H 0.32621(35) 0.46154(13) -0.01085(18)
C17 C -0.64940(31) -0.66427(13) -0.33752(18)
H21 H -0.70801(31) -0.63078(13) -0.36621(18)
H22 H -0.70651(31) -0.68234(13) -0.29818(18)
C18 C -0.62075(33) -0.70968(13) -0.40594(18)
H23 H -0.60276(33) -0.69041(13) -0.45782(18)
H24 H -0.70761(33) -0.73698(13) -0.42204(18)
C19 C -0.47417(29) -0.74042(11) -0.35569(16)
C20 C -0.23497(27) -0.71583(10) -0.23433(14)
H25 H -0.17318(27) -0.74502(10) -0.25670(14)
C21 C -0.30625(29) -0.75032(11) -0.16960(15)
C22 C -0.35303(34) -0.72020(13) -0.09316(16)
H26 H -0.37861(34) -0.74984(13) -0.05416(16)
H27 H -0.26688(34) -0.69619(13) -0.06207(16)
C23 C -0.49845(34) -0.68071(12) -0.12732(18)
H28 H -0.52932(34) -0.66336(12) -0.07740(18)
H29 H -0.58251(34) -0.70542(12) -0.15895(18)
C24 C -0.47184(33) -0.63033(11) -0.18821(17)
H30 H -0.36351(33) -0.61867(11) -0.16698(17)
O7 O -0.59065(27) -0.58654(9) -0.18374(14)
H31 H -0.5765(45) -0.5591(15) -0.2110(23)
C25 C -0.48260(29) -0.64426(10) -0.28650(16)
H32 H -0.45362(29) -0.60570(10) -0.30440(16)
C26 C -0.36476(27) -0.69104(10) -0.30999(14)
C27 C -0.46598(33) -0.79841(12) -0.34057(18)
H33 H -0.54535(33) -0.82278(12) -0.37708(18)
O8 O -0.35243(25) -0.82760(8) -0.27640(13)
C28 C -0.35588(34) -0.80493(11) -0.19327(18)
H34 H -0.39512(34) -0.82956(11) -0.15252(18)
C29 C -0.11363(29) -0.66870(11) -0.19650(16)
O9 O -0.09494(24) -0.62358(8) -0.23418(12)
O10 O -0.02334(22) -0.68453(9) -0.11936(12)
C30 C 0.09674(37) -0.64158(15) -0.07924(21)
H35 H 0.15557(37) -0.65682(15) -0.02403(21)
H36 H 0.04642(37) -0.60489(15) -0.06951(21)
H37 H 0.16722(37) -0.63457(15) -0.11770(21)
C31 C -0.28925(29) -0.66448(11) -0.38216(15)
O11 O -0.33516(25) -0.62105(10) -0.42476(13)
O12 O -0.16969(21) -0.69818(8) -0.39582(11)
C32 C -0.08365(34) -0.67495(14) -0.45778(18)
H38 H -0.00083(34) -0.70215(14) -0.46301(18)
H39 H -0.03841(34) -0.63710(14) -0.43731(18)
H40 H -0.15455(34) -0.67004(14) -0.51420(18)
loop_
_geom_bond_atom_site_label_1
_geom_bond_atom_site_label_2
_geom_bond_site_symmetry_1
_geom_bond_site_symmetry_2
C1 H1 1_555 1_555
H2 C1 1_555 1_555
C2 C1 1_555 1_555
H3 C2 1_555 1_555
H4 C2 1_555 1_555
C3 C2 1_555 1_555
C4 H5 1_555 1_555
C5 C4 1_555 1_555
C6 C5 1_555 1_555
H6 C6 1_555 1_555
H7 C6 1_555 1_555
C7 C6 1_555 1_555
H8 C7 1_555 1_555
H9 C7 1_555 1_555
C8 C7 1_555 1_555
H10 C8 1_555 1_555
O1 C8 1_555 1_555
H11 O1 1_555 1_555
C9 C1 1_555 1_555
H12 C9 1_555 1_555
C10 C3 1_555 1_555
C11 C3 1_555 1_555
H13 C11 1_555 1_555
O2 C11 1_555 1_555
C12 C5 1_555 1_555
H14 C12 1_555 1_555
C13 C4 1_555 1_555
O3 C13 1_555 1_555
O4 C13 1_555 1_555
C14 O4 1_555 1_555
H15 C14 1_555 1_555
H16 C14 1_555 1_555
H17 C14 1_555 1_555
C15 C10 1_555 1_555
O5 C15 1_555 1_555
O6 C15 1_555 1_555
C16 O6 1_555 1_555
H18 C16 1_555 1_555
H19 C16 1_555 1_555
H20 C16 1_555 1_555
C17 H21 1_555 1_555
H22 C17 1_555 1_555
C18 C17 1_555 1_555
H23 C18 1_555 1_555
H24 C18 1_555 1_555
C19 C18 1_555 1_555
C20 H25 1_555 1_555
C21 C20 1_555 1_555
C22 C21 1_555 1_555
H26 C22 1_555 1_555
H27 C22 1_555 1_555
C23 C22 1_555 1_555
H28 C23 1_555 1_555
H29 C23 1_555 1_555
C24 C23 1_555 1_555
H30 C24 1_555 1_555
O7 C24 1_555 1_555
H31 O7 1_555 1_555
C25 C17 1_555 1_555
H32 C25 1_555 1_555
C26 C19 1_555 1_555
C27 C19 1_555 1_555
H33 C27 1_555 1_555
O8 C27 1_555 1_555
C28 C21 1_555 1_555
H34 C28 1_555 1_555
C29 C20 1_555 1_555
O9 C29 1_555 1_555
O10 C29 1_555 1_555
C30 O10 1_555 1_555
H35 C30 1_555 1_555
H36 C30 1_555 1_555
H37 C30 1_555 1_555
C31 C26 1_555 1_555
O11 C31 1_555 1_555
O12 C31 1_555 1_555
C32 O12 1_555 1_555
H38 C32 1_555 1_555
H39 C32 1_555 1_555
H40 C32 1_555 1_555
C4 C10 1_555 1_555
C8 C9 1_555 1_555
C9 C10 1_555 1_555
O2 C12 1_555 1_555
C20 C26 1_555 1_555
C24 C25 1_555 1_555
C25 C26 1_555 1_555
O8 C28 1_555 1_555

#END
