
#######################################################################
#
#                 Cambridge Crystallographic Data Centre
#                                CCDC 
#
#######################################################################
#
# If this CIF has been generated from an entry in the Cambridge 
# Structural Database, then it will include bibliographic, chemical, 
# crystal, experimental, refinement or atomic coordinate data resulting 
# from the CCDC's data processing and validation procedures.
#
#######################################################################

data_NUZFOD
_chemical_formula_moiety         'C18 H26 O7'
_chemical_name_systematic        
"(3R*,3aS*,4R*,5S*,8aS*)-Dimethyl spiro((1',3'-dioxolane)-2',8-(decahydro-3,5-(2''-oxapropano)azulene-3a,4-dicarboxylate))"
_symmetry_cell_setting           triclinic
_symmetry_space_group_name_H-M   'P -1'
_symmetry_Int_Tables_number      2
_space_group_name_Hall           '-P 1'
loop_
_symmetry_equiv_pos_site_id
_symmetry_equiv_pos_as_xyz
1 x,y,z
2 -x,-y,-z
_cell_length_a                   7.973(2)
_cell_length_b                   9.406(2)
_cell_length_c                   12.578(2)
_cell_angle_alpha                92.24
_cell_angle_beta                 101.35
_cell_angle_gamma                107.86
_cell_volume                     875.247
_exptl_crystal_colour            colorless
_exptl_crystal_description       plate
_cell_formula_units_Z            2
loop_
_atom_site_label
_atom_site_type_symbol
_atom_site_fract_x
_atom_site_fract_y
_atom_site_fract_z
C1 C 0.66349(29) 0.71632(29) 0.63186(19)
H1 H 0.74094(29) 0.78858(29) 0.59608(19)
H2 H 0.60966(29) 0.62342(29) 0.58531(19)
C2 C 0.77131(28) 0.69328(27) 0.73964(20)
H3 H 0.89026(28) 0.69487(27) 0.73415(20)
H4 H 0.70946(28) 0.59946(27) 0.76328(20)
C3 C 0.78084(23) 0.82254(22) 0.81937(16)
H5 H 0.88414(23) 0.90936(22) 0.82184(16)
C4 C 0.48566(21) 0.87913(18) 0.85446(14)
H6 H 0.58094(21) 0.94468(18) 0.91046(14)
C5 C 0.40679(23) 0.74157(20) 0.91396(14)
H7 H 0.33161(23) 0.77601(20) 0.95257(14)
C6 C 0.27027(24) 0.60272(20) 0.84206(15)
H8 H 0.16197(24) 0.62673(20) 0.81517(15)
H9 H 0.24519(24) 0.52285(20) 0.88775(15)
C7 C 0.32137(25) 0.54396(19) 0.74360(15)
H10 H 0.43723(25) 0.53117(19) 0.76804(15)
H11 H 0.23336(25) 0.44853(19) 0.71394(15)
C8 C 0.33520(24) 0.64704(19) 0.65290(14)
O1 O 0.19112(16) 0.70904(15) 0.64310(10)
C9 C 0.14315(31) 0.73123(27) 0.53060(16)
H12 H 0.01432(31) 0.70305(27) 0.50640(16)
H13 H 0.19687(31) 0.83449(27) 0.52008(16)
C10 C 0.21772(33) 0.63134(28) 0.47025(17)
H14 H 0.30967(33) 0.68956(28) 0.43587(17)
H15 H 0.12344(33) 0.56112(28) 0.41629(17)
O2 O 0.29307(20) 0.55403(16) 0.55271(11)
C11 C 0.51687(24) 0.77404(21) 0.66056(14)
H16 H 0.47771(24) 0.83655(21) 0.60931(14)
C12 C 0.60811(21) 0.87266(19) 0.77301(13)
C13 C 0.81761(27) 0.79254(26) 0.93721(18)
H17 H 0.82301(27) 0.87952(26) 0.98202(18)
H18 H 0.93186(27) 0.77495(26) 0.95435(18)
O3 O 0.68385(18) 0.66551(16) 0.96171(12)
C14 C 0.54616(28) 0.70504(23) 0.99988(16)
H19 H 0.48414(28) 0.62257(23) 1.03519(16)
H20 H 0.60439(28) 0.79190(23) 1.05224(16)
C15 C 0.33727(23) 0.94603(19) 0.81060(15)
O4 O 0.20842(19) 0.93370(17) 0.84904(13)
O5 O 0.37198(18) 1.02962(15) 0.72896(11)
C16 C 0.23898(35) 1.09979(30) 0.68580(22)
H21 H 0.27602(35) 1.15684(30) 0.62800(22)
H22 H 0.22852(35) 1.16543(30) 0.74274(22)
H23 H 0.12424(35) 1.02402(30) 0.65804(22)
C17 C 0.69980(24) 1.03374(21) 0.74826(15)
O6 O 0.73304(21) 1.06981(18) 0.66269(12)
O7 O 0.75531(19) 1.13114(15) 0.83963(11)
C18 C 0.85200(38) 1.28390(26) 0.82796(22)
H24 H 0.88508(38) 1.34367(26) 0.89706(22)
H25 H 0.77680(38) 1.32301(26) 0.77602(22)
H26 H 0.95903(38) 1.28699(26) 0.80276(22)
loop_
_geom_bond_atom_site_label_1
_geom_bond_atom_site_label_2
_geom_bond_site_symmetry_1
_geom_bond_site_symmetry_2
C1 H1 1_555 1_555
H2 C1 1_555 1_555
C2 C1 1_555 1_555
H3 C2 1_555 1_555
H4 C2 1_555 1_555
C3 C2 1_555 1_555
H5 C3 1_555 1_555
C4 H6 1_555 1_555
C5 C4 1_555 1_555
H7 C5 1_555 1_555
C6 C5 1_555 1_555
H8 C6 1_555 1_555
H9 C6 1_555 1_555
C7 C6 1_555 1_555
H10 C7 1_555 1_555
H11 C7 1_555 1_555
C8 C7 1_555 1_555
O1 C8 1_555 1_555
C9 O1 1_555 1_555
H12 C9 1_555 1_555
H13 C9 1_555 1_555
C10 C9 1_555 1_555
H14 C10 1_555 1_555
H15 C10 1_555 1_555
O2 C8 1_555 1_555
C11 C1 1_555 1_555
H16 C11 1_555 1_555
C12 C3 1_555 1_555
C13 C3 1_555 1_555
H17 C13 1_555 1_555
H18 C13 1_555 1_555
O3 C13 1_555 1_555
C14 C5 1_555 1_555
H19 C14 1_555 1_555
H20 C14 1_555 1_555
C15 C4 1_555 1_555
O4 C15 1_555 1_555
O5 C15 1_555 1_555
C16 O5 1_555 1_555
H21 C16 1_555 1_555
H22 C16 1_555 1_555
H23 C16 1_555 1_555
C17 C12 1_555 1_555
O6 C17 1_555 1_555
O7 C17 1_555 1_555
C18 O7 1_555 1_555
H24 C18 1_555 1_555
H25 C18 1_555 1_555
H26 C18 1_555 1_555
C4 C12 1_555 1_555
C8 C11 1_555 1_555
C10 O2 1_555 1_555
C11 C12 1_555 1_555
O3 C14 1_555 1_555

#END
