
#######################################################################
#
#                 Cambridge Crystallographic Data Centre
#                                CCDC 
#
#######################################################################
#
# If this CIF has been generated from an entry in the Cambridge 
# Structural Database, then it will include bibliographic, chemical, 
# crystal, experimental, refinement or atomic coordinate data resulting 
# from the CCDC's data processing and validation procedures.
#
#######################################################################

data_NUZWAI
_chemical_formula_moiety         'C20 H15 Cl1 N2 O2'
_chemical_name_systematic        
2-((2-chlorophenyl)(5-methyl-4-oxo-2-phenyl-4,5-dihydro-1,3-oxazol-5-yl)methyl)acrylonitrile
_symmetry_cell_setting           orthorhombic
_symmetry_space_group_name_H-M   'P 21 21 21'
_symmetry_Int_Tables_number      19
_space_group_name_Hall           'P 2ac 2ab'
loop_
_symmetry_equiv_pos_site_id
_symmetry_equiv_pos_as_xyz
1 x,y,z
2 1/2-x,-y,1/2+z
3 -x,1/2+y,1/2-z
4 1/2+x,1/2-y,-z
_cell_length_a                   7.1740(7)
_cell_length_b                   14.3271(14)
_cell_length_c                   17.4194(17)
_cell_angle_alpha                90
_cell_angle_beta                 90
_cell_angle_gamma                90
_cell_volume                     1790.41
_exptl_crystal_colour            colorless
_exptl_crystal_description       block
_cell_formula_units_Z            4
loop_
_atom_site_label
_atom_site_type_symbol
_atom_site_fract_x
_atom_site_fract_y
_atom_site_fract_z
Cl1 Cl 0.34495(7) 0.30425(4) 0.13896(3)
O1 O 0.57443(17) 0.15110(8) 0.41157(6)
O2 O 0.09517(19) 0.18086(12) 0.39283(8)
N1 N 0.3079(2) 0.08313(12) 0.45329(9)
N2 N 0.7489(4) 0.01747(17) 0.26006(15)
C1 C 0.5600(2) 0.31097(12) 0.18511(9)
C2 C 0.6979(3) 0.36346(13) 0.15025(12)
H1 H 0.6740 0.3942 0.1043
C3 C 0.8706(3) 0.36982(15) 0.18413(13)
H2 H 0.9639 0.4055 0.1614
C4 C 0.9047(3) 0.32343(14) 0.25146(13)
H3 H 1.0215 0.3276 0.2743
C5 C 0.7667(3) 0.27051(14) 0.28565(11)
H4 H 0.7930 0.2385 0.3308
C6 C 0.5897(2) 0.26414(11) 0.25386(10)
C7 C 0.4360(2) 0.20640(12) 0.29003(9)
H5 H 0.3188 0.2343 0.2724
C8 C 0.4376(3) 0.10726(14) 0.25814(11)
C9 C 0.6109(4) 0.05687(15) 0.25930(12)
C10 C 0.2889(4) 0.06712(18) 0.22790(14)
H6 H 0.2973 0.0071 0.2078
H7 H 0.1758 0.0989 0.2267
C11 C 0.4273(2) 0.20841(12) 0.37836(9)
C12 C 0.4368(3) 0.30596(14) 0.41224(12)
H8 H 0.4208 0.3026 0.4669
H9 H 0.3397 0.3438 0.3905
H10 H 0.5558 0.3332 0.4007
C13 C 0.2535(3) 0.15807(15) 0.40744(11)
C14 C 0.4884(3) 0.08358(13) 0.45213(10)
C15 C 0.6084(3) 0.01565(12) 0.48970(9)
C16 C 0.7975(3) 0.01244(13) 0.47376(11)
H11 H 0.8502 0.0553 0.4400
C17 C 0.9066(3) -0.05428(15) 0.50800(12)
H12 H 1.0338 -0.0562 0.4980
C18 C 0.8283(4) -0.11817(17) 0.55704(13)
H13 H 0.9029 -0.1637 0.5795
C19 C 0.6421(4) -0.11564(17) 0.57329(13)
H14 H 0.5909 -0.1590 0.6070
C20 C 0.5300(3) -0.04897(15) 0.53991(11)
H15 H 0.4031 -0.0471 0.5508
loop_
_geom_bond_atom_site_label_1
_geom_bond_atom_site_label_2
_geom_bond_site_symmetry_1
_geom_bond_site_symmetry_2
Cl1 C1 1_555 1_555
O1 C11 1_555 1_555
O2 C13 1_555 1_555
N1 C13 1_555 1_555
N2 C9 1_555 1_555
C1 C2 1_555 1_555
C2 H1 1_555 1_555
C3 C2 1_555 1_555
H2 C3 1_555 1_555
C4 C3 1_555 1_555
H3 C4 1_555 1_555
C5 C4 1_555 1_555
H4 C5 1_555 1_555
C6 C1 1_555 1_555
C7 C6 1_555 1_555
H5 C7 1_555 1_555
C8 C7 1_555 1_555
C9 C8 1_555 1_555
C10 C8 1_555 1_555
H6 C10 1_555 1_555
H7 C10 1_555 1_555
C11 C7 1_555 1_555
C12 C11 1_555 1_555
H8 C12 1_555 1_555
H9 C12 1_555 1_555
H10 C12 1_555 1_555
C13 C11 1_555 1_555
C14 O1 1_555 1_555
C15 C14 1_555 1_555
C16 C15 1_555 1_555
H11 C16 1_555 1_555
C17 C16 1_555 1_555
H12 C17 1_555 1_555
C18 C17 1_555 1_555
H13 C18 1_555 1_555
C19 C18 1_555 1_555
H14 C19 1_555 1_555
C20 C15 1_555 1_555
H15 C20 1_555 1_555
N1 C14 1_555 1_555
C5 C6 1_555 1_555
C19 C20 1_555 1_555

#END
