
#######################################################################
#
#                 Cambridge Crystallographic Data Centre
#                                CCDC 
#
#######################################################################
#
# If this CIF has been generated from an entry in the Cambridge 
# Structural Database, then it will include bibliographic, chemical, 
# crystal, experimental, refinement or atomic coordinate data resulting 
# from the CCDC's data processing and validation procedures.
#
#######################################################################

data_OBABIF
_chemical_formula_moiety         'C21 H23 N1 O5'
_chemical_name_systematic        
'dimethyl 4-(4-methoxyphenyl)-6-methyl-3,4-dihydroquinoline-2,2(1H)-dicarboxylate'
_symmetry_cell_setting           triclinic
_symmetry_space_group_name_H-M   'P -1'
_symmetry_Int_Tables_number      2
_space_group_name_Hall           '-P 1'
loop_
_symmetry_equiv_pos_site_id
_symmetry_equiv_pos_as_xyz
1 x,y,z
2 -x,-y,-z
_cell_length_a                   9.996(3)
_cell_length_b                   10.556(2)
_cell_length_c                   11.033(2)
_cell_angle_alpha                69.226(19)
_cell_angle_beta                 73.09(2)
_cell_angle_gamma                65.04(2)
_cell_volume                     973.041
_exptl_crystal_colour            colorless
_exptl_crystal_description       block
_cell_formula_units_Z            2
loop_
_atom_site_label
_atom_site_type_symbol
_atom_site_fract_x
_atom_site_fract_y
_atom_site_fract_z
O1 O -0.0393(2) 1.32556(17) 0.36679(18)
O2 O 0.5222(2) 0.65455(19) 0.01402(19)
O3 O 0.7359(2) 0.48480(18) 0.07252(17)
O4 O 0.4168(3) 0.4390(2) 0.2981(2)
O5 O 0.6118(3) 0.3518(2) 0.3980(2)
N1 N 0.6823(2) 0.5887(2) 0.28308(19)
H1 H 0.7635 0.5185 0.2672
C1 C 0.4456(3) 0.8608(2) 0.1944(2)
H2 H 0.4465 0.8814 0.1004
C2 C 0.4214(3) 0.7163(2) 0.2621(2)
H3 H 0.3903 0.7070 0.3558
H4 H 0.3411 0.7167 0.2293
C3 C 0.5608(3) 0.5853(2) 0.2404(2)
C4 C 0.7101(3) 0.7177(2) 0.2449(2)
C5 C 0.8496(3) 0.7135(3) 0.2484(3)
H5 H 0.9252 0.6244 0.2722
C6 C 0.8776(3) 0.8390(3) 0.2170(3)
H6 H 0.9724 0.8332 0.2191
C7 C 0.7676(3) 0.9746(3) 0.1823(3)
C8 C 0.6286(3) 0.9768(3) 0.1793(2)
H7 H 0.5534 1.0664 0.1564
C9 C 0.5958(3) 0.8522(2) 0.2086(2)
C10 C 0.3151(3) 0.9832(2) 0.2429(2)
C11 C 0.2847(3) 0.9859(2) 0.3723(2)
H8 H 0.3454 0.9110 0.4303
C12 C 0.1671(3) 1.0961(2) 0.4192(3)
H9 H 0.1493 1.0952 0.5070
C13 C 0.1035(3) 1.2051(3) 0.2047(3)
H10 H 0.0416 1.2792 0.1472
C14 C 0.0768(3) 1.2073(2) 0.3329(3)
C15 C 0.2212(3) 1.0944(2) 0.1594(3)
H11 H 0.2373 1.0946 0.0720
C16 C -0.0807(4) 1.3220(3) 0.5010(3)
H12 H -0.1696 1.4042 0.5130
H13 H -0.0012 1.3251 0.5306
H14 H -0.0998 1.2344 0.5507
C17 C 0.6006(3) 0.5815(2) 0.0953(3)
C18 C 0.7880(4) 0.4674(3) -0.0593(3)
H15 H 0.7924 0.5575 -0.1201
H16 H 0.7203 0.4394 -0.0815
H17 H 0.8859 0.3939 -0.0639
C19 C 0.5351(3) 0.4446(3) 0.3230(2)
C20 C 0.3843(4) 0.3074(3) 0.3692(3)
H18 H 0.4649 0.2261 0.3436
H19 H 0.2932 0.3160 0.3489
H20 H 0.3733 0.2931 0.4619
C21 C 0.7989(4) 1.1126(3) 0.1476(4)
H21 H 0.7226 1.1920 0.1020
H22 H 0.8946 1.1022 0.0921
H23 H 0.7992 1.1312 0.2265
loop_
_geom_bond_atom_site_label_1
_geom_bond_atom_site_label_2
_geom_bond_site_symmetry_1
_geom_bond_site_symmetry_2
O1 C14 1_555 1_555
O2 C17 1_555 1_555
O3 C17 1_555 1_555
O4 C19 1_555 1_555
O5 C19 1_555 1_555
N1 H1 1_555 1_555
C1 H2 1_555 1_555
C2 C1 1_555 1_555
H3 C2 1_555 1_555
H4 C2 1_555 1_555
C3 N1 1_555 1_555
C4 N1 1_555 1_555
C5 C4 1_555 1_555
H5 C5 1_555 1_555
C6 C5 1_555 1_555
H6 C6 1_555 1_555
C7 C6 1_555 1_555
C8 C7 1_555 1_555
H7 C8 1_555 1_555
C9 C1 1_555 1_555
C10 C1 1_555 1_555
C11 C10 1_555 1_555
H8 C11 1_555 1_555
C12 C11 1_555 1_555
H9 C12 1_555 1_555
C13 H10 1_555 1_555
C14 C12 1_555 1_555
C15 C10 1_555 1_555
H11 C15 1_555 1_555
C16 O1 1_555 1_555
H12 C16 1_555 1_555
H13 C16 1_555 1_555
H14 C16 1_555 1_555
C17 C3 1_555 1_555
C18 O3 1_555 1_555
H15 C18 1_555 1_555
H16 C18 1_555 1_555
H17 C18 1_555 1_555
C19 C3 1_555 1_555
C20 O4 1_555 1_555
H18 C20 1_555 1_555
H19 C20 1_555 1_555
H20 C20 1_555 1_555
C21 C7 1_555 1_555
H21 C21 1_555 1_555
H22 C21 1_555 1_555
H23 C21 1_555 1_555
C2 C3 1_555 1_555
C4 C9 1_555 1_555
C8 C9 1_555 1_555
C13 C14 1_555 1_555
C13 C15 1_555 1_555

#END
