
#######################################################################
#
#                 Cambridge Crystallographic Data Centre
#                                CCDC 
#
#######################################################################
#
# If this CIF has been generated from an entry in the Cambridge 
# Structural Database, then it will include bibliographic, chemical, 
# crystal, experimental, refinement or atomic coordinate data resulting 
# from the CCDC's data processing and validation procedures.
#
#######################################################################

data_OBABEB
_chemical_formula_moiety         'C20 H21 N1 O4'
_chemical_name_systematic        
'dimethyl 1-(4-methylphenyl)-4-phenylazetidine-2,2-dicarboxylate'
_symmetry_cell_setting           monoclinic
_symmetry_space_group_name_H-M   'P 21/n'
_symmetry_Int_Tables_number      14
_space_group_name_Hall           '-P 2yn'
loop_
_symmetry_equiv_pos_site_id
_symmetry_equiv_pos_as_xyz
1 x,y,z
2 1/2-x,1/2+y,1/2-z
3 -x,-y,-z
4 1/2+x,1/2-y,1/2+z
_cell_length_a                   9.7358(3)
_cell_length_b                   9.6518(2)
_cell_length_c                   19.9910(5)
_cell_angle_alpha                90
_cell_angle_beta                 98.694(3)
_cell_angle_gamma                90
_cell_volume                     1856.93
_exptl_crystal_colour            colorless
_exptl_crystal_description       block
_cell_formula_units_Z            4
loop_
_atom_site_label
_atom_site_type_symbol
_atom_site_fract_x
_atom_site_fract_y
_atom_site_fract_z
O1 O 0.90918(18) 0.69841(13) 0.02598(6)
O2 O 0.90973(12) 0.59165(11) 0.12468(5)
O3 O 0.78108(14) 0.79694(14) 0.22825(5)
O4 O 0.62349(12) 0.67999(11) 0.15727(5)
N1 N 0.86005(12) 0.94074(11) 0.11460(5)
C1 C 1.00215(14) 0.96261(13) 0.13572(6)
C2 C 1.08001(16) 0.87697(15) 0.18306(7)
H1 H 1.0379 0.8017 0.2007
C3 C 1.21936(17) 0.90292(17) 0.20404(7)
H2 H 1.2697 0.8437 0.2353
C4 C 1.28637(17) 1.01472(17) 0.17983(8)
C5 C 1.20710(17) 1.10122(16) 0.13411(8)
H3 H 1.2488 1.1785 0.1180
C6 C 1.06782(16) 1.07646(14) 0.11165(7)
H4 H 1.0179 1.1360 0.0804
C7 C 1.4401(2) 1.0400(2) 0.20049(10)
H5 H 1.4665 1.0148 0.2471
H6 H 1.4600 1.1362 0.1947
H7 H 1.4914 0.9849 0.1728
C8 C 0.78596(15) 0.98930(14) 0.04846(6)
H8 H 0.8423 0.9731 0.0125
C9 C 0.73443(14) 1.13576(14) 0.04636(7)
C10 C 0.71911(18) 1.20949(16) -0.01366(8)
H9 H 0.7416 1.1686 -0.0527
C11 C 0.6700(2) 1.34479(18) -0.01544(10)
H10 H 0.6583 1.3938 -0.0560
C12 C 0.63878(19) 1.40639(18) 0.04203(10)
H11 H 0.6073 1.4975 0.0406
C13 C 0.6538(2) 1.33408(18) 0.10153(10)
H12 H 0.6323 1.3758 0.1406
C14 C 0.70067(18) 1.19952(16) 0.10350(8)
H13 H 0.7098 1.1506 0.1440
C15 C 0.68182(17) 0.86967(15) 0.05146(7)
H14 H 0.6652 0.8141 0.0106
H15 H 0.5952 0.8977 0.0659
C16 C 0.78866(15) 0.80578(13) 0.10861(6)
C17 C 0.87507(17) 0.69240(14) 0.08085(7)
C18 C 0.9953(2) 0.48216(19) 0.10304(11)
H16 H 0.9501 0.4436 0.0612
H17 H 1.0087 0.4110 0.1369
H18 H 1.0838 0.5195 0.0967
C19 C 0.73391(15) 0.76170(14) 0.17245(7)
C20 C 0.5630(2) 0.6271(2) 0.21403(9)
H19 H 0.4795 0.5770 0.1976
H20 H 0.5414 0.7029 0.2417
H21 H 0.6279 0.5663 0.2404
loop_
_geom_bond_atom_site_label_1
_geom_bond_atom_site_label_2
_geom_bond_site_symmetry_1
_geom_bond_site_symmetry_2
O1 C17 1_555 1_555
O2 C17 1_555 1_555
O3 C19 1_555 1_555
O4 C19 1_555 1_555
N1 C1 1_555 1_555
C1 C2 1_555 1_555
C2 H1 1_555 1_555
C3 C2 1_555 1_555
H2 C3 1_555 1_555
C4 C3 1_555 1_555
C5 C4 1_555 1_555
H3 C5 1_555 1_555
C6 C1 1_555 1_555
H4 C6 1_555 1_555
C7 C4 1_555 1_555
H5 C7 1_555 1_555
H6 C7 1_555 1_555
H7 C7 1_555 1_555
C8 N1 1_555 1_555
H8 C8 1_555 1_555
C9 C8 1_555 1_555
C10 C9 1_555 1_555
H9 C10 1_555 1_555
C11 C10 1_555 1_555
H10 C11 1_555 1_555
C12 C11 1_555 1_555
H11 C12 1_555 1_555
C13 C12 1_555 1_555
H12 C13 1_555 1_555
C14 C9 1_555 1_555
H13 C14 1_555 1_555
C15 C8 1_555 1_555
H14 C15 1_555 1_555
H15 C15 1_555 1_555
C16 N1 1_555 1_555
C17 C16 1_555 1_555
C18 O2 1_555 1_555
H16 C18 1_555 1_555
H17 C18 1_555 1_555
H18 C18 1_555 1_555
C19 C16 1_555 1_555
C20 O4 1_555 1_555
H19 C20 1_555 1_555
H20 C20 1_555 1_555
H21 C20 1_555 1_555
C5 C6 1_555 1_555
C13 C14 1_555 1_555
C15 C16 1_555 1_555

#END
