
#######################################################################
#
#                 Cambridge Crystallographic Data Centre
#                                CCDC 
#
#######################################################################
#
# If this CIF has been generated from an entry in the Cambridge 
# Structural Database, then it will include bibliographic, chemical, 
# crystal, experimental, refinement or atomic coordinate data resulting 
# from the CCDC's data processing and validation procedures.
#
#######################################################################

data_OBAKIN
_chemical_formula_moiety         'C21 H20 N2 O5 S1'
_chemical_name_systematic        
"Methyl 4'-methylene-1'-((4-methylphenyl)sulfonyl)-3-oxospiro[indole-2,3'-pyrrolidine]-1(3H)-carboxylate"
_symmetry_cell_setting           monoclinic
_symmetry_space_group_name_H-M   'C 2/c'
_symmetry_Int_Tables_number      15
_space_group_name_Hall           '-C 2yn'
loop_
_symmetry_equiv_pos_site_id
_symmetry_equiv_pos_as_xyz
1 x,y,z
2 -x,y,1/2-z
3 1/2+x,1/2+y,z
4 1/2-x,1/2+y,1/2-z
5 -x,-y,-z
6 x,-y,1/2+z
7 1/2-x,1/2-y,-z
8 1/2+x,1/2-y,1/2+z
_cell_length_a                   14.625(5)
_cell_length_b                   18.877(6)
_cell_length_c                   15.507(6)
_cell_angle_alpha                90
_cell_angle_beta                 112.404(4)
_cell_angle_gamma                90
_cell_volume                     3957.97
_exptl_crystal_colour            yellow
_exptl_crystal_description       block
_cell_formula_units_Z            8
loop_
_atom_site_label
_atom_site_type_symbol
_atom_site_fract_x
_atom_site_fract_y
_atom_site_fract_z
C1 C 0.7473(3) 0.2818(3) 0.8547(3)
C2 C 0.6711(3) 0.2477(3) 0.7766(3)
C3 C 0.6548(4) 0.1763(3) 0.7586(4)
H1 H 0.6974 0.1428 0.7973
C4 C 0.5731(5) 0.1560(3) 0.6815(5)
H2 H 0.5594 0.1082 0.6681
C5 C 0.5122(4) 0.2070(4) 0.6244(4)
H3 H 0.4583 0.1926 0.5721
C6 C 0.5281(3) 0.2782(3) 0.6419(3)
H4 H 0.4859 0.3117 0.6026
C7 C 0.6093(3) 0.2988(3) 0.7205(3)
C8 C 0.7307(3) 0.3624(2) 0.8422(3)
C9 C 0.7198(3) 0.3969(2) 0.9281(3)
H5 H 0.6631 0.4283 0.9093
H6 H 0.7121 0.3611 0.9697
C10 C 0.8627(3) 0.4506(3) 0.9094(4)
H7 H 0.9335 0.4438 0.9405
H8 H 0.8502 0.4986 0.8856
C11 C 0.8200(3) 0.3985(2) 0.8329(3)
C12 C 0.8515(4) 0.3855(3) 0.7668(4)
H9 H 0.9057 0.4099 0.7646
H10 H 0.8198 0.3517 0.7217
C13 C 0.5977(4) 0.4283(3) 0.7136(4)
C14 C 0.6158(4) 0.5520(3) 0.7207(4)
H11 H 0.5451 0.5549 0.6995
H12 H 0.6355 0.5587 0.6688
H13 H 0.6452 0.5881 0.7665
C15 C 0.7443(3) 0.5655(2) 1.0020(3)
C16 C 0.6496(4) 0.5690(3) 1.0007(3)
H14 H 0.6255 0.5321 1.0258
C17 C 0.5909(4) 0.6265(3) 0.9630(3)
H15 H 0.5275 0.6278 0.9634
C18 C 0.6221(5) 0.6816(3) 0.9248(4)
C19 C 0.7161(5) 0.6772(3) 0.9250(4)
H16 H 0.7392 0.7138 0.8984
C20 C 0.7769(4) 0.6206(3) 0.9630(4)
H17 H 0.8402 0.6195 0.9625
C21 C 0.5547(6) 0.7447(4) 0.8850(4)
H18 H 0.5910 0.7813 0.8689
H19 H 0.5310 0.7623 0.9307
H20 H 0.4997 0.7303 0.8303
N1 N 0.6401(2) 0.3665(2) 0.7566(2)
N2 N 0.8125(2) 0.43679(18) 0.9737(2)
O1 O 0.8136(3) 0.25575(18) 0.9215(2)
O2 O 0.5250(2) 0.43134(17) 0.6438(2)
O3 O 0.6483(2) 0.48356(18) 0.7615(2)
O4 O 0.9202(2) 0.51794(19) 1.0907(2)
O5 O 0.7788(2) 0.46078(17) 1.1134(2)
S1 S 0.82020(9) 0.49356(7) 1.05414(9)
loop_
_geom_bond_atom_site_label_1
_geom_bond_atom_site_label_2
_geom_bond_site_symmetry_1
_geom_bond_site_symmetry_2
C1 C2 1_555 1_555
C2 C3 1_555 1_555
C3 H1 1_555 1_555
C4 C3 1_555 1_555
H2 C4 1_555 1_555
C5 C4 1_555 1_555
H3 C5 1_555 1_555
C6 C5 1_555 1_555
H4 C6 1_555 1_555
C7 C2 1_555 1_555
C8 C1 1_555 1_555
C9 C8 1_555 1_555
H5 C9 1_555 1_555
H6 C9 1_555 1_555
C10 H7 1_555 1_555
H8 C10 1_555 1_555
C11 C8 1_555 1_555
C12 C11 1_555 1_555
H9 C12 1_555 1_555
H10 C12 1_555 1_555
C13 N1 1_555 1_555
C14 H11 1_555 1_555
H12 C14 1_555 1_555
H13 C14 1_555 1_555
C15 C16 1_555 1_555
C16 H14 1_555 1_555
C17 C16 1_555 1_555
H15 C17 1_555 1_555
C18 C17 1_555 1_555
C19 C18 1_555 1_555
H16 C19 1_555 1_555
C20 C15 1_555 1_555
H17 C20 1_555 1_555
C21 C18 1_555 1_555
H18 C21 1_555 1_555
H19 C21 1_555 1_555
H20 C21 1_555 1_555
N1 C7 1_555 1_555
N2 C9 1_555 1_555
O1 C1 1_555 1_555
O2 C13 1_555 1_555
O3 C13 1_555 1_555
O4 S1 1_555 1_555
O5 S1 1_555 1_555
S1 C15 1_555 1_555
C6 C7 1_555 1_555
C8 N1 1_555 1_555
C10 C11 1_555 1_555
C10 N2 1_555 1_555
C14 O3 1_555 1_555
C19 C20 1_555 1_555
N2 S1 1_555 1_555

#END
