
#######################################################################
#
#                 Cambridge Crystallographic Data Centre
#                                CCDC 
#
#######################################################################
#
# If this CIF has been generated from an entry in the Cambridge 
# Structural Database, then it will include bibliographic, chemical, 
# crystal, experimental, refinement or atomic coordinate data resulting 
# from the CCDC's data processing and validation procedures.
#
#######################################################################

data_OBALUB
_chemical_formula_moiety         'C27 H23 N1 O4 S1'
_chemical_name_systematic        
'ethyl 6-methyl-11-((4-methylphenyl)sulfonyl)-11H-benzo[a]carbazole-5-carboxylate'
_symmetry_cell_setting           monoclinic
_symmetry_space_group_name_H-M   'P 21/n'
_symmetry_Int_Tables_number      14
_space_group_name_Hall           '-P 2yn'
loop_
_symmetry_equiv_pos_site_id
_symmetry_equiv_pos_as_xyz
1 x,y,z
2 1/2-x,1/2+y,1/2-z
3 -x,-y,-z
4 1/2+x,1/2-y,1/2+z
_cell_length_a                   9.3674(5)
_cell_length_b                   22.1770(12)
_cell_length_c                   11.7000(7)
_cell_angle_alpha                90
_cell_angle_beta                 106.835(2)
_cell_angle_gamma                90
_cell_volume                     2326.4
_exptl_crystal_colour            colorless
_exptl_crystal_description       block
_cell_formula_units_Z            4
loop_
_atom_site_label
_atom_site_type_symbol
_atom_site_fract_x
_atom_site_fract_y
_atom_site_fract_z
C1 C -0.0752(5) 0.2093(2) -0.0898(4)
H1 H -0.0577 0.2002 -0.1648
H2 H -0.0471 0.2503 -0.0682
H3 H -0.1791 0.2040 -0.0968
C2 C 0.0161(4) 0.16774(19) 0.0048(3)
C3 C 0.1372(4) 0.18847(16) 0.0941(3)
H4 H 0.1631 0.2290 0.0957
C4 C 0.2208(4) 0.15036(15) 0.1810(3)
H5 H 0.3017 0.1652 0.2409
C5 C 0.1840(3) 0.09074(14) 0.1787(3)
C6 C 0.0635(4) 0.06901(17) 0.0911(3)
H6 H 0.0386 0.0284 0.0897
C7 C -0.0198(5) 0.1073(2) 0.0059(4)
H7 H -0.1021 0.0924 -0.0524
C8 C 0.0508(4) 0.01212(16) 0.3461(3)
C9 C 0.0114(5) -0.04403(18) 0.2956(3)
H8 H 0.0830 -0.0712 0.2866
C10 C -0.1392(6) -0.0582(2) 0.2589(4)
H9 H -0.1700 -0.0952 0.2231
C11 C -0.2435(6) -0.0182(2) 0.2747(4)
H10 H -0.3437 -0.0288 0.2488
C12 C -0.2046(4) 0.0377(2) 0.3279(3)
H11 H -0.2768 0.0640 0.3391
C13 C -0.0540(4) 0.05317(16) 0.3642(3)
C14 C 0.0284(3) 0.10467(15) 0.4269(3)
C15 C 0.1796(3) 0.09267(14) 0.4484(3)
C16 C 0.2913(3) 0.12681(14) 0.5292(3)
C17 C 0.4417(4) 0.10908(16) 0.5778(3)
H12 H 0.4754 0.0740 0.5506
C18 C 0.5376(4) 0.14254(19) 0.6636(4)
H13 H 0.6361 0.1300 0.6945
C19 C 0.4911(5) 0.19482(19) 0.7056(4)
H14 H 0.5583 0.2173 0.7643
C20 C 0.3480(4) 0.21376(18) 0.6619(3)
H15 H 0.3187 0.2495 0.6901
C21 C 0.2429(4) 0.18006(15) 0.5744(3)
C22 C 0.0885(4) 0.19628(15) 0.5374(3)
C23 C -0.0195(4) 0.15897(16) 0.4689(3)
C24 C -0.1829(4) 0.1739(2) 0.4369(4)
H16 H -0.1950 0.2159 0.4517
H17 H -0.2292 0.1500 0.4848
H18 H -0.2288 0.1652 0.3540
C25 C 0.0466(4) 0.25451(18) 0.5825(3)
N1 N 0.1995(3) 0.03685(12) 0.3924(2)
O1 O 0.0800(4) 0.30077(12) 0.5287(3)
O2 O -0.0115(4) 0.25865(15) 0.6608(3)
O3 O 0.4323(2) 0.06897(13) 0.3413(2)
O4 O 0.2857(3) -0.01708(12) 0.2371(3)
S1 S 0.29196(10) 0.04171(4) 0.28731(8)
C26 C 0.05561(10) 0.36134(4) 0.57372(8)
H19 H -0.0416 0.3626 0.5874
H20 H 0.1304 0.3688 0.6493
C27 C 0.06362(10) 0.40509(4) 0.49448(8)
H21 H 0.1650 0.4184 0.5105
H22 H 0.0018 0.4385 0.5021
H23 H 0.0297 0.3893 0.4148
loop_
_geom_bond_atom_site_label_1
_geom_bond_atom_site_label_2
_geom_bond_site_symmetry_1
_geom_bond_site_symmetry_2
C1 H1 1_555 1_555
H2 C1 1_555 1_555
H3 C1 1_555 1_555
C2 C1 1_555 1_555
C3 C2 1_555 1_555
H4 C3 1_555 1_555
C4 C3 1_555 1_555
H5 C4 1_555 1_555
C5 C4 1_555 1_555
C6 C5 1_555 1_555
H6 C6 1_555 1_555
C7 C2 1_555 1_555
H7 C7 1_555 1_555
C8 C9 1_555 1_555
C9 H8 1_555 1_555
C10 C9 1_555 1_555
H9 C10 1_555 1_555
C11 C10 1_555 1_555
H10 C11 1_555 1_555
C12 C11 1_555 1_555
H11 C12 1_555 1_555
C13 C8 1_555 1_555
C14 C13 1_555 1_555
C15 C14 1_555 1_555
C16 C15 1_555 1_555
C17 C16 1_555 1_555
H12 C17 1_555 1_555
C18 C17 1_555 1_555
H13 C18 1_555 1_555
C19 C18 1_555 1_555
H14 C19 1_555 1_555
C20 C19 1_555 1_555
H15 C20 1_555 1_555
C21 C16 1_555 1_555
C22 C21 1_555 1_555
C23 C14 1_555 1_555
C24 C23 1_555 1_555
H16 C24 1_555 1_555
H17 C24 1_555 1_555
H18 C24 1_555 1_555
C25 C22 1_555 1_555
N1 C8 1_555 1_555
O1 C25 1_555 1_555
O2 C25 1_555 1_555
O3 S1 1_555 1_555
O4 S1 1_555 1_555
S1 C5 1_555 1_555
C26 O1 1_555 1_555
H19 C26 1_555 1_555
H20 C26 1_555 1_555
C27 C26 1_555 1_555
H21 C27 1_555 1_555
H22 C27 1_555 1_555
H23 C27 1_555 1_555
C6 C7 1_555 1_555
C12 C13 1_555 1_555
C15 N1 1_555 1_555
C20 C21 1_555 1_555
C22 C23 1_555 1_555
N1 S1 1_555 1_555

#END
