
#######################################################################
#
#                 Cambridge Crystallographic Data Centre
#                                CCDC 
#
#######################################################################
#
# If this CIF has been generated from an entry in the Cambridge 
# Structural Database, then it will include bibliographic, chemical, 
# crystal, experimental, refinement or atomic coordinate data resulting 
# from the CCDC's data processing and validation procedures.
#
#######################################################################

data_OBASIW
_chemical_formula_moiety         'C41 H34 O11'
_chemical_name_systematic        
'2-((benzoyloxy)methyl)-6-(4-methoxyphenoxy)tetrahydro-2H-pyran-3,4,5-triyl tribenzoate'
_symmetry_cell_setting           monoclinic
_symmetry_space_group_name_H-M   'P 21'
_symmetry_Int_Tables_number      4
_space_group_name_Hall           'P 2yb'
loop_
_symmetry_equiv_pos_site_id
_symmetry_equiv_pos_as_xyz
1 x,y,z
2 -x,1/2+y,-z
_cell_length_a                   7.9854(7)
_cell_length_b                   10.5277(9)
_cell_length_c                   20.7495(18)
_cell_angle_alpha                90
_cell_angle_beta                 91.396(6)
_cell_angle_gamma                90
_cell_volume                     1743.85
_exptl_crystal_colour            colorless
_exptl_crystal_description       needle
_cell_formula_units_Z            2
loop_
_atom_site_label
_atom_site_type_symbol
_atom_site_fract_x
_atom_site_fract_y
_atom_site_fract_z
C1 C 0.5927(4) 0.8035(3) 0.03134(15)
C2 C 0.0347(3) 0.8124(3) 0.26908(13)
H1 H -0.0532 0.7677 0.2443
C3 C 0.4402(4) 0.7012(3) 0.18861(14)
H2 H 0.5187 0.7531 0.2134
H3 H 0.4465 0.6148 0.2048
C4 C 0.2647(4) 0.7521(3) 0.19454(13)
H4 H 0.1896 0.7040 0.1656
C5 C -0.0940(4) 0.7091(3) 0.42960(14)
C6 C 0.1051(3) 1.0572(3) 0.07851(13)
C7 C -0.2669(3) 1.1943(3) 0.26761(13)
C8 C 0.0516(3) 0.9471(3) 0.24397(13)
H5 H 0.1378 0.9928 0.2692
C9 C 0.4723(4) 0.8111(4) 0.46957(14)
H6 H 0.4106 0.7457 0.4876
C10 C 0.0854(4) 1.0746(3) -0.05441(14)
C11 C -0.1928(4) 0.6188(3) 0.45835(16)
H7 H -0.2577 0.5642 0.4329
C12 C -0.0994(4) 1.1362(3) 0.26371(13)
C13 C 0.4655(4) 0.8311(3) 0.40351(13)
C14 C 0.5909(4) 0.7940(3) 0.10247(16)
C15 C -0.0924(4) 0.7143(3) 0.35835(15)
C16 C 0.1916(4) 0.9744(3) 0.04104(14)
H8 H 0.2582 0.9120 0.0604
C17 C 0.1807(4) 0.9826(3) -0.02552(14)
H9 H 0.2387 0.9250 -0.0506
C18 C 0.1038(4) 0.9356(3) 0.17372(13)
H10 H 0.0247 0.8816 0.1495
C19 C 0.5043(5) 0.7231(3) -0.00859(18)
H11 H 0.4410 0.6581 0.0089
C20 C 0.0097(4) 1.1511(3) 0.04974(16)
H12 H -0.0492 1.2083 0.0747
C21 C 0.0019(4) 0.7897(3) 0.46743(15)
H13 H 0.0673 0.8518 0.4484
C22 C 0.6566(5) 1.0043(4) 0.41795(18)
H14 H 0.7195 1.0696 0.4005
C23 C -0.1958(5) 0.6092(4) 0.52410(18)
H15 H -0.2641 0.5491 0.5432
C24 C 0.3593(4) 0.7476(3) 0.36248(14)
C25 C -0.4122(4) 1.1353(3) 0.24496(14)
H16 H -0.4058 1.0571 0.2243
C26 C 0.5578(4) 0.9295(3) 0.37823(15)
H17 H 0.5530 0.9453 0.3341
C27 C 0.2008(4) 0.7423(3) 0.26297(13)
H18 H 0.1879 0.6530 0.2752
C28 C -0.0985(5) 0.6878(5) 0.56160(17)
H19 H -0.0994 0.6800 0.6062
C29 C 0.0004(5) 0.7781(4) 0.53389(17)
H20 H 0.0664 0.8314 0.5597
C30 C 0.5083(6) 0.7376(4) -0.07443(19)
H21 H 0.4496 0.6816 -0.1012
C31 C 0.5703(5) 0.8881(4) 0.50839(16)
H22 H 0.5734 0.8750 0.5527
C32 C -0.4312(4) 1.3693(3) 0.30466(16)
H23 H -0.4381 1.4485 0.3243
C33 C -0.2782(4) 1.3136(3) 0.29635(14)
H24 H -0.1812 1.3556 0.3100
C34 C 0.5981(5) 0.8340(4) -0.10032(18)
H25 H 0.5985 0.8448 -0.1448
C35 C 0.6868(5) 0.9141(4) -0.0616(2)
H26 H 0.7486 0.9794 -0.0796
C36 C 0.6631(5) 0.9834(4) 0.48273(18)
H27 H 0.7306 1.0339 0.5094
C37 C -0.5656(4) 1.1917(4) 0.25296(17)
H28 H -0.6627 1.1520 0.2377
C38 C 0.6858(4) 0.8991(4) 0.00412(19)
H29 H 0.7481 0.9538 0.0305
C39 C 0.1456(6) 1.0026(4) -0.16053(17)
H30 H 0.2637 1.0012 -0.1506
H31 H 0.1275 1.0274 -0.2047
H32 H 0.0995 0.9195 -0.1540
C40 C 0.0024(5) 1.1596(3) -0.01684(16)
H33 H -0.0600 1.2242 -0.0364
C41 C -0.5746(4) 1.3078(4) 0.28390(18)
H34 H -0.6786 1.3446 0.2907
O1 O 0.2662(2) 0.88116(19) 0.17433(9)
O2 O 0.1111(2) 1.05555(18) 0.14599(9)
O3 O -0.0076(2) 0.81615(19) 0.33605(8)
O4 O 0.3212(2) 0.80352(19) 0.30510(8)
O5 O -0.1060(2) 1.01143(19) 0.24801(9)
O6 O 0.4802(3) 0.7044(2) 0.12139(10)
O7 O -0.1537(4) 0.6362(3) 0.32340(12)
O8 O 0.3090(3) 0.6450(2) 0.37663(11)
O9 O 0.6729(4) 0.8575(3) 0.13904(13)
O10 O 0.0295(3) 1.1914(2) 0.27469(12)
O11 O 0.0662(3) 1.0908(2) -0.11968(10)
loop_
_geom_bond_atom_site_label_1
_geom_bond_atom_site_label_2
_geom_bond_site_symmetry_1
_geom_bond_site_symmetry_2
C1 C14 1_555 1_555
C2 H1 1_555 1_555
C3 H2 1_555 1_555
H3 C3 1_555 1_555
C4 C3 1_555 1_555
H4 C4 1_555 1_555
C5 C11 1_555 1_555
C6 C16 1_555 1_555
C7 C12 1_555 1_555
C8 C2 1_555 1_555
H5 C8 1_555 1_555
C9 H6 1_555 1_555
C10 C17 1_555 1_555
C11 H7 1_555 1_555
C12 O5 1_555 1_555
C13 C9 1_555 1_555
C14 O6 1_555 1_555
C15 C5 1_555 1_555
C16 H8 1_555 1_555
C17 C16 1_555 1_555
H9 C17 1_555 1_555
C18 C8 1_555 1_555
H10 C18 1_555 1_555
C19 C1 1_555 1_555
H11 C19 1_555 1_555
C20 C6 1_555 1_555
H12 C20 1_555 1_555
C21 C5 1_555 1_555
H13 C21 1_555 1_555
C22 H14 1_555 1_555
C23 C11 1_555 1_555
H15 C23 1_555 1_555
C24 C13 1_555 1_555
C25 C7 1_555 1_555
H16 C25 1_555 1_555
C26 C13 1_555 1_555
H17 C26 1_555 1_555
C27 C2 1_555 1_555
H18 C27 1_555 1_555
C28 C23 1_555 1_555
H19 C28 1_555 1_555
C29 C21 1_555 1_555
H20 C29 1_555 1_555
C30 C19 1_555 1_555
H21 C30 1_555 1_555
C31 C9 1_555 1_555
H22 C31 1_555 1_555
C32 H23 1_555 1_555
C33 C7 1_555 1_555
H24 C33 1_555 1_555
C34 C30 1_555 1_555
H25 C34 1_555 1_555
C35 C34 1_555 1_555
H26 C35 1_555 1_555
C36 C22 1_555 1_555
H27 C36 1_555 1_555
C37 C25 1_555 1_555
H28 C37 1_555 1_555
C38 C1 1_555 1_555
H29 C38 1_555 1_555
C39 H30 1_555 1_555
H31 C39 1_555 1_555
H32 C39 1_555 1_555
C40 C10 1_555 1_555
H33 C40 1_555 1_555
C41 C32 1_555 1_555
H34 C41 1_555 1_555
O1 C4 1_555 1_555
O2 C6 1_555 1_555
O3 C2 1_555 1_555
O4 C24 1_555 1_555
O5 C8 1_555 1_555
O6 C3 1_555 1_555
O7 C15 1_555 1_555
O8 C24 1_555 1_555
O9 C14 1_555 1_555
O10 C12 1_555 1_555
O11 C10 1_555 1_555
C4 C27 1_555 1_555
C15 O3 1_555 1_555
C18 O1 1_555 1_555
C18 O2 1_555 1_555
C20 C40 1_555 1_555
C22 C26 1_555 1_555
C27 O4 1_555 1_555
C28 C29 1_555 1_555
C31 C36 1_555 1_555
C32 C33 1_555 1_555
C35 C38 1_555 1_555
C37 C41 1_555 1_555
C39 O11 1_555 1_555

#END
