
#######################################################################
#
#                 Cambridge Crystallographic Data Centre
#                                CCDC 
#
#######################################################################
#
# If this CIF has been generated from an entry in the Cambridge 
# Structural Database, then it will include bibliographic, chemical, 
# crystal, experimental, refinement or atomic coordinate data resulting 
# from the CCDC's data processing and validation procedures.
#
#######################################################################

data_OBASOC
_chemical_formula_moiety         'C30 H30 O9'
_chemical_name_systematic        
'(7-(benzoyloxy)-6-(4-methoxyphenoxy)-2,2-dimethyltetrahydro-4H-[1,3]dioxolo[4,5-c]pyran-4-yl)methyl benzoate'
_symmetry_cell_setting           monoclinic
_symmetry_space_group_name_H-M   'P 21'
_symmetry_Int_Tables_number      4
_space_group_name_Hall           'P 2yb'
loop_
_symmetry_equiv_pos_site_id
_symmetry_equiv_pos_as_xyz
1 x,y,z
2 -x,1/2+y,-z
_cell_length_a                   9.071(2)
_cell_length_b                   21.470(6)
_cell_length_c                   14.218(4)
_cell_angle_alpha                90
_cell_angle_beta                 93.956(3)
_cell_angle_gamma                90
_cell_volume                     2762.42
_exptl_crystal_colour            colorless
_exptl_crystal_description       block
_cell_formula_units_Z            4
loop_
_atom_site_label
_atom_site_type_symbol
_atom_site_fract_x
_atom_site_fract_y
_atom_site_fract_z
C1 C 0.1253(3) 0.40731(11) 0.83931(16)
H1 H 0.1941 0.4409 0.8263
C2 C 0.0053(3) 0.40547(14) 0.76069(16)
H2 H -0.0581 0.3697 0.7681
H3 H -0.0547 0.4428 0.7619
C3 C 0.1648(3) 0.40445(12) 1.01995(16)
H4 H 0.2311 0.4394 1.0363
C4 C 0.0623(3) 0.42027(12) 0.93322(16)
H5 H 0.0331 0.4641 0.9360
C5 C 0.5087(3) 0.29894(11) 0.82786(17)
C6 C 0.3231(3) 0.34954(11) 0.91064(16)
H6 H 0.3819 0.3877 0.9070
C7 C 0.2532(3) 0.34538(12) 1.00441(16)
H7 H 0.1873 0.3092 1.0040
C8 C 0.0736(3) 0.41831(12) 0.50932(18)
C9 C 0.6325(3) 0.26238(13) 0.8416(2)
H8 H 0.6498 0.2409 0.8981
C10 C 0.4711(3) 0.28973(13) 1.21645(17)
C11 C 0.5853(3) 0.32780(14) 0.6766(2)
H9 H 0.5698 0.3505 0.6210
C12 C -0.0806(3) 0.38164(14) 1.04572(18)
C13 C 0.7319(3) 0.25723(14) 0.7723(2)
H10 H 0.8143 0.2316 0.7818
C14 C 0.4846(3) 0.33217(13) 0.74531(18)
H11 H 0.4015 0.3573 0.7358
C15 C 0.7088(3) 0.28990(15) 0.6898(2)
C16 C 0.0005(4) 0.43496(14) 0.42406(19)
H12 H -0.0959 0.4498 0.4228
C17 C 0.0701(4) 0.42963(16) 0.3411(2)
H13 H 0.0198 0.4406 0.2843
C18 C 0.5561(3) 0.34180(16) 1.2386(2)
H14 H 0.5502 0.3762 1.1987
C19 C 0.3683(3) 0.28611(12) 1.13131(17)
C20 C 0.5719(5) 0.2417(2) 1.3587(3)
H15 H 0.5767 0.2081 1.4001
C21 C -0.1868(4) 0.43183(16) 1.0717(2)
H16 H -0.1521 0.4716 1.0516
H17 H -0.1933 0.4322 1.1388
H18 H -0.2827 0.4237 1.0413
C22 C 0.4790(4) 0.23875(16) 1.2774(2)
H19 H 0.4228 0.2033 1.2636
C23 C 0.6500(4) 0.3433(2) 1.3196(3)
H20 H 0.7081 0.3782 1.3333
C24 C 0.2100(4) 0.40870(17) 0.3416(2)
H21 H 0.2562 0.4056 0.2854
C25 C 0.6572(5) 0.2934(3) 1.3794(2)
H22 H 0.7198 0.2945 1.4340
C26 C -0.1293(5) 0.31755(17) 1.0732(3)
H23 H -0.2165 0.3061 1.0350
H24 H -0.1506 0.3175 1.1384
H25 H -0.0520 0.2882 1.0637
C27 C 0.2176(3) 0.39657(18) 0.5085(2)
H26 H 0.2690 0.3851 0.5647
C28 C 0.2844(4) 0.3919(2) 0.4251(3)
H27 H 0.3809 0.3773 0.4252
C29 C 0.9211(5) 0.2483(2) 0.6243(3)
H28 H 0.9864 0.2603 0.6771
H29 H 0.9728 0.2502 0.5677
H30 H 0.8872 0.2065 0.6334
O1 O 0.20440(18) 0.34918(8) 0.84044(11)
O2 O 0.36252(19) 0.34042(8) 1.08250(12)
O3 O 0.07421(18) 0.40141(9) 0.67253(11)
O4 O 0.4102(2) 0.29683(8) 0.89932(12)
O5 O -0.06161(19) 0.38206(9) 0.94681(11)
O6 O -0.1246(2) 0.44775(12) 0.60070(14)
O7 O 0.0639(2) 0.39550(10) 1.09078(12)
O8 O 0.2972(3) 0.24098(9) 1.10700(16)
O9 O 0.7992(3) 0.28892(13) 0.61657(16)
C30 C -0.0047(3) 0.42452(13) 0.59633(18)
C31 C 0.8775(2) 0.09991(12) 1.24105(16)
C32 C 0.9770(2) 0.10398(12) 0.91968(18)
C33 C 0.7134(2) 0.09469(12) 1.10222(16)
H31 H 0.7209 0.0504 1.1183
C34 C 1.0693(3) 0.15493(13) 0.92555(19)
H32 H 1.0817 0.1773 0.9816
C35 C 0.5260(2) 0.09266(13) 0.92935(16)
H33 H 0.5304 0.1343 0.9013
C36 C 0.4535(3) 0.09766(12) 1.02128(16)
H34 H 0.3700 0.1266 1.0137
C37 C 0.4278(3) 0.03118(14) 0.69723(18)
C38 C 1.1438(3) 0.17300(14) 0.8479(2)
H35 H 1.2068 0.2072 0.8518
C39 C 0.7642(2) 0.10533(12) 1.00395(17)
H36 H 0.7560 0.1494 0.9866
C40 C 0.9675(2) 0.14237(12) 1.30313(16)
C41 C 0.4409(3) 0.05032(14) 0.86076(17)
H37 H 0.4551 0.0071 0.8792
H38 H 0.3362 0.0598 0.8587
C42 C 1.0292(3) 0.08868(14) 0.75955(19)
H39 H 1.0147 0.0666 0.7034
C43 C 0.5541(3) 0.11684(12) 1.10773(17)
H40 H 0.5519 0.1622 1.1154
C44 C 1.1236(3) 0.13950(13) 0.76431(18)
C45 C 0.4946(3) 0.04477(15) 0.60753(18)
C46 C 0.3784(3) 0.04333(14) 1.14750(17)
C47 C 0.9568(3) 0.07064(13) 0.83672(19)
H41 H 0.8945 0.0362 0.8332
C48 C 1.0462(3) 0.11738(16) 1.38154(19)
H42 H 1.0382 0.0752 1.3953
C49 C 0.9807(4) 0.20427(16) 1.2850(2)
H43 H 0.9286 0.2218 1.2329
C50 C 1.3017(4) 0.19949(18) 0.6877(2)
H44 H 1.2562 0.2387 0.7000
H45 H 1.3463 0.2015 0.6285
H46 H 1.3761 0.1905 0.7371
C51 C 0.2280(3) 0.06970(18) 1.1628(2)
H47 H 0.2208 0.1112 1.1377
H48 H 0.2140 0.0708 1.2291
H49 H 0.1533 0.0440 1.1315
C52 C 1.1489(4) 0.2169(2) 1.4193(3)
H50 H 1.2108 0.2421 1.4579
C53 C 1.0719(5) 0.24131(19) 1.3442(3)
H51 H 1.0797 0.2836 1.3316
C54 C 1.1361(4) 0.1551(2) 1.4388(2)
H52 H 1.1886 0.1383 1.4913
C55 C 0.4047(5) -0.01923(16) 1.1906(2)
H53 H 0.3469 -0.0497 1.1551
H54 H 0.3764 -0.0187 1.2544
H55 H 0.5076 -0.0296 1.1901
C56 C 0.6111(9) 0.0656(3) 0.4373(3)
H56 H 0.6526 0.0709 0.3798
C57 C 0.4190(5) 0.0276(3) 0.5248(2)
H57 H 0.3282 0.0076 0.5262
C58 C 0.6854(6) 0.0840(3) 0.5182(3)
H58 H 0.7766 0.1035 0.5161
C59 C 0.6266(4) 0.0739(2) 0.6038(2)
H59 H 0.6777 0.0871 0.6592
C60 C 0.4766(8) 0.0396(4) 0.4405(3)
H60 H 0.4222 0.0297 0.3846
O10 O 0.67255(17) 0.06824(8) 0.94170(11)
O11 O 0.90918(17) 0.08471(9) 1.00073(12)
O12 O 0.80472(18) 0.13060(8) 1.16865(12)
O13 O 0.48818(19) 0.08765(10) 1.18394(12)
O14 O 0.40203(19) 0.03859(9) 1.04931(11)
O15 O 0.4977(2) 0.06128(10) 0.77012(12)
O16 O 1.1929(2) 0.15176(11) 0.68399(13)
O17 O 0.3241(3) -0.00228(12) 0.70624(15)
O18 O 0.8676(2) 0.04497(10) 1.25202(14)
loop_
_geom_bond_atom_site_label_1
_geom_bond_atom_site_label_2
_geom_bond_site_symmetry_1
_geom_bond_site_symmetry_2
C1 H1 1_555 1_555
C2 C1 1_555 1_555
H2 C2 1_555 1_555
H3 C2 1_555 1_555
C3 H4 1_555 1_555
C4 C1 1_555 1_555
H5 C4 1_555 1_555
C5 C9 1_555 1_555
C6 H6 1_555 1_555
C7 C3 1_555 1_555
H7 C7 1_555 1_555
C8 C16 1_555 1_555
C9 H8 1_555 1_555
C10 C18 1_555 1_555
C11 H9 1_555 1_555
C12 C21 1_555 1_555
C13 C9 1_555 1_555
H10 C13 1_555 1_555
C14 C5 1_555 1_555
H11 C14 1_555 1_555
C15 C11 1_555 1_555
C16 H12 1_555 1_555
C17 C16 1_555 1_555
H13 C17 1_555 1_555
C18 H14 1_555 1_555
C19 C10 1_555 1_555
C20 H15 1_555 1_555
C21 H16 1_555 1_555
H17 C21 1_555 1_555
H18 C21 1_555 1_555
C22 C10 1_555 1_555
H19 C22 1_555 1_555
C23 C18 1_555 1_555
H20 C23 1_555 1_555
C24 C17 1_555 1_555
H21 C24 1_555 1_555
C25 C20 1_555 1_555
H22 C25 1_555 1_555
C26 C12 1_555 1_555
H23 C26 1_555 1_555
H24 C26 1_555 1_555
H25 C26 1_555 1_555
C27 C8 1_555 1_555
H26 C27 1_555 1_555
C28 C24 1_555 1_555
H27 C28 1_555 1_555
C29 H28 1_555 1_555
H29 C29 1_555 1_555
H30 C29 1_555 1_555
O1 C1 1_555 1_555
O2 C7 1_555 1_555
O3 C2 1_555 1_555
O4 C5 1_555 1_555
O5 C4 1_555 1_555
O6 C30 1_555 1_555
O7 C3 1_555 1_555
O8 C19 1_555 1_555
O9 C15 1_555 1_555
C30 C8 1_555 1_555
C31 C40 1_555 1_555
C32 C34 1_555 1_555
C33 H31 1_555 1_555
C34 H32 1_555 1_555
C35 H33 1_555 1_555
C36 C35 1_555 1_555
H34 C36 1_555 1_555
C37 C45 1_555 1_555
C38 C34 1_555 1_555
H35 C38 1_555 1_555
C39 C33 1_555 1_555
H36 C39 1_555 1_555
C40 C48 1_555 1_555
C41 C35 1_555 1_555
H37 C41 1_555 1_555
H38 C41 1_555 1_555
C42 H39 1_555 1_555
C43 C33 1_555 1_555
H40 C43 1_555 1_555
C44 C38 1_555 1_555
C45 C57 1_555 1_555
C46 C51 1_555 1_555
C47 C32 1_555 1_555
H41 C47 1_555 1_555
C48 H42 1_555 1_555
C49 C40 1_555 1_555
H43 C49 1_555 1_555
C50 H44 1_555 1_555
H45 C50 1_555 1_555
H46 C50 1_555 1_555
C51 H47 1_555 1_555
H48 C51 1_555 1_555
H49 C51 1_555 1_555
C52 H50 1_555 1_555
C53 C49 1_555 1_555
H51 C53 1_555 1_555
C54 C48 1_555 1_555
H52 C54 1_555 1_555
C55 C46 1_555 1_555
H53 C55 1_555 1_555
H54 C55 1_555 1_555
H55 C55 1_555 1_555
C56 H56 1_555 1_555
C57 H57 1_555 1_555
C58 C56 1_555 1_555
H58 C58 1_555 1_555
C59 C45 1_555 1_555
H59 C59 1_555 1_555
C60 C56 1_555 1_555
H60 C60 1_555 1_555
O10 C35 1_555 1_555
O11 C32 1_555 1_555
O12 C31 1_555 1_555
O13 C43 1_555 1_555
O14 C36 1_555 1_555
O15 C37 1_555 1_555
O16 C44 1_555 1_555
O17 C37 1_555 1_555
O18 C31 1_555 1_555
C3 C4 1_555 1_555
C6 C7 1_555 1_555
C6 O1 1_555 1_555
C6 O4 1_555 1_555
C11 C14 1_555 1_555
C12 O5 1_555 1_555
C12 O7 1_555 1_555
C13 C15 1_555 1_555
C19 O2 1_555 1_555
C20 C22 1_555 1_555
C23 C25 1_555 1_555
C27 C28 1_555 1_555
C29 O9 1_555 1_555
O3 C30 1_555 1_555
C33 O12 1_555 1_555
C36 C43 1_555 1_555
C39 O10 1_555 1_555
C39 O11 1_555 1_555
C41 O15 1_555 1_555
C42 C44 1_555 1_555
C42 C47 1_555 1_555
C46 O13 1_555 1_555
C46 O14 1_555 1_555
C50 O16 1_555 1_555
C52 C53 1_555 1_555
C52 C54 1_555 1_555
C57 C60 1_555 1_555
C58 C59 1_555 1_555

#END
