
#######################################################################
#
#                 Cambridge Crystallographic Data Centre
#                                CCDC 
#
#######################################################################
#
# If this CIF has been generated from an entry in the Cambridge 
# Structural Database, then it will include bibliographic, chemical, 
# crystal, experimental, refinement or atomic coordinate data resulting 
# from the CCDC's data processing and validation procedures.
#
#######################################################################

data_OBAWIA
_chemical_formula_moiety         'C16 H17 N3 O3'
_chemical_name_systematic        
4-hydroxy-2-oxo-N-(pyridin-3-ylmethyl)-1,2,5,6,7,8-hexahydroquinoline-3-carboxamide
_symmetry_cell_setting           triclinic
_symmetry_space_group_name_H-M   'P -1'
_symmetry_Int_Tables_number      2
_space_group_name_Hall           '-P 1'
loop_
_symmetry_equiv_pos_site_id
_symmetry_equiv_pos_as_xyz
1 x,y,z
2 -x,-y,-z
_cell_length_a                   7.8645(19)
_cell_length_b                   12.0766(16)
_cell_length_c                   16.1063(18)
_cell_angle_alpha                80.058(10)
_cell_angle_beta                 85.313(14)
_cell_angle_gamma                71.969(18)
_cell_volume                     1432.1
_exptl_crystal_colour            colorless
_exptl_crystal_description       plate
_cell_formula_units_Z            4
loop_
_atom_site_label
_atom_site_type_symbol
_atom_site_fract_x
_atom_site_fract_y
_atom_site_fract_z
O1 O 0.2493(5) 0.1577(3) 0.6309(2)
O2 O 0.2580(5) -0.2299(3) 0.5998(2)
H1 H 0.2541 -0.2400 0.6515
O3 O 0.2479(5) -0.1820(3) 0.7460(2)
N1 N 0.2555(6) 0.1012(4) 0.5029(3)
H2 H 0.2561 0.1710 0.4804
N2 N 0.2601(6) -0.0071(4) 0.7681(2)
H3 H 0.2786 0.0585 0.7463
N3 N -0.2187(8) -0.0626(5) 0.9366(3)
C1 C 0.2558(7) 0.0252(5) 0.4494(3)
C2 C 0.2539(8) 0.0733(5) 0.3559(3)
H4 H 0.3691 0.0845 0.3382
H5 H 0.1638 0.1497 0.3462
C3 C 0.2143(18) -0.0088(8) 0.3018(7)
H6 H 0.2516 0.0118 0.2438
H7 H 0.0864 0.0033 0.3032
C4 C 0.3108(19) -0.1397(10) 0.3327(4)
H8 H 0.4390 -0.1540 0.3246
H9 H 0.2752 -0.1879 0.2993
C5 C 0.2672(8) -0.1758(5) 0.4265(3)
H10 H 0.1522 -0.1908 0.4311
H11 H 0.3564 -0.2491 0.4475
C6 C 0.2610(7) -0.0860(5) 0.4819(3)
C7 C 0.2613(7) -0.1204(5) 0.5707(3)
C8 C 0.2626(7) -0.0423(4) 0.6244(3)
C9 C 0.2542(7) 0.0768(5) 0.5899(3)
C10 C 0.2556(7) -0.0810(5) 0.7172(3)
C11 C 0.2351(8) -0.0314(4) 0.8604(3)
H12 H 0.2917 0.0137 0.8871
H13 H 0.2907 -0.1144 0.8804
C12 C 0.0368(8) 0.0021(5) 0.8834(3)
C13 C -0.0453(8) -0.0843(5) 0.9153(3)
H14 H 0.0259 -0.1625 0.9222
C14 C -0.3179(8) 0.0479(6) 0.9238(3)
H15 H -0.4407 0.0646 0.9339
C15 C -0.2485(9) 0.1423(5) 0.8957(3)
H16 H -0.3209 0.2200 0.8921
C16 C -0.0706(8) 0.1157(5) 0.8737(3)
H17 H -0.0222 0.1762 0.8518
O4 O 0.2772(5) 0.2294(3) 0.8583(2)
O5 O 0.2310(5) 0.6240(3) 0.8920(2)
H26 H 0.2294 0.6340 0.8404
O6 O 0.2367(5) 0.5779(3) 0.7464(2)
N4 N 0.2727(6) 0.2848(4) 0.9883(3)
H27 H 0.2781 0.2139 1.0110
N5 N 0.2684(6) 0.3944(4) 0.7232(2)
H28 H 0.2939 0.3206 0.7436
N6 N -0.2111(7) 0.6537(4) 0.5725(3)
C19 C 0.2655(7) 0.3649(5) 1.0401(3)
C20 C 0.2741(8) 0.3123(5) 1.1331(3)
H29 H 0.3571 0.2332 1.1406
H30 H 0.1570 0.3080 1.1544
C21 C 0.3367(15) 0.3911(8) 1.1817(7)
H31 H 0.4595 0.3879 1.1656
H32 H 0.3299 0.3647 1.2419
C22 C 0.2118(17) 0.5176(9) 1.1589(4)
H33 H 0.2317 0.5674 1.1960
H34 H 0.0881 0.5177 1.1664
C23 C 0.2483(8) 0.5665(5) 1.0666(3)
H35 H 0.1563 0.6401 1.0492
H36 H 0.3629 0.5820 1.0615
C24 C 0.2495(7) 0.4778(5) 1.0107(3)
C25 C 0.2494(7) 0.5121(5) 0.9219(3)
C26 C 0.2597(7) 0.4295(5) 0.8678(3)
C27 C 0.2719(8) 0.3119(5) 0.9003(3)
C28 C 0.2579(8) 0.4715(5) 0.7747(3)
C29 C 0.2370(8) 0.4325(5) 0.6307(3)
H37 H 0.2879 0.3657 0.6011
H38 H 0.2954 0.4920 0.6089
C30 C 0.0396(8) 0.4820(5) 0.6158(3)
C31 C -0.0340(9) 0.6007(5) 0.5862(3)
H39 H 0.0424 0.6472 0.5750
C32 C -0.3114(8) 0.5822(5) 0.5864(3)
H40 H -0.4328 0.6149 0.5759
C33 C -0.2508(9) 0.4645(5) 0.6148(3)
H41 H -0.3293 0.4194 0.6252
C34 C -0.0730(9) 0.4143(5) 0.6276(3)
H42 H -0.0280 0.3334 0.6446
H18? H 0.3341 0.1214 0.3434
H19? H 0.1342 0.1228 0.3408
C17? C 0.3127(14) -0.0282(7) 0.3035(6)
H20? H 0.4405 -0.0661 0.3080
H21? H 0.2875 0.0027 0.2446
C18? C 0.2120(15) -0.1190(10) 0.3357(4)
H22? H 0.0840 -0.0805 0.3345
H23? H 0.2411 -0.1792 0.2996
H24? H 0.1878 -0.2212 0.4507
H25? H 0.3876 -0.2297 0.4252
H43? H 0.3924 0.2578 1.1447
H44? H 0.1882 0.2685 1.1463
C35? C 0.2336(19) 0.4085(9) 1.1896(7)
H45? H 0.2865 0.3717 1.2437
H46? H 0.1050 0.4353 1.1995
C36? C 0.295(2) 0.5184(13) 1.1595(4)
H47? H 0.4237 0.4980 1.1654
H48? H 0.2376 0.5786 1.1942
H49? H 0.1301 0.6235 1.0654
H50? H 0.3319 0.6086 1.0421
loop_
_geom_bond_atom_site_label_1
_geom_bond_atom_site_label_2
_geom_bond_site_symmetry_1
_geom_bond_site_symmetry_2
O1 C9 1_555 1_555
O2 H1 1_555 1_555
O3 C10 1_555 1_555
N1 H2 1_555 1_555
N2 H3 1_555 1_555
N3 C13 1_555 1_555
C1 N1 1_555 1_555
C2 C1 1_555 1_555
H4 C2 1_555 1_555
H5 C2 1_555 1_555
C3 C2 1_555 1_555
H6 C3 1_555 1_555
H7 C3 1_555 1_555
C4 C3 1_555 1_555
H8 C4 1_555 1_555
H9 C4 1_555 1_555
C5 C4 1_555 1_555
H10 C5 1_555 1_555
H11 C5 1_555 1_555
C6 C1 1_555 1_555
C7 O2 1_555 1_555
C8 C7 1_555 1_555
C9 N1 1_555 1_555
C10 N2 1_555 1_555
C11 N2 1_555 1_555
H12 C11 1_555 1_555
H13 C11 1_555 1_555
C12 C11 1_555 1_555
C13 C12 1_555 1_555
H14 C13 1_555 1_555
C14 N3 1_555 1_555
H15 C14 1_555 1_555
C15 C14 1_555 1_555
H16 C15 1_555 1_555
C16 C12 1_555 1_555
H17 C16 1_555 1_555
O4 C27 1_555 1_555
O5 H26 1_555 1_555
O6 C28 1_555 1_555
N4 H27 1_555 1_555
N5 H28 1_555 1_555
N6 C31 1_555 1_555
C19 N4 1_555 1_555
C20 C19 1_555 1_555
H29 C20 1_555 1_555
H30 C20 1_555 1_555
C21 C20 1_555 1_555
H31 C21 1_555 1_555
H32 C21 1_555 1_555
C22 C21 1_555 1_555
H33 C22 1_555 1_555
H34 C22 1_555 1_555
C23 C22 1_555 1_555
H35 C23 1_555 1_555
H36 C23 1_555 1_555
C24 C19 1_555 1_555
C25 O5 1_555 1_555
C26 C25 1_555 1_555
C27 N4 1_555 1_555
C28 N5 1_555 1_555
C29 N5 1_555 1_555
H37 C29 1_555 1_555
H38 C29 1_555 1_555
C30 C29 1_555 1_555
C31 C30 1_555 1_555
H39 C31 1_555 1_555
C32 N6 1_555 1_555
H40 C32 1_555 1_555
C33 C32 1_555 1_555
H41 C33 1_555 1_555
C34 C30 1_555 1_555
H42 C34 1_555 1_555
C5 C6 1_555 1_555
C6 C7 1_555 1_555
C8 C9 1_555 1_555
C8 C10 1_555 1_555
C15 C16 1_555 1_555
C23 C24 1_555 1_555
C24 C25 1_555 1_555
C26 C27 1_555 1_555
C26 C28 1_555 1_555
C33 C34 1_555 1_555

#END
