
#######################################################################
#
#                 Cambridge Crystallographic Data Centre
#                                CCDC 
#
#######################################################################
#
# If this CIF has been generated from an entry in the Cambridge 
# Structural Database, then it will include bibliographic, chemical, 
# crystal, experimental, refinement or atomic coordinate data resulting 
# from the CCDC's data processing and validation procedures.
#
#######################################################################

data_OBAYOI
_chemical_formula_moiety         'C14 H10 O4 S2,C14 H9 O4 S2 1-,C3 H10 N1 1+'
_chemical_name_systematic        
'trimethylammonium 2-((2-carboxyphenyl)disulfanyl)benzoate 2-((2-carboxyphenyl)disulfanyl)benzoic acid'
_symmetry_cell_setting           monoclinic
_symmetry_space_group_name_H-M   'P 21/c'
_symmetry_Int_Tables_number      14
_space_group_name_Hall           '-P 2ybc'
loop_
_symmetry_equiv_pos_site_id
_symmetry_equiv_pos_as_xyz
1 x,y,z
2 -x,1/2+y,1/2-z
3 -x,-y,-z
4 x,1/2-y,1/2+z
_cell_length_a                   14.1130(2)
_cell_length_b                   12.2433(2)
_cell_length_c                   18.8793(2)
_cell_angle_alpha                90
_cell_angle_beta                 105.6800(10)
_cell_angle_gamma                90
_cell_volume                     3140.75
_exptl_crystal_colour            yellow
_exptl_crystal_description       block
_cell_formula_units_Z            4
loop_
_atom_site_label
_atom_site_type_symbol
_atom_site_fract_x
_atom_site_fract_y
_atom_site_fract_z
C1 C 0.19089(15) 1.09681(17) 0.10845(12)
C2 C 0.14355(18) 1.0310(2) 0.04979(14)
H1 H 0.1345 0.9572 0.0577
C3 C 0.1097(2) 1.0736(2) -0.02011(15)
H2 H 0.0779 1.0284 -0.0588
C4 C 0.1224(2) 1.1823(3) -0.03316(16)
H3 H 0.1011 1.2103 -0.0806
C5 C 0.16685(19) 1.2489(2) 0.02467(16)
H4 H 0.1748 1.3227 0.0159
C6 C 0.20047(16) 1.20908(18) 0.09623(13)
C7 C 0.24510(18) 1.28930(19) 0.15536(16)
C8 C 0.12686(16) 0.82806(18) 0.19849(12)
C9 C 0.10477(17) 0.71637(18) 0.19427(12)
C10 C 0.01893(19) 0.6812(2) 0.21114(15)
H5 H 0.0042 0.6071 0.2088
C11 C -0.0437(2) 0.7528(2) 0.23098(16)
H6 H -0.0998 0.7276 0.2427
C12 C -0.0224(2) 0.8627(3) 0.23331(17)
H7 H -0.0649 0.9122 0.2461
C13 C 0.06118(19) 0.8999(2) 0.21690(15)
H8 H 0.0739 0.9745 0.2182
C14 C 0.16946(19) 0.63489(18) 0.17361(15)
O1 O 0.24995(16) 1.38723(14) 0.13907(13)
O2 O 0.27485(18) 1.25191(15) 0.21998(12)
O3 O 0.13352(17) 0.53555(15) 0.16631(17)
H9 H 0.177(3) 0.492(3) 0.154(2)
O4 O 0.24821(14) 0.65635(15) 0.16387(13)
S1 S 0.24211(4) 1.03984(4) 0.19834(3)
S2 S 0.23892(4) 0.87456(4) 0.18104(4)
C15 C 0.22009(17) 0.79602(19) 0.40572(13)
C16 C 0.1553(2) 0.7190(2) 0.42018(18)
H10 H 0.1684 0.6450 0.4169
C17 C 0.0720(2) 0.7510(3) 0.4393(2)
H11 H 0.0298 0.6983 0.4491
C18 C 0.0504(2) 0.8595(3) 0.4441(2)
H12 H -0.0058 0.8805 0.4573
C19 C 0.1128(2) 0.9368(2) 0.42915(17)
H13 H 0.0978 1.0105 0.4315
C20 C 0.19826(18) 0.90675(19) 0.41047(13)
C21 C 0.2650(2) 0.99263(19) 0.39716(14)
C22 C 0.35316(16) 0.52534(19) 0.44594(13)
C23 C 0.37330(19) 0.5841(2) 0.51108(14)
H14 H 0.3657 0.6596 0.5095
C24 C 0.4046(2) 0.5320(3) 0.57845(15)
H15 H 0.4179 0.5727 0.6216
C25 C 0.4159(2) 0.4210(3) 0.58189(17)
H16 H 0.4366 0.3862 0.6272
C26 C 0.3966(2) 0.3617(2) 0.51850(17)
H17 H 0.4044 0.2863 0.5212
C27 C 0.36525(17) 0.4117(2) 0.44952(14)
C28 C 0.3464(2) 0.3390(2) 0.38424(17)
O5 O 0.22751(18) 1.09123(16) 0.39181(17)
H18 H 0.270(3) 1.139(3) 0.384(3)
O6 O 0.34661(15) 0.97469(14) 0.39188(13)
O7 O 0.3186(2) 0.38491(16) 0.32194(12)
H19 H 0.310(3) 0.337(3) 0.2853(16)
O8 O 0.35964(19) 0.23949(16) 0.39180(14)
S3 S 0.32943(5) 0.75556(5) 0.38191(4)
S4 S 0.31236(5) 0.59289(5) 0.35865(3)
C29 C 0.4792(4) 0.4589(5) 0.1953(3)
H20 H 0.4538 0.3946 0.1675
H21 H 0.4595 0.4596 0.2401
H22 H 0.5498 0.4587 0.2067
C30 C 0.4178(3) 0.5557(6) 0.0806(2)
H23 H 0.3940 0.4858 0.0604
H24 H 0.4743 0.5757 0.0644
H25 H 0.3671 0.6095 0.0642
C31 C 0.4774(4) 0.6509(5) 0.1954(3)
H26 H 0.4494 0.7129 0.1660
H27 H 0.5479 0.6545 0.2069
H28 H 0.4574 0.6512 0.2402
N1 N 0.4429(6) 0.5502(4) 0.1545(2)
H29 H 0.3837(12) 0.546(2) 0.1603(9)
loop_
_geom_bond_atom_site_label_1
_geom_bond_atom_site_label_2
_geom_bond_site_symmetry_1
_geom_bond_site_symmetry_2
C1 C2 1_555 1_555
C2 H1 1_555 1_555
C3 C2 1_555 1_555
H2 C3 1_555 1_555
C4 C3 1_555 1_555
H3 C4 1_555 1_555
C5 C4 1_555 1_555
H4 C5 1_555 1_555
C6 C1 1_555 1_555
C7 C6 1_555 1_555
C8 C9 1_555 1_555
C9 C10 1_555 1_555
C10 H5 1_555 1_555
C11 C10 1_555 1_555
H6 C11 1_555 1_555
C12 C11 1_555 1_555
H7 C12 1_555 1_555
C13 C8 1_555 1_555
H8 C13 1_555 1_555
C14 C9 1_555 1_555
O1 C7 1_555 1_555
O2 C7 1_555 1_555
O3 C14 1_555 1_555
H9 O3 1_555 1_555
O4 C14 1_555 1_555
S1 C1 1_555 1_555
S2 C8 1_555 1_555
C15 C16 1_555 1_555
C16 H10 1_555 1_555
C17 C16 1_555 1_555
H11 C17 1_555 1_555
C18 C17 1_555 1_555
H12 C18 1_555 1_555
C19 C18 1_555 1_555
H13 C19 1_555 1_555
C20 C15 1_555 1_555
C21 C20 1_555 1_555
C22 C23 1_555 1_555
C23 H14 1_555 1_555
C24 C23 1_555 1_555
H15 C24 1_555 1_555
C25 C24 1_555 1_555
H16 C25 1_555 1_555
C26 C25 1_555 1_555
H17 C26 1_555 1_555
C27 C22 1_555 1_555
C28 C27 1_555 1_555
O5 C21 1_555 1_555
H18 O5 1_555 1_555
O6 C21 1_555 1_555
O7 C28 1_555 1_555
H19 O7 1_555 1_555
O8 C28 1_555 1_555
S3 C15 1_555 1_555
S4 C22 1_555 1_555
C29 H20 1_555 1_555
H21 C29 1_555 1_555
H22 C29 1_555 1_555
C30 H23 1_555 1_555
H24 C30 1_555 1_555
H25 C30 1_555 1_555
C31 H26 1_555 1_555
H27 C31 1_555 1_555
H28 C31 1_555 1_555
N1 C29 1_555 1_555
H29 N1 1_555 1_555
C5 C6 1_555 1_555
C12 C13 1_555 1_555
S1 S2 1_555 1_555
C19 C20 1_555 1_555
C26 C27 1_555 1_555
S3 S4 1_555 1_555
C30 N1 1_555 1_555
C31 N1 1_555 1_555

#END
