
#######################################################################
#
#                 Cambridge Crystallographic Data Centre
#                                CCDC 
#
#######################################################################
#
# If this CIF has been generated from an entry in the Cambridge 
# Structural Database, then it will include bibliographic, chemical, 
# crystal, experimental, refinement or atomic coordinate data resulting 
# from the CCDC's data processing and validation procedures.
#
#######################################################################

data_OBAZAV
_chemical_formula_moiety         'C14 H9 O4 S2 1-,C3 H10 N1 1+'
_chemical_name_systematic        
'trimethylammonium 2-((2-carboxyphenyl)disulfanyl)benzoate'
_symmetry_cell_setting           monoclinic
_symmetry_space_group_name_H-M   'C 2/c'
_symmetry_Int_Tables_number      15
_space_group_name_Hall           '-C 2yn'
loop_
_symmetry_equiv_pos_site_id
_symmetry_equiv_pos_as_xyz
1 x,y,z
2 -x,y,1/2-z
3 1/2+x,1/2+y,z
4 1/2-x,1/2+y,1/2-z
5 -x,-y,-z
6 x,-y,1/2+z
7 1/2-x,1/2-y,-z
8 1/2+x,1/2-y,1/2+z
_cell_length_a                   13.5363(4)
_cell_length_b                   12.1071(3)
_cell_length_c                   22.1248(6)
_cell_angle_alpha                90
_cell_angle_beta                 96.532(2)
_cell_angle_gamma                90
_cell_volume                     3602.39
_exptl_crystal_colour            yellow
_exptl_crystal_description       block
_cell_formula_units_Z            8
loop_
_atom_site_label
_atom_site_type_symbol
_atom_site_fract_x
_atom_site_fract_y
_atom_site_fract_z
S1 S 0.08870(4) 0.20518(4) 0.35282(3)
C1 C 0.00578(14) 0.12021(16) 0.38976(9)
O1 O 0.13769(12) 0.00789(13) 0.31991(8)
S2 S 0.04589(4) 0.36573(5) 0.36501(3)
C2 C 0.01072(14) 0.00486(16) 0.38430(9)
O2 O 0.08259(13) -0.15481(12) 0.34535(8)
C3 C -0.05380(16) -0.05919(17) 0.41453(10)
H1 H -0.0511 -0.1357 0.4115
O3 O 0.03715(16) 0.58828(14) 0.36307(9)
C4 C -0.12131(16) -0.01229(19) 0.44874(11)
H2 H -0.1638 -0.0566 0.4683
O4 O 0.10917(15) 0.70275(13) 0.43247(8)
H3 H 0.097(2) 0.748(2) 0.4026(10)
C5 C -0.12542(16) 0.10050(18) 0.45372(11)
H4 H -0.1711 0.1328 0.4767
C6 C -0.06248(15) 0.16584(17) 0.42495(10)
H5 H -0.0656 0.2422 0.4291
C7 C 0.08295(16) -0.04951(17) 0.34713(9)
C8 C 0.09865(14) 0.40280(17) 0.44019(9)
C9 C 0.10886(14) 0.51434(16) 0.45698(9)
C10 C 0.14795(16) 0.54076(19) 0.51613(10)
H6 H 0.1551 0.6146 0.5273
C11 C 0.17620(17) 0.4604(2) 0.55825(11)
H7 H 0.2013 0.4795 0.5977
C12 C 0.16697(17) 0.3512(2) 0.54137(11)
H8 H 0.1868 0.2963 0.5696
C13 C 0.12893(16) 0.32234(18) 0.48339(11)
H9 H 0.1233 0.2481 0.4728
C14 C 0.08048(17) 0.60388(17) 0.41273(12)
N1 N 0.19701(17) -0.2371(2) 0.26506(10)
H10 H 0.1545(18) -0.214(2) 0.2927(11)
C15 C 0.2802(7) -0.2822(18) 0.2976(3)
H11 H 0.2687 -0.3591 0.3049
H12 H 0.2938 -0.2443 0.3357
H13 H 0.3360 -0.2748 0.2748
C16 C 0.1326(10) -0.3178(15) 0.2279(5)
H14 H 0.0640 -0.3002 0.2302
H15 H 0.1461 -0.3911 0.2433
H16 H 0.1462 -0.3142 0.1863
C17 C 0.1717(15) -0.1791(16) 0.2106(3)
H17 H 0.1081 -0.2040 0.1918
H18 H 0.2211 -0.1922 0.1835
H19 H 0.1684 -0.1016 0.2191
C18? C 0.3014(6) -0.1863(17) 0.2884(6)
H20? H 0.3262 -0.2251 0.3249
H21? H 0.3470 -0.1949 0.2586
H22? H 0.2945 -0.1093 0.2974
C19? C 0.202(2) -0.3568(8) 0.2673(13)
H23? H 0.1384 -0.3870 0.2518
H24? H 0.2188 -0.3803 0.3086
H25? H 0.2516 -0.3822 0.2429
C20? C 0.2306(19) -0.1447(11) 0.2269(12)
H26? H 0.1820 -0.1305 0.1928
H27? H 0.2400 -0.0794 0.2515
H28? H 0.2925 -0.1650 0.2127
loop_
_geom_bond_atom_site_label_1
_geom_bond_atom_site_label_2
_geom_bond_site_symmetry_1
_geom_bond_site_symmetry_2
S1 C1 1_555 1_555
C1 C2 1_555 1_555
O1 C7 1_555 1_555
S2 S1 1_555 1_555
C2 C3 1_555 1_555
O2 C7 1_555 1_555
C3 H1 1_555 1_555
O3 C14 1_555 1_555
C4 C3 1_555 1_555
H2 C4 1_555 1_555
O4 H3 1_555 1_555
C5 C4 1_555 1_555
H4 C5 1_555 1_555
C6 C1 1_555 1_555
H5 C6 1_555 1_555
C7 C2 1_555 1_555
C8 S2 1_555 1_555
C9 C8 1_555 1_555
C10 C9 1_555 1_555
H6 C10 1_555 1_555
C11 C10 1_555 1_555
H7 C11 1_555 1_555
C12 C11 1_555 1_555
H8 C12 1_555 1_555
C13 C8 1_555 1_555
H9 C13 1_555 1_555
C14 O4 1_555 1_555
N1 H10 1_555 1_555
C15 N1 1_555 1_555
H11 C15 1_555 1_555
H12 C15 1_555 1_555
H13 C15 1_555 1_555
C16 N1 1_555 1_555
H14 C16 1_555 1_555
H15 C16 1_555 1_555
H16 C16 1_555 1_555
C17 N1 1_555 1_555
H17 C17 1_555 1_555
H18 C17 1_555 1_555
H19 C17 1_555 1_555
C5 C6 1_555 1_555
C9 C14 1_555 1_555
C12 C13 1_555 1_555

#END
