
#######################################################################
#
#                 Cambridge Crystallographic Data Centre
#                                CCDC 
#
#######################################################################
#
# If this CIF has been generated from an entry in the Cambridge 
# Structural Database, then it will include bibliographic, chemical, 
# crystal, experimental, refinement or atomic coordinate data resulting 
# from the CCDC's data processing and validation procedures.
#
#######################################################################

data_OBEFIL
_chemical_formula_moiety         'C53 H62 I2 O5'
_chemical_name_systematic        
2,7-bis(4-Iodo-2,5-bis(hexyloxy)phenylethynyl)-9-fluorenone
_symmetry_cell_setting           triclinic
_symmetry_space_group_name_H-M   'P -1'
_symmetry_Int_Tables_number      2
_space_group_name_Hall           '-P 1'
loop_
_symmetry_equiv_pos_site_id
_symmetry_equiv_pos_as_xyz
1 x,y,z
2 -x,-y,-z
_cell_length_a                   9.9862(14)
_cell_length_b                   15.134(3)
_cell_length_c                   17.310(4)
_cell_angle_alpha                102.56(3)
_cell_angle_beta                 94.34(2)
_cell_angle_gamma                107.62(2)
_cell_volume                     2405.36
_exptl_crystal_colour            orange
_exptl_crystal_description       plate
_cell_formula_units_Z            2
loop_
_atom_site_label
_atom_site_type_symbol
_atom_site_fract_x
_atom_site_fract_y
_atom_site_fract_z
I1 I -0.58232(4) 0.38159(3) 0.33917(3)
I2 I 2.01052(4) 1.02588(3) 0.35614(3)
O1 O 0.6647(5) 0.6576(4) 0.1695(3)
O2 O -0.4174(5) 0.3809(3) 0.1943(3)
O3 O -0.0298(5) 0.5852(3) 0.4688(3)
O4 O 1.7762(4) 0.9535(3) 0.2067(3)
O5 O 1.5127(4) 0.8922(3) 0.4694(3)
C1 C 0.4287(7) 0.6258(5) 0.2790(5)
H1 H 0.3844 0.6050 0.2247
C2 C 0.3507(7) 0.6216(5) 0.3419(5)
C3 C 0.4222(7) 0.6511(5) 0.4213(5)
H2 H 0.3677 0.6460 0.4638
C4 C 0.5672(8) 0.6876(5) 0.4394(5)
H3 H 0.6114 0.7055 0.4936
C5 C 0.9121(7) 0.7718(5) 0.4388(5)
H4 H 0.8942 0.7814 0.4926
C6 C 1.0485(7) 0.7988(5) 0.4201(5)
H5 H 1.1264 0.8265 0.4625
C7 C 1.0749(7) 0.7841(5) 0.3410(5)
C8 C 0.9616(7) 0.7447(5) 0.2777(5)
H6 H 0.9791 0.7370 0.2238
C9 C 0.6854(8) 0.6776(5) 0.2431(5)
C10 C 0.5771(7) 0.6639(5) 0.2974(5)
C11 C 0.6425(7) 0.6937(5) 0.3770(5)
C12 C 0.8000(7) 0.7318(5) 0.3769(5)
C13 C 0.8238(6) 0.7191(5) 0.2976(5)
C14 C 0.1977(7) 0.5864(5) 0.3307(5)
C15 C 0.0716(7) 0.5577(5) 0.3276(5)
C16 C -0.0776(7) 0.5205(5) 0.3297(5)
C17 C -0.1282(7) 0.5325(5) 0.4034(5)
C18 C -0.2724(7) 0.4908(5) 0.4054(5)
H7 H -0.3076 0.4966 0.4551
C19 C -0.3637(7) 0.4423(5) 0.3341(5)
C20 C -0.3181(7) 0.4309(5) 0.2598(5)
C21 C -0.1726(7) 0.4708(5) 0.2585(5)
H8 H -0.1383 0.4636 0.2086
C22 C -0.3841(8) 0.3967(6) 0.1180(5)
H9 H -0.3177 0.3629 0.0983
H10 H -0.3389 0.4660 0.1228
C23 C -0.5214(8) 0.3581(7) 0.0608(6)
H11 H -0.5726 0.2913 0.0620
H12 H -0.5029 0.3584 0.0055
C24 C -0.6186(11) 0.4226(9) 0.0882(7)
H13 H -0.6232 0.4295 0.1460
H14 H -0.5712 0.4869 0.0802
C25 C -0.7514(13) 0.3935(11) 0.0429(8)
H15 H -0.7957 0.3265 0.0456
H16 H -0.7482 0.3939 -0.0140
C26 C -0.8555(12) 0.4469(8) 0.0817(8)
H17 H -0.9559 0.4103 0.0585
H18 H -0.8464 0.4534 0.1401
C27 C -0.8252(11) 0.5400(9) 0.0645(8)
H19 H -0.8894 0.5720 0.0886
H20 H -0.8393 0.5319 0.0064
H21 H -0.7265 0.5790 0.0869
C28 C -0.0823(6) 0.6058(5) 0.5431(4)
H22 H -0.1188 0.5465 0.5614
H23 H -0.1611 0.6316 0.5362
C29 C 0.0374(7) 0.6791(5) 0.6040(5)
H24 H 0.1149 0.6523 0.6120
H25 H 0.0759 0.7374 0.5847
C30 C -0.0145(7) 0.7043(5) 0.6836(5)
H26 H -0.0565 0.6451 0.7011
H27 H -0.0907 0.7321 0.6752
C31 C 0.1023(7) 0.7765(5) 0.7505(5)
H28 H 0.1390 0.8373 0.7343
H29 H 0.1818 0.7508 0.7555
C32 C 0.0539(7) 0.7973(6) 0.8321(5)
H30 H 0.0274 0.7381 0.8512
H31 H 0.1353 0.8453 0.8703
C33 C -0.0698(7) 0.8374(6) 0.8320(5)
H32 H -0.0447 0.8959 0.8128
H33 H -0.0925 0.8519 0.8864
H34 H -0.1525 0.7889 0.7965
C34 C 1.2209(7) 0.8138(5) 0.3287(5)
C35 C 1.3451(7) 0.8430(5) 0.3272(5)
C36 C 1.4973(7) 0.8820(5) 0.3314(5)
C37 C 1.5813(7) 0.9093(5) 0.4060(4)
C38 C 1.7286(6) 0.9517(4) 0.4134(4)
H35 H 1.7873 0.9703 0.4639
C39 C 1.7892(6) 0.9649(4) 0.3463(4)
C40 C 1.7074(7) 0.9359(5) 0.2699(4)
C41 C 1.5612(7) 0.8951(5) 0.2637(5)
H36 H 1.5030 0.8757 0.2130
C42 C 1.7104(7) 0.8957(5) 0.1276(5)
H37 H 1.6409 0.9219 0.1054
H38 H 1.6602 0.8288 0.1290
C43 C 1.8278(7) 0.8995(5) 0.0769(5)
H39 H 1.8774 0.9670 0.0770
H40 H 1.7860 0.8637 0.0210
C44 C 1.9359(7) 0.8573(5) 0.1088(5)
H41 H 1.9768 0.8936 0.1648
H42 H 1.8847 0.7904 0.1096
C45 C 2.0551(7) 0.8564(5) 0.0604(5)
H43 H 2.1087 0.9231 0.0604
H44 H 2.0156 0.8203 0.0042
C46 C 2.1573(8) 0.8117(6) 0.0944(5)
H45 H 2.1978 0.8487 0.1502
H46 H 2.1026 0.7456 0.0957
C47 C 2.2772(8) 0.8081(6) 0.0460(6)
H47 H 2.2389 0.7811 -0.0110
H48 H 2.3268 0.7679 0.0644
H49 H 2.3438 0.8731 0.0541
C48 C 1.5978(7) 0.9143(5) 0.5458(4)
H50 H 1.6442 0.9845 0.5654
H51 H 1.6728 0.8839 0.5407
C49 C 1.5039(7) 0.8782(5) 0.6048(4)
H52 H 1.4279 0.9078 0.6086
H53 H 1.4582 0.8080 0.5849
C50 C 1.5906(7) 0.9014(5) 0.6878(5)
H54 H 1.6450 0.9708 0.7043
H55 H 1.6599 0.8663 0.6843
C51 C 1.4994(7) 0.8756(5) 0.7509(4)
H56 H 1.4481 0.8057 0.7357
H57 H 1.4275 0.9086 0.7531
C52 C 1.5856(8) 0.9024(6) 0.8346(5)
H58 H 1.6488 0.8630 0.8344
H59 H 1.6463 0.9704 0.8472
C53 C 1.4937(8) 0.8860(6) 0.8987(5)
H60 H 1.4353 0.9279 0.9015
H61 H 1.5542 0.9017 0.9503
H62 H 1.4319 0.8191 0.8860
loop_
_geom_bond_atom_site_label_1
_geom_bond_atom_site_label_2
_geom_bond_site_symmetry_1
_geom_bond_site_symmetry_2
I1 C19 1_555 1_555
I2 C39 1_555 1_555
O1 C9 1_555 1_555
O2 C20 1_555 1_555
O3 C17 1_555 1_555
O4 C40 1_555 1_555
O5 C37 1_555 1_555
C1 H1 1_555 1_555
C2 C1 1_555 1_555
C3 C2 1_555 1_555
H2 C3 1_555 1_555
C4 C3 1_555 1_555
H3 C4 1_555 1_555
C5 H4 1_555 1_555
C6 C5 1_555 1_555
H5 C6 1_555 1_555
C7 C6 1_555 1_555
C8 C7 1_555 1_555
H6 C8 1_555 1_555
C9 C10 1_555 1_555
C10 C1 1_555 1_555
C11 C4 1_555 1_555
C12 C5 1_555 1_555
C13 C8 1_555 1_555
C14 C2 1_555 1_555
C15 C14 1_555 1_555
C16 C15 1_555 1_555
C17 C16 1_555 1_555
C18 C17 1_555 1_555
H7 C18 1_555 1_555
C19 C18 1_555 1_555
C20 C19 1_555 1_555
C21 C16 1_555 1_555
H8 C21 1_555 1_555
C22 O2 1_555 1_555
H9 C22 1_555 1_555
H10 C22 1_555 1_555
C23 C22 1_555 1_555
H11 C23 1_555 1_555
H12 C23 1_555 1_555
C24 C23 1_555 1_555
H13 C24 1_555 1_555
H14 C24 1_555 1_555
C25 C24 1_555 1_555
H15 C25 1_555 1_555
H16 C25 1_555 1_555
C26 C25 1_555 1_555
H17 C26 1_555 1_555
H18 C26 1_555 1_555
C27 C26 1_555 1_555
H19 C27 1_555 1_555
H20 C27 1_555 1_555
H21 C27 1_555 1_555
C28 O3 1_555 1_555
H22 C28 1_555 1_555
H23 C28 1_555 1_555
C29 C28 1_555 1_555
H24 C29 1_555 1_555
H25 C29 1_555 1_555
C30 C29 1_555 1_555
H26 C30 1_555 1_555
H27 C30 1_555 1_555
C31 C30 1_555 1_555
H28 C31 1_555 1_555
H29 C31 1_555 1_555
C32 C31 1_555 1_555
H30 C32 1_555 1_555
H31 C32 1_555 1_555
C33 C32 1_555 1_555
H32 C33 1_555 1_555
H33 C33 1_555 1_555
H34 C33 1_555 1_555
C34 C7 1_555 1_555
C35 C34 1_555 1_555
C36 C35 1_555 1_555
C37 C36 1_555 1_555
C38 C37 1_555 1_555
H35 C38 1_555 1_555
C39 C38 1_555 1_555
C40 C39 1_555 1_555
C41 C36 1_555 1_555
H36 C41 1_555 1_555
C42 O4 1_555 1_555
H37 C42 1_555 1_555
H38 C42 1_555 1_555
C43 C42 1_555 1_555
H39 C43 1_555 1_555
H40 C43 1_555 1_555
C44 C43 1_555 1_555
H41 C44 1_555 1_555
H42 C44 1_555 1_555
C45 C44 1_555 1_555
H43 C45 1_555 1_555
H44 C45 1_555 1_555
C46 C45 1_555 1_555
H45 C46 1_555 1_555
H46 C46 1_555 1_555
C47 C46 1_555 1_555
H47 C47 1_555 1_555
H48 C47 1_555 1_555
H49 C47 1_555 1_555
C48 O5 1_555 1_555
H50 C48 1_555 1_555
H51 C48 1_555 1_555
C49 C48 1_555 1_555
H52 C49 1_555 1_555
H53 C49 1_555 1_555
C50 C49 1_555 1_555
H54 C50 1_555 1_555
H55 C50 1_555 1_555
C51 C50 1_555 1_555
H56 C51 1_555 1_555
H57 C51 1_555 1_555
C52 C51 1_555 1_555
H58 C52 1_555 1_555
H59 C52 1_555 1_555
C53 C52 1_555 1_555
H60 C53 1_555 1_555
H61 C53 1_555 1_555
H62 C53 1_555 1_555
C9 C13 1_555 1_555
C10 C11 1_555 1_555
C11 C12 1_555 1_555
C12 C13 1_555 1_555
C20 C21 1_555 1_555
C40 C41 1_555 1_555

#END
