
#######################################################################
#
#                 Cambridge Crystallographic Data Centre
#                                CCDC 
#
#######################################################################
#
# If this CIF has been generated from an entry in the Cambridge 
# Structural Database, then it will include bibliographic, chemical, 
# crystal, experimental, refinement or atomic coordinate data resulting 
# from the CCDC's data processing and validation procedures.
#
#######################################################################

data_OBEFUX
_chemical_formula_moiety         '(C140 3-)n,3n(H24 N8 Sr1 1+),19n(H3 N1)'
_chemical_name_systematic        
'tris(Octa-ammine-strontium) poly(bis(C70fulleride)) ammonia solvate'
_symmetry_cell_setting           triclinic
_symmetry_space_group_name_H-M   'P -1'
_symmetry_Int_Tables_number      2
_space_group_name_Hall           '-P 1'
loop_
_symmetry_equiv_pos_site_id
_symmetry_equiv_pos_as_xyz
1 x,y,z
2 -x,-y,-z
_cell_length_a                   15.9467(11)
_cell_length_b                   16.5630(11)
_cell_length_c                   24.0948(16)
_cell_angle_alpha                79.664(1)
_cell_angle_beta                 75.207(1)
_cell_angle_gamma                80.460(1)
_cell_volume                     6004.95
_exptl_crystal_colour            black
_exptl_crystal_description       needle
_cell_formula_units_Z            2
loop_
_atom_site_label
_atom_site_type_symbol
_atom_site_fract_x
_atom_site_fract_y
_atom_site_fract_z
Sr2 Sr 0.23850(4) 0.01519(4) 0.77382(3)
N9 N 0.2398(4) -0.0689(4) 0.6858(3)
H25 H 0.229(5) -0.121(2) 0.698(3)
H26 H 0.290(3) -0.050(4) 0.667(3)
H27 H 0.202(4) -0.047(4) 0.666(3)
N10 N 0.4126(4) -0.0410(4) 0.7380(3)
H28 H 0.420(5) -0.084(3) 0.719(3)
H29 H 0.441(5) -0.026(5) 0.760(3)
H30 H 0.432(5) -0.018(5) 0.7013(14)
N11 N 0.1084(4) 0.0598(4) 0.8697(3)
H31 H 0.084(5) 0.107(3) 0.852(3)
H32 H 0.147(4) 0.058(5) 0.890(3)
H33 H 0.070(4) 0.033(4) 0.861(3)
N12 N 0.2870(4) 0.1125(4) 0.6667(3)
H34 H 0.314(4) 0.065(3) 0.655(3)
H35 H 0.316(4) 0.154(3) 0.663(3)
H36 H 0.249(4) 0.130(4) 0.645(3)
N13 N 0.2144(4) -0.1441(4) 0.8220(3)
H37 H 0.202(5) -0.163(4) 0.793(2)
H38 H 0.171(3) -0.158(4) 0.850(2)
H39 H 0.260(3) -0.172(4) 0.832(3)
N14 N 0.3124(4) -0.0269(4) 0.8671(3)
H40 H 0.330(5) -0.0807(18) 0.865(3)
H41 H 0.273(4) -0.023(5) 0.899(2)
H42 H 0.353(4) 0.003(4) 0.866(3)
N15 N 0.2925(4) 0.1557(4) 0.7921(3)
H43 H 0.3499(15) 0.149(5) 0.779(3)
H44 H 0.273(5) 0.170(5) 0.8267(16)
H45 H 0.285(5) 0.202(3) 0.767(3)
N16 N 0.0805(4) 0.0659(4) 0.7466(3)
H46 H 0.086(5) 0.058(5) 0.7102(14)
H47 H 0.057(5) 0.115(2) 0.755(3)
H48 H 0.044(4) 0.030(4) 0.763(3)
C1 C 0.2366(4) 1.0317(3) 0.2243(2)
C2 C 0.0302(4) 1.4610(3) 0.0121(2)
C3 C -0.0209(3) 1.3916(3) 0.0484(2)
C4 C 0.1018(4) 1.4247(3) -0.0366(2)
C5 C 0.1756(4) 1.4852(3) 0.0148(2)
C6 C 0.0876(4) 1.4849(3) 0.0478(2)
C7 C 0.1850(4) 1.4491(3) -0.0377(2)
C8 C 0.1006(4) 1.3506(3) -0.0548(2)
C9 C 0.0378(4) 1.2944(3) -0.0229(2)
C10 C 0.2466(4) 1.4738(3) 0.0417(3)
C11 C -0.0190(4) 1.3158(3) 0.0286(2)
C12 C -0.0380(3) 1.2508(3) 0.0784(2)
C13 C -0.0462(3) 1.2877(3) 0.1292(2)
C14 C -0.0333(4) 1.3738(3) 0.1098(2)
C15 C -0.0010(4) 1.1672(3) 0.0753(3)
C16 C 0.0596(4) 1.1459(3) 0.0213(2)
C17 C 0.0790(4) 1.2109(3) -0.0251(2)
C18 C 0.3276(4) 1.4228(3) 0.0190(3)
C19 C 0.3319(4) 1.2650(3) -0.0645(2)
C20 C 0.3357(4) 1.3873(3) -0.0310(2)
C21 C 0.1690(4) 1.2139(3) -0.0596(2)
C22 C 0.2624(4) 1.3245(3) -0.0794(2)
C23 C 0.1814(4) 1.3000(3) -0.0768(2)
C24 C 0.2637(4) 1.4005(3) -0.0598(2)
C25 C 0.0724(4) 1.4668(3) 0.1073(2)
C26 C 0.1446(4) 1.4529(3) 0.1361(2)
C27 C 0.2298(4) 1.4562(3) 0.1041(2)
C28 C 0.0085(4) 1.4132(3) 0.1409(2)
C29 C 0.0424(4) 1.3654(3) 0.1880(2)
C30 C 0.0267(4) 1.2818(3) 0.2093(2)
C31 C 0.0875(4) 1.2312(3) 0.2386(2)
C32 C 0.1019(4) 1.1419(3) 0.2424(2)
C33 C 0.1894(4) 1.1128(3) 0.2450(2)
C34 C 0.2330(4) 1.1831(3) 0.2383(2)
C35 C 0.0544(4) 1.1035(3) 0.2146(2)
C36 C 0.1696(4) 1.2579(3) 0.2371(2)
C37 C -0.0014(3) 1.1544(3) 0.1809(2)
C38 C 0.1930(4) 1.3344(3) 0.2051(2)
C39 C -0.0190(4) 1.2415(3) 0.1788(2)
C40 C 0.1255(4) 1.3908(3) 0.1859(2)
C41 C 0.4145(4) 1.2575(4) 0.0118(3)
C42 C 0.0073(4) 1.1173(3) 0.1292(2)
C43 C 0.0718(4) 1.0456(3) 0.1306(2)
C44 C 0.1013(4) 1.0360(3) 0.1841(2)
C45 C 0.1885(4) 1.0061(3) 0.1839(2)
C46 C 0.3198(4) 1.1872(3) 0.2071(2)
C47 C 0.3436(4) 1.2629(3) 0.1713(2)
C48 C 0.2842(4) 1.3382(3) 0.1704(2)
C49 C 0.3000(4) 1.3978(3) 0.1200(3)
C50 C 0.3605(4) 1.3763(3) 0.0669(2)
C51 C 0.4053(4) 1.2949(3) 0.0644(3)
C52 C 0.4037(4) 1.2414(3) 0.1180(3)
C53 C 0.4152(4) 1.1535(3) 0.1211(3)
C54 C 0.3633(4) 1.1188(3) 0.1765(2)
C55 C 0.2190(4) 0.9957(3) 0.0793(2)
C56 C 0.1292(4) 1.0248(3) 0.0795(3)
C57 C 0.1248(4) 1.0763(3) 0.0250(2)
C58 C 0.2138(4) 1.0792(3) -0.0095(2)
C59 C 0.2717(4) 1.0299(3) 0.0242(2)
C60 C 0.2380(4) 1.1529(3) -0.0476(2)
C61 C 0.3227(4) 1.1790(4) -0.0494(2)
C62 C 0.3767(4) 1.1305(4) -0.0137(2)
C63 C 0.3513(4) 1.0550(3) 0.0226(2)
C64 C 0.3825(4) 1.0460(3) 0.0749(2)
C65 C 0.3310(4) 1.0149(3) 0.1288(3)
C66 C 0.3241(4) 1.0490(3) 0.1802(2)
C67 C 0.2472(4) 0.9888(3) 0.1307(2)
C68 C 0.4247(4) 1.1178(3) 0.0714(3)
C69 C 0.4225(4) 1.1697(3) 0.0169(3)
C70 C 0.3773(4) 1.3041(4) -0.0339(2)
C71 C 0.4119(4) 0.5115(3) 0.4533(2)
C72 C 0.3000(4) 0.9871(3) 0.3157(2)
C73 C 0.3867(4) 0.9593(3) 0.3156(2)
C74 C 0.2413(4) 1.0045(3) 0.3691(2)
C75 C 0.1663(4) 0.9411(3) 0.3201(2)
C76 C 0.2518(3) 0.9597(3) 0.2757(2)
C77 C 0.1588(4) 0.9768(3) 0.3715(2)
C78 C 0.2702(4) 0.9995(3) 0.4198(2)
C79 C 0.3601(4) 0.9721(3) 0.4192(3)
C80 C 0.1282(4) 0.8705(3) 0.3243(2)
C81 C 0.4177(4) 0.9517(3) 0.3686(3)
C82 C 0.4834(4) 0.8813(3) 0.3697(2)
C83 C 0.4924(4) 0.8436(3) 0.3182(2)
C84 C 0.4355(4) 0.8920(3) 0.2844(2)
C85 C 0.4933(4) 0.8327(3) 0.4232(2)
C86 C 0.4329(4) 0.8534(3) 0.4773(2)
C87 C 0.3663(4) 0.9213(3) 0.4740(2)
C88 C 0.0774(4) 0.8353(3) 0.3804(3)
C89 C 0.1168(4) 0.8622(4) 0.5148(2)
C90 C 0.0673(4) 0.8721(4) 0.4297(3)
C91 C 0.2779(4) 0.9175(3) 0.5091(2)
C92 C 0.1394(4) 0.9379(3) 0.4784(2)
C93 C 0.2193(4) 0.9643(3) 0.4753(2)
C94 C 0.1084(4) 0.9445(3) 0.4256(2)
C95 C 0.3006(4) 0.8789(3) 0.2554(2)
C96 C 0.2590(4) 0.8077(3) 0.2622(2)
C97 C 0.1728(4) 0.8017(3) 0.2938(2)
C98 C 0.3877(4) 0.8519(3) 0.2581(2)
C99 C 0.4047(4) 0.7626(3) 0.2614(2)
C100 C 0.4669(4) 0.7139(3) 0.2906(2)
C101 C 0.4545(4) 0.6300(3) 0.3120(2)
C102 C 0.4885(4) 0.5845(3) 0.3592(2)
C103 C 0.4265(4) 0.5290(3) 0.3931(2)
C104 C 0.3544(4) 0.5409(3) 0.3653(2)
C105 C 0.5296(3) 0.6248(3) 0.3898(2)
C106 C 0.3708(4) 0.6026(3) 0.3151(2)
C107 C 0.5405(4) 0.7117(3) 0.3700(2)
C108 C 0.3023(4) 0.6572(3) 0.2964(2)
C109 C 0.5130(4) 0.7564(3) 0.3203(2)
C110 C 0.3236(4) 0.7343(3) 0.2640(2)
C111 C 0.0814(4) 0.7331(4) 0.4897(2)
C112 C 0.5323(3) 0.7494(3) 0.4205(2)
C113 C 0.5149(3) 0.6850(3) 0.4701(2)
C114 C 0.5184(3) 0.6084(3) 0.4508(2)
C115 C 0.4693(4) 0.5385(3) 0.4879(2)
C116 C 0.2690(4) 0.5349(3) 0.3987(2)
C117 C 0.1979(4) 0.5934(3) 0.3821(3)
C118 C 0.2121(4) 0.6516(3) 0.3314(2)
C119 C 0.1506(4) 0.7265(3) 0.3304(2)
C120 C 0.0912(4) 0.7472(3) 0.3840(2)
C121 C 0.0904(4) 0.6948(4) 0.4379(3)
C122 C 0.1375(4) 0.6133(3) 0.4353(2)
C123 C 0.1721(4) 0.5693(3) 0.4827(2)
C124 C 0.2532(4) 0.5194(3) 0.4601(2)
C125 C 0.3968(4) 0.6486(3) 0.5543(2)
C126 C 0.4590(4) 0.7060(3) 0.5221(2)
C127 C 0.4156(4) 0.7889(3) 0.5243(2)
C128 C 0.3260(4) 0.7837(3) 0.5592(2)
C129 C 0.3155(4) 0.6981(3) 0.5767(2)
C130 C 0.2560(4) 0.8442(3) 0.5473(2)
C131 C 0.1715(4) 0.8157(3) 0.5505(2)
C132 C 0.1648(4) 0.7287(4) 0.5653(2)
C133 C 0.2355(4) 0.6711(3) 0.5804(2)
C134 C 0.2347(4) 0.5938(3) 0.5609(2)
C135 C 0.3151(4) 0.5480(3) 0.5380(2)
C136 C 0.3241(4) 0.5102(3) 0.4867(2)
C137 C 0.3969(4) 0.5729(3) 0.5369(2)
C138 C 0.1627(4) 0.6057(3) 0.5325(2)
C139 C 0.1190(4) 0.6880(3) 0.5356(2)
C140 C 0.0719(4) 0.8200(4) 0.4845(3)
C2A C -0.0302(4) 1.5390(3) -0.0121(2)
C115A C 0.5307(4) 0.4615(3) 0.5121(2)
N17 N 0.0606(4) 0.5929(4) 0.2457(3)
N18 N 0.7934(4) 0.2666(4) 0.2792(3)
N19 N 0.4852(3) 0.6133(3) 0.1611(2)
N20 N 0.0209(4) 0.3776(3) 0.3393(2)
N21 N 0.1067(4) 0.2358(3) 0.6444(3)
N22 N 0.4435(4) 0.5733(4) 0.9061(3)
N23 N 0.0578(4) 0.4319(3) 0.6002(3)
N24 N 0.4250(4) 0.9686(3) 0.5910(2)
N25 N 0.0792(4) 0.2537(4) 0.8063(3)
N26 N 0.4074(4) 0.7655(4) 0.8383(3)
N27 N 0.0651(4) 0.9683(4) 0.6410(2)
N28 N 0.4633(4) 0.0744(4) 0.8556(3)
N29 N 0.4224(4) 0.7770(4) 0.6829(3)
N30 N 0.2405(4) 0.3242(4) 0.6852(3)
N31 N 0.3127(5) 0.3940(5) 0.7747(3)
N32 N 0.8774(5) 0.5032(5) 0.2726(4)
N33 N 0.2757(6) 0.5945(5) 0.8341(3)
N34 N 0.4090(7) 0.5882(6) 0.7051(4)
N35 N 0.4324(8) 0.4296(8) 0.2281(6)
Sr3 Sr 0.25416(4) 0.73852(3) 0.06896(2)
N36 N 0.1082(3) 0.6645(3) 0.1017(2)
H49 H 0.064(3) 0.696(3) 0.092(3)
H50 H 0.090(4) 0.644(4) 0.1378(12)
H51 H 0.115(4) 0.623(3) 0.082(2)
N37 N 0.3601(4) 0.8264(4) -0.0201(2)
H52 H 0.375(5) 0.823(5) -0.0568(11)
H53 H 0.414(2) 0.815(4) -0.016(3)
H54 H 0.355(5) 0.8797(14) -0.022(3)
N38 N 0.1387(4) 0.8139(3) 0.1567(2)
H55 H 0.088(2) 0.798(4) 0.170(3)
H56 H 0.130(4) 0.8659(16) 0.143(3)
H57 H 0.166(4) 0.812(4) 0.184(2)
N39 N 0.3708(4) 0.7968(3) 0.1136(2)
H58 H 0.348(4) 0.826(4) 0.142(2)
H59 H 0.403(4) 0.828(3) 0.088(2)
H60 H 0.394(4) 0.753(3) 0.132(3)
N40 N 0.2701(4) 0.6240(3) 0.1653(2)
H61 H 0.237(4) 0.641(4) 0.1963(19)
H62 H 0.322(2) 0.629(4) 0.169(3)
H63 H 0.255(4) 0.577(2) 0.162(3)
N41 N 0.3999(4) 0.6232(3) 0.0448(2)
H64 H 0.380(4) 0.577(2) 0.051(3)
H65 H 0.428(4) 0.633(4) 0.069(2)
H66 H 0.436(4) 0.640(4) 0.0131(18)
N42 N 0.1417(4) 0.8543(3) 0.0153(2)
H67 H 0.090(2) 0.847(4) 0.036(3)
H68 H 0.144(4) 0.850(4) -0.0204(12)
H69 H 0.137(4) 0.904(2) 0.024(3)
N43 N 0.2446(4) 0.6791(3) -0.0296(2)
H70 H 0.205(3) 0.646(3) -0.017(3)
H71 H 0.295(2) 0.652(4) -0.043(3)
H72 H 0.258(4) 0.711(3) -0.0622(17)
Sr1 Sr 0.24724(4) 0.25233(3) 0.43348(2)
N1 N 0.3927(3) 0.3292(3) 0.4001(2)
H1 H 0.388(4) 0.373(3) 0.416(3)
H2 H 0.408(4) 0.348(4) 0.3638(11)
H3 H 0.434(3) 0.297(3) 0.414(3)
N2 N 0.1049(4) 0.3697(3) 0.4602(3)
H4 H 0.131(4) 0.413(3) 0.456(3)
H5 H 0.074(4) 0.358(4) 0.4951(14)
H6 H 0.067(4) 0.372(4) 0.440(3)
N3 N 0.1533(4) 0.1548(3) 0.5247(2)
H7 H 0.180(4) 0.105(2) 0.532(3)
H8 H 0.0992(18) 0.154(4) 0.527(3)
H9 H 0.161(5) 0.158(4) 0.5585(16)
N4 N 0.1266(4) 0.1951(3) 0.3911(2)
H10 H 0.123(4) 0.239(3) 0.366(2)
H11 H 0.091(4) 0.170(4) 0.420(2)
H12 H 0.154(4) 0.171(4) 0.3604(19)
N5 N 0.3651(4) 0.1405(3) 0.4844(2)
H13 H 0.4201(16) 0.145(4) 0.477(3)
H14 H 0.378(4) 0.090(2) 0.475(3)
H15 H 0.358(4) 0.145(4) 0.5205(12)
N6 N 0.3583(4) 0.1775(3) 0.3437(2)
H16 H 0.341(4) 0.196(4) 0.3121(18)
H17 H 0.370(4) 0.1261(17) 0.359(3)
H18 H 0.411(2) 0.189(4) 0.341(3)
N7 N 0.2608(3) 0.3126(3) 0.5307(2)
H19 H 0.3157(16) 0.317(4) 0.525(3)
H20 H 0.236(4) 0.281(3) 0.5601(19)
H21 H 0.224(3) 0.355(3) 0.538(3)
N8 N 0.2287(4) 0.3676(3) 0.3370(2)
H22 H 0.244(5) 0.413(3) 0.344(3)
H23 H 0.176(2) 0.373(4) 0.332(3)
H24 H 0.261(4) 0.355(4) 0.3041(17)
N44? N 0.4579(10) 0.3952(10) 0.2542(7)
N45? N 0.3509(13) 0.5573(12) 0.6991(9)
loop_
_geom_bond_atom_site_label_1
_geom_bond_atom_site_label_2
_geom_bond_site_symmetry_1
_geom_bond_site_symmetry_2
Sr1 N1 1_555 1_555
N1 H1 1_555 1_555
H2 N1 1_555 1_555
H3 N1 1_555 1_555
N2 Sr1 1_555 1_555
H4 N2 1_555 1_555
H5 N2 1_555 1_555
H6 N2 1_555 1_555
N3 Sr1 1_555 1_555
H7 N3 1_555 1_555
H8 N3 1_555 1_555
H9 N3 1_555 1_555
N4 Sr1 1_555 1_555
H10 N4 1_555 1_555
H11 N4 1_555 1_555
H12 N4 1_555 1_555
N5 Sr1 1_555 1_555
H13 N5 1_555 1_555
H14 N5 1_555 1_555
H15 N5 1_555 1_555
N6 Sr1 1_555 1_555
H16 N6 1_555 1_555
H17 N6 1_555 1_555
H18 N6 1_555 1_555
N7 Sr1 1_555 1_555
H19 N7 1_555 1_555
H20 N7 1_555 1_555
H21 N7 1_555 1_555
N8 Sr1 1_555 1_555
H22 N8 1_555 1_555
H23 N8 1_555 1_555
H24 N8 1_555 1_555
Sr2 N9 1_555 1_555
N9 H25 1_555 1_555
H26 N9 1_555 1_555
H27 N9 1_555 1_555
N10 Sr2 1_555 1_555
H28 N10 1_555 1_555
H29 N10 1_555 1_555
H30 N10 1_555 1_555
N11 Sr2 1_555 1_555
H31 N11 1_555 1_555
H32 N11 1_555 1_555
H33 N11 1_555 1_555
N12 Sr2 1_555 1_555
H34 N12 1_555 1_555
H35 N12 1_555 1_555
H36 N12 1_555 1_555
N13 Sr2 1_555 1_555
H37 N13 1_555 1_555
H38 N13 1_555 1_555
H39 N13 1_555 1_555
N14 Sr2 1_555 1_555
H40 N14 1_555 1_555
H41 N14 1_555 1_555
H42 N14 1_555 1_555
N15 Sr2 1_555 1_555
H43 N15 1_555 1_555
H44 N15 1_555 1_555
H45 N15 1_555 1_555
N16 Sr2 1_555 1_555
H46 N16 1_555 1_555
H47 N16 1_555 1_555
H48 N16 1_555 1_555
C1 C33 1_555 1_555
C2 C3 1_555 1_555
C3 C11 1_555 1_555
C4 C2 1_555 1_555
C5 C6 1_555 1_555
C6 C2 1_555 1_555
C7 C4 1_555 1_555
C8 C4 1_555 1_555
C9 C8 1_555 1_555
C10 C5 1_555 1_555
C11 C9 1_555 1_555
C12 C11 1_555 1_555
C13 C12 1_555 1_555
C14 C3 1_555 1_555
C15 C12 1_555 1_555
C16 C15 1_555 1_555
C17 C9 1_555 1_555
C18 C10 1_555 1_555
C19 C22 1_555 1_555
C20 C18 1_555 1_555
C21 C17 1_555 1_555
C22 C23 1_555 1_555
C23 C8 1_555 1_555
C24 C7 1_555 1_555
C25 C6 1_555 1_555
C26 C25 1_555 1_555
C27 C10 1_555 1_555
C28 C14 1_555 1_555
C29 C28 1_555 1_555
C30 C29 1_555 1_555
C31 C30 1_555 1_555
C32 C31 1_555 1_555
C33 C32 1_555 1_555
C34 C33 1_555 1_555
C35 C32 1_555 1_555
C36 C31 1_555 1_555
C37 C35 1_555 1_555
C38 C36 1_555 1_555
C39 C13 1_555 1_555
C40 C26 1_555 1_555
C41 C51 1_555 1_555
C42 C15 1_555 1_555
C43 C42 1_555 1_555
C44 C35 1_555 1_555
C45 C1 1_555 1_555
C46 C34 1_555 1_555
C47 C46 1_555 1_555
C48 C38 1_555 1_555
C49 C27 1_555 1_555
C50 C18 1_555 1_555
C51 C50 1_555 1_555
C52 C47 1_555 1_555
C53 C52 1_555 1_555
C54 C46 1_555 1_555
C55 C56 1_555 1_555
C56 C43 1_555 1_555
C57 C16 1_555 1_555
C58 C57 1_555 1_555
C59 C55 1_555 1_555
C60 C21 1_555 1_555
C61 C19 1_555 1_555
C62 C61 1_555 1_555
C63 C59 1_555 1_555
C64 C63 1_555 1_555
C65 C64 1_555 1_555
C66 C1 1_555 1_555
C67 C45 1_555 1_555
C68 C53 1_555 1_555
C69 C41 1_555 1_555
C70 C19 1_555 1_555
C71 C103 1_555 1_555
C72 C73 1_555 1_555
C73 C81 1_555 1_555
C74 C72 1_555 1_555
C75 C76 1_555 1_555
C76 C1 1_555 1_555
C77 C74 1_555 1_555
C78 C74 1_555 1_555
C79 C78 1_555 1_555
C80 C75 1_555 1_555
C81 C79 1_555 1_555
C82 C81 1_555 1_555
C83 C82 1_555 1_555
C84 C73 1_555 1_555
C85 C82 1_555 1_555
C86 C85 1_555 1_555
C87 C79 1_555 1_555
C88 C80 1_555 1_555
C89 C92 1_555 1_555
C90 C88 1_555 1_555
C91 C87 1_555 1_555
C92 C93 1_555 1_555
C93 C78 1_555 1_555
C94 C77 1_555 1_555
C95 C76 1_555 1_555
C96 C95 1_555 1_555
C97 C80 1_555 1_555
C98 C84 1_555 1_555
C99 C98 1_555 1_555
C100 C99 1_555 1_555
C101 C100 1_555 1_555
C102 C101 1_555 1_555
C103 C102 1_555 1_555
C104 C103 1_555 1_555
C105 C102 1_555 1_555
C106 C101 1_555 1_555
C107 C105 1_555 1_555
C108 C106 1_555 1_555
C109 C83 1_555 1_555
C110 C96 1_555 1_555
C111 C121 1_555 1_555
C112 C85 1_555 1_555
C113 C112 1_555 1_555
C114 C105 1_555 1_555
C115 C71 1_555 1_555
C116 C104 1_555 1_555
C117 C116 1_555 1_555
C118 C108 1_555 1_555
C119 C97 1_555 1_555
C120 C88 1_555 1_555
C121 C120 1_555 1_555
C122 C117 1_555 1_555
C123 C122 1_555 1_555
C124 C116 1_555 1_555
C125 C126 1_555 1_555
C126 C113 1_555 1_555
C127 C86 1_555 1_555
C128 C127 1_555 1_555
C129 C125 1_555 1_555
C130 C91 1_555 1_555
C131 C89 1_555 1_555
C132 C131 1_555 1_555
C133 C129 1_555 1_555
C134 C133 1_555 1_555
C135 C134 1_555 1_555
C136 C71 1_555 1_555
C137 C115 1_555 1_555
C138 C123 1_555 1_555
C139 C111 1_555 1_555
C140 C89 1_555 1_555
Sr3 N36 1_555 1_555
N36 H49 1_555 1_555
H50 N36 1_555 1_555
H51 N36 1_555 1_555
N37 Sr3 1_555 1_555
H52 N37 1_555 1_555
H53 N37 1_555 1_555
H54 N37 1_555 1_555
N38 Sr3 1_555 1_555
H55 N38 1_555 1_555
H56 N38 1_555 1_555
H57 N38 1_555 1_555
N39 Sr3 1_555 1_555
H58 N39 1_555 1_555
H59 N39 1_555 1_555
H60 N39 1_555 1_555
N40 Sr3 1_555 1_555
H61 N40 1_555 1_555
H62 N40 1_555 1_555
H63 N40 1_555 1_555
N41 Sr3 1_555 1_555
H64 N41 1_555 1_555
H65 N41 1_555 1_555
H66 N41 1_555 1_555
N42 Sr3 1_555 1_555
H67 N42 1_555 1_555
H68 N42 1_555 1_555
H69 N42 1_555 1_555
N43 Sr3 1_555 1_555
H70 N43 1_555 1_555
H71 N43 1_555 1_555
H72 N43 1_555 1_555
C2A C2 1_555 1_555
C115A C115 1_555 1_555
C5 C7 1_555 1_555
C13 C14 1_555 1_555
C16 C17 1_555 1_555
C20 C24 1_555 1_555
C20 C70 1_555 1_555
C21 C23 1_555 1_555
C22 C24 1_555 1_555
C25 C28 1_555 1_555
C26 C27 1_555 1_555
C29 C40 1_555 1_555
C30 C39 1_555 1_555
C34 C36 1_555 1_555
C37 C39 1_555 1_555
C37 C42 1_555 1_555
C38 C40 1_555 1_555
C41 C70 1_555 1_555
C43 C44 1_555 1_555
C44 C45 1_555 1_555
C47 C48 1_555 1_555
C48 C49 1_555 1_555
C49 C50 1_555 1_555
C51 C52 1_555 1_555
C53 C54 1_555 1_555
C54 C66 1_555 1_555
C55 C67 1_555 1_555
C56 C57 1_555 1_555
C58 C59 1_555 1_555
C58 C60 1_555 1_555
C60 C61 1_555 1_555
C62 C63 1_555 1_555
C62 C69 1_555 1_555
C64 C68 1_555 1_555
C65 C66 1_555 1_555
C65 C67 1_555 1_555
C68 C69 1_555 1_555
C72 C76 1_555 1_555
C75 C77 1_555 1_555
C83 C84 1_555 1_555
C86 C87 1_555 1_555
C90 C94 1_555 1_555
C90 C140 1_555 1_555
C91 C93 1_555 1_555
C92 C94 1_555 1_555
C95 C98 1_555 1_555
C96 C97 1_555 1_555
C99 C110 1_555 1_555
C100 C109 1_555 1_555
C104 C106 1_555 1_555
C107 C109 1_555 1_555
C107 C112 1_555 1_555
C108 C110 1_555 1_555
C111 C140 1_555 1_555
C113 C114 1_555 1_555
C114 C115 1_555 1_555
C117 C118 1_555 1_555
C118 C119 1_555 1_555
C119 C120 1_555 1_555
C121 C122 1_555 1_555
C123 C124 1_555 1_555
C124 C136 1_555 1_555
C125 C137 1_555 1_555
C126 C127 1_555 1_555
C128 C129 1_555 1_555
C128 C130 1_555 1_555
C130 C131 1_555 1_555
C132 C133 1_555 1_555
C132 C139 1_555 1_555
C134 C138 1_555 1_555
C135 C136 1_555 1_555
C135 C137 1_555 1_555
C138 C139 1_555 1_555

#END
