
#######################################################################
#
#                 Cambridge Crystallographic Data Centre
#                                CCDC 
#
#######################################################################
#
# If this CIF has been generated from an entry in the Cambridge 
# Structural Database, then it will include bibliographic, chemical, 
# crystal, experimental, refinement or atomic coordinate data resulting 
# from the CCDC's data processing and validation procedures.
#
#######################################################################

data_OBEPOB
_chemical_formula_moiety         'C27 H30 N2 O3'
_chemical_name_systematic        
10,10-Dimethyl-4-(2-hydroxy-2-phenylpent-4-en-1-oyl)-3-phenyl-3,4-diazatricyclo(5.2.1.0^1,5^)decan-2-one
_symmetry_cell_setting           orthorhombic
_symmetry_space_group_name_H-M   'P 21 21 21'
_symmetry_Int_Tables_number      19
_space_group_name_Hall           'P 2ac 2ab'
loop_
_symmetry_equiv_pos_site_id
_symmetry_equiv_pos_as_xyz
1 x,y,z
2 1/2-x,-y,1/2+z
3 1/2+x,1/2-y,-z
4 -x,1/2+y,1/2-z
_cell_length_a                   8.8990(2)
_cell_length_b                   10.8620(3)
_cell_length_c                   24.2140(9)
_cell_angle_alpha                90
_cell_angle_beta                 90
_cell_angle_gamma                90
_cell_volume                     2340.55
_exptl_crystal_colour            colorless
_exptl_crystal_description       prism
_cell_formula_units_Z            4
loop_
_atom_site_label
_atom_site_type_symbol
_atom_site_fract_x
_atom_site_fract_y
_atom_site_fract_z
O1 O -0.4915(3) 0.0065(3) -0.34288(12)
O2 O -0.9233(3) 0.0554(2) -0.44642(11)
O3 O -1.1783(2) -0.0442(2) -0.34646(10)
H1 H -1.2945 -0.0312 -0.3498
N1 N -0.7359(3) 0.0489(3) -0.36506(12)
N2 N -0.8837(3) -0.0024(3) -0.35620(12)
C1 C -0.6255(4) -0.0222(4) -0.34260(16)
C2 C -0.6961(4) -0.1271(3) -0.31350(16)
C3 C -0.6402(5) -0.2596(4) -0.3150(2)
H2 H -0.6570 -0.2933 -0.3511
H3 H -0.5345 -0.2599 -0.3071
C4 C -0.7344(5) -0.3188(5) -0.2685(2)
H4 H -0.8036 -0.3763 -0.2847
H5 H -0.6714 -0.3609 -0.2424
C5 C -0.8221(4) -0.2106(4) -0.24356(19)
H6 H -0.8605 -0.2245 -0.2070
C6 C -0.9494(4) -0.1738(5) -0.28276(17)
H7 H -1.0091 -0.1056 -0.2703
H8 H -1.0140 -0.2415 -0.2920
C7 C -0.8605(4) -0.1281(4) -0.33338(17)
H9 H -0.8688 -0.1888 -0.3621
C8 C -0.7114(4) -0.1028(4) -0.24976(17)
C9 C -0.7736(6) 0.0243(5) -0.23506(19)
H10 H -0.7786 0.0330 -0.1957
H11 H -0.8725 0.0324 -0.2505
H12 H -0.7094 0.0870 -0.2502
C10 C -0.5643(5) -0.1184(5) -0.2177(2)
H13 H -0.5806 -0.1016 -0.1792
H14 H -0.4909 -0.0622 -0.2321
H15 H -0.5289 -0.2013 -0.2220
C11 C -0.7248(4) 0.1772(4) -0.37651(16)
C12 C -0.6152(4) 0.2200(4) -0.41153(17)
H16 H -0.5473 0.1617 -0.4278
C13 C -0.6035(5) 0.3435(4) -0.42279(19)
H17 H -0.5254 0.3752 -0.4461
C14 C -0.7036(7) 0.4246(5) -0.4003(2)
H18 H -0.6953 0.5108 -0.4085
C15 C -0.8132(6) 0.3814(5) -0.3650(2)
H19 H -0.8844 0.4403 -0.3513
C16 C -0.8232(5) 0.2597(4) -0.3529(2)
H20 H -0.8950 0.2294 -0.3266
C17 C -0.9708(4) 0.0074(3) -0.40505(16)
C18 C -1.1335(3) -0.0398(4) -0.40259(16)
C19 C -1.1407(4) -0.1672(4) -0.42925(17)
C20 C -1.2202(5) -0.2615(4) -0.4046(2)
H21 H -1.2675 -0.2466 -0.3696
C21 C -1.2345(6) -0.3747(5) -0.4300(3)
H22 H -1.2930 -0.4390 -0.4133
C22 C -1.1682(7) -0.3969(5) -0.4798(3)
H23 H -1.1736 -0.4776 -0.4959
C23 C -1.0858(6) -0.3047(5) -0.5047(2)
H24 H -1.0417 -0.3226 -0.5399
C24 C -1.0732(5) -0.1903(4) -0.4797(2)
H25 H -1.0180 -0.1248 -0.4970
C25 C -1.2325(4) 0.0507(4) -0.43457(16)
H26 H -1.1920 0.0584 -0.4712
H27 H -1.3336 0.0201 -0.4367
C26 C -1.2356(4) 0.1765(4) -0.40952(19)
H28 H -1.2891 0.1889 -0.3755
C27 C -1.1762(8) 0.2753(5) -0.4294(2)
H29 H -1.1848 0.3513 -0.4093
H30 H -1.1198 0.2725 -0.4631
loop_
_geom_bond_atom_site_label_1
_geom_bond_atom_site_label_2
_geom_bond_site_symmetry_1
_geom_bond_site_symmetry_2
O1 C1 1_555 1_555
O2 C17 1_555 1_555
O3 H1 1_555 1_555
N1 N2 1_555 1_555
N2 C7 1_555 1_555
C1 N1 1_555 1_555
C2 C1 1_555 1_555
C3 C2 1_555 1_555
H2 C3 1_555 1_555
H3 C3 1_555 1_555
C4 C3 1_555 1_555
H4 C4 1_555 1_555
H5 C4 1_555 1_555
C5 C4 1_555 1_555
H6 C5 1_555 1_555
C6 C5 1_555 1_555
H7 C6 1_555 1_555
H8 C6 1_555 1_555
C7 C2 1_555 1_555
H9 C7 1_555 1_555
C8 C2 1_555 1_555
C9 C8 1_555 1_555
H10 C9 1_555 1_555
H11 C9 1_555 1_555
H12 C9 1_555 1_555
C10 C8 1_555 1_555
H13 C10 1_555 1_555
H14 C10 1_555 1_555
H15 C10 1_555 1_555
C11 N1 1_555 1_555
C12 C11 1_555 1_555
H16 C12 1_555 1_555
C13 C12 1_555 1_555
H17 C13 1_555 1_555
C14 C13 1_555 1_555
H18 C14 1_555 1_555
C15 C14 1_555 1_555
H19 C15 1_555 1_555
C16 C11 1_555 1_555
H20 C16 1_555 1_555
C17 N2 1_555 1_555
C18 O3 1_555 1_555
C19 C18 1_555 1_555
C20 C19 1_555 1_555
H21 C20 1_555 1_555
C21 C20 1_555 1_555
H22 C21 1_555 1_555
C22 C21 1_555 1_555
H23 C22 1_555 1_555
C23 C22 1_555 1_555
H24 C23 1_555 1_555
C24 C19 1_555 1_555
H25 C24 1_555 1_555
C25 C18 1_555 1_555
H26 C25 1_555 1_555
H27 C25 1_555 1_555
C26 C25 1_555 1_555
H28 C26 1_555 1_555
C27 C26 1_555 1_555
H29 C27 1_555 1_555
H30 C27 1_555 1_555
C5 C8 1_555 1_555
C6 C7 1_555 1_555
C15 C16 1_555 1_555
C17 C18 1_555 1_555
C23 C24 1_555 1_555

#END
