
#######################################################################
#
#                 Cambridge Crystallographic Data Centre
#                                CCDC 
#
#######################################################################
#
# If this CIF has been generated from an entry in the Cambridge 
# Structural Database, then it will include bibliographic, chemical, 
# crystal, experimental, refinement or atomic coordinate data resulting 
# from the CCDC's data processing and validation procedures.
#
#######################################################################

data_OBETAT
_chemical_formula_moiety         'C40 H28 O2'
_chemical_name_systematic        
((1,2-diphenylethene-1,2-diyl)di-4,1-phenylene)bis(phenylmethanone)
_symmetry_cell_setting           monoclinic
_symmetry_space_group_name_H-M   'C 2/c'
_symmetry_Int_Tables_number      15
_space_group_name_Hall           '-C 2yn'
loop_
_symmetry_equiv_pos_site_id
_symmetry_equiv_pos_as_xyz
1 x,y,z
2 -x,y,1/2-z
3 1/2+x,1/2+y,z
4 1/2-x,1/2+y,1/2-z
5 -x,-y,-z
6 x,-y,1/2+z
7 1/2-x,1/2-y,-z
8 1/2+x,1/2-y,1/2+z
_cell_length_a                   17.821(7)
_cell_length_b                   12.088(5)
_cell_length_c                   28.577(12)
_cell_angle_alpha                90
_cell_angle_beta                 106.795(7)
_cell_angle_gamma                90
_cell_volume                     5893.48
_exptl_crystal_colour            green
_exptl_crystal_description       block
_cell_formula_units_Z            8
_chemical_properties_physical    Photo-sensitive
loop_
_atom_site_label
_atom_site_type_symbol
_atom_site_fract_x
_atom_site_fract_y
_atom_site_fract_z
C1 C 0.47329(13) 0.3211(2) -0.12950(6)
C2 C 0.46968(18) 0.21769(19) -0.15127(11)
H1 H 0.4859 0.1552 -0.1320
C3 C 0.44186(19) 0.2077(3) -0.20180(12)
H2 H 0.4394 0.1384 -0.2164
C4 C 0.41765(16) 0.3011(4) -0.23056(7)
H3 H 0.3990 0.2944 -0.2644
C5 C 0.4213(2) 0.4045(3) -0.20879(9)
H4 H 0.4051 0.4670 -0.2280
C6 C 0.44909(19) 0.41457(19) -0.15826(10)
H5 H 0.4515 0.4838 -0.1437
O1 O 0.18491(16) 0.5818(2) 0.25334(8)
O2 O 0.57901(15) 0.3193(3) -0.05984(9)
C7 C 0.50861(18) 0.3318(3) -0.07625(11)
C8 C 0.46058(16) 0.3517(2) -0.04304(10)
C9 C 0.37982(17) 0.3586(2) -0.05919(10)
H6 H 0.3540 0.3534 -0.0924
C10 C 0.33711(17) 0.3730(3) -0.02627(10)
H7 H 0.2828 0.3778 -0.0378
C11 C 0.37318(16) 0.3806(2) 0.02338(10)
C12 C 0.45503(16) 0.3784(2) 0.03879(10)
H8 H 0.4812 0.3872 0.0718
C13 C 0.49744(17) 0.3635(2) 0.00635(10)
H9 H 0.5519 0.3614 0.0177
C14 C 0.32668(16) 0.3953(3) 0.05892(10)
C15 C 0.25300(17) 0.4601(3) 0.04148(10)
C16 C 0.25024(18) 0.5598(3) 0.01724(10)
H10 H 0.2953 0.5860 0.0107
C17 C 0.18242(19) 0.6211(3) 0.00254(11)
H11 H 0.1820 0.6882 -0.0134
C18 C 0.1159(2) 0.5832(3) 0.01142(12)
H12 H 0.0703 0.6254 0.0022
C19 C 0.11596(19) 0.4822(3) 0.03412(13)
H13 H 0.0702 0.4556 0.0395
C20 C 0.18390(18) 0.4212(3) 0.04874(11)
H14 H 0.1836 0.3530 0.0637
C21 C 0.34896(17) 0.3518(3) 0.10459(10)
C22 C 0.41067(17) 0.2651(3) 0.12061(10)
C23 C 0.41222(18) 0.1722(3) 0.09250(12)
H15 H 0.3739 0.1634 0.0628
C24 C 0.4691(2) 0.0933(3) 0.10764(14)
H16 H 0.4691 0.0316 0.0882
C25 C 0.5259(2) 0.1049(3) 0.15137(16)
H17 H 0.5652 0.0520 0.1613
C26 C 0.5248(2) 0.1942(3) 0.18037(13)
H18 H 0.5627 0.2014 0.2104
C27 C 0.46768(19) 0.2737(3) 0.16531(11)
H19 H 0.4673 0.3341 0.1854
C28 C 0.31284(18) 0.3865(3) 0.14303(10)
C29 C 0.30102(19) 0.4981(3) 0.15095(10)
H20 H 0.3141 0.5512 0.1311
C30 C 0.27016(19) 0.5307(3) 0.18775(11)
H21 H 0.2610 0.6053 0.1917
C31 C 0.25269(19) 0.4536(3) 0.21884(11)
C32 C 0.26448(19) 0.3427(3) 0.21133(11)
H22 H 0.2524 0.2898 0.2317
C33 C 0.29404(18) 0.3098(3) 0.17381(11)
H23 H 0.3014 0.2349 0.1692
C34 C 0.2212(2) 0.4940(3) 0.25858(12)
C35 C 0.2336(2) 0.4300(3) 0.30467(11)
C36 C 0.2986(2) 0.3651(3) 0.32391(12)
H24 H 0.3356 0.3574 0.3069
C37 C 0.3099(3) 0.3114(3) 0.36779(13)
H25 H 0.3544 0.2684 0.3806
C38 C 0.2555(3) 0.3221(4) 0.39208(15)
H26 H 0.2619 0.2847 0.4214
C39 C 0.1914(3) 0.3870(5) 0.37390(16)
H27 H 0.1547 0.3941 0.3912
C40 C 0.1800(2) 0.4421(4) 0.33057(13)
H28 H 0.1364 0.4873 0.3187
loop_
_geom_bond_atom_site_label_1
_geom_bond_atom_site_label_2
_geom_bond_site_symmetry_1
_geom_bond_site_symmetry_2
C1 C2 1_555 1_555
C2 H1 1_555 1_555
C3 C2 1_555 1_555
H2 C3 1_555 1_555
C4 C3 1_555 1_555
H3 C4 1_555 1_555
C5 C4 1_555 1_555
H4 C5 1_555 1_555
C6 C1 1_555 1_555
H5 C6 1_555 1_555
O1 C34 1_555 1_555
O2 C7 1_555 1_555
C7 C1 1_555 1_555
C8 C7 1_555 1_555
C9 C8 1_555 1_555
H6 C9 1_555 1_555
C10 C9 1_555 1_555
H7 C10 1_555 1_555
C11 C10 1_555 1_555
C12 C11 1_555 1_555
H8 C12 1_555 1_555
C13 C8 1_555 1_555
H9 C13 1_555 1_555
C14 C11 1_555 1_555
C15 C14 1_555 1_555
C16 C15 1_555 1_555
H10 C16 1_555 1_555
C17 C16 1_555 1_555
H11 C17 1_555 1_555
C18 C17 1_555 1_555
H12 C18 1_555 1_555
C19 C18 1_555 1_555
H13 C19 1_555 1_555
C20 C15 1_555 1_555
H14 C20 1_555 1_555
C21 C14 1_555 1_555
C22 C21 1_555 1_555
C23 C22 1_555 1_555
H15 C23 1_555 1_555
C24 C23 1_555 1_555
H16 C24 1_555 1_555
C25 C24 1_555 1_555
H17 C25 1_555 1_555
C26 C25 1_555 1_555
H18 C26 1_555 1_555
C27 C22 1_555 1_555
H19 C27 1_555 1_555
C28 C21 1_555 1_555
C29 C28 1_555 1_555
H20 C29 1_555 1_555
C30 C29 1_555 1_555
H21 C30 1_555 1_555
C31 C30 1_555 1_555
C32 C31 1_555 1_555
H22 C32 1_555 1_555
C33 C28 1_555 1_555
H23 C33 1_555 1_555
C34 C31 1_555 1_555
C35 C34 1_555 1_555
C36 C35 1_555 1_555
H24 C36 1_555 1_555
C37 C36 1_555 1_555
H25 C37 1_555 1_555
C38 C37 1_555 1_555
H26 C38 1_555 1_555
C39 C38 1_555 1_555
H27 C39 1_555 1_555
C40 C35 1_555 1_555
H28 C40 1_555 1_555
C5 C6 1_555 1_555
C12 C13 1_555 1_555
C19 C20 1_555 1_555
C26 C27 1_555 1_555
C32 C33 1_555 1_555
C39 C40 1_555 1_555

#END
