
#######################################################################
#
#                 Cambridge Crystallographic Data Centre
#                                CCDC 
#
#######################################################################
#
# If this CIF has been generated from an entry in the Cambridge 
# Structural Database, then it will include bibliographic, chemical, 
# crystal, experimental, refinement or atomic coordinate data resulting 
# from the CCDC's data processing and validation procedures.
#
#######################################################################

data_OBEZED
_chemical_formula_moiety         'C21 H20 N2 O4'
_chemical_name_systematic        
'methyl 8-cyano-10,10-dimethyl-7,12-dioxo-4,5,7,8,9,10,11,12-octahydroindolo[7,1-ab][3]benzazepine-2-carboxylate unknown solvate'
_symmetry_cell_setting           triclinic
_symmetry_space_group_name_H-M   'P -1'
_symmetry_Int_Tables_number      2
_space_group_name_Hall           '-P 1'
loop_
_symmetry_equiv_pos_site_id
_symmetry_equiv_pos_as_xyz
1 x,y,z
2 -x,-y,-z
_cell_length_a                   9.2814(19)
_cell_length_b                   10.2730(19)
_cell_length_c                   11.8447(19)
_cell_angle_alpha                79.305(11)
_cell_angle_beta                 79.574(12)
_cell_angle_gamma                83.084(12)
_cell_volume                     1087.01
_exptl_crystal_colour            colorless
_exptl_crystal_description       Prism
_cell_formula_units_Z            2
_exptl_crystal_preparation       Fiber
loop_
_atom_site_label
_atom_site_type_symbol
_atom_site_fract_x
_atom_site_fract_y
_atom_site_fract_z
O1 O 1.29009(16) 0.56226(15) 0.72010(13)
O2 O 0.59719(15) 0.74684(14) 0.83858(13)
O3 O 0.74133(18) 1.27565(14) 0.57174(14)
O4 O 0.58703(17) 1.12410(14) 0.57210(14)
N1 N 1.13662(18) 0.75144(16) 0.72989(14)
N2 N 1.1679(2) 0.37276(18) 0.54402(16)
C1 C 1.2448(2) 0.8303(2) 0.75957(19)
H1 H 1.346938 0.793078 0.735632
H2 H 1.228446 0.832472 0.844164
C2 C 1.2143(2) 0.9697(2) 0.68955(18)
H3 H 1.224503 1.039940 0.733859
H4 H 1.281680 0.982567 0.614134
C3 C 1.0573(2) 0.97013(19) 0.67188(16)
C4 C 0.9587(2) 1.07372(19) 0.63778(16)
H5 H 0.985641 1.162444 0.620333
C5 C 0.8169(2) 1.04631(19) 0.62908(16)
C6 C 0.7748(2) 0.91714(19) 0.65860(16)
H6 H 0.677359 0.901644 0.654007
C7 C 0.8738(2) 0.80889(18) 0.69515(16)
C8 C 1.0163(2) 0.83951(18) 0.69662(16)
C9 C 1.1778(2) 0.62871(19) 0.70006(16)
C10 C 1.0660(2) 0.58468(18) 0.63568(16)
H7 H 1.047762 0.658018 0.570057
C11 C 0.9201(2) 0.56412(18) 0.71601(15)
C12 C 0.8287(2) 0.67259(18) 0.73672(16)
C13 C 0.6797(2) 0.65382(19) 0.80698(16)
C14 C 0.6352(2) 0.51323(19) 0.83520(18)
H8 H 0.601937 0.491488 0.766611
H9 H 0.551312 0.507395 0.900229
C15 C 0.7611(2) 0.41090(19) 0.86905(17)
C16 C 0.8868(2) 0.42321(18) 0.76515(17)
H10 H 0.976631 0.372344 0.789809
H11 H 0.861036 0.382311 0.702913
C17 C 0.8129(3) 0.4383(2) 0.97782(18)
H12 H 0.730733 0.433507 1.042916
H13 H 0.847825 0.527255 0.961898
H14 H 0.893091 0.371756 0.998005
C18 C 0.7111(3) 0.2705(2) 0.8932(2)
H15 H 0.634171 0.261460 0.962042
H16 H 0.794905 0.205416 0.907127
H17 H 0.672043 0.254724 0.825847
C19 C 1.1282(2) 0.46550(19) 0.58522(17)
C20 C 0.7137(2) 1.16050(19) 0.58902(17)
C21 C 0.4814(3) 1.2330(2) 0.5355(2)
H18 H 0.452499 1.287927 0.596626
H19 H 0.394325 1.197048 0.521410
H20 H 0.526106 1.287424 0.463627
loop_
_geom_bond_atom_site_label_1
_geom_bond_atom_site_label_2
_geom_bond_site_symmetry_1
_geom_bond_site_symmetry_2
O1 C9 1_555 1_555
O2 C13 1_555 1_555
O3 C20 1_555 1_555
O4 C20 1_555 1_555
N1 C1 1_555 1_555
N2 C19 1_555 1_555
C1 H1 1_555 1_555
H2 C1 1_555 1_555
C2 C1 1_555 1_555
H3 C2 1_555 1_555
H4 C2 1_555 1_555
C3 C2 1_555 1_555
C4 C3 1_555 1_555
H5 C4 1_555 1_555
C5 C4 1_555 1_555
C6 C5 1_555 1_555
H6 C6 1_555 1_555
C7 C6 1_555 1_555
C8 N1 1_555 1_555
C9 N1 1_555 1_555
C10 C9 1_555 1_555
H7 C10 1_555 1_555
C11 C10 1_555 1_555
C12 C7 1_555 1_555
C13 C12 1_555 1_555
C14 C13 1_555 1_555
H8 C14 1_555 1_555
H9 C14 1_555 1_555
C15 C14 1_555 1_555
C16 C11 1_555 1_555
H10 C16 1_555 1_555
H11 C16 1_555 1_555
C17 C15 1_555 1_555
H12 C17 1_555 1_555
H13 C17 1_555 1_555
H14 C17 1_555 1_555
C18 C15 1_555 1_555
H15 C18 1_555 1_555
H16 C18 1_555 1_555
H17 C18 1_555 1_555
C19 C10 1_555 1_555
C20 C5 1_555 1_555
C21 O4 1_555 1_555
H18 C21 1_555 1_555
H19 C21 1_555 1_555
H20 C21 1_555 1_555
C3 C8 1_555 1_555
C7 C8 1_555 1_555
C11 C12 1_555 1_555
C15 C16 1_555 1_555

#END
