
#######################################################################
#
#                 Cambridge Crystallographic Data Centre
#                                CCDC 
#
#######################################################################
#
# If this CIF has been generated from an entry in the Cambridge 
# Structural Database, then it will include bibliographic, chemical, 
# crystal, experimental, refinement or atomic coordinate data resulting 
# from the CCDC's data processing and validation procedures.
#
#######################################################################

data_OBIBUZ
_chemical_name_common            
6-(4-methylphenyl)-2,3,3,4-tetraphenyl-2,3-dihydro-1,2,4,5,3-tetrazaborinine
_chemical_formula_moiety         'C32 H27 B1 N4'
_chemical_name_systematic        
(2-{(4-methylphenyl)[phenyldiazenyl]methylidene}-1-phenylhydrazinyl)(diphenyl)boron
_symmetry_cell_setting           monoclinic
_symmetry_space_group_name_H-M   'P 21/c'
_symmetry_Int_Tables_number      14
_space_group_name_Hall           '-P 2ybc'
loop_
_symmetry_equiv_pos_site_id
_symmetry_equiv_pos_as_xyz
1 x,y,z
2 -x,1/2+y,1/2-z
3 -x,-y,-z
4 x,1/2-y,1/2+z
_cell_length_a                   9.5375(3)
_cell_length_b                   15.5183(5)
_cell_length_c                   17.4792(6)
_cell_angle_alpha                90
_cell_angle_beta                 99.2996(12)
_cell_angle_gamma                90
_cell_volume                     2553.02
_exptl_crystal_colour            red
_exptl_crystal_description       block
_cell_formula_units_Z            4
loop_
_atom_site_label
_atom_site_type_symbol
_atom_site_fract_x
_atom_site_fract_y
_atom_site_fract_z
N1 N 0.33758(10) 0.30631(6) 0.13751(5)
N2 N 0.24924(10) 0.30699(6) 0.25649(5)
N3 N 0.29520(10) 0.22697(6) 0.12375(5)
N4 N 0.20395(10) 0.22775(6) 0.24450(5)
C1 C 0.35088(12) 0.62196(7) 0.20845(7)
C2 C 0.31441(11) 0.44181(7) 0.20143(6)
C3 C -0.00776(12) 0.26020(8) 0.03701(7)
H1 H 0.0500 0.2316 0.0054
C4 C 0.37484(12) 0.18212(7) 0.07330(6)
C5 C 0.51762(13) 0.20225(8) 0.07428(7)
H2 H 0.5644 0.2419 0.1113
C6 C 0.40273(13) 0.57297(8) 0.15231(7)
H3 H 0.4508 0.6010 0.1157
C7 C 0.29083(11) 0.34791(7) 0.19598(6)
C8 C 0.29423(13) 0.19426(8) 0.38061(7)
H4 H 0.3670 0.2361 0.3808
C9 C 0.28032(12) 0.57902(8) 0.26104(7)
H5 H 0.2451 0.6110 0.3002
C10 C 0.02263(13) -0.04214(8) 0.11515(7)
H6 H -0.0607 -0.0702 0.0899
C11 C 0.30692(13) 0.12310(8) 0.01961(7)
H7 H 0.2102 0.1084 0.0196
C12 C 0.26463(12) 0.04004(8) 0.18825(6)
H8 H 0.3484 0.0677 0.2135
C13 C 0.14899(12) 0.09098(7) 0.15427(6)
C14 C 0.37121(14) 0.71825(8) 0.21167(8)
H9 H 0.3578 0.7415 0.1589
H10 H 0.4674 0.7317 0.2380
H11 H 0.3016 0.7442 0.2403
C15 C 0.19541(12) 0.18031(7) 0.31396(6)
C16 C -0.06601(13) 0.29350(8) 0.16119(7)
H12 H -0.0494 0.2877 0.2160
C17 C 0.28537(14) 0.14649(8) 0.44683(7)
H13 H 0.3532 0.1552 0.4923
C18 C 0.07787(14) 0.07407(8) 0.38107(7)
H14 H 0.0034 0.0335 0.3815
C19 C 0.08573(13) 0.12102(8) 0.31443(7)
H15 H 0.0168 0.1128 0.2693
C20 C 0.25992(13) -0.04910(8) 0.18595(7)
H16 H 0.3395 -0.0818 0.2095
C21 C 0.59095(14) 0.16394(8) 0.02068(8)
H17 H 0.6883 0.1774 0.0212
C22 C 0.26061(12) 0.49036(8) 0.25718(7)
H18 H 0.2101 0.4626 0.2928
C23 C -0.20533(13) 0.35379(8) 0.04656(8)
H19 H -0.2816 0.3889 0.0227
C24 C 0.02804(12) 0.04741(8) 0.11779(7)
H20 H -0.0521 0.0797 0.0943
C25 C 0.13810(14) -0.09066(8) 0.14906(7)
H21 H 0.1342 -0.1518 0.1472
C26 C 0.02319(12) 0.24991(7) 0.11770(7)
C27 C 0.38148(14) 0.08597(8) -0.03372(7)
H22 H 0.3351 0.0462 -0.0708
C28 C -0.12029(13) 0.31093(8) 0.00166(7)
H23 H -0.1388 0.3162 -0.0532
C29 C 0.38576(13) 0.48445(8) 0.14870(7)
H24 H 0.4228 0.4525 0.1101
C30 C 0.17822(15) 0.08609(8) 0.44715(7)
H25 H 0.1735 0.0531 0.4924
C31 C -0.17805(13) 0.34493(8) 0.12648(8)
H26 H -0.2359 0.3740 0.1576
C32 C 0.52315(15) 0.10626(8) -0.03348(8)
H27 H 0.5735 0.0807 -0.0703
B1 B 0.15876(13) 0.19413(8) 0.15776(7)
loop_
_geom_bond_atom_site_label_1
_geom_bond_atom_site_label_2
_geom_bond_site_symmetry_1
_geom_bond_site_symmetry_2
N1 N3 1_555 1_555
N2 N4 1_555 1_555
N3 C4 1_555 1_555
N4 C15 1_555 1_555
C1 C6 1_555 1_555
C2 C7 1_555 1_555
C3 H1 1_555 1_555
C4 C5 1_555 1_555
C5 H2 1_555 1_555
C6 H3 1_555 1_555
C7 N1 1_555 1_555
C8 H4 1_555 1_555
C9 C1 1_555 1_555
H5 C9 1_555 1_555
C10 H6 1_555 1_555
C11 C4 1_555 1_555
H7 C11 1_555 1_555
C12 H8 1_555 1_555
C13 C12 1_555 1_555
C14 C1 1_555 1_555
H9 C14 1_555 1_555
H10 C14 1_555 1_555
H11 C14 1_555 1_555
C15 C8 1_555 1_555
C16 H12 1_555 1_555
C17 C8 1_555 1_555
H13 C17 1_555 1_555
C18 H14 1_555 1_555
C19 C15 1_555 1_555
H15 C19 1_555 1_555
C20 C12 1_555 1_555
H16 C20 1_555 1_555
C21 C5 1_555 1_555
H17 C21 1_555 1_555
C22 C2 1_555 1_555
H18 C22 1_555 1_555
C23 H19 1_555 1_555
C24 C10 1_555 1_555
H20 C24 1_555 1_555
C25 C10 1_555 1_555
H21 C25 1_555 1_555
C26 C3 1_555 1_555
C27 C11 1_555 1_555
H22 C27 1_555 1_555
C28 C3 1_555 1_555
H23 C28 1_555 1_555
C29 C2 1_555 1_555
H24 C29 1_555 1_555
C30 C17 1_555 1_555
H25 C30 1_555 1_555
C31 C16 1_555 1_555
H26 C31 1_555 1_555
C32 C21 1_555 1_555
H27 C32 1_555 1_555
B1 N3 1_555 1_555
N2 C7 1_555 1_555
N4 B1 1_555 1_555
C6 C29 1_555 1_555
C9 C22 1_555 1_555
C13 C24 1_555 1_555
C13 B1 1_555 1_555
C16 C26 1_555 1_555
C18 C19 1_555 1_555
C18 C30 1_555 1_555
C20 C25 1_555 1_555
C23 C28 1_555 1_555
C23 C31 1_555 1_555
C26 B1 1_555 1_555
C27 C32 1_555 1_555

#END
