
#######################################################################
#
#                 Cambridge Crystallographic Data Centre
#                                CCDC 
#
#######################################################################
#
# If this CIF has been generated from an entry in the Cambridge 
# Structural Database, then it will include bibliographic, chemical, 
# crystal, experimental, refinement or atomic coordinate data resulting 
# from the CCDC's data processing and validation procedures.
#
#######################################################################

data_OBICIO
_chemical_formula_moiety         'C4 H8 O1,C56 H75 B1 N4 Na2 O6'
_chemical_name_systematic        
(\m-(2-{(4-methylphenyl)[phenyldiazenyl]methylidene}-1-phenylhydrazinyl)(diphenyl)borate)-hexakis(tetrahydrofuran)-di-sodium(i)
_symmetry_cell_setting           triclinic
_symmetry_space_group_name_H-M   'P -1'
_symmetry_Int_Tables_number      2
_space_group_name_Hall           '-P 1'
loop_
_symmetry_equiv_pos_site_id
_symmetry_equiv_pos_as_xyz
1 x,y,z
2 -x,-y,-z
_cell_length_a                   11.0324(4)
_cell_length_b                   12.8217(5)
_cell_length_c                   20.6913(8)
_cell_angle_alpha                78.4851(12)
_cell_angle_beta                 84.7390(17)
_cell_angle_gamma                79.0342(14)
_cell_volume                     2811.2
_exptl_crystal_colour            orange
_exptl_crystal_description       block
_cell_formula_units_Z            2
loop_
_atom_site_label
_atom_site_type_symbol
_atom_site_fract_x
_atom_site_fract_y
_atom_site_fract_z
Na1 Na 0.20314(9) 0.72558(8) 0.34808(5)
Na2 Na -0.19997(9) 1.10639(8) 0.19370(5)
B1 B 0.1687(2) 1.0176(2) 0.22859(13)
N1 N -0.05633(17) 1.03215(15) 0.27776(10)
N2 N 0.06853(17) 0.85425(15) 0.27815(9)
N3 N 0.15044(17) 0.89909(15) 0.22717(9)
N4 N 0.03347(17) 1.08452(15) 0.23564(9)
C1 C -0.1185(2) 0.76544(19) 0.35817(12)
H1 H -0.0611 0.7195 0.3346
C2 C -0.2057(2) 0.9416(2) 0.37968(12)
H2 H -0.2088 1.0176 0.3710
C3 C -0.1184(2) 0.87664(19) 0.34474(11)
C4 C 0.2390(2) 1.06431(17) 0.15934(11)
C5 C -0.0261(2) 0.92567(18) 0.29548(11)
C6 C 0.2218(2) 0.82004(18) 0.19679(11)
C7 C 0.3557(2) 1.09401(19) 0.15440(13)
H3 H 0.3922 1.0973 0.1936
C8 C -0.2879(2) 0.8965(2) 0.42694(12)
H4 H -0.3460 0.9424 0.4503
C9 C 0.0040(2) 1.19540(18) 0.23180(11)
C10 C -0.2014(2) 0.7213(2) 0.40544(13)
H5 H -0.1995 0.6454 0.4137
C11 C 0.1845(2) 0.71835(19) 0.20153(11)
H6 H 0.1107 0.7052 0.2266
C12 C 0.3552(2) 0.9427(2) 0.30617(12)
H7 H 0.3891 0.8995 0.2743
C13 C 0.2528(2) 0.63799(19) 0.17065(12)
H8 H 0.2236 0.5718 0.1746
C14 C 0.2417(2) 1.01228(18) 0.29493(11)
C15 C -0.1069(2) 1.2446(2) 0.26255(12)
H9 H -0.1592 1.2000 0.2890
C16 C 0.0797(2) 1.26817(19) 0.19639(12)
H10 H 0.1576 1.2400 0.1772
C17 C 0.3357(2) 0.83113(19) 0.16024(12)
H11 H 0.3673 0.8961 0.1567
C18 C 0.3625(2) 0.6512(2) 0.13405(12)
H12 H 0.4089 0.5958 0.1130
C19 C 0.1870(2) 1.06626(19) 0.09968(12)
H13 H 0.1061 1.0504 0.1008
C20 C -0.3785(2) 0.7377(2) 0.49213(14)
H14 H -0.4584 0.7469 0.4727
H15 H -0.3888 0.7748 0.5299
H16 H -0.3473 0.6606 0.5070
C21 C -0.0679(3) 1.4252(2) 0.21764(14)
H17 H -0.0928 1.5014 0.2118
C22 C 0.1955(2) 1.07221(19) 0.34440(12)
H18 H 0.1182 1.1197 0.3394
C23 C 0.4015(2) 0.7495(2) 0.12972(12)
H19 H 0.4761 0.7610 0.1048
C24 C -0.2874(2) 0.7856(2) 0.44095(12)
C25 C 0.3723(2) 0.9961(2) 0.40943(12)
H20 H 0.4166 0.9916 0.4474
C26 C -0.1405(2) 1.3561(2) 0.25478(14)
H21 H -0.2159 1.3858 0.2757
C27 C 0.0432(2) 1.3788(2) 0.18912(13)
H22 H 0.0955 1.4247 0.1639
C28 C 0.2595(2) 1.0643(2) 0.40070(12)
H23 H 0.2254 1.1061 0.4333
C29 C 0.4196(3) 1.1189(2) 0.09393(14)
H24 H 0.4989 1.1383 0.0923
C30 C 0.4200(2) 0.9342(2) 0.36201(13)
H25 H 0.4969 0.8862 0.3677
C31 C 0.2506(3) 1.0907(2) 0.03903(13)
H26 H 0.2134 1.0905 -0.0006
C32 C 0.3680(3) 1.1155(2) 0.03610(14)
H27 H 0.4127 1.1300 -0.0052
O1 O 0.41120(17) 0.64176(14) 0.35892(9)
O2 O 0.15075(17) 0.55181(14) 0.36764(9)
O3 O 0.15830(16) 0.74712(14) 0.45799(9)
O4 O -0.39670(17) 1.19555(15) 0.21796(9)
O5 O -0.23106(17) 0.95077(16) 0.16529(10)
O6 O -0.1956(2) 1.19446(17) 0.08689(9)
C33 C -0.1324(3) 1.1607(2) -0.01807(13)
H28 H -0.1607 1.1711 -0.0633
H29 H -0.0728 1.0919 -0.0090
C34 C -0.1213(2) 0.8792(2) 0.14701(13)
H30 H -0.0503 0.8847 0.1714
H31 H -0.1001 0.8973 0.0990
C35 C -0.4366(3) 1.3047(2) 0.18431(15)
H32 H -0.4308 1.3088 0.1359
H33 H -0.3855 1.3538 0.1952
C36 C -0.5690(3) 1.3343(2) 0.20889(18)
H34 H -0.6262 1.3159 0.1805
H35 H -0.5905 1.4125 0.2101
C37 C -0.4540(3) 1.1878(3) 0.28289(15)
H36 H -0.4002 1.2060 0.3132
H37 H -0.4696 1.1134 0.2999
C38 C -0.2400(3) 1.1620(3) 0.03242(14)
H38 H -0.3130 1.2142 0.0148
H39 H -0.2628 1.0894 0.0458
C39 C -0.1256(4) 1.2766(3) 0.05827(17)
H40 H -0.0568 1.2744 0.0863
H41 H -0.1788 1.3488 0.0544
C40 C -0.0753(3) 1.2560(2) -0.00913(15)
H42 H 0.0161 1.2374 -0.0109
H43 H -0.1007 1.3201 -0.0437
C41 C -0.5746(3) 1.2672(3) 0.27787(19)
H44 H -0.5827 1.3135 0.3115
H45 H -0.6458 1.2287 0.2843
C42 C -0.2866(7) 0.7869(6) 0.1647(4)
H46 H -0.3209 0.7263 0.1930
H47 H -0.3139 0.7964 0.1193
C43 C -0.3254(3) 0.8892(3) 0.1918(2)
H48 H -0.3961 0.9092 0.1628
H49 H -0.3556 0.9037 0.2362
C44 C -0.1520(3) 0.7677(3) 0.1651(2)
H50 H -0.1482 0.7362 0.1249
H51 H -0.0910 0.7208 0.1954
C45 C 0.0710(2) 0.8390(2) 0.47403(13)
H52 H -0.0148 0.8260 0.4747
H53 H 0.0798 0.9050 0.4410
C46 C 0.0893(3) 0.5094(2) 0.42882(13)
H54 H 0.0265 0.5667 0.4442
H55 H 0.1496 0.4798 0.4634
C47 C 0.1176(3) 0.3776(2) 0.36140(14)
H56 H 0.1904 0.3276 0.3809
H57 H 0.0767 0.3404 0.3343
C48 C 0.1528(3) 0.4811(2) 0.32148(14)
H58 H 0.2364 0.4664 0.2997
H59 H 0.0930 0.5142 0.2871
C49 C 0.5040(3) 0.6636(2) 0.30732(15)
H60 H 0.5570 0.7101 0.3194
H61 H 0.4653 0.7005 0.2656
C50 C 0.0284(3) 0.4207(2) 0.41426(15)
H62 H -0.0549 0.4500 0.3975
H63 H 0.0217 0.3639 0.4540
C51 C 0.1008(3) 0.8516(3) 0.54159(17)
H64 H 0.0913 0.9290 0.5443
H65 H 0.0457 0.8168 0.5764
C52 C 0.2535(3) 0.7176(3) 0.50403(15)
H66 H 0.3355 0.7185 0.4803
H67 H 0.2520 0.6438 0.5297
C53 C 0.4479(3) 0.5343(2) 0.39574(16)
H68 H 0.3849 0.4895 0.3939
H69 H 0.4569 0.5368 0.4426
C54 C 0.2306(3) 0.7975(3) 0.54917(17)
H70 H 0.2434 0.7604 0.5954
H71 H 0.2871 0.8506 0.5367
C55 C 0.5787(4) 0.5550(3) 0.2999(2)
H72 H 0.5451 0.5248 0.2663
H73 H 0.6663 0.5603 0.2871
C56 C 0.5664(4) 0.4884(3) 0.3657(2)
H74 H 0.5672 0.4124 0.3623
H75 H 0.6353 0.4906 0.3926
O7 O 0.6239(2) 0.51153(19) 0.05303(11)
C58 C 0.7107(3) 0.5447(3) 0.08728(17)
H78 H 0.7500 0.4832 0.1201
H79 H 0.6694 0.6031 0.1108
C59 C 0.6198(4) 0.5808(3) -0.01078(17)
H80 H 0.5700 0.6530 -0.0084
H81 H 0.5847 0.5489 -0.0430
C60 C 0.7542(4) 0.5880(3) -0.0291(2)
H82 H 0.7963 0.5261 -0.0495
H83 H 0.7625 0.6562 -0.0601
C61 C 0.8062(4) 0.5847(3) 0.0364(2)
H84 H 0.8866 0.5349 0.0411
H85 H 0.8179 0.6576 0.0408
C57? C -0.2708(12) 0.7731(9) 0.1958(6)
H76? H -0.2666 0.7360 0.2425
H77? H -0.3222 0.7375 0.1732
loop_
_geom_bond_atom_site_label_1
_geom_bond_atom_site_label_2
_geom_bond_site_symmetry_1
_geom_bond_site_symmetry_2
Na1 N2 1_555 1_555
Na2 N1 1_555 1_555
B1 N3 1_555 1_555
N1 N4 1_555 1_555
N2 N3 1_555 1_555
N3 Na1 1_555 1_555
N4 B1 1_555 1_555
C1 H1 1_555 1_555
C2 H2 1_555 1_555
C3 C1 1_555 1_555
C4 B1 1_555 1_555
C5 N1 1_555 1_555
C6 N3 1_555 1_555
C7 C4 1_555 1_555
H3 C7 1_555 1_555
C8 C2 1_555 1_555
H4 C8 1_555 1_555
C9 Na2 1_555 1_555
C10 C1 1_555 1_555
H5 C10 1_555 1_555
C11 C6 1_555 1_555
H6 C11 1_555 1_555
C12 H7 1_555 1_555
C13 C11 1_555 1_555
H8 C13 1_555 1_555
C14 B1 1_555 1_555
C15 Na2 1_555 1_555
H9 C15 1_555 1_555
C16 C9 1_555 1_555
H10 C16 1_555 1_555
C17 C6 1_555 1_555
H11 C17 1_555 1_555
C18 C13 1_555 1_555
H12 C18 1_555 1_555
C19 C4 1_555 1_555
H13 C19 1_555 1_555
C20 H14 1_555 1_555
H15 C20 1_555 1_555
H16 C20 1_555 1_555
C21 H17 1_555 1_555
C22 C14 1_555 1_555
H18 C22 1_555 1_555
C23 C17 1_555 1_555
H19 C23 1_555 1_555
C24 C8 1_555 1_555
C25 H20 1_555 1_555
C26 C15 1_555 1_555
H21 C26 1_555 1_555
C27 C16 1_555 1_555
H22 C27 1_555 1_555
C28 C22 1_555 1_555
H23 C28 1_555 1_555
C29 C7 1_555 1_555
H24 C29 1_555 1_555
C30 C12 1_555 1_555
H25 C30 1_555 1_555
C31 C19 1_555 1_555
H26 C31 1_555 1_555
C32 C29 1_555 1_555
H27 C32 1_555 1_555
O1 Na1 1_555 1_555
O2 Na1 1_555 1_555
O3 Na1 1_555 1_555
O4 Na2 1_555 1_555
O5 Na2 1_555 1_555
O6 Na2 1_555 1_555
C33 H28 1_555 1_555
H29 C33 1_555 1_555
C34 O5 1_555 1_555
H30 C34 1_555 1_555
H31 C34 1_555 1_555
C35 O4 1_555 1_555
H32 C35 1_555 1_555
H33 C35 1_555 1_555
C36 C35 1_555 1_555
H34 C36 1_555 1_555
H35 C36 1_555 1_555
C37 O4 1_555 1_555
H36 C37 1_555 1_555
H37 C37 1_555 1_555
C38 O6 1_555 1_555
H38 C38 1_555 1_555
H39 C38 1_555 1_555
C39 O6 1_555 1_555
H40 C39 1_555 1_555
H41 C39 1_555 1_555
C40 C33 1_555 1_555
H42 C40 1_555 1_555
H43 C40 1_555 1_555
C41 C36 1_555 1_555
H44 C41 1_555 1_555
H45 C41 1_555 1_555
C42 H46 1_555 1_555
H47 C42 1_555 1_555
C43 O5 1_555 1_555
H48 C43 1_555 1_555
H49 C43 1_555 1_555
C44 C34 1_555 1_555
H50 C44 1_555 1_555
H51 C44 1_555 1_555
C45 O3 1_555 1_555
H52 C45 1_555 1_555
H53 C45 1_555 1_555
C46 O2 1_555 1_555
H54 C46 1_555 1_555
H55 C46 1_555 1_555
C47 H56 1_555 1_555
H57 C47 1_555 1_555
C48 O2 1_555 1_555
H58 C48 1_555 1_555
H59 C48 1_555 1_555
C49 O1 1_555 1_555
H60 C49 1_555 1_555
H61 C49 1_555 1_555
C50 C46 1_555 1_555
H62 C50 1_555 1_555
H63 C50 1_555 1_555
C51 C45 1_555 1_555
H64 C51 1_555 1_555
H65 C51 1_555 1_555
C52 O3 1_555 1_555
H66 C52 1_555 1_555
H67 C52 1_555 1_555
C53 O1 1_555 1_555
H68 C53 1_555 1_555
H69 C53 1_555 1_555
C54 C51 1_555 1_555
H70 C54 1_555 1_555
H71 C54 1_555 1_555
C55 C49 1_555 1_555
H72 C55 1_555 1_555
H73 C55 1_555 1_555
C56 C53 1_555 1_555
H74 C56 1_555 1_555
H75 C56 1_555 1_555
O7 C58 1_555 1_555
C58 H78 1_555 1_555
H79 C58 1_555 1_555
C59 O7 1_555 1_555
H80 C59 1_555 1_555
H81 C59 1_555 1_555
C60 C59 1_555 1_555
H82 C60 1_555 1_555
H83 C60 1_555 1_555
C61 C58 1_555 1_555
H84 C61 1_555 1_555
H85 C61 1_555 1_555
N2 C5 1_555 1_555
N4 C9 1_555 1_555
C2 C3 1_555 1_555
C3 C5 1_555 1_555
C9 C15 1_555 1_555
C10 C24 1_555 1_555
C12 C14 1_555 1_555
C18 C23 1_555 1_555
C20 C24 1_555 1_555
C21 C26 1_555 1_555
C21 C27 1_555 1_555
C25 C28 1_555 1_555
C25 C30 1_555 1_555
C31 C32 1_555 1_555
C33 C38 1_555 1_555
C37 C41 1_555 1_555
C39 C40 1_555 1_555
C42 C43 1_555 1_555
C42 C44 1_555 1_555
C47 C48 1_555 1_555
C47 C50 1_555 1_555
C52 C54 1_555 1_555
C55 C56 1_555 1_555
C60 C61 1_555 1_555

#END
