
#######################################################################
#
#                 Cambridge Crystallographic Data Centre
#                                CCDC 
#
#######################################################################
#
# If this CIF has been generated from an entry in the Cambridge 
# Structural Database, then it will include bibliographic, chemical, 
# crystal, experimental, refinement or atomic coordinate data resulting 
# from the CCDC's data processing and validation procedures.
#
#######################################################################

data_OBINUL
_chemical_formula_moiety         'C20 H12 N2 O1'
_chemical_name_systematic        4-phenyl-6H-2,10c-diazaaceanthrylen-6-one
_symmetry_cell_setting           monoclinic
_symmetry_space_group_name_H-M   'P 21/n'
_symmetry_Int_Tables_number      14
_space_group_name_Hall           '-P 2yn'
loop_
_symmetry_equiv_pos_site_id
_symmetry_equiv_pos_as_xyz
1 x,y,z
2 1/2-x,1/2+y,1/2-z
3 -x,-y,-z
4 1/2+x,1/2-y,1/2+z
_cell_length_a                   4.96550(12)
_cell_length_b                   18.5248(5)
_cell_length_c                   15.4259(4)
_cell_angle_alpha                90
_cell_angle_beta                 95.862(2)
_cell_angle_gamma                90
_cell_volume                     1411.53
_exptl_crystal_colour            orange
_exptl_crystal_description       needle
_cell_formula_units_Z            4
loop_
_atom_site_label
_atom_site_type_symbol
_atom_site_fract_x
_atom_site_fract_y
_atom_site_fract_z
C1 C -0.6260(3) 0.21529(9) 0.87911(12)
H1 H -0.6782 0.1993 0.8228
C2 C -0.7530(4) 0.18875(10) 0.94717(13)
H2 H -0.8913 0.1550 0.9367
C3 C -0.6755(4) 0.21214(10) 1.03216(13)
H3 H -0.7623 0.1937 1.0781
C4 C -0.4734(4) 0.26181(10) 1.04837(12)
H4 H -0.4222 0.2767 1.1052
C5 C -0.3431(3) 0.29037(8) 0.97963(10)
C6 C -0.4177(3) 0.26647(8) 0.89362(10)
C7 C -0.2843(3) 0.29345(8) 0.81870(10)
C8 C -0.0745(3) 0.34929(8) 0.83717(10)
C9 C 0.0699(3) 0.38249(9) 0.77753(10)
H5 H 0.0363 0.3701 0.7190
C10 C 0.2695(3) 0.43520(8) 0.80274(10)
C11 C 0.3230(3) 0.45226(9) 0.89052(11)
H6 H 0.4572 0.4857 0.9083
C12 C 0.1766(3) 0.41952(8) 0.95192(11)
C13 C -0.1353(3) 0.34414(9) 0.99379(10)
C14 C -0.0020(4) 0.38111(10) 1.06353(11)
H7 H -0.0396 0.3752 1.1209
C15 C 0.4261(3) 0.47060(9) 0.73772(10)
C16 C 0.5421(4) 0.53857(10) 0.75527(12)
H8 H 0.5100 0.5626 0.8061
C17 C 0.7040(4) 0.57066(11) 0.69820(13)
H9 H 0.7809 0.6156 0.7112
C18 C 0.7511(4) 0.53620(12) 0.62242(13)
H10 H 0.8622 0.5573 0.5845
C19 C 0.6325(4) 0.47017(11) 0.60310(13)
H11 H 0.6614 0.4471 0.5513
C20 C 0.4708(4) 0.43778(10) 0.65977(11)
H12 H 0.3911 0.3934 0.6454
N1 N -0.0197(3) 0.36931(7) 0.92307(8)
N2 N 0.1883(3) 0.42652(8) 1.03897(9)
O1 O -0.3397(3) 0.27075(7) 0.74399(8)
loop_
_geom_bond_atom_site_label_1
_geom_bond_atom_site_label_2
_geom_bond_site_symmetry_1
_geom_bond_site_symmetry_2
C1 H1 1_555 1_555
C2 C1 1_555 1_555
H2 C2 1_555 1_555
C3 C2 1_555 1_555
H3 C3 1_555 1_555
C4 C3 1_555 1_555
H4 C4 1_555 1_555
C5 C4 1_555 1_555
C6 C1 1_555 1_555
C7 C6 1_555 1_555
C8 C7 1_555 1_555
C9 C8 1_555 1_555
H5 C9 1_555 1_555
C10 C9 1_555 1_555
C11 C10 1_555 1_555
H6 C11 1_555 1_555
C12 C11 1_555 1_555
C13 C5 1_555 1_555
C14 C13 1_555 1_555
H7 C14 1_555 1_555
C15 C10 1_555 1_555
C16 C15 1_555 1_555
H8 C16 1_555 1_555
C17 C16 1_555 1_555
H9 C17 1_555 1_555
C18 C17 1_555 1_555
H10 C18 1_555 1_555
C19 C18 1_555 1_555
H11 C19 1_555 1_555
C20 C15 1_555 1_555
H12 C20 1_555 1_555
N1 C8 1_555 1_555
N2 C12 1_555 1_555
O1 C7 1_555 1_555
C5 C6 1_555 1_555
C12 N1 1_555 1_555
C13 N1 1_555 1_555
C14 N2 1_555 1_555
C19 C20 1_555 1_555

#END
