
#######################################################################
#
#                 Cambridge Crystallographic Data Centre
#                                CCDC 
#
#######################################################################
#
# If this CIF has been generated from an entry in the Cambridge 
# Structural Database, then it will include bibliographic, chemical, 
# crystal, experimental, refinement or atomic coordinate data resulting 
# from the CCDC's data processing and validation procedures.
#
#######################################################################

data_OBIPUK
_chemical_formula_moiety         
'C48 H48 N32 O16,C19 H17 N2 O2 1+,C10 H8 O2,0.5(O4 S1 2-),25.5(H2 O1)'
_chemical_name_systematic        
"Cucurbit(8)uril N-methyl-N'-(4-carboxybenzyl)-4,4'-bipyridinium 2,6-dihydroxynaphthalene hemisulfate hydrate clathrate"
_symmetry_cell_setting           monoclinic
_symmetry_space_group_name_H-M   'P 21/c'
_symmetry_Int_Tables_number      14
_space_group_name_Hall           '-P 2ybc'
loop_
_symmetry_equiv_pos_site_id
_symmetry_equiv_pos_as_xyz
1 x,y,z
2 x,1/2-y,1/2+z
3 -x,-y,-z
4 -x,1/2+y,1/2-z
_cell_length_a                   15.1505(5)
_cell_length_b                   20.7282(6)
_cell_length_c                   33.4305(11)
_cell_angle_alpha                90
_cell_angle_beta                 100.74
_cell_angle_gamma                90
_cell_volume                     10314.7
_exptl_crystal_colour            violet
_exptl_crystal_description       block
_cell_formula_units_Z            4
loop_
_atom_site_label
_atom_site_type_symbol
_atom_site_fract_x
_atom_site_fract_y
_atom_site_fract_z
O1 O 0.2301(3) 0.2733(2) 0.17051(14)
O2 O 0.3453(3) 0.1581(2) 0.24793(13)
O3 O 0.2947(3) 0.0929(2) 0.34693(13)
O4 O 0.0968(3) 0.1463(2) 0.39309(13)
O5 O -0.1209(3) 0.2638(3) 0.36683(15)
O6 O -0.2472(3) 0.3818(2) 0.28988(14)
O7 O -0.1965(3) 0.4337(2) 0.19416(15)
O8 O 0.0092(3) 0.3828(2) 0.14170(18)
O9 O 0.4594(3) 0.4995(2) 0.24243(14)
O10 O 0.5658(3) 0.3883(2) 0.32845(14)
O11 O 0.4905(3) 0.3346(3) 0.43115(15)
O12 O 0.3023(3) 0.3692(2) 0.49005(14)
O13 O 0.0861(3) 0.4801(2) 0.46649(14)
O14 O -0.0199(3) 0.5939(2) 0.38318(13)
O15 O 0.0472(3) 0.6427(2) 0.28718(13)
O16 O 0.2440(3) 0.6029(2) 0.22908(14)
N1 N 0.2723(3) 0.3765(3) 0.15533(17)
N2 N 0.3777(3) 0.3063(2) 0.18261(15)
N3 N 0.4454(3) 0.2381(3) 0.23866(15)
N4 N 0.4702(3) 0.1827(3) 0.29669(14)
N5 N 0.4290(3) 0.1492(3) 0.36008(14)
N6 N 0.3481(3) 0.1419(3) 0.40859(15)
N7 N 0.2238(3) 0.1697(3) 0.44107(15)
N8 N 0.0951(3) 0.2193(3) 0.44451(15)
N9 N -0.0359(3) 0.2875(3) 0.43025(16)
N10 N -0.1398(3) 0.3582(3) 0.40137(16)
N11 N -0.2183(4) 0.4334(3) 0.35210(15)
N12 N -0.2409(4) 0.4928(2) 0.29583(15)
N13 N -0.1961(3) 0.5257(3) 0.23284(15)
N14 N -0.1099(3) 0.5225(2) 0.18615(14)
N15 N 0.0149(3) 0.4920(2) 0.15426(15)
N16 N 0.1373(3) 0.4424(3) 0.14182(17)
N17 N 0.3684(3) 0.4672(3) 0.18268(16)
N18 N 0.4651(3) 0.3968(3) 0.21613(15)
N19 N 0.5397(3) 0.3269(3) 0.26986(15)
N20 N 0.5496(3) 0.2773(3) 0.32939(15)
N21 N 0.5063(3) 0.2446(3) 0.39282(15)
N22 N 0.4239(3) 0.2376(3) 0.44134(15)
N23 N 0.3046(3) 0.2595(3) 0.47891(15)
N24 N 0.1761(3) 0.3052(2) 0.48607(15)
N25 N 0.0443(3) 0.3733(3) 0.47067(15)
N26 N -0.0576(3) 0.4441(3) 0.44138(15)
N27 N -0.1286(3) 0.5185(3) 0.38968(15)
N28 N -0.1437(3) 0.5758(3) 0.33265(14)
N29 N -0.1001(3) 0.6084(2) 0.26986(14)
N30 N -0.0130(3) 0.6052(2) 0.22271(16)
N31 N 0.1079(3) 0.5792(2) 0.18787(16)
N32 N 0.2306(3) 0.5292(2) 0.17637(16)
C1 C 0.2870(4) 0.3151(3) 0.16928(18)
C2 C 0.4170(4) 0.2445(3) 0.19530(17)
H1 H 0.3731 0.2107 0.1857
H2 H 0.4690 0.2376 0.1822
C3 C 0.4124(4) 0.1902(3) 0.25935(18)
C4 C 0.4607(5) 0.1301(3) 0.32344(19)
H3 H 0.5190 0.1087 0.3313
H4 H 0.4185 0.0987 0.3086
C5 C 0.3517(4) 0.1251(3) 0.36982(18)
C6 C 0.2798(4) 0.1188(3) 0.4302(2)
H5 H 0.2419 0.0872 0.4132
H6 H 0.3092 0.0966 0.4551
C7 C 0.1347(4) 0.1756(3) 0.42347(18)
C8 C -0.0015(4) 0.2227(3) 0.4402(2)
H7 H -0.0188 0.2088 0.4657
H8 H -0.0291 0.1929 0.4187
C9 C -0.1014(4) 0.2988(3) 0.3962(2)
C10 C -0.2251(4) 0.3772(4) 0.3764(2)
H9 H -0.2483 0.3413 0.3584
H10 H -0.2684 0.3856 0.3942
C11 C -0.2369(4) 0.4315(3) 0.31027(18)
C12 C -0.2689(4) 0.5074(3) 0.25270(17)
H11 H -0.2988 0.4694 0.2389
H12 H -0.3129 0.5426 0.2497
C13 C -0.1700(4) 0.4880(3) 0.20333(18)
C14 C -0.0818(4) 0.5019(3) 0.14883(18)
H13 H -0.0999 0.5346 0.1277
H14 H -0.1126 0.4616 0.1394
C15 C 0.0494(4) 0.4337(3) 0.14511(19)
C16 C 0.1900(4) 0.3932(3) 0.1268(2)
H15 H 0.2061 0.4082 0.1013
H16 H 0.1532 0.3543 0.1207
C17 C 0.3556(4) 0.4118(3) 0.15604(19)
H17 H 0.3646 0.4227 0.1283
C18 C 0.4292(4) 0.3639(3) 0.17787(18)
H18 H 0.4762 0.3556 0.1615
C19 C 0.5349(4) 0.2595(3) 0.25902(18)
H19 H 0.5820 0.2473 0.2435
C20 C 0.5473(4) 0.2246(3) 0.30058(19)
H20 H 0.6040 0.1996 0.3059
C21 C 0.4877(4) 0.1760(3) 0.39506(18)
H21 H 0.5440 0.1508 0.4020
C22 C 0.4313(4) 0.1713(3) 0.42926(18)
H22 H 0.4616 0.1444 0.4522
C23 C 0.2449(4) 0.2046(3) 0.47885(17)
H23 H 0.2665 0.1753 0.5020
C24 C 0.1546(4) 0.2376(3) 0.48314(18)
H24 H 0.1317 0.2218 0.5072
C25 C -0.0371(4) 0.3355(3) 0.46146(19)
H25 H -0.0530 0.3164 0.4863
C26 C -0.1084(4) 0.3849(3) 0.44133(18)
H26 H -0.1577 0.3895 0.4568
C27 C -0.2158(4) 0.4989(3) 0.36706(18)
H27 H -0.2641 0.5069 0.3828
C28 C -0.2284(4) 0.5404(3) 0.32805(18)
H28 H -0.2807 0.5697 0.3259
C29 C -0.1628(4) 0.5907(3) 0.23268(17)
H29 H -0.2121 0.6225 0.2258
C30 C -0.1023(4) 0.5888(3) 0.20010(17)
H30 H -0.1228 0.6195 0.1777
C31 C 0.0756(4) 0.5448(3) 0.15054(18)
H31 H 0.0502 0.5744 0.1281
C32 C 0.1607(4) 0.5096(3) 0.14205(19)
H32 H 0.1757 0.5231 0.1157
C33 C 0.4336(4) 0.4587(3) 0.21680(19)
C34 C 0.5495(4) 0.3779(3) 0.24180(19)
H33 H 0.5912 0.3638 0.2244
H34 H 0.5759 0.4156 0.2572
C35 C 0.5525(4) 0.3356(3) 0.3111(2)
C36 C 0.5757(4) 0.2690(4) 0.37338(18)
H35 H 0.6270 0.2394 0.3789
H36 H 0.5957 0.3107 0.3856
C37 C 0.4748(4) 0.2776(3) 0.42284(19)
C38 C 0.4008(4) 0.2531(4) 0.48053(18)
H37 H 0.4242 0.2193 0.5001
H38 H 0.4302 0.2937 0.4904
C39 C 0.2653(4) 0.3161(3) 0.48526(17)
C40 C 0.1208(4) 0.3522(3) 0.50151(19)
H39 H 0.1577 0.3898 0.5114
H40 H 0.0983 0.3336 0.5246
C41 C 0.0302(4) 0.4369(3) 0.46074(18)
C42 C -0.1000(5) 0.5064(3) 0.43277(18)
H41 H -0.0576 0.5401 0.4444
H42 H -0.1523 0.5090 0.4461
C43 C -0.0905(4) 0.5663(3) 0.36969(18)
C44 C -0.1299(5) 0.6291(3) 0.30653(19)
H43 H -0.0851 0.6585 0.3217
H44 H -0.1863 0.6531 0.2989
C45 C -0.0162(4) 0.6214(3) 0.26252(18)
C46 C 0.0556(4) 0.6306(3) 0.2023(2)
H45 H 0.0960 0.6585 0.2211
H46 H 0.0273 0.6570 0.1791
C47 C 0.1986(4) 0.5736(3) 0.20030(19)
C48 C 0.3247(4) 0.5288(3) 0.1727(2)
H47 H 0.3292 0.5404 0.1448
H48 H 0.3565 0.5619 0.1908
O17 O 0.7811(3) 0.7505(3) 0.41985(14)
O18 O 0.7740(4) 0.6465(3) 0.40252(18)
N33 N 0.2999(5) 0.6604(4) 0.3918(3)
N34 N 0.0194(4) 0.4172(4) 0.2932(2)
C49 C 0.7372(5) 0.6957(4) 0.41008(19)
C50 C 0.6388(5) 0.7014(3) 0.40976(19)
C51 C 0.5980(5) 0.7596(4) 0.4134(2)
H49 H 0.6325 0.7976 0.4164
C52 C 0.5058(5) 0.7629(4) 0.4128(2)
H50 H 0.4778 0.8031 0.4141
C53 C 0.4555(5) 0.7067(4) 0.4101(3)
C54 C 0.4958(6) 0.6494(5) 0.4059(3)
H51 H 0.4612 0.6114 0.4031
C55 C 0.5873(5) 0.6458(4) 0.4055(3)
H52 H 0.6141 0.6057 0.4024
C56 C 0.3566(6) 0.7134(6) 0.4122(4)
H53 H 0.3504 0.7150 0.4409
H54 H 0.3344 0.7545 0.3996
C57 C 0.2890(6) 0.6544(5) 0.3512(3)
H55 H 0.3179 0.6830 0.3360
C58 C 0.2353(5) 0.6060(4) 0.3321(3)
H56 H 0.2279 0.6020 0.3036
C59 C 0.1918(5) 0.5631(4) 0.3532(2)
C60 C 0.2068(6) 0.5702(4) 0.3951(3)
H57 H 0.1800 0.5415 0.4111
C61 C 0.2608(6) 0.6192(5) 0.4135(3)
H58 H 0.2703 0.6237 0.4419
C62 C 0.1318(5) 0.5119(4) 0.3324(2)
C63 C 0.1270(6) 0.4990(4) 0.2916(3)
H59 H 0.1623 0.5228 0.2765
C64 C 0.0700(7) 0.4509(5) 0.2726(3)
H60 H 0.0675 0.4423 0.2448
C65 C 0.0221(6) 0.4295(5) 0.3325(3)
H61 H -0.0148 0.4055 0.3467
C66 C 0.0766(6) 0.4757(4) 0.3525(3)
H62 H 0.0770 0.4832 0.3802
C67 C -0.0408(6) 0.3665(5) 0.2718(4)
H63 H -0.0344 0.3646 0.2435
H64 H -0.1026 0.3767 0.2733
H65 H -0.0249 0.3251 0.2846
O19 O 0.3991(4) 0.4959(3) 0.40091(18)
O20 O 0.0984(5) 0.2355(3) 0.27614(18)
C68 C 0.3515(5) 0.4518(4) 0.3749(3)
C69 C 0.3623(5) 0.4535(5) 0.3339(3)
H66 H 0.3997 0.4847 0.3253
C70 C 0.3179(6) 0.4095(5) 0.3064(3)
H67 H 0.3258 0.4106 0.2792
C71 C 0.2609(5) 0.3628(4) 0.3186(3)
C72 C 0.2112(6) 0.3178(4) 0.2904(3)
H68 H 0.2204 0.3167 0.2634
C73 C 0.1518(6) 0.2772(4) 0.3023(3)
C74 C 0.1388(9) 0.2774(5) 0.3430(3)
H69 H 0.0962 0.2496 0.3510
C75 C 0.1878(8) 0.3179(5) 0.3707(3)
H70 H 0.1808 0.3161 0.3981
C76 C 0.2482(6) 0.3619(4) 0.3594(2)
C77 C 0.2961(6) 0.4086(4) 0.3870(3)
H71 H 0.2884 0.4088 0.4142
S1 S 0.2371(5) 0.5682(3) 0.03686(16)
O21 O 0.1451(10) 0.5838(10) 0.0415(5)
O22 O 0.2444(12) 0.5760(10) -0.0048(4)
O23 O 0.2466(12) 0.4971(8) 0.0440(5)
O24 O 0.2977(12) 0.6020(9) 0.0645(5)
O25 O 0.4112(4) 0.6378(3) 0.28457(19)
O26 O 0.5774(4) 0.4767(3) 0.38955(17)
O27 O 0.5570(4) 0.5528(3) 0.31415(18)
O28 O 0.0775(4) 0.2852(3) 0.20311(19)
O29 O -0.2433(5) 0.2437(4) 0.2774(4)
O30 O -0.2469(5) 0.1601(3) 0.3650(2)
O31 O 0.9539(5) 0.7591(5) 0.4284(3)
O32 O 0.0929(7) 0.6167(4) 0.4629(2)
O33 O 0.4086(6) -0.0310(5) 0.3430(3)
O34 O 0.4111(8) 0.4752(5) 0.4806(3)
O35 O 0.0728(6) 0.7130(5) 0.3827(4)
O36 O -0.2553(8) 0.3060(5) 0.2067(4)
O37 O 0.1139(7) 0.7685(8) 0.3213(4)
O38 O 0.6117(7) 0.1932(7) 0.4938(5)
O39 O 0.0116(9) 0.5186(8) 0.0582(3)
O40 O 0.1262(9) 0.0814(6) 0.4941(5)
O41 O 0.5198(9) 0.0244(5) 0.4079(3)
O42 O 0.0067(10) 0.1194(5) 0.5303(3)
O43 O -0.2207(10) 0.2539(8) 0.4587(5)
O44 O 0.3250(11) -0.1219(7) 0.3905(5)
O45 O -0.1638(9) 0.3574(9) 0.0845(5)
O46 O 0.6628(15) 0.3473(13) 0.4830(6)
O47 O 0.6965(9) 0.4681(14) 0.4641(4)
O48 O 0.1846(11) 0.7435(11) 0.4614(7)
O49 O -0.3576(15) 0.299(2) 0.1663(13)
O50 O 0.403(2) -0.049(3) 0.4630(9)
O51 O 0.3584(14) 0.4136(7) 0.0430(4)
loop_
_geom_bond_atom_site_label_1
_geom_bond_atom_site_label_2
_geom_bond_site_symmetry_1
_geom_bond_site_symmetry_2
O1 C1 1_555 1_555
O2 C3 1_555 1_555
O3 C5 1_555 1_555
O4 C7 1_555 1_555
O5 C9 1_555 1_555
O6 C11 1_555 1_555
O7 C13 1_555 1_555
O8 C15 1_555 1_555
O9 C33 1_555 1_555
O10 C35 1_555 1_555
O11 C37 1_555 1_555
O12 C39 1_555 1_555
O13 C41 1_555 1_555
O14 C43 1_555 1_555
O15 C45 1_555 1_555
O16 C47 1_555 1_555
N1 C1 1_555 1_555
N2 C1 1_555 1_555
N3 C2 1_555 1_555
N4 C3 1_555 1_555
N5 C4 1_555 1_555
N6 C5 1_555 1_555
N7 C6 1_555 1_555
N8 C7 1_555 1_555
N9 C8 1_555 1_555
N10 C9 1_555 1_555
N11 C10 1_555 1_555
N12 C11 1_555 1_555
N13 C12 1_555 1_555
N14 C13 1_555 1_555
N15 C14 1_555 1_555
N16 C15 1_555 1_555
N17 C17 1_555 1_555
N18 C18 1_555 1_555
N19 C19 1_555 1_555
N20 C20 1_555 1_555
N21 C21 1_555 1_555
N22 C22 1_555 1_555
N23 C23 1_555 1_555
N24 C24 1_555 1_555
N25 C25 1_555 1_555
N26 C26 1_555 1_555
N27 C27 1_555 1_555
N28 C28 1_555 1_555
N29 C29 1_555 1_555
N30 C30 1_555 1_555
N31 C31 1_555 1_555
N32 C32 1_555 1_555
C2 N2 1_555 1_555
H1 C2 1_555 1_555
H2 C2 1_555 1_555
C3 N3 1_555 1_555
C4 N4 1_555 1_555
H3 C4 1_555 1_555
H4 C4 1_555 1_555
C5 N5 1_555 1_555
C6 N6 1_555 1_555
H5 C6 1_555 1_555
H6 C6 1_555 1_555
C7 N7 1_555 1_555
C8 N8 1_555 1_555
H7 C8 1_555 1_555
H8 C8 1_555 1_555
C9 N9 1_555 1_555
C10 N10 1_555 1_555
H9 C10 1_555 1_555
H10 C10 1_555 1_555
C11 N11 1_555 1_555
C12 N12 1_555 1_555
H11 C12 1_555 1_555
H12 C12 1_555 1_555
C13 N13 1_555 1_555
C14 N14 1_555 1_555
H13 C14 1_555 1_555
H14 C14 1_555 1_555
C15 N15 1_555 1_555
C16 N1 1_555 1_555
H15 C16 1_555 1_555
H16 C16 1_555 1_555
C17 N1 1_555 1_555
H17 C17 1_555 1_555
C18 N2 1_555 1_555
H18 C18 1_555 1_555
C19 N3 1_555 1_555
H19 C19 1_555 1_555
C20 N4 1_555 1_555
H20 C20 1_555 1_555
C21 N5 1_555 1_555
H21 C21 1_555 1_555
C22 N6 1_555 1_555
H22 C22 1_555 1_555
C23 N7 1_555 1_555
H23 C23 1_555 1_555
C24 N8 1_555 1_555
H24 C24 1_555 1_555
C25 N9 1_555 1_555
H25 C25 1_555 1_555
C26 N10 1_555 1_555
H26 C26 1_555 1_555
C27 N11 1_555 1_555
H27 C27 1_555 1_555
C28 N12 1_555 1_555
H28 C28 1_555 1_555
C29 N13 1_555 1_555
H29 C29 1_555 1_555
C30 N14 1_555 1_555
H30 C30 1_555 1_555
C31 N15 1_555 1_555
H31 C31 1_555 1_555
C32 N16 1_555 1_555
H32 C32 1_555 1_555
C33 N17 1_555 1_555
C34 N18 1_555 1_555
H33 C34 1_555 1_555
H34 C34 1_555 1_555
C35 N19 1_555 1_555
C36 N20 1_555 1_555
H35 C36 1_555 1_555
H36 C36 1_555 1_555
C37 N21 1_555 1_555
C38 N22 1_555 1_555
H37 C38 1_555 1_555
H38 C38 1_555 1_555
C39 N23 1_555 1_555
C40 N24 1_555 1_555
H39 C40 1_555 1_555
H40 C40 1_555 1_555
C41 N25 1_555 1_555
C42 N26 1_555 1_555
H41 C42 1_555 1_555
H42 C42 1_555 1_555
C43 N27 1_555 1_555
C44 N28 1_555 1_555
H43 C44 1_555 1_555
H44 C44 1_555 1_555
C45 N29 1_555 1_555
C46 N30 1_555 1_555
H45 C46 1_555 1_555
H46 C46 1_555 1_555
C47 N31 1_555 1_555
C48 N17 1_555 1_555
H47 C48 1_555 1_555
H48 C48 1_555 1_555
O17 C49 1_555 1_555
O18 C49 1_555 1_555
O19 C68 1_555 1_555
O20 C73 1_555 1_555
N33 C56 1_555 1_555
N34 C64 1_555 1_555
C49 C50 1_555 1_555
C50 C51 1_555 1_555
C51 H49 1_555 1_555
C52 C51 1_555 1_555
H50 C52 1_555 1_555
C53 C52 1_555 1_555
C54 C53 1_555 1_555
H51 C54 1_555 1_555
C55 C50 1_555 1_555
H52 C55 1_555 1_555
C56 C53 1_555 1_555
H53 C56 1_555 1_555
H54 C56 1_555 1_555
C57 N33 1_555 1_555
H55 C57 1_555 1_555
C58 C57 1_555 1_555
H56 C58 1_555 1_555
C59 C58 1_555 1_555
C60 C59 1_555 1_555
H57 C60 1_555 1_555
C61 N33 1_555 1_555
H58 C61 1_555 1_555
C62 C59 1_555 1_555
C63 C62 1_555 1_555
H59 C63 1_555 1_555
C64 C63 1_555 1_555
H60 C64 1_555 1_555
C65 N34 1_555 1_555
H61 C65 1_555 1_555
C66 C62 1_555 1_555
H62 C66 1_555 1_555
C67 N34 1_555 1_555
H63 C67 1_555 1_555
H64 C67 1_555 1_555
H65 C67 1_555 1_555
C68 C69 1_555 1_555
C69 H66 1_555 1_555
C70 C69 1_555 1_555
H67 C70 1_555 1_555
C71 C70 1_555 1_555
C72 C71 1_555 1_555
H68 C72 1_555 1_555
C73 C72 1_555 1_555
C74 C73 1_555 1_555
H69 C74 1_555 1_555
C75 C74 1_555 1_555
H70 C75 1_555 1_555
C76 C71 1_555 1_555
C77 C68 1_555 1_555
H71 C77 1_555 1_555
S1 O21 1_555 1_555
O22 S1 1_555 1_555
O23 S1 1_555 1_555
O24 S1 1_555 1_555
N16 C16 1_555 1_555
N18 C33 1_555 1_555
N19 C34 1_555 1_555
N20 C35 1_555 1_555
N21 C36 1_555 1_555
N22 C37 1_555 1_555
N23 C38 1_555 1_555
N24 C39 1_555 1_555
N25 C40 1_555 1_555
N26 C41 1_555 1_555
N27 C42 1_555 1_555
N28 C43 1_555 1_555
N29 C44 1_555 1_555
N30 C45 1_555 1_555
N31 C46 1_555 1_555
N32 C48 1_555 1_555
N32 C47 1_555 1_555
C17 C18 1_555 1_555
C19 C20 1_555 1_555
C21 C22 1_555 1_555
C23 C24 1_555 1_555
C25 C26 1_555 1_555
C27 C28 1_555 1_555
C29 C30 1_555 1_555
C31 C32 1_555 1_555
C54 C55 1_555 1_555
C60 C61 1_555 1_555
C65 C66 1_555 1_555
C75 C76 1_555 1_555
C76 C77 1_555 1_555

#END
