
#######################################################################
#
#                 Cambridge Crystallographic Data Centre
#                                CCDC 
#
#######################################################################
#
# If this CIF has been generated from an entry in the Cambridge 
# Structural Database, then it will include bibliographic, chemical, 
# crystal, experimental, refinement or atomic coordinate data resulting 
# from the CCDC's data processing and validation procedures.
#
#######################################################################

data_OBIPUN
_chemical_formula_moiety         'C18 H14 O3'
_chemical_name_systematic        
2-(1,3-dimethyl-2-oxo-1,2-dihydronaphthalen-1-yl)-1,4-benzoquinone
_symmetry_cell_setting           triclinic
_symmetry_space_group_name_H-M   'P 1'
_symmetry_Int_Tables_number      1
_space_group_name_Hall           'P 1'
loop_
_symmetry_equiv_pos_site_id
_symmetry_equiv_pos_as_xyz
1 x,y,z
_cell_length_a                   7.6607(7)
_cell_length_b                   9.2315(7)
_cell_length_c                   11.1270(8)
_cell_angle_alpha                72.019(7)
_cell_angle_beta                 79.887(7)
_cell_angle_gamma                74.428(7)
_cell_volume                     717.291
_exptl_crystal_colour            colorless
_exptl_crystal_description       block
_cell_formula_units_Z            2
loop_
_atom_site_label
_atom_site_type_symbol
_atom_site_fract_x
_atom_site_fract_y
_atom_site_fract_z
O1 O -0.0366(5) -0.0980(4) 0.8489(3)
O2 O 0.3762(4) -0.0736(4) 0.7290(3)
O3 O 0.1530(5) 0.3693(4) 0.9637(4)
C1 C -0.0086(6) -0.0504(5) 0.7337(4)
C2 C -0.0284(7) -0.1392(5) 0.6514(5)
C3 C 0.0253(7) -0.0912(5) 0.5269(5)
H1 H 0.0118 -0.1490 0.4753
C4 C 0.1029(6) 0.0442(5) 0.4670(4)
C5 C 0.1660(6) 0.0795(6) 0.3377(4)
H2 H 0.1533 0.0186 0.2885
C6 C 0.2465(7) 0.2034(7) 0.2837(5)
H3 H 0.2857 0.2276 0.1974
C7 C 0.2695(7) 0.2918(6) 0.3556(4)
H4 H 0.3289 0.3731 0.3189
C8 C 0.2049(6) 0.2606(5) 0.4824(4)
H5 H 0.2185 0.3228 0.5303
C9 C 0.1197(5) 0.1373(5) 0.5394(4)
C10 C 0.0306(5) 0.1130(5) 0.6746(4)
C11 C 0.1429(5) 0.1403(4) 0.7618(4)
C12 C 0.3246(6) 0.0323(5) 0.7799(4)
C13 C 0.4411(6) 0.0521(6) 0.8626(5)
H6 H 0.5554 -0.0149 0.8741
C14 C 0.3862(7) 0.1640(6) 0.9212(5)
H7 H 0.4632 0.1756 0.9718
C15 C 0.2072(7) 0.2688(6) 0.9073(4)
C16 C 0.0916(6) 0.2508(5) 0.8224(4)
H8 H -0.0216 0.3196 0.8107
C17 C -0.1006(9) -0.2835(6) 0.7117(6)
H9 H -0.2220 -0.2555 0.7510
H10 H -0.0237 -0.3543 0.7747
H11 H -0.1023 -0.3332 0.6479
C18 C -0.1602(6) 0.2261(6) 0.6695(4)
H12 H -0.2223 0.2127 0.7536
H13 H -0.2296 0.2035 0.6163
H14 H -0.1470 0.3320 0.6353
O4 O -0.4534(6) 0.4417(4) 1.4191(3)
O5 O -0.3555(6) 0.4442(5) 0.9178(4)
O6 O -0.6853(4) 0.7632(5) 1.2441(4)
C19 C -0.4225(6) 0.5710(6) 1.3996(4)
C20 C -0.4688(7) 0.6553(6) 1.4966(4)
C21 C -0.4315(7) 0.7950(7) 1.4697(5)
H15 H -0.4598 0.8452 1.5338
C22 C -0.3502(6) 0.8749(5) 1.3484(4)
C23 C -0.3191(7) 1.0242(6) 1.3279(6)
H16 H -0.3465 1.0709 1.3940
C24 C -0.2485(8) 1.1018(7) 1.2108(7)
H17 H -0.2300 1.2013 1.1976
C25 C -0.2056(7) 1.0336(6) 1.1142(6)
H18 H -0.1572 1.0863 1.0353
C26 C -0.2337(6) 0.8862(6) 1.1327(4)
H19 H -0.2048 0.8411 1.0656
C27 C -0.3041(5) 0.8048(5) 1.2497(4)
C28 C -0.3173(5) 0.6377(5) 1.2716(4)
C29 C -0.4084(5) 0.6217(4) 1.1674(4)
C30 C -0.3293(6) 0.5423(5) 1.0827(4)
H20 H -0.2063 0.4933 1.0844
C31 C -0.4293(7) 0.5294(5) 0.9869(4)
C32 C -0.6182(7) 0.6168(6) 0.9787(4)
H21 H -0.6820 0.6151 0.9155
C33 C -0.6990(7) 0.6978(5) 1.0595(4)
H22 H -0.8188 0.7544 1.0516
C34 C -0.6043(6) 0.7008(5) 1.1622(4)
C35 C -0.5626(9) 0.5775(8) 1.6214(5)
H23 H -0.5829 0.6413 1.6785
H24 H -0.4873 0.4768 1.6576
H25 H -0.6772 0.5650 1.6076
C36 C -0.1225(6) 0.5350(6) 1.2814(5)
H26 H -0.1263 0.4270 1.3005
H27 H -0.0699 0.5499 1.3476
H28 H -0.0499 0.5639 1.2021
loop_
_geom_bond_atom_site_label_1
_geom_bond_atom_site_label_2
_geom_bond_site_symmetry_1
_geom_bond_site_symmetry_2
O1 C1 1_555 1_555
O2 C12 1_555 1_555
O3 C15 1_555 1_555
C1 C2 1_555 1_555
C2 C3 1_555 1_555
C3 H1 1_555 1_555
C4 C3 1_555 1_555
C5 C4 1_555 1_555
H2 C5 1_555 1_555
C6 C5 1_555 1_555
H3 C6 1_555 1_555
C7 C6 1_555 1_555
H4 C7 1_555 1_555
C8 C7 1_555 1_555
H5 C8 1_555 1_555
C9 C4 1_555 1_555
C10 C1 1_555 1_555
C11 C10 1_555 1_555
C12 C11 1_555 1_555
C13 C12 1_555 1_555
H6 C13 1_555 1_555
C14 C13 1_555 1_555
H7 C14 1_555 1_555
C15 C14 1_555 1_555
C16 C11 1_555 1_555
H8 C16 1_555 1_555
C17 C2 1_555 1_555
H9 C17 1_555 1_555
H10 C17 1_555 1_555
H11 C17 1_555 1_555
C18 C10 1_555 1_555
H12 C18 1_555 1_555
H13 C18 1_555 1_555
H14 C18 1_555 1_555
O4 C19 1_555 1_555
O5 C31 1_555 1_555
O6 C34 1_555 1_555
C19 C20 1_555 1_555
C20 C21 1_555 1_555
C21 H15 1_555 1_555
C22 C21 1_555 1_555
C23 C22 1_555 1_555
H16 C23 1_555 1_555
C24 C23 1_555 1_555
H17 C24 1_555 1_555
C25 C24 1_555 1_555
H18 C25 1_555 1_555
C26 C25 1_555 1_555
H19 C26 1_555 1_555
C27 C22 1_555 1_555
C28 C19 1_555 1_555
C29 C28 1_555 1_555
C30 C29 1_555 1_555
H20 C30 1_555 1_555
C31 C30 1_555 1_555
C32 C31 1_555 1_555
H21 C32 1_555 1_555
C33 C32 1_555 1_555
H22 C33 1_555 1_555
C34 C29 1_555 1_555
C35 C20 1_555 1_555
H23 C35 1_555 1_555
H24 C35 1_555 1_555
H25 C35 1_555 1_555
C36 C28 1_555 1_555
H26 C36 1_555 1_555
H27 C36 1_555 1_555
H28 C36 1_555 1_555
C8 C9 1_555 1_555
C9 C10 1_555 1_555
C15 C16 1_555 1_555
C26 C27 1_555 1_555
C27 C28 1_555 1_555
C33 C34 1_555 1_555

#END
