
#######################################################################
#
#                 Cambridge Crystallographic Data Centre
#                                CCDC 
#
#######################################################################
#
# If this CIF has been generated from an entry in the Cambridge 
# Structural Database, then it will include bibliographic, chemical, 
# crystal, experimental, refinement or atomic coordinate data resulting 
# from the CCDC's data processing and validation procedures.
#
#######################################################################

data_OBIQAU
_chemical_formula_moiety         'C16 H13 Br1 O1 S1,0.333(C1 H1 Cl3)'
_chemical_name_systematic        
'9-((4-bromophenyl)sulfanyl)-11-oxatricyclo[6.2.1.0^2,7^]undeca-2,4,6-triene chloroform solvate'
_symmetry_cell_setting           rhombohedral
_symmetry_space_group_name_H-M   'R 3'
_symmetry_Int_Tables_number      146
_space_group_name_Hall           'R 3'
loop_
_symmetry_equiv_pos_site_id
_symmetry_equiv_pos_as_xyz
1 x,y,z
2 -y,x-y,z
3 -x+y,-x,z
4 2/3+x,1/3+y,1/3+z
5 2/3-y,1/3+x-y,1/3+z
6 2/3-x+y,1/3-x,1/3+z
7 1/3+x,2/3+y,2/3+z
8 1/3-y,2/3+x-y,2/3+z
9 1/3-x+y,2/3-x,2/3+z
_cell_length_a                   25.8412(10)
_cell_length_b                   25.8412(10)
_cell_length_c                   5.9333(3)
_cell_angle_alpha                90
_cell_angle_beta                 90
_cell_angle_gamma                120
_cell_volume                     3431.25
_exptl_crystal_colour            colorless
_exptl_crystal_description       prism
_cell_formula_units_Z            9
loop_
_atom_site_label
_atom_site_type_symbol
_atom_site_fract_x
_atom_site_fract_y
_atom_site_fract_z
Br1 Br 0.332265(18) 0.788382(18) 0.23545(8)
S1 S 0.09518(3) 0.67276(3) 0.84046(14)
O1 O 0.08383(8) 0.55315(9) 1.0772(3)
C1 C 0.05475(11) 0.59302(11) 0.7849(4)
H1 H 0.0394 0.5844 0.6303
C2 C 0.09181(10) 0.56210(12) 0.8405(5)
H2 H 0.1334 0.5834 0.7890
C3 C 0.05433(10) 0.49888(10) 0.7531(4)
C4 C 0.00734(11) 0.47130(11) 0.9088(4)
C5 C 0.01899(12) 0.51960(14) 1.0762(5)
H3 H 0.0126(14) 0.5073(14) 1.233(6)
C6 C 0.00321(11) 0.56279(12) 0.9609(5)
H4 H 0.0037 0.5917 1.0665
H5 H -0.0356 0.5417 0.8882
C7 C 0.05681(12) 0.47032(11) 0.5610(5)
H6 H 0.0875 0.4891 0.4564
C8 C 0.00964(14) 0.41023(13) 0.5314(6)
H7 H 0.0099 0.3889 0.4056
C9 C -0.03589(13) 0.38333(13) 0.6836(6)
H8 H -0.0659 0.3440 0.6595
C10 C -0.03837(12) 0.41330(12) 0.8727(6)
H9 H -0.0724(11) 0.3940(11) 0.968(4)
C11 C 0.15755(14) 0.70041(11) 0.6680(5)
C12 C 0.20989(15) 0.75273(12) 0.7385(5)
H10 H 0.2098 0.7704 0.8750
C13 C 0.25986(15) 0.77752(14) 0.6122(6)
H11 H 0.2936 0.8122 0.6612
C14 C 0.26122(14) 0.75163(13) 0.4099(5)
C15 C 0.21291(14) 0.70191(13) 0.3335(5)
H12 H 0.2144 0.6850 0.1971
C16 C 0.16056(14) 0.67600(12) 0.4611(5)
H13 H 0.1270 0.6419 0.4077
C17 C 0.3333 0.6667 0.8628(17)
H14 H 0.3333 0.6667 1.0197
Cl1 Cl 0.26149(5) 0.64734(6) 0.7733(3)
Cl1A Cl 0.35266(6) 0.61415(8) 0.7733(3)
Cl1B Cl 0.38585(8) 0.73851(5) 0.7733(3)
loop_
_geom_bond_atom_site_label_1
_geom_bond_atom_site_label_2
_geom_bond_site_symmetry_1
_geom_bond_site_symmetry_2
Br1 C14 1_555 1_555
S1 C1 1_555 1_555
O1 C2 1_555 1_555
C1 H1 1_555 1_555
C2 C1 1_555 1_555
H2 C2 1_555 1_555
C3 C2 1_555 1_555
C4 C3 1_555 1_555
C5 O1 1_555 1_555
H3 C5 1_555 1_555
C6 C1 1_555 1_555
H4 C6 1_555 1_555
H5 C6 1_555 1_555
C7 C3 1_555 1_555
H6 C7 1_555 1_555
C8 C7 1_555 1_555
H7 C8 1_555 1_555
C9 C8 1_555 1_555
H8 C9 1_555 1_555
C10 C4 1_555 1_555
H9 C10 1_555 1_555
C11 S1 1_555 1_555
C12 C11 1_555 1_555
H10 C12 1_555 1_555
C13 C12 1_555 1_555
H11 C13 1_555 1_555
C14 C13 1_555 1_555
C15 C14 1_555 1_555
H12 C15 1_555 1_555
C16 C11 1_555 1_555
H13 C16 1_555 1_555
C17 H14 1_555 1_555
Cl1 C17 1_555 1_555
Cl1A C17 1_555 1_555
Cl1B C17 1_555 1_555
C4 C5 1_555 1_555
C5 C6 1_555 1_555
C9 C10 1_555 1_555
C15 C16 1_555 1_555

#END
