
#######################################################################
#
#                 Cambridge Crystallographic Data Centre
#                                CCDC 
#
#######################################################################
#
# If this CIF has been generated from an entry in the Cambridge 
# Structural Database, then it will include bibliographic, chemical, 
# crystal, experimental, refinement or atomic coordinate data resulting 
# from the CCDC's data processing and validation procedures.
#
#######################################################################

data_OBIRIB
_chemical_compound_source        
'whole plant of Ligularia virgaurea spp. oligocephala'
_chemical_formula_moiety         'C15 H18 O5'
_chemical_name_systematic        
6\b,8\a-Dihydroxy-1-oxoeremophila-7(11),9(10)-diene-12,8-olide
_chemical_properties_biological  
'potential antihistamine activity; no cytotoxicity against tumour cells'
_symmetry_cell_setting           orthorhombic
_symmetry_space_group_name_H-M   'P 21 21 21'
_symmetry_Int_Tables_number      19
_space_group_name_Hall           'P 2ac 2ab'
loop_
_symmetry_equiv_pos_site_id
_symmetry_equiv_pos_as_xyz
1 x,y,z
2 1/2-x,-y,1/2+z
3 -x,1/2+y,1/2-z
4 1/2+x,1/2-y,-z
_cell_length_a                   8.883(2)
_cell_length_b                   10.216(2)
_cell_length_c                   15.107(3)
_cell_angle_alpha                90
_cell_angle_beta                 90
_cell_angle_gamma                90
_cell_volume                     1370.94
_chemical_melting_point          176deg.C
_cell_formula_units_Z            4
loop_
_atom_site_label
_atom_site_type_symbol
_atom_site_fract_x
_atom_site_fract_y
_atom_site_fract_z
O1 O 0.4073(2) 0.72160(16) 0.72247(10)
O2 O 0.0926(2) 0.3577(2) 0.82951(12)
O3 O 0.2273(2) 0.52417(19) 0.45829(10)
H1 H 0.2912 0.5600 0.4275
O4 O 0.55022(17) 0.55040(18) 0.66723(11)
H2 H 0.5776 0.5080 0.7104
O5 O 0.3378(2) 0.92490(17) 0.68480(13)
C1 C 0.1294(3) 0.3267(3) 0.75501(16)
C2 C 0.1021(4) 0.1921(3) 0.72112(18)
H3 H 0.0156 0.1559 0.7516
H4 H 0.1884 0.1381 0.7357
C3 C 0.0746(3) 0.1839(3) 0.62224(16)
H5 H -0.0280 0.2109 0.6101
H6 H 0.0848 0.0934 0.6037
C4 C 0.1810(3) 0.2676(2) 0.56783(16)
H7 H 0.2833 0.2369 0.5804
C5 C 0.1735(2) 0.4137(2) 0.59685(13)
C6 C 0.2884(3) 0.4977(2) 0.54323(13)
H8 H 0.3807 0.4465 0.5356
C7 C 0.3259(2) 0.6179(2) 0.59352(14)
C8 C 0.4034(3) 0.5932(2) 0.68013(14)
C9 C 0.3100(3) 0.5011(2) 0.73352(13)
H9 H 0.3209 0.5002 0.7947
C10 C 0.2119(3) 0.4203(2) 0.69615(14)
C11 C 0.2917(3) 0.7434(2) 0.58495(14)
C12 C 0.3464(3) 0.8098(3) 0.66602(18)
C13 C 0.2090(3) 0.8185(2) 0.51567(17)
H10 H 0.2058 0.9094 0.5318
H11 H 0.1082 0.7854 0.5107
H12 H 0.2597 0.8091 0.4599
C14 C 0.0146(3) 0.4714(3) 0.58473(16)
H13 H -0.0537 0.4296 0.6250
H14 H -0.0185 0.4569 0.5250
H15 H 0.0171 0.5637 0.5966
C15 C 0.1525(3) 0.2440(3) 0.46857(15)
H16 H 0.1579 0.1519 0.4563
H17 H 0.2273 0.2893 0.4345
H18 H 0.0544 0.2761 0.4531
H19? H 0.1767 0.7599 0.4698
H20? H 0.2743 0.8838 0.4909
H21? H 0.1228 0.8601 0.5417
loop_
_geom_bond_atom_site_label_1
_geom_bond_atom_site_label_2
_geom_bond_site_symmetry_1
_geom_bond_site_symmetry_2
O1 C8 1_555 1_555
O2 C1 1_555 1_555
O3 H1 1_555 1_555
O4 H2 1_555 1_555
O5 C12 1_555 1_555
C1 C2 1_555 1_555
C2 H3 1_555 1_555
H4 C2 1_555 1_555
C3 C2 1_555 1_555
H5 C3 1_555 1_555
H6 C3 1_555 1_555
C4 C3 1_555 1_555
H7 C4 1_555 1_555
C5 C4 1_555 1_555
C6 O3 1_555 1_555
H8 C6 1_555 1_555
C7 C6 1_555 1_555
C8 O4 1_555 1_555
C9 C8 1_555 1_555
H9 C9 1_555 1_555
C10 C1 1_555 1_555
C11 C7 1_555 1_555
C12 O1 1_555 1_555
C13 C11 1_555 1_555
H10 C13 1_555 1_555
H11 C13 1_555 1_555
H12 C13 1_555 1_555
C14 C5 1_555 1_555
H13 C14 1_555 1_555
H14 C14 1_555 1_555
H15 C14 1_555 1_555
C15 C4 1_555 1_555
H16 C15 1_555 1_555
H17 C15 1_555 1_555
H18 C15 1_555 1_555
C5 C6 1_555 1_555
C5 C10 1_555 1_555
C7 C8 1_555 1_555
C9 C10 1_555 1_555
C11 C12 1_555 1_555

#END
