
#######################################################################
#
#                 Cambridge Crystallographic Data Centre
#                                CCDC 
#
#######################################################################
#
# If this CIF has been generated from an entry in the Cambridge 
# Structural Database, then it will include bibliographic, chemical, 
# crystal, experimental, refinement or atomic coordinate data resulting 
# from the CCDC's data processing and validation procedures.
#
#######################################################################

data_OBISUQ
_chemical_formula_moiety         'C7 H13 N3 O3 S1'
_chemical_name_systematic        
'methyl 2-(dimethylamino)-N-((methylcarbamoyl)oxy)-2-oxoethanimidothioate'
_symmetry_cell_setting           orthorhombic
_symmetry_space_group_name_H-M   'P c a 21'
_symmetry_Int_Tables_number      29
_space_group_name_Hall           'P 2c -2ac'
loop_
_symmetry_equiv_pos_site_id
_symmetry_equiv_pos_as_xyz
1 x,y,z
2 -x,-y,1/2+z
3 1/2+x,-y,z
4 1/2-x,y,1/2+z
_cell_length_a                   8.3367(4)
_cell_length_b                   10.7752(5)
_cell_length_c                   24.1016(12)
_cell_angle_alpha                90
_cell_angle_beta                 90
_cell_angle_gamma                90
_cell_volume                     2165.04
_exptl_crystal_colour            colorless
_exptl_crystal_description       plate
_cell_formula_units_Z            8
loop_
_atom_site_label
_atom_site_type_symbol
_atom_site_fract_x
_atom_site_fract_y
_atom_site_fract_z
S1 S 0.55678(10) 0.32807(7) 0.87717(3)
O1 O 0.8636(3) 0.13823(18) 0.74085(9)
O2 O 0.6589(2) 0.17413(17) 0.79576(8)
O3 O 0.2966(3) 0.0966(2) 0.91570(10)
N1 N 0.6479(3) 0.0112(2) 0.73350(10)
H1 H 0.5497 -0.0037 0.7451
N2 N 0.5009(3) 0.1328(2) 0.81132(10)
N3 N 0.1571(3) 0.2143(2) 0.85463(10)
C1 C 0.7188(4) -0.0672(3) 0.69115(14)
H2 H 0.7844 -0.0164 0.6662
H3 H 0.6335 -0.1079 0.6699
H4 H 0.7863 -0.1304 0.7088
C2 C 0.7298(4) 0.1050(2) 0.75477(12)
C3 C 0.4493(4) 0.2044(3) 0.84969(11)
C4 C 0.4197(5) 0.3917(4) 0.92805(16)
H5 H 0.3255 0.4260 0.9091
H6 H 0.4736 0.4576 0.9490
H7 H 0.3858 0.3259 0.9536
C5 C 0.2909(3) 0.1659(3) 0.87589(13)
C6 C 0.0028(4) 0.1835(4) 0.88024(16)
H8 H 0.0171 0.1138 0.9059
H9 H -0.0742 0.1604 0.8513
H10 H -0.0376 0.2557 0.9007
C7 C 0.1526(4) 0.3046(3) 0.80973(14)
H11 H 0.1188 0.3853 0.8243
H12 H 0.0764 0.2770 0.7813
H13 H 0.2597 0.3122 0.7933
S2 S 0.97239(10) 0.16264(7) 0.54545(3)
O4 O 1.2851(3) 0.36802(18) 0.67471(9)
O5 O 1.0771(3) 0.32628(17) 0.62210(9)
O6 O 0.7167(3) 0.3997(2) 0.50123(10)
N4 N 1.0729(3) 0.4993(2) 0.67852(10)
H14 H 0.9764 0.5151 0.6655
N5 N 0.9217(3) 0.3683(2) 0.60490(10)
N6 N 0.5764(3) 0.2808(2) 0.56227(10)
C8 C 1.1426(4) 0.5816(3) 0.71943(13)
H15 H 1.1834 0.5326 0.7507
H16 H 1.0607 0.6396 0.7327
H17 H 1.2311 0.6281 0.7026
C9 C 1.1516(4) 0.4014(2) 0.66055(11)
C10 C 0.8681(4) 0.2936(2) 0.56845(11)
C11 C 0.8379(5) 0.0982(3) 0.49430(15)
H18 H 0.7431 0.0641 0.5129
H19 H 0.8928 0.0320 0.4739
H20 H 0.8049 0.1635 0.4684
C12 C 0.7109(4) 0.3295(2) 0.54159(13)
C13 C 0.5720(4) 0.1938(3) 0.60790(14)
H21 H 0.5364 0.1126 0.5944
H22 H 0.4972 0.2238 0.6363
H23 H 0.6795 0.1861 0.6240
C14 C 0.4231(4) 0.3106(4) 0.53622(15)
H24 H 0.4301 0.3922 0.5184
H25 H 0.3386 0.3120 0.5645
H26 H 0.3976 0.2476 0.5083
loop_
_geom_bond_atom_site_label_1
_geom_bond_atom_site_label_2
_geom_bond_site_symmetry_1
_geom_bond_site_symmetry_2
S1 C3 1_555 1_555
O1 C2 1_555 1_555
O2 N2 1_555 1_555
O3 C5 1_555 1_555
N1 H1 1_555 1_555
N2 C3 1_555 1_555
N3 C5 1_555 1_555
C1 N1 1_555 1_555
H2 C1 1_555 1_555
H3 C1 1_555 1_555
H4 C1 1_555 1_555
C2 O2 1_555 1_555
C3 C5 1_555 1_555
C4 S1 1_555 1_555
H5 C4 1_555 1_555
H6 C4 1_555 1_555
H7 C4 1_555 1_555
C6 N3 1_555 1_555
H8 C6 1_555 1_555
H9 C6 1_555 1_555
H10 C6 1_555 1_555
C7 N3 1_555 1_555
H11 C7 1_555 1_555
H12 C7 1_555 1_555
H13 C7 1_555 1_555
S2 C10 1_555 1_555
O4 C9 1_555 1_555
O5 N5 1_555 1_555
O6 C12 1_555 1_555
N4 H14 1_555 1_555
N5 C10 1_555 1_555
N6 C12 1_555 1_555
C8 N4 1_555 1_555
H15 C8 1_555 1_555
H16 C8 1_555 1_555
H17 C8 1_555 1_555
C9 O5 1_555 1_555
C10 C12 1_555 1_555
C11 S2 1_555 1_555
H18 C11 1_555 1_555
H19 C11 1_555 1_555
H20 C11 1_555 1_555
C13 N6 1_555 1_555
H21 C13 1_555 1_555
H22 C13 1_555 1_555
H23 C13 1_555 1_555
C14 N6 1_555 1_555
H24 C14 1_555 1_555
H25 C14 1_555 1_555
H26 C14 1_555 1_555
N1 C2 1_555 1_555
N4 C9 1_555 1_555

#END
