
#######################################################################
#
#                 Cambridge Crystallographic Data Centre
#                                CCDC 
#
#######################################################################
#
# If this CIF has been generated from an entry in the Cambridge 
# Structural Database, then it will include bibliographic, chemical, 
# crystal, experimental, refinement or atomic coordinate data resulting 
# from the CCDC's data processing and validation procedures.
#
#######################################################################

data_OBIVIH
_chemical_formula_moiety         'C9 H12 Cl1 N5 O3'
_chemical_name_systematic        
1-((6-chloropyridin-3-yl)methyl)-1-ethoxy-2-nitroguanidine
_symmetry_cell_setting           monoclinic
_symmetry_space_group_name_H-M   'P 21/c'
_symmetry_Int_Tables_number      14
_space_group_name_Hall           '-P 2ybc'
loop_
_symmetry_equiv_pos_site_id
_symmetry_equiv_pos_as_xyz
1 x,y,z
2 -x,1/2+y,1/2-z
3 -x,-y,-z
4 x,1/2-y,1/2+z
_cell_length_a                   11.7756(4)
_cell_length_b                   9.1501(3)
_cell_length_c                   11.4455(4)
_cell_angle_alpha                90
_cell_angle_beta                 103.010(3)
_cell_angle_gamma                90
_cell_volume                     1201.57
_cell_formula_units_Z            4
loop_
_atom_site_label
_atom_site_type_symbol
_atom_site_fract_x
_atom_site_fract_y
_atom_site_fract_z
Cl1 Cl 0.68769(5) 0.01379(6) 0.45168(6)
O1 O 0.24395(12) 0.45213(15) 0.55822(12)
O2 O 0.01741(13) 0.05150(17) 0.20087(13)
N1 N 0.03475(15) 0.10168(18) 0.30419(15)
O3 O -0.02005(14) 0.05423(18) 0.37808(14)
N2 N 0.20283(14) 0.39533(18) 0.44229(14)
C1 C 0.28068(16) 0.4207(2) 0.36100(17)
H1 H 0.3087 0.5207 0.3703
H2 H 0.2370 0.4088 0.2790
N3 N 0.11517(14) 0.20928(17) 0.32796(14)
C2 C 0.38397(16) 0.3181(2) 0.38352(17)
N4 N 0.55910(16) 0.2252(2) 0.51448(16)
C3 C 0.56699(17) 0.1311(2) 0.42536(19)
N5 N 0.09296(14) 0.24073(19) 0.53152(15)
H3 H 0.0483 0.1659 0.5294
H4 H 0.1114 0.2928 0.5955
C4 C 0.13325(16) 0.2756(2) 0.43629(17)
C5 C 0.46620(17) 0.3182(2) 0.49217(18)
H5 H 0.4575 0.3840 0.5515
C6 C 0.39893(18) 0.2162(2) 0.29829(18)
H6 H 0.3444 0.2118 0.2257
C7 C 0.49115(17) 0.1225(2) 0.31800(18)
H7 H 0.5014 0.0555 0.2601
C8 C 0.19252(18) 0.5957(2) 0.56673(19)
H8 H 0.1083 0.5883 0.5525
H9 H 0.2121 0.6620 0.5081
C9 C 0.2428(2) 0.6496(2) 0.69220(19)
H10 H 0.2112 0.7442 0.7027
H11 H 0.3260 0.6566 0.7048
H12 H 0.2233 0.5825 0.7491
loop_
_geom_bond_atom_site_label_1
_geom_bond_atom_site_label_2
_geom_bond_site_symmetry_1
_geom_bond_site_symmetry_2
Cl1 C3 1_555 1_555
O1 N2 1_555 1_555
O2 N1 1_555 1_555
N1 O3 1_555 1_555
N2 C1 1_555 1_555
C1 H1 1_555 1_555
H2 C1 1_555 1_555
N3 N1 1_555 1_555
C2 C1 1_555 1_555
N4 C3 1_555 1_555
C3 C7 1_555 1_555
N5 H3 1_555 1_555
H4 N5 1_555 1_555
C4 N2 1_555 1_555
C5 C2 1_555 1_555
H5 C5 1_555 1_555
C6 C2 1_555 1_555
H6 C6 1_555 1_555
C7 C6 1_555 1_555
H7 C7 1_555 1_555
C8 O1 1_555 1_555
H8 C8 1_555 1_555
H9 C8 1_555 1_555
C9 C8 1_555 1_555
H10 C9 1_555 1_555
H11 C9 1_555 1_555
H12 C9 1_555 1_555
N3 C4 1_555 1_555
N4 C5 1_555 1_555
N5 C4 1_555 1_555

#END
