
#######################################################################
#
#                 Cambridge Crystallographic Data Centre
#                                CCDC 
#
#######################################################################
#
# If this CIF has been generated from an entry in the Cambridge 
# Structural Database, then it will include bibliographic, chemical, 
# crystal, experimental, refinement or atomic coordinate data resulting 
# from the CCDC's data processing and validation procedures.
#
#######################################################################

data_OBOHAR
_chemical_compound_source        
'Cyclocarya paliurus (Batal.) Iljinsk (family Juglandaceae) leaves'
_chemical_name_common            'cyclocariol A methanol solvate'
_chemical_formula_moiety         'C31 H52 O5,C1 H4 O1'
_chemical_name_systematic        
'methyl 3-(3-(2,5-dihydroxy-6-methylhept-6-en-2-yl)-4-hydroxy-6,9a,9b-trimethyl-7-(prop-1-en-2-yl)dodecahydro-1H-cyclopenta[a]naphthalen-6-yl)propanoate methanol solvate'
_chemical_properties_biological  
'Weak cytotoxicity against SMMC-77 and BT-549 cancer cell lines and good activity against human colon cancer HCT-116 cell line.'
_symmetry_cell_setting           monoclinic
_symmetry_space_group_name_H-M   'P 21'
_symmetry_Int_Tables_number      4
_space_group_name_Hall           'P 2yb'
loop_
_symmetry_equiv_pos_site_id
_symmetry_equiv_pos_as_xyz
1 x,y,z
2 -x,1/2+y,-z
_cell_length_a                   8.3479(8)
_cell_length_b                   10.6841(10)
_cell_length_c                   17.8515(16)
_cell_angle_alpha                90
_cell_angle_beta                 90.450(5)
_cell_angle_gamma                90
_cell_volume                     1592.12
_exptl_crystal_colour            colorless
_exptl_crystal_description       block
_cell_formula_units_Z            2
loop_
_atom_site_label
_atom_site_type_symbol
_atom_site_fract_x
_atom_site_fract_y
_atom_site_fract_z
O1 O 0.5857(2) 0.45565(17) 0.40998(10)
H1 H 0.5271 0.4160 0.4398
O2 O 0.3651(2) 0.37406(18) 0.50138(11)
H2 H 0.3424 0.2986 0.4936
O3 O 0.8018(3) 0.3065(2) 0.05032(11)
O4 O 0.1872(3) 0.77794(17) 0.63440(12)
H3 H 0.2390 0.8391 0.6177
O5 O 0.9782(3) 0.4614(2) 0.06814(16)
C1 C 0.4939(3) 0.4887(2) 0.34373(14)
H4 H 0.4722 0.4111 0.3140
C2 C 0.3354(3) 0.5506(2) 0.36279(14)
H5 H 0.3604 0.6250 0.3947
C3 C 0.5138(3) 0.6310(2) 0.22796(14)
H6 H 0.4765 0.5562 0.1991
C4 C 0.3567(3) 0.7000(2) 0.25114(14)
C5 C 0.2492(3) 0.5994(2) 0.29102(14)
C6 C 0.5996(3) 0.5766(3) 0.29759(14)
H7 H 0.6959 0.5303 0.2812
H8 H 0.6358 0.6465 0.3299
C7 C 0.2232(3) 0.4510(2) 0.48867(15)
C8 C 0.7092(4) 0.4849(3) 0.11398(16)
H9 H 0.6703 0.4318 0.1555
H10 H 0.6198 0.4965 0.0779
C9 C 0.2527(4) 0.5721(2) 0.53228(14)
H11 H 0.3595 0.6049 0.5188
H12 H 0.1721 0.6347 0.5161
C10 C 0.2715(4) 0.7520(3) 0.18068(16)
H13 H 0.2269 0.6812 0.1514
H14 H 0.1810 0.8055 0.1964
C11 C 0.8452(4) 0.4200(3) 0.07562(15)
C12 C 0.6283(3) 0.7022(2) 0.17327(14)
C13 C 0.2954(4) 0.6811(3) 0.65584(15)
H15 H 0.4056 0.7041 0.6391
C14 C 0.7195(4) 0.8119(3) 0.20995(15)
H16 H 0.6475 0.8839 0.2148
H17 H 0.8108 0.8350 0.1787
H18 H 0.7581 0.7866 0.2597
C15 C 0.7601(3) 0.6125(3) 0.14512(15)
H19 H 0.8204 0.6565 0.1055
H20 H 0.8357 0.5975 0.1872
C16 C 0.5227(4) 0.7466(3) 0.10506(14)
H21 H 0.4736 0.6690 0.0836
C17 C 0.2029(4) 0.4885(3) 0.23819(16)
H22 H 0.3003 0.4450 0.2223
H23 H 0.1459 0.5209 0.1941
H24 H 0.1336 0.4300 0.2650
C18 C 0.0472(3) 0.5454(3) 0.38272(16)
H25 H -0.0325 0.4870 0.3609
H26 H 0.0006 0.5843 0.4279
C19 C 0.3888(4) 0.8125(3) 0.30370(15)
H27 H 0.4618 0.7869 0.3441
H28 H 0.2875 0.8412 0.3251
H29 H 0.4375 0.8808 0.2751
C20 C 0.2039(3) 0.4747(2) 0.40322(14)
H30 H 0.1981 0.3909 0.3784
C21 C 0.3822(4) 0.8282(3) 0.13055(16)
H31 H 0.4233 0.9017 0.1585
H32 H 0.3217 0.8588 0.0863
C22 C 0.6140(4) 0.8077(3) 0.04100(16)
C23 C 0.2954(5) 0.6695(3) 0.74041(17)
C24 C 0.0923(3) 0.6470(3) 0.32517(16)
H33 H 0.0079 0.6556 0.2862
H34 H 0.1084 0.7289 0.3500
C25 C 0.0781(4) 0.3789(3) 0.51640(17)
H35 H 0.0551 0.3094 0.4822
H36 H -0.0147 0.4350 0.5182
H37 H 0.1004 0.3461 0.5667
C26 C 0.2452(4) 0.5594(3) 0.61734(15)
H38 H 0.3171 0.4909 0.6338
H39 H 0.1347 0.5376 0.6322
C27 C 0.9240(4) 0.2363(3) 0.01208(19)
H40 H 0.9695 0.2876 -0.0280
H41 H 0.8768 0.1603 -0.0095
H42 H 1.0088 0.2132 0.0478
C28 C 0.6682(5) 0.9297(3) 0.0440(2)
H43 H 0.7154 0.9667 0.0011
H44 H 0.6582 0.9766 0.0889
C29 C 0.6290(5) 0.7363(4) -0.02715(17)
H45 H 0.6877 0.6588 -0.0167
H46 H 0.6874 0.7857 -0.0643
H47 H 0.5222 0.7161 -0.0468
C30 C 0.4322(7) 0.6732(4) 0.7782(2)
H48 H 0.4322 0.6659 0.8313
H49 H 0.5304 0.6831 0.7524
C31 C 0.1389(6) 0.6542(4) 0.7774(2)
H50 H 0.0682 0.7235 0.7631
H51 H 0.1544 0.6543 0.8319
H52 H 0.0905 0.5748 0.7618
O6 O 0.2927(3) 0.1280(2) 0.49069(13)
H53 H 0.3203 0.0756 0.5234
C32 C 0.2895(6) 0.0714(5) 0.4220(2)
H54 H 0.2702 0.1345 0.3831
H55 H 0.2035 0.0090 0.4206
H56 H 0.3925 0.0302 0.4131
loop_
_geom_bond_atom_site_label_1
_geom_bond_atom_site_label_2
_geom_bond_site_symmetry_1
_geom_bond_site_symmetry_2
O1 H1 1_555 1_555
O2 H2 1_555 1_555
O3 C11 1_555 1_555
O4 H3 1_555 1_555
O5 C11 1_555 1_555
C1 O1 1_555 1_555
H4 C1 1_555 1_555
C2 C1 1_555 1_555
H5 C2 1_555 1_555
C3 H6 1_555 1_555
C4 C3 1_555 1_555
C5 C2 1_555 1_555
C6 C1 1_555 1_555
H7 C6 1_555 1_555
H8 C6 1_555 1_555
C7 O2 1_555 1_555
C8 H9 1_555 1_555
H10 C8 1_555 1_555
C9 C7 1_555 1_555
H11 C9 1_555 1_555
H12 C9 1_555 1_555
C10 C4 1_555 1_555
H13 C10 1_555 1_555
H14 C10 1_555 1_555
C11 C8 1_555 1_555
C12 C3 1_555 1_555
C13 O4 1_555 1_555
H15 C13 1_555 1_555
C14 C12 1_555 1_555
H16 C14 1_555 1_555
H17 C14 1_555 1_555
H18 C14 1_555 1_555
C15 C8 1_555 1_555
H19 C15 1_555 1_555
H20 C15 1_555 1_555
C16 C12 1_555 1_555
H21 C16 1_555 1_555
C17 C5 1_555 1_555
H22 C17 1_555 1_555
H23 C17 1_555 1_555
H24 C17 1_555 1_555
C18 H25 1_555 1_555
H26 C18 1_555 1_555
C19 C4 1_555 1_555
H27 C19 1_555 1_555
H28 C19 1_555 1_555
H29 C19 1_555 1_555
C20 C2 1_555 1_555
H30 C20 1_555 1_555
C21 C10 1_555 1_555
H31 C21 1_555 1_555
H32 C21 1_555 1_555
C22 C16 1_555 1_555
C23 C13 1_555 1_555
C24 C5 1_555 1_555
H33 C24 1_555 1_555
H34 C24 1_555 1_555
C25 C7 1_555 1_555
H35 C25 1_555 1_555
H36 C25 1_555 1_555
H37 C25 1_555 1_555
C26 C9 1_555 1_555
H38 C26 1_555 1_555
H39 C26 1_555 1_555
C27 O3 1_555 1_555
H40 C27 1_555 1_555
H41 C27 1_555 1_555
H42 C27 1_555 1_555
C28 C22 1_555 1_555
H43 C28 1_555 1_555
H44 C28 1_555 1_555
C29 C22 1_555 1_555
H45 C29 1_555 1_555
H46 C29 1_555 1_555
H47 C29 1_555 1_555
C30 C23 1_555 1_555
H48 C30 1_555 1_555
H49 C30 1_555 1_555
C31 C23 1_555 1_555
H50 C31 1_555 1_555
H51 C31 1_555 1_555
H52 C31 1_555 1_555
O6 H53 1_555 1_555
C32 O6 1_555 1_555
H54 C32 1_555 1_555
H55 C32 1_555 1_555
H56 C32 1_555 1_555
C3 C6 1_555 1_555
C4 C5 1_555 1_555
C7 C20 1_555 1_555
C12 C15 1_555 1_555
C13 C26 1_555 1_555
C16 C21 1_555 1_555
C18 C20 1_555 1_555
C18 C24 1_555 1_555

#END
