
#######################################################################
#
#                 Cambridge Crystallographic Data Centre
#                                CCDC 
#
#######################################################################
#
# If this CIF has been generated from an entry in the Cambridge 
# Structural Database, then it will include bibliographic, chemical, 
# crystal, experimental, refinement or atomic coordinate data resulting 
# from the CCDC's data processing and validation procedures.
#
#######################################################################

data_OBOWUZ
_chemical_formula_moiety         'C16 H24 N2 Si2'
_chemical_name_systematic        4,4'-bis(trimethylsilyl)-2,2'-bipyridine
_symmetry_cell_setting           monoclinic
_symmetry_space_group_name_H-M   'P 21/c'
_symmetry_Int_Tables_number      14
_space_group_name_Hall           '-P 2ybc'
loop_
_symmetry_equiv_pos_site_id
_symmetry_equiv_pos_as_xyz
1 x,y,z
2 -x,1/2+y,1/2-z
3 -x,-y,-z
4 x,1/2-y,1/2+z
_cell_length_a                   13.154(4)
_cell_length_b                   6.4599(16)
_cell_length_c                   11.280(3)
_cell_angle_alpha                90
_cell_angle_beta                 111.222(6)
_cell_angle_gamma                90
_cell_volume                     893.5
_exptl_crystal_colour            colorless
_exptl_crystal_description       block
_cell_formula_units_Z            2
loop_
_atom_site_label
_atom_site_type_symbol
_atom_site_fract_x
_atom_site_fract_y
_atom_site_fract_z
Si1 Si 0.80366(4) 0.08423(9) 0.02023(5)
N1 N 0.49321(13) 0.2932(2) 0.10461(14)
C1 C 0.68120(15) 0.1675(3) 0.05735(17)
C2 C 0.64022(16) 0.0538(3) 0.13516(18)
H1 H 0.6754 -0.0686 0.1740
C3 C 0.54791(17) 0.1206(3) 0.15535(18)
H2 H 0.5221 0.0400 0.2079
C4 C 0.53132(15) 0.4054(3) 0.02861(17)
C5 C 0.62411(16) 0.3477(3) 0.00480(17)
H3 H 0.6487 0.4314 -0.0475
C6 C 0.8938(2) -0.0751(5) 0.1542(3)
H4 H 0.8573 -0.2038 0.1584
H5 H 0.9101 0.0003 0.2333
H6 H 0.9611 -0.1049 0.1408
C7 C 0.7569(2) -0.0682(4) -0.1293(2)
H7 H 0.8197 -0.1205 -0.1457
H8 H 0.7140 0.0195 -0.1993
H9 H 0.7127 -0.1834 -0.1210
C8 C 0.8778(2) 0.3196(4) 0.0009(3)
H10 H 0.8948 0.4060 0.0760
H11 H 0.8323 0.3964 -0.0732
H12 H 0.9448 0.2790 -0.0101
Si1B Si 0.19634(4) 0.91577(9) -0.02023(5)
N1B N 0.50679(13) 0.7068(2) -0.10461(14)
C1B C 0.31880(15) 0.8325(3) -0.05735(17)
C2B C 0.35978(16) 0.9462(3) -0.13516(18)
H1B H 0.3246 1.0686 -0.1740
C3B C 0.45209(17) 0.8794(3) -0.15535(18)
H2B H 0.4779 0.9600 -0.2079
C4B C 0.46868(15) 0.5946(3) -0.02861(17)
C5B C 0.37589(16) 0.6523(3) -0.00480(17)
H3B H 0.3513 0.5686 0.0475
C6B C 0.1062(2) 1.0751(5) -0.1542(3)
H4B H 0.1427 1.2038 -0.1584
H5B H 0.0899 0.9997 -0.2333
H6B H 0.0389 1.1049 -0.1408
C7B C 0.2431(2) 1.0682(4) 0.1293(2)
H7B H 0.1803 1.1205 0.1457
H8B H 0.2860 0.9805 0.1993
H9B H 0.2873 1.1834 0.1210
C8B C 0.1222(2) 0.6804(4) -0.0009(3)
H10B H 0.1052 0.5940 -0.0760
H11B H 0.1677 0.6036 0.0732
H12B H 0.0552 0.7210 0.0101
loop_
_geom_bond_atom_site_label_1
_geom_bond_atom_site_label_2
_geom_bond_site_symmetry_1
_geom_bond_site_symmetry_2
Si1 C1 1_555 1_555
N1 C3 1_555 1_555
C1 C2 1_555 1_555
C2 H1 1_555 1_555
C3 C2 1_555 1_555
H2 C3 1_555 1_555
C4 N1 1_555 1_555
C5 C1 1_555 1_555
H3 C5 1_555 1_555
C6 Si1 1_555 1_555
H4 C6 1_555 1_555
H5 C6 1_555 1_555
H6 C6 1_555 1_555
C7 Si1 1_555 1_555
H7 C7 1_555 1_555
H8 C7 1_555 1_555
H9 C7 1_555 1_555
C8 Si1 1_555 1_555
H10 C8 1_555 1_555
H11 C8 1_555 1_555
H12 C8 1_555 1_555
Si1B C1B 1_555 1_555
N1B C3B 1_555 1_555
C1B C2B 1_555 1_555
C2B H1B 1_555 1_555
C3B C2B 1_555 1_555
H2B C3B 1_555 1_555
C4B C4 1_555 1_555
C5B C1B 1_555 1_555
H3B C5B 1_555 1_555
C6B Si1B 1_555 1_555
H4B C6B 1_555 1_555
H5B C6B 1_555 1_555
H6B C6B 1_555 1_555
C7B Si1B 1_555 1_555
H7B C7B 1_555 1_555
H8B C7B 1_555 1_555
H9B C7B 1_555 1_555
C8B Si1B 1_555 1_555
H10B C8B 1_555 1_555
H11B C8B 1_555 1_555
H12B C8B 1_555 1_555
C4 C5 1_555 1_555
N1B C4B 1_555 1_555
C4B C5B 1_555 1_555

#END
