
#######################################################################
#
#                 Cambridge Crystallographic Data Centre
#                                CCDC 
#
#######################################################################
#
# If this CIF has been generated from an entry in the Cambridge 
# Structural Database, then it will include bibliographic, chemical, 
# crystal, experimental, refinement or atomic coordinate data resulting 
# from the CCDC's data processing and validation procedures.
#
#######################################################################

data_OBOYEM
_chemical_formula_moiety         'C22 H18 N2 O3 S1'
_chemical_name_systematic        
N-(4-amino-3-phenyl-2H-chromen-2-ylidene)-4-methylbenzenesulfonamide
_symmetry_cell_setting           monoclinic
_symmetry_space_group_name_H-M   'C c'
_symmetry_Int_Tables_number      9
_space_group_name_Hall           'C -2yc'
loop_
_symmetry_equiv_pos_site_id
_symmetry_equiv_pos_as_xyz
1 x,y,z
2 x,-y,1/2+z
3 1/2+x,1/2+y,z
4 1/2+x,1/2-y,1/2+z
_cell_length_a                   18.2675(8)
_cell_length_b                   8.5232(4)
_cell_length_c                   12.9557(6)
_cell_angle_alpha                90
_cell_angle_beta                 114.417(2)
_cell_angle_gamma                90
_cell_volume                     1836.76
_exptl_crystal_colour            colorless
_exptl_crystal_description       block
_cell_formula_units_Z            4
loop_
_atom_site_label
_atom_site_type_symbol
_atom_site_fract_x
_atom_site_fract_y
_atom_site_fract_z
S1 S 0.64697(3) 0.46465(6) 0.60430(4)
C1 C 0.40046(15) 0.2292(3) 0.6445(2)
O1 O 0.52332(9) 0.36352(19) 0.66925(12)
N1 N 0.31077(13) 0.1509(3) 0.45530(17)
H1 H 0.2971 0.1453 0.3818
H2 H 0.2794 0.1097 0.4845
O2 O 0.68872(10) 0.3483(2) 0.69012(14)
C2 C 0.47162(13) 0.3050(3) 0.71251(19)
N2 N 0.55771(11) 0.4107(2) 0.52106(15)
O3 O 0.68337(10) 0.5087(2) 0.52840(14)
C3 C 0.49515(14) 0.3278(3) 0.8280(2)
H3 H 0.5434 0.3824 0.8722
C4 C 0.43116(14) 0.2896(3) 0.48084(18)
C5 C 0.37928(14) 0.2223(3) 0.5226(2)
C6 C 0.35355(15) 0.1692(4) 0.6972(2)
H4 H 0.3053 0.1146 0.6533
C7 C 0.37633(17) 0.1880(4) 0.8123(2)
H5 H 0.3441 0.1456 0.8472
C8 C 0.44649(17) 0.2691(4) 0.8771(2)
H6 H 0.4611 0.2842 0.9558
C9 C 0.50524(14) 0.3551(3) 0.55687(18)
C10 C 0.41031(14) 0.2942(3) 0.35660(19)
C11 C 0.34545(15) 0.3843(3) 0.2853(2)
H7 H 0.3145 0.4417 0.3160
C12 C 0.32568(17) 0.3905(4) 0.1693(2)
H8 H 0.2812 0.4518 0.1212
C13 C 0.37031(19) 0.3085(5) 0.1242(2)
H9 H 0.3565 0.3127 0.0451
C14 C 0.4356(2) 0.2195(4) 0.1942(3)
H10 H 0.4669 0.1638 0.1633
C15 C 0.45497(18) 0.2122(4) 0.3096(2)
H11 H 0.4994 0.1503 0.3572
C16 C 0.64277(13) 0.6391(3) 0.67562(18)
C17 C 0.63624(15) 0.7832(3) 0.62210(19)
H12 H 0.6297 0.7871 0.5455
C18 C 0.63919(17) 0.9202(3) 0.6798(2)
H13 H 0.6341 1.0182 0.6426
C19 C 0.64961(15) 0.9162(3) 0.7936(2)
C20 C 0.65644(15) 0.7714(3) 0.8460(2)
H14 H 0.6641 0.7673 0.9231
C21 C 0.65226(14) 0.6325(3) 0.78791(19)
H15 H 0.6558 0.5342 0.8242
C22 C 0.6530(2) 1.0647(4) 0.8575(3)
H16 H 0.6531 1.1551 0.8108
H17 H 0.7021 1.0656 0.9279
H18 H 0.6059 1.0704 0.8755
loop_
_geom_bond_atom_site_label_1
_geom_bond_atom_site_label_2
_geom_bond_site_symmetry_1
_geom_bond_site_symmetry_2
S1 O2 1_555 1_555
C1 C2 1_555 1_555
O1 C2 1_555 1_555
N1 H1 1_555 1_555
H2 N1 1_555 1_555
C2 C3 1_555 1_555
N2 S1 1_555 1_555
O3 S1 1_555 1_555
C3 H3 1_555 1_555
C4 C5 1_555 1_555
C5 C1 1_555 1_555
C6 C1 1_555 1_555
H4 C6 1_555 1_555
C7 C6 1_555 1_555
H5 C7 1_555 1_555
C8 C3 1_555 1_555
H6 C8 1_555 1_555
C9 O1 1_555 1_555
C10 C4 1_555 1_555
C11 C10 1_555 1_555
H7 C11 1_555 1_555
C12 C11 1_555 1_555
H8 C12 1_555 1_555
C13 C12 1_555 1_555
H9 C13 1_555 1_555
C14 C13 1_555 1_555
H10 C14 1_555 1_555
C15 C10 1_555 1_555
H11 C15 1_555 1_555
C16 S1 1_555 1_555
C17 C16 1_555 1_555
H12 C17 1_555 1_555
C18 C17 1_555 1_555
H13 C18 1_555 1_555
C19 C18 1_555 1_555
C20 C19 1_555 1_555
H14 C20 1_555 1_555
C21 C16 1_555 1_555
H15 C21 1_555 1_555
C22 C19 1_555 1_555
H16 C22 1_555 1_555
H17 C22 1_555 1_555
H18 C22 1_555 1_555
N1 C5 1_555 1_555
N2 C9 1_555 1_555
C4 C9 1_555 1_555
C7 C8 1_555 1_555
C14 C15 1_555 1_555
C20 C21 1_555 1_555

#END
