
#######################################################################
#
#                 Cambridge Crystallographic Data Centre
#                                CCDC 
#
#######################################################################
#
# If this CIF has been generated from an entry in the Cambridge 
# Structural Database, then it will include bibliographic, chemical, 
# crystal, experimental, refinement or atomic coordinate data resulting 
# from the CCDC's data processing and validation procedures.
#
#######################################################################

data_OBOZEL
_chemical_formula_moiety         '2(C7 H8 N1 O2 1+),C4 H10 O6 P2 2-'
_chemical_name_systematic        
'bis(4-Ammoniobenzoic acid) butane-1,4-diphosphonate'
_symmetry_cell_setting           monoclinic
_symmetry_space_group_name_H-M   'P 21/c'
_symmetry_Int_Tables_number      14
_space_group_name_Hall           '-P 2ybc'
loop_
_symmetry_equiv_pos_site_id
_symmetry_equiv_pos_as_xyz
1 x,y,z
2 x,1/2-y,1/2+z
3 -x,-y,-z
4 -x,1/2+y,1/2-z
_cell_length_a                   9.7069(12)
_cell_length_b                   16.227(2)
_cell_length_c                   6.9339(9)
_cell_angle_alpha                90.00
_cell_angle_beta                 98.834(3)
_cell_angle_gamma                90.00
_cell_volume                     1079.23
_exptl_crystal_colour            'light orange'
_exptl_crystal_description       flake
_cell_formula_units_Z            2
loop_
_atom_site_label
_atom_site_type_symbol
_atom_site_fract_x
_atom_site_fract_y
_atom_site_fract_z
P1 P 0.32894(11) 0.08398(7) -0.02233(18)
O1 O 0.3019(3) 0.1724(2) 0.0272(5)
O2 O 0.3969(3) 0.0422(2) 0.1738(4)
H4 H 0.468(6) -0.001(4) 0.161(8)
O3 O 0.4239(3) 0.07390(19) -0.1753(4)
C1 C 0.1692(5) 0.0291(3) -0.1013(7)
H6 H 0.128(4) 0.058(2) -0.202(6)
H7 H 0.195(5) -0.023(3) -0.146(8)
C2 C 0.0697(5) 0.0179(4) 0.0460(7)
H8 H 0.044(4) 0.067(3) 0.103(6)
H9 H 0.118(4) -0.022(3) 0.142(6)
C2B C -0.0697(5) -0.0179(4) -0.0460(7)
C1B C -0.1692(5) -0.0291(3) 0.1013(7)
P1B P -0.32894(11) -0.08398(7) 0.02233(18)
O1B O -0.3019(3) -0.1724(2) -0.0272(5)
O2B O -0.3969(3) -0.0422(2) -0.1738(4)
H4B H -0.468(6) 0.001(4) -0.161(8)
O3B O -0.4239(3) -0.07390(19) 0.1753(4)
H6B H -0.128(4) -0.058(2) 0.202(6)
H7B H -0.195(5) 0.023(3) 0.146(8)
H8B H -0.044(4) -0.067(3) -0.103(6)
H9B H -0.118(4) 0.022(3) -0.142(6)
N1 N 0.4232(4) 0.1689(3) -0.5099(7)
H1 H 0.384(5) 0.221(3) -0.505(6)
H2 H 0.407(5) 0.140(3) -0.402(8)
H3 H 0.388(5) 0.142(3) -0.625(8)
O4 O 1.0445(4) 0.2840(2) -0.5334(7)
H5 H 1.141(7) 0.289(4) -0.517(9)
O5 O 1.0922(3) 0.1498(2) -0.5108(5)
C3 C 1.0096(5) 0.2069(3) -0.5208(7)
C4 C 0.8564(4) 0.1971(3) -0.5215(6)
C5 C 0.7695(5) 0.2658(3) -0.5346(7)
H10 H 0.806(4) 0.318(2) -0.555(5)
C6 C 0.6290(5) 0.2563(3) -0.5317(7)
H11 H 0.570(5) 0.304(3) -0.532(7)
C7 C 0.5739(4) 0.1787(3) -0.5154(6)
C8 C 0.6580(5) 0.1091(3) -0.5013(7)
H12 H 0.617(5) 0.050(3) -0.487(7)
C9 C 0.8005(5) 0.1195(3) -0.5042(7)
H13 H 0.861(5) 0.072(3) -0.499(6)
loop_
_geom_bond_atom_site_label_1
_geom_bond_atom_site_label_2
_geom_bond_site_symmetry_1
_geom_bond_site_symmetry_2
P1 O1 1_555 1_555
N1 H1 1_555 1_555
H2 N1 1_555 1_555
H3 N1 1_555 1_555
O2 P1 1_555 1_555
H4 O2 1_555 1_555
O3 P1 1_555 1_555
O4 H5 1_555 1_555
O5 C3 1_555 1_555
C1 P1 1_555 1_555
H6 C1 1_555 1_555
H7 C1 1_555 1_555
C2 C1 1_555 1_555
H8 C2 1_555 1_555
H9 C2 1_555 1_555
C3 O4 1_555 1_555
C4 C3 1_555 1_555
C5 C4 1_555 1_555
H10 C5 1_555 1_555
C6 C5 1_555 1_555
H11 C6 1_555 1_555
C7 N1 1_555 1_555
C8 C7 1_555 1_555
H12 C8 1_555 1_555
C9 C4 1_555 1_555
H13 C9 1_555 1_555
C2B C2 1_555 1_555
C1B C2B 1_555 1_555
P1B C1B 1_555 1_555
O1B P1B 1_555 1_555
O2B P1B 1_555 1_555
H4B O2B 1_555 1_555
O3B P1B 1_555 1_555
H6B C1B 1_555 1_555
H7B C1B 1_555 1_555
H8B C2B 1_555 1_555
H9B C2B 1_555 1_555
C6 C7 1_555 1_555
C8 C9 1_555 1_555

#END
