
#######################################################################
#
#                 Cambridge Crystallographic Data Centre
#                                CCDC 
#
#######################################################################
#
# If this CIF has been generated from an entry in the Cambridge 
# Structural Database, then it will include bibliographic, chemical, 
# crystal, experimental, refinement or atomic coordinate data resulting 
# from the CCDC's data processing and validation procedures.
#
#######################################################################

data_OBOZIP
_chemical_formula_moiety         'C10 H9 N2 1+,C4 H11 O6 P2 1-,2(H2 O1)'
_chemical_name_systematic        
"4,4'-Bipyridinium butane-1,4-diphosphonic acid dihydrate"
_symmetry_cell_setting           triclinic
_symmetry_space_group_name_H-M   'P -1'
_symmetry_Int_Tables_number      2
_space_group_name_Hall           '-P 1'
loop_
_symmetry_equiv_pos_site_id
_symmetry_equiv_pos_as_xyz
1 x,y,z
2 -x,-y,-z
_cell_length_a                   9.4645(2)
_cell_length_b                   9.6490(2)
_cell_length_c                   11.9479(3)
_cell_angle_alpha                79.7420(10)
_cell_angle_beta                 73.5650(10)
_cell_angle_gamma                63.8420(10)
_cell_volume                     937.546
_exptl_crystal_colour            'light yellow'
_exptl_crystal_description       block
_cell_formula_units_Z            2
loop_
_atom_site_label
_atom_site_type_symbol
_atom_site_fract_x
_atom_site_fract_y
_atom_site_fract_z
P1 P 0.11831(6) 0.28550(6) 0.13788(5)
P2 P 0.89683(6) 0.20806(6) -0.14378(5)
O1 O -0.02078(19) 0.3027(2) 0.08795(15)
H2 H 0.006(3) 0.249(3) -0.001(3)
O2 O 0.0745(2) 0.41212(19) 0.21464(14)
O3 O 0.1760(2) 0.1270(2) 0.21109(18)
H3 H 0.145(4) 0.075(4) 0.203(3)
O4 O 0.9341(2) 0.08186(19) -0.21882(15)
O5 O 1.04088(18) 0.1874(2) -0.09760(15)
O6 O 0.8406(2) 0.3659(2) -0.21806(17)
H4 H 0.865(4) 0.429(4) -0.209(3)
C1 C 0.2851(3) 0.2785(4) 0.0178(2)
H9 H 0.303(4) 0.199(4) -0.036(3)
H10 H 0.249(4) 0.377(4) -0.024(3)
C2 C 0.4400(3) 0.2491(4) 0.0523(2)
H11 H 0.418(4) 0.327(4) 0.104(3)
H12 H 0.479(4) 0.152(4) 0.095(3)
C3 C 0.5747(3) 0.2504(4) -0.0538(2)
H13 H 0.541(4) 0.345(4) -0.096(3)
H14 H 0.598(4) 0.170(4) -0.107(3)
C4 C 0.7316(3) 0.2188(3) -0.0210(2)
H15 H 0.719(4) 0.298(3) 0.032(3)
H16 H 0.775(4) 0.118(4) 0.022(3)
N1 N 0.5257(3) -0.1819(2) 0.33762(19)
N2 N 0.5252(2) -0.9141(2) 0.34193(19)
H1 H 0.525(4) -1.041(3) 0.338(3)
C5 C 0.3876(3) -0.2017(3) 0.3793(2)
H17 H 0.308(3) -0.118(3) 0.410(2)
C6 C 0.3832(3) -0.3418(3) 0.3814(2)
H18 H 0.279(3) -0.345(3) 0.418(2)
C7 C 0.5240(3) -0.4682(3) 0.34011(19)
C8 C 0.6652(3) -0.4453(3) 0.2966(2)
H19 H 0.762(4) -0.524(4) 0.272(3)
C9 C 0.6627(3) -0.3028(3) 0.2968(3)
H20 H 0.755(3) -0.281(3) 0.260(2)
C10 C 0.5247(3) -0.6274(3) 0.34024(19)
C11 C 0.3839(3) -0.6516(3) 0.3858(2)
H21 H 0.287(4) -0.574(3) 0.419(3)
C12 C 0.3885(3) -0.7951(3) 0.3849(3)
H22 H 0.291(3) -0.817(3) 0.416(2)
C13 C 0.6613(3) -0.8930(3) 0.2971(3)
H23 H 0.745(4) -0.975(3) 0.272(3)
C14 C 0.6651(3) -0.7529(3) 0.2950(3)
H24 H 0.762(4) -0.745(3) 0.253(3)
O7 O -0.0324(3) 0.3970(3) 0.4554(2)
H5 H 0.002(4) 0.399(4) 0.375(3)
H6 H -0.002(6) 0.317(6) 0.480(5)
O8 O 1.0548(3) 0.0895(3) -0.4590(2)
H7 H 1.015(5) 0.090(4) -0.374(4)
H8 H 1.022(6) 0.163(6) -0.482(5)
loop_
_geom_bond_atom_site_label_1
_geom_bond_atom_site_label_2
_geom_bond_site_symmetry_1
_geom_bond_site_symmetry_2
P1 O1 1_555 1_555
P2 O4 1_555 1_555
N1 C5 1_555 1_555
N2 H1 1_555 1_555
O1 H2 1_555 1_555
O2 P1 1_555 1_555
O3 P1 1_555 1_555
H3 O3 1_555 1_555
O5 P2 1_555 1_555
O6 P2 1_555 1_555
H4 O6 1_555 1_555
O7 H5 1_555 1_555
H6 O7 1_555 1_555
O8 H7 1_555 1_555
H8 O8 1_555 1_555
C1 P1 1_555 1_555
H9 C1 1_555 1_555
H10 C1 1_555 1_555
C2 C1 1_555 1_555
H11 C2 1_555 1_555
H12 C2 1_555 1_555
C3 C2 1_555 1_555
H13 C3 1_555 1_555
H14 C3 1_555 1_555
C4 P2 1_555 1_555
H15 C4 1_555 1_555
H16 C4 1_555 1_555
C5 H17 1_555 1_555
C6 C5 1_555 1_555
H18 C6 1_555 1_555
C7 C6 1_555 1_555
C8 C7 1_555 1_555
H19 C8 1_555 1_555
C9 N1 1_555 1_555
H20 C9 1_555 1_555
C10 C7 1_555 1_555
C11 C10 1_555 1_555
H21 C11 1_555 1_555
C12 N2 1_555 1_555
H22 C12 1_555 1_555
C13 N2 1_555 1_555
H23 C13 1_555 1_555
C14 C10 1_555 1_555
H24 C14 1_555 1_555
C3 C4 1_555 1_555
C8 C9 1_555 1_555
C11 C12 1_555 1_555
C13 C14 1_555 1_555

#END
