
#######################################################################
#
#                 Cambridge Crystallographic Data Centre
#                                CCDC 
#
#######################################################################
#
# If this CIF has been generated from an entry in the Cambridge 
# Structural Database, then it will include bibliographic, chemical, 
# crystal, experimental, refinement or atomic coordinate data resulting 
# from the CCDC's data processing and validation procedures.
#
#######################################################################

data_OBUBAO
_chemical_formula_moiety         'C16 H20 N4'
_chemical_name_systematic        N,N'-bis(4-Pyridylmethyl)piperazine
_symmetry_cell_setting           monoclinic
_symmetry_space_group_name_H-M   'P 21/c'
_symmetry_Int_Tables_number      14
_space_group_name_Hall           '-P 2ybc'
loop_
_symmetry_equiv_pos_site_id
_symmetry_equiv_pos_as_xyz
1 x,y,z
2 x,1/2-y,1/2+z
3 -x,-y,-z
4 -x,1/2+y,1/2-z
_cell_length_a                   9.2448(18)
_cell_length_b                   9.948(2)
_cell_length_c                   8.8817(18)
_cell_angle_alpha                90
_cell_angle_beta                 116.21(3)
_cell_angle_gamma                90
_cell_volume                     732.841
_exptl_crystal_colour            colorless
_exptl_crystal_description       prismatic
_cell_formula_units_Z            2
loop_
_atom_site_label
_atom_site_type_symbol
_atom_site_fract_x
_atom_site_fract_y
_atom_site_fract_z
C1 C 0.73712(17) 0.61042(13) 0.00899(16)
H1 H 0.7839 0.6660 0.1025
C2 C 0.69555(18) 0.66116(14) -0.14934(18)
H2 H 0.7167 0.7515 -0.1583
C3 C 0.59903(18) 0.46051(15) -0.27085(18)
H3 H 0.5503 0.4077 -0.3667
C4 C 0.63764(17) 0.40062(13) -0.11751(17)
H4 H 0.6159 0.3099 -0.1122
C5 C 0.70864(15) 0.47574(12) 0.02794(16)
C6 C 0.74612(17) 0.41306(13) 0.19577(16)
H5 H 0.6465 0.4039 0.2062
H6 H 0.7888 0.3235 0.1988
C7 C 1.02520(17) 0.47502(15) 0.35733(17)
H7 H 1.0291 0.5057 0.2555
H8 H 1.0565 0.3811 0.3735
C8 C 0.85816(18) 0.44399(16) 0.49529(18)
N1 N 0.62727(15) 0.58961(12) -0.29014(15)
N2 N 0.86098(13) 0.48876(10) 0.33939(13)
H9 H 0.8890(19) 0.3453(16) 0.517(2)
H10 H 0.749(2) 0.4572(17) 0.485(2)
C8B C 1.14184(18) 0.55601(16) 0.50471(18)
N2B N 1.13902(13) 0.51124(10) 0.66061(13)
C6B C 1.25388(17) 0.58694(13) 0.80423(16)
C5B C 1.29136(15) 0.52426(12) 0.97206(16)
C1B C 1.26288(17) 0.38958(13) 0.99101(16)
H1B H 1.2161 0.3340 0.8975
C2B C 1.30445(18) 0.33884(14) 1.14934(18)
H2B H 1.2833 0.2485 1.1583
N1B N 1.37273(15) 0.41039(12) 1.29014(15)
C3B C 1.40097(18) 0.53949(15) 1.27085(18)
H3B H 1.4497 0.5923 1.3667
C4B C 1.36236(17) 0.59938(13) 1.11751(17)
H4B H 1.3841 0.6901 1.1122
H5B H 1.3535 0.5961 0.7938
H6B H 1.2112 0.6765 0.8012
C7B C 0.97480(17) 0.52498(15) 0.64267(17)
H7B H 0.9709 0.4943 0.7445
H8B H 0.9435 0.6189 0.6265
H9B H 1.1110(19) 0.6547(16) 0.483(2)
H10B H 1.251(2) 0.5428(17) 0.515(2)
loop_
_geom_bond_atom_site_label_1
_geom_bond_atom_site_label_2
_geom_bond_site_symmetry_1
_geom_bond_site_symmetry_2
C1 H1 1_555 1_555
C2 C1 1_555 1_555
H2 C2 1_555 1_555
C3 H3 1_555 1_555
C4 C3 1_555 1_555
H4 C4 1_555 1_555
C5 C1 1_555 1_555
C6 C5 1_555 1_555
H5 C6 1_555 1_555
H6 C6 1_555 1_555
C7 H7 1_555 1_555
H8 C7 1_555 1_555
C8 N2 1_555 1_555
N1 C2 1_555 1_555
N2 C6 1_555 1_555
H9 C8 1_555 1_555
H10 C8 1_555 1_555
C8B C7 1_555 1_555
N2B C8B 1_555 1_555
C6B N2B 1_555 1_555
C5B C6B 1_555 1_555
C1B C5B 1_555 1_555
H1B C1B 1_555 1_555
C2B C1B 1_555 1_555
H2B C2B 1_555 1_555
N1B C2B 1_555 1_555
C3B N1B 1_555 1_555
H3B C3B 1_555 1_555
C4B C5B 1_555 1_555
H4B C4B 1_555 1_555
H5B C6B 1_555 1_555
H6B C6B 1_555 1_555
C7B C8 1_555 1_555
H7B C7B 1_555 1_555
H8B C7B 1_555 1_555
H9B C8B 1_555 1_555
H10B C8B 1_555 1_555
C3 N1 1_555 1_555
C4 C5 1_555 1_555
C7 N2 1_555 1_555
N2B C7B 1_555 1_555
C3B C4B 1_555 1_555

#END
