
#######################################################################
#
#                 Cambridge Crystallographic Data Centre
#                                CCDC 
#
#######################################################################
#
# If this CIF has been generated from an entry in the Cambridge 
# Structural Database, then it will include bibliographic, chemical, 
# crystal, experimental, refinement or atomic coordinate data resulting 
# from the CCDC's data processing and validation procedures.
#
#######################################################################

data_OBUDEX
_chemical_formula_moiety         'C28 H31 N1 O2'
_chemical_name_systematic        
2,4-di-t-butyl-6-(9-methoxyphenanthridin-6-yl)phenol
_symmetry_cell_setting           monoclinic
_symmetry_space_group_name_H-M   'P 21/c'
_symmetry_Int_Tables_number      14
_space_group_name_Hall           '-P 2ybc'
loop_
_symmetry_equiv_pos_site_id
_symmetry_equiv_pos_as_xyz
1 x,y,z
2 -x,1/2+y,1/2-z
3 -x,-y,-z
4 x,1/2-y,1/2+z
_cell_length_a                   21.1907(9)
_cell_length_b                   6.4125(3)
_cell_length_c                   17.5910(7)
_cell_angle_alpha                90
_cell_angle_beta                 98.380(3)
_cell_angle_gamma                90
_cell_volume                     2364.84
_exptl_crystal_colour            yellow
_exptl_crystal_description       needle
_cell_formula_units_Z            4
loop_
_atom_site_label
_atom_site_type_symbol
_atom_site_fract_x
_atom_site_fract_y
_atom_site_fract_z
O1 O 0.31998(8) 0.9258(3) 0.81233(9)
H1 H 0.3517(14) 0.889(5) 0.7805(17)
C1 C 0.26345(10) 0.8662(4) 0.77133(13)
C2 C 0.26261(10) 0.7285(3) 0.70833(12)
C3 C 0.20453(11) 0.6878(4) 0.66313(13)
H2 H 0.2040 0.6026 0.6189
C4 C 0.14761(11) 0.7661(4) 0.67996(14)
C5 C 0.15058(11) 0.8903(4) 0.74544(14)
H3 H 0.1116 0.9401 0.7593
C6 C 0.20694(11) 0.9460(4) 0.79179(13)
C7 C 0.0852(8) 0.734(2) 0.6235(8)
C8 C 0.0748(4) 0.4985(13) 0.6178(7)
H4 H 0.1119 0.4323 0.6005
H5 H 0.0692 0.4432 0.6683
H6 H 0.0365 0.4689 0.5809
C9 C 0.0288(4) 0.8409(18) 0.6501(6)
H7 H 0.0366 0.9915 0.6534
H8 H -0.0096 0.8131 0.6134
H9 H 0.0230 0.7874 0.7008
C10 C 0.0913(3) 0.8194(14) 0.5437(3)
H10 H 0.1276 0.7530 0.5246
H11 H 0.0521 0.7895 0.5084
H12 H 0.0981 0.9705 0.5468
C11 C 0.20714(11) 1.0890(4) 0.86206(14)
C12 C 0.24236(14) 1.2919(4) 0.85081(17)
H13 H 0.2217 1.3622 0.8043
H14 H 0.2411 1.3829 0.8953
H15 H 0.2868 1.2608 0.8456
C13 C 0.23884(13) 0.9770(5) 0.93471(14)
H16 H 0.2159 0.8471 0.9414
H17 H 0.2833 0.9451 0.9297
H18 H 0.2376 1.0672 0.9795
C14 C 0.13931(13) 1.1473(5) 0.87498(17)
H19 H 0.1153 1.0202 0.8824
H20 H 0.1413 1.2358 0.9207
H21 H 0.1180 1.2232 0.8301
C15 C 0.32295(10) 0.6471(3) 0.68597(12)
N1 N 0.37295(8) 0.7695(3) 0.70255(10)
C16 C 0.42949(10) 0.7243(3) 0.67655(12)
C17 C 0.48014(11) 0.8630(4) 0.69530(13)
H22 H 0.4748 0.9821 0.7259
C18 C 0.53759(11) 0.8288(4) 0.66999(13)
H23 H 0.5721 0.9224 0.6839
C19 C 0.54519(11) 0.6558(4) 0.62375(13)
H24 H 0.5848 0.6322 0.6060
C20 C 0.49556(11) 0.5204(4) 0.60408(13)
H25 H 0.5013 0.4038 0.5725
C21 C 0.43625(10) 0.5497(3) 0.62958(12)
C22 C 0.38285(10) 0.4085(3) 0.61365(12)
C23 C 0.38601(11) 0.2265(4) 0.56950(13)
H26 H 0.4230 0.1992 0.5465
C24 C 0.33623(11) 0.0887(3) 0.55948(13)
C25 C 0.28245(11) 0.1232(4) 0.59575(13)
H27 H 0.2489 0.0238 0.5906
C26 C 0.27821(11) 0.2980(4) 0.63820(13)
H28 H 0.2419 0.3180 0.6634
C27 C 0.32705(10) 0.4518(3) 0.64571(12)
O2 O 0.33462(8) -0.0906(3) 0.51780(10)
C28 C 0.38538(13) -0.1248(4) 0.47413(16)
H29 H 0.3788 -0.2581 0.4469
H30 H 0.3861 -0.0116 0.4368
H31 H 0.4261 -0.1281 0.5087
C29? C 0.0834(9) 0.700(2) 0.6366(8)
C30? C 0.0441(5) 0.8949(16) 0.6119(7)
H32? H 0.0026 0.8534 0.5839
H33? H 0.0377 0.9756 0.6575
H34? H 0.0668 0.9805 0.5785
C31? C 0.0897(4) 0.5728(19) 0.5643(5)
H35? H 0.0472 0.5342 0.5386
H36? H 0.1114 0.6566 0.5294
H37? H 0.1145 0.4463 0.5788
C32? C 0.0460(3) 0.5638(15) 0.6874(5)
H38? H 0.0049 0.5237 0.6580
H39? H 0.0708 0.4381 0.7034
H40? H 0.0387 0.6431 0.7329
loop_
_geom_bond_atom_site_label_1
_geom_bond_atom_site_label_2
_geom_bond_site_symmetry_1
_geom_bond_site_symmetry_2
O1 H1 1_555 1_555
C1 O1 1_555 1_555
C2 C1 1_555 1_555
C3 C2 1_555 1_555
H2 C3 1_555 1_555
C4 C3 1_555 1_555
C5 C4 1_555 1_555
H3 C5 1_555 1_555
C6 C1 1_555 1_555
C7 C4 1_555 1_555
C8 C7 1_555 1_555
H4 C8 1_555 1_555
H5 C8 1_555 1_555
H6 C8 1_555 1_555
C9 C7 1_555 1_555
H7 C9 1_555 1_555
H8 C9 1_555 1_555
H9 C9 1_555 1_555
C10 C7 1_555 1_555
H10 C10 1_555 1_555
H11 C10 1_555 1_555
H12 C10 1_555 1_555
C11 C6 1_555 1_555
C12 C11 1_555 1_555
H13 C12 1_555 1_555
H14 C12 1_555 1_555
H15 C12 1_555 1_555
C13 C11 1_555 1_555
H16 C13 1_555 1_555
H17 C13 1_555 1_555
H18 C13 1_555 1_555
C14 C11 1_555 1_555
H19 C14 1_555 1_555
H20 C14 1_555 1_555
H21 C14 1_555 1_555
C15 C2 1_555 1_555
N1 C15 1_555 1_555
C16 N1 1_555 1_555
C17 C16 1_555 1_555
H22 C17 1_555 1_555
C18 C17 1_555 1_555
H23 C18 1_555 1_555
C19 C18 1_555 1_555
H24 C19 1_555 1_555
C20 C19 1_555 1_555
H25 C20 1_555 1_555
C21 C16 1_555 1_555
C22 C21 1_555 1_555
C23 C22 1_555 1_555
H26 C23 1_555 1_555
C24 C23 1_555 1_555
C25 C24 1_555 1_555
H27 C25 1_555 1_555
C26 C25 1_555 1_555
H28 C26 1_555 1_555
C27 C15 1_555 1_555
O2 C24 1_555 1_555
C28 O2 1_555 1_555
H29 C28 1_555 1_555
H30 C28 1_555 1_555
H31 C28 1_555 1_555
C5 C6 1_555 1_555
C20 C21 1_555 1_555
C22 C27 1_555 1_555
C26 C27 1_555 1_555

#END
