
#######################################################################
#
#                 Cambridge Crystallographic Data Centre
#                                CCDC 
#
#######################################################################
#
# If this CIF has been generated from an entry in the Cambridge 
# Structural Database, then it will include bibliographic, chemical, 
# crystal, experimental, refinement or atomic coordinate data resulting 
# from the CCDC's data processing and validation procedures.
#
#######################################################################

data_OBUDIB
_chemical_formula_moiety         'C29 H33 N1 O3,0.5(C5 H12)'
_chemical_name_systematic        
'2,4-di-t-butyl-6-(7,9-dimethoxyphenanthridin-6-yl)phenol pentane solvate'
_symmetry_cell_setting           triclinic
_symmetry_space_group_name_H-M   'P -1'
_symmetry_Int_Tables_number      2
_space_group_name_Hall           '-P 1'
loop_
_symmetry_equiv_pos_site_id
_symmetry_equiv_pos_as_xyz
1 x,y,z
2 -x,-y,-z
_cell_length_a                   10.7901(14)
_cell_length_b                   14.0934(18)
_cell_length_c                   18.874(3)
_cell_angle_alpha                100.287(12)
_cell_angle_beta                 94.754(12)
_cell_angle_gamma                105.608(10)
_cell_volume                     2693.8
_exptl_crystal_colour            colorless
_exptl_crystal_description       plate
_cell_formula_units_Z            4
loop_
_atom_site_label
_atom_site_type_symbol
_atom_site_fract_x
_atom_site_fract_y
_atom_site_fract_z
N1 N 0.6777(8) 0.6049(7) 0.3884(6)
C1 C 0.5548(10) 0.6034(7) 0.3748(6)
C2 C 0.4792(9) 0.6141(7) 0.4333(6)
C3 C 0.3415(10) 0.6109(8) 0.4193(7)
C4 C 0.2734(12) 0.6234(9) 0.4761(7)
H1 H 0.1860 0.6246 0.4668
C5 C 0.3285(11) 0.6344(8) 0.5472(7)
C6 C 0.4568(10) 0.6375(8) 0.5634(7)
H2 H 0.4945 0.6470 0.6124
C7 C 0.5311(10) 0.6265(8) 0.5062(7)
C8 C 0.6680(9) 0.6316(7) 0.5196(6)
C9 C 0.7362(10) 0.6446(8) 0.5888(7)
H3 H 0.6919 0.6518 0.6299
C10 C 0.8657(10) 0.6475(8) 0.5995(7)
H4 H 0.9113 0.6598 0.6470
C11 C 0.9270(12) 0.6318(9) 0.5381(7)
H5 H 1.0150 0.6312 0.5445
C12 C 0.8658(10) 0.6173(8) 0.4692(7)
H6 H 0.9112 0.6085 0.4286
C13 C 0.7337(10) 0.6156(8) 0.4590(7)
O1 O 0.2915(8) 0.5993(7) 0.3507(5)
C14 C 0.1557(12) 0.5906(13) 0.3358(9)
H7 H 0.1314 0.5825 0.2834
H8 H 0.1045 0.5319 0.3523
H9 H 0.1386 0.6516 0.3617
O2 O 0.2505(8) 0.6454(6) 0.6002(5)
C15 C 0.2965(13) 0.6507(10) 0.6735(7)
H10 H 0.2289 0.6585 0.7038
H11 H 0.3185 0.5887 0.6778
H12 H 0.3740 0.7085 0.6898
C16 C 0.5023(10) 0.5824(7) 0.2970(6)
C17 C 0.5048(11) 0.6561(8) 0.2558(7)
C18 C 0.4507(11) 0.6305(8) 0.1822(7)
C19 C 0.3927(11) 0.5264(8) 0.1516(7)
H13 H 0.3520 0.5067 0.1026
C20 C 0.3936(12) 0.4527(8) 0.1913(7)
C21 C 0.4462(11) 0.4784(8) 0.2613(7)
H14 H 0.4464 0.4272 0.2879
O3 O 0.5519(8) 0.7568(5) 0.2892(5)
C22 C 0.4530(10) 0.7067(8) 0.1353(6)
C23 C 0.3814(12) 0.7820(8) 0.1663(8)
H15 H 0.3840 0.8309 0.1351
H16 H 0.2909 0.7457 0.1681
H17 H 0.4238 0.8174 0.2155
C24 C 0.5953(10) 0.7680(9) 0.1349(8)
H18 H 0.5969 0.8177 0.1044
H19 H 0.6348 0.8029 0.1846
H20 H 0.6444 0.7224 0.1154
C25 C 0.3938(12) 0.6606(10) 0.0567(7)
H21 H 0.3986 0.7143 0.0295
H22 H 0.4419 0.6156 0.0350
H23 H 0.3027 0.6223 0.0548
C26 C 0.3238(11) 0.3414(8) 0.1534(6)
C27 C 0.3413(15) 0.2689(9) 0.2037(8)
H24 H 0.3066 0.2863 0.2490
H25 H 0.2945 0.1994 0.1792
H26 H 0.4338 0.2751 0.2146
C28 C 0.1770(11) 0.3273(9) 0.1356(8)
H27 H 0.1417 0.3458 0.1805
H28 H 0.1633 0.3705 0.1021
H29 H 0.1328 0.2567 0.1128
C29 C 0.3791(13) 0.3123(9) 0.0827(7)
H30 H 0.4724 0.3213 0.0940
H31 H 0.3349 0.2417 0.0599
H32 H 0.3654 0.3555 0.0493
N2 N 0.7700(9) 0.8313(7) 0.3893(5)
C30 C 0.8864(11) 0.8261(8) 0.3742(6)
C31 C 0.9923(10) 0.8504(7) 0.4308(6)
C32 C 1.1252(11) 0.8506(9) 0.4162(7)
C33 C 1.2207(12) 0.8702(8) 0.4730(7)
H33 H 1.3041 0.8656 0.4632
C34 C 1.2012(11) 0.8967(9) 0.5448(7)
C35 C 1.0795(10) 0.8998(8) 0.5612(7)
H34 H 1.0658 0.9184 0.6102
C36 C 0.9766(10) 0.8751(8) 0.5043(6)
C37 C 0.8459(10) 0.8768(8) 0.5200(7)
C38 C 0.8133(11) 0.8980(8) 0.5904(7)
H35 H 0.8783 0.9128 0.6312
C39 C 0.6879(10) 0.8978(8) 0.6014(7)
H36 H 0.6656 0.9089 0.6492
C40 C 0.5954(12) 0.8813(9) 0.5415(7)
H37 H 0.5106 0.8843 0.5493
C41 C 0.6209(11) 0.8607(8) 0.4715(7)
H38 H 0.5555 0.8490 0.4314
C42 C 0.7489(10) 0.8572(7) 0.4608(7)
O4 O 1.1414(8) 0.8310(7) 0.3468(5)
C43 C 1.2695(12) 0.8394(13) 0.3297(9)
H39 H 1.2670 0.8228 0.2769
H40 H 1.3248 0.9084 0.3489
H41 H 1.3049 0.7926 0.3518
O5 O 1.3066(8) 0.9167(6) 0.5960(5)
C44 C 1.2964(13) 0.9490(10) 0.6692(8)
H42 H 1.3799 0.9600 0.6988
H43 H 1.2727 1.0121 0.6755
H44 H 1.2293 0.8976 0.6845
C45 C 0.8936(11) 0.8004(8) 0.2956(7)
C46 C 0.8807(11) 0.7042(8) 0.2566(7)
C47 C 0.8917(11) 0.6850(7) 0.1821(6)
C48 C 0.9315(12) 0.7699(8) 0.1499(7)
H45 H 0.9513 0.7602 0.1015
C49 C 0.9424(12) 0.8674(8) 0.1875(7)
C50 C 0.9286(11) 0.8824(8) 0.2586(7)
H46 H 0.9424 0.9493 0.2850
O6 O 0.8500(7) 0.6238(5) 0.2907(5)
C51 C 0.8669(9) 0.5806(8) 0.1367(6)
C52 C 0.9553(11) 0.5233(9) 0.1658(8)
H47 H 0.9356 0.4561 0.1346
H48 H 1.0463 0.5603 0.1659
H49 H 0.9404 0.5168 0.2154
C53 C 0.7239(10) 0.5187(9) 0.1362(8)
H50 H 0.7080 0.4509 0.1066
H51 H 0.7084 0.5140 0.1861
H52 H 0.6651 0.5521 0.1156
C54 C 0.8893(12) 0.5806(10) 0.0565(7)
H53 H 0.8717 0.5111 0.0297
H54 H 0.8307 0.6128 0.0342
H55 H 0.9795 0.6180 0.0551
C55 C 0.9860(11) 0.9559(7) 0.1476(7)
C56 C 0.9754(16) 1.0553(8) 0.1934(8)
H56 H 1.0295 1.0707 0.2407
H57 H 1.0053 1.1102 0.1678
H58 H 0.8847 1.0481 0.2007
C57 C 0.9000(12) 0.9345(10) 0.0740(7)
H59 H 0.9050 0.8717 0.0439
H60 H 0.8098 0.9280 0.0821
H61 H 0.9304 0.9901 0.0492
C58 C 1.1294(11) 0.9702(10) 0.1354(9)
H62 H 1.1839 0.9839 0.1824
H63 H 1.1372 0.9088 0.1047
H64 H 1.1580 1.0271 0.1115
C59 C -0.513(3) 0.053(2) 0.142(3)
H65 H -0.5457 0.0556 0.1889
H66 H -0.5781 0.0592 0.1053
H67 H -0.4949 -0.0122 0.1272
C60 C -0.395(4) 0.133(3) 0.148(2)
H68 H -0.3299 0.1271 0.1860
H69 H -0.4132 0.1985 0.1641
C61 C -0.343(2) 0.1311(18) 0.0796(18)
H70 H -0.4079 0.1362 0.0411
H71 H -0.3198 0.0680 0.0644
C62 C -0.227(3) 0.219(3) 0.094(2)
H72 H -0.2549 0.2814 0.1031
H73 H -0.1719 0.2184 0.1378
C63 C -0.152(2) 0.2215(19) 0.0335(17)
H74 H -0.0763 0.2813 0.0455
H75 H -0.1229 0.1608 0.0245
H76 H -0.2059 0.2239 -0.0102
loop_
_geom_bond_atom_site_label_1
_geom_bond_atom_site_label_2
_geom_bond_site_symmetry_1
_geom_bond_site_symmetry_2
N1 C1 1_555 1_555
C1 C2 1_555 1_555
C2 C3 1_555 1_555
C3 C4 1_555 1_555
C4 H1 1_555 1_555
C5 C4 1_555 1_555
C6 C5 1_555 1_555
H2 C6 1_555 1_555
C7 C2 1_555 1_555
C8 C7 1_555 1_555
C9 C8 1_555 1_555
H3 C9 1_555 1_555
C10 C9 1_555 1_555
H4 C10 1_555 1_555
C11 C10 1_555 1_555
H5 C11 1_555 1_555
C12 C11 1_555 1_555
H6 C12 1_555 1_555
C13 N1 1_555 1_555
O1 C3 1_555 1_555
C14 O1 1_555 1_555
H7 C14 1_555 1_555
H8 C14 1_555 1_555
H9 C14 1_555 1_555
O2 C5 1_555 1_555
C15 O2 1_555 1_555
H10 C15 1_555 1_555
H11 C15 1_555 1_555
H12 C15 1_555 1_555
C16 C1 1_555 1_555
C17 C16 1_555 1_555
C18 C17 1_555 1_555
C19 C18 1_555 1_555
H13 C19 1_555 1_555
C20 C19 1_555 1_555
C21 C16 1_555 1_555
H14 C21 1_555 1_555
O3 C17 1_555 1_555
C22 C18 1_555 1_555
C23 C22 1_555 1_555
H15 C23 1_555 1_555
H16 C23 1_555 1_555
H17 C23 1_555 1_555
C24 C22 1_555 1_555
H18 C24 1_555 1_555
H19 C24 1_555 1_555
H20 C24 1_555 1_555
C25 C22 1_555 1_555
H21 C25 1_555 1_555
H22 C25 1_555 1_555
H23 C25 1_555 1_555
C26 C20 1_555 1_555
C27 C26 1_555 1_555
H24 C27 1_555 1_555
H25 C27 1_555 1_555
H26 C27 1_555 1_555
C28 C26 1_555 1_555
H27 C28 1_555 1_555
H28 C28 1_555 1_555
H29 C28 1_555 1_555
C29 C26 1_555 1_555
H30 C29 1_555 1_555
H31 C29 1_555 1_555
H32 C29 1_555 1_555
N2 C30 1_555 1_555
C30 C31 1_555 1_555
C31 C32 1_555 1_555
C32 C33 1_555 1_555
C33 H33 1_555 1_555
C34 C33 1_555 1_555
C35 C34 1_555 1_555
H34 C35 1_555 1_555
C36 C31 1_555 1_555
C37 C36 1_555 1_555
C38 C37 1_555 1_555
H35 C38 1_555 1_555
C39 C38 1_555 1_555
H36 C39 1_555 1_555
C40 C39 1_555 1_555
H37 C40 1_555 1_555
C41 C40 1_555 1_555
H38 C41 1_555 1_555
C42 N2 1_555 1_555
O4 C32 1_555 1_555
C43 O4 1_555 1_555
H39 C43 1_555 1_555
H40 C43 1_555 1_555
H41 C43 1_555 1_555
O5 C34 1_555 1_555
C44 O5 1_555 1_555
H42 C44 1_555 1_555
H43 C44 1_555 1_555
H44 C44 1_555 1_555
C45 C30 1_555 1_555
C46 C45 1_555 1_555
C47 C46 1_555 1_555
C48 C47 1_555 1_555
H45 C48 1_555 1_555
C49 C48 1_555 1_555
C50 C45 1_555 1_555
H46 C50 1_555 1_555
O6 C46 1_555 1_555
C51 C47 1_555 1_555
C52 C51 1_555 1_555
H47 C52 1_555 1_555
H48 C52 1_555 1_555
H49 C52 1_555 1_555
C53 C51 1_555 1_555
H50 C53 1_555 1_555
H51 C53 1_555 1_555
H52 C53 1_555 1_555
C54 C51 1_555 1_555
H53 C54 1_555 1_555
H54 C54 1_555 1_555
H55 C54 1_555 1_555
C55 C49 1_555 1_555
C56 C55 1_555 1_555
H56 C56 1_555 1_555
H57 C56 1_555 1_555
H58 C56 1_555 1_555
C57 C55 1_555 1_555
H59 C57 1_555 1_555
H60 C57 1_555 1_555
H61 C57 1_555 1_555
C58 C55 1_555 1_555
H62 C58 1_555 1_555
H63 C58 1_555 1_555
H64 C58 1_555 1_555
C59 H65 1_555 1_555
H66 C59 1_555 1_555
H67 C59 1_555 1_555
C60 C59 1_555 1_555
H68 C60 1_555 1_555
H69 C60 1_555 1_555
C61 C60 1_555 1_555
H70 C61 1_555 1_555
H71 C61 1_555 1_555
C62 C61 1_555 1_555
H72 C62 1_555 1_555
H73 C62 1_555 1_555
C63 C62 1_555 1_555
H74 C63 1_555 1_555
H75 C63 1_555 1_555
H76 C63 1_555 1_555
C6 C7 1_555 1_555
C8 C13 1_555 1_555
C12 C13 1_555 1_555
C20 C21 1_555 1_555
C35 C36 1_555 1_555
C37 C42 1_555 1_555
C41 C42 1_555 1_555
C49 C50 1_555 1_555

#END
