
#######################################################################
#
#                 Cambridge Crystallographic Data Centre
#                                CCDC 
#
#######################################################################
#
# If this CIF has been generated from an entry in the Cambridge 
# Structural Database, then it will include bibliographic, chemical, 
# crystal, experimental, refinement or atomic coordinate data resulting 
# from the CCDC's data processing and validation procedures.
#
#######################################################################

data_OBUDAT
_chemical_formula_moiety         'C29 H29 N1 O1 S1'
_chemical_name_systematic        
2-([1]benzothieno[2,3-c]quinolin-6-yl)-4,6-di-t-butylphenol
_symmetry_cell_setting           monoclinic
_symmetry_space_group_name_H-M   'P 21/c'
_symmetry_Int_Tables_number      14
_space_group_name_Hall           '-P 2ybc'
loop_
_symmetry_equiv_pos_site_id
_symmetry_equiv_pos_as_xyz
1 x,y,z
2 -x,1/2+y,1/2-z
3 -x,-y,-z
4 x,1/2-y,1/2+z
_cell_length_a                   10.442(3)
_cell_length_b                   22.887(7)
_cell_length_c                   10.283(3)
_cell_angle_alpha                90
_cell_angle_beta                 105.520(7)
_cell_angle_gamma                90
_cell_volume                     2367.89
_exptl_crystal_colour            yellow
_exptl_crystal_description       polyhedron
_cell_formula_units_Z            4
loop_
_atom_site_label
_atom_site_type_symbol
_atom_site_fract_x
_atom_site_fract_y
_atom_site_fract_z
S1 S 0.45230(15) 0.39650(7) 0.54530(15)
C1 C 0.3398(5) 0.4444(2) 0.5909(6)
C2 C 0.2967(5) 0.4407(2) 0.7105(5)
N1 N 0.2018(4) 0.4774(2) 0.7286(4)
C3 C 0.1556(6) 0.5207(2) 0.6353(6)
C4 C 0.0603(6) 0.5587(3) 0.6629(6)
H1 H 0.0318 0.5532 0.7424
C5 C 0.0083(6) 0.6034(3) 0.5775(7)
H2 H -0.0586 0.6278 0.5954
C6 C 0.0541(7) 0.6133(3) 0.4628(7)
H3 H 0.0217 0.6459 0.4064
C7 C 0.1451(6) 0.5763(3) 0.4311(6)
H4 H 0.1749 0.5832 0.3529
C8 C 0.1943(5) 0.5280(2) 0.5156(6)
C9 C 0.2865(5) 0.4851(2) 0.4894(5)
C10 C 0.3336(6) 0.4758(3) 0.3696(6)
C11 C 0.2980(7) 0.5026(3) 0.2418(6)
H5 H 0.2313 0.5320 0.2222
C12 C 0.3598(7) 0.4862(3) 0.1464(6)
H6 H 0.3350 0.5046 0.0605
C13 C 0.4588(7) 0.4431(3) 0.1709(7)
H7 H 0.5023 0.4335 0.1036
C14 C 0.4917(6) 0.4153(3) 0.2920(6)
H8 H 0.5573 0.3854 0.3091
C15 C 0.4291(6) 0.4306(3) 0.3910(6)
C16 C 0.3428(5) 0.3957(2) 0.8161(5)
C17 C 0.2570(5) 0.3726(2) 0.8869(6)
C18 C 0.2984(5) 0.3265(2) 0.9803(5)
C19 C 0.4307(5) 0.3070(2) 1.0022(5)
H9 H 0.4604 0.2759 1.0640
C20 C 0.5193(5) 0.3307(3) 0.9384(6)
C21 C 0.4742(5) 0.3747(3) 0.8462(6)
H10 H 0.5339 0.3915 0.8013
O1 O 0.1314(4) 0.39399(19) 0.8672(4)
H11 H 0.131(8) 0.436(4) 0.815(8)
C22 C 0.2029(6) 0.2979(3) 1.0507(6)
C23 C 0.0871(6) 0.2697(3) 0.9440(7)
H12 H 0.0227 0.2535 0.9882
H13 H 0.1214 0.2383 0.8977
H14 H 0.0435 0.2993 0.8781
C24 C 0.1488(7) 0.3424(3) 1.1350(6)
H15 H 0.0857 0.3230 1.1762
H16 H 0.1037 0.3742 1.0766
H17 H 0.2226 0.3584 1.2061
C25 C 0.2691(6) 0.2491(3) 1.1461(7)
H18 H 0.2050 0.2325 1.1902
H19 H 0.3453 0.2649 1.2146
H20 H 0.2996 0.2185 1.0947
C26 C 0.6631(6) 0.3081(3) 0.9723(6)
C27 C 0.7384(8) 0.3336(4) 0.8765(10)
H21 H 0.8235 0.3133 0.8896
H22 H 0.7546 0.3753 0.8956
H23 H 0.6852 0.3286 0.7830
C28 C 0.6641(7) 0.2424(3) 0.9599(9)
H24 H 0.7558 0.2287 0.9744
H25 H 0.6117 0.2308 0.8696
H26 H 0.6255 0.2249 1.0278
C29 C 0.7360(7) 0.3257(5) 1.1167(9)
H27 H 0.8247 0.3080 1.1414
H28 H 0.6857 0.3119 1.1787
H29 H 0.7442 0.3683 1.1225
loop_
_geom_bond_atom_site_label_1
_geom_bond_atom_site_label_2
_geom_bond_site_symmetry_1
_geom_bond_site_symmetry_2
S1 C1 1_555 1_555
C1 C2 1_555 1_555
C2 N1 1_555 1_555
N1 C3 1_555 1_555
C3 C4 1_555 1_555
C4 H1 1_555 1_555
C5 C4 1_555 1_555
H2 C5 1_555 1_555
C6 C5 1_555 1_555
H3 C6 1_555 1_555
C7 C6 1_555 1_555
H4 C7 1_555 1_555
C8 C3 1_555 1_555
C9 C1 1_555 1_555
C10 C9 1_555 1_555
C11 C10 1_555 1_555
H5 C11 1_555 1_555
C12 C11 1_555 1_555
H6 C12 1_555 1_555
C13 C12 1_555 1_555
H7 C13 1_555 1_555
C14 C13 1_555 1_555
H8 C14 1_555 1_555
C15 S1 1_555 1_555
C16 C2 1_555 1_555
C17 C16 1_555 1_555
C18 C17 1_555 1_555
C19 C18 1_555 1_555
H9 C19 1_555 1_555
C20 C19 1_555 1_555
C21 C16 1_555 1_555
H10 C21 1_555 1_555
O1 C17 1_555 1_555
H11 O1 1_555 1_555
C22 C18 1_555 1_555
C23 C22 1_555 1_555
H12 C23 1_555 1_555
H13 C23 1_555 1_555
H14 C23 1_555 1_555
C24 C22 1_555 1_555
H15 C24 1_555 1_555
H16 C24 1_555 1_555
H17 C24 1_555 1_555
C25 C22 1_555 1_555
H18 C25 1_555 1_555
H19 C25 1_555 1_555
H20 C25 1_555 1_555
C26 C20 1_555 1_555
C27 C26 1_555 1_555
H21 C27 1_555 1_555
H22 C27 1_555 1_555
H23 C27 1_555 1_555
C28 C26 1_555 1_555
H24 C28 1_555 1_555
H25 C28 1_555 1_555
H26 C28 1_555 1_555
C29 C26 1_555 1_555
H27 C29 1_555 1_555
H28 C29 1_555 1_555
H29 C29 1_555 1_555
C7 C8 1_555 1_555
C8 C9 1_555 1_555
C10 C15 1_555 1_555
C14 C15 1_555 1_555
C20 C21 1_555 1_555

#END
