
#######################################################################
#
#                 Cambridge Crystallographic Data Centre
#                                CCDC 
#
#######################################################################
#
# If this CIF has been generated from an entry in the Cambridge 
# Structural Database, then it will include bibliographic, chemical, 
# crystal, experimental, refinement or atomic coordinate data resulting 
# from the CCDC's data processing and validation procedures.
#
#######################################################################

data_OBUFAV
_chemical_formula_moiety         'C29 H33 N1 O2,C1 H4 O1'
_chemical_name_systematic        
'6-(3,5-di-t-butyl-2-methoxyphenyl)-9-methoxyphenanthridine methanol solvate'
_symmetry_cell_setting           triclinic
_symmetry_space_group_name_H-M   'P -1'
_symmetry_Int_Tables_number      2
_space_group_name_Hall           '-P 1'
loop_
_symmetry_equiv_pos_site_id
_symmetry_equiv_pos_as_xyz
1 x,y,z
2 -x,-y,-z
_cell_length_a                   9.4612(5)
_cell_length_b                   9.8627(5)
_cell_length_c                   14.7174(8)
_cell_angle_alpha                78.6852(15)
_cell_angle_beta                 74.5134(14)
_cell_angle_gamma                89.9165(15)
_cell_volume                     1295.85
_exptl_crystal_colour            colorless
_exptl_crystal_description       polyhedron
_cell_formula_units_Z            2
loop_
_atom_site_label
_atom_site_type_symbol
_atom_site_fract_x
_atom_site_fract_y
_atom_site_fract_z
N1 N 0.44599(17) 0.44293(16) 0.68309(11)
C1 C 0.5692(2) 0.37862(19) 0.67035(13)
C2 C 0.3471(2) 0.41945(19) 0.63268(13)
C3 C 0.2122(2) 0.4823(2) 0.65359(14)
H1 H 0.1941 0.5419 0.6984
C4 C 0.1065(2) 0.4584(2) 0.60985(15)
H2 H 0.0154 0.5012 0.6243
C5 C 0.1329(2) 0.3709(2) 0.54391(15)
H3 H 0.0593 0.3540 0.5139
C6 C 0.2638(2) 0.3094(2) 0.52219(14)
H4 H 0.2795 0.2495 0.4775
C7 C 0.3755(2) 0.33306(19) 0.56476(13)
C8 C 0.6122(2) 0.29165(19) 0.60048(12)
C9 C 0.7484(2) 0.2279(2) 0.58364(13)
H5 H 0.8142 0.2406 0.6204
C10 C 0.7868(2) 0.1486(2) 0.51558(14)
H6 H 0.8778 0.1052 0.5062
C11 C 0.6919(2) 0.13089(19) 0.45926(13)
C12 C 0.5598(2) 0.1922(2) 0.47279(13)
H7 H 0.4971 0.1810 0.4337
C13 C 0.5165(2) 0.27187(19) 0.54461(12)
O1 O 0.74249(16) 0.04998(15) 0.39360(10)
C14 C 0.6655(3) 0.0484(2) 0.32202(15)
H8 H 0.7154 -0.0098 0.2776
H9 H 0.6639 0.1430 0.2861
H10 H 0.5645 0.0110 0.3534
C15 C 0.6654(2) 0.40761(19) 0.73072(13)
C16 C 0.7171(2) 0.30505(19) 0.79173(13)
C17 C 0.8135(2) 0.3384(2) 0.84300(13)
C18 C 0.8429(2) 0.4785(2) 0.83666(13)
H11 H 0.9061 0.5033 0.8719
C19 C 0.7858(2) 0.58504(19) 0.78199(13)
C20 C 0.6995(2) 0.54648(19) 0.72785(13)
H12 H 0.6623 0.6165 0.6875
C21 C 0.5231(2) 0.1306(2) 0.84333(17)
H13 H 0.5063 0.0299 0.8550
H14 H 0.4666 0.1753 0.7999
H15 H 0.4917 0.1617 0.9046
O2 O 0.67597(15) 0.16674(13) 0.80037(9)
C22 C 0.8877(2) 0.2261(2) 0.90016(15)
C23 C 0.7745(3) 0.1320(2) 0.98296(16)
H16 H 0.8255 0.0639 1.0190
H17 H 0.7090 0.0837 0.9567
H18 H 0.7168 0.1882 1.0261
C24 C 0.9787(3) 0.1409(2) 0.83042(18)
H19 H 1.0241 0.0671 0.8662
H20 H 1.0556 0.2014 0.7812
H21 H 0.9145 0.1000 0.7995
C25 C 0.9950(3) 0.2903(3) 0.9443(2)
H22 H 1.0417 0.2163 0.9789
H23 H 0.9410 0.3460 0.9892
H24 H 1.0704 0.3493 0.8930
C26 C 0.8163(2) 0.7369(2) 0.78401(14)
C27 C 0.9810(3) 0.7672(3) 0.7666(3)
H25 H 0.9987 0.8637 0.7702
H26 H 1.0337 0.7521 0.7027
H27 H 1.0161 0.7054 0.8157
C28 C 0.7363(3) 0.7638(3) 0.8834(2)
H28 H 0.7550 0.8607 0.8854
H29 H 0.7722 0.7032 0.9327
H30 H 0.6306 0.7446 0.8957
C29 C 0.7631(5) 0.8368(3) 0.7088(3)
H31 H 0.7851 0.9322 0.7127
H32 H 0.6568 0.8211 0.7209
H33 H 0.8131 0.8213 0.6445
O3 O 0.3584(2) 0.6197(2) 0.82007(14)
H43 H 0.387(4) 0.567(3) 0.775(2)
C33 C 0.3662(3) 0.5315(3) 0.90537(17)
H44 H 0.4674 0.5038 0.8990
H45 H 0.3009 0.4490 0.9178
H46 H 0.3360 0.5799 0.9590
C30? C 0.679(2) 0.790(3) 0.843(2)
H34? H 0.6980 0.8873 0.8447
H35? H 0.5987 0.7829 0.8138
H36? H 0.6529 0.7348 0.9087
C31? C 0.862(5) 0.819(5) 0.6794(14)
H37? H 0.9512 0.7822 0.6433
H38? H 0.7829 0.8115 0.6492
H39? H 0.8821 0.9170 0.6791
C32? C 0.946(3) 0.753(4) 0.827(3)
H40? H 1.0338 0.7186 0.7882
H41? H 0.9632 0.8514 0.8262
H42? H 0.9218 0.7005 0.8931
loop_
_geom_bond_atom_site_label_1
_geom_bond_atom_site_label_2
_geom_bond_site_symmetry_1
_geom_bond_site_symmetry_2
N1 C1 1_555 1_555
C1 C8 1_555 1_555
C2 N1 1_555 1_555
C3 C2 1_555 1_555
H1 C3 1_555 1_555
C4 C3 1_555 1_555
H2 C4 1_555 1_555
C5 C4 1_555 1_555
H3 C5 1_555 1_555
C6 C5 1_555 1_555
H4 C6 1_555 1_555
C7 C2 1_555 1_555
C8 C9 1_555 1_555
C9 H5 1_555 1_555
C10 C9 1_555 1_555
H6 C10 1_555 1_555
C11 C10 1_555 1_555
C12 C11 1_555 1_555
H7 C12 1_555 1_555
C13 C7 1_555 1_555
O1 C11 1_555 1_555
C14 O1 1_555 1_555
H8 C14 1_555 1_555
H9 C14 1_555 1_555
H10 C14 1_555 1_555
C15 C1 1_555 1_555
C16 C15 1_555 1_555
C17 C16 1_555 1_555
C18 C17 1_555 1_555
H11 C18 1_555 1_555
C19 C18 1_555 1_555
C20 C15 1_555 1_555
H12 C20 1_555 1_555
C21 H13 1_555 1_555
H14 C21 1_555 1_555
H15 C21 1_555 1_555
O2 C16 1_555 1_555
C22 C17 1_555 1_555
C23 C22 1_555 1_555
H16 C23 1_555 1_555
H17 C23 1_555 1_555
H18 C23 1_555 1_555
C24 C22 1_555 1_555
H19 C24 1_555 1_555
H20 C24 1_555 1_555
H21 C24 1_555 1_555
C25 C22 1_555 1_555
H22 C25 1_555 1_555
H23 C25 1_555 1_555
H24 C25 1_555 1_555
C26 C19 1_555 1_555
C27 C26 1_555 1_555
H25 C27 1_555 1_555
H26 C27 1_555 1_555
H27 C27 1_555 1_555
C28 C26 1_555 1_555
H28 C28 1_555 1_555
H29 C28 1_555 1_555
H30 C28 1_555 1_555
C29 C26 1_555 1_555
H31 C29 1_555 1_555
H32 C29 1_555 1_555
H33 C29 1_555 1_555
O3 H43 1_555 1_555
C33 O3 1_555 1_555
H44 C33 1_555 1_555
H45 C33 1_555 1_555
H46 C33 1_555 1_555
C6 C7 1_555 1_555
C8 C13 1_555 1_555
C12 C13 1_555 1_555
C19 C20 1_555 1_555
C21 O2 1_555 1_555

#END
