
#######################################################################
#
#                 Cambridge Crystallographic Data Centre
#                                CCDC 
#
#######################################################################
#
# If this CIF has been generated from an entry in the Cambridge 
# Structural Database, then it will include bibliographic, chemical, 
# crystal, experimental, refinement or atomic coordinate data resulting 
# from the CCDC's data processing and validation procedures.
#
#######################################################################

data_OBUFEZ
_chemical_formula_moiety         'C30 H35 N1 O3'
_chemical_name_systematic        
6-(3,5-di-t-butyl-2-methoxyphenyl)-7,9-dimethoxyphenanthridine
_symmetry_cell_setting           triclinic
_symmetry_space_group_name_H-M   'P -1'
_symmetry_Int_Tables_number      2
_space_group_name_Hall           '-P 1'
loop_
_symmetry_equiv_pos_site_id
_symmetry_equiv_pos_as_xyz
1 x,y,z
2 -x,-y,-z
_cell_length_a                   9.3784(11)
_cell_length_b                   9.7351(11)
_cell_length_c                   15.3257(18)
_cell_angle_alpha                97.700(3)
_cell_angle_beta                 98.504(3)
_cell_angle_gamma                109.539(3)
_cell_volume                     1278.65
_exptl_crystal_colour            colorless
_exptl_crystal_description       plate
_cell_formula_units_Z            2
loop_
_atom_site_label
_atom_site_type_symbol
_atom_site_fract_x
_atom_site_fract_y
_atom_site_fract_z
C1 C 0.3679(3) 0.2559(2) 0.58967(15)
N1 N 0.4164(2) 0.1741(2) 0.53506(12)
C2 C 0.3073(2) 0.3657(2) 0.56243(14)
C3 C 0.2962(2) 0.3834(2) 0.47208(15)
C4 C 0.2429(3) 0.4924(3) 0.44306(15)
H1 H 0.2350 0.5032 0.3820
C5 C 0.2026(3) 0.5828(3) 0.50364(16)
C6 C 0.2126(3) 0.5679(3) 0.59383(16)
H2 H 0.1843 0.6313 0.6348
C7 C 0.2630(3) 0.4625(2) 0.62274(14)
O1 O 0.1508(2) 0.69258(19) 0.48432(11)
C8 C 0.1480(3) 0.7254(3) 0.39593(17)
H3 H 0.1045 0.8032 0.3909
H4 H 0.0840 0.6355 0.3513
H5 H 0.2535 0.7598 0.3851
O2 O 0.2752(2) 0.4432(2) 0.70955(11)
C9 C 0.2482(3) 0.5449(3) 0.77463(17)
H6 H 0.2674 0.5201 0.8341
H7 H 0.1407 0.5386 0.7590
H8 H 0.3179 0.6461 0.7757
C10 C 0.4037(3) 0.1874(2) 0.44537(15)
C11 C 0.3438(2) 0.2877(2) 0.41065(14)
C12 C 0.3332(3) 0.2896(3) 0.31811(15)
H9 H 0.2932 0.3566 0.2930
C13 C 0.3800(3) 0.1959(3) 0.26375(16)
H10 H 0.3713 0.1983 0.2015
C14 C 0.4402(3) 0.0976(3) 0.29921(17)
H11 H 0.4724 0.0333 0.2612
C15 C 0.4527(3) 0.0936(3) 0.38865(16)
H12 H 0.4947 0.0272 0.4128
C16 C 0.3873(3) 0.2311(2) 0.68473(15)
C17 C 0.2660(3) 0.1422(2) 0.71810(15)
C18 C 0.2854(3) 0.1297(3) 0.80881(15)
C19 C 0.4314(3) 0.2073(3) 0.86248(16)
H13 H 0.4460 0.2020 0.9244
C20 C 0.5580(3) 0.2927(3) 0.83088(15)
C21 C 0.5319(3) 0.3019(3) 0.74090(15)
H14 H 0.6155 0.3583 0.7169
O3 O 0.12137(19) 0.07268(19) 0.66191(11)
C22 C 0.1111(3) -0.0491(3) 0.59355(19)
H15 H 0.0027 -0.1152 0.5726
H16 H 0.1717 -0.1047 0.6186
H17 H 0.1519 -0.0104 0.5429
C23 C 0.1513(3) 0.0391(3) 0.84869(18)
C24 C 0.7139(3) 0.3760(3) 0.89504(16)
C25 C 0.0209(3) 0.1023(3) 0.8381(2)
H18 H -0.0622 0.0469 0.8660
H19 H -0.0199 0.0928 0.7740
H20 H 0.0618 0.2074 0.8676
C26 C 0.0879(4) -0.1259(3) 0.8027(2)
H21 H 0.0111 -0.1828 0.8339
H22 H 0.1729 -0.1634 0.8051
H23 H 0.0391 -0.1365 0.7398
C27 C 0.2029(4) 0.0470(4) 0.95011(19)
H24 H 0.1154 -0.0131 0.9731
H25 H 0.2392 0.1505 0.9821
H26 H 0.2870 0.0086 0.9596
C28 C 0.7099(4) 0.5172(4) 0.9487(2)
H27 H 0.8103 0.5717 0.9894
H28 H 0.6290 0.4914 0.9840
H29 H 0.6878 0.5796 0.9074
C29 C 0.8456(3) 0.4191(4) 0.8441(2)
H30 H 0.9444 0.4666 0.8872
H31 H 0.8307 0.4885 0.8061
H32 H 0.8461 0.3297 0.8063
C30 C 0.7526(4) 0.2795(4) 0.9591(2)
H33 H 0.8566 0.3325 0.9960
H34 H 0.7485 0.1859 0.9241
H35 H 0.6773 0.2585 0.9982
loop_
_geom_bond_atom_site_label_1
_geom_bond_atom_site_label_2
_geom_bond_site_symmetry_1
_geom_bond_site_symmetry_2
C1 N1 1_555 1_555
N1 C10 1_555 1_555
C2 C1 1_555 1_555
C3 C2 1_555 1_555
C4 C3 1_555 1_555
H1 C4 1_555 1_555
C5 C4 1_555 1_555
C6 C5 1_555 1_555
H2 C6 1_555 1_555
C7 C2 1_555 1_555
O1 C5 1_555 1_555
C8 O1 1_555 1_555
H3 C8 1_555 1_555
H4 C8 1_555 1_555
H5 C8 1_555 1_555
O2 C7 1_555 1_555
C9 O2 1_555 1_555
H6 C9 1_555 1_555
H7 C9 1_555 1_555
H8 C9 1_555 1_555
C10 C11 1_555 1_555
C11 C3 1_555 1_555
C12 C11 1_555 1_555
H9 C12 1_555 1_555
C13 C12 1_555 1_555
H10 C13 1_555 1_555
C14 C13 1_555 1_555
H11 C14 1_555 1_555
C15 C10 1_555 1_555
H12 C15 1_555 1_555
C16 C1 1_555 1_555
C17 C16 1_555 1_555
C18 C17 1_555 1_555
C19 C18 1_555 1_555
H13 C19 1_555 1_555
C20 C19 1_555 1_555
C21 C16 1_555 1_555
H14 C21 1_555 1_555
O3 C17 1_555 1_555
C22 O3 1_555 1_555
H15 C22 1_555 1_555
H16 C22 1_555 1_555
H17 C22 1_555 1_555
C23 C18 1_555 1_555
C24 C20 1_555 1_555
C25 C23 1_555 1_555
H18 C25 1_555 1_555
H19 C25 1_555 1_555
H20 C25 1_555 1_555
C26 C23 1_555 1_555
H21 C26 1_555 1_555
H22 C26 1_555 1_555
H23 C26 1_555 1_555
C27 C23 1_555 1_555
H24 C27 1_555 1_555
H25 C27 1_555 1_555
H26 C27 1_555 1_555
C28 C24 1_555 1_555
H27 C28 1_555 1_555
H28 C28 1_555 1_555
H29 C28 1_555 1_555
C29 C24 1_555 1_555
H30 C29 1_555 1_555
H31 C29 1_555 1_555
H32 C29 1_555 1_555
C30 C24 1_555 1_555
H33 C30 1_555 1_555
H34 C30 1_555 1_555
H35 C30 1_555 1_555
C6 C7 1_555 1_555
C14 C15 1_555 1_555
C20 C21 1_555 1_555

#END
