
#######################################################################
#
#                 Cambridge Crystallographic Data Centre
#                                CCDC 
#
#######################################################################
#
# If this CIF has been generated from an entry in the Cambridge 
# Structural Database, then it will include bibliographic, chemical, 
# crystal, experimental, refinement or atomic coordinate data resulting 
# from the CCDC's data processing and validation procedures.
#
#######################################################################

data_OBUFOJ
_chemical_formula_moiety         'C29 H28 B1 F2 N1 O1 S1,0.5(C1 H2 Cl2)'
_chemical_name_systematic        
"2,4-di-t-butyl-6,6-difluoro-6H-7\l^5^,6\l^5^-[1]benzothieno[2',3':3,4]quinolino[1,2-c][1,3,2]benzoxazaborinine dichloromethane solvate"
_symmetry_cell_setting           triclinic
_symmetry_space_group_name_H-M   'P -1'
_symmetry_Int_Tables_number      2
_space_group_name_Hall           '-P 1'
loop_
_symmetry_equiv_pos_site_id
_symmetry_equiv_pos_as_xyz
1 x,y,z
2 -x,-y,-z
_cell_length_a                   10.5567(7)
_cell_length_b                   11.8145(7)
_cell_length_c                   12.4819(8)
_cell_angle_alpha                102.1218(18)
_cell_angle_beta                 113.5979(18)
_cell_angle_gamma                105.2397(18)
_cell_volume                     1285.97
_exptl_crystal_colour            yellow
_exptl_crystal_description       plate
_cell_formula_units_Z            2
loop_
_atom_site_label
_atom_site_type_symbol
_atom_site_fract_x
_atom_site_fract_y
_atom_site_fract_z
S1 S 0.84979(8) 0.49628(6) 0.78333(7)
B1 B 0.4028(4) 0.1562(3) 0.7845(3)
C1 C 0.7761(3) 0.3760(2) 0.8285(2)
C2 C 0.6257(3) 0.3289(2) 0.8068(2)
N1 N 0.5806(2) 0.22817(19) 0.8366(2)
C3 C 0.6836(3) 0.1845(2) 0.9065(3)
C4 C 0.7408(3) 0.0578(3) 1.0336(3)
H1 H 0.7104 0.0006 1.0702
C5 C 0.6400(3) 0.0992(3) 0.9617(3)
H2 H 0.5403 0.0706 0.9488
C6 C 0.8870(3) 0.0984(3) 1.0535(3)
H3 H 0.9557 0.0685 1.1032
C7 C 0.9323(3) 0.1813(3) 1.0019(3)
H4 H 1.0326 0.2082 1.0161
C8 C 0.8328(3) 0.2277(2) 0.9279(2)
C9 C 0.8771(3) 0.3219(2) 0.8795(2)
F1 F 0.36655(18) 0.02880(14) 0.74817(16)
C10 C 1.0170(3) 0.3767(2) 0.8792(2)
F2 F 0.37360(19) 0.19727(16) 0.88103(16)
C11 C 1.1464(3) 0.3482(3) 0.9146(3)
H5 H 1.1482 0.2781 0.9402
C12 C 1.2688(3) 0.4207(3) 0.9125(3)
H6 H 1.3557 0.4013 0.9382
C13 C 1.2686(3) 0.5232(3) 0.8730(3)
H7 H 1.3563 0.5745 0.8752
C14 C 1.1429(3) 0.5500(3) 0.8314(3)
H8 H 1.1410 0.6176 0.8018
C15 C 1.0174(3) 0.4760(2) 0.8332(2)
C16 C 0.5153(3) 0.3796(2) 0.7452(2)
C17 C 0.3645(3) 0.2992(2) 0.6721(2)
C18 C 0.2591(3) 0.3361(2) 0.5908(3)
C19 C 0.3107(3) 0.4598(2) 0.5984(3)
H9 H 0.2420 0.4866 0.5441
C20 C 0.4572(3) 0.5480(2) 0.6808(2)
C21 C 0.5585(3) 0.5053(2) 0.7528(2)
H10 H 0.6593 0.5620 0.8085
O1 O 0.3214(2) 0.18217(16) 0.67468(18)
C22 C 0.0968(3) 0.2446(3) 0.4991(3)
C23 C 0.0926(4) 0.1265(3) 0.4159(3)
H11 H -0.0119 0.0694 0.3578
H12 H 0.1438 0.0845 0.4683
H13 H 0.1432 0.1502 0.3683
C24 C 0.0135(3) 0.2085(3) 0.5711(3)
H14 H -0.0879 0.1459 0.5119
H15 H 0.0076 0.2833 0.6171
H16 H 0.0678 0.1733 0.6301
C25 C 0.0112(4) 0.3029(3) 0.4104(3)
H17 H -0.0883 0.2394 0.3476
H18 H 0.0669 0.3332 0.3685
H19 H 0.0005 0.3734 0.4586
C26 C 0.5019(3) 0.6843(2) 0.6861(3)
C27 C 0.6661(4) 0.7648(3) 0.7808(3)
H20 H 0.6898 0.8503 0.7794
H21 H 0.7300 0.7287 0.7590
H22 H 0.6839 0.7672 0.8647
C28 C 0.4072(4) 0.7437(3) 0.7225(4)
H23 H 0.4343 0.8298 0.7227
H24 H 0.4251 0.7452 0.8062
H25 H 0.3009 0.6946 0.6620
C29 C 0.4778(5) 0.6855(3) 0.5572(3)
H26 H 0.5117 0.7725 0.5609
H27 H 0.3711 0.6415 0.4960
H28 H 0.5353 0.6434 0.5321
C30? C 0.5448(9) -0.0179(8) 0.4630(7)
H29? H 0.5644 -0.0930 0.4346
H30? H 0.5721 0.0404 0.4221
Cl1? Cl 0.6552(8) 0.0539(5) 0.6223(6)
Cl2? Cl 0.3538(8) -0.0630(7) 0.4168(6)
loop_
_geom_bond_atom_site_label_1
_geom_bond_atom_site_label_2
_geom_bond_site_symmetry_1
_geom_bond_site_symmetry_2
S1 C1 1_555 1_555
B1 N1 1_555 1_555
C1 C2 1_555 1_555
C2 N1 1_555 1_555
N1 C3 1_555 1_555
C3 C5 1_555 1_555
C4 H1 1_555 1_555
C5 C4 1_555 1_555
H2 C5 1_555 1_555
C6 C4 1_555 1_555
H3 C6 1_555 1_555
C7 C6 1_555 1_555
H4 C7 1_555 1_555
C8 C3 1_555 1_555
C9 C1 1_555 1_555
F1 B1 1_555 1_555
C10 C9 1_555 1_555
F2 B1 1_555 1_555
C11 C10 1_555 1_555
H5 C11 1_555 1_555
C12 C11 1_555 1_555
H6 C12 1_555 1_555
C13 C12 1_555 1_555
H7 C13 1_555 1_555
C14 C13 1_555 1_555
H8 C14 1_555 1_555
C15 S1 1_555 1_555
C16 C2 1_555 1_555
C17 C16 1_555 1_555
C18 C17 1_555 1_555
C19 C18 1_555 1_555
H9 C19 1_555 1_555
C20 C19 1_555 1_555
C21 C16 1_555 1_555
H10 C21 1_555 1_555
O1 B1 1_555 1_555
C22 C18 1_555 1_555
C23 C22 1_555 1_555
H11 C23 1_555 1_555
H12 C23 1_555 1_555
H13 C23 1_555 1_555
C24 C22 1_555 1_555
H14 C24 1_555 1_555
H15 C24 1_555 1_555
H16 C24 1_555 1_555
C25 C22 1_555 1_555
H17 C25 1_555 1_555
H18 C25 1_555 1_555
H19 C25 1_555 1_555
C26 C20 1_555 1_555
C27 C26 1_555 1_555
H20 C27 1_555 1_555
H21 C27 1_555 1_555
H22 C27 1_555 1_555
C28 C26 1_555 1_555
H23 C28 1_555 1_555
H24 C28 1_555 1_555
H25 C28 1_555 1_555
C29 C26 1_555 1_555
H26 C29 1_555 1_555
H27 C29 1_555 1_555
H28 C29 1_555 1_555
C7 C8 1_555 1_555
C8 C9 1_555 1_555
C10 C15 1_555 1_555
C14 C15 1_555 1_555
C17 O1 1_555 1_555
C20 C21 1_555 1_555

#END
