
#######################################################################
#
#                 Cambridge Crystallographic Data Centre
#                                CCDC 
#
#######################################################################
#
# If this CIF has been generated from an entry in the Cambridge 
# Structural Database, then it will include bibliographic, chemical, 
# crystal, experimental, refinement or atomic coordinate data resulting 
# from the CCDC's data processing and validation procedures.
#
#######################################################################

data_OBUGEA
_chemical_formula_moiety         'C46 H52 N2 O2 S2'
_chemical_name_systematic        
4,10-bis(3,5-di-t-butyl-2-methoxyphenyl)thieno[2,3-c]thieno[3',2':4,5]pyrido[2,3-g]quinoline
_symmetry_cell_setting           triclinic
_symmetry_space_group_name_H-M   'P -1'
_symmetry_Int_Tables_number      2
_space_group_name_Hall           '-P 1'
loop_
_symmetry_equiv_pos_site_id
_symmetry_equiv_pos_as_xyz
1 x,y,z
2 -x,-y,-z
_cell_length_a                   5.9940(6)
_cell_length_b                   9.0236(9)
_cell_length_c                   18.960(2)
_cell_angle_alpha                79.548(3)
_cell_angle_beta                 85.988(3)
_cell_angle_gamma                78.497(3)
_cell_volume                     987.619
_exptl_crystal_colour            yellow
_exptl_crystal_description       needle
_cell_formula_units_Z            1
loop_
_atom_site_label
_atom_site_type_symbol
_atom_site_fract_x
_atom_site_fract_y
_atom_site_fract_z
S1 S 0.59025(14) 0.81873(10) 0.35670(4)
C1 C 0.4650(6) 0.9221(4) 0.42126(17)
H1 H 0.5030 1.0165 0.4270
C2 C 0.3068(5) 0.8565(4) 0.46325(16)
H2 H 0.2212 0.8996 0.5012
C3 C 0.2837(5) 0.7154(3) 0.44382(15)
C4 C 0.1372(5) 0.6096(3) 0.47367(15)
C5 C 0.1620(5) 0.4724(3) 0.44384(15)
C6 C 0.0251(5) 0.3653(3) 0.47100(15)
H3 H 0.0425 0.2736 0.4515
N1 N 0.3082(4) 0.4427(3) 0.38613(12)
C7 C 0.4291(5) 0.5454(3) 0.35644(15)
C8 C 0.4276(5) 0.6805(3) 0.38571(15)
C9 C 0.5589(4) 0.5203(3) 0.28794(15)
C10 C 0.5025(4) 0.6208(3) 0.22447(15)
C11 C 0.6221(4) 0.5998(3) 0.15951(15)
C12 C 0.7912(5) 0.4690(3) 0.16246(15)
H4 H 0.8757 0.4523 0.1194
C13 C 0.8458(4) 0.3602(3) 0.22436(15)
C14 C 0.7280(5) 0.3896(3) 0.28700(15)
H5 H 0.7627 0.3195 0.3304
O1 O 0.3244(3) 0.7458(2) 0.22483(10)
C15 C 0.1036(5) 0.7079(4) 0.24306(19)
H6 H -0.0120 0.7854 0.2159
H7 H 0.0706 0.7053 0.2946
H8 H 0.1014 0.6070 0.2311
C16 C 0.5715(5) 0.7153(3) 0.08979(15)
C17 C 0.7232(6) 0.6655(4) 0.02642(16)
H9 H 0.6886 0.7434 -0.0166
H10 H 0.6943 0.5672 0.0179
H11 H 0.8836 0.6541 0.0375
C18 C 0.3231(5) 0.7297(4) 0.06903(17)
H12 H 0.2985 0.7951 0.0219
H13 H 0.2196 0.7756 0.1049
H14 H 0.2932 0.6277 0.0671
C19 C 0.6145(5) 0.8722(3) 0.09956(17)
H15 H 0.5709 0.9477 0.0563
H16 H 0.7765 0.8644 0.1076
H17 H 0.5237 0.9048 0.1410
C20 C 1.0284(5) 0.2159(3) 0.22052(17)
C21 C 1.2598(6) 0.2613(4) 0.2020(3)
H18 H 1.3748 0.1696 0.1969
H19 H 1.3015 0.3090 0.2404
H20 H 1.2522 0.3343 0.1568
C22 C 0.9714(6) 0.1346(4) 0.16167(19)
H21 H 1.0883 0.0427 0.1590
H22 H 0.9668 0.2042 0.1154
H23 H 0.8226 0.1050 0.1730
C23 C 1.0396(7) 0.1046(4) 0.2909(2)
H24 H 1.1546 0.0127 0.2864
H25 H 0.8906 0.0756 0.3029
H26 H 1.0807 0.1535 0.3290
S1A S -0.59025(14) 0.18127(10) 0.64330(4)
C1A C -0.4650(6) 0.0779(4) 0.57874(17)
H1A H -0.5030 -0.0165 0.5730
C2A C -0.3068(5) 0.1435(4) 0.53675(16)
H2A H -0.2212 0.1004 0.4988
C3A C -0.2837(5) 0.2846(3) 0.55618(15)
C4A C -0.1372(5) 0.3904(3) 0.52633(15)
C5A C -0.1620(5) 0.5276(3) 0.55616(15)
C6A C -0.0251(5) 0.6347(3) 0.52900(15)
H3A H -0.0425 0.7264 0.5485
N1A N -0.3082(4) 0.5573(3) 0.61387(12)
C7A C -0.4291(5) 0.4546(3) 0.64356(15)
C8A C -0.4276(5) 0.3195(3) 0.61429(15)
C9A C -0.5589(4) 0.4797(3) 0.71206(15)
C10A C -0.5025(4) 0.3792(3) 0.77553(15)
C11A C -0.6221(4) 0.4002(3) 0.84049(15)
C12A C -0.7912(5) 0.5310(3) 0.83754(15)
H4A H -0.8757 0.5477 0.8806
C13A C -0.8458(4) 0.6398(3) 0.77564(15)
C14A C -0.7280(5) 0.6104(3) 0.71300(15)
H5A H -0.7627 0.6805 0.6696
O1A O -0.3244(3) 0.2542(2) 0.77517(10)
C15A C -0.1036(5) 0.2921(4) 0.75694(19)
H6A H 0.0120 0.2146 0.7841
H7A H -0.0706 0.2947 0.7054
H8A H -0.1014 0.3930 0.7689
C16A C -0.5715(5) 0.2847(3) 0.91021(15)
C17A C -0.7232(6) 0.3345(4) 0.97358(16)
H9A H -0.6886 0.2566 1.0166
H10A H -0.6943 0.4328 0.9821
H11A H -0.8836 0.3459 0.9625
C18A C -0.3231(5) 0.2703(4) 0.93097(17)
H12A H -0.2985 0.2049 0.9781
H13A H -0.2196 0.2244 0.8951
H14A H -0.2932 0.3723 0.9329
C19A C -0.6145(5) 0.1278(3) 0.90044(17)
H15A H -0.5709 0.0523 0.9437
H16A H -0.7765 0.1356 0.8924
H17A H -0.5237 0.0952 0.8590
C20A C -1.0284(5) 0.7841(3) 0.77948(17)
C21A C -1.2598(6) 0.7387(4) 0.7980(3)
H18A H -1.3748 0.8304 0.8031
H19A H -1.3015 0.6910 0.7596
H20A H -1.2522 0.6657 0.8432
C22A C -0.9714(6) 0.8654(4) 0.83833(19)
H21A H -1.0883 0.9573 0.8410
H22A H -0.9668 0.7958 0.8846
H23A H -0.8226 0.8950 0.8270
C23A C -1.0396(7) 0.8954(4) 0.7091(2)
H24A H -1.1546 0.9873 0.7136
H25A H -0.8906 0.9244 0.6971
H26A H -1.0807 0.8465 0.6710
loop_
_geom_bond_atom_site_label_1
_geom_bond_atom_site_label_2
_geom_bond_site_symmetry_1
_geom_bond_site_symmetry_2
S1 C1 1_555 1_555
C1 H1 1_555 1_555
C2 C1 1_555 1_555
H2 C2 1_555 1_555
C3 C2 1_555 1_555
C4 C3 1_555 1_555
C5 C4 1_555 1_555
C6 C5 1_555 1_555
H3 C6 1_555 1_555
N1 C5 1_555 1_555
C7 N1 1_555 1_555
C8 S1 1_555 1_555
C9 C7 1_555 1_555
C10 C9 1_555 1_555
C11 C10 1_555 1_555
C12 C11 1_555 1_555
H4 C12 1_555 1_555
C13 C12 1_555 1_555
C14 C9 1_555 1_555
H5 C14 1_555 1_555
O1 C10 1_555 1_555
C15 O1 1_555 1_555
H6 C15 1_555 1_555
H7 C15 1_555 1_555
H8 C15 1_555 1_555
C16 C11 1_555 1_555
C17 C16 1_555 1_555
H9 C17 1_555 1_555
H10 C17 1_555 1_555
H11 C17 1_555 1_555
C18 C16 1_555 1_555
H12 C18 1_555 1_555
H13 C18 1_555 1_555
H14 C18 1_555 1_555
C19 C16 1_555 1_555
H15 C19 1_555 1_555
H16 C19 1_555 1_555
H17 C19 1_555 1_555
C20 C13 1_555 1_555
C21 C20 1_555 1_555
H18 C21 1_555 1_555
H19 C21 1_555 1_555
H20 C21 1_555 1_555
C22 C20 1_555 1_555
H21 C22 1_555 1_555
H22 C22 1_555 1_555
H23 C22 1_555 1_555
C23 C20 1_555 1_555
H24 C23 1_555 1_555
H25 C23 1_555 1_555
H26 C23 1_555 1_555
S1A C1A 1_555 1_555
C1A H1A 1_555 1_555
C2A C1A 1_555 1_555
H2A C2A 1_555 1_555
C3A C2A 1_555 1_555
C4A C6 1_555 1_555
C5A C4A 1_555 1_555
C6A C4 1_555 1_555
H3A C6A 1_555 1_555
N1A C5A 1_555 1_555
C7A N1A 1_555 1_555
C8A S1A 1_555 1_555
C9A C7A 1_555 1_555
C10A C9A 1_555 1_555
C11A C10A 1_555 1_555
C12A C11A 1_555 1_555
H4A C12A 1_555 1_555
C13A C12A 1_555 1_555
C14A C9A 1_555 1_555
H5A C14A 1_555 1_555
O1A C10A 1_555 1_555
C15A O1A 1_555 1_555
H6A C15A 1_555 1_555
H7A C15A 1_555 1_555
H8A C15A 1_555 1_555
C16A C11A 1_555 1_555
C17A C16A 1_555 1_555
H9A C17A 1_555 1_555
H10A C17A 1_555 1_555
H11A C17A 1_555 1_555
C18A C16A 1_555 1_555
H12A C18A 1_555 1_555
H13A C18A 1_555 1_555
H14A C18A 1_555 1_555
C19A C16A 1_555 1_555
H15A C19A 1_555 1_555
H16A C19A 1_555 1_555
H17A C19A 1_555 1_555
C20A C13A 1_555 1_555
C21A C20A 1_555 1_555
H18A C21A 1_555 1_555
H19A C21A 1_555 1_555
H20A C21A 1_555 1_555
C22A C20A 1_555 1_555
H21A C22A 1_555 1_555
H22A C22A 1_555 1_555
H23A C22A 1_555 1_555
C23A C20A 1_555 1_555
H24A C23A 1_555 1_555
H25A C23A 1_555 1_555
H26A C23A 1_555 1_555
C3 C8 1_555 1_555
C7 C8 1_555 1_555
C13 C14 1_555 1_555
C3A C4A 1_555 1_555
C3A C8A 1_555 1_555
C5A C6A 1_555 1_555
C7A C8A 1_555 1_555
C13A C14A 1_555 1_555

#END
