
#######################################################################
#
#                 Cambridge Crystallographic Data Centre
#                                CCDC 
#
#######################################################################
#
# If this CIF has been generated from an entry in the Cambridge 
# Structural Database, then it will include bibliographic, chemical, 
# crystal, experimental, refinement or atomic coordinate data resulting 
# from the CCDC's data processing and validation procedures.
#
#######################################################################

data_OBUHUQ
_chemical_name_common            
(E)-1-(4-Benzhydrylpiperazin-1-yl)-3-(2-ethoxyphenyl)prop-2-en-1-one
_chemical_formula_moiety         'C28 H30 N2 O2'
_chemical_name_systematic        
(E)-1-(4-(Diphenylmethyl)piperazin-1-yl)-3-(2-ethoxyphenyl)prop-2-en-1-one
_symmetry_cell_setting           monoclinic
_symmetry_space_group_name_H-M   'P 21/n'
_symmetry_Int_Tables_number      14
_space_group_name_Hall           '-P 2yn'
loop_
_symmetry_equiv_pos_site_id
_symmetry_equiv_pos_as_xyz
1 x,y,z
2 1/2-x,1/2+y,1/2-z
3 -x,-y,-z
4 1/2+x,1/2-y,1/2+z
_cell_length_a                   11.858(2)
_cell_length_b                   12.786(3)
_cell_length_c                   16.044(3)
_cell_angle_alpha                90
_cell_angle_beta                 94.63(3)
_cell_angle_gamma                90
_cell_volume                     2424.6
_exptl_crystal_colour            'pale yellow'
_exptl_crystal_description       block
_cell_formula_units_Z            4
_exptl_crystal_recrystallization_method 'ethyl acetate/hexane'
loop_
_atom_site_label
_atom_site_type_symbol
_atom_site_fract_x
_atom_site_fract_y
_atom_site_fract_z
O1 O 0.2436(2) 0.32431(17) 0.49193(13)
N1 N 0.2112(2) 0.69070(19) 0.57757(17)
C1 C 0.0062(5) 0.7832(3) 0.6573(3)
H1 H -0.0014 0.7739 0.5996
C2 C -0.0941(4) 0.7913(3) 0.6932(3)
H2 H -0.1671 0.7873 0.6674
C3 C -0.0616(5) 0.8068(3) 0.7764(3)
H3 H -0.1233 0.8218 0.8067
C4 C 0.0365(5) 0.8061(4) 0.8263(3)
H4 H 0.0396 0.8135 0.8841
C5 C 0.1251(5) 0.7940(3) 0.7854(4)
H5 H 0.1962 0.7901 0.8142
C6 C 0.1140(4) 0.7863(3) 0.6906(4)
O2 O 0.3846(2) 0.12578(18) 0.28272(15)
N2 N 0.2698(3) 0.4974(2) 0.50411(17)
C7 C 0.2064(3) 0.7757(3) 0.6338(3)
H6 H 0.2752 0.7684 0.6715
C8 C 0.2259(4) 0.8738(3) 0.5848(3)
C9 C 0.3187(3) 0.9292(3) 0.6198(2)
H7 H 0.3618 0.9034 0.6663
C10 C 0.3444(4) 1.0185(3) 0.5861(3)
H8 H 0.4150 1.0458 0.6040
C11 C 0.2883(5) 1.0710(4) 0.5344(3)
H9 H 0.3101 1.1387 0.5221
C12 C 0.1862(5) 1.0252(5) 0.4921(3)
H10 H 0.1442 1.0597 0.4490
C13 C 0.1550(4) 0.9251(5) 0.5206(3)
H11 H 0.0891 0.8930 0.4979
C14 C 0.2828(3) 0.6824(3) 0.5164(3)
H12 H 0.3513 0.7181 0.5377
H13 H 0.2498 0.7249 0.4707
C15 C 0.3189(4) 0.5913(3) 0.4794(3)
H14 H 0.4002 0.5859 0.4912
H15 H 0.3041 0.5981 0.4193
C16 C 0.1949(4) 0.4975(3) 0.5695(3)
H16 H 0.1277 0.4580 0.5508
H17 H 0.2315 0.4614 0.6175
C17 C 0.1613(4) 0.5974(3) 0.5953(3)
H18 H 0.0823 0.6043 0.5749
H19 H 0.1627 0.5941 0.6557
C18 C 0.2861(3) 0.4023(3) 0.4683(2)
C19 C 0.3575(3) 0.4008(2) 0.39672(19)
H20 H 0.3894 0.4628 0.3797
C20 C 0.3765(3) 0.3152(2) 0.35741(18)
H21 H 0.3453 0.2550 0.3786
C21 C 0.4405(3) 0.3001(3) 0.28366(19)
C22 C 0.4967(3) 0.3810(3) 0.2482(2)
H22 H 0.4923 0.4476 0.2711
C23 C 0.5596(3) 0.3673(3) 0.1799(2)
H23 H 0.5981 0.4232 0.1584
C24 C 0.5641(3) 0.2701(3) 0.1446(2)
H24 H 0.6081 0.2590 0.1000
C25 C 0.5004(3) 0.1846(3) 0.1769(2)
H25 H 0.4989 0.1199 0.1504
C26 C 0.4417(3) 0.1990(3) 0.2469(2)
C27 C 0.3835(3) 0.0218(3) 0.2493(2)
H26 H 0.4600 -0.0052 0.2505
H27 H 0.3516 0.0223 0.1917
C28 C 0.3142(3) -0.0455(3) 0.3005(3)
H28 H 0.3140 -0.1158 0.2794
H29 H 0.2381 -0.0194 0.2977
H30 H 0.3457 -0.0449 0.3575
loop_
_geom_bond_atom_site_label_1
_geom_bond_atom_site_label_2
_geom_bond_site_symmetry_1
_geom_bond_site_symmetry_2
O1 C18 1_555 1_555
N1 C7 1_555 1_555
C1 H1 1_555 1_555
C2 C1 1_555 1_555
H2 C2 1_555 1_555
C3 C2 1_555 1_555
H3 C3 1_555 1_555
C4 C3 1_555 1_555
H4 C4 1_555 1_555
C5 C4 1_555 1_555
H5 C5 1_555 1_555
C6 C1 1_555 1_555
O2 C26 1_555 1_555
N2 C15 1_555 1_555
C7 C6 1_555 1_555
H6 C7 1_555 1_555
C8 C7 1_555 1_555
C9 C8 1_555 1_555
H7 C9 1_555 1_555
C10 C9 1_555 1_555
H8 C10 1_555 1_555
C11 C10 1_555 1_555
H9 C11 1_555 1_555
C12 C11 1_555 1_555
H10 C12 1_555 1_555
C13 C8 1_555 1_555
H11 C13 1_555 1_555
C14 N1 1_555 1_555
H12 C14 1_555 1_555
H13 C14 1_555 1_555
C15 C14 1_555 1_555
H14 C15 1_555 1_555
H15 C15 1_555 1_555
C16 N2 1_555 1_555
H16 C16 1_555 1_555
H17 C16 1_555 1_555
C17 N1 1_555 1_555
H18 C17 1_555 1_555
H19 C17 1_555 1_555
C18 N2 1_555 1_555
C19 C18 1_555 1_555
H20 C19 1_555 1_555
C20 C19 1_555 1_555
H21 C20 1_555 1_555
C21 C20 1_555 1_555
C22 C21 1_555 1_555
H22 C22 1_555 1_555
C23 C22 1_555 1_555
H23 C23 1_555 1_555
C24 C23 1_555 1_555
H24 C24 1_555 1_555
C25 C24 1_555 1_555
H25 C25 1_555 1_555
C26 C21 1_555 1_555
C27 O2 1_555 1_555
H26 C27 1_555 1_555
H27 C27 1_555 1_555
C28 C27 1_555 1_555
H28 C28 1_555 1_555
H29 C28 1_555 1_555
H30 C28 1_555 1_555
C5 C6 1_555 1_555
C12 C13 1_555 1_555
C16 C17 1_555 1_555
C25 C26 1_555 1_555

#END
