
#######################################################################
#
#                 Cambridge Crystallographic Data Centre
#                                CCDC 
#
#######################################################################
#
# If this CIF has been generated from an entry in the Cambridge 
# Structural Database, then it will include bibliographic, chemical, 
# crystal, experimental, refinement or atomic coordinate data resulting 
# from the CCDC's data processing and validation procedures.
#
#######################################################################

data_OBUJOM
_chemical_formula_moiety         'C11 H8 Cl2 N2 O2,H2 O1'
_chemical_name_systematic        
'N-(2,6-Dichlorophenyl)-5-methyl-1,2-oxazole-4-carboxamide monohydrate'
_symmetry_cell_setting           orthorhombic
_symmetry_space_group_name_H-M   'P n a 21'
_symmetry_Int_Tables_number      33
_space_group_name_Hall           'P 2c -2n'
loop_
_symmetry_equiv_pos_site_id
_symmetry_equiv_pos_as_xyz
1 x,y,z
2 -x,-y,1/2+z
3 1/2+x,1/2-y,z
4 1/2-x,1/2+y,1/2+z
_cell_length_a                   12.047(2)
_cell_length_b                   8.2290(16)
_cell_length_c                   13.086(3)
_cell_angle_alpha                90
_cell_angle_beta                 90
_cell_angle_gamma                90
_cell_volume                     1297.28
_exptl_crystal_colour            white
_exptl_crystal_description       block
_cell_formula_units_Z            4
_exptl_crystal_recrystallization_method toluene
loop_
_atom_site_label
_atom_site_type_symbol
_atom_site_fract_x
_atom_site_fract_y
_atom_site_fract_z
Cl1 Cl 0.34861(10) -0.10973(15) 0.99733(8)
N1 N 0.4813(2) 0.0638(3) 0.8429(2)
H1 H 0.5009 0.1294 0.8907
O1 O 0.5393(2) -0.1120(4) 0.7213(2)
C1 C 0.2951(3) -0.0268(5) 0.8868(3)
Cl2 Cl 0.40753(8) 0.20917(15) 0.64182(8)
N2 N 0.8178(3) 0.0689(5) 0.9349(3)
C2 C 0.1817(3) -0.0353(5) 0.8670(4)
H2 H 0.1340 -0.0829 0.9142
O2 O 0.85611(19) -0.0172(4) 0.8485(2)
C3 C 0.1411(3) 0.0275(6) 0.7769(4)
H3 H 0.0654 0.0213 0.7631
C4 C 0.2092(3) 0.0973(5) 0.7089(4)
H4 H 0.1807 0.1369 0.6478
C5 C 0.3222(3) 0.1113(4) 0.7288(3)
C6 C 0.3673(3) 0.0494(4) 0.8180(3)
C7 C 0.5598(3) -0.0226(4) 0.7937(2)
C8 C 0.6743(3) -0.0017(4) 0.8333(3)
C9 C 0.7686(3) -0.0582(4) 0.7899(3)
C10 C 0.7108(3) 0.0774(5) 0.9239(3)
H5 H 0.6636 0.1291 0.9698
C11 C 0.7943(3) -0.1487(6) 0.6956(3)
H6 H 0.8728 -0.1679 0.6919
H7 H 0.7712 -0.0863 0.6374
H8 H 0.7558 -0.2508 0.6962
O3 O 0.9991(2) 0.2436(4) 1.02747(19)
H9 H 0.9856 0.1441 1.0398
H10 H 0.9882 0.3005 1.0807
loop_
_geom_bond_atom_site_label_1
_geom_bond_atom_site_label_2
_geom_bond_site_symmetry_1
_geom_bond_site_symmetry_2
Cl1 C1 1_555 1_555
N1 H1 1_555 1_555
O1 C7 1_555 1_555
C1 C2 1_555 1_555
Cl2 C5 1_555 1_555
N2 O2 1_555 1_555
C2 H2 1_555 1_555
O2 C9 1_555 1_555
C3 C2 1_555 1_555
H3 C3 1_555 1_555
C4 C3 1_555 1_555
H4 C4 1_555 1_555
C5 C4 1_555 1_555
C6 N1 1_555 1_555
C7 N1 1_555 1_555
C8 C7 1_555 1_555
C9 C8 1_555 1_555
C10 N2 1_555 1_555
H5 C10 1_555 1_555
C11 C9 1_555 1_555
H6 C11 1_555 1_555
H7 C11 1_555 1_555
H8 C11 1_555 1_555
O3 H9 1_555 1_555
H10 O3 1_555 1_555
C1 C6 1_555 1_555
C5 C6 1_555 1_555
C8 C10 1_555 1_555

#END
