
#######################################################################
#
#                 Cambridge Crystallographic Data Centre
#                                CCDC 
#
#######################################################################
#
# If this CIF has been generated from an entry in the Cambridge 
# Structural Database, then it will include bibliographic, chemical, 
# crystal, experimental, refinement or atomic coordinate data resulting 
# from the CCDC's data processing and validation procedures.
#
#######################################################################

data_OBUNIK
_chemical_name_common            'Isopropyl protocatechuate'
_chemical_formula_moiety         'C10 H12 O4'
_chemical_name_systematic        'Isopropyl 3,4-dihydroxybenzoate'
_symmetry_cell_setting           triclinic
_symmetry_space_group_name_H-M   'P -1'
_symmetry_Int_Tables_number      2
_space_group_name_Hall           '-P 1'
loop_
_symmetry_equiv_pos_site_id
_symmetry_equiv_pos_as_xyz
1 x,y,z
2 -x,-y,-z
_cell_length_a                   5.8485(12)
_cell_length_b                   9.1844(17)
_cell_length_c                   9.9834(19)
_cell_angle_alpha                72.629(3)
_cell_angle_beta                 80.547(3)
_cell_angle_gamma                78.980(3)
_cell_volume                     499.065
_exptl_crystal_colour            colorless
_exptl_crystal_description       needle
_chemical_melting_point          '407 K'
_cell_formula_units_Z            2
_exptl_crystal_recrystallization_method acetone/toluene
loop_
_atom_site_label
_atom_site_type_symbol
_atom_site_fract_x
_atom_site_fract_y
_atom_site_fract_z
O1 O 0.2571(2) 0.15042(14) 0.29888(13)
O2 O -0.0069(2) 0.13603(15) 0.16625(15)
O3 O 0.7691(2) -0.42927(15) 0.09653(16)
H1 H 0.7088 -0.4623 0.0452
O4 O 0.3545(3) -0.32701(15) -0.01531(15)
H2 H 0.2461 -0.2741 -0.0586
C1 C -0.0633(5) 0.2409(3) 0.4524(3)
H3 H -0.1650 0.1839 0.4288
H4 H -0.1541 0.3308 0.4754
H5 H 0.0143 0.1771 0.5321
C2 C 0.2856(5) 0.3780(3) 0.3562(3)
H6 H 0.3599 0.3182 0.4385
H7 H 0.2030 0.4736 0.3715
H8 H 0.4024 0.3988 0.2762
C3 C 0.1158(4) 0.2893(2) 0.3288(2)
H9 H 0.0369 0.3511 0.2462
C4 C 0.1778(3) 0.0861(2) 0.21617(18)
C5 C 0.3358(3) -0.05140(19) 0.19011(18)
C6 C 0.2685(3) -0.12546(19) 0.10392(18)
H10 H 0.1255 -0.0895 0.0673
C7 C 0.4099(3) -0.25143(19) 0.07177(18)
C8 C 0.6225(3) -0.3068(2) 0.12786(19)
C9 C 0.6887(3) -0.2345(2) 0.2151(2)
H11 H 0.8301 -0.2720 0.2534
C10 C 0.5479(3) -0.1072(2) 0.2463(2)
H12 H 0.5949 -0.0590 0.3047
loop_
_geom_bond_atom_site_label_1
_geom_bond_atom_site_label_2
_geom_bond_site_symmetry_1
_geom_bond_site_symmetry_2
O1 C3 1_555 1_555
O2 C4 1_555 1_555
O3 H1 1_555 1_555
O4 H2 1_555 1_555
C1 H3 1_555 1_555
H4 C1 1_555 1_555
H5 C1 1_555 1_555
C2 H6 1_555 1_555
H7 C2 1_555 1_555
H8 C2 1_555 1_555
C3 C1 1_555 1_555
H9 C3 1_555 1_555
C4 O1 1_555 1_555
C5 C4 1_555 1_555
C6 C5 1_555 1_555
H10 C6 1_555 1_555
C7 O4 1_555 1_555
C8 O3 1_555 1_555
C9 C8 1_555 1_555
H11 C9 1_555 1_555
C10 C5 1_555 1_555
H12 C10 1_555 1_555
C2 C3 1_555 1_555
C6 C7 1_555 1_555
C7 C8 1_555 1_555
C9 C10 1_555 1_555

#END
