
#######################################################################
#
#                 Cambridge Crystallographic Data Centre
#                                CCDC 
#
#######################################################################
#
# If this CIF has been generated from an entry in the Cambridge 
# Structural Database, then it will include bibliographic, chemical, 
# crystal, experimental, refinement or atomic coordinate data resulting 
# from the CCDC's data processing and validation procedures.
#
#######################################################################

data_OBUNOQ01
_chemical_formula_moiety         'C21 H18 N2 O1'
_chemical_name_systematic        
1,3-Dibenzyl-1,3-dihydro-2H-benzimidazol-2-one
_symmetry_cell_setting           monoclinic
_symmetry_space_group_name_H-M   'C 2/c'
_symmetry_Int_Tables_number      15
_space_group_name_Hall           '-C 2yn'
loop_
_symmetry_equiv_pos_site_id
_symmetry_equiv_pos_as_xyz
1 x,y,z
2 -x,y,1/2-z
3 1/2+x,1/2+y,z
4 1/2-x,1/2+y,1/2-z
5 -x,-y,-z
6 x,-y,1/2+z
7 1/2-x,1/2-y,-z
8 1/2+x,1/2-y,1/2+z
_cell_length_a                   19.732(3)
_cell_length_b                   9.1276(14)
_cell_length_c                   10.1906(16)
_cell_angle_alpha                90
_cell_angle_beta                 116.057(2)
_cell_angle_gamma                90
_cell_volume                     1648.83
_exptl_crystal_colour            colorless
_exptl_crystal_description       block
_cell_formula_units_Z            4
loop_
_atom_site_label
_atom_site_type_symbol
_atom_site_fract_x
_atom_site_fract_y
_atom_site_fract_z
C1 C 0.16910(7) 0.11575(15) 0.73178(14)
C2 C 0.20031(8) 0.06060(17) 0.87237(15)
H1 H 0.1696 0.0126 0.9066
C3 C 0.27609(8) 0.0757(2) 0.96242(17)
H2 H 0.2962 0.0383 1.0569
C4 C 0.32182(9) 0.1454(2) 0.91350(19)
H3 H 0.3732 0.1539 0.9739
C5 C 0.29198(9) 0.20270(19) 0.7755(2)
H4 H 0.3230 0.2513 0.7425
C6 C 0.21541(8) 0.18841(17) 0.68472(17)
H5 H 0.1953 0.2283 0.5913
C7 C 0.08637(7) 0.09324(16) 0.63206(14)
H6 H 0.0738 0.1444 0.5409
H7 H 0.0772 -0.0103 0.6101
C8 C 0.0000 0.0544(2) 0.7500
C9 C 0.02385(6) 0.29092(13) 0.71574(12)
C10 C 0.04866(7) 0.41965(15) 0.68125(14)
H8 H 0.0807 0.4197 0.6363
C11 C 0.02380(7) 0.54907(15) 0.71641(16)
H9 H 0.0394 0.6380 0.6944
N1 N 0.03715(5) 0.14503(11) 0.69458(11)
O1 O 0.0000 -0.07976(15) 0.7500
C1A C -0.16910(7) 0.11575(15) 0.76822(14)
C2A C -0.20031(8) 0.06060(17) 0.62763(15)
H1A H -0.1696 0.0126 0.5934
C3A C -0.27609(8) 0.0757(2) 0.53758(17)
H2A H -0.2962 0.0383 0.4431
C4A C -0.32182(9) 0.1454(2) 0.58650(19)
H3A H -0.3732 0.1539 0.5261
C5A C -0.29198(9) 0.20270(19) 0.7245(2)
H4A H -0.3230 0.2513 0.7575
C6A C -0.21541(8) 0.18841(17) 0.81528(17)
H5A H -0.1953 0.2283 0.9087
C7A C -0.08637(7) 0.09324(16) 0.86794(14)
H6A H -0.0738 0.1444 0.9591
H7A H -0.0772 -0.0103 0.8899
C9A C -0.02385(6) 0.29092(13) 0.78426(12)
C10A C -0.04866(7) 0.41965(15) 0.81875(14)
H8A H -0.0807 0.4197 0.8637
C11A C -0.02380(7) 0.54907(15) 0.78359(16)
H9A H -0.0394 0.6380 0.8056
N1A N -0.03715(5) 0.14503(11) 0.80542(11)
loop_
_geom_bond_atom_site_label_1
_geom_bond_atom_site_label_2
_geom_bond_site_symmetry_1
_geom_bond_site_symmetry_2
C1 C2 1_555 1_555
C2 H1 1_555 1_555
C3 C2 1_555 1_555
H2 C3 1_555 1_555
C4 C3 1_555 1_555
H3 C4 1_555 1_555
C5 C4 1_555 1_555
H4 C5 1_555 1_555
C6 C1 1_555 1_555
H5 C6 1_555 1_555
C7 C1 1_555 1_555
H6 C7 1_555 1_555
H7 C7 1_555 1_555
C8 N1 1_555 1_555
C9 C10 1_555 1_555
C10 H8 1_555 1_555
C11 C10 1_555 1_555
H9 C11 1_555 1_555
N1 C7 1_555 1_555
O1 C8 1_555 1_555
C1A C2A 1_555 1_555
C2A H1A 1_555 1_555
C3A C2A 1_555 1_555
H2A C3A 1_555 1_555
C4A C3A 1_555 1_555
H3A C4A 1_555 1_555
C5A C4A 1_555 1_555
H4A C5A 1_555 1_555
C6A C1A 1_555 1_555
H5A C6A 1_555 1_555
C7A C1A 1_555 1_555
H6A C7A 1_555 1_555
H7A C7A 1_555 1_555
C9A C9 1_555 1_555
C10A C9A 1_555 1_555
H8A C10A 1_555 1_555
C11A C11 1_555 1_555
H9A C11A 1_555 1_555
N1A C8 1_555 1_555
C5 C6 1_555 1_555
C9 N1 1_555 1_555
C5A C6A 1_555 1_555
C7A N1A 1_555 1_555
C9A N1A 1_555 1_555
C10A C11A 1_555 1_555

#END
