
#######################################################################
#
#                 Cambridge Crystallographic Data Centre
#                                CCDC 
#
#######################################################################
#
# If this CIF has been generated from an entry in the Cambridge 
# Structural Database, then it will include bibliographic, chemical, 
# crystal, experimental, refinement or atomic coordinate data resulting 
# from the CCDC's data processing and validation procedures.
#
#######################################################################

data_OBUTOL
_chemical_formula_moiety         'C15 H20 Br2 O4'
_chemical_name_systematic        Obtusinol
_symmetry_cell_setting           orthorhombic
_symmetry_space_group_name_H-M   'P 21 21 21'
_symmetry_Int_Tables_number      19
_space_group_name_Hall           'P 2ac 2ab'
loop_
_symmetry_equiv_pos_site_id
_symmetry_equiv_pos_as_xyz
1 x,y,z
2 1/2+x,1/2-y,-z
3 -x,1/2+y,1/2-z
4 1/2-x,-y,1/2+z
_cell_length_a                   10.162(3)
_cell_length_b                   11.1161(3)
_cell_length_c                   31.450(11)
_cell_angle_alpha                90
_cell_angle_beta                 90
_cell_angle_gamma                90
_cell_volume                     3552.65
_cell_formula_units_Z            8
loop_
_atom_site_label
_atom_site_type_symbol
_atom_site_fract_x
_atom_site_fract_y
_atom_site_fract_z
Br1 Br 0.51080 0.23570 0.06160
Br2 Br -0.08550 0.22030 0.06150
C1 C 0.03200 0.31320 0.24310
C2 C 0.07390 0.39520 0.22320
C3 C 0.14150 0.48250 0.19710
C4 C 0.28560 0.48870 0.20980
C5 C 0.35840 0.37260 0.20810
C6 C 0.42570 0.37530 0.16670
C7 C 0.45390 0.50270 0.15670
C8 C 0.43390 0.50910 0.10880
C9 C 0.33660 0.41370 0.09750
C10 C 0.35880 0.34370 0.05900
C11 C 0.13460 0.38270 0.06520
C12 C 0.01740 0.34500 0.09200
C13 C -0.07200 0.44950 0.10260
C14 C -0.17950 0.41820 0.13340
O1 O 0.08270 0.59740 0.19960
O2 O 0.35180 0.56540 0.17950
O3 O 0.33210 0.33430 0.13390
O4 O 0.21050 0.45970 0.09010
H1 H 0.00500 0.24000 0.26800
H2 H 0.15700 0.45700 0.16500
H3 H 0.30500 0.53500 0.23900
H4 H 0.32500 0.31300 0.20800
H5 H 0.46600 0.35800 0.23000
H6 H 0.50200 0.34300 0.16000
H7 H 0.56400 0.51900 0.16600
H8 H 0.51900 0.47700 0.09300
H9 H 0.40500 0.57400 0.10500
H10 H 0.36000 0.41200 0.03600
H11 H 0.22300 0.21600 0.07500
H12 H 0.21300 0.23400 0.02500
H13 H 0.08600 0.42400 0.03000
H14 H 0.06800 0.29700 0.12100
H15 H -0.11900 0.47100 0.07800
H16 H -0.00800 0.50000 0.11700
H17 H -0.15600 0.37100 0.15800
H18 H -0.23200 0.50000 0.14000
H19 H -0.26500 0.33800 0.12200
C15 C 0.22730 0.27260 0.05290
Br3 Br 0.15630 0.96420 -0.00420
Br4 Br 0.73000 0.94040 0.04170
C16 C 0.44680 1.08470 0.23230
C17 C 0.41530 1.01310 0.21260
C18 C 0.35960 0.91770 0.18860
C19 C 0.21560 0.92140 0.18480
C20 C 0.16200 1.02710 0.15910
C21 C 0.13320 0.97820 0.11610
C22 C 0.08930 0.84550 0.12680
C23 C 0.14290 0.77940 0.08970
C24 C 0.25820 0.84230 0.07210
C25 C 0.28360 0.85950 0.02360
C26 C 0.41950 0.90060 0.02120
C27 C 0.48520 0.82910 0.05650
C28 C 0.58930 0.89180 0.08210
C29 C 0.64720 0.82100 0.11920
C30 C 0.72570 0.89480 0.14880
O5 O 0.40830 0.80470 0.20570
O6 O 0.17060 0.81870 0.16310
O7 O 0.24730 0.96840 0.09020
O8 O 0.37910 0.79560 0.08510
H20 H 0.46500 1.15100 0.25400
H21 H 0.40300 0.91100 0.15000
H22 H 0.19800 0.93600 0.21600
H23 H 0.26600 1.08800 0.15800
H24 H 0.07800 1.02400 0.17700
H25 H 0.06400 1.01700 0.10100
H26 H -0.02600 0.86400 0.13200
H27 H 0.07300 0.76100 0.06900
H28 H 0.15400 0.72000 0.09000
H29 H 0.25300 0.79700 0.00300
H30 H 0.43700 0.98500 0.02500
H31 H 0.44600 0.88000 -0.00400
H32 H 0.52700 0.76100 0.04800
H33 H 0.55400 0.99000 0.09300
H34 H 0.70900 0.73200 0.11000
H35 H 0.58100 0.78100 0.13900
H36 H 0.75200 0.84600 0.17400
H37 H 0.67000 0.94400 0.15900
H38 H 0.82000 0.92800 0.13100
loop_
_geom_bond_atom_site_label_1
_geom_bond_atom_site_label_2
_geom_bond_site_symmetry_1
_geom_bond_site_symmetry_2
Br1 C10 1_555 1_555
Br2 C12 1_555 1_555
C1 C2 1_555 1_555
C2 C3 1_555 1_555
C3 C4 1_555 1_555
C4 C5 1_555 1_555
C5 C6 1_555 1_555
C6 C7 1_555 1_555
C7 C8 1_555 1_555
C8 C9 1_555 1_555
C9 C10 1_555 1_555
C10 H10 1_555 1_555
C11 C12 1_555 1_555
C12 C13 1_555 1_555
C13 C14 1_555 1_555
C14 H17 1_555 1_555
O1 C3 1_555 1_555
O2 C4 1_555 1_555
O3 C6 1_555 1_555
O4 C9 1_555 1_555
H1 C1 1_555 1_555
H2 C3 1_555 1_555
H3 C4 1_555 1_555
H4 C5 1_555 1_555
H5 C5 1_555 1_555
H6 C6 1_555 1_555
H7 C7 1_555 1_555
H8 C8 1_555 1_555
H9 C8 1_555 1_555
H11 C15 1_555 1_555
H12 C15 1_555 1_555
H13 C11 1_555 1_555
H14 C12 1_555 1_555
H15 C13 1_555 1_555
H16 C13 1_555 1_555
H18 C14 1_555 1_555
H19 C14 1_555 1_555
C15 C10 1_555 1_555
Br3 C25 1_555 1_555
Br4 C28 1_555 1_555
C16 C17 1_555 1_555
C17 C18 1_555 1_555
C18 C19 1_555 1_555
C19 C20 1_555 1_555
C20 C21 1_555 1_555
C21 C22 1_555 1_555
C22 C23 1_555 1_555
C23 C24 1_555 1_555
C24 C25 1_555 1_555
C25 C26 1_555 1_555
C26 C27 1_555 1_555
C27 C28 1_555 1_555
C28 C29 1_555 1_555
C29 C30 1_555 1_555
C30 H36 1_555 1_555
O5 C18 1_555 1_555
O6 C19 1_555 1_555
O7 C21 1_555 1_555
O8 C24 1_555 1_555
H20 C16 1_555 1_555
H21 C18 1_555 1_555
H22 C19 1_555 1_555
H23 C20 1_555 1_555
H24 C20 1_555 1_555
H25 C21 1_555 1_555
H26 C22 1_555 1_555
H27 C23 1_555 1_555
H28 C23 1_555 1_555
H29 C25 1_555 1_555
H30 C26 1_555 1_555
H31 C26 1_555 1_555
H32 C27 1_555 1_555
H33 C28 1_555 1_555
H34 C29 1_555 1_555
H35 C29 1_555 1_555
H37 C30 1_555 1_555
H38 C30 1_555 1_555
C7 O2 1_555 1_555
C9 O3 1_555 1_555
C11 O4 1_555 1_555
C11 C15 1_555 1_555
C22 O6 1_555 1_555
C24 O7 1_555 1_555
C27 O8 1_555 1_555

#END
