
#######################################################################
#
#                 Cambridge Crystallographic Data Centre
#                                CCDC 
#
#######################################################################
#
# If this CIF has been generated from an entry in the Cambridge 
# Structural Database, then it will include bibliographic, chemical, 
# crystal, experimental, refinement or atomic coordinate data resulting 
# from the CCDC's data processing and validation procedures.
#
#######################################################################

data_OBUWUF
_chemical_formula_moiety         'C18 H13 N3 O4'
_chemical_name_systematic        
N'-[(2-Hydroxynaphthalen-1-yl)methylidene]-4-nitrobenzohydrazide
_symmetry_cell_setting           monoclinic
_symmetry_space_group_name_H-M   'P 21/c'
_symmetry_Int_Tables_number      14
_space_group_name_Hall           '-P 2ybc'
loop_
_symmetry_equiv_pos_site_id
_symmetry_equiv_pos_as_xyz
1 x,y,z
2 -x,1/2+y,1/2-z
3 -x,-y,-z
4 x,1/2-y,1/2+z
_cell_length_a                   11.208(3)
_cell_length_b                   15.432(3)
_cell_length_c                   8.982(2)
_cell_angle_alpha                90
_cell_angle_beta                 90.701(2)
_cell_angle_gamma                90
_cell_volume                     1553.43
_exptl_crystal_colour            yellow
_exptl_crystal_description       block
_cell_formula_units_Z            4
loop_
_atom_site_label
_atom_site_type_symbol
_atom_site_fract_x
_atom_site_fract_y
_atom_site_fract_z
N1 N 0.2035(2) 0.17748(14) 0.5732(2)
N2 N 0.2552(2) 0.24273(14) 0.4891(2)
N3 N 0.4644(2) 0.60204(17) 0.2185(3)
O1 O 0.06218(18) 0.12126(14) 0.7791(2)
O2 O 0.25885(18) 0.33099(12) 0.6893(2)
O3 O 0.5244(2) 0.58734(14) 0.1093(3)
O4 O 0.4424(2) 0.67498(14) 0.2634(3)
C1 C 0.1483(2) 0.02893(16) 0.5926(3)
C2 C 0.0776(2) 0.04214(18) 0.7164(3)
C3 C 0.0168(3) -0.0276(2) 0.7829(3)
H1 H -0.0314 -0.0177 0.8648
C4 C 0.0283(3) -0.1091(2) 0.7281(4)
H2 H -0.0136 -0.1540 0.7724
C5 C 0.1020(2) -0.12764(18) 0.6053(3)
C6 C 0.1163(3) -0.21292(19) 0.5488(4)
H3 H 0.0747 -0.2584 0.5920
C7 C 0.1890(3) -0.2291(2) 0.4333(4)
H4 H 0.1977 -0.2854 0.3981
C8 C 0.2511(3) -0.1615(2) 0.3673(4)
H5 H 0.3013 -0.1730 0.2879
C9 C 0.2395(3) -0.07840(17) 0.4173(3)
H6 H 0.2825 -0.0344 0.3718
C10 C 0.1632(2) -0.05776(16) 0.5373(3)
C11 C 0.2028(2) 0.10178(16) 0.5167(3)
H7 H 0.2380 0.0929 0.4248
C12 C 0.2780(2) 0.31916(16) 0.5567(3)
C13 C 0.3284(2) 0.38988(16) 0.4623(3)
C14 C 0.3080(2) 0.47496(16) 0.5080(3)
H8 H 0.2641 0.4849 0.5935
C15 C 0.3512(2) 0.54420(17) 0.4296(3)
H9 H 0.3365 0.6007 0.4604
C16 C 0.4170(2) 0.52799(16) 0.3039(3)
C17 C 0.4401(2) 0.44479(17) 0.2556(3)
H10 H 0.4845 0.4355 0.1702
C18 C 0.3963(2) 0.37526(17) 0.3363(3)
H11 H 0.4124 0.3189 0.3060
H12 H 0.263(3) 0.2326(19) 0.3912(13)
H13 H 0.100(3) 0.1599(15) 0.730(3)
loop_
_geom_bond_atom_site_label_1
_geom_bond_atom_site_label_2
_geom_bond_site_symmetry_1
_geom_bond_site_symmetry_2
N1 N2 1_555 1_555
N2 C12 1_555 1_555
N3 O3 1_555 1_555
O1 C2 1_555 1_555
O2 C12 1_555 1_555
O4 N3 1_555 1_555
C1 C2 1_555 1_555
C2 C3 1_555 1_555
C3 H1 1_555 1_555
C4 C3 1_555 1_555
H2 C4 1_555 1_555
C5 C4 1_555 1_555
C6 C5 1_555 1_555
H3 C6 1_555 1_555
C7 C6 1_555 1_555
H4 C7 1_555 1_555
C8 C7 1_555 1_555
H5 C8 1_555 1_555
C9 C8 1_555 1_555
H6 C9 1_555 1_555
C10 C1 1_555 1_555
C11 N1 1_555 1_555
H7 C11 1_555 1_555
C12 C13 1_555 1_555
C13 C14 1_555 1_555
C14 H8 1_555 1_555
C15 C14 1_555 1_555
H9 C15 1_555 1_555
C16 N3 1_555 1_555
C17 C16 1_555 1_555
H10 C17 1_555 1_555
C18 C13 1_555 1_555
H11 C18 1_555 1_555
H12 N2 1_555 1_555
H13 O1 1_555 1_555
C1 C11 1_555 1_555
C5 C10 1_555 1_555
C9 C10 1_555 1_555
C15 C16 1_555 1_555
C17 C18 1_555 1_555

#END
