
#######################################################################
#
#                 Cambridge Crystallographic Data Centre
#                                CCDC 
#
#######################################################################
#
# If this CIF has been generated from an entry in the Cambridge 
# Structural Database, then it will include bibliographic, chemical, 
# crystal, experimental, refinement or atomic coordinate data resulting 
# from the CCDC's data processing and validation procedures.
#
#######################################################################

data_OBUWEO
_chemical_formula_moiety         'C54 H46 N8 Si2'
_chemical_name_systematic        
1,4-bis(2'-(3,5-bis(7-Azaindolyl)phenyldimethylsilyl)vinyl)benzene
_symmetry_cell_setting           triclinic
_symmetry_space_group_name_H-M   'P -1'
_symmetry_Int_Tables_number      2
_space_group_name_Hall           '-P 1'
loop_
_symmetry_equiv_pos_site_id
_symmetry_equiv_pos_as_xyz
1 x,y,z
2 -x,-y,-z
_cell_length_a                   9.0316(11)
_cell_length_b                   11.7209(15)
_cell_length_c                   12.7278(16)
_cell_angle_alpha                92.261(2)
_cell_angle_beta                 109.800(2)
_cell_angle_gamma                109.826(2)
_cell_volume                     1174.28
_exptl_crystal_colour            colorless
_exptl_crystal_description       plate
_chemical_melting_point          288deg.C
_cell_formula_units_Z            1
_exptl_crystal_recrystallization_method 'ethyl acetate/hexane'
loop_
_atom_site_label
_atom_site_type_symbol
_atom_site_fract_x
_atom_site_fract_y
_atom_site_fract_z
Si1 Si 0.16135(6) 0.30454(5) 0.03484(5)
N1 N 0.35473(19) 0.10404(14) 0.39887(13)
N2 N 0.5297(2) 0.22938(15) 0.58379(14)
N3 N 0.79735(18) 0.42039(14) 0.31756(13)
N4 N 0.9306(2) 0.27381(15) 0.37899(15)
C1 C 0.1678(3) 0.2223(3) -0.09166(19)
H1 H 0.146(3) 0.133(3) -0.091(2)
H2 H 0.281(3) 0.256(2) -0.094(2)
H3 H 0.085(3) 0.234(2) -0.160(2)
C2 C 0.2109(3) 0.4713(2) 0.0247(3)
H4 H 0.140(3) 0.485(2) -0.044(2)
H5 H 0.332(4) 0.519(2) 0.033(2)
H6 H 0.201(4) 0.515(3) 0.087(3)
C3 C 0.5774(2) 0.25921(17) 0.35712(16)
H7 H 0.657(2) 0.2494(17) 0.4168(17)
C4 C 0.4052(2) 0.18946(17) 0.32908(15)
C5 C 0.2812(2) 0.20457(17) 0.23556(16)
H8 H 0.159(3) 0.1517(19) 0.2173(18)
C6 C 0.3263(2) 0.28971(18) 0.16638(16)
C7 C 0.4996(2) 0.35997(18) 0.19533(16)
H9 H 0.538(3) 0.421(2) 0.1486(19)
C8 C 0.6232(2) 0.34521(17) 0.28995(16)
C9 C 0.2202(3) -0.00966(19) 0.35973(19)
H10 H 0.166(3) -0.042(2) 0.277(2)
C10 C 0.1877(3) -0.0599(2) 0.44716(19)
H11 H 0.105(3) -0.138(2) 0.444(2)
C11 C 0.3334(3) 0.0328(2) 0.6644(2)
H12 H 0.263(3) -0.032(3) 0.689(2)
C12 C 0.4588(4) 0.1389(2) 0.7365(2)
H13 H 0.476(4) 0.152(3) 0.813(3)
C13 C 0.5512(3) 0.2316(2) 0.69340(19)
H14 H 0.637(3) 0.307(2) 0.743(2)
C14 C 0.4072(2) 0.12650(17) 0.51639(16)
C15 C 0.3048(3) 0.02584(18) 0.54915(18)
C16 C 0.8577(3) 0.54411(18) 0.30865(18)
H15 H 0.782(3) 0.5849(18) 0.2834(17)
C17 C 1.0300(3) 0.58952(19) 0.34324(19)
H16 H 1.095(3) 0.669(2) 0.347(2)
C18 C 1.2409(2) 0.4772(2) 0.42242(19)
H17 H 1.336(3) 0.542(2) 0.4358(19)
C19 C 1.2385(3) 0.3633(2) 0.4459(2)
H18 H 1.344(3) 0.349(2) 0.481(2)
C20 C 1.0839(3) 0.2651(2) 0.4221(2)
H19 H 1.084(3) 0.183(2) 0.4367(18)
C21 C 0.9376(2) 0.38633(17) 0.36065(16)
C22 C 1.0848(2) 0.49127(17) 0.37749(17)
C23 C -0.0499(2) 0.2334(2) 0.04697(18)
H20 H -0.070(3) 0.276(2) 0.109(2)
C24 C -0.1676(2) 0.1241(2) -0.00855(18)
H21 H -0.142(3) 0.077(2) -0.059(2)
C25 C -0.3358(2) 0.06137(18) -0.00122(16)
C26 C -0.3917(3) 0.1111(2) 0.07230(18)
H22 H -0.322(3) 0.186(2) 0.123(2)
C27 C -0.4476(3) -0.0510(2) -0.07300(18)
H23 H -0.406(3) -0.0898(19) -0.1219(19)
C27A C -0.5524(3) 0.0510(2) 0.07300(18)
C25A C -0.6642(2) -0.06137(18) 0.00122(16)
C24A C -0.8324(2) -0.1241(2) 0.00855(18)
C23A C -0.9501(2) -0.2334(2) -0.04697(18)
Si1A Si -1.16135(6) -0.30454(5) -0.03484(5)
C1A C -1.1678(3) -0.2223(3) 0.09166(19)
H1A H -1.146(3) -0.133(3) 0.091(2)
H2A H -1.281(3) -0.256(2) 0.094(2)
H3A H -1.085(3) -0.234(2) 0.160(2)
C2A C -1.2109(3) -0.4713(2) -0.0247(3)
H4A H -1.140(3) -0.485(2) 0.044(2)
H5A H -1.332(4) -0.519(2) -0.033(2)
H6A H -1.201(4) -0.515(3) -0.087(3)
C6A C -1.3263(2) -0.28971(18) -0.16638(16)
C5A C -1.2812(2) -0.20457(17) -0.23556(16)
C4A C -1.4052(2) -0.18946(17) -0.32908(15)
N1A N -1.35473(19) -0.10404(14) -0.39887(13)
C9A C -1.2202(3) 0.00966(19) -0.35973(19)
H10A H -1.166(3) 0.042(2) -0.277(2)
C10A C -1.1877(3) 0.0599(2) -0.44716(19)
H11A H -1.105(3) 0.138(2) -0.444(2)
C15A C -1.3048(3) -0.02584(18) -0.54915(18)
C11A C -1.3334(3) -0.0328(2) -0.6644(2)
H12A H -1.263(3) 0.032(3) -0.689(2)
C12A C -1.4588(4) -0.1389(2) -0.7365(2)
H13A H -1.476(4) -0.152(3) -0.813(3)
C13A C -1.5512(3) -0.2316(2) -0.69340(19)
N2A N -1.5297(2) -0.22938(15) -0.58379(14)
C14A C -1.4072(2) -0.12650(17) -0.51639(16)
H14A H -1.637(3) -0.307(2) -0.743(2)
C3A C -1.5774(2) -0.25921(17) -0.35712(16)
H7A H -1.657(2) -0.2494(17) -0.4168(17)
C8A C -1.6232(2) -0.34521(17) -0.28995(16)
N3A N -1.79735(18) -0.42039(14) -0.31756(13)
C16A C -1.8577(3) -0.54411(18) -0.30865(18)
H15A H -1.782(3) -0.5849(18) -0.2834(17)
C17A C -2.0300(3) -0.58952(19) -0.34324(19)
H16A H -2.095(3) -0.669(2) -0.347(2)
C22A C -2.0848(2) -0.49127(17) -0.37749(17)
C18A C -2.2409(2) -0.4772(2) -0.42242(19)
H17A H -2.336(3) -0.542(2) -0.4358(19)
C19A C -2.2385(3) -0.3633(2) -0.4459(2)
H18A H -2.344(3) -0.349(2) -0.481(2)
C20A C -2.0839(3) -0.2651(2) -0.4221(2)
N4A N -1.9306(2) -0.27381(15) -0.37899(15)
C21A C -1.9376(2) -0.38633(17) -0.36065(16)
H19A H -2.084(3) -0.183(2) -0.4367(18)
C7A C -1.4996(2) -0.35997(18) -0.19533(16)
H9A H -1.538(3) -0.421(2) -0.1486(19)
H8A H -1.159(3) -0.1517(19) -0.2173(18)
H20A H -0.930(3) -0.276(2) -0.109(2)
H21A H -0.858(3) -0.077(2) 0.059(2)
C26A C -0.6083(3) -0.1111(2) -0.07230(18)
H22A H -0.678(3) -0.186(2) -0.123(2)
H23A H -0.594(3) 0.0898(19) 0.1219(19)
loop_
_geom_bond_atom_site_label_1
_geom_bond_atom_site_label_2
_geom_bond_site_symmetry_1
_geom_bond_site_symmetry_2
Si1 C1 1_555 1_555
N1 C4 1_555 1_555
N2 C13 1_555 1_555
N3 C8 1_555 1_555
N4 C20 1_555 1_555
C1 H1 1_555 1_555
H2 C1 1_555 1_555
H3 C1 1_555 1_555
C2 Si1 1_555 1_555
H4 C2 1_555 1_555
H5 C2 1_555 1_555
H6 C2 1_555 1_555
C3 H7 1_555 1_555
C4 C3 1_555 1_555
C5 C4 1_555 1_555
H8 C5 1_555 1_555
C6 Si1 1_555 1_555
C7 C6 1_555 1_555
H9 C7 1_555 1_555
C8 C3 1_555 1_555
C9 N1 1_555 1_555
H10 C9 1_555 1_555
C10 C9 1_555 1_555
H11 C10 1_555 1_555
C11 H12 1_555 1_555
C12 C11 1_555 1_555
H13 C12 1_555 1_555
C13 C12 1_555 1_555
H14 C13 1_555 1_555
C14 N1 1_555 1_555
C15 C10 1_555 1_555
C16 N3 1_555 1_555
H15 C16 1_555 1_555
C17 C16 1_555 1_555
H16 C17 1_555 1_555
C18 H17 1_555 1_555
C19 C18 1_555 1_555
H18 C19 1_555 1_555
C20 C19 1_555 1_555
H19 C20 1_555 1_555
C21 N3 1_555 1_555
C22 C17 1_555 1_555
C23 Si1 1_555 1_555
H20 C23 1_555 1_555
C24 C23 1_555 1_555
H21 C24 1_555 1_555
C25 C24 1_555 1_555
C26 C25 1_555 1_555
H22 C26 1_555 1_555
C27 C25 1_555 1_555
H23 C27 1_555 1_555
C27A C26 1_555 1_555
C25A C27A 1_555 1_555
C24A C25A 1_555 1_555
C23A C24A 1_555 1_555
Si1A C23A 1_555 1_555
C1A Si1A 1_555 1_555
H1A C1A 1_555 1_555
H2A C1A 1_555 1_555
H3A C1A 1_555 1_555
C2A Si1A 1_555 1_555
H4A C2A 1_555 1_555
H5A C2A 1_555 1_555
H6A C2A 1_555 1_555
C6A Si1A 1_555 1_555
C5A C6A 1_555 1_555
C4A C5A 1_555 1_555
N1A C4A 1_555 1_555
C9A N1A 1_555 1_555
H10A C9A 1_555 1_555
C10A C9A 1_555 1_555
H11A C10A 1_555 1_555
C15A C10A 1_555 1_555
C11A C15A 1_555 1_555
H12A C11A 1_555 1_555
C12A C11A 1_555 1_555
H13A C12A 1_555 1_555
C13A C12A 1_555 1_555
N2A C13A 1_555 1_555
C14A N1A 1_555 1_555
H14A C13A 1_555 1_555
C3A C4A 1_555 1_555
H7A C3A 1_555 1_555
C8A C3A 1_555 1_555
N3A C8A 1_555 1_555
C16A N3A 1_555 1_555
H15A C16A 1_555 1_555
C17A C16A 1_555 1_555
H16A C17A 1_555 1_555
C22A C17A 1_555 1_555
C18A C22A 1_555 1_555
H17A C18A 1_555 1_555
C19A C18A 1_555 1_555
H18A C19A 1_555 1_555
C20A C19A 1_555 1_555
N4A C20A 1_555 1_555
C21A N3A 1_555 1_555
H19A C20A 1_555 1_555
C7A C6A 1_555 1_555
H9A C7A 1_555 1_555
H8A C5A 1_555 1_555
H20A C23A 1_555 1_555
H21A C24A 1_555 1_555
C26A C27 1_555 1_555
H22A C26A 1_555 1_555
H23A C27A 1_555 1_555
N2 C14 1_555 1_555
N4 C21 1_555 1_555
C5 C6 1_555 1_555
C7 C8 1_555 1_555
C11 C15 1_555 1_555
C14 C15 1_555 1_555
C18 C22 1_555 1_555
C21 C22 1_555 1_555
C25A C26A 1_555 1_555
C15A C14A 1_555 1_555
N2A C14A 1_555 1_555
C8A C7A 1_555 1_555
C22A C21A 1_555 1_555
N4A C21A 1_555 1_555

#END
