
#######################################################################
#
#                 Cambridge Crystallographic Data Centre
#                                CCDC 
#
#######################################################################
#
# If this CIF has been generated from an entry in the Cambridge 
# Structural Database, then it will include bibliographic, chemical, 
# crystal, experimental, refinement or atomic coordinate data resulting 
# from the CCDC's data processing and validation procedures.
#
#######################################################################

data_OBUZAO
_chemical_formula_moiety         'C9 H7 N1 O3 S1'
_chemical_name_systematic        
'2-(3-Oxo-2,3-dihydro-1,2-benzothiazol-2-yl)acetic acid'
_symmetry_cell_setting           orthorhombic
_symmetry_space_group_name_H-M   'P 21 21 21'
_symmetry_Int_Tables_number      19
_space_group_name_Hall           'P 2ac 2ab'
loop_
_symmetry_equiv_pos_site_id
_symmetry_equiv_pos_as_xyz
1 x,y,z
2 1/2-x,-y,1/2+z
3 -x,1/2+y,1/2-z
4 1/2+x,1/2-y,-z
_cell_length_a                   4.7774(11)
_cell_length_b                   11.367(3)
_cell_length_c                   16.159(4)
_cell_angle_alpha                90
_cell_angle_beta                 90
_cell_angle_gamma                90
_cell_volume                     877.51
_exptl_crystal_colour            colorless
_exptl_crystal_description       block
_cell_formula_units_Z            4
_exptl_crystal_recrystallization_method dimethylformamide/water
loop_
_atom_site_label
_atom_site_type_symbol
_atom_site_fract_x
_atom_site_fract_y
_atom_site_fract_z
S1 S 0.79701(8) 0.63585(3) 0.49404(2)
O1 O 0.4484(3) 0.48499(11) 0.67636(7)
O2 O 0.4545(3) 0.79003(11) 0.67052(8)
O3 O 0.7852(3) 0.79542(12) 0.76921(7)
N1 N 0.7188(3) 0.60058(12) 0.59414(8)
C1 C 0.5586(3) 0.53095(14) 0.45995(10)
C2 C 0.4940(4) 0.50367(15) 0.37799(10)
H1 H 0.5850 0.5422 0.3333
C3 C 0.2934(4) 0.41885(16) 0.36417(11)
H2 H 0.2443 0.3992 0.3089
C4 C 0.1598(4) 0.36082(17) 0.42984(11)
H3 H 0.0224 0.3027 0.4184
C5 C 0.2255(3) 0.38708(13) 0.51040(11)
H4 H 0.1357 0.3475 0.5548
C6 C 0.4278(4) 0.47343(14) 0.52566(10)
C7 C 0.5239(4) 0.51590(14) 0.60561(10)
C8 C 0.8509(4) 0.65927(15) 0.66335(10)
H5 H 1.0303 0.6939 0.6447
H6 H 0.8936 0.6005 0.7067
C9 C 0.6707(4) 0.75520(14) 0.70016(10)
H7 H 0.695(5) 0.855(3) 0.7888(16)
loop_
_geom_bond_atom_site_label_1
_geom_bond_atom_site_label_2
_geom_bond_site_symmetry_1
_geom_bond_site_symmetry_2
S1 N1 1_555 1_555
O1 C7 1_555 1_555
O2 C9 1_555 1_555
O3 C9 1_555 1_555
N1 C7 1_555 1_555
C1 S1 1_555 1_555
C2 C1 1_555 1_555
H1 C2 1_555 1_555
C3 C2 1_555 1_555
H2 C3 1_555 1_555
C4 C3 1_555 1_555
H3 C4 1_555 1_555
C5 C4 1_555 1_555
H4 C5 1_555 1_555
C6 C1 1_555 1_555
C7 C6 1_555 1_555
C8 N1 1_555 1_555
H5 C8 1_555 1_555
H6 C8 1_555 1_555
C9 C8 1_555 1_555
H7 O3 1_555 1_555
C5 C6 1_555 1_555

#END
