
#######################################################################
#
#                 Cambridge Crystallographic Data Centre
#                                CCDC 
#
#######################################################################
#
# If this CIF has been generated from an entry in the Cambridge 
# Structural Database, then it will include bibliographic, chemical, 
# crystal, experimental, refinement or atomic coordinate data resulting 
# from the CCDC's data processing and validation procedures.
#
#######################################################################

data_OCACEC
_chemical_formula_moiety         'C26 H28 Br1 N1'
_chemical_name_systematic        9-(4-Bromophenyl)-3,6-di-t-butyl-9H-carbazole
_symmetry_cell_setting           triclinic
_symmetry_space_group_name_H-M   'P -1'
_symmetry_Int_Tables_number      2
_space_group_name_Hall           '-P 1'
loop_
_symmetry_equiv_pos_site_id
_symmetry_equiv_pos_as_xyz
1 x,y,z
2 -x,-y,-z
_cell_length_a                   5.9300(12)
_cell_length_b                   17.634(4)
_cell_length_c                   22.343(5)
_cell_angle_alpha                100.38(3)
_cell_angle_beta                 95.13(3)
_cell_angle_gamma                99.32(3)
_cell_volume                     2250.83
_exptl_crystal_colour            colorless
_exptl_crystal_description       block
_cell_formula_units_Z            4
loop_
_atom_site_label
_atom_site_type_symbol
_atom_site_fract_x
_atom_site_fract_y
_atom_site_fract_z
Br1 Br 1.18728(13) 0.51528(4) 0.36422(3)
N1 N 0.6647(9) 0.7449(3) 0.2618(2)
C1 C 0.5559(11) 0.7335(3) 0.2012(3)
C2 C 0.5832(11) 0.6807(3) 0.1511(3)
H1 H 0.6799 0.6445 0.1535
C3 C 0.4579(13) 0.6840(4) 0.0960(3)
H2 H 0.4754 0.6491 0.0609
C4 C 0.3087(11) 0.7362(4) 0.0903(3)
C5 C 0.2891(11) 0.7887(3) 0.1427(3)
H3 H 0.1913 0.8246 0.1405
C6 C 0.4127(10) 0.7888(3) 0.1984(3)
C7 C 0.4345(11) 0.8367(3) 0.2589(3)
C8 C 0.5856(11) 0.8078(3) 0.2972(3)
C9 C 0.3366(11) 0.9001(3) 0.2840(3)
H4 H 0.2386 0.9210 0.2592
C10 C 0.3866(12) 0.9320(4) 0.3466(3)
C11 C 0.5337(13) 0.8995(4) 0.3825(3)
H5 H 0.5652 0.9209 0.4242
C12 C 0.6350(12) 0.8375(4) 0.3596(3)
H6 H 0.7317 0.8165 0.3847
C13 C 0.1759(12) 0.7339(4) 0.0287(3)
C14 C 0.0161(13) 0.7946(4) 0.0318(3)
H7 H -0.0921 0.7849 0.0602
H8 H -0.0654 0.7905 -0.0081
H9 H 0.1061 0.8463 0.0451
C15 C 0.3463(15) 0.7520(5) -0.0174(4)
H10 H 0.4463 0.7142 -0.0212
H11 H 0.4363 0.8036 -0.0031
H12 H 0.2621 0.7496 -0.0567
C16 C 0.0283(15) 0.6533(4) 0.0045(4)
H13 H -0.0786 0.6419 0.0329
H14 H 0.1253 0.6145 -0.0001
H15 H -0.0548 0.6527 -0.0345
C17 C 0.2911(12) 1.0038(4) 0.3755(3)
C18 C 0.4896(15) 1.0737(4) 0.3912(4)
H16 H 0.5515 1.0830 0.3544
H17 H 0.6077 1.0628 0.4190
H18 H 0.4344 1.1194 0.4102
C19 C 0.1969(14) 0.9909(4) 0.4331(3)
H19 H 0.1380 1.0363 0.4509
H20 H 0.3169 0.9822 0.4615
H21 H 0.0750 0.9460 0.4242
C20 C 0.0997(14) 1.0215(4) 0.3337(3)
H22 H 0.1563 1.0310 0.2963
H23 H 0.0469 1.0671 0.3537
H24 H -0.0255 0.9776 0.3247
C21 C 0.7872(12) 0.6911(4) 0.2852(3)
C22 C 1.0060(13) 0.7177(4) 0.3155(3)
H25 H 1.0738 0.7700 0.3194
C23 C 1.1281(12) 0.6664(4) 0.3407(3)
H26 H 1.2742 0.6842 0.3622
C24 C 1.0248(12) 0.5896(4) 0.3323(3)
C25 C 0.8063(12) 0.5632(4) 0.3026(3)
H27 H 0.7385 0.5108 0.2980
C26 C 0.6872(12) 0.6147(3) 0.2794(3)
H28 H 0.5379 0.5971 0.2598
Br2 Br -0.10255(13) 0.46827(4) 0.85902(4)
N2 N 0.5597(9) 0.7103(3) 0.7642(2)
C27 C 0.5939(11) 0.6989(3) 0.7025(3)
C28 C 0.4698(12) 0.6432(4) 0.6522(3)
H29 H 0.3398 0.6084 0.6568
C29 C 0.5478(12) 0.6425(4) 0.5968(3)
H30 H 0.4670 0.6062 0.5633
C30 C 0.7458(12) 0.6941(4) 0.5872(3)
C31 C 0.8639(12) 0.7489(4) 0.6379(3)
H31 H 0.9930 0.7842 0.6335
C32 C 0.7872(11) 0.7503(3) 0.6948(3)
C33 C 0.8728(11) 0.7983(4) 0.7553(3)
C34 C 0.7351(12) 0.7715(4) 0.7960(3)
C35 C 1.0543(12) 0.8605(4) 0.7758(3)
H32 H 1.1509 0.8773 0.7484
C36 C 1.0928(13) 0.8978(4) 0.8369(3)
C37 C 0.9450(13) 0.8687(4) 0.8764(3)
H33 H 0.9663 0.8937 0.9174
C38 C 0.7728(13) 0.8061(4) 0.8576(3)
H34 H 0.6822 0.7869 0.8854
C39 C 0.8219(12) 0.6878(4) 0.5232(3)
C40 C 0.6346(14) 0.7003(5) 0.4787(3)
H35 H 0.6860 0.6975 0.4390
H36 H 0.5961 0.7510 0.4922
H37 H 0.5011 0.6605 0.4764
C41 C 1.0313(14) 0.7502(5) 0.5216(4)
H38 H 1.0722 0.7449 0.4807
H39 H 1.1582 0.7436 0.5488
H40 H 0.9950 0.8013 0.5344
C42 C 0.8816(17) 0.6065(5) 0.5030(4)
H41 H 0.9307 0.6022 0.4629
H42 H 0.7483 0.5671 0.5019
H43 H 1.0034 0.5992 0.5315
C43 C 1.2806(14) 0.9709(4) 0.8600(3)
C44 C 1.3953(19) 0.9693(6) 0.9218(4)
H44 H 1.4664 0.9238 0.9195
H45 H 1.2829 0.9674 0.9501
H46 H 1.5105 1.0157 0.9357
C45 C 1.1659(15) 1.0427(4) 0.8613(5)
H47 H 1.2799 1.0895 0.8749
H48 H 1.0508 1.0414 0.8888
H49 H 1.0951 1.0424 0.8208
C46 C 1.4614(15) 0.9776(5) 0.8171(4)
H50 H 1.5384 0.9335 0.8148
H51 H 1.5713 1.0251 0.8320
H52 H 1.3897 0.9786 0.7770
C47 C 0.4023(13) 0.6594(3) 0.7889(3)
C48 C 0.4838(12) 0.6231(4) 0.8355(3)
H53 H 0.6383 0.6354 0.8516
C49 C 0.3324(13) 0.5688(3) 0.8573(3)
H54 H 0.3858 0.5444 0.8879
C50 C 0.1026(12) 0.5510(4) 0.8337(3)
C51 C 0.0264(13) 0.5897(4) 0.7890(3)
H55 H -0.1283 0.5786 0.7731
C52 C 0.1742(12) 0.6433(4) 0.7683(3)
H56 H 0.1179 0.6696 0.7393
loop_
_geom_bond_atom_site_label_1
_geom_bond_atom_site_label_2
_geom_bond_site_symmetry_1
_geom_bond_site_symmetry_2
Br1 C24 1_555 1_555
N1 C1 1_555 1_555
C1 C2 1_555 1_555
C2 H1 1_555 1_555
C3 C2 1_555 1_555
H2 C3 1_555 1_555
C4 C3 1_555 1_555
C5 C4 1_555 1_555
H3 C5 1_555 1_555
C6 C1 1_555 1_555
C7 C6 1_555 1_555
C8 N1 1_555 1_555
C9 C7 1_555 1_555
H4 C9 1_555 1_555
C10 C9 1_555 1_555
C11 C10 1_555 1_555
H5 C11 1_555 1_555
C12 C8 1_555 1_555
H6 C12 1_555 1_555
C13 C4 1_555 1_555
C14 C13 1_555 1_555
H7 C14 1_555 1_555
H8 C14 1_555 1_555
H9 C14 1_555 1_555
C15 C13 1_555 1_555
H10 C15 1_555 1_555
H11 C15 1_555 1_555
H12 C15 1_555 1_555
C16 C13 1_555 1_555
H13 C16 1_555 1_555
H14 C16 1_555 1_555
H15 C16 1_555 1_555
C17 C10 1_555 1_555
C18 C17 1_555 1_555
H16 C18 1_555 1_555
H17 C18 1_555 1_555
H18 C18 1_555 1_555
C19 C17 1_555 1_555
H19 C19 1_555 1_555
H20 C19 1_555 1_555
H21 C19 1_555 1_555
C20 C17 1_555 1_555
H22 C20 1_555 1_555
H23 C20 1_555 1_555
H24 C20 1_555 1_555
C21 N1 1_555 1_555
C22 C21 1_555 1_555
H25 C22 1_555 1_555
C23 C22 1_555 1_555
H26 C23 1_555 1_555
C24 C23 1_555 1_555
C25 C24 1_555 1_555
H27 C25 1_555 1_555
C26 C21 1_555 1_555
H28 C26 1_555 1_555
Br2 C50 1_555 1_555
N2 C27 1_555 1_555
C27 C28 1_555 1_555
C28 H29 1_555 1_555
C29 C28 1_555 1_555
H30 C29 1_555 1_555
C30 C29 1_555 1_555
C31 C30 1_555 1_555
H31 C31 1_555 1_555
C32 C27 1_555 1_555
C33 C32 1_555 1_555
C34 N2 1_555 1_555
C35 C33 1_555 1_555
H32 C35 1_555 1_555
C36 C35 1_555 1_555
C37 C36 1_555 1_555
H33 C37 1_555 1_555
C38 C34 1_555 1_555
H34 C38 1_555 1_555
C39 C30 1_555 1_555
C40 C39 1_555 1_555
H35 C40 1_555 1_555
H36 C40 1_555 1_555
H37 C40 1_555 1_555
C41 C39 1_555 1_555
H38 C41 1_555 1_555
H39 C41 1_555 1_555
H40 C41 1_555 1_555
C42 C39 1_555 1_555
H41 C42 1_555 1_555
H42 C42 1_555 1_555
H43 C42 1_555 1_555
C43 C36 1_555 1_555
C44 C43 1_555 1_555
H44 C44 1_555 1_555
H45 C44 1_555 1_555
H46 C44 1_555 1_555
C45 C43 1_555 1_555
H47 C45 1_555 1_555
H48 C45 1_555 1_555
H49 C45 1_555 1_555
C46 C43 1_555 1_555
H50 C46 1_555 1_555
H51 C46 1_555 1_555
H52 C46 1_555 1_555
C47 N2 1_555 1_555
C48 C47 1_555 1_555
H53 C48 1_555 1_555
C49 C48 1_555 1_555
H54 C49 1_555 1_555
C50 C49 1_555 1_555
C51 C50 1_555 1_555
H55 C51 1_555 1_555
C52 C47 1_555 1_555
H56 C52 1_555 1_555
C5 C6 1_555 1_555
C7 C8 1_555 1_555
C11 C12 1_555 1_555
C25 C26 1_555 1_555
C31 C32 1_555 1_555
C33 C34 1_555 1_555
C37 C38 1_555 1_555
C51 C52 1_555 1_555

#END
