
#######################################################################
#
#                 Cambridge Crystallographic Data Centre
#                                CCDC 
#
#######################################################################
#
# If this CIF has been generated from an entry in the Cambridge 
# Structural Database, then it will include bibliographic, chemical, 
# crystal, experimental, refinement or atomic coordinate data resulting 
# from the CCDC's data processing and validation procedures.
#
#######################################################################

data_OCACAY
_chemical_name_common            
"Dodecamethyl 2,2',2'',2''',2'''',2''''',2'''''',2''''''',2'''''''',2''''''''',2'''''''''',2'''''''''''-((2,8,14,20-tetrapentylpentacyclo[19.3.1.1$3,7!.1$9,13!.1$15,19!]octacosa-1(25),3(28),4,6,9(27),10,12,15(26),16,18,21,23-dodecaene-4,5,6,10,11,12,16,17,18,22,23,24-dodecayl)dodecakis(oxy))dodecaacetate"
_chemical_formula_moiety         'C84 H112 O36'
_chemical_name_systematic        
4,5,6,10,11,12,16,17,18,22,23,24-dodecakis[(methoxycarbonyl)methoxy]-2,8,14,20-tetrapentylresorcin[4]arene
_symmetry_cell_setting           triclinic
_symmetry_space_group_name_H-M   'P -1'
_symmetry_Int_Tables_number      2
_space_group_name_Hall           '-P 1'
loop_
_symmetry_equiv_pos_site_id
_symmetry_equiv_pos_as_xyz
1 x,y,z
2 -x,-y,-z
_cell_length_a                   13.8526(7)
_cell_length_b                   13.9033(7)
_cell_length_c                   23.7333(11)
_cell_angle_alpha                102.2310(10)
_cell_angle_beta                 90.8650(10)
_cell_angle_gamma                94.9000(10)
_cell_volume                     4448.29
_exptl_crystal_colour            colorless
_exptl_crystal_description       block
_cell_formula_units_Z            2
loop_
_atom_site_label
_atom_site_type_symbol
_atom_site_fract_x
_atom_site_fract_y
_atom_site_fract_z
O1 O 0.13264(12) 0.31173(13) 0.14032(7)
O2 O 0.10243(17) 0.13560(17) 0.06370(10)
O3 O 0.0785(2) 0.2129(2) -0.00817(9)
O4 O 0.16273(13) 0.51494(14) 0.14819(7)
O5 O -0.0588(11) 0.6228(14) 0.1755(8)
O6 O 0.31777(14) 0.62305(13) 0.21628(7)
O7 O 0.4637(2) 0.7610(2) 0.20494(13)
O8 O 0.3824(2) 0.79052(18) 0.12883(11)
O9 O 0.58545(13) 0.52770(12) 0.18926(7)
O10 O 0.6304(3) 0.5992(2) 0.09343(11)
O11 O 0.6798(2) 0.74647(17) 0.14643(11)
O12 O 0.75594(12) 0.43942(15) 0.19019(7)
O13 O 0.89365(17) 0.3820(3) 0.11323(10)
O14 O 0.78558(19) 0.3844(3) 0.04323(10)
O15 O 0.79734(11) 0.34439(14) 0.28147(7)
O16 O 0.92758(17) 0.47149(18) 0.35766(10)
O17 O 1.04481(14) 0.43717(19) 0.29349(9)
O18 O 0.81969(12) 0.24638(13) 0.42267(7)
O19 O 1.06736(17) 0.3149(2) 0.40676(13)
O20 O 0.9688(2) 0.3370(3) 0.48027(13)
O21 O 0.80037(13) 0.04236(14) 0.40250(8)
O22 O 0.92065(18) -0.0667(2) 0.44649(12)
O23 O 0.83115(18) -0.05890(19) 0.52536(10)
O24 O 0.63472(15) -0.06190(13) 0.34663(9)
O25 O 0.72536(18) -0.19955(18) 0.38958(13)
O26 O 0.7890(2) -0.25356(19) 0.30427(12)
O27 O 0.61969(12) 0.05048(12) 0.20480(7)
O28 O 0.76894(14) 0.02241(16) 0.12940(9)
O29 O 0.84630(14) 0.16619(17) 0.17455(9)
O30 O 0.57879(13) 0.15382(12) 0.12059(7)
O31 O 0.71822(16) 0.16864(18) 0.04556(9)
O32 O 0.65902(15) 0.02776(16) -0.01339(9)
O33 O 0.39248(13) 0.21417(13) 0.11147(7)
O34 O 0.48113(19) 0.22384(16) 0.00985(9)
O35 O 0.52875(17) 0.38380(16) 0.04393(9)
C1 C 0.27237(16) 0.31799(17) 0.20164(10)
C2 C 0.21143(16) 0.36646(18) 0.17209(10)
C3 C 0.22623(17) 0.46773(18) 0.17690(10)
C4 C 0.30425(18) 0.52186(17) 0.21001(10)
C5 C 0.36682(16) 0.47595(17) 0.24047(9)
C6 C 0.34837(16) 0.37460(17) 0.23617(10)
H1 H 0.3890 0.3426 0.2575
C7 C 0.44980(17) 0.53857(16) 0.27734(9)
H2 H 0.4681 0.5944 0.2580
C8 C 0.54085(16) 0.48511(15) 0.27913(9)
C9 C 0.60583(16) 0.48333(16) 0.23463(9)
C10 C 0.69133(16) 0.43676(17) 0.23376(9)
C11 C 0.71685(15) 0.39636(17) 0.28034(9)
C12 C 0.65470(15) 0.39848(16) 0.32667(9)
C13 C 0.56720(15) 0.44136(15) 0.32418(9)
H3 H 0.5237 0.4406 0.3547
C14 C 0.68698(16) 0.35817(16) 0.37786(9)
H4 H 0.7585 0.3760 0.3828
C15 C 0.67284(16) 0.24601(16) 0.36732(9)
C16 C 0.74106(17) 0.19455(18) 0.38985(10)
C17 C 0.72957(18) 0.09213(18) 0.38165(10)
C18 C 0.64867(18) 0.03932(17) 0.35140(11)
C19 C 0.57916(17) 0.08802(17) 0.32812(9)
C20 C 0.59211(16) 0.19039(16) 0.33727(9)
H5 H 0.5440 0.2240 0.3225
C21 C 0.49368(17) 0.02652(16) 0.29302(10)
H6 H 0.5174 -0.0379 0.2739
C22 C 0.46404(16) 0.07671(16) 0.24526(9)
C23 C 0.53180(16) 0.09029(16) 0.20368(10)
C24 C 0.50914(17) 0.13776(16) 0.15997(9)
C25 C 0.41828(17) 0.17231(17) 0.15692(9)
C26 C 0.34932(16) 0.16143(16) 0.19821(10)
C27 C 0.37446(16) 0.11397(16) 0.24166(10)
H7 H 0.3285 0.1067 0.2701
C28 C 0.25388(17) 0.20660(18) 0.19525(11)
H8 H 0.2246 0.1794 0.1557
C29 C 0.1248(2) 0.3151(2) 0.08097(11)
H9 H 0.1864 0.3446 0.0686
H10 H 0.0723 0.3560 0.0745
C30 C 0.1024(2) 0.2094(3) 0.04659(12)
C31 C 0.0546(4) 0.1173(4) -0.04665(17)
H11 H 0.0384 0.1267 -0.0853
H12 H -0.0010 0.0826 -0.0321
H13 H 0.1104 0.0780 -0.0485
C32 C 0.0816(2) 0.5415(3) 0.18191(14)
H14 H 0.1031 0.5933 0.2163
H15 H 0.0523 0.4832 0.1953
C33 C 0.0316(6) 0.6084(8) 0.1556(4)
C34 C -0.1142(10) 0.6568(10) 0.1266(7)
H16 H -0.1803 0.6690 0.1383
H17 H -0.1166 0.6050 0.0913
H18 H -0.0805 0.7177 0.1194
C35 C 0.3204(4) 0.6603(3) 0.16515(16)
H19 H 0.2571 0.6848 0.1583
H20 H 0.3317 0.6065 0.1319
C36 C 0.3975(3) 0.7411(2) 0.16959(14)
C37 C 0.4514(4) 0.8719(3) 0.12526(17)
H21 H 0.4317 0.9021 0.0937
H22 H 0.5156 0.8481 0.1180
H23 H 0.4540 0.9211 0.1617
C38 C 0.41432(18) 0.58630(17) 0.33713(10)
H24 H 0.3491 0.6083 0.3325
H25 H 0.4085 0.5361 0.3612
C39 C 0.48218(19) 0.67438(18) 0.36810(10)
H26 H 0.5475 0.6523 0.3722
H27 H 0.4875 0.7246 0.3441
C40 C 0.4492(2) 0.7219(2) 0.42729(11)
H28 H 0.4524 0.6745 0.4529
H29 H 0.3807 0.7358 0.4240
C41 C 0.5095(3) 0.8174(2) 0.45475(12)
H30 H 0.5782 0.8038 0.4574
H31 H 0.5054 0.8653 0.4295
C42 C 0.4774(4) 0.8637(3) 0.51429(15)
H32 H 0.5189 0.9246 0.5297
H33 H 0.4827 0.8173 0.5398
H34 H 0.4100 0.8791 0.5119
C43 C 0.6397(3) 0.6229(2) 0.19571(13)
H35 H 0.7057 0.6199 0.2115
H36 H 0.6075 0.6729 0.2232
C44 C 0.6463(3) 0.6519(2) 0.13949(14)
C45 C 0.6989(4) 0.7835(3) 0.0947(2)
H37 H 0.7234 0.8534 0.1054
H38 H 0.6388 0.7766 0.0713
H39 H 0.7473 0.7457 0.0724
C46 C 0.72502(19) 0.3873(2) 0.13404(11)
H40 H 0.6738 0.4209 0.1185
H41 H 0.6988 0.3191 0.1349
C47 C 0.8126(2) 0.3856(3) 0.09716(12)
C48 C 0.88925(19) 0.3759(3) 0.26271(12)
H42 H 0.8798 0.4171 0.2342
H43 H 0.9209 0.3172 0.2432
C49 C 0.95370(19) 0.4331(2) 0.31051(12)
C50 C 1.1197(3) 0.4892(4) 0.33409(18)
H44 H 1.1824 0.4871 0.3155
H45 H 1.1221 0.4578 0.3673
H46 H 1.1056 0.5581 0.3471
C51 C 0.64378(17) 0.40365(17) 0.43593(9)
H47 H 0.5722 0.3920 0.4322
H48 H 0.6658 0.3694 0.4657
C52 C 0.6716(2) 0.51402(18) 0.45618(10)
H49 H 0.7414 0.5280 0.4497
H50 H 0.6346 0.5499 0.4325
C53 C 0.6527(2) 0.5531(2) 0.51943(11)
H51 H 0.5830 0.5385 0.5259
H52 H 0.6899 0.5172 0.5430
C54 C 0.6792(3) 0.6621(2) 0.54015(13)
H53 H 0.6386 0.6981 0.5185
H54 H 0.7476 0.6774 0.5311
C55 C 0.6672(3) 0.7004(3) 0.60402(14)
H55 H 0.6856 0.7717 0.6140
H56 H 0.7087 0.6669 0.6260
H57 H 0.5993 0.6873 0.6134
C56 C 0.90769(18) 0.2393(2) 0.39250(12)
H58 H 0.8991 0.2598 0.3554
H59 H 0.9234 0.1696 0.3838
C57 C 0.9896(2) 0.3023(2) 0.42670(15)
C58 C 0.7784(2) 0.0235(2) 0.45776(12)
H60 H 0.7130 -0.0117 0.4565
H61 H 0.7796 0.0865 0.4866
C59 C 0.8536(2) -0.0389(2) 0.47394(14)
C60 C 0.8964(4) -0.1161(4) 0.5486(2)
H62 H 0.8737 -0.1266 0.5859
H63 H 0.9613 -0.0808 0.5538
H64 H 0.8989 -0.1802 0.5220
C61 C 0.6997(3) -0.1183(2) 0.31008(15)
H65 H 0.7548 -0.0743 0.3012
H66 H 0.6658 -0.1525 0.2734
C62 C 0.7369(2) -0.1944(2) 0.34179(17)
C63 C 0.8307(4) -0.3291(3) 0.3290(2)
H67 H 0.8673 -0.3703 0.2997
H68 H 0.7786 -0.3705 0.3421
H69 H 0.8742 -0.2972 0.3618
C64 C 0.41294(18) 0.00307(18) 0.33315(11)
H70 H 0.4433 -0.0118 0.3680
H71 H 0.3781 0.0628 0.3457
C65 C 0.3390(2) -0.08324(19) 0.30649(13)
H72 H 0.3056 -0.0676 0.2728
H73 H 0.3732 -0.1430 0.2927
C66 C 0.2637(3) -0.1046(2) 0.34966(17)
H74 H 0.2979 -0.1136 0.3849
H75 H 0.2260 -0.0466 0.3608
C67 C 0.1947(3) -0.1945(3) 0.3272(3)
H76 H 0.2319 -0.2527 0.3155
H77 H 0.1589 -0.1852 0.2926
C68 C 0.70280(17) 0.1200(2) 0.21429(11)
H78 H 0.7344 0.1199 0.2520
H79 H 0.6827 0.1870 0.2156
C69 C 0.77419(18) 0.0953(2) 0.16712(11)
C70 C 0.9223(2) 0.1517(3) 0.13299(15)
H80 H 0.9720 0.2077 0.1421
H81 H 0.8947 0.1469 0.0941
H82 H 0.9516 0.0906 0.1346
C71 C 0.57699(19) 0.07468(19) 0.07079(10)
H83 H 0.5147 0.0688 0.0488
H84 H 0.5841 0.0114 0.0825
C72 C 0.6599(2) 0.0980(2) 0.03421(11)
C73 C 0.7376(3) 0.0367(3) -0.05216(16)
H85 H 0.7301 -0.0189 -0.0855
H86 H 0.7997 0.0362 -0.0319
H87 H 0.7362 0.0989 -0.0652
C74 C 0.4464(2) 0.30404(19) 0.10712(11)
H88 H 0.5004 0.3191 0.1363
H89 H 0.4039 0.3588 0.1151
C75 C 0.4864(2) 0.2963(2) 0.04783(11)
C76 C 0.5725(3) 0.3904(3) -0.01014(14)
H90 H 0.6012 0.4580 -0.0080
H91 H 0.5229 0.3729 -0.0414
H92 H 0.6232 0.3447 -0.0177
C77 C 0.17789(19) 0.1841(2) 0.23849(14)
H93 H 0.2091 0.1992 0.2775
H94 H 0.1260 0.2290 0.2389
C78 C 0.8624(6) 0.4000(9) 0.0032(3)
H95 H 0.8332 0.3995 -0.0347
H96 H 0.9056 0.3469 -0.0003
H97 H 0.8996 0.4638 0.0180
C79 C 1.0539(7) 0.4097(9) 0.5074(4)
H98 H 1.0404 0.4383 0.5476
H99 H 1.0633 0.4626 0.4860
H100 H 1.1128 0.3751 0.5062
C80 C 0.1219(3) -0.2139(3) 0.3726(3)
H101 H 0.0780 -0.2727 0.3563
H102 H 0.0842 -0.1568 0.3839
H103 H 0.1569 -0.2248 0.4066
C81 C 0.0037(7) -0.0223(7) 0.2817(5)
H104 H -0.0426 -0.0128 0.3134
H105 H 0.0552 -0.0614 0.2918
C82 C -0.0498(6) -0.0769(7) 0.2240(4)
H106 H -0.0870 -0.1370 0.2299
H107 H -0.0021 -0.0947 0.1944
H108 H -0.0939 -0.0334 0.2115
C83 C 0.0481(9) 0.0789(7) 0.2726(6)
H109 H 0.0753 0.1175 0.3103
H110 H -0.0050 0.1146 0.2609
C84 C 0.1314(3) 0.0780(3) 0.2262(2)
H111 H 0.1067 0.0618 0.1856
H112 H 0.1836 0.0346 0.2288
O36 O 0.0472(7) 0.6391(9) 0.1141(5)
C85? C 0.0037(8) 0.5812(9) 0.1459(6)
C86? C -0.1111(6) 0.6977(7) 0.1668(4)
C87? C 0.8589(6) 0.3402(9) 0.0006(3)
C88? C 1.0468(7) 0.3747(9) 0.5269(4)
C89? C 0.0532(9) 0.0504(7) 0.2614(6)
C90? C 0.0065(7) -0.0521(7) 0.2412(5)
C91? C -0.0696(6) -0.0663(7) 0.2845(5)
H113? H -0.1449 0.7335 0.1996
H114? H -0.1587 0.6571 0.1387
H115? H -0.0737 0.7450 0.1485
H116? H 0.8370 0.3417 -0.0386
H117? H 0.8649 0.2716 0.0035
H118? H 0.9219 0.3786 0.0095
H119? H 1.0165 0.3990 0.5636
H120? H 1.0882 0.4287 0.5166
H121? H 1.0861 0.3209 0.5306
H122? H 0.0030 0.0972 0.2625
H123? H 0.0790 0.0575 0.3014
H124? H 0.0549 -0.1009 0.2398
H125? H -0.0238 -0.0603 0.2023
H126? H -0.1002 -0.1342 0.2744
H127? H -0.1188 -0.0199 0.2840
H128? H -0.0390 -0.0541 0.3232
O37? O 0.0172(6) 0.5699(6) 0.0932(4)
O38? O -0.0469(7) 0.6352(10) 0.1866(5)
loop_
_geom_bond_atom_site_label_1
_geom_bond_atom_site_label_2
_geom_bond_site_symmetry_1
_geom_bond_site_symmetry_2
O1 C2 1_555 1_555
O2 C30 1_555 1_555
O3 C30 1_555 1_555
O4 C3 1_555 1_555
O5 C33 1_555 1_555
O6 C4 1_555 1_555
O7 C36 1_555 1_555
O8 C36 1_555 1_555
O9 C9 1_555 1_555
O10 C44 1_555 1_555
O11 C44 1_555 1_555
O12 C10 1_555 1_555
O13 C47 1_555 1_555
O14 C47 1_555 1_555
O15 C11 1_555 1_555
O16 C49 1_555 1_555
O17 C49 1_555 1_555
O18 C16 1_555 1_555
O19 C57 1_555 1_555
O20 C57 1_555 1_555
O21 C17 1_555 1_555
O22 C59 1_555 1_555
O23 C59 1_555 1_555
O24 C18 1_555 1_555
O25 C62 1_555 1_555
O26 C62 1_555 1_555
O27 C23 1_555 1_555
O28 C69 1_555 1_555
O29 C69 1_555 1_555
O30 C24 1_555 1_555
O31 C72 1_555 1_555
O32 C72 1_555 1_555
O33 C25 1_555 1_555
O34 C75 1_555 1_555
O35 C75 1_555 1_555
C1 C2 1_555 1_555
C2 C3 1_555 1_555
C3 C4 1_555 1_555
C4 C5 1_555 1_555
C5 C6 1_555 1_555
C6 C1 1_555 1_555
H1 C6 1_555 1_555
C7 C5 1_555 1_555
H2 C7 1_555 1_555
C8 C7 1_555 1_555
C9 C8 1_555 1_555
C10 C9 1_555 1_555
C11 C10 1_555 1_555
C12 C11 1_555 1_555
C13 C8 1_555 1_555
H3 C13 1_555 1_555
C14 C12 1_555 1_555
H4 C14 1_555 1_555
C15 C14 1_555 1_555
C16 C15 1_555 1_555
C17 C16 1_555 1_555
C18 C17 1_555 1_555
C19 C18 1_555 1_555
C20 C15 1_555 1_555
H5 C20 1_555 1_555
C21 C19 1_555 1_555
H6 C21 1_555 1_555
C22 C21 1_555 1_555
C23 C22 1_555 1_555
C24 C23 1_555 1_555
C25 C24 1_555 1_555
C26 C25 1_555 1_555
C27 C22 1_555 1_555
H7 C27 1_555 1_555
C28 C1 1_555 1_555
H8 C28 1_555 1_555
C29 O1 1_555 1_555
H9 C29 1_555 1_555
H10 C29 1_555 1_555
C30 C29 1_555 1_555
C31 O3 1_555 1_555
H11 C31 1_555 1_555
H12 C31 1_555 1_555
H13 C31 1_555 1_555
C32 O4 1_555 1_555
H14 C32 1_555 1_555
H15 C32 1_555 1_555
C33 C32 1_555 1_555
C34 O5 1_555 1_555
H16 C34 1_555 1_555
H17 C34 1_555 1_555
H18 C34 1_555 1_555
C35 O6 1_555 1_555
H19 C35 1_555 1_555
H20 C35 1_555 1_555
C36 C35 1_555 1_555
C37 O8 1_555 1_555
H21 C37 1_555 1_555
H22 C37 1_555 1_555
H23 C37 1_555 1_555
C38 C7 1_555 1_555
H24 C38 1_555 1_555
H25 C38 1_555 1_555
C39 C38 1_555 1_555
H26 C39 1_555 1_555
H27 C39 1_555 1_555
C40 C39 1_555 1_555
H28 C40 1_555 1_555
H29 C40 1_555 1_555
C41 C40 1_555 1_555
H30 C41 1_555 1_555
H31 C41 1_555 1_555
C42 C41 1_555 1_555
H32 C42 1_555 1_555
H33 C42 1_555 1_555
H34 C42 1_555 1_555
C43 O9 1_555 1_555
H35 C43 1_555 1_555
H36 C43 1_555 1_555
C44 C43 1_555 1_555
C45 O11 1_555 1_555
H37 C45 1_555 1_555
H38 C45 1_555 1_555
H39 C45 1_555 1_555
C46 O12 1_555 1_555
H40 C46 1_555 1_555
H41 C46 1_555 1_555
C47 C46 1_555 1_555
C48 O15 1_555 1_555
H42 C48 1_555 1_555
H43 C48 1_555 1_555
C49 C48 1_555 1_555
C50 O17 1_555 1_555
H44 C50 1_555 1_555
H45 C50 1_555 1_555
H46 C50 1_555 1_555
C51 C14 1_555 1_555
H47 C51 1_555 1_555
H48 C51 1_555 1_555
C52 C51 1_555 1_555
H49 C52 1_555 1_555
H50 C52 1_555 1_555
C53 C52 1_555 1_555
H51 C53 1_555 1_555
H52 C53 1_555 1_555
C54 C53 1_555 1_555
H53 C54 1_555 1_555
H54 C54 1_555 1_555
C55 C54 1_555 1_555
H55 C55 1_555 1_555
H56 C55 1_555 1_555
H57 C55 1_555 1_555
C56 O18 1_555 1_555
H58 C56 1_555 1_555
H59 C56 1_555 1_555
C57 C56 1_555 1_555
C58 O21 1_555 1_555
H60 C58 1_555 1_555
H61 C58 1_555 1_555
C59 C58 1_555 1_555
C60 O23 1_555 1_555
H62 C60 1_555 1_555
H63 C60 1_555 1_555
H64 C60 1_555 1_555
C61 O24 1_555 1_555
H65 C61 1_555 1_555
H66 C61 1_555 1_555
C62 C61 1_555 1_555
C63 O26 1_555 1_555
H67 C63 1_555 1_555
H68 C63 1_555 1_555
H69 C63 1_555 1_555
C64 C21 1_555 1_555
H70 C64 1_555 1_555
H71 C64 1_555 1_555
C65 C64 1_555 1_555
H72 C65 1_555 1_555
H73 C65 1_555 1_555
C66 C65 1_555 1_555
H74 C66 1_555 1_555
H75 C66 1_555 1_555
C67 C66 1_555 1_555
H76 C67 1_555 1_555
H77 C67 1_555 1_555
C68 O27 1_555 1_555
H78 C68 1_555 1_555
H79 C68 1_555 1_555
C69 C68 1_555 1_555
C70 O29 1_555 1_555
H80 C70 1_555 1_555
H81 C70 1_555 1_555
H82 C70 1_555 1_555
C71 O30 1_555 1_555
H83 C71 1_555 1_555
H84 C71 1_555 1_555
C72 C71 1_555 1_555
C73 O32 1_555 1_555
H85 C73 1_555 1_555
H86 C73 1_555 1_555
H87 C73 1_555 1_555
C74 O33 1_555 1_555
H88 C74 1_555 1_555
H89 C74 1_555 1_555
C75 C74 1_555 1_555
C76 O35 1_555 1_555
H90 C76 1_555 1_555
H91 C76 1_555 1_555
H92 C76 1_555 1_555
C77 C28 1_555 1_555
H93 C77 1_555 1_555
H94 C77 1_555 1_555
C78 O14 1_555 1_555
H95 C78 1_555 1_555
H96 C78 1_555 1_555
H97 C78 1_555 1_555
C79 O20 1_555 1_555
H98 C79 1_555 1_555
H99 C79 1_555 1_555
H100 C79 1_555 1_555
C80 C67 1_555 1_555
H101 C80 1_555 1_555
H102 C80 1_555 1_555
H103 C80 1_555 1_555
C81 H104 1_555 1_555
H105 C81 1_555 1_555
C82 C81 1_555 1_555
H106 C82 1_555 1_555
H107 C82 1_555 1_555
H108 C82 1_555 1_555
C83 C81 1_555 1_555
H109 C83 1_555 1_555
H110 C83 1_555 1_555
C84 C77 1_555 1_555
H111 C84 1_555 1_555
H112 C84 1_555 1_555
O36 C33 1_555 1_555
C12 C13 1_555 1_555
C19 C20 1_555 1_555
C26 C27 1_555 1_555
C26 C28 1_555 1_555
C83 C84 1_555 1_555

#END
