
#######################################################################
#
#                 Cambridge Crystallographic Data Centre
#                                CCDC 
#
#######################################################################
#
# If this CIF has been generated from an entry in the Cambridge 
# Structural Database, then it will include bibliographic, chemical, 
# crystal, experimental, refinement or atomic coordinate data resulting 
# from the CCDC's data processing and validation procedures.
#
#######################################################################

data_OCADED
_chemical_name_common            
1,2,3,4-Tetrahydro-1,4-methanoanthracene-6,7-dicarbonitrile
_chemical_formula_moiety         'C17 H12 N2'
_chemical_name_systematic        
Tetracyclo[10.2.1.0^2,11^.0^4,9^]pentadeca-2,4,6,8,10-pentaene-6,7-dicarbonitrile
_symmetry_cell_setting           triclinic
_symmetry_space_group_name_H-M   'P -1'
_symmetry_Int_Tables_number      2
_space_group_name_Hall           '-P 1'
loop_
_symmetry_equiv_pos_site_id
_symmetry_equiv_pos_as_xyz
1 x,y,z
2 -x,-y,-z
_cell_length_a                   6.1019(4)
_cell_length_b                   10.7078(6)
_cell_length_c                   11.3928(7)
_cell_angle_alpha                65.173(5)
_cell_angle_beta                 84.768(5)
_cell_angle_gamma                73.900(5)
_cell_volume                     648.817
_exptl_crystal_colour            colorless
_exptl_crystal_description       parallelepiped
_cell_formula_units_Z            2
loop_
_atom_site_label
_atom_site_type_symbol
_atom_site_fract_x
_atom_site_fract_y
_atom_site_fract_z
N1 N 0.2097(3) 0.55552(16) 0.34283(14)
N2 N -0.1343(2) 0.29042(13) 0.33818(12)
C1 C 0.78769(19) -0.08604(13) 0.86297(11)
C2 C 0.74313(19) 0.04981(12) 0.77112(11)
H1 H 0.8289 0.1101 0.7692
C3 C 0.56549(19) 0.09894(12) 0.67840(11)
C4 C 0.5038(2) 0.24135(12) 0.58626(11)
H2 H 0.5862 0.3034 0.5841
C5 C 0.3264(2) 0.29073(13) 0.50013(11)
C6 C 0.2009(2) 0.19691(13) 0.50028(11)
C7 C 0.2591(2) 0.05771(13) 0.58871(11)
H3 H 0.1780 -0.0038 0.5879
C8 C 0.43752(19) 0.00511(12) 0.68053(10)
C9 C 0.4902(2) -0.13666(12) 0.77692(11)
H4 H 0.4095 -0.1996 0.7790
C10 C 0.6589(2) -0.17993(12) 0.86607(11)
C11 C 0.7439(2) -0.31536(13) 0.98405(12)
H5 H 0.7136 -0.4008 0.9845
C12 C 0.6585(2) -0.28095(14) 1.10178(12)
H6 H 0.4960 -0.2353 1.0934
H7 H 0.6900 -0.3666 1.1818
C13 C 0.7968(2) -0.17846(14) 1.09723(12)
H8 H 0.8894 -0.2172 1.1757
H9 H 0.6968 -0.0861 1.0861
C14 C 0.9474(2) -0.16675(13) 0.97878(12)
H10 H 1.0812 -0.1317 0.9752
C15 C 0.9970(3) -0.31873(14) 0.98683(14)
H11 H 1.0779 -0.3294 0.9128
H12 H 1.0768 -0.3906 1.0666
C16 C 0.2613(2) 0.43837(17) 0.41097(14)
C17 C 0.0154(2) 0.24891(14) 0.40941(13)
loop_
_geom_bond_atom_site_label_1
_geom_bond_atom_site_label_2
_geom_bond_site_symmetry_1
_geom_bond_site_symmetry_2
N1 C16 1_555 1_555
N2 C17 1_555 1_555
C1 C2 1_555 1_555
C2 H1 1_555 1_555
C3 C2 1_555 1_555
C4 C3 1_555 1_555
H2 C4 1_555 1_555
C5 C4 1_555 1_555
C6 C5 1_555 1_555
C7 C6 1_555 1_555
H3 C7 1_555 1_555
C8 C3 1_555 1_555
C9 C8 1_555 1_555
H4 C9 1_555 1_555
C10 C1 1_555 1_555
C11 C10 1_555 1_555
H5 C11 1_555 1_555
C12 C11 1_555 1_555
H6 C12 1_555 1_555
H7 C12 1_555 1_555
C13 C12 1_555 1_555
H8 C13 1_555 1_555
H9 C13 1_555 1_555
C14 C1 1_555 1_555
H10 C14 1_555 1_555
C15 C11 1_555 1_555
H11 C15 1_555 1_555
H12 C15 1_555 1_555
C16 C5 1_555 1_555
C17 C6 1_555 1_555
C7 C8 1_555 1_555
C9 C10 1_555 1_555
C13 C14 1_555 1_555
C14 C15 1_555 1_555

#END
