
#######################################################################
#
#                 Cambridge Crystallographic Data Centre
#                                CCDC 
#
#######################################################################
#
# If this CIF has been generated from an entry in the Cambridge 
# Structural Database, then it will include bibliographic, chemical, 
# crystal, experimental, refinement or atomic coordinate data resulting 
# from the CCDC's data processing and validation procedures.
#
#######################################################################

data_OCAFUW
_chemical_formula_moiety         'C23 H20 N1 O2 P1'
_chemical_name_systematic        
5-benzyl-3-((diphenylphosphoryl)methyl)-1,2-oxazole
_symmetry_cell_setting           monoclinic
_symmetry_space_group_name_H-M   'P 21/n'
_symmetry_Int_Tables_number      14
_space_group_name_Hall           '-P 2yn'
loop_
_symmetry_equiv_pos_site_id
_symmetry_equiv_pos_as_xyz
1 x,y,z
2 1/2-x,1/2+y,1/2-z
3 -x,-y,-z
4 1/2+x,1/2-y,1/2+z
_cell_length_a                   16.4039(11)
_cell_length_b                   5.8531(4)
_cell_length_c                   19.8304(12)
_cell_angle_alpha                90
_cell_angle_beta                 91.597(6)
_cell_angle_gamma                90
_cell_volume                     1903.25
_exptl_crystal_colour            colorless
_exptl_crystal_description       block
_cell_formula_units_Z            4
loop_
_atom_site_label
_atom_site_type_symbol
_atom_site_fract_x
_atom_site_fract_y
_atom_site_fract_z
P1 P 0.53930(3) 0.45175(9) 0.11052(2)
O1 O 0.54013(9) 0.6918(2) 0.08645(7)
O2 O 0.80474(10) 0.2308(3) 0.04382(9)
N1 N 0.72633(11) 0.1335(3) 0.05281(10)
C1 C 0.88779(16) 0.4379(4) -0.09584(12)
H1 H 0.8623 0.3027 -0.0837
C2 C 0.9155(2) 0.4656(6) -0.16110(14)
H2 H 0.9079 0.3492 -0.1926
C3 C 0.9536(2) 0.6624(7) -0.17896(17)
H3 H 0.9725 0.6792 -0.2225
C4 C 0.96397(19) 0.8326(6) -0.13396(19)
H4 H 0.9898 0.9670 -0.1464
C5 C 0.93624(16) 0.8078(5) -0.06938(15)
H5 H 0.9434 0.9266 -0.0386
C6 C 0.89810(13) 0.6099(4) -0.04954(11)
C7 C 0.87115(14) 0.5890(5) 0.02256(11)
H6 H 0.9150 0.5190 0.0491
H7 H 0.8629 0.7415 0.0403
C8 C 0.79540(13) 0.4545(4) 0.03215(10)
C9 C 0.71553(13) 0.5072(4) 0.03248(10)
H8 H 0.6921 0.6502 0.0255
C10 C 0.67509(12) 0.3030(3) 0.04551(9)
C11 C 0.58629(12) 0.2541(3) 0.05298(9)
H9 H 0.5797 0.0995 0.0695
H10 H 0.5588 0.2644 0.0091
C12 C 0.59286(11) 0.4192(3) 0.19056(9)
C13 C 0.64055(13) 0.5963(4) 0.21580(10)
H11 H 0.6457 0.7302 0.1910
C14 C 0.68066(13) 0.5750(4) 0.27785(11)
H12 H 0.7127 0.6943 0.2946
C15 C 0.67315(13) 0.3779(4) 0.31465(10)
H13 H 0.6999 0.3646 0.3564
C16 C 0.62641(14) 0.2003(4) 0.29016(10)
H14 H 0.6218 0.0668 0.3152
C17 C 0.58623(13) 0.2204(4) 0.22814(10)
H15 H 0.5546 0.1000 0.2116
C18 C 0.43783(12) 0.3461(4) 0.12431(9)
C19 C 0.38680(15) 0.4866(5) 0.15980(14)
H16 H 0.4053 0.6290 0.1743
C20 C 0.30858(17) 0.4178(6) 0.17392(15)
H17 H 0.2752 0.5132 0.1985
C21 C 0.28000(15) 0.2123(5) 0.15229(13)
H18 H 0.2272 0.1669 0.1619
C22 C 0.32905(16) 0.0732(5) 0.11653(15)
H19 H 0.3094 -0.0670 0.1010
C23 C 0.40828(15) 0.1388(4) 0.10293(13)
H20 H 0.4416 0.0410 0.0791
loop_
_geom_bond_atom_site_label_1
_geom_bond_atom_site_label_2
_geom_bond_site_symmetry_1
_geom_bond_site_symmetry_2
P1 O1 1_555 1_555
O2 N1 1_555 1_555
N1 C10 1_555 1_555
C1 H1 1_555 1_555
C2 C1 1_555 1_555
H2 C2 1_555 1_555
C3 C2 1_555 1_555
H3 C3 1_555 1_555
C4 C3 1_555 1_555
H4 C4 1_555 1_555
C5 C4 1_555 1_555
H5 C5 1_555 1_555
C6 C1 1_555 1_555
C7 C6 1_555 1_555
H6 C7 1_555 1_555
H7 C7 1_555 1_555
C8 O2 1_555 1_555
C9 C8 1_555 1_555
H8 C9 1_555 1_555
C10 C9 1_555 1_555
C11 P1 1_555 1_555
H9 C11 1_555 1_555
H10 C11 1_555 1_555
C12 P1 1_555 1_555
C13 C12 1_555 1_555
H11 C13 1_555 1_555
C14 C13 1_555 1_555
H12 C14 1_555 1_555
C15 C14 1_555 1_555
H13 C15 1_555 1_555
C16 C15 1_555 1_555
H14 C16 1_555 1_555
C17 C12 1_555 1_555
H15 C17 1_555 1_555
C18 P1 1_555 1_555
C19 C18 1_555 1_555
H16 C19 1_555 1_555
C20 C19 1_555 1_555
H17 C20 1_555 1_555
C21 C20 1_555 1_555
H18 C21 1_555 1_555
C22 C21 1_555 1_555
H19 C22 1_555 1_555
C23 C18 1_555 1_555
H20 C23 1_555 1_555
C5 C6 1_555 1_555
C7 C8 1_555 1_555
C10 C11 1_555 1_555
C16 C17 1_555 1_555
C22 C23 1_555 1_555

#END
