
#######################################################################
#
#                 Cambridge Crystallographic Data Centre
#                                CCDC 
#
#######################################################################
#
# If this CIF has been generated from an entry in the Cambridge 
# Structural Database, then it will include bibliographic, chemical, 
# crystal, experimental, refinement or atomic coordinate data resulting 
# from the CCDC's data processing and validation procedures.
#
#######################################################################

data_OCAGAD
_chemical_formula_moiety         'C23 H21 N2 O1 P1'
_chemical_name_systematic        
3-benzyl-5-((diphenylphosphoryl)methyl)-1H-pyrazole
_symmetry_cell_setting           monoclinic
_symmetry_space_group_name_H-M   'C 2/c'
_symmetry_Int_Tables_number      15
_space_group_name_Hall           '-C 2yn'
loop_
_symmetry_equiv_pos_site_id
_symmetry_equiv_pos_as_xyz
1 x,y,z
2 -x,y,1/2-z
3 1/2+x,1/2+y,z
4 1/2-x,1/2+y,1/2-z
5 -x,-y,-z
6 x,-y,1/2+z
7 1/2-x,1/2-y,-z
8 1/2+x,1/2-y,1/2+z
_cell_length_a                   33.905(6)
_cell_length_b                   5.8194(4)
_cell_length_c                   26.062(5)
_cell_angle_alpha                90
_cell_angle_beta                 130.41(3)
_cell_angle_gamma                90
_cell_volume                     3915.41
_exptl_crystal_colour            colorless
_exptl_crystal_description       plate
_cell_formula_units_Z            8
loop_
_atom_site_label
_atom_site_type_symbol
_atom_site_fract_x
_atom_site_fract_y
_atom_site_fract_z
P1 P 0.07413(2) 0.57481(8) 0.11002(3)
O1 O 0.07572(5) 0.3346(2) 0.09174(7)
N1 N 0.16098(7) 1.0267(3) 0.05773(10)
N2 N 0.12215(7) 1.0236(3) 0.05985(9)
H1 H 0.1133 1.1414 0.0702
C1 C 0.14911(11) 0.8301(5) -0.08785(14)
H2 H 0.1406 0.9715 -0.0807
C2 C 0.13058(14) 0.7713(6) -0.15194(17)
H3 H 0.1095 0.8729 -0.1877
C3 C 0.14340(16) 0.5642(7) -0.1621(2)
H4 H 0.1315 0.5262 -0.2047
C4 C 0.17296(15) 0.4151(6) -0.1111(2)
H5 H 0.1812 0.2732 -0.1184
C5 C 0.19105(12) 0.4731(5) -0.04804(18)
H6 H 0.2115 0.3685 -0.0130
C6 C 0.17991(9) 0.6799(4) -0.03531(12)
C7 C 0.20170(10) 0.7464(5) 0.03463(13)
H7 H 0.2216 0.6180 0.0647
H8 H 0.2254 0.8739 0.0499
C8 C 0.16212(8) 0.8138(4) 0.04056(11)
C9 C 0.12373(9) 0.6778(4) 0.03088(11)
H9 H 0.1166 0.5241 0.0181
C10 C 0.09888(8) 0.8173(3) 0.04404(9)
C11 C 0.05682(8) 0.7823(3) 0.04679(10)
H10 H 0.0258 0.7304 0.0031
H11 H 0.0489 0.9279 0.0565
C12 C 0.13596(7) 0.6646(3) 0.18756(10)
C13 C 0.14247(9) 0.8713(4) 0.21781(11)
H12 H 0.1145 0.9710 0.1976
C14 C 0.19027(9) 0.9326(4) 0.27806(12)
H13 H 0.1943 1.0722 0.2984
C15 C 0.23157(9) 0.7865(4) 0.30756(12)
H14 H 0.2637 0.8271 0.3480
C16 C 0.22560(9) 0.5815(4) 0.27774(13)
H15 H 0.2537 0.4827 0.2981
C17 C 0.17805(8) 0.5196(4) 0.21745(12)
H16 H 0.1744 0.3808 0.1970
C18 C 0.02762(8) 0.6069(3) 0.12168(10)
C19 C 0.02205(11) 0.4298(5) 0.15182(16)
H17 H 0.0418 0.2972 0.1646
C20 C -0.01199(14) 0.4462(6) 0.16327(19)
H18 H -0.0145 0.3260 0.1845
C21 C -0.04208(12) 0.6361(6) 0.14398(16)
H19 H -0.0649 0.6471 0.1522
C22 C -0.03825(12) 0.8083(6) 0.11268(17)
H20 H -0.0592 0.9374 0.0984
C23 C -0.00366(10) 0.7954(5) 0.10165(15)
H21 H -0.0015 0.9164 0.0803
loop_
_geom_bond_atom_site_label_1
_geom_bond_atom_site_label_2
_geom_bond_site_symmetry_1
_geom_bond_site_symmetry_2
P1 O1 1_555 1_555
N1 N2 1_555 1_555
N2 H1 1_555 1_555
C1 H2 1_555 1_555
C2 C1 1_555 1_555
H3 C2 1_555 1_555
C3 C2 1_555 1_555
H4 C3 1_555 1_555
C4 C3 1_555 1_555
H5 C4 1_555 1_555
C5 C4 1_555 1_555
H6 C5 1_555 1_555
C6 C1 1_555 1_555
C7 C6 1_555 1_555
H7 C7 1_555 1_555
H8 C7 1_555 1_555
C8 N1 1_555 1_555
C9 C8 1_555 1_555
H9 C9 1_555 1_555
C10 N2 1_555 1_555
C11 P1 1_555 1_555
H10 C11 1_555 1_555
H11 C11 1_555 1_555
C12 P1 1_555 1_555
C13 C12 1_555 1_555
H12 C13 1_555 1_555
C14 C13 1_555 1_555
H13 C14 1_555 1_555
C15 C14 1_555 1_555
H14 C15 1_555 1_555
C16 C15 1_555 1_555
H15 C16 1_555 1_555
C17 C12 1_555 1_555
H16 C17 1_555 1_555
C18 P1 1_555 1_555
C19 C18 1_555 1_555
H17 C19 1_555 1_555
C20 C19 1_555 1_555
H18 C20 1_555 1_555
C21 C20 1_555 1_555
H19 C21 1_555 1_555
C22 C21 1_555 1_555
H20 C22 1_555 1_555
C23 C18 1_555 1_555
H21 C23 1_555 1_555
C5 C6 1_555 1_555
C7 C8 1_555 1_555
C9 C10 1_555 1_555
C10 C11 1_555 1_555
C16 C17 1_555 1_555
C22 C23 1_555 1_555

#END
