
#######################################################################
#
#                 Cambridge Crystallographic Data Centre
#                                CCDC 
#
#######################################################################
#
# If this CIF has been generated from an entry in the Cambridge 
# Structural Database, then it will include bibliographic, chemical, 
# crystal, experimental, refinement or atomic coordinate data resulting 
# from the CCDC's data processing and validation procedures.
#
#######################################################################

data_OCAHEG01
_chemical_formula_moiety         'C7 H10 N1 1+,C7 H3 N2 O6 1-'
_chemical_name_systematic        'Phenylmethanaminium 3,5-dinitrobenzoate'
_symmetry_cell_setting           monoclinic
_symmetry_space_group_name_H-M   'P 21'
_symmetry_Int_Tables_number      4
_space_group_name_Hall           'P 2yb'
loop_
_symmetry_equiv_pos_site_id
_symmetry_equiv_pos_as_xyz
1 x,y,z
2 -x,1/2+y,-z
_cell_length_a                   10.8635(11)
_cell_length_b                   6.2690(7)
_cell_length_c                   11.5810(14)
_cell_angle_alpha                90
_cell_angle_beta                 106.9180(10)
_cell_angle_gamma                90
_cell_volume                     754.571
_exptl_crystal_colour            colorless
_exptl_crystal_description       block
_cell_formula_units_Z            2
loop_
_atom_site_label
_atom_site_type_symbol
_atom_site_fract_x
_atom_site_fract_y
_atom_site_fract_z
N1 N 0.3907(3) -0.0343(6) -0.0743(3)
H1 H 0.4180 0.0835 -0.1021
H2 H 0.3998 -0.1453 -0.1190
H3 H 0.4370 -0.0557 0.0020
C1 C 0.2535(5) -0.0100(9) -0.0805(4)
H4 H 0.2257 -0.1365 -0.0467
H5 H 0.2029 -0.0002 -0.1645
C2 C 0.2266(4) 0.1841(8) -0.0138(4)
C3 C 0.1375(4) 0.3310(10) -0.0733(4)
H6 H 0.0979 0.3151 -0.1557
C4 C 0.1056(5) 0.5019(10) -0.0132(5)
H7 H 0.0434 0.5987 -0.0545
C5 C 0.1656(5) 0.5296(10) 0.1078(5)
H8 H 0.1452 0.6460 0.1486
C6 C 0.2562(5) 0.3836(11) 0.1684(5)
H9 H 0.2977 0.4027 0.2501
C7 C 0.2859(5) 0.2094(9) 0.1089(4)
H10 H 0.3454 0.1093 0.1508
N2 N 0.3794(4) -0.1704(7) 0.4963(4)
N3 N 0.0429(4) 0.3717(11) 0.3788(4)
O1 O 0.3556(3) 0.6377(5) 0.7667(3)
O2 O 0.4649(3) 0.3487(5) 0.8474(2)
O3 O 0.4775(4) -0.2320(6) 0.5672(3)
O4 O 0.3268(4) -0.2620(6) 0.4019(3)
O5 O -0.0138(4) 0.2506(10) 0.2966(4)
O6 O 0.0107(4) 0.5527(10) 0.3920(4)
C8 C 0.3857(4) 0.4487(7) 0.7641(3)
C9 C 0.3245(3) 0.3237(7) 0.6515(3)
C10 C 0.3758(3) 0.1315(6) 0.6274(3)
H11 H 0.4486 0.0750 0.6826
C11 C 0.3187(4) 0.0260(7) 0.5223(3)
C12 C 0.2099(4) 0.0973(7) 0.4408(3)
H12 H 0.1712 0.0209 0.3708
C13 C 0.1595(4) 0.2851(9) 0.4653(4)
C14 C 0.2153(4) 0.4018(7) 0.5679(3)
H13 H 0.1801 0.5317 0.5808
loop_
_geom_bond_atom_site_label_1
_geom_bond_atom_site_label_2
_geom_bond_site_symmetry_1
_geom_bond_site_symmetry_2
N1 H1 1_555 1_555
H2 N1 1_555 1_555
H3 N1 1_555 1_555
C1 N1 1_555 1_555
H4 C1 1_555 1_555
H5 C1 1_555 1_555
C2 C1 1_555 1_555
C3 C2 1_555 1_555
H6 C3 1_555 1_555
C4 C3 1_555 1_555
H7 C4 1_555 1_555
C5 C4 1_555 1_555
H8 C5 1_555 1_555
C6 C5 1_555 1_555
H9 C6 1_555 1_555
C7 C2 1_555 1_555
H10 C7 1_555 1_555
N2 O3 1_555 1_555
N3 O5 1_555 1_555
O1 C8 1_555 1_555
O2 C8 1_555 1_555
O4 N2 1_555 1_555
O6 N3 1_555 1_555
C8 C9 1_555 1_555
C9 C10 1_555 1_555
C10 H11 1_555 1_555
C11 N2 1_555 1_555
C12 C11 1_555 1_555
H12 C12 1_555 1_555
C13 N3 1_555 1_555
C14 C9 1_555 1_555
H13 C14 1_555 1_555
C6 C7 1_555 1_555
C10 C11 1_555 1_555
C12 C13 1_555 1_555
C13 C14 1_555 1_555

#END
