
#######################################################################
#
#                 Cambridge Crystallographic Data Centre
#                                CCDC 
#
#######################################################################
#
# If this CIF has been generated from an entry in the Cambridge 
# Structural Database, then it will include bibliographic, chemical, 
# crystal, experimental, refinement or atomic coordinate data resulting 
# from the CCDC's data processing and validation procedures.
#
#######################################################################

data_OCAJUZ
_chemical_name_common            
'1-Methyl-3-trifluoromethyl-5-[(3-chlorophenyl)sulfanyl]-1H-pyrazole-4-carbaldehyde O-(4-chlorobenzoyl)oxime'
_chemical_formula_moiety         'C19 H12 Cl2 F3 N3 O2 S1'
_chemical_name_systematic        
(4-Chlorophenyl)((((5-((3-chlorophenyl)sulfanyl)-1-methyl-3-(trifluoromethyl)-1H-pyrazol-4-yl)methylene)amino)oxy)methanone
_symmetry_cell_setting           monoclinic
_symmetry_space_group_name_H-M   'P 21/n'
_symmetry_Int_Tables_number      14
_space_group_name_Hall           '-P 2yn'
loop_
_symmetry_equiv_pos_site_id
_symmetry_equiv_pos_as_xyz
1 x,y,z
2 1/2-x,1/2+y,1/2-z
3 -x,-y,-z
4 1/2+x,1/2-y,1/2+z
_cell_length_a                   8.1405(16)
_cell_length_b                   18.680(4)
_cell_length_c                   13.737(3)
_cell_angle_alpha                90
_cell_angle_beta                 96.10(3)
_cell_angle_gamma                90
_cell_volume                     2077.08
_exptl_crystal_colour            colorless
_cell_formula_units_Z            4
_exptl_crystal_recrystallization_method 'petroleum ether/ethyl acetate'
loop_
_atom_site_label
_atom_site_type_symbol
_atom_site_fract_x
_atom_site_fract_y
_atom_site_fract_z
Cl1 Cl 1.09484(13) 0.84104(6) 0.56388(10)
Cl2 Cl 1.29709(11) 0.74602(6) 1.34884(7)
S1 S 0.64859(10) 1.00969(4) 0.71200(6)
F1 F 0.1729(2) 0.85215(8) 0.92153(14)
F2 F -0.0064(2) 0.93357(11) 0.88380(14)
F3 F 0.1826(2) 0.94978(10) 1.00144(12)
O1 O 0.6832(2) 0.87708(10) 1.04766(12)
O2 O 0.5304(3) 0.84250(12) 1.16752(17)
N1 N 0.3126(3) 1.00802(11) 0.71276(16)
N2 N 0.1875(3) 0.98695(11) 0.76284(16)
N3 N 0.5309(3) 0.89838(12) 0.99338(15)
C1 C 0.5668(4) 0.88041(15) 0.6144(2)
H1 H 0.4569 0.8886 0.6238
C2 C 0.6110(4) 0.81988(17) 0.5655(2)
H2 H 0.5297 0.7873 0.5423
C3 C 0.7709(4) 0.80690(17) 0.5504(2)
H3 H 0.7993 0.7657 0.5180
C4 C 0.8894(4) 0.85576(16) 0.5841(2)
C5 C 0.8510(3) 0.91618(15) 0.63472(18)
H4 H 0.9336 0.9479 0.6587
C6 C 0.6885(3) 0.92892(14) 0.64942(16)
C7 C 0.4631(3) 0.98935(13) 0.75808(18)
C8 C 0.4342(3) 0.95423(12) 0.84390(16)
C9 C 0.2602(3) 0.95408(12) 0.84192(16)
C10 C 0.1528(3) 0.92283(13) 0.91187(19)
C11 C 0.5643(3) 0.92724(12) 0.91488(18)
H5 H 0.6739 0.9313 0.9023
C12 C 0.6607(3) 0.84774(13) 1.13649(19)
C13 C 0.8222(3) 0.82499(13) 1.18756(18)
C14 C 0.8200(4) 0.77728(14) 1.2655(2)
H6 H 0.7197 0.7611 1.2838
C15 C 0.9663(4) 0.75393(14) 1.3154(2)
H7 H 0.9651 0.7220 1.3673
C16 C 1.1137(3) 0.77827(15) 1.2879(2)
C17 C 1.1198(3) 0.82612(14) 1.2119(2)
H8 H 1.2206 0.8425 1.1946
C18 C 0.9727(3) 0.84924(13) 1.16177(19)
H9 H 0.9749 0.8814 1.1102
C19 C 0.2742(5) 1.0461(2) 0.6195(2)
H10 H 0.2762 1.0130 0.5662
H11 H 0.3549 1.0830 0.6139
H12 H 0.1665 1.0673 0.6176
loop_
_geom_bond_atom_site_label_1
_geom_bond_atom_site_label_2
_geom_bond_site_symmetry_1
_geom_bond_site_symmetry_2
Cl1 C4 1_555 1_555
Cl2 C16 1_555 1_555
S1 C6 1_555 1_555
F1 C10 1_555 1_555
F2 C10 1_555 1_555
F3 C10 1_555 1_555
O1 N3 1_555 1_555
O2 C12 1_555 1_555
N1 N2 1_555 1_555
N2 C9 1_555 1_555
N3 C11 1_555 1_555
C1 H1 1_555 1_555
C2 C1 1_555 1_555
H2 C2 1_555 1_555
C3 C2 1_555 1_555
H3 C3 1_555 1_555
C4 C3 1_555 1_555
C5 C4 1_555 1_555
H4 C5 1_555 1_555
C6 C1 1_555 1_555
C7 S1 1_555 1_555
C8 C7 1_555 1_555
C9 C8 1_555 1_555
C10 C9 1_555 1_555
C11 C8 1_555 1_555
H5 C11 1_555 1_555
C12 O1 1_555 1_555
C13 C12 1_555 1_555
C14 C13 1_555 1_555
H6 C14 1_555 1_555
C15 C14 1_555 1_555
H7 C15 1_555 1_555
C16 C15 1_555 1_555
C17 C16 1_555 1_555
H8 C17 1_555 1_555
C18 C13 1_555 1_555
H9 C18 1_555 1_555
C19 N1 1_555 1_555
H10 C19 1_555 1_555
H11 C19 1_555 1_555
H12 C19 1_555 1_555
N1 C7 1_555 1_555
C5 C6 1_555 1_555
C17 C18 1_555 1_555

#END
