
#######################################################################
#
#                 Cambridge Crystallographic Data Centre
#                                CCDC 
#
#######################################################################
#
# If this CIF has been generated from an entry in the Cambridge 
# Structural Database, then it will include bibliographic, chemical, 
# crystal, experimental, refinement or atomic coordinate data resulting 
# from the CCDC's data processing and validation procedures.
#
#######################################################################

data_OCAJOT
_chemical_formula_moiety         'C28 H28 F2 N2 O2'
_chemical_name_systematic        
(E)-1-(4-[Bis(4-fluorophenyl)methyl]piperazin-1-yl)-3-(4-ethoxyphenyl)prop-2-en-1-one
_symmetry_cell_setting           monoclinic
_symmetry_space_group_name_H-M   'P 21/n'
_symmetry_Int_Tables_number      14
_space_group_name_Hall           '-P 2yn'
loop_
_symmetry_equiv_pos_site_id
_symmetry_equiv_pos_as_xyz
1 x,y,z
2 1/2-x,1/2+y,1/2-z
3 -x,-y,-z
4 1/2+x,1/2-y,1/2+z
_cell_length_a                   10.227(2)
_cell_length_b                   11.897(2)
_cell_length_c                   20.149(4)
_cell_angle_alpha                90
_cell_angle_beta                 100.04(3)
_cell_angle_gamma                90
_cell_volume                     2414
_exptl_crystal_colour            colorless
_exptl_crystal_description       block
_cell_formula_units_Z            4
_exptl_crystal_recrystallization_method ethanol
loop_
_atom_site_label
_atom_site_type_symbol
_atom_site_fract_x
_atom_site_fract_y
_atom_site_fract_z
N1 N 0.7132(2) 0.55000(19) 0.14805(11)
O1 O 0.56644(19) 0.84300(16) -0.00661(11)
F1 F 1.1646(2) 0.3281(2) 0.36341(10)
C1 C 0.8741(3) 0.5005(3) 0.31912(15)
H1 H 0.8292 0.5566 0.3382
N2 N 0.7122(2) 0.71486(19) 0.04413(12)
O2 O 1.0363(2) 1.4223(2) 0.07819(13)
F2 F 0.3037(2) 0.1832(2) 0.22049(13)
C2 C 0.9889(3) 0.4553(3) 0.35609(16)
H2 H 1.0218 0.4806 0.3995
C3 C 1.0521(3) 0.3731(3) 0.32737(17)
C4 C 1.0074(3) 0.3339(3) 0.26406(16)
H3 H 1.0528 0.2776 0.2455
C5 C 0.8921(3) 0.3803(3) 0.22795(15)
H4 H 0.8596 0.3541 0.1847
C6 C 0.8251(3) 0.4642(2) 0.25486(14)
C7 C 0.5877(3) 0.4256(3) 0.21433(14)
C8 C 0.5638(3) 0.3419(3) 0.16599(16)
H5 H 0.6143 0.3401 0.1318
C9 C 0.4676(3) 0.2613(3) 0.16697(19)
H6 H 0.4505 0.2074 0.1332
C10 C 0.3985(3) 0.2628(4) 0.2187(2)
C11 C 0.4166(4) 0.3418(4) 0.2671(2)
H7 H 0.3666 0.3410 0.3015
C12 C 0.5114(3) 0.4248(4) 0.26493(17)
H8 H 0.5239 0.4805 0.2978
C13 C 0.6959(3) 0.5127(3) 0.21574(13)
H9 H 0.6720 0.5784 0.2404
C14 C 0.5897(3) 0.5936(2) 0.10899(14)
H10 H 0.5601 0.6579 0.1321
H11 H 0.5214 0.5363 0.1053
C15 C 0.6098(3) 0.6283(2) 0.03945(15)
H12 H 0.6360 0.5635 0.0156
H13 H 0.5271 0.6570 0.0142
C16 C 0.8365(3) 0.6765(3) 0.08475(15)
H14 H 0.9008 0.7372 0.0898
H15 H 0.8721 0.6147 0.0620
C17 C 0.8146(3) 0.6384(2) 0.15362(14)
H16 H 0.8975 0.6101 0.1790
H17 H 0.7869 0.7019 0.1779
C18 C 0.6794(3) 0.8217(2) 0.02320(13)
C19 C 0.7819(3) 0.9100(2) 0.03716(14)
H18 H 0.8700 0.8902 0.0524
C20 C 0.7490(3) 1.0179(2) 0.02810(13)
H19 H 0.6601 1.0318 0.0109
C21 C 0.8321(3) 1.1167(2) 0.04123(14)
C22 C 0.7743(3) 1.2220(2) 0.02963(16)
H20 H 0.6839 1.2261 0.0124
C23 C 0.8435(4) 1.3196(3) 0.04231(18)
H21 H 0.8003 1.3884 0.0344
C24 C 0.9746(4) 1.3163(3) 0.06624(15)
C25 C 1.0407(3) 1.2158(3) 0.07832(16)
H22 H 1.1316 1.2141 0.0944
C26 C 0.9671(3) 1.1144(3) 0.06569(15)
H23 H 1.0102 1.0457 0.0740
C27 C 1.1649(3) 1.4225(3) 0.11139(18)
H24 H 1.2226 1.3913 0.0827
H25 H 1.1727 1.3767 0.1517
C28 C 1.2053(4) 1.5424(3) 0.1301(2)
H26 H 1.2952 1.5435 0.1540
H27 H 1.1475 1.5729 0.1584
H28 H 1.1990 1.5869 0.0899
loop_
_geom_bond_atom_site_label_1
_geom_bond_atom_site_label_2
_geom_bond_site_symmetry_1
_geom_bond_site_symmetry_2
N1 C13 1_555 1_555
O1 C18 1_555 1_555
F1 C3 1_555 1_555
C1 H1 1_555 1_555
N2 C15 1_555 1_555
O2 C24 1_555 1_555
F2 C10 1_555 1_555
C2 C1 1_555 1_555
H2 C2 1_555 1_555
C3 C2 1_555 1_555
C4 C3 1_555 1_555
H3 C4 1_555 1_555
C5 C4 1_555 1_555
H4 C5 1_555 1_555
C6 C1 1_555 1_555
C7 C8 1_555 1_555
C8 H5 1_555 1_555
C9 C8 1_555 1_555
H6 C9 1_555 1_555
C10 C9 1_555 1_555
C11 C10 1_555 1_555
H7 C11 1_555 1_555
C12 C7 1_555 1_555
H8 C12 1_555 1_555
C13 C6 1_555 1_555
H9 C13 1_555 1_555
C14 N1 1_555 1_555
H10 C14 1_555 1_555
H11 C14 1_555 1_555
C15 C14 1_555 1_555
H12 C15 1_555 1_555
H13 C15 1_555 1_555
C16 N2 1_555 1_555
H14 C16 1_555 1_555
H15 C16 1_555 1_555
C17 N1 1_555 1_555
H16 C17 1_555 1_555
H17 C17 1_555 1_555
C18 N2 1_555 1_555
C19 C18 1_555 1_555
H18 C19 1_555 1_555
C20 C19 1_555 1_555
H19 C20 1_555 1_555
C21 C20 1_555 1_555
C22 C21 1_555 1_555
H20 C22 1_555 1_555
C23 C22 1_555 1_555
H21 C23 1_555 1_555
C24 C23 1_555 1_555
C25 C24 1_555 1_555
H22 C25 1_555 1_555
C26 C21 1_555 1_555
H23 C26 1_555 1_555
C27 O2 1_555 1_555
H24 C27 1_555 1_555
H25 C27 1_555 1_555
C28 C27 1_555 1_555
H26 C28 1_555 1_555
H27 C28 1_555 1_555
H28 C28 1_555 1_555
C5 C6 1_555 1_555
C7 C13 1_555 1_555
C11 C12 1_555 1_555
C16 C17 1_555 1_555
C25 C26 1_555 1_555

#END
