
#######################################################################
#
#                 Cambridge Crystallographic Data Centre
#                                CCDC 
#
#######################################################################
#
# If this CIF has been generated from an entry in the Cambridge 
# Structural Database, then it will include bibliographic, chemical, 
# crystal, experimental, refinement or atomic coordinate data resulting 
# from the CCDC's data processing and validation procedures.
#
#######################################################################

data_OCAJAG01
_chemical_formula_moiety         'C18 H18 O3'
_chemical_name_systematic        
6-methoxy-4-(4-methoxyphenyl)-3,4-dihydronaphthalen-1(2H)-one
_symmetry_cell_setting           monoclinic
_symmetry_space_group_name_H-M   'P 21/c'
_symmetry_Int_Tables_number      14
_space_group_name_Hall           '-P 2ybc'
loop_
_symmetry_equiv_pos_site_id
_symmetry_equiv_pos_as_xyz
1 x,y,z
2 -x,1/2+y,1/2-z
3 -x,-y,-z
4 x,1/2-y,1/2+z
_cell_length_a                   12.469(3)
_cell_length_b                   13.936(3)
_cell_length_c                   8.2701(17)
_cell_angle_alpha                90
_cell_angle_beta                 96.849(2)
_cell_angle_gamma                90
_cell_volume                     1426.82
_exptl_crystal_colour            'light colorless'
_exptl_crystal_description       needle
_cell_formula_units_Z            4
loop_
_atom_site_label
_atom_site_type_symbol
_atom_site_fract_x
_atom_site_fract_y
_atom_site_fract_z
O1 O 0.21107(10) 0.78805(8) -0.00698(15)
O2 O 0.51711(11) 1.10834(10) 0.34367(17)
O3 O 0.01894(11) 1.12285(11) -0.66353(16)
C1 C 0.21735(15) 0.70079(12) 0.0852(2)
H1 H 0.1716 0.6533 0.0283
H2 H 0.1941 0.7125 0.1900
H3 H 0.2906 0.6781 0.0990
C2 C 0.27128(13) 0.86362(11) 0.0559(2)
C3 C 0.33046(13) 0.86483(12) 0.2096(2)
H4 H 0.3299(14) 0.8120(13) 0.280(2)
C4 C 0.39053(13) 0.94503(12) 0.25757(19)
H5 H 0.4309(16) 0.9460(14) 0.365(2)
C5 C 0.39295(12) 1.02476(11) 0.15614(19)
C6 C 0.33285(13) 1.02326(11) 0.0000(2)
C7 C 0.27267(14) 0.94283(12) -0.0474(2)
H6 H 0.2301(16) 0.9408(14) -0.151(2)
C8 C 0.34052(14) 1.10825(12) -0.1154(2)
H7 H 0.4136(16) 1.1021(13) -0.163(2)
C9 C 0.35075(15) 1.20015(13) -0.0154(2)
H8 H 0.2825(18) 1.2041(15) 0.047(3)
H9 H 0.3549(15) 1.2554(14) -0.089(2)
C10 C 0.45302(15) 1.19629(13) 0.1046(2)
H10 H 0.5160(18) 1.1938(15) 0.041(3)
H11 H 0.4614(18) 1.2541(17) 0.172(3)
C11 C 0.45914(13) 1.10912(12) 0.2132(2)
C12 C 0.25231(14) 1.11024(11) -0.2586(2)
C13 C 0.26942(14) 1.06450(12) -0.4009(2)
H12 H 0.3383(17) 1.0296(16) -0.403(2)
C14 C 0.19346(14) 1.06565(12) -0.5374(2)
H13 H 0.2082(16) 1.0322(14) -0.635(2)
C15 C 0.09745(13) 1.11482(12) -0.5332(2)
C16 C 0.07776(15) 1.16156(14) -0.3915(2)
H14 H 0.0144(18) 1.1931(15) -0.388(3)
C17 C 0.15440(15) 1.15856(13) -0.2549(2)
H15 H 0.1373(16) 1.1929(15) -0.162(3)
C18 C 0.03673(18) 1.07601(18) -0.8104(2)
H16 H -0.0237 1.0872 -0.8915
H17 H 0.0447 1.0083 -0.7911
H18 H 0.1012 1.1008 -0.8479
loop_
_geom_bond_atom_site_label_1
_geom_bond_atom_site_label_2
_geom_bond_site_symmetry_1
_geom_bond_site_symmetry_2
O1 C1 1_555 1_555
O2 C11 1_555 1_555
O3 C15 1_555 1_555
C1 H1 1_555 1_555
H2 C1 1_555 1_555
H3 C1 1_555 1_555
C2 O1 1_555 1_555
C3 C2 1_555 1_555
H4 C3 1_555 1_555
C4 C3 1_555 1_555
H5 C4 1_555 1_555
C5 C4 1_555 1_555
C6 C5 1_555 1_555
C7 C2 1_555 1_555
H6 C7 1_555 1_555
C8 C6 1_555 1_555
H7 C8 1_555 1_555
C9 C8 1_555 1_555
H8 C9 1_555 1_555
H9 C9 1_555 1_555
C10 C9 1_555 1_555
H10 C10 1_555 1_555
H11 C10 1_555 1_555
C11 C5 1_555 1_555
C12 C8 1_555 1_555
C13 C12 1_555 1_555
H12 C13 1_555 1_555
C14 C13 1_555 1_555
H13 C14 1_555 1_555
C15 C14 1_555 1_555
C16 C15 1_555 1_555
H14 C16 1_555 1_555
C17 C12 1_555 1_555
H15 C17 1_555 1_555
C18 O3 1_555 1_555
H16 C18 1_555 1_555
H17 C18 1_555 1_555
H18 C18 1_555 1_555
C6 C7 1_555 1_555
C10 C11 1_555 1_555
C16 C17 1_555 1_555

#END
