
#######################################################################
#
#                 Cambridge Crystallographic Data Centre
#                                CCDC 
#
#######################################################################
#
# If this CIF has been generated from an entry in the Cambridge 
# Structural Database, then it will include bibliographic, chemical, 
# crystal, experimental, refinement or atomic coordinate data resulting 
# from the CCDC's data processing and validation procedures.
#
#######################################################################

data_OCAKUZ
_chemical_formula_moiety         'C15 H9 F5 N2 O2'
_chemical_name_systematic        
1-(2,6-Difluorobenzoyl)-3-(4-trifluoromethylphenyl)urea
_chemical_properties_biological  'potential insecticidal activity'
_symmetry_cell_setting           triclinic
_symmetry_space_group_name_H-M   'P -1'
_symmetry_Int_Tables_number      2
_space_group_name_Hall           '-P 1'
loop_
_symmetry_equiv_pos_site_id
_symmetry_equiv_pos_as_xyz
1 x,y,z
2 -x,-y,-z
_cell_length_a                   7.244(7)
_cell_length_b                   8.014(8)
_cell_length_c                   13.654(13)
_cell_angle_alpha                91.218(15)
_cell_angle_beta                 101.586(15)
_cell_angle_gamma                108.010(14)
_cell_volume                     735.502
_exptl_crystal_colour            colorless
_exptl_crystal_description       block
_cell_formula_units_Z            2
_exptl_crystal_recrystallization_method 'diethyl ether'
loop_
_atom_site_label
_atom_site_type_symbol
_atom_site_fract_x
_atom_site_fract_y
_atom_site_fract_z
F1 F 0.8365(3) 0.1845(3) 1.31717(16)
F2 F 0.2304(3) 0.1468(3) 1.09702(15)
F3 F 1.3817(8) 0.390(3) 0.6363(5)
F4 F 1.147(4) 0.1564(9) 0.5723(13)
F5 F 1.133(2) 0.4078(19) 0.5405(7)
O1 O 0.7504(4) 0.1019(3) 1.10576(18)
O2 O 0.6294(3) 0.4691(3) 0.91549(17)
N1 N 0.6129(4) 0.3144(3) 1.05317(19)
H1 H 0.5380 0.3709 1.0689
N2 N 0.8163(4) 0.2845(3) 0.9451(2)
H2 H 0.8471 0.2137 0.9870
C1 C 0.6385(6) 0.1660(5) 1.2996(3)
C2 C 0.5531(7) 0.1497(5) 1.3816(3)
H3 H 0.6261 0.1476 1.4456
C3 C 0.3525(7) 0.1365(5) 1.3649(3)
H4 H 0.2904 0.1260 1.4189
C4 C 0.2455(6) 0.1388(5) 1.2703(3)
H5 H 0.1117 0.1294 1.2598
C5 C 0.3382(5) 0.1551(4) 1.1917(3)
C6 C 0.5403(5) 0.1718(4) 1.2025(2)
C7 C 0.6440(5) 0.1915(4) 1.1161(2)
C8 C 0.6850(5) 0.3623(4) 0.9665(2)
C9 C 0.9079(5) 0.3064(4) 0.8621(2)
C10 C 0.8445(6) 0.3807(5) 0.7762(3)
H6 H 0.7400 0.4263 0.7724
C11 C 0.9360(6) 0.3873(5) 0.6960(3)
H7 H 0.8919 0.4367 0.6386
C12 C 1.0931(5) 0.3209(4) 0.7004(2)
C13 C 1.1585(5) 0.2503(4) 0.7871(2)
H8 H 1.2652 0.2076 0.7912
C14 C 1.0683(5) 0.2422(4) 0.8670(2)
H9 H 1.1139 0.1938 0.9245
C15 C 1.1837(7) 0.3174(6) 0.6124(3)
F6? F 1.332(4) 0.250(5) 0.6249(11)
F7? F 1.055(2) 0.210(4) 0.5351(13)
F8? F 1.234(7) 0.469(3) 0.571(3)
loop_
_geom_bond_atom_site_label_1
_geom_bond_atom_site_label_2
_geom_bond_site_symmetry_1
_geom_bond_site_symmetry_2
F1 C1 1_555 1_555
F2 C5 1_555 1_555
F3 C15 1_555 1_555
F4 C15 1_555 1_555
F5 C15 1_555 1_555
O1 C7 1_555 1_555
O2 C8 1_555 1_555
N1 H1 1_555 1_555
N2 H2 1_555 1_555
C1 C2 1_555 1_555
C2 H3 1_555 1_555
C3 C2 1_555 1_555
H4 C3 1_555 1_555
C4 C3 1_555 1_555
H5 C4 1_555 1_555
C5 C4 1_555 1_555
C6 C1 1_555 1_555
C7 N1 1_555 1_555
C8 N1 1_555 1_555
C9 N2 1_555 1_555
C10 C9 1_555 1_555
H6 C10 1_555 1_555
C11 C10 1_555 1_555
H7 C11 1_555 1_555
C12 C11 1_555 1_555
C13 C12 1_555 1_555
H8 C13 1_555 1_555
C14 C9 1_555 1_555
H9 C14 1_555 1_555
C15 C12 1_555 1_555
N2 C8 1_555 1_555
C5 C6 1_555 1_555
C6 C7 1_555 1_555
C13 C14 1_555 1_555

#END
