
#######################################################################
#
#                 Cambridge Crystallographic Data Centre
#                                CCDC 
#
#######################################################################
#
# If this CIF has been generated from an entry in the Cambridge 
# Structural Database, then it will include bibliographic, chemical, 
# crystal, experimental, refinement or atomic coordinate data resulting 
# from the CCDC's data processing and validation procedures.
#
#######################################################################

data_OCALEK
_chemical_formula_moiety         'C25 H31 N1 O4'
_chemical_name_systematic        
9-(4-Hydroxy-3-methyoxyphenyl)-3,3,6,6,10-pentamethyl-1,2,3,4,5,6,7,8,9,10-decahydroacridine-1,8-dione
_chemical_properties_biological  'potential therapeutic agent'
_symmetry_cell_setting           monoclinic
_symmetry_space_group_name_H-M   'P 21/c'
_symmetry_Int_Tables_number      14
_space_group_name_Hall           '-P 2ybc'
loop_
_symmetry_equiv_pos_site_id
_symmetry_equiv_pos_as_xyz
1 x,y,z
2 x,1/2-y,1/2+z
3 -x,-y,-z
4 -x,1/2+y,1/2-z
_cell_length_a                   10.640(2)
_cell_length_b                   14.884(2)
_cell_length_c                   13.604(2)
_cell_angle_alpha                90
_cell_angle_beta                 91.150(10)
_cell_angle_gamma                90
_cell_volume                     2153.97
_exptl_crystal_colour            yellow
_exptl_crystal_description       block
_chemical_melting_point          '522-523 K'
_cell_formula_units_Z            4
_exptl_crystal_recrystallization_method ethanol
loop_
_atom_site_label
_atom_site_type_symbol
_atom_site_fract_x
_atom_site_fract_y
_atom_site_fract_z
O1 O 0.36976(13) 0.43463(10) 0.02554(10)
O2 O 0.73554(12) 0.38486(10) 0.23334(11)
O3 O 0.22405(13) 0.15163(10) 0.39116(11)
H1 H 0.2700 0.1235 0.4293
O4 O 0.10489(12) 0.25260(10) 0.26167(11)
N1 N 0.44284(14) 0.61237(10) 0.30682(11)
C1 C 0.37393(17) 0.59243(12) 0.22204(13)
C2 C 0.27655(18) 0.65910(12) 0.18813(15)
H2 H 0.3189 0.7142 0.1701
H3 H 0.2230 0.6728 0.2430
C3 C 0.19330(19) 0.62924(13) 0.10138(14)
C4 C 0.2742(2) 0.57990(15) 0.02757(15)
H4 H 0.2203 0.5560 -0.0245
H5 H 0.3314 0.6224 -0.0018
C5 C 0.34902(17) 0.50441(13) 0.07256(14)
C6 C 0.39888(16) 0.51602(11) 0.17121(13)
C7 C 0.48269(16) 0.44461(11) 0.21507(13)
H6 H 0.5247 0.4151 0.1603
C8 C 0.58323(16) 0.49097(12) 0.27558(13)
C9 C 0.71064(18) 0.45495(13) 0.27699(14)
C10 C 0.81091(19) 0.50785(15) 0.33050(16)
H7 H 0.8446 0.5523 0.2861
H8 H 0.8789 0.4676 0.3495
C11 C 0.76399(18) 0.55524(14) 0.42176(15)
C12 C 0.65133(18) 0.61390(13) 0.39190(15)
H9 H 0.6086 0.6324 0.4509
H10 H 0.6821 0.6677 0.3601
C13 C 0.55786(17) 0.56887(12) 0.32400(13)
C14 C 0.41126(16) 0.37113(11) 0.27048(13)
C15 C 0.46935(18) 0.31944(12) 0.34254(14)
H11 H 0.5505 0.3338 0.3638
C16 C 0.40834(18) 0.24606(13) 0.38403(14)
H12 H 0.4499 0.2119 0.4318
C17 C 0.28763(17) 0.22344(12) 0.35539(14)
C18 C 0.22622(17) 0.27730(13) 0.28580(14)
C19 C 0.28808(17) 0.34885(12) 0.24364(14)
H13 H 0.2463 0.3831 0.1960
C20 C 0.0326(2) 0.31353(16) 0.2042(2)
H14 H 0.0296 0.3706 0.2370
H15 H -0.0512 0.2906 0.1955
H16 H 0.0703 0.3208 0.1412
C21 C 0.0886(2) 0.56812(15) 0.1377(2)
H17 H 0.0426 0.5439 0.0824
H18 H 0.0329 0.6021 0.1780
H19 H 0.1247 0.5199 0.1756
C22 C 0.1343(2) 0.71285(16) 0.05335(18)
H20 H 0.1996 0.7518 0.0307
H21 H 0.0847 0.7441 0.1006
H22 H 0.0816 0.6950 -0.0013
C23 C 0.8685(2) 0.61519(17) 0.46528(18)
H23 H 0.9392 0.5786 0.4846
H24 H 0.8378 0.6464 0.5217
H25 H 0.8940 0.6580 0.4168
C24 C 0.7253(2) 0.48726(16) 0.49951(17)
H26 H 0.6546 0.4532 0.4753
H27 H 0.7028 0.5184 0.5584
H28 H 0.7943 0.4474 0.5137
C25 C 0.4111(2) 0.69286(13) 0.36509(16)
H29 H 0.4612 0.7427 0.3442
H30 H 0.4279 0.6812 0.4335
H31 H 0.3237 0.7069 0.3554
loop_
_geom_bond_atom_site_label_1
_geom_bond_atom_site_label_2
_geom_bond_site_symmetry_1
_geom_bond_site_symmetry_2
O1 C5 1_555 1_555
O2 C9 1_555 1_555
O3 H1 1_555 1_555
O4 C18 1_555 1_555
N1 C1 1_555 1_555
C1 C2 1_555 1_555
C2 H2 1_555 1_555
H3 C2 1_555 1_555
C3 C2 1_555 1_555
C4 C3 1_555 1_555
H4 C4 1_555 1_555
H5 C4 1_555 1_555
C5 C4 1_555 1_555
C6 C1 1_555 1_555
C7 C6 1_555 1_555
H6 C7 1_555 1_555
C8 C7 1_555 1_555
C9 C8 1_555 1_555
C10 C9 1_555 1_555
H7 C10 1_555 1_555
H8 C10 1_555 1_555
C11 C10 1_555 1_555
C12 C11 1_555 1_555
H9 C12 1_555 1_555
H10 C12 1_555 1_555
C13 N1 1_555 1_555
C14 C7 1_555 1_555
C15 C14 1_555 1_555
H11 C15 1_555 1_555
C16 C15 1_555 1_555
H12 C16 1_555 1_555
C17 O3 1_555 1_555
C18 C17 1_555 1_555
C19 C14 1_555 1_555
H13 C19 1_555 1_555
C20 O4 1_555 1_555
H14 C20 1_555 1_555
H15 C20 1_555 1_555
H16 C20 1_555 1_555
C21 C3 1_555 1_555
H17 C21 1_555 1_555
H18 C21 1_555 1_555
H19 C21 1_555 1_555
C22 C3 1_555 1_555
H20 C22 1_555 1_555
H21 C22 1_555 1_555
H22 C22 1_555 1_555
C23 C11 1_555 1_555
H23 C23 1_555 1_555
H24 C23 1_555 1_555
H25 C23 1_555 1_555
C24 C11 1_555 1_555
H26 C24 1_555 1_555
H27 C24 1_555 1_555
H28 C24 1_555 1_555
C25 N1 1_555 1_555
H29 C25 1_555 1_555
H30 C25 1_555 1_555
H31 C25 1_555 1_555
C5 C6 1_555 1_555
C8 C13 1_555 1_555
C12 C13 1_555 1_555
C16 C17 1_555 1_555
C18 C19 1_555 1_555

#END
