
#######################################################################
#
#                 Cambridge Crystallographic Data Centre
#                                CCDC 
#
#######################################################################
#
# If this CIF has been generated from an entry in the Cambridge 
# Structural Database, then it will include bibliographic, chemical, 
# crystal, experimental, refinement or atomic coordinate data resulting 
# from the CCDC's data processing and validation procedures.
#
#######################################################################

data_OCALIQ
_chemical_formula_moiety         'C22 H21 N1 O3 S1'
_chemical_name_systematic        
N-methyl-N-(methylsulfonyl)-2-(naphthalen-2-yl)-4-phenylbut-2-enamide
_symmetry_cell_setting           orthorhombic
_symmetry_space_group_name_H-M   'P 21 21 21'
_symmetry_Int_Tables_number      19
_space_group_name_Hall           'P 2ac 2ab'
loop_
_symmetry_equiv_pos_site_id
_symmetry_equiv_pos_as_xyz
1 x,y,z
2 1/2-x,-y,1/2+z
3 -x,1/2+y,1/2-z
4 1/2+x,1/2-y,-z
_cell_length_a                   6.2715(5)
_cell_length_b                   9.8659(7)
_cell_length_c                   31.610(2)
_cell_angle_alpha                90
_cell_angle_beta                 90
_cell_angle_gamma                90
_cell_volume                     1955.84
_exptl_crystal_colour            colorless
_exptl_crystal_description       block
_cell_formula_units_Z            4
loop_
_atom_site_label
_atom_site_type_symbol
_atom_site_fract_x
_atom_site_fract_y
_atom_site_fract_z
S1 S 0.37592(15) 0.17212(8) 0.24007(3)
C1 C 0.4444(5) 0.1726(3) 0.08189(8)
H1 H 0.3132 0.1617 0.0952
N1 N 0.5066(4) 0.2359(3) 0.19800(8)
C2 C 0.8401(5) 0.2035(3) 0.04301(10)
H2 H 0.9723 0.2156 0.0302
C3 C 0.5154(5) 0.3629(3) 0.13087(9)
C4 C 0.7004(5) 0.1033(3) 0.02749(9)
C5 C 0.5801(5) 0.2714(3) 0.09589(8)
C6 C 0.3926(5) 0.3005(3) 0.16681(9)
C7 C 0.4989(5) 0.0855(3) 0.04745(9)
C8 C 0.3613(6) -0.0168(3) 0.03254(10)
H3 H 0.2297 -0.0298 0.0455
O1 O 0.2109(5) 0.0845(3) 0.22597(10)
C9 C 0.7905(6) 0.6891(3) 0.11536(9)
C10 C 0.5412(6) 0.4975(3) 0.13225(10)
H4 H 0.5003 0.5390 0.1574
C11 C 0.7514(7) 0.0189(4) -0.00727(11)
H5 H 0.8814 0.0305 -0.0210
O2 O 0.5375(5) 0.1168(3) 0.26660(8)
O3 O 0.2007(4) 0.3112(4) 0.16843(9)
C12 C 0.4192(7) -0.0971(3) -0.00069(12)
H6 H 0.3275 -0.1650 -0.0099
C13 C 0.6259(6) 0.5893(3) 0.09926(10)
H7 H 0.5082 0.6395 0.0870
H8 H 0.6896 0.5352 0.0770
C14 C 0.7680(7) 0.8256(4) 0.10825(12)
H9 H 0.6495 0.8570 0.0935
C15 C 0.7417(5) 0.2394(5) 0.19952(14)
H10 H 0.7956 0.2774 0.1737
H11 H 0.7956 0.1490 0.2029
H12 H 0.7869 0.2942 0.2230
C16 C 0.7842(5) 0.2831(3) 0.07665(10)
H13 H 0.8813 0.3460 0.0871
C17 C 0.6160(8) -0.0781(4) -0.02110(12)
H14 H 0.6530 -0.1322 -0.0440
C18 C 1.1171(7) 0.7393(5) 0.15211(13)
H15 H 1.2356 0.7094 0.1672
C19 C 0.9180(10) 0.9173(4) 0.12255(14)
H16 H 0.8993 1.0091 0.1170
C20 C 0.9698(7) 0.6472(4) 0.13770(11)
H17 H 0.9902 0.5554 0.1430
C21 C 0.2667(9) 0.3136(4) 0.26479(13)
H18 H 0.1887 0.2855 0.2894
H19 H 0.1723 0.3590 0.2456
H20 H 0.3790 0.3742 0.2730
C22 C 1.0901(9) 0.8766(5) 0.14433(13)
H21 H 1.1894 0.9393 0.1540
loop_
_geom_bond_atom_site_label_1
_geom_bond_atom_site_label_2
_geom_bond_site_symmetry_1
_geom_bond_site_symmetry_2
S1 N1 1_555 1_555
C1 H1 1_555 1_555
N1 C6 1_555 1_555
C2 H2 1_555 1_555
C3 C5 1_555 1_555
C4 C2 1_555 1_555
C5 C1 1_555 1_555
C6 C3 1_555 1_555
C7 C1 1_555 1_555
C8 C7 1_555 1_555
H3 C8 1_555 1_555
O1 S1 1_555 1_555
C9 C13 1_555 1_555
C10 C3 1_555 1_555
H4 C10 1_555 1_555
C11 C4 1_555 1_555
H5 C11 1_555 1_555
O2 S1 1_555 1_555
O3 C6 1_555 1_555
C12 C8 1_555 1_555
H6 C12 1_555 1_555
C13 C10 1_555 1_555
H7 C13 1_555 1_555
H8 C13 1_555 1_555
C14 C9 1_555 1_555
H9 C14 1_555 1_555
C15 N1 1_555 1_555
H10 C15 1_555 1_555
H11 C15 1_555 1_555
H12 C15 1_555 1_555
C16 C2 1_555 1_555
H13 C16 1_555 1_555
C17 C11 1_555 1_555
H14 C17 1_555 1_555
C18 H15 1_555 1_555
C19 C14 1_555 1_555
H16 C19 1_555 1_555
C20 C9 1_555 1_555
H17 C20 1_555 1_555
C21 S1 1_555 1_555
H18 C21 1_555 1_555
H19 C21 1_555 1_555
H20 C21 1_555 1_555
C22 C18 1_555 1_555
H21 C22 1_555 1_555
C4 C7 1_555 1_555
C5 C16 1_555 1_555
C12 C17 1_555 1_555
C18 C20 1_555 1_555
C19 C22 1_555 1_555

#END
