
#######################################################################
#
#                 Cambridge Crystallographic Data Centre
#                                CCDC 
#
#######################################################################
#
# If this CIF has been generated from an entry in the Cambridge 
# Structural Database, then it will include bibliographic, chemical, 
# crystal, experimental, refinement or atomic coordinate data resulting 
# from the CCDC's data processing and validation procedures.
#
#######################################################################

data_OCAMEM
_chemical_formula_moiety         'C26 H23 Br3 N2 O1'
_chemical_name_systematic        
(E)-1-(4-[Bis(4-bromophenyl)methyl]piperazin-1-yl)-3-(4-bromophenyl)prop-2-en-1-one
_symmetry_cell_setting           monoclinic
_symmetry_space_group_name_H-M   'P 21/c'
_symmetry_Int_Tables_number      14
_space_group_name_Hall           '-P 2ybc'
loop_
_symmetry_equiv_pos_site_id
_symmetry_equiv_pos_as_xyz
1 x,y,z
2 -x,1/2+y,1/2-z
3 -x,-y,-z
4 x,1/2-y,1/2+z
_cell_length_a                   9.956(2)
_cell_length_b                   11.624(2)
_cell_length_c                   21.310(4)
_cell_angle_alpha                90
_cell_angle_beta                 101.45(3)
_cell_angle_gamma                90
_cell_volume                     2417.09
_exptl_crystal_colour            'pale yellow'
_exptl_crystal_description       block
_cell_formula_units_Z            4
_exptl_crystal_recrystallization_method ethanol
loop_
_atom_site_label
_atom_site_type_symbol
_atom_site_fract_x
_atom_site_fract_y
_atom_site_fract_z
O1 O 0.4281(4) 0.8456(3) 0.49348(19)
Br1 Br 0.93912(8) 0.12182(7) 0.72681(4)
N1 N 0.3393(5) 0.7165(5) 0.5513(3)
C1 C 0.5229(6) 0.5927(5) 0.6057(3)
H1 H 0.5859 0.5328 0.5984
H2 H 0.5767 0.6573 0.6257
Br2 Br 0.16720(8) 0.29610(8) 0.88918(3)
N2 N 0.4370(5) 0.5493(4) 0.6490(2)
C2 C 0.4386(6) 0.6302(5) 0.5429(3)
H3 H 0.4984 0.6611 0.5162
H4 H 0.3913 0.5641 0.5211
Br3 Br -0.05208(8) 1.44635(7) 0.58711(4)
C3 C 0.2520(6) 0.6816(5) 0.5959(3)
H5 H 0.1902 0.6210 0.5768
H6 H 0.1975 0.7465 0.6048
C4 C 0.3417(6) 0.6387(5) 0.6579(3)
H7 H 0.3929 0.7032 0.6795
H8 H 0.2829 0.6098 0.6856
C5 C 0.5188(6) 0.5151(5) 0.7109(3)
H9 H 0.5632 0.5843 0.7316
C6 C 0.6277(6) 0.4288(5) 0.7081(3)
C7 C 0.6099(5) 0.3340(5) 0.6655(3)
H10 H 0.5309 0.3315 0.6337
C8 C 0.7002(7) 0.2476(6) 0.6681(3)
H11 H 0.6839 0.1876 0.6387
C9 C 0.8187(6) 0.2489(5) 0.7156(3)
C10 C 0.8421(6) 0.3419(6) 0.7559(3)
H12 H 0.9232 0.3460 0.7862
C11 C 0.7479(6) 0.4292(6) 0.7522(3)
H13 H 0.7665 0.4905 0.7806
C12 C 0.4301(6) 0.4650(5) 0.7545(3)
C13 C 0.4486(6) 0.4907(6) 0.8175(3)
H14 H 0.5143 0.5455 0.8340
C14 C 0.3732(6) 0.4388(6) 0.8595(3)
H15 H 0.3908 0.4564 0.9029
C15 C 0.2737(7) 0.3620(6) 0.8339(3)
C16 C 0.2504(6) 0.3338(5) 0.7715(3)
H16 H 0.1823 0.2810 0.7550
C17 C 0.3289(6) 0.3840(5) 0.7315(3)
H17 H 0.3135 0.3631 0.6886
C18 C 0.3496(7) 0.8259(6) 0.5292(3)
C19 C 0.2533(6) 0.9125(5) 0.5439(3)
H18 H 0.1741 0.8893 0.5573
C20 C 0.2785(6) 1.0231(6) 0.5384(3)
H19 H 0.3574 1.0400 0.5231
C21 C 0.2005(6) 1.1230(6) 0.5527(3)
C22 C 0.2556(6) 1.2308(6) 0.5522(3)
H20 H 0.3449 1.2390 0.5460
C23 C 0.1802(7) 1.3288(6) 0.5610(3)
H21 H 0.2167 1.4020 0.5588
C24 C 0.0504(7) 1.3141(6) 0.5729(3)
C25 C -0.0090(7) 1.2091(6) 0.5737(3)
H22 H -0.0983 1.2011 0.5800
C26 C 0.0699(6) 1.1140(6) 0.5648(3)
H23 H 0.0329 1.0411 0.5671
loop_
_geom_bond_atom_site_label_1
_geom_bond_atom_site_label_2
_geom_bond_site_symmetry_1
_geom_bond_site_symmetry_2
O1 C18 1_555 1_555
Br1 C9 1_555 1_555
N1 C2 1_555 1_555
C1 H1 1_555 1_555
H2 C1 1_555 1_555
Br2 C15 1_555 1_555
N2 C1 1_555 1_555
C2 C1 1_555 1_555
H3 C2 1_555 1_555
H4 C2 1_555 1_555
Br3 C24 1_555 1_555
C3 N1 1_555 1_555
H5 C3 1_555 1_555
H6 C3 1_555 1_555
C4 N2 1_555 1_555
H7 C4 1_555 1_555
H8 C4 1_555 1_555
C5 N2 1_555 1_555
H9 C5 1_555 1_555
C6 C5 1_555 1_555
C7 C6 1_555 1_555
H10 C7 1_555 1_555
C8 C7 1_555 1_555
H11 C8 1_555 1_555
C9 C8 1_555 1_555
C10 C9 1_555 1_555
H12 C10 1_555 1_555
C11 C6 1_555 1_555
H13 C11 1_555 1_555
C12 C5 1_555 1_555
C13 C12 1_555 1_555
H14 C13 1_555 1_555
C14 C13 1_555 1_555
H15 C14 1_555 1_555
C15 C14 1_555 1_555
C16 C15 1_555 1_555
H16 C16 1_555 1_555
C17 C12 1_555 1_555
H17 C17 1_555 1_555
C18 N1 1_555 1_555
C19 C18 1_555 1_555
H18 C19 1_555 1_555
C20 C19 1_555 1_555
H19 C20 1_555 1_555
C21 C20 1_555 1_555
C22 C21 1_555 1_555
H20 C22 1_555 1_555
C23 C22 1_555 1_555
H21 C23 1_555 1_555
C24 C23 1_555 1_555
C25 C24 1_555 1_555
H22 C25 1_555 1_555
C26 C21 1_555 1_555
H23 C26 1_555 1_555
C3 C4 1_555 1_555
C10 C11 1_555 1_555
C16 C17 1_555 1_555
C25 C26 1_555 1_555

#END
