
#######################################################################
#
#                 Cambridge Crystallographic Data Centre
#                                CCDC 
#
#######################################################################
#
# If this CIF has been generated from an entry in the Cambridge 
# Structural Database, then it will include bibliographic, chemical, 
# crystal, experimental, refinement or atomic coordinate data resulting 
# from the CCDC's data processing and validation procedures.
#
#######################################################################

data_OCAMOW
_chemical_formula_moiety         'C24 H14 N4 O2'
_chemical_name_systematic        
5,5'-Bis(naphthalen-2-yl)-2,2'-bis(1,3,4-oxadiazole)
_symmetry_cell_setting           monoclinic
_symmetry_space_group_name_H-M   'P 21/c'
_symmetry_Int_Tables_number      14
_space_group_name_Hall           '-P 2ybc'
loop_
_symmetry_equiv_pos_site_id
_symmetry_equiv_pos_as_xyz
1 x,y,z
2 -x,1/2+y,1/2-z
3 -x,-y,-z
4 x,1/2-y,1/2+z
_cell_length_a                   7.8982(16)
_cell_length_b                   5.7107(11)
_cell_length_c                   21.503(5)
_cell_angle_alpha                90
_cell_angle_beta                 109.82(3)
_cell_angle_gamma                90
_cell_volume                     912.424
_exptl_crystal_colour            colorless
_exptl_crystal_description       block
_cell_formula_units_Z            2
loop_
_atom_site_label
_atom_site_type_symbol
_atom_site_fract_x
_atom_site_fract_y
_atom_site_fract_z
O1 O 0.18040(11) 0.40921(16) 0.97102(4)
N1 N 0.01904(14) 0.7350(2) 0.94532(6)
N2 N 0.14392(14) 0.7347(2) 0.91193(6)
C1 C 0.04644(15) 0.5425(2) 0.97855(6)
C2 C 0.23461(16) 0.5413(2) 0.92839(6)
C3 C 0.38061(15) 0.4564(2) 0.90721(6)
C4 C 0.46713(17) 0.2407(2) 0.93102(6)
H1 H 0.4287 0.1499 0.9596
C5 C 0.60641(17) 0.1660(2) 0.91221(7)
H2 H 0.6637 0.0256 0.9288
C6 C 0.66520(15) 0.2993(2) 0.86777(6)
C7 C 0.80712(17) 0.2254(3) 0.84590(7)
H3 H 0.8681 0.0868 0.8621
C8 C 0.85466(18) 0.3556(3) 0.80150(8)
H4 H 0.9466 0.3037 0.7870
C9 C 0.76681(19) 0.5674(3) 0.77722(8)
H5 H 0.8008 0.6543 0.7468
C10 C 0.63230(17) 0.6463(3) 0.79789(6)
H6 H 0.5763 0.7881 0.7821
C11 C 0.57699(15) 0.5144(2) 0.84322(6)
C12 C 0.43475(15) 0.5888(2) 0.86414(6)
H7 H 0.3768 0.7297 0.8485
O1B O -0.18040(11) 0.59079(16) 1.02898(4)
N1B N -0.01904(14) 0.2650(2) 1.05468(6)
N2B N -0.14392(14) 0.2653(2) 1.08807(6)
C1B C -0.04644(15) 0.4575(2) 1.02145(6)
C2B C -0.23461(16) 0.4587(2) 1.07161(6)
C3B C -0.38061(15) 0.5436(2) 1.09279(6)
C4B C -0.46713(17) 0.7593(2) 1.06898(6)
H1B H -0.4287 0.8501 1.0404
C5B C -0.60641(17) 0.8340(2) 1.08779(7)
H2B H -0.6637 0.9744 1.0712
C6B C -0.66520(15) 0.7007(2) 1.13223(6)
C7B C -0.80712(17) 0.7746(3) 1.15410(7)
H3B H -0.8681 0.9132 1.1379
C8B C -0.85466(18) 0.6444(3) 1.19850(8)
H4B H -0.9466 0.6963 1.2130
C9B C -0.76681(19) 0.4326(3) 1.22278(8)
H5B H -0.8008 0.3457 1.2532
C10B C -0.63230(17) 0.3537(3) 1.20211(6)
H6B H -0.5763 0.2119 1.2179
C11B C -0.57699(15) 0.4856(2) 1.15678(6)
C12B C -0.43475(15) 0.4112(2) 1.13586(6)
H7B H -0.3768 0.2703 1.1515
loop_
_geom_bond_atom_site_label_1
_geom_bond_atom_site_label_2
_geom_bond_site_symmetry_1
_geom_bond_site_symmetry_2
O1 C1 1_555 1_555
N1 N2 1_555 1_555
N2 C2 1_555 1_555
C1 N1 1_555 1_555
C2 O1 1_555 1_555
C3 C2 1_555 1_555
C4 C3 1_555 1_555
H1 C4 1_555 1_555
C5 C4 1_555 1_555
H2 C5 1_555 1_555
C6 C5 1_555 1_555
C7 C6 1_555 1_555
H3 C7 1_555 1_555
C8 C7 1_555 1_555
H4 C8 1_555 1_555
C9 C8 1_555 1_555
H5 C9 1_555 1_555
C10 C9 1_555 1_555
H6 C10 1_555 1_555
C11 C6 1_555 1_555
C12 C3 1_555 1_555
H7 C12 1_555 1_555
O1B C1B 1_555 1_555
N1B N2B 1_555 1_555
N2B C2B 1_555 1_555
C1B C1 1_555 1_555
C2B O1B 1_555 1_555
C3B C2B 1_555 1_555
C4B C3B 1_555 1_555
H1B C4B 1_555 1_555
C5B C4B 1_555 1_555
H2B C5B 1_555 1_555
C6B C5B 1_555 1_555
C7B C6B 1_555 1_555
H3B C7B 1_555 1_555
C8B C7B 1_555 1_555
H4B C8B 1_555 1_555
C9B C8B 1_555 1_555
H5B C9B 1_555 1_555
C10B C9B 1_555 1_555
H6B C10B 1_555 1_555
C11B C6B 1_555 1_555
C12B C3B 1_555 1_555
H7B C12B 1_555 1_555
C10 C11 1_555 1_555
C11 C12 1_555 1_555
N1B C1B 1_555 1_555
C10B C11B 1_555 1_555
C11B C12B 1_555 1_555

#END
