
#######################################################################
#
#                 Cambridge Crystallographic Data Centre
#                                CCDC 
#
#######################################################################
#
# If this CIF has been generated from an entry in the Cambridge 
# Structural Database, then it will include bibliographic, chemical, 
# crystal, experimental, refinement or atomic coordinate data resulting 
# from the CCDC's data processing and validation procedures.
#
#######################################################################

data_OCANEO
_chemical_formula_moiety         'C31 H25 Br1 N4 O2'
_chemical_name_systematic        
2-benzoyl-4-(4-bromophenyl)-1,9-diphenyl-2,5,8,9-tetrahydro-1H,7H-pyrazolo[1,2-a][1,2,4,5]tetrazepin-7-one
_symmetry_cell_setting           monoclinic
_symmetry_space_group_name_H-M   'P 21'
_symmetry_Int_Tables_number      4
_space_group_name_Hall           'P 2yb'
loop_
_symmetry_equiv_pos_site_id
_symmetry_equiv_pos_as_xyz
1 x,y,z
2 -x,1/2+y,-z
_cell_length_a                   8.8161(12)
_cell_length_b                   14.7446(19)
_cell_length_c                   10.3163(14)
_cell_angle_alpha                90
_cell_angle_beta                 102.509(2)
_cell_angle_gamma                90
_cell_volume                     1309.18
_exptl_crystal_colour            colorless
_exptl_crystal_description       block
_cell_formula_units_Z            2
loop_
_atom_site_label
_atom_site_type_symbol
_atom_site_fract_x
_atom_site_fract_y
_atom_site_fract_z
Br1 Br -0.33819(3) 0.397620(18) 0.92198(3)
C1 C -0.2436(3) 0.49798(14) 0.8546(2)
C2 C -0.0831(3) 0.55440(14) 0.7154(2)
H1 H -0.0233 0.5441 0.6528
C3 C -0.0974(2) 0.64231(13) 0.7615(2)
C4 C -0.1901(3) 0.65606(15) 0.8520(2)
H2 H -0.2030 0.7146 0.8814
C5 C -0.1567(3) 0.48246(14) 0.7617(2)
H3 H -0.1474 0.4241 0.7301
C6 C -0.2642(3) 0.58478(17) 0.8997(2)
H4 H -0.3263 0.5948 0.9606
C7 C -0.0096(2) 0.71741(13) 0.7154(2)
C8 C 0.1452(3) 0.69012(14) 0.6853(2)
H5 H 0.1874 0.6396 0.7420
H6 H 0.1284 0.6698 0.5939
N1 N 0.2562(2) 0.76296(11) 0.70535(19)
N2 N 0.2489(2) 0.83078(11) 0.60382(18)
C9 C 0.3507(2) 0.90346(16) 0.67809(19)
H7 H 0.2919 0.9369 0.7331
C10 C 0.3893(3) 0.76699(14) 0.8004(2)
C11 C 0.4767(3) 0.84846(15) 0.7681(2)
H8 H 0.5576 0.8311 0.7226
H9 H 0.5229 0.8821 0.8478
O1 O 0.4268(2) 0.71235(12) 0.89054(17)
C12 C 0.4033(3) 0.96931(15) 0.5840(2)
C13 C 0.4910(3) 0.94159(17) 0.4968(3)
H10 H 0.5149 0.8804 0.4917
C14 C 0.3667(3) 1.06044(16) 0.5905(3)
H11 H 0.3069 1.0800 0.6491
C15 C 0.5446(3) 1.0033(2) 0.4163(3)
H12 H 0.6038 0.9839 0.3571
C16 C 0.4195(4) 1.12203(18) 0.5094(3)
H13 H 0.3937 1.1830 0.5125
C17 C 0.5095(3) 1.0938(2) 0.4247(3)
H14 H 0.5472 1.1359 0.3724
C18 C 0.0881(2) 0.86186(13) 0.5580(2)
H15 H 0.0967 0.9237 0.5256
C19 C -0.0052(3) 0.81025(13) 0.4399(2)
C20 C -0.0274(4) 0.72228(19) 0.2403(3)
H16 H 0.0193 0.6877 0.1844
C21 C 0.0623(3) 0.75910(16) 0.3554(3)
H17 H 0.1690 0.7492 0.3759
C22 C -0.1657(3) 0.8234(2) 0.4059(3)
H18 H -0.2138 0.8574 0.4613
C23 C -0.2539(4) 0.7865(2) 0.2912(3)
H19 H -0.3608 0.7956 0.2701
C24 C -0.1852(4) 0.73675(19) 0.2087(3)
H20 H -0.2450 0.7125 0.1310
N3 N 0.0040(2) 0.87118(10) 0.66626(18)
N4 N -0.0700(2) 0.79686(11) 0.71231(18)
C25 C -0.0551(3) 0.95652(15) 0.6859(2)
O2 O -0.0327(2) 1.01939(11) 0.6152(2)
C26 C -0.1376(3) 0.97096(15) 0.7953(2)
C27 C -0.1068(3) 0.92496(15) 0.9157(2)
H21 H -0.0358 0.8774 0.9290
C28 C -0.2438(3) 1.04298(16) 0.7797(3)
H22 H -0.2656 1.0752 0.7003
C29 C -0.2852(3) 1.0201(2) 0.9982(3)
H23 H -0.3345 1.0364 1.0659
C30 C -0.1807(3) 0.9493(2) 1.0162(3)
H24 H -0.1597 0.9177 1.0961
C31 C -0.3163(3) 1.06654(19) 0.8802(3)
H25 H -0.3869 1.1143 0.8680
loop_
_geom_bond_atom_site_label_1
_geom_bond_atom_site_label_2
_geom_bond_site_symmetry_1
_geom_bond_site_symmetry_2
Br1 C1 1_555 1_555
C1 C5 1_555 1_555
C2 H1 1_555 1_555
C3 C2 1_555 1_555
C4 C3 1_555 1_555
H2 C4 1_555 1_555
C5 C2 1_555 1_555
H3 C5 1_555 1_555
C6 C1 1_555 1_555
H4 C6 1_555 1_555
C7 C3 1_555 1_555
C8 C7 1_555 1_555
H5 C8 1_555 1_555
H6 C8 1_555 1_555
N1 C8 1_555 1_555
N2 N1 1_555 1_555
C9 N2 1_555 1_555
H7 C9 1_555 1_555
C10 N1 1_555 1_555
C11 C9 1_555 1_555
H8 C11 1_555 1_555
H9 C11 1_555 1_555
O1 C10 1_555 1_555
C12 C9 1_555 1_555
C13 C12 1_555 1_555
H10 C13 1_555 1_555
C14 C12 1_555 1_555
H11 C14 1_555 1_555
C15 C13 1_555 1_555
H12 C15 1_555 1_555
C16 C14 1_555 1_555
H13 C16 1_555 1_555
C17 C15 1_555 1_555
H14 C17 1_555 1_555
C18 N2 1_555 1_555
H15 C18 1_555 1_555
C19 C18 1_555 1_555
C20 H16 1_555 1_555
C21 C19 1_555 1_555
H17 C21 1_555 1_555
C22 C19 1_555 1_555
H18 C22 1_555 1_555
C23 C22 1_555 1_555
H19 C23 1_555 1_555
C24 C20 1_555 1_555
H20 C24 1_555 1_555
N3 C18 1_555 1_555
N4 C7 1_555 1_555
C25 N3 1_555 1_555
O2 C25 1_555 1_555
C26 C25 1_555 1_555
C27 C26 1_555 1_555
H21 C27 1_555 1_555
C28 C26 1_555 1_555
H22 C28 1_555 1_555
C29 H23 1_555 1_555
C30 C27 1_555 1_555
H24 C30 1_555 1_555
C31 C28 1_555 1_555
H25 C31 1_555 1_555
C4 C6 1_555 1_555
C10 C11 1_555 1_555
C16 C17 1_555 1_555
C20 C21 1_555 1_555
C23 C24 1_555 1_555
N3 N4 1_555 1_555
C29 C30 1_555 1_555
C29 C31 1_555 1_555

#END
