
#######################################################################
#
#                 Cambridge Crystallographic Data Centre
#                                CCDC 
#
#######################################################################
#
# If this CIF has been generated from an entry in the Cambridge 
# Structural Database, then it will include bibliographic, chemical, 
# crystal, experimental, refinement or atomic coordinate data resulting 
# from the CCDC's data processing and validation procedures.
#
#######################################################################

data_OCANOY
_chemical_formula_moiety         'C23 H19 N1 S1'
_chemical_name_systematic        
5-(4-(methylsulfanyl)phenyl)-2,3-diphenyl-1H-pyrrole
_symmetry_cell_setting           orthorhombic
_symmetry_space_group_name_H-M   'P 21 21 21'
_symmetry_Int_Tables_number      19
_space_group_name_Hall           'P 2ac 2ab'
loop_
_symmetry_equiv_pos_site_id
_symmetry_equiv_pos_as_xyz
1 x,y,z
2 1/2-x,-y,1/2+z
3 -x,1/2+y,1/2-z
4 1/2+x,1/2-y,-z
_cell_length_a                   6.4472(2)
_cell_length_b                   8.2649(3)
_cell_length_c                   34.1857(11)
_cell_angle_alpha                90
_cell_angle_beta                 90
_cell_angle_gamma                90
_cell_volume                     1821.6
_exptl_crystal_colour            'pale yellow'
_exptl_crystal_description       PLATE
_cell_formula_units_Z            4
loop_
_atom_site_label
_atom_site_type_symbol
_atom_site_fract_x
_atom_site_fract_y
_atom_site_fract_z
S1 S 0.50769(8) 0.31675(5) 0.161260(11)
N1 N 0.1468(2) 0.13768(15) 0.34434(3)
H1 H 0.237(2) 0.0683(17) 0.3399(4)
C1 C 0.3968(3) 0.29999(19) 0.20820(4)
C2 C 0.4809(4) 0.2103(2) 0.23827(5)
H2 H 0.616(3) 0.170(2) 0.2364(5)
C3 C 0.3827(3) 0.2018(2) 0.27416(5)
H3 H 0.4455 0.1442 0.2943
C4 C 0.1945(3) 0.27617(19) 0.28108(4)
C5 C 0.1148(3) 0.3704(2) 0.25108(5)
H4 H -0.007(3) 0.4175(18) 0.2536(4)
C6 C 0.2144(3) 0.3821(2) 0.21540(5)
H5 H 0.152(2) 0.443(2) 0.1959(5)
C7 C 0.0875(3) 0.25690(19) 0.31851(4)
C8 C -0.0774(3) 0.33340(19) 0.33546(4)
H6 H -0.147(2) 0.4212(18) 0.3265(4)
C9 C -0.1190(3) 0.26178(18) 0.37243(4)
C10 C 0.0227(3) 0.13700(17) 0.37667(4)
C11 C 0.0474(3) 0.00996(17) 0.40654(4)
C12 C 0.2400(3) -0.0236(2) 0.42253(5)
H7 H 0.360(2) 0.044(2) 0.4144(4)
C13 C 0.2602(3) -0.1514(3) 0.44852(5)
H8 H 0.3896 -0.1748 0.4591
C14 C 0.0941(4) -0.2430(2) 0.45879(5)
H9 H 0.1104 -0.3276 0.4765
C15 C -0.0964(4) -0.2114(2) 0.44332(6)
H10 H -0.2097 -0.2751 0.4501
C16 C -0.1205(3) -0.0830(2) 0.41728(5)
H11 H -0.253(3) -0.0622(18) 0.4060(4)
C17 C -0.2727(3) 0.31350(18) 0.40165(4)
C18 C -0.2266(3) 0.3095(2) 0.44139(5)
H12 H -0.086(3) 0.2781(19) 0.4489(4)
C19 C -0.3688(3) 0.3570(2) 0.46897(5)
H13 H -0.321(3) 0.363(2) 0.4961(4)
C20 C -0.5618(3) 0.4092(2) 0.45775(6)
H14 H -0.6593 0.4399 0.4764
C21 C -0.6087(3) 0.4156(2) 0.41864(6)
H15 H -0.738(3) 0.441(2) 0.4115(5)
C22 C -0.4657(3) 0.3683(2) 0.39095(5)
H16 H -0.499(3) 0.3713(18) 0.3643(4)
C23 C 0.7379(3) 0.1971(2) 0.16421(5)
H17 H 0.8059 0.1962 0.1392
H18 H 0.7022 0.0885 0.1715
H19 H 0.8293 0.2424 0.1835
loop_
_geom_bond_atom_site_label_1
_geom_bond_atom_site_label_2
_geom_bond_site_symmetry_1
_geom_bond_site_symmetry_2
S1 C1 1_555 1_555
N1 H1 1_555 1_555
C1 C2 1_555 1_555
C2 H2 1_555 1_555
C3 C2 1_555 1_555
H3 C3 1_555 1_555
C4 C3 1_555 1_555
C5 C4 1_555 1_555
H4 C5 1_555 1_555
C6 C1 1_555 1_555
H5 C6 1_555 1_555
C7 N1 1_555 1_555
C8 C7 1_555 1_555
H6 C8 1_555 1_555
C9 C8 1_555 1_555
C10 N1 1_555 1_555
C11 C10 1_555 1_555
C12 C11 1_555 1_555
H7 C12 1_555 1_555
C13 C12 1_555 1_555
H8 C13 1_555 1_555
C14 C13 1_555 1_555
H9 C14 1_555 1_555
C15 C14 1_555 1_555
H10 C15 1_555 1_555
C16 C11 1_555 1_555
H11 C16 1_555 1_555
C17 C9 1_555 1_555
C18 C17 1_555 1_555
H12 C18 1_555 1_555
C19 C18 1_555 1_555
H13 C19 1_555 1_555
C20 C19 1_555 1_555
H14 C20 1_555 1_555
C21 C20 1_555 1_555
H15 C21 1_555 1_555
C22 C17 1_555 1_555
H16 C22 1_555 1_555
C23 S1 1_555 1_555
H17 C23 1_555 1_555
H18 C23 1_555 1_555
H19 C23 1_555 1_555
C4 C7 1_555 1_555
C5 C6 1_555 1_555
C9 C10 1_555 1_555
C15 C16 1_555 1_555
C21 C22 1_555 1_555

#END
