
#######################################################################
#
#                 Cambridge Crystallographic Data Centre
#                                CCDC 
#
#######################################################################
#
# If this CIF has been generated from an entry in the Cambridge 
# Structural Database, then it will include bibliographic, chemical, 
# crystal, experimental, refinement or atomic coordinate data resulting 
# from the CCDC's data processing and validation procedures.
#
#######################################################################

data_OCANUD
_chemical_formula_moiety         '2(C19 H23 F2 N4 O3 1+),O4 S1 2-,5(H2 O1)'
_chemical_name_systematic        
'Bis[(2R,6S)-4-(5-amino-3-carboxy-1-cyclopropyl-6,8-difluoro-4-oxo-1,4-dihydroquinolin-7-yl)-2,6-dimethylpiperazin-1-ium] sulfate pentahydrate'
_symmetry_cell_setting           triclinic
_symmetry_space_group_name_H-M   'P 1'
_symmetry_Int_Tables_number      1
_space_group_name_Hall           'P 1'
loop_
_symmetry_equiv_pos_site_id
_symmetry_equiv_pos_as_xyz
1 x,y,z
_cell_length_a                   7.1961(3)
_cell_length_b                   9.6892(4)
_cell_length_c                   15.6136(5)
_cell_angle_alpha                84.760(6)
_cell_angle_beta                 83.045(5)
_cell_angle_gamma                88.619(5)
_cell_volume                     1076.03
_exptl_crystal_colour            green
_exptl_crystal_description       prism
_cell_formula_units_Z            1
loop_
_atom_site_label
_atom_site_type_symbol
_atom_site_fract_x
_atom_site_fract_y
_atom_site_fract_z
S1 S 0.61237(10) 0.18748(8) 0.24069(5)
O1 O 0.6739(3) 0.2460(2) 0.31751(12)
O2 O 0.4349(3) 0.2602(2) 0.22288(13)
O3 O 0.5785(3) 0.0393(2) 0.26000(15)
O4 O 0.7536(3) 0.2164(2) 0.16511(12)
F1 F 0.2557(2) 1.11521(17) 0.86005(11)
F2 F 0.4920(2) 0.74197(18) 1.03412(11)
O5 O 0.5379(3) 0.7840(2) 0.48993(13)
O6 O 0.6093(3) 0.5909(2) 0.56733(14)
O7 O 0.5740(3) 0.5853(2) 0.73035(13)
N1 N 0.1422(4) 1.1751(3) 1.14629(16)
N2 N 0.3324(4) 1.0124(3) 1.02055(16)
N3 N 0.5454(4) 0.5882(3) 0.90227(16)
N4 N 0.4051(3) 0.9932(2) 0.70917(15)
C1 C 0.5499(4) 0.7211(3) 0.5606(2)
C2 C 0.5003(4) 0.7852(3) 0.64338(19)
C3 C 0.4458(4) 0.9225(3) 0.63933(19)
H1 H 0.4365 0.9697 0.5839
C4 C 0.4118(4) 0.9270(3) 0.79258(18)
C5 C 0.3558(4) 0.9936(3) 0.86610(19)
C6 C 0.3824(4) 0.9379(3) 0.95065(19)
C7 C 0.4522(4) 0.8036(3) 0.95596(19)
C8 C 0.4906(4) 0.7221(3) 0.88655(19)
C9 C 0.4738(4) 0.7862(3) 0.80152(19)
C10 C 0.5200(4) 0.7110(3) 0.72568(19)
C11 C 0.3807(4) 1.1442(3) 0.69580(19)
H2 H 0.2495 1.1813 0.7038
C12 C 0.5164(5) 1.2229(3) 0.6292(2)
H3 H 0.6141 1.1691 0.5958
H4 H 0.4689 1.3061 0.5966
C13 C 0.5295(4) 1.2297(3) 0.7241(2)
H5 H 0.6352 1.1802 0.7489
H6 H 0.4901 1.3171 0.7496
C14 C 0.3684(4) 1.1602(3) 1.01852(19)
H7 H 0.4069 1.1983 0.9581
H8 H 0.4716 1.1747 1.0532
C15 C 0.1925(4) 1.2349(3) 1.05516(18)
H9 H 0.0886 1.2168 1.0207
C16 C 0.1175(4) 1.0209(3) 1.15505(19)
H10 H 0.0038 0.9991 1.1280
C17 C 0.2866(4) 0.9490(3) 1.10943(18)
H11 H 0.3953 0.9559 1.1420
H12 H 0.2596 0.8495 1.1081
C18 C 0.0877(4) 0.9714(3) 1.25073(19)
H13 H 0.2003 0.9892 1.2774
H14 H 0.0628 0.8718 1.2575
H15 H -0.0193 1.0213 1.2790
C19 C 0.2163(4) 1.3911(3) 1.0537(2)
H16 H 0.1000 1.4329 1.0796
H17 H 0.2453 1.4308 0.9936
H18 H 0.3188 1.4100 1.0867
H19 H 0.5807 0.5485 0.8562
H20 H 0.5867 0.5545 0.9519
H21 H 0.2355 1.1977 1.1777
H22 H 0.6026 0.5645 0.6229
H23 H 0.0447 1.2048 1.1748
F3 F -0.0073(2) 0.84613(17) 0.47689(10)
F4 F 0.2141(2) 0.46692(17) 0.65128(10)
O8 O -0.0362(3) 0.7957(2) 1.02049(13)
O9 O -0.1285(3) 0.9874(2) 0.94714(14)
O10 O -0.1107(3) 0.9932(2) 0.78319(13)
N5 N 0.2724(3) 0.4163(2) 0.34861(15)
N6 N 0.1588(4) 0.5747(3) 0.48944(15)
N7 N -0.0781(4) 0.9943(3) 0.61074(16)
N8 N 0.0567(3) 0.5850(2) 0.80159(15)
C20 C -0.0654(4) 0.8576(3) 0.9520(2)
C21 C -0.0290(4) 0.7921(3) 0.86875(19)
C22 C 0.0190(4) 0.6558(3) 0.87196(19)
H24 H 0.0264 0.6074 0.9272
C23 C 0.0566(4) 0.6546(3) 0.71849(19)
C24 C 0.1170(4) 0.5900(3) 0.64409(19)
C25 C 0.0979(4) 0.6487(3) 0.56021(19)
C26 C 0.0255(4) 0.7821(3) 0.55586(17)
C27 C -0.0195(4) 0.8598(3) 0.62513(19)
C28 C -0.0051(4) 0.7952(3) 0.70999(19)
C29 C -0.0537(4) 0.8683(3) 0.78686(19)
C30 C 0.0722(4) 0.4335(3) 0.81326(19)
H25 H 0.2017 0.3928 0.8075
C31 C -0.0717(4) 0.3567(3) 0.87605(19)
H26 H -0.1696 0.4117 0.9083
H27 H -0.0313 0.2709 0.9085
C32 C -0.0749(4) 0.3550(3) 0.77976(19)
H28 H -0.0368 0.2681 0.7533
H29 H -0.1751 0.4089 0.7531
C33 C 0.0929(4) 0.4314(3) 0.48901(19)
H30 H -0.0253 0.4328 0.4624
H31 H 0.0680 0.3886 0.5492
C34 C 0.2388(4) 0.3472(3) 0.43858(18)
H32 H 0.3577 0.3479 0.4658
C35 C 0.3365(4) 0.5622(3) 0.34571(19)
H33 H 0.4604 0.5625 0.3686
C36 C 0.1950(4) 0.6453(3) 0.40178(19)
H34 H 0.2441 0.7390 0.4050
H35 H 0.0766 0.6557 0.3753
C37 C 0.3584(4) 0.6241(3) 0.25213(19)
H36 H 0.4465 0.5671 0.2171
H37 H 0.4063 0.7185 0.2490
H38 H 0.2366 0.6266 0.2299
C38 C 0.1820(4) 0.1980(3) 0.43606(19)
H39 H 0.0778 0.1953 0.4013
H40 H 0.1431 0.1575 0.4951
H41 H 0.2886 0.1450 0.4101
H42 H -0.1300 1.0360 0.6569
H43 H -0.1254 1.0283 0.5602
H44 H 0.1637 0.4071 0.3267
H45 H -0.1305 1.0152 0.8867
H46 H 0.3331 0.3680 0.3072
O11 O 0.7052(3) 0.4663(2) 1.05899(14)
H47 H 0.7401 0.5202 1.0947
H48 H 0.7296 0.3913 1.0841
O12 O 0.9648(3) 0.4140(3) 0.26693(15)
H49 H 0.8447 0.3787 0.2790
H50 H 0.9147 0.5046 0.2592
O13 O 0.8398(3) 0.6479(2) 0.17674(14)
H51 H 0.7892 0.6957 0.2157
H52 H 0.8804 0.7179 0.1378
O14 O 0.7095(3) 0.7864(2) 0.31659(14)
H53 H 0.6764 0.7678 0.3807
H54 H 0.6538 0.8657 0.3005
O15 O -0.3039(3) 1.0681(2) 0.46352(13)
H55 H -0.2943 1.1247 0.4134
H56 H -0.3333 0.9936 0.4382
loop_
_geom_bond_atom_site_label_1
_geom_bond_atom_site_label_2
_geom_bond_site_symmetry_1
_geom_bond_site_symmetry_2
S1 O1 1_555 1_555
O2 S1 1_555 1_555
O3 S1 1_555 1_555
O4 S1 1_555 1_555
F1 C5 1_555 1_555
F2 C7 1_555 1_555
O5 C1 1_555 1_555
O6 C1 1_555 1_555
O7 C10 1_555 1_555
N1 C15 1_555 1_555
N2 C6 1_555 1_555
N3 C8 1_555 1_555
N4 C3 1_555 1_555
C1 C2 1_555 1_555
C2 C3 1_555 1_555
C3 H1 1_555 1_555
C4 N4 1_555 1_555
C5 C4 1_555 1_555
C6 C5 1_555 1_555
C7 C6 1_555 1_555
C8 C7 1_555 1_555
C9 C4 1_555 1_555
C10 C2 1_555 1_555
C11 N4 1_555 1_555
H2 C11 1_555 1_555
C12 C11 1_555 1_555
H3 C12 1_555 1_555
H4 C12 1_555 1_555
C13 C11 1_555 1_555
H5 C13 1_555 1_555
H6 C13 1_555 1_555
C14 N2 1_555 1_555
H7 C14 1_555 1_555
H8 C14 1_555 1_555
C15 C14 1_555 1_555
H9 C15 1_555 1_555
C16 N1 1_555 1_555
H10 C16 1_555 1_555
C17 N2 1_555 1_555
H11 C17 1_555 1_555
H12 C17 1_555 1_555
C18 C16 1_555 1_555
H13 C18 1_555 1_555
H14 C18 1_555 1_555
H15 C18 1_555 1_555
C19 C15 1_555 1_555
H16 C19 1_555 1_555
H17 C19 1_555 1_555
H18 C19 1_555 1_555
H19 N3 1_555 1_555
H20 N3 1_555 1_555
H21 N1 1_555 1_555
H22 O6 1_555 1_555
H23 N1 1_555 1_555
F3 C26 1_555 1_555
F4 C24 1_555 1_555
O8 C20 1_555 1_555
O9 C20 1_555 1_555
O10 C29 1_555 1_555
N5 C34 1_555 1_555
N6 C25 1_555 1_555
N7 C27 1_555 1_555
N8 C22 1_555 1_555
C20 C21 1_555 1_555
C21 C22 1_555 1_555
C22 H24 1_555 1_555
C23 N8 1_555 1_555
C24 C23 1_555 1_555
C25 C24 1_555 1_555
C26 C25 1_555 1_555
C27 C26 1_555 1_555
C28 C23 1_555 1_555
C29 C21 1_555 1_555
C30 N8 1_555 1_555
H25 C30 1_555 1_555
C31 C30 1_555 1_555
H26 C31 1_555 1_555
H27 C31 1_555 1_555
C32 C30 1_555 1_555
H28 C32 1_555 1_555
H29 C32 1_555 1_555
C33 N6 1_555 1_555
H30 C33 1_555 1_555
H31 C33 1_555 1_555
C34 C33 1_555 1_555
H32 C34 1_555 1_555
C35 N5 1_555 1_555
H33 C35 1_555 1_555
C36 N6 1_555 1_555
H34 C36 1_555 1_555
H35 C36 1_555 1_555
C37 C35 1_555 1_555
H36 C37 1_555 1_555
H37 C37 1_555 1_555
H38 C37 1_555 1_555
C38 C34 1_555 1_555
H39 C38 1_555 1_555
H40 C38 1_555 1_555
H41 C38 1_555 1_555
H42 N7 1_555 1_555
H43 N7 1_555 1_555
H44 N5 1_555 1_555
H45 O9 1_555 1_555
H46 N5 1_555 1_555
O11 H47 1_555 1_555
H48 O11 1_555 1_555
O12 H49 1_555 1_555
H50 O12 1_555 1_555
O13 H51 1_555 1_555
H52 O13 1_555 1_555
O14 H53 1_555 1_555
H54 O14 1_555 1_555
O15 H55 1_555 1_555
H56 O15 1_555 1_555
C8 C9 1_555 1_555
C9 C10 1_555 1_555
C12 C13 1_555 1_555
C16 C17 1_555 1_555
C27 C28 1_555 1_555
C28 C29 1_555 1_555
C31 C32 1_555 1_555
C35 C36 1_555 1_555

#END
