
#######################################################################
#
#                 Cambridge Crystallographic Data Centre
#                                CCDC 
#
#######################################################################
#
# If this CIF has been generated from an entry in the Cambridge 
# Structural Database, then it will include bibliographic, chemical, 
# crystal, experimental, refinement or atomic coordinate data resulting 
# from the CCDC's data processing and validation procedures.
#
#######################################################################

data_OCANEM
_chemical_formula_moiety         'C22 H18 N4 O2 S1'
_chemical_name_systematic        
'bis(4-Formyl-3-methyl-1-phenyl-1H-pyrazol-5-yl) sulfide'
_symmetry_cell_setting           monoclinic
_symmetry_space_group_name_H-M   'P 21/c'
_symmetry_Int_Tables_number      14
_space_group_name_Hall           '-P 2ybc'
loop_
_symmetry_equiv_pos_site_id
_symmetry_equiv_pos_as_xyz
1 x,y,z
2 x,1/2-y,1/2+z
3 -x,-y,-z
4 -x,1/2+y,1/2-z
_cell_length_a                   13.853(4)
_cell_length_b                   6.918(2)
_cell_length_c                   20.723(6)
_cell_angle_alpha                90
_cell_angle_beta                 99.855(5)
_cell_angle_gamma                90
_cell_volume                     1956.68
_exptl_crystal_colour            colorless
_exptl_crystal_description       block
_chemical_melting_point          '468-469 K'
_cell_formula_units_Z            4
_exptl_crystal_recrystallization_method ethanol
loop_
_atom_site_label
_atom_site_type_symbol
_atom_site_fract_x
_atom_site_fract_y
_atom_site_fract_z
S1 S 0.33604(4) -0.09960(7) 0.36191(2)
N1 N 0.37266(12) 0.3937(2) 0.45716(7)
N2 N 0.35594(11) 0.2762(2) 0.40301(6)
N3 N 0.06053(12) 0.0630(2) 0.30946(7)
N4 N 0.14234(11) 0.0077(2) 0.35280(7)
O1 O 0.41283(11) -0.1047(2) 0.58465(6)
O2 O 0.20974(14) -0.0053(3) 0.14633(7)
C1 C 0.38755(13) 0.2735(3) 0.50793(8)
C2 C 0.37909(12) 0.0783(3) 0.48718(8)
C3 C 0.35793(13) 0.0882(3) 0.41955(8)
C4 C 0.40848(17) 0.3519(3) 0.57599(9)
H1 H 0.4743 0.3190 0.5957
H2 H 0.3633 0.2971 0.6013
H3 H 0.4013 0.4899 0.5747
C5 C 0.38936(13) -0.0975(3) 0.52553(9)
H4 H 0.3770 -0.2139 0.5032
C6 C 0.34348(14) 0.3574(3) 0.33835(8)
C7 C 0.25457(15) 0.4331(3) 0.31047(9)
H5 H 0.2032 0.4374 0.3340
C8 C 0.24190(16) 0.5030(3) 0.24720(9)
H6 H 0.1816 0.5527 0.2277
C9 C 0.31855(18) 0.4990(3) 0.21315(9)
H7 H 0.3101 0.5467 0.1706
C10 C 0.40788(18) 0.4246(3) 0.24171(9)
H8 H 0.4596 0.4231 0.2184
C11 C 0.42116(15) 0.3522(3) 0.30471(9)
H9 H 0.4813 0.3010 0.3241
C12 C 0.08673(15) 0.0506(3) 0.25106(9)
C13 C 0.18544(14) -0.0069(3) 0.25578(8)
C14 C 0.21882(14) -0.0317(3) 0.32201(8)
C15 C 0.01449(17) 0.0949(4) 0.19055(10)
H10 H -0.0460 0.1370 0.2026
H11 H 0.0031 -0.0191 0.1639
H12 H 0.0401 0.1954 0.1663
C16 C 0.24273(17) -0.0196(3) 0.20382(9)
H13 H 0.3098 -0.0404 0.2156
C17 C 0.13792(14) -0.0015(3) 0.42140(9)
C18 C 0.11928(16) 0.1634(4) 0.45375(10)
H14 H 0.1086 0.2800 0.4314
C19 C 0.1165(2) 0.1545(6) 0.51989(13)
H15 H 0.1042 0.2657 0.5424
C20 C 0.1317(2) -0.0172(7) 0.55236(13)
H16 H 0.1293 -0.0225 0.5969
C21 C 0.1506(2) -0.1827(6) 0.51990(13)
H17 H 0.1614 -0.2989 0.5426
C22 C 0.15361(17) -0.1764(4) 0.45346(10)
H18 H 0.1659 -0.2876 0.4310
loop_
_geom_bond_atom_site_label_1
_geom_bond_atom_site_label_2
_geom_bond_site_symmetry_1
_geom_bond_site_symmetry_2
S1 C3 1_555 1_555
N1 N2 1_555 1_555
N2 C3 1_555 1_555
N3 N4 1_555 1_555
N4 C14 1_555 1_555
O1 C5 1_555 1_555
O2 C16 1_555 1_555
C1 N1 1_555 1_555
C2 C1 1_555 1_555
C3 C2 1_555 1_555
C4 C1 1_555 1_555
H1 C4 1_555 1_555
H2 C4 1_555 1_555
H3 C4 1_555 1_555
C5 C2 1_555 1_555
H4 C5 1_555 1_555
C6 N2 1_555 1_555
C7 C6 1_555 1_555
H5 C7 1_555 1_555
C8 C7 1_555 1_555
H6 C8 1_555 1_555
C9 C8 1_555 1_555
H7 C9 1_555 1_555
C10 C9 1_555 1_555
H8 C10 1_555 1_555
C11 C6 1_555 1_555
H9 C11 1_555 1_555
C12 N3 1_555 1_555
C13 C12 1_555 1_555
C14 S1 1_555 1_555
C15 C12 1_555 1_555
H10 C15 1_555 1_555
H11 C15 1_555 1_555
H12 C15 1_555 1_555
C16 C13 1_555 1_555
H13 C16 1_555 1_555
C17 N4 1_555 1_555
C18 C17 1_555 1_555
H14 C18 1_555 1_555
C19 C18 1_555 1_555
H15 C19 1_555 1_555
C20 C19 1_555 1_555
H16 C20 1_555 1_555
C21 C20 1_555 1_555
H17 C21 1_555 1_555
C22 C17 1_555 1_555
H18 C22 1_555 1_555
C10 C11 1_555 1_555
C13 C14 1_555 1_555
C21 C22 1_555 1_555

#END
