
#######################################################################
#
#                 Cambridge Crystallographic Data Centre
#                                CCDC 
#
#######################################################################
#
# If this CIF has been generated from an entry in the Cambridge 
# Structural Database, then it will include bibliographic, chemical, 
# crystal, experimental, refinement or atomic coordinate data resulting 
# from the CCDC's data processing and validation procedures.
#
#######################################################################

data_OCANUC
_chemical_formula_moiety         'C33 H48 Cl1 N1 O9'
_chemical_name_systematic        
4-Chloro-N-(2,3,4,6-tetra-O-pivaloyl-\b-D-galactopyranosyl)benzylideneamine
_symmetry_cell_setting           orthorhombic
_symmetry_space_group_name_H-M   'P 21 21 21'
_symmetry_Int_Tables_number      19
_space_group_name_Hall           'P 2ac 2ab'
loop_
_symmetry_equiv_pos_site_id
_symmetry_equiv_pos_as_xyz
1 x,y,z
2 1/2+x,1/2-y,-z
3 -x,1/2+y,1/2-z
4 1/2-x,-y,1/2+z
_cell_length_a                   10.9898(4)
_cell_length_b                   15.7406(7)
_cell_length_c                   20.7781(6)
_cell_angle_alpha                90
_cell_angle_beta                 90
_cell_angle_gamma                90
_cell_volume                     3594.32
_exptl_crystal_colour            colorless
_exptl_crystal_description       block
_chemical_melting_point          '415-418 K'
_cell_formula_units_Z            4
_exptl_crystal_recrystallization_method 2-propanol
loop_
_atom_site_label
_atom_site_type_symbol
_atom_site_fract_x
_atom_site_fract_y
_atom_site_fract_z
Cl1 Cl 0.22500(10) 0.19640(10) 0.78921(7)
O1 O 0.6053(3) 0.5964(2) 0.56930(10)
O2 O 0.8007(3) 0.4090(2) 0.56170(10)
O3 O 0.7188(4) 0.3128(2) 0.4959(2)
O4 O 0.8494(2) 0.4870(2) 0.44240(10)
O5 O 1.0129(3) 0.5710(3) 0.4346(2)
O6 O 0.6361(2) 0.5866(2) 0.43480(10)
O7 O 0.7271(3) 0.6392(3) 0.34720(10)
O8 O 0.6672(3) 0.7881(2) 0.48130(10)
O9 O 0.5000(3) 0.8233(2) 0.4257(2)
N1 N 0.5698(3) 0.4701(2) 0.6183(2)
C1 C 0.6651(4) 0.5220(3) 0.5914(2)
C2 C 0.7257(4) 0.4757(3) 0.5350(2)
C3 C 0.8067(4) 0.5347(3) 0.4968(2)
C4 C 0.7365(3) 0.6133(3) 0.4757(2)
C5 C 0.6828(4) 0.6553(3) 0.5356(2)
C6 C 0.5948(4) 0.4235(3) 0.6658(2)
C7 C 0.5046(4) 0.3649(3) 0.6951(2)
C8 C 0.5342(5) 0.3178(3) 0.7500(2)
C9 C 0.4483(5) 0.2660(3) 0.7784(2)
C10 C 0.3348(5) 0.2619(3) 0.7541(2)
C11 C 0.3022(5) 0.3070(4) 0.6983(2)
C12 C 0.3887(5) 0.3585(3) 0.6695(2)
C13 C 0.7900(4) 0.3298(3) 0.5377(2)
C14 C 0.8786(4) 0.2676(3) 0.5695(2)
C15 C 1.0027(5) 0.3068(4) 0.5786(3)
C16 C 0.8884(6) 0.1899(4) 0.5263(3)
C17 C 0.8246(6) 0.2442(4) 0.6342(3)
C18 C 0.9578(4) 0.5112(3) 0.4167(2)
C19 C 0.9960(4) 0.4507(3) 0.3631(2)
C20 C 1.0038(6) 0.3590(4) 0.3886(3)
C21 C 1.1181(5) 0.4787(4) 0.3364(3)
C22 C 0.8993(6) 0.4538(4) 0.3095(2)
C23 C 0.6429(4) 0.6036(3) 0.3713(2)
C24 C 0.5310(5) 0.5723(3) 0.3362(2)
C25 C 0.5234(8) 0.4786(5) 0.3400(4)
C26 C 0.4170(6) 0.6112(6) 0.3682(4)
C27 C 0.5339(8) 0.6029(7) 0.2688(3)
C28 C 0.5976(4) 0.7284(3) 0.5194(2)
C29 C 0.6069(5) 0.8319(3) 0.4366(2)
C30 C 0.6887(5) 0.8949(3) 0.4010(3)
C31 C 0.8000(8) 0.8550(5) 0.3770(5)
C32 C 0.7430(10) 0.9587(6) 0.4544(5)
C33 C 0.6226(8) 0.9434(9) 0.3580(7)
H1 H 0.7260 0.5363 0.6235
H2 H 0.6634 0.4520 0.5072
H3 H 0.8753 0.5513 0.5234
H4 H 0.7893 0.6526 0.4530
H5 H 0.7466 0.6759 0.5638
H6 H 0.6759 0.4257 0.6841
H7 H 0.6157 0.3207 0.7678
H8 H 0.4682 0.2328 0.8163
H9 H 0.2217 0.3004 0.6798
H10 H 0.3675 0.3911 0.6315
H11 H 1.0525 0.2959 0.5410
H12 H 1.0409 0.2821 0.6162
H13 H 0.9943 0.3677 0.5847
H14 H 0.8270 0.1489 0.5388
H15 H 0.9685 0.1648 0.5309
H16 H 0.8757 0.2064 0.4818
H17 H 0.8547 0.2839 0.6662
H18 H 0.8494 0.1870 0.6457
H19 H 0.7366 0.2472 0.6325
H20 H 1.0855 0.3482 0.4044
H21 H 0.9853 0.3199 0.3539
H22 H 0.9459 0.3510 0.4234
H23 H 1.1078 0.5192 0.3016
H24 H 1.1612 0.4291 0.3206
H25 H 1.1644 0.5048 0.3709
H26 H 0.8388 0.4105 0.3185
H27 H 0.9361 0.4431 0.2679
H28 H 0.8607 0.5092 0.3092
H29 H 0.5655 0.4535 0.3037
H30 H 0.4382 0.4626 0.3388
H31 H 0.5596 0.4584 0.3798
H32 H 0.3887 0.5745 0.4026
H33 H 0.3528 0.6184 0.3367
H34 H 0.4390 0.6662 0.3859
H35 H 0.4929 0.6574 0.2667
H36 H 0.4930 0.5628 0.2407
H37 H 0.6177 0.6096 0.2550
H38 H 0.5668 0.7550 0.5583
H39 H 0.5299 0.7076 0.4939
H40 H 0.8627 0.8609 0.4095
H41 H 0.8264 0.8823 0.3375
H42 H 0.7850 0.7952 0.3689
H43 H 0.6894 1.0067 0.4608
H44 H 0.8229 0.9790 0.4413
H45 H 0.7509 0.9271 0.4943
H46 H 0.6191 0.9155 0.3165
H47 H 0.6624 0.9981 0.3535
H48 H 0.5407 0.9517 0.3743
loop_
_geom_bond_atom_site_label_1
_geom_bond_atom_site_label_2
_geom_bond_site_symmetry_1
_geom_bond_site_symmetry_2
Cl1 C10 1_555 1_555
O1 C1 1_555 1_555
O2 C2 1_555 1_555
O3 C13 1_555 1_555
O4 C3 1_555 1_555
O5 C18 1_555 1_555
O6 C4 1_555 1_555
O7 C23 1_555 1_555
O8 C28 1_555 1_555
O9 C29 1_555 1_555
N1 C1 1_555 1_555
C1 C2 1_555 1_555
C2 C3 1_555 1_555
C3 C4 1_555 1_555
C4 C5 1_555 1_555
C5 O1 1_555 1_555
C6 N1 1_555 1_555
C7 C6 1_555 1_555
C8 C7 1_555 1_555
C9 C8 1_555 1_555
C10 C9 1_555 1_555
C11 C10 1_555 1_555
C12 C7 1_555 1_555
C13 O2 1_555 1_555
C14 C13 1_555 1_555
C15 C14 1_555 1_555
C16 C14 1_555 1_555
C17 C14 1_555 1_555
C18 O4 1_555 1_555
C19 C18 1_555 1_555
C20 C19 1_555 1_555
C21 C19 1_555 1_555
C22 C19 1_555 1_555
C23 O6 1_555 1_555
C24 C23 1_555 1_555
C25 C24 1_555 1_555
C26 C24 1_555 1_555
C27 C24 1_555 1_555
C28 C5 1_555 1_555
C29 O8 1_555 1_555
C30 C29 1_555 1_555
C31 C30 1_555 1_555
C32 C30 1_555 1_555
C33 C30 1_555 1_555
H1 C1 1_555 1_555
H2 C2 1_555 1_555
H3 C3 1_555 1_555
H4 C4 1_555 1_555
H5 C5 1_555 1_555
H6 C6 1_555 1_555
H7 C8 1_555 1_555
H8 C9 1_555 1_555
H9 C11 1_555 1_555
H10 C12 1_555 1_555
H11 C15 1_555 1_555
H12 C15 1_555 1_555
H13 C15 1_555 1_555
H14 C16 1_555 1_555
H15 C16 1_555 1_555
H16 C16 1_555 1_555
H17 C17 1_555 1_555
H18 C17 1_555 1_555
H19 C17 1_555 1_555
H20 C20 1_555 1_555
H21 C20 1_555 1_555
H22 C20 1_555 1_555
H23 C21 1_555 1_555
H24 C21 1_555 1_555
H25 C21 1_555 1_555
H26 C22 1_555 1_555
H27 C22 1_555 1_555
H28 C22 1_555 1_555
H29 C25 1_555 1_555
H30 C25 1_555 1_555
H31 C25 1_555 1_555
H32 C26 1_555 1_555
H33 C26 1_555 1_555
H34 C26 1_555 1_555
H35 C27 1_555 1_555
H36 C27 1_555 1_555
H37 C27 1_555 1_555
H38 C28 1_555 1_555
H39 C28 1_555 1_555
H40 C31 1_555 1_555
H41 C31 1_555 1_555
H42 C31 1_555 1_555
H43 C32 1_555 1_555
H44 C32 1_555 1_555
H45 C32 1_555 1_555
H46 C33 1_555 1_555
H47 C33 1_555 1_555
H48 C33 1_555 1_555
C11 C12 1_555 1_555

#END
