
#######################################################################
#
#                 Cambridge Crystallographic Data Centre
#                                CCDC 
#
#######################################################################
#
# If this CIF has been generated from an entry in the Cambridge 
# Structural Database, then it will include bibliographic, chemical, 
# crystal, experimental, refinement or atomic coordinate data resulting 
# from the CCDC's data processing and validation procedures.
#
#######################################################################

data_OCAPEO
_chemical_formula_moiety         'C11 H11 F1 N2 O1 S1'
_chemical_name_systematic        
3-(4-Fluorobenzyl)-2-thioxo-3,4,5,6-tetrahydropyrimidin-4(1H)-one
_symmetry_cell_setting           triclinic
_symmetry_space_group_name_H-M   'P -1'
_symmetry_Int_Tables_number      2
_space_group_name_Hall           '-P 1'
loop_
_symmetry_equiv_pos_site_id
_symmetry_equiv_pos_as_xyz
1 x,y,z
2 -x,-y,-z
_cell_length_a                   6.392(3)
_cell_length_b                   9.081(4)
_cell_length_c                   11.099(5)
_cell_angle_alpha                113.793(6)
_cell_angle_beta                 95.328(7)
_cell_angle_gamma                99.931(6)
_cell_volume                     571.154
_exptl_crystal_colour            colorless
_exptl_crystal_description       prism
_cell_formula_units_Z            2
_exptl_crystal_recrystallization_method acetone/ethanol
loop_
_atom_site_label
_atom_site_type_symbol
_atom_site_fract_x
_atom_site_fract_y
_atom_site_fract_z
S1 S 0.35303(8) 0.61796(6) 0.68031(5)
F1 F 0.1921(3) 1.45690(18) 1.08069(15)
O1 O -0.18352(19) 0.84740(16) 0.49968(13)
N1 N 0.3494(2) 0.67526(19) 0.46645(15)
H1 H 0.4657 0.6308 0.4631
N2 N 0.0787(2) 0.75791(15) 0.58420(12)
C1 C 0.2570(2) 0.68560(18) 0.57042(16)
C2 C 0.3021(3) 0.7581(2) 0.38177(18)
H2 H 0.3519 0.7079 0.2978
H3 H 0.3761 0.8740 0.4261
C3 C 0.0646(3) 0.7419(2) 0.35613(17)
H4 H -0.0055 0.6284 0.2954
H5 H 0.0336 0.8121 0.3134
C4 C -0.0255(3) 0.78934(19) 0.48298(17)
C5 C -0.0223(3) 0.7907(2) 0.70373(17)
H6 H 0.0220 0.7255 0.7481
H7 H -0.1779 0.7556 0.6760
C6 C 0.0371(3) 0.9712(2) 0.80199(15)
C7 C -0.1168(3) 1.0423(2) 0.87086(18)
H8 H -0.2566 0.9794 0.8536
C8 C -0.0646(4) 1.2056(3) 0.96491(19)
H9 H -0.1678 1.2530 1.0109
C9 C 0.1397(5) 1.2950(3) 0.98853(19)
C10 C 0.2970(4) 1.2313(3) 0.9237(2)
H10 H 0.4359 1.2959 0.9421
C11 C 0.2438(3) 1.0669(2) 0.82924(19)
H11 H 0.3486 1.0210 0.7840
loop_
_geom_bond_atom_site_label_1
_geom_bond_atom_site_label_2
_geom_bond_site_symmetry_1
_geom_bond_site_symmetry_2
S1 C1 1_555 1_555
F1 C9 1_555 1_555
O1 C4 1_555 1_555
N1 H1 1_555 1_555
N2 C1 1_555 1_555
C1 N1 1_555 1_555
C2 N1 1_555 1_555
H2 C2 1_555 1_555
H3 C2 1_555 1_555
C3 C2 1_555 1_555
H4 C3 1_555 1_555
H5 C3 1_555 1_555
C4 N2 1_555 1_555
C5 N2 1_555 1_555
H6 C5 1_555 1_555
H7 C5 1_555 1_555
C6 C5 1_555 1_555
C7 C6 1_555 1_555
H8 C7 1_555 1_555
C8 C7 1_555 1_555
H9 C8 1_555 1_555
C9 C8 1_555 1_555
C10 C9 1_555 1_555
H10 C10 1_555 1_555
C11 C6 1_555 1_555
H11 C11 1_555 1_555
C3 C4 1_555 1_555
C10 C11 1_555 1_555

#END
