
#######################################################################
#
#                 Cambridge Crystallographic Data Centre
#                                CCDC 
#
#######################################################################
#
# If this CIF has been generated from an entry in the Cambridge 
# Structural Database, then it will include bibliographic, chemical, 
# crystal, experimental, refinement or atomic coordinate data resulting 
# from the CCDC's data processing and validation procedures.
#
#######################################################################

data_OCAPIU
_chemical_formula_moiety         'C15 H18 O4'
_chemical_name_systematic        
'ethyl 5,6-dimethoxy-1-methyl-1H-indene-2-carboxylate'
_symmetry_cell_setting           triclinic
_symmetry_space_group_name_H-M   'P -1'
_symmetry_Int_Tables_number      2
_space_group_name_Hall           '-P 1'
loop_
_symmetry_equiv_pos_site_id
_symmetry_equiv_pos_as_xyz
1 x,y,z
2 -x,-y,-z
_cell_length_a                   9.461(2)
_cell_length_b                   12.702(3)
_cell_length_c                   12.831(3)
_cell_angle_alpha                75.416(5)
_cell_angle_beta                 68.897(4)
_cell_angle_gamma                88.520(5)
_cell_volume                     1388.59
_exptl_crystal_colour            'light yellow'
_exptl_crystal_description       prismatic
_cell_formula_units_Z            4
loop_
_atom_site_label
_atom_site_type_symbol
_atom_site_fract_x
_atom_site_fract_y
_atom_site_fract_z
O1 O -0.33640(18) 0.04920(13) 0.86367(15)
O2 O -0.16920(18) -0.11226(12) 0.86856(14)
O3 O 0.2936(2) 0.33035(15) 0.24188(17)
O4 O 0.41105(19) 0.17600(14) 0.26496(15)
C1 C -0.1646(3) 0.15036(18) 0.6735(2)
H1 H -0.2256 0.2089 0.6713
C2 C -0.2081(2) 0.06060(18) 0.7682(2)
C3 C -0.1148(3) -0.02817(17) 0.7710(2)
C4 C 0.0186(2) -0.02579(17) 0.6803(2)
H2 H 0.0798 -0.0842 0.6818
C5 C 0.0613(2) 0.06531(17) 0.5857(2)
C6 C -0.0302(2) 0.15251(17) 0.5825(2)
C7 C 0.0448(3) 0.24047(17) 0.4717(2)
H3 H -0.0192 0.2497 0.4250
C8 C 0.1871(3) 0.18876(18) 0.4137(2)
C9 C 0.1929(3) 0.08993(18) 0.4798(2)
H4 H 0.2706 0.0438 0.4602
C10 C 0.0727(3) 0.34999(19) 0.4916(3)
H5 H -0.0215 0.3726 0.5379
H6 H 0.1143 0.4033 0.4185
H7 H 0.1431 0.3431 0.5309
C11 C -0.4370(3) 0.1334(2) 0.8642(3)
H8 H -0.3884 0.1992 0.8634
H9 H -0.5270 0.1128 0.9325
H10 H -0.4637 0.1455 0.7969
C12 C -0.0797(3) -0.20393(19) 0.8744(2)
H11 H -0.0684 -0.2345 0.8108
H12 H -0.1289 -0.2578 0.9460
H13 H 0.0186 -0.1812 0.8703
C13 C 0.2991(3) 0.2405(2) 0.2995(2)
C14 C 0.5242(3) 0.2148(2) 0.1513(3)
H14 H 0.5751 0.2828 0.1451
H15 H 0.4773 0.2279 0.0938
C15 C 0.6345(3) 0.1311(3) 0.1320(3)
H16 H 0.6862 0.1229 0.1854
H17 H 0.7071 0.1529 0.0543
H18 H 0.5821 0.0629 0.1439
O5 O 0.81631(19) 0.76744(14) 0.14819(15)
O6 O 0.66665(18) 0.62490(13) 0.11400(14)
O7 O 0.2054(2) 0.63394(17) 0.79430(17)
O8 O 0.0856(2) 0.51851(15) 0.74183(15)
C16 C 0.6436(3) 0.74341(18) 0.3474(2)
H19 H 0.6984 0.7955 0.3601
C17 C 0.6917(2) 0.71922(18) 0.2413(2)
C18 C 0.6092(3) 0.63933(17) 0.2225(2)
C19 C 0.4800(2) 0.58523(17) 0.3100(2)
H20 H 0.4253 0.5324 0.2983
C20 C 0.4323(2) 0.61057(16) 0.4161(2)
C21 C 0.5134(2) 0.68942(17) 0.4341(2)
C22 C 0.4348(3) 0.70228(18) 0.5547(2)
H21 H 0.5018 0.6828 0.5987
C23 C 0.3026(2) 0.61797(18) 0.6020(2)
C24 C 0.3043(3) 0.56788(18) 0.5216(2)
H22 H 0.2330 0.5133 0.5323
C25 C 0.3871(3) 0.8187(2) 0.5543(3)
H23 H 0.3215 0.8373 0.5112
H24 H 0.4758 0.8687 0.5191
H25 H 0.3342 0.8229 0.6324
C26 C 0.8918(3) 0.8596(2) 0.1549(3)
H26 H 0.8208 0.9139 0.1721
H27 H 0.9726 0.8894 0.0821
H28 H 0.9329 0.8378 0.2148
C27 C 0.5830(3) 0.5537(2) 0.0852(2)
H29 H 0.5802 0.4807 0.1309
H30 H 0.6307 0.5562 0.0046
H31 H 0.4813 0.5759 0.1005
C28 C 0.1962(3) 0.5934(2) 0.7210(2)
C29 C -0.0213(3) 0.4825(3) 0.8584(3)
H32 H -0.0724 0.5440 0.8835
H33 H 0.0308 0.4496 0.9100
C30 C -0.1323(4) 0.4024(3) 0.8611(3)
H34 H -0.1906 0.4375 0.8162
H35 H -0.1989 0.3717 0.9396
H36 H -0.0799 0.3454 0.8291
loop_
_geom_bond_atom_site_label_1
_geom_bond_atom_site_label_2
_geom_bond_site_symmetry_1
_geom_bond_site_symmetry_2
O1 C2 1_555 1_555
O2 C3 1_555 1_555
O3 C13 1_555 1_555
O4 C13 1_555 1_555
C1 H1 1_555 1_555
C2 C1 1_555 1_555
C3 C2 1_555 1_555
C4 C3 1_555 1_555
H2 C4 1_555 1_555
C5 C4 1_555 1_555
C6 C1 1_555 1_555
C7 C6 1_555 1_555
H3 C7 1_555 1_555
C8 C7 1_555 1_555
C9 C5 1_555 1_555
H4 C9 1_555 1_555
C10 C7 1_555 1_555
H5 C10 1_555 1_555
H6 C10 1_555 1_555
H7 C10 1_555 1_555
C11 O1 1_555 1_555
H8 C11 1_555 1_555
H9 C11 1_555 1_555
H10 C11 1_555 1_555
C12 O2 1_555 1_555
H11 C12 1_555 1_555
H12 C12 1_555 1_555
H13 C12 1_555 1_555
C13 C8 1_555 1_555
C14 O4 1_555 1_555
H14 C14 1_555 1_555
H15 C14 1_555 1_555
C15 C14 1_555 1_555
H16 C15 1_555 1_555
H17 C15 1_555 1_555
H18 C15 1_555 1_555
O5 C17 1_555 1_555
O6 C18 1_555 1_555
O7 C28 1_555 1_555
O8 C28 1_555 1_555
C16 H19 1_555 1_555
C17 C16 1_555 1_555
C18 C17 1_555 1_555
C19 C18 1_555 1_555
H20 C19 1_555 1_555
C20 C19 1_555 1_555
C21 C16 1_555 1_555
C22 C21 1_555 1_555
H21 C22 1_555 1_555
C23 C22 1_555 1_555
C24 C20 1_555 1_555
H22 C24 1_555 1_555
C25 C22 1_555 1_555
H23 C25 1_555 1_555
H24 C25 1_555 1_555
H25 C25 1_555 1_555
C26 O5 1_555 1_555
H26 C26 1_555 1_555
H27 C26 1_555 1_555
H28 C26 1_555 1_555
C27 O6 1_555 1_555
H29 C27 1_555 1_555
H30 C27 1_555 1_555
H31 C27 1_555 1_555
C28 C23 1_555 1_555
C29 O8 1_555 1_555
H32 C29 1_555 1_555
H33 C29 1_555 1_555
C30 C29 1_555 1_555
H34 C30 1_555 1_555
H35 C30 1_555 1_555
H36 C30 1_555 1_555
C5 C6 1_555 1_555
C8 C9 1_555 1_555
C20 C21 1_555 1_555
C23 C24 1_555 1_555

#END
