
#######################################################################
#
#                 Cambridge Crystallographic Data Centre
#                                CCDC 
#
#######################################################################
#
# If this CIF has been generated from an entry in the Cambridge 
# Structural Database, then it will include bibliographic, chemical, 
# crystal, experimental, refinement or atomic coordinate data resulting 
# from the CCDC's data processing and validation procedures.
#
#######################################################################

data_OCASUG
_chemical_formula_moiety         'C26 H32 F1 N1 O2'
_chemical_name_systematic        
10-(4-Fluorophenyl)-9-propyl-3,3,6,6-tetramethyl-3,4,6,7,9,10-hexahydroacridine-1,8(2H,5H)-dione
_chemical_properties_biological  
'antibacterial, mutagenic, antitumour and antiamoebic activity'
_symmetry_cell_setting           monoclinic
_symmetry_space_group_name_H-M   'C 2/c'
_symmetry_Int_Tables_number      15
_space_group_name_Hall           '-C 2yn'
loop_
_symmetry_equiv_pos_site_id
_symmetry_equiv_pos_as_xyz
1 x,y,z
2 1/2+x,1/2+y,z
3 x,-y,1/2+z
4 1/2+x,1/2-y,1/2+z
5 -x,-y,-z
6 1/2-x,1/2-y,-z
7 -x,y,1/2-z
8 1/2-x,1/2+y,1/2-z
_cell_length_a                   27.4540(10)
_cell_length_b                   12.2738(10)
_cell_length_c                   16.2792(10)
_cell_angle_alpha                90
_cell_angle_beta                 123.118(10)
_cell_angle_gamma                90
_cell_volume                     4594.38
_exptl_crystal_colour            'pale yellow'
_exptl_crystal_description       block
_cell_formula_units_Z            8
_exptl_crystal_recrystallization_method chloroform/methanol
loop_
_atom_site_label
_atom_site_type_symbol
_atom_site_fract_x
_atom_site_fract_y
_atom_site_fract_z
F1 F 0.00474(8) 0.66354(13) 0.14003(19)
O1 O 0.23797(7) 0.02710(13) 0.51580(11)
O2 O 0.25392(7) 0.03973(14) 0.23311(11)
C1 C 0.20570(8) 0.10666(16) 0.48565(14)
C2 C 0.19344(9) 0.16913(17) 0.55147(14)
H1 H 0.2241 0.2223 0.5880
H2 H 0.1942 0.1193 0.5984
C3 C 0.13527(9) 0.22761(16) 0.49688(14)
C4 C 0.13309(9) 0.29930(15) 0.41763(14)
H3 H 0.0939 0.3273 0.3750
H4 H 0.1589 0.3610 0.4490
C5 C 0.15461(9) 0.32023(15) 0.13792(14)
H5 H 0.1801 0.3828 0.1673
H6 H 0.1150 0.3470 0.0981
C6 C 0.16966(9) 0.26095(16) 0.07125(14)
C7 C 0.22652(9) 0.20004(19) 0.13549(15)
H7 H 0.2350 0.1587 0.0940
H8 H 0.2576 0.2524 0.1720
C8 C 0.22509(8) 0.12410(16) 0.20596(14)
C9 C 0.19083(8) 0.08003(14) 0.31875(14)
H9 H 0.2299 0.0485 0.3587
N1 N 0.13451(7) 0.28682(11) 0.26690(11)
C10 C 0.16033(7) 0.24963(14) 0.21787(12)
C11 C 0.19015(8) 0.15430(14) 0.24492(12)
C12 C 0.18043(8) 0.14522(14) 0.38568(13)
C13 C 0.15026(7) 0.23991(14) 0.35640(13)
C14 C 0.08592(10) 0.14393(19) 0.45133(18)
H10 H 0.0894 0.0980 0.4070
H11 H 0.0492 0.1811 0.4162
H12 H 0.0882 0.1002 0.5022
C15 C 0.12988(12) 0.3003(2) 0.56749(18)
H13 H 0.0929 0.3366 0.5327
H14 H 0.1605 0.3536 0.5953
H15 H 0.1329 0.2566 0.6190
C16 C 0.12170(10) 0.18051(19) 0.00377(15)
H16 H 0.1319 0.1444 -0.0371
H17 H 0.0858 0.2191 -0.0366
H18 H 0.1173 0.1275 0.0426
C17 C 0.17534(14) 0.3461(2) 0.00786(19)
H19 H 0.2052 0.3974 0.0495
H20 H 0.1390 0.3837 -0.0321
H21 H 0.1853 0.3104 -0.0335
C18 C 0.10109(8) 0.38656(14) 0.23467(13)
C19 C 0.04193(9) 0.38052(17) 0.16834(19)
H22 H 0.0240 0.3132 0.1451
C20 C 0.00942(10) 0.4745(2) 0.1365(3)
H23 H -0.0306 0.4718 0.0917
C21 C 0.03712(11) 0.57131(18) 0.1719(2)
C22 C 0.09522(10) 0.57980(15) 0.23732(17)
H24 H 0.1127 0.6476 0.2600
C23 C 0.12802(8) 0.48571(14) 0.26964(14)
H25 H 0.1680 0.4893 0.3147
C24 C 0.14722(11) -0.01493(16) 0.27060(18)
H26 H 0.1576 -0.0578 0.2323
H27 H 0.1512 -0.0616 0.3221
C25 C 0.08473(11) 0.01783(19) 0.2055(2)
H28 H 0.0797 0.0587 0.1503
H29 H 0.0749 0.0657 0.2418
C26 C 0.04316(16) -0.0778(3) 0.1670(3)
H30 H 0.0040 -0.0516 0.1252
H31 H 0.0468 -0.1171 0.2210
H32 H 0.0522 -0.1251 0.1302
loop_
_geom_bond_atom_site_label_1
_geom_bond_atom_site_label_2
_geom_bond_site_symmetry_1
_geom_bond_site_symmetry_2
F1 C21 1_555 1_555
O1 C1 1_555 1_555
O2 C8 1_555 1_555
C1 C2 1_555 1_555
C2 H1 1_555 1_555
H2 C2 1_555 1_555
C3 C2 1_555 1_555
C4 C3 1_555 1_555
H3 C4 1_555 1_555
H4 C4 1_555 1_555
C5 H5 1_555 1_555
H6 C5 1_555 1_555
C6 C5 1_555 1_555
C7 C6 1_555 1_555
H7 C7 1_555 1_555
H8 C7 1_555 1_555
C8 C7 1_555 1_555
C9 H9 1_555 1_555
N1 C10 1_555 1_555
C10 C5 1_555 1_555
C11 C8 1_555 1_555
C12 C1 1_555 1_555
C13 C4 1_555 1_555
C14 C3 1_555 1_555
H10 C14 1_555 1_555
H11 C14 1_555 1_555
H12 C14 1_555 1_555
C15 C3 1_555 1_555
H13 C15 1_555 1_555
H14 C15 1_555 1_555
H15 C15 1_555 1_555
C16 C6 1_555 1_555
H16 C16 1_555 1_555
H17 C16 1_555 1_555
H18 C16 1_555 1_555
C17 C6 1_555 1_555
H19 C17 1_555 1_555
H20 C17 1_555 1_555
H21 C17 1_555 1_555
C18 N1 1_555 1_555
C19 C18 1_555 1_555
H22 C19 1_555 1_555
C20 C19 1_555 1_555
H23 C20 1_555 1_555
C21 C20 1_555 1_555
C22 C21 1_555 1_555
H24 C22 1_555 1_555
C23 C18 1_555 1_555
H25 C23 1_555 1_555
C24 C9 1_555 1_555
H26 C24 1_555 1_555
H27 C24 1_555 1_555
C25 C24 1_555 1_555
H28 C25 1_555 1_555
H29 C25 1_555 1_555
C26 C25 1_555 1_555
H30 C26 1_555 1_555
H31 C26 1_555 1_555
H32 C26 1_555 1_555
C9 C11 1_555 1_555
C9 C12 1_555 1_555
N1 C13 1_555 1_555
C10 C11 1_555 1_555
C12 C13 1_555 1_555
C22 C23 1_555 1_555

#END
