
#######################################################################
#
#                 Cambridge Crystallographic Data Centre
#                                CCDC 
#
#######################################################################
#
# If this CIF has been generated from an entry in the Cambridge 
# Structural Database, then it will include bibliographic, chemical, 
# crystal, experimental, refinement or atomic coordinate data resulting 
# from the CCDC's data processing and validation procedures.
#
#######################################################################

data_OCASOA
_chemical_formula_moiety         'C24 H28 F1 N1 O2'
_chemical_name_systematic        
10-(4-Fluorophenyl)-3,3,6,6,9-pentamethyl-3,4,6,7,9,10-hexahydroacridine-1,8(2H,5H)-dione
_chemical_properties_biological  
'antibacterial, mutagenic, antitumour and antiamoebic activity'
_symmetry_cell_setting           monoclinic
_symmetry_space_group_name_H-M   'P 21/c'
_symmetry_Int_Tables_number      14
_space_group_name_Hall           '-P 2ybc'
loop_
_symmetry_equiv_pos_site_id
_symmetry_equiv_pos_as_xyz
1 x,y,z
2 x,1/2-y,1/2+z
3 -x,-y,-z
4 -x,1/2+y,1/2-z
_cell_length_a                   17.1481(2)
_cell_length_b                   17.39090(10)
_cell_length_c                   15.8023(3)
_cell_angle_alpha                90
_cell_angle_beta                 112.8490(10)
_cell_angle_gamma                90
_cell_volume                     4342.79
_exptl_crystal_colour            'pale yellow'
_exptl_crystal_description       block
_cell_formula_units_Z            8
_exptl_crystal_recrystallization_method chloroform/methanol
loop_
_atom_site_label
_atom_site_type_symbol
_atom_site_fract_x
_atom_site_fract_y
_atom_site_fract_z
F1 F 0.13594(12) 0.48518(11) 0.62816(10)
O1 O -0.04953(16) 0.19049(14) 0.05127(15)
O2 O 0.21222(15) 0.32224(12) 0.06847(14)
C1 C -0.0312(2) 0.20976(19) 0.1306(2)
C2 C -0.0707(3) 0.1713(2) 0.1906(2)
H1 H -0.1256 0.1512 0.1511
H2 H -0.0356 0.1278 0.2212
C3 C -0.0820(2) 0.2205(2) 0.2609(2)
C4 C -0.00306(19) 0.26358(17) 0.31629(18)
H3 H 0.0338 0.2300 0.3641
H4 H -0.0179 0.3068 0.3459
C5 C 0.25277(15) 0.39325(13) 0.33123(15)
H5 H 0.2864 0.3538 0.3728
H6 H 0.2410 0.4329 0.3678
C6 C 0.30431(15) 0.42835(12) 0.28041(15)
C7 C 0.30978(17) 0.36812(13) 0.21246(17)
H7 H 0.3400 0.3898 0.1774
H8 H 0.3418 0.3243 0.2463
C8 C 0.22443(19) 0.34141(14) 0.14764(18)
C9 C 0.06903(19) 0.31306(17) 0.11792(17)
H9 H 0.0736 0.2776 0.0718
N1 N 0.10945(12) 0.34586(10) 0.30430(12)
C10 C 0.17107(15) 0.35877(12) 0.26816(15)
C11 C 0.15673(16) 0.33728(13) 0.18143(15)
C12 C 0.02875(17) 0.27178(15) 0.17348(17)
C13 C 0.04458(16) 0.29298(14) 0.26059(16)
C14 C -0.1479(3) 0.2855(3) 0.2019(3)
H10 H -0.2001 0.2616 0.1634
H11 H -0.1244 0.3127 0.1644
H12 H -0.1584 0.3210 0.2428
C15 C -0.1222(2) 0.1842(2) 0.3200(2)
H13 H -0.1725 0.1573 0.2819
H14 H -0.1366 0.2233 0.3542
H15 H -0.0832 0.1486 0.3617
C16 C 0.26336(18) 0.50188(13) 0.23096(18)
H16 H 0.2607 0.5388 0.2749
H17 H 0.2072 0.4908 0.1877
H18 H 0.2963 0.5224 0.1991
C17 C 0.39378(16) 0.44616(14) 0.35001(18)
H19 H 0.3909 0.4841 0.3928
H20 H 0.4274 0.4655 0.3183
H21 H 0.4191 0.4001 0.3825
C18 C 0.11745(14) 0.38134(13) 0.39024(14)
C19 C 0.08155(16) 0.45255(13) 0.38764(16)
H22 H 0.0527 0.4768 0.3317
C20 C 0.08855(17) 0.48780(15) 0.46870(19)
H23 H 0.0649 0.5360 0.4682
C21 C 0.13082(18) 0.45028(17) 0.54920(17)
C22 C 0.16696(18) 0.38007(17) 0.55324(17)
H24 H 0.1956 0.3560 0.6094
C23 C 0.16023(16) 0.34540(14) 0.47259(15)
H25 H 0.1847 0.2975 0.4738
C24 C 0.0171(2) 0.3831(2) 0.0690(2)
H26 H -0.0380 0.3667 0.0277
H27 H 0.0452 0.4087 0.0349
H28 H 0.0117 0.4178 0.1135
F2 F 0.27680(11) 0.57834(10) 0.45252(9)
O3 O 0.41827(13) 0.50994(11) 1.11475(11)
O4 O 0.57048(15) 0.74826(11) 1.09019(11)
C25 C 0.38697(17) 0.50616(15) 1.03059(17)
C26 C 0.34041(19) 0.43501(15) 0.98335(17)
H29 H 0.3127 0.4126 1.0206
H30 H 0.3812 0.3979 0.9797
C27 C 0.27400(18) 0.44897(14) 0.88664(17)
C28 C 0.31815(16) 0.49122(14) 0.83246(15)
H31 H 0.3558 0.4557 0.8196
H32 H 0.2758 0.5078 0.7741
C29 C 0.47969(16) 0.71803(12) 0.80993(15)
H33 H 0.4333 0.7281 0.7517
H34 H 0.5211 0.6870 0.7975
C30 C 0.52057(17) 0.79446(12) 0.85185(15)
C31 C 0.58246(18) 0.77902(14) 0.94911(15)
H35 H 0.6288 0.7481 0.9471
H36 H 0.6058 0.8275 0.9783
C32 C 0.54295(18) 0.73831(13) 1.00602(15)
C33 C 0.43613(17) 0.64231(14) 1.01983(15)
H37 H 0.4820 0.6291 1.0783
N2 N 0.38747(12) 0.61528(10) 0.82829(11)
C34 C 0.44670(15) 0.67302(11) 0.87033(14)
C35 C 0.47461(16) 0.68423(12) 0.96164(14)
C36 C 0.39633(15) 0.56911(13) 0.97379(14)
C37 C 0.36831(14) 0.56006(12) 0.88194(14)
C38 C 0.5680(2) 0.82851(15) 0.79618(17)
H38 H 0.5288 0.8382 0.7345
H39 H 0.6104 0.7929 0.7953
H40 H 0.5945 0.8759 0.8238
C39 C 0.4532(2) 0.85122(16) 0.8533(2)
H41 H 0.4135 0.8602 0.7917
H42 H 0.4796 0.8989 0.8801
H43 H 0.4241 0.8303 0.8891
C40 C 0.2403(2) 0.37132(17) 0.84113(19)
H44 H 0.2125 0.3452 0.8752
H45 H 0.2865 0.3405 0.8405
H46 H 0.2007 0.3796 0.7793
C41 C 0.20056(19) 0.49684(19) 0.8898(2)
H47 H 0.1736 0.4697 0.9239
H48 H 0.1603 0.5057 0.8284
H49 H 0.2216 0.5452 0.9190
C42 C 0.35848(14) 0.60444(12) 0.72964(13)
C43 C 0.28648(15) 0.64148(14) 0.67204(15)
H50 H 0.2566 0.6727 0.6968
C44 C 0.25804(16) 0.63282(14) 0.57779(15)
H51 H 0.2095 0.6578 0.5386
C45 C 0.30327(17) 0.58668(14) 0.54457(14)
C46 C 0.37488(17) 0.54952(14) 0.59984(16)
H52 H 0.4046 0.5187 0.5745
C47 C 0.40297(15) 0.55817(13) 0.69396(15)
H53 H 0.4515 0.5329 0.7327
C48 C 0.3734(2) 0.69308(18) 1.0408(2)
H54 H 0.4014 0.7391 1.0712
H55 H 0.3518 0.6657 1.0798
H56 H 0.3275 0.7064 0.9845
loop_
_geom_bond_atom_site_label_1
_geom_bond_atom_site_label_2
_geom_bond_site_symmetry_1
_geom_bond_site_symmetry_2
F1 C21 1_555 1_555
O1 C1 1_555 1_555
O2 C8 1_555 1_555
C1 C2 1_555 1_555
C2 H1 1_555 1_555
H2 C2 1_555 1_555
C3 C2 1_555 1_555
C4 C3 1_555 1_555
H3 C4 1_555 1_555
H4 C4 1_555 1_555
C5 H5 1_555 1_555
H6 C5 1_555 1_555
C6 C5 1_555 1_555
C7 C6 1_555 1_555
H7 C7 1_555 1_555
H8 C7 1_555 1_555
C8 C7 1_555 1_555
C9 H9 1_555 1_555
N1 C10 1_555 1_555
C10 C5 1_555 1_555
C11 C8 1_555 1_555
C12 C1 1_555 1_555
C13 C4 1_555 1_555
C14 C3 1_555 1_555
H10 C14 1_555 1_555
H11 C14 1_555 1_555
H12 C14 1_555 1_555
C15 C3 1_555 1_555
H13 C15 1_555 1_555
H14 C15 1_555 1_555
H15 C15 1_555 1_555
C16 C6 1_555 1_555
H16 C16 1_555 1_555
H17 C16 1_555 1_555
H18 C16 1_555 1_555
C17 C6 1_555 1_555
H19 C17 1_555 1_555
H20 C17 1_555 1_555
H21 C17 1_555 1_555
C18 N1 1_555 1_555
C19 C18 1_555 1_555
H22 C19 1_555 1_555
C20 C19 1_555 1_555
H23 C20 1_555 1_555
C21 C20 1_555 1_555
C22 C21 1_555 1_555
H24 C22 1_555 1_555
C23 C18 1_555 1_555
H25 C23 1_555 1_555
C24 C9 1_555 1_555
H26 C24 1_555 1_555
H27 C24 1_555 1_555
H28 C24 1_555 1_555
F2 C45 1_555 1_555
O3 C25 1_555 1_555
O4 C32 1_555 1_555
C25 C26 1_555 1_555
C26 H29 1_555 1_555
H30 C26 1_555 1_555
C27 C26 1_555 1_555
C28 C27 1_555 1_555
H31 C28 1_555 1_555
H32 C28 1_555 1_555
C29 H33 1_555 1_555
H34 C29 1_555 1_555
C30 C29 1_555 1_555
C31 C30 1_555 1_555
H35 C31 1_555 1_555
H36 C31 1_555 1_555
C32 C31 1_555 1_555
C33 H37 1_555 1_555
N2 C34 1_555 1_555
C34 C29 1_555 1_555
C35 C32 1_555 1_555
C36 C25 1_555 1_555
C37 C28 1_555 1_555
C38 C30 1_555 1_555
H38 C38 1_555 1_555
H39 C38 1_555 1_555
H40 C38 1_555 1_555
C39 C30 1_555 1_555
H41 C39 1_555 1_555
H42 C39 1_555 1_555
H43 C39 1_555 1_555
C40 C27 1_555 1_555
H44 C40 1_555 1_555
H45 C40 1_555 1_555
H46 C40 1_555 1_555
C41 C27 1_555 1_555
H47 C41 1_555 1_555
H48 C41 1_555 1_555
H49 C41 1_555 1_555
C42 N2 1_555 1_555
C43 C42 1_555 1_555
H50 C43 1_555 1_555
C44 C43 1_555 1_555
H51 C44 1_555 1_555
C45 C44 1_555 1_555
C46 C45 1_555 1_555
H52 C46 1_555 1_555
C47 C42 1_555 1_555
H53 C47 1_555 1_555
C48 C33 1_555 1_555
H54 C48 1_555 1_555
H55 C48 1_555 1_555
H56 C48 1_555 1_555
C9 C11 1_555 1_555
C9 C12 1_555 1_555
N1 C13 1_555 1_555
C10 C11 1_555 1_555
C12 C13 1_555 1_555
C22 C23 1_555 1_555
C33 C35 1_555 1_555
C33 C36 1_555 1_555
N2 C37 1_555 1_555
C34 C35 1_555 1_555
C36 C37 1_555 1_555
C46 C47 1_555 1_555

#END
