
#######################################################################
#
#                 Cambridge Crystallographic Data Centre
#                                CCDC 
#
#######################################################################
#
# If this CIF has been generated from an entry in the Cambridge 
# Structural Database, then it will include bibliographic, chemical, 
# crystal, experimental, refinement or atomic coordinate data resulting 
# from the CCDC's data processing and validation procedures.
#
#######################################################################

data_OCATIX
_chemical_name_common            
cis-N$1!,N$2!-bis(2-Hydroxybenzylidene)cyclohexane-1,2-diamine
_chemical_formula_moiety         'C20 H22 N2 O2'
_chemical_name_systematic        
cis-2,2'-(Cyclohexane-1,2-diylbis(nitrilomethylylidene))diphenol
_symmetry_cell_setting           orthorhombic
_symmetry_space_group_name_H-M   'P 21 21 21'
_symmetry_Int_Tables_number      19
_space_group_name_Hall           'P 2ac 2ab'
loop_
_symmetry_equiv_pos_site_id
_symmetry_equiv_pos_as_xyz
1 x,y,z
2 1/2-x,-y,1/2+z
3 -x,1/2+y,1/2-z
4 1/2+x,1/2-y,-z
_cell_length_a                   6.125(3)
_cell_length_b                   13.763(6)
_cell_length_c                   21.537(9)
_cell_angle_alpha                90
_cell_angle_beta                 90
_cell_angle_gamma                90
_cell_volume                     1815.53
_exptl_crystal_colour            yellow
_exptl_crystal_description       block
_cell_formula_units_Z            4
loop_
_atom_site_label
_atom_site_type_symbol
_atom_site_fract_x
_atom_site_fract_y
_atom_site_fract_z
N1 N -0.0052(3) 1.09660(12) 0.07839(9)
N2 N -0.0383(3) 0.92191(11) 0.14663(8)
C1 C -0.0964(4) 1.13716(14) 0.03205(11)
H1 H -0.2311 1.1672 0.0374
O1 O 0.3379(3) 0.84294(11) 0.17057(9)
H2 H 0.2397 0.8833 0.1722
C2 C 0.0042(3) 1.13768(13) -0.02904(10)
C3 C -0.0724(4) 0.85231(15) 0.10808(9)
H3 H -0.2020 0.8521 0.0856
C4 C -0.1099(4) 1.09759(15) 0.13967(10)
H4 H -0.2294 1.1449 0.1388
C5 C 0.2131(4) 1.09706(15) -0.03864(11)
O2 O 0.3257(3) 1.05667(15) 0.00898(8)
H5 H 0.2520 1.0593 0.0407
C6 C -0.2060(3) 0.99701(14) 0.15462(9)
H6 H -0.3264 0.9838 0.1258
C7 C -0.1018(4) 1.17840(16) -0.07974(12)
H7 H -0.2379 1.2071 -0.0742
C8 C 0.0343(4) 0.69815(16) 0.05699(9)
H8 H -0.0973 0.6984 0.0355
C9 C 0.2831(4) 0.77194(15) 0.12906(11)
C10 C 0.0818(4) 0.77415(14) 0.09806(9)
C11 C 0.3026(4) 1.09673(16) -0.09734(12)
H9 H 0.4397 1.0695 -0.1038
C12 C -0.0095(5) 1.17723(17) -0.13826(12)
H10 H -0.0835 1.2042 -0.1718
C13 C 0.3740(6) 0.62313(19) 0.07855(15)
H11 H 0.4721 0.5726 0.0719
C14 C 0.4287(4) 0.69612(18) 0.11904(13)
H12 H 0.5621 0.6949 0.1396
C15 C 0.1903(5) 1.13633(16) -0.14639(13)
H13 H 0.2521 1.1351 -0.1858
C16 C -0.2941(4) 0.99545(17) 0.22072(10)
H14 H -0.4196 1.0382 0.2234
H15 H -0.3427 0.9302 0.2306
C17 C 0.1800(6) 0.62283(17) 0.04797(13)
H16 H 0.1454 0.5722 0.0211
C18 C 0.0551(5) 1.13028(19) 0.18700(12)
H17 H 0.1016 1.1960 0.1774
H18 H 0.1822 1.0884 0.1850
C19 C -0.1265(5) 1.0268(2) 0.26770(11)
H19 H -0.0067 0.9807 0.2680
H20 H -0.1918 1.0272 0.3087
C20 C -0.0396(6) 1.1276(2) 0.25261(13)
H21 H 0.0729 1.1451 0.2823
H22 H -0.1568 1.1747 0.2560
loop_
_geom_bond_atom_site_label_1
_geom_bond_atom_site_label_2
_geom_bond_site_symmetry_1
_geom_bond_site_symmetry_2
N1 C1 1_555 1_555
N2 C3 1_555 1_555
C1 H1 1_555 1_555
O1 H2 1_555 1_555
C2 C1 1_555 1_555
C3 H3 1_555 1_555
C4 N1 1_555 1_555
H4 C4 1_555 1_555
C5 C2 1_555 1_555
O2 C5 1_555 1_555
H5 O2 1_555 1_555
C6 N2 1_555 1_555
H6 C6 1_555 1_555
C7 C2 1_555 1_555
H7 C7 1_555 1_555
C8 H8 1_555 1_555
C9 O1 1_555 1_555
C10 C3 1_555 1_555
C11 C5 1_555 1_555
H9 C11 1_555 1_555
C12 C7 1_555 1_555
H10 C12 1_555 1_555
C13 H11 1_555 1_555
C14 C9 1_555 1_555
H12 C14 1_555 1_555
C15 C11 1_555 1_555
H13 C15 1_555 1_555
C16 C6 1_555 1_555
H14 C16 1_555 1_555
H15 C16 1_555 1_555
C17 C8 1_555 1_555
H16 C17 1_555 1_555
C18 C4 1_555 1_555
H17 C18 1_555 1_555
H18 C18 1_555 1_555
C19 C16 1_555 1_555
H19 C19 1_555 1_555
H20 C19 1_555 1_555
C20 C18 1_555 1_555
H21 C20 1_555 1_555
H22 C20 1_555 1_555
C4 C6 1_555 1_555
C8 C10 1_555 1_555
C9 C10 1_555 1_555
C12 C15 1_555 1_555
C13 C14 1_555 1_555
C13 C17 1_555 1_555
C19 C20 1_555 1_555

#END
