
#######################################################################
#
#                 Cambridge Crystallographic Data Centre
#                                CCDC 
#
#######################################################################
#
# If this CIF has been generated from an entry in the Cambridge 
# Structural Database, then it will include bibliographic, chemical, 
# crystal, experimental, refinement or atomic coordinate data resulting 
# from the CCDC's data processing and validation procedures.
#
#######################################################################

data_OCAVIA
_chemical_formula_moiety         'C25 H28 N2 O2 S2'
_chemical_name_systematic        
4-t-butyl-2-(5-(5-t-butyl-2-methoxyphenyl)[1,3]thiazolo[5,4-d][1,3]thiazol-2-yl)phenol
_symmetry_cell_setting           triclinic
_symmetry_space_group_name_H-M   'P -1'
_symmetry_Int_Tables_number      2
_space_group_name_Hall           '-P 1'
loop_
_symmetry_equiv_pos_site_id
_symmetry_equiv_pos_as_xyz
1 x,y,z
2 -x,-y,-z
_cell_length_a                   9.8522(2)
_cell_length_b                   10.8009(2)
_cell_length_c                   11.8811(3)
_cell_angle_alpha                116.9413(8)
_cell_angle_beta                 95.0276(8)
_cell_angle_gamma                91.8151(8)
_cell_volume                     1119.12
_exptl_crystal_colour            yellow
_exptl_crystal_description       needle
_cell_formula_units_Z            2
loop_
_atom_site_label
_atom_site_type_symbol
_atom_site_fract_x
_atom_site_fract_y
_atom_site_fract_z
S1 S 0.86145(5) 0.37342(5) 0.13539(5)
S2 S 0.60173(4) 0.24624(5) 0.32219(4)
O1 O 1.06377(15) 0.04758(17) 0.23385(15)
H1 H 0.9855 0.0762 0.2459
O2 O 0.37142(14) 0.27767(15) 0.42273(14)
N1 N 0.85788(16) 0.19397(17) 0.22532(15)
N2 N 0.60713(16) 0.43057(17) 0.23700(15)
C1 C 0.72294(18) 0.3616(2) 0.21088(17)
C2 C 0.74044(18) 0.26127(19) 0.24983(17)
C3 C 0.93169(18) 0.24137(19) 0.16406(17)
C4 C 1.06209(18) 0.18793(19) 0.12157(17)
C5 C 1.12128(19) 0.0932(2) 0.15835(18)
C6 C 1.2455(2) 0.0443(2) 0.1171(2)
H2 H 1.2868 -0.0191 0.1421
C7 C 1.3095(2) 0.0868(2) 0.0402(2)
H3 H 1.3945 0.0518 0.0136
C8 C 1.25383(19) 0.1791(2) 0.00029(17)
C9 C 1.12960(19) 0.2281(2) 0.04284(18)
H4 H 1.0889 0.2914 0.0174
C10 C 1.3204(2) 0.2209(2) -0.09138(19)
C11 C 1.2414(3) 0.1415(3) -0.2225(2)
H5 H 1.2482 0.0413 -0.2530
H6 H 1.2798 0.1703 -0.2811
H7 H 1.1452 0.1617 -0.2179
C12 C 1.3204(3) 0.3768(3) -0.0456(3)
H8 H 1.3687 0.4024 -0.1016
H9 H 1.3667 0.4262 0.0413
H10 H 1.2260 0.4025 -0.0468
C13 C 1.4692(2) 0.1830(3) -0.1007(3)
H11 H 1.4714 0.0815 -0.1378
H12 H 1.5201 0.2265 -0.0155
H13 H 1.5111 0.2166 -0.1546
C14 C 0.53274(18) 0.38092(19) 0.29657(17)
C15 C 0.40143(18) 0.4355(2) 0.33929(17)
C16 C 0.32108(19) 0.3817(2) 0.40142(18)
C17 C 0.1973(2) 0.4363(2) 0.4380(2)
H14 H 0.1412 0.3985 0.4777
C18 C 0.1558(2) 0.5458(2) 0.4166(2)
H15 H 0.0708 0.5817 0.4422
C19 C 0.23441(19) 0.6052(2) 0.35885(18)
C20 C 0.35632(19) 0.5456(2) 0.31927(17)
H16 H 0.4107 0.5816 0.2769
C21 C 0.1934(2) 0.7314(2) 0.34085(19)
C22 C 0.0683(3) 0.7937(3) 0.4086(3)
H17 H 0.0857 0.8153 0.4983
H18 H -0.0117 0.7264 0.3686
H19 H 0.0509 0.8793 0.4022
C23 C 0.1594(2) 0.6880(2) 0.1988(2)
H20 H 0.1312 0.7685 0.1880
H21 H 0.0849 0.6139 0.1627
H22 H 0.2404 0.6540 0.1551
C24 C 0.3113(3) 0.8456(2) 0.3943(2)
H23 H 0.3316 0.8776 0.4859
H24 H 0.2853 0.9239 0.3790
H25 H 0.3926 0.8082 0.3523
C25 C 0.3046(2) 0.2340(2) 0.5015(2)
H26 H 0.2961 0.3150 0.5830
H27 H 0.3583 0.1669 0.5164
H28 H 0.2135 0.1900 0.4596
loop_
_geom_bond_atom_site_label_1
_geom_bond_atom_site_label_2
_geom_bond_site_symmetry_1
_geom_bond_site_symmetry_2
S1 C1 1_555 1_555
S2 C2 1_555 1_555
O1 H1 1_555 1_555
O2 C16 1_555 1_555
N1 C2 1_555 1_555
N2 C1 1_555 1_555
C1 C2 1_555 1_555
C3 S1 1_555 1_555
C4 C3 1_555 1_555
C5 O1 1_555 1_555
C6 C5 1_555 1_555
H2 C6 1_555 1_555
C7 C6 1_555 1_555
H3 C7 1_555 1_555
C8 C7 1_555 1_555
C9 C4 1_555 1_555
H4 C9 1_555 1_555
C10 C8 1_555 1_555
C11 C10 1_555 1_555
H5 C11 1_555 1_555
H6 C11 1_555 1_555
H7 C11 1_555 1_555
C12 C10 1_555 1_555
H8 C12 1_555 1_555
H9 C12 1_555 1_555
H10 C12 1_555 1_555
C13 C10 1_555 1_555
H11 C13 1_555 1_555
H12 C13 1_555 1_555
H13 C13 1_555 1_555
C14 S2 1_555 1_555
C15 C14 1_555 1_555
C16 C15 1_555 1_555
C17 C16 1_555 1_555
H14 C17 1_555 1_555
C18 C17 1_555 1_555
H15 C18 1_555 1_555
C19 C18 1_555 1_555
C20 C15 1_555 1_555
H16 C20 1_555 1_555
C21 C19 1_555 1_555
C22 C21 1_555 1_555
H17 C22 1_555 1_555
H18 C22 1_555 1_555
H19 C22 1_555 1_555
C23 C21 1_555 1_555
H20 C23 1_555 1_555
H21 C23 1_555 1_555
H22 C23 1_555 1_555
C24 C21 1_555 1_555
H23 C24 1_555 1_555
H24 C24 1_555 1_555
H25 C24 1_555 1_555
C25 O2 1_555 1_555
H26 C25 1_555 1_555
H27 C25 1_555 1_555
H28 C25 1_555 1_555
N1 C3 1_555 1_555
N2 C14 1_555 1_555
C4 C5 1_555 1_555
C8 C9 1_555 1_555
C19 C20 1_555 1_555

#END
