
#######################################################################
#
#                 Cambridge Crystallographic Data Centre
#                                CCDC 
#
#######################################################################
#
# If this CIF has been generated from an entry in the Cambridge 
# Structural Database, then it will include bibliographic, chemical, 
# crystal, experimental, refinement or atomic coordinate data resulting 
# from the CCDC's data processing and validation procedures.
#
#######################################################################

data_OCAVEW
_chemical_formula_moiety         'C26 H30 N2 O2 S2'
_chemical_name_systematic        
2,5-bis(5-t-butyl-2-methoxyphenyl)[1,3]thiazolo[5,4-d][1,3]thiazole
_symmetry_cell_setting           monoclinic
_symmetry_space_group_name_H-M   'P 21/n'
_symmetry_Int_Tables_number      14
_space_group_name_Hall           '-P 2yn'
loop_
_symmetry_equiv_pos_site_id
_symmetry_equiv_pos_as_xyz
1 x,y,z
2 1/2-x,1/2+y,1/2-z
3 -x,-y,-z
4 1/2+x,1/2-y,1/2+z
_cell_length_a                   10.3481(4)
_cell_length_b                   11.3487(4)
_cell_length_c                   10.7207(3)
_cell_angle_alpha                90
_cell_angle_beta                 111.1987(12)
_cell_angle_gamma                90
_cell_volume                     1173.82
_exptl_crystal_colour            yellow
_exptl_crystal_description       block
_cell_formula_units_Z            2
loop_
_atom_site_label
_atom_site_type_symbol
_atom_site_fract_x
_atom_site_fract_y
_atom_site_fract_z
S1 S 0.55355(4) 0.17154(3) -0.01928(3)
O1 O 0.62398(11) 0.37924(9) 0.09982(10)
N1 N 0.50916(13) 0.04296(10) 0.16336(11)
C1 C 0.50943(15) 0.02561(12) -0.05423(13)
C2 C 0.54404(14) 0.15019(12) 0.14025(13)
C3 C 0.57848(14) 0.24256(12) 0.24325(13)
C4 C 0.57188(15) 0.21503(13) 0.36814(13)
H1 H 0.5408 0.1388 0.3811
C5 C 0.60899(15) 0.29477(13) 0.47439(14)
C6 C 0.65374(16) 0.40574(13) 0.45128(14)
H2 H 0.6810 0.4618 0.5219
C7 C 0.65964(16) 0.43689(13) 0.32806(14)
H3 H 0.6894 0.5136 0.3152
C8 C 0.62221(15) 0.35618(13) 0.22398(13)
C9 C 0.59871(16) 0.25879(13) 0.60840(13)
C10 C 0.68267(19) 0.14596(15) 0.66106(16)
H4 H 0.6452 0.0818 0.5969
H5 H 0.6765 0.1245 0.7473
H6 H 0.7799 0.1596 0.6726
C11 C 0.44590(18) 0.23652(17) 0.58705(16)
H7 H 0.3922 0.3083 0.5528
H8 H 0.4379 0.2146 0.6724
H9 H 0.4101 0.1725 0.5224
C12 C 0.65506(18) 0.35540(15) 0.71452(15)
H10 H 0.7520 0.3717 0.7272
H11 H 0.6491 0.3289 0.7993
H12 H 0.6000 0.4273 0.6848
C13 C 0.67674(18) 0.49060(14) 0.07702(15)
H13 H 0.6221 0.5543 0.0952
H14 H 0.6704 0.4953 -0.0163
H15 H 0.7738 0.4984 0.1365
S1B S 0.44645(4) -0.17154(3) 0.01928(3)
O1B O 0.37602(11) -0.37924(9) -0.09982(10)
N1B N 0.49084(13) -0.04296(10) -0.16336(11)
C1B C 0.49057(15) -0.02561(12) 0.05423(13)
C2B C 0.45596(14) -0.15019(12) -0.14025(13)
C3B C 0.42152(14) -0.24256(12) -0.24325(13)
C4B C 0.42812(15) -0.21503(13) -0.36814(13)
H1B H 0.4592 -0.1388 -0.3811
C5B C 0.39101(15) -0.29477(13) -0.47439(14)
C6B C 0.34626(16) -0.40574(13) -0.45128(14)
H2B H 0.3190 -0.4618 -0.5219
C7B C 0.34036(16) -0.43689(13) -0.32806(14)
H3B H 0.3106 -0.5136 -0.3152
C8B C 0.37779(15) -0.35618(13) -0.22398(13)
C9B C 0.40129(16) -0.25879(13) -0.60840(13)
C10B C 0.31733(19) -0.14596(15) -0.66106(16)
H4B H 0.3548 -0.0818 -0.5969
H5B H 0.3235 -0.1245 -0.7473
H6B H 0.2201 -0.1596 -0.6726
C11B C 0.55410(18) -0.23652(17) -0.58705(16)
H7B H 0.6078 -0.3083 -0.5528
H8B H 0.5621 -0.2146 -0.6724
H9B H 0.5899 -0.1725 -0.5224
C12B C 0.34494(18) -0.35540(15) -0.71452(15)
H10B H 0.2480 -0.3717 -0.7272
H11B H 0.3509 -0.3289 -0.7993
H12B H 0.4000 -0.4273 -0.6848
C13B C 0.32326(18) -0.49060(14) -0.07702(15)
H13B H 0.3779 -0.5543 -0.0952
H14B H 0.3296 -0.4953 0.0163
H15B H 0.2262 -0.4984 -0.1365
loop_
_geom_bond_atom_site_label_1
_geom_bond_atom_site_label_2
_geom_bond_site_symmetry_1
_geom_bond_site_symmetry_2
S1 C1 1_555 1_555
O1 C8 1_555 1_555
N1 C2 1_555 1_555
C1 N1B 1_555 1_555
C2 S1 1_555 1_555
C3 C2 1_555 1_555
C4 C3 1_555 1_555
H1 C4 1_555 1_555
C5 C4 1_555 1_555
C6 C5 1_555 1_555
H2 C6 1_555 1_555
C7 C6 1_555 1_555
H3 C7 1_555 1_555
C8 C3 1_555 1_555
C9 C5 1_555 1_555
C10 C9 1_555 1_555
H4 C10 1_555 1_555
H5 C10 1_555 1_555
H6 C10 1_555 1_555
C11 C9 1_555 1_555
H7 C11 1_555 1_555
H8 C11 1_555 1_555
H9 C11 1_555 1_555
C12 C9 1_555 1_555
H10 C12 1_555 1_555
H11 C12 1_555 1_555
H12 C12 1_555 1_555
C13 O1 1_555 1_555
H13 C13 1_555 1_555
H14 C13 1_555 1_555
H15 C13 1_555 1_555
S1B C1B 1_555 1_555
O1B C8B 1_555 1_555
N1B C2B 1_555 1_555
C1B N1 1_555 1_555
C2B S1B 1_555 1_555
C3B C2B 1_555 1_555
C4B C3B 1_555 1_555
H1B C4B 1_555 1_555
C5B C4B 1_555 1_555
C6B C5B 1_555 1_555
H2B C6B 1_555 1_555
C7B C6B 1_555 1_555
H3B C7B 1_555 1_555
C8B C3B 1_555 1_555
C9B C5B 1_555 1_555
C10B C9B 1_555 1_555
H4B C10B 1_555 1_555
H5B C10B 1_555 1_555
H6B C10B 1_555 1_555
C11B C9B 1_555 1_555
H7B C11B 1_555 1_555
H8B C11B 1_555 1_555
H9B C11B 1_555 1_555
C12B C9B 1_555 1_555
H10B C12B 1_555 1_555
H11B C12B 1_555 1_555
H12B C12B 1_555 1_555
C13B O1B 1_555 1_555
H13B C13B 1_555 1_555
H14B C13B 1_555 1_555
H15B C13B 1_555 1_555
C1 C1B 1_555 1_555
C7 C8 1_555 1_555
C7B C8B 1_555 1_555

#END
