
#######################################################################
#
#                 Cambridge Crystallographic Data Centre
#                                CCDC 
#
#######################################################################
#
# If this CIF has been generated from an entry in the Cambridge 
# Structural Database, then it will include bibliographic, chemical, 
# crystal, experimental, refinement or atomic coordinate data resulting 
# from the CCDC's data processing and validation procedures.
#
#######################################################################

data_OCAWIA
_chemical_name_common            
5,8-Dibromo-15-cyano-2,11-dithia[3.3]paracyclophane
_chemical_formula_moiety         'C17 H13 Br2 N1 S2'
_chemical_name_systematic        
13,15-Dibromo-3,10-dithiatricyclo[10.2.2.2^5,8^]octadeca-1(14),5,7,12,15,17-hexaene-6-carbonitrile
_symmetry_cell_setting           triclinic
_symmetry_space_group_name_H-M   'P -1'
_symmetry_Int_Tables_number      2
_space_group_name_Hall           '-P 1'
loop_
_symmetry_equiv_pos_site_id
_symmetry_equiv_pos_as_xyz
1 x,y,z
2 -x,-y,-z
_cell_length_a                   6.9433(11)
_cell_length_b                   9.0591(14)
_cell_length_c                   13.888(2)
_cell_angle_alpha                79.825(2)
_cell_angle_beta                 85.047(3)
_cell_angle_gamma                76.275(2)
_cell_volume                     834.364
_exptl_crystal_colour            colorless
_exptl_crystal_description       block
_cell_formula_units_Z            2
_exptl_crystal_recrystallization_method toluene
loop_
_atom_site_label
_atom_site_type_symbol
_atom_site_fract_x
_atom_site_fract_y
_atom_site_fract_z
Br1 Br 0.19006(10) 0.46219(7) 0.63111(4)
Br2 Br 0.19842(8) -0.21517(6) 0.88825(4)
C1 C 0.1424(6) 0.2546(5) 0.8092(3)
C2 C 0.1398(7) 0.1089(6) 0.8587(3)
H1 H 0.0889 0.0972 0.9230
C3 C 0.2114(7) -0.0199(5) 0.8146(3)
C4 C 0.2923(7) -0.0096(6) 0.7187(3)
C5 C 0.2780(7) 0.1387(6) 0.6673(4)
H2 H 0.3207 0.1511 0.6016
C6 C 0.2027(7) 0.2682(6) 0.7104(3)
C7 C 0.0888(8) 0.3899(6) 0.8638(4)
H3 H -0.0409 0.3925 0.8965
H4 H 0.0795 0.4841 0.8170
C8 C 0.4903(8) 0.4041(6) 0.8808(4)
H5 H 0.4578 0.4927 0.8296
H6 H 0.5828 0.4251 0.9223
C9 C 0.5938(6) 0.2654(5) 0.8335(3)
C10 C 0.6660(7) 0.2871(6) 0.7371(3)
H7 H 0.6646 0.3858 0.7037
C11 C 0.7408(7) 0.1592(6) 0.6908(3)
C12 C 0.7430(7) 0.0109(6) 0.7372(3)
C13 C 0.6858(7) -0.0087(6) 0.8371(3)
H8 H 0.6966 -0.1074 0.8724
C14 C 0.6140(7) 0.1168(6) 0.8829(3)
H9 H 0.5777 0.1013 0.9493
C15 C 0.8063(8) 0.1878(7) 0.5885(4)
C16 C 0.7960(8) -0.1264(6) 0.6838(4)
C17 C 0.3949(8) -0.1478(7) 0.6717(4)
N1 N 0.8583(9) 0.2087(7) 0.5092(4)
S1 S 0.26512(19) 0.38462(15) 0.95384(9)
S2 S 0.6293(3) -0.2551(2) 0.71362(17)
H14 H 0.9294 -0.1836 0.6994
H15 H 0.7961 -0.0895 0.6138
H16 H 0.4111 -0.1128 0.6019
H17 H 0.3062 -0.2178 0.6798
H10? H 0.8168 -0.2192 0.7323
H11? H 0.9207 -0.1252 0.6467
H12? H 0.3017 -0.1686 0.6305
H13? H 0.4250 -0.2359 0.7234
S3? S 0.6129(6) -0.1365(5) 0.6023(2)
loop_
_geom_bond_atom_site_label_1
_geom_bond_atom_site_label_2
_geom_bond_site_symmetry_1
_geom_bond_site_symmetry_2
Br1 C6 1_555 1_555
Br2 C3 1_555 1_555
C1 C2 1_555 1_555
C2 H1 1_555 1_555
C3 C2 1_555 1_555
C4 C3 1_555 1_555
C5 C4 1_555 1_555
H2 C5 1_555 1_555
C6 C1 1_555 1_555
C7 C1 1_555 1_555
H3 C7 1_555 1_555
H4 C7 1_555 1_555
C8 H5 1_555 1_555
H6 C8 1_555 1_555
C9 C8 1_555 1_555
C10 C9 1_555 1_555
H7 C10 1_555 1_555
C11 C10 1_555 1_555
C12 C11 1_555 1_555
C13 C12 1_555 1_555
H8 C13 1_555 1_555
C14 C9 1_555 1_555
H9 C14 1_555 1_555
C15 C11 1_555 1_555
C16 C12 1_555 1_555
C17 C4 1_555 1_555
N1 C15 1_555 1_555
S1 C7 1_555 1_555
S2 C16 1_555 1_555
H14 C16 1_555 1_555
H15 C16 1_555 1_555
H16 C17 1_555 1_555
H17 C17 1_555 1_555
C5 C6 1_555 1_555
C8 S1 1_555 1_555
C13 C14 1_555 1_555
C17 S2 1_555 1_555

#END
