
#######################################################################
#
#                 Cambridge Crystallographic Data Centre
#                                CCDC 
#
#######################################################################
#
# If this CIF has been generated from an entry in the Cambridge 
# Structural Database, then it will include bibliographic, chemical, 
# crystal, experimental, refinement or atomic coordinate data resulting 
# from the CCDC's data processing and validation procedures.
#
#######################################################################

data_OCAXEY
_chemical_formula_moiety         'C5 H9 B1 N2'
_chemical_name_systematic        (1-ethenyl-1H-imidazole)-trihydrido-boron
_symmetry_cell_setting           monoclinic
_symmetry_space_group_name_H-M   'P 21/n'
_symmetry_Int_Tables_number      14
_space_group_name_Hall           '-P 2yn'
loop_
_symmetry_equiv_pos_site_id
_symmetry_equiv_pos_as_xyz
1 x,y,z
2 1/2-x,1/2+y,1/2-z
3 -x,-y,-z
4 1/2+x,1/2-y,1/2+z
_cell_length_a                   8.4088(2)
_cell_length_b                   6.6598(2)
_cell_length_c                   12.0233(3)
_cell_angle_alpha                90
_cell_angle_beta                 95.612(2)
_cell_angle_gamma                90
_cell_volume                     670.089
_exptl_crystal_colour            'whiteish colorless'
_exptl_crystal_description       block
_cell_formula_units_Z            4
loop_
_atom_site_label
_atom_site_type_symbol
_atom_site_fract_x
_atom_site_fract_y
_atom_site_fract_z
N1 N 0.15486(13) 0.18169(18) 0.43035(9)
N2 N 0.28474(13) -0.05832(18) 0.52220(9)
C1 C 0.22239(16) 0.0064(2) 0.42196(11)
H1 H 0.2265 -0.0638 0.3554
C2 C 0.2537(2) 0.0855(3) 0.59816(12)
H2 H 0.2828 0.0822 0.6748
C3 C 0.3682(2) -0.2415(3) 0.54245(16)
H3 H 0.3638 -0.3350 0.4848
C4 C 0.4503(2) -0.2877(3) 0.63575(18)
B1 B 0.0742(2) 0.3151(3) 0.33199(16)
C5 C 0.1734(2) 0.2319(3) 0.54113(13)
H4 H 0.1361 0.3490 0.5718
H5 H 0.092(2) 0.235(3) 0.2552(15)
H6 H -0.051(2) 0.340(3) 0.3438(16)
H7 H 0.139(3) 0.471(3) 0.3362(18)
H8 H 0.500(3) -0.420(3) 0.6481(18)
H9 H 0.453(3) -0.194(4) 0.702(2)
loop_
_geom_bond_atom_site_label_1
_geom_bond_atom_site_label_2
_geom_bond_site_symmetry_1
_geom_bond_site_symmetry_2
N1 C1 1_555 1_555
N2 C1 1_555 1_555
C1 H1 1_555 1_555
C2 N2 1_555 1_555
H2 C2 1_555 1_555
C3 N2 1_555 1_555
H3 C3 1_555 1_555
C4 C3 1_555 1_555
B1 N1 1_555 1_555
C5 N1 1_555 1_555
H4 C5 1_555 1_555
H5 B1 1_555 1_555
H6 B1 1_555 1_555
H7 B1 1_555 1_555
H8 C4 1_555 1_555
H9 C4 1_555 1_555
C2 C5 1_555 1_555

#END
