
#######################################################################
#
#                 Cambridge Crystallographic Data Centre
#                                CCDC 
#
#######################################################################
#
# If this CIF has been generated from an entry in the Cambridge 
# Structural Database, then it will include bibliographic, chemical, 
# crystal, experimental, refinement or atomic coordinate data resulting 
# from the CCDC's data processing and validation procedures.
#
#######################################################################

data_OCAXUL
_chemical_formula_moiety         'C29 H25 Cl1 N2 O4 S2'
_chemical_name_systematic        
2-(4-Chlorobenzylidene)-1,4-bis(p-tosyl)-1,2,3,4-tetrahydroquinoxaline
_symmetry_cell_setting           monoclinic
_symmetry_space_group_name_H-M   'P 21/c'
_symmetry_Int_Tables_number      14
_space_group_name_Hall           '-P 2ybc'
loop_
_symmetry_equiv_pos_site_id
_symmetry_equiv_pos_as_xyz
1 x,y,z
2 x,1/2-y,1/2+z
3 -x,-y,-z
4 -x,1/2+y,1/2-z
_cell_length_a                   10.5361(10)
_cell_length_b                   24.040(3)
_cell_length_c                   10.6146(10)
_cell_angle_alpha                90
_cell_angle_beta                 93.863(10)
_cell_angle_gamma                90
_cell_volume                     2682.44
_exptl_crystal_colour            colorless
_exptl_crystal_description       needle
_chemical_melting_point          '418 K'
_cell_formula_units_Z            4
_exptl_crystal_recrystallization_method 'chloroform/light petroleum'
loop_
_atom_site_label
_atom_site_type_symbol
_atom_site_fract_x
_atom_site_fract_y
_atom_site_fract_z
S1 S 0.79678(8) 0.80715(4) 0.70774(8)
S2 S 1.25270(9) 0.88794(4) 0.49271(9)
Cl1 Cl 1.29786(10) 1.03411(5) 1.06057(10)
N1 N 0.9534(2) 0.81839(10) 0.6901(2)
N2 N 1.1048(2) 0.86253(11) 0.4948(2)
O1 O 0.7743(2) 0.74912(10) 0.6882(2)
O2 O 0.7714(2) 0.83227(12) 0.8241(2)
O3 O 1.3113(2) 0.85966(12) 0.3922(2)
O4 O 1.2390(2) 0.94674(10) 0.4888(2)
C1 C 1.0208(3) 0.78266(14) 0.6095(3)
C2 C 1.0228(3) 0.72568(15) 0.6330(3)
H1 H 0.9791 0.7115 0.6992
C3 C 1.0887(4) 0.68992(16) 0.5595(4)
H2 H 1.0923 0.6521 0.5783
C4 C 1.1493(4) 0.71043(17) 0.4582(4)
H3 H 1.1891 0.6861 0.4053
C5 C 1.1511(3) 0.76653(17) 0.4350(3)
H4 H 1.1927 0.7799 0.3666
C6 C 1.0913(3) 0.80387(14) 0.5125(3)
C7 C 1.0123(3) 0.89753(13) 0.5596(3)
H5 H 0.9321 0.8983 0.5092
H6 H 1.0442 0.9353 0.5662
C8 C 0.9901(3) 0.87636(13) 0.6887(3)
C9 C 1.0014(3) 0.90398(13) 0.7972(3)
H7 H 0.9824 0.8839 0.8684
C10 C 1.0403(3) 0.96234(13) 0.8197(3)
C11 C 0.9944(3) 1.00757(14) 0.7489(3)
H8 H 0.9330 1.0022 0.6829
C12 C 1.0395(4) 1.06075(15) 0.7761(3)
H9 H 1.0065 1.0908 0.7293
C13 C 1.1327(4) 1.06966(16) 0.8715(3)
H10 H 1.1643 1.1052 0.8882
C14 C 1.1778(3) 1.02504(15) 0.9414(3)
C15 C 1.1309(3) 0.97212(14) 0.9175(3)
H11 H 1.1607 0.9427 0.9680
C16 C 0.7182(3) 0.84430(14) 0.5840(3)
C17 C 0.7080(3) 0.82139(14) 0.4634(3)
H12 H 0.7385 0.7858 0.4491
C18 C 0.6519(3) 0.85249(15) 0.3650(3)
H13 H 0.6446 0.8373 0.2842
C19 C 0.6063(3) 0.90553(15) 0.3838(3)
C20 C 0.6196(3) 0.92772(14) 0.5035(4)
H14 H 0.5899 0.9635 0.5172
C21 C 0.6763(3) 0.89795(15) 0.6041(3)
H15 H 0.6861 0.9138 0.6841
C22 C 0.5420(4) 0.93897(16) 0.2771(4)
H16 H 0.4990 0.9142 0.2174
H17 H 0.6047 0.9600 0.2359
H18 H 0.4814 0.9639 0.3103
C23 C 1.3329(3) 0.86890(14) 0.6368(3)
C24 C 1.3838(3) 0.81639(16) 0.6513(4)
H19 H 1.3782 0.7912 0.5847
C25 C 1.4437(3) 0.80171(16) 0.7672(4)
H20 H 1.4773 0.7661 0.7780
C26 C 1.4545(3) 0.83865(17) 0.8667(3)
C27 C 1.4046(3) 0.89139(16) 0.8488(4)
H21 H 1.4125 0.9171 0.9143
C28 C 1.3429(3) 0.90640(15) 0.7349(4)
H22 H 1.3083 0.9418 0.7245
C29 C 1.5181(4) 0.82181(19) 0.9927(4)
H23 H 1.5429 0.7834 0.9896
H24 H 1.4598 0.8268 1.0574
H25 H 1.5921 0.8445 1.0110
loop_
_geom_bond_atom_site_label_1
_geom_bond_atom_site_label_2
_geom_bond_site_symmetry_1
_geom_bond_site_symmetry_2
S1 N1 1_555 1_555
S2 N2 1_555 1_555
Cl1 C14 1_555 1_555
N1 C1 1_555 1_555
N2 C6 1_555 1_555
O1 S1 1_555 1_555
O2 S1 1_555 1_555
O3 S2 1_555 1_555
O4 S2 1_555 1_555
C1 C2 1_555 1_555
C2 H1 1_555 1_555
C3 C2 1_555 1_555
H2 C3 1_555 1_555
C4 C3 1_555 1_555
H3 C4 1_555 1_555
C5 C4 1_555 1_555
H4 C5 1_555 1_555
C6 C1 1_555 1_555
C7 N2 1_555 1_555
H5 C7 1_555 1_555
H6 C7 1_555 1_555
C8 N1 1_555 1_555
C9 C8 1_555 1_555
H7 C9 1_555 1_555
C10 C9 1_555 1_555
C11 C10 1_555 1_555
H8 C11 1_555 1_555
C12 C11 1_555 1_555
H9 C12 1_555 1_555
C13 C12 1_555 1_555
H10 C13 1_555 1_555
C14 C13 1_555 1_555
C15 C10 1_555 1_555
H11 C15 1_555 1_555
C16 S1 1_555 1_555
C17 C16 1_555 1_555
H12 C17 1_555 1_555
C18 C17 1_555 1_555
H13 C18 1_555 1_555
C19 C18 1_555 1_555
C20 C19 1_555 1_555
H14 C20 1_555 1_555
C21 C16 1_555 1_555
H15 C21 1_555 1_555
C22 C19 1_555 1_555
H16 C22 1_555 1_555
H17 C22 1_555 1_555
H18 C22 1_555 1_555
C23 S2 1_555 1_555
C24 C23 1_555 1_555
H19 C24 1_555 1_555
C25 C24 1_555 1_555
H20 C25 1_555 1_555
C26 C25 1_555 1_555
C27 C26 1_555 1_555
H21 C27 1_555 1_555
C28 C23 1_555 1_555
H22 C28 1_555 1_555
C29 C26 1_555 1_555
H23 C29 1_555 1_555
H24 C29 1_555 1_555
H25 C29 1_555 1_555
C5 C6 1_555 1_555
C7 C8 1_555 1_555
C14 C15 1_555 1_555
C20 C21 1_555 1_555
C27 C28 1_555 1_555

#END
