
#######################################################################
#
#                 Cambridge Crystallographic Data Centre
#                                CCDC 
#
#######################################################################
#
# If this CIF has been generated from an entry in the Cambridge 
# Structural Database, then it will include bibliographic, chemical, 
# crystal, experimental, refinement or atomic coordinate data resulting 
# from the CCDC's data processing and validation procedures.
#
#######################################################################

data_OCAXOI
_chemical_formula_moiety         'C14 H7 Cl1 O1 S1'
_chemical_name_systematic        8-chloro[1]benzothieno[3,2-b][1]benzofuran
_symmetry_cell_setting           monoclinic
_symmetry_space_group_name_H-M   'P 21'
_symmetry_Int_Tables_number      4
_space_group_name_Hall           'P 2yb'
loop_
_symmetry_equiv_pos_site_id
_symmetry_equiv_pos_as_xyz
1 x,y,z
2 -x,1/2+y,-z
_cell_length_a                   11.504(8)
_cell_length_b                   3.842(2)
_cell_length_c                   13.114(10)
_cell_angle_alpha                90
_cell_angle_beta                 112.364(14)
_cell_angle_gamma                90
_cell_volume                     536.022
_exptl_crystal_colour            colorless
_exptl_crystal_description       plate
_cell_formula_units_Z            2
loop_
_atom_site_label
_atom_site_type_symbol
_atom_site_fract_x
_atom_site_fract_y
_atom_site_fract_z
Cl1 Cl -0.74121(10) -0.3281(3) -0.05123(8)
S1 S -0.93568(9) -0.2882(3) -0.57994(8)
O1 O -0.6083(3) -0.6770(8) -0.4262(2)
C1 C -0.6291(4) -0.6037(11) -0.3312(3)
C2 C -0.7156(4) -0.5615(11) -0.5104(4)
C3 C -0.8748(4) -0.4370(11) -0.6766(4)
C4 C -0.9358(4) -0.4246(11) -0.7906(4)
H1 H -1.0158 -0.3289 -0.8229
C5 C -0.7997(4) -0.4217(11) -0.4729(4)
C6 C -0.5450(4) -0.6757(11) -0.2257(4)
H2 H -0.4674 -0.7778 -0.2125
C7 C -0.6991(4) -0.4335(11) -0.1623(4)
C8 C -0.7460(4) -0.4439(11) -0.3548(4)
C9 C -0.7532(4) -0.5803(11) -0.6269(4)
C10 C -0.5829(4) -0.5874(12) -0.1406(4)
H3 H -0.5298 -0.6317 -0.0681
C11 C -0.8751(4) -0.5571(13) -0.8544(4)
H4 H -0.9151 -0.5509 -0.9308
C12 C -0.7822(4) -0.3585(12) -0.2674(3)
H5 H -0.8595 -0.2550 -0.2799
C13 C -0.7552(4) -0.7003(11) -0.8072(4)
H6 H -0.7165 -0.7888 -0.8524
C14 C -0.6929(4) -0.7123(11) -0.6938(4)
H7 H -0.6125 -0.8062 -0.6625
loop_
_geom_bond_atom_site_label_1
_geom_bond_atom_site_label_2
_geom_bond_site_symmetry_1
_geom_bond_site_symmetry_2
Cl1 C7 1_555 1_555
S1 C3 1_555 1_555
O1 C1 1_555 1_555
C1 C6 1_555 1_555
C2 O1 1_555 1_555
C3 C4 1_555 1_555
C4 H1 1_555 1_555
C5 S1 1_555 1_555
C6 H2 1_555 1_555
C7 C10 1_555 1_555
C8 C1 1_555 1_555
C9 C2 1_555 1_555
C10 C6 1_555 1_555
H3 C10 1_555 1_555
C11 C4 1_555 1_555
H4 C11 1_555 1_555
C12 C7 1_555 1_555
H5 C12 1_555 1_555
C13 C11 1_555 1_555
H6 C13 1_555 1_555
C14 C9 1_555 1_555
H7 C14 1_555 1_555
C2 C5 1_555 1_555
C3 C9 1_555 1_555
C5 C8 1_555 1_555
C8 C12 1_555 1_555
C13 C14 1_555 1_555

#END
