
#######################################################################
#
#                 Cambridge Crystallographic Data Centre
#                                CCDC 
#
#######################################################################
#
# If this CIF has been generated from an entry in the Cambridge 
# Structural Database, then it will include bibliographic, chemical, 
# crystal, experimental, refinement or atomic coordinate data resulting 
# from the CCDC's data processing and validation procedures.
#
#######################################################################

data_OCAXOF
_chemical_formula_moiety         'C30 H28 N2 O5 S2'
_chemical_name_systematic        
2-(4-Methoxybenzylidene)-1,4-bis(p-tosyl)-1,2,3,4-tetrahydroquinoxaline
_symmetry_cell_setting           monoclinic
_symmetry_space_group_name_H-M   'P 21/c'
_symmetry_Int_Tables_number      14
_space_group_name_Hall           '-P 2ybc'
loop_
_symmetry_equiv_pos_site_id
_symmetry_equiv_pos_as_xyz
1 x,y,z
2 x,1/2-y,1/2+z
3 -x,-y,-z
4 -x,1/2+y,1/2-z
_cell_length_a                   10.5460(10)
_cell_length_b                   11.8440(10)
_cell_length_c                   21.985(3)
_cell_angle_alpha                90
_cell_angle_beta                 101.250(10)
_cell_angle_gamma                90
_cell_volume                     2693.31
_exptl_crystal_colour            colorless
_exptl_crystal_description       block
_chemical_melting_point          '425 K'
_cell_formula_units_Z            4
_exptl_crystal_recrystallization_method 'chloroform/light petroleum'
loop_
_atom_site_label
_atom_site_type_symbol
_atom_site_fract_x
_atom_site_fract_y
_atom_site_fract_z
S1 S -0.17858(6) 0.02598(5) 0.10863(3)
S2 S 0.30568(6) 0.25535(5) 0.15383(3)
O1 O 0.31578(17) 0.32301(15) 0.10120(9)
O2 O 0.36249(18) 0.29369(16) 0.21464(9)
O3 O -0.21816(17) -0.03498(15) 0.15782(9)
O4 O -0.20330(16) -0.01990(15) 0.04704(8)
O5 O -0.25420(18) 0.32024(16) -0.19143(8)
N1 N 0.14431(18) 0.24013(16) 0.15224(9)
N2 N -0.01757(18) 0.04089(16) 0.12811(9)
C1 C 0.1100(2) 0.1757(2) 0.20220(11)
C2 C 0.1488(2) 0.2125(2) 0.26324(12)
H1 H 0.1927 0.2807 0.2711
C3 C 0.1229(3) 0.1494(3) 0.31197(13)
H2 H 0.1478 0.1757 0.3524
C4 C 0.0595(3) 0.0464(3) 0.30073(13)
H3 H 0.0459 0.0019 0.3337
C5 C 0.0167(2) 0.0104(2) 0.24054(12)
H4 H -0.0256 -0.0586 0.2332
C6 C 0.0362(2) 0.0763(2) 0.19036(11)
C7 C 0.0426(2) 0.09252(19) 0.07916(11)
H5 H -0.0144 0.0829 0.0392
H6 H 0.1233 0.0541 0.0778
C8 C 0.0686(2) 0.2164(2) 0.09109(11)
C9 C 0.0289(2) 0.3039(2) 0.05437(11)
H7 H 0.0497 0.3744 0.0721
C10 C -0.0431(2) 0.3058(2) -0.01015(11)
C11 C -0.1221(2) 0.3986(2) -0.02959(12)
H8 H -0.1265 0.4566 -0.0016
C12 C -0.1946(2) 0.4071(2) -0.08959(12)
H9 H -0.2464 0.4699 -0.1013
C13 C -0.1885(2) 0.3208(2) -0.13162(11)
C14 C -0.1085(2) 0.2274(2) -0.11357(12)
H10 H -0.1041 0.1695 -0.1417
C15 C -0.0363(2) 0.2211(2) -0.05417(11)
H11 H 0.0180 0.1595 -0.0430
C16 C -0.3261(3) 0.4203(3) -0.21311(13)
H12 H -0.3660 0.4110 -0.2560
H13 H -0.2687 0.4839 -0.2088
H14 H -0.3916 0.4327 -0.1891
C17 C 0.3652(2) 0.1192(2) 0.14378(11)
C18 C 0.4030(2) 0.0912(2) 0.08884(12)
H15 H 0.3954 0.1432 0.0567
C19 C 0.4522(3) -0.0156(2) 0.08263(12)
H16 H 0.4796 -0.0342 0.0462
C20 C 0.4618(2) -0.0957(2) 0.12942(12)
C21 C 0.4212(2) -0.0662(2) 0.18368(12)
H17 H 0.4259 -0.1192 0.2153
C22 C 0.3740(2) 0.0406(2) 0.19149(12)
H18 H 0.3484 0.0598 0.2283
C23 C 0.5168(3) -0.2112(2) 0.12197(13)
H19 H 0.5635 -0.2371 0.1614
H20 H 0.5742 -0.2072 0.0931
H21 H 0.4477 -0.2627 0.1067
C24 C -0.2454(2) 0.1627(2) 0.10561(11)
C25 C -0.2422(2) 0.2221(2) 0.16034(12)
H22 H -0.2041 0.1906 0.1983
C26 C -0.2962(2) 0.3287(2) 0.15776(13)
H23 H -0.2943 0.3687 0.1943
C27 C -0.3536(2) 0.3773(2) 0.10133(13)
C28 C -0.3542(2) 0.3163(2) 0.04760(12)
H24 H -0.3922 0.3478 0.0097
C29 C -0.3000(2) 0.2097(2) 0.04868(12)
H25 H -0.3002 0.1704 0.0120
C30 C -0.4141(3) 0.4933(2) 0.09864(15)
H26 H -0.3846 0.5316 0.1373
H27 H -0.5065 0.4861 0.0914
H28 H -0.3898 0.5358 0.0656
loop_
_geom_bond_atom_site_label_1
_geom_bond_atom_site_label_2
_geom_bond_site_symmetry_1
_geom_bond_site_symmetry_2
S1 O3 1_555 1_555
S2 O1 1_555 1_555
O2 S2 1_555 1_555
O4 S1 1_555 1_555
O5 C13 1_555 1_555
N1 S2 1_555 1_555
N2 S1 1_555 1_555
C1 N1 1_555 1_555
C2 C1 1_555 1_555
H1 C2 1_555 1_555
C3 C2 1_555 1_555
H2 C3 1_555 1_555
C4 C3 1_555 1_555
H3 C4 1_555 1_555
C5 C4 1_555 1_555
H4 C5 1_555 1_555
C6 N2 1_555 1_555
C7 N2 1_555 1_555
H5 C7 1_555 1_555
H6 C7 1_555 1_555
C8 N1 1_555 1_555
C9 C8 1_555 1_555
H7 C9 1_555 1_555
C10 C9 1_555 1_555
C11 C10 1_555 1_555
H8 C11 1_555 1_555
C12 C11 1_555 1_555
H9 C12 1_555 1_555
C13 C12 1_555 1_555
C14 C13 1_555 1_555
H10 C14 1_555 1_555
C15 C10 1_555 1_555
H11 C15 1_555 1_555
C16 O5 1_555 1_555
H12 C16 1_555 1_555
H13 C16 1_555 1_555
H14 C16 1_555 1_555
C17 S2 1_555 1_555
C18 C17 1_555 1_555
H15 C18 1_555 1_555
C19 C18 1_555 1_555
H16 C19 1_555 1_555
C20 C19 1_555 1_555
C21 C20 1_555 1_555
H17 C21 1_555 1_555
C22 C17 1_555 1_555
H18 C22 1_555 1_555
C23 C20 1_555 1_555
H19 C23 1_555 1_555
H20 C23 1_555 1_555
H21 C23 1_555 1_555
C24 S1 1_555 1_555
C25 C24 1_555 1_555
H22 C25 1_555 1_555
C26 C25 1_555 1_555
H23 C26 1_555 1_555
C27 C26 1_555 1_555
C28 C27 1_555 1_555
H24 C28 1_555 1_555
C29 C24 1_555 1_555
H25 C29 1_555 1_555
C30 C27 1_555 1_555
H26 C30 1_555 1_555
H27 C30 1_555 1_555
H28 C30 1_555 1_555
C1 C6 1_555 1_555
C5 C6 1_555 1_555
C7 C8 1_555 1_555
C14 C15 1_555 1_555
C21 C22 1_555 1_555
C28 C29 1_555 1_555

#END
