
#######################################################################
#
#                 Cambridge Crystallographic Data Centre
#                                CCDC 
#
#######################################################################
#
# If this CIF has been generated from an entry in the Cambridge 
# Structural Database, then it will include bibliographic, chemical, 
# crystal, experimental, refinement or atomic coordinate data resulting 
# from the CCDC's data processing and validation procedures.
#
#######################################################################

data_OCAYOI
_chemical_name_common            1-Benzyl-6-chloroindoline-2,3-dione
_chemical_formula_moiety         'C15 H10 Cl1 N1 O2'
_chemical_name_systematic        1-Benzyl-6-chloro-1H-indole-2,3-dione
_symmetry_cell_setting           triclinic
_symmetry_space_group_name_H-M   'P -1'
_symmetry_Int_Tables_number      2
_space_group_name_Hall           '-P 1'
loop_
_symmetry_equiv_pos_site_id
_symmetry_equiv_pos_as_xyz
1 x,y,z
2 -x,-y,-z
_cell_length_a                   7.1870(14)
_cell_length_b                   7.5800(15)
_cell_length_c                   12.012(2)
_cell_angle_alpha                80.24(3)
_cell_angle_beta                 84.90(3)
_cell_angle_gamma                79.74(3)
_cell_volume                     633.436
_exptl_crystal_colour            yellow
_exptl_crystal_description       block
_chemical_melting_point          '175.2-176.1 deg.C'
_cell_formula_units_Z            2
_exptl_crystal_recrystallization_method ethanol
loop_
_atom_site_label
_atom_site_type_symbol
_atom_site_fract_x
_atom_site_fract_y
_atom_site_fract_z
Cl1 Cl 0.15893(11) 0.74198(12) 0.63411(6)
N1 N 0.3532(3) 0.5031(3) 0.25370(16)
O1 O 0.3966(3) 0.0350(3) 0.3312(2)
C1 C 0.0178(3) 0.6495(3) 0.1103(2)
H1 H 0.0667 0.5310 0.0999
O2 O 0.4404(3) 0.3028(3) 0.12621(18)
C2 C -0.1670(4) 0.7221(4) 0.0844(2)
H2 H -0.2413 0.6526 0.0567
C3 C -0.2404(4) 0.8970(4) 0.0998(2)
H3 H -0.3644 0.9461 0.0823
C4 C -0.1308(4) 0.9994(4) 0.1409(2)
H4 H -0.1809 1.1177 0.1515
C5 C 0.0548(4) 0.9268(3) 0.1666(2)
H5 H 0.1283 0.9973 0.1942
C6 C 0.1314(3) 0.7513(3) 0.15178(18)
C7 C 0.3348(3) 0.6736(3) 0.1755(2)
H6 H 0.4057 0.6538 0.1049
H7 H 0.3896 0.7609 0.2071
C8 C 0.3061(3) 0.4880(3) 0.37094(19)
C9 C 0.2568(3) 0.6255(3) 0.4348(2)
H8 H 0.2489 0.7470 0.4027
C10 C 0.2197(3) 0.5730(4) 0.5496(2)
C11 C 0.2296(4) 0.3939(4) 0.6003(2)
H9 H 0.2030 0.3650 0.6778
C12 C 0.2797(4) 0.2591(4) 0.5343(3)
H10 H 0.2875 0.1378 0.5668
C13 C 0.3180(3) 0.3053(3) 0.4202(2)
C14 C 0.3748(3) 0.1993(3) 0.3277(2)
C15 C 0.3958(3) 0.3341(3) 0.2226(2)
loop_
_geom_bond_atom_site_label_1
_geom_bond_atom_site_label_2
_geom_bond_site_symmetry_1
_geom_bond_site_symmetry_2
Cl1 C10 1_555 1_555
N1 C7 1_555 1_555
O1 C14 1_555 1_555
C1 H1 1_555 1_555
O2 C15 1_555 1_555
C2 C1 1_555 1_555
H2 C2 1_555 1_555
C3 C2 1_555 1_555
H3 C3 1_555 1_555
C4 C3 1_555 1_555
H4 C4 1_555 1_555
C5 C4 1_555 1_555
H5 C5 1_555 1_555
C6 C1 1_555 1_555
C7 C6 1_555 1_555
H6 C7 1_555 1_555
H7 C7 1_555 1_555
C8 N1 1_555 1_555
C9 C8 1_555 1_555
H8 C9 1_555 1_555
C10 C9 1_555 1_555
C11 C10 1_555 1_555
H9 C11 1_555 1_555
C12 C11 1_555 1_555
H10 C12 1_555 1_555
C13 C8 1_555 1_555
C14 C13 1_555 1_555
C15 N1 1_555 1_555
C5 C6 1_555 1_555
C12 C13 1_555 1_555
C14 C15 1_555 1_555

#END
