
#######################################################################
#
#                 Cambridge Crystallographic Data Centre
#                                CCDC 
#
#######################################################################
#
# If this CIF has been generated from an entry in the Cambridge 
# Structural Database, then it will include bibliographic, chemical, 
# crystal, experimental, refinement or atomic coordinate data resulting 
# from the CCDC's data processing and validation procedures.
#
#######################################################################

data_OCENEQ
_chemical_compound_source        'Laggera pterodonta (DC) Benth'
_chemical_formula_moiety         'C15 H22 O2'
_chemical_name_systematic        'Eudesmane-5,12-dien-13-oic acid'
_chemical_properties_biological  
'possible antileukaemic, antibacterial, anti-inflammatory and antimalarial activities'
_symmetry_cell_setting           orthorhombic
_symmetry_space_group_name_H-M   'P 21 21 21'
_symmetry_Int_Tables_number      19
_space_group_name_Hall           'P 2ac 2ab'
loop_
_symmetry_equiv_pos_site_id
_symmetry_equiv_pos_as_xyz
1 x,y,z
2 1/2-x,-y,1/2+z
3 -x,1/2+y,1/2-z
4 1/2+x,1/2-y,-z
_cell_length_a                   6.3452(12)
_cell_length_b                   14.032(3)
_cell_length_c                   15.132(3)
_cell_angle_alpha                90
_cell_angle_beta                 90
_cell_angle_gamma                90
_cell_volume                     1347.29
_exptl_crystal_colour            colorless
_exptl_crystal_description       prism
_chemical_melting_point          '370 K'
_cell_formula_units_Z            4
_exptl_crystal_recrystallization_method acetone
loop_
_atom_site_label
_atom_site_type_symbol
_atom_site_fract_x
_atom_site_fract_y
_atom_site_fract_z
O1 O 0.2676(3) 0.27983(13) 0.05620(12)
O2 O 0.5975(3) 0.26494(16) 0.10258(13)
H1 H 0.632(5) 0.254(2) 0.046(2)
C1 C -0.3142(4) 0.51903(19) 0.36325(17)
H2 H -0.3404 0.5846 0.3462
H3 H -0.4149 0.4793 0.3322
C2 C -0.3512(4) 0.5091(2) 0.46210(18)
H4 H -0.2552 0.5505 0.4940
H5 H -0.4942 0.5281 0.4763
C3 C -0.3160(4) 0.4070(2) 0.48987(17)
H6 H -0.4195 0.3667 0.4610
H7 H -0.3372 0.4016 0.5532
C4 C -0.0942(4) 0.37120(17) 0.46671(15)
H8 H -0.0971 0.3016 0.4724
C5 C -0.0378(3) 0.39308(14) 0.37077(13)
C6 C 0.0511(4) 0.32626(15) 0.32120(15)
H9 H 0.0734 0.2674 0.3479
C7 C 0.1197(4) 0.33543(15) 0.22633(14)
H10 H 0.0194 0.2997 0.1899
C8 C 0.1114(4) 0.44011(16) 0.19712(16)
H11 H 0.2345 0.4736 0.2191
H12 H 0.1123 0.4437 0.1331
C9 C -0.0874(4) 0.48707(18) 0.23275(15)
H13 H -0.2095 0.4517 0.2124
H14 H -0.0974 0.5513 0.2094
C10 C -0.0899(4) 0.49115(14) 0.33396(15)
C11 C 0.3369(3) 0.29469(15) 0.20975(14)
C12 C 0.4745(4) 0.27184(19) 0.27190(16)
H15 H 0.6048 0.2466 0.2564
H16 H 0.4409 0.2810 0.3311
C13 C 0.3936(4) 0.27938(15) 0.11531(15)
C14 C 0.0678(5) 0.56749(16) 0.36505(19)
H17 H 0.0559 0.5756 0.4279
H18 H 0.0374 0.6268 0.3361
H19 H 0.2084 0.5477 0.3506
C15 C 0.0697(5) 0.4078(2) 0.53308(18)
H20 H 0.2071 0.3857 0.5162
H21 H 0.0362 0.3843 0.5910
H22 H 0.0683 0.4762 0.5336
loop_
_geom_bond_atom_site_label_1
_geom_bond_atom_site_label_2
_geom_bond_site_symmetry_1
_geom_bond_site_symmetry_2
O1 C13 1_555 1_555
O2 H1 1_555 1_555
C1 H2 1_555 1_555
H3 C1 1_555 1_555
C2 C1 1_555 1_555
H4 C2 1_555 1_555
H5 C2 1_555 1_555
C3 C2 1_555 1_555
H6 C3 1_555 1_555
H7 C3 1_555 1_555
C4 C3 1_555 1_555
H8 C4 1_555 1_555
C5 C4 1_555 1_555
C6 C5 1_555 1_555
H9 C6 1_555 1_555
C7 C6 1_555 1_555
H10 C7 1_555 1_555
C8 C7 1_555 1_555
H11 C8 1_555 1_555
H12 C8 1_555 1_555
C9 C8 1_555 1_555
H13 C9 1_555 1_555
H14 C9 1_555 1_555
C10 C1 1_555 1_555
C11 C7 1_555 1_555
C12 C11 1_555 1_555
H15 C12 1_555 1_555
H16 C12 1_555 1_555
C13 O2 1_555 1_555
C14 C10 1_555 1_555
H17 C14 1_555 1_555
H18 C14 1_555 1_555
H19 C14 1_555 1_555
C15 C4 1_555 1_555
H20 C15 1_555 1_555
H21 C15 1_555 1_555
H22 C15 1_555 1_555
C5 C10 1_555 1_555
C9 C10 1_555 1_555
C11 C13 1_555 1_555

#END
