
#######################################################################
#
#                 Cambridge Crystallographic Data Centre
#                                CCDC 
#
#######################################################################
#
# If this CIF has been generated from an entry in the Cambridge 
# Structural Database, then it will include bibliographic, chemical, 
# crystal, experimental, refinement or atomic coordinate data resulting 
# from the CCDC's data processing and validation procedures.
#
#######################################################################

data_OCENOA
_chemical_formula_moiety         'C13 H23 Cl1 O1'
_chemical_name_systematic        
cis-(1S,3S,6R,9R)-3-Chloro-5,5,9-trimethylbicyclo(4.4.0)decan-1-ol
_symmetry_cell_setting           orthorhombic
_symmetry_space_group_name_H-M   'P 21 21 21'
_symmetry_Int_Tables_number      19
_space_group_name_Hall           'P 2ac 2ab'
loop_
_symmetry_equiv_pos_site_id
_symmetry_equiv_pos_as_xyz
1 x,y,z
2 1/2-x,-y,1/2+z
3 -x,1/2+y,1/2-z
4 1/2+x,1/2-y,-z
_cell_length_a                   5.702(3)
_cell_length_b                   9.187(4)
_cell_length_c                   24.444(12)
_cell_angle_alpha                90
_cell_angle_beta                 90
_cell_angle_gamma                90
_cell_volume                     1280.48
_exptl_crystal_colour            colorless
_exptl_crystal_description       platy
_chemical_melting_point          '318 K'
_cell_formula_units_Z            4
loop_
_atom_site_label
_atom_site_type_symbol
_atom_site_fract_x
_atom_site_fract_y
_atom_site_fract_z
Cl1 Cl 0.52205(9) 0.74846(7) 0.23760(2)
O1 O 0.5114(2) 0.55340(15) 0.34451(5)
H1 H 0.4808 0.4826 0.3240
C1 C 0.7620(3) 0.5686(2) 0.34963(8)
C2 C 0.8674(3) 0.4262(2) 0.37182(8)
H2 H 0.8224 0.3458 0.3470
H3 H 1.0405 0.4344 0.3709
C3 C 0.7927(4) 0.3856(2) 0.43013(9)
H4 H 0.8996 0.3059 0.4426
C4 C 0.8349(4) 0.5155(3) 0.46790(9)
H5 H 1.0058 0.5317 0.4716
H6 H 0.7718 0.4929 0.5047
C5 C 0.7198(4) 0.6553(2) 0.44669(9)
H7 H 0.5476 0.6421 0.4453
H8 H 0.7540 0.7364 0.4721
C6 C 0.8110(3) 0.6933(2) 0.38973(8)
H9 H 0.9855 0.6972 0.3934
C7 C 0.7372(3) 0.8467(2) 0.36876(9)
C8 C 0.8403(4) 0.8706(2) 0.31099(9)
H10 H 0.7668 0.9590 0.2954
H11 H 1.0099 0.8911 0.3150
C9 C 0.8127(3) 0.7484(3) 0.26979(8)
H12 H 0.9293 0.7669 0.2400
C10 C 0.8704(4) 0.6005(2) 0.29381(8)
H13 H 1.0430 0.5923 0.2971
H14 H 0.8176 0.5247 0.2678
C11 C 0.5424(4) 0.3279(2) 0.43490(9)
H15 H 0.4313 0.4073 0.4282
H16 H 0.5174 0.2888 0.4717
H17 H 0.5179 0.2506 0.4079
C12 C 0.8489(4) 0.9647(2) 0.40500(10)
H18 H 0.8243 1.0605 0.3883
H19 H 1.0174 0.9461 0.4085
H20 H 0.7760 0.9628 0.4413
C13 C 0.4722(4) 0.8709(2) 0.36946(9)
H21 H 0.4363 0.9667 0.3539
H22 H 0.4151 0.8666 0.4072
H23 H 0.3953 0.7951 0.3477
loop_
_geom_bond_atom_site_label_1
_geom_bond_atom_site_label_2
_geom_bond_site_symmetry_1
_geom_bond_site_symmetry_2
Cl1 C9 1_555 1_555
O1 H1 1_555 1_555
C1 O1 1_555 1_555
C2 C1 1_555 1_555
H2 C2 1_555 1_555
H3 C2 1_555 1_555
C3 C2 1_555 1_555
H4 C3 1_555 1_555
C4 C3 1_555 1_555
H5 C4 1_555 1_555
H6 C4 1_555 1_555
C5 C4 1_555 1_555
H7 C5 1_555 1_555
H8 C5 1_555 1_555
C6 C1 1_555 1_555
H9 C6 1_555 1_555
C7 C6 1_555 1_555
C8 C7 1_555 1_555
H10 C8 1_555 1_555
H11 C8 1_555 1_555
C9 C8 1_555 1_555
H12 C9 1_555 1_555
C10 C1 1_555 1_555
H13 C10 1_555 1_555
H14 C10 1_555 1_555
C11 C3 1_555 1_555
H15 C11 1_555 1_555
H16 C11 1_555 1_555
H17 C11 1_555 1_555
C12 C7 1_555 1_555
H18 C12 1_555 1_555
H19 C12 1_555 1_555
H20 C12 1_555 1_555
C13 C7 1_555 1_555
H21 C13 1_555 1_555
H22 C13 1_555 1_555
H23 C13 1_555 1_555
C5 C6 1_555 1_555
C9 C10 1_555 1_555

#END
