
#######################################################################
#
#                 Cambridge Crystallographic Data Centre
#                                CCDC 
#
#######################################################################
#
# If this CIF has been generated from an entry in the Cambridge 
# Structural Database, then it will include bibliographic, chemical, 
# crystal, experimental, refinement or atomic coordinate data resulting 
# from the CCDC's data processing and validation procedures.
#
#######################################################################

data_OCEPAP
_chemical_formula_moiety         'C15 H10 N2 O1 S1'
_chemical_name_systematic        
2-Methyl-12H-benzimidazo[2,1-b][1,3]benzothiazin-12-one
_symmetry_cell_setting           orthorhombic
_symmetry_space_group_name_H-M   'P b c a'
_symmetry_Int_Tables_number      61
_space_group_name_Hall           '-P 2ac 2ab'
loop_
_symmetry_equiv_pos_site_id
_symmetry_equiv_pos_as_xyz
1 x,y,z
2 1/2-x,-y,1/2+z
3 1/2+x,1/2-y,-z
4 -x,1/2+y,1/2-z
5 -x,-y,-z
6 1/2+x,y,1/2-z
7 1/2-x,1/2+y,z
8 x,1/2-y,1/2+z
_cell_length_a                   11.7737(5)
_cell_length_b                   8.1122(3)
_cell_length_c                   26.0694(10)
_cell_angle_alpha                90
_cell_angle_beta                 90
_cell_angle_gamma                90
_cell_volume                     2489.9
_exptl_crystal_colour            yellow
_exptl_crystal_description       block
_cell_formula_units_Z            8
loop_
_atom_site_label
_atom_site_type_symbol
_atom_site_fract_x
_atom_site_fract_y
_atom_site_fract_z
S1 S 0.45576(4) 0.18140(6) 0.52857(2)
O1 O 0.75080(13) 0.5194(2) 0.54191(6)
N1 N 0.61252(13) 0.36927(19) 0.58004(6)
N2 N 0.48456(15) 0.2302(2) 0.62773(7)
C1 C 0.7132(2) 0.4616(3) 0.34806(9)
H1 H 0.7911 0.4271 0.3497
H2 H 0.7096 0.5798 0.3482
H3 H 0.6792 0.4202 0.3172
C2 C 0.64986(18) 0.3952(3) 0.39380(8)
C3 C 0.55839(19) 0.2897(3) 0.38835(8)
H4 H 0.5351 0.2601 0.3555
C4 C 0.50108(19) 0.2273(3) 0.42974(8)
H5 H 0.4396 0.1571 0.4248
C5 C 0.53490(16) 0.2692(2) 0.47915(7)
C6 C 0.62652(15) 0.3757(2) 0.48622(7)
C7 C 0.68198(17) 0.4383(2) 0.44302(8)
H6 H 0.7422 0.5109 0.4475
C8 C 0.66993(16) 0.4285(2) 0.53662(7)
C9 C 0.52023(16) 0.2624(2) 0.58172(8)
C10 C 0.55487(18) 0.3226(3) 0.65964(8)
C11 C 0.63516(17) 0.4092(2) 0.63143(8)
C12 C 0.7143(2) 0.5112(3) 0.65415(10)
H7 H 0.7689 0.5669 0.6351
C13 C 0.7076(3) 0.5259(4) 0.70691(10)
H8 H 0.7590 0.5940 0.7238
C14 C 0.6269(3) 0.4423(4) 0.73537(10)
H9 H 0.6248 0.4565 0.7708
C15 C 0.5500(2) 0.3393(3) 0.71257(9)
H10 H 0.4964 0.2823 0.7319
loop_
_geom_bond_atom_site_label_1
_geom_bond_atom_site_label_2
_geom_bond_site_symmetry_1
_geom_bond_site_symmetry_2
S1 C5 1_555 1_555
O1 C8 1_555 1_555
N1 C8 1_555 1_555
N2 C9 1_555 1_555
C1 H1 1_555 1_555
H2 C1 1_555 1_555
H3 C1 1_555 1_555
C2 C1 1_555 1_555
C3 C2 1_555 1_555
H4 C3 1_555 1_555
C4 C3 1_555 1_555
H5 C4 1_555 1_555
C5 C4 1_555 1_555
C6 C5 1_555 1_555
C7 C2 1_555 1_555
H6 C7 1_555 1_555
C8 C6 1_555 1_555
C9 S1 1_555 1_555
C10 N2 1_555 1_555
C11 N1 1_555 1_555
C12 C11 1_555 1_555
H7 C12 1_555 1_555
C13 C12 1_555 1_555
H8 C13 1_555 1_555
C14 C13 1_555 1_555
H9 C14 1_555 1_555
C15 C10 1_555 1_555
H10 C15 1_555 1_555
N1 C9 1_555 1_555
C6 C7 1_555 1_555
C10 C11 1_555 1_555
C14 C15 1_555 1_555

#END
