
#######################################################################
#
#                 Cambridge Crystallographic Data Centre
#                                CCDC 
#
#######################################################################
#
# If this CIF has been generated from an entry in the Cambridge 
# Structural Database, then it will include bibliographic, chemical, 
# crystal, experimental, refinement or atomic coordinate data resulting 
# from the CCDC's data processing and validation procedures.
#
#######################################################################

data_OCEPOD
_chemical_formula_moiety         'C13 H14 N2 O2'
_chemical_name_systematic        
1,3-Dimethyl-5-(3-methylphenoxy)-1H-pyrazole-4-carbaldehyde
_symmetry_cell_setting           triclinic
_symmetry_space_group_name_H-M   'P -1'
_symmetry_Int_Tables_number      2
_space_group_name_Hall           '-P 1'
loop_
_symmetry_equiv_pos_site_id
_symmetry_equiv_pos_as_xyz
1 x,y,z
2 -x,-y,-z
_cell_length_a                   7.9444(16)
_cell_length_b                   10.643(3)
_cell_length_c                   15.053(3)
_cell_angle_alpha                107.732(3)
_cell_angle_beta                 102.473(5)
_cell_angle_gamma                93.225(7)
_cell_volume                     1173.45
_exptl_crystal_colour            colorless
_exptl_crystal_description       prism
_cell_formula_units_Z            4
_exptl_crystal_recrystallization_method 'ethyl acetate/petroleum ether'
loop_
_atom_site_label
_atom_site_type_symbol
_atom_site_fract_x
_atom_site_fract_y
_atom_site_fract_z
O1 O 0.8036(2) 0.24450(16) 0.10860(11)
O2 O 0.7737(2) 0.60698(17) 0.33053(12)
N1 N 0.6563(3) 0.1553(2) 0.19874(14)
N2 N 0.5999(3) 0.1925(2) 0.28185(14)
C1 C 0.7095(3) 0.2757(2) 0.02854(17)
C2 C 0.8041(3) 0.2834(2) -0.03652(16)
H1 H 0.9235 0.2712 -0.0258
C3 C 0.7187(3) 0.3095(2) -0.11844(17)
H2 H 0.7797 0.3156 -0.1651
C4 C 0.5444(3) 0.3268(2) -0.13217(17)
H3 H 0.4875 0.3453 -0.1883
C5 C 0.4513(3) 0.3177(2) -0.06618(17)
C6 C 0.5371(3) 0.2912(2) 0.01631(16)
H4 H 0.4767 0.2840 0.0630
C7 C 0.2610(3) 0.3341(2) -0.08065(16)
H5 H 0.2039 0.2766 -0.0529
H6 H 0.2067 0.3093 -0.1496
H7 H 0.2488 0.4271 -0.0488
C8 C 0.7308(3) 0.2600(3) 0.18420(17)
C9 C 0.7234(3) 0.3731(2) 0.25874(17)
C10 C 0.6415(3) 0.3234(3) 0.31759(17)
C11 C 0.5998(3) 0.4000(2) 0.40987(15)
H8 H 0.5401 0.3387 0.4337
H9 H 0.5243 0.4661 0.3986
H10 H 0.7077 0.4452 0.4577
C12 C 0.6303(3) 0.0156(2) 0.13985(17)
H11 H 0.6849 0.0053 0.0860
H12 H 0.5054 -0.0155 0.1149
H13 H 0.6830 -0.0372 0.1791
C13 C 0.7929(3) 0.5060(3) 0.26952(18)
H14 H 0.8587 0.5164 0.2259
O3 O 0.0347(2) 0.00932(17) 0.28476(11)
O4 O 0.2005(2) 0.11940(17) 0.05903(12)
N3 N 0.0942(3) 0.2408(2) 0.35725(15)
N4 N 0.1457(3) 0.3542(2) 0.33896(14)
C14 C 0.1617(3) -0.0619(3) 0.32283(16)
C15 C 0.0930(3) -0.1703(2) 0.34139(16)
H15 H -0.0289 -0.1912 0.3313
C16 C 0.2095(3) -0.2481(2) 0.37553(16)
H16 H 0.1670 -0.3246 0.3881
C17 C 0.3865(3) -0.2146(2) 0.39111(16)
H17 H 0.4643 -0.2684 0.4145
C18 C 0.4526(3) -0.1037(2) 0.37326(16)
C19 C 0.3373(3) -0.0259(2) 0.33883(15)
H18 H 0.3792 0.0510 0.3266
C20 C 0.6461(3) -0.0664(2) 0.39066(16)
H19 H 0.6958 -0.0195 0.4593
H20 H 0.6672 -0.0084 0.3535
H21 H 0.7009 -0.1472 0.3704
C21 C 0.0920(3) 0.1315(3) 0.28273(19)
C22 C 0.1413(3) 0.1701(3) 0.21237(18)
C23 C 0.1758(3) 0.3107(3) 0.25212(18)
C24 C 0.2314(3) 0.4080(2) 0.20729(17)
H22 H 0.2286 0.4987 0.2485
H23 H 0.1522 0.3915 0.1440
H24 H 0.3499 0.3978 0.1999
C25 C 0.0481(3) 0.2495(3) 0.44694(16)
H25 H -0.0006 0.1613 0.4440
H26 H -0.0385 0.3111 0.4571
H27 H 0.1521 0.2821 0.5003
C26 C 0.1513(3) 0.0825(3) 0.11980(19)
H28 H 0.1175 -0.0100 0.1050
loop_
_geom_bond_atom_site_label_1
_geom_bond_atom_site_label_2
_geom_bond_site_symmetry_1
_geom_bond_site_symmetry_2
O1 C1 1_555 1_555
O2 C13 1_555 1_555
O3 C14 1_555 1_555
O4 C26 1_555 1_555
N1 N2 1_555 1_555
N2 C10 1_555 1_555
N3 N4 1_555 1_555
N4 C23 1_555 1_555
C1 C2 1_555 1_555
C2 H1 1_555 1_555
C3 C2 1_555 1_555
H2 C3 1_555 1_555
C4 C3 1_555 1_555
H3 C4 1_555 1_555
C5 C4 1_555 1_555
C6 C1 1_555 1_555
H4 C6 1_555 1_555
C7 C5 1_555 1_555
H5 C7 1_555 1_555
H6 C7 1_555 1_555
H7 C7 1_555 1_555
C8 O1 1_555 1_555
C9 C8 1_555 1_555
C10 C9 1_555 1_555
C11 C10 1_555 1_555
H8 C11 1_555 1_555
H9 C11 1_555 1_555
H10 C11 1_555 1_555
C12 N1 1_555 1_555
H11 C12 1_555 1_555
H12 C12 1_555 1_555
H13 C12 1_555 1_555
C13 C9 1_555 1_555
H14 C13 1_555 1_555
C14 C15 1_555 1_555
C15 H15 1_555 1_555
C16 C15 1_555 1_555
H16 C16 1_555 1_555
C17 C16 1_555 1_555
H17 C17 1_555 1_555
C18 C17 1_555 1_555
C19 C14 1_555 1_555
H18 C19 1_555 1_555
C20 C18 1_555 1_555
H19 C20 1_555 1_555
H20 C20 1_555 1_555
H21 C20 1_555 1_555
C21 O3 1_555 1_555
C22 C21 1_555 1_555
C23 C22 1_555 1_555
C24 C23 1_555 1_555
H22 C24 1_555 1_555
H23 C24 1_555 1_555
H24 C24 1_555 1_555
C25 N3 1_555 1_555
H25 C25 1_555 1_555
H26 C25 1_555 1_555
H27 C25 1_555 1_555
C26 C22 1_555 1_555
H28 C26 1_555 1_555
N1 C8 1_555 1_555
N3 C21 1_555 1_555
C5 C6 1_555 1_555
C18 C19 1_555 1_555

#END
