
#######################################################################
#
#                 Cambridge Crystallographic Data Centre
#                                CCDC 
#
#######################################################################
#
# If this CIF has been generated from an entry in the Cambridge 
# Structural Database, then it will include bibliographic, chemical, 
# crystal, experimental, refinement or atomic coordinate data resulting 
# from the CCDC's data processing and validation procedures.
#
#######################################################################

data_OCETEX
_chemical_formula_moiety         'C20 H31 Cl2 N2 O6 P1 Si1'
_chemical_name_systematic        
(3-((4-(2,4-Dichlorophenyl)-5,5-dimethyl-2-oxido-1,3,2-dioxaphosphinan-2-yl)amino)propyl)(2,2',2''-(nitrilo)triethanolato)silicon
_symmetry_cell_setting           triclinic
_symmetry_space_group_name_H-M   'P -1'
_symmetry_Int_Tables_number      2
_space_group_name_Hall           '-P 1'
loop_
_symmetry_equiv_pos_site_id
_symmetry_equiv_pos_as_xyz
1 x,y,z
2 -x,-y,-z
_cell_length_a                   10.7738(12)
_cell_length_b                   10.9320(13)
_cell_length_c                   11.2807(13)
_cell_angle_alpha                111.135(2)
_cell_angle_beta                 95.926(2)
_cell_angle_gamma                90.424(2)
_cell_volume                     1231.21
_exptl_crystal_colour            colorless
_exptl_crystal_description       needle
_cell_formula_units_Z            2
loop_
_atom_site_label
_atom_site_type_symbol
_atom_site_fract_x
_atom_site_fract_y
_atom_site_fract_z
C1 C 1.0122(4) 0.6821(4) 0.7954(4)
C2 C 0.9035(4) 0.7254(4) 0.8460(4)
C3 C 0.8260(4) 0.7889(4) 0.7813(4)
H1 H 0.7504 0.8184 0.8114
C4 C 0.8579(4) 0.8088(4) 0.6755(4)
H2 H 0.8037 0.8499 0.6337
C5 C 0.9678(5) 0.7691(5) 0.6316(4)
C6 C 1.0482(4) 0.7019(5) 0.6884(4)
H3 H 1.1228 0.6715 0.6563
C7 C 0.8618(4) 0.7051(4) 0.9614(4)
H4 H 0.8979 0.6255 0.9680
C8 C 0.8945(4) 0.8210(4) 1.0912(4)
C9 C 0.8522(4) 0.9521(4) 1.0853(5)
H5 H 0.7647 0.9443 1.0554
H6 H 0.8986 0.9753 1.0277
H7 H 0.8666 1.0190 1.1690
C10 C 1.0350(4) 0.8302(5) 1.1341(5)
H8 H 1.0800 0.8493 1.0731
H9 H 1.0601 0.7481 1.1395
H10 H 1.0530 0.8988 1.2164
C11 C 0.8290(5) 0.7924(5) 1.1928(4)
H11 H 0.8597 0.7124 1.2011
H12 H 0.8499 0.8634 1.2745
C12 C 0.4695(4) 0.7914(4) 0.9460(4)
H13 H 0.5321 0.8633 0.9787
H14 H 0.3910 0.8250 0.9763
C13 C 0.4549(4) 0.7405(4) 0.8012(4)
H15 H 0.3894 0.6714 0.7699
H16 H 0.5320 0.7014 0.7720
C14 C 0.4239(4) 0.8422(4) 0.7415(4)
H17 H 0.4879 0.9126 0.7744
H18 H 0.3453 0.8793 0.7680
C15 C 0.6068(5) 0.6880(5) 0.4263(5)
H19 H 0.6707 0.6263 0.4277
H20 H 0.6443 0.7597 0.4088
C16 C 0.5014(5) 0.6206(5) 0.3235(4)
H21 H 0.5233 0.6140 0.2402
H22 H 0.4830 0.5330 0.3218
C17 C 0.3320(5) 0.9231(4) 0.4212(4)
H23 H 0.3551 1.0093 0.4219
H24 H 0.2420 0.9093 0.4015
C18 C 0.3951(5) 0.8196(5) 0.3220(4)
H25 H 0.3508 0.8010 0.2376
H26 H 0.4805 0.8484 0.3219
C19 C 0.2604(5) 0.5652(5) 0.4171(4)
H27 H 0.1737 0.5394 0.4154
H28 H 0.3090 0.4875 0.3989
C20 C 0.2724(5) 0.6263(5) 0.3168(4)
H29 H 0.2721 0.5589 0.2326
H30 H 0.2042 0.6832 0.3148
Cl1 Cl 1.11497(12) 0.59273(13) 0.86003(13)
Cl2 Cl 1.01035(15) 0.8000(2) 0.50014(16)
N1 N 0.5068(3) 0.6877(3) 0.9955(3)
H31 H 0.4481 0.6388 1.0041
N2 N 0.3930(3) 0.7025(3) 0.3565(3)
O1 O 0.7265(2) 0.6839(3) 0.9344(3)
O2 O 0.6939(3) 0.7780(3) 1.1629(3)
O3 O 0.6623(3) 0.5297(3) 1.0444(3)
O4 O 0.5583(3) 0.7371(3) 0.5471(3)
O5 O 0.3694(3) 0.9157(3) 0.5428(3)
O6 O 0.3041(3) 0.6576(3) 0.5381(3)
P1 P 0.64665(11) 0.65882(11) 1.03461(10)
Si1 Si 0.41111(11) 0.77709(11) 0.56192(11)
loop_
_geom_bond_atom_site_label_1
_geom_bond_atom_site_label_2
_geom_bond_site_symmetry_1
_geom_bond_site_symmetry_2
C1 C2 1_555 1_555
C2 C3 1_555 1_555
C3 H1 1_555 1_555
C4 C3 1_555 1_555
H2 C4 1_555 1_555
C5 C4 1_555 1_555
C6 C1 1_555 1_555
H3 C6 1_555 1_555
C7 C2 1_555 1_555
H4 C7 1_555 1_555
C8 C7 1_555 1_555
C9 C8 1_555 1_555
H5 C9 1_555 1_555
H6 C9 1_555 1_555
H7 C9 1_555 1_555
C10 C8 1_555 1_555
H8 C10 1_555 1_555
H9 C10 1_555 1_555
H10 C10 1_555 1_555
C11 C8 1_555 1_555
H11 C11 1_555 1_555
H12 C11 1_555 1_555
C12 H13 1_555 1_555
H14 C12 1_555 1_555
C13 C12 1_555 1_555
H15 C13 1_555 1_555
H16 C13 1_555 1_555
C14 C13 1_555 1_555
H17 C14 1_555 1_555
H18 C14 1_555 1_555
C15 H19 1_555 1_555
H20 C15 1_555 1_555
C16 C15 1_555 1_555
H21 C16 1_555 1_555
H22 C16 1_555 1_555
C17 H23 1_555 1_555
H24 C17 1_555 1_555
C18 C17 1_555 1_555
H25 C18 1_555 1_555
H26 C18 1_555 1_555
C19 H27 1_555 1_555
H28 C19 1_555 1_555
C20 C19 1_555 1_555
H29 C20 1_555 1_555
H30 C20 1_555 1_555
Cl1 C1 1_555 1_555
Cl2 C5 1_555 1_555
N1 C12 1_555 1_555
H31 N1 1_555 1_555
N2 C16 1_555 1_555
O1 C7 1_555 1_555
O2 C11 1_555 1_555
O3 P1 1_555 1_555
O4 C15 1_555 1_555
O5 C17 1_555 1_555
O6 C19 1_555 1_555
P1 N1 1_555 1_555
Si1 C14 1_555 1_555
C5 C6 1_555 1_555
C18 N2 1_555 1_555
C20 N2 1_555 1_555
N2 Si1 1_555 1_555
O1 P1 1_555 1_555
O2 P1 1_555 1_555
O4 Si1 1_555 1_555
O5 Si1 1_555 1_555
O6 Si1 1_555 1_555

#END
