
#######################################################################
#
#                 Cambridge Crystallographic Data Centre
#                                CCDC 
#
#######################################################################
#
# If this CIF has been generated from an entry in the Cambridge 
# Structural Database, then it will include bibliographic, chemical, 
# crystal, experimental, refinement or atomic coordinate data resulting 
# from the CCDC's data processing and validation procedures.
#
#######################################################################

data_OCEVID
_chemical_formula_moiety         'C15 H20 N2 O3'
_chemical_name_systematic        
6',7'-Dimethoxy-1'H-spiro[cyclohexane-1,2'-quinazolin]-4'(3'H)-one
_symmetry_cell_setting           monoclinic
_symmetry_space_group_name_H-M   'P 21/c'
_symmetry_Int_Tables_number      14
_space_group_name_Hall           '-P 2ybc'
loop_
_symmetry_equiv_pos_site_id
_symmetry_equiv_pos_as_xyz
1 x,y,z
2 -x,1/2+y,1/2-z
3 -x,-y,-z
4 x,1/2-y,1/2+z
_cell_length_a                   11.667(2)
_cell_length_b                   9.6376(19)
_cell_length_c                   12.307(3)
_cell_angle_alpha                90
_cell_angle_beta                 101.02(3)
_cell_angle_gamma                90
_cell_volume                     1358.31
_exptl_crystal_colour            colorless
_exptl_crystal_description       prism
_cell_formula_units_Z            4
loop_
_atom_site_label
_atom_site_type_symbol
_atom_site_fract_x
_atom_site_fract_y
_atom_site_fract_z
O1 O -0.16045(6) 0.43728(8) 0.80668(6)
O2 O -0.06468(6) 0.26156(8) 0.95294(6)
O3 O 0.37247(6) 0.40011(8) 1.03202(6)
N1 N 0.21715(7) 0.61646(9) 0.76365(7)
N2 N 0.38438(7) 0.54041(10) 0.88635(7)
C1 C 0.14797(9) 0.52723(11) 0.81032(8)
C2 C 0.02567(9) 0.52808(11) 0.77773(8)
H1 H -0.0099 0.5871 0.7215
C3 C -0.04157(9) 0.44150(11) 0.82915(8)
C4 C 0.01161(9) 0.34735(11) 0.91200(8)
C5 C 0.13085(9) 0.34881(11) 0.94579(8)
H2 H 0.1660 0.2894 1.0020
C6 C 0.20027(9) 0.43927(11) 0.89624(8)
C7 C -0.22059(9) 0.54426(13) 0.73899(10)
H3 H -0.1917 0.6330 0.7673
H4 H -0.3026 0.5382 0.7394
H5 H -0.2080 0.5337 0.6646
C8 C -0.01742(10) 0.18413(12) 1.04951(9)
H6 H 0.0375 0.1175 1.0321
H7 H -0.0793 0.1368 1.0756
H8 H 0.0214 0.2459 1.1059
C9 C 0.32557(9) 0.45515(11) 0.94320(8)
C10 C 0.33946(9) 0.57909(11) 0.77095(8)
C11 C 0.40780(9) 0.70426(11) 0.74216(8)
H9 H 0.4907 0.6843 0.7621
H10 H 0.3916 0.7831 0.7859
C12 C 0.37805(9) 0.74296(11) 0.61959(9)
H11 H 0.2979 0.7751 0.6015
H12 H 0.4283 0.8182 0.6051
C13 C 0.39356(10) 0.61926(13) 0.54656(9)
H13 H 0.4756 0.5946 0.5580
H14 H 0.3685 0.6448 0.4694
C14 C 0.32319(10) 0.49419(12) 0.57250(9)
H15 H 0.2405 0.5153 0.5532
H16 H 0.3387 0.4156 0.5282
C15 C 0.35496(9) 0.45662(11) 0.69493(9)
H17 H 0.4356 0.4258 0.7118
H18 H 0.3062 0.3801 0.7098
H19 H 0.1830(11) 0.6677(13) 0.7058(9)
H20 H 0.4604(8) 0.5564(14) 0.9151(11)
loop_
_geom_bond_atom_site_label_1
_geom_bond_atom_site_label_2
_geom_bond_site_symmetry_1
_geom_bond_site_symmetry_2
O1 C3 1_555 1_555
O2 C4 1_555 1_555
O3 C9 1_555 1_555
N1 C1 1_555 1_555
N2 C9 1_555 1_555
C1 C2 1_555 1_555
C2 H1 1_555 1_555
C3 C2 1_555 1_555
C4 C3 1_555 1_555
C5 C4 1_555 1_555
H2 C5 1_555 1_555
C6 C1 1_555 1_555
C7 O1 1_555 1_555
H3 C7 1_555 1_555
H4 C7 1_555 1_555
H5 C7 1_555 1_555
C8 O2 1_555 1_555
H6 C8 1_555 1_555
H7 C8 1_555 1_555
H8 C8 1_555 1_555
C9 C6 1_555 1_555
C10 N1 1_555 1_555
C11 C10 1_555 1_555
H9 C11 1_555 1_555
H10 C11 1_555 1_555
C12 C11 1_555 1_555
H11 C12 1_555 1_555
H12 C12 1_555 1_555
C13 C12 1_555 1_555
H13 C13 1_555 1_555
H14 C13 1_555 1_555
C14 C13 1_555 1_555
H15 C14 1_555 1_555
H16 C14 1_555 1_555
C15 C10 1_555 1_555
H17 C15 1_555 1_555
H18 C15 1_555 1_555
H19 N1 1_555 1_555
H20 N2 1_555 1_555
N2 C10 1_555 1_555
C5 C6 1_555 1_555
C14 C15 1_555 1_555

#END
