
#######################################################################
#
#                 Cambridge Crystallographic Data Centre
#                                CCDC 
#
#######################################################################
#
# If this CIF has been generated from an entry in the Cambridge 
# Structural Database, then it will include bibliographic, chemical, 
# crystal, experimental, refinement or atomic coordinate data resulting 
# from the CCDC's data processing and validation procedures.
#
#######################################################################

data_OCIDUB
_chemical_formula_moiety         'C48 H69 B31,C1 H2 Cl2'
_chemical_name_systematic        
'tris(4-(2-Phenyl-1,2-dicarba-closo-dodecaboran-1-yl)-2,6-dimethylphenyl)borane dichloromethane solvate'
_symmetry_cell_setting           monoclinic
_symmetry_space_group_name_H-M   'P 21/c'
_symmetry_Int_Tables_number      14
_space_group_name_Hall           '-P 2ybc'
loop_
_symmetry_equiv_pos_site_id
_symmetry_equiv_pos_as_xyz
1 x,y,z
2 -x,1/2+y,1/2-z
3 -x,-y,-z
4 x,1/2-y,1/2+z
_cell_length_a                   19.882(2)
_cell_length_b                   14.7429(16)
_cell_length_c                   23.618(3)
_cell_angle_alpha                90
_cell_angle_beta                 111.808(6)
_cell_angle_gamma                90
_cell_volume                     6427.43
_exptl_crystal_colour            colorless
_exptl_crystal_description       platy
_cell_formula_units_Z            4
_exptl_crystal_recrystallization_method dichloromethane
loop_
_atom_site_label
_atom_site_type_symbol
_atom_site_fract_x
_atom_site_fract_y
_atom_site_fract_z
B1 B 0.2594(2) 0.9482(3) 0.6092(2)
C1 C 0.4001(2) 1.1540(3) 0.83850(17)
C2 C 0.3758(2) 1.1226(3) 0.89913(18)
C3 C 0.2978(2) 1.0065(3) 0.66826(17)
C4 C 0.3717(2) 0.9931(3) 0.70538(18)
C5 C 0.4035(2) 1.0411(3) 0.75938(18)
H1 H 0.4520 1.0309 0.7832
C6 C 0.3644(2) 1.1045(3) 0.77858(17)
C7 C 0.2921(2) 1.1189(3) 0.74212(18)
H2 H 0.2653 1.1609 0.7544
C8 C 0.2587(2) 1.0722(3) 0.68784(18)
C9 C 0.3206(2) 1.0489(3) 0.89006(17)
C10 C 0.3416(3) 0.9596(3) 0.9037(2)
H3 H 0.3904 0.9445 0.9174
C11 C 0.2900(4) 0.8919(4) 0.8969(3)
H4 H 0.3047 0.8320 0.9063
C12 C 0.2188(4) 0.9130(4) 0.8768(2)
H5 H 0.1847 0.8675 0.8717
C13 C 0.1969(3) 1.0007(5) 0.8640(3)
H6 H 0.1479 1.0150 0.8504
C14 C 0.2474(3) 1.0686(4) 0.8711(2)
H7 H 0.2320 1.1284 0.8631
C15 C 0.4195(2) 0.9276(3) 0.6879(2)
H8 H 0.4045 0.8665 0.6909
H9 H 0.4690 0.9354 0.7149
H10 H 0.4154 0.9394 0.6468
C16 C 0.1783(2) 1.0909(3) 0.6533(2)
H11 H 0.1520 1.0347 0.6455
H12 H 0.1717 1.1202 0.6153
H13 H 0.1605 1.1296 0.6773
B2 B 0.4207(3) 1.2680(4) 0.8434(2)
B3 B 0.3486(3) 1.2253(4) 0.8633(2)
B4 B 0.4089(3) 1.3066(4) 0.9097(2)
B5 B 0.4966(3) 1.2825(4) 0.9117(2)
B6 B 0.4896(3) 1.1842(4) 0.8653(2)
B7 B 0.3794(3) 1.2155(4) 0.9432(2)
B8 B 0.4718(3) 1.2493(4) 0.9736(3)
B9 B 0.5216(3) 1.1719(4) 0.9463(2)
B10 B 0.4602(3) 1.0921(4) 0.8992(2)
B11 B 0.4501(3) 1.1320(4) 0.9664(2)
H14 H 0.408(2) 1.307(3) 0.802(2)
H15 H 0.295(2) 1.238(3) 0.8380(19)
H16 H 0.388(2) 1.372(3) 0.9064(19)
H17 H 0.537(2) 1.336(3) 0.9202(18)
H18 H 0.5216(18) 1.169(2) 0.8357(16)
H19 H 0.3409(17) 1.218(2) 0.9640(14)
H20 H 0.502(2) 1.282(3) 1.021(2)
H21 H 0.581(2) 1.142(3) 0.9699(17)
H22 H 0.4705(18) 1.021(3) 0.8896(16)
H23 H 0.454(2) 1.082(3) 0.9992(19)
C17 C 0.0945(2) 1.1228(3) 0.37247(17)
C18 C 0.1073(2) 1.0818(3) 0.30758(17)
C19 C 0.2149(2) 0.9963(3) 0.54638(17)
C20 C 0.2467(2) 1.0658(3) 0.52250(17)
C21 C 0.2071(2) 1.1051(3) 0.46720(18)
H24 H 0.2287 1.1504 0.4523
C22 C 0.1363(2) 1.0798(3) 0.43268(17)
C23 C 0.1044(2) 1.0130(3) 0.45656(19)
H25 H 0.0565 0.9964 0.4351
C24 C 0.1427(2) 0.9712(3) 0.51144(19)
C25 C 0.1608(2) 1.0061(3) 0.31691(17)
C26 C 0.1393(3) 0.9166(4) 0.3113(2)
H26 H 0.0909 0.9024 0.3027
C27 C 0.1893(4) 0.8471(4) 0.3185(3)
H27 H 0.1739 0.7871 0.3140
C28 C 0.2604(4) 0.8664(4) 0.3320(2)
H28 H 0.2936 0.8198 0.3371
C29 C 0.2832(3) 0.9562(5) 0.3382(3)
H29 H 0.3319 0.9698 0.3477
C30 C 0.2337(3) 1.0251(3) 0.3303(2)
H30 H 0.2491 1.0851 0.3339
C31 C 0.3242(2) 1.0950(3) 0.5544(2)
H31 H 0.3379 1.1346 0.5283
H32 H 0.3551 1.0425 0.5640
H33 H 0.3292 1.1264 0.5914
C32 C 0.1026(3) 0.8988(4) 0.5329(2)
H34 H 0.0513 0.9076 0.5129
H35 H 0.1158 0.9035 0.5762
H36 H 0.1155 0.8398 0.5229
B12 B 0.0758(3) 1.2372(4) 0.3634(2)
B13 B 0.1400(3) 1.1876(3) 0.3364(2)
B14 B 0.0761(3) 1.2667(4) 0.2903(3)
B15 B -0.0078(3) 1.2468(5) 0.3001(3)
B16 B 0.0058(3) 1.1559(4) 0.3525(2)
B17 B 0.0977(3) 1.1687(4) 0.2573(2)
B18 B 0.0053(3) 1.2049(4) 0.2348(3)
B19 B -0.0372(3) 1.1360(5) 0.2729(3)
B20 B 0.0272(3) 1.0575(4) 0.3192(2)
B21 B 0.0271(3) 1.0872(4) 0.2457(2)
H37 H 0.093(2) 1.284(3) 0.4023(19)
H38 H 0.198(2) 1.194(2) 0.3570(16)
H39 H 0.099(2) 1.336(3) 0.2838(18)
H40 H -0.048(2) 1.305(3) 0.3045(19)
H41 H -0.020(2) 1.151(3) 0.390(2)
H42 H 0.1331(19) 1.169(2) 0.2314(16)
H43 H -0.017(2) 1.237(3) 0.1854(19)
H44 H -0.094(3) 1.112(3) 0.253(2)
H45 H 0.019(2) 0.988(3) 0.3330(19)
H46 H 0.022(2) 1.034(3) 0.2106(19)
C33 C 0.2767(2) 0.5473(3) 0.62332(18)
C34 C 0.1978(2) 0.4886(3) 0.58271(19)
C35 C 0.2649(2) 0.8408(3) 0.61306(16)
C36 C 0.2538(2) 0.7936(3) 0.66088(18)
C37 C 0.2581(2) 0.6985(3) 0.66338(18)
H47 H 0.2500 0.6681 0.6948
C38 C 0.2742(2) 0.6488(3) 0.62009(17)
C39 C 0.2858(2) 0.6951(3) 0.57351(18)
H48 H 0.2971 0.6625 0.5445
C40 C 0.2808(2) 0.7904(3) 0.56902(17)
C41 C 0.1320(3) 0.5446(3) 0.5479(2)
C42 C 0.0850(4) 0.5748(5) 0.5727(3)
H49 H 0.0927 0.5596 0.6128
C43 C 0.0256(4) 0.6278(7) 0.5402(5)
H50 H -0.0058 0.6474 0.5586
C44 C 0.0134(6) 0.6506(6) 0.4831(6)
H51 H -0.0253 0.6882 0.4621
C45 C 0.0573(6) 0.6193(10) 0.4551(6)
H52 H 0.0469 0.6323 0.4141
C46 C 0.1191(4) 0.5666(6) 0.4886(4)
H53 H 0.1507 0.5472 0.4703
C47 C 0.2340(3) 0.8401(3) 0.7101(2)
H54 H 0.2136 0.7964 0.7293
H55 H 0.1991 0.8871 0.6920
H56 H 0.2766 0.8662 0.7400
C48 C 0.2936(3) 0.8324(3) 0.51491(19)
H57 H 0.3178 0.7893 0.4986
H58 H 0.3230 0.8856 0.5280
H59 H 0.2479 0.8485 0.4840
B22 B 0.3244(3) 0.4892(4) 0.6887(2)
B23 B 0.2278(3) 0.4929(4) 0.6614(2)
B24 B 0.2740(3) 0.3892(4) 0.6877(3)
B25 B 0.3495(4) 0.3858(4) 0.6661(3)
B26 B 0.3507(3) 0.4856(4) 0.6253(3)
B27 B 0.1945(3) 0.3912(4) 0.6217(3)
B28 B 0.2695(4) 0.3247(4) 0.6242(3)
B29 B 0.3154(4) 0.3845(4) 0.5845(3)
B30 B 0.2712(3) 0.4872(4) 0.5586(2)
B31 B 0.2203(4) 0.3879(4) 0.5571(3)
H60 H 0.356(3) 0.541(4) 0.727(3)
H61 H 0.193(2) 0.533(3) 0.6782(17)
H62 H 0.2746(18) 0.364(2) 0.7339(17)
H63 H 0.398(2) 0.354(3) 0.6910(19)
H64 H 0.396(2) 0.522(3) 0.627(2)
H65 H 0.139(2) 0.371(3) 0.6153(18)
H66 H 0.264(2) 0.247(3) 0.6203(19)
H67 H 0.343(2) 0.350(3) 0.563(2)
H68 H 0.2679(18) 0.529(2) 0.5150(17)
H69 H 0.179(2) 0.360(3) 0.5148(19)
C49 C 0.4974(5) 0.7227(4) 0.8322(7)
H70 H 0.5006 0.7261 0.7922
H71 H 0.5453 0.7353 0.8621
Cl1 Cl 0.43910(17) 0.8069(2) 0.83696(13)
Cl2 Cl 0.47501(16) 0.6166(3) 0.8429(2)
loop_
_geom_bond_atom_site_label_1
_geom_bond_atom_site_label_2
_geom_bond_site_symmetry_1
_geom_bond_site_symmetry_2
B1 C3 1_555 1_555
C1 C2 1_555 1_555
C2 C9 1_555 1_555
C3 C4 1_555 1_555
C4 C5 1_555 1_555
C5 H1 1_555 1_555
C6 C1 1_555 1_555
C7 C6 1_555 1_555
H2 C7 1_555 1_555
C8 C3 1_555 1_555
C9 C10 1_555 1_555
C10 H3 1_555 1_555
C11 C10 1_555 1_555
H4 C11 1_555 1_555
C12 C11 1_555 1_555
H5 C12 1_555 1_555
C13 C12 1_555 1_555
H6 C13 1_555 1_555
C14 C9 1_555 1_555
H7 C14 1_555 1_555
C15 C4 1_555 1_555
H8 C15 1_555 1_555
H9 C15 1_555 1_555
H10 C15 1_555 1_555
C16 C8 1_555 1_555
H11 C16 1_555 1_555
H12 C16 1_555 1_555
H13 C16 1_555 1_555
B2 C1 1_555 1_555
B3 C1 1_555 1_555
B4 B2 1_555 1_555
B5 B2 1_555 1_555
B6 C1 1_555 1_555
B7 C2 1_555 1_555
B8 B4 1_555 1_555
B9 B5 1_555 1_555
B10 C1 1_555 1_555
B11 C2 1_555 1_555
H14 B2 1_555 1_555
H15 B3 1_555 1_555
H16 B4 1_555 1_555
H17 B5 1_555 1_555
H18 B6 1_555 1_555
H19 B7 1_555 1_555
H20 B8 1_555 1_555
H21 B9 1_555 1_555
H22 B10 1_555 1_555
H23 B11 1_555 1_555
C17 C18 1_555 1_555
C18 C25 1_555 1_555
C19 B1 1_555 1_555
C20 C19 1_555 1_555
C21 C20 1_555 1_555
H24 C21 1_555 1_555
C22 C17 1_555 1_555
C23 C22 1_555 1_555
H25 C23 1_555 1_555
C24 C19 1_555 1_555
C25 C26 1_555 1_555
C26 H26 1_555 1_555
C27 C26 1_555 1_555
H27 C27 1_555 1_555
C28 C27 1_555 1_555
H28 C28 1_555 1_555
C29 C28 1_555 1_555
H29 C29 1_555 1_555
C30 C25 1_555 1_555
H30 C30 1_555 1_555
C31 C20 1_555 1_555
H31 C31 1_555 1_555
H32 C31 1_555 1_555
H33 C31 1_555 1_555
C32 C24 1_555 1_555
H34 C32 1_555 1_555
H35 C32 1_555 1_555
H36 C32 1_555 1_555
B12 C17 1_555 1_555
B13 C17 1_555 1_555
B14 B12 1_555 1_555
B15 B12 1_555 1_555
B16 C17 1_555 1_555
B17 C18 1_555 1_555
B18 B14 1_555 1_555
B19 B15 1_555 1_555
B20 C17 1_555 1_555
B21 C18 1_555 1_555
H37 B12 1_555 1_555
H38 B13 1_555 1_555
H39 B14 1_555 1_555
H40 B15 1_555 1_555
H41 B16 1_555 1_555
H42 B17 1_555 1_555
H43 B18 1_555 1_555
H44 B19 1_555 1_555
H45 B20 1_555 1_555
H46 B21 1_555 1_555
C33 C34 1_555 1_555
C34 C41 1_555 1_555
C35 B1 1_555 1_555
C36 C35 1_555 1_555
C37 C36 1_555 1_555
H47 C37 1_555 1_555
C38 C33 1_555 1_555
C39 C38 1_555 1_555
H48 C39 1_555 1_555
C40 C35 1_555 1_555
C41 C42 1_555 1_555
C42 H49 1_555 1_555
C43 C42 1_555 1_555
H50 C43 1_555 1_555
C44 C43 1_555 1_555
H51 C44 1_555 1_555
C45 C44 1_555 1_555
H52 C45 1_555 1_555
C46 C41 1_555 1_555
H53 C46 1_555 1_555
C47 C36 1_555 1_555
H54 C47 1_555 1_555
H55 C47 1_555 1_555
H56 C47 1_555 1_555
C48 C40 1_555 1_555
H57 C48 1_555 1_555
H58 C48 1_555 1_555
H59 C48 1_555 1_555
B22 C33 1_555 1_555
B23 C33 1_555 1_555
B24 B22 1_555 1_555
B25 B22 1_555 1_555
B26 C33 1_555 1_555
B27 C34 1_555 1_555
B28 B24 1_555 1_555
B29 B25 1_555 1_555
B30 C33 1_555 1_555
B31 C34 1_555 1_555
H60 B22 1_555 1_555
H61 B23 1_555 1_555
H62 B24 1_555 1_555
H63 B25 1_555 1_555
H64 B26 1_555 1_555
H65 B27 1_555 1_555
H66 B28 1_555 1_555
H67 B29 1_555 1_555
H68 B30 1_555 1_555
H69 B31 1_555 1_555
C49 H70 1_555 1_555
H71 C49 1_555 1_555
Cl1 C49 1_555 1_555
Cl2 C49 1_555 1_555
C2 B3 1_555 1_555
C2 B10 1_555 1_555
C5 C6 1_555 1_555
C7 C8 1_555 1_555
C13 C14 1_555 1_555
B2 B3 1_555 1_555
B2 B6 1_555 1_555
B3 B4 1_555 1_555
B3 B7 1_555 1_555
B4 B5 1_555 1_555
B4 B7 1_555 1_555
B5 B6 1_555 1_555
B5 B8 1_555 1_555
B6 B9 1_555 1_555
B6 B10 1_555 1_555
B7 B8 1_555 1_555
B7 B11 1_555 1_555
B8 B9 1_555 1_555
B8 B11 1_555 1_555
B9 B10 1_555 1_555
B9 B11 1_555 1_555
B10 B11 1_555 1_555
C18 B13 1_555 1_555
C18 B20 1_555 1_555
C21 C22 1_555 1_555
C23 C24 1_555 1_555
C29 C30 1_555 1_555
B12 B13 1_555 1_555
B12 B16 1_555 1_555
B13 B14 1_555 1_555
B13 B17 1_555 1_555
B14 B15 1_555 1_555
B14 B17 1_555 1_555
B15 B16 1_555 1_555
B15 B18 1_555 1_555
B16 B19 1_555 1_555
B16 B20 1_555 1_555
B17 B18 1_555 1_555
B17 B21 1_555 1_555
B18 B19 1_555 1_555
B18 B21 1_555 1_555
B19 B20 1_555 1_555
B19 B21 1_555 1_555
B20 B21 1_555 1_555
C34 B23 1_555 1_555
C34 B30 1_555 1_555
C37 C38 1_555 1_555
C39 C40 1_555 1_555
C45 C46 1_555 1_555
B22 B23 1_555 1_555
B22 B26 1_555 1_555
B23 B24 1_555 1_555
B23 B27 1_555 1_555
B24 B25 1_555 1_555
B24 B27 1_555 1_555
B25 B26 1_555 1_555
B25 B28 1_555 1_555
B26 B29 1_555 1_555
B26 B30 1_555 1_555
B27 B28 1_555 1_555
B27 B31 1_555 1_555
B28 B29 1_555 1_555
B28 B31 1_555 1_555
B29 B30 1_555 1_555
B29 B31 1_555 1_555
B30 B31 1_555 1_555

#END
