
#######################################################################
#
#                 Cambridge Crystallographic Data Centre
#                                CCDC 
#
#######################################################################
#
# If this CIF has been generated from an entry in the Cambridge 
# Structural Database, then it will include bibliographic, chemical, 
# crystal, experimental, refinement or atomic coordinate data resulting 
# from the CCDC's data processing and validation procedures.
#
#######################################################################

data_OCIHOA
_chemical_formula_moiety         'C21 H16 F4 N2 O3 S1'
_chemical_name_systematic        
2-((3-(4-fluorophenyl)-2-phenyl-5-(trifluoromethyl)-1,2-oxazolidin-4-yl)sulfonyl)pyridine
_symmetry_cell_setting           orthorhombic
_symmetry_space_group_name_H-M   'P 21 21 21'
_symmetry_Int_Tables_number      19
_space_group_name_Hall           'P 2ac 2ab'
loop_
_symmetry_equiv_pos_site_id
_symmetry_equiv_pos_as_xyz
1 x,y,z
2 1/2-x,-y,1/2+z
3 -x,1/2+y,1/2-z
4 1/2+x,1/2-y,-z
_cell_length_a                   8.4651(10)
_cell_length_b                   11.6421(14)
_cell_length_c                   20.586(2)
_cell_angle_alpha                90
_cell_angle_beta                 90
_cell_angle_gamma                90
_cell_volume                     2028.78
_exptl_crystal_colour            colorless
_exptl_crystal_description       block
_cell_formula_units_Z            4
loop_
_atom_site_label
_atom_site_type_symbol
_atom_site_fract_x
_atom_site_fract_y
_atom_site_fract_z
C1 C 0.0423(2) 0.38726(18) 0.24662(9)
C2 C 0.1079(3) 0.2910(2) 0.27326(11)
H1 H 0.1298 0.2264 0.2482
C3 C 0.1403(3) 0.2937(2) 0.33901(13)
H2 H 0.1857 0.2308 0.3597
C4 C 0.1036(3) 0.3920(3) 0.37302(11)
H3 H 0.1254 0.3968 0.4172
C5 C 0.0347(3) 0.4827(2) 0.34147(12)
H4 H 0.0090 0.5478 0.3654
C6 C 0.1822(2) 0.43749(16) 0.12522(9)
H5 H 0.2696 0.3875 0.1385
C7 C 0.1638(3) 0.43518(17) 0.05070(9)
H6 H 0.0555 0.4121 0.0400
C8 C 0.2226(2) 0.56375(15) 0.13989(8)
H7 H 0.1250 0.6072 0.1471
C9 C 0.3352(2) 0.58429(15) 0.19527(9)
C10 C 0.4849(3) 0.53694(17) 0.19615(10)
H8 H 0.5153 0.4868 0.1633
C11 C 0.5902(3) 0.5634(2) 0.24545(12)
H9 H 0.6908 0.5314 0.2463
C12 C 0.5421(3) 0.6379(2) 0.29289(11)
C13 C 0.3951(3) 0.6848(2) 0.29486(12)
H10 H 0.3653 0.7338 0.3284
C14 C 0.2912(2) 0.65733(18) 0.24535(10)
H11 H 0.1900 0.6884 0.2457
C15 C 0.2759(5) 0.3559(2) 0.01718(13)
C16 C 0.2945(3) 0.72212(16) 0.06559(10)
C17 C 0.4030(3) 0.7882(2) 0.09931(13)
H12 H 0.4715 0.7541 0.1289
C18 C 0.4084(4) 0.9063(2) 0.08855(15)
H13 H 0.4789 0.9515 0.1119
C19 C 0.3100(4) 0.9561(2) 0.04366(16)
H14 H 0.3139 1.0350 0.0366
C20 C 0.2066(4) 0.8897(2) 0.00936(15)
H15 H 0.1419 0.9234 -0.0218
C21 C 0.1968(3) 0.7721(2) 0.02045(12)
H16 H 0.1247 0.7276 -0.0025
F1 F 0.64721(19) 0.66625(14) 0.34035(8)
F2 F 0.4250(3) 0.37460(17) 0.03172(13)
F3 F 0.2607(4) 0.36516(16) -0.04681(8)
F4 F 0.2467(3) 0.24775(12) 0.03154(8)
N1 N 0.0028(3) 0.48219(14) 0.27792(8)
N2 N 0.2958(2) 0.59973(13) 0.07729(7)
O1 O -0.11934(17) 0.47273(16) 0.14799(8)
O2 O -0.0212(2) 0.27304(14) 0.14081(8)
O3 O 0.1874(2) 0.54915(11) 0.02979(6)
S1 S 0.00047(6) 0.38938(5) 0.16139(2)
loop_
_geom_bond_atom_site_label_1
_geom_bond_atom_site_label_2
_geom_bond_site_symmetry_1
_geom_bond_site_symmetry_2
C1 C2 1_555 1_555
C2 H1 1_555 1_555
C3 C2 1_555 1_555
H2 C3 1_555 1_555
C4 C3 1_555 1_555
H3 C4 1_555 1_555
C5 C4 1_555 1_555
H4 C5 1_555 1_555
C6 H5 1_555 1_555
C7 C6 1_555 1_555
H6 C7 1_555 1_555
C8 C6 1_555 1_555
H7 C8 1_555 1_555
C9 C8 1_555 1_555
C10 C9 1_555 1_555
H8 C10 1_555 1_555
C11 C10 1_555 1_555
H9 C11 1_555 1_555
C12 C11 1_555 1_555
C13 C12 1_555 1_555
H10 C13 1_555 1_555
C14 C9 1_555 1_555
H11 C14 1_555 1_555
C15 C7 1_555 1_555
C16 C17 1_555 1_555
C17 H12 1_555 1_555
C18 C17 1_555 1_555
H13 C18 1_555 1_555
C19 C18 1_555 1_555
H14 C19 1_555 1_555
C20 C19 1_555 1_555
H15 C20 1_555 1_555
C21 C16 1_555 1_555
H16 C21 1_555 1_555
F1 C12 1_555 1_555
F2 C15 1_555 1_555
F3 C15 1_555 1_555
F4 C15 1_555 1_555
N1 C1 1_555 1_555
N2 C8 1_555 1_555
O1 S1 1_555 1_555
O2 S1 1_555 1_555
O3 C7 1_555 1_555
S1 C1 1_555 1_555
C5 N1 1_555 1_555
C6 S1 1_555 1_555
C13 C14 1_555 1_555
C16 N2 1_555 1_555
C20 C21 1_555 1_555
N2 O3 1_555 1_555

#END
