
#######################################################################
#
#                 Cambridge Crystallographic Data Centre
#                                CCDC 
#
#######################################################################
#
# If this CIF has been generated from an entry in the Cambridge 
# Structural Database, then it will include bibliographic, chemical, 
# crystal, experimental, refinement or atomic coordinate data resulting 
# from the CCDC's data processing and validation procedures.
#
#######################################################################

data_OCILAQ
_chemical_formula_moiety         'C14 H22 B10 N2 O2'
_chemical_name_systematic        
1,7-bis(hydroxy(pyridin-4-yl)methyl)-1,7-dicarba-closo-dodecaborane(10)
_symmetry_cell_setting           tetragonal
_symmetry_space_group_name_H-M   'P 41 21 2'
_symmetry_Int_Tables_number      92
_space_group_name_Hall           'P 4abw 2nw'
loop_
_symmetry_equiv_pos_site_id
_symmetry_equiv_pos_as_xyz
1 x,y,z
2 -x,-y,1/2+z
3 1/2-y,1/2+x,1/4+z
4 1/2+y,1/2-x,3/4+z
5 1/2-x,1/2+y,1/4-z
6 1/2+x,1/2-y,3/4-z
7 y,x,-z
8 -y,-x,1/2-z
_cell_length_a                   7.51260(10)
_cell_length_b                   7.51260(10)
_cell_length_c                   33.7525(6)
_cell_angle_alpha                90
_cell_angle_beta                 90
_cell_angle_gamma                90
_cell_volume                     1904.96
_exptl_crystal_colour            colorless
_exptl_crystal_description       plate
_cell_formula_units_Z            4
loop_
_atom_site_label
_atom_site_type_symbol
_atom_site_fract_x
_atom_site_fract_y
_atom_site_fract_z
N1 N 0.3408(3) 0.5969(3) 0.09257(6)
C1 C 0.7012(3) 0.6607(4) 0.08014(6)
C2 C 0.6190(3) 0.5157(3) 0.06329(7)
H1 H 0.6848 0.4350 0.0473
C3 C 0.9227(3) 0.8265(3) 0.03644(6)
C4 C 0.4238(3) 0.7333(4) 0.10946(7)
H2 H 0.3563 0.8099 0.1261
C5 C 0.6019(3) 0.7702(4) 0.10437(6)
H3 H 0.6552 0.8690 0.1173
C6 C 0.4395(4) 0.4891(4) 0.06990(7)
H4 H 0.3834 0.3896 0.0578
C7 C 0.8966(3) 0.7001(4) 0.07258(8)
H5 H 0.9374 0.7699 0.0961
B1 B 0.7403(3) 0.8967(4) 0.00964(7)
H6 H 0.5989 0.8584 0.0158
B2 B 1.1109(4) 0.7963(4) 0.00774(7)
H7 H 1.2147 0.6922 0.0132
B3 B 1.0885(4) 0.9849(4) 0.03914(8)
H8 H 1.1776 1.0045 0.0654
B4 B 0.8593(4) 1.0465(4) 0.04067(8)
H9 H 0.7976 1.1058 0.0679
B5 B 1.0109(4) 1.1664(4) 0.01026(8)
H10 H 1.0493 1.3072 0.0171
O1 O 0.9898(4) 0.5591(3) 0.07277(8)
H11 H 1.1160 0.5895 0.0765
N1F N 0.5969(3) 0.3408(3) -0.09257(6)
C1F C 0.6607(4) 0.7012(3) -0.08014(6)
C2F C 0.5157(3) 0.6190(3) -0.06329(7)
H1F H 0.4350 0.6848 -0.0473
C3F C 0.8265(3) 0.9227(3) -0.03644(6)
C4F C 0.7333(4) 0.4238(3) -0.10946(7)
H2F H 0.8099 0.3563 -0.1261
C5F C 0.7702(4) 0.6019(3) -0.10437(6)
H3F H 0.8690 0.6552 -0.1173
C6F C 0.4891(4) 0.4395(4) -0.06990(7)
H4F H 0.3896 0.3834 -0.0578
C7F C 0.7001(4) 0.8966(3) -0.07258(8)
H5F H 0.7699 0.9374 -0.0961
B1F B 0.8967(4) 0.7403(3) -0.00964(7)
H6F H 0.8584 0.5989 -0.0158
B2F B 0.7963(4) 1.1109(4) -0.00774(7)
H7F H 0.6922 1.2147 -0.0132
B3F B 0.9849(4) 1.0885(4) -0.03914(8)
H8F H 1.0045 1.1776 -0.0654
B4F B 1.0465(4) 0.8593(4) -0.04067(8)
H9F H 1.1058 0.7976 -0.0679
B5F B 1.1664(4) 1.0109(4) -0.01026(8)
H10F H 1.3072 1.0493 -0.0171
O1F O 0.5591(3) 0.9898(4) -0.07277(8)
H11F H 0.5895 1.1160 -0.0765
H12? H 0.9408 0.5839 0.0620
O2? O 0.9838(5) 0.7163(6) 0.10323(9)
H13? H 1.0949 0.6572 0.0953
loop_
_geom_bond_atom_site_label_1
_geom_bond_atom_site_label_2
_geom_bond_site_symmetry_1
_geom_bond_site_symmetry_2
N1 C4 1_555 1_555
C1 C2 1_555 1_555
C2 H1 1_555 1_555
C3 C7 1_555 1_555
C4 H2 1_555 1_555
C5 C1 1_555 1_555
H3 C5 1_555 1_555
C6 N1 1_555 1_555
H4 C6 1_555 1_555
C7 C1 1_555 1_555
H5 C7 1_555 1_555
B1 C3 1_555 1_555
H6 B1 1_555 1_555
B2 C3 1_555 1_555
H7 B2 1_555 1_555
B3 C3 1_555 1_555
H8 B3 1_555 1_555
B4 C3 1_555 1_555
H9 B4 1_555 1_555
B5 B3 1_555 1_555
H10 B5 1_555 1_555
O1 C7 1_555 1_555
H11 O1 1_555 1_555
N1F C4F 1_555 1_555
C1F C2F 1_555 1_555
C2F H1F 1_555 1_555
C3F B1 1_555 1_555
C4F H2F 1_555 1_555
C5F C1F 1_555 1_555
H3F C5F 1_555 1_555
C6F N1F 1_555 1_555
H4F C6F 1_555 1_555
C7F C1F 1_555 1_555
H5F C7F 1_555 1_555
B1F C3 1_555 1_555
H6F B1F 1_555 1_555
B2F B1 1_555 1_555
H7F B2F 1_555 1_555
B3F B5 1_555 1_555
H8F B3F 1_555 1_555
B4F B2 1_555 1_555
H9F B4F 1_555 1_555
B5F B2 1_555 1_555
H10F B5F 1_555 1_555
O1F C7F 1_555 1_555
H11F O1F 1_555 1_555
C2 C6 1_555 1_555
C4 C5 1_555 1_555
B1 B4 1_555 1_555
B1 B1F 1_555 1_555
B2 B3 1_555 1_555
B2 B1F 1_555 1_555
B3 B4 1_555 1_555
B3 B5F 1_555 1_555
B4 B5 1_555 1_555
B4 B2F 1_555 1_555
B5 B2F 1_555 1_555
B5 B5F 1_555 1_555
C2F C6F 1_555 1_555
C3F C7F 1_555 1_555
C3F B1F 1_555 1_555
C3F B2F 1_555 1_555
C3F B3F 1_555 1_555
C3F B4F 1_555 1_555
C4F C5F 1_555 1_555
B1F B4F 1_555 1_555
B2F B3F 1_555 1_555
B3F B4F 1_555 1_555
B3F B5F 1_555 1_555
B4F B5F 1_555 1_555

#END
