
#######################################################################
#
#                 Cambridge Crystallographic Data Centre
#                                CCDC 
#
#######################################################################
#
# If this CIF has been generated from an entry in the Cambridge 
# Structural Database, then it will include bibliographic, chemical, 
# crystal, experimental, refinement or atomic coordinate data resulting 
# from the CCDC's data processing and validation procedures.
#
#######################################################################

data_OCIMOD
_chemical_formula_moiety         'C15 H9 F3'
_chemical_name_systematic        3-(trifluoromethyl)phenanthrene
_symmetry_cell_setting           monoclinic
_symmetry_space_group_name_H-M   'P 21/c'
_symmetry_Int_Tables_number      14
_space_group_name_Hall           '-P 2ybc'
loop_
_symmetry_equiv_pos_site_id
_symmetry_equiv_pos_as_xyz
1 x,y,z
2 -x,1/2+y,1/2-z
3 -x,-y,-z
4 x,1/2-y,1/2+z
_cell_length_a                   11.1557(8)
_cell_length_b                   12.5428(9)
_cell_length_c                   8.0282(6)
_cell_angle_alpha                90
_cell_angle_beta                 97.4500(10)
_cell_angle_gamma                90
_cell_volume                     1113.85
_exptl_crystal_colour            colorless
_exptl_crystal_description       block
_cell_formula_units_Z            4
loop_
_atom_site_label
_atom_site_type_symbol
_atom_site_fract_x
_atom_site_fract_y
_atom_site_fract_z
C1 C 0.83709(13) 1.14099(11) 0.06656(18)
H1 H 0.8694(15) 1.1945(14) -0.002(2)
C2 C 0.90776(12) 1.06211(11) 0.14408(18)
H2 H 0.9916(15) 1.0604(12) 0.135(2)
C3 C 0.85534(10) 0.98371(10) 0.23528(15)
C4 C 0.73361(10) 0.98575(9) 0.24757(14)
H3 H 0.6987(13) 0.9306(11) 0.3103(18)
C5 C 0.47001(11) 0.99898(10) 0.27350(15)
H4 H 0.5140(13) 0.9385(11) 0.3262(18)
C6 C 0.34900(12) 1.00998(12) 0.28742(18)
H5 H 0.3122(14) 0.9569(13) 0.355(2)
C7 C 0.28318(12) 1.09471(13) 0.20895(19)
H6 H 0.1984(16) 1.1049(14) 0.223(2)
C8 C 0.33818(12) 1.16566(12) 0.11569(17)
H7 H 0.2922(14) 1.2244(13) 0.059(2)
C9 C 0.52022(14) 1.23342(10) 0.00559(16)
H8 H 0.4691(14) 1.2890(13) -0.0517(19)
C10 C 0.63920(14) 1.22805(10) -0.00567(16)
H9 H 0.6764(15) 1.2795(13) -0.072(2)
C11 C 0.46214(11) 1.15712(10) 0.10000(14)
C12 C 0.53024(10) 1.07238(8) 0.18188(13)
C13 C 0.65893(10) 1.06618(8) 0.16947(13)
C14 C 0.71263(12) 1.14513(9) 0.07675(14)
C15 C 0.93106(12) 0.89430(12) 0.31256(19)
F1 F 0.9318(5) 0.8131(4) 0.2074(7)
F2 F 1.0472(3) 0.9194(3) 0.3556(6)
F3 F 0.89445(18) 0.8562(3) 0.4500(4)
F4? F 0.913(3) 0.7999(18) 0.238(4)
F5? F 1.0430(14) 0.9195(15) 0.318(4)
F6? F 0.909(2) 0.876(2) 0.474(2)
loop_
_geom_bond_atom_site_label_1
_geom_bond_atom_site_label_2
_geom_bond_site_symmetry_1
_geom_bond_site_symmetry_2
C1 H1 1_555 1_555
C2 C1 1_555 1_555
H2 C2 1_555 1_555
C3 C2 1_555 1_555
C4 C3 1_555 1_555
H3 C4 1_555 1_555
C5 H4 1_555 1_555
C6 C5 1_555 1_555
H5 C6 1_555 1_555
C7 C6 1_555 1_555
H6 C7 1_555 1_555
C8 C7 1_555 1_555
H7 C8 1_555 1_555
C9 H8 1_555 1_555
C10 C9 1_555 1_555
H9 C10 1_555 1_555
C11 C8 1_555 1_555
C12 C5 1_555 1_555
C13 C4 1_555 1_555
C14 C1 1_555 1_555
C15 C3 1_555 1_555
F1 C15 1_555 1_555
F2 C15 1_555 1_555
F3 C15 1_555 1_555
C9 C11 1_555 1_555
C10 C14 1_555 1_555
C11 C12 1_555 1_555
C12 C13 1_555 1_555
C13 C14 1_555 1_555

#END
