
#######################################################################
#
#                 Cambridge Crystallographic Data Centre
#                                CCDC 
#
#######################################################################
#
# If this CIF has been generated from an entry in the Cambridge 
# Structural Database, then it will include bibliographic, chemical, 
# crystal, experimental, refinement or atomic coordinate data resulting 
# from the CCDC's data processing and validation procedures.
#
#######################################################################

data_OCIMES
_chemical_formula_moiety         'C30 H36 O4'
_chemical_name_systematic        
(11R)-11-Methoxycarbonyl-11-((-)-menthoxycarbonylmethyl)-9,10-dihydro-9,10-ethanoanthracene
_symmetry_cell_setting           monoclinic
_symmetry_space_group_name_H-M   'C 2'
_symmetry_Int_Tables_number      5
_space_group_name_Hall           'C 2y'
loop_
_symmetry_equiv_pos_site_id
_symmetry_equiv_pos_as_xyz
1 x,y,z
2 1/2+x,1/2+y,z
3 -x,y,-z
4 1/2-x,1/2+y,-z
_cell_length_a                   29.560(5)
_cell_length_b                   6.155(1)
_cell_length_c                   17.580(2)
_cell_angle_alpha                90
_cell_angle_beta                 125.55(1)
_cell_angle_gamma                90
_cell_volume                     2602.36
_exptl_crystal_colour            colorless
_exptl_crystal_description       block
_chemical_melting_point          '101-103 deg.C'
_cell_formula_units_Z            4
_exptl_crystal_recrystallization_method methanol
loop_
_atom_site_label
_atom_site_type_symbol
_atom_site_fract_x
_atom_site_fract_y
_atom_site_fract_z
O1 O 0.9053(2) 0.4560 0.5287(4)
O2 O 0.7032(3) 0.5163(17) 0.3238(4)
O3 O 0.8309(3) 0.6622(17) 0.4688(4)
O4 O 0.7522(3) 0.2050(17) 0.3749(4)
C1 C 0.7736(3) 0.4405(19) 0.2959(5)
C2 C 0.7320(3) 0.6521(19) 0.1450(5)
H1 H 0.7241 0.7918 0.1156
C3 C 0.7524(3) 0.2700(19) 0.2143(5)
H2 H 0.7606 0.1257 0.2397
C4 C 0.7700(3) 0.5288(19) 0.1301(5)
C5 C 0.7821(4) 0.327(2) 0.1706(5)
C6 C 0.7622(3) 0.6684(19) 0.2523(5)
H3 H 0.7969 0.7433 0.2802
H4 H 0.7388 0.7483 0.2639
C7 C 0.8341(3) 0.3978(19) 0.3718(5)
H5 H 0.8543 0.4448 0.3475
H6 H 0.8395 0.2446 0.3843
C8 C 0.7948(4) 0.600(2) 0.0869(5)
H7 H 0.7863 0.7411 0.0585
C9 C 0.6919(3) 0.310(2) 0.1447(5)
C10 C 0.8554(4) 0.522(2) 0.4595(6)
C11 C 0.6800(3) 0.516(2) 0.1057(5)
H8 H 0.9115 0.6753 0.6198
C12 C 0.9291(3) 0.537(2) 0.6229(6)
H9 H 0.6573 0.0195 0.1501
C13 C 0.6491(4) 0.172(2) 0.1222(5)
H10 H 0.9301 0.2408 0.6682
H11 H 0.8753 0.3651 0.6358
C14 C 0.7384(4) 0.405(2) 0.3329(6)
H12 H 0.8683 0.1716 0.1229
C15 C 0.9165(3) 0.373(2) 0.6718(6)
H13 H 0.6182 0.7349 0.0174
C16 C 0.8422(4) 0.265(2) 0.1244(7)
H14 H 1.0060 0.4242 0.6738
C17 C 0.6259(4) 0.583(2) 0.0436(6)
H15 H 0.9262 0.5725 0.7755
C18 C 0.9902(4) 0.568(2) 0.6708(6)
H16 H 0.8290 0.0405 0.1982
C19 C 0.9434(4) 0.434(3) 0.7734(7)
H17 H 0.5449 0.4752 -0.0289
C20 C 0.8191(4) 0.190(2) 0.1685(6)
H18 H 0.8466 0.5221 0.0488
C21 C 0.5831(4) 0.437(2) 0.0200(6)
H19 H 0.9873 0.6487 0.5583
C22 C 0.8305(4) 0.463(2) 0.0839(6)
H20 H 0.5627 0.1402 0.0423
C23 C 1.0052(4) 0.713(2) 0.6195(7)
H21 H 1.0207 0.3307 0.8196
H22 H 1.0245 0.5054 0.8880
C24 C 0.5954(4) 0.238(2) 0.0603(6)
H23 H 1.0009 0.7737 0.7743
H24 H 1.0578 0.6641 0.8096
C25 C 1.0030(4) 0.473(3) 0.8217(6)
H25 H 0.8902 0.2440 0.7933
H26 H 0.9480 0.2899 0.8878
H27 H 0.9436 0.1253 0.8157
C26 C 1.0160(4) 0.641(2) 0.7718(6)
H28 H 1.0837 0.5724 0.6724
H29 H 1.0886 0.7849 0.7259
H30 H 1.0780 0.8002 0.6277
C27 C 0.9316(4) 0.263(2) 0.8212(7)
H31 H 0.9474 0.9696 0.5790
H32 H 0.9956 1.0400 0.5715
H33 H 1.0062 1.0247 0.6697
C28 C 1.0664(4) 0.718(3) 0.6620(8)
H34 H 0.7286 -0.0090 0.4331
H35 H 0.6770 0.1224 0.3534
H36 H 0.7198 0.2324 0.4504
C29 C 0.9853(6) 0.939(3) 0.6051(10)
C30 C 0.7223(6) 0.130(3) 0.4104(9)
loop_
_geom_bond_atom_site_label_1
_geom_bond_atom_site_label_2
_geom_bond_site_symmetry_1
_geom_bond_site_symmetry_2
O1 C10 1_555 1_555
O2 C14 1_555 1_555
O3 C10 1_555 1_555
O4 C14 1_555 1_555
C1 C3 1_555 1_555
C2 H1 1_555 1_555
C3 H2 1_555 1_555
C4 C2 1_555 1_555
C5 C3 1_555 1_555
C6 C1 1_555 1_555
H3 C6 1_555 1_555
H4 C6 1_555 1_555
C7 C1 1_555 1_555
H5 C7 1_555 1_555
H6 C7 1_555 1_555
C8 C4 1_555 1_555
H7 C8 1_555 1_555
C9 C3 1_555 1_555
C10 C7 1_555 1_555
C11 C2 1_555 1_555
H8 C12 1_555 1_555
C12 O1 1_555 1_555
H9 C13 1_555 1_555
C13 C9 1_555 1_555
H10 C15 1_555 1_555
H11 C15 1_555 1_555
C14 C1 1_555 1_555
H12 C16 1_555 1_555
C15 C12 1_555 1_555
H13 C17 1_555 1_555
C16 C20 1_555 1_555
H14 C18 1_555 1_555
C17 C11 1_555 1_555
H15 C19 1_555 1_555
C18 C12 1_555 1_555
H16 C20 1_555 1_555
C19 C15 1_555 1_555
H17 C21 1_555 1_555
C20 C5 1_555 1_555
H18 C22 1_555 1_555
C21 C17 1_555 1_555
H19 C23 1_555 1_555
C22 C8 1_555 1_555
H20 C24 1_555 1_555
C23 C18 1_555 1_555
H21 C25 1_555 1_555
H22 C25 1_555 1_555
C24 C13 1_555 1_555
H23 C26 1_555 1_555
H24 C26 1_555 1_555
C25 C19 1_555 1_555
H25 C27 1_555 1_555
H26 C27 1_555 1_555
H27 C27 1_555 1_555
C26 C18 1_555 1_555
H28 C28 1_555 1_555
H29 C28 1_555 1_555
H30 C28 1_555 1_555
C27 C19 1_555 1_555
H31 C29 1_555 1_555
H32 C29 1_555 1_555
H33 C29 1_555 1_555
C28 C23 1_555 1_555
H34 C30 1_555 1_555
H35 C30 1_555 1_555
H36 C30 1_555 1_555
C29 C23 1_555 1_555
C30 O4 1_555 1_555
C2 C6 1_555 1_555
C4 C5 1_555 1_555
C9 C11 1_555 1_555
C16 C22 1_555 1_555
C21 C24 1_555 1_555
C25 C26 1_555 1_555

#END
