
#######################################################################
#
#                 Cambridge Crystallographic Data Centre
#                                CCDC 
#
#######################################################################
#
# If this CIF has been generated from an entry in the Cambridge 
# Structural Database, then it will include bibliographic, chemical, 
# crystal, experimental, refinement or atomic coordinate data resulting 
# from the CCDC's data processing and validation procedures.
#
#######################################################################

data_OCINAR01
_chemical_formula_moiety         'C42 H18 F10 N6'
_chemical_name_systematic        
5,15-bis(pentafluorophenyl)-10,20-bis(pyridin-4-yl)porphyrin
_symmetry_cell_setting           monoclinic
_symmetry_space_group_name_H-M   'C 2'
_symmetry_Int_Tables_number      5
_space_group_name_Hall           'C 2yn'
loop_
_symmetry_equiv_pos_site_id
_symmetry_equiv_pos_as_xyz
1 x,y,z
2 -x,y,1/2-z
3 1/2+x,1/2+y,z
4 1/2-x,1/2+y,1/2-z
_cell_length_a                   20.598(6)
_cell_length_b                   7.061(2)
_cell_length_c                   23.997(7)
_cell_angle_alpha                90
_cell_angle_beta                 91.832(7)
_cell_angle_gamma                90
_cell_volume                     3488.4
_cell_formula_units_Z            4
loop_
_atom_site_label
_atom_site_type_symbol
_atom_site_fract_x
_atom_site_fract_y
_atom_site_fract_z
F1 F 0.1531(5) -0.2300(13) 0.6646(3)
N1 N -0.0104(5) -0.0488(17) 0.5647(4)
F2 F -0.1548(5) 0.4724(14) 0.3350(3)
N2 N 0.0085(5) 0.3034(15) 0.4341(4)
N3 N -0.0717(4) -0.0177(15) 0.4534(4)
N4 N 0.0685(5) 0.2759(16) 0.5459(4)
C1 C 0.1424(6) -0.1018(19) 0.7026(6)
C2 C -0.1024(7) 0.1883(19) 0.3129(7)
F3 F -0.0600(5) -0.0975(14) 0.2806(3)
C3 C 0.0935(6) 0.2276(19) 0.5980(6)
C4 C 0.0010(7) -0.200(2) 0.6509(5)
C5 C -0.0941(5) 0.0212(17) 0.4015(5)
N5 N -0.2246(7) -0.704(2) 0.5666(6)
C6 C 0.0728(5) 0.0779(17) 0.6315(5)
C7 C 0.1040(6) 0.0596(17) 0.6896(5)
C8 C -0.0967(8) 0.057(2) 0.2692(8)
F4 F 0.0589(5) 0.3461(15) 0.7198(4)
C9 C 0.0523(7) 0.454(2) 0.4342(6)
C10 C -0.0517(6) -0.1990(19) 0.5697(5)
N6 N 0.2250(6) 0.9606(16) 0.4340(5)
C11 C -0.0721(7) 0.163(2) 0.3686(6)
F5 F -0.1091(6) -0.0414(19) 0.1780(4)
C12 C -0.1033(6) -0.1735(17) 0.4740(5)
C13 C 0.0238(7) -0.0554(19) 0.6146(6)
C14 C -0.0239(6) 0.293(2) 0.3827(5)
C15 C -0.1521(6) -0.2248(19) 0.4317(5)
C16 C -0.1613(9) 0.238(3) 0.2050(7)
F6 F -0.2096(5) 0.5157(16) 0.2334(4)
C17 C 0.1406(6) 0.670(2) 0.4597(5)
C18 C -0.1733(7) 0.359(2) 0.2457(7)
C19 C -0.1649(7) -0.754(3) 0.5440(7)
C20 C -0.1462(6) -0.114(2) 0.3871(6)
C21 C -0.1255(8) 0.070(2) 0.2171(6)
C22 C 0.0463(7) 0.547(2) 0.3795(6)
C23 C 0.1046(6) 0.4253(18) 0.5269(5)
F7 F 0.2092(5) -0.2651(15) 0.7665(4)
C24 C 0.1459(6) 0.3526(19) 0.6119(5)
C25 C -0.1406(7) -0.4125(18) 0.5392(6)
C26 C 0.1542(6) 0.4813(19) 0.5674(5)
F8 F -0.1899(5) 0.2498(17) 0.1549(4)
C27 C -0.0970(6) -0.2589(19) 0.5282(6)
C28 C -0.0021(7) 0.448(2) 0.3462(6)
C29 C 0.1257(6) 0.8446(18) 0.4678(6)
F9 F 0.1161(5) 0.3103(15) 0.8220(4)
C30 C -0.1400(8) 0.327(2) 0.2980(6)
C31 C 0.0964(5) 0.5022(19) 0.4762(5)
F10 F 0.1909(5) -0.013(2) 0.8451(4)
C32 C -0.1231(8) -0.609(2) 0.5269(7)
C33 C 0.2007(8) 0.635(2) 0.4367(7)
C34 C 0.0945(6) 0.185(2) 0.7296(6)
C35 C -0.2401(7) -0.528(2) 0.5739(6)
C36 C -0.2025(7) -0.366(2) 0.5609(6)
C37 C -0.0493(7) -0.289(2) 0.6234(6)
C38 C 0.1704(7) 0.9896(16) 0.4564(6)
C39 C 0.2415(7) 0.778(2) 0.4237(6)
C40 C 0.1616(9) 0.019(2) 0.7947(7)
C41 C 0.1683(8) -0.116(2) 0.7559(7)
C42 C 0.1218(10) 0.159(3) 0.7837(7)
loop_
_geom_bond_atom_site_label_1
_geom_bond_atom_site_label_2
_geom_bond_site_symmetry_1
_geom_bond_site_symmetry_2
F1 C1 1_555 1_555
N1 C10 1_555 1_555
F2 C30 1_555 1_555
N2 C9 1_555 1_555
N3 C5 1_555 1_555
N4 C3 1_555 1_555
C1 C7 1_555 1_555
C2 C8 1_555 1_555
F3 C8 1_555 1_555
C3 C6 1_555 1_555
C4 C13 1_555 1_555
C5 C11 1_555 1_555
N5 C19 1_555 1_555
C6 C7 1_555 1_555
C7 C34 1_555 1_555
C8 C21 1_555 1_555
F4 C34 1_555 1_555
C9 C22 1_555 1_555
C10 C27 1_555 1_555
N6 C38 1_555 1_555
C11 C2 1_555 1_555
F5 C21 1_555 1_555
C12 N3 1_555 1_555
C13 N1 1_555 1_555
C14 N2 1_555 1_555
C15 C12 1_555 1_555
C16 C18 1_555 1_555
F6 C18 1_555 1_555
C17 C29 1_555 1_555
C18 C30 1_555 1_555
C19 C32 1_555 1_555
C20 C5 1_555 1_555
C21 C16 1_555 1_555
C22 C28 1_555 1_555
C23 N4 1_555 1_555
F7 C41 1_555 1_555
C24 C3 1_555 1_555
C25 C27 1_555 1_555
C26 C23 1_555 1_555
F8 C16 1_555 1_555
C27 C12 1_555 1_555
C28 C14 1_555 1_555
C29 C38 1_555 1_555
F9 C42 1_555 1_555
C30 C2 1_555 1_555
C31 C9 1_555 1_555
F10 C40 1_555 1_555
C32 C25 1_555 1_555
C33 C17 1_555 1_555
C34 C42 1_555 1_555
C35 N5 1_555 1_555
C36 C25 1_555 1_555
C37 C4 1_555 1_555
C39 N6 1_555 1_555
C40 C41 1_555 1_555
C41 C1 1_555 1_555
C42 C40 1_555 1_555
C6 C13 1_555 1_555
C10 C37 1_555 1_555
C11 C14 1_555 1_555
C15 C20 1_555 1_555
C17 C31 1_555 1_555
C23 C31 1_555 1_555
C24 C26 1_555 1_555
C33 C39 1_555 1_555
C35 C36 1_555 1_555

#END
