
#######################################################################
#
#                 Cambridge Crystallographic Data Centre
#                                CCDC 
#
#######################################################################
#
# If this CIF has been generated from an entry in the Cambridge 
# Structural Database, then it will include bibliographic, chemical, 
# crystal, experimental, refinement or atomic coordinate data resulting 
# from the CCDC's data processing and validation procedures.
#
#######################################################################

data_OCISOI
_chemical_formula_moiety         'C15 H18 N4 O6'
_chemical_name_systematic        tris(2,5-Dioxopyrrolidin-1-ylmethyl)amine
_symmetry_cell_setting           triclinic
_symmetry_space_group_name_H-M   'P -1'
_symmetry_Int_Tables_number      2
_space_group_name_Hall           '-P 1'
loop_
_symmetry_equiv_pos_site_id
_symmetry_equiv_pos_as_xyz
1 x,y,z
2 -x,-y,-z
_cell_length_a                   9.417(4)
_cell_length_b                   10.618(4)
_cell_length_c                   9.072(2)
_cell_angle_alpha                102.73(3)
_cell_angle_beta                 98.11(3)
_cell_angle_gamma                65.64(3)
_cell_volume                     804.75
_exptl_crystal_colour            colorless
_exptl_crystal_description       prismatic
_cell_formula_units_Z            2
loop_
_atom_site_label
_atom_site_type_symbol
_atom_site_fract_x
_atom_site_fract_y
_atom_site_fract_z
O1 O 0.3387(3) 1.4153(2) 0.2465(3)
O2 O 0.3334(2) 0.9900(2) 0.0268(2)
O3 O 0.4970(1) 0.7809(1) 0.3274(2)
O4 O -0.0209(2) 1.0403(2) 0.2540(2)
O5 O -0.0417(2) 1.3979(2) 0.2043(2)
O6 O -0.0642(2) 1.2643(2) 0.6392(2)
N1 N 0.2351(2) 1.1637(1) 0.3792(2)
N2 N 0.3327(2) 1.1983(2) 0.1677(2)
N3 N 0.2399(2) 0.9325(1) 0.3171(2)
N4 N -0.0225(2) 1.3340(1) 0.4337(2)
C1 C 0.3719(2) 1.1526(2) 0.3137(2)
C2 C 0.3133(3) 1.3294(3) 0.1472(3)
C3 C 0.2578(3) 1.3402(3) -0.0149(4)
C4 C 0.2664(3) 1.1954(4) -0.0907(3)
C5 C 0.3119(2) 1.1116(3) 0.0347(2)
C6 C 0.2480(2) 1.0437(2) 0.4393(2)
C7 C 0.3665(2) 0.8115(2) 0.2677(2)
C8 C 0.3118(2) 0.7289(2) 0.1325(2)
C9 C 0.1447(2) 0.8241(2) 0.0955(2)
C10 C 0.1038(2) 0.9450(2) 0.2267(2)
C11 C 0.1441(2) 1.2998(2) 0.4638(2)
C12 C -0.1009(2) 1.3759(2) 0.3002(2)
C13 C -0.2647(3) 1.3892(3) 0.3025(3)
C14 C -0.2719(3) 1.3407(3) 0.4454(3)
C15 C -0.1124(2) 1.3083(2) 0.5222(2)
H1 H 0.4278 1.2085 0.3763
H2 H 0.4422 1.0534 0.2954
H3 H 0.1534 1.4067 -0.0220
H4 H 0.3234 1.3651 -0.0627
H5 H 0.3568 1.1513 -0.1664
H6 H 0.1701 1.1815 -0.1450
H7 H 0.3446 1.0048 0.4977
H8 H 0.1606 1.0682 0.5009
H9 H 0.3844 0.7096 0.0478
H10 H 0.3231 0.6467 0.1625
H11 H 0.1389 0.8615 0.0082
H12 H 0.0716 0.7790 0.0837
H13 H 0.1660 1.3039 0.5705
H14 H 0.1691 1.3691 0.4273
H15 H -0.2903 1.3342 0.2197
H16 H -0.3324 1.4838 0.2945
H17 H -0.3487 1.4124 0.5080
H18 H -0.2944 1.2587 0.4210
loop_
_geom_bond_atom_site_label_1
_geom_bond_atom_site_label_2
_geom_bond_site_symmetry_1
_geom_bond_site_symmetry_2
O1 C2 1_555 1_555
O2 C5 1_555 1_555
O3 C7 1_555 1_555
O4 C10 1_555 1_555
O5 C12 1_555 1_555
O6 C15 1_555 1_555
N1 C1 1_555 1_555
N2 C1 1_555 1_555
N3 C6 1_555 1_555
N4 C11 1_555 1_555
C1 H1 1_555 1_555
C2 N2 1_555 1_555
C3 C2 1_555 1_555
C4 C3 1_555 1_555
C5 N2 1_555 1_555
C6 N1 1_555 1_555
C7 N3 1_555 1_555
C8 C7 1_555 1_555
C9 C8 1_555 1_555
C10 N3 1_555 1_555
C11 N1 1_555 1_555
C12 N4 1_555 1_555
C13 C12 1_555 1_555
C14 C13 1_555 1_555
C15 N4 1_555 1_555
H2 C1 1_555 1_555
H3 C3 1_555 1_555
H4 C3 1_555 1_555
H5 C4 1_555 1_555
H6 C4 1_555 1_555
H7 C6 1_555 1_555
H8 C6 1_555 1_555
H9 C8 1_555 1_555
H10 C8 1_555 1_555
H11 C9 1_555 1_555
H12 C9 1_555 1_555
H13 C11 1_555 1_555
H14 C11 1_555 1_555
H15 C13 1_555 1_555
H16 C13 1_555 1_555
H17 C14 1_555 1_555
H18 C14 1_555 1_555
C4 C5 1_555 1_555
C9 C10 1_555 1_555
C14 C15 1_555 1_555

#END
