
#######################################################################
#
#                 Cambridge Crystallographic Data Centre
#                                CCDC 
#
#######################################################################
#
# If this CIF has been generated from an entry in the Cambridge 
# Structural Database, then it will include bibliographic, chemical, 
# crystal, experimental, refinement or atomic coordinate data resulting 
# from the CCDC's data processing and validation procedures.
#
#######################################################################

data_OCIVOM
_chemical_name_common            'amarine hemihydrate'
_chemical_formula_moiety         'C21 H18 N2,0.5(H2 O1)'
_chemical_name_systematic        
'2,4,5-triphenyl-4,5-dihydro-1H-imidazole hemihydrate'
_symmetry_cell_setting           triclinic
_symmetry_space_group_name_H-M   'P -1'
_symmetry_Int_Tables_number      2
_space_group_name_Hall           '-P 1'
loop_
_symmetry_equiv_pos_site_id
_symmetry_equiv_pos_as_xyz
1 x,y,z
2 -x,-y,-z
_cell_length_a                   11.791(3)
_cell_length_b                   12.232(3)
_cell_length_c                   14.151(4)
_cell_angle_alpha                66.775(4)
_cell_angle_beta                 81.245(5)
_cell_angle_gamma                64.868(5)
_cell_volume                     1697.73
_cell_formula_units_Z            4
loop_
_atom_site_label
_atom_site_type_symbol
_atom_site_fract_x
_atom_site_fract_y
_atom_site_fract_z
C1 C 1.3603(3) -0.5966(3) 0.5146(2)
N1 N 1.3495(2) -0.5156(2) 0.65072(18)
N3 N 1.5341(2) -0.6622(3) 0.62771(18)
H2 H 1.5868 -0.7160 0.6010
C4 C 1.3836(3) -0.5454(3) 0.8287(2)
C6 C 1.4166(3) -0.5904(3) 0.5981(2)
C9 C 1.4294(3) -0.6789(3) 0.4642(2)
H4 H 1.5131 -0.7324 0.4825
C10 C 1.4358(3) -0.5279(3) 0.7229(2)
H5 H 1.4484 -0.4469 0.6970
C11 C 1.2362(3) -0.5180(3) 0.4862(2)
H6 H 1.1882 -0.4622 0.5201
C12 C 1.3262(3) -0.6302(3) 0.8769(2)
H7 H 1.3210 -0.6802 0.8437
C13 C 1.6099(3) -0.7586(3) 0.8065(2)
C14 C 1.5626(3) -0.6378(3) 0.7119(2)
H8 H 1.6268 -0.6024 0.6897
C19 C 1.1832(4) -0.5219(4) 0.4085(3)
H13 H 1.0997 -0.4681 0.3896
C20 C 1.3752(4) -0.6827(4) 0.3867(3)
H14 H 1.4227 -0.7393 0.3533
C21 C 1.5745(3) -0.8594(4) 0.8300(3)
H15 H 1.5234 -0.8559 0.7841
C27 C 1.6880(3) -0.7678(4) 0.8749(3)
H21 H 1.7152 -0.7019 0.8605
C28 C 1.2530(4) -0.6049(4) 0.3582(3)
H22 H 1.2171 -0.6079 0.3055
C30 C 1.2766(3) -0.6423(4) 0.9727(3)
H24 H 1.2386 -0.7005 1.0038
C34 C 1.6876(5) -0.9729(5) 0.9884(3)
H28 H 1.7120 -1.0437 1.0502
C35 C 1.3906(4) -0.4736(4) 0.8806(3)
H29 H 1.4300 -0.4165 0.8508
C38 C 1.3387(5) -0.4866(5) 0.9779(4)
H32 H 1.3427 -0.4374 1.0123
C40 C 1.2823(4) -0.5708(6) 1.0223(3)
H34 H 1.2476 -0.5790 1.0871
C41 C 1.6131(4) -0.9658(4) 0.9205(3)
H35 H 1.5878 -1.0331 0.9349
C42 C 1.7263(4) -0.8766(6) 0.9658(3)
H36 H 1.7794 -0.8827 1.0116
N2 N 0.9663(2) -0.1689(3) 0.4627(2)
H1 H 1.0175 -0.2492 0.4854
C2 C 0.9219(3) -0.1523(3) 0.6323(2)
C3 C 0.9306(3) -0.1552(3) 0.2902(2)
C5 C 0.8993(3) -0.0991(3) 0.5215(2)
C7 C 0.6976(3) 0.0502(3) 0.3260(2)
C8 C 0.8565(3) -0.0808(3) 0.6923(3)
H3 H 0.7941 0.0015 0.6621
N4 N 0.8153(3) 0.0128(3) 0.4735(2)
C15 C 0.9376(3) -0.0857(3) 0.3547(2)
H9 H 1.0050 -0.0554 0.3280
C16 C 0.8184(3) 0.0321(3) 0.3636(2)
H10 H 0.8328 0.1112 0.3244
C17 C 0.6579(3) 0.1292(3) 0.2261(2)
H11 H 0.7066 0.1715 0.1830
C18 C 0.8724(3) -0.2400(3) 0.3229(2)
H12 H 0.8333 -0.2531 0.3862
C22 C 0.5129(4) 0.0078(4) 0.3497(3)
H16 H 0.4638 -0.0342 0.3924
C23 C 1.0112(3) -0.2759(4) 0.6809(3)
H17 H 1.0546 -0.3279 0.6428
C24 C 0.9860(3) -0.1379(4) 0.1958(3)
H18 H 1.0256 -0.0807 0.1714
C25 C 0.8814(4) -0.1287(4) 0.7959(3)
H19 H 0.8362 -0.0783 0.8348
C26 C 0.6227(3) -0.0107(3) 0.3867(3)
H20 H 0.6475 -0.0656 0.4544
C29 C 0.9718(4) -0.2494(5) 0.8423(3)
H23 H 0.9891 -0.2812 0.9123
C31 C 0.5477(4) 0.1472(4) 0.1881(3)
H25 H 0.5236 0.2002 0.1200
C32 C 0.4745(4) 0.0880(4) 0.2498(3)
H26 H 0.3992 0.1013 0.2249
C33 C 0.8709(4) -0.3059(4) 0.2639(3)
H27 H 0.8314 -0.3632 0.2878
C36 C 1.0369(4) -0.3232(4) 0.7844(3)
H30 H 1.0987 -0.4057 0.8153
C37 C 0.9844(4) -0.2032(5) 0.1365(3)
H31 H 1.0227 -0.1899 0.0728
C39 C 0.9270(4) -0.2874(4) 0.1707(3)
H33 H 0.9261 -0.3319 0.1308
O1 O 0.75319(18) 0.2482(2) 0.50459(15)
loop_
_geom_bond_atom_site_label_1
_geom_bond_atom_site_label_2
_geom_bond_site_symmetry_1
_geom_bond_site_symmetry_2
C1 C6 1_555 1_555
N1 C6 1_555 1_555
N2 H1 1_555 1_555
C2 C5 1_555 1_555
N3 H2 1_555 1_555
C3 C15 1_555 1_555
C4 C10 1_555 1_555
C5 N2 1_555 1_555
C6 N3 1_555 1_555
C7 C16 1_555 1_555
C8 C2 1_555 1_555
H3 C8 1_555 1_555
C9 C1 1_555 1_555
H4 C9 1_555 1_555
N4 C5 1_555 1_555
C10 N1 1_555 1_555
H5 C10 1_555 1_555
C11 C1 1_555 1_555
H6 C11 1_555 1_555
C12 C4 1_555 1_555
H7 C12 1_555 1_555
C13 C14 1_555 1_555
C14 N3 1_555 1_555
H8 C14 1_555 1_555
C15 N2 1_555 1_555
H9 C15 1_555 1_555
C16 N4 1_555 1_555
H10 C16 1_555 1_555
C17 C7 1_555 1_555
H11 C17 1_555 1_555
C18 C3 1_555 1_555
H12 C18 1_555 1_555
C19 C11 1_555 1_555
H13 C19 1_555 1_555
C20 C9 1_555 1_555
H14 C20 1_555 1_555
C21 C13 1_555 1_555
H15 C21 1_555 1_555
C22 H16 1_555 1_555
C23 C2 1_555 1_555
H17 C23 1_555 1_555
C24 C3 1_555 1_555
H18 C24 1_555 1_555
C25 C8 1_555 1_555
H19 C25 1_555 1_555
C26 C7 1_555 1_555
H20 C26 1_555 1_555
C27 C13 1_555 1_555
H21 C27 1_555 1_555
C28 C19 1_555 1_555
H22 C28 1_555 1_555
C29 C25 1_555 1_555
H23 C29 1_555 1_555
C30 C12 1_555 1_555
H24 C30 1_555 1_555
C31 C17 1_555 1_555
H25 C31 1_555 1_555
C32 C22 1_555 1_555
H26 C32 1_555 1_555
C33 C18 1_555 1_555
H27 C33 1_555 1_555
C34 H28 1_555 1_555
C35 C4 1_555 1_555
H29 C35 1_555 1_555
C36 C23 1_555 1_555
H30 C36 1_555 1_555
C37 C24 1_555 1_555
H31 C37 1_555 1_555
C38 C35 1_555 1_555
H32 C38 1_555 1_555
C39 C33 1_555 1_555
H33 C39 1_555 1_555
C40 C30 1_555 1_555
H34 C40 1_555 1_555
C41 C21 1_555 1_555
H35 C41 1_555 1_555
C42 C27 1_555 1_555
H36 C42 1_555 1_555
C10 C14 1_555 1_555
C15 C16 1_555 1_555
C20 C28 1_555 1_555
C22 C26 1_555 1_555
C29 C36 1_555 1_555
C31 C32 1_555 1_555
C34 C41 1_555 1_555
C34 C42 1_555 1_555
C37 C39 1_555 1_555
C38 C40 1_555 1_555

#END
