
#######################################################################
#
#                 Cambridge Crystallographic Data Centre
#                                CCDC 
#
#######################################################################
#
# If this CIF has been generated from an entry in the Cambridge 
# Structural Database, then it will include bibliographic, chemical, 
# crystal, experimental, refinement or atomic coordinate data resulting 
# from the CCDC's data processing and validation procedures.
#
#######################################################################

data_OCIYOR
_chemical_formula_moiety         'C12 H8 F3 N3 O2 S1,C2 H6 O1'
_chemical_name_systematic        
'2-(2,2,2-trifluoro-1-(2-oxo-2H-chromen-3-yl)ethylidene)hydrazinecarbothioamide ethanol solvate'
_symmetry_cell_setting           triclinic
_symmetry_space_group_name_H-M   'P -1'
_symmetry_Int_Tables_number      2
_space_group_name_Hall           '-P 1'
loop_
_symmetry_equiv_pos_site_id
_symmetry_equiv_pos_as_xyz
1 x,y,z
2 -x,-y,-z
_cell_length_a                   6.3535(4)
_cell_length_b                   11.6184(9)
_cell_length_c                   11.8391(9)
_cell_angle_alpha                100.876(7)
_cell_angle_beta                 104.270(6)
_cell_angle_gamma                95.527(6)
_cell_volume                     822.335
_cell_formula_units_Z            2
loop_
_atom_site_label
_atom_site_type_symbol
_atom_site_fract_x
_atom_site_fract_y
_atom_site_fract_z
S1 S 1.14511(11) -0.11003(6) 0.38952(6)
F1 F 0.1360(3) 0.0988(2) 0.17840(18)
F2 F 0.3578(4) 0.1866(2) 0.10504(19)
F3 F 0.2837(4) 0.0009(2) 0.05764(18)
O1 O 0.8084(3) 0.36386(16) 0.47391(17)
O2 O 0.8960(3) 0.2571(2) 0.3235(2)
N1 N 0.6176(3) 0.00168(19) 0.23159(18)
N2 N 0.7945(4) -0.0104(2) 0.3176(2)
H1 H 0.839(5) 0.033(3) 0.3907(19)
N3 N 0.8506(5) -0.1604(3) 0.1788(2)
H2 H 0.928(6) -0.213(3) 0.160(4)
H3 H 0.740(4) -0.141(3) 0.131(3)
C1 C 0.3406(5) 0.3357(3) 0.6005(3)
H4 H 0.2107 0.2855 0.5895
C2 C 0.3987(6) 0.4358(3) 0.6904(3)
H5 H 0.3079 0.4535 0.7401
C3 C 0.5919(6) 0.5105(3) 0.7074(3)
H6 H 0.6299 0.5782 0.7687
C4 C 0.7294(5) 0.4864(2) 0.6352(3)
H7 H 0.8591 0.5370 0.6466
C5 C 0.6689(4) 0.3851(2) 0.5456(2)
C6 C 0.4754(4) 0.3088(2) 0.5253(2)
C7 C 0.4237(4) 0.2084(2) 0.4279(2)
H8 H 0.2937 0.1568 0.4124
C8 C 0.5592(4) 0.1870(2) 0.3581(2)
C9 C 0.7645(4) 0.2678(2) 0.3809(2)
C10 C 0.5110(4) 0.0875(2) 0.2524(2)
C11 C 0.3202(5) 0.0910(3) 0.1474(2)
C12 C 0.9172(4) -0.0950(2) 0.2883(2)
O3 O 0.1183(11) 0.6646(5) 0.1260(5)
C13 C 0.2694(17) 0.6780(11) 0.0677(9)
C14 C 0.151(2) 0.6643(11) -0.0583(9)
O4? O 0.327(3) 0.6074(16) -0.0165(15)
C15? C 0.229(5) 0.698(2) 0.012(4)
C16? C 0.005(5) 0.642(3) 0.020(3)
loop_
_geom_bond_atom_site_label_1
_geom_bond_atom_site_label_2
_geom_bond_site_symmetry_1
_geom_bond_site_symmetry_2
S1 C12 1_555 1_555
F1 C11 1_555 1_555
F2 C11 1_555 1_555
F3 C11 1_555 1_555
O1 C5 1_555 1_555
O2 C9 1_555 1_555
N1 N2 1_555 1_555
N2 H1 1_555 1_555
N3 H2 1_555 1_555
H3 N3 1_555 1_555
C1 H4 1_555 1_555
C2 C1 1_555 1_555
H5 C2 1_555 1_555
C3 C2 1_555 1_555
H6 C3 1_555 1_555
C4 C3 1_555 1_555
H7 C4 1_555 1_555
C5 C4 1_555 1_555
C6 C1 1_555 1_555
C7 C6 1_555 1_555
H8 C7 1_555 1_555
C8 C7 1_555 1_555
C9 O1 1_555 1_555
C10 N1 1_555 1_555
C11 C10 1_555 1_555
C12 N2 1_555 1_555
O3 C13 1_555 1_555
C13 C14 1_555 1_555
N3 C12 1_555 1_555
C5 C6 1_555 1_555
C8 C9 1_555 1_555
C8 C10 1_555 1_555

#END
