
#######################################################################
#
#                 Cambridge Crystallographic Data Centre
#                                CCDC 
#
#######################################################################
#
# If this CIF has been generated from an entry in the Cambridge 
# Structural Database, then it will include bibliographic, chemical, 
# crystal, experimental, refinement or atomic coordinate data resulting 
# from the CCDC's data processing and validation procedures.
#
#######################################################################

data_OCIYAA
_chemical_formula_moiety         'C23 H22 O3 S1'
_chemical_name_systematic        
2,2-bis(4-Methoxyphenyl)-4-phenyl-1,3-oxathiolane
_symmetry_cell_setting           monoclinic
_symmetry_space_group_name_H-M   'P 21'
_symmetry_Int_Tables_number      4
_space_group_name_Hall           'P 2yb'
loop_
_symmetry_equiv_pos_site_id
_symmetry_equiv_pos_as_xyz
1 x,y,z
2 -x,1/2+y,-z
_cell_length_a                   11.573(3)
_cell_length_b                   5.750(2)
_cell_length_c                   15.225(2)
_cell_angle_alpha                90
_cell_angle_beta                 111.29(1)
_cell_angle_gamma                90
_cell_volume                     944.001
_exptl_crystal_colour            colorless
_exptl_crystal_description       prism
_chemical_melting_point          409.3-410.3K
_cell_formula_units_Z            2
_exptl_crystal_recrystallization_method 'diethyl ether/methanol'
loop_
_atom_site_label
_atom_site_type_symbol
_atom_site_fract_x
_atom_site_fract_y
_atom_site_fract_z
S1 S 0.48307(4) 0.29960 0.32768(3)
O1 O 0.5272(1) 0.7485(2) 0.34409(7)
O2 O 0.7031(1) 0.5749(3) 0.00304(8)
O3 O 1.0387(1) 0.5439(3) 0.66309(8)
C1 C 0.5935(2) 0.5457(3) 0.3382(1)
C2 C 0.3706(2) 0.4880(3) 0.3519(1)
C3 C 0.4507(2) 0.7011(3) 0.3958(1)
C4 C 0.6215(1) 0.5609(3) 0.2477(1)
C5 C 0.5756(2) 0.7412(3) 0.1842(1)
C6 C 0.6005(2) 0.7520(3) 0.1007(1)
C7 C 0.6718(2) 0.5800(3) 0.0816(1)
C8 C 0.7166(2) 0.3974(3) 0.1445(1)
C9 C 0.6927(2) 0.3898(3) 0.2272(1)
C10 C 0.6652(2) 0.7665(5) -0.0601(1)
C11 C 0.7123(1) 0.5263(3) 0.4264(1)
C12 C 0.7441(1) 0.3374(3) 0.4865(1)
C13 C 0.8521(1) 0.3363(3) 0.5668(1)
C14 C 0.9299(2) 0.5267(4) 0.5869(1)
C15 C 0.9008(2) 0.7189(3) 0.5266(1)
C16 C 0.7933(2) 0.7168(3) 0.4477(1)
C17 C 1.0690(2) 0.3532(4) 0.7272(1)
C18 C 0.2581(1) 0.5325(3) 0.2639(1)
C19 C 0.2508(2) 0.7207(4) 0.2047(1)
C20 C 0.1482(2) 0.7483(4) 0.1229(1)
C21 C 0.0519(2) 0.5924(4) 0.0998(1)
C22 C 0.0581(2) 0.4056(4) 0.1578(1)
C23 C 0.1605(2) 0.3752(3) 0.2394(1)
H1 H 0.345 0.416 0.398
H2 H 0.527 0.859 0.197
H3 H 0.569 0.876 0.058
H4 H 0.764 0.277 0.131
H5 H 0.725 0.266 0.270
H6 H 0.691 0.205 0.473
H7 H 0.872 0.205 0.607
H8 H 0.955 0.850 0.540
H9 H 0.774 0.848 0.407
H10 H 0.317 0.831 0.221
H11 H 0.144 0.876 0.082
H12 H -0.008 0.297 0.142
H13 H 0.164 0.246 0.279
H14 H -0.019 0.613 0.044
H15 H 0.501 0.670 0.460
H16 H 0.399 0.831 0.393
H17 H 0.578 0.764 -0.091
H18 H 0.703 0.756 -0.106
H19 H 0.689 0.908 -0.026
H20 H 1.009 0.342 0.757
H21 H 1.149 0.377 0.774
H22 H 1.069 0.213 0.694
loop_
_geom_bond_atom_site_label_1
_geom_bond_atom_site_label_2
_geom_bond_site_symmetry_1
_geom_bond_site_symmetry_2
S1 C1 1_555 1_555
O1 C1 1_555 1_555
O2 C7 1_555 1_555
O3 C14 1_555 1_555
C1 C4 1_555 1_555
C2 S1 1_555 1_555
C3 O1 1_555 1_555
C4 C5 1_555 1_555
C5 C6 1_555 1_555
C6 C7 1_555 1_555
C7 C8 1_555 1_555
C8 C9 1_555 1_555
C9 C4 1_555 1_555
C10 O2 1_555 1_555
C11 C1 1_555 1_555
C12 C11 1_555 1_555
C13 C12 1_555 1_555
C14 C13 1_555 1_555
C15 C14 1_555 1_555
C16 C11 1_555 1_555
C17 O3 1_555 1_555
C18 C2 1_555 1_555
C19 C18 1_555 1_555
C20 C19 1_555 1_555
C21 C20 1_555 1_555
C22 C21 1_555 1_555
C23 C18 1_555 1_555
H1 C2 1_555 1_555
H2 C5 1_555 1_555
H3 C6 1_555 1_555
H4 C8 1_555 1_555
H5 C9 1_555 1_555
H6 C12 1_555 1_555
H7 C13 1_555 1_555
H8 C15 1_555 1_555
H9 C16 1_555 1_555
H10 C19 1_555 1_555
H11 C20 1_555 1_555
H12 C22 1_555 1_555
H13 C23 1_555 1_555
H14 C21 1_555 1_555
H15 C3 1_555 1_555
H16 C3 1_555 1_555
H17 C10 1_555 1_555
H18 C10 1_555 1_555
H19 C10 1_555 1_555
H20 C17 1_555 1_555
H21 C17 1_555 1_555
H22 C17 1_555 1_555
C2 C3 1_555 1_555
C15 C16 1_555 1_555
C22 C23 1_555 1_555

#END
