
#######################################################################
#
#                 Cambridge Crystallographic Data Centre
#                                CCDC 
#
#######################################################################
#
# If this CIF has been generated from an entry in the Cambridge 
# Structural Database, then it will include bibliographic, chemical, 
# crystal, experimental, refinement or atomic coordinate data resulting 
# from the CCDC's data processing and validation procedures.
#
#######################################################################

data_OCIYOO
_chemical_formula_moiety         'C21 H24 O1 S1'
_chemical_name_systematic        
1,1,3,3-Tetramethyl-4'-phenylspiro(indane-2,2'-(1,3)oxathiolane)
_symmetry_cell_setting           monoclinic
_symmetry_space_group_name_H-M   'P 21/c'
_symmetry_Int_Tables_number      14
_space_group_name_Hall           '-P 2ybc'
loop_
_symmetry_equiv_pos_site_id
_symmetry_equiv_pos_as_xyz
1 x,y,z
2 x,1/2-y,1/2+z
3 -x,-y,-z
4 -x,1/2+y,1/2-z
_cell_length_a                   14.635(5)
_cell_length_b                   7.926(3)
_cell_length_c                   16.860(3)
_cell_angle_alpha                90
_cell_angle_beta                 110.24(2)
_cell_angle_gamma                90
_cell_volume                     1834.95
_exptl_crystal_colour            colorless
_exptl_crystal_description       prism
_chemical_melting_point          376.5-377.0K
_cell_formula_units_Z            4
_exptl_crystal_recrystallization_method tetrahydrofuran
loop_
_atom_site_label
_atom_site_type_symbol
_atom_site_fract_x
_atom_site_fract_y
_atom_site_fract_z
S1 S 0.25665(5) 1.10043(9) 0.55856(4)
O1 O 0.3136(1) 0.8895(2) 0.46450(9)
C1 C 0.2436(2) 1.0228(3) 0.4521(1)
C2 C 0.3722(2) 0.9907(4) 0.6066(2)
C4 C 0.3549(2) 0.8336(3) 0.5490(1)
C5 C 0.1396(2) 0.9527(3) 0.4000(1)
C6 C 0.1392(2) 0.9766(3) 0.3102(1)
C7 C 0.0790(2) 0.9007(3) 0.2367(2)
C8 C 0.0901(2) 0.9403(4) 0.1604(2)
C9 C 0.1601(2) 1.0536(3) 0.1573(2)
C10 C 0.2208(2) 1.1288(3) 0.2308(2)
C11 C 0.2103(2) 1.0892(3) 0.3074(1)
C12 C 0.2691(2) 1.1572(3) 0.3941(1)
C13 C 0.0569(2) 1.0562(4) 0.4123(2)
C14 C 0.1264(2) 0.7689(3) 0.4213(2)
C15 C 0.2350(2) 1.3380(3) 0.4047(2)
C16 C 0.3787(2) 1.1655(4) 0.4091(2)
C17 C 0.3919(3) 0.9464(6) 0.6982(2)
C19 C 0.4840(3) 0.9796(4) 0.7576(3)
C21 C 0.5069(5) 0.9304(7) 0.8426(4)
C23 C 0.4364(4) 0.8499(6) 0.8662(3)
C25 C 0.3441(3) 0.8190(4) 0.8072(3)
C27 C 0.3223(2) 0.8674(4) 0.7241(3)
H1 H 0.424 1.056 0.601
H3 H 0.031 0.822 0.238
H4 H 0.049 0.889 0.110
H5 H 0.167 1.080 0.105
H6 H 0.269 1.207 0.229
H7 H 0.531 1.036 0.741
H9 H 0.570 0.952 0.883
H11 H 0.451 0.815 0.923
H13 H 0.296 0.765 0.824
H15 H 0.259 0.846 0.684
H17 H 0.415 0.778 0.557
H18 H 0.311 0.758 0.562
H21 H 0.062 1.052 0.470
H22 H -0.004 1.010 0.378
H23 H 0.061 1.170 0.396
H24 H 0.174 0.701 0.410
H25 H 0.134 0.760 0.479
H26 H 0.063 0.731 0.388
H27 H 0.274 1.381 0.458
H28 H 0.242 1.408 0.361
H29 H 0.169 1.335 0.401
H30 H 0.400 1.060 0.395
H31 H 0.413 1.190 0.467
H32 H 0.391 1.252 0.375
C3? C 0.2999(8) 0.877(1) 0.6122(7)
C18? C 0.367(1) 0.898(2) 0.701(1)
C20? C 0.446(2) 0.987(2) 0.718(1)
C22? C 0.524(1) 0.999(2) 0.800(1)
C24? C 0.498(2) 0.917(4) 0.864(1)
C26? C 0.405(2) 0.844(3) 0.846(1)
C28? C 0.351(1) 0.824(2) 0.768(1)
H2? H 0.247 0.803 0.607
H8? H 0.455 1.048 0.673
H10? H 0.578 1.073 0.810
H12? H 0.543 0.911 0.920
H14? H 0.383 0.809 0.891
H16? H 0.296 0.750 0.756
H19? H 0.360 0.714 0.548
H20? H 0.418 0.881 0.572
loop_
_geom_bond_atom_site_label_1
_geom_bond_atom_site_label_2
_geom_bond_site_symmetry_1
_geom_bond_site_symmetry_2
S1 C1 1_555 1_555
O1 C1 1_555 1_555
C1 C5 1_555 1_555
C2 S1 1_555 1_555
C4 O1 1_555 1_555
C5 C6 1_555 1_555
C6 C7 1_555 1_555
C7 C8 1_555 1_555
C8 C9 1_555 1_555
C9 C10 1_555 1_555
C10 C11 1_555 1_555
C11 C6 1_555 1_555
C12 C1 1_555 1_555
C13 C5 1_555 1_555
C14 C5 1_555 1_555
C15 C12 1_555 1_555
C16 C12 1_555 1_555
C17 C2 1_555 1_555
C19 C17 1_555 1_555
C21 C19 1_555 1_555
C23 C21 1_555 1_555
C25 C23 1_555 1_555
C27 C17 1_555 1_555
H1 C2 1_555 1_555
H3 C7 1_555 1_555
H4 C8 1_555 1_555
H5 C9 1_555 1_555
H6 C10 1_555 1_555
H7 C19 1_555 1_555
H9 C21 1_555 1_555
H11 C23 1_555 1_555
H13 C25 1_555 1_555
H15 C27 1_555 1_555
H17 C4 1_555 1_555
H18 C4 1_555 1_555
H21 C13 1_555 1_555
H22 C13 1_555 1_555
H23 C13 1_555 1_555
H24 C14 1_555 1_555
H25 C14 1_555 1_555
H26 C14 1_555 1_555
H27 C15 1_555 1_555
H28 C15 1_555 1_555
H29 C15 1_555 1_555
H30 C16 1_555 1_555
H31 C16 1_555 1_555
H32 C16 1_555 1_555
C2 C4 1_555 1_555
C11 C12 1_555 1_555
C25 C27 1_555 1_555

#END
