
#######################################################################
#
#                 Cambridge Crystallographic Data Centre
#                                CCDC 
#
#######################################################################
#
# If this CIF has been generated from an entry in the Cambridge 
# Structural Database, then it will include bibliographic, chemical, 
# crystal, experimental, refinement or atomic coordinate data resulting 
# from the CCDC's data processing and validation procedures.
#
#######################################################################

data_OCOBEO
_chemical_name_common            (R,R)-dimethyl-O,O'-di(t-butyl)tartramide
_chemical_formula_moiety         'C14 H28 N2 O4'
_chemical_name_systematic        
(R,R)-2,3-di-t-butoxy-N,N'-dimethylsuccinamide
_symmetry_cell_setting           tetragonal
_symmetry_space_group_name_H-M   'P 43 21 2'
_symmetry_Int_Tables_number      96
_space_group_name_Hall           'P 4nw 2abw'
loop_
_symmetry_equiv_pos_site_id
_symmetry_equiv_pos_as_xyz
1 x,y,z
2 -x,-y,1/2+z
3 1/2-y,1/2+x,3/4+z
4 1/2+y,1/2-x,1/4+z
5 1/2-x,1/2+y,3/4-z
6 1/2+x,1/2-y,1/4-z
7 y,x,-z
8 -y,-x,1/2-z
_cell_length_a                   6.9540(10)
_cell_length_b                   6.9540(10)
_cell_length_c                   36.021(7)
_cell_angle_alpha                90
_cell_angle_beta                 90
_cell_angle_gamma                90
_cell_volume                     1741.91
_exptl_crystal_colour            colorless
_exptl_crystal_description       needle
_chemical_melting_point          '197 deg.C'
_cell_formula_units_Z            4
_exptl_crystal_recrystallization_method 'ethyl acetate/hexane'
loop_
_atom_site_label
_atom_site_type_symbol
_atom_site_fract_x
_atom_site_fract_y
_atom_site_fract_z
O1 O 1.07094(19) 0.6358(2) -0.02331(4)
O2 O 0.66708(17) 0.55843(16) 0.03590(3)
N1 N 0.8942(2) 0.3676(2) -0.01401(4)
C1 C 0.7911(2) 0.6700(3) 0.01348(4)
C2 C 0.9324(3) 0.5522(3) -0.00922(5)
C3 C 1.0121(4) 0.2482(4) -0.03788(7)
C4 C 0.7159(3) 0.5423(3) 0.07506(4)
C5 C 0.9123(4) 0.4511(5) 0.07973(6)
H1 H 0.9132 0.3273 0.0679
H2 H 1.0077 0.5320 0.0685
H3 H 0.9405 0.4362 0.1057
C6 C 0.5582(5) 0.4152(4) 0.08985(6)
C7 C 0.7078(4) 0.7382(3) 0.09359(5)
H4 H 0.7894 0.3262 -0.0014
H5 H 0.8656 0.7683 0.0289
H6 H 0.9968 0.1210 -0.0324
H7 H 0.9889 0.2619 -0.0621
H8 H 1.1567 0.2843 -0.0306
H9 H 0.5814 0.3984 0.1164
H10 H 0.5886 0.2981 0.0776
H11 H 0.4070 0.4560 0.0832
H12 H 0.7156 0.7257 0.1212
H13 H 0.8133 0.8242 0.0856
H14 H 0.5674 0.7916 0.0897
O1F O 0.6358(2) 1.07094(19) 0.02331(4)
O2F O 0.55843(16) 0.66708(17) -0.03590(3)
N1F N 0.3676(2) 0.8942(2) 0.01401(4)
C1F C 0.6700(3) 0.7911(2) -0.01348(4)
C2F C 0.5522(3) 0.9324(3) 0.00922(5)
C3F C 0.2482(4) 1.0121(4) 0.03788(7)
C4F C 0.5423(3) 0.7159(3) -0.07506(4)
C5F C 0.4511(5) 0.9123(4) -0.07973(6)
H1F H 0.3273 0.9132 -0.0679
H2F H 0.5320 1.0077 -0.0685
H3F H 0.4362 0.9405 -0.1057
C6F C 0.4152(4) 0.5582(5) -0.08985(6)
C7F C 0.7382(3) 0.7078(4) -0.09359(5)
H4F H 0.3262 0.7894 0.0014
H5F H 0.7683 0.8656 -0.0289
H6F H 0.1210 0.9968 0.0324
H7F H 0.2619 0.9889 0.0621
H8F H 0.2843 1.1567 0.0306
H9F H 0.3984 0.5814 -0.1164
H10F H 0.2981 0.5886 -0.0776
H11F H 0.4560 0.4070 -0.0832
H12F H 0.7257 0.7156 -0.1212
H13F H 0.8242 0.8133 -0.0856
H14F H 0.7916 0.5674 -0.0897
loop_
_geom_bond_atom_site_label_1
_geom_bond_atom_site_label_2
_geom_bond_site_symmetry_1
_geom_bond_site_symmetry_2
O1 C2 1_555 1_555
O2 C1 1_555 1_555
N1 C2 1_555 1_555
C1 C2 1_555 1_555
C3 N1 1_555 1_555
C4 O2 1_555 1_555
C5 C4 1_555 1_555
H1 C5 1_555 1_555
H2 C5 1_555 1_555
H3 C5 1_555 1_555
C6 C4 1_555 1_555
C7 C4 1_555 1_555
H4 N1 1_555 1_555
H5 C1 1_555 1_555
H6 C3 1_555 1_555
H7 C3 1_555 1_555
H8 C3 1_555 1_555
H9 C6 1_555 1_555
H10 C6 1_555 1_555
H11 C6 1_555 1_555
H12 C7 1_555 1_555
H13 C7 1_555 1_555
H14 C7 1_555 1_555
O1F C2F 1_555 1_555
O2F C1F 1_555 1_555
N1F C2F 1_555 1_555
C1F C1 1_555 1_555
C2F C1F 1_555 1_555
C3F N1F 1_555 1_555
C4F O2F 1_555 1_555
C5F C4F 1_555 1_555
H1F C5F 1_555 1_555
H2F C5F 1_555 1_555
H3F C5F 1_555 1_555
C6F C4F 1_555 1_555
C7F C4F 1_555 1_555
H4F N1F 1_555 1_555
H5F C1F 1_555 1_555
H6F C3F 1_555 1_555
H7F C3F 1_555 1_555
H8F C3F 1_555 1_555
H9F C6F 1_555 1_555
H10F C6F 1_555 1_555
H11F C6F 1_555 1_555
H12F C7F 1_555 1_555
H13F C7F 1_555 1_555
H14F C7F 1_555 1_555

#END
