
#######################################################################
#
#                 Cambridge Crystallographic Data Centre
#                                CCDC 
#
#######################################################################
#
# If this CIF has been generated from an entry in the Cambridge 
# Structural Database, then it will include bibliographic, chemical, 
# crystal, experimental, refinement or atomic coordinate data resulting 
# from the CCDC's data processing and validation procedures.
#
#######################################################################

data_OCODIW01
_chemical_formula_moiety         'C14 H8 O1 S1'
_chemical_name_systematic        '[1]benzothieno[3,2-b][1]benzofuran'
_symmetry_cell_setting           monoclinic
_symmetry_space_group_name_H-M   'C 2/c'
_symmetry_Int_Tables_number      15
_space_group_name_Hall           '-C 2yn'
loop_
_symmetry_equiv_pos_site_id
_symmetry_equiv_pos_as_xyz
1 x,y,z
2 -x,y,1/2-z
3 1/2+x,1/2+y,z
4 1/2-x,1/2+y,1/2-z
5 -x,-y,-z
6 x,-y,1/2+z
7 1/2-x,1/2-y,-z
8 1/2+x,1/2-y,1/2+z
_cell_length_a                   23.815(14)
_cell_length_b                   5.267(3)
_cell_length_c                   16.247(9)
_cell_angle_alpha                90
_cell_angle_beta                 100.810(8)
_cell_angle_gamma                90
_cell_volume                     2001.76
_exptl_crystal_colour            colorless
_exptl_crystal_description       block
_cell_formula_units_Z            8
loop_
_atom_site_label
_atom_site_type_symbol
_atom_site_fract_x
_atom_site_fract_y
_atom_site_fract_z
S1 S 0.28187(2) 0.79389(8) 0.41329(3)
O1 O 0.43954(5) 0.6807(2) 0.50751(7)
C1 C 0.32425(7) 1.0079(3) 0.36856(10)
C2 C 0.30409(7) 1.1937(3) 0.30961(11)
H1 H 0.2651 1.2126 0.2894
C3 C 0.34328(8) 1.3497(4) 0.28172(11)
H2 H 0.3305 1.4741 0.2420
C4 C 0.40196(8) 1.3231(3) 0.31232(11)
H3 H 0.4275 1.4293 0.2922
C5 C 0.42254(7) 1.1429(3) 0.37165(11)
H4 H 0.4615 1.1288 0.3924
C6 C 0.38356(7) 0.9806(3) 0.40025(10)
C7 C 0.39084(6) 0.7816(3) 0.46013(10)
C8 C 0.34249(7) 0.6643(3) 0.47389(10)
C9 C 0.35971(6) 0.4701(3) 0.53531(10)
C10 C 0.41974(7) 0.4904(3) 0.55335(10)
C11 C 0.45424(8) 0.3337(4) 0.60944(11)
H5 H 0.4938 0.3498 0.6201
C12 C 0.42697(8) 0.1513(4) 0.64905(12)
H6 H 0.4487 0.0436 0.6879
C13 C 0.36756(8) 0.1251(4) 0.63211(11)
H7 H 0.3506 -0.0004 0.6594
C14 C 0.33346(7) 0.2825(3) 0.57539(11)
H8 H 0.2939 0.2636 0.5643
loop_
_geom_bond_atom_site_label_1
_geom_bond_atom_site_label_2
_geom_bond_site_symmetry_1
_geom_bond_site_symmetry_2
S1 C1 1_555 1_555
O1 C7 1_555 1_555
C1 C2 1_555 1_555
C2 H1 1_555 1_555
C3 C2 1_555 1_555
H2 C3 1_555 1_555
C4 C3 1_555 1_555
H3 C4 1_555 1_555
C5 C4 1_555 1_555
H4 C5 1_555 1_555
C6 C1 1_555 1_555
C7 C6 1_555 1_555
C8 S1 1_555 1_555
C9 C8 1_555 1_555
C10 O1 1_555 1_555
C11 C10 1_555 1_555
H5 C11 1_555 1_555
C12 C11 1_555 1_555
H6 C12 1_555 1_555
C13 C12 1_555 1_555
H7 C13 1_555 1_555
C14 C9 1_555 1_555
H8 C14 1_555 1_555
C5 C6 1_555 1_555
C7 C8 1_555 1_555
C9 C10 1_555 1_555
C13 C14 1_555 1_555

#END
