
#######################################################################
#
#                 Cambridge Crystallographic Data Centre
#                                CCDC 
#
#######################################################################
#
# If this CIF has been generated from an entry in the Cambridge 
# Structural Database, then it will include bibliographic, chemical, 
# crystal, experimental, refinement or atomic coordinate data resulting 
# from the CCDC's data processing and validation procedures.
#
#######################################################################

data_OCOJIZ
_chemical_formula_moiety         'C22 H28 O8 Se8'
_chemical_name_systematic        
2,3,6,7-tetrakis((2-Methoxycarbonyl)ethylseleno)-tetraselanafulvalene
_symmetry_cell_setting           triclinic
_symmetry_space_group_name_H-M   'P -1'
_symmetry_Int_Tables_number      2
_space_group_name_Hall           '-P 1'
loop_
_symmetry_equiv_pos_site_id
_symmetry_equiv_pos_as_xyz
1 x,y,z
2 -x,-y,-z
_cell_length_a                   8.260(3)
_cell_length_b                   19.045(7)
_cell_length_c                   5.441(3)
_cell_angle_alpha                97.93(4)
_cell_angle_beta                 104.32(3)
_cell_angle_gamma                95.33(3)
_cell_volume                     814.182
_exptl_crystal_colour            orange
_exptl_crystal_description       prismatic
_chemical_melting_point          108deg.C
_cell_formula_units_Z            1
_exptl_crystal_recrystallization_method chloroform/hexane
loop_
_atom_site_label
_atom_site_type_symbol
_atom_site_fract_x
_atom_site_fract_y
_atom_site_fract_z
Se1 Se 0.2183(1) 0.46749(6) 0.4864(2)
Se2 Se 0.5613(1) 0.42205(6) 0.7981(2)
Se3 Se -0.0062(1) 0.37106(6) 0.7539(2)
Se4 Se 0.3763(1) 0.31818(6) 1.0873(2)
O1 O -0.090(1) 0.1517(7) 0.354(2)
O2 O -0.256(1) 0.2125(5) 0.509(2)
O3 O 0.328(1) 0.1213(7) 0.306(2)
O4 O 0.449(9) 0.092(2) 0.687(7)
C1 C 0.4604(9) 0.4799(5) 0.557(2)
C2 C 0.3563(9) 0.3802(5) 0.844(2)
C3 C 0.2096(9) 0.4006(4) 0.705(2)
C4 C -0.130(1) 0.3420(6) 0.390(2)
C5 C -0.087(1) 0.2714(7) 0.276(2)
C6 C -0.151(2) 0.2128(10) 0.384(3)
C7 C -0.149(2) 0.0897(9) 0.470(4)
C9 C 0.303(4) 0.227(1) 0.873(5)
C10 C 0.376(3) 0.2126(8) 0.681(3)
C11 C 0.369(3) 0.140(1) 0.557(4)
C12 C 0.317(3) 0.0467(9) 0.177(3)
C1A C 0.5396(9) 0.5201(5) 0.443(2)
Se1A Se 0.7817(1) 0.53251(6) 0.5136(2)
C3A C 0.7904(9) 0.5994(4) 0.295(2)
Se3A Se 1.0062(1) 0.62894(6) 0.2461(2)
C4A C 1.130(1) 0.6580(6) 0.610(2)
C5A C 1.087(1) 0.7286(7) 0.724(2)
C6A C 1.151(2) 0.7872(10) 0.616(3)
O1A O 1.090(1) 0.8483(7) 0.646(2)
C7A C 1.149(2) 0.9103(9) 0.530(4)
O2A O 1.256(1) 0.7875(5) 0.491(2)
C2A C 0.6437(9) 0.6198(5) 0.156(2)
Se2A Se 0.4387(1) 0.57795(6) 0.2019(2)
Se4A Se 0.6237(1) 0.68182(6) -0.0873(2)
C9A C 0.697(4) 0.773(1) 0.127(5)
C10A C 0.624(3) 0.7874(8) 0.319(3)
C11A C 0.631(3) 0.860(1) 0.443(4)
O3A O 0.672(1) 0.8787(7) 0.694(2)
C12A C 0.683(3) 0.9533(9) 0.823(3)
O4A O 0.551(9) 0.908(2) 0.313(7)
O5? O 0.30(1) 0.089(2) 0.620(9)
C8? C 0.454(3) 0.235(1) 0.897(4)
loop_
_geom_bond_atom_site_label_1
_geom_bond_atom_site_label_2
_geom_bond_site_symmetry_1
_geom_bond_site_symmetry_2
Se1 C1 1_555 1_555
Se2 C1 1_555 1_555
Se3 C3 1_555 1_555
Se4 C2 1_555 1_555
O1 C6 1_555 1_555
O2 C6 1_555 1_555
O3 C11 1_555 1_555
O4 C11 1_555 1_555
C1 C1A 1_555 1_555
C2 Se2 1_555 1_555
C3 Se1 1_555 1_555
C4 Se3 1_555 1_555
C5 C4 1_555 1_555
C6 C5 1_555 1_555
C7 O1 1_555 1_555
C9 Se4 1_555 1_555
C10 C9 1_555 1_555
C11 C10 1_555 1_555
C12 O3 1_555 1_555
C1A Se1A 1_555 1_555
Se1A C3A 1_555 1_555
C3A Se3A 1_555 1_555
Se3A C4A 1_555 1_555
C4A C5A 1_555 1_555
C5A C6A 1_555 1_555
C6A O1A 1_555 1_555
O1A C7A 1_555 1_555
O2A C6A 1_555 1_555
C2A C3A 1_555 1_555
Se2A C1A 1_555 1_555
Se4A C2A 1_555 1_555
C9A Se4A 1_555 1_555
C10A C9A 1_555 1_555
C11A C10A 1_555 1_555
O3A C11A 1_555 1_555
C12A O3A 1_555 1_555
O4A C11A 1_555 1_555
C2 C3 1_555 1_555
C2A Se2A 1_555 1_555

#END
