
#######################################################################
#
#                 Cambridge Crystallographic Data Centre
#                                CCDC 
#
#######################################################################
#
# If this CIF has been generated from an entry in the Cambridge 
# Structural Database, then it will include bibliographic, chemical, 
# crystal, experimental, refinement or atomic coordinate data resulting 
# from the CCDC's data processing and validation procedures.
#
#######################################################################

data_OCONAX
_chemical_formula_moiety         'C32 H52 P2'
_chemical_name_systematic        
meso-Ethane-1,2-diylbis((2,4,6-triisopropylphenyl)phosphine)
_symmetry_cell_setting           monoclinic
_symmetry_space_group_name_H-M   'C 2/c'
_symmetry_Int_Tables_number      15
_space_group_name_Hall           '-C 2yn'
loop_
_symmetry_equiv_pos_site_id
_symmetry_equiv_pos_as_xyz
1 x,y,z
2 -x,y,1/2-z
3 1/2+x,1/2+y,z
4 1/2-x,1/2+y,1/2-z
5 -x,-y,-z
6 x,-y,1/2+z
7 1/2-x,1/2-y,-z
8 1/2+x,1/2-y,1/2+z
_cell_length_a                   34.140(5)
_cell_length_b                   5.9658(9)
_cell_length_c                   16.029(2)
_cell_angle_alpha                90
_cell_angle_beta                 107.001(2)
_cell_angle_gamma                90
_cell_volume                     3122
_exptl_crystal_colour            colorless
_exptl_crystal_description       block
_cell_formula_units_Z            4
loop_
_atom_site_label
_atom_site_type_symbol
_atom_site_fract_x
_atom_site_fract_y
_atom_site_fract_z
P1 P 0.038106(16) 0.10698(10) 0.34880(4)
C1 C 0.02275(6) 0.3518(3) 0.27602(13)
H1 H 0.0288 0.4875 0.3108
H2 H 0.0390 0.3545 0.2355
C2 C 0.08952(5) 0.1934(3) 0.41556(11)
C3 C 0.09465(5) 0.3260(3) 0.49111(12)
C4 C 0.13401(6) 0.3760(3) 0.54303(13)
H3 H 0.1372 0.4610 0.5932
C5 C 0.16884(6) 0.3034(4) 0.52270(13)
C6 C 0.16327(6) 0.1787(3) 0.44772(13)
H4 H 0.1863 0.1301 0.4330
C7 C 0.12472(6) 0.1223(3) 0.39303(12)
C8 C 0.05861(6) 0.4195(3) 0.51823(12)
H5 H 0.0340 0.4023 0.4685
C9 C 0.06338(7) 0.6679(4) 0.54058(18)
H6 H 0.0406 0.7174 0.5595
H7 H 0.0642 0.7513 0.4899
H8 H 0.0884 0.6915 0.5864
C10 C 0.05186(7) 0.2864(4) 0.59393(15)
H9 H 0.0497 0.1299 0.5794
H10 H 0.0271 0.3359 0.6050
H11 H 0.0746 0.3096 0.6451
C11 C 0.21162(6) 0.3658(4) 0.57950(15)
H12 H 0.2310 0.2934 0.5535
C12 C 0.22062(9) 0.2775(6) 0.67017(19)
H13 H 0.2477 0.3221 0.7034
H14 H 0.2189 0.1168 0.6686
H15 H 0.2011 0.3366 0.6969
C13 C 0.21931(10) 0.6112(6) 0.5786(2)
H16 H 0.2465 0.6434 0.6147
H17 H 0.1999 0.6897 0.6007
H18 H 0.2165 0.6589 0.5199
C14 C 0.12243(6) -0.0124(3) 0.31083(13)
H19 H 0.0937 -0.0151 0.2752
C15 C 0.13575(10) -0.2534(4) 0.33312(17)
H20 H 0.1196 -0.3184 0.3669
H21 H 0.1642 -0.2565 0.3662
H22 H 0.1319 -0.3375 0.2803
C16 C 0.14722(9) 0.0941(4) 0.25619(16)
H23 H 0.1375 0.2437 0.2403
H24 H 0.1442 0.0068 0.2044
H25 H 0.1756 0.0991 0.2895
H26 H 0.0173(10) 0.111(6) 0.400(2)
P1A P -0.038106(16) 0.10698(10) 0.15120(4)
C1A C -0.02275(6) 0.3518(3) 0.22398(13)
H1A H -0.0288 0.4875 0.1892
H2A H -0.0390 0.3545 0.2645
C2A C -0.08952(5) 0.1934(3) 0.08444(11)
C3A C -0.09465(5) 0.3260(3) 0.00889(12)
C4A C -0.13401(6) 0.3760(3) -0.04303(13)
H3A H -0.1372 0.4610 -0.0932
C5A C -0.16884(6) 0.3034(4) -0.02270(13)
C6A C -0.16327(6) 0.1787(3) 0.05228(13)
H4A H -0.1863 0.1301 0.0670
C7A C -0.12472(6) 0.1223(3) 0.10697(12)
C8A C -0.05861(6) 0.4195(3) -0.01823(12)
H5A H -0.0340 0.4023 0.0315
C9A C -0.06338(7) 0.6679(4) -0.04058(18)
H6A H -0.0406 0.7174 -0.0595
H7A H -0.0642 0.7513 0.0101
H8A H -0.0884 0.6915 -0.0864
C10A C -0.05186(7) 0.2864(4) -0.09393(15)
H9A H -0.0497 0.1299 -0.0794
H10A H -0.0271 0.3359 -0.1050
H11A H -0.0746 0.3096 -0.1451
C11A C -0.21162(6) 0.3658(4) -0.07950(15)
H12A H -0.2310 0.2934 -0.0535
C12A C -0.22062(9) 0.2775(6) -0.17017(19)
H13A H -0.2477 0.3221 -0.2034
H14A H -0.2189 0.1168 -0.1686
H15A H -0.2011 0.3366 -0.1969
C13A C -0.21931(10) 0.6112(6) -0.0786(2)
H16A H -0.2465 0.6434 -0.1147
H17A H -0.1999 0.6897 -0.1007
H18A H -0.2165 0.6589 -0.0199
C14A C -0.12243(6) -0.0124(3) 0.18917(13)
H19A H -0.0937 -0.0151 0.2248
C15A C -0.13575(10) -0.2534(4) 0.16688(17)
H20A H -0.1196 -0.3184 0.1331
H21A H -0.1642 -0.2565 0.1338
H22A H -0.1319 -0.3375 0.2197
C16A C -0.14722(9) 0.0941(4) 0.24381(16)
H23A H -0.1375 0.2437 0.2597
H24A H -0.1442 0.0068 0.2956
H25A H -0.1756 0.0991 0.2105
H26A H -0.0173(10) 0.111(6) 0.100(2)
loop_
_geom_bond_atom_site_label_1
_geom_bond_atom_site_label_2
_geom_bond_site_symmetry_1
_geom_bond_site_symmetry_2
P1 C1 1_555 1_555
C1 H1 1_555 1_555
H2 C1 1_555 1_555
C2 P1 1_555 1_555
C3 C2 1_555 1_555
C4 C3 1_555 1_555
H3 C4 1_555 1_555
C5 C4 1_555 1_555
C6 C5 1_555 1_555
H4 C6 1_555 1_555
C7 C2 1_555 1_555
C8 C3 1_555 1_555
H5 C8 1_555 1_555
C9 C8 1_555 1_555
H6 C9 1_555 1_555
H7 C9 1_555 1_555
H8 C9 1_555 1_555
C10 C8 1_555 1_555
H9 C10 1_555 1_555
H10 C10 1_555 1_555
H11 C10 1_555 1_555
C11 C5 1_555 1_555
H12 C11 1_555 1_555
C12 C11 1_555 1_555
H13 C12 1_555 1_555
H14 C12 1_555 1_555
H15 C12 1_555 1_555
C13 C11 1_555 1_555
H16 C13 1_555 1_555
H17 C13 1_555 1_555
H18 C13 1_555 1_555
C14 C7 1_555 1_555
H19 C14 1_555 1_555
C15 C14 1_555 1_555
H20 C15 1_555 1_555
H21 C15 1_555 1_555
H22 C15 1_555 1_555
C16 C14 1_555 1_555
H23 C16 1_555 1_555
H24 C16 1_555 1_555
H25 C16 1_555 1_555
H26 P1 1_555 1_555
P1A C1A 1_555 1_555
C1A C1 1_555 1_555
H1A C1A 1_555 1_555
H2A C1A 1_555 1_555
C2A P1A 1_555 1_555
C3A C2A 1_555 1_555
C4A C3A 1_555 1_555
H3A C4A 1_555 1_555
C5A C4A 1_555 1_555
C6A C5A 1_555 1_555
H4A C6A 1_555 1_555
C7A C2A 1_555 1_555
C8A C3A 1_555 1_555
H5A C8A 1_555 1_555
C9A C8A 1_555 1_555
H6A C9A 1_555 1_555
H7A C9A 1_555 1_555
H8A C9A 1_555 1_555
C10A C8A 1_555 1_555
H9A C10A 1_555 1_555
H10A C10A 1_555 1_555
H11A C10A 1_555 1_555
C11A C5A 1_555 1_555
H12A C11A 1_555 1_555
C12A C11A 1_555 1_555
H13A C12A 1_555 1_555
H14A C12A 1_555 1_555
H15A C12A 1_555 1_555
C13A C11A 1_555 1_555
H16A C13A 1_555 1_555
H17A C13A 1_555 1_555
H18A C13A 1_555 1_555
C14A C7A 1_555 1_555
H19A C14A 1_555 1_555
C15A C14A 1_555 1_555
H20A C15A 1_555 1_555
H21A C15A 1_555 1_555
H22A C15A 1_555 1_555
C16A C14A 1_555 1_555
H23A C16A 1_555 1_555
H24A C16A 1_555 1_555
H25A C16A 1_555 1_555
H26A P1A 1_555 1_555
C6 C7 1_555 1_555
C6A C7A 1_555 1_555

#END
