
#######################################################################
#
#                 Cambridge Crystallographic Data Centre
#                                CCDC 
#
#######################################################################
#
# If this CIF has been generated from an entry in the Cambridge 
# Structural Database, then it will include bibliographic, chemical, 
# crystal, experimental, refinement or atomic coordinate data resulting 
# from the CCDC's data processing and validation procedures.
#
#######################################################################

data_OCONOL
_chemical_formula_moiety         'C54 H68 O2 P2,C3 H8 O1'
_chemical_name_systematic        
'meso-Ethane-1,2-diylbis((2-naphthylmethyl)(2,4,6-triisopropylphenyl)phosphine) dioxide isopropanol solvate'
_symmetry_cell_setting           monoclinic
_symmetry_space_group_name_H-M   'C 2/c'
_symmetry_Int_Tables_number      15
_space_group_name_Hall           '-C 2yn'
loop_
_symmetry_equiv_pos_site_id
_symmetry_equiv_pos_as_xyz
1 x,y,z
2 -x,y,1/2-z
3 1/2+x,1/2+y,z
4 1/2-x,1/2+y,1/2-z
5 -x,-y,-z
6 x,-y,1/2+z
7 1/2-x,1/2-y,-z
8 1/2+x,1/2-y,1/2+z
_cell_length_a                   22.621(5)
_cell_length_b                   11.064(3)
_cell_length_c                   21.618(5)
_cell_angle_alpha                90
_cell_angle_beta                 111.474(5)
_cell_angle_gamma                90
_cell_volume                     5034.95
_exptl_crystal_colour            colorless
_exptl_crystal_description       block
_cell_formula_units_Z            4
loop_
_atom_site_label
_atom_site_type_symbol
_atom_site_fract_x
_atom_site_fract_y
_atom_site_fract_z
P1 P 0.07527(2) 0.37339(5) 0.55550(3)
O1 O 0.05401(7) 0.37246(15) 0.61313(8)
C1 C 0.03463(9) 0.49692(19) 0.50098(11)
H1 H 0.0568 0.5741 0.5178
H2 H 0.0345 0.4831 0.4557
C2 C 0.05072(11) 0.23797(19) 0.50475(11)
H3 H 0.0044 0.2423 0.4792
H4 H 0.0725 0.2358 0.4725
C3 C 0.06507(11) 0.1228(2) 0.54452(12)
C4 C 0.10976(12) 0.0425(2) 0.54178(12)
H5 H 0.1349 0.0615 0.5162
C5 C 0.11953(11) -0.0712(2) 0.57729(12)
C6 C 0.16355(14) -0.1578(2) 0.57243(14)
H6 H 0.1891 -0.1406 0.5471
C7 C 0.16919(15) -0.2667(3) 0.60437(15)
H7 H 0.1989 -0.3247 0.6011
C8 C 0.13130(15) -0.2937(2) 0.64203(14)
H8 H 0.1351 -0.3701 0.6631
C9 C 0.08974(15) -0.2117(3) 0.64823(14)
H9 H 0.0649 -0.2305 0.6741
C10 C 0.08273(12) -0.0957(2) 0.61587(13)
C11 C 0.03826(14) -0.0101(3) 0.61989(16)
H10 H 0.0143 -0.0260 0.6471
C12 C 0.02928(12) 0.0955(2) 0.58505(14)
H11 H -0.0014 0.1518 0.5878
C13 C 0.16189(9) 0.38821(18) 0.58014(11)
C14 C 0.19101(10) 0.43615(19) 0.53747(11)
C15 C 0.25566(11) 0.4684(2) 0.56472(14)
H12 H 0.2748 0.5028 0.5364
C16 C 0.29245(11) 0.4518(2) 0.63142(14)
C17 C 0.26449(11) 0.3936(2) 0.67043(13)
H13 H 0.2899 0.3762 0.7154
C18 C 0.20082(10) 0.3594(2) 0.64680(11)
C19 C 0.17959(11) 0.2860(2) 0.69481(11)
H14 H 0.1340 0.2641 0.6711
C20 C 0.21794(13) 0.1678(2) 0.71293(13)
H15 H 0.2124 0.1223 0.6723
H16 H 0.2029 0.1192 0.7421
H17 H 0.2630 0.1867 0.7359
C21 C 0.18424(15) 0.3596(3) 0.75659(13)
H18 H 0.1565 0.4304 0.7431
H19 H 0.2282 0.3860 0.7796
H20 H 0.1710 0.3092 0.7865
C22 C 0.15785(11) 0.4508(2) 0.46206(12)
H21 H 0.1139 0.4175 0.4492
C23 C 0.15233(13) 0.5833(2) 0.44002(13)
H22 H 0.1304 0.6294 0.4639
H23 H 0.1282 0.5884 0.3921
H24 H 0.1949 0.6170 0.4500
C24 C 0.19266(14) 0.3773(3) 0.42555(15)
H25 H 0.1966 0.2931 0.4406
H26 H 0.2351 0.4115 0.4351
H27 H 0.1685 0.3804 0.3776
C25 C 0.36234(13) 0.4880(3) 0.6632(2)
H28 H 0.3666 0.5139 0.7090
C26 C 0.37859(15) 0.6007(3) 0.63401(15)
H29 H 0.4202 0.6305 0.6633
H30 H 0.3463 0.6626 0.6296
H31 H 0.3798 0.5824 0.5901
C27 C 0.40456(15) 0.3820(4) 0.6755(2)
H32 H 0.4469 0.4038 0.7071
H33 H 0.4077 0.3555 0.6336
H34 H 0.3872 0.3163 0.6941
P1D P -0.07527(2) 0.62661(5) 0.44450(3)
O1D O -0.05401(7) 0.62754(15) 0.38687(8)
C1D C -0.03463(9) 0.50308(19) 0.49902(11)
H1D H -0.0568 0.4259 0.4822
H2D H -0.0345 0.5169 0.5443
C2D C -0.05072(11) 0.76203(19) 0.49525(11)
H3D H -0.0044 0.7577 0.5208
H4D H -0.0725 0.7642 0.5275
C3D C -0.06507(11) 0.8772(2) 0.45548(12)
C4D C -0.10976(12) 0.9575(2) 0.45822(12)
H5D H -0.1349 0.9385 0.4838
C5D C -0.11953(11) 1.0712(2) 0.42271(12)
C6D C -0.16355(14) 1.1578(2) 0.42757(14)
H6D H -0.1891 1.1406 0.4529
C7D C -0.16919(15) 1.2667(3) 0.39563(15)
H7D H -0.1989 1.3247 0.3989
C8D C -0.13130(15) 1.2937(2) 0.35797(14)
H8D H -0.1351 1.3701 0.3369
C9D C -0.08974(15) 1.2117(3) 0.35177(14)
H9D H -0.0649 1.2305 0.3259
C10D C -0.08273(12) 1.0957(2) 0.38413(13)
C11D C -0.03826(14) 1.0101(3) 0.38011(16)
H10D H -0.0143 1.0260 0.3529
C12D C -0.02928(12) 0.9045(2) 0.41495(14)
H11D H 0.0014 0.8482 0.4122
C13D C -0.16189(9) 0.61179(18) 0.41986(11)
C14D C -0.19101(10) 0.56385(19) 0.46253(11)
C15D C -0.25566(11) 0.5316(2) 0.43528(14)
H12D H -0.2748 0.4972 0.4636
C16D C -0.29245(11) 0.5482(2) 0.36858(14)
C17D C -0.26449(11) 0.6064(2) 0.32957(13)
H13D H -0.2899 0.6238 0.2846
C18D C -0.20082(10) 0.6406(2) 0.35320(11)
C19D C -0.17959(11) 0.7140(2) 0.30519(11)
H14D H -0.1340 0.7359 0.3289
C20D C -0.21794(13) 0.8322(2) 0.28707(13)
H15D H -0.2124 0.8777 0.3277
H16D H -0.2029 0.8808 0.2579
H17D H -0.2630 0.8133 0.2641
C21D C -0.18424(15) 0.6404(3) 0.24341(13)
H18D H -0.1565 0.5696 0.2569
H19D H -0.2282 0.6140 0.2204
H20D H -0.1710 0.6908 0.2135
C22D C -0.15785(11) 0.5492(2) 0.53794(12)
H21D H -0.1139 0.5825 0.5508
C23D C -0.15233(13) 0.4167(2) 0.55998(13)
H22D H -0.1304 0.3706 0.5361
H23D H -0.1282 0.4116 0.6079
H24D H -0.1949 0.3830 0.5500
C24D C -0.19266(14) 0.6227(3) 0.57445(15)
H25D H -0.1966 0.7069 0.5594
H26D H -0.2351 0.5885 0.5649
H27D H -0.1685 0.6196 0.6224
C25D C -0.36234(13) 0.5120(3) 0.3368(2)
H28D H -0.3666 0.4861 0.2910
C26D C -0.37859(15) 0.3993(3) 0.36599(15)
H29D H -0.4202 0.3695 0.3367
H30D H -0.3463 0.3374 0.3704
H31D H -0.3798 0.4176 0.4099
C27D C -0.40456(15) 0.6180(4) 0.3245(2)
H32D H -0.4469 0.5962 0.2929
H33D H -0.4077 0.6445 0.3664
H34D H -0.3872 0.6837 0.3059
loop_
_geom_bond_atom_site_label_1
_geom_bond_atom_site_label_2
_geom_bond_site_symmetry_1
_geom_bond_site_symmetry_2
P1 O1 1_555 1_555
C1 P1 1_555 1_555
H1 C1 1_555 1_555
H2 C1 1_555 1_555
C2 P1 1_555 1_555
H3 C2 1_555 1_555
H4 C2 1_555 1_555
C3 C2 1_555 1_555
C4 C3 1_555 1_555
H5 C4 1_555 1_555
C5 C4 1_555 1_555
C6 C5 1_555 1_555
H6 C6 1_555 1_555
C7 C6 1_555 1_555
H7 C7 1_555 1_555
C8 C7 1_555 1_555
H8 C8 1_555 1_555
C9 C8 1_555 1_555
H9 C9 1_555 1_555
C10 C5 1_555 1_555
C11 C10 1_555 1_555
H10 C11 1_555 1_555
C12 C3 1_555 1_555
H11 C12 1_555 1_555
C13 P1 1_555 1_555
C14 C13 1_555 1_555
C15 C14 1_555 1_555
H12 C15 1_555 1_555
C16 C15 1_555 1_555
C17 C16 1_555 1_555
H13 C17 1_555 1_555
C18 C13 1_555 1_555
C19 C18 1_555 1_555
H14 C19 1_555 1_555
C20 C19 1_555 1_555
H15 C20 1_555 1_555
H16 C20 1_555 1_555
H17 C20 1_555 1_555
C21 C19 1_555 1_555
H18 C21 1_555 1_555
H19 C21 1_555 1_555
H20 C21 1_555 1_555
C22 C14 1_555 1_555
H21 C22 1_555 1_555
C23 C22 1_555 1_555
H22 C23 1_555 1_555
H23 C23 1_555 1_555
H24 C23 1_555 1_555
C24 C22 1_555 1_555
H25 C24 1_555 1_555
H26 C24 1_555 1_555
H27 C24 1_555 1_555
C25 C16 1_555 1_555
H28 C25 1_555 1_555
C26 C25 1_555 1_555
H29 C26 1_555 1_555
H30 C26 1_555 1_555
H31 C26 1_555 1_555
C27 C25 1_555 1_555
H32 C27 1_555 1_555
H33 C27 1_555 1_555
H34 C27 1_555 1_555
P1D O1D 1_555 1_555
C1D C1 1_555 1_555
H1D C1D 1_555 1_555
H2D C1D 1_555 1_555
C2D P1D 1_555 1_555
H3D C2D 1_555 1_555
H4D C2D 1_555 1_555
C3D C2D 1_555 1_555
C4D C3D 1_555 1_555
H5D C4D 1_555 1_555
C5D C4D 1_555 1_555
C6D C5D 1_555 1_555
H6D C6D 1_555 1_555
C7D C6D 1_555 1_555
H7D C7D 1_555 1_555
C8D C7D 1_555 1_555
H8D C8D 1_555 1_555
C9D C8D 1_555 1_555
H9D C9D 1_555 1_555
C10D C5D 1_555 1_555
C11D C10D 1_555 1_555
H10D C11D 1_555 1_555
C12D C3D 1_555 1_555
H11D C12D 1_555 1_555
C13D P1D 1_555 1_555
C14D C13D 1_555 1_555
C15D C14D 1_555 1_555
H12D C15D 1_555 1_555
C16D C15D 1_555 1_555
C17D C16D 1_555 1_555
H13D C17D 1_555 1_555
C18D C13D 1_555 1_555
C19D C18D 1_555 1_555
H14D C19D 1_555 1_555
C20D C19D 1_555 1_555
H15D C20D 1_555 1_555
H16D C20D 1_555 1_555
H17D C20D 1_555 1_555
C21D C19D 1_555 1_555
H18D C21D 1_555 1_555
H19D C21D 1_555 1_555
H20D C21D 1_555 1_555
C22D C14D 1_555 1_555
H21D C22D 1_555 1_555
C23D C22D 1_555 1_555
H22D C23D 1_555 1_555
H23D C23D 1_555 1_555
H24D C23D 1_555 1_555
C24D C22D 1_555 1_555
H25D C24D 1_555 1_555
H26D C24D 1_555 1_555
H27D C24D 1_555 1_555
C25D C16D 1_555 1_555
H28D C25D 1_555 1_555
C26D C25D 1_555 1_555
H29D C26D 1_555 1_555
H30D C26D 1_555 1_555
H31D C26D 1_555 1_555
C27D C25D 1_555 1_555
H32D C27D 1_555 1_555
H33D C27D 1_555 1_555
H34D C27D 1_555 1_555
C9 C10 1_555 1_555
C11 C12 1_555 1_555
C17 C18 1_555 1_555
P1D C1D 1_555 1_555
C9D C10D 1_555 1_555
C11D C12D 1_555 1_555
C17D C18D 1_555 1_555

#END
