
#######################################################################
#
#                 Cambridge Crystallographic Data Centre
#                                CCDC 
#
#######################################################################
#
# If this CIF has been generated from an entry in the Cambridge 
# Structural Database, then it will include bibliographic, chemical, 
# crystal, experimental, refinement or atomic coordinate data resulting 
# from the CCDC's data processing and validation procedures.
#
#######################################################################

data_OCOSEE
_chemical_formula_moiety         'C26 H52 N4 O2'
_chemical_name_systematic        
2,13-bis(3-Hydroxypropyl)-5,16-dimethyl-2,6,13,17-tetra-azatricyclo(16.4.0^1,18^.0^7,12^)docosane
_symmetry_cell_setting           monoclinic
_symmetry_space_group_name_H-M   'P 21/c'
_symmetry_Int_Tables_number      14
_space_group_name_Hall           '-P 2ybc'
loop_
_symmetry_equiv_pos_site_id
_symmetry_equiv_pos_as_xyz
1 x,y,z
2 x,1/2-y,1/2+z
3 -x,-y,-z
4 -x,1/2+y,1/2-z
_cell_length_a                   8.9191(14)
_cell_length_b                   18.324(4)
_cell_length_c                   8.686(2)
_cell_angle_alpha                90
_cell_angle_beta                 112.795(14)
_cell_angle_gamma                90
_cell_volume                     1308.71
_exptl_crystal_colour            colorless
_exptl_crystal_description       block
_cell_formula_units_Z            2
_exptl_crystal_recrystallization_method 'water/acetonitrile (1:1)'
loop_
_atom_site_label
_atom_site_type_symbol
_atom_site_fract_x
_atom_site_fract_y
_atom_site_fract_z
O1 O 0.3182(4) 0.43258(19) 0.1599(4)
N1 N 0.6323(4) 0.45548(18) 0.4291(4)
H1 H 0.6471 0.5029 0.4875
N2 N 0.4162(4) 0.37752(17) 0.5376(4)
C1 C 0.6922(5) 0.3933(2) 0.5332(5)
H2 H 0.6775 0.3523 0.4563
C2 C 0.8763(5) 0.3933(2) 0.6475(5)
H3 H 0.9387 0.3994 0.5784
H4 H 0.8990 0.4348 0.7224
C3 C 0.9320(5) 0.3254(2) 0.7489(5)
H5 H 0.9261 0.2848 0.6751
H6 H 1.0447 0.3312 0.8243
C4 C 0.8337(5) 0.3086(2) 0.8461(5)
H7 H 0.8542 0.3450 0.9329
H8 H 0.8661 0.2615 0.8996
C5 C 0.6501(5) 0.3071(3) 0.7359(5)
H9 H 0.6269 0.2652 0.6620
H10 H 0.5894 0.3014 0.8068
C6 C 0.5948(5) 0.3738(2) 0.6351(5)
H11 H 0.6173 0.4132 0.7173
C7 C 0.3262(5) 0.3793(2) 0.6447(5)
H12 H 0.3574 0.3365 0.7158
H13 H 0.2120 0.3737 0.5738
C8 C 0.3404(5) 0.4432(2) 0.7541(5)
H14 H 0.4550 0.4519 0.8190
H15 H 0.2907 0.4306 0.8321
C9 C 0.7370(5) 0.4838(2) 0.3341(5)
H16 H 0.8492 0.4922 0.4124
C10 C 0.7324(5) 0.4264(3) 0.2061(5)
H17 H 0.7791 0.3818 0.2623
H18 H 0.6217 0.4178 0.1319
H19 H 0.7934 0.4432 0.1431
C11 C 0.3593(5) 0.3216(2) 0.4131(5)
H20 H 0.3426 0.2771 0.4649
H21 H 0.4423 0.3119 0.3694
C12 C 0.1969(5) 0.3422(3) 0.2648(5)
H22 H 0.1764 0.3064 0.1766
H23 H 0.1085 0.3390 0.3033
C13 C 0.1949(5) 0.4133(3) 0.1963(5)
H24 H 0.0974 0.4171 0.0952
H25 H 0.1849 0.4486 0.2749
C8B C 0.6596(5) 0.5568(2) 0.2459(5)
C7B C 0.6738(5) 0.6207(2) 0.3553(5)
N2B N 0.5838(4) 0.62248(17) 0.4624(4)
C6B C 0.4052(5) 0.6262(2) 0.3649(5)
C1B C 0.3078(5) 0.6067(2) 0.4668(5)
N1B N 0.3677(4) 0.54452(18) 0.5709(4)
H1B H 0.3529 0.4971 0.5125
C9B C 0.2630(5) 0.5162(2) 0.6659(5)
H16B H 0.1508 0.5078 0.5876
C10B C 0.2676(5) 0.5736(3) 0.7939(5)
H17B H 0.2209 0.6182 0.7377
H18B H 0.3783 0.5822 0.8681
H19B H 0.2066 0.5568 0.8569
H2B H 0.3225 0.6477 0.5437
C2B C 0.1237(5) 0.6067(2) 0.3525(5)
H3B H 0.0613 0.6006 0.4216
H4B H 0.1010 0.5652 0.2776
C3B C 0.0680(5) 0.6746(2) 0.2511(5)
H5B H 0.0739 0.7152 0.3249
H6B H -0.0447 0.6688 0.1757
C4B C 0.1663(5) 0.6914(2) 0.1539(5)
H7B H 0.1458 0.6550 0.0671
H8B H 0.1339 0.7385 0.1004
C5B C 0.3499(5) 0.6929(3) 0.2641(5)
H9B H 0.3731 0.7348 0.3380
H10B H 0.4106 0.6986 0.1932
H11B H 0.3827 0.5868 0.2827
C11B C 0.6407(5) 0.6784(2) 0.5869(5)
H20B H 0.6574 0.7229 0.5351
H21B H 0.5577 0.6881 0.6306
C12B C 0.8031(5) 0.6578(3) 0.7352(5)
H22B H 0.8236 0.6936 0.8234
H23B H 0.8915 0.6610 0.6967
C13B C 0.8051(5) 0.5867(3) 0.8037(5)
O1B O 0.6818(4) 0.56742(19) 0.8401(4)
H24B H 0.9026 0.5829 0.9048
H25B H 0.8151 0.5514 0.7251
H12B H 0.6426 0.6635 0.2842
H13B H 0.7880 0.6263 0.4262
H14B H 0.5450 0.5481 0.1810
H15B H 0.7093 0.5694 0.1679
loop_
_geom_bond_atom_site_label_1
_geom_bond_atom_site_label_2
_geom_bond_site_symmetry_1
_geom_bond_site_symmetry_2
O1 C13 1_555 1_555
N1 H1 1_555 1_555
N2 C6 1_555 1_555
C1 N1 1_555 1_555
H2 C1 1_555 1_555
C2 C1 1_555 1_555
H3 C2 1_555 1_555
H4 C2 1_555 1_555
C3 C2 1_555 1_555
H5 C3 1_555 1_555
H6 C3 1_555 1_555
C4 C3 1_555 1_555
H7 C4 1_555 1_555
H8 C4 1_555 1_555
C5 C4 1_555 1_555
H9 C5 1_555 1_555
H10 C5 1_555 1_555
C6 C1 1_555 1_555
H11 C6 1_555 1_555
C7 N2 1_555 1_555
H12 C7 1_555 1_555
H13 C7 1_555 1_555
C8 C7 1_555 1_555
H14 C8 1_555 1_555
H15 C8 1_555 1_555
C9 N1 1_555 1_555
H16 C9 1_555 1_555
C10 C9 1_555 1_555
H17 C10 1_555 1_555
H18 C10 1_555 1_555
H19 C10 1_555 1_555
C11 N2 1_555 1_555
H20 C11 1_555 1_555
H21 C11 1_555 1_555
C12 C11 1_555 1_555
H22 C12 1_555 1_555
H23 C12 1_555 1_555
C13 C12 1_555 1_555
H24 C13 1_555 1_555
H25 C13 1_555 1_555
C8B C9 1_555 1_555
C7B C8B 1_555 1_555
N2B C7B 1_555 1_555
C6B N2B 1_555 1_555
C1B C6B 1_555 1_555
N1B C1B 1_555 1_555
H1B N1B 1_555 1_555
C9B C8 1_555 1_555
H16B C9B 1_555 1_555
C10B C9B 1_555 1_555
H17B C10B 1_555 1_555
H18B C10B 1_555 1_555
H19B C10B 1_555 1_555
H2B C1B 1_555 1_555
C2B C1B 1_555 1_555
H3B C2B 1_555 1_555
H4B C2B 1_555 1_555
C3B C2B 1_555 1_555
H5B C3B 1_555 1_555
H6B C3B 1_555 1_555
C4B C3B 1_555 1_555
H7B C4B 1_555 1_555
H8B C4B 1_555 1_555
C5B C6B 1_555 1_555
H9B C5B 1_555 1_555
H10B C5B 1_555 1_555
H11B C6B 1_555 1_555
C11B N2B 1_555 1_555
H20B C11B 1_555 1_555
H21B C11B 1_555 1_555
C12B C11B 1_555 1_555
H22B C12B 1_555 1_555
H23B C12B 1_555 1_555
C13B C12B 1_555 1_555
O1B C13B 1_555 1_555
H24B C13B 1_555 1_555
H25B C13B 1_555 1_555
H12B C7B 1_555 1_555
H13B C7B 1_555 1_555
H14B C8B 1_555 1_555
H15B C8B 1_555 1_555
C5 C6 1_555 1_555
N1B C9B 1_555 1_555
C4B C5B 1_555 1_555

#END
