
#######################################################################
#
#                 Cambridge Crystallographic Data Centre
#                                CCDC 
#
#######################################################################
#
# If this CIF has been generated from an entry in the Cambridge 
# Structural Database, then it will include bibliographic, chemical, 
# crystal, experimental, refinement or atomic coordinate data resulting 
# from the CCDC's data processing and validation procedures.
#
#######################################################################

data_OCTANE10
_chemical_formula_moiety         'C8 H18'
_chemical_name_systematic        n-Octane
_symmetry_cell_setting           triclinic
_symmetry_space_group_name_H-M   'P -1'
_symmetry_Int_Tables_number      2
_space_group_name_Hall           '-P 1'
loop_
_symmetry_equiv_pos_site_id
_symmetry_equiv_pos_as_xyz
1 x,y,z
2 -x,-y,-z
_cell_length_a                   4.220(20)
_cell_length_b                   4.790(20)
_cell_length_c                   11.020(20)
_cell_angle_alpha                94.70(20)
_cell_angle_beta                 84.30(20)
_cell_angle_gamma                105.80(20)
_cell_volume                     212.929
_chemical_melting_point          -56.6deg.C
_cell_formula_units_Z            1
loop_
_atom_site_label
_atom_site_type_symbol
_atom_site_fract_x
_atom_site_fract_y
_atom_site_fract_z
C1 C 0.29980 0.24620 0.38040
C2 C 0.17170 0.01830 0.27810
C3 C 0.13780 0.15480 0.16180
C4 C 0.01820 -0.06870 0.05760
H1 H 0.33600 0.15540 0.44660
H2 H 0.54300 0.36800 0.34950
H3 H 0.10600 0.37400 0.40980
H4 H -0.05300 -0.12170 0.30550
H5 H 0.33900 -0.11690 0.25310
H6 H 0.36400 0.28710 0.13560
H7 H -0.01400 0.29150 0.18410
H8 H -0.19700 -0.18910 0.08470
H9 H 0.19700 -0.20190 0.03370
C4A C -0.01820 0.06870 -0.05760
C3A C -0.13780 -0.15480 -0.16180
H8A H 0.19700 0.18910 -0.08470
H9A H -0.19700 0.20190 -0.03370
C2A C -0.17170 -0.01830 -0.27810
H6A H -0.36400 -0.28710 -0.13560
H7A H 0.01400 -0.29150 -0.18410
C1A C -0.29980 -0.24620 -0.38040
H4A H 0.05300 0.12170 -0.30550
H5A H -0.33900 0.11690 -0.25310
H1A H -0.33600 -0.15540 -0.44660
H2A H -0.54300 -0.36800 -0.34950
H3A H -0.10600 -0.37400 -0.40980
loop_
_geom_bond_atom_site_label_1
_geom_bond_atom_site_label_2
_geom_bond_site_symmetry_1
_geom_bond_site_symmetry_2
C1 C2 1_555 1_555
C2 C3 1_555 1_555
C3 C4 1_555 1_555
C4 H8 1_555 1_555
H1 C1 1_555 1_555
H2 C1 1_555 1_555
H3 C1 1_555 1_555
H4 C2 1_555 1_555
H5 C2 1_555 1_555
H6 C3 1_555 1_555
H7 C3 1_555 1_555
H9 C4 1_555 1_555
C4A C4 1_555 1_555
C3A C4A 1_555 1_555
H8A C4A 1_555 1_555
H9A C4A 1_555 1_555
C2A C3A 1_555 1_555
H6A C3A 1_555 1_555
H7A C3A 1_555 1_555
C1A C2A 1_555 1_555
H4A C2A 1_555 1_555
H5A C2A 1_555 1_555
H1A C1A 1_555 1_555
H2A C1A 1_555 1_555
H3A C1A 1_555 1_555

#END
