
#######################################################################
#
#                 Cambridge Crystallographic Data Centre
#                                CCDC 
#
#######################################################################
#
# If this CIF has been generated from an entry in the Cambridge 
# Structural Database, then it will include bibliographic, chemical, 
# crystal, experimental, refinement or atomic coordinate data resulting 
# from the CCDC's data processing and validation procedures.
#
#######################################################################

data_OCUFOI
_chemical_formula_moiety         'C21 H20 N4'
_chemical_name_systematic        
2,8-Dimethyl-2,4-bis(2-pyridyl)-1H-2,3-dihydro-1,5-benzodiazepine
_symmetry_cell_setting           monoclinic
_symmetry_space_group_name_H-M   'P 21/c'
_symmetry_Int_Tables_number      14
_space_group_name_Hall           '-P 2ybc'
loop_
_symmetry_equiv_pos_site_id
_symmetry_equiv_pos_as_xyz
1 x,y,z
2 -x,1/2+y,1/2-z
3 -x,-y,-z
4 x,1/2-y,1/2+z
_cell_length_a                   12.5017(5)
_cell_length_b                   9.4554(3)
_cell_length_c                   15.2772(5)
_cell_angle_alpha                90
_cell_angle_beta                 105.769(2)
_cell_angle_gamma                90
_cell_volume                     1737.93
_exptl_crystal_colour            colorless
_exptl_crystal_description       block
_chemical_melting_point          '114-115 deg.C'
_cell_formula_units_Z            4
_exptl_crystal_recrystallization_method 'petroleum ether'
loop_
_atom_site_label
_atom_site_type_symbol
_atom_site_fract_x
_atom_site_fract_y
_atom_site_fract_z
C1 C 0.74567(11) 0.48182(15) 0.21195(11)
H1 H 0.6763 0.4394 0.2024
N1 N 0.80656(11) 0.97885(18) 0.31456(10)
N2 N 0.51285(10) 0.91580(14) 0.20507(9)
N3 N 0.55832(8) 0.64383(12) 0.13064(8)
C2 C 0.84024(12) 0.40560(17) 0.24947(12)
H2 H 0.8359 0.3121 0.2671
C3 C 0.94116(12) 0.46968(18) 0.26051(13)
H3 H 1.0070 0.4210 0.2855
C4 C 0.94226(12) 0.60712(19) 0.23377(14)
H4 H 1.0111 0.6496 0.2405
N4 N 0.85182(9) 0.68509(13) 0.19869(10)
C5 C 0.75336(10) 0.62192(14) 0.18825(9)
C6 C 0.65193(10) 0.70877(14) 0.15042(9)
C7 C 0.66325(10) 0.86489(13) 0.13535(10)
H5 H 0.6185 0.8895 0.0748
H6 H 0.7401 0.8861 0.1386
C8 C 0.62682(10) 0.95547(14) 0.20549(10)
C9 C 0.70475(11) 0.92405(15) 0.29887(10)
C10 C 0.67581(14) 0.83847(16) 0.36181(11)
H7 H 0.6041 0.8024 0.3504
C11 C 0.75448(17) 0.8070(2) 0.44198(13)
H8 H 0.7362 0.7490 0.4850
C12 C 0.85721(18) 0.8601(3) 0.45772(14)
H9 H 0.9114 0.8396 0.5113
C13 C 0.87998(16) 0.9448(3) 0.39332(15)
H10 H 0.9514 0.9816 0.4046
C14 C 0.63071(14) 1.11215(15) 0.18090(12)
H11 H 0.6083 1.1689 0.2249
H12 H 0.5812 1.1287 0.1217
H13 H 0.7051 1.1371 0.1807
C15 C 0.43763(10) 0.85264(14) 0.13049(10)
C16 C 0.45884(10) 0.72019(14) 0.09677(9)
C17 C 0.37405(11) 0.65324(16) 0.03192(11)
H14 H 0.3875 0.5651 0.0101
C18 C 0.27092(12) 0.71388(19) -0.00074(11)
H15 H 0.2159 0.6667 -0.0443
C19 C 0.24853(11) 0.84461(18) 0.03082(11)
C20 C 0.33207(11) 0.91185(17) 0.09499(11)
H16 H 0.3177 1.0005 0.1156
C21 C 0.13543(13) 0.9119(2) -0.00443(15)
H17 H 0.1346 1.0015 0.0249
H18 H 0.0800 0.8512 0.0083
H19 H 0.1198 0.9259 -0.0689
H20 H 0.4836(13) 0.9868(19) 0.2272(12)
loop_
_geom_bond_atom_site_label_1
_geom_bond_atom_site_label_2
_geom_bond_site_symmetry_1
_geom_bond_site_symmetry_2
C1 H1 1_555 1_555
N1 C9 1_555 1_555
N2 C8 1_555 1_555
N3 C6 1_555 1_555
C2 C1 1_555 1_555
H2 C2 1_555 1_555
C3 C2 1_555 1_555
H3 C3 1_555 1_555
C4 C3 1_555 1_555
H4 C4 1_555 1_555
N4 C4 1_555 1_555
C5 C1 1_555 1_555
C6 C5 1_555 1_555
C7 C6 1_555 1_555
H5 C7 1_555 1_555
H6 C7 1_555 1_555
C8 C7 1_555 1_555
C9 C8 1_555 1_555
C10 C9 1_555 1_555
H7 C10 1_555 1_555
C11 C10 1_555 1_555
H8 C11 1_555 1_555
C12 C11 1_555 1_555
H9 C12 1_555 1_555
C13 N1 1_555 1_555
H10 C13 1_555 1_555
C14 C8 1_555 1_555
H11 C14 1_555 1_555
H12 C14 1_555 1_555
H13 C14 1_555 1_555
C15 N2 1_555 1_555
C16 N3 1_555 1_555
C17 C16 1_555 1_555
H14 C17 1_555 1_555
C18 C17 1_555 1_555
H15 C18 1_555 1_555
C19 C18 1_555 1_555
C20 C15 1_555 1_555
H16 C20 1_555 1_555
C21 C19 1_555 1_555
H17 C21 1_555 1_555
H18 C21 1_555 1_555
H19 C21 1_555 1_555
H20 N2 1_555 1_555
N4 C5 1_555 1_555
C12 C13 1_555 1_555
C15 C16 1_555 1_555
C19 C20 1_555 1_555

#END
