
#######################################################################
#
#                 Cambridge Crystallographic Data Centre
#                                CCDC 
#
#######################################################################
#
# If this CIF has been generated from an entry in the Cambridge 
# Structural Database, then it will include bibliographic, chemical, 
# crystal, experimental, refinement or atomic coordinate data resulting 
# from the CCDC's data processing and validation procedures.
#
#######################################################################

data_OCUJON
_chemical_formula_moiety         'C23 H15 Cl1 N4 O1,C1 H1 Cl3'
_chemical_name_systematic        
'N-(2-(1H-Benzimidazol-2-yl)quinolin-8-yl)-4-chlorobenzamide chloroform solvate'
_symmetry_cell_setting           orthorhombic
_symmetry_space_group_name_H-M   'P c c n'
_symmetry_Int_Tables_number      56
_space_group_name_Hall           '-P 2ab 2ac'
loop_
_symmetry_equiv_pos_site_id
_symmetry_equiv_pos_as_xyz
1 x,y,z
2 1/2-x,1/2-y,z
3 -x,1/2+y,1/2-z
4 1/2+x,-y,1/2-z
5 -x,-y,-z
6 1/2+x,1/2+y,-z
7 x,1/2-y,1/2+z
8 1/2-x,y,1/2+z
_cell_length_a                   20.930(4)
_cell_length_b                   21.246(4)
_cell_length_c                   10.232(2)
_cell_angle_alpha                90
_cell_angle_beta                 90
_cell_angle_gamma                90
_cell_volume                     4549.95
_exptl_crystal_colour            colorless
_exptl_crystal_description       block
_cell_formula_units_Z            8
loop_
_atom_site_label
_atom_site_type_symbol
_atom_site_fract_x
_atom_site_fract_y
_atom_site_fract_z
Cl1 Cl 0.15492(3) 0.45640(3) 0.70062(7)
N1 N -0.05130(9) 0.31307(9) 0.04719(19)
O1 O -0.12964(8) 0.38406(10) 0.45879(18)
N2 N 0.06574(9) 0.25251(9) 0.03460(19)
H1 H 0.0575 0.2667 0.1115
N3 N 0.05274(9) 0.23160(9) -0.17872(19)
N4 N -0.07580(9) 0.37914(9) 0.2658(2)
H2 H -0.0386 0.3822 0.2308
C1 C -0.03741(11) 0.28306(11) -0.0625(2)
C2 C 0.12028(11) 0.22121(11) -0.0038(2)
C3 C -0.08198(11) 0.27231(11) -0.1634(2)
H3 H -0.0694 0.2538 -0.2416
C4 C 0.02764(11) 0.25664(11) -0.0722(2)
C5 C 0.08489(12) 0.45183(12) 0.4788(3)
H4 H 0.1177 0.4748 0.4403
C6 C -0.11288(11) 0.33249(11) 0.0649(2)
C7 C -0.01810(11) 0.40158(11) 0.4656(2)
C8 C -0.07974(12) 0.38742(12) 0.3988(2)
C9 C -0.22529(12) 0.33880(12) 0.0021(3)
H5 H -0.2582 0.3297 -0.0559
C10 C -0.12767(11) 0.36597(11) 0.1816(2)
C11 C -0.01269(12) 0.38374(12) 0.5962(2)
H6 H -0.0455 0.3612 0.6357
C12 C -0.18954(11) 0.38466(12) 0.2049(3)
H7 H -0.1993 0.4068 0.2807
C13 C 0.08851(12) 0.43386(12) 0.6081(3)
C14 C 0.15834(12) 0.17552(12) -0.2068(3)
H8 H 0.1532 0.1665 -0.2951
C15 C 0.17452(11) 0.20199(12) 0.0635(3)
H9 H 0.1797 0.2103 0.1521
C16 C 0.03133(12) 0.43489(12) 0.4077(3)
H10 H 0.0285 0.4460 0.3200
C17 C -0.16223(11) 0.31973(11) -0.0270(2)
C18 C 0.04106(12) 0.39922(12) 0.6673(3)
H11 H 0.0452 0.3865 0.7539
C19 C 0.21233(12) 0.15676(12) -0.1397(3)
H12 H 0.2442 0.1348 -0.1838
C20 C 0.11181(11) 0.20857(11) -0.1369(2)
C21 C -0.14382(12) 0.28965(12) -0.1439(3)
H13 H -0.1742 0.2816 -0.2082
C22 C -0.23805(11) 0.37054(12) 0.1148(3)
H14 H -0.2797 0.3831 0.1324
C23 C 0.22008(12) 0.17010(12) -0.0067(3)
H15 H 0.2572 0.1570 0.0353
Cl2 Cl 0.08806(5) -0.04407(4) -0.34354(10)
Cl3 Cl 0.07005(5) 0.07602(5) -0.46648(9)
Cl4 Cl 0.19635(4) 0.02337(5) -0.44273(11)
C24 C 0.11604(14) 0.00665(14) -0.4659(3)
H16 H 0.1110 -0.0142 -0.5506
loop_
_geom_bond_atom_site_label_1
_geom_bond_atom_site_label_2
_geom_bond_site_symmetry_1
_geom_bond_site_symmetry_2
Cl1 C13 1_555 1_555
Cl2 C24 1_555 1_555
Cl3 C24 1_555 1_555
Cl4 C24 1_555 1_555
N1 C1 1_555 1_555
O1 C8 1_555 1_555
N2 H1 1_555 1_555
N3 C4 1_555 1_555
N4 H2 1_555 1_555
C1 C3 1_555 1_555
C2 N2 1_555 1_555
C3 H3 1_555 1_555
C4 N2 1_555 1_555
C5 H4 1_555 1_555
C6 N1 1_555 1_555
C7 C8 1_555 1_555
C8 N4 1_555 1_555
C9 H5 1_555 1_555
C10 N4 1_555 1_555
C11 C7 1_555 1_555
H6 C11 1_555 1_555
C12 C10 1_555 1_555
H7 C12 1_555 1_555
C13 C5 1_555 1_555
C14 H8 1_555 1_555
C15 C2 1_555 1_555
H9 C15 1_555 1_555
C16 C5 1_555 1_555
H10 C16 1_555 1_555
C17 C6 1_555 1_555
C18 C11 1_555 1_555
H11 C18 1_555 1_555
C19 C14 1_555 1_555
H12 C19 1_555 1_555
C20 N3 1_555 1_555
C21 C3 1_555 1_555
H13 C21 1_555 1_555
C22 C9 1_555 1_555
H14 C22 1_555 1_555
C23 C15 1_555 1_555
H15 C23 1_555 1_555
C24 H16 1_555 1_555
C1 C4 1_555 1_555
C2 C20 1_555 1_555
C6 C10 1_555 1_555
C7 C16 1_555 1_555
C9 C17 1_555 1_555
C12 C22 1_555 1_555
C13 C18 1_555 1_555
C14 C20 1_555 1_555
C17 C21 1_555 1_555
C19 C23 1_555 1_555

#END
