
#######################################################################
#
#                 Cambridge Crystallographic Data Centre
#                                CCDC 
#
#######################################################################
#
# If this CIF has been generated from an entry in the Cambridge 
# Structural Database, then it will include bibliographic, chemical, 
# crystal, experimental, refinement or atomic coordinate data resulting 
# from the CCDC's data processing and validation procedures.
#
#######################################################################

data_OCULEE
_chemical_formula_moiety         'C22 H22 N2 O3 S1'
_chemical_name_systematic        
1-(10,10-Dimethyl-2-oxo-3-phenyl-3,4-diazatricyclo[5.2.1.0^1,5^]decan-4-yl)-2-(thiophen-2-yl)ethane-1,2-dione
_symmetry_cell_setting           orthorhombic
_symmetry_space_group_name_H-M   'P 21 21 21'
_symmetry_Int_Tables_number      19
_space_group_name_Hall           'P 2ac 2ab'
loop_
_symmetry_equiv_pos_site_id
_symmetry_equiv_pos_as_xyz
1 x,y,z
2 1/2-x,-y,1/2+z
3 1/2+x,1/2-y,-z
4 -x,1/2+y,1/2-z
_cell_length_a                   10.1420(3)
_cell_length_b                   12.3190(4)
_cell_length_c                   16.3260(6)
_cell_angle_alpha                90
_cell_angle_beta                 90
_cell_angle_gamma                90
_cell_volume                     2039.76
_exptl_crystal_colour            yellow
_exptl_crystal_description       prism
_cell_formula_units_Z            4
_exptl_crystal_recrystallization_method 'hexanes/ethyl acetate'
loop_
_atom_site_label
_atom_site_type_symbol
_atom_site_fract_x
_atom_site_fract_y
_atom_site_fract_z
S1 S 0.51134(15) 0.17429(10) 0.00119(10)
O1 O 1.1153(3) -0.1422(3) 0.0401(2)
O2 O 0.7204(3) 0.0389(3) -0.0644(2)
O3 O 0.5041(3) -0.1437(2) 0.0150(2)
N1 N 0.9114(3) -0.0964(3) -0.0112(2)
N2 N 0.7783(3) -0.1048(3) 0.0144(2)
C1 C 0.9969(5) -0.1348(3) 0.0487(3)
C2 C 0.9146(4) -0.1593(3) 0.1229(2)
C3 C 0.7730(4) -0.1687(3) 0.0911(2)
H1 H 0.7468 -0.2408 0.0758
C4 C 0.6872(5) -0.1289(4) 0.1635(3)
H2 H 0.6473 -0.0606 0.1497
H3 H 0.6196 -0.1815 0.1745
C5 C 0.7895(5) -0.1205(4) 0.2318(3)
H4 H 0.7583 -0.0887 0.2818
C6 C 0.8447(6) -0.2333(5) 0.2503(3)
H5 H 0.7740 -0.2851 0.2520
H6 H 0.8928 -0.2358 0.3009
C7 C 0.9385(6) -0.2584(4) 0.1761(3)
H7 H 0.9138 -0.3214 0.1451
H8 H 1.0300 -0.2632 0.1908
C8 C 0.9082(5) -0.0642(4) 0.1877(3)
C9 C 1.0353(6) -0.0550(6) 0.2389(4)
H9 H 1.0294 0.0026 0.2783
H10 H 1.1083 -0.0416 0.2028
H11 H 1.0485 -0.1228 0.2667
C10 C 0.8783(6) 0.0479(4) 0.1524(3)
H12 H 0.8766 0.1003 0.1959
H13 H 0.7941 0.0467 0.1255
H14 H 0.9454 0.0673 0.1136
C11 C 0.9389(5) -0.1058(4) -0.0975(3)
C12 C 1.0372(7) -0.0424(6) -0.1302(4)
H15 H 1.0797 0.0048 -0.0916
C13 C 1.0648(9) -0.0530(8) -0.2135(6)
H16 H 1.1303 -0.0130 -0.2434
C14 C 0.9944(12) -0.1204(9) -0.2598(5)
H17 H 1.0178 -0.1245 -0.3167
C15 C 0.8978(8) -0.1830(7) -0.2280(4)
H18 H 0.8488 -0.2328 -0.2614
C16 C 0.8684(6) -0.1749(5) -0.1452(3)
H19 H 0.7986 -0.2157 -0.1200
C17 C 0.6904(4) -0.0329(4) -0.0156(3)
C18 C 0.5473(4) -0.0522(4) 0.0071(3)
C19 C 0.4619(4) 0.0430(3) 0.0147(3)
C20 C 0.3335(5) 0.0406(4) 0.0421(3)
H20 H 0.2891 -0.0275 0.0491
C21 C 0.2787(6) 0.1425(5) 0.0506(4)
H21 H 0.1936 0.1480 0.0760
C22 C 0.3626(7) 0.2218(5) 0.0328(4)
H22 H 0.3404 0.2975 0.0299
loop_
_geom_bond_atom_site_label_1
_geom_bond_atom_site_label_2
_geom_bond_site_symmetry_1
_geom_bond_site_symmetry_2
S1 C19 1_555 1_555
O1 C1 1_555 1_555
O2 C17 1_555 1_555
O3 C18 1_555 1_555
N1 N2 1_555 1_555
N2 C3 1_555 1_555
C1 N1 1_555 1_555
C2 C1 1_555 1_555
C3 C2 1_555 1_555
H1 C3 1_555 1_555
C4 C3 1_555 1_555
H2 C4 1_555 1_555
H3 C4 1_555 1_555
C5 C4 1_555 1_555
H4 C5 1_555 1_555
C6 C5 1_555 1_555
H5 C6 1_555 1_555
H6 C6 1_555 1_555
C7 C2 1_555 1_555
H7 C7 1_555 1_555
H8 C7 1_555 1_555
C8 C2 1_555 1_555
C9 C8 1_555 1_555
H9 C9 1_555 1_555
H10 C9 1_555 1_555
H11 C9 1_555 1_555
C10 C8 1_555 1_555
H12 C10 1_555 1_555
H13 C10 1_555 1_555
H14 C10 1_555 1_555
C11 N1 1_555 1_555
C12 C11 1_555 1_555
H15 C12 1_555 1_555
C13 C12 1_555 1_555
H16 C13 1_555 1_555
C14 C13 1_555 1_555
H17 C14 1_555 1_555
C15 C14 1_555 1_555
H18 C15 1_555 1_555
C16 C11 1_555 1_555
H19 C16 1_555 1_555
C17 N2 1_555 1_555
C18 C17 1_555 1_555
C19 C18 1_555 1_555
C20 C19 1_555 1_555
H20 C20 1_555 1_555
C21 C20 1_555 1_555
H21 C21 1_555 1_555
C22 S1 1_555 1_555
H22 C22 1_555 1_555
C5 C8 1_555 1_555
C6 C7 1_555 1_555
C15 C16 1_555 1_555
C21 C22 1_555 1_555

#END
