
#######################################################################
#
#                 Cambridge Crystallographic Data Centre
#                                CCDC 
#
#######################################################################
#
# If this CIF has been generated from an entry in the Cambridge 
# Structural Database, then it will include bibliographic, chemical, 
# crystal, experimental, refinement or atomic coordinate data resulting 
# from the CCDC's data processing and validation procedures.
#
#######################################################################

data_OCULAA
_chemical_formula_moiety         'C24 H26 N2 O3'
_chemical_name_systematic        
4-((2S)-2-Hydroxy-2-phenylacetyl)-10,10-dimethyl-3-phenyl-3,4-diazatricyclo[5.2.1.0^1,5^]decan-2-one
_symmetry_cell_setting           orthorhombic
_symmetry_space_group_name_H-M   'P 21 21 21'
_symmetry_Int_Tables_number      19
_space_group_name_Hall           'P 2ac 2ab'
loop_
_symmetry_equiv_pos_site_id
_symmetry_equiv_pos_as_xyz
1 x,y,z
2 1/2-x,-y,1/2+z
3 1/2+x,1/2-y,-z
4 -x,1/2+y,1/2-z
_cell_length_a                   10.4410(3)
_cell_length_b                   11.7760(3)
_cell_length_c                   16.8250(6)
_cell_angle_alpha                90
_cell_angle_beta                 90
_cell_angle_gamma                90
_cell_volume                     2068.69
_exptl_crystal_colour            colorless
_exptl_crystal_description       prism
_cell_formula_units_Z            4
_exptl_crystal_recrystallization_method 'hexanes/ethyl acetate'
loop_
_atom_site_label
_atom_site_type_symbol
_atom_site_fract_x
_atom_site_fract_y
_atom_site_fract_z
O1 O -0.3956(3) -0.0698(2) -0.63961(16)
O2 O -0.6816(2) -0.2796(2) -0.45963(16)
O3 O -0.6914(3) -0.2809(3) -0.29746(16)
H1 H -0.7399 -0.2120 -0.3026
N1 N -0.4887(3) -0.1813(2) -0.54367(18)
N2 N -0.4912(3) -0.1857(2) -0.45932(17)
C1 C -0.4235(3) -0.0864(3) -0.5708(2)
C2 C -0.3986(3) -0.0131(3) -0.5008(2)
C3 C -0.4071(3) -0.0933(3) -0.4289(2)
H2 H -0.3233 -0.1226 -0.4174
C4 C -0.4533(4) -0.0148(3) -0.3606(2)
H3 H -0.4000 -0.0180 -0.3142
H4 H -0.5407 -0.0290 -0.3458
C5 C -0.4438(4) 0.1037(3) -0.3997(3)
H5 H -0.4789 0.1643 -0.3683
C6 C -0.3022(4) 0.1294(4) -0.4177(3)
H6 H -0.2923 0.2088 -0.4290
H7 H -0.2504 0.1094 -0.3727
C7 C -0.2723(4) 0.0524(3) -0.4915(2)
H8 H -0.2028 0.0005 -0.4831
H9 H -0.2570 0.0955 -0.5390
C8 C -0.5016(4) 0.0821(3) -0.4830(2)
C9 C -0.6414(4) 0.0416(4) -0.4844(3)
H10 H -0.6972 0.1046 -0.4735
H11 H -0.6526 -0.0155 -0.4443
H12 H -0.6619 0.0103 -0.5355
C10 C -0.4932(5) 0.1832(4) -0.5401(3)
H13 H -0.5580 0.2378 -0.5267
H14 H -0.5062 0.1574 -0.5936
H15 H -0.4102 0.2179 -0.5358
C11 C -0.4979(3) -0.2836(3) -0.5877(2)
C12 C -0.5553(4) -0.2821(4) -0.6607(3)
H16 H -0.5870 -0.2114 -0.6813
C13 C -0.5644(5) -0.3824(5) -0.7055(3)
H17 H -0.6045 -0.3821 -0.7569
C14 C -0.5180(5) -0.4812(5) -0.6756(3)
H18 H -0.5260 -0.5505 -0.7051
C15 C -0.4594(4) -0.4829(4) -0.6026(3)
H19 H -0.4262 -0.5530 -0.5820
C16 C -0.4480(4) -0.3844(3) -0.5573(3)
H20 H -0.4046 -0.3838 -0.5070
C17 C -0.5911(3) -0.2398(3) -0.4232(2)
C18 C -0.5738(3) -0.2665(3) -0.3347(2)
H21 H -0.5287 -0.2051 -0.3097
C19 C -0.4899(4) -0.3708(3) -0.3287(2)
C20 C -0.3681(5) -0.3650(5) -0.2994(3)
H22 H -0.3362 -0.2929 -0.2815
C21 C -0.2935(6) -0.4646(7) -0.2961(4)
H23 H -0.2088 -0.4627 -0.2738
C22 C -0.3462(10) -0.5649(6) -0.3221(4)
H24 H -0.2888 -0.6285 -0.3199
C23 C -0.4647(10) -0.5698(6) -0.3494(4)
H25 H -0.4948 -0.6427 -0.3668
C24 C -0.5368(6) -0.4746(4) -0.3528(3)
H26 H -0.6224 -0.4807 -0.3733
loop_
_geom_bond_atom_site_label_1
_geom_bond_atom_site_label_2
_geom_bond_site_symmetry_1
_geom_bond_site_symmetry_2
O1 C1 1_555 1_555
O2 C17 1_555 1_555
O3 H1 1_555 1_555
N1 N2 1_555 1_555
N2 C3 1_555 1_555
C1 N1 1_555 1_555
C2 C1 1_555 1_555
C3 C2 1_555 1_555
H2 C3 1_555 1_555
C4 C3 1_555 1_555
H3 C4 1_555 1_555
H4 C4 1_555 1_555
C5 C4 1_555 1_555
H5 C5 1_555 1_555
C6 C5 1_555 1_555
H6 C6 1_555 1_555
H7 C6 1_555 1_555
C7 C2 1_555 1_555
H8 C7 1_555 1_555
H9 C7 1_555 1_555
C8 C2 1_555 1_555
C9 C8 1_555 1_555
H10 C9 1_555 1_555
H11 C9 1_555 1_555
H12 C9 1_555 1_555
C10 C8 1_555 1_555
H13 C10 1_555 1_555
H14 C10 1_555 1_555
H15 C10 1_555 1_555
C11 N1 1_555 1_555
C12 C11 1_555 1_555
H16 C12 1_555 1_555
C13 C12 1_555 1_555
H17 C13 1_555 1_555
C14 C13 1_555 1_555
H18 C14 1_555 1_555
C15 C14 1_555 1_555
H19 C15 1_555 1_555
C16 C11 1_555 1_555
H20 C16 1_555 1_555
C17 N2 1_555 1_555
C18 O3 1_555 1_555
H21 C18 1_555 1_555
C19 C18 1_555 1_555
C20 C19 1_555 1_555
H22 C20 1_555 1_555
C21 C20 1_555 1_555
H23 C21 1_555 1_555
C22 C21 1_555 1_555
H24 C22 1_555 1_555
C23 C22 1_555 1_555
H25 C23 1_555 1_555
C24 C19 1_555 1_555
H26 C24 1_555 1_555
C5 C8 1_555 1_555
C6 C7 1_555 1_555
C15 C16 1_555 1_555
C17 C18 1_555 1_555
C23 C24 1_555 1_555

#END
