
#######################################################################
#
#                 Cambridge Crystallographic Data Centre
#                                CCDC 
#
#######################################################################
#
# If this CIF has been generated from an entry in the Cambridge 
# Structural Database, then it will include bibliographic, chemical, 
# crystal, experimental, refinement or atomic coordinate data resulting 
# from the CCDC's data processing and validation procedures.
#
#######################################################################

data_OCUMUV
_chemical_compound_source        'leaves and stems of Schisandra lancifolia'
_chemical_formula_moiety         'C29 H36 O11,C3 H6 O1'
_chemical_name_systematic        'Lancifodilactone L acetone solvate'
_chemical_properties_biological  'anti-HIV-1 activity'
_symmetry_cell_setting           monoclinic
_symmetry_space_group_name_H-M   'P 21'
_symmetry_Int_Tables_number      4
_space_group_name_Hall           'P 2yb'
loop_
_symmetry_equiv_pos_site_id
_symmetry_equiv_pos_as_xyz
1 x,y,z
2 -x,1/2+y,-z
_cell_length_a                   8.4280(17)
_cell_length_b                   16.075(3)
_cell_length_c                   11.381(2)
_cell_angle_alpha                90
_cell_angle_beta                 95.86(3)
_cell_angle_gamma                90
_cell_volume                     1533.84
_exptl_crystal_colour            colorless
_exptl_crystal_description       block
_chemical_melting_point          180-181deg.C
_cell_formula_units_Z            2
loop_
_atom_site_label
_atom_site_type_symbol
_atom_site_fract_x
_atom_site_fract_y
_atom_site_fract_z
C1 C 0.7101(5) 0.8461(2) 0.1895(4)
H1 H 0.7237 0.9001 0.2292
C2 C 0.8717(5) 0.8072(3) 0.1680(4)
H2 H 0.8883 0.8100 0.0850
H3 H 0.9586 0.8359 0.2136
C3 C 0.8615(5) 0.7191(2) 0.2074(4)
C4 C 0.4461(4) 0.8406(3) 0.1063(4)
C5 C 0.4683(4) 0.7651(3) 0.1958(4)
H4 H 0.4822 0.7153 0.1482
C6 C 0.3318(4) 0.7470(2) 0.2675(4)
H5 H 0.2360 0.7370 0.2146
H6 H 0.3129 0.7952 0.3155
C7 C 0.3652(4) 0.6711(2) 0.3481(4)
H7 H 0.4397 0.6342 0.3125
C8 C 0.4379(4) 0.6947(2) 0.4729(3)
H8 H 0.3550 0.7208 0.5148
C9 C 0.5928(4) 0.7500(2) 0.4904(4)
C10 C 0.6283(4) 0.7817(2) 0.2657(3)
C11 C 0.5961(6) 0.7980(3) 0.6067(4)
H9 H 0.6936 0.8304 0.6164
H10 H 0.5077 0.8369 0.5999
C12 C 0.5867(5) 0.7470(2) 0.7177(4)
H11 H 0.4889 0.7149 0.7069
H12 H 0.5759 0.7857 0.7818
C13 C 0.7240(5) 0.6859(3) 0.7595(4)
C14 C 0.7441(4) 0.6080(2) 0.6830(3)
H13 H 0.6897 0.5613 0.7170
C15 C 0.6819(4) 0.6158(2) 0.5556(3)
C16 C 0.4922(4) 0.6159(2) 0.5372(3)
C17 C 0.8857(5) 0.7303(3) 0.7631(4)
C18 C 0.7043(7) 0.6576(3) 0.8855(4)
H14 H 0.7876 0.6191 0.9115
H15 H 0.6025 0.6310 0.8871
H16 H 0.7102 0.7051 0.9370
C19 C 0.6301(4) 0.8106(2) 0.3941(3)
H17 H 0.7351 0.8334 0.4174
H18 H 0.5550 0.8563 0.3949
C20 C 1.0028(5) 0.6774(3) 0.7023(4)
H19 H 1.0040 0.6978 0.6212
C21 C 1.1727(5) 0.6803(4) 0.7622(6)
H20 H 1.2398 0.6452 0.7202
H21 H 1.1739 0.6611 0.8422
H22 H 1.2115 0.7365 0.7621
C22 C 0.9259(5) 0.5903(3) 0.6968(4)
H23 H 0.9532 0.5629 0.7732
C23 C 0.9860(5) 0.5373(3) 0.6030(4)
H24 H 1.1002 0.5473 0.6000
C24 C 0.8967(4) 0.5476(2) 0.4781(4)
H25 H 0.9338 0.5958 0.4359
C25 C 0.9310(5) 0.4660(2) 0.4193(5)
C26 C 0.9271(5) 0.4061(3) 0.5250(5)
C27 C 0.8262(7) 0.4407(3) 0.3148(5)
H26 H 0.8602 0.3877 0.2876
H27 H 0.8312 0.4813 0.2535
H28 H 0.7186 0.4364 0.3348
C28 C 0.3827(7) 0.9166(3) 0.1618(6)
H29 H 0.3672 0.9601 0.1039
H30 H 0.4574 0.9348 0.2259
H31 H 0.2827 0.9037 0.1910
C29 C 0.3456(6) 0.8154(4) -0.0063(4)
H32 H 0.3291 0.8628 -0.0574
H33 H 0.2444 0.7948 0.0127
H34 H 0.3997 0.7726 -0.0456
O1 O 0.6095(4) 0.8524(2) 0.0801(3)
O2 O 0.9533(4) 0.6636(2) 0.1981(4)
O3 O 0.7267(3) 0.70586(17) 0.2608(3)
O4 O 0.2222(4) 0.6264(2) 0.3604(3)
H35 H 0.2346 0.5970 0.4195
O5 O 0.7238(3) 0.69077(15) 0.5047(2)
O6 O 0.7270(3) 0.54883(16) 0.4852(3)
O7 O 0.4146(4) 0.5598(2) 0.5738(3)
O8 O 0.9157(4) 0.7944(2) 0.8123(4)
O9 O 1.0986(4) 0.4625(2) 0.3983(4)
H36 H 1.1307 0.5096 0.3865
O10 O 0.9020(6) 0.3321(2) 0.5238(4)
O11 O 0.9586(4) 0.44866(19) 0.6274(3)
O12 O 0.6714(12) 0.0879(6) 0.9662(9)
C30 C 0.7253(11) 0.0271(5) 0.9207(7)
C31 C 0.8868(15) -0.0027(6) 0.9544(8)
H37 H 0.9415 0.0357 1.0090
H38 H 0.9429 -0.0070 0.8853
H39 H 0.8826 -0.0563 0.9910
C32 C 0.6229(15) -0.0217(6) 0.8390(9)
H40 H 0.5209 0.0050 0.8248
H41 H 0.6095 -0.0760 0.8716
H42 H 0.6699 -0.0268 0.7660
loop_
_geom_bond_atom_site_label_1
_geom_bond_atom_site_label_2
_geom_bond_site_symmetry_1
_geom_bond_site_symmetry_2
C1 H1 1_555 1_555
C2 C1 1_555 1_555
H2 C2 1_555 1_555
H3 C2 1_555 1_555
C3 C2 1_555 1_555
C4 C5 1_555 1_555
C5 H4 1_555 1_555
C6 C5 1_555 1_555
H5 C6 1_555 1_555
H6 C6 1_555 1_555
C7 C6 1_555 1_555
H7 C7 1_555 1_555
C8 C7 1_555 1_555
H8 C8 1_555 1_555
C9 C8 1_555 1_555
C10 C1 1_555 1_555
C11 C9 1_555 1_555
H9 C11 1_555 1_555
H10 C11 1_555 1_555
C12 C11 1_555 1_555
H11 C12 1_555 1_555
H12 C12 1_555 1_555
C13 C12 1_555 1_555
C14 C13 1_555 1_555
H13 C14 1_555 1_555
C15 C14 1_555 1_555
C16 C8 1_555 1_555
C17 C13 1_555 1_555
C18 C13 1_555 1_555
H14 C18 1_555 1_555
H15 C18 1_555 1_555
H16 C18 1_555 1_555
C19 C9 1_555 1_555
H17 C19 1_555 1_555
H18 C19 1_555 1_555
C20 C17 1_555 1_555
H19 C20 1_555 1_555
C21 C20 1_555 1_555
H20 C21 1_555 1_555
H21 C21 1_555 1_555
H22 C21 1_555 1_555
C22 C14 1_555 1_555
H23 C22 1_555 1_555
C23 C22 1_555 1_555
H24 C23 1_555 1_555
C24 C23 1_555 1_555
H25 C24 1_555 1_555
C25 C24 1_555 1_555
C26 C25 1_555 1_555
C27 C25 1_555 1_555
H26 C27 1_555 1_555
H27 C27 1_555 1_555
H28 C27 1_555 1_555
C28 C4 1_555 1_555
H29 C28 1_555 1_555
H30 C28 1_555 1_555
H31 C28 1_555 1_555
C29 C4 1_555 1_555
H32 C29 1_555 1_555
H33 C29 1_555 1_555
H34 C29 1_555 1_555
O1 C1 1_555 1_555
O2 C3 1_555 1_555
O3 C3 1_555 1_555
O4 C7 1_555 1_555
H35 O4 1_555 1_555
O5 C9 1_555 1_555
O6 C15 1_555 1_555
O7 C16 1_555 1_555
O8 C17 1_555 1_555
O9 C25 1_555 1_555
H36 O9 1_555 1_555
O10 C26 1_555 1_555
O11 C23 1_555 1_555
O12 C30 1_555 1_555
C30 C31 1_555 1_555
C31 H37 1_555 1_555
H38 C31 1_555 1_555
H39 C31 1_555 1_555
C32 C30 1_555 1_555
H40 C32 1_555 1_555
H41 C32 1_555 1_555
H42 C32 1_555 1_555
C4 O1 1_555 1_555
C5 C10 1_555 1_555
C10 C19 1_555 1_555
C10 O3 1_555 1_555
C15 C16 1_555 1_555
C15 O5 1_555 1_555
C20 C22 1_555 1_555
C24 O6 1_555 1_555
C26 O11 1_555 1_555

#END
