
#######################################################################
#
#                 Cambridge Crystallographic Data Centre
#                                CCDC 
#
#######################################################################
#
# If this CIF has been generated from an entry in the Cambridge 
# Structural Database, then it will include bibliographic, chemical, 
# crystal, experimental, refinement or atomic coordinate data resulting 
# from the CCDC's data processing and validation procedures.
#
#######################################################################

data_OCUNUV
_chemical_formula_moiety         'C14 H20 S2'
_chemical_name_systematic        10,14-Dimethyl-2,7-dithia(8)metacyclophane
_symmetry_cell_setting           triclinic
_symmetry_space_group_name_H-M   'P -1'
_symmetry_Int_Tables_number      2
_space_group_name_Hall           '-P 1'
loop_
_symmetry_equiv_pos_site_id
_symmetry_equiv_pos_as_xyz
1 x,y,z
2 -x,-y,-z
_cell_length_a                   7.993(1)
_cell_length_b                   8.094(1)
_cell_length_c                   12.198(1)
_cell_angle_alpha                71.47(1)
_cell_angle_beta                 74.51(1)
_cell_angle_gamma                63.60(1)
_cell_volume                     662.82
_exptl_crystal_colour            colorless
_exptl_crystal_description       blocks
_cell_formula_units_Z            2
loop_
_atom_site_label
_atom_site_type_symbol
_atom_site_fract_x
_atom_site_fract_y
_atom_site_fract_z
S1 S 0.70367(9) 0.80610(10) 0.61260(6)
C1 C 0.6358(4) 0.6742(4) 0.5456(2)
H1 H 0.5363 0.7652 0.4969
H2 H 0.7466 0.6056 0.4937
C2 C 0.5642(4) 0.5350(4) 0.6354(2)
C3 C 0.6923(4) 0.3659(4) 0.6961(2)
C4 C 0.6219(4) 0.2528(4) 0.7904(2)
H3 H 0.7063 0.1340 0.8286
C5 C 0.4298(4) 0.3115(4) 0.8296(2)
H4 H 0.3849 0.2375 0.8984
C6 C 0.3017(4) 0.4769(4) 0.7700(2)
C7 C 0.3679(4) 0.5851(3) 0.6667(2)
C8 C 0.0985(4) 0.5461(4) 0.8249(2)
H5 H 0.0791 0.4457 0.8924
H6 H 0.0184 0.5705 0.7674
S2 S 0.02361(9) 0.76376(9) 0.87473(5)
C9 C 0.2189(4) 0.7244(4) 0.9436(2)
H7 H 0.1818 0.7006 1.0295
H8 H 0.3295 0.6108 0.9251
C10 C 0.2729(4) 0.8959(4) 0.9009(2)
H9 H 0.1568 1.0110 0.9090
H10 H 0.3568 0.8823 0.9528
C11 C 0.3712(4) 0.9258(4) 0.7752(2)
H11 H 0.3632 1.0578 0.7482
H12 H 0.3041 0.9086 0.7249
C12 C 0.5782(4) 0.7900(4) 0.7609(2)
H13 H 0.5851 0.6588 0.7934
H14 H 0.6451 0.8129 0.8086
C13 C 0.9026(4) 0.3075(4) 0.6634(3)
H15 H 0.9384 0.4023 0.6736
H16 H 0.9396 0.2980 0.5816
H17 H 0.9669 0.1842 0.7138
C14 C 0.2305(4) 0.7495(4) 0.5919(2)
H18 H 0.2311 0.8684 0.5957
H19 H 0.1034 0.7505 0.6207
H20 H 0.2678 0.7365 0.5108
loop_
_geom_bond_atom_site_label_1
_geom_bond_atom_site_label_2
_geom_bond_site_symmetry_1
_geom_bond_site_symmetry_2
S1 C1 1_555 1_555
C1 H1 1_555 1_555
H2 C1 1_555 1_555
C2 C1 1_555 1_555
C3 C2 1_555 1_555
C4 C3 1_555 1_555
H3 C4 1_555 1_555
C5 C4 1_555 1_555
H4 C5 1_555 1_555
C6 C5 1_555 1_555
C7 C2 1_555 1_555
C8 C6 1_555 1_555
H5 C8 1_555 1_555
H6 C8 1_555 1_555
S2 C8 1_555 1_555
C9 S2 1_555 1_555
H7 C9 1_555 1_555
H8 C9 1_555 1_555
C10 C9 1_555 1_555
H9 C10 1_555 1_555
H10 C10 1_555 1_555
C11 C10 1_555 1_555
H11 C11 1_555 1_555
H12 C11 1_555 1_555
C12 S1 1_555 1_555
H13 C12 1_555 1_555
H14 C12 1_555 1_555
C13 C3 1_555 1_555
H15 C13 1_555 1_555
H16 C13 1_555 1_555
H17 C13 1_555 1_555
C14 C7 1_555 1_555
H18 C14 1_555 1_555
H19 C14 1_555 1_555
H20 C14 1_555 1_555
C6 C7 1_555 1_555
C11 C12 1_555 1_555

#END
