
#######################################################################
#
#                 Cambridge Crystallographic Data Centre
#                                CCDC 
#
#######################################################################
#
# If this CIF has been generated from an entry in the Cambridge 
# Structural Database, then it will include bibliographic, chemical, 
# crystal, experimental, refinement or atomic coordinate data resulting 
# from the CCDC's data processing and validation procedures.
#
#######################################################################

data_OCUNIK
_chemical_formula_moiety         'C16 H14 O4'
_chemical_name_systematic        3,3'-Dimethoxybenzil
_symmetry_cell_setting           monoclinic
_symmetry_space_group_name_H-M   'C 2/c'
_symmetry_Int_Tables_number      15
_space_group_name_Hall           '-C 2yn'
loop_
_symmetry_equiv_pos_site_id
_symmetry_equiv_pos_as_xyz
1 x,y,z
2 1/2+x,1/2+y,z
3 -x,y,1/2-z
4 1/2-x,1/2+y,1/2-z
5 -x,-y,-z
6 1/2-x,1/2-y,-z
7 x,-y,1/2+z
8 1/2+x,1/2-y,1/2+z
_cell_length_a                   20.0790(4)
_cell_length_b                   4.80860(10)
_cell_length_c                   13.7747(3)
_cell_angle_alpha                90
_cell_angle_beta                 92.3620(9)
_cell_angle_gamma                90
_cell_volume                     1328.84
_exptl_crystal_colour            yellow
_exptl_crystal_description       needle
_cell_formula_units_Z            4
loop_
_atom_site_label
_atom_site_type_symbol
_atom_site_fract_x
_atom_site_fract_y
_atom_site_fract_z
O1 O 0.56576(4) 0.4228(2) 0.31574(6)
O2 O 0.74512(4) 0.03435(19) 0.09500(6)
C1 C 0.53828(5) 0.2806(2) 0.25284(7)
C2 C 0.57428(4) 0.1233(2) 0.17905(7)
C3 C 0.64313(5) 0.1655(2) 0.17352(7)
C4 C 0.67790(5) 0.0143(2) 0.10642(7)
C5 C 0.64472(5) -0.1780(2) 0.04585(8)
C6 C 0.57686(6) -0.2186(3) 0.05225(8)
C7 C 0.54099(5) -0.0677(2) 0.11895(7)
C8 C 0.78007(5) 0.2525(3) 0.14559(9)
H1 H 0.66685(5) 0.3028(2) 0.21715(7)
H2 H 0.67019(5) -0.2852(2) -0.00257(8)
H3 H 0.55340(6) -0.3575(3) 0.00901(8)
H4 H 0.49185(5) -0.0951(2) 0.12346(7)
H5 H 0.82846(5) 0.2434(3) 0.13137(9)
H6 H 0.77471(5) 0.2318(3) 0.21708(9)
H7 H 0.76143(5) 0.4358(3) 0.12350(9)
O1B O 0.43424(4) 0.4228(2) 0.18426(6)
O2B O 0.25488(4) 0.03435(19) 0.40500(6)
C1B C 0.46172(5) 0.2806(2) 0.24716(7)
C2B C 0.42572(4) 0.1233(2) 0.32095(7)
C3B C 0.35687(5) 0.1655(2) 0.32648(7)
C4B C 0.32210(5) 0.0143(2) 0.39358(7)
C5B C 0.35528(5) -0.1780(2) 0.45415(8)
C6B C 0.42314(6) -0.2186(3) 0.44775(8)
C7B C 0.45901(5) -0.0677(2) 0.38105(7)
C8B C 0.21993(5) 0.2525(3) 0.35441(9)
H1B H 0.33315(5) 0.3028(2) 0.28285(7)
H2B H 0.32981(5) -0.2852(2) 0.50257(8)
H3B H 0.44660(6) -0.3575(3) 0.49099(8)
H4B H 0.50815(5) -0.0951(2) 0.37654(7)
H5B H 0.17154(5) 0.2434(3) 0.36863(9)
H6B H 0.22529(5) 0.2318(3) 0.28292(9)
H7B H 0.23857(5) 0.4358(3) 0.37650(9)
loop_
_geom_bond_atom_site_label_1
_geom_bond_atom_site_label_2
_geom_bond_site_symmetry_1
_geom_bond_site_symmetry_2
O1 C1 1_555 1_555
O2 C4 1_555 1_555
C1 C2 1_555 1_555
C2 C3 1_555 1_555
C3 C4 1_555 1_555
C4 C5 1_555 1_555
C5 C6 1_555 1_555
C6 C7 1_555 1_555
C7 C2 1_555 1_555
C8 O2 1_555 1_555
H1 C3 1_555 1_555
H2 C5 1_555 1_555
H3 C6 1_555 1_555
H4 C7 1_555 1_555
H5 C8 1_555 1_555
H6 C8 1_555 1_555
H7 C8 1_555 1_555
O1B C1B 1_555 1_555
O2B C4B 1_555 1_555
C1B C1 1_555 1_555
C2B C1B 1_555 1_555
C3B C2B 1_555 1_555
C4B C3B 1_555 1_555
C5B C4B 1_555 1_555
C6B C5B 1_555 1_555
C7B C2B 1_555 1_555
C8B O2B 1_555 1_555
H1B C3B 1_555 1_555
H2B C5B 1_555 1_555
H3B C6B 1_555 1_555
H4B C7B 1_555 1_555
H5B C8B 1_555 1_555
H6B C8B 1_555 1_555
H7B C8B 1_555 1_555
C6B C7B 1_555 1_555

#END
