
#######################################################################
#
#                 Cambridge Crystallographic Data Centre
#                                CCDC 
#
#######################################################################
#
# If this CIF has been generated from an entry in the Cambridge 
# Structural Database, then it will include bibliographic, chemical, 
# crystal, experimental, refinement or atomic coordinate data resulting 
# from the CCDC's data processing and validation procedures.
#
#######################################################################

data_OCUPEH
_chemical_formula_moiety         'C12 H15 Br1 S2'
_chemical_name_systematic        14-Bromo-2,7-dithia(8)metacyclophane
_symmetry_cell_setting           monoclinic
_symmetry_space_group_name_H-M   'P 21/c'
_symmetry_Int_Tables_number      14
_space_group_name_Hall           '-P 2ybc'
loop_
_symmetry_equiv_pos_site_id
_symmetry_equiv_pos_as_xyz
1 x,y,z
2 x,1/2-y,1/2+z
3 -x,-y,-z
4 -x,1/2+y,1/2-z
_cell_length_a                   7.907(3)
_cell_length_b                   20.452(2)
_cell_length_c                   8.477(1)
_cell_angle_alpha                90
_cell_angle_beta                 116.81(2)
_cell_angle_gamma                90
_cell_volume                     1223.49
_exptl_crystal_colour            colorless
_exptl_crystal_description       prisms
_cell_formula_units_Z            4
loop_
_atom_site_label
_atom_site_type_symbol
_atom_site_fract_x
_atom_site_fract_y
_atom_site_fract_z
C1 C 0.4747(6) 0.6102(2) 0.4021(5)
H1 H 0.5473 0.5962 0.5267
H2 H 0.5377 0.6493 0.3839
S1 S 0.47573(16) 0.54450(5) 0.25625(13)
C2 C 0.3834(6) 0.5811(2) 0.0359(5)
H3 H 0.3613 0.6283 0.0450
H4 H 0.4805 0.5771 -0.0070
C3 C 0.1992(6) 0.5501(2) -0.1000(5)
H5 H 0.2090 0.5021 -0.0829
H6 H 0.1867 0.5592 -0.2196
C4 C 0.0188(6) 0.5735(2) -0.0931(5)
H7 H -0.0844 0.5418 -0.1566
H8 H 0.0414 0.5748 0.0317
C5 C -0.0440(6) 0.6412(2) -0.1751(5)
H9 H -0.0695 0.6391 -0.3006
H10 H 0.0622 0.6721 -0.1144
S2 S -0.25267(16) 0.67375(5) -0.16512(12)
C6 C -0.1494(7) 0.7243(2) 0.0343(5)
H11 H -0.0739 0.7600 0.0184
H12 H -0.2518 0.7442 0.0550
C7 C -0.0240(6) 0.6830(2) 0.1917(5)
C8 C -0.1101(6) 0.6404(2) 0.2622(5)
H13 H -0.2425 0.6440 0.2252
C9 C -0.0076(7) 0.5932(2) 0.3847(5)
H14 H -0.0673 0.5663 0.4360
C10 C 0.1829(7) 0.5857(2) 0.4317(5)
H15 H 0.2517 0.5513 0.5097
C11 C 0.2756(6) 0.6276(2) 0.3667(5)
C12 C 0.1718(6) 0.67854(19) 0.2574(5)
Br1 Br 0.30262(7) 0.74543(2) 0.19701(6)
loop_
_geom_bond_atom_site_label_1
_geom_bond_atom_site_label_2
_geom_bond_site_symmetry_1
_geom_bond_site_symmetry_2
C1 H1 1_555 1_555
H2 C1 1_555 1_555
S1 C1 1_555 1_555
C2 S1 1_555 1_555
H3 C2 1_555 1_555
H4 C2 1_555 1_555
C3 C2 1_555 1_555
H5 C3 1_555 1_555
H6 C3 1_555 1_555
C4 C3 1_555 1_555
H7 C4 1_555 1_555
H8 C4 1_555 1_555
C5 C4 1_555 1_555
H9 C5 1_555 1_555
H10 C5 1_555 1_555
S2 C5 1_555 1_555
C6 S2 1_555 1_555
H11 C6 1_555 1_555
H12 C6 1_555 1_555
C7 C6 1_555 1_555
C8 C7 1_555 1_555
H13 C8 1_555 1_555
C9 C8 1_555 1_555
H14 C9 1_555 1_555
C10 C9 1_555 1_555
H15 C10 1_555 1_555
C11 C1 1_555 1_555
C12 C7 1_555 1_555
Br1 C12 1_555 1_555
C10 C11 1_555 1_555
C11 C12 1_555 1_555

#END
