
#######################################################################
#
#                 Cambridge Crystallographic Data Centre
#                                CCDC 
#
#######################################################################
#
# If this CIF has been generated from an entry in the Cambridge 
# Structural Database, then it will include bibliographic, chemical, 
# crystal, experimental, refinement or atomic coordinate data resulting 
# from the CCDC's data processing and validation procedures.
#
#######################################################################

data_OCUPIL
_chemical_formula_moiety         'C12 H15 Br1 O4 S2'
_chemical_name_systematic        
14-Bromo-2,7-dithia(8)metacyclophane-2,2,7,7-tetraoxide
_symmetry_cell_setting           monoclinic
_symmetry_space_group_name_H-M   'P 21/c'
_symmetry_Int_Tables_number      14
_space_group_name_Hall           '-P 2ybc'
loop_
_symmetry_equiv_pos_site_id
_symmetry_equiv_pos_as_xyz
1 x,y,z
2 x,1/2-y,1/2+z
3 -x,-y,-z
4 -x,1/2+y,1/2-z
_cell_length_a                   12.540(1)
_cell_length_b                   8.565(1)
_cell_length_c                   12.443(1)
_cell_angle_alpha                90
_cell_angle_beta                 90.93(1)
_cell_angle_gamma                90
_cell_volume                     1336.27
_exptl_crystal_colour            colorless
_exptl_crystal_description       blocks
_cell_formula_units_Z            4
loop_
_atom_site_label
_atom_site_type_symbol
_atom_site_fract_x
_atom_site_fract_y
_atom_site_fract_z
C1 C 0.0925(3) 0.2194(4) 0.4530(3)
H1 H 0.1180 0.2475 0.3807
H2 H 0.0169 0.1868 0.4459
S1 S 0.17106(7) 0.05885(11) 0.50594(8)
O1 O 0.1445(2) 0.0371(3) 0.6171(2)
O2 O 0.1525(2) -0.0702(3) 0.4346(2)
C2 C 0.3096(3) 0.1135(5) 0.4984(3)
H3 H 0.3477 0.0321 0.4577
H4 H 0.3146 0.2121 0.4573
C3 C 0.3669(3) 0.1360(5) 0.6072(4)
H5 H 0.3434 0.0519 0.6560
H6 H 0.4443 0.1216 0.5963
C4 C 0.3509(3) 0.2917(5) 0.6639(3)
H7 H 0.3716 0.2814 0.7407
H8 H 0.2745 0.3211 0.6599
C5 C 0.4178(3) 0.4193(5) 0.6121(4)
H9 H 0.4021 0.4183 0.5338
H10 H 0.4939 0.3910 0.6219
S2 S 0.40081(7) 0.61447(12) 0.65921(9)
O3 O 0.4923(2) 0.7035(4) 0.6254(3)
O4 O 0.3776(2) 0.6118(4) 0.7721(2)
C6 C 0.2885(3) 0.6967(5) 0.5872(4)
H11 H 0.2699 0.7986 0.6196
H12 H 0.3084 0.7156 0.5116
C7 C 0.1930(3) 0.5916(4) 0.5893(3)
C8 C 0.1721(3) 0.4807(4) 0.5091(3)
Br1 Br 0.24227(3) 0.49816(5) 0.37501(3)
C9 C 0.1003(3) 0.3592(5) 0.5253(3)
C10 C 0.0391(3) 0.3620(5) 0.6183(3)
H13 H -0.0119 0.2819 0.6298
C11 C 0.0514(3) 0.4775(5) 0.6923(3)
H14 H 0.0059 0.4812 0.7526
C12 C 0.1297(3) 0.5897(5) 0.6805(4)
H15 H 0.1404 0.6662 0.7349
loop_
_geom_bond_atom_site_label_1
_geom_bond_atom_site_label_2
_geom_bond_site_symmetry_1
_geom_bond_site_symmetry_2
C1 H1 1_555 1_555
H2 C1 1_555 1_555
S1 C1 1_555 1_555
O1 S1 1_555 1_555
O2 S1 1_555 1_555
C2 S1 1_555 1_555
H3 C2 1_555 1_555
H4 C2 1_555 1_555
C3 C2 1_555 1_555
H5 C3 1_555 1_555
H6 C3 1_555 1_555
C4 C3 1_555 1_555
H7 C4 1_555 1_555
H8 C4 1_555 1_555
C5 C4 1_555 1_555
H9 C5 1_555 1_555
H10 C5 1_555 1_555
S2 C5 1_555 1_555
O3 S2 1_555 1_555
O4 S2 1_555 1_555
C6 S2 1_555 1_555
H11 C6 1_555 1_555
H12 C6 1_555 1_555
C7 C6 1_555 1_555
C8 C7 1_555 1_555
Br1 C8 1_555 1_555
C9 C1 1_555 1_555
C10 C9 1_555 1_555
H13 C10 1_555 1_555
C11 C10 1_555 1_555
H14 C11 1_555 1_555
C12 C7 1_555 1_555
H15 C12 1_555 1_555
C8 C9 1_555 1_555
C11 C12 1_555 1_555

#END
