
#######################################################################
#
#                 Cambridge Crystallographic Data Centre
#                                CCDC 
#
#######################################################################
#
# If this CIF has been generated from an entry in the Cambridge 
# Structural Database, then it will include bibliographic, chemical, 
# crystal, experimental, refinement or atomic coordinate data resulting 
# from the CCDC's data processing and validation procedures.
#
#######################################################################

data_OCUPOR
_chemical_formula_moiety         'C13 H18 O4 S2'
_chemical_name_systematic        
9,13-Dimethyl-2,6-dithia(7)metacyclophane-2,2,6,6-tetraoxide
_symmetry_cell_setting           monoclinic
_symmetry_space_group_name_H-M   'P 21/c'
_symmetry_Int_Tables_number      14
_space_group_name_Hall           '-P 2ybc'
loop_
_symmetry_equiv_pos_site_id
_symmetry_equiv_pos_as_xyz
1 x,y,z
2 x,1/2-y,1/2+z
3 -x,-y,-z
4 -x,1/2+y,1/2-z
_cell_length_a                   15.275(1)
_cell_length_b                   7.334(1)
_cell_length_c                   12.033(1)
_cell_angle_alpha                90
_cell_angle_beta                 96.89(1)
_cell_angle_gamma                90
_cell_volume                     1338.28
_exptl_crystal_colour            colorless
_exptl_crystal_description       plates
_cell_formula_units_Z            4
loop_
_atom_site_label
_atom_site_type_symbol
_atom_site_fract_x
_atom_site_fract_y
_atom_site_fract_z
C1 C 0.09939(16) -0.0223(4) 0.3995(2)
H1 H 0.0900 -0.0277 0.4786
H2 H 0.0734 -0.1319 0.3625
S1 S 0.04565(4) 0.17627(9) 0.33617(6)
O1 O -0.04510(11) 0.1699(3) 0.35916(18)
O2 O 0.06082(12) 0.1846(3) 0.22002(15)
C2 C 0.09462(15) 0.3706(4) 0.4075(2)
H3 H 0.0526 0.4719 0.3975
H4 H 0.1047 0.3431 0.4877
C3 C 0.18248(15) 0.4338(3) 0.3693(2)
H5 H 0.2107 0.3301 0.3365
H6 H 0.1705 0.5270 0.3111
C4 C 0.24573(15) 0.5120(3) 0.4660(2)
H7 H 0.2326 0.4549 0.5358
H8 H 0.2340 0.6428 0.4717
S2 S 0.36055(4) 0.48195(8) 0.45479(5)
O3 O 0.40658(11) 0.6144(2) 0.52819(16)
O4 O 0.37196(11) 0.4841(2) 0.33774(14)
C5 C 0.39092(15) 0.2600(3) 0.5126(2)
H9 H 0.4542 0.2401 0.5112
H10 H 0.3787 0.2545 0.5906
C6 C 0.33975(14) 0.1140(3) 0.4459(2)
C7 C 0.37034(15) 0.0467(3) 0.3481(2)
C8 C 0.31307(17) -0.0566(3) 0.2746(2)
H11 H 0.3341 -0.1123 0.2126
C9 C 0.22613(18) -0.0785(3) 0.2913(2)
H12 H 0.1864 -0.1339 0.2358
C10 C 0.19697(16) -0.0186(3) 0.3904(2)
C11 C 0.25625(15) 0.0625(3) 0.4737(2)
C12 C 0.23309(16) 0.0883(4) 0.5913(2)
H13 H 0.2135 0.2126 0.6004
H14 H 0.2847 0.0643 0.6446
H15 H 0.1863 0.0044 0.6044
C13 C 0.46281(17) 0.0830(4) 0.3212(2)
H16 H 0.4684 0.2104 0.3016
H17 H 0.4748 0.0072 0.2587
H18 H 0.5047 0.0547 0.3861
loop_
_geom_bond_atom_site_label_1
_geom_bond_atom_site_label_2
_geom_bond_site_symmetry_1
_geom_bond_site_symmetry_2
C1 H1 1_555 1_555
H2 C1 1_555 1_555
S1 C1 1_555 1_555
O1 S1 1_555 1_555
O2 S1 1_555 1_555
C2 S1 1_555 1_555
H3 C2 1_555 1_555
H4 C2 1_555 1_555
C3 C2 1_555 1_555
H5 C3 1_555 1_555
H6 C3 1_555 1_555
C4 C3 1_555 1_555
H7 C4 1_555 1_555
H8 C4 1_555 1_555
S2 C4 1_555 1_555
O3 S2 1_555 1_555
O4 S2 1_555 1_555
C5 S2 1_555 1_555
H9 C5 1_555 1_555
H10 C5 1_555 1_555
C6 C5 1_555 1_555
C7 C6 1_555 1_555
C8 C7 1_555 1_555
H11 C8 1_555 1_555
C9 C8 1_555 1_555
H12 C9 1_555 1_555
C10 C1 1_555 1_555
C11 C6 1_555 1_555
C12 C11 1_555 1_555
H13 C12 1_555 1_555
H14 C12 1_555 1_555
H15 C12 1_555 1_555
C13 C7 1_555 1_555
H16 C13 1_555 1_555
H17 C13 1_555 1_555
H18 C13 1_555 1_555
C9 C10 1_555 1_555
C10 C11 1_555 1_555

#END
