
#######################################################################
#
#                 Cambridge Crystallographic Data Centre
#                                CCDC 
#
#######################################################################
#
# If this CIF has been generated from an entry in the Cambridge 
# Structural Database, then it will include bibliographic, chemical, 
# crystal, experimental, refinement or atomic coordinate data resulting 
# from the CCDC's data processing and validation procedures.
#
#######################################################################

data_OCUPAF
_chemical_formula_moiety         
'0.7(C46 H60 N6 O5),H2 O1,0.3(C46 H59 I1 N6 O5)'
_chemical_name_systematic        
'Methyl 3\a,7\a,12\a-bis((phenylaminocarbonyl)amino)-5\b-cholan-24-oate methyl 3\a-((4-iodophenylaminocarbonyl)amino)-7\a,12\a-bis((phenylaminocarbonyl)amino)-5\b-cholan-24-oate unknown solvate monohydrate'
_symmetry_cell_setting           hexagonal
_symmetry_space_group_name_H-M   'P 61'
_symmetry_Int_Tables_number      169
_space_group_name_Hall           'P 61'
loop_
_symmetry_equiv_pos_site_id
_symmetry_equiv_pos_as_xyz
1 x,y,z
2 -y,x-y,1/3+z
3 -x+y,-x,2/3+z
4 -x,-y,1/2+z
5 y,-x+y,5/6+z
6 x-y,x,1/6+z
_cell_length_a                   29.0453(4)
_cell_length_b                   29.0453(4)
_cell_length_c                   11.4639(2)
_cell_angle_alpha                90
_cell_angle_beta                 90
_cell_angle_gamma                120
_cell_volume                     8375.58
_exptl_crystal_colour            colorless
_exptl_crystal_description       needle
_cell_formula_units_Z            6
loop_
_atom_site_label
_atom_site_type_symbol
_atom_site_fract_x
_atom_site_fract_y
_atom_site_fract_z
O6 O 0.45204(6) 0.92217(6) 0.34489(12)
H61 H 0.4503(10) 0.9233(10) 0.2709(15)
H62 H 0.4210(7) 0.9073(9) 0.369(2)
C1 C 0.45829(8) 0.86883(8) 0.76209(17)
H1 H 0.4446 0.8413 0.8238
H2 H 0.4801 0.9037 0.8005
C2 C 0.41119(8) 0.86853(8) 0.70249(18)
H3 H 0.4241 0.8975 0.6441
H4 H 0.3895 0.8743 0.7609
C3 C 0.37754(8) 0.81477(8) 0.64271(18)
H5 H 0.3673 0.7872 0.7049
C4 C 0.41049(8) 0.80460(7) 0.55449(17)
H6 H 0.4226 0.8318 0.4922
H7 H 0.3881 0.7694 0.5180
C5 C 0.45925(8) 0.80621(7) 0.61205(17)
H8 H 0.4451 0.7770 0.6711
C6 C 0.49215(8) 0.79434(7) 0.52560(17)
H9 H 0.5159 0.7855 0.5701
H10 H 0.4677 0.7626 0.4794
C7 C 0.52595(7) 0.83982(7) 0.44149(16)
H11 H 0.5517 0.8313 0.4032
C8 C 0.55852(7) 0.89263(7) 0.50694(16)
H12 H 0.5853 0.8894 0.5558
C9 C 0.49446(7) 0.85868(7) 0.67986(16)
C10 C 0.52383(7) 0.90439(7) 0.59011(15)
H13 H 0.4959 0.9056 0.5413
C11 C 0.55683(8) 0.95951(7) 0.64662(16)
H14 H 0.5832 0.9587 0.7000
H15 H 0.5330 0.9672 0.6940
C12 C 0.58634(7) 1.00489(7) 0.55733(16)
H16 H 0.6086 1.0387 0.6011
C13 C 0.62340(7) 0.99350(7) 0.48092(16)
C14 C 0.58926(7) 0.93874(7) 0.42194(16)
H17 H 0.5623 0.9414 0.3727
C15 C 0.62792(8) 0.93440(8) 0.33867(17)
H18 H 0.6088 0.9094 0.2741
H19 H 0.6500 0.9224 0.3801
C16 C 0.66230(8) 0.99202(8) 0.29287(18)
H20 H 0.6538 0.9942 0.2101
H21 H 0.7005 1.0034 0.2988
C17 C 0.64912(8) 1.02835(7) 0.37036(16)
H22 H 0.6206 1.0318 0.3294
C18 C 0.53340(8) 0.85188(8) 0.75778(17)
H23 H 0.5543 0.8843 0.8037
H24 H 0.5573 0.8453 0.7091
H25 H 0.5136 0.8217 0.8104
C19 C 0.66725(8) 0.99507(8) 0.55923(18)
H26 H 0.6833 1.0277 0.6060
H27 H 0.6946 0.9944 0.5104
H28 H 0.6518 0.9641 0.6111
C20 C 0.69706(8) 1.08452(7) 0.38288(18)
H29 H 0.7268 1.0816 0.4189
C21 C 0.71445(9) 1.10822(8) 0.25982(19)
H30 H 0.7238 1.0850 0.2146
H31 H 0.6837 1.1075 0.2207
C22 C 0.76155(9) 1.16513(9) 0.2551(2)
H32 H 0.7713 1.1754 0.1725
H33 H 0.7505 1.1895 0.2889
C23 C 0.68512(9) 1.12019(8) 0.46135(19)
H34 H 0.6539 1.1209 0.4315
H35 H 0.7158 1.1563 0.4615
H36 H 0.6781 1.1061 0.5410
C24 C 0.80895(10) 1.17177(10) 0.3189(2)
C25 C 0.87617(18) 1.1490(2) 0.3259(6)
H37 H 0.8660 1.1303 0.4008
H38 H 0.9020 1.1867 0.3391
H39 H 0.8922 1.1333 0.2763
C26 C 0.32386(8) 0.83561(8) 0.50365(17)
C27 C 0.47235(7) 0.80766(7) 0.26419(16)
C28 C 0.52338(7) 1.03699(7) 0.53088(16)
C29 C 0.44191(8) 1.04380(8) 0.49586(16)
C30 C 0.45919(8) 1.09353(8) 0.54566(18)
H40 H 0.4944 1.1138 0.5747
C31 C 0.42456(9) 1.11311(8) 0.55246(18)
H41 H 0.4362 1.1468 0.5874
C32 C 0.37332(9) 1.08462(9) 0.50950(19)
H42 H 0.3501 1.0988 0.5137
C33 C 0.35627(9) 1.03505(9) 0.4601(2)
H43 H 0.3211 1.0150 0.4307
C34 C 0.39030(8) 1.01459(8) 0.45329(19)
H44 H 0.3783 0.9806 0.4195
C35 C 0.40679(7) 0.77906(7) 0.10051(16)
C36 C 0.40973(10) 0.73515(9) 0.0614(2)
H45 H 0.4323 0.7250 0.0996
C37 C 0.37934(10) 0.70625(9) -0.0341(2)
H46 H 0.3817 0.6766 -0.0611
C38 C 0.34589(8) 0.71997(8) -0.09020(18)
H47 H 0.3254 0.7001 -0.1554
C39 C 0.34254(8) 0.76289(8) -0.0503(2)
H48 H 0.3193 0.7724 -0.0879
C40 C 0.37266(8) 0.79245(8) 0.04401(19)
H49 H 0.3700 0.8221 0.0703
C41 C 0.25723(8) 0.83667(8) 0.37192(18)
C42 C 0.26550(9) 0.88749(9) 0.3881(2)
H50 H 0.2841 0.9076 0.4548
C43 C 0.24608(11) 0.90879(10) 0.3051(3)
H51 H 0.2522 0.9439 0.3144
C44 C 0.20964(11) 0.82826(11) 0.1943(2)
H52 H 0.1902 0.8078 0.1287
C45 C 0.22953(10) 0.80748(10) 0.2746(2)
H53 H 0.2243 0.7728 0.2633
C46 C 0.21799(11) 0.87892(12) 0.2095(3)
H54 H 0.2044 0.8934 0.1541
N1 N 0.32754(6) 0.80709(7) 0.59291(15)
H55 H 0.2988(8) 0.7764(8) 0.606(2)
N2 N 0.27383(7) 0.81269(7) 0.45656(17)
H56 H 0.2529(9) 0.7793(7) 0.472(2)
N3 N 0.49365(6) 0.84465(6) 0.34873(13)
H57 H 0.4810(9) 0.8648(9) 0.354(2)
N4 N 0.43459(7) 0.81043(6) 0.19722(14)
H58 H 0.4254(10) 0.8339(9) 0.216(2)
N5 N 0.54756(7) 1.01091(6) 0.48722(14)
H59 H 0.5288(9) 0.9848(8) 0.4398(19)
N6 N 0.47542(7) 1.02200(6) 0.47987(15)
H60 H 0.4591(9) 0.9927(8) 0.439(2)
O1 O 0.82851(8) 1.19845(7) 0.40465(17)
O2 O 0.82918(9) 1.14421(11) 0.2684(2)
O3 O 0.36081(5) 0.87880(5) 0.46890(13)
O4 O 0.48575(6) 0.77378(5) 0.24881(12)
O5 O 0.54335(6) 1.07092(5) 0.60838(12)
I1? I 0.17779(2) 0.91778(3) 0.12601(5)
loop_
_geom_bond_atom_site_label_1
_geom_bond_atom_site_label_2
_geom_bond_site_symmetry_1
_geom_bond_site_symmetry_2
C1 H1 1_555 1_555
H2 C1 1_555 1_555
C2 C1 1_555 1_555
H3 C2 1_555 1_555
H4 C2 1_555 1_555
C3 C2 1_555 1_555
H5 C3 1_555 1_555
C4 C3 1_555 1_555
H6 C4 1_555 1_555
H7 C4 1_555 1_555
C5 C4 1_555 1_555
H8 C5 1_555 1_555
C6 C5 1_555 1_555
H9 C6 1_555 1_555
H10 C6 1_555 1_555
C7 C6 1_555 1_555
H11 C7 1_555 1_555
C8 C7 1_555 1_555
H12 C8 1_555 1_555
C9 C1 1_555 1_555
C10 C8 1_555 1_555
H13 C10 1_555 1_555
C11 C10 1_555 1_555
H14 C11 1_555 1_555
H15 C11 1_555 1_555
C12 C11 1_555 1_555
H16 C12 1_555 1_555
C13 C12 1_555 1_555
C14 C8 1_555 1_555
H17 C14 1_555 1_555
C15 C14 1_555 1_555
H18 C15 1_555 1_555
H19 C15 1_555 1_555
C16 C15 1_555 1_555
H20 C16 1_555 1_555
H21 C16 1_555 1_555
C17 C13 1_555 1_555
H22 C17 1_555 1_555
C18 C9 1_555 1_555
H23 C18 1_555 1_555
H24 C18 1_555 1_555
H25 C18 1_555 1_555
C19 C13 1_555 1_555
H26 C19 1_555 1_555
H27 C19 1_555 1_555
H28 C19 1_555 1_555
C20 C17 1_555 1_555
H29 C20 1_555 1_555
C21 C20 1_555 1_555
H30 C21 1_555 1_555
H31 C21 1_555 1_555
C22 C21 1_555 1_555
H32 C22 1_555 1_555
H33 C22 1_555 1_555
C23 C20 1_555 1_555
H34 C23 1_555 1_555
H35 C23 1_555 1_555
H36 C23 1_555 1_555
C24 C22 1_555 1_555
C25 H37 1_555 1_555
H38 C25 1_555 1_555
H39 C25 1_555 1_555
C26 N1 1_555 1_555
C27 N3 1_555 1_555
C28 N5 1_555 1_555
C29 C30 1_555 1_555
C30 H40 1_555 1_555
C31 C30 1_555 1_555
H41 C31 1_555 1_555
C32 C31 1_555 1_555
H42 C32 1_555 1_555
C33 C32 1_555 1_555
H43 C33 1_555 1_555
C34 C29 1_555 1_555
H44 C34 1_555 1_555
C35 C36 1_555 1_555
C36 H45 1_555 1_555
C37 C36 1_555 1_555
H46 C37 1_555 1_555
C38 C37 1_555 1_555
H47 C38 1_555 1_555
C39 C38 1_555 1_555
H48 C39 1_555 1_555
C40 C35 1_555 1_555
H49 C40 1_555 1_555
C41 C42 1_555 1_555
C42 H50 1_555 1_555
C43 C42 1_555 1_555
H51 C43 1_555 1_555
C44 H52 1_555 1_555
C45 C41 1_555 1_555
H53 C45 1_555 1_555
C46 C43 1_555 1_555
H54 C46 1_555 1_555
N1 C3 1_555 1_555
H55 N1 1_555 1_555
N2 C26 1_555 1_555
H56 N2 1_555 1_555
N3 C7 1_555 1_555
H57 N3 1_555 1_555
N4 C27 1_555 1_555
H58 N4 1_555 1_555
N5 C12 1_555 1_555
H59 N5 1_555 1_555
N6 C28 1_555 1_555
H60 N6 1_555 1_555
O1 C24 1_555 1_555
O2 C24 1_555 1_555
O3 C26 1_555 1_555
O4 C27 1_555 1_555
O5 C28 1_555 1_555
O6 H61 1_555 1_555
H62 O6 1_555 1_555
C5 C9 1_555 1_555
C9 C10 1_555 1_555
C13 C14 1_555 1_555
C16 C17 1_555 1_555
C25 O2 1_555 1_555
C29 N6 1_555 1_555
C33 C34 1_555 1_555
C35 N4 1_555 1_555
C39 C40 1_555 1_555
C41 N2 1_555 1_555
C44 C45 1_555 1_555
C44 C46 1_555 1_555

#END
