
#######################################################################
#
#                 Cambridge Crystallographic Data Centre
#                                CCDC 
#
#######################################################################
#
# If this CIF has been generated from an entry in the Cambridge 
# Structural Database, then it will include bibliographic, chemical, 
# crystal, experimental, refinement or atomic coordinate data resulting 
# from the CCDC's data processing and validation procedures.
#
#######################################################################

data_OCUPAD
_chemical_formula_moiety         'C12 H14 Br2 S2'
_chemical_name_systematic        10,14-Dibromo-2,7-dithia(8)metacyclophane
_symmetry_cell_setting           monoclinic
_symmetry_space_group_name_H-M   'P 21/n'
_symmetry_Int_Tables_number      14
_space_group_name_Hall           '-P 2yn'
loop_
_symmetry_equiv_pos_site_id
_symmetry_equiv_pos_as_xyz
1 x,y,z
2 1/2+x,1/2-y,1/2+z
3 -x,-y,-z
4 1/2-x,1/2+y,1/2-z
_cell_length_a                   8.195(2)
_cell_length_b                   20.764(6)
_cell_length_c                   9.015(3)
_cell_angle_alpha                90
_cell_angle_beta                 116.74(2)
_cell_angle_gamma                90
_cell_volume                     1369.95
_exptl_crystal_colour            colorless
_exptl_crystal_description       plates
_cell_formula_units_Z            4
loop_
_atom_site_label
_atom_site_type_symbol
_atom_site_fract_x
_atom_site_fract_y
_atom_site_fract_z
C1 C 0.3002(9) 0.2253(3) 0.5226(8)
H1 H 0.1811 0.2418 0.5019
H2 H 0.3821 0.2616 0.5436
S1 S 0.3857(3) 0.17362(10) 0.7038(2)
C2 C 0.5977(8) 0.1438(3) 0.7151(7)
H3 H 0.6476 0.1766 0.6704
H4 H 0.6832 0.1382 0.8312
C3 C 0.5879(8) 0.0801(3) 0.6241(7)
H5 H 0.5426 0.0465 0.6705
H6 H 0.5018 0.0849 0.5078
C4 C 0.7703(8) 0.0600(3) 0.6370(8)
H7 H 0.7652 0.0143 0.6123
H8 H 0.8619 0.0659 0.7511
C5 C 0.8337(8) 0.0961(3) 0.5228(7)
H9 H 0.9655 0.0923 0.5689
H10 H 0.8048 0.1414 0.5223
S2 S 0.7321(2) 0.06726(7) 0.31062(19)
C6 C 0.5974(7) 0.1346(3) 0.1860(7)
H11 H 0.6709 0.1734 0.2177
H12 H 0.5622 0.1263 0.0697
C7 C 0.4284(7) 0.1446(2) 0.2096(6)
C8 C 0.2804(7) 0.1018(2) 0.1384(6)
Br1 Br 0.27277(8) 0.03948(3) -0.01747(7)
C9 C 0.1347(7) 0.1042(2) 0.1758(7)
H13 H 0.0333 0.0779 0.1202
C10 C 0.1420(7) 0.1463(2) 0.2970(7)
H14 H 0.0486 0.1456 0.3287
C11 C 0.2846(8) 0.1896(2) 0.3730(7)
C12 C 0.4178(7) 0.1911(2) 0.3175(6)
Br2 Br 0.59082(9) 0.25945(3) 0.38766(9)
loop_
_geom_bond_atom_site_label_1
_geom_bond_atom_site_label_2
_geom_bond_site_symmetry_1
_geom_bond_site_symmetry_2
C1 H1 1_555 1_555
H2 C1 1_555 1_555
S1 C1 1_555 1_555
C2 S1 1_555 1_555
H3 C2 1_555 1_555
H4 C2 1_555 1_555
C3 C2 1_555 1_555
H5 C3 1_555 1_555
H6 C3 1_555 1_555
C4 C3 1_555 1_555
H7 C4 1_555 1_555
H8 C4 1_555 1_555
C5 C4 1_555 1_555
H9 C5 1_555 1_555
H10 C5 1_555 1_555
S2 C5 1_555 1_555
C6 S2 1_555 1_555
H11 C6 1_555 1_555
H12 C6 1_555 1_555
C7 C6 1_555 1_555
C8 C7 1_555 1_555
Br1 C8 1_555 1_555
C9 C8 1_555 1_555
H13 C9 1_555 1_555
C10 C9 1_555 1_555
H14 C10 1_555 1_555
C11 C1 1_555 1_555
C12 C7 1_555 1_555
Br2 C12 1_555 1_555
C10 C11 1_555 1_555
C11 C12 1_555 1_555

#END
