
#######################################################################
#
#                 Cambridge Crystallographic Data Centre
#                                CCDC 
#
#######################################################################
#
# If this CIF has been generated from an entry in the Cambridge 
# Structural Database, then it will include bibliographic, chemical, 
# crystal, experimental, refinement or atomic coordinate data resulting 
# from the CCDC's data processing and validation procedures.
#
#######################################################################

data_OCUPIN
_chemical_formula_moiety         
'0.34(C46 H59 I1 N6 O5),H2 O1,0.66(C59 H70 N8 O5)'
_chemical_name_systematic        
'methyl 3\a-((4-iodophenylaminocarbonyl)amino)-7\a,12\a-bis((phenylaminocarbonyl)amino)-5\b-cholan-24-oate 2-(4-(phenyldiazenyl)phenyl)ethyl 3\a,7\a,12\a-tris((phenylcarbamoyl)amino)-5\b-cholan-24-oate monohydrate'
_symmetry_cell_setting           hexagonal
_symmetry_space_group_name_H-M   'P 61'
_symmetry_Int_Tables_number      169
_space_group_name_Hall           'P 61'
loop_
_symmetry_equiv_pos_site_id
_symmetry_equiv_pos_as_xyz
1 x,y,z
2 -y,x-y,1/3+z
3 -x+y,-x,2/3+z
4 -x,-y,1/2+z
5 y,-x+y,5/6+z
6 x-y,x,1/6+z
_cell_length_a                   29.1427(19)
_cell_length_b                   29.1427(19)
_cell_length_c                   11.4342(15)
_cell_angle_alpha                90
_cell_angle_beta                 90
_cell_angle_gamma                120
_cell_volume                     8410
_exptl_crystal_colour            yellow
_exptl_crystal_description       needle
_cell_formula_units_Z            6
loop_
_atom_site_label
_atom_site_type_symbol
_atom_site_fract_x
_atom_site_fract_y
_atom_site_fract_z
O6 O 0.45174(13) 0.52974(13) 0.8686(3)
H57 H 0.446(2) 0.520(2) 0.938(2)
H58 H 0.4198(10) 0.5101(17) 0.844(4)
C1 C 0.45727(19) 0.5902(2) 0.4526(4)
H1 H 0.4433 0.6042 0.3917
H2 H 0.4790 0.5774 0.4128
C2 C 0.41095(19) 0.5436(2) 0.5114(4)
H3 H 0.4240 0.5275 0.5695
H4 H 0.3894 0.5163 0.4526
C3 C 0.37650(19) 0.5637(2) 0.5734(4)
H5 H 0.3662 0.5813 0.5121
C4 C 0.40997(19) 0.60587(19) 0.6625(4)
H6 H 0.4219 0.5901 0.7237
H7 H 0.3882 0.6190 0.7006
C5 C 0.45967(19) 0.65363(19) 0.6034(4)
H8 H 0.4457 0.6692 0.5450
C6 C 0.49250(18) 0.69753(18) 0.6907(4)
H9 H 0.4682 0.7046 0.7377
H10 H 0.5161 0.7302 0.6466
C7 C 0.52665(18) 0.68585(17) 0.7749(4)
H11 H 0.5525 0.7200 0.8133
C8 C 0.55829(17) 0.66545(17) 0.7077(4)
H12 H 0.5849 0.6954 0.6588
C9 C 0.49351(18) 0.63610(19) 0.5350(4)
C10 C 0.52347(18) 0.61914(17) 0.6236(4)
H13 H 0.4956 0.5904 0.6730
C11 C 0.55495(18) 0.59581(18) 0.5665(4)
H14 H 0.5812 0.6223 0.5119
H15 H 0.5303 0.5644 0.5199
C12 C 0.58445(17) 0.57937(18) 0.6548(4)
H16 H 0.6062 0.5675 0.6102
C13 C 0.62225(18) 0.62836(18) 0.7304(4)
C14 C 0.58912(18) 0.64939(17) 0.7907(4)
H17 H 0.5622 0.6198 0.8400
C15 C 0.6280(2) 0.69163(19) 0.8745(4)
H18 H 0.6091 0.6975 0.9396
H19 H 0.6503 0.7256 0.8334
C16 C 0.6615(2) 0.6677(2) 0.9192(4)
H20 H 0.6529 0.6567 1.0019
H21 H 0.6997 0.6942 0.9135
C17 C 0.64800(19) 0.61883(19) 0.8410(4)
H22 H 0.6197 0.5868 0.8818
C18 C 0.5330(2) 0.6823(2) 0.4563(4)
H23 H 0.5541 0.6709 0.4110
H24 H 0.5566 0.7126 0.5053
H25 H 0.5134 0.6925 0.4029
C19 C 0.66599(18) 0.67021(19) 0.6524(4)
H26 H 0.6820 0.6536 0.6060
H27 H 0.6932 0.6981 0.7015
H28 H 0.6507 0.6857 0.6000
C20 C 0.6961(2) 0.6108(2) 0.8264(5)
H29 H 0.7256 0.6437 0.7908
C21 C 0.6845(2) 0.5638(2) 0.7462(5)
H30 H 0.7131 0.5555 0.7535
H31 H 0.6822 0.5731 0.6650
H32 H 0.6509 0.5328 0.7692
C22 C 0.7139(3) 0.6036(3) 0.9481(6)
H33 H 0.7195 0.6339 0.9973
H34 H 0.6845 0.5712 0.9835
C23 C 0.7629(3) 0.5994(4) 0.9545(7)
H35 H 0.7642 0.5715 0.9945
C24 C 0.8060(4) 0.6392(5) 0.8975(10)
C25 C 0.32349(18) 0.48845(19) 0.7105(4)
C26 C 0.47269(17) 0.66444(17) 0.9515(4)
C27 C 0.52186(17) 0.48526(18) 0.6823(3)
C28 C 0.2560(2) 0.4191(2) 0.8396(5)
C29 C 0.2284(2) 0.4191(3) 0.9376(5)
H36 H 0.2236 0.4485 0.9517
C30 C 0.2077(3) 0.3773(3) 1.0158(6)
H37 H 0.1876 0.3776 1.0809
C31 C 0.2159(3) 0.3362(4) 1.0001(8)
H38 H 0.2019 0.3074 1.0536
C32 C 0.2451(3) 0.3369(3) 0.9041(8)
H39 H 0.2516 0.3084 0.8926
C33 C 0.2649(3) 0.3778(3) 0.8251(6)
H40 H 0.2849 0.3773 0.7600
C34 C 0.40710(16) 0.62819(16) 1.1161(4)
C35 C 0.4108(2) 0.6747(2) 1.1564(4)
H41 H 0.4339 0.7075 1.1191
C36 C 0.3804(2) 0.6731(2) 1.2522(4)
H42 H 0.3835 0.7052 1.2807
C37 C 0.34612(19) 0.6264(2) 1.3060(4)
H43 H 0.3256 0.6260 1.3709
C38 C 0.34177(19) 0.5800(2) 1.2653(4)
H44 H 0.3181 0.5473 1.3019
C39 C 0.37207(18) 0.58091(18) 1.1704(4)
H45 H 0.3687 0.5487 1.1424
C40 C 0.4405(2) 0.3967(2) 0.7188(4)
C41 C 0.3897(2) 0.3756(2) 0.7623(4)
H46 H 0.3778 0.3978 0.7948
C42 C 0.3563(2) 0.3209(2) 0.7571(5)
H47 H 0.3214 0.3057 0.7876
C43 C 0.3732(2) 0.2876(2) 0.7078(5)
H48 H 0.3504 0.2503 0.7053
C44 C 0.4231(2) 0.3104(2) 0.6637(4)
H49 H 0.4347 0.2884 0.6286
C45 C 0.4572(2) 0.36406(19) 0.6682(4)
H50 H 0.4920 0.3788 0.6371
C46 C 0.8776(12) 0.7271(12) 0.892(3)
N1 N 0.32771(15) 0.52172(17) 0.6230(4)
H51 H 0.3086(18) 0.5367(19) 0.613(5)
N2 N 0.27323(16) 0.46017(18) 0.7565(4)
H52 H 0.2523(18) 0.473(2) 0.748(5)
N3 N 0.49416(15) 0.64891(15) 0.8669(3)
H53 H 0.4831(18) 0.6155(9) 0.855(4)
N4 N 0.43561(16) 0.62462(14) 1.0200(3)
H54 H 0.4231(18) 0.5941(12) 0.987(4)
N5 N 0.54598(15) 0.53546(15) 0.7242(3)
H55 H 0.5266(16) 0.5430(19) 0.769(4)
N6 N 0.47431(16) 0.45250(15) 0.7340(3)
H56 H 0.4579(17) 0.4670(18) 0.773(4)
O1 O 0.8304(3) 0.6342(4) 0.8125(7)
O2 O 0.8248(4) 0.6858(4) 0.9474(12)
O3 O 0.36051(12) 0.48221(13) 0.7463(3)
O4 O 0.48577(12) 0.71133(12) 0.9661(3)
O5 O 0.54169(12) 0.47072(12) 0.6050(3)
I1? I 0.17938(6) 0.26019(7) 1.0898(2)
loop_
_geom_bond_atom_site_label_1
_geom_bond_atom_site_label_2
_geom_bond_site_symmetry_1
_geom_bond_site_symmetry_2
C1 H1 1_555 1_555
H2 C1 1_555 1_555
C2 C1 1_555 1_555
H3 C2 1_555 1_555
H4 C2 1_555 1_555
C3 C2 1_555 1_555
H5 C3 1_555 1_555
C4 C3 1_555 1_555
H6 C4 1_555 1_555
H7 C4 1_555 1_555
C5 C4 1_555 1_555
H8 C5 1_555 1_555
C6 C5 1_555 1_555
H9 C6 1_555 1_555
H10 C6 1_555 1_555
C7 C6 1_555 1_555
H11 C7 1_555 1_555
C8 C7 1_555 1_555
H12 C8 1_555 1_555
C9 C1 1_555 1_555
C10 C8 1_555 1_555
H13 C10 1_555 1_555
C11 C10 1_555 1_555
H14 C11 1_555 1_555
H15 C11 1_555 1_555
C12 C11 1_555 1_555
H16 C12 1_555 1_555
C13 C12 1_555 1_555
C14 C8 1_555 1_555
H17 C14 1_555 1_555
C15 C14 1_555 1_555
H18 C15 1_555 1_555
H19 C15 1_555 1_555
C16 C15 1_555 1_555
H20 C16 1_555 1_555
H21 C16 1_555 1_555
C17 C13 1_555 1_555
H22 C17 1_555 1_555
C18 C9 1_555 1_555
H23 C18 1_555 1_555
H24 C18 1_555 1_555
H25 C18 1_555 1_555
C19 C13 1_555 1_555
H26 C19 1_555 1_555
H27 C19 1_555 1_555
H28 C19 1_555 1_555
C20 C17 1_555 1_555
H29 C20 1_555 1_555
C21 C20 1_555 1_555
H30 C21 1_555 1_555
H31 C21 1_555 1_555
H32 C21 1_555 1_555
C22 C20 1_555 1_555
H33 C22 1_555 1_555
H34 C22 1_555 1_555
C23 C22 1_555 1_555
H35 C23 1_555 1_555
C24 C23 1_555 1_555
C25 N1 1_555 1_555
C26 N3 1_555 1_555
C27 N5 1_555 1_555
C28 C29 1_555 1_555
C29 H36 1_555 1_555
C30 C29 1_555 1_555
H37 C30 1_555 1_555
C31 C30 1_555 1_555
H38 C31 1_555 1_555
C32 C31 1_555 1_555
H39 C32 1_555 1_555
C33 C28 1_555 1_555
H40 C33 1_555 1_555
C34 C35 1_555 1_555
C35 H41 1_555 1_555
C36 C35 1_555 1_555
H42 C36 1_555 1_555
C37 C36 1_555 1_555
H43 C37 1_555 1_555
C38 C37 1_555 1_555
H44 C38 1_555 1_555
C39 C34 1_555 1_555
H45 C39 1_555 1_555
C40 C41 1_555 1_555
C41 H46 1_555 1_555
C42 C41 1_555 1_555
H47 C42 1_555 1_555
C43 C42 1_555 1_555
H48 C43 1_555 1_555
C44 C43 1_555 1_555
H49 C44 1_555 1_555
C45 C40 1_555 1_555
H50 C45 1_555 1_555
C46 O2 1_555 1_555
N1 C3 1_555 1_555
H51 N1 1_555 1_555
N2 C25 1_555 1_555
H52 N2 1_555 1_555
N3 C7 1_555 1_555
H53 N3 1_555 1_555
N4 C26 1_555 1_555
H54 N4 1_555 1_555
N5 C12 1_555 1_555
H55 N5 1_555 1_555
N6 C27 1_555 1_555
H56 N6 1_555 1_555
O1 C24 1_555 1_555
O2 C24 1_555 1_555
O3 C25 1_555 1_555
O4 C26 1_555 1_555
O5 C27 1_555 1_555
O6 H57 1_555 1_555
H58 O6 1_555 1_555
C5 C9 1_555 1_555
C9 C10 1_555 1_555
C13 C14 1_555 1_555
C16 C17 1_555 1_555
C28 N2 1_555 1_555
C32 C33 1_555 1_555
C34 N4 1_555 1_555
C38 C39 1_555 1_555
C40 N6 1_555 1_555
C44 C45 1_555 1_555

#END
