
#######################################################################
#
#                 Cambridge Crystallographic Data Centre
#                                CCDC 
#
#######################################################################
#
# If this CIF has been generated from an entry in the Cambridge 
# Structural Database, then it will include bibliographic, chemical, 
# crystal, experimental, refinement or atomic coordinate data resulting 
# from the CCDC's data processing and validation procedures.
#
#######################################################################

data_OCURUB
_chemical_formula_moiety         'C20 H14 N2 O2'
_chemical_name_systematic        5,5'-Ethene-1,2-diylbis(2-phenyl-1,3-oxazole)
_symmetry_cell_setting           monoclinic
_symmetry_space_group_name_H-M   'P 21/c'
_symmetry_Int_Tables_number      14
_space_group_name_Hall           '-P 2ybc'
loop_
_symmetry_equiv_pos_site_id
_symmetry_equiv_pos_as_xyz
1 x,y,z
2 -x,1/2+y,1/2-z
3 -x,-y,-z
4 x,1/2-y,1/2+z
_cell_length_a                   4.9480(10)
_cell_length_b                   12.981(3)
_cell_length_c                   11.840(2)
_cell_angle_alpha                90
_cell_angle_beta                 94.34(3)
_cell_angle_gamma                90
_cell_volume                     758.302
_exptl_crystal_colour            yellow
_exptl_crystal_description       needle-type
_cell_formula_units_Z            2
loop_
_atom_site_label
_atom_site_type_symbol
_atom_site_fract_x
_atom_site_fract_y
_atom_site_fract_z
O1 O 0.4016(2) 0.61477(7) 0.07272(8)
C1 C 0.7602(3) 0.77887(11) 0.02957(13)
H1 H 0.6266 0.7613 -0.0266
N1 N 0.5628(3) 0.59881(9) 0.25333(11)
C2 C 1.1615(3) 0.83166(11) 0.19663(13)
H2 H 1.2963 0.8491 0.2523
C3 C 0.5833(3) 0.64697(11) 0.15818(12)
C4 C 1.1476(3) 0.88172(11) 0.09311(13)
H3 H 1.2730 0.9327 0.0793
C5 C 0.9749(3) 0.75562(11) 0.21752(13)
H4 H 0.9835 0.7227 0.2875
C6 C 0.7741(3) 0.72833(11) 0.13365(12)
C7 C 0.0385(3) 0.48856(11) 0.05404(12)
H5 H -0.0542 0.4360 0.0880
C8 C 0.9469(3) 0.85575(11) 0.01005(13)
H6 H 0.9368 0.8899 -0.0592
C9 C 0.2523(3) 0.53876(10) 0.12114(12)
C10 C 0.3519(3) 0.52954(11) 0.23052(13)
H7 H 0.2883 0.4836 0.2826
O1B O -0.4016(2) 0.38523(7) -0.07272(8)
C1B C -0.7602(3) 0.22113(11) -0.02957(13)
H1B H -0.6266 0.2387 0.0266
N1B N -0.5628(3) 0.40119(9) -0.25333(11)
C2B C -1.1615(3) 0.16834(11) -0.19663(13)
H2B H -1.2963 0.1509 -0.2523
C3B C -0.5833(3) 0.35303(11) -0.15818(12)
C4B C -1.1476(3) 0.11828(11) -0.09311(13)
H3B H -1.2730 0.0673 -0.0793
C5B C -0.9749(3) 0.24438(11) -0.21752(13)
H4B H -0.9835 0.2773 -0.2875
C6B C -0.7741(3) 0.27167(11) -0.13365(12)
C7B C -0.0385(3) 0.51144(11) -0.05404(12)
H5B H 0.0542 0.5640 -0.0880
C8B C -0.9469(3) 0.14425(11) -0.01005(13)
H6B H -0.9368 0.1101 0.0592
C9B C -0.2523(3) 0.46124(10) -0.12114(12)
C10B C -0.3519(3) 0.47046(11) -0.23052(13)
H7B H -0.2883 0.5164 -0.2826
loop_
_geom_bond_atom_site_label_1
_geom_bond_atom_site_label_2
_geom_bond_site_symmetry_1
_geom_bond_site_symmetry_2
O1 C3 1_555 1_555
C1 H1 1_555 1_555
N1 C3 1_555 1_555
C2 H2 1_555 1_555
C3 C6 1_555 1_555
C4 C2 1_555 1_555
H3 C4 1_555 1_555
C5 C2 1_555 1_555
H4 C5 1_555 1_555
C6 C1 1_555 1_555
C7 H5 1_555 1_555
C8 C1 1_555 1_555
H6 C8 1_555 1_555
C9 O1 1_555 1_555
C10 N1 1_555 1_555
H7 C10 1_555 1_555
O1B C3B 1_555 1_555
C1B H1B 1_555 1_555
N1B C3B 1_555 1_555
C2B H2B 1_555 1_555
C3B C6B 1_555 1_555
C4B C2B 1_555 1_555
H3B C4B 1_555 1_555
C5B C2B 1_555 1_555
H4B C5B 1_555 1_555
C6B C1B 1_555 1_555
C7B C7 1_555 1_555
H5B C7B 1_555 1_555
C8B C1B 1_555 1_555
H6B C8B 1_555 1_555
C9B O1B 1_555 1_555
C10B N1B 1_555 1_555
H7B C10B 1_555 1_555
C4 C8 1_555 1_555
C5 C6 1_555 1_555
C7 C9 1_555 1_555
C9 C10 1_555 1_555
C4B C8B 1_555 1_555
C5B C6B 1_555 1_555
C7B C9B 1_555 1_555
C9B C10B 1_555 1_555

#END
