
#######################################################################
#
#                 Cambridge Crystallographic Data Centre
#                                CCDC 
#
#######################################################################
#
# If this CIF has been generated from an entry in the Cambridge 
# Structural Database, then it will include bibliographic, chemical, 
# crystal, experimental, refinement or atomic coordinate data resulting 
# from the CCDC's data processing and validation procedures.
#
#######################################################################

data_OCUXOC
_chemical_formula_moiety         'C28 H34 Cl2 N2 O2 S2'
_chemical_name_systematic        
3,6-bis(5-chloro-2-thienyl)-2,5-diheptyl-2,5-dihydropyrrolo[3,4-c]pyrrole-1,4-dione
_symmetry_cell_setting           triclinic
_symmetry_space_group_name_H-M   'P -1'
_symmetry_Int_Tables_number      2
_space_group_name_Hall           '-P 1'
loop_
_symmetry_equiv_pos_site_id
_symmetry_equiv_pos_as_xyz
1 x,y,z
2 -x,-y,-z
_cell_length_a                   4.83360(10)
_cell_length_b                   8.7496(2)
_cell_length_c                   17.0825(5)
_cell_angle_alpha                79.9598(11)
_cell_angle_beta                 87.6044(12)
_cell_angle_gamma                87.8500(13)
_cell_volume                     710.433
_exptl_crystal_colour            red
_exptl_crystal_description       plate
_cell_formula_units_Z            1
loop_
_atom_site_label
_atom_site_type_symbol
_atom_site_fract_x
_atom_site_fract_y
_atom_site_fract_z
C1 C 0.2084(4) -0.3541(2) 0.18425(11)
C2 C 0.3101(4) -0.4123(2) 0.12051(11)
H1 H 0.2575 -0.5058 0.1076
C3 C 0.5051(4) -0.31479(19) 0.07592(10)
H2 H 0.5983 -0.3384 0.0306
C4 C 0.5455(3) -0.18101(17) 0.10546(9)
C5 C 0.7365(3) -0.06316(16) 0.07061(9)
C6 C 0.9246(3) -0.06905(16) 0.00781(9)
C7 C 0.9752(3) 0.16675(17) 0.04809(9)
C8 C 0.6145(3) 0.14669(19) 0.15642(9)
H3 H 0.4299 0.1054 0.1631
H4 H 0.5953 0.2581 0.1393
C9 C 0.7523(4) 0.1147(2) 0.23638(10)
H5 H 0.7796 0.0035 0.2528
H6 H 0.9329 0.1610 0.2309
C10 C 0.5785(4) 0.1799(2) 0.29974(10)
H7 H 0.5251 0.2869 0.2791
H8 H 0.4105 0.1216 0.3109
C11 C 0.7267(5) 0.1745(3) 0.37673(11)
H9 H 0.7904 0.0685 0.3955
H10 H 0.8887 0.2380 0.3660
C12 C 0.5506(6) 0.2300(3) 0.44189(12)
H11 H 0.4718 0.3319 0.4212
H12 H 0.3984 0.1602 0.4562
C13 C 0.7020(8) 0.2400(4) 0.51597(15)
H13 H 0.8490 0.3135 0.5022
H14 H 0.7877 0.1393 0.5355
C14 C 0.5209(11) 0.2890(5) 0.58200(17)
H15 H 0.4481 0.3925 0.5650
H16 H 0.6287 0.2865 0.6282
H17 H 0.3707 0.2192 0.5948
Cl1 Cl -0.03067(12) -0.43523(7) 0.25472(3)
N1 N 0.7661(3) 0.07974(14) 0.09450(7)
O1 O 1.0383(3) 0.29506(13) 0.05977(7)
S1 S 0.34048(9) -0.17808(5) 0.19101(2)
C1A C 1.7916(4) 0.3541(2) -0.18425(11)
C2A C 1.6899(4) 0.4123(2) -0.12051(11)
H1A H 1.7425 0.5058 -0.1076
C3A C 1.4949(4) 0.31479(19) -0.07592(10)
H2A H 1.4017 0.3384 -0.0306
C4A C 1.4545(3) 0.18101(17) -0.10546(9)
C5A C 1.2635(3) 0.06316(16) -0.07061(9)
C6A C 1.0754(3) 0.06905(16) -0.00781(9)
C7A C 1.0248(3) -0.16675(17) -0.04809(9)
C8A C 1.3855(3) -0.14669(19) -0.15642(9)
H3A H 1.5701 -0.1054 -0.1631
H4A H 1.4047 -0.2581 -0.1393
C9A C 1.2477(4) -0.1147(2) -0.23638(10)
H5A H 1.2204 -0.0035 -0.2528
H6A H 1.0671 -0.1610 -0.2309
C10A C 1.4215(4) -0.1799(2) -0.29974(10)
H7A H 1.4749 -0.2869 -0.2791
H8A H 1.5895 -0.1216 -0.3109
C11A C 1.2733(5) -0.1745(3) -0.37673(11)
H9A H 1.2096 -0.0685 -0.3955
H10A H 1.1113 -0.2380 -0.3660
C12A C 1.4494(6) -0.2300(3) -0.44189(12)
H11A H 1.5282 -0.3319 -0.4212
H12A H 1.6016 -0.1602 -0.4562
C13A C 1.2980(8) -0.2400(4) -0.51597(15)
H13A H 1.1510 -0.3135 -0.5022
H14A H 1.2123 -0.1393 -0.5355
C14A C 1.4791(11) -0.2890(5) -0.58200(17)
H15A H 1.5519 -0.3925 -0.5650
H16A H 1.3713 -0.2865 -0.6282
H17A H 1.6293 -0.2192 -0.5948
Cl1A Cl 2.03067(12) 0.43523(7) -0.25472(3)
N1A N 1.2339(3) -0.07974(14) -0.09450(7)
O1A O 0.9617(3) -0.29506(13) -0.05977(7)
S1A S 1.65952(9) 0.17808(5) -0.19101(2)
loop_
_geom_bond_atom_site_label_1
_geom_bond_atom_site_label_2
_geom_bond_site_symmetry_1
_geom_bond_site_symmetry_2
C1 C2 1_555 1_555
C2 H1 1_555 1_555
C3 C2 1_555 1_555
H2 C3 1_555 1_555
C4 C3 1_555 1_555
C5 C4 1_555 1_555
C6 C5 1_555 1_555
C7 N1 1_555 1_555
C8 H3 1_555 1_555
H4 C8 1_555 1_555
C9 C8 1_555 1_555
H5 C9 1_555 1_555
H6 C9 1_555 1_555
C10 C9 1_555 1_555
H7 C10 1_555 1_555
H8 C10 1_555 1_555
C11 C10 1_555 1_555
H9 C11 1_555 1_555
H10 C11 1_555 1_555
C12 C11 1_555 1_555
H11 C12 1_555 1_555
H12 C12 1_555 1_555
C13 C12 1_555 1_555
H13 C13 1_555 1_555
H14 C13 1_555 1_555
C14 C13 1_555 1_555
H15 C14 1_555 1_555
H16 C14 1_555 1_555
H17 C14 1_555 1_555
Cl1 C1 1_555 1_555
N1 C5 1_555 1_555
O1 C7 1_555 1_555
S1 C1 1_555 1_555
C1A C2A 1_555 1_555
C2A H1A 1_555 1_555
C3A C2A 1_555 1_555
H2A C3A 1_555 1_555
C4A C3A 1_555 1_555
C5A C4A 1_555 1_555
C6A C6 1_555 1_555
C7A C6 1_555 1_555
C8A H3A 1_555 1_555
H4A C8A 1_555 1_555
C9A C8A 1_555 1_555
H5A C9A 1_555 1_555
H6A C9A 1_555 1_555
C10A C9A 1_555 1_555
H7A C10A 1_555 1_555
H8A C10A 1_555 1_555
C11A C10A 1_555 1_555
H9A C11A 1_555 1_555
H10A C11A 1_555 1_555
C12A C11A 1_555 1_555
H11A C12A 1_555 1_555
H12A C12A 1_555 1_555
C13A C12A 1_555 1_555
H13A C13A 1_555 1_555
H14A C13A 1_555 1_555
C14A C13A 1_555 1_555
H15A C14A 1_555 1_555
H16A C14A 1_555 1_555
H17A C14A 1_555 1_555
Cl1A C1A 1_555 1_555
N1A C5A 1_555 1_555
O1A C7A 1_555 1_555
S1A C1A 1_555 1_555
C4 S1 1_555 1_555
C7 C6A 1_555 1_555
C8 N1 1_555 1_555
C4A S1A 1_555 1_555
C5A C6A 1_555 1_555
C7A N1A 1_555 1_555
C8A N1A 1_555 1_555

#END
