
#######################################################################
#
#                 Cambridge Crystallographic Data Centre
#                                CCDC 
#
#######################################################################
#
# If this CIF has been generated from an entry in the Cambridge 
# Structural Database, then it will include bibliographic, chemical, 
# crystal, experimental, refinement or atomic coordinate data resulting 
# from the CCDC's data processing and validation procedures.
#
#######################################################################

data_OCUZUJ
_chemical_formula_moiety         'C20 H19 N3'
_chemical_name_systematic        
2-Ethyl-8-(1-ethyl-1H-benzimidazol-2-yl)quinoline
_symmetry_cell_setting           orthorhombic
_symmetry_space_group_name_H-M   'P 21 21 21'
_symmetry_Int_Tables_number      19
_space_group_name_Hall           'P 2ac 2ab'
loop_
_symmetry_equiv_pos_site_id
_symmetry_equiv_pos_as_xyz
1 x,y,z
2 1/2-x,-y,1/2+z
3 -x,1/2+y,1/2-z
4 1/2+x,1/2-y,-z
_cell_length_a                   6.8148(14)
_cell_length_b                   11.667(2)
_cell_length_c                   20.822(4)
_cell_angle_alpha                90
_cell_angle_beta                 90
_cell_angle_gamma                90
_cell_volume                     1655.52
_exptl_crystal_colour            colorless
_exptl_crystal_description       block
_chemical_melting_point          '104-106 deg.C'
_cell_formula_units_Z            4
loop_
_atom_site_label
_atom_site_type_symbol
_atom_site_fract_x
_atom_site_fract_y
_atom_site_fract_z
N1 N 0.5668(3) 0.57366(14) 0.10710(8)
N2 N 0.8746(2) 0.64138(13) 0.09836(8)
C1 C 0.8644(3) 0.54689(16) 0.05869(9)
C2 C 0.6378(3) 0.74959(17) 0.16840(10)
C3 C 0.6735(3) 0.50495(17) 0.06524(9)
C4 C 1.0397(3) 0.72089(18) 0.10138(10)
H1 H 1.1638 0.6776 0.0965
H2 H 1.0415 0.7586 0.1440
C5 C 0.6928(3) 0.65360(17) 0.12554(9)
C6 C 0.7498(4) 0.3582(2) -0.00983(12)
H3 H 0.7134 0.2922 -0.0337
N3 N 0.8893(3) 0.70224(17) 0.24480(9)
C7 C 0.7345(3) 0.77087(18) 0.22786(10)
C8 C 0.4837(3) 0.8183(2) 0.15008(12)
H4 H 0.4211 0.8045 0.1101
C9 C 0.6697(4) 0.86336(19) 0.26653(10)
C10 C 0.6152(4) 0.40765(19) 0.03094(10)
H5 H 0.4871 0.3767 0.0356
C11 C 0.7747(4) 0.8858(2) 0.32381(11)
H6 H 0.7364 0.9469 0.3513
C12 C 1.0004(4) 0.49751(19) 0.01718(10)
H7 H 1.1293 0.5274 0.0126
C13 C 0.9860(5) 0.7270(2) 0.29822(12)
C14 C 0.5064(4) 0.9297(2) 0.24643(13)
H8 H 0.4592 0.9895 0.2732
C15 C 1.0276(4) 0.8107(2) 0.04997(13)
H9 H 1.1404 0.8625 0.0535
H10 H 0.9060 0.8546 0.0551
H11 H 1.0287 0.7738 0.0077
C16 C 0.9379(4) 0.4027(2) -0.01695(11)
H12 H 1.0259 0.3669 -0.0461
C17 C 0.4164(4) 0.9085(2) 0.18916(13)
H13 H 0.3089 0.9544 0.1757
C18 C 0.9306(5) 0.8190(2) 0.33897(12)
H14 H 1.0031 0.8339 0.3770
C19 C 1.1779(7) 0.6607(4) 0.3108(2)
H15 H 1.2347 0.6336 0.2697
H16 H 1.2749 0.7109 0.3322
C20 C 1.1280(7) 0.5593(4) 0.3535(2)
H17 H 1.2473 0.5151 0.3623
H18 H 1.0319 0.5103 0.3318
H19 H 1.0725 0.5871 0.3941
C21? C 1.0994(12) 0.6296(6) 0.3271(4)
C22? C 1.2986(15) 0.6865(8) 0.3181(5)
H20? H 1.0862 0.5575 0.3024
H21? H 1.0666 0.6163 0.3729
H22? H 1.4016 0.6363 0.3351
H23? H 1.3007 0.7597 0.3412
H24? H 1.3216 0.7001 0.2723
loop_
_geom_bond_atom_site_label_1
_geom_bond_atom_site_label_2
_geom_bond_site_symmetry_1
_geom_bond_site_symmetry_2
N1 C3 1_555 1_555
N2 C1 1_555 1_555
C1 C3 1_555 1_555
C2 C5 1_555 1_555
C3 C10 1_555 1_555
C4 N2 1_555 1_555
H1 C4 1_555 1_555
H2 C4 1_555 1_555
C5 N1 1_555 1_555
C6 H3 1_555 1_555
N3 C7 1_555 1_555
C7 C2 1_555 1_555
C8 C2 1_555 1_555
H4 C8 1_555 1_555
C9 C7 1_555 1_555
C10 C6 1_555 1_555
H5 C10 1_555 1_555
C11 C9 1_555 1_555
H6 C11 1_555 1_555
C12 C1 1_555 1_555
H7 C12 1_555 1_555
C13 N3 1_555 1_555
C14 C9 1_555 1_555
H8 C14 1_555 1_555
C15 C4 1_555 1_555
H9 C15 1_555 1_555
H10 C15 1_555 1_555
H11 C15 1_555 1_555
C16 C6 1_555 1_555
H12 C16 1_555 1_555
C17 C8 1_555 1_555
H13 C17 1_555 1_555
C18 C11 1_555 1_555
H14 C18 1_555 1_555
C19 C13 1_555 1_555
H15 C19 1_555 1_555
H16 C19 1_555 1_555
C20 C19 1_555 1_555
H17 C20 1_555 1_555
H18 C20 1_555 1_555
H19 C20 1_555 1_555
N2 C5 1_555 1_555
C12 C16 1_555 1_555
C13 C18 1_555 1_555
C14 C17 1_555 1_555

#END
