
#######################################################################
#
#                 Cambridge Crystallographic Data Centre
#                                CCDC 
#
#######################################################################
#
# If this CIF has been generated from an entry in the Cambridge 
# Structural Database, then it will include bibliographic, chemical, 
# crystal, experimental, refinement or atomic coordinate data resulting 
# from the CCDC's data processing and validation procedures.
#
#######################################################################

data_ODADII
_chemical_formula_moiety         'C46 H78 K2 N4 O4 S4 Si2,C4 H8 O1'
_chemical_name_systematic        
'bis(\m~2~-1,3-Di-t-butyl-4-phenyl-1,3,2-diazasiletium-2,2(3H)-bis(thiolate))-tetrakis(tetrahydrofuran)-di-potassium(i) tetrahydrofuran solvate'
_symmetry_cell_setting           triclinic
_symmetry_space_group_name_H-M   'P -1'
_symmetry_Int_Tables_number      2
_space_group_name_Hall           '-P 1'
loop_
_symmetry_equiv_pos_site_id
_symmetry_equiv_pos_as_xyz
1 x,y,z
2 -x,-y,-z
_cell_length_a                   11.1594(8)
_cell_length_b                   11.4396(8)
_cell_length_c                   12.4599(9)
_cell_angle_alpha                87.130(3)
_cell_angle_beta                 72.379(4)
_cell_angle_gamma                74.688(3)
_cell_volume                     1461.4
_exptl_crystal_colour            colorless
_exptl_crystal_description       prism
_cell_formula_units_Z            1
loop_
_atom_site_label
_atom_site_type_symbol
_atom_site_fract_x
_atom_site_fract_y
_atom_site_fract_z
C5 C 0.55283(13) 0.12324(13) 0.80223(11)
C6 C 0.66931(16) 0.17099(19) 0.73650(15)
H9 H 0.7067 0.1325 0.6610
H10 H 0.7354 0.1519 0.7762
H11 H 0.6404 0.2591 0.7303
C7 C 0.49223(17) 0.18488(18) 0.91891(14)
H12 H 0.4592 0.2723 0.9114
H13 H 0.5583 0.1707 0.9584
H14 H 0.4203 0.1514 0.9619
C8 C 0.59967(18) -0.01380(16) 0.81012(17)
H15 H 0.5269 -0.0451 0.8550
H16 H 0.6691 -0.0329 0.8461
H17 H 0.6332 -0.0515 0.7343
C9 C 0.34719(12) 0.12690(11) 0.75152(10)
C10 C 0.29828(12) 0.03175(12) 0.82470(11)
C11 C 0.33201(13) -0.08713(12) 0.78383(12)
H18 H 0.3900 -0.1093 0.7102
C12 C 0.28048(15) -0.17372(13) 0.85134(14)
H19 H 0.3030 -0.2549 0.8234
C13 C 0.19638(15) -0.14173(15) 0.95919(14)
H20 H 0.1612 -0.2009 1.0049
C14 C 0.16367(14) -0.02333(14) 1.00024(12)
H21 H 0.1068 -0.0019 1.0744
C15 C 0.21369(13) 0.06434(13) 0.93334(11)
H22 H 0.1905 0.1455 0.9614
C16 C 0.17960(13) 0.19034(12) 0.64396(12)
C17 C 0.23550(16) 0.08875(14) 0.55302(14)
H23 H 0.3100 0.1057 0.4949
H24 H 0.1683 0.0842 0.5189
H25 H 0.2639 0.0113 0.5871
C18 C 0.06287(14) 0.16666(14) 0.73634(14)
H26 H 0.0883 0.0862 0.7664
H27 H -0.0084 0.1703 0.7047
H28 H 0.0339 0.2284 0.7971
C19 C 0.13649(15) 0.31167(13) 0.59088(14)
H29 H 0.1100 0.3776 0.6473
H30 H 0.0628 0.3111 0.5638
H31 H 0.2090 0.3240 0.5275
C20 C 0.02793(18) 0.65093(16) 0.63988(18)
H32 H 0.0803 0.6054 0.6873
H33 H -0.0166 0.5968 0.6168
C21 C -0.0692(2) 0.76116(19) 0.70277(18)
H34 H -0.1017 0.7464 0.7841
H35 H -0.1439 0.7879 0.6722
C22 C 0.0111(2) 0.85287(19) 0.68191(19)
H36 H 0.0620 0.8445 0.7359
H37 H -0.0449 0.9368 0.6878
C23 C 0.10015(16) 0.82036(14) 0.56230(16)
H38 H 0.0632 0.8719 0.5078
H39 H 0.1873 0.8318 0.5543
C24 C 0.21348(18) 0.53552(18) 0.23189(19)
H40 H 0.1814 0.6196 0.2636
H41 H 0.1402 0.5119 0.2179
C25 C 0.3241(2) 0.5273(2) 0.1223(2)
H42 H 0.2981 0.5068 0.0578
H43 H 0.3481 0.6053 0.1084
C26 C 0.4356(2) 0.4293(2) 0.13755(19)
H44 H 0.5011 0.4634 0.1542
H45 H 0.4782 0.3749 0.0698
C27 C 0.3701(2) 0.36304(18) 0.23779(18)
H46 H 0.3370 0.3004 0.2126
H47 H 0.4322 0.3234 0.2792
K1 K 0.35005(3) 0.53768(3) 0.46722(2)
N1 N 0.45887(11) 0.15636(10) 0.73768(9)
N2 N 0.28414(11) 0.20254(10) 0.68904(9)
O2 O 0.10893(11) 0.69541(10) 0.54314(11)
O3 O 0.26370(12) 0.45511(12) 0.30851(11)
S1 S 0.36960(4) 0.44844(3) 0.71582(3)
S2 S 0.52252(3) 0.25249(3) 0.47988(3)
Si1 Si 0.41574(3) 0.28059(3) 0.64411(3)
C5A C 0.44717(13) 0.87676(13) 0.19777(11)
C6A C 0.33069(16) 0.82901(19) 0.26350(15)
H9A H 0.2933 0.8675 0.3390
H10A H 0.2646 0.8481 0.2238
H11A H 0.3596 0.7409 0.2697
C7A C 0.50777(17) 0.81512(18) 0.08109(14)
H12A H 0.5408 0.7277 0.0886
H13A H 0.4417 0.8293 0.0416
H14A H 0.5797 0.8486 0.0381
C8A C 0.40033(18) 1.01380(16) 0.18988(17)
H15A H 0.4731 1.0451 0.1450
H16A H 0.3309 1.0329 0.1539
H17A H 0.3668 1.0515 0.2657
C9A C 0.65281(12) 0.87310(11) 0.24848(10)
C10A C 0.70172(12) 0.96825(12) 0.17530(11)
C11A C 0.66799(13) 1.08713(12) 0.21617(12)
H18A H 0.6100 1.1093 0.2898
C12A C 0.71952(15) 1.17372(13) 0.14866(14)
H19A H 0.6970 1.2549 0.1766
C13A C 0.80362(15) 1.14173(15) 0.04081(14)
H20A H 0.8388 1.2009 -0.0049
C14A C 0.83633(14) 1.02333(14) -0.00024(12)
H21A H 0.8932 1.0019 -0.0744
C15A C 0.78631(13) 0.93566(13) 0.06666(11)
H22A H 0.8095 0.8545 0.0386
C16A C 0.82040(13) 0.80966(12) 0.35604(12)
C17A C 0.76450(16) 0.91125(14) 0.44698(14)
H23A H 0.6900 0.8943 0.5051
H24A H 0.8317 0.9158 0.4811
H25A H 0.7361 0.9887 0.4129
C18A C 0.93713(14) 0.83334(14) 0.26366(14)
H26A H 0.9117 0.9138 0.2336
H27A H 1.0084 0.8297 0.2953
H28A H 0.9661 0.7716 0.2029
C19A C 0.86351(15) 0.68833(13) 0.40912(14)
H29A H 0.8900 0.6224 0.3527
H30A H 0.9372 0.6889 0.4362
H31A H 0.7910 0.6760 0.4725
C20A C 0.97207(18) 0.34907(16) 0.36012(18)
H32A H 0.9197 0.3946 0.3127
H33A H 1.0166 0.4032 0.3832
C21A C 1.0692(2) 0.23884(19) 0.29723(18)
H34A H 1.1017 0.2536 0.2159
H35A H 1.1439 0.2121 0.3278
C22A C 0.9889(2) 0.14713(19) 0.31809(19)
H36A H 0.9380 0.1555 0.2641
H37A H 1.0449 0.0632 0.3122
C23A C 0.89985(16) 0.17964(14) 0.43770(16)
H38A H 0.9368 0.1281 0.4922
H39A H 0.8127 0.1682 0.4457
C24A C 0.78652(18) 0.46448(18) 0.76811(19)
H40A H 0.8186 0.3804 0.7364
H41A H 0.8598 0.4881 0.7821
C25A C 0.6759(2) 0.4727(2) 0.8777(2)
H42A H 0.7019 0.4932 0.9422
H43A H 0.6519 0.3947 0.8916
C26A C 0.5644(2) 0.5707(2) 0.86245(19)
H44A H 0.4989 0.5366 0.8458
H45A H 0.5218 0.6251 0.9302
C27A C 0.6299(2) 0.63696(18) 0.76221(18)
H46A H 0.6630 0.6996 0.7874
H47A H 0.5678 0.6766 0.7208
K1A K 0.64995(3) 0.46232(3) 0.53278(2)
N1A N 0.54113(11) 0.84364(10) 0.26232(9)
N2A N 0.71586(11) 0.79746(10) 0.31096(9)
O2A O 0.89107(11) 0.30459(10) 0.45686(11)
O3A O 0.73630(12) 0.54489(12) 0.69149(11)
S1A S 0.63040(4) 0.55156(3) 0.28418(3)
S2A S 0.47748(3) 0.74751(3) 0.52012(3)
Si1A Si 0.58426(3) 0.71941(3) 0.35589(3)
C1? C 0.9175(13) 0.4218(12) 0.0393(16)
H1? H 0.9001 0.3856 -0.0232
H2? H 0.8486 0.4167 0.1101
C2? C 0.9203(13) 0.5544(12) 0.0160(12)
H3? H 0.8760 0.6061 0.0854
H4? H 0.8779 0.5868 -0.0424
C3? C 1.0642(15) 0.5483(12) -0.025(2)
H5? H 1.0898 0.5894 0.0294
H6? H 1.0881 0.5851 -0.0995
C4? C 1.1258(11) 0.4133(12) -0.0323(17)
H7? H 1.2110 0.3959 -0.0176
H8? H 1.1397 0.3803 -0.1084
O1? O 1.0410(5) 0.3608(4) 0.0484(4)
C28? C 0.9010(14) 0.4308(13) 0.0684(11)
C29? C 0.905(2) 0.5622(14) 0.0439(17)
C30? C 0.9610(18) 0.4484(12) 0.032(2)
C31? C 0.9175(15) 0.5759(14) 0.0747(13)
H48? H 0.8125 0.4216 0.0785
H49? H 0.9248 0.4059 0.1381
H50? H 0.8887 0.6085 0.1141
H51? H 0.8387 0.6027 0.0065
H52? H 0.9041 0.4321 -0.0093
H53? H 0.9616 0.3916 0.0949
H54? H 0.8342 0.6160 0.0598
H55? H 0.9019 0.5776 0.1572
O4? O 0.9908(8) 0.3595(6) -0.0239(7)
loop_
_geom_bond_atom_site_label_1
_geom_bond_atom_site_label_2
_geom_bond_site_symmetry_1
_geom_bond_site_symmetry_2
C5 C6 1_555 1_555
C6 H9 1_555 1_555
H10 C6 1_555 1_555
H11 C6 1_555 1_555
C7 C5 1_555 1_555
H12 C7 1_555 1_555
H13 C7 1_555 1_555
H14 C7 1_555 1_555
C8 C5 1_555 1_555
H15 C8 1_555 1_555
H16 C8 1_555 1_555
H17 C8 1_555 1_555
C9 C10 1_555 1_555
C10 C11 1_555 1_555
C11 H18 1_555 1_555
C12 C11 1_555 1_555
H19 C12 1_555 1_555
C13 C12 1_555 1_555
H20 C13 1_555 1_555
C14 C13 1_555 1_555
H21 C14 1_555 1_555
C15 C10 1_555 1_555
H22 C15 1_555 1_555
C16 C17 1_555 1_555
C17 H23 1_555 1_555
H24 C17 1_555 1_555
H25 C17 1_555 1_555
C18 C16 1_555 1_555
H26 C18 1_555 1_555
H27 C18 1_555 1_555
H28 C18 1_555 1_555
C19 C16 1_555 1_555
H29 C19 1_555 1_555
H30 C19 1_555 1_555
H31 C19 1_555 1_555
C20 H32 1_555 1_555
H33 C20 1_555 1_555
C21 C20 1_555 1_555
H34 C21 1_555 1_555
H35 C21 1_555 1_555
C22 C21 1_555 1_555
H36 C22 1_555 1_555
H37 C22 1_555 1_555
C23 C22 1_555 1_555
H38 C23 1_555 1_555
H39 C23 1_555 1_555
C24 H40 1_555 1_555
H41 C24 1_555 1_555
C25 C24 1_555 1_555
H42 C25 1_555 1_555
H43 C25 1_555 1_555
C26 C25 1_555 1_555
H44 C26 1_555 1_555
H45 C26 1_555 1_555
C27 C26 1_555 1_555
H46 C27 1_555 1_555
H47 C27 1_555 1_555
K1 O2 1_555 1_555
N1 C5 1_555 1_555
N2 C9 1_555 1_555
O2 C20 1_555 1_555
O3 C24 1_555 1_555
S1 K1 1_555 1_555
S2 K1 1_555 1_555
Si1 N1 1_555 1_555
C5A C6A 1_555 1_555
C6A H9A 1_555 1_555
H10A C6A 1_555 1_555
H11A C6A 1_555 1_555
C7A C5A 1_555 1_555
H12A C7A 1_555 1_555
H13A C7A 1_555 1_555
H14A C7A 1_555 1_555
C8A C5A 1_555 1_555
H15A C8A 1_555 1_555
H16A C8A 1_555 1_555
H17A C8A 1_555 1_555
C9A C10A 1_555 1_555
C10A C11A 1_555 1_555
C11A H18A 1_555 1_555
C12A C11A 1_555 1_555
H19A C12A 1_555 1_555
C13A C12A 1_555 1_555
H20A C13A 1_555 1_555
C14A C13A 1_555 1_555
H21A C14A 1_555 1_555
C15A C10A 1_555 1_555
H22A C15A 1_555 1_555
C16A C17A 1_555 1_555
C17A H23A 1_555 1_555
H24A C17A 1_555 1_555
H25A C17A 1_555 1_555
C18A C16A 1_555 1_555
H26A C18A 1_555 1_555
H27A C18A 1_555 1_555
H28A C18A 1_555 1_555
C19A C16A 1_555 1_555
H29A C19A 1_555 1_555
H30A C19A 1_555 1_555
H31A C19A 1_555 1_555
C20A H32A 1_555 1_555
H33A C20A 1_555 1_555
C21A C20A 1_555 1_555
H34A C21A 1_555 1_555
H35A C21A 1_555 1_555
C22A C21A 1_555 1_555
H36A C22A 1_555 1_555
H37A C22A 1_555 1_555
C23A C22A 1_555 1_555
H38A C23A 1_555 1_555
H39A C23A 1_555 1_555
C24A H40A 1_555 1_555
H41A C24A 1_555 1_555
C25A C24A 1_555 1_555
H42A C25A 1_555 1_555
H43A C25A 1_555 1_555
C26A C25A 1_555 1_555
H44A C26A 1_555 1_555
H45A C26A 1_555 1_555
C27A C26A 1_555 1_555
H46A C27A 1_555 1_555
H47A C27A 1_555 1_555
K1A S1 1_555 1_555
N1A C5A 1_555 1_555
N2A C9A 1_555 1_555
O2A C20A 1_555 1_555
O3A C24A 1_555 1_555
S1A K1 1_555 1_555
S2A K1 1_555 1_555
Si1A N1A 1_555 1_555
C9 N1 1_555 1_555
C14 C15 1_555 1_555
C16 N2 1_555 1_555
C23 O2 1_555 1_555
C27 O3 1_555 1_555
K1 O3 1_555 1_555
N2 Si1 1_555 1_555
S1 Si1 1_555 1_555
S2 Si1 1_555 1_555
S2 K1A 1_555 1_555
C9A N1A 1_555 1_555
C14A C15A 1_555 1_555
C16A N2A 1_555 1_555
C23A O2A 1_555 1_555
C27A O3A 1_555 1_555
K1A O2A 1_555 1_555
K1A O3A 1_555 1_555
K1A S1A 1_555 1_555
K1A S2A 1_555 1_555
N2A Si1A 1_555 1_555
S1A Si1A 1_555 1_555
S2A Si1A 1_555 1_555

#END
