
#######################################################################
#
#                 Cambridge Crystallographic Data Centre
#                                CCDC 
#
#######################################################################
#
# If this CIF has been generated from an entry in the Cambridge 
# Structural Database, then it will include bibliographic, chemical, 
# crystal, experimental, refinement or atomic coordinate data resulting 
# from the CCDC's data processing and validation procedures.
#
#######################################################################

data_ODADAB
_chemical_formula_moiety         'C23 H20 F1 N1 O3,C1 H1 Cl3'
_chemical_name_systematic        
"5'-fluoro-6,9-dimethyl-2'-oxo-1',2',6a,10a-tetrahydro-6H,9H-spiro[benzo[c]chromene-10,3'-indole]-8-carbaldehyde chloroform solvate"
_symmetry_cell_setting           orthorhombic
_symmetry_space_group_name_H-M   'C 2 2 21'
_symmetry_Int_Tables_number      20
_space_group_name_Hall           'C 2n 2'
loop_
_symmetry_equiv_pos_site_id
_symmetry_equiv_pos_as_xyz
1 x,y,z
2 -x,-y,1/2+z
3 -x,y,1/2-z
4 x,-y,-z
5 1/2+x,1/2+y,z
6 1/2-x,1/2-y,1/2+z
7 1/2-x,1/2+y,1/2-z
8 1/2+x,1/2-y,-z
_cell_length_a                   12.9969(4)
_cell_length_b                   17.0693(8)
_cell_length_c                   23.6874(7)
_cell_angle_alpha                90
_cell_angle_beta                 90
_cell_angle_gamma                90
_cell_volume                     5255
_exptl_crystal_colour            colorless
_exptl_crystal_description       block
_chemical_melting_point          '109-111 deg.C'
_cell_formula_units_Z            8
loop_
_atom_site_label
_atom_site_type_symbol
_atom_site_fract_x
_atom_site_fract_y
_atom_site_fract_z
Cl1 Cl 0.0768(6) 0.6080(5) 0.5326(3)
Cl2 Cl 0.2070(6) 0.7291(8) 0.4964(3)
Cl3 Cl -0.0176(7) 0.7430(5) 0.4947(3)
C1 C 0.0986(16) 0.6825(15) 0.4862(6)
H1 H 0.0989 0.6608 0.4479
F1 F 0.3878(5) 1.1644(4) 0.7810(3)
N1 N 0.3152(5) 1.0433(4) 0.5722(3)
O1 O 0.3045(5) 0.9132(4) 0.5456(2)
O2 O -0.0180(6) 0.8695(6) 0.6406(5)
O3 O 0.5078(7) 0.7539(6) 0.6830(4)
C2 C 0.3649(7) 1.1359(8) 0.7289(4)
C3 C 0.3653(7) 1.1887(7) 0.6841(5)
H2 H 0.3778 1.2415 0.6911
C4 C 0.3474(7) 1.1639(6) 0.6292(5)
H3 H 0.3488 1.1981 0.5987
C5 C 0.3268(6) 1.0823(6) 0.6229(3)
C6 C 0.3261(5) 1.0325(5) 0.6671(3)
C7 C 0.3486(6) 1.0583(7) 0.7213(3)
H4 H 0.3522 1.0234 0.7514
C8 C 0.3020(6) 0.9508(6) 0.6465(3)
C9 C 0.3089(6) 0.9616(6) 0.5818(3)
C10 C 0.1875(6) 0.9317(6) 0.6594(3)
H5 H 0.1451 0.9646 0.6348
C11 C 0.1632(7) 0.8482(7) 0.6458(4)
C12 C 0.2297(9) 0.7921(7) 0.6419(4)
H6 H 0.2053 0.7415 0.6360
C13 C 0.3409(8) 0.8036(6) 0.6461(4)
H7 H 0.3686 0.7988 0.6078
C14 C 0.3731(6) 0.8844(5) 0.6679(3)
H8 H 0.3635 0.8827 0.7089
C15 C 0.0509(9) 0.8265(8) 0.6371(5)
H9 H 0.0363 0.7746 0.6281
C16 C 0.3957(9) 0.7404(7) 0.6825(5)
H10 H 0.3705 0.7452 0.7213
C17 C 0.5445(8) 0.8219(8) 0.6683(4)
C18 C 0.4878(6) 0.8926(7) 0.6587(3)
C19 C 0.5387(6) 0.9604(7) 0.6417(4)
H11 H 0.5022 1.0065 0.6354
C20 C 0.6478(7) 0.9581(10) 0.6341(4)
H12 H 0.6813 1.0032 0.6218
C21 C 0.7041(7) 0.8931(10) 0.6442(5)
H13 H 0.7753 0.8933 0.6400
C22 C 0.6519(11) 0.8250(13) 0.6613(5)
H14 H 0.6901 0.7799 0.6683
C23 C 0.1549(7) 0.9492(8) 0.7220(4)
H15 H 0.0818 0.9431 0.7258
H16 H 0.1738 1.0019 0.7316
H17 H 0.1892 0.9134 0.7469
C24 C 0.3771(16) 0.6585(9) 0.6634(9)
H18 H 0.3522 0.6589 0.6253
H19 H 0.3268 0.6344 0.6875
H20 H 0.4402 0.6294 0.6653
loop_
_geom_bond_atom_site_label_1
_geom_bond_atom_site_label_2
_geom_bond_site_symmetry_1
_geom_bond_site_symmetry_2
Cl1 C1 1_555 1_555
Cl2 C1 1_555 1_555
Cl3 C1 1_555 1_555
C1 H1 1_555 1_555
F1 C2 1_555 1_555
N1 C5 1_555 1_555
O1 C9 1_555 1_555
O2 C15 1_555 1_555
O3 C16 1_555 1_555
C2 C3 1_555 1_555
C3 H2 1_555 1_555
C4 C3 1_555 1_555
H3 C4 1_555 1_555
C5 C4 1_555 1_555
C6 C5 1_555 1_555
C7 C2 1_555 1_555
H4 C7 1_555 1_555
C8 C6 1_555 1_555
C9 N1 1_555 1_555
C10 C8 1_555 1_555
H5 C10 1_555 1_555
C11 C10 1_555 1_555
C12 C11 1_555 1_555
H6 C12 1_555 1_555
C13 C12 1_555 1_555
H7 C13 1_555 1_555
C14 C8 1_555 1_555
H8 C14 1_555 1_555
C15 C11 1_555 1_555
H9 C15 1_555 1_555
C16 C13 1_555 1_555
H10 C16 1_555 1_555
C17 O3 1_555 1_555
C18 C14 1_555 1_555
C19 C18 1_555 1_555
H11 C19 1_555 1_555
C20 C19 1_555 1_555
H12 C20 1_555 1_555
C21 C20 1_555 1_555
H13 C21 1_555 1_555
C22 C17 1_555 1_555
H14 C22 1_555 1_555
C23 C10 1_555 1_555
H15 C23 1_555 1_555
H16 C23 1_555 1_555
H17 C23 1_555 1_555
C24 C16 1_555 1_555
H18 C24 1_555 1_555
H19 C24 1_555 1_555
H20 C24 1_555 1_555
C6 C7 1_555 1_555
C8 C9 1_555 1_555
C13 C14 1_555 1_555
C17 C18 1_555 1_555
C21 C22 1_555 1_555

#END
