
#######################################################################
#
#                 Cambridge Crystallographic Data Centre
#                                CCDC 
#
#######################################################################
#
# If this CIF has been generated from an entry in the Cambridge 
# Structural Database, then it will include bibliographic, chemical, 
# crystal, experimental, refinement or atomic coordinate data resulting 
# from the CCDC's data processing and validation procedures.
#
#######################################################################

data_ODADOM
_chemical_name_common            gem-Dichlorotetraphenylcyclopentadiene
_chemical_formula_moiety         'C29 H20 Cl2'
_chemical_name_systematic        
1,1-Dichloro-2,3,4,5-tetraphenylcyclopenta-2,4-diene
_symmetry_cell_setting           orthorhombic
_symmetry_space_group_name_H-M   'P 21 21 21'
_symmetry_Int_Tables_number      19
_space_group_name_Hall           'P 2ac 2ab'
loop_
_symmetry_equiv_pos_site_id
_symmetry_equiv_pos_as_xyz
1 x,y,z
2 1/2-x,-y,1/2+z
3 1/2+x,1/2-y,-z
4 -x,1/2+y,1/2-z
_cell_length_a                   8.583(2)
_cell_length_b                   11.562(3)
_cell_length_c                   22.565(5)
_cell_angle_alpha                90
_cell_angle_beta                 90
_cell_angle_gamma                90
_cell_volume                     2239.27
_exptl_crystal_colour            yellow
_chemical_melting_point          '438-441 K'
_cell_formula_units_Z            4
_exptl_crystal_recrystallization_method ethanol
loop_
_atom_site_label
_atom_site_type_symbol
_atom_site_fract_x
_atom_site_fract_y
_atom_site_fract_z
Cl1 Cl 0.6645(3) 0.0459(2) 0.7378(1)
Cl2 Cl 0.4482(3) -0.1675(2) 0.7549(1)
C1 C 0.422(1) 0.0262(8) 0.8167(4)
C2 C 0.293(1) 0.0907(8) 0.8075(4)
C3 C 0.256(1) 0.0961(8) 0.7423(5)
C4 C 0.362(1) 0.0302(8) 0.7112(4)
C5 C 0.478(1) -0.0149(7) 0.7583(4)
C6 C 0.490(1) -0.0110(8) 0.8726(4)
C7 C 0.404(1) -0.0186(9) 0.9254(4)
C8 C 0.471(1) -0.058(1) 0.9773(5)
C9 C 0.626(1) -0.097(1) 0.9800(5)
C10 C 0.709(1) -0.087(1) 0.9268(5)
C11 C 0.649(1) -0.048(1) 0.8732(5)
C12 C 0.200(1) 0.1591(9) 0.8512(4)
C13 C 0.039(1) 0.1334(9) 0.8581(5)
C14 C -0.046(1) 0.198(1) 0.9001(5)
C15 C 0.021(2) 0.285(1) 0.9335(5)
C16 C 0.184(2) 0.309(1) 0.9251(5)
C17 C 0.270(1) 0.2457(9) 0.8838(5)
C18 C 0.120(1) 0.1552(9) 0.7160(4)
C19 C 0.034(1) 0.095(1) 0.6722(4)
C20 C -0.092(1) 0.154(1) 0.6449(5)
C21 C -0.124(1) 0.273(1) 0.6601(5)
C22 C -0.039(1) 0.325(1) 0.7026(5)
C23 C 0.085(1) 0.2685(9) 0.7325(5)
C24 C 0.385(1) 0.0190(9) 0.6477(4)
C25 C 0.359(1) -0.088(1) 0.6216(4)
C26 C 0.387(1) -0.099(1) 0.5598(5)
C27 C 0.440(1) -0.001(1) 0.5276(5)
C28 C 0.461(1) 0.102(1) 0.5539(5)
C29 C 0.434(1) 0.114(1) 0.6153(4)
loop_
_geom_bond_atom_site_label_1
_geom_bond_atom_site_label_2
_geom_bond_site_symmetry_1
_geom_bond_site_symmetry_2
Cl1 C5 1_555 1_555
Cl2 C5 1_555 1_555
C1 C2 1_555 1_555
C2 C3 1_555 1_555
C3 C4 1_555 1_555
C4 C5 1_555 1_555
C5 C1 1_555 1_555
C6 C1 1_555 1_555
C7 C6 1_555 1_555
C8 C7 1_555 1_555
C9 C8 1_555 1_555
C10 C9 1_555 1_555
C11 C6 1_555 1_555
C12 C2 1_555 1_555
C13 C12 1_555 1_555
C14 C13 1_555 1_555
C15 C14 1_555 1_555
C16 C15 1_555 1_555
C17 C12 1_555 1_555
C18 C3 1_555 1_555
C19 C18 1_555 1_555
C20 C19 1_555 1_555
C21 C20 1_555 1_555
C22 C21 1_555 1_555
C23 C18 1_555 1_555
C24 C4 1_555 1_555
C25 C24 1_555 1_555
C26 C25 1_555 1_555
C27 C26 1_555 1_555
C28 C27 1_555 1_555
C29 C24 1_555 1_555
C10 C11 1_555 1_555
C16 C17 1_555 1_555
C22 C23 1_555 1_555
C28 C29 1_555 1_555

#END
