
#######################################################################
#
#                 Cambridge Crystallographic Data Centre
#                                CCDC 
#
#######################################################################
#
# If this CIF has been generated from an entry in the Cambridge 
# Structural Database, then it will include bibliographic, chemical, 
# crystal, experimental, refinement or atomic coordinate data resulting 
# from the CCDC's data processing and validation procedures.
#
#######################################################################

data_ODAFIL
_chemical_formula_moiety         'C36 H30 N2 O4,C24 H12'
_chemical_name_systematic        
"2,9-dicyclohexylisoquinolino[4',5',6':6,5,10]anthra[2,1,9-def]isoquinoline-1,3,8,10(2H,9H)-tetrone coronene"
_symmetry_cell_setting           triclinic
_symmetry_space_group_name_H-M   'P -1'
_symmetry_Int_Tables_number      2
_space_group_name_Hall           '-P 1'
loop_
_symmetry_equiv_pos_site_id
_symmetry_equiv_pos_as_xyz
1 x,y,z
2 -x,-y,-z
_cell_length_a                   7.251(3)
_cell_length_b                   10.585(3)
_cell_length_c                   14.082(4)
_cell_angle_alpha                78.553(14)
_cell_angle_beta                 78.630(17)
_cell_angle_gamma                78.805(17)
_cell_volume                     1024.93
_exptl_crystal_colour            'dark red'
_exptl_crystal_description       plate
_cell_formula_units_Z            1
_exptl_crystal_recrystallization_method 'diisopropyl ether/chloroform'
_exptl_crystal_preparation       Luminescent
loop_
_atom_site_label
_atom_site_type_symbol
_atom_site_fract_x
_atom_site_fract_y
_atom_site_fract_z
O1 O 0.9012(4) 0.66279(19) 0.90514(15)
O2 O 0.8042(3) 0.45749(18) 0.66959(13)
N1 N 0.8742(4) 0.5524(2) 0.78636(16)
C1 C 0.9977(4) 1.0021(2) 0.60285(19)
C2 C 0.9627(4) 0.8893(2) 0.57235(18)
C3 C 0.9633(4) 0.8841(2) 0.47226(19)
C4 C 0.9234(4) 0.7721(2) 0.44861(19)
H1 H 0.9209 0.7687 0.382
C5 C 0.8871(4) 0.6651(2) 0.5199(2)
H2 H 0.8604 0.5899 0.5014
C6 C 0.8891(4) 0.6665(2) 0.61640(18)
C7 C 0.9275(4) 0.7786(2) 0.64456(18)
C8 C 0.9283(4) 0.7807(2) 0.74374(19)
C9 C 0.9601(4) 0.8912(2) 0.77128(19)
H3 H 0.9592 0.8927 0.8386
C10 C 0.9936(4) 1.0009(2) 0.70115(19)
H4 H 1.0141 1.0766 0.7217
C11 C 0.9005(5) 0.6643(3) 0.8190(2)
C12 C 0.8517(5) 0.5516(3) 0.69087(19)
C13 C 0.8593(6) 0.4323(3) 0.8622(2)
H5 H 0.8942 0.4516 0.9225
C14 C 1.0034(5) 0.3159(3) 0.8331(2)
H6 H 1.1335 0.3383 0.8199
H7 H 0.9779 0.2945 0.7721
C15 C 0.9917(6) 0.1979(3) 0.9145(2)
H8 H 1.0783 0.1212 0.8921
H9 H 1.0339 0.2153 0.9727
C16 C 0.7913(7) 0.1681(3) 0.9428(2)
H10 H 0.7864 0.0942 0.9982
H11 H 0.7542 0.1414 0.8866
C17 C 0.6514(6) 0.2851(3) 0.9721(2)
H12 H 0.6809 0.3065 1.0323
H13 H 0.5208 0.2635 0.9873
C18 C 0.6596(6) 0.4035(3) 0.8906(2)
H14 H 0.6162 0.3861 0.8328
H15 H 0.5735 0.4802 0.9135
O1A O 1.0988(4) 1.33721(19) 0.09486(15)
O2A O 1.1958(3) 1.54251(18) 0.33041(13)
N1A N 1.1258(4) 1.4476(2) 0.21364(16)
C1A C 1.0023(4) 0.9979(2) 0.39715(19)
C2A C 1.0373(4) 1.1107(2) 0.42765(18)
C3A C 1.0367(4) 1.1159(2) 0.52774(19)
C4A C 1.0766(4) 1.2279(2) 0.55139(19)
H1A H 1.0791 1.2313 0.618
C5A C 1.1129(4) 1.3349(2) 0.4801(2)
H2A H 1.1396 1.4101 0.4986
C6A C 1.1109(4) 1.3335(2) 0.38360(18)
C7A C 1.0725(4) 1.2214(2) 0.35544(18)
C8A C 1.0717(4) 1.2193(2) 0.25626(19)
C9A C 1.0399(4) 1.1088(2) 0.22872(19)
H3A H 1.0408 1.1073 0.1614
C10A C 1.0064(4) 0.9991(2) 0.29885(19)
H4A H 0.9859 0.9234 0.2783
C11A C 1.0995(5) 1.3357(3) 0.1810(2)
C12A C 1.1483(5) 1.4484(3) 0.30913(19)
C13A C 1.1407(6) 1.5677(3) 0.1378(2)
H5A H 1.1058 1.5484 0.0775
C14A C 0.9966(5) 1.6841(3) 0.1669(2)
H6A H 0.8665 1.6617 0.1801
H7A H 1.0221 1.7055 0.2279
C15A C 1.0083(6) 1.8021(3) 0.0855(2)
H8A H 0.9217 1.8788 0.1079
H9A H 0.9661 1.7847 0.0273
C16A C 1.2087(7) 1.8319(3) 0.0572(2)
H10A H 1.2136 1.9058 0.0018
H11A H 1.2458 1.8586 0.1134
C17A C 1.3486(6) 1.7149(3) 0.0279(2)
H12A H 1.3191 1.6935 -0.0323
H13A H 1.4792 1.7365 0.0127
C18A C 1.3404(6) 1.5965(3) 0.1094(2)
H14A H 1.3838 1.6139 0.1672
H15A H 1.4265 1.5198 0.0865
C19 C 0.6073(5) 0.3362(3) 0.4017(2)
H16 H 0.6322 0.4134 0.3572
C20 C 0.5754(5) 0.2281(3) 0.3644(2)
C21 C 0.5791(5) 0.2291(3) 0.2643(2)
H17 H 0.6008 0.3059 0.2185
C22 C 0.5521(5) 0.1227(3) 0.2312(2)
H18 H 0.5563 0.1268 0.1628
C23 C 0.5179(5) 0.0059(3) 0.2964(2)
C24 C 0.4900(5) -0.1065(3) 0.2645(2)
H19 H 0.4981 -0.1059 0.1962
C25 C 0.4520(5) -0.2150(3) 0.3293(2)
H20 H 0.4337 -0.2888 0.3056
C26 C 0.4389(5) -0.2206(3) 0.4312(2)
C27 C 0.3968(5) -0.3320(3) 0.5017(2)
H21 H 0.3709 -0.4053 0.4801
C28 C 0.5395(4) 0.1143(3) 0.4322(2)
C29 C 0.5099(4) 0.0036(3) 0.3973(2)
C30 C 0.4706(4) -0.1111(2) 0.4661(2)
C19A C 0.3927(5) -0.3362(3) 0.5983(2)
H16A H 0.3678 -0.4134 0.6428
C20A C 0.4246(5) -0.2281(3) 0.6356(2)
C21A C 0.4209(5) -0.2291(3) 0.7357(2)
H17A H 0.3992 -0.3059 0.7815
C22A C 0.4479(5) -0.1227(3) 0.7688(2)
H18A H 0.4437 -0.1268 0.8372
C23A C 0.4821(5) -0.0059(3) 0.7036(2)
C24A C 0.5100(5) 0.1065(3) 0.7355(2)
H19A H 0.5019 0.1059 0.8038
C25A C 0.5480(5) 0.2150(3) 0.6707(2)
H20A H 0.5663 0.2888 0.6944
C26A C 0.5611(5) 0.2206(3) 0.5688(2)
C27A C 0.6032(5) 0.3320(3) 0.4983(2)
H21A H 0.6291 0.4053 0.5199
C28A C 0.4605(4) -0.1143(3) 0.5678(2)
C29A C 0.4901(4) -0.0036(3) 0.6027(2)
C30A C 0.5294(4) 0.1111(2) 0.5339(2)
loop_
_geom_bond_atom_site_label_1
_geom_bond_atom_site_label_2
_geom_bond_site_symmetry_1
_geom_bond_site_symmetry_2
O1 C11 1_555 1_555
O2 C12 1_555 1_555
N1 C11 1_555 1_555
C1 C2 1_555 1_555
C2 C3 1_555 1_555
C3 C4 1_555 1_555
C4 H1 1_555 1_555
C5 C4 1_555 1_555
H2 C5 1_555 1_555
C6 C5 1_555 1_555
C7 C2 1_555 1_555
C8 C7 1_555 1_555
C9 C8 1_555 1_555
H3 C9 1_555 1_555
C10 C1 1_555 1_555
H4 C10 1_555 1_555
C11 C8 1_555 1_555
C12 N1 1_555 1_555
C13 N1 1_555 1_555
H5 C13 1_555 1_555
C14 C13 1_555 1_555
H6 C14 1_555 1_555
H7 C14 1_555 1_555
C15 C14 1_555 1_555
H8 C15 1_555 1_555
H9 C15 1_555 1_555
C16 C15 1_555 1_555
H10 C16 1_555 1_555
H11 C16 1_555 1_555
C17 C16 1_555 1_555
H12 C17 1_555 1_555
H13 C17 1_555 1_555
C18 C13 1_555 1_555
H14 C18 1_555 1_555
H15 C18 1_555 1_555
C19 H16 1_555 1_555
C20 C19 1_555 1_555
C21 C20 1_555 1_555
H17 C21 1_555 1_555
C22 C21 1_555 1_555
H18 C22 1_555 1_555
C23 C22 1_555 1_555
C24 C23 1_555 1_555
H19 C24 1_555 1_555
C25 C24 1_555 1_555
H20 C25 1_555 1_555
C26 C25 1_555 1_555
C27 C26 1_555 1_555
H21 C27 1_555 1_555
C28 C20 1_555 1_555
C29 C23 1_555 1_555
C30 C26 1_555 1_555
O1A C11A 1_555 1_555
O2A C12A 1_555 1_555
N1A C11A 1_555 1_555
C1A C3 1_555 1_555
C2A C1A 1_555 1_555
C3A C1 1_555 1_555
C4A C3A 1_555 1_555
H1A C4A 1_555 1_555
C5A C4A 1_555 1_555
H2A C5A 1_555 1_555
C6A C5A 1_555 1_555
C7A C2A 1_555 1_555
C8A C7A 1_555 1_555
C9A C8A 1_555 1_555
H3A C9A 1_555 1_555
C10A C1A 1_555 1_555
H4A C10A 1_555 1_555
C11A C8A 1_555 1_555
C12A N1A 1_555 1_555
C13A N1A 1_555 1_555
H5A C13A 1_555 1_555
C14A C13A 1_555 1_555
H6A C14A 1_555 1_555
H7A C14A 1_555 1_555
C15A C14A 1_555 1_555
H8A C15A 1_555 1_555
H9A C15A 1_555 1_555
C16A C15A 1_555 1_555
H10A C16A 1_555 1_555
H11A C16A 1_555 1_555
C17A C16A 1_555 1_555
H12A C17A 1_555 1_555
H13A C17A 1_555 1_555
C18A C13A 1_555 1_555
H14A C18A 1_555 1_555
H15A C18A 1_555 1_555
C19A C27 1_555 1_555
H16A C19A 1_555 1_555
C20A C19A 1_555 1_555
C21A C20A 1_555 1_555
H17A C21A 1_555 1_555
C22A C21A 1_555 1_555
H18A C22A 1_555 1_555
C23A C22A 1_555 1_555
C24A C23A 1_555 1_555
H19A C24A 1_555 1_555
C25A C24A 1_555 1_555
H20A C25A 1_555 1_555
C26A C25A 1_555 1_555
C27A C19 1_555 1_555
H21A C27A 1_555 1_555
C28A C30 1_555 1_555
C29A C23A 1_555 1_555
C30A C28 1_555 1_555
C6 C7 1_555 1_555
C6 C12 1_555 1_555
C9 C10 1_555 1_555
C17 C18 1_555 1_555
C28 C29 1_555 1_555
C29 C30 1_555 1_555
C2A C3A 1_555 1_555
C6A C7A 1_555 1_555
C6A C12A 1_555 1_555
C9A C10A 1_555 1_555
C17A C18A 1_555 1_555
C20A C28A 1_555 1_555
C26A C27A 1_555 1_555
C26A C30A 1_555 1_555
C28A C29A 1_555 1_555
C29A C30A 1_555 1_555

#END
