
#######################################################################
#
#                 Cambridge Crystallographic Data Centre
#                                CCDC 
#
#######################################################################
#
# If this CIF has been generated from an entry in the Cambridge 
# Structural Database, then it will include bibliographic, chemical, 
# crystal, experimental, refinement or atomic coordinate data resulting 
# from the CCDC's data processing and validation procedures.
#
#######################################################################

data_ODAHAE
_chemical_formula_moiety         'C62 H78 Mg1 O10 S2'
_chemical_name_systematic        
"bis(3,3'-di-t-butyl-2'-oxy-5,5',6,6'-tetramethylbiphenyl-2-yl 4-methoxybenzenesulfonatato)-magnesium"
_symmetry_cell_setting           triclinic
_symmetry_space_group_name_H-M   'P -1'
_symmetry_Int_Tables_number      2
_space_group_name_Hall           '-P 1'
loop_
_symmetry_equiv_pos_site_id
_symmetry_equiv_pos_as_xyz
1 x,y,z
2 -x,-y,-z
_cell_length_a                   13.0715(3)
_cell_length_b                   13.3289(3)
_cell_length_c                   18.8227(4)
_cell_angle_alpha                85.375(2)
_cell_angle_beta                 71.011(2)
_cell_angle_gamma                69.490(2)
_cell_volume                     2902.36
_exptl_crystal_colour            colorless
_exptl_crystal_description       columnar
_cell_formula_units_Z            2
loop_
_atom_site_label
_atom_site_type_symbol
_atom_site_fract_x
_atom_site_fract_y
_atom_site_fract_z
Mg1 Mg 0.38813(5) 0.21836(5) 0.24893(3)
S1 S 0.15508(4) 0.42554(4) 0.33457(3)
S2 S 0.59635(4) 0.33075(4) 0.20585(2)
O1 O 0.35537(10) 0.22197(10) 0.15773(7)
O2 O 0.06674(11) 0.36762(10) 0.33854(7)
O3 O 0.27034(11) 0.34801(10) 0.31042(8)
O4 O 0.11724(12) 0.48078(11) 0.40484(8)
O5 O 0.09371(14) 0.77502(12) 0.12584(9)
O6 O 0.44591(10) 0.11315(10) 0.31185(7)
O7 O 0.61021(10) 0.33776(10) 0.28511(7)
O8 O 0.52399(11) 0.26828(11) 0.21169(7)
O9 O 0.56213(12) 0.43475(11) 0.17666(8)
O10 O 1.06925(13) 0.08363(14) 0.03017(9)
C1 C 0.26410(15) 0.28509(14) 0.13947(10)
C2 C 0.27473(16) 0.34169(16) 0.07197(10)
C3 C 0.17387(17) 0.41623(16) 0.06357(11)
H1 H 0.1800 0.4572 0.0210
C4 C 0.06442(17) 0.43322(16) 0.11498(11)
C5 C 0.05226(16) 0.36861(15) 0.17677(11)
C6 C 0.15242(15) 0.29404(14) 0.18792(10)
C7 C 0.14554(15) 0.21782(15) 0.25030(10)
C8 C 0.10077(15) 0.25431(14) 0.32544(10)
C9 C 0.07912(15) 0.19023(15) 0.38681(10)
C10 C 0.11813(16) 0.08120(15) 0.36830(11)
H2 H 0.1088 0.0342 0.4072
C11 C 0.17042(15) 0.03844(15) 0.29464(11)
C12 C 0.18079(15) 0.10692(15) 0.23478(10)
C13 C 0.39235(17) 0.32100(18) 0.01126(11)
C14 C 0.3822(2) 0.3822(2) -0.05989(13)
H3 H 0.4574 0.3669 -0.0963
H4 H 0.3483 0.4578 -0.0477
H5 H 0.3345 0.3604 -0.0803
C15 C 0.47221(18) 0.35644(19) 0.03997(12)
H6 H 0.4822 0.3180 0.0840
H7 H 0.4386 0.4320 0.0522
H8 H 0.5457 0.3414 0.0016
C16 C 0.4483(2) 0.20094(19) -0.01035(13)
H9 H 0.4564 0.1610 0.0335
H10 H 0.5229 0.1875 -0.0472
H11 H 0.4007 0.1791 -0.0309
C17 C -0.03887(19) 0.52190(18) 0.10294(13)
H12 H -0.1074 0.5230 0.1428
H13 H -0.0461 0.5091 0.0556
H14 H -0.0283 0.5897 0.1028
C18 C -0.06556(17) 0.37793(18) 0.23018(12)
H15 H -0.1233 0.4330 0.2143
H16 H -0.0709 0.3958 0.2799
H17 H -0.0775 0.3108 0.2303
C19 C 0.22697(19) 0.06214(17) 0.15503(11)
H18 H 0.2459 -0.0143 0.1554
H19 H 0.2948 0.0790 0.1283
H20 H 0.1696 0.0931 0.1306
C20 C 0.21104(18) -0.08153(16) 0.28094(13)
H21 H 0.2457 -0.0984 0.2279
H22 H 0.1465 -0.1059 0.3001
H23 H 0.2667 -0.1165 0.3061
C21 C 0.01534(16) 0.23244(16) 0.46891(10)
C22 C -0.08975(18) 0.33438(18) 0.47528(12)
H24 H -0.0653 0.3890 0.4458
H25 H -0.1263 0.3591 0.5269
H26 H -0.1434 0.3188 0.4571
C23 C -0.0307(2) 0.14955(19) 0.51704(12)
H27 H 0.0322 0.0840 0.5149
H28 H -0.0848 0.1362 0.4981
H29 H -0.0682 0.1766 0.5682
C24 C 0.0980(2) 0.2545(2) 0.50253(12)
H30 H 0.1641 0.1909 0.4975
H31 H 0.0594 0.2752 0.5548
H32 H 0.1221 0.3114 0.4764
C25 C 0.13918(15) 0.52000(14) 0.26536(11)
C26 C 0.03063(17) 0.59615(16) 0.27414(13)
H33 H -0.0333 0.5915 0.3128
C27 C 0.01886(18) 0.67826(17) 0.22505(13)
H34 H -0.0539 0.7276 0.2291
C28 C 0.11557(18) 0.68803(16) 0.16903(12)
C29 C 0.22336(17) 0.61170(16) 0.16047(12)
H35 H 0.2877 0.6173 0.1227
C30 C 0.23475(16) 0.52676(15) 0.20874(11)
H36 H 0.3066 0.4747 0.2029
C31 C 0.1905(2) 0.79612(19) 0.07403(14)
H37 H 0.1642 0.8596 0.0476
H38 H 0.2351 0.7365 0.0387
H39 H 0.2373 0.8065 0.1009
C32 C 0.55371(14) 0.07741(14) 0.31356(10)
C33 C 0.63043(15) -0.02635(14) 0.28349(10)
C34 C 0.74275(16) -0.05583(16) 0.28518(12)
H40 H 0.7939 -0.1231 0.2650
C35 C 0.78370(16) 0.00862(16) 0.31505(13)
C36 C 0.70769(16) 0.10850(15) 0.34716(11)
C37 C 0.59380(15) 0.14262(14) 0.34544(10)
C38 C 0.50937(14) 0.24737(14) 0.38335(10)
C39 C 0.51692(14) 0.34522(14) 0.35411(10)
C40 C 0.45026(15) 0.44551(14) 0.39087(10)
C41 C 0.36713(15) 0.44028(15) 0.45866(10)
H41 H 0.3171 0.5045 0.4844
C42 C 0.35377(15) 0.34564(15) 0.49050(10)
C43 C 0.42620(15) 0.24821(14) 0.45322(10)
C44 C 0.58900(16) -0.10257(15) 0.25288(11)
C45 C 0.5433(2) -0.05442(17) 0.18764(12)
H42 H 0.6040 -0.0415 0.1471
H43 H 0.4807 0.0119 0.2045
H44 H 0.5167 -0.1036 0.1705
C46 C 0.49253(17) -0.12640(16) 0.31705(12)
H45 H 0.4658 -0.1742 0.2985
H46 H 0.4298 -0.0607 0.3356
H47 H 0.5219 -0.1592 0.3570
C47 C 0.68588(18) -0.21003(16) 0.22338(12)
H48 H 0.7469 -0.1976 0.1828
H49 H 0.6561 -0.2560 0.2056
H50 H 0.7151 -0.2436 0.2632
C48 C 0.90931(19) -0.02988(19) 0.31087(17)
H51 H 0.9479 -0.1000 0.2868
H52 H 0.9146 -0.0329 0.3608
H53 H 0.9450 0.0189 0.2824
C49 C 0.74848(18) 0.17837(17) 0.38270(13)
H54 H 0.6860 0.2439 0.4024
H55 H 0.8106 0.1944 0.3456
H56 H 0.7748 0.1413 0.4228
C50 C 0.42100(17) 0.14218(15) 0.48673(11)
H57 H 0.3606 0.1552 0.5342
H58 H 0.4933 0.1013 0.4941
H59 H 0.4058 0.1029 0.4532
C51 C 0.26452(17) 0.35418(17) 0.56687(11)
H60 H 0.2640 0.2839 0.5824
H61 H 0.1899 0.3977 0.5641
H62 H 0.2830 0.3864 0.6027
C52 C 0.46166(16) 0.55470(14) 0.36489(11)
C53 C 0.42012(18) 0.63166(16) 0.43383(12)
H63 H 0.3421 0.6390 0.4624
H64 H 0.4239 0.7006 0.4170
H65 H 0.4686 0.6031 0.4648
C54 C 0.38472(18) 0.60569(16) 0.31554(12)
H66 H 0.3068 0.6109 0.3428
H67 H 0.4118 0.5620 0.2706
H68 H 0.3875 0.6760 0.3025
C55 C 0.58704(17) 0.54731(16) 0.32258(12)
H69 H 0.5891 0.6175 0.3082
H70 H 0.6166 0.5014 0.2784
H71 H 0.6335 0.5184 0.3548
C56 C 0.73679(15) 0.25803(16) 0.15320(10)
C57 C 0.80396(17) 0.31280(17) 0.10658(11)
H72 H 0.7736 0.3868 0.1035
C58 C 0.91671(17) 0.25666(18) 0.06458(11)
H73 H 0.9626 0.2927 0.0332
C59 C 0.96063(17) 0.14640(18) 0.06960(11)
C60 C 0.89289(18) 0.09179(18) 0.11698(12)
H74 H 0.9236 0.0179 0.1205
C61 C 0.78030(17) 0.14714(16) 0.15869(11)
H75 H 0.7343 0.1111 0.1899
C62 C 1.1418(2) 0.1352(3) -0.02049(16)
H76 H 1.2159 0.0828 -0.0444
H77 H 1.1508 0.1876 0.0069
H78 H 1.1074 0.1699 -0.0580
loop_
_geom_bond_atom_site_label_1
_geom_bond_atom_site_label_2
_geom_bond_site_symmetry_1
_geom_bond_site_symmetry_2
Mg1 O1 1_555 1_555
S1 O2 1_555 1_555
S2 O7 1_555 1_555
O1 C1 1_555 1_555
O2 C8 1_555 1_555
O3 Mg1 1_555 1_555
O4 S1 1_555 1_555
O5 C28 1_555 1_555
O6 Mg1 1_555 1_555
O7 C39 1_555 1_555
O8 Mg1 1_555 1_555
O9 S2 1_555 1_555
O10 C59 1_555 1_555
C1 C2 1_555 1_555
C2 C3 1_555 1_555
C3 H1 1_555 1_555
C4 C3 1_555 1_555
C5 C4 1_555 1_555
C6 C1 1_555 1_555
C7 C6 1_555 1_555
C8 C7 1_555 1_555
C9 C8 1_555 1_555
C10 C9 1_555 1_555
H2 C10 1_555 1_555
C11 C10 1_555 1_555
C12 C7 1_555 1_555
C13 C2 1_555 1_555
C14 C13 1_555 1_555
H3 C14 1_555 1_555
H4 C14 1_555 1_555
H5 C14 1_555 1_555
C15 C13 1_555 1_555
H6 C15 1_555 1_555
H7 C15 1_555 1_555
H8 C15 1_555 1_555
C16 C13 1_555 1_555
H9 C16 1_555 1_555
H10 C16 1_555 1_555
H11 C16 1_555 1_555
C17 C4 1_555 1_555
H12 C17 1_555 1_555
H13 C17 1_555 1_555
H14 C17 1_555 1_555
C18 C5 1_555 1_555
H15 C18 1_555 1_555
H16 C18 1_555 1_555
H17 C18 1_555 1_555
C19 C12 1_555 1_555
H18 C19 1_555 1_555
H19 C19 1_555 1_555
H20 C19 1_555 1_555
C20 C11 1_555 1_555
H21 C20 1_555 1_555
H22 C20 1_555 1_555
H23 C20 1_555 1_555
C21 C9 1_555 1_555
C22 C21 1_555 1_555
H24 C22 1_555 1_555
H25 C22 1_555 1_555
H26 C22 1_555 1_555
C23 C21 1_555 1_555
H27 C23 1_555 1_555
H28 C23 1_555 1_555
H29 C23 1_555 1_555
C24 C21 1_555 1_555
H30 C24 1_555 1_555
H31 C24 1_555 1_555
H32 C24 1_555 1_555
C25 S1 1_555 1_555
C26 C25 1_555 1_555
H33 C26 1_555 1_555
C27 C26 1_555 1_555
H34 C27 1_555 1_555
C28 C27 1_555 1_555
C29 C28 1_555 1_555
H35 C29 1_555 1_555
C30 C25 1_555 1_555
H36 C30 1_555 1_555
C31 O5 1_555 1_555
H37 C31 1_555 1_555
H38 C31 1_555 1_555
H39 C31 1_555 1_555
C32 O6 1_555 1_555
C33 C32 1_555 1_555
C34 C33 1_555 1_555
H40 C34 1_555 1_555
C35 C34 1_555 1_555
C36 C35 1_555 1_555
C37 C32 1_555 1_555
C38 C37 1_555 1_555
C39 C38 1_555 1_555
C40 C39 1_555 1_555
C41 C40 1_555 1_555
H41 C41 1_555 1_555
C42 C41 1_555 1_555
C43 C38 1_555 1_555
C44 C33 1_555 1_555
C45 C44 1_555 1_555
H42 C45 1_555 1_555
H43 C45 1_555 1_555
H44 C45 1_555 1_555
C46 C44 1_555 1_555
H45 C46 1_555 1_555
H46 C46 1_555 1_555
H47 C46 1_555 1_555
C47 C44 1_555 1_555
H48 C47 1_555 1_555
H49 C47 1_555 1_555
H50 C47 1_555 1_555
C48 C35 1_555 1_555
H51 C48 1_555 1_555
H52 C48 1_555 1_555
H53 C48 1_555 1_555
C49 C36 1_555 1_555
H54 C49 1_555 1_555
H55 C49 1_555 1_555
H56 C49 1_555 1_555
C50 C43 1_555 1_555
H57 C50 1_555 1_555
H58 C50 1_555 1_555
H59 C50 1_555 1_555
C51 C42 1_555 1_555
H60 C51 1_555 1_555
H61 C51 1_555 1_555
H62 C51 1_555 1_555
C52 C40 1_555 1_555
C53 C52 1_555 1_555
H63 C53 1_555 1_555
H64 C53 1_555 1_555
H65 C53 1_555 1_555
C54 C52 1_555 1_555
H66 C54 1_555 1_555
H67 C54 1_555 1_555
H68 C54 1_555 1_555
C55 C52 1_555 1_555
H69 C55 1_555 1_555
H70 C55 1_555 1_555
H71 C55 1_555 1_555
C56 S2 1_555 1_555
C57 C56 1_555 1_555
H72 C57 1_555 1_555
C58 C57 1_555 1_555
H73 C58 1_555 1_555
C59 C58 1_555 1_555
C60 C59 1_555 1_555
H74 C60 1_555 1_555
C61 C56 1_555 1_555
H75 C61 1_555 1_555
C62 O10 1_555 1_555
H76 C62 1_555 1_555
H77 C62 1_555 1_555
H78 C62 1_555 1_555
S1 O3 1_555 1_555
S2 O8 1_555 1_555
C5 C6 1_555 1_555
C11 C12 1_555 1_555
C29 C30 1_555 1_555
C36 C37 1_555 1_555
C42 C43 1_555 1_555
C60 C61 1_555 1_555

#END
