
#######################################################################
#
#                 Cambridge Crystallographic Data Centre
#                                CCDC 
#
#######################################################################
#
# If this CIF has been generated from an entry in the Cambridge 
# Structural Database, then it will include bibliographic, chemical, 
# crystal, experimental, refinement or atomic coordinate data resulting 
# from the CCDC's data processing and validation procedures.
#
#######################################################################

data_ODALUD
_chemical_formula_moiety         'C24 H19 Br1 N2 O3 S1'
_chemical_name_systematic        
2-benzyl-10a-((4-bromophenyl)(hydroxy)methyl)-2H-pyrazino[2,1-b][1,3]benzothiazole-1,4(3H,10aH)-dione
_symmetry_cell_setting           monoclinic
_symmetry_space_group_name_H-M   'P 21'
_symmetry_Int_Tables_number      4
_space_group_name_Hall           'P 2yb'
loop_
_symmetry_equiv_pos_site_id
_symmetry_equiv_pos_as_xyz
1 x,y,z
2 -x,1/2+y,-z
_cell_length_a                   9.2522(4)
_cell_length_b                   11.5361(7)
_cell_length_c                   9.9202(4)
_cell_angle_alpha                90
_cell_angle_beta                 96.810(4)
_cell_angle_gamma                90
_cell_volume                     1051.36
_exptl_crystal_colour            colorless
_exptl_crystal_description       block
_cell_formula_units_Z            2
loop_
_atom_site_label
_atom_site_type_symbol
_atom_site_fract_x
_atom_site_fract_y
_atom_site_fract_z
C1 C 0.7582(4) 0.5039(4) -0.0073(4)
C2 C 0.8753(4) 0.4338(4) 0.0798(4)
C3 C 0.8199(5) 0.5520(4) 0.2739(4)
H1 H 0.8875 0.6188 0.2847
H2 H 0.8010 0.5278 0.3659
C4 C 0.6786(4) 0.5924(4) 0.1975(4)
C5 C 0.5029(4) 0.5451(4) -0.0025(4)
C6 C 0.3791(4) 0.5993(4) 0.0322(5)
H3 H 0.3849 0.6548 0.1034
C7 C 0.2453(5) 0.5700(5) -0.0406(5)
H4 H 0.1589 0.6058 -0.0180
C8 C 0.2367(4) 0.4905(4) -0.1442(5)
H5 H 0.1442 0.4710 -0.1907
C9 C 0.3604(4) 0.4380(4) -0.1822(4)
H6 H 0.3541 0.3845 -0.2555
C10 C 0.4944(4) 0.4659(4) -0.1099(4)
C11 C 0.8367(4) 0.6010(4) -0.0801(4)
H7 H 0.9135 0.5642 -0.1287
C12 C 0.7409(4) 0.6726(4) -0.1798(4)
C13 C 0.6625(4) 0.7663(4) -0.1384(4)
H8 H 0.6654 0.7827 -0.0442
C14 C 0.5803(4) 0.8359(4) -0.2315(4)
H9 H 0.5261 0.8991 -0.2020
C15 C 0.5782(4) 0.8122(4) -0.3681(4)
C16 C 0.6528(4) 0.7195(4) -0.4133(4)
H10 H 0.6487 0.7033 -0.5075
C17 C 0.7337(4) 0.6505(4) -0.3186(4)
H11 H 0.7858 0.5864 -0.3488
C18 C 1.0054(4) 0.3954(4) 0.3043(4)
H12 H 1.0747 0.4527 0.3493
H13 H 1.0603 0.3427 0.2502
C19 C 0.9405(4) 0.3266(4) 0.4102(4)
C20 C 0.9760(5) 0.3518(5) 0.5476(5)
H14 H 1.0430 0.4124 0.5741
C21 C 0.9150(6) 0.2899(5) 0.6454(5)
H15 H 0.9395 0.3076 0.7389
C22 C 0.8185(6) 0.2024(5) 0.6063(6)
H16 H 0.7752 0.1603 0.6734
C23 C 0.7833(6) 0.1746(5) 0.4706(6)
H17 H 0.7177 0.1130 0.4448
C24 C 0.8447(5) 0.2377(4) 0.3724(5)
H18 H 0.8206 0.2195 0.2790
Br1 Br 0.47363(4) 0.91388(4) -0.49582(4)
N1 N 0.8931(3) 0.4567(3) 0.2126(3)
N2 N 0.6463(3) 0.5513(3) 0.0687(3)
O1 O 0.9465(3) 0.3639(3) 0.0220(3)
O2 O 0.5977(3) 0.6534(3) 0.2539(3)
O3 O 0.9065(3) 0.6665(3) 0.0306(3)
H19 H 0.934(6) 0.719(5) 0.000(5)
S1 S 0.66309(9) 0.40376(10) -0.13201(9)
loop_
_geom_bond_atom_site_label_1
_geom_bond_atom_site_label_2
_geom_bond_site_symmetry_1
_geom_bond_site_symmetry_2
C1 C2 1_555 1_555
C2 N1 1_555 1_555
C3 H1 1_555 1_555
H2 C3 1_555 1_555
C4 C3 1_555 1_555
C5 C6 1_555 1_555
C6 H3 1_555 1_555
C7 C6 1_555 1_555
H4 C7 1_555 1_555
C8 C7 1_555 1_555
H5 C8 1_555 1_555
C9 C8 1_555 1_555
H6 C9 1_555 1_555
C10 C5 1_555 1_555
C11 C1 1_555 1_555
H7 C11 1_555 1_555
C12 C11 1_555 1_555
C13 C12 1_555 1_555
H8 C13 1_555 1_555
C14 C13 1_555 1_555
H9 C14 1_555 1_555
C15 C14 1_555 1_555
C16 C15 1_555 1_555
H10 C16 1_555 1_555
C17 C12 1_555 1_555
H11 C17 1_555 1_555
C18 H12 1_555 1_555
H13 C18 1_555 1_555
C19 C18 1_555 1_555
C20 C19 1_555 1_555
H14 C20 1_555 1_555
C21 C20 1_555 1_555
H15 C21 1_555 1_555
C22 C21 1_555 1_555
H16 C22 1_555 1_555
C23 C22 1_555 1_555
H17 C23 1_555 1_555
C24 C19 1_555 1_555
H18 C24 1_555 1_555
Br1 C15 1_555 1_555
N1 C3 1_555 1_555
N2 C1 1_555 1_555
O1 C2 1_555 1_555
O2 C4 1_555 1_555
O3 C11 1_555 1_555
H19 O3 1_555 1_555
S1 C1 1_555 1_555
C4 N2 1_555 1_555
C5 N2 1_555 1_555
C9 C10 1_555 1_555
C10 S1 1_555 1_555
C16 C17 1_555 1_555
C18 N1 1_555 1_555
C23 C24 1_555 1_555

#END
