
#######################################################################
#
#                 Cambridge Crystallographic Data Centre
#                                CCDC 
#
#######################################################################
#
# If this CIF has been generated from an entry in the Cambridge 
# Structural Database, then it will include bibliographic, chemical, 
# crystal, experimental, refinement or atomic coordinate data resulting 
# from the CCDC's data processing and validation procedures.
#
#######################################################################

data_ODAMUE
_chemical_compound_source        'fresh stems of Euphorbia tirucalli'
_chemical_name_common            euphorbiane
_chemical_formula_moiety         'C30 H48 O1'
_chemical_name_systematic        
4a-isopropyl-6b,8a,11,11,12b,14a-hexamethyl-4a,5,6,6a,6b,7,8,8a,9,10,11,12,12a,12b,13,14,14a,14b-octadecahydro-1H-phenanthro[2,1-f]chromene
_symmetry_cell_setting           orthorhombic
_symmetry_space_group_name_H-M   'P 21 21 21'
_symmetry_Int_Tables_number      19
_space_group_name_Hall           'P 2ac 2ab'
loop_
_symmetry_equiv_pos_site_id
_symmetry_equiv_pos_as_xyz
1 x,y,z
2 1/2-x,-y,1/2+z
3 -x,1/2+y,1/2-z
4 1/2+x,1/2-y,-z
_cell_length_a                   7.3631(6)
_cell_length_b                   16.6916(12)
_cell_length_c                   20.6261(15)
_cell_angle_alpha                90
_cell_angle_beta                 90
_cell_angle_gamma                90
_cell_volume                     2534.99
_exptl_crystal_colour            colorless
_exptl_crystal_description       parallelepiped
_cell_formula_units_Z            4
loop_
_atom_site_label
_atom_site_type_symbol
_atom_site_fract_x
_atom_site_fract_y
_atom_site_fract_z
O1 O 0.4149(3) 0.81068(11) 0.37141(8)
C1 C 0.3312(3) 0.75607(13) 0.32582(11)
C2 C 0.1548(4) 0.79650(16) 0.30520(11)
H1 H 0.0780 0.7572 0.2841
H2 H 0.0916 0.8151 0.3436
C3 C 0.1822(4) 0.86692(15) 0.25950(11)
H3 H 0.2463 0.9095 0.2819
H4 H 0.0651 0.8875 0.2459
C4 C 0.2912(3) 0.84074(12) 0.20004(10)
H5 H 0.2330 0.7909 0.1859
C5 C 0.2728(3) 0.89817(12) 0.14082(10)
C6 C 0.0713(3) 0.90597(17) 0.12175(12)
H6 H -0.0213 0.9022 0.1523
C7 C 0.0315(3) 0.92038(17) 0.04936(13)
H7 H -0.0739 0.9551 0.0465
H8 H -0.0023 0.8694 0.0303
C8 C 0.1825(3) 0.95720(13) 0.00684(11)
C9 C 0.1396(4) 0.93469(17) -0.06343(12)
H9 H 0.1388 0.8768 -0.0673
H10 H 0.0190 0.9539 -0.0742
C10 C 0.2753(4) 0.96914(19) -0.11203(12)
H11 H 0.2614 1.0269 -0.1133
H12 H 0.2468 0.9486 -0.1548
C11 C 0.4751(4) 0.94901(16) -0.09609(12)
C12 C 0.4827(4) 0.89530(14) -0.03486(11)
H13 H 0.6091 0.8883 -0.0228
H14 H 0.4352 0.8429 -0.0462
C13 C 0.3786(3) 0.92595(12) 0.02492(10)
H15 H 0.4461 0.9726 0.0409
C14 C 0.3799(3) 0.86305(11) 0.08126(10)
C15 C 0.5763(3) 0.84480(14) 0.10277(10)
H16 H 0.6424 0.8223 0.0664
H17 H 0.6353 0.8946 0.1148
C16 C 0.5865(3) 0.78643(15) 0.16009(11)
H18 H 0.7131 0.7778 0.1711
H19 H 0.5361 0.7353 0.1467
C17 C 0.4854(3) 0.81513(12) 0.22101(10)
C18 C 0.4616(3) 0.74130(12) 0.26802(11)
H20 H 0.4057 0.6988 0.2420
C19 C 0.6395(4) 0.70625(16) 0.29430(12)
H21 H 0.6269 0.6486 0.2982
H22 H 0.7362 0.7169 0.2636
C20 C 0.6907(4) 0.7401(2) 0.35861(14)
H23 H 0.8021 0.7261 0.3765
C21 C 0.5845(5) 0.7889(2) 0.39078(14)
H24 H 0.6280 0.8101 0.4295
C22 C 0.2814(4) 0.67906(16) 0.36211(12)
C23 C 0.2583(7) 0.6826(3) 0.43098(16)
C24 C 0.2419(5) 0.60954(18) 0.32925(17)
C25 C 0.3404(4) 0.98209(13) 0.15972(12)
H25 H 0.2726 1.0012 0.1964
H26 H 0.3240 1.0180 0.1239
H27 H 0.4670 0.9795 0.1707
C26 C 0.1707(5) 1.04996(15) 0.01240(14)
H28 H 0.0504 1.0673 0.0012
H29 H 0.2569 1.0740 -0.0166
H30 H 0.1975 1.0659 0.0561
C27 C 0.5612(6) 0.9034(2) -0.15166(13)
H31 H 0.6852 0.8913 -0.1412
H32 H 0.5572 0.9355 -0.1902
H33 H 0.4957 0.8545 -0.1588
C28 C 0.5868(4) 1.02501(18) -0.08553(16)
H34 H 0.7098 1.0107 -0.0753
H35 H 0.5358 1.0552 -0.0503
H36 H 0.5850 1.0568 -0.1243
C29 C 0.2961(4) 0.78287(13) 0.05782(11)
H37 H 0.3637 0.7632 0.0213
H38 H 0.1720 0.7915 0.0453
H39 H 0.3006 0.7443 0.0923
C30 C 0.5995(4) 0.88128(16) 0.25356(13)
H40 H 0.7165 0.8602 0.2649
H41 H 0.5387 0.8996 0.2920
H42 H 0.6143 0.9253 0.2240
H43? H 0.2276 0.6303 0.4471
H44? H 0.1625 0.7195 0.4413
H45? H 0.3693 0.7003 0.4508
H46? H 0.2139 0.5679 0.3598
H47? H 0.3449 0.5939 0.3036
H48? H 0.1394 0.6183 0.3014
loop_
_geom_bond_atom_site_label_1
_geom_bond_atom_site_label_2
_geom_bond_site_symmetry_1
_geom_bond_site_symmetry_2
O1 C1 1_555 1_555
C1 C2 1_555 1_555
C2 H1 1_555 1_555
H2 C2 1_555 1_555
C3 C2 1_555 1_555
H3 C3 1_555 1_555
H4 C3 1_555 1_555
C4 C3 1_555 1_555
H5 C4 1_555 1_555
C5 C4 1_555 1_555
C6 C5 1_555 1_555
H6 C6 1_555 1_555
C7 C6 1_555 1_555
H7 C7 1_555 1_555
H8 C7 1_555 1_555
C8 C7 1_555 1_555
C9 C8 1_555 1_555
H9 C9 1_555 1_555
H10 C9 1_555 1_555
C10 C9 1_555 1_555
H11 C10 1_555 1_555
H12 C10 1_555 1_555
C11 C10 1_555 1_555
C12 C11 1_555 1_555
H13 C12 1_555 1_555
H14 C12 1_555 1_555
C13 C8 1_555 1_555
H15 C13 1_555 1_555
C14 C5 1_555 1_555
C15 C14 1_555 1_555
H16 C15 1_555 1_555
H17 C15 1_555 1_555
C16 C15 1_555 1_555
H18 C16 1_555 1_555
H19 C16 1_555 1_555
C17 C4 1_555 1_555
C18 C1 1_555 1_555
H20 C18 1_555 1_555
C19 C18 1_555 1_555
H21 C19 1_555 1_555
H22 C19 1_555 1_555
C20 C19 1_555 1_555
H23 C20 1_555 1_555
C21 O1 1_555 1_555
H24 C21 1_555 1_555
C22 C1 1_555 1_555
C23 C22 1_555 1_555
C24 C22 1_555 1_555
C25 C5 1_555 1_555
H25 C25 1_555 1_555
H26 C25 1_555 1_555
H27 C25 1_555 1_555
C26 C8 1_555 1_555
H28 C26 1_555 1_555
H29 C26 1_555 1_555
H30 C26 1_555 1_555
C27 C11 1_555 1_555
H31 C27 1_555 1_555
H32 C27 1_555 1_555
H33 C27 1_555 1_555
C28 C11 1_555 1_555
H34 C28 1_555 1_555
H35 C28 1_555 1_555
H36 C28 1_555 1_555
C29 C14 1_555 1_555
H37 C29 1_555 1_555
H38 C29 1_555 1_555
H39 C29 1_555 1_555
C30 C17 1_555 1_555
H40 C30 1_555 1_555
H41 C30 1_555 1_555
H42 C30 1_555 1_555
C12 C13 1_555 1_555
C13 C14 1_555 1_555
C16 C17 1_555 1_555
C17 C18 1_555 1_555
C20 C21 1_555 1_555

#END
