
#######################################################################
#
#                 Cambridge Crystallographic Data Centre
#                                CCDC 
#
#######################################################################
#
# If this CIF has been generated from an entry in the Cambridge 
# Structural Database, then it will include bibliographic, chemical, 
# crystal, experimental, refinement or atomic coordinate data resulting 
# from the CCDC's data processing and validation procedures.
#
#######################################################################

data_ODAMAI
_chemical_formula_moiety         'C15 H12 N4 O1,H2 O1'
_chemical_name_systematic        
'4-Benzoylhydrazono-1,4-dihydroquinazoline monohydrate'
_symmetry_cell_setting           monoclinic
_symmetry_space_group_name_H-M   'C 2/c'
_symmetry_Int_Tables_number      15
_space_group_name_Hall           '-C 2yn'
loop_
_symmetry_equiv_pos_site_id
_symmetry_equiv_pos_as_xyz
1 x,y,z
2 1/2+x,1/2+y,z
3 -x,y,1/2-z
4 1/2-x,1/2+y,1/2-z
5 -x,-y,-z
6 1/2-x,1/2-y,-z
7 x,-y,1/2+z
8 1/2+x,1/2-y,1/2+z
_cell_length_a                   16.9865(14)
_cell_length_b                   7.2085(6)
_cell_length_c                   22.1444(18)
_cell_angle_alpha                90
_cell_angle_beta                 92.0220(10)
_cell_angle_gamma                90
_cell_volume                     2709.83
_exptl_crystal_colour            yellow
_exptl_crystal_description       block
_chemical_melting_point          '519 K'
_cell_formula_units_Z            8
_exptl_crystal_recrystallization_method dioxane/DMF
loop_
_atom_site_label
_atom_site_type_symbol
_atom_site_fract_x
_atom_site_fract_y
_atom_site_fract_z
C1 C -0.01271(8) 0.76695(16) 0.54526(5)
C2 C 0.04039(9) 0.7314(2) 0.59353(6)
H1 H 0.0902 0.6849 0.5861
C3 C 0.01926(11) 0.7648(2) 0.65209(6)
H2 H 0.0549 0.7412 0.6840
C4 C -0.05509(11) 0.8338(2) 0.66345(6)
H3 H -0.0690 0.8550 0.7031
C5 C -0.10820(9) 0.8710(2) 0.61699(6)
H4 H -0.1578 0.9178 0.6249
C6 C -0.08689(8) 0.83750(17) 0.55756(5)
C7 C -0.11905(8) 0.8363(2) 0.45326(6)
H5 H -0.1563 0.8620 0.4226
C8 C 0.00526(7) 0.73457(16) 0.48192(5)
C9 C 0.15188(7) 0.60618(18) 0.38440(6)
C10 C 0.15355(7) 0.59668(17) 0.31693(5)
C11 C 0.21050(10) 0.4885(2) 0.29155(7)
H6 H 0.2456 0.4218 0.3163
C12 C 0.21590(12) 0.4785(3) 0.22961(7)
H7 H 0.2538 0.4026 0.2131
C13 C 0.16653(10) 0.5782(2) 0.19231(6)
H8 H 0.1706 0.5700 0.1506
C14 C 0.11058(8) 0.6913(3) 0.21669(6)
H9 H 0.0776 0.7624 0.1915
C15 C 0.10353(8) 0.6992(2) 0.27877(6)
H10 H 0.0650 0.7737 0.2951
N1 N -0.13933(7) 0.87264(17) 0.50960(5)
H11 H -0.1835(7) 0.925(2) 0.5166(7)
N2 N -0.05223(7) 0.76851(16) 0.43716(5)
N3 N 0.07481(6) 0.67618(15) 0.46866(4)
N4 N 0.08316(6) 0.65468(16) 0.40703(4)
H12 H 0.0415(7) 0.672(2) 0.3847(6)
O1 O 0.21111(6) 0.57352(18) 0.41654(5)
O2 O 0.27510(6) 0.93264(17) 0.45235(5)
H13 H 0.3074(10) 0.918(3) 0.4807(7)
H14 H 0.2599(13) 0.8263(17) 0.4433(10)
loop_
_geom_bond_atom_site_label_1
_geom_bond_atom_site_label_2
_geom_bond_site_symmetry_1
_geom_bond_site_symmetry_2
C1 C2 1_555 1_555
C2 H1 1_555 1_555
C3 C2 1_555 1_555
H2 C3 1_555 1_555
C4 C3 1_555 1_555
H3 C4 1_555 1_555
C5 C4 1_555 1_555
H4 C5 1_555 1_555
C6 C1 1_555 1_555
C7 H5 1_555 1_555
C8 C1 1_555 1_555
C9 C10 1_555 1_555
C10 C11 1_555 1_555
C11 H6 1_555 1_555
C12 C11 1_555 1_555
H7 C12 1_555 1_555
C13 C12 1_555 1_555
H8 C13 1_555 1_555
C14 C13 1_555 1_555
H9 C14 1_555 1_555
C15 C10 1_555 1_555
H10 C15 1_555 1_555
N1 C6 1_555 1_555
H11 N1 1_555 1_555
N2 C7 1_555 1_555
N3 C8 1_555 1_555
N4 C9 1_555 1_555
H12 N4 1_555 1_555
O1 C9 1_555 1_555
O2 H13 1_555 1_555
H14 O2 1_555 1_555
C5 C6 1_555 1_555
C7 N1 1_555 1_555
C8 N2 1_555 1_555
C14 C15 1_555 1_555
N3 N4 1_555 1_555

#END
