
#######################################################################
#
#                 Cambridge Crystallographic Data Centre
#                                CCDC 
#
#######################################################################
#
# If this CIF has been generated from an entry in the Cambridge 
# Structural Database, then it will include bibliographic, chemical, 
# crystal, experimental, refinement or atomic coordinate data resulting 
# from the CCDC's data processing and validation procedures.
#
#######################################################################

data_ODANOX01
_chemical_formula_moiety         'C17 H13 N1 O1'
_chemical_name_systematic        2-((1-Naphthylimino)methyl)phenol
_symmetry_cell_setting           orthorhombic
_symmetry_space_group_name_H-M   'P b c a'
_symmetry_Int_Tables_number      61
_space_group_name_Hall           '-P 2ac 2ab'
loop_
_symmetry_equiv_pos_site_id
_symmetry_equiv_pos_as_xyz
1 x,y,z
2 1/2-x,-y,1/2+z
3 1/2+x,1/2-y,-z
4 -x,1/2+y,1/2-z
5 -x,-y,-z
6 1/2+x,y,1/2-z
7 1/2-x,1/2+y,z
8 x,1/2-y,1/2+z
_cell_length_a                   10.4675(7)
_cell_length_b                   12.2615(8)
_cell_length_c                   19.3299(11)
_cell_angle_alpha                90
_cell_angle_beta                 90
_cell_angle_gamma                90
_cell_volume                     2480.94
_exptl_crystal_colour            colorless
_exptl_crystal_description       prism
_cell_formula_units_Z            8
loop_
_atom_site_label
_atom_site_type_symbol
_atom_site_fract_x
_atom_site_fract_y
_atom_site_fract_z
C1 C 0.46890(13) 0.01757(11) 0.25623(7)
C2 C 0.55303(14) 0.06592(12) 0.30088(7)
H1 H 0.6079 0.1222 0.2848
C3 C 0.55875(14) 0.03249(12) 0.37106(8)
H2 H 0.6176 0.0663 0.4017
C4 C 0.48002(14) -0.04812(12) 0.39491(7)
H3 H 0.4847 -0.0702 0.442
C5 C 0.39120(13) -0.09909(11) 0.34960(7)
C6 C 0.30778(14) -0.18224(12) 0.37275(8)
H4 H 0.3112 -0.2051 0.4197
C7 C 0.22256(14) -0.23009(12) 0.32880(8)
H5 H 0.1675 -0.2859 0.3453
C8 C 0.21576(14) -0.19714(12) 0.25916(8)
H6 H 0.1558 -0.2307 0.229
C9 C 0.29461(14) -0.11738(11) 0.23453(7)
H7 H 0.2898 -0.0963 0.1873
C10 C 0.38409(13) -0.06554(11) 0.27926(7)
N1 N 0.45903(12) 0.05309(10) 0.18627(6)
C11 C 0.55666(14) 0.04424(11) 0.14650(7)
H8 H 0.6307 0.0079 0.1632
C12 C 0.55708(13) 0.08811(11) 0.07681(7)
C13 C 0.45531(13) 0.15185(11) 0.05191(7)
C14 C 0.46501(14) 0.20211(11) -0.01238(7)
H9 H 0.3975 0.247 -0.0288
C15 C 0.57299(14) 0.18676(11) -0.05242(7)
H10 H 0.5787 0.221 -0.0964
C16 C 0.67315(14) 0.12205(11) -0.02930(7)
H11 H 0.7466 0.1113 -0.0574
C17 C 0.66469(14) 0.07362(11) 0.03494(7)
H12 H 0.7332 0.0296 0.051
O1 O 0.34807(10) 0.16770(9) 0.08976(5)
H13 H 0.360(2) 0.1284(19) 0.1318(12)
loop_
_geom_bond_atom_site_label_1
_geom_bond_atom_site_label_2
_geom_bond_site_symmetry_1
_geom_bond_site_symmetry_2
C1 C2 1_555 1_555
C2 H1 1_555 1_555
C3 C2 1_555 1_555
H2 C3 1_555 1_555
C4 C3 1_555 1_555
H3 C4 1_555 1_555
C5 C4 1_555 1_555
C6 C5 1_555 1_555
H4 C6 1_555 1_555
C7 C6 1_555 1_555
H5 C7 1_555 1_555
C8 C7 1_555 1_555
H6 C8 1_555 1_555
C9 C8 1_555 1_555
H7 C9 1_555 1_555
C10 C1 1_555 1_555
N1 C1 1_555 1_555
C11 N1 1_555 1_555
H8 C11 1_555 1_555
C12 C11 1_555 1_555
C13 C12 1_555 1_555
C14 C13 1_555 1_555
H9 C14 1_555 1_555
C15 C14 1_555 1_555
H10 C15 1_555 1_555
C16 C15 1_555 1_555
H11 C16 1_555 1_555
C17 C12 1_555 1_555
H12 C17 1_555 1_555
O1 C13 1_555 1_555
H13 O1 1_555 1_555
C5 C10 1_555 1_555
C9 C10 1_555 1_555
C16 C17 1_555 1_555

#END
