
#######################################################################
#
#                 Cambridge Crystallographic Data Centre
#                                CCDC 
#
#######################################################################
#
# If this CIF has been generated from an entry in the Cambridge 
# Structural Database, then it will include bibliographic, chemical, 
# crystal, experimental, refinement or atomic coordinate data resulting 
# from the CCDC's data processing and validation procedures.
#
#######################################################################

data_ODAQEQ
_chemical_name_common            'PDB Chemical Component code: 0HN'
_chemical_formula_moiety         'C8 H6 O4'
_chemical_name_systematic        '3,4-Methylenedioxybenzoic acid'
_symmetry_cell_setting           triclinic
_symmetry_space_group_name_H-M   'P -1'
_symmetry_Int_Tables_number      2
_space_group_name_Hall           '-P 1'
loop_
_symmetry_equiv_pos_site_id
_symmetry_equiv_pos_as_xyz
1 x,y,z
2 -x,-y,-z
_cell_length_a                   7.0685(14)
_cell_length_b                   7.1553(14)
_cell_length_c                   8.1436(16)
_cell_angle_alpha                90.39(3)
_cell_angle_beta                 107.51(3)
_cell_angle_gamma                114.06(3)
_cell_volume                     354.683
_exptl_crystal_colour            colorless
_exptl_crystal_description       column
_chemical_melting_point          '502 K'
_cell_formula_units_Z            2
loop_
_atom_site_label
_atom_site_type_symbol
_atom_site_fract_x
_atom_site_fract_y
_atom_site_fract_z
O1 O 0.4020(2) 0.06085(19) 1.28801(14)
O2 O 0.3899(2) 0.3753(2) 1.32834(13)
O3 O 0.0949(2) 0.55282(19) 0.72403(14)
H1 H 0.0540 0.5903 0.6302
O4 O 0.0276(2) 0.27784(19) 0.54766(13)
C1 C 0.4323(3) 0.2173(3) 1.4156(2)
H2 H 0.3325 0.1587 1.4807
H3 H 0.5816 0.2748 1.4966
C2 C 0.3225(2) 0.1155(2) 1.13044(19)
C3 C 0.2581(3) 0.0089(2) 0.96815(19)
H4 H 0.2640 -0.1173 0.9527
C4 C 0.1835(2) 0.0996(2) 0.82812(18)
H5 H 0.1383 0.0323 0.7157
C5 C 0.1745(2) 0.2874(2) 0.85107(17)
C6 C 0.0941(2) 0.3767(2) 0.69805(18)
C7 C 0.2418(2) 0.3946(2) 1.01842(18)
H6 H 0.2367 0.5209 1.0356
C8 C 0.3150(2) 0.3031(2) 1.15476(17)
loop_
_geom_bond_atom_site_label_1
_geom_bond_atom_site_label_2
_geom_bond_site_symmetry_1
_geom_bond_site_symmetry_2
O1 C1 1_555 1_555
O2 C1 1_555 1_555
O3 H1 1_555 1_555
O4 C6 1_555 1_555
C1 H2 1_555 1_555
H3 C1 1_555 1_555
C2 O1 1_555 1_555
C3 C2 1_555 1_555
H4 C3 1_555 1_555
C4 C3 1_555 1_555
H5 C4 1_555 1_555
C5 C4 1_555 1_555
C6 O3 1_555 1_555
C7 C5 1_555 1_555
H6 C7 1_555 1_555
C8 O2 1_555 1_555
C2 C8 1_555 1_555
C5 C6 1_555 1_555
C7 C8 1_555 1_555

#END
