
#######################################################################
#
#                 Cambridge Crystallographic Data Centre
#                                CCDC 
#
#######################################################################
#
# If this CIF has been generated from an entry in the Cambridge 
# Structural Database, then it will include bibliographic, chemical, 
# crystal, experimental, refinement or atomic coordinate data resulting 
# from the CCDC's data processing and validation procedures.
#
#######################################################################

data_ODATAR
_chemical_formula_moiety         'C18 H15 Br1 N2'
_chemical_name_systematic        
3-(4-bromobenzylidene)-2,4-dimethyl-3H-1,5-benzodiazepine
_symmetry_cell_setting           orthorhombic
_symmetry_space_group_name_H-M   'P n a 21'
_symmetry_Int_Tables_number      33
_space_group_name_Hall           'P 2c -2n'
loop_
_symmetry_equiv_pos_site_id
_symmetry_equiv_pos_as_xyz
1 x,y,z
2 -x,-y,1/2+z
3 1/2-x,1/2+y,1/2+z
4 1/2+x,1/2-y,z
_cell_length_a                   19.9803(17)
_cell_length_b                   17.0387(15)
_cell_length_c                   9.3849(8)
_cell_angle_alpha                90
_cell_angle_beta                 90
_cell_angle_gamma                90
_cell_volume                     3194.98
_cell_formula_units_Z            8
loop_
_atom_site_label
_atom_site_type_symbol
_atom_site_fract_x
_atom_site_fract_y
_atom_site_fract_z
Br1 Br 0.4257 0.6242 0.4415(1)
N1 N 0.0844(2) 0.5164(3) 0.7715(5)
N2 N -0.0141(2) 0.6516(3) 0.7395(5)
C1 C 0.0694(2) 0.5722(3) 0.8766(6)
C2 C 0.0257(3) 0.6360(3) 0.8618(6)
C3 C 0.0147(3) 0.6847(3) 0.9794(6)
H1 H -0.0143 0.7271 0.9706
C4 C 0.0457(3) 0.6714(4) 1.1077(7)
H2 H 0.0387 0.7055 1.1837
C5 C 0.0875(3) 0.6075(4) 1.1238(8)
H3 H 0.1083 0.5981 1.2108
C6 C 0.0982(3) 0.5577(3) 1.0108(6)
H4 H 0.1249 0.5136 1.0233
C7 C 0.1036(3) 0.4743(3) 0.5298(6)
H5 H 0.1436 0.4876 0.4786
H6 H 0.0667 0.4716 0.4646
H7 H 0.1093 0.4243 0.5753
C8 C 0.0898(2) 0.5361(3) 0.6409(6)
C9 C 0.0791(3) 0.6173(3) 0.5879(5)
C10 C 0.0079(3) 0.6429(3) 0.6134(6)
C11 C -0.0366(3) 0.6567(4) 0.4886(6)
H8 H -0.0813 0.6669 0.5212
H9 H -0.0366 0.6110 0.4286
H10 H -0.0206 0.7010 0.4354
C12 C 0.1225(2) 0.6641(3) 0.5225(5)
H11 H 0.1049 0.7102 0.4850
C13 C 0.1946(2) 0.6522(3) 0.5018(5)
C14 C 0.2287(2) 0.6952(3) 0.3990(6)
H12 H 0.2049 0.7299 0.3418
C15 C 0.2966(3) 0.6879(3) 0.3794(6)
H13 H 0.3184 0.7168 0.3094
C16 C 0.3319(2) 0.6366(3) 0.4660(7)
C17 C 0.3002(3) 0.5939(3) 0.5702(6)
H14 H 0.3244 0.5596 0.6276
C18 C 0.2322(3) 0.6024(3) 0.5888(6)
H15 H 0.2109 0.5744 0.6608
Br2 Br 0.3972 0.6226 0.9943(1)
N3 N 0.2343(2) 0.9515(2) 0.5163(5)
N4 N 0.0846(2) 0.9218(3) 0.4859(5)
C19 C 0.2025(3) 0.9190(3) 0.3949(5)
C20 C 0.1337(3) 0.9055(3) 0.3829(6)
C21 C 0.1090(3) 0.8815(3) 0.2491(7)
H16 H 0.0631 0.8776 0.2349
C22 C 0.1522(4) 0.8639(4) 0.1390(6)
H17 H 0.1353 0.8432 0.0546
C23 C 0.2195(4) 0.8763(3) 0.1527(6)
H18 H 0.2482 0.8654 0.0773
C24 C 0.2442(3) 0.9051(3) 0.2786(6)
H19 H 0.2898 0.9156 0.2865
C25 C 0.2472(3) 0.9759(4) 0.7655(6)
H20 H 0.2796 1.0129 0.7310
H21 H 0.2689 0.9384 0.8262
H22 H 0.2133 1.0031 0.8184
C26 C 0.2159(2) 0.9345(3) 0.6429(6)
C27 C 0.1593(3) 0.8787(3) 0.6737(5)
C28 C 0.0961(3) 0.9098(3) 0.6181(7)
C29 C 0.0424(3) 0.9297(4) 0.7273(7)
H23 H 0.0056 0.9552 0.6807
H24 H 0.0608 0.9640 0.7983
H25 H 0.0270 0.8823 0.7719
C30 C 0.1634(3) 0.8112(3) 0.7457(5)
H26 H 0.1225 0.7868 0.7621
C31 C 0.2210(3) 0.7691(3) 0.8030(5)
C32 C 0.2878(3) 0.7827(3) 0.7603(5)
H27 H 0.2966 0.8206 0.6914
C33 C 0.3401(3) 0.7413(3) 0.8183(6)
H28 H 0.3838 0.7519 0.7906
C34 C 0.3269(3) 0.6833(3) 0.9189(6)
C35 C 0.2624(3) 0.6678(3) 0.9596(6)
H29 H 0.2536 0.6284 1.0256
C36 C 0.2107(3) 0.7106(3) 0.9022(5)
H30 H 0.1672 0.6997 0.9315
loop_
_geom_bond_atom_site_label_1
_geom_bond_atom_site_label_2
_geom_bond_site_symmetry_1
_geom_bond_site_symmetry_2
Br1 C16 1_555 1_555
N1 C1 1_555 1_555
N2 C2 1_555 1_555
C1 C2 1_555 1_555
C2 C3 1_555 1_555
C3 H1 1_555 1_555
C4 C3 1_555 1_555
H2 C4 1_555 1_555
C5 C4 1_555 1_555
H3 C5 1_555 1_555
C6 C1 1_555 1_555
H4 C6 1_555 1_555
C7 H5 1_555 1_555
H6 C7 1_555 1_555
H7 C7 1_555 1_555
C8 N1 1_555 1_555
C9 C8 1_555 1_555
C10 N2 1_555 1_555
C11 C10 1_555 1_555
H8 C11 1_555 1_555
H9 C11 1_555 1_555
H10 C11 1_555 1_555
C12 C9 1_555 1_555
H11 C12 1_555 1_555
C13 C12 1_555 1_555
C14 C13 1_555 1_555
H12 C14 1_555 1_555
C15 C14 1_555 1_555
H13 C15 1_555 1_555
C16 C15 1_555 1_555
C17 C16 1_555 1_555
H14 C17 1_555 1_555
C18 C13 1_555 1_555
H15 C18 1_555 1_555
Br2 C34 1_555 1_555
N3 C19 1_555 1_555
N4 C20 1_555 1_555
C19 C20 1_555 1_555
C20 C21 1_555 1_555
C21 H16 1_555 1_555
C22 C21 1_555 1_555
H17 C22 1_555 1_555
C23 C22 1_555 1_555
H18 C23 1_555 1_555
C24 C19 1_555 1_555
H19 C24 1_555 1_555
C25 H20 1_555 1_555
H21 C25 1_555 1_555
H22 C25 1_555 1_555
C26 N3 1_555 1_555
C27 C26 1_555 1_555
C28 N4 1_555 1_555
C29 C28 1_555 1_555
H23 C29 1_555 1_555
H24 C29 1_555 1_555
H25 C29 1_555 1_555
C30 C27 1_555 1_555
H26 C30 1_555 1_555
C31 C30 1_555 1_555
C32 C31 1_555 1_555
H27 C32 1_555 1_555
C33 C32 1_555 1_555
H28 C33 1_555 1_555
C34 C33 1_555 1_555
C35 C34 1_555 1_555
H29 C35 1_555 1_555
C36 C31 1_555 1_555
H30 C36 1_555 1_555
C5 C6 1_555 1_555
C7 C8 1_555 1_555
C9 C10 1_555 1_555
C17 C18 1_555 1_555
C23 C24 1_555 1_555
C25 C26 1_555 1_555
C27 C28 1_555 1_555
C35 C36 1_555 1_555

#END
