
#######################################################################
#
#                 Cambridge Crystallographic Data Centre
#                                CCDC 
#
#######################################################################
#
# If this CIF has been generated from an entry in the Cambridge 
# Structural Database, then it will include bibliographic, chemical, 
# crystal, experimental, refinement or atomic coordinate data resulting 
# from the CCDC's data processing and validation procedures.
#
#######################################################################

data_ODATUJ
_chemical_formula_moiety         'C10 H11 N1 O2'
_chemical_name_systematic        N-(2-Acetylphenyl)acetamide
_symmetry_cell_setting           monoclinic
_symmetry_space_group_name_H-M   'P 21/c'
_symmetry_Int_Tables_number      14
_space_group_name_Hall           '-P 2ybc'
loop_
_symmetry_equiv_pos_site_id
_symmetry_equiv_pos_as_xyz
1 x,y,z
2 -x,1/2+y,1/2-z
3 -x,-y,-z
4 x,1/2-y,1/2+z
_cell_length_a                   7.765(7)
_cell_length_b                   8.699(7)
_cell_length_c                   15.805(13)
_cell_angle_alpha                90
_cell_angle_beta                 119.35(7)
_cell_angle_gamma                90
_cell_volume                     930.558
_exptl_crystal_colour            orange
_exptl_crystal_description       needle
_chemical_melting_point          '349 K'
_cell_formula_units_Z            4
_exptl_crystal_recrystallization_method ethanol
loop_
_atom_site_label
_atom_site_type_symbol
_atom_site_fract_x
_atom_site_fract_y
_atom_site_fract_z
O1 O 0.44758(18) 0.62062(15) 1.16119(8)
C1 C 0.3075(2) 0.69817(19) 1.10181(12)
C2 C 0.2635(3) 0.8482(2) 1.13399(15)
H1 H 0.3648 0.8701 1.1992
H2 H 0.1380 0.8418 1.1318
H3 H 0.2596 0.9288 1.0916
C3 C 0.1809(2) 0.64701(18) 0.99938(10)
C4 C 0.0316(2) 0.7457(2) 0.93336(11)
H4 H 0.0113 0.8391 0.9557
C5 C -0.0850(2) 0.7088(2) 0.83715(13)
H5 H -0.1831 0.7759 0.7953
C6 C -0.0546(3) 0.5712(3) 0.80362(12)
H6 H -0.1309 0.5468 0.7382
C7 C 0.0878(2) 0.4684(2) 0.86553(11)
H7 H 0.1050 0.3755 0.8415
C8 C 0.2056(2) 0.50359(18) 0.96393(10)
N1 N 0.35145(18) 0.40136(16) 1.02846(10)
C9 C 0.3767(2) 0.2500(2) 1.01831(12)
O2 O 0.2685(2) 0.17495(16) 0.94641(10)
C10 C 0.5472(3) 0.1773(2) 1.10576(12)
H8 H 0.5074 0.1528 1.1529
H9 H 0.6562 0.2478 1.1336
H10 H 0.5866 0.0850 1.0865
H11 H 0.423(2) 0.443(2) 1.0867(12)
loop_
_geom_bond_atom_site_label_1
_geom_bond_atom_site_label_2
_geom_bond_site_symmetry_1
_geom_bond_site_symmetry_2
O1 C1 1_555 1_555
C1 C2 1_555 1_555
C2 H1 1_555 1_555
H2 C2 1_555 1_555
H3 C2 1_555 1_555
C3 C1 1_555 1_555
C4 C3 1_555 1_555
H4 C4 1_555 1_555
C5 C4 1_555 1_555
H5 C5 1_555 1_555
C6 C5 1_555 1_555
H6 C6 1_555 1_555
C7 C6 1_555 1_555
H7 C7 1_555 1_555
C8 C3 1_555 1_555
N1 C8 1_555 1_555
C9 N1 1_555 1_555
O2 C9 1_555 1_555
C10 C9 1_555 1_555
H8 C10 1_555 1_555
H9 C10 1_555 1_555
H10 C10 1_555 1_555
H11 N1 1_555 1_555
C7 C8 1_555 1_555

#END
