
#######################################################################
#
#                 Cambridge Crystallographic Data Centre
#                                CCDC 
#
#######################################################################
#
# If this CIF has been generated from an entry in the Cambridge 
# Structural Database, then it will include bibliographic, chemical, 
# crystal, experimental, refinement or atomic coordinate data resulting 
# from the CCDC's data processing and validation procedures.
#
#######################################################################

data_ODAWIA01
_chemical_formula_moiety         'C8 H7 N1 O4'
_chemical_name_systematic        '(2-nitrophenyl)acetic acid'
_symmetry_cell_setting           monoclinic
_symmetry_space_group_name_H-M   'P 21/n'
_symmetry_Int_Tables_number      14
_space_group_name_Hall           '-P 2yn'
loop_
_symmetry_equiv_pos_site_id
_symmetry_equiv_pos_as_xyz
1 x,y,z
2 1/2-x,1/2+y,1/2-z
3 -x,-y,-z
4 1/2+x,1/2-y,1/2+z
_cell_length_a                   9.8022(6)
_cell_length_b                   7.2437(5)
_cell_length_c                   11.8817(6)
_cell_angle_alpha                90
_cell_angle_beta                 96.671(3)
_cell_angle_gamma                90
_cell_volume                     837.939
_cell_formula_units_Z            4
loop_
_atom_site_label
_atom_site_type_symbol
_atom_site_fract_x
_atom_site_fract_y
_atom_site_fract_z
O1 O 0.64581(14) 0.0484(2) 0.44979(15)
O2 O 0.49490(15) 0.2471(2) 0.50637(16)
H1 H 0.4567 0.1522 0.5235
C1 C 0.84381(19) 0.3212(3) 0.43482(17)
N1 N 0.9151(2) 0.2418(3) 0.63788(16)
C2 C 0.6979(2) 0.3701(3) 0.4509(2)
H2 H 0.6651 0.4906 0.4493
C3 C 0.9445(2) 0.2624(3) 0.52009(17)
O3 O 0.7979(2) 0.2490(4) 0.65925(17)
C4 C 1.0767(2) 0.2188(3) 0.4997(2)
H3 H 1.1409 0.1796 0.5586
C5 C 0.61128(18) 0.2057(3) 0.46971(17)
C6 C 0.8849(2) 0.3356(4) 0.32792(19)
H4 H 0.8218 0.3758 0.2685
C7 C 1.1126(2) 0.2338(4) 0.3916(3)
H5 H 1.2011 0.2046 0.3768
C8 C 1.0170(3) 0.2922(5) 0.3063(2)
H6 H 1.0408 0.3029 0.2330
O4 O 1.0107(2) 0.2186(4) 0.71007(18)
loop_
_geom_bond_atom_site_label_1
_geom_bond_atom_site_label_2
_geom_bond_site_symmetry_1
_geom_bond_site_symmetry_2
O1 C5 1_555 1_555
O2 H1 1_555 1_555
C1 C2 1_555 1_555
N1 C3 1_555 1_555
C2 H2 1_555 1_555
C3 C1 1_555 1_555
O3 N1 1_555 1_555
C4 C3 1_555 1_555
H3 C4 1_555 1_555
C5 O2 1_555 1_555
C6 C1 1_555 1_555
H4 C6 1_555 1_555
C7 C4 1_555 1_555
H5 C7 1_555 1_555
C8 C6 1_555 1_555
H6 C8 1_555 1_555
O4 N1 1_555 1_555
C2 C5 1_555 1_555
C7 C8 1_555 1_555

#END
