
#######################################################################
#
#                 Cambridge Crystallographic Data Centre
#                                CCDC 
#
#######################################################################
#
# If this CIF has been generated from an entry in the Cambridge 
# Structural Database, then it will include bibliographic, chemical, 
# crystal, experimental, refinement or atomic coordinate data resulting 
# from the CCDC's data processing and validation procedures.
#
#######################################################################

data_ODAWIA
_chemical_formula_moiety         'C8 H7 N1 O4'
_chemical_name_systematic        '2-Nitrophenylacetic acid'
_symmetry_cell_setting           monoclinic
_symmetry_space_group_name_H-M   'P 21/c'
_symmetry_Int_Tables_number      14
_space_group_name_Hall           '-P 2ybc'
loop_
_symmetry_equiv_pos_site_id
_symmetry_equiv_pos_as_xyz
1 x,y,z
2 -x,1/2+y,1/2-z
3 -x,-y,-z
4 x,1/2-y,1/2+z
_cell_length_a                   9.3182(3)
_cell_length_b                   9.4466(2)
_cell_length_c                   9.9733(3)
_cell_angle_alpha                90
_cell_angle_beta                 114.7990(17)
_cell_angle_gamma                90
_cell_volume                     796.947
_exptl_crystal_colour            colorless
_exptl_crystal_description       lath
_chemical_melting_point          '412-413 K'
_cell_formula_units_Z            4
_exptl_crystal_recrystallization_method ethanol
loop_
_atom_site_label
_atom_site_type_symbol
_atom_site_fract_x
_atom_site_fract_y
_atom_site_fract_z
C1 C 0.23687(14) 0.30836(13) 0.07521(14)
C2 C 0.40523(15) 0.29551(14) 0.18979(14)
C3 C 0.44276(14) 0.38895(14) 0.32300(14)
O1 O 0.34184(11) 0.43438(11) 0.35993(11)
O2 O 0.59458(11) 0.41254(11) 0.39762(11)
C4 C 0.18252(14) 0.41302(13) -0.03303(14)
N1 N 0.28971(12) 0.52395(11) -0.03878(12)
O3 O 0.39974(11) 0.56059(10) 0.07718(11)
O4 O 0.26447(12) 0.57548(11) -0.15940(11)
C5 C 0.02718(15) 0.42023(14) -0.13979(14)
C6 C -0.07970(15) 0.31978(15) -0.13815(15)
C7 C -0.03015(16) 0.21349(15) -0.03267(16)
C8 C 0.12610(16) 0.20739(14) 0.07154(15)
H1 H 0.4257 0.1958 0.2228
H2 H 0.4775 0.3199 0.1435
H3 H 0.6100 0.4558 0.4761
H4 H -0.0046 0.4929 -0.2123
H5 H -0.1866 0.3235 -0.2090
H6 H -0.1035 0.1442 -0.0315
H7 H 0.1581 0.1327 0.1418
loop_
_geom_bond_atom_site_label_1
_geom_bond_atom_site_label_2
_geom_bond_site_symmetry_1
_geom_bond_site_symmetry_2
C1 C2 1_555 1_555
C2 C3 1_555 1_555
C3 O1 1_555 1_555
O2 C3 1_555 1_555
C4 C1 1_555 1_555
N1 C4 1_555 1_555
O3 N1 1_555 1_555
O4 N1 1_555 1_555
C5 C4 1_555 1_555
C6 C5 1_555 1_555
C7 C6 1_555 1_555
C8 C1 1_555 1_555
H1 C2 1_555 1_555
H2 C2 1_555 1_555
H3 O2 1_555 1_555
H4 C5 1_555 1_555
H5 C6 1_555 1_555
H6 C7 1_555 1_555
H7 C8 1_555 1_555
C7 C8 1_555 1_555

#END
