
#######################################################################
#
#                 Cambridge Crystallographic Data Centre
#                                CCDC 
#
#######################################################################
#
# If this CIF has been generated from an entry in the Cambridge 
# Structural Database, then it will include bibliographic, chemical, 
# crystal, experimental, refinement or atomic coordinate data resulting 
# from the CCDC's data processing and validation procedures.
#
#######################################################################

data_ODAYIC
_chemical_formula_moiety         'C21 H26 O11'
_chemical_name_systematic        
'4-Methoxyphenyl 2,3,4,6-tetra-O-acetyl-\b-D-galactopyranoside'
_symmetry_cell_setting           monoclinic
_symmetry_space_group_name_H-M   'P 21'
_symmetry_Int_Tables_number      4
_space_group_name_Hall           'P 2yb'
loop_
_symmetry_equiv_pos_site_id
_symmetry_equiv_pos_as_xyz
1 x,y,z
2 -x,1/2+y,-z
_cell_length_a                   11.935(3)
_cell_length_b                   5.7061(14)
_cell_length_c                   17.873(4)
_cell_angle_alpha                90
_cell_angle_beta                 108.884(3)
_cell_angle_gamma                90
_cell_volume                     1151.68
_exptl_crystal_colour            colorless
_exptl_crystal_description       block
_cell_formula_units_Z            2
_exptl_crystal_recrystallization_method 'ethyl acetate'
loop_
_atom_site_label
_atom_site_type_symbol
_atom_site_fract_x
_atom_site_fract_y
_atom_site_fract_z
O1 O 0.77686(19) 0.6275(5) 0.28380(13)
O2 O 0.9015(2) 0.2391(6) 0.36858(15)
O3 O 0.9183(2) -0.0210(6) 0.46505(16)
O4 O 0.6447(2) 0.7491(5) 0.38798(13)
O5 O 0.6311(3) 0.5183(7) 0.48502(17)
O6 O 0.4419(2) 0.8018(5) 0.26628(14)
O7 O 0.3482(3) 0.5001(7) 0.29902(17)
O8 O 0.5103(2) 0.8032(5) 0.12844(14)
O9 O 0.5091(3) 1.1942(6) 0.12999(19)
O10 O 0.7623(2) 0.8400(5) 0.17324(14)
O11 O 1.1608(3) 0.6532(7) 0.0905(2)
C1 C 0.7051(3) 0.6755(7) 0.20548(19)
H1 H 0.6886 0.5320 0.1737
C2 C 0.5914(3) 0.7886(7) 0.20757(18)
H2 H 0.6082 0.9463 0.2301
C3 C 0.5301(3) 0.6462(7) 0.2547(2)
H3 H 0.4902 0.5123 0.2227
C4 C 0.6137(3) 0.5564(7) 0.33311(19)
H4 H 0.5740 0.4343 0.3538
C5 C 0.7235(3) 0.4541(7) 0.31925(19)
H5 H 0.6988 0.3222 0.2825
C6 C 0.8152(3) 0.3688(8) 0.3925(2)
H6 H 0.8527 0.5002 0.4256
H7 H 0.7793 0.2687 0.4223
C7 C 0.9459(3) 0.0471(8) 0.4104(2)
C8 C 1.0338(4) -0.0681(10) 0.3790(3)
H8 H 1.0555 -0.2179 0.4040
H9 H 1.1031 0.0287 0.3899
H10 H 0.9995 -0.0894 0.3229
C9 C 0.6453(3) 0.7063(8) 0.4628(2)
C10 C 0.6675(4) 0.9229(9) 0.5115(2)
H11 H 0.6558 0.8910 0.5612
H12 H 0.6137 1.0434 0.4841
H13 H 0.7475 0.9741 0.5208
C11 C 0.3561(4) 0.7084(10) 0.2903(2)
C12 C 0.2760(4) 0.8893(11) 0.3034(3)
H14 H 0.2026 0.8179 0.3022
H15 H 0.2610 1.0056 0.2625
H16 H 0.3122 0.9619 0.3539
C13 C 0.4742(3) 1.0157(8) 0.0973(2)
C14 C 0.3855(4) 0.9915(10) 0.0167(2)
H17 H 0.3612 1.1442 -0.0050
H18 H 0.3178 0.9068 0.0202
H19 H 0.4203 0.9078 -0.0168
C15 C 0.8615(3) 0.7692(8) 0.1543(2)
C16 C 0.9228(3) 0.5660(8) 0.1774(2)
H20 H 0.8977 0.4580 0.2076
C17 C 1.0225(4) 0.5190(9) 0.1561(2)
H21 H 1.0634 0.3792 0.1718
C18 C 1.0610(3) 0.6772(9) 0.1123(2)
C19 C 0.9979(4) 0.8800(9) 0.0884(3)
H22 H 1.0220 0.9872 0.0575
C20 C 0.8994(3) 0.9261(8) 0.1097(2)
H23 H 0.8581 1.0652 0.0937
C21 C 1.2198(4) 0.4370(11) 0.1031(3)
H24 H 1.2867 0.4450 0.0846
H25 H 1.1667 0.3167 0.0748
H26 H 1.2464 0.4013 0.1586
loop_
_geom_bond_atom_site_label_1
_geom_bond_atom_site_label_2
_geom_bond_site_symmetry_1
_geom_bond_site_symmetry_2
O1 C1 1_555 1_555
O2 C6 1_555 1_555
O3 C7 1_555 1_555
O4 C4 1_555 1_555
O5 C9 1_555 1_555
O6 C3 1_555 1_555
O7 C11 1_555 1_555
O8 C2 1_555 1_555
O9 C13 1_555 1_555
O10 C1 1_555 1_555
O11 C18 1_555 1_555
C1 H1 1_555 1_555
C2 C1 1_555 1_555
H2 C2 1_555 1_555
C3 C2 1_555 1_555
H3 C3 1_555 1_555
C4 C3 1_555 1_555
H4 C4 1_555 1_555
C5 O1 1_555 1_555
H5 C5 1_555 1_555
C6 C5 1_555 1_555
H6 C6 1_555 1_555
H7 C6 1_555 1_555
C7 O2 1_555 1_555
C8 C7 1_555 1_555
H8 C8 1_555 1_555
H9 C8 1_555 1_555
H10 C8 1_555 1_555
C9 O4 1_555 1_555
C10 C9 1_555 1_555
H11 C10 1_555 1_555
H12 C10 1_555 1_555
H13 C10 1_555 1_555
C11 O6 1_555 1_555
C12 C11 1_555 1_555
H14 C12 1_555 1_555
H15 C12 1_555 1_555
H16 C12 1_555 1_555
C13 O8 1_555 1_555
C14 C13 1_555 1_555
H17 C14 1_555 1_555
H18 C14 1_555 1_555
H19 C14 1_555 1_555
C15 O10 1_555 1_555
C16 C15 1_555 1_555
H20 C16 1_555 1_555
C17 C16 1_555 1_555
H21 C17 1_555 1_555
C18 C17 1_555 1_555
C19 C18 1_555 1_555
H22 C19 1_555 1_555
C20 C15 1_555 1_555
H23 C20 1_555 1_555
C21 O11 1_555 1_555
H24 C21 1_555 1_555
H25 C21 1_555 1_555
H26 C21 1_555 1_555
C4 C5 1_555 1_555
C19 C20 1_555 1_555

#END
