
#######################################################################
#
#                 Cambridge Crystallographic Data Centre
#                                CCDC 
#
#######################################################################
#
# If this CIF has been generated from an entry in the Cambridge 
# Structural Database, then it will include bibliographic, chemical, 
# crystal, experimental, refinement or atomic coordinate data resulting 
# from the CCDC's data processing and validation procedures.
#
#######################################################################

data_ODAYOI
_chemical_formula_moiety         'C23 H26 Cl1 N1 O2'
_chemical_name_systematic        
9-(2-Chlorophenyl)-1,2,3,4,5,6,7,8,9,10-decahydro-3,3,6,6-tetramethylacridine-1,8-dione
_symmetry_cell_setting           monoclinic
_symmetry_space_group_name_H-M   'C 2/c'
_symmetry_Int_Tables_number      15
_space_group_name_Hall           '-C 2yn'
loop_
_symmetry_equiv_pos_site_id
_symmetry_equiv_pos_as_xyz
1 x,y,z
2 1/2+x,1/2+y,z
3 -x,y,1/2-z
4 1/2-x,1/2+y,1/2-z
5 -x,-y,-z
6 1/2-x,1/2-y,-z
7 x,-y,1/2+z
8 1/2+x,1/2-y,1/2+z
_cell_length_a                   17.004(6)
_cell_length_b                   11.429(4)
_cell_length_c                   21.741(10)
_cell_angle_alpha                90
_cell_angle_beta                 111.858(15)
_cell_angle_gamma                90
_cell_volume                     3921.37
_exptl_crystal_colour            colorless
_exptl_crystal_description       block
_cell_formula_units_Z            8
loop_
_atom_site_label
_atom_site_type_symbol
_atom_site_fract_x
_atom_site_fract_y
_atom_site_fract_z
Cl1 Cl 0.26172(12) 0.4759(2) 1.35968(11)
O1 O 0.4513(3) 0.4715(4) 1.3342(2)
O2 O 0.3175(3) 0.6233(4) 1.5024(2)
N1 N 0.5817(2) 0.7395(4) 1.5044(2)
H1 H 0.6262 0.7810 1.5242
C1 C 0.5773(3) 0.6712(5) 1.4524(3)
C2 C 0.6563(3) 0.6726(6) 1.4396(3)
H2 H 0.6952 0.6157 1.4682
H3 H 0.6823 0.7492 1.4507
C3 C 0.6424(3) 0.6449(5) 1.3678(3)
C4 C 0.5893(4) 0.5335(5) 1.3488(3)
H4 H 0.5731 0.5207 1.3016
H5 H 0.6242 0.4679 1.3715
C5 C 0.5106(4) 0.5344(5) 1.3646(3)
C6 C 0.5080(3) 0.6091(5) 1.4178(3)
C7 C 0.4285(3) 0.6148(5) 1.4327(3)
H6 H 0.4123 0.5349 1.4394
C8 C 0.4446(3) 0.6826(5) 1.4950(3)
C9 C 0.3797(4) 0.6855(5) 1.5241(3)
C10 C 0.3929(4) 0.7632(6) 1.5827(3)
H7 H 0.4147 0.7159 1.6226
H8 H 0.3383 0.7938 1.5796
C11 C 0.4530(4) 0.8656(6) 1.5901(3)
C12 C 0.5332(4) 0.8174(6) 1.5843(3)
H9 H 0.5690 0.8820 1.5821
H10 H 0.5640 0.7722 1.6237
C13 C 0.5155(4) 0.7423(5) 1.5251(3)
C14 C 0.7275(4) 0.6248(7) 1.3623(4)
H11 H 0.7560 0.5611 1.3906
H12 H 0.7613 0.6944 1.3755
H13 H 0.7192 0.6062 1.3173
C15 C 0.5977(4) 0.7448(6) 1.3233(4)
H14 H 0.5435 0.7572 1.3265
H15 H 0.5899 0.7262 1.2783
H16 H 0.6313 0.8144 1.3367
C16 C 0.4121(4) 0.9561(6) 1.5376(4)
H17 H 0.3614 0.9845 1.5422
H18 H 0.3981 0.9217 1.4946
H19 H 0.4506 1.0200 1.5427
C17 C 0.4754(4) 0.9213(7) 1.6582(3)
H20 H 0.5009 0.8636 1.6919
H21 H 0.4249 0.9508 1.6625
H22 H 0.5145 0.9844 1.6631
C18 C 0.3564(3) 0.6693(6) 1.3765(3)
C19 C 0.2804(4) 0.6170(7) 1.3426(3)
C20 C 0.2156(4) 0.6740(10) 1.2927(4)
H23 H 0.1646 0.6363 1.2699
C21 C 0.2284(6) 0.7876(10) 1.2777(4)
H24 H 0.1851 0.8274 1.2450
C22 C 0.3031(5) 0.8424(8) 1.3099(4)
H25 H 0.3109 0.9189 1.2989
C23 C 0.3670(4) 0.7856(6) 1.3585(3)
H26 H 0.4182 0.8238 1.3802
loop_
_geom_bond_atom_site_label_1
_geom_bond_atom_site_label_2
_geom_bond_site_symmetry_1
_geom_bond_site_symmetry_2
Cl1 C19 1_555 1_555
O1 C5 1_555 1_555
O2 C9 1_555 1_555
N1 H1 1_555 1_555
C1 N1 1_555 1_555
C2 C1 1_555 1_555
H2 C2 1_555 1_555
H3 C2 1_555 1_555
C3 C2 1_555 1_555
C4 C3 1_555 1_555
H4 C4 1_555 1_555
H5 C4 1_555 1_555
C5 C4 1_555 1_555
C6 C1 1_555 1_555
C7 C6 1_555 1_555
H6 C7 1_555 1_555
C8 C7 1_555 1_555
C9 C8 1_555 1_555
C10 C9 1_555 1_555
H7 C10 1_555 1_555
H8 C10 1_555 1_555
C11 C10 1_555 1_555
C12 C11 1_555 1_555
H9 C12 1_555 1_555
H10 C12 1_555 1_555
C13 N1 1_555 1_555
C14 C3 1_555 1_555
H11 C14 1_555 1_555
H12 C14 1_555 1_555
H13 C14 1_555 1_555
C15 C3 1_555 1_555
H14 C15 1_555 1_555
H15 C15 1_555 1_555
H16 C15 1_555 1_555
C16 C11 1_555 1_555
H17 C16 1_555 1_555
H18 C16 1_555 1_555
H19 C16 1_555 1_555
C17 C11 1_555 1_555
H20 C17 1_555 1_555
H21 C17 1_555 1_555
H22 C17 1_555 1_555
C18 C7 1_555 1_555
C19 C18 1_555 1_555
C20 C19 1_555 1_555
H23 C20 1_555 1_555
C21 C20 1_555 1_555
H24 C21 1_555 1_555
C22 C21 1_555 1_555
H25 C22 1_555 1_555
C23 C18 1_555 1_555
H26 C23 1_555 1_555
C5 C6 1_555 1_555
C8 C13 1_555 1_555
C12 C13 1_555 1_555
C22 C23 1_555 1_555

#END
