
#######################################################################
#
#                 Cambridge Crystallographic Data Centre
#                                CCDC 
#
#######################################################################
#
# If this CIF has been generated from an entry in the Cambridge 
# Structural Database, then it will include bibliographic, chemical, 
# crystal, experimental, refinement or atomic coordinate data resulting 
# from the CCDC's data processing and validation procedures.
#
#######################################################################

data_ODAZID01
_chemical_formula_moiety         'C5 H7 N2 1+,C7 H4 N1 O4 1-'
_chemical_name_systematic        '2-Aminopyridinium p-nitrobenzoate'
_symmetry_cell_setting           monoclinic
_symmetry_space_group_name_H-M   'P 21'
_symmetry_Int_Tables_number      4
_space_group_name_Hall           'P 2yb'
loop_
_symmetry_equiv_pos_site_id
_symmetry_equiv_pos_as_xyz
1 x,y,z
2 -x,1/2+y,-z
_cell_length_a                   8.175(4)
_cell_length_b                   6.719(3)
_cell_length_c                   11.189(5)
_cell_angle_alpha                90
_cell_angle_beta                 98.991(6)
_cell_angle_gamma                90
_cell_volume                     607.036
_exptl_crystal_colour            colorless
_exptl_crystal_description       block
_chemical_melting_point          198-200deg.C
_cell_formula_units_Z            2
loop_
_atom_site_label
_atom_site_type_symbol
_atom_site_fract_x
_atom_site_fract_y
_atom_site_fract_z
O1 O -0.0591(2) 0.5735(3) 0.36858(15)
O2 O -0.06433(19) 0.5089(3) 0.17950(15)
O3 O 0.34402(19) 1.3905(2) 0.11174(12)
O4 O 0.35074(17) 1.4522(2) 0.30738(11)
N1 N -0.0266(2) 0.6146(3) 0.26794(16)
C1 C 0.3126(2) 1.3481(3) 0.21473(16)
C2 C 0.2218(2) 1.1549(3) 0.22797(15)
C3 C 0.1809(2) 1.0276(3) 0.13038(16)
H1 H 0.2081 1.0627 0.0555
C4 C 0.1010(2) 0.8506(3) 0.14222(17)
H2 H 0.0738 0.7657 0.0765
C5 C 0.0623(2) 0.8021(3) 0.25445(17)
C6 C 0.0988(2) 0.9241(3) 0.35291(17)
H3 H 0.0705 0.8881 0.4273
C7 C 0.1786(2) 1.1021(3) 0.33937(17)
H4 H 0.2038 1.1873 0.4052
N2 N 0.53400(18) 0.7809(2) 0.29548(13)
H5 H 0.4745 0.6753 0.2954
N3 N 0.5361(2) 0.7328(3) 0.09253(13)
H6 H 0.4787 0.6264 0.0962
H7 H 0.5646 0.7687 0.0249
C8 C 0.5806(2) 0.8412(3) 0.19077(16)
C9 C 0.5775(2) 0.8806(3) 0.40031(16)
H8 H 0.5438 0.8328 0.4706
C10 C 0.6690(2) 1.0488(3) 0.40509(18)
H9 H 0.7004 1.1156 0.4779
C11 C 0.7150(2) 1.1192(3) 0.29824(19)
H10 H 0.7749 1.2371 0.2991
C12 C 0.6739(2) 1.0186(3) 0.19295(18)
H11 H 0.7069 1.0660 0.1224
loop_
_geom_bond_atom_site_label_1
_geom_bond_atom_site_label_2
_geom_bond_site_symmetry_1
_geom_bond_site_symmetry_2
O1 N1 1_555 1_555
O2 N1 1_555 1_555
O3 C1 1_555 1_555
O4 C1 1_555 1_555
N1 C5 1_555 1_555
C1 C2 1_555 1_555
C2 C3 1_555 1_555
C3 H1 1_555 1_555
C4 C3 1_555 1_555
H2 C4 1_555 1_555
C5 C4 1_555 1_555
C6 C5 1_555 1_555
H3 C6 1_555 1_555
C7 C2 1_555 1_555
H4 C7 1_555 1_555
N2 H5 1_555 1_555
N3 H6 1_555 1_555
H7 N3 1_555 1_555
C8 N2 1_555 1_555
C9 N2 1_555 1_555
H8 C9 1_555 1_555
C10 C9 1_555 1_555
H9 C10 1_555 1_555
C11 C10 1_555 1_555
H10 C11 1_555 1_555
C12 C8 1_555 1_555
H11 C12 1_555 1_555
C6 C7 1_555 1_555
N3 C8 1_555 1_555
C11 C12 1_555 1_555

#END
