
#######################################################################
#
#                 Cambridge Crystallographic Data Centre
#                                CCDC 
#
#######################################################################
#
# If this CIF has been generated from an entry in the Cambridge 
# Structural Database, then it will include bibliographic, chemical, 
# crystal, experimental, refinement or atomic coordinate data resulting 
# from the CCDC's data processing and validation procedures.
#
#######################################################################

data_ODEBUV
_chemical_formula_moiety         'C12 H8 N2,C4 H6 O6,3(H2 O1)'
_chemical_name_systematic        
'1,10-Phenanthroline (2R,3R)-(+)-tartaric acid trihydrate'
_symmetry_cell_setting           orthorhombic
_symmetry_space_group_name_H-M   'P 21 21 21'
_symmetry_Int_Tables_number      19
_space_group_name_Hall           'P 2ac 2ab'
loop_
_symmetry_equiv_pos_site_id
_symmetry_equiv_pos_as_xyz
1 x,y,z
2 1/2-x,-y,1/2+z
3 -x,1/2+y,1/2-z
4 1/2+x,1/2-y,-z
_cell_length_a                   7.1625(11)
_cell_length_b                   12.680(2)
_cell_length_c                   19.573(5)
_cell_angle_alpha                90
_cell_angle_beta                 90
_cell_angle_gamma                90
_cell_volume                     1777.63
_exptl_crystal_colour            colorless
_exptl_crystal_description       block
_cell_formula_units_Z            4
loop_
_atom_site_label
_atom_site_type_symbol
_atom_site_fract_x
_atom_site_fract_y
_atom_site_fract_z
C1 C 0.9452(8) 0.4536(4) 0.4662(2)
H1 H 0.9479 0.5078 0.4341
C2 C 0.9442(9) 0.4779(5) 0.5354(3)
H2 H 0.9417 0.5478 0.5499
C3 C 0.9468(8) 0.3989(5) 0.5812(2)
H3 H 0.9489 0.4146 0.6276
C4 C 0.9464(7) 0.2919(4) 0.55991(19)
C5 C 0.9474(9) 0.2019(5) 0.6053(2)
H4 H 0.9512 0.2132 0.6523
C6 C 0.9432(9) 0.1049(5) 0.5824(2)
H5 H 0.9440 0.0494 0.6134
C7 C 0.9371(7) 0.0819(4) 0.51048(19)
C8 C 0.9305(7) -0.0203(4) 0.4835(2)
H6 H 0.9293 -0.0783 0.5126
C9 C 0.9260(7) -0.0344(4) 0.4151(2)
H7 H 0.9190 -0.1019 0.3966
C10 C 0.9320(7) 0.0541(3) 0.3726(2)
H8 H 0.9301 0.0434 0.3256
C11 C 0.9403(6) 0.1668(3) 0.46375(17)
C12 C 0.9435(6) 0.2724(3) 0.48962(18)
N1 N 0.9402(6) 0.1519(3) 0.39513(15)
N2 N 0.9423(6) 0.3549(3) 0.44526(16)
C13 C 0.4354(5) 0.7462(3) 0.34306(17)
C14 C 0.2251(5) 0.7480(3) 0.34342(17)
H9 H 0.1835 0.8191 0.3312
C15 C 0.1454(5) 0.6705(3) 0.29162(17)
H10 H 0.1875 0.6911 0.2459
C16 C -0.0690(5) 0.6725(3) 0.29308(15)
O1 O 0.5233(5) 0.7205(5) 0.39333(15)
O2 O 0.5130(3) 0.7725(2) 0.28563(13)
H11 H 0.623(3) 0.758(4) 0.291(2)
O3 O 0.1543(4) 0.7233(3) 0.40861(12)
H12 H 0.221(7) 0.749(4) 0.438(2)
O4 O 0.2043(4) 0.5661(2) 0.30431(15)
H13 H 0.306(4) 0.553(4) 0.285(2)
O5 O -0.1543(4) 0.5913(2) 0.30408(17)
O6 O -0.1415(3) 0.7618(2) 0.28281(14)
H14 H -0.105(6) 0.794(3) 0.2501(16)
O7 O 0.9307(5) 0.3803(2) 0.31070(15)
H15 H 1.046(3) 0.369(4) 0.312(2)
H16 H 0.917(7) 0.4470(18) 0.316(3)
O8 O 0.8169(5) 0.7045(3) 0.47615(13)
H17 H 0.908(5) 0.710(6) 0.450(2)
H18 H 0.722(5) 0.711(5) 0.449(2)
O9 O 0.5312(4) 0.5047(2) 0.24350(16)
H19 H 0.574(7) 0.442(2) 0.240(3)
H20 H 0.612(6) 0.533(3) 0.271(2)
loop_
_geom_bond_atom_site_label_1
_geom_bond_atom_site_label_2
_geom_bond_site_symmetry_1
_geom_bond_site_symmetry_2
C1 H1 1_555 1_555
C2 C1 1_555 1_555
H2 C2 1_555 1_555
C3 C2 1_555 1_555
H3 C3 1_555 1_555
C4 C3 1_555 1_555
C5 C4 1_555 1_555
H4 C5 1_555 1_555
C6 C5 1_555 1_555
H5 C6 1_555 1_555
C7 C6 1_555 1_555
C8 C7 1_555 1_555
H6 C8 1_555 1_555
C9 C8 1_555 1_555
H7 C9 1_555 1_555
C10 C9 1_555 1_555
H8 C10 1_555 1_555
C11 C7 1_555 1_555
C12 C4 1_555 1_555
N1 C10 1_555 1_555
N2 C1 1_555 1_555
C13 C14 1_555 1_555
C14 H9 1_555 1_555
C15 C14 1_555 1_555
H10 C15 1_555 1_555
C16 C15 1_555 1_555
O1 C13 1_555 1_555
O2 C13 1_555 1_555
H11 O2 1_555 1_555
O3 C14 1_555 1_555
H12 O3 1_555 1_555
O4 C15 1_555 1_555
H13 O4 1_555 1_555
O5 C16 1_555 1_555
O6 C16 1_555 1_555
H14 O6 1_555 1_555
O7 H15 1_555 1_555
H16 O7 1_555 1_555
O8 H17 1_555 1_555
H18 O8 1_555 1_555
O9 H19 1_555 1_555
H20 O9 1_555 1_555
C11 C12 1_555 1_555
C11 N1 1_555 1_555
C12 N2 1_555 1_555

#END
