
#######################################################################
#
#                 Cambridge Crystallographic Data Centre
#                                CCDC 
#
#######################################################################
#
# If this CIF has been generated from an entry in the Cambridge 
# Structural Database, then it will include bibliographic, chemical, 
# crystal, experimental, refinement or atomic coordinate data resulting 
# from the CCDC's data processing and validation procedures.
#
#######################################################################

data_ODEBAB
_chemical_formula_moiety         'C6 H8 N1 1+,C7 H4 N1 O3 S1 1-'
_chemical_name_systematic        '2-Methylpyridinium saccharinate'
_symmetry_cell_setting           monoclinic
_symmetry_space_group_name_H-M   'P 21/c'
_symmetry_Int_Tables_number      14
_space_group_name_Hall           '-P 2ybc'
loop_
_symmetry_equiv_pos_site_id
_symmetry_equiv_pos_as_xyz
1 x,y,z
2 -x,1/2+y,1/2-z
3 -x,-y,-z
4 x,1/2-y,1/2+z
_cell_length_a                   15.5187(13)
_cell_length_b                   10.6596(9)
_cell_length_c                   16.2842(13)
_cell_angle_alpha                90
_cell_angle_beta                 107.553(2)
_cell_angle_gamma                90
_cell_volume                     2568.36
_exptl_crystal_colour            colorless
_exptl_crystal_description       block
_cell_formula_units_Z            8
loop_
_atom_site_label
_atom_site_type_symbol
_atom_site_fract_x
_atom_site_fract_y
_atom_site_fract_z
S1 S 1.04577(3) 0.78098(4) 0.10346(3)
O1 O 0.96137(8) 0.46040(11) 0.09318(8)
N1 N 1.05228(9) 0.63390(12) 0.12748(9)
O2 O 1.05249(10) 0.85515(12) 0.17876(9)
C2 C 0.97652(11) 0.57373(15) 0.08477(10)
C3 C 0.93454(11) 0.77890(15) 0.03209(10)
C4 C 0.90682(10) 0.65601(15) 0.02575(10)
O3 O 1.10768(8) 0.81514(13) 0.05692(9)
C5 C 0.88111(13) 0.87453(17) -0.01434(12)
H2 H 0.9009 0.9573 -0.0095
C7 C 0.82293(11) 0.62252(18) -0.02910(11)
H4 H 0.8037 0.5395 -0.0342
C10 C 0.79708(13) 0.8410(2) -0.06810(13)
H7 H 0.7588 0.9027 -0.0996
C12 C 0.76872(13) 0.7168(2) -0.07601(13)
H9 H 0.7122 0.6966 -0.1135
C1 C 0.92237(12) 0.71697(15) 0.27926(11)
N2 N 0.91271(9) 0.84054(13) 0.28659(9)
H1 H 0.9547 0.8807 0.3240
C6 C 0.77757(14) 0.71711(19) 0.17196(14)
H3 H 0.7307 0.6739 0.1330
C8 C 0.84098(12) 0.90561(18) 0.23880(12)
H5 H 0.8382 0.9919 0.2459
C9 C 0.85176(13) 0.65310(18) 0.22136(12)
H6 H 0.8548 0.5665 0.2161
C11 C 0.77228(13) 0.84508(19) 0.17997(13)
H8 H 0.7228 0.8894 0.1459
C26 C 1.00758(13) 0.65870(18) 0.33176(12)
H22 H 1.0537 0.6716 0.3044
H23 H 0.9984 0.5704 0.3370
H24 H 1.0260 0.6963 0.3880
S2 S 0.46575(3) 0.22594(4) 0.07453(3)
O4 O 0.55763(8) 0.54267(11) 0.11659(8)
N3 N 0.46302(9) 0.37281(12) 0.09686(9)
O5 O 0.40000(9) 0.19438(12) -0.00599(8)
O6 O 0.46192(9) 0.15049(12) 0.14646(8)
C13 C 0.54006(11) 0.43009(15) 0.09821(9)
C15 C 0.57569(11) 0.22470(15) 0.06318(10)
C16 C 0.60768(11) 0.34572(15) 0.07778(10)
C17 C 0.62631(13) 0.12843(17) 0.04379(11)
H11 H 0.6041 0.0469 0.0341
C21 C 0.69291(12) 0.37489(18) 0.07313(12)
H15 H 0.7151 0.4563 0.0829
C22 C 0.71161(14) 0.1595(2) 0.03952(13)
H16 H 0.7476 0.0971 0.0269
C23 C 0.74448(14) 0.2801(2) 0.05353(13)
H17 H 0.8018 0.2981 0.0498
N4 N 0.56727(9) 0.17550(13) 0.34204(8)
H10 H 0.5261 0.1333 0.3552
C14 C 0.55105(12) 0.29649(15) 0.32030(10)
C18 C 0.64428(12) 0.11714(18) 0.34425(12)
H12 H 0.6524 0.0330 0.3597
C19 C 0.61841(12) 0.36423(17) 0.30094(11)
H13 H 0.6099 0.4489 0.2870
C20 C 0.69776(13) 0.3064(2) 0.30237(12)
H14 H 0.7429 0.3517 0.2889
C24 C 0.71069(14) 0.1817(2) 0.32365(14)
H18 H 0.7641 0.1418 0.3240
C25 C 0.46184(13) 0.34798(18) 0.31630(12)
H19 H 0.4206 0.3346 0.2598
H20 H 0.4673 0.4363 0.3284
H21 H 0.4395 0.3066 0.3581
loop_
_geom_bond_atom_site_label_1
_geom_bond_atom_site_label_2
_geom_bond_site_symmetry_1
_geom_bond_site_symmetry_2
S1 N1 1_555 1_555
O1 C2 1_555 1_555
C1 N2 1_555 1_555
N1 C2 1_555 1_555
O2 S1 1_555 1_555
C2 C4 1_555 1_555
C3 S1 1_555 1_555
C4 C3 1_555 1_555
N2 H1 1_555 1_555
O3 S1 1_555 1_555
C5 C3 1_555 1_555
H2 C5 1_555 1_555
C6 H3 1_555 1_555
C7 C4 1_555 1_555
H4 C7 1_555 1_555
C8 N2 1_555 1_555
H5 C8 1_555 1_555
C9 C1 1_555 1_555
H6 C9 1_555 1_555
C10 C5 1_555 1_555
H7 C10 1_555 1_555
C11 C6 1_555 1_555
H8 C11 1_555 1_555
C12 C7 1_555 1_555
H9 C12 1_555 1_555
S2 N3 1_555 1_555
O4 C13 1_555 1_555
N3 C13 1_555 1_555
O5 S2 1_555 1_555
O6 S2 1_555 1_555
C13 C16 1_555 1_555
N4 H10 1_555 1_555
C14 N4 1_555 1_555
C15 S2 1_555 1_555
C16 C15 1_555 1_555
C17 C15 1_555 1_555
H11 C17 1_555 1_555
C18 N4 1_555 1_555
H12 C18 1_555 1_555
C19 C14 1_555 1_555
H13 C19 1_555 1_555
C20 C19 1_555 1_555
H14 C20 1_555 1_555
C21 C16 1_555 1_555
H15 C21 1_555 1_555
C22 C17 1_555 1_555
H16 C22 1_555 1_555
C23 C21 1_555 1_555
H17 C23 1_555 1_555
C24 C18 1_555 1_555
H18 C24 1_555 1_555
C25 C14 1_555 1_555
H19 C25 1_555 1_555
H20 C25 1_555 1_555
H21 C25 1_555 1_555
C26 C1 1_555 1_555
H22 C26 1_555 1_555
H23 C26 1_555 1_555
H24 C26 1_555 1_555
C6 C9 1_555 1_555
C8 C11 1_555 1_555
C10 C12 1_555 1_555
C20 C24 1_555 1_555
C22 C23 1_555 1_555

#END
