
#######################################################################
#
#                 Cambridge Crystallographic Data Centre
#                                CCDC 
#
#######################################################################
#
# If this CIF has been generated from an entry in the Cambridge 
# Structural Database, then it will include bibliographic, chemical, 
# crystal, experimental, refinement or atomic coordinate data resulting 
# from the CCDC's data processing and validation procedures.
#
#######################################################################

data_ODEDOR
_chemical_compound_source        'Xylariasp sp.(No. 2508)'
_chemical_formula_moiety         'C11 H18 O4'
_chemical_name_systematic        '2-Hexylidene-3-methylsuccinic acid'
_symmetry_cell_setting           triclinic
_symmetry_space_group_name_H-M   'P -1'
_symmetry_Int_Tables_number      2
_space_group_name_Hall           '-P 1'
loop_
_symmetry_equiv_pos_site_id
_symmetry_equiv_pos_as_xyz
1 x,y,z
2 -x,-y,-z
_cell_length_a                   6.7208(14)
_cell_length_b                   9.488(2)
_cell_length_c                   10.139(2)
_cell_angle_alpha                85.994(4)
_cell_angle_beta                 89.221(4)
_cell_angle_gamma                84.457(4)
_cell_volume                     641.922
_exptl_crystal_colour            colorless
_exptl_crystal_description       plate
_cell_formula_units_Z            2
_exptl_crystal_recrystallization_method 'petroleum ether/ethyl acetate'
loop_
_atom_site_label
_atom_site_type_symbol
_atom_site_fract_x
_atom_site_fract_y
_atom_site_fract_z
O1 O 1.2879(3) 0.5941(2) 0.03452(19)
O2 O 1.3895(3) 0.3756(2) 0.1144(2)
H1 H 1.4859 0.3881 0.0661
O3 O 1.3725(4) 0.5459(3) 0.3607(2)
O4 O 1.3343(4) 0.3667(3) 0.5093(2)
H2 H 1.4393 0.3901 0.5373
C1 C 1.2646(4) 0.4893(3) 0.1072(2)
C2 C 1.0787(4) 0.4776(3) 0.1911(3)
H3 H 0.9928 0.4209 0.1434
C3 C 1.1218(4) 0.3968(4) 0.3236(3)
C4 C 1.2864(5) 0.4419(4) 0.4007(3)
C5 C 1.0155(5) 0.2960(4) 0.3743(3)
H4 H 1.0559 0.2540 0.4565
C6 C 0.9598(5) 0.6218(4) 0.2037(4)
H5 H 0.9368 0.6681 0.1173
H6 H 1.0341 0.6793 0.2554
H7 H 0.8340 0.6084 0.2463
C7 C 0.8405(7) 0.2425(5) 0.3160(5)
H8 H 0.7275 0.3131 0.3245
H9 H 0.8667 0.2357 0.2222
C8 C 0.7809(15) 0.1057(9) 0.3700(12)
H10 H 0.7694 0.1077 0.4653
H11 H 0.8860 0.0323 0.3512
C9 C 0.5906(15) 0.0667(13) 0.3183(12)
H12 H 0.5163 0.0217 0.3894
H13 H 0.5106 0.1519 0.2846
C10 C 0.627(2) -0.0305(15) 0.2121(15)
H14 H 0.7309 -0.1041 0.2403
H15 H 0.6768 0.0218 0.1350
C11 C 0.449(2) -0.0995(17) 0.1726(17)
H16 H 0.4890 -0.1682 0.1098
H17 H 0.3518 -0.0288 0.1332
H18 H 0.3921 -0.1458 0.2492
C12? C 0.8405(7) 0.2425(5) 0.3160(5)
H19? H 0.7918 0.3082 0.2433
H20? H 0.7350 0.2391 0.3820
C13? C 0.8854(18) 0.0999(10) 0.2668(14)
H21? H 0.9413 0.0357 0.3384
H22? H 0.9862 0.1048 0.1976
C14? C 0.7057(19) 0.0400(16) 0.2131(14)
H23? H 0.6403 0.1144 0.1538
H24? H 0.7574 -0.0352 0.1582
C15? C 0.544(2) -0.0186(19) 0.2967(16)
H25? H 0.4907 0.0561 0.3517
H26? H 0.6076 -0.0940 0.3556
C16? C 0.368(3) -0.076(2) 0.237(2)
H27? H 0.2791 -0.1055 0.3064
H28? H 0.4141 -0.1563 0.1882
H29? H 0.2994 -0.0040 0.1791
loop_
_geom_bond_atom_site_label_1
_geom_bond_atom_site_label_2
_geom_bond_site_symmetry_1
_geom_bond_site_symmetry_2
O1 C1 1_555 1_555
O2 H1 1_555 1_555
O3 C4 1_555 1_555
O4 H2 1_555 1_555
C1 O2 1_555 1_555
C2 C1 1_555 1_555
H3 C2 1_555 1_555
C3 C2 1_555 1_555
C4 O4 1_555 1_555
C5 C3 1_555 1_555
H4 C5 1_555 1_555
C6 C2 1_555 1_555
H5 C6 1_555 1_555
H6 C6 1_555 1_555
H7 C6 1_555 1_555
C7 C5 1_555 1_555
H8 C7 1_555 1_555
H9 C7 1_555 1_555
C8 C7 1_555 1_555
H10 C8 1_555 1_555
H11 C8 1_555 1_555
C9 C8 1_555 1_555
H12 C9 1_555 1_555
H13 C9 1_555 1_555
C10 C9 1_555 1_555
H14 C10 1_555 1_555
H15 C10 1_555 1_555
C11 C10 1_555 1_555
H16 C11 1_555 1_555
H17 C11 1_555 1_555
H18 C11 1_555 1_555
C3 C4 1_555 1_555

#END
