
#######################################################################
#
#                 Cambridge Crystallographic Data Centre
#                                CCDC 
#
#######################################################################
#
# If this CIF has been generated from an entry in the Cambridge 
# Structural Database, then it will include bibliographic, chemical, 
# crystal, experimental, refinement or atomic coordinate data resulting 
# from the CCDC's data processing and validation procedures.
#
#######################################################################

data_ODEJIQ
_chemical_formula_moiety         'C21 H21 N3 O7'
_chemical_name_systematic        
2-Azido-1-(O-benzoyl)-2-deoxy-4,6-O-(4-methoxybenzylidene)-\b-D-glucopyranose
_symmetry_cell_setting           orthorhombic
_symmetry_space_group_name_H-M   'P 21 21 21'
_symmetry_Int_Tables_number      19
_space_group_name_Hall           'P 2ac 2ab'
loop_
_symmetry_equiv_pos_site_id
_symmetry_equiv_pos_as_xyz
1 x,y,z
2 1/2+x,1/2-y,-z
3 -x,1/2+y,1/2-z
4 1/2-x,-y,1/2+z
_cell_length_a                   8.2825(21)
_cell_length_b                   13.3590(13)
_cell_length_c                   38.155(7)
_cell_angle_alpha                90
_cell_angle_beta                 90
_cell_angle_gamma                90
_cell_volume                     4221.69
_chemical_melting_point          194-195deg.C
_cell_formula_units_Z            8
loop_
_atom_site_label
_atom_site_type_symbol
_atom_site_fract_x
_atom_site_fract_y
_atom_site_fract_z
O1 O 0.3935(8) 0.0658(5) 0.85217(15)
O2 O 0.3204(9) 0.3791(4) 0.90718(14)
O3 O 0.3796(7) 0.2786(4) 0.97334(13)
O4 O 0.3845(8) 0.0705(4) 0.91101(14)
O5 O 0.4054(8) 0.1291(4) 1.00449(14)
O6 O 0.6055(11) -0.0373(6) 0.85797(20)
O7 O 0.4520(9) 0.4231(5) 1.13041(14)
N1 N 0.4680(13) 0.2726(6) 0.84951(22)
N2 N 0.3928(19) 0.3156(11) 0.8291(3)
N3 N 0.3132(24) 0.3645(17) 0.8091(4)
C1 C 0.4462(11) 0.1187(7) 0.88151(25)
C2 C 0.3798(12) 0.2249(6) 0.87782(21)
C3 C 0.4029(11) 0.2871(6) 0.91131(20)
C4 C 0.3449(9) 0.2267(6) 0.94144(21)
C5 C 0.4258(10) 0.1246(6) 0.94232(22)
C6 C 0.3770(12) 0.0682(6) 0.97270(21)
C7 C 0.4976(16) -0.0125(7) 0.8411(3)
C8 C 0.4344(14) -0.0566(7) 0.8090(3)
C9 C 0.5129(17) -0.1444(9) 0.7979(3)
C10 C 0.4513(23) -0.1839(10) 0.7640(4)
C11 C 0.3306(24) -0.1379(16) 0.7464(4)
C12 C 0.2576(19) -0.0567(12) 0.7587(4)
C13 C 0.3049(16) -0.0185(9) 0.7891(3)
C14 C 0.3245(11) 0.2228(6) 1.00288(21)
C15 C 0.3567(10) 0.2791(6) 1.03555(21)
C16 C 0.3533(12) 0.2301(6) 1.06814(23)
C17 C 0.3871(13) 0.2784(7) 1.09764(21)
C18 C 0.4204(12) 0.3834(7) 1.09766(23)
C19 C 0.4164(12) 0.4331(6) 1.06735(23)
C20 C 0.3840(11) 0.3809(6) 1.03515(20)
C21 C 0.4893(14) 0.5262(8) 1.13360(24)
H1 H 0.303 0.388 0.881
H3 H 0.567 0.124 0.882
H4 H 0.262 0.222 0.872
H5 H 0.521 0.300 0.914
H6 H 0.226 0.216 0.939
H7 H 0.545 0.136 0.943
H8 H 0.440 0.005 0.975
H9 H 0.260 0.050 0.971
H10 H 0.607 -0.171 0.811
H11 H 0.503 -0.245 0.754
H12 H 0.292 -0.173 0.725
H13 H 0.176 -0.025 0.743
H14 H 0.239 0.038 0.799
H15 H 0.206 0.211 1.001
H16 H 0.326 0.157 1.070
H17 H 0.395 0.240 1.120
H18 H 0.443 0.506 1.066
H19 H 0.384 0.420 1.013
H20 H 0.508 0.546 1.159
H21 H 0.399 0.569 1.125
H22 H 0.588 0.545 1.120
O8 O 0.0932(8) 0.6396(4) 0.84284(14)
O9 O 0.1263(7) 0.4841(4) 0.95502(12)
O10 O 0.1186(7) 0.6881(4) 0.98417(13)
O11 O 0.1630(7) 0.7309(4) 0.89048(13)
O12 O 0.1832(8) 0.8561(4) 0.97501(14)
O13 O -0.0772(9) 0.7607(6) 0.82464(17)
O14 O 0.0768(14) 0.8500(10) 1.13846(23)
N4 N -0.0468(11) 0.4849(5) 0.88722(21)
N5 N -0.0317(16) 0.4477(6) 0.85917(23)
N6 N -0.0278(22) 0.4034(9) 0.8329(3)
C22 C 0.0544(11) 0.6595(6) 0.87781(22)
C23 C 0.0774(10) 0.5600(6) 0.89819(20)
C24 C 0.0679(10) 0.5718(6) 0.93811(20)
C25 C 0.1582(10) 0.6621(6) 0.94948(19)
C26 C 0.1250(10) 0.7528(6) 0.92609(21)
C27 C 0.2302(13) 0.8378(6) 0.93975(24)
C28 C 0.0140(14) 0.6968(7) 0.81785(22)
C29 C 0.0566(14) 0.6639(8) 0.78192(25)
C30 C -0.0146(15) 0.7100(8) 0.7539(3)
C31 C 0.0312(19) 0.6826(11) 0.7203(3)
C32 C 0.1344(23) 0.6090(13) 0.7142(3)
C33 C 0.2076(19) 0.5608(10) 0.7438(3)
C34 C 0.1684(16) 0.5873(8) 0.77596(22)
C35 C 0.2107(10) 0.7714(6) 0.99686(24)
C36 C 0.1682(10) 0.7946(7) 1.03265(23)
C37 C 0.1241(12) 0.8921(8) 1.0431(3)
C38 C 0.0900(15) 0.9146(9) 1.0781(3)
C39 C 0.0988(16) 0.8426(12) 1.1021(4)
C40 C 0.1406(16) 0.7451(12) 1.09318(24)
C41 C 0.1735(12) 0.7225(8) 1.0588(3)
C42 C 0.0405(22) 0.9291(21) 1.1523(4)
H2 H 0.034 0.443 0.964
H23 H -0.061 0.680 0.880
H24 H 0.187 0.533 0.892
H25 H -0.048 0.586 0.944
H26 H 0.275 0.644 0.948
H27 H 0.009 0.772 0.929
H28 H 0.348 0.821 0.938
H29 H 0.214 0.900 0.925
H30 H -0.095 0.765 0.758
H31 H -0.015 0.715 0.699
H32 H 0.164 0.586 0.690
H33 H 0.292 0.508 0.740
H34 H 0.217 0.552 0.796
H35 H 0.328 0.754 0.996
H36 H 0.123 0.946 1.025
H37 H 0.051 0.983 1.084
H38 H 0.145 0.692 1.112
H39 H 0.203 0.652 1.053
H40 H 0.034 0.937 1.178
H41 H -0.052 0.963 1.140
H42 H 0.127 0.977 1.145
loop_
_geom_bond_atom_site_label_1
_geom_bond_atom_site_label_2
_geom_bond_site_symmetry_1
_geom_bond_site_symmetry_2
O1 C1 1_555 1_555
O2 C3 1_555 1_555
O3 C4 1_555 1_555
O4 C1 1_555 1_555
O5 C6 1_555 1_555
O6 C7 1_555 1_555
O7 C18 1_555 1_555
O8 C22 1_555 1_555
O9 C24 1_555 1_555
O10 C25 1_555 1_555
O11 C22 1_555 1_555
O12 C27 1_555 1_555
O13 C28 1_555 1_555
O14 C39 1_555 1_555
N1 N2 1_555 1_555
N2 N3 1_555 1_555
N4 N5 1_555 1_555
N5 N6 1_555 1_555
C1 C2 1_555 1_555
C2 N1 1_555 1_555
C3 C2 1_555 1_555
C4 C3 1_555 1_555
C5 O4 1_555 1_555
C6 C5 1_555 1_555
C7 O1 1_555 1_555
C8 C7 1_555 1_555
C9 C8 1_555 1_555
C10 C9 1_555 1_555
C11 C10 1_555 1_555
C12 C11 1_555 1_555
C13 C8 1_555 1_555
C14 O3 1_555 1_555
C15 C14 1_555 1_555
C16 C15 1_555 1_555
C17 C16 1_555 1_555
C18 C17 1_555 1_555
C19 C18 1_555 1_555
C20 C15 1_555 1_555
C21 O7 1_555 1_555
C22 C23 1_555 1_555
C23 N4 1_555 1_555
C24 C23 1_555 1_555
C25 C24 1_555 1_555
C26 O11 1_555 1_555
C27 C26 1_555 1_555
C28 O8 1_555 1_555
C29 C28 1_555 1_555
C30 C29 1_555 1_555
C31 C30 1_555 1_555
C32 C31 1_555 1_555
C33 C32 1_555 1_555
C34 C29 1_555 1_555
C35 O10 1_555 1_555
C36 C35 1_555 1_555
C37 C36 1_555 1_555
C38 C37 1_555 1_555
C39 C38 1_555 1_555
C40 C39 1_555 1_555
C41 C36 1_555 1_555
C42 O14 1_555 1_555
H1 O2 1_555 1_555
H2 O9 1_555 1_555
H3 C1 1_555 1_555
H4 C2 1_555 1_555
H5 C3 1_555 1_555
H6 C4 1_555 1_555
H7 C5 1_555 1_555
H8 C6 1_555 1_555
H9 C6 1_555 1_555
H10 C9 1_555 1_555
H11 C10 1_555 1_555
H12 C11 1_555 1_555
H13 C12 1_555 1_555
H14 C13 1_555 1_555
H15 C14 1_555 1_555
H16 C16 1_555 1_555
H17 C17 1_555 1_555
H18 C19 1_555 1_555
H19 C20 1_555 1_555
H20 C21 1_555 1_555
H21 C21 1_555 1_555
H22 C21 1_555 1_555
H23 C22 1_555 1_555
H24 C23 1_555 1_555
H25 C24 1_555 1_555
H26 C25 1_555 1_555
H27 C26 1_555 1_555
H28 C27 1_555 1_555
H29 C27 1_555 1_555
H30 C30 1_555 1_555
H31 C31 1_555 1_555
H32 C32 1_555 1_555
H33 C33 1_555 1_555
H34 C34 1_555 1_555
H35 C35 1_555 1_555
H36 C37 1_555 1_555
H37 C38 1_555 1_555
H38 C40 1_555 1_555
H39 C41 1_555 1_555
H40 C42 1_555 1_555
H41 C42 1_555 1_555
H42 C42 1_555 1_555
O5 C14 1_555 1_555
O12 C35 1_555 1_555
C4 C5 1_555 1_555
C12 C13 1_555 1_555
C19 C20 1_555 1_555
C25 C26 1_555 1_555
C33 C34 1_555 1_555
C40 C41 1_555 1_555

#END
