
#######################################################################
#
#                 Cambridge Crystallographic Data Centre
#                                CCDC 
#
#######################################################################
#
# If this CIF has been generated from an entry in the Cambridge 
# Structural Database, then it will include bibliographic, chemical, 
# crystal, experimental, refinement or atomic coordinate data resulting 
# from the CCDC's data processing and validation procedures.
#
#######################################################################

data_ODEJUD
_chemical_formula_moiety         'C5 H6 N1 1+,C7 H4 N1 O3 S1 1-'
_chemical_name_systematic        'Pyridinium saccharinate'
_symmetry_cell_setting           triclinic
_symmetry_space_group_name_H-M   'P -1'
_symmetry_Int_Tables_number      2
_space_group_name_Hall           '-P 1'
loop_
_symmetry_equiv_pos_site_id
_symmetry_equiv_pos_as_xyz
1 x,y,z
2 -x,-y,-z
_cell_length_a                   7.4677(7)
_cell_length_b                   12.9605(12)
_cell_length_c                   14.1895(13)
_cell_angle_alpha                65.1760(10)
_cell_angle_beta                 74.752(2)
_cell_angle_gamma                78.103(2)
_cell_volume                     1195.35
_exptl_crystal_colour            colorless
_exptl_crystal_description       block
_cell_formula_units_Z            4
loop_
_atom_site_label
_atom_site_type_symbol
_atom_site_fract_x
_atom_site_fract_y
_atom_site_fract_z
S1 S 0.47916(6) 0.82394(3) 0.38907(3)
N1 N 0.3543(2) 0.89660(12) 0.45641(11)
O1 O 0.37371(19) 0.74398(10) 0.38790(11)
O2 O 0.65466(18) 0.77577(11) 0.42187(11)
O3 O 0.23410(19) 1.08313(11) 0.42439(10)
C1 C 0.5112(2) 0.93870(13) 0.26435(13)
C2 C 0.6034(3) 0.94081(16) 0.16609(14)
H1 H 0.6663 0.8749 0.1567
C3 C 0.5983(3) 1.04615(17) 0.08145(15)
H2 H 0.6592 1.0510 0.0137
C4 C 0.5050(3) 1.14323(16) 0.09593(14)
H3 H 0.5042 1.2126 0.0379
C5 C 0.4124(2) 1.13929(14) 0.19544(13)
H4 H 0.3488 1.2049 0.2051
C6 C 0.4171(2) 1.03529(13) 0.27987(12)
C7 C 0.3275(2) 1.00756(14) 0.39375(13)
S2 S 0.08137(7) 0.68322(4) 0.11867(3)
N2 N 0.1761(2) 0.61149(12) 0.04557(11)
O4 O -0.0820(2) 0.75523(11) 0.08427(11)
O5 O 0.2174(2) 0.73898(11) 0.12973(11)
O6 O 0.2228(2) 0.42423(11) 0.06464(11)
C8 C 0.0142(2) 0.56659(14) 0.23747(13)
C9 C -0.0730(3) 0.56243(17) 0.33702(14)
H5 H -0.1048 0.6280 0.3519
C10 C -0.1114(3) 0.45520(18) 0.41445(15)
H6 H -0.1700 0.4488 0.4829
C11 C -0.0644(3) 0.35858(17) 0.39184(15)
H7 H -0.0927 0.2881 0.4450
C12 C 0.0244(2) 0.36449(15) 0.29122(14)
H8 H 0.0569 0.2990 0.2761
C13 C 0.0634(2) 0.47030(14) 0.21401(13)
C14 C 0.1609(2) 0.49978(15) 0.10086(13)
N3 N 0.8935(2) -0.01277(13) 0.36816(12)
C15 C 0.9871(2) -0.08963(16) 0.32952(15)
H9 H 1.0052 -0.1658 0.3749
C16 C 1.0571(3) -0.05793(17) 0.22360(16)
H10 H 1.1238 -0.1117 0.1964
C17 C 1.0276(3) 0.05454(18) 0.15778(15)
H11 H 1.0724 0.0776 0.0851
C18 C 0.9315(3) 0.13289(17) 0.19976(16)
H12 H 0.9118 0.2096 0.1560
C19 C 0.8653(3) 0.09694(17) 0.30637(16)
H13 H 0.8003 0.1493 0.3358
H14 H 0.842(3) -0.034(2) 0.4335(9)
N4 N 0.6173(2) 0.49918(14) 0.13815(12)
C20 C 0.5802(3) 0.57188(16) 0.18574(15)
H15 H 0.6127 0.6460 0.1481
C21 C 0.4942(3) 0.53855(18) 0.28998(16)
H16 H 0.4670 0.5898 0.3234
C22 C 0.4486(3) 0.42891(18) 0.34474(15)
H17 H 0.3907 0.4048 0.4159
C23 C 0.4889(3) 0.35462(16) 0.29395(16)
H18 H 0.4590 0.2798 0.3303
C24 C 0.5733(3) 0.39191(16) 0.18960(16)
H19 H 0.6002 0.3426 0.1542
H20 H 0.671(3) 0.521(2) 0.0725(9)
loop_
_geom_bond_atom_site_label_1
_geom_bond_atom_site_label_2
_geom_bond_site_symmetry_1
_geom_bond_site_symmetry_2
S1 N1 1_555 1_555
N1 C7 1_555 1_555
O1 S1 1_555 1_555
O2 S1 1_555 1_555
O3 C7 1_555 1_555
C1 S1 1_555 1_555
C2 C1 1_555 1_555
H1 C2 1_555 1_555
C3 C2 1_555 1_555
H2 C3 1_555 1_555
C4 C3 1_555 1_555
H3 C4 1_555 1_555
C5 C4 1_555 1_555
H4 C5 1_555 1_555
C6 C1 1_555 1_555
C7 C6 1_555 1_555
S2 N2 1_555 1_555
N2 C14 1_555 1_555
O4 S2 1_555 1_555
O5 S2 1_555 1_555
O6 C14 1_555 1_555
C8 S2 1_555 1_555
C9 C8 1_555 1_555
H5 C9 1_555 1_555
C10 C9 1_555 1_555
H6 C10 1_555 1_555
C11 C10 1_555 1_555
H7 C11 1_555 1_555
C12 C11 1_555 1_555
H8 C12 1_555 1_555
C13 C8 1_555 1_555
C14 C13 1_555 1_555
N3 C15 1_555 1_555
C15 H9 1_555 1_555
C16 C15 1_555 1_555
H10 C16 1_555 1_555
C17 C16 1_555 1_555
H11 C17 1_555 1_555
C18 C17 1_555 1_555
H12 C18 1_555 1_555
C19 N3 1_555 1_555
H13 C19 1_555 1_555
H14 N3 1_555 1_555
N4 C20 1_555 1_555
C20 H15 1_555 1_555
C21 C20 1_555 1_555
H16 C21 1_555 1_555
C22 C21 1_555 1_555
H17 C22 1_555 1_555
C23 C22 1_555 1_555
H18 C23 1_555 1_555
C24 N4 1_555 1_555
H19 C24 1_555 1_555
H20 N4 1_555 1_555
C5 C6 1_555 1_555
C12 C13 1_555 1_555
C18 C19 1_555 1_555
C23 C24 1_555 1_555

#END
