
#######################################################################
#
#                 Cambridge Crystallographic Data Centre
#                                CCDC 
#
#######################################################################
#
# If this CIF has been generated from an entry in the Cambridge 
# Structural Database, then it will include bibliographic, chemical, 
# crystal, experimental, refinement or atomic coordinate data resulting 
# from the CCDC's data processing and validation procedures.
#
#######################################################################

data_ODELOB
_chemical_formula_moiety         'C19 H17 N1 O1'
_chemical_name_systematic        4-methoxy-N,N-diphenylaniline
_symmetry_cell_setting           monoclinic
_symmetry_space_group_name_H-M   'P 21/c'
_symmetry_Int_Tables_number      14
_space_group_name_Hall           '-P 2ybc'
loop_
_symmetry_equiv_pos_site_id
_symmetry_equiv_pos_as_xyz
1 x,y,z
2 -x,1/2+y,1/2-z
3 -x,-y,-z
4 x,1/2-y,1/2+z
_cell_length_a                   12.044(3)
_cell_length_b                   11.106(3)
_cell_length_c                   11.210(4)
_cell_angle_alpha                90
_cell_angle_beta                 96.966(4)
_cell_angle_gamma                90
_cell_volume                     1488.39
_exptl_crystal_colour            yellow
_exptl_crystal_description       block
_cell_formula_units_Z            4
loop_
_atom_site_label
_atom_site_type_symbol
_atom_site_fract_x
_atom_site_fract_y
_atom_site_fract_z
O1 O 0.89897(13) 0.38783(14) 0.94151(12)
N1 N 0.69245(13) 0.59707(15) 0.51873(13)
C1 C 0.74259(15) 0.57747(16) 0.41208(15)
C2 C 0.67959(16) 0.57034(17) 0.29949(16)
H1 H 0.6023 0.5797 0.2926
C3 C 0.73161(18) 0.54940(17) 0.19756(16)
H2 H 0.6888 0.5460 0.1228
C4 C 0.84626(18) 0.53356(18) 0.20553(17)
H3 H 0.8805 0.5185 0.1370
C5 C 0.90882(17) 0.5405(2) 0.31692(18)
H4 H 0.9859 0.5302 0.3234
C6 C 0.85797(16) 0.56277(18) 0.41921(16)
H5 H 0.9015 0.5679 0.4935
C7 C 0.59988(14) 0.67402(17) 0.52368(16)
C8 C 0.57824(16) 0.77040(17) 0.44395(16)
H6 H 0.6243 0.7836 0.3844
C9 C 0.48864(17) 0.84605(18) 0.45346(17)
H7 H 0.4739 0.9090 0.3991
C10 C 0.42022(17) 0.82910(19) 0.54344(18)
H8 H 0.3606 0.8809 0.5500
C11 C 0.44160(16) 0.73516(19) 0.62261(17)
H9 H 0.3965 0.7238 0.6834
C12 C 0.52967(15) 0.65727(18) 0.61261(16)
H10 H 0.5422 0.5930 0.6657
C13 C 0.74321(15) 0.54182(17) 0.62771(15)
C14 C 0.74626(16) 0.41750(17) 0.63777(16)
H11 H 0.7126 0.3705 0.5749
C15 C 0.79892(16) 0.36221(18) 0.74046(17)
H12 H 0.8028 0.2787 0.7453
C16 C 0.84563(15) 0.43238(18) 0.83563(15)
C17 C 0.84013(16) 0.55718(18) 0.82771(16)
H13 H 0.8700 0.6041 0.8924
C18 C 0.79039(16) 0.61164(18) 0.72401(16)
H14 H 0.7884 0.6952 0.7184
C19 C 0.9168(2) 0.2614(2) 0.9483(2)
H15 H 0.9643 0.2377 0.8895
H16 H 0.8463 0.2205 0.9328
H17 H 0.9518 0.2407 1.0271
loop_
_geom_bond_atom_site_label_1
_geom_bond_atom_site_label_2
_geom_bond_site_symmetry_1
_geom_bond_site_symmetry_2
O1 C16 1_555 1_555
N1 C1 1_555 1_555
C1 C2 1_555 1_555
C2 H1 1_555 1_555
C3 C2 1_555 1_555
H2 C3 1_555 1_555
C4 C3 1_555 1_555
H3 C4 1_555 1_555
C5 C4 1_555 1_555
H4 C5 1_555 1_555
C6 C1 1_555 1_555
H5 C6 1_555 1_555
C7 N1 1_555 1_555
C8 C7 1_555 1_555
H6 C8 1_555 1_555
C9 C8 1_555 1_555
H7 C9 1_555 1_555
C10 C9 1_555 1_555
H8 C10 1_555 1_555
C11 C10 1_555 1_555
H9 C11 1_555 1_555
C12 C7 1_555 1_555
H10 C12 1_555 1_555
C13 N1 1_555 1_555
C14 C13 1_555 1_555
H11 C14 1_555 1_555
C15 C14 1_555 1_555
H12 C15 1_555 1_555
C16 C15 1_555 1_555
C17 C16 1_555 1_555
H13 C17 1_555 1_555
C18 C13 1_555 1_555
H14 C18 1_555 1_555
C19 O1 1_555 1_555
H15 C19 1_555 1_555
H16 C19 1_555 1_555
H17 C19 1_555 1_555
C5 C6 1_555 1_555
C11 C12 1_555 1_555
C17 C18 1_555 1_555

#END
