
#######################################################################
#
#                 Cambridge Crystallographic Data Centre
#                                CCDC 
#
#######################################################################
#
# If this CIF has been generated from an entry in the Cambridge 
# Structural Database, then it will include bibliographic, chemical, 
# crystal, experimental, refinement or atomic coordinate data resulting 
# from the CCDC's data processing and validation procedures.
#
#######################################################################

data_ODELIT
_chemical_formula_moiety         'C21 H27 N1 O4 S1'
_chemical_name_systematic        
1-(10,10-Dimethyl-3,3-dioxo-3-thia-4-azatricyclo[5.2.1.0^1,5^]decan-4-yl)-(2R)-2-hydroxy-2-phenylpent-4-en-1-one
_symmetry_cell_setting           monoclinic
_symmetry_space_group_name_H-M   'P 2'
_symmetry_Int_Tables_number      3
_space_group_name_Hall           'P 2y'
loop_
_symmetry_equiv_pos_site_id
_symmetry_equiv_pos_as_xyz
1 x,y,z
2 -x,y,-z
_cell_length_a                   14.4230(5)
_cell_length_b                   8.0000(3)
_cell_length_c                   17.8150(7)
_cell_angle_alpha                90
_cell_angle_beta                 98.502(2)
_cell_angle_gamma                90
_cell_volume                     2032.98
_exptl_crystal_colour            colorless
_exptl_crystal_description       prism
_cell_formula_units_Z            4
_exptl_crystal_recrystallization_method 'hexanes/ethyl acetate'
loop_
_atom_site_label
_atom_site_type_symbol
_atom_site_fract_x
_atom_site_fract_y
_atom_site_fract_z
S1 S 0.33870(19) 0.9763(3) -0.03380(14)
O1 O 0.4156(6) 0.9469(10) -0.0752(4)
O2 O 0.2528(5) 1.0440(10) -0.0735(4)
O3 O 0.3315(6) 0.5197(9) 0.0279(4)
O4 O 0.2878(6) 0.7359(10) -0.1472(4)
H1 H 0.2645 0.7057 -0.1987
N1 N 0.3164(6) 0.7990(10) 0.0113(5)
C1 C 0.3765(8) 1.0942(14) 0.0505(7)
H3 H 0.4437 1.1008 0.0586
H4 H 0.3506 1.2049 0.0449
C2 C 0.3444(8) 1.0038(16) 0.1147(7)
C3 C 0.3430(8) 0.8166(13) 0.0979(6)
H5 H 0.4029 0.7648 0.1130
C4 C 0.2740(11) 0.7433(15) 0.1443(7)
H6 H 0.2962 0.6485 0.1748
H7 H 0.2145 0.7170 0.1148
C5 C 0.2576(11) 0.8942(18) 0.1957(7)
H8 H 0.2042 0.8899 0.2220
C6 C 0.3473(12) 0.9318(19) 0.2452(7)
H9 H 0.3776 0.8312 0.2654
H10 H 0.3388 1.0056 0.2861
C7 C 0.4097(9) 1.0157(18) 0.1923(6)
H11 H 0.4668 0.9576 0.1878
H12 H 0.4233 1.1308 0.2045
C8 C 0.2471(9) 1.0374(18) 0.1398(7)
C9 C 0.1596(9) 1.0238(17) 0.0749(8)
H13 H 0.1035 1.0449 0.0963
H14 H 0.1566 0.9141 0.0528
H15 H 0.1656 1.1055 0.0364
C10 C 0.2407(13) 1.2152(18) 0.1736(8)
H16 H 0.1797 1.2275 0.1885
H17 H 0.2487 1.2977 0.1359
H18 H 0.2879 1.2301 0.2170
C11 C 0.3135(7) 0.6334(13) -0.0129(7)
C12 C 0.2771(8) 0.5960(13) -0.0989(6)
C13 C 0.3298(8) 0.4438(16) -0.1260(7)
H19 H 0.3023 0.4177 -0.1771
H20 H 0.3210 0.3515 -0.0934
C14 C 0.4344(8) 0.4752(16) -0.1244(7)
H21 H 0.4741 0.4873 -0.0765
C15 C 0.4740(11) 0.486(2) -0.1861(9)
H22 H 0.5400 0.5063 -0.1829
H23 H 0.4359 0.4742 -0.2348
C16 C 0.1718(8) 0.5636(15) -0.1018(6)
C17 C 0.1086(9) 0.7011(19) -0.1139(9)
H24 H 0.1299 0.8126 -0.1216
C18 C 0.0172(11) 0.672(2) -0.1132(10)
H25 H -0.0261 0.7635 -0.1156
C19 C -0.0190(11) 0.510(2) -0.1068(12)
H26 H -0.0855 0.4911 -0.1146
C20 C 0.0414(11) 0.379(2) -0.0948(13)
H27 H 0.0183 0.2697 -0.0845
C21 C 0.1364(9) 0.4079(18) -0.0909(9)
H28 H 0.1786 0.3148 -0.0818
S2 S 0.14575(19) 0.0454(3) 0.45677(15)
O5 O 0.0513(6) 0.0697(11) 0.4187(4)
O6 O 0.2141(6) -0.0165(10) 0.4133(4)
O7 O 0.1734(6) 0.5026(9) 0.5215(4)
O8 O 0.1544(6) 0.2885(10) 0.3451(4)
H2 H 0.1647 0.3120 0.2941
N2 N 0.1847(5) 0.2227(10) 0.5028(4)
C22 C 0.1459(8) -0.0786(14) 0.5405(7)
H29 H 0.0825 -0.0985 0.5487
H30 H 0.1758 -0.1834 0.5333
C23 C 0.1981(8) 0.0115(11) 0.6054(6)
C24 C 0.1922(8) 0.2040(13) 0.5876(6)
H31 H 0.1380 0.2545 0.6037
C25 C 0.2819(8) 0.2819(15) 0.6341(7)
H32 H 0.3231 0.3151 0.5991
H33 H 0.2653 0.3780 0.6615
C26 C 0.3160(11) 0.1335(15) 0.6836(7)
H34 H 0.3802 0.1399 0.7073
C27 C 0.2465(11) 0.0880(17) 0.7354(7)
H35 H 0.2219 0.1857 0.7568
H36 H 0.2724 0.0139 0.7755
C28 C 0.1659(9) -0.0020(15) 0.6839(6)
H37 H 0.1063 0.0520 0.6825
H38 H 0.1603 -0.1178 0.6965
C29 C 0.3069(8) -0.0136(18) 0.6262(7)
C30 C 0.3300(10) -0.1899(17) 0.6609(8)
H39 H 0.3969 -0.1983 0.6723
H40 H 0.3067 -0.2749 0.6249
H41 H 0.3030 -0.2046 0.7066
C31 C 0.3679(9) 0.0046(16) 0.5630(8)
H42 H 0.4324 -0.0150 0.5833
H43 H 0.3612 0.1153 0.5421
H44 H 0.3480 -0.0757 0.5239
C32 C 0.1758(7) 0.3881(14) 0.4783(7)
C33 C 0.1819(8) 0.4278(13) 0.3921(6)
C34 C 0.1199(7) 0.5765(15) 0.3681(6)
H45 H 0.1411 0.6711 0.3991
H46 H 0.1238 0.6014 0.3159
C35 C 0.0181(8) 0.5515(17) 0.3727(8)
H47 H -0.0015 0.5454 0.4219
C36 C -0.0506(11) 0.534(2) 0.3128(9)
H48 H -0.1144 0.5165 0.3203
H49 H -0.0349 0.5393 0.2623
C37 C 0.2864(8) 0.4618(14) 0.3905(5)
C38 C 0.3251(9) 0.6138(16) 0.4049(7)
H50 H 0.2863 0.7070 0.4138
C39 C 0.4198(9) 0.6385(16) 0.4072(8)
H51 H 0.4463 0.7472 0.4188
C40 C 0.4781(8) 0.5066(19) 0.3945(8)
H52 H 0.5437 0.5223 0.3928
C41 C 0.4386(9) 0.3515(18) 0.3822(9)
H53 H 0.4801 0.2605 0.3759
C42 C 0.3426(8) 0.3210(14) 0.3789(7)
H54 H 0.3138 0.2134 0.3696
loop_
_geom_bond_atom_site_label_1
_geom_bond_atom_site_label_2
_geom_bond_site_symmetry_1
_geom_bond_site_symmetry_2
S1 O1 1_555 1_555
S2 O5 1_555 1_555
O2 S1 1_555 1_555
O3 C11 1_555 1_555
O4 H1 1_555 1_555
O6 S2 1_555 1_555
O7 C32 1_555 1_555
O8 H2 1_555 1_555
N1 S1 1_555 1_555
N2 S2 1_555 1_555
C1 S1 1_555 1_555
H3 C1 1_555 1_555
H4 C1 1_555 1_555
C2 C1 1_555 1_555
C3 N1 1_555 1_555
H5 C3 1_555 1_555
C4 C3 1_555 1_555
H6 C4 1_555 1_555
H7 C4 1_555 1_555
C5 C4 1_555 1_555
H8 C5 1_555 1_555
C6 C5 1_555 1_555
H9 C6 1_555 1_555
H10 C6 1_555 1_555
C7 C2 1_555 1_555
H11 C7 1_555 1_555
H12 C7 1_555 1_555
C8 C2 1_555 1_555
C9 C8 1_555 1_555
H13 C9 1_555 1_555
H14 C9 1_555 1_555
H15 C9 1_555 1_555
C10 C8 1_555 1_555
H16 C10 1_555 1_555
H17 C10 1_555 1_555
H18 C10 1_555 1_555
C11 N1 1_555 1_555
C12 O4 1_555 1_555
C13 C12 1_555 1_555
H19 C13 1_555 1_555
H20 C13 1_555 1_555
C14 C13 1_555 1_555
H21 C14 1_555 1_555
C15 C14 1_555 1_555
H22 C15 1_555 1_555
H23 C15 1_555 1_555
C16 C12 1_555 1_555
C17 C16 1_555 1_555
H24 C17 1_555 1_555
C18 C17 1_555 1_555
H25 C18 1_555 1_555
C19 C18 1_555 1_555
H26 C19 1_555 1_555
C20 C19 1_555 1_555
H27 C20 1_555 1_555
C21 C16 1_555 1_555
H28 C21 1_555 1_555
C22 S2 1_555 1_555
H29 C22 1_555 1_555
H30 C22 1_555 1_555
C23 C22 1_555 1_555
C24 N2 1_555 1_555
H31 C24 1_555 1_555
C25 C24 1_555 1_555
H32 C25 1_555 1_555
H33 C25 1_555 1_555
C26 C25 1_555 1_555
H34 C26 1_555 1_555
C27 C26 1_555 1_555
H35 C27 1_555 1_555
H36 C27 1_555 1_555
C28 C23 1_555 1_555
H37 C28 1_555 1_555
H38 C28 1_555 1_555
C29 C23 1_555 1_555
C30 C29 1_555 1_555
H39 C30 1_555 1_555
H40 C30 1_555 1_555
H41 C30 1_555 1_555
C31 C29 1_555 1_555
H42 C31 1_555 1_555
H43 C31 1_555 1_555
H44 C31 1_555 1_555
C32 N2 1_555 1_555
C33 O8 1_555 1_555
C34 C33 1_555 1_555
H45 C34 1_555 1_555
H46 C34 1_555 1_555
C35 C34 1_555 1_555
H47 C35 1_555 1_555
C36 C35 1_555 1_555
H48 C36 1_555 1_555
H49 C36 1_555 1_555
C37 C33 1_555 1_555
C38 C37 1_555 1_555
H50 C38 1_555 1_555
C39 C38 1_555 1_555
H51 C39 1_555 1_555
C40 C39 1_555 1_555
H52 C40 1_555 1_555
C41 C40 1_555 1_555
H53 C41 1_555 1_555
C42 C37 1_555 1_555
H54 C42 1_555 1_555
C2 C3 1_555 1_555
C5 C8 1_555 1_555
C6 C7 1_555 1_555
C11 C12 1_555 1_555
C20 C21 1_555 1_555
C23 C24 1_555 1_555
C26 C29 1_555 1_555
C27 C28 1_555 1_555
C32 C33 1_555 1_555
C41 C42 1_555 1_555

#END
