
#######################################################################
#
#                 Cambridge Crystallographic Data Centre
#                                CCDC 
#
#######################################################################
#
# If this CIF has been generated from an entry in the Cambridge 
# Structural Database, then it will include bibliographic, chemical, 
# crystal, experimental, refinement or atomic coordinate data resulting 
# from the CCDC's data processing and validation procedures.
#
#######################################################################

data_ODEVAU
_chemical_formula_moiety         'C26 H44 N2 O3'
_chemical_name_systematic        
2,2,6,6-Tetramethyl-1-((5-methyl-1-methylene-6-oxo-6-((2,2,6,6-tetramethylpiperidin-1-yl)oxy)hexa-2,4-dienyl)oxy)piperidine
_symmetry_cell_setting           monoclinic
_symmetry_space_group_name_H-M   'P 21/c'
_symmetry_Int_Tables_number      14
_space_group_name_Hall           '-P 2ybc'
loop_
_symmetry_equiv_pos_site_id
_symmetry_equiv_pos_as_xyz
1 x,y,z
2 -x,1/2+y,1/2-z
3 -x,-y,-z
4 x,1/2-y,1/2+z
_cell_length_a                   15.4150(3)
_cell_length_b                   14.9044(6)
_cell_length_c                   11.3137(6)
_cell_angle_alpha                90
_cell_angle_beta                 97.727(2)
_cell_angle_gamma                90
_cell_volume                     2575.74
_exptl_crystal_colour            white
_chemical_melting_point          '160 deg.C'
_cell_formula_units_Z            4
loop_
_atom_site_label
_atom_site_type_symbol
_atom_site_fract_x
_atom_site_fract_y
_atom_site_fract_z
O1 O 0.3655(1) 0.0508(1) 0.7066(1)
O2 O 0.1467(1) -0.3516(1) 0.6795(1)
O3 O 0.1483(1) -0.3800(1) 0.4816(1)
N1 N 0.4084(1) 0.1371(1) 0.7293(1)
N2 N 0.0835(1) -0.4249(1) 0.6820(1)
C1 C 0.3704(1) 0.1986(1) 0.6317(1)
C2 C 0.4186(1) 0.2880(1) 0.6567(2)
C3 C 0.5171(1) 0.2782(1) 0.6661(2)
C4 C 0.5491(1) 0.2112(1) 0.7632(2)
C5 C 0.5046(1) 0.1194(1) 0.7465(1)
C6 C 0.5252(1) 0.0661(1) 0.8624(2)
C7 C 0.5390(1) 0.0654(1) 0.6464(2)
C8 C 0.2736(1) 0.2117(1) 0.6451(2)
C9 C 0.3752(1) 0.1649(1) 0.5039(1)
C10 C 0.3132(1) 0.0283(1) 0.7925(1)
C11 C 0.3039(1) 0.0757(1) 0.8893(1)
C12 C 0.2675(1) -0.0556(1) 0.7648(1)
C13 C 0.2733(1) -0.1091(1) 0.6709(1)
C14 C 0.2235(1) -0.1913(1) 0.6554(1)
C15 C 0.2261(1) -0.2543(1) 0.5714(1)
C16 C 0.2826(1) -0.2507(1) 0.4730(1)
C17 C 0.1694(1) -0.3348(1) 0.5687(1)
C18 C 0.1296(1) -0.4975(1) 0.7559(2)
C19 C 0.0608(1) -0.5708(1) 0.7643(2)
C20 C -0.0212(1) -0.5359(1) 0.8095(2)
C21 C -0.0605(1) -0.4607(1) 0.7283(2)
C22 C 0.0031(1) -0.3830(1) 0.7182(1)
C23 C 0.1740(1) -0.4704(1) 0.8804(2)
C24 C 0.1995(1) -0.5348(1) 0.6854(2)
C25 C 0.0160(1) -0.3263(1) 0.8326(2)
C26 C -0.0348(1) -0.3229(1) 0.6141(2)
H1 H 0.3984 0.3307 0.5918
H2 H 0.4035 0.3134 0.7321
H3 H 0.5453 0.3371 0.6850
H4 H 0.5332 0.2575 0.5888
H5 H 0.5388 0.2361 0.8412
H6 H 0.6130 0.2031 0.7652
H7 H 0.5009 0.0974 0.9267
H8 H 0.5888 0.0606 0.8829
H9 H 0.4992 0.0062 0.8517
H10 H 0.5020 0.0125 0.6274
H11 H 0.5993 0.0462 0.6730
H12 H 0.5377 0.1030 0.5752
H13 H 0.2684 0.2289 0.7274
H14 H 0.2418 0.1555 0.6257
H15 H 0.2488 0.2590 0.5907
H16 H 0.4348 0.1728 0.4847
H17 H 0.3343 0.1994 0.4474
H18 H 0.3594 0.1012 0.4983
H19 H 0.3347 0.1306 0.9043
H20 H 0.2664 0.0548 0.9435
H21 H 0.2292 -0.0748 0.8190
H22 H 0.3105 -0.0927 0.6139
H23 H 0.1841 -0.2020 0.7116
H24 H 0.3249 -0.2016 0.4884
H25 H 0.2457 -0.2404 0.3967
H26 H 0.3139 -0.3077 0.4699
H27 H 0.0444 -0.5977 0.6844
H28 H 0.0868 -0.6187 0.8185
H29 H -0.0064 -0.5131 0.8920
H30 H -0.0642 -0.5851 0.8104
H31 H -0.1131 -0.4373 0.7593
H32 H -0.0793 -0.4855 0.6478
H33 H 0.2111 -0.4178 0.8737
H34 H 0.2101 -0.5203 0.9157
H35 H 0.1292 -0.4560 0.9311
H36 H 0.1728 -0.5492 0.6041
H37 H 0.2250 -0.5892 0.7245
H38 H 0.2455 -0.4898 0.6825
H39 H 0.0649 -0.2848 0.8299
H40 H 0.0287 -0.3658 0.9020
H41 H -0.0375 -0.2922 0.8390
H42 H 0.0027 -0.2701 0.6107
H43 H -0.0939 -0.3037 0.6257
H44 H -0.0375 -0.3565 0.5392
loop_
_geom_bond_atom_site_label_1
_geom_bond_atom_site_label_2
_geom_bond_site_symmetry_1
_geom_bond_site_symmetry_2
O1 N1 1_555 1_555
O2 N2 1_555 1_555
O3 C17 1_555 1_555
N1 C1 1_555 1_555
N2 C18 1_555 1_555
C1 C2 1_555 1_555
C2 C3 1_555 1_555
C3 C4 1_555 1_555
C4 C5 1_555 1_555
C5 N1 1_555 1_555
C6 C5 1_555 1_555
C7 C5 1_555 1_555
C8 C1 1_555 1_555
C9 C1 1_555 1_555
C10 O1 1_555 1_555
C11 C10 1_555 1_555
C12 C10 1_555 1_555
C13 C12 1_555 1_555
C14 C13 1_555 1_555
C15 C14 1_555 1_555
C16 C15 1_555 1_555
C17 O2 1_555 1_555
C18 C19 1_555 1_555
C19 C20 1_555 1_555
C20 C21 1_555 1_555
C21 C22 1_555 1_555
C22 N2 1_555 1_555
C23 C18 1_555 1_555
C24 C18 1_555 1_555
C25 C22 1_555 1_555
C26 C22 1_555 1_555
H1 C2 1_555 1_555
H2 C2 1_555 1_555
H3 C3 1_555 1_555
H4 C3 1_555 1_555
H5 C4 1_555 1_555
H6 C4 1_555 1_555
H7 C6 1_555 1_555
H8 C6 1_555 1_555
H9 C6 1_555 1_555
H10 C7 1_555 1_555
H11 C7 1_555 1_555
H12 C7 1_555 1_555
H13 C8 1_555 1_555
H14 C8 1_555 1_555
H15 C8 1_555 1_555
H16 C9 1_555 1_555
H17 C9 1_555 1_555
H18 C9 1_555 1_555
H19 C11 1_555 1_555
H20 C11 1_555 1_555
H21 C12 1_555 1_555
H22 C13 1_555 1_555
H23 C14 1_555 1_555
H24 C16 1_555 1_555
H25 C16 1_555 1_555
H26 C16 1_555 1_555
H27 C19 1_555 1_555
H28 C19 1_555 1_555
H29 C20 1_555 1_555
H30 C20 1_555 1_555
H31 C21 1_555 1_555
H32 C21 1_555 1_555
H33 C23 1_555 1_555
H34 C23 1_555 1_555
H35 C23 1_555 1_555
H36 C24 1_555 1_555
H37 C24 1_555 1_555
H38 C24 1_555 1_555
H39 C25 1_555 1_555
H40 C25 1_555 1_555
H41 C25 1_555 1_555
H42 C26 1_555 1_555
H43 C26 1_555 1_555
H44 C26 1_555 1_555
C15 C17 1_555 1_555

#END
