
#######################################################################
#
#                 Cambridge Crystallographic Data Centre
#                                CCDC 
#
#######################################################################
#
# If this CIF has been generated from an entry in the Cambridge 
# Structural Database, then it will include bibliographic, chemical, 
# crystal, experimental, refinement or atomic coordinate data resulting 
# from the CCDC's data processing and validation procedures.
#
#######################################################################

data_ODEYAA
_chemical_formula_moiety         'C17 H17 N1 O1'
_chemical_name_systematic        
2-methyl-3-((4-methylphenyl)amino)-1-phenylprop-2-en-1-one
_symmetry_cell_setting           monoclinic
_symmetry_space_group_name_H-M   'P 21/n'
_symmetry_Int_Tables_number      14
_space_group_name_Hall           '-P 2yn'
loop_
_symmetry_equiv_pos_site_id
_symmetry_equiv_pos_as_xyz
1 x,y,z
2 1/2-x,1/2+y,1/2-z
3 -x,-y,-z
4 1/2+x,1/2-y,1/2+z
_cell_length_a                   6.39890(8)
_cell_length_b                   11.27072(15)
_cell_length_c                   19.0731(3)
_cell_angle_alpha                90
_cell_angle_beta                 92.0107(13)
_cell_angle_gamma                90
_cell_volume                     1374.71
_exptl_crystal_colour            'light yellow'
_exptl_crystal_description       block
_cell_formula_units_Z            4
loop_
_atom_site_label
_atom_site_type_symbol
_atom_site_fract_x
_atom_site_fract_y
_atom_site_fract_z
O1 O 0.07160(13) 0.97650(7) 0.21129(5)
N1 N 0.57128(14) 0.66773(8) 0.19579(5)
H1 H 0.5155 0.6248 0.2273
C1 C 0.74563(17) 0.62191(10) 0.16139(6)
C2 C 1.09021(18) 0.52512(11) 0.09315(6)
C3 C 0.94851(18) 0.45288(11) 0.12711(6)
H2 H 0.9689 0.3712 0.1273
C4 C 0.88782(18) 0.69586(10) 0.12893(6)
H3 H 0.8703 0.7777 0.1301
C5 C 0.23934(17) 0.93698(10) 0.18992(6)
C6 C 0.48738(17) 0.77563(10) 0.18172(6)
H4 H 0.5462 0.8195 0.1462
C7 C 0.77817(18) 0.49952(10) 0.16065(6)
H5 H 0.6857 0.4493 0.1826
C8 C 0.32453(17) 0.82572(10) 0.21496(6)
C9 C 1.05542(18) 0.64708(11) 0.09489(6)
H6 H 1.1473 0.6973 0.0726
C10 C 0.34821(18) 1.00928(10) 0.13578(6)
C11 C 0.55591(19) 1.04551(10) 0.14476(7)
H7 H 0.6375 1.0173 0.1825
C12 C 0.2295(2) 1.05040(11) 0.07819(7)
H8 H 0.0911 1.0265 0.0718
C13 C 0.21662(19) 0.76259(11) 0.27286(6)
H9 H 0.1455 0.8194 0.3010
H10 H 0.3183 0.7208 0.3016
H11 H 0.1171 0.7072 0.2530
C14 C 1.2745(2) 0.47452(13) 0.05620(7)
H12 H 1.2961 0.3937 0.0705
H13 H 1.3973 0.5202 0.0681
H14 H 1.2475 0.4774 0.0064
C15 C 0.6406(2) 1.12382(12) 0.09723(8)
H15 H 0.7782 1.1493 0.1037
C16 C 0.5206(3) 1.16411(13) 0.04010(9)
H16 H 0.5779 1.2164 0.0083
C17 C 0.3167(3) 1.12675(14) 0.03034(8)
H17 H 0.2374 1.1528 -0.0084
loop_
_geom_bond_atom_site_label_1
_geom_bond_atom_site_label_2
_geom_bond_site_symmetry_1
_geom_bond_site_symmetry_2
O1 C5 1_555 1_555
N1 H1 1_555 1_555
C1 N1 1_555 1_555
C2 C3 1_555 1_555
C3 H2 1_555 1_555
C4 C1 1_555 1_555
H3 C4 1_555 1_555
C5 C8 1_555 1_555
C6 N1 1_555 1_555
H4 C6 1_555 1_555
C7 C1 1_555 1_555
H5 C7 1_555 1_555
C8 C6 1_555 1_555
C9 C2 1_555 1_555
H6 C9 1_555 1_555
C10 C5 1_555 1_555
C11 C10 1_555 1_555
H7 C11 1_555 1_555
C12 C10 1_555 1_555
H8 C12 1_555 1_555
C13 C8 1_555 1_555
H9 C13 1_555 1_555
H10 C13 1_555 1_555
H11 C13 1_555 1_555
C14 C2 1_555 1_555
H12 C14 1_555 1_555
H13 C14 1_555 1_555
H14 C14 1_555 1_555
C15 C11 1_555 1_555
H15 C15 1_555 1_555
C16 C15 1_555 1_555
H16 C16 1_555 1_555
C17 C12 1_555 1_555
H17 C17 1_555 1_555
C3 C7 1_555 1_555
C4 C9 1_555 1_555
C16 C17 1_555 1_555

#END
