
#######################################################################
#
#                 Cambridge Crystallographic Data Centre
#                                CCDC 
#
#######################################################################
#
# If this CIF has been generated from an entry in the Cambridge 
# Structural Database, then it will include bibliographic, chemical, 
# crystal, experimental, refinement or atomic coordinate data resulting 
# from the CCDC's data processing and validation procedures.
#
#######################################################################

data_ODEYEE
_chemical_formula_moiety         'C29 H30 N4 O4 S1'
_chemical_name_systematic        
'ethyl 1-((1-((4-methylphenyl)sulfonyl)pyrrolidin-2-yl)(diphenyl)methyl)-1H-1,2,3-triazole-4-carboxylate'
_symmetry_cell_setting           monoclinic
_symmetry_space_group_name_H-M   'P 21'
_symmetry_Int_Tables_number      4
_space_group_name_Hall           'P 2yb'
loop_
_symmetry_equiv_pos_site_id
_symmetry_equiv_pos_as_xyz
1 x,y,z
2 -x,1/2+y,-z
_cell_length_a                   8.6745(2)
_cell_length_b                   8.9262(2)
_cell_length_c                   17.2543(4)
_cell_angle_alpha                90
_cell_angle_beta                 103.420(2)
_cell_angle_gamma                90
_cell_volume                     1299.53
_exptl_crystal_colour            silver
_exptl_crystal_description       Block
_cell_formula_units_Z            2
loop_
_atom_site_label
_atom_site_type_symbol
_atom_site_fract_x
_atom_site_fract_y
_atom_site_fract_z
S1 S 0.89062(6) 0.92869(6) 0.61079(3)
O1 O 0.48765(17) 0.83585(17) 0.91155(9)
O2 O 0.35733(19) 1.0475(2) 0.86498(11)
O3 O 0.85897(18) 0.9168(2) 0.52601(9)
O4 O 0.76715(17) 0.89513(17) 0.65056(9)
N1 N 0.74048(19) 0.9161(2) 0.84826(10)
N2 N 0.8408(2) 0.9837(2) 0.81437(10)
N3 N 0.77131(19) 1.11281(19) 0.78143(10)
N4 N 0.9479(2) 1.1000(2) 0.63327(10)
C1 C 0.4700(3) 0.9660(3) 0.87197(13)
C2 C 0.3633(3) 0.7980(3) 0.95220(14)
H1 H 0.3583 0.6878 0.9579
H2 H 0.2598 0.8326 0.9200
C3 C 0.3947(3) 0.8696(3) 1.03274(15)
H3 H 0.3097 0.8432 1.0591
H4 H 0.3986 0.9787 1.0270
H5 H 0.4963 0.8339 1.0650
C4 C 0.6071(2) 1.0018(2) 0.83861(12)
C5 C 0.6274(2) 1.1287(2) 0.79682(12)
H6 H 0.5555 1.2097 0.7821
C6 C 0.8652(2) 1.2289(2) 0.74814(12)
C7 C 0.7577(2) 1.3089(2) 0.67717(12)
C8 C 0.8034(2) 1.4463(3) 0.65108(12)
H7 H 0.8965 1.4940 0.6807
C9 C 0.7154(3) 1.5146(3) 0.58267(13)
H8 H 0.7486 1.6082 0.5660
C10 C 0.5794(2) 1.4467(3) 0.53869(12)
H9 H 0.5174 1.4942 0.4926
C11 C 0.5351(2) 1.3085(3) 0.56286(12)
H10 H 0.4430 1.2605 0.5325
C12 C 0.6230(2) 1.2391(2) 0.63059(12)
H11 H 0.5917 1.1434 0.6456
C13 C 0.9340(2) 1.3290(2) 0.82103(12)
C14 C 1.0546(2) 1.2721(2) 0.88223(12)
H12 H 1.0959 1.1749 0.8772
C15 C 1.1149(3) 1.3563(3) 0.95033(13)
H13 H 1.1972 1.3164 0.9913
C16 C 1.0555(3) 1.4984(3) 0.95872(13)
H14 H 1.0973 1.5559 1.0052
C17 C 0.9348(3) 1.5559(3) 0.89887(12)
H15 H 0.8934 1.6529 0.9042
C18 C 0.8747(2) 1.4709(2) 0.83088(12)
H16 H 0.7914 1.5106 0.7903
C19 C 1.0010(2) 1.1472(2) 0.71794(12)
H17 H 1.0372 1.0575 0.7520
C20 C 1.1442(2) 1.2508(3) 0.71846(13)
H18 H 1.1117 1.3574 0.7161
H19 H 1.2288 1.2347 0.7672
C21 C 1.2011(3) 1.2073(3) 0.64450(15)
H20 H 1.2598 1.2903 0.6264
H21 H 1.2693 1.1171 0.6541
C22 C 1.0465(3) 1.1760(3) 0.58515(14)
H22 H 0.9960 1.2703 0.5618
H23 H 1.0635 1.1102 0.5417
C23 C 1.0540(2) 0.8127(3) 0.65210(13)
C24 C 1.1745(3) 0.7951(3) 0.61197(14)
H24 H 1.1658 0.8394 0.5611
C25 C 1.3073(3) 0.7124(3) 0.64693(15)
H25 H 1.3906 0.7013 0.6201
C26 C 1.3203(3) 0.6456(3) 0.72056(14)
C27 C 1.1978(3) 0.6623(3) 0.75947(14)
H26 H 1.2049 0.6149 0.8095
C28 C 1.0650(3) 0.7480(3) 0.72585(14)
H27 H 0.9830 0.7618 0.7533
C29 C 1.4667(3) 0.5578(3) 0.75887(16)
H28 H 1.5405 0.5577 0.7236
H29 H 1.4370 0.4545 0.7680
H30 H 1.5178 0.6041 0.8098
loop_
_geom_bond_atom_site_label_1
_geom_bond_atom_site_label_2
_geom_bond_site_symmetry_1
_geom_bond_site_symmetry_2
S1 O3 1_555 1_555
O1 C1 1_555 1_555
O2 C1 1_555 1_555
O4 S1 1_555 1_555
N1 N2 1_555 1_555
N2 N3 1_555 1_555
N3 C5 1_555 1_555
N4 S1 1_555 1_555
C1 C4 1_555 1_555
C2 O1 1_555 1_555
H1 C2 1_555 1_555
H2 C2 1_555 1_555
C3 C2 1_555 1_555
H3 C3 1_555 1_555
H4 C3 1_555 1_555
H5 C3 1_555 1_555
C4 N1 1_555 1_555
C5 C4 1_555 1_555
H6 C5 1_555 1_555
C6 N3 1_555 1_555
C7 C6 1_555 1_555
C8 C7 1_555 1_555
H7 C8 1_555 1_555
C9 C8 1_555 1_555
H8 C9 1_555 1_555
C10 C9 1_555 1_555
H9 C10 1_555 1_555
C11 C10 1_555 1_555
H10 C11 1_555 1_555
C12 C7 1_555 1_555
H11 C12 1_555 1_555
C13 C6 1_555 1_555
C14 C13 1_555 1_555
H12 C14 1_555 1_555
C15 C14 1_555 1_555
H13 C15 1_555 1_555
C16 C15 1_555 1_555
H14 C16 1_555 1_555
C17 C16 1_555 1_555
H15 C17 1_555 1_555
C18 C13 1_555 1_555
H16 C18 1_555 1_555
C19 N4 1_555 1_555
H17 C19 1_555 1_555
C20 C19 1_555 1_555
H18 C20 1_555 1_555
H19 C20 1_555 1_555
C21 C20 1_555 1_555
H20 C21 1_555 1_555
H21 C21 1_555 1_555
C22 N4 1_555 1_555
H22 C22 1_555 1_555
H23 C22 1_555 1_555
C23 S1 1_555 1_555
C24 C23 1_555 1_555
H24 C24 1_555 1_555
C25 C24 1_555 1_555
H25 C25 1_555 1_555
C26 C25 1_555 1_555
C27 C26 1_555 1_555
H26 C27 1_555 1_555
C28 C23 1_555 1_555
H27 C28 1_555 1_555
C29 C26 1_555 1_555
H28 C29 1_555 1_555
H29 C29 1_555 1_555
H30 C29 1_555 1_555
C6 C19 1_555 1_555
C11 C12 1_555 1_555
C17 C18 1_555 1_555
C21 C22 1_555 1_555
C27 C28 1_555 1_555

#END
