
#######################################################################
#
#                 Cambridge Crystallographic Data Centre
#                                CCDC 
#
#######################################################################
#
# If this CIF has been generated from an entry in the Cambridge 
# Structural Database, then it will include bibliographic, chemical, 
# crystal, experimental, refinement or atomic coordinate data resulting 
# from the CCDC's data processing and validation procedures.
#
#######################################################################

data_ODEZOO01
_chemical_name_common            
'N,N-dimethylbiguanidinium bis(hydrogensquarate)'
_chemical_formula_moiety         'C4 H13 N5 2+,2(C4 H1 O4 1-)'
_chemical_name_systematic        
'(Amino((amino(dimethyliminio)methyl)amino)methylene)ammonium bis(2-hydroxy-3,4-dioxocyclobut-1-en-1-olate)'
_symmetry_cell_setting           triclinic
_symmetry_space_group_name_H-M   'P -1'
_symmetry_Int_Tables_number      2
_space_group_name_Hall           '-P 1'
loop_
_symmetry_equiv_pos_site_id
_symmetry_equiv_pos_as_xyz
1 x,y,z
2 -x,-y,-z
_cell_length_a                   7.0689(2)
_cell_length_b                   8.5538(2)
_cell_length_c                   13.0736(3)
_cell_angle_alpha                90.4260(9)
_cell_angle_beta                 105.1180(9)
_cell_angle_gamma                102.4250(10)
_cell_volume                     743.58
_exptl_crystal_colour            colorless
_exptl_crystal_description       block
_cell_formula_units_Z            2
loop_
_atom_site_label
_atom_site_type_symbol
_atom_site_fract_x
_atom_site_fract_y
_atom_site_fract_z
O1 O 1.02713(9) 0.82004(6) 0.61293(4)
O2 O 0.75979(8) 0.48450(6) 0.67228(4)
O3 O 0.90715(8) 0.62250(6) 0.91944(4)
O4 O 1.18689(8) 0.93559(6) 0.85841(4)
C1 C 0.99400(6) 0.75564(5) 0.69753(3)
C2 C 0.87259(6) 0.60900(5) 0.72191(3)
C3 C 0.94121(6) 0.66909(5) 0.83581(3)
C4 C 1.06835(6) 0.81401(5) 0.80726(3)
H1 H 0.962833 0.74725 0.542267
O5 O 0.60656(8) 0.35590(6) 0.48207(4)
O6 O 0.91444(10) 0.67914(8) 0.43696(4)
O7 O 0.76498(8) 0.57744(7) 0.18799(4)
O8 O 0.46732(8) 0.25368(7) 0.23242(4)
C5 C 0.65613(6) 0.42036(5) 0.40015(3)
C6 C 0.79090(7) 0.56219(6) 0.38274(3)
C7 C 0.72436(6) 0.51738(5) 0.26745(3)
C8 C 0.58700(6) 0.36876(5) 0.28786(3)
H2 H 0.681041 0.420274 0.552466
N1 N 0.63034(7) 0.12207(6) 0.72110(4)
N2 N 0.52868(7) 0.16648(6) 0.87014(4)
N3 N 0.39946(7) 0.18258(6) 1.01252(4)
N4 N 0.87139(7) 0.24075(6) 0.87279(4)
N5 N 0.65814(7) 0.38762(6) 0.99499(4)
C9 C 0.78181(7) 0.08988(6) 0.67125(4)
C10 C 0.42517(7) 0.08865(6) 0.65247(3)
C11 C 0.68065(6) 0.18009(5) 0.82055(3)
C12 C 0.53207(6) 0.24928(5) 0.96156(3)
H3 H 0.406665 0.070604 0.844638
H4 H 0.409038 0.227701 1.086102
H5 H 0.303889 0.076392 0.981355
H6 H 0.919565 0.268785 0.952287
H7 H 0.974804 0.279987 0.832511
H8 H 0.667386 0.443632 1.066111
H9 H 0.746759 0.44951 0.951662
H10 H 0.833769 0.188174 0.628072
H11 H 0.714163 -0.017483 0.618206
H12 H 0.908312 0.067698 0.73182
H13 H 0.368041 -0.038869 0.637265
H14 H 0.426276 0.144067 0.57895
H15 H 0.326707 0.139119 0.688136
loop_
_geom_bond_atom_site_label_1
_geom_bond_atom_site_label_2
_geom_bond_site_symmetry_1
_geom_bond_site_symmetry_2
O1 C1 1_555 1_555
O2 C2 1_555 1_555
O3 C3 1_555 1_555
O4 C4 1_555 1_555
O5 C5 1_555 1_555
O6 C6 1_555 1_555
O7 C7 1_555 1_555
O8 C8 1_555 1_555
N1 C9 1_555 1_555
N2 C11 1_555 1_555
N3 C12 1_555 1_555
N4 C11 1_555 1_555
N5 C12 1_555 1_555
C1 C2 1_555 1_555
C2 C3 1_555 1_555
C3 C4 1_555 1_555
C4 C1 1_555 1_555
C5 C6 1_555 1_555
C6 C7 1_555 1_555
C7 C8 1_555 1_555
C8 C5 1_555 1_555
C9 H10 1_555 1_555
C10 N1 1_555 1_555
C11 N1 1_555 1_555
C12 N2 1_555 1_555
H1 O1 1_555 1_555
H2 O5 1_555 1_555
H3 N2 1_555 1_555
H4 N3 1_555 1_555
H5 N3 1_555 1_555
H6 N4 1_555 1_555
H7 N4 1_555 1_555
H8 N5 1_555 1_555
H9 N5 1_555 1_555
H11 C9 1_555 1_555
H12 C9 1_555 1_555
H13 C10 1_555 1_555
H14 C10 1_555 1_555
H15 C10 1_555 1_555

#END
