
#######################################################################
#
#                 Cambridge Crystallographic Data Centre
#                                CCDC 
#
#######################################################################
#
# If this CIF has been generated from an entry in the Cambridge 
# Structural Database, then it will include bibliographic, chemical, 
# crystal, experimental, refinement or atomic coordinate data resulting 
# from the CCDC's data processing and validation procedures.
#
#######################################################################

data_ODILOD
_chemical_formula_moiety         'C16 H15 F2 N1 O4 S1'
_chemical_name_systematic        
'Ethyl 2-(cyclopropylamino)-6,7-difluoro-8-methoxy-4-oxo-4H-thiochromene-3-carboxylate'
_symmetry_cell_setting           triclinic
_symmetry_space_group_name_H-M   'P -1'
_symmetry_Int_Tables_number      2
_space_group_name_Hall           '-P 1'
loop_
_symmetry_equiv_pos_site_id
_symmetry_equiv_pos_as_xyz
1 x,y,z
2 -x,-y,-z
_cell_length_a                   8.8361(18)
_cell_length_b                   9.6639(19)
_cell_length_c                   10.439(2)
_cell_angle_alpha                101.76(3)
_cell_angle_beta                 99.69(3)
_cell_angle_gamma                113.51(3)
_cell_volume                     768.69
_exptl_crystal_colour            colorless
_exptl_crystal_description       block
_cell_formula_units_Z            2
_exptl_crystal_recrystallization_method 'ethyl acetate/hexanes'
loop_
_atom_site_label
_atom_site_type_symbol
_atom_site_fract_x
_atom_site_fract_y
_atom_site_fract_z
S1 S 0.28115(6) 0.29480(5) 0.68907(4)
F1 F 0.86887(15) 0.44404(16) 1.13586(12)
F2 F 0.57681(18) 0.18180(14) 1.07970(11)
O1 O 0.79185(15) 0.70382(15) 0.78861(13)
O2 O 0.41429(16) 0.71366(15) 0.51397(12)
O3 O 0.64056(16) 0.86294(14) 0.69474(12)
O4 O 0.2992(2) 0.10923(18) 0.85207(15)
N1 N 0.20407(19) 0.44107(18) 0.53141(14)
H1 H 0.225(3) 0.513(3) 0.496(2)
C1 C 0.4977(2) 0.58991(19) 0.67095(15)
C2 C 0.6445(2) 0.60105(19) 0.76660(16)
C3 C 0.6182(2) 0.4847(2) 0.84566(16)
C4 C 0.7576(2) 0.5171(2) 0.95417(18)
H2 H 0.8641 0.6081 0.9739
C5 C 0.7369(3) 0.4151(2) 1.03072(18)
C6 C 0.5853(3) 0.2796(2) 1.00294(18)
C7 C 0.4467(3) 0.2440(2) 0.89596(18)
C8 C 0.4649(2) 0.3502(2) 0.81902(16)
C9 C 0.3364(2) 0.45772(19) 0.62693(15)
C10 C 0.5127(2) 0.7235(2) 0.61687(16)
C11 C 0.6479(3) 1.0003(2) 0.6546(2)
H3 H 0.5409 1.0104 0.6559
H4 H 0.6611 0.9900 0.5613
C12 C 0.7995(3) 1.1425(2) 0.7545(2)
H5 H 0.8080 1.2378 0.7306
H6 H 0.9045 1.1315 0.7518
H7 H 0.7850 1.1512 0.8464
C13 C 0.2123(3) 0.0434(3) 0.9424(2)
H8 H 0.1077 -0.0537 0.8904
H9 H 0.1814 0.1194 0.9949
H10 H 0.2871 0.0188 1.0046
C14 C 0.0313(2) 0.3211(2) 0.50205(17)
H11 H -0.0265 0.3282 0.5760
C15 C -0.0190(2) 0.1573(2) 0.41415(17)
H12 H 0.0702 0.1373 0.3793
H13 H -0.1032 0.0670 0.4354
C16 C -0.0815(2) 0.2625(2) 0.35956(18)
H14 H -0.0309 0.3071 0.2909
H15 H -0.2042 0.2369 0.3470
loop_
_geom_bond_atom_site_label_1
_geom_bond_atom_site_label_2
_geom_bond_site_symmetry_1
_geom_bond_site_symmetry_2
S1 C8 1_555 1_555
F1 C5 1_555 1_555
F2 C6 1_555 1_555
O1 C2 1_555 1_555
O2 C10 1_555 1_555
O3 C10 1_555 1_555
O4 C7 1_555 1_555
N1 H1 1_555 1_555
C1 C2 1_555 1_555
C2 C3 1_555 1_555
C3 C4 1_555 1_555
C4 H2 1_555 1_555
C5 C4 1_555 1_555
C6 C5 1_555 1_555
C7 C6 1_555 1_555
C8 C3 1_555 1_555
C9 S1 1_555 1_555
C10 C1 1_555 1_555
C11 O3 1_555 1_555
H3 C11 1_555 1_555
H4 C11 1_555 1_555
C12 C11 1_555 1_555
H5 C12 1_555 1_555
H6 C12 1_555 1_555
H7 C12 1_555 1_555
C13 O4 1_555 1_555
H8 C13 1_555 1_555
H9 C13 1_555 1_555
H10 C13 1_555 1_555
C14 N1 1_555 1_555
H11 C14 1_555 1_555
C15 C14 1_555 1_555
H12 C15 1_555 1_555
H13 C15 1_555 1_555
C16 C14 1_555 1_555
H14 C16 1_555 1_555
H15 C16 1_555 1_555
N1 C9 1_555 1_555
C1 C9 1_555 1_555
C7 C8 1_555 1_555
C15 C16 1_555 1_555

#END
