
#######################################################################
#
#                 Cambridge Crystallographic Data Centre
#                                CCDC 
#
#######################################################################
#
# If this CIF has been generated from an entry in the Cambridge 
# Structural Database, then it will include bibliographic, chemical, 
# crystal, experimental, refinement or atomic coordinate data resulting 
# from the CCDC's data processing and validation procedures.
#
#######################################################################

data_ODILAP
_chemical_formula_moiety         'C20 H17 F1 N3 O3 S1 1+,C2 F3 O2 1-'
_chemical_name_systematic        
'9-Cyclopropyl-6-fluoro-8-methoxy-7-(2-methylpyridin-4-yl)-9H-isothiazolo(5,4-b)quinoline-3,4-dione trifluoroacetic acid'
_chemical_properties_biological  
'broad spectrum antibacterial agent effective against methicillin-resistant Staphylococcus aureus (MRSA)'
_symmetry_cell_setting           triclinic
_symmetry_space_group_name_H-M   'P -1'
_symmetry_Int_Tables_number      2
_space_group_name_Hall           '-P 1'
loop_
_symmetry_equiv_pos_site_id
_symmetry_equiv_pos_as_xyz
1 x,y,z
2 -x,-y,-z
_cell_length_a                   8.2971(17)
_cell_length_b                   9.7116(19)
_cell_length_c                   14.452(3)
_cell_angle_alpha                81.00(3)
_cell_angle_beta                 81.81(3)
_cell_angle_gamma                66.27(3)
_cell_volume                     1048.85
_exptl_crystal_colour            colorless
_exptl_crystal_description       plate
_chemical_melting_point          '248-249 deg.C(dec.)'
_cell_formula_units_Z            2
_exptl_crystal_recrystallization_method 'aqueous ethanol'
loop_
_atom_site_label
_atom_site_type_symbol
_atom_site_fract_x
_atom_site_fract_y
_atom_site_fract_z
S1 S 0.92711(7) 0.36860(6) 0.50707(4)
F1 F 0.34327(15) 0.00796(14) 0.31741(9)
O1 O 0.5394(2) 0.41932(18) 0.68484(11)
H1 H 0.569(4) 0.459(3) 0.727(2)
O2 O 0.36951(18) 0.28947(16) 0.57071(10)
O3 O 0.89764(17) 0.04929(15) 0.24380(9)
N1 N 0.8026(2) 0.41846(19) 0.60740(12)
N2 N 0.8127(2) 0.24647(18) 0.38535(12)
N3 N 0.7001(2) -0.2072(2) 0.04389(12)
H2 H 0.709(3) -0.262(3) -0.0089(19)
C1 C 0.6613(3) 0.3880(2) 0.61182(14)
C2 C 0.6432(3) 0.3193(2) 0.53491(14)
C3 C 0.5053(3) 0.2749(2) 0.51773(14)
C4 C 0.5421(3) 0.2013(2) 0.42995(14)
C5 C 0.4230(3) 0.1429(2) 0.41153(15)
H3 H 0.3172 0.1577 0.4513
C6 C 0.4604(3) 0.0641(2) 0.33548(15)
C7 C 0.6150(3) 0.0354(2) 0.27579(13)
C8 C 0.7352(3) 0.0920(2) 0.29505(14)
C9 C 0.6973(3) 0.1819(2) 0.36924(14)
C10 C 0.7865(3) 0.3038(2) 0.46881(14)
C11 C 0.6510(3) -0.0533(2) 0.19547(14)
C12 C 0.7021(3) 0.0015(2) 0.10578(14)
H4 H 0.7197 0.0936 0.0971
C13 C 0.7273(3) -0.0769(2) 0.02983(15)
C14 C 0.6535(3) -0.2643(2) 0.12954(15)
H5 H 0.6366 -0.3567 0.1364
C15 C 0.6300(3) -0.1909(2) 0.20694(15)
H6 H 0.6000 -0.2328 0.2675
C16 C 0.7835(3) -0.0278(3) -0.06876(15)
H7 H 0.7933 -0.1020 -0.1103
H8 H 0.8983 -0.0207 -0.0702
H9 H 0.6955 0.0712 -0.0902
C17 C 1.0201(3) -0.0914(2) 0.28633(15)
H10 H 1.1346 -0.1201 0.2489
H11 H 0.9743 -0.1706 0.2887
H12 H 1.0348 -0.0794 0.3503
C18 C 0.9438(3) 0.2737(2) 0.31479(14)
H13 H 1.0666 0.1944 0.3150
C19 C 0.8868(3) 0.3562(2) 0.22200(15)
H14 H 0.7614 0.3870 0.2108
H15 H 0.9717 0.3270 0.1660
C20 C 0.9273(3) 0.4356(2) 0.29143(15)
H16 H 0.8269 0.5145 0.3232
H17 H 1.0376 0.4544 0.2784
C21 C 0.7616(4) -0.5684(3) -0.07327(18)
F2 F 0.8367(4) -0.55137(19) -0.00438(14)
F3 F 0.6607(3) -0.6441(2) -0.03438(17)
F4 F 0.8887(2) -0.66329(18) -0.12638(12)
C22 C 0.6540(3) -0.4190(3) -0.12915(16)
O4 O 0.6699(2) -0.30498(17) -0.11070(11)
O5 O 0.5627(2) -0.4291(2) -0.18601(13)
loop_
_geom_bond_atom_site_label_1
_geom_bond_atom_site_label_2
_geom_bond_site_symmetry_1
_geom_bond_site_symmetry_2
S1 N1 1_555 1_555
F1 C6 1_555 1_555
O1 H1 1_555 1_555
O2 C3 1_555 1_555
O3 C8 1_555 1_555
N1 C1 1_555 1_555
N2 C9 1_555 1_555
N3 H2 1_555 1_555
C1 O1 1_555 1_555
C2 C1 1_555 1_555
C3 C2 1_555 1_555
C4 C3 1_555 1_555
C5 C4 1_555 1_555
H3 C5 1_555 1_555
C6 C5 1_555 1_555
C7 C6 1_555 1_555
C8 C7 1_555 1_555
C9 C4 1_555 1_555
C10 S1 1_555 1_555
C11 C7 1_555 1_555
C12 C11 1_555 1_555
H4 C12 1_555 1_555
C13 N3 1_555 1_555
C14 N3 1_555 1_555
H5 C14 1_555 1_555
C15 C11 1_555 1_555
H6 C15 1_555 1_555
C16 C13 1_555 1_555
H7 C16 1_555 1_555
H8 C16 1_555 1_555
H9 C16 1_555 1_555
C17 O3 1_555 1_555
H10 C17 1_555 1_555
H11 C17 1_555 1_555
H12 C17 1_555 1_555
C18 N2 1_555 1_555
H13 C18 1_555 1_555
C19 C18 1_555 1_555
H14 C19 1_555 1_555
H15 C19 1_555 1_555
C20 C18 1_555 1_555
H16 C20 1_555 1_555
H17 C20 1_555 1_555
C21 F2 1_555 1_555
F3 C21 1_555 1_555
F4 C21 1_555 1_555
C22 C21 1_555 1_555
O4 C22 1_555 1_555
O5 C22 1_555 1_555
N2 C10 1_555 1_555
C2 C10 1_555 1_555
C8 C9 1_555 1_555
C12 C13 1_555 1_555
C14 C15 1_555 1_555
C19 C20 1_555 1_555

#END
