
#######################################################################
#
#                 Cambridge Crystallographic Data Centre
#                                CCDC 
#
#######################################################################
#
# If this CIF has been generated from an entry in the Cambridge 
# Structural Database, then it will include bibliographic, chemical, 
# crystal, experimental, refinement or atomic coordinate data resulting 
# from the CCDC's data processing and validation procedures.
#
#######################################################################

data_ODIQUQ
_chemical_formula_moiety         'C35 H34 N2 O2 S1'
_chemical_name_systematic        
N-benzyl-N-[3-(1,3-dimethyl-1H-indol-2-yl)-2-methyl-4-phenylbuta-1,3-dien-1-yl]-4-methylbenzene-1-sulfonamide
_symmetry_cell_setting           monoclinic
_symmetry_space_group_name_H-M   'P 21/c'
_symmetry_Int_Tables_number      14
_space_group_name_Hall           '-P 2ybc'
loop_
_symmetry_equiv_pos_site_id
_symmetry_equiv_pos_as_xyz
1 x,y,z
2 -x,1/2+y,1/2-z
3 -x,-y,-z
4 x,1/2-y,1/2+z
_cell_length_a                   9.7451(4)
_cell_length_b                   14.2850(6)
_cell_length_c                   21.1457(7)
_cell_angle_alpha                90
_cell_angle_beta                 90
_cell_angle_gamma                90
_cell_volume                     2943.67
_exptl_crystal_colour            colorless
_exptl_crystal_description       Block
_cell_formula_units_Z            4
loop_
_atom_site_label
_atom_site_type_symbol
_atom_site_fract_x
_atom_site_fract_y
_atom_site_fract_z
N1 N 0.6590(2) 0.33296(16) 0.04122(10)
C1 C 0.6362(3) 0.2371(2) 0.04123(13)
C2 C 0.6096(3) 0.2076(2) -0.01942(13)
C3 C 0.6187(3) 0.2884(2) -0.05868(13)
C4 C 0.6079(3) 0.3035(2) -0.12454(14)
H1 H 0.5911 0.2533 -0.1522
C5 C 0.6224(3) 0.3932(3) -0.14719(15)
H2 H 0.6145 0.4040 -0.1909
C6 C 0.6484(3) 0.4681(2) -0.10707(16)
H3 H 0.6581 0.5285 -0.1242
C7 C 0.6602(3) 0.4559(2) -0.04316(15)
H4 H 0.6764 0.5068 -0.0160
C8 C 0.6472(3) 0.3654(2) -0.01988(13)
C9 C 0.6735(4) 0.3915(2) 0.09708(14)
H5 H 0.6211 0.3647 0.1316
H6 H 0.6396 0.4539 0.0879
H7 H 0.7695 0.3949 0.1089
C10 C 0.5780(4) 0.1108(2) -0.04161(17)
H8 H 0.6069 0.0660 -0.0098
H9 H 0.6266 0.0987 -0.0808
H10 H 0.4801 0.1048 -0.0486
C11 C 0.6560(3) 0.1796(2) 0.09834(12)
C12 C 0.5557(3) 0.1215(2) 0.11692(14)
H11 H 0.4703 0.1316 0.0974
C13 C 0.5585(3) 0.0445(2) 0.16304(13)
C14 C 0.6721(3) -0.0121(2) 0.17320(15)
H12 H 0.7544 0.0011 0.1517
C15 C 0.6672(4) -0.0873(2) 0.21404(16)
H13 H 0.7458 -0.1243 0.2203
C16 C 0.5475(4) -0.1084(2) 0.24568(15)
H14 H 0.5441 -0.1592 0.2739
C17 C 0.4342(3) -0.0547(2) 0.23555(14)
H15 H 0.3518 -0.0697 0.2564
C18 C 0.4381(3) 0.0213(2) 0.19526(14)
H16 H 0.3588 0.0579 0.1895
C19 C 0.7940(3) 0.18644(18) 0.12872(12)
C20 C 0.8036(3) 0.1971(2) 0.19940(12)
H17 H 0.8989 0.1933 0.2123
H18 H 0.7517 0.1475 0.2197
H19 H 0.7663 0.2573 0.2117
C21 C 0.9030(3) 0.18724(18) 0.09105(12)
H20 H 0.8878 0.1849 0.0472
N2 N 1.0426(2) 0.19151(15) 0.11284(10)
C22 C 1.1277(3) 0.11541(19) 0.08634(13)
H21 H 1.2245 0.1281 0.0956
H22 H 1.1166 0.1141 0.0403
C23 C 1.0896(3) 0.02175(19) 0.11295(12)
C24 C 1.0812(4) -0.0552(2) 0.07462(15)
H23 H 1.0923 -0.0480 0.0307
C25 C 1.0570(5) -0.1427(3) 0.09890(17)
H24 H 1.0527 -0.1948 0.0718
C26 C 1.0389(4) -0.1541(2) 0.16269(18)
H25 H 1.0223 -0.2140 0.1794
C27 C 1.0451(3) -0.0781(2) 0.20197(15)
H26 H 1.0328 -0.0859 0.2457
C28 C 1.0694(3) 0.0097(2) 0.17749(13)
H27 H 1.0722 0.0618 0.2046
S1 S 1.11427(7) 0.29664(5) 0.11192(3)
O1 O 1.2486(2) 0.28498(16) 0.13795(10)
O2 O 1.0186(2) 0.35876(14) 0.14072(9)
C29 C 1.1301(3) 0.32684(18) 0.03182(13)
C30 C 1.2471(3) 0.3029(2) -0.00157(15)
H28 H 1.3204 0.2725 0.0188
C31 C 1.2546(4) 0.3242(2) -0.06518(16)
H29 H 1.3339 0.3078 -0.0879
C32 C 1.1485(4) 0.3691(2) -0.09645(14)
C33 C 1.0335(4) 0.3922(2) -0.06221(14)
H30 H 0.9605 0.4229 -0.0826
C34 C 1.0223(3) 0.3716(2) 0.00137(14)
H31 H 0.9425 0.3876 0.0238
C35 C 1.1603(5) 0.3921(3) -0.16569(16)
H32 H 1.2412 0.4303 -0.1727
H33 H 1.0794 0.4263 -0.1792
H34 H 1.1679 0.3346 -0.1899
loop_
_geom_bond_atom_site_label_1
_geom_bond_atom_site_label_2
_geom_bond_site_symmetry_1
_geom_bond_site_symmetry_2
N1 C1 1_555 1_555
C1 C2 1_555 1_555
C2 C3 1_555 1_555
C3 C4 1_555 1_555
C4 H1 1_555 1_555
C5 C4 1_555 1_555
H2 C5 1_555 1_555
C6 C5 1_555 1_555
H3 C6 1_555 1_555
C7 C6 1_555 1_555
H4 C7 1_555 1_555
C8 N1 1_555 1_555
C9 N1 1_555 1_555
H5 C9 1_555 1_555
H6 C9 1_555 1_555
H7 C9 1_555 1_555
C10 C2 1_555 1_555
H8 C10 1_555 1_555
H9 C10 1_555 1_555
H10 C10 1_555 1_555
C11 C1 1_555 1_555
C12 C11 1_555 1_555
H11 C12 1_555 1_555
C13 C12 1_555 1_555
C14 C13 1_555 1_555
H12 C14 1_555 1_555
C15 C14 1_555 1_555
H13 C15 1_555 1_555
C16 C15 1_555 1_555
H14 C16 1_555 1_555
C17 C16 1_555 1_555
H15 C17 1_555 1_555
C18 C13 1_555 1_555
H16 C18 1_555 1_555
C19 C11 1_555 1_555
C20 C19 1_555 1_555
H17 C20 1_555 1_555
H18 C20 1_555 1_555
H19 C20 1_555 1_555
C21 C19 1_555 1_555
H20 C21 1_555 1_555
N2 C21 1_555 1_555
C22 N2 1_555 1_555
H21 C22 1_555 1_555
H22 C22 1_555 1_555
C23 C22 1_555 1_555
C24 C23 1_555 1_555
H23 C24 1_555 1_555
C25 C24 1_555 1_555
H24 C25 1_555 1_555
C26 C25 1_555 1_555
H25 C26 1_555 1_555
C27 C26 1_555 1_555
H26 C27 1_555 1_555
C28 C23 1_555 1_555
H27 C28 1_555 1_555
S1 N2 1_555 1_555
O1 S1 1_555 1_555
O2 S1 1_555 1_555
C29 S1 1_555 1_555
C30 C29 1_555 1_555
H28 C30 1_555 1_555
C31 C30 1_555 1_555
H29 C31 1_555 1_555
C32 C31 1_555 1_555
C33 C32 1_555 1_555
H30 C33 1_555 1_555
C34 C29 1_555 1_555
H31 C34 1_555 1_555
C35 C32 1_555 1_555
H32 C35 1_555 1_555
H33 C35 1_555 1_555
H34 C35 1_555 1_555
C3 C8 1_555 1_555
C7 C8 1_555 1_555
C17 C18 1_555 1_555
C27 C28 1_555 1_555
C33 C34 1_555 1_555

#END
