
#######################################################################
#
#                 Cambridge Crystallographic Data Centre
#                                CCDC 
#
#######################################################################
#
# If this CIF has been generated from an entry in the Cambridge 
# Structural Database, then it will include bibliographic, chemical, 
# crystal, experimental, refinement or atomic coordinate data resulting 
# from the CCDC's data processing and validation procedures.
#
#######################################################################

data_ODIRUR
_chemical_formula_moiety         'C29 H29 N3 O4 S1,0.5(C1 H2 Cl2),H2 O1'
_chemical_name_systematic        
'N-{1-[3,7b-dimethyl-1-(4-methylphenyl)-3,7b-dihydro-2aH-cyclobuta[b]indol-2-yl]-2-(4-nitrophenyl)ethenyl}-N-methylmethanesulfonamide dichloromethane solvate monohydrate'
_symmetry_cell_setting           triclinic
_symmetry_space_group_name_H-M   'P -1'
_symmetry_Int_Tables_number      2
_space_group_name_Hall           '-P 1'
loop_
_symmetry_equiv_pos_site_id
_symmetry_equiv_pos_as_xyz
1 x,y,z
2 -x,-y,-z
_cell_length_a                   8.9637(2)
_cell_length_b                   9.6349(2)
_cell_length_c                   17.4132(3)
_cell_angle_alpha                89.4190(10)
_cell_angle_beta                 79.1960(10)
_cell_angle_gamma                88.9490(10)
_cell_volume                     1476.94
_exptl_crystal_colour            colorless
_exptl_crystal_description       block
_cell_formula_units_Z            2
loop_
_atom_site_label
_atom_site_type_symbol
_atom_site_fract_x
_atom_site_fract_y
_atom_site_fract_z
O5 O 0.5059(5) 1.0801(4) 0.0782(3)
H30 H 0.4440 1.0581 0.0498
H31 H 0.5938 1.0537 0.0571
S1 S 0.73146(10) 0.57797(10) 0.04379(5)
N1 N 0.5653(4) 0.8328(3) 0.2740(2)
N2 N 0.2109(4) 0.2853(4) 0.5131(2)
N3 N 0.7541(3) 0.5595(4) 0.13489(18)
O1 O 0.5833(3) 0.6360(3) 0.04476(16)
O2 O 0.8612(3) 0.6501(3) 0.00408(17)
O3 O 0.1736(5) 0.3797(4) 0.5596(3)
O4 O 0.1625(4) 0.1684(4) 0.5244(2)
C1 C 0.1884(4) 0.8111(4) 0.3898(2)
H1 H 0.0890 0.7974 0.3801
C2 C 0.2104(5) 0.8397(4) 0.4652(3)
H2 H 0.1259 0.8457 0.5071
C3 C 0.3554(5) 0.8594(4) 0.4787(3)
H3 H 0.3693 0.8748 0.5307
C4 C 0.4813(5) 0.8573(4) 0.4187(3)
H4 H 0.5802 0.8731 0.4287
C5 C 0.4584(4) 0.8315(3) 0.3438(2)
C6 C 0.7261(5) 0.8199(5) 0.2739(3)
H5 H 0.7823 0.8231 0.2199
H6 H 0.7577 0.8966 0.3034
H7 H 0.7475 0.7314 0.2981
C7 C 0.4993(4) 0.7713(4) 0.2121(2)
H8 H 0.5260 0.8189 0.1602
C8 C 0.4998(4) 0.6143(4) 0.20833(19)
C9 C 0.3484(4) 0.6038(3) 0.23256(19)
C10 C 0.3235(4) 0.7613(3) 0.2450(2)
C11 C 0.3126(4) 0.8030(3) 0.3296(2)
C12 C 0.2114(5) 0.8329(4) 0.2015(3)
H9 H 0.2278 0.7990 0.1476
H10 H 0.1075 0.8125 0.2277
H11 H 0.2266 0.9334 0.2010
C13 C 0.2413(4) 0.4893(3) 0.24557(19)
C14 C 0.1212(4) 0.4887(4) 0.3093(2)
H12 H 0.1051 0.5665 0.3431
C15 C 0.0249(4) 0.3770(4) 0.3243(2)
H13 H -0.0549 0.3785 0.3687
C16 C 0.0437(4) 0.2627(4) 0.2751(2)
C17 C 0.1597(4) 0.2658(4) 0.2098(2)
H14 H 0.1715 0.1905 0.1743
C18 C 0.2580(4) 0.3756(4) 0.1953(2)
H15 H 0.3375 0.3739 0.1507
C19 C -0.0590(5) 0.1392(4) 0.2929(3)
H16 H -0.0295 0.0689 0.2524
H17 H -0.0494 0.0997 0.3439
H18 H -0.1645 0.1689 0.2940
C20 C 0.6282(4) 0.5153(4) 0.1938(2)
C21 C 0.6407(4) 0.4013(4) 0.2363(2)
H19 H 0.7227 0.3385 0.2186
C22 C 0.5344(4) 0.3670(4) 0.3095(2)
C23 C 0.4976(4) 0.4669(4) 0.3681(2)
H20 H 0.5471 0.5537 0.3619
C24 C 0.3912(4) 0.4418(4) 0.4342(2)
H21 H 0.3645 0.5112 0.4729
C25 C 0.3238(4) 0.3131(4) 0.4432(2)
C26 C 0.3616(4) 0.2089(4) 0.3884(2)
H22 H 0.3159 0.1205 0.3965
C27 C 0.4677(4) 0.2368(4) 0.3212(2)
H23 H 0.4951 0.1667 0.2829
C28 C 0.9090(4) 0.5204(6) 0.1450(3)
H24 H 0.9828 0.5570 0.1010
H25 H 0.9283 0.5591 0.1940
H26 H 0.9191 0.4190 0.1466
C29 C 0.7374(5) 0.4112(5) 0.0055(3)
H27 H 0.6489 0.3597 0.0320
H28 H 0.7359 0.4170 -0.0506
H29 H 0.8306 0.3631 0.0135
Cl1? Cl -0.0668(8) 0.0264(6) 0.0801(2)
C30? C -0.061(2) -0.010(2) -0.0126(10)
H32? H -0.0644 0.0442 -0.0588
H33? H -0.0535 -0.1114 -0.0008
loop_
_geom_bond_atom_site_label_1
_geom_bond_atom_site_label_2
_geom_bond_site_symmetry_1
_geom_bond_site_symmetry_2
S1 N3 1_555 1_555
N1 C5 1_555 1_555
N2 O3 1_555 1_555
N3 C20 1_555 1_555
O1 S1 1_555 1_555
O2 S1 1_555 1_555
O4 N2 1_555 1_555
C1 H1 1_555 1_555
C2 C1 1_555 1_555
H2 C2 1_555 1_555
C3 C2 1_555 1_555
H3 C3 1_555 1_555
C4 C3 1_555 1_555
H4 C4 1_555 1_555
C5 C4 1_555 1_555
C6 N1 1_555 1_555
H5 C6 1_555 1_555
H6 C6 1_555 1_555
H7 C6 1_555 1_555
C7 N1 1_555 1_555
H8 C7 1_555 1_555
C8 C7 1_555 1_555
C9 C8 1_555 1_555
C10 C7 1_555 1_555
C11 C1 1_555 1_555
C12 C10 1_555 1_555
H9 C12 1_555 1_555
H10 C12 1_555 1_555
H11 C12 1_555 1_555
C13 C9 1_555 1_555
C14 C13 1_555 1_555
H12 C14 1_555 1_555
C15 C14 1_555 1_555
H13 C15 1_555 1_555
C16 C15 1_555 1_555
C17 C16 1_555 1_555
H14 C17 1_555 1_555
C18 C13 1_555 1_555
H15 C18 1_555 1_555
C19 C16 1_555 1_555
H16 C19 1_555 1_555
H17 C19 1_555 1_555
H18 C19 1_555 1_555
C20 C8 1_555 1_555
C21 C20 1_555 1_555
H19 C21 1_555 1_555
C22 C21 1_555 1_555
C23 C22 1_555 1_555
H20 C23 1_555 1_555
C24 C23 1_555 1_555
H21 C24 1_555 1_555
C25 N2 1_555 1_555
C26 C25 1_555 1_555
H22 C26 1_555 1_555
C27 C22 1_555 1_555
H23 C27 1_555 1_555
C28 N3 1_555 1_555
H24 C28 1_555 1_555
H25 C28 1_555 1_555
H26 C28 1_555 1_555
C29 S1 1_555 1_555
H27 C29 1_555 1_555
H28 C29 1_555 1_555
H29 C29 1_555 1_555
O5 H30 1_555 1_555
H31 O5 1_555 1_555
C5 C11 1_555 1_555
C9 C10 1_555 1_555
C10 C11 1_555 1_555
C17 C18 1_555 1_555
C24 C25 1_555 1_555
C26 C27 1_555 1_555

#END
