
#######################################################################
#
#                 Cambridge Crystallographic Data Centre
#                                CCDC 
#
#######################################################################
#
# If this CIF has been generated from an entry in the Cambridge 
# Structural Database, then it will include bibliographic, chemical, 
# crystal, experimental, refinement or atomic coordinate data resulting 
# from the CCDC's data processing and validation procedures.
#
#######################################################################

data_ODIVUV
_chemical_name_common            
'1$3!,1$4!,1$5!,1$6!,3$3!,3$4!,3$5!,3$6!-octaphenyl-1(1,2),3(1,2)-dibenzena-2(2,7)-pyrenacycloheptaphane chloroform solvate'
_chemical_formula_moiety         'C80 H56,2.5(C1 H1 Cl3)'
_chemical_name_systematic        
'3,4,5,6,13,14,15,16-octaphenylheptacyclo[21.7.1.1^18,26^.0^2,7^.0^12,17^.0^20,25^.0^24,29^]dotriaconta-1(31),2,4,6,12,14,16,18,20,22,24,26(32),27,29-tetradecaene chloroform solvate'
_symmetry_cell_setting           triclinic
_symmetry_space_group_name_H-M   'P -1'
_symmetry_Int_Tables_number      2
_space_group_name_Hall           '-P 1'
loop_
_symmetry_equiv_pos_site_id
_symmetry_equiv_pos_as_xyz
1 x,y,z
2 -x,-y,-z
_cell_length_a                   14.188(7)
_cell_length_b                   16.328(9)
_cell_length_c                   17.624(9)
_cell_angle_alpha                109.950(12)
_cell_angle_beta                 101.379(1)
_cell_angle_gamma                105.126(10)
_cell_volume                     3515.56
_exptl_crystal_colour            colorless
_exptl_crystal_description       prism
_cell_formula_units_Z            2
loop_
_atom_site_label
_atom_site_type_symbol
_atom_site_fract_x
_atom_site_fract_y
_atom_site_fract_z
C1 C 0.4258(2) 0.0522(2) 0.6790(2)
C2 C 0.3308(2) 0.0260(2) 0.6930(2)
H1 H 0.3231 0.0585 0.7461
C3 C 0.2472(2) -0.0487(2) 0.6276(2)
C4 C 0.1429(2) -0.0605(2) 0.6278(2)
H2 H 0.1282 -0.0430 0.6801
C5 C 0.0660(2) -0.0964(2) 0.5533(2)
H3 H -0.0026 -0.1032 0.5532
C6 C 0.0888(2) -0.1245(2) 0.4738(2)
C7 C 0.0316(2) -0.1179(2) 0.4032(2)
H4 H -0.0322 -0.1092 0.4020
C8 C 0.0682(2) -0.1241(2) 0.3353(2)
C9 C 0.1449(2) -0.1615(2) 0.3255(2)
H5 H 0.1566 -0.1825 0.2720
C10 C 0.2045(2) -0.1678(2) 0.3949(2)
C11 C 0.3033(3) -0.1788(2) 0.3964(2)
H6 H 0.3130 -0.2143 0.3452
C12 C 0.3803(2) -0.1390(2) 0.4697(2)
H7 H 0.4449 -0.1458 0.4701
C13 C 0.3668(2) -0.0864(2) 0.5476(2)
C14 C 0.4455(2) -0.0089(2) 0.6138(2)
H8 H 0.5146 0.0019 0.6137
C15 C 0.2644(2) -0.0981(2) 0.5512(2)
C16 C 0.1821(2) -0.1379(2) 0.4731(2)
C17 C 0.3574(2) 0.1814(2) 0.6216(2)
H9 H 0.3069 0.1418 0.6379
H10 H 0.3405 0.2381 0.6287
C18 C 0.3408(2) 0.1284(2) 0.5267(2)
H11 H 0.3885 0.1678 0.5083
H12 H 0.3572 0.0712 0.5179
C19 C 0.2302(2) 0.1016(2) 0.4719(2)
H13 H 0.2113 0.1579 0.4847
H14 H 0.1829 0.0570 0.4862
C20 C 0.2176(2) 0.0571(2) 0.3765(2)
H15 H 0.2641 0.1039 0.3639
H16 H 0.2427 0.0044 0.3666
C21 C 0.4940(2) 0.1535(2) 0.7210(2)
C22 C 0.5856(2) 0.1874(2) 0.7886(2)
C23 C 0.6497(2) 0.2812(2) 0.8209(2)
C24 C 0.6262(2) 0.3378(2) 0.7821(2)
C25 C 0.5331(2) 0.3040(2) 0.7155(2)
C26 C 0.4644(2) 0.2115(2) 0.6854(2)
C27 C 0.6145(2) 0.1228(2) 0.8233(2)
C28 C 0.6744(4) 0.0770(3) 0.7915(3)
H17 H 0.6950 0.0848 0.7456
C29 C 0.7065(4) 0.0191(4) 0.8238(3)
H18 H 0.7482 -0.0124 0.7998
C30 C 0.6786(3) 0.0074(3) 0.8895(3)
H19 H 0.7001 -0.0323 0.9120
C31 C 0.6194(4) 0.0533(4) 0.9226(3)
H20 H 0.5997 0.0459 0.9690
C32 C 0.5869(4) 0.1113(3) 0.8899(3)
H21 H 0.5454 0.1430 0.9140
C33 C 0.7433(3) 0.3205(2) 0.8976(2)
C34 C 0.8420(3) 0.3434(2) 0.8917(2)
H22 H 0.8519 0.3313 0.8377
C35 C 0.9268(3) 0.3841(3) 0.9652(3)
H23 H 0.9943 0.3985 0.9610
C36 C 0.9133(3) 0.4033(3) 1.0428(3)
H24 H 0.9716 0.4328 1.0926
C37 C 0.8169(4) 0.3806(3) 1.0499(2)
H25 H 0.8079 0.3928 1.1041
C38 C 0.7310(3) 0.3392(3) 0.9764(2)
H26 H 0.6637 0.3240 0.9812
C39 C 0.6992(2) 0.4356(2) 0.8113(2)
C40 C 0.7164(3) 0.5024(2) 0.8918(2)
H27 H 0.6817 0.4869 0.9287
C41 C 0.7854(4) 0.5928(3) 0.9177(3)
H28 H 0.7972 0.6389 0.9725
C42 C 0.8363(3) 0.6159(3) 0.8652(3)
H29 H 0.8832 0.6776 0.8836
C43 C 0.8192(3) 0.5496(3) 0.7860(3)
H30 H 0.8539 0.5655 0.7492
C44 C 0.7507(3) 0.4584(3) 0.7591(2)
H31 H 0.7400 0.4124 0.7045
C45 C 0.5061(2) 0.3697(2) 0.6804(2)
C46 C 0.4815(3) 0.4433(3) 0.7300(3)
H32 H 0.4833 0.4530 0.7867
C47 C 0.4544(3) 0.5021(3) 0.6956(4)
H33 H 0.4380 0.5525 0.7292
C48 C 0.4511(3) 0.4878(4) 0.6129(5)
H34 H 0.4306 0.5272 0.5893
C49 C 0.4771(3) 0.4178(3) 0.5657(3)
H35 H 0.4759 0.4089 0.5094
C50 C 0.5055(3) 0.3584(3) 0.5990(2)
H36 H 0.5246 0.3100 0.5654
C51 C 0.0420(2) -0.0712(2) 0.2841(2)
C52 C -0.0511(2) -0.1077(2) 0.2182(2)
C53 C -0.0761(3) -0.0513(2) 0.1786(2)
C54 C -0.0108(3) 0.0407(2) 0.2064(2)
C55 C 0.0832(2) 0.0761(2) 0.2723(2)
C56 C 0.1113(2) 0.0207(2) 0.3112(2)
C57 C -0.1203(3) -0.2050(2) 0.1936(2)
C58 C -0.2126(4) -0.2228(3) 0.2098(3)
H37 H -0.2344 -0.1727 0.2352
C59 C -0.2737(5) -0.3128(3) 0.1895(4)
H38 H -0.3368 -0.3237 0.2019
C60 C -0.2459(5) -0.3862(3) 0.1522(3)
H39 H -0.2895 -0.4480 0.1381
C61 C -0.1542(4) -0.3705(3) 0.1351(3)
H40 H -0.1332 -0.4210 0.1092
C62 C -0.0924(3) -0.2788(3) 0.1563(2)
H41 H -0.0291 -0.2677 0.1443
C63 C -0.1761(3) -0.0902(2) 0.1081(2)
C64 C -0.2501(3) -0.0487(3) 0.1174(2)
H42 H -0.2364 0.0048 0.1677
C65 C -0.3443(3) -0.0858(3) 0.0526(3)
H43 H -0.3953 -0.0586 0.0593
C66 C -0.3625(4) -0.1622(4) -0.0210(3)
H44 H -0.4260 -0.1872 -0.0653
C67 C -0.2898(4) -0.2021(3) -0.0306(3)
H45 H -0.3030 -0.2548 -0.0815
C68 C -0.1961(3) -0.1659(3) 0.0339(2)
H46 H -0.1457 -0.1939 0.0265
C69 C -0.0365(3) 0.0987(3) 0.1623(3)
C70 C -0.0544(4) 0.1768(4) 0.2013(6)
H47 H -0.0482 0.1991 0.2600
C71 C -0.0836(6) 0.2268(6) 0.1511(10)
H48 H -0.0963 0.2826 0.1768
C72 C -0.0923(7) 0.1920(8) 0.0674(10)
H49 H -0.1140 0.2232 0.0345
C73 C -0.0719(5) 0.1160(8) 0.0290(6)
H50 H -0.0755 0.0951 -0.0292
C74 C -0.0454(4) 0.0686(5) 0.0759(4)
H51 H -0.0327 0.0133 0.0486
C75 C 0.1530(3) 0.1741(2) 0.2996(2)
C76 C 0.1602(3) 0.2429(3) 0.3740(3)
H52 H 0.1206 0.2279 0.4082
C77 C 0.2249(3) 0.3348(3) 0.4005(3)
H53 H 0.2290 0.3820 0.4522
C78 C 0.2822(3) 0.3565(3) 0.3515(3)
H54 H 0.3271 0.4187 0.3693
C79 C 0.2751(3) 0.2894(3) 0.2779(3)
H55 H 0.3147 0.3050 0.2439
C80 C 0.2109(3) 0.1981(3) 0.2511(3)
H56 H 0.2068 0.1517 0.1989
C81? C 0.4480(8) 0.3777(6) 0.9954(5)
H57? H 0.3737 0.3594 0.9917
Cl1? Cl 0.4903(34) 0.4891(15) 0.9954(31)
Cl2? Cl 0.4631(2) 0.2957(2) 0.9081(2)
Cl3? Cl 0.5207(2) 0.3820(2) 1.0904(2)
loop_
_geom_bond_atom_site_label_1
_geom_bond_atom_site_label_2
_geom_bond_site_symmetry_1
_geom_bond_site_symmetry_2
C1 C2 1_555 1_555
C2 H1 1_555 1_555
C3 C2 1_555 1_555
C4 C3 1_555 1_555
H2 C4 1_555 1_555
C5 C4 1_555 1_555
H3 C5 1_555 1_555
C6 C5 1_555 1_555
C7 C6 1_555 1_555
H4 C7 1_555 1_555
C8 C7 1_555 1_555
C9 C8 1_555 1_555
H5 C9 1_555 1_555
C10 C9 1_555 1_555
C11 C10 1_555 1_555
H6 C11 1_555 1_555
C12 C11 1_555 1_555
H7 C12 1_555 1_555
C13 C12 1_555 1_555
C14 C1 1_555 1_555
H8 C14 1_555 1_555
C15 C3 1_555 1_555
C16 C6 1_555 1_555
C17 H9 1_555 1_555
H10 C17 1_555 1_555
C18 C17 1_555 1_555
H11 C18 1_555 1_555
H12 C18 1_555 1_555
C19 C18 1_555 1_555
H13 C19 1_555 1_555
H14 C19 1_555 1_555
C20 C19 1_555 1_555
H15 C20 1_555 1_555
H16 C20 1_555 1_555
C21 C1 1_555 1_555
C22 C21 1_555 1_555
C23 C22 1_555 1_555
C24 C23 1_555 1_555
C25 C24 1_555 1_555
C26 C17 1_555 1_555
C27 C22 1_555 1_555
C28 C27 1_555 1_555
H17 C28 1_555 1_555
C29 C28 1_555 1_555
H18 C29 1_555 1_555
C30 C29 1_555 1_555
H19 C30 1_555 1_555
C31 C30 1_555 1_555
H20 C31 1_555 1_555
C32 C27 1_555 1_555
H21 C32 1_555 1_555
C33 C23 1_555 1_555
C34 C33 1_555 1_555
H22 C34 1_555 1_555
C35 C34 1_555 1_555
H23 C35 1_555 1_555
C36 C35 1_555 1_555
H24 C36 1_555 1_555
C37 C36 1_555 1_555
H25 C37 1_555 1_555
C38 C33 1_555 1_555
H26 C38 1_555 1_555
C39 C24 1_555 1_555
C40 C39 1_555 1_555
H27 C40 1_555 1_555
C41 C40 1_555 1_555
H28 C41 1_555 1_555
C42 C41 1_555 1_555
H29 C42 1_555 1_555
C43 C42 1_555 1_555
H30 C43 1_555 1_555
C44 C39 1_555 1_555
H31 C44 1_555 1_555
C45 C25 1_555 1_555
C46 C45 1_555 1_555
H32 C46 1_555 1_555
C47 C46 1_555 1_555
H33 C47 1_555 1_555
C48 C47 1_555 1_555
H34 C48 1_555 1_555
C49 C48 1_555 1_555
H35 C49 1_555 1_555
C50 C45 1_555 1_555
H36 C50 1_555 1_555
C51 C8 1_555 1_555
C52 C51 1_555 1_555
C53 C52 1_555 1_555
C54 C53 1_555 1_555
C55 C54 1_555 1_555
C56 C20 1_555 1_555
C57 C52 1_555 1_555
C58 C57 1_555 1_555
H37 C58 1_555 1_555
C59 C58 1_555 1_555
H38 C59 1_555 1_555
C60 C59 1_555 1_555
H39 C60 1_555 1_555
C61 C60 1_555 1_555
H40 C61 1_555 1_555
C62 C57 1_555 1_555
H41 C62 1_555 1_555
C63 C53 1_555 1_555
C64 C63 1_555 1_555
H42 C64 1_555 1_555
C65 C64 1_555 1_555
H43 C65 1_555 1_555
C66 C65 1_555 1_555
H44 C66 1_555 1_555
C67 C66 1_555 1_555
H45 C67 1_555 1_555
C68 C63 1_555 1_555
H46 C68 1_555 1_555
C69 C54 1_555 1_555
C70 C69 1_555 1_555
H47 C70 1_555 1_555
C71 C70 1_555 1_555
H48 C71 1_555 1_555
C72 C71 1_555 1_555
H49 C72 1_555 1_555
C73 C72 1_555 1_555
H50 C73 1_555 1_555
C74 C69 1_555 1_555
H51 C74 1_555 1_555
C75 C55 1_555 1_555
C76 C75 1_555 1_555
H52 C76 1_555 1_555
C77 C76 1_555 1_555
H53 C77 1_555 1_555
C78 C77 1_555 1_555
H54 C78 1_555 1_555
C79 C78 1_555 1_555
H55 C79 1_555 1_555
C80 C75 1_555 1_555
H56 C80 1_555 1_555
C10 C16 1_555 1_555
C13 C14 1_555 1_555
C13 C15 1_555 1_555
C15 C16 1_555 1_555
C21 C26 1_555 1_555
C25 C26 1_555 1_555
C31 C32 1_555 1_555
C37 C38 1_555 1_555
C43 C44 1_555 1_555
C49 C50 1_555 1_555
C51 C56 1_555 1_555
C55 C56 1_555 1_555
C61 C62 1_555 1_555
C67 C68 1_555 1_555
C73 C74 1_555 1_555
C79 C80 1_555 1_555

#END
