
#######################################################################
#
#                 Cambridge Crystallographic Data Centre
#                                CCDC 
#
#######################################################################
#
# If this CIF has been generated from an entry in the Cambridge 
# Structural Database, then it will include bibliographic, chemical, 
# crystal, experimental, refinement or atomic coordinate data resulting 
# from the CCDC's data processing and validation procedures.
#
#######################################################################

data_ODIXEH
_chemical_compound_source        
'cultures of a marine sediment-derived Streptomyces sp.'
_chemical_name_common            'kiamycin B'
_chemical_formula_moiety         'C20 H22 O6'
_chemical_name_systematic        
3,6a,7-trihydroxy-8-methoxy-3-methyl-3,4,5,6,6a,7,12,12a-octahydro-6,12-epoxytetraphen-1(2H)-one
_chemical_properties_biological  
'tested for cytotoxic activity against eight human cancer cell lines'
_symmetry_cell_setting           triclinic
_symmetry_space_group_name_H-M   'P 1'
_symmetry_Int_Tables_number      1
_space_group_name_Hall           'P 1'
loop_
_symmetry_equiv_pos_site_id
_symmetry_equiv_pos_as_xyz
1 x,y,z
_cell_length_a                   5.8889(4)
_cell_length_b                   7.5266(5)
_cell_length_c                   9.3482(6)
_cell_angle_alpha                98.1440(10)
_cell_angle_beta                 94.7070(10)
_cell_angle_gamma                90.623(2)
_cell_volume                     408.676
_exptl_crystal_colour            colorless
_exptl_crystal_description       block
_cell_formula_units_Z            1
loop_
_atom_site_label
_atom_site_type_symbol
_atom_site_fract_x
_atom_site_fract_y
_atom_site_fract_z
O1 O 0.6491(4) 0.5381(3) 0.8135(2)
O2 O 0.0856(4) 1.0153(3) -0.1676(2)
H1 H 0.177(9) 0.994(7) -0.216(6)
O3 O 0.1876(4) 0.5269(3) 0.1001(2)
O4 O 0.2541(4) 0.9503(3) 0.5056(2)
H2 H 0.128(9) 0.913(6) 0.455(5)
O5 O 0.5990(4) 0.9011(3) 0.7319(2)
O6 O 0.8089(4) 0.8781(3) 0.3755(2)
C1 C -0.0951(6) 0.9727(5) 0.0408(3)
H3 H -0.1429 1.0975 0.0444
H4 H -0.0740 0.9425 0.1395
H5 H -0.2124 0.8928 -0.0160
C2 C 0.1273(5) 0.9502(4) -0.0297(3)
C3 C 0.1937(6) 0.7549(4) -0.0544(3)
H6 H 0.0687 0.6833 -0.1137
H7 H 0.3309 0.7437 -0.1092
C4 C 0.2423(5) 0.6805(4) 0.0865(3)
C5 C 0.3656(5) 0.8021(4) 0.2059(3)
C6 C 0.4565(5) 0.7210(4) 0.3381(3)
H8 H 0.3735 0.6070 0.3472
C7 C 0.4584(5) 0.8584(4) 0.4763(3)
C8 C 0.5294(5) 0.7667(4) 0.6105(3)
H9 H 0.3889 0.7065 0.6359
C9 C 0.7052(5) 0.6210(4) 0.5851(3)
C10 C 0.7634(5) 0.5109(4) 0.6914(3)
C11 C 0.6674(6) 0.3989(5) 0.9044(4)
H10 H 0.6427 0.2815 0.8443
H11 H 0.5522 0.4156 0.9748
H12 H 0.8196 0.4047 0.9560
C12 C 0.9300(6) 0.3812(4) 0.6687(3)
H13 H 0.9754 0.3113 0.7427
C13 C 1.0292(6) 0.3549(4) 0.5373(3)
H14 H 1.1444 0.2685 0.5227
C14 C 0.9608(5) 0.4542(4) 0.4273(3)
H15 H 1.0232 0.4320 0.3361
C15 C 0.7998(5) 0.5866(4) 0.4524(3)
C16 C 0.7139(5) 0.6963(4) 0.3371(3)
H16 H 0.7554 0.6413 0.2392
C17 C 0.6336(5) 0.9906(4) 0.4369(3)
H17 H 0.6970 1.0730 0.5248
C18 C 0.5298(6) 1.0972(4) 0.3204(3)
H18 H 0.4248 1.1868 0.3646
H19 H 0.6529 1.1628 0.2823
C19 C 0.4016(5) 0.9766(4) 0.1968(3)
C20 C 0.3181(5) 1.0605(4) 0.0645(3)
H20 H 0.4476 1.0736 0.0054
H21 H 0.2623 1.1821 0.0966
loop_
_geom_bond_atom_site_label_1
_geom_bond_atom_site_label_2
_geom_bond_site_symmetry_1
_geom_bond_site_symmetry_2
O1 C10 1_555 1_555
O2 H1 1_555 1_555
O3 C4 1_555 1_555
O4 H2 1_555 1_555
O5 C8 1_555 1_555
O6 C16 1_555 1_555
C1 H3 1_555 1_555
H4 C1 1_555 1_555
H5 C1 1_555 1_555
C2 O2 1_555 1_555
C3 C2 1_555 1_555
H6 C3 1_555 1_555
H7 C3 1_555 1_555
C4 C3 1_555 1_555
C5 C4 1_555 1_555
C6 C5 1_555 1_555
H8 C6 1_555 1_555
C7 O4 1_555 1_555
C8 C7 1_555 1_555
H9 C8 1_555 1_555
C9 C8 1_555 1_555
C10 C9 1_555 1_555
C11 O1 1_555 1_555
H10 C11 1_555 1_555
H11 C11 1_555 1_555
H12 C11 1_555 1_555
C12 C10 1_555 1_555
H13 C12 1_555 1_555
C13 C12 1_555 1_555
H14 C13 1_555 1_555
C14 C13 1_555 1_555
H15 C14 1_555 1_555
C15 C9 1_555 1_555
C16 C6 1_555 1_555
H16 C16 1_555 1_555
C17 O6 1_555 1_555
H17 C17 1_555 1_555
C18 C17 1_555 1_555
H18 C18 1_555 1_555
H19 C18 1_555 1_555
C19 C5 1_555 1_555
C20 C2 1_555 1_555
H20 C20 1_555 1_555
H21 C20 1_555 1_555
C1 C2 1_555 1_555
C6 C7 1_555 1_555
C7 C17 1_555 1_555
C14 C15 1_555 1_555
C15 C16 1_555 1_555
C18 C19 1_555 1_555
C19 C20 1_555 1_555

#END
