
#######################################################################
#
#                 Cambridge Crystallographic Data Centre
#                                CCDC 
#
#######################################################################
#
# If this CIF has been generated from an entry in the Cambridge 
# Structural Database, then it will include bibliographic, chemical, 
# crystal, experimental, refinement or atomic coordinate data resulting 
# from the CCDC's data processing and validation procedures.
#
#######################################################################

data_ODIZOS
_chemical_formula_moiety         'C8 H15 F2 N1 O3 S1'
_chemical_name_systematic        
2-Ammonio-2-cyclohexyl-1,1-difluoroethanesulfonate
_symmetry_cell_setting           monoclinic
_symmetry_space_group_name_H-M   'P 21'
_symmetry_Int_Tables_number      4
_space_group_name_Hall           'P 2yb'
loop_
_symmetry_equiv_pos_site_id
_symmetry_equiv_pos_as_xyz
1 x,y,z
2 -x,1/2+y,-z
_cell_length_a                   10.64010(10)
_cell_length_b                   8.68580(10)
_cell_length_c                   11.39120(10)
_cell_angle_alpha                90
_cell_angle_beta                 94.9000(10)
_cell_angle_gamma                90
_cell_volume                     1048.9
_exptl_crystal_colour            colorless
_exptl_crystal_description       prism
_cell_formula_units_Z            4
loop_
_atom_site_label
_atom_site_type_symbol
_atom_site_fract_x
_atom_site_fract_y
_atom_site_fract_z
C1 C 0.60729(6) 0.98592(8) 0.35332(6)
H1 H 0.6242 0.8819 0.3865
H2 H 0.6683 1.0055 0.2941
C2 C 0.62621(7) 1.10535(9) 0.45178(6)
H3 H 0.5716 1.0796 0.5152
H4 H 0.715 1.1029 0.4857
C3 C 0.59406(7) 1.26668(8) 0.40508(6)
H5 H 0.6528 1.2957 0.3459
H6 H 0.6042 1.3417 0.4706
C4 C 0.45841(7) 1.27192(7) 0.34874(5)
H7 H 0.4394 1.3766 0.3177
H8 H 0.3994 1.2491 0.4091
C5 C 0.43926(6) 1.15443(7) 0.24824(4)
H9 H 0.4932 1.1822 0.1849
H10 H 0.3503 1.1569 0.2149
C6 C 0.47273(5) 0.99117(6) 0.29303(4)
H11 H 0.4142 0.966 0.3545
C7 C 0.45560(4) 0.86451(5) 0.19759(4)
H12 H 0.5098 0.7753 0.2249
C8 C 0.31935(4) 0.80616(6) 0.17792(4)
F1 F 0.24105(3) 0.92392(4) 0.13956(3)
F2 F 0.28181(4) 0.75822(5) 0.28262(3)
N1 N 0.49888(4) 0.91852(5) 0.08309(4)
H13 H 0.4955 0.839 0.0309
H14 H 0.5796 0.9535 0.0948
H15 H 0.4479 0.996 0.0538
O1 O 0.35074(5) 0.51449(5) 0.12776(4)
O2 O 0.15294(4) 0.64221(6) 0.05685(4)
O3 O 0.34628(4) 0.70043(5) -0.03242(3)
S1 S 0.289951(11) 0.646891(14) 0.072542(10)
C9 C 0.06189(6) 0.65666(6) 0.75987(4)
H16 H 0.148 0.6269 0.7914
H17 H 0.0046 0.6405 0.8228
C10 C 0.02022(7) 0.55412(7) 0.65451(5)
H18 H 0.0828 0.5614 0.5952
H19 H 0.0171 0.4457 0.6808
C11 C -0.10899(6) 0.60137(7) 0.59831(5)
H20 H -0.1734 0.5832 0.6545
H21 H -0.131 0.5379 0.5273
C12 C -0.10883(6) 0.77152(7) 0.56411(5)
H22 H -0.1942 0.8012 0.5304
H23 H -0.0496 0.7874 0.5027
C13 C -0.07004(5) 0.87512(7) 0.67006(5)
H24 H -0.1326 0.8659 0.7292
H25 H -0.0681 0.9839 0.6442
C14 C 0.06097(5) 0.82780(5) 0.72562(4)
H26 H 0.1207 0.8395 0.663
C15 C 0.11477(4) 0.92458(5) 0.83204(4)
H27 H 0.196 0.8757 0.8631
C16 C 0.14393(4) 1.09234(5) 0.80180(4)
F3 F 0.03656(3) 1.17118(4) 0.76794(3)
F4 F 0.21711(4) 1.09374(5) 0.70981(3)
N2 N 0.02868(4) 0.92250(5) 0.92944(4)
H28 H 0.0711 0.9571 0.9971
H29 H 0.0015 0.8246 0.9403
H30 H -0.0388 0.9846 0.9101
O4 O 0.34884(3) 1.12948(5) 0.94289(4)
O5 O 0.14573(4) 1.18843(5) 1.01747(3)
O6 O 0.23393(4) 1.35935(5) 0.87531(4)
S2 S 0.226847(10) 1.204921(13) 0.921691(10)
loop_
_geom_bond_atom_site_label_1
_geom_bond_atom_site_label_2
_geom_bond_site_symmetry_1
_geom_bond_site_symmetry_2
C1 H1 1_555 1_555
H2 C1 1_555 1_555
C2 C1 1_555 1_555
H3 C2 1_555 1_555
H4 C2 1_555 1_555
C3 C2 1_555 1_555
H5 C3 1_555 1_555
H6 C3 1_555 1_555
C4 C3 1_555 1_555
H7 C4 1_555 1_555
H8 C4 1_555 1_555
C5 C4 1_555 1_555
H9 C5 1_555 1_555
H10 C5 1_555 1_555
C6 C1 1_555 1_555
H11 C6 1_555 1_555
C7 C6 1_555 1_555
H12 C7 1_555 1_555
C8 C7 1_555 1_555
F1 C8 1_555 1_555
F2 C8 1_555 1_555
N1 C7 1_555 1_555
H13 N1 1_555 1_555
H14 N1 1_555 1_555
H15 N1 1_555 1_555
O1 S1 1_555 1_555
O2 S1 1_555 1_555
O3 S1 1_555 1_555
S1 C8 1_555 1_555
C9 H16 1_555 1_555
H17 C9 1_555 1_555
C10 C9 1_555 1_555
H18 C10 1_555 1_555
H19 C10 1_555 1_555
C11 C10 1_555 1_555
H20 C11 1_555 1_555
H21 C11 1_555 1_555
C12 C11 1_555 1_555
H22 C12 1_555 1_555
H23 C12 1_555 1_555
C13 C12 1_555 1_555
H24 C13 1_555 1_555
H25 C13 1_555 1_555
C14 C9 1_555 1_555
H26 C14 1_555 1_555
C15 C14 1_555 1_555
H27 C15 1_555 1_555
C16 C15 1_555 1_555
F3 C16 1_555 1_555
F4 C16 1_555 1_555
N2 C15 1_555 1_555
H28 N2 1_555 1_555
H29 N2 1_555 1_555
H30 N2 1_555 1_555
O4 S2 1_555 1_555
O5 S2 1_555 1_555
O6 S2 1_555 1_555
S2 C16 1_555 1_555
C5 C6 1_555 1_555
C13 C14 1_555 1_555

#END
