
#######################################################################
#
#                 Cambridge Crystallographic Data Centre
#                                CCDC 
#
#######################################################################
#
# If this CIF has been generated from an entry in the Cambridge 
# Structural Database, then it will include bibliographic, chemical, 
# crystal, experimental, refinement or atomic coordinate data resulting 
# from the CCDC's data processing and validation procedures.
#
#######################################################################

data_ODIZIM
_chemical_formula_moiety         'C12 H18 F2 N2 O3 S2'
_chemical_name_systematic        
N-(1,1-Difluoro-1-(pyridin-2-ylsulfonyl)propan-2-yl)-2-methylpropane-2-sulfinamide
_symmetry_cell_setting           orthorhombic
_symmetry_space_group_name_H-M   'P 21 21 21'
_symmetry_Int_Tables_number      19
_space_group_name_Hall           'P 2ac 2ab'
loop_
_symmetry_equiv_pos_site_id
_symmetry_equiv_pos_as_xyz
1 x,y,z
2 1/2+x,1/2-y,-z
3 -x,1/2+y,1/2-z
4 1/2-x,-y,1/2+z
_cell_length_a                   9.8838(3)
_cell_length_b                   12.0752(4)
_cell_length_c                   12.8144(4)
_cell_angle_alpha                90
_cell_angle_beta                 90
_cell_angle_gamma                90
_cell_volume                     1529.38
_exptl_crystal_colour            colorless
_exptl_crystal_description       prism
_cell_formula_units_Z            4
loop_
_atom_site_label
_atom_site_type_symbol
_atom_site_fract_x
_atom_site_fract_y
_atom_site_fract_z
C1 C 0.92041(11) 0.48380(9) 0.60931(9)
C2 C 1.02947(13) 0.55618(10) 0.60680(10)
H1 H 1.1182 0.5329 0.6249
C3 C 1.00225(15) 0.66486(11) 0.57637(10)
H2 H 1.0729 0.7182 0.5736
C4 C 0.87097(15) 0.69412(11) 0.55028(11)
H3 H 0.8503 0.7676 0.5291
C5 C 0.76972(14) 0.61394(11) 0.55564(11)
H4 H 0.6798 0.6347 0.5383
C6 C 1.00043(13) 0.27190(10) 0.53360(10)
C7 C 0.99080(13) 0.14537(9) 0.53989(9)
H5 H 0.8962 0.1252 0.5599
C8 C 1.08669(15) 0.09732(11) 0.62103(10)
H6 H 1.0724 0.0172 0.6262
H7 H 1.069 0.1318 0.6889
H8 H 1.1804 0.112 0.6002
C9 C 0.93269(13) 0.05119(10) 0.24279(9)
C10 C 1.07369(13) 0.01058(11) 0.21425(10)
H9 H 1.0846 0.0122 0.1383
H10 H 1.0857 -0.0654 0.2395
H11 H 1.1415 0.0588 0.2467
C11 C 0.82416(14) -0.01551(12) 0.18453(11)
H12 H 0.8355 -0.0053 0.1092
H13 H 0.7342 0.0104 0.2055
H14 H 0.8335 -0.0942 0.2018
C12 C 0.91593(14) 0.17534(10) 0.22309(10)
H15 H 0.9908 0.2156 0.2559
H16 H 0.83 0.2005 0.253
H17 H 0.9162 0.1895 0.1478
F1 F 0.91792(9) 0.31080(6) 0.45760(6)
F2 F 1.12697(8) 0.30596(6) 0.51091(7)
N1 N 0.79338(11) 0.50900(9) 0.58404(9)
N2 N 1.01682(11) 0.10278(8) 0.43502(8)
H18 H 1.0927 0.1172 0.4017
O1 O 0.81869(10) 0.29663(8) 0.68272(8)
O2 O 1.05816(10) 0.34554(8) 0.72542(7)
O3 O 0.92293(11) -0.09435(7) 0.40113(8)
S1 S 0.94618(3) 0.34474(2) 0.65365(2)
S2 S 0.89611(3) 0.02594(2) 0.38208(2)
loop_
_geom_bond_atom_site_label_1
_geom_bond_atom_site_label_2
_geom_bond_site_symmetry_1
_geom_bond_site_symmetry_2
C1 C2 1_555 1_555
C2 H1 1_555 1_555
C3 C2 1_555 1_555
H2 C3 1_555 1_555
C4 C3 1_555 1_555
H3 C4 1_555 1_555
C5 C4 1_555 1_555
H4 C5 1_555 1_555
C6 C7 1_555 1_555
C7 H5 1_555 1_555
C8 C7 1_555 1_555
H6 C8 1_555 1_555
H7 C8 1_555 1_555
H8 C8 1_555 1_555
C9 C10 1_555 1_555
C10 H9 1_555 1_555
H10 C10 1_555 1_555
H11 C10 1_555 1_555
C11 C9 1_555 1_555
H12 C11 1_555 1_555
H13 C11 1_555 1_555
H14 C11 1_555 1_555
C12 C9 1_555 1_555
H15 C12 1_555 1_555
H16 C12 1_555 1_555
H17 C12 1_555 1_555
F1 C6 1_555 1_555
F2 C6 1_555 1_555
N1 C1 1_555 1_555
N2 C7 1_555 1_555
H18 N2 1_555 1_555
O1 S1 1_555 1_555
O2 S1 1_555 1_555
O3 S2 1_555 1_555
S1 C1 1_555 1_555
S2 C9 1_555 1_555
C5 N1 1_555 1_555
C6 S1 1_555 1_555
N2 S2 1_555 1_555

#END
