
#######################################################################
#
#                 Cambridge Crystallographic Data Centre
#                                CCDC 
#
#######################################################################
#
# If this CIF has been generated from an entry in the Cambridge 
# Structural Database, then it will include bibliographic, chemical, 
# crystal, experimental, refinement or atomic coordinate data resulting 
# from the CCDC's data processing and validation procedures.
#
#######################################################################

data_ODNPDS02
_chemical_formula_moiety         'C12 H8 N2 O4 S2'
_chemical_name_systematic        'Bis-(2-nitrophenyl) disulfide'
_symmetry_cell_setting           monoclinic
_symmetry_space_group_name_H-M   'P 21/c'
_symmetry_Int_Tables_number      14
_space_group_name_Hall           '-P 2ybc'
loop_
_symmetry_equiv_pos_site_id
_symmetry_equiv_pos_as_xyz
1 x,y,z
2 x,1/2-y,1/2+z
3 -x,-y,-z
4 -x,1/2+y,1/2-z
_cell_length_a                   7.1028(11)
_cell_length_b                   22.925(4)
_cell_length_c                   7.7769(14)
_cell_angle_alpha                90
_cell_angle_beta                 95.536(12)
_cell_angle_gamma                90
_cell_volume                     1260.42
_exptl_crystal_colour            yellow
_exptl_crystal_description       needle
_cell_formula_units_Z            4
loop_
_atom_site_label
_atom_site_type_symbol
_atom_site_fract_x
_atom_site_fract_y
_atom_site_fract_z
S1 S 0.29771(18) 0.41853(5) 0.46148(13)
S2 S 0.40937(18) 0.34184(5) 0.37879(14)
C1 C 0.2744(7) 0.46456(18) 0.2756(5)
C2 C 0.2372(6) 0.52434(18) 0.2864(5)
N1 N 0.2115(6) 0.55123(16) 0.4526(5)
O1 O 0.1984(5) 0.60403(13) 0.4631(4)
O2 O 0.2035(5) 0.51862(13) 0.5782(4)
C3 C 0.2205(6) 0.56018(19) 0.1441(5)
C4 C 0.2377(7) 0.5376(2) -0.0167(6)
C5 C 0.2743(6) 0.47882(19) -0.0328(5)
C6 C 0.2950(7) 0.44307(19) 0.1129(5)
C7 C 0.2079(7) 0.30143(18) 0.2867(5)
C8 C 0.2159(7) 0.24112(17) 0.2660(5)
N2 N 0.3850(6) 0.20841(16) 0.3224(4)
O3 O 0.5343(5) 0.23556(14) 0.3516(4)
O4 O 0.3759(5) 0.15520(13) 0.3377(4)
C9 C 0.0617(7) 0.20969(19) 0.1951(5)
C10 C -0.1040(7) 0.23808(19) 0.1391(5)
C11 C -0.1174(7) 0.29733(19) 0.1603(5)
C12 C 0.0371(7) 0.32882(18) 0.2340(5)
H1 H 0.1970 0.6007 0.1574
H2 H 0.2246 0.5621 -0.1158
H3 H 0.2854 0.4626 -0.1438
H4 H 0.3240 0.4030 0.0997
H5 H 0.0698 0.1685 0.1849
H6 H -0.2086 0.2167 0.0861
H7 H -0.2325 0.3169 0.1245
H8 H 0.0259 0.3698 0.2486
loop_
_geom_bond_atom_site_label_1
_geom_bond_atom_site_label_2
_geom_bond_site_symmetry_1
_geom_bond_site_symmetry_2
S1 S2 1_555 1_555
S2 C7 1_555 1_555
C1 S1 1_555 1_555
C2 C1 1_555 1_555
N1 C2 1_555 1_555
O1 N1 1_555 1_555
O2 N1 1_555 1_555
C3 C2 1_555 1_555
C4 C3 1_555 1_555
C5 C4 1_555 1_555
C6 C1 1_555 1_555
C7 C8 1_555 1_555
C8 N2 1_555 1_555
N2 O3 1_555 1_555
O4 N2 1_555 1_555
C9 C8 1_555 1_555
C10 C9 1_555 1_555
C11 C10 1_555 1_555
C12 C7 1_555 1_555
H1 C3 1_555 1_555
H2 C4 1_555 1_555
H3 C5 1_555 1_555
H4 C6 1_555 1_555
H5 C9 1_555 1_555
H6 C10 1_555 1_555
H7 C11 1_555 1_555
H8 C12 1_555 1_555
C5 C6 1_555 1_555
C11 C12 1_555 1_555

#END
