
#######################################################################
#
#                 Cambridge Crystallographic Data Centre
#                                CCDC 
#
#######################################################################
#
# If this CIF has been generated from an entry in the Cambridge 
# Structural Database, then it will include bibliographic, chemical, 
# crystal, experimental, refinement or atomic coordinate data resulting 
# from the CCDC's data processing and validation procedures.
#
#######################################################################

data_ODOHOG
_chemical_formula_moiety         'C24 H20 Br2 O2'
_chemical_name_systematic        
1,4-bis(2-(4-bromophenyl)vinyl)-2,5-dimethoxybenzene
_symmetry_cell_setting           monoclinic
_symmetry_space_group_name_H-M   'P 21/c'
_symmetry_Int_Tables_number      14
_space_group_name_Hall           '-P 2ybc'
loop_
_symmetry_equiv_pos_site_id
_symmetry_equiv_pos_as_xyz
1 x,y,z
2 -x,1/2+y,1/2-z
3 -x,-y,-z
4 x,1/2-y,1/2+z
_cell_length_a                   5.514(4)
_cell_length_b                   19.248(13)
_cell_length_c                   10.049(6)
_cell_angle_alpha                90
_cell_angle_beta                 106.82(3)
_cell_angle_gamma                90
_cell_volume                     1020.91
_cell_formula_units_Z            2
loop_
_atom_site_label
_atom_site_type_symbol
_atom_site_fract_x
_atom_site_fract_y
_atom_site_fract_z
Br1 Br -0.44908(7) -0.416195(19) -0.38559(5)
O1 O 0.6993(5) -0.07960(11) -0.2682(2)
C1 C -0.3341(6) -0.22614(17) -0.5436(3)
H1 H -0.4289 -0.1957 -0.6104
C2 C -0.0889(6) -0.20856(15) -0.4718(3)
C3 C 0.0459(6) -0.25623(18) -0.3756(3)
H2 H 0.2127 -0.2463 -0.3262
C4 C -0.0586(6) -0.31747(17) -0.3509(3)
H3 H 0.0361 -0.3488 -0.2861
C5 C -0.3041(6) -0.33208(15) -0.4226(3)
C6 C -0.4428(6) -0.28714(17) -0.5196(4)
H4 H -0.6092 -0.2977 -0.5690
C7 C 0.0184(6) -0.14288(15) -0.5008(3)
H5 H -0.0868 -0.1138 -0.5666
C8 C 0.3722(6) -0.05875(15) -0.4716(3)
C9 C 0.2526(6) -0.12134(16) -0.4415(3)
H6 H 0.3522 -0.1498 -0.3722
C10 C 0.6084(6) -0.03897(16) -0.3824(3)
C11 C 0.2697(6) -0.01820(15) -0.5888(3)
H7 H 0.1134 -0.0304 -0.6494
C12 C 0.9386(7) -0.0638(2) -0.1760(4)
H8 H 0.9308 -0.0198 -0.1324
H9 H 1.0619 -0.0615 -0.2265
H10 H 0.9862 -0.0993 -0.1061
Br1B Br 1.44908(7) 0.416195(19) -0.61441(5)
O1B O 0.3007(5) 0.07960(11) -0.7318(2)
C1B C 1.3341(6) 0.22614(17) -0.4564(3)
H1B H 1.4289 0.1957 -0.3896
C2B C 1.0889(6) 0.20856(15) -0.5282(3)
C3B C 0.9541(6) 0.25623(18) -0.6244(3)
H2B H 0.7873 0.2463 -0.6738
C4B C 1.0586(6) 0.31747(17) -0.6491(3)
H3B H 0.9639 0.3488 -0.7139
C5B C 1.3041(6) 0.33208(15) -0.5774(3)
C6B C 1.4428(6) 0.28714(17) -0.4804(4)
H4B H 1.6092 0.2977 -0.4310
C7B C 0.9816(6) 0.14288(15) -0.4992(3)
H5B H 1.0868 0.1138 -0.4334
C8B C 0.6278(6) 0.05875(15) -0.5284(3)
C9B C 0.7474(6) 0.12134(16) -0.5585(3)
H6B H 0.6478 0.1498 -0.6278
C10B C 0.3916(6) 0.03897(16) -0.6176(3)
C11B C 0.7303(6) 0.01820(15) -0.4112(3)
H7B H 0.8866 0.0304 -0.3506
C12B C 0.0614(7) 0.0638(2) -0.8240(4)
H8B H 0.0692 0.0198 -0.8676
H9B H -0.0619 0.0615 -0.7735
H10B H 0.0138 0.0993 -0.8939
loop_
_geom_bond_atom_site_label_1
_geom_bond_atom_site_label_2
_geom_bond_site_symmetry_1
_geom_bond_site_symmetry_2
Br1 C5 1_555 1_555
O1 C10 1_555 1_555
C1 H1 1_555 1_555
C2 C1 1_555 1_555
C3 C2 1_555 1_555
H2 C3 1_555 1_555
C4 C3 1_555 1_555
H3 C4 1_555 1_555
C5 C4 1_555 1_555
C6 C1 1_555 1_555
H4 C6 1_555 1_555
C7 C2 1_555 1_555
H5 C7 1_555 1_555
C8 C9 1_555 1_555
C9 C7 1_555 1_555
H6 C9 1_555 1_555
C10 C8 1_555 1_555
C11 C8 1_555 1_555
H7 C11 1_555 1_555
C12 O1 1_555 1_555
H8 C12 1_555 1_555
H9 C12 1_555 1_555
H10 C12 1_555 1_555
Br1B C5B 1_555 1_555
O1B C10B 1_555 1_555
C1B H1B 1_555 1_555
C2B C1B 1_555 1_555
C3B C2B 1_555 1_555
H2B C3B 1_555 1_555
C4B C3B 1_555 1_555
H3B C4B 1_555 1_555
C5B C4B 1_555 1_555
C6B C1B 1_555 1_555
H4B C6B 1_555 1_555
C7B C2B 1_555 1_555
H5B C7B 1_555 1_555
C8B C9B 1_555 1_555
C9B C7B 1_555 1_555
H6B C9B 1_555 1_555
C10B C11 1_555 1_555
C11B C10 1_555 1_555
H7B C11B 1_555 1_555
C12B O1B 1_555 1_555
H8B C12B 1_555 1_555
H9B C12B 1_555 1_555
H10B C12B 1_555 1_555
C5 C6 1_555 1_555
C5B C6B 1_555 1_555
C8B C10B 1_555 1_555
C8B C11B 1_555 1_555

#END
