
#######################################################################
#
#                 Cambridge Crystallographic Data Centre
#                                CCDC 
#
#######################################################################
#
# If this CIF has been generated from an entry in the Cambridge 
# Structural Database, then it will include bibliographic, chemical, 
# crystal, experimental, refinement or atomic coordinate data resulting 
# from the CCDC's data processing and validation procedures.
#
#######################################################################

data_ODOJOJ
_chemical_formula_moiety         'C21 H27 I1 O1'
_chemical_name_systematic        2-(2-iodophenoxy)-1,3,5-tri-isopropylbenzene
_symmetry_cell_setting           monoclinic
_symmetry_space_group_name_H-M   'P 21/n'
_symmetry_Int_Tables_number      14
_space_group_name_Hall           '-P 2yn'
loop_
_symmetry_equiv_pos_site_id
_symmetry_equiv_pos_as_xyz
1 x,y,z
2 1/2-x,1/2+y,1/2-z
3 -x,-y,-z
4 1/2+x,1/2-y,1/2+z
_cell_length_a                   8.7829(9)
_cell_length_b                   17.1476(17)
_cell_length_c                   13.3643(13)
_cell_angle_alpha                90
_cell_angle_beta                 93.828(2)
_cell_angle_gamma                90
_cell_volume                     2008.25
_exptl_crystal_colour            colorless
_exptl_crystal_description       block
_cell_formula_units_Z            4
loop_
_atom_site_label
_atom_site_type_symbol
_atom_site_fract_x
_atom_site_fract_y
_atom_site_fract_z
I1 I 0.61439(3) 0.88049(2) 0.45086(2)
O1 O 0.6214(2) 0.70724(9) 0.38897(12)
C1 C 0.5777(3) 0.63347(12) 0.35069(16)
C2 C 0.4403(3) 0.60168(13) 0.37948(17)
C3 C 0.3883(3) 0.53461(14) 0.32954(18)
H1 H 0.297270 0.512227 0.346829
C4 C 0.4673(3) 0.50000(14) 0.25506(18)
C5 C 0.6047(3) 0.53229(14) 0.23204(18)
H2 H 0.659416 0.508607 0.183141
C6 C 0.6646(3) 0.59937(14) 0.27964(17)
C7 C 0.8158(3) 0.63386(16) 0.2526(2)
H3 H 0.850541 0.669215 0.307091
C8 C 0.7978(5) 0.6819(3) 0.1572(3)
H4 H 0.765297 0.648737 0.101952
H5 H 0.893715 0.705512 0.144498
H6 H 0.722866 0.721892 0.164707
C9 C 0.9371(4) 0.5723(3) 0.2448(4)
H7 H 0.945239 0.542031 0.305355
H8 H 1.033269 0.596944 0.235302
H9 H 0.910123 0.538852 0.188866
C10 C 0.4055(4) 0.42576(16) 0.2040(2)
H10 H 0.302186 0.418741 0.226043
C11 C 0.4936(5) 0.35544(18) 0.2394(3)
H11 H 0.599711 0.362957 0.228981
H12 H 0.456428 0.310540 0.202467
H13 H 0.481391 0.347604 0.309536
C12 C 0.3885(7) 0.4324(2) 0.0936(3)
H14 H 0.310080 0.469627 0.074935
H15 H 0.361147 0.382516 0.065107
H16 H 0.483269 0.449311 0.068980
C13 C 0.3509(3) 0.64102(15) 0.45934(19)
H17 H 0.424523 0.668256 0.505271
C14 C 0.2646(4) 0.5831(2) 0.5215(2)
H18 H 0.181791 0.560803 0.480507
H19 H 0.225078 0.609641 0.577421
H20 H 0.332735 0.542440 0.545511
C15 C 0.2423(4) 0.70193(18) 0.4125(2)
H21 H 0.299568 0.740822 0.379455
H22 H 0.187287 0.726086 0.463870
H23 H 0.171620 0.677346 0.364473
C16 C 0.7121(3) 0.71204(14) 0.47672(16)
C17 C 0.7294(3) 0.78580(15) 0.51946(19)
C18 C 0.8211(4) 0.7950(2) 0.6073(2)
H24 H 0.833576 0.844192 0.636099
C19 C 0.8935(4) 0.7318(2) 0.6518(2)
H25 H 0.954367 0.738209 0.710886
C20 C 0.8766(3) 0.6598(2) 0.6098(2)
H26 H 0.926328 0.617270 0.640305
C21 C 0.7857(3) 0.64931(17) 0.52200(19)
H27 H 0.774639 0.599906 0.493753
loop_
_geom_bond_atom_site_label_1
_geom_bond_atom_site_label_2
_geom_bond_site_symmetry_1
_geom_bond_site_symmetry_2
I1 C17 1_555 1_555
O1 C1 1_555 1_555
C1 C2 1_555 1_555
C2 C3 1_555 1_555
C3 H1 1_555 1_555
C4 C3 1_555 1_555
C5 C4 1_555 1_555
H2 C5 1_555 1_555
C6 C1 1_555 1_555
C7 C6 1_555 1_555
H3 C7 1_555 1_555
C8 C7 1_555 1_555
H4 C8 1_555 1_555
H5 C8 1_555 1_555
H6 C8 1_555 1_555
C9 C7 1_555 1_555
H7 C9 1_555 1_555
H8 C9 1_555 1_555
H9 C9 1_555 1_555
C10 C4 1_555 1_555
H10 C10 1_555 1_555
C11 C10 1_555 1_555
H11 C11 1_555 1_555
H12 C11 1_555 1_555
H13 C11 1_555 1_555
C12 C10 1_555 1_555
H14 C12 1_555 1_555
H15 C12 1_555 1_555
H16 C12 1_555 1_555
C13 C2 1_555 1_555
H17 C13 1_555 1_555
C14 C13 1_555 1_555
H18 C14 1_555 1_555
H19 C14 1_555 1_555
H20 C14 1_555 1_555
C15 C13 1_555 1_555
H21 C15 1_555 1_555
H22 C15 1_555 1_555
H23 C15 1_555 1_555
C16 O1 1_555 1_555
C17 C16 1_555 1_555
C18 C17 1_555 1_555
H24 C18 1_555 1_555
C19 C18 1_555 1_555
H25 C19 1_555 1_555
C20 C19 1_555 1_555
H26 C20 1_555 1_555
C21 C16 1_555 1_555
H27 C21 1_555 1_555
C5 C6 1_555 1_555
C20 C21 1_555 1_555

#END
