
#######################################################################
#
#                 Cambridge Crystallographic Data Centre
#                                CCDC 
#
#######################################################################
#
# If this CIF has been generated from an entry in the Cambridge 
# Structural Database, then it will include bibliographic, chemical, 
# crystal, experimental, refinement or atomic coordinate data resulting 
# from the CCDC's data processing and validation procedures.
#
#######################################################################

data_ODOKUQ
_chemical_formula_moiety         'C31 H25 N3 O3 S1'
_chemical_name_systematic        
'N-[2-(1,3-diphenyl-1,4-dihydropyrano[2,3-c]pyrazol-4-yl)phenyl]-4-methylbenzene-1-sulfonamide unknown solvate'
_symmetry_cell_setting           triclinic
_symmetry_space_group_name_H-M   'P -1'
_symmetry_Int_Tables_number      2
_space_group_name_Hall           '-P 1'
loop_
_symmetry_equiv_pos_site_id
_symmetry_equiv_pos_as_xyz
1 x,y,z
2 -x,-y,-z
_cell_length_a                   10.369(2)
_cell_length_b                   12.959(3)
_cell_length_c                   13.156(3)
_cell_angle_alpha                79.86(3)
_cell_angle_beta                 69.61(3)
_cell_angle_gamma                84.09(3)
_cell_volume                     1629.49
_exptl_crystal_colour            colorless
_exptl_crystal_description       block
_cell_formula_units_Z            2
loop_
_atom_site_label
_atom_site_type_symbol
_atom_site_fract_x
_atom_site_fract_y
_atom_site_fract_z
S1 S 0.14939(6) 0.94256(4) 0.13455(5)
O1 O 0.0447(2) 1.01957(14) 0.12002(16)
O2 O 0.29232(19) 0.96481(14) 0.08226(15)
O3 O 0.66456(16) 0.75916(14) -0.25295(14)
N1 N 0.12473(19) 0.83846(14) 0.08917(15)
H1 H 0.038780 0.825772 0.110452
N2 N 0.41153(19) 0.62822(15) -0.29736(15)
N3 N 0.54420(19) 0.65703(15) -0.32106(15)
C1 C 0.0480(4) 0.8013(3) 0.6184(2)
H2 H 0.058364 0.726129 0.630967
H3 H -0.043692 0.822999 0.660387
H4 H 0.113303 0.831046 0.640466
C2 C 0.0731(3) 0.8385(2) 0.4981(2)
C3 C -0.0321(3) 0.8895(2) 0.4627(2)
H5 H -0.118344 0.901441 0.513834
C4 C -0.0097(2) 0.92280(18) 0.3517(2)
H6 H -0.080789 0.955612 0.328355
C5 C 0.1197(2) 0.90645(18) 0.27636(19)
C6 C 0.2261(3) 0.8564(2) 0.3103(2)
H7 H 0.312973 0.846168 0.259341
C7 C 0.2010(3) 0.8219(2) 0.4212(2)
H8 H 0.271350 0.787099 0.444126
C8 C 0.2078(2) 0.74469(16) 0.10462(18)
C9 C 0.1600(2) 0.67421(18) 0.20090(19)
H9 H 0.074188 0.686614 0.252324
C10 C 0.2399(3) 0.5855(2) 0.2205(2)
H10 H 0.207190 0.538206 0.284726
C11 C 0.3684(3) 0.5673(2) 0.1445(2)
H11 H 0.423548 0.509025 0.158245
C12 C 0.4138(3) 0.63687(19) 0.0478(2)
H12 H 0.499426 0.623887 -0.003519
C13 C 0.3342(2) 0.72633(16) 0.02522(17)
C14 C 0.3868(2) 0.79668(16) -0.08525(17)
H13 H 0.317745 0.853243 -0.089820
C15 C 0.5212(2) 0.84399(17) -0.09941(18)
H14 H 0.518492 0.890161 -0.051927
C16 C 0.6421(2) 0.82486(19) -0.1739(2)
H15 H 0.717688 0.857578 -0.173711
C17 C 0.5460(2) 0.72083(16) -0.24961(17)
C18 C 0.4156(2) 0.73588(16) -0.17880(17)
C19 C 0.3353(2) 0.67529(16) -0.21271(17)
C20 C 0.1853(2) 0.65894(17) -0.16622(17)
C21 C 0.0915(2) 0.73695(19) -0.11988(19)
H16 H 0.122834 0.800188 -0.115520
C22 C -0.0482(3) 0.7205(2) -0.0803(2)
H17 H -0.110472 0.772915 -0.049635
C23 C -0.0963(3) 0.6259(2) -0.0863(2)
H18 H -0.190243 0.614911 -0.059533
C24 C -0.0029(3) 0.5483(2) -0.1323(2)
H19 H -0.034539 0.485122 -0.136625
C25 C 0.1364(3) 0.5640(2) -0.1717(2)
H20 H 0.198305 0.511252 -0.202007
C26 C 0.6531(2) 0.61415(17) -0.40525(17)
C27 C 0.6257(2) 0.53087(18) -0.44780(19)
H21 H 0.538032 0.504599 -0.421535
C28 C 0.7302(3) 0.4876(2) -0.5295(2)
H22 H 0.711572 0.433341 -0.559478
C29 C 0.8621(3) 0.5242(2) -0.5672(2)
H23 H 0.932388 0.493441 -0.620510
C30 C 0.8881(3) 0.6071(2) -0.5245(2)
H24 H 0.976242 0.632350 -0.550211
C31 C 0.7846(2) 0.65283(19) -0.44412(19)
H25 H 0.802839 0.708841 -0.416424
loop_
_geom_bond_atom_site_label_1
_geom_bond_atom_site_label_2
_geom_bond_site_symmetry_1
_geom_bond_site_symmetry_2
S1 O1 1_555 1_555
O2 S1 1_555 1_555
O3 C16 1_555 1_555
N1 S1 1_555 1_555
H1 N1 1_555 1_555
N2 N3 1_555 1_555
N3 C17 1_555 1_555
C1 H2 1_555 1_555
H3 C1 1_555 1_555
H4 C1 1_555 1_555
C2 C1 1_555 1_555
C3 C2 1_555 1_555
H5 C3 1_555 1_555
C4 C3 1_555 1_555
H6 C4 1_555 1_555
C5 S1 1_555 1_555
C6 C5 1_555 1_555
H7 C6 1_555 1_555
C7 C2 1_555 1_555
H8 C7 1_555 1_555
C8 N1 1_555 1_555
C9 C8 1_555 1_555
H9 C9 1_555 1_555
C10 C9 1_555 1_555
H10 C10 1_555 1_555
C11 C10 1_555 1_555
H11 C11 1_555 1_555
C12 C11 1_555 1_555
H12 C12 1_555 1_555
C13 C8 1_555 1_555
C14 C13 1_555 1_555
H13 C14 1_555 1_555
C15 C14 1_555 1_555
H14 C15 1_555 1_555
C16 C15 1_555 1_555
H15 C16 1_555 1_555
C17 O3 1_555 1_555
C18 C14 1_555 1_555
C19 N2 1_555 1_555
C20 C19 1_555 1_555
C21 C20 1_555 1_555
H16 C21 1_555 1_555
C22 C21 1_555 1_555
H17 C22 1_555 1_555
C23 C22 1_555 1_555
H18 C23 1_555 1_555
C24 C23 1_555 1_555
H19 C24 1_555 1_555
C25 C20 1_555 1_555
H20 C25 1_555 1_555
C26 N3 1_555 1_555
C27 C26 1_555 1_555
H21 C27 1_555 1_555
C28 C27 1_555 1_555
H22 C28 1_555 1_555
C29 C28 1_555 1_555
H23 C29 1_555 1_555
C30 C29 1_555 1_555
H24 C30 1_555 1_555
C31 C26 1_555 1_555
H25 C31 1_555 1_555
C4 C5 1_555 1_555
C6 C7 1_555 1_555
C12 C13 1_555 1_555
C17 C18 1_555 1_555
C18 C19 1_555 1_555
C24 C25 1_555 1_555
C30 C31 1_555 1_555

#END
