
#######################################################################
#
#                 Cambridge Crystallographic Data Centre
#                                CCDC 
#
#######################################################################
#
# If this CIF has been generated from an entry in the Cambridge 
# Structural Database, then it will include bibliographic, chemical, 
# crystal, experimental, refinement or atomic coordinate data resulting 
# from the CCDC's data processing and validation procedures.
#
#######################################################################

data_ODOMEC
_chemical_formula_moiety         'C15 H17 N1 O5'
_chemical_name_systematic        
'dimethyl 3-(furan-2-yl)-2-(1H-pyrrol-1-yl)pentanedioate'
_symmetry_cell_setting           orthorhombic
_symmetry_space_group_name_H-M   'P 21 21 21'
_symmetry_Int_Tables_number      19
_space_group_name_Hall           'P 2ac 2ab'
loop_
_symmetry_equiv_pos_site_id
_symmetry_equiv_pos_as_xyz
1 x,y,z
2 1/2-x,-y,1/2+z
3 1/2+x,1/2-y,-z
4 -x,1/2+y,1/2-z
_cell_length_a                   8.20884(6)
_cell_length_b                   11.96330(10)
_cell_length_c                   14.89340(13)
_cell_angle_alpha                90
_cell_angle_beta                 90
_cell_angle_gamma                90
_cell_volume                     1462.6
_exptl_crystal_colour            colorless
_exptl_crystal_description       prism
_cell_formula_units_Z            4
loop_
_atom_site_label
_atom_site_type_symbol
_atom_site_fract_x
_atom_site_fract_y
_atom_site_fract_z
O1 O 0.60758(16) 0.67892(11) 0.64746(10)
O2 O 0.80724(16) 0.23236(11) 0.63658(9)
O3 O 0.56789(16) 0.15459(10) 0.59892(8)
O4 O 0.84368(14) 0.58632(10) 0.66294(8)
O5 O 0.80288(15) 0.59556(10) 0.45786(8)
N1 N 0.44579(17) 0.47862(12) 0.60846(9)
C1 C 0.6853(2) 0.59452(14) 0.64380(11)
C2 C 0.62156(19) 0.47866(14) 0.61866(10)
H1 H 0.6461 0.4288 0.6708
C3 C 0.71453(19) 0.42846(13) 0.53651(10)
H2 H 0.8317 0.4211 0.5540
C4 C 0.6513(2) 0.31111(14) 0.51510(11)
H3 H 0.5324 0.3146 0.5044
H4 H 0.7038 0.2838 0.4594
C5 C 0.6851(2) 0.23020(13) 0.59009(11)
C6 C 0.5982(3) 0.06853(17) 0.66538(13)
H5 H 0.5056 0.0168 0.6671
H6 H 0.6973 0.0274 0.6494
H7 H 0.6122 0.1032 0.7245
C7 C 0.9248(2) 0.69032(16) 0.68330(14)
H8 H 1.0399 0.6758 0.6964
H9 H 0.9164 0.7408 0.6317
H10 H 0.8733 0.7250 0.7357
C8 C 0.3543(2) 0.54396(15) 0.55181(11)
H11 H 0.3952 0.5992 0.5119
C9 C 0.1937(2) 0.51554(17) 0.56286(12)
H12 H 0.1036 0.5477 0.5323
C10 C 0.1865(2) 0.42975(17) 0.62799(13)
H13 H 0.0909 0.3936 0.6491
C11 C 0.3438(2) 0.40818(15) 0.65511(11)
H14 H 0.3761 0.3542 0.6984
C12 C 0.70749(19) 0.50124(13) 0.45515(10)
C13 C 0.7773(2) 0.65074(15) 0.37812(12)
H15 H 0.8278 0.7192 0.3616
C14 C 0.6708(2) 0.59435(15) 0.32687(11)
H16 H 0.6331 0.6151 0.2689
C15 C 0.6250(2) 0.49668(14) 0.37670(11)
H17 H 0.5512 0.4400 0.3582
loop_
_geom_bond_atom_site_label_1
_geom_bond_atom_site_label_2
_geom_bond_site_symmetry_1
_geom_bond_site_symmetry_2
O1 C1 1_555 1_555
O2 C5 1_555 1_555
O3 C5 1_555 1_555
O4 C1 1_555 1_555
O5 C12 1_555 1_555
N1 C2 1_555 1_555
C1 C2 1_555 1_555
C2 H1 1_555 1_555
C3 C2 1_555 1_555
H2 C3 1_555 1_555
C4 C3 1_555 1_555
H3 C4 1_555 1_555
H4 C4 1_555 1_555
C5 C4 1_555 1_555
C6 O3 1_555 1_555
H5 C6 1_555 1_555
H6 C6 1_555 1_555
H7 C6 1_555 1_555
C7 O4 1_555 1_555
H8 C7 1_555 1_555
H9 C7 1_555 1_555
H10 C7 1_555 1_555
C8 N1 1_555 1_555
H11 C8 1_555 1_555
C9 C8 1_555 1_555
H12 C9 1_555 1_555
C10 C9 1_555 1_555
H13 C10 1_555 1_555
C11 N1 1_555 1_555
H14 C11 1_555 1_555
C12 C3 1_555 1_555
C13 O5 1_555 1_555
H15 C13 1_555 1_555
C14 C13 1_555 1_555
H16 C14 1_555 1_555
C15 C12 1_555 1_555
H17 C15 1_555 1_555
C10 C11 1_555 1_555
C14 C15 1_555 1_555

#END
