
#######################################################################
#
#                 Cambridge Crystallographic Data Centre
#                                CCDC 
#
#######################################################################
#
# If this CIF has been generated from an entry in the Cambridge 
# Structural Database, then it will include bibliographic, chemical, 
# crystal, experimental, refinement or atomic coordinate data resulting 
# from the CCDC's data processing and validation procedures.
#
#######################################################################

data_ODOPAZ
_chemical_formula_moiety         'C17 H12 Cl1 F1 O3'
_chemical_name_systematic        
'Methyl 3-(4-chlorophenyl)-2-fluoroindan-1-one-2-carboxylate'
_symmetry_cell_setting           monoclinic
_symmetry_space_group_name_H-M   'P 21/c'
_symmetry_Int_Tables_number      14
_space_group_name_Hall           '-P 2ybc'
loop_
_symmetry_equiv_pos_site_id
_symmetry_equiv_pos_as_xyz
1 x,y,z
2 -x,1/2+y,1/2-z
3 -x,-y,-z
4 x,1/2-y,1/2+z
_cell_length_a                   17.213(4)
_cell_length_b                   8.458(2)
_cell_length_c                   10.468(2)
_cell_angle_alpha                90
_cell_angle_beta                 96.925(4)
_cell_angle_gamma                90
_cell_volume                     1512.89
_exptl_crystal_colour            colorless
_exptl_crystal_description       prism
_chemical_melting_point          166-166.5deg.C
_cell_formula_units_Z            4
loop_
_atom_site_label
_atom_site_type_symbol
_atom_site_fract_x
_atom_site_fract_y
_atom_site_fract_z
Cl1 Cl -0.03335(4) 0.31214(10) 0.15135(7)
F1 F 0.34796(8) 0.68745(15) 0.35412(12)
O1 O 0.43292(10) 0.62506(19) 0.59974(17)
O2 O 0.22179(10) 0.7557(2) 0.46457(16)
O3 O 0.23896(9) 0.53836(18) 0.58835(14)
C1 C 0.32419(12) 0.5695(2) 0.43420(19)
C2 C 0.30558(12) 0.4147(2) 0.35799(19)
H1 H 0.3333 0.4214 0.2818
C3 C 0.22048(12) 0.3873(2) 0.30895(18)
C4 C 0.18933(13) 0.4530(3) 0.19187(19)
H2 H 0.2216 0.5114 0.1444
C5 C 0.11163(14) 0.4331(3) 0.1451(2)
H3 H 0.0915 0.4790 0.0674
C6 C 0.06430(13) 0.3451(3) 0.2138(2)
C7 C 0.09256(13) 0.2803(3) 0.3304(2)
H4 H 0.0598 0.2225 0.3773
C8 C 0.17048(13) 0.3021(3) 0.3773(2)
H5 H 0.1897 0.2586 0.4564
C9 C 0.34746(11) 0.2890(2) 0.44404(19)
C10 C 0.34445(14) 0.1262(3) 0.4292(2)
H6 H 0.3110 0.0802 0.3632
C11 C 0.39200(14) 0.0336(3) 0.5143(3)
H7 H 0.3903 -0.0758 0.5052
C12 C 0.44226(13) 0.1002(3) 0.6133(2)
H8 H 0.4738 0.0353 0.6694
C13 C 0.44577(12) 0.2605(3) 0.6290(2)
H9 H 0.4795 0.3055 0.6951
C14 C 0.39789(12) 0.3546(2) 0.5442(2)
C15 C 0.39279(13) 0.5268(3) 0.5391(2)
C16 C 0.25561(13) 0.6357(3) 0.4955(2)
C17 C 0.17179(16) 0.5783(3) 0.6533(3)
H10 H 0.1266 0.5912 0.5909
H11 H 0.1819 0.6752 0.7002
H12 H 0.1624 0.4951 0.7119
loop_
_geom_bond_atom_site_label_1
_geom_bond_atom_site_label_2
_geom_bond_site_symmetry_1
_geom_bond_site_symmetry_2
Cl1 C6 1_555 1_555
F1 C1 1_555 1_555
O1 C15 1_555 1_555
O2 C16 1_555 1_555
O3 C16 1_555 1_555
C1 C2 1_555 1_555
C2 H1 1_555 1_555
C3 C2 1_555 1_555
C4 C3 1_555 1_555
H2 C4 1_555 1_555
C5 C4 1_555 1_555
H3 C5 1_555 1_555
C6 C5 1_555 1_555
C7 C6 1_555 1_555
H4 C7 1_555 1_555
C8 C3 1_555 1_555
H5 C8 1_555 1_555
C9 C2 1_555 1_555
C10 C9 1_555 1_555
H6 C10 1_555 1_555
C11 C10 1_555 1_555
H7 C11 1_555 1_555
C12 C11 1_555 1_555
H8 C12 1_555 1_555
C13 C12 1_555 1_555
H9 C13 1_555 1_555
C14 C9 1_555 1_555
C15 C1 1_555 1_555
C16 C1 1_555 1_555
C17 O3 1_555 1_555
H10 C17 1_555 1_555
H11 C17 1_555 1_555
H12 C17 1_555 1_555
C7 C8 1_555 1_555
C13 C14 1_555 1_555
C14 C15 1_555 1_555

#END
