
#######################################################################
#
#                 Cambridge Crystallographic Data Centre
#                                CCDC 
#
#######################################################################
#
# If this CIF has been generated from an entry in the Cambridge 
# Structural Database, then it will include bibliographic, chemical, 
# crystal, experimental, refinement or atomic coordinate data resulting 
# from the CCDC's data processing and validation procedures.
#
#######################################################################

data_ODOSAE
_chemical_formula_moiety         'C10 H21 Cl2 N2 O2 P1'
_chemical_name_systematic        
2-[bis(2-chloroethyl)amino]-4-(2-methylpropyl)-1,3,2\l^5^-oxazaphospholidin-2-one
_symmetry_cell_setting           monoclinic
_symmetry_space_group_name_H-M   'P 21'
_symmetry_Int_Tables_number      4
_space_group_name_Hall           'P 2yb'
loop_
_symmetry_equiv_pos_site_id
_symmetry_equiv_pos_as_xyz
1 x,y,z
2 -x,1/2+y,-z
_cell_length_a                   12.1044(17)
_cell_length_b                   5.3162(8)
_cell_length_c                   12.8933(17)
_cell_angle_alpha                90
_cell_angle_beta                 115.409(4)
_cell_angle_gamma                90
_cell_volume                     749.42
_exptl_crystal_colour            colorless
_exptl_crystal_description       rod
_cell_formula_units_Z            2
loop_
_atom_site_label
_atom_site_type_symbol
_atom_site_fract_x
_atom_site_fract_y
_atom_site_fract_z
Cl1 Cl 0.42213(6) 0.54753(18) 0.09135(7)
Cl2 Cl 0.91388(8) 0.02057(18) 0.04717(8)
P1 P 0.86712(6) 0.58725(13) 0.35572(7)
O1 O 0.79674(19) 0.8438(4) 0.3538(2)
O2 O 0.99383(17) 0.6243(4) 0.37047(19)
N1 N 0.8406(2) 0.4528(5) 0.4568(2)
H1 H 0.886(3) 0.329(5) 0.492(3)
N2 N 0.7888(2) 0.4415(5) 0.2338(2)
C1 C 0.7379(3) 0.8342(6) 0.4314(3)
H2 H 0.650845 0.786491 0.389001
H3 H 0.742459 1.000426 0.467617
C2 C 0.8062(3) 0.6388(6) 0.5215(3)
H4 H 0.881348 0.715273 0.582736
C3 C 0.7281(3) 0.5206(7) 0.5755(3)
H5 H 0.777041 0.389806 0.630753
H6 H 0.656971 0.436364 0.514403
C4 C 0.6812(3) 0.7079(7) 0.6380(3)
H7 H 0.633747 0.841894 0.582193
C5 C 0.5947(4) 0.5717(11) 0.6772(4)
H8 H 0.525838 0.501848 0.610291
H9 H 0.564077 0.690589 0.716789
H10 H 0.638821 0.435127 0.729761
C6 C 0.7853(3) 0.8330(8) 0.7387(3)
H11 H 0.838643 0.921393 0.711137
H12 H 0.832701 0.704614 0.794716
H13 H 0.751796 0.953468 0.775185
C7 C 0.6592(3) 0.3876(6) 0.1984(3)
H14 H 0.643680 0.364928 0.267210
H15 H 0.636966 0.229454 0.153571
C8 C 0.5809(3) 0.6018(8) 0.1258(3)
H16 H 0.591595 0.615752 0.054077
H17 H 0.607631 0.762141 0.168369
C9 C 0.8397(3) 0.3806(7) 0.1517(3)
H18 H 0.913708 0.483375 0.168799
H19 H 0.778956 0.420611 0.072762
C10 C 0.8723(3) 0.1042(7) 0.1599(3)
H20 H 0.801388 0.001990 0.153912
H21 H 0.941323 0.069086 0.235248
loop_
_geom_bond_atom_site_label_1
_geom_bond_atom_site_label_2
_geom_bond_site_symmetry_1
_geom_bond_site_symmetry_2
Cl1 C8 1_555 1_555
Cl2 C10 1_555 1_555
P1 O1 1_555 1_555
O1 C1 1_555 1_555
O2 P1 1_555 1_555
N1 P1 1_555 1_555
H1 N1 1_555 1_555
N2 P1 1_555 1_555
C1 H2 1_555 1_555
H3 C1 1_555 1_555
C2 N1 1_555 1_555
H4 C2 1_555 1_555
C3 C2 1_555 1_555
H5 C3 1_555 1_555
H6 C3 1_555 1_555
C4 C3 1_555 1_555
H7 C4 1_555 1_555
C5 C4 1_555 1_555
H8 C5 1_555 1_555
H9 C5 1_555 1_555
H10 C5 1_555 1_555
C6 C4 1_555 1_555
H11 C6 1_555 1_555
H12 C6 1_555 1_555
H13 C6 1_555 1_555
C7 N2 1_555 1_555
H14 C7 1_555 1_555
H15 C7 1_555 1_555
C8 C7 1_555 1_555
H16 C8 1_555 1_555
H17 C8 1_555 1_555
C9 N2 1_555 1_555
H18 C9 1_555 1_555
H19 C9 1_555 1_555
C10 C9 1_555 1_555
H20 C10 1_555 1_555
H21 C10 1_555 1_555
C1 C2 1_555 1_555

#END
