
#######################################################################
#
#                 Cambridge Crystallographic Data Centre
#                                CCDC 
#
#######################################################################
#
# If this CIF has been generated from an entry in the Cambridge 
# Structural Database, then it will include bibliographic, chemical, 
# crystal, experimental, refinement or atomic coordinate data resulting 
# from the CCDC's data processing and validation procedures.
#
#######################################################################

data_ODOTUW
_chemical_formula_moiety         'C20 H16 Cl2 O2'
_chemical_name_systematic        
endo,exo-5,11-Dichloro-4,10-dimethoxy-4,10-dihydrodibenzo(ef,kl)heptalene
_symmetry_cell_setting           monoclinic
_symmetry_space_group_name_H-M   'P 21/c'
_symmetry_Int_Tables_number      14
_space_group_name_Hall           '-P 2ybc'
loop_
_symmetry_equiv_pos_site_id
_symmetry_equiv_pos_as_xyz
1 x,y,z
2 x,1/2-y,1/2+z
3 -x,-y,-z
4 -x,1/2+y,1/2-z
_cell_length_a                   9.5229(2)
_cell_length_b                   17.2091(3)
_cell_length_c                   10.37020(10)
_cell_angle_alpha                90
_cell_angle_beta                 95.0960(10)
_cell_angle_gamma                90
_cell_volume                     1692.76
_exptl_crystal_colour            colorless
_chemical_melting_point          210-211deg.C
_cell_formula_units_Z            4
_exptl_crystal_recrystallization_method chloroform/benzene
loop_
_atom_site_label
_atom_site_type_symbol
_atom_site_fract_x
_atom_site_fract_y
_atom_site_fract_z
Cl1 Cl 0.11314(6) 0.08783(3) 0.57957(5)
Cl2 Cl -0.70464(6) 0.26908(4) 0.88353(7)
O1 O 0.03287(15) 0.01602(8) 0.82116(15)
O2 O -0.38811(16) 0.15135(8) 1.02112(14)
C1 C -0.0404(2) 0.08645(10) 0.7963(2)
C2 C 0.0099(2) 0.13427(11) 0.6862(2)
C3 C -0.0360(2) 0.20689(12) 0.6639(2)
C4 C -0.1283(2) 0.24717(11) 0.74872(19)
C5 C -0.1020(2) 0.32686(11) 0.7680(2)
C6 C -0.1762(2) 0.37014(11) 0.8503(2)
C7 C -0.2790(2) 0.33488(12) 0.9159(2)
C8 C -0.3130(2) 0.25699(11) 0.89498(18)
C9 C -0.4325(2) 0.22295(12) 0.9627(2)
C10 C -0.5558(2) 0.21371(11) 0.8607(2)
C11 C -0.5540(2) 0.16706(11) 0.7578(2)
C12 C -0.4361(2) 0.11512(11) 0.73496(17)
C13 C -0.4749(2) 0.04382(12) 0.67606(19)
C14 C -0.3760(2) -0.01349(11) 0.6603(2)
C15 C -0.2364(2) -0.00078(11) 0.7031(2)
C16 C -0.1943(2) 0.07079(11) 0.75655(18)
C17 C -0.29115(19) 0.13143(10) 0.76914(17)
C18 C -0.24143(19) 0.21135(10) 0.80796(18)
C19 C 0.1616(3) 0.02552(15) 0.9012(3)
C20 C -0.4909(3) 0.11698(16) 1.0931(3)
H1 H -0.0343 0.1188 0.8792
H2 H -0.0065 0.2364 0.5919
H3 H -0.0279 0.3540 0.7233
H4 H -0.1546 0.4205 0.8671
H5 H -0.3286 0.3627 0.9886
H6 H -0.4586 0.2589 1.0363
H7 H -0.6407 0.1654 0.6938
H8 H -0.5833 0.0359 0.6494
H9 H -0.4055 -0.0649 0.6222
H10 H -0.1692 -0.0403 0.7010
H11 H 0.1939 -0.0236 0.9110
H12 H 0.1424 0.0523 0.9707
H13 H 0.2262 0.0622 0.8545
H14 H -0.5256 0.1545 1.1585
H15 H -0.4451 0.0809 1.1459
H16 H -0.5837 0.1187 1.0517
loop_
_geom_bond_atom_site_label_1
_geom_bond_atom_site_label_2
_geom_bond_site_symmetry_1
_geom_bond_site_symmetry_2
Cl1 C2 1_555 1_555
Cl2 C10 1_555 1_555
O1 C1 1_555 1_555
O2 C9 1_555 1_555
C1 C2 1_555 1_555
C2 C3 1_555 1_555
C3 C4 1_555 1_555
C4 C5 1_555 1_555
C5 C6 1_555 1_555
C6 C7 1_555 1_555
C7 C8 1_555 1_555
C8 C9 1_555 1_555
C9 C10 1_555 1_555
C10 C11 1_555 1_555
C11 C12 1_555 1_555
C12 C13 1_555 1_555
C13 C14 1_555 1_555
C14 C15 1_555 1_555
C15 C16 1_555 1_555
C16 C1 1_555 1_555
C17 C12 1_555 1_555
C18 C4 1_555 1_555
C19 O1 1_555 1_555
C20 O2 1_555 1_555
H1 C1 1_555 1_555
H2 C3 1_555 1_555
H3 C5 1_555 1_555
H4 C6 1_555 1_555
H5 C7 1_555 1_555
H6 C9 1_555 1_555
H7 C11 1_555 1_555
H8 C13 1_555 1_555
H9 C14 1_555 1_555
H10 C15 1_555 1_555
H11 C19 1_555 1_555
H12 C19 1_555 1_555
H13 C19 1_555 1_555
H14 C20 1_555 1_555
H15 C20 1_555 1_555
H16 C20 1_555 1_555
C8 C18 1_555 1_555
C16 C17 1_555 1_555
C17 C18 1_555 1_555

#END
