
#######################################################################
#
#                 Cambridge Crystallographic Data Centre
#                                CCDC 
#
#######################################################################
#
# If this CIF has been generated from an entry in the Cambridge 
# Structural Database, then it will include bibliographic, chemical, 
# crystal, experimental, refinement or atomic coordinate data resulting 
# from the CCDC's data processing and validation procedures.
#
#######################################################################

data_ODOVEL
_chemical_formula_moiety         'C10 H13 N1 O3'
_chemical_name_systematic        
2-methoxy-3-oxo-2-azabicyclo[3.3.1]non-6-ene-6-carbaldehyde
_symmetry_cell_setting           orthorhombic
_symmetry_space_group_name_H-M   'P c a 21'
_symmetry_Int_Tables_number      29
_space_group_name_Hall           'P 2c -2ac'
loop_
_symmetry_equiv_pos_site_id
_symmetry_equiv_pos_as_xyz
1 x,y,z
2 -x,-y,1/2+z
3 1/2+x,-y,z
4 1/2-x,y,1/2+z
_cell_length_a                   9.4727(17)
_cell_length_b                   7.3476(13)
_cell_length_c                   13.876(3)
_cell_angle_alpha                90
_cell_angle_beta                 90
_cell_angle_gamma                90
_cell_volume                     965.792
_exptl_crystal_colour            colorless
_exptl_crystal_description       prismatic
_cell_formula_units_Z            4
loop_
_atom_site_label
_atom_site_type_symbol
_atom_site_fract_x
_atom_site_fract_y
_atom_site_fract_z
N1 N 0.1411(2) 0.7560(3) 0.47588(16)
O1 O 0.0637(2) 0.5203(3) 0.56388(15)
O2 O 0.0279(2) 0.8600(3) 0.50762(16)
O3 O 0.2795(2) 0.2227(3) 0.2477(2)
C1 C 0.1435(2) 0.5805(4) 0.50321(17)
C2 C 0.2532(3) 0.4637(3) 0.45670(19)
H1 H 0.2111 0.3469 0.4414
H2 H 0.3280 0.4421 0.5030
C3 C 0.3186(2) 0.5410(3) 0.36540(18)
H3 H 0.4053 0.4738 0.3507
C4 C 0.3547(3) 0.7379(4) 0.3832(2)
H4 H 0.4123 0.7492 0.4407
H5 H 0.4073 0.7868 0.3291
C5 C 0.2184(3) 0.8404(3) 0.3958(2)
H6 H 0.2402 0.9667 0.4129
C6 C 0.1310(4) 0.8397(4) 0.3042(2)
H7 H 0.0339 0.8690 0.3200
H8 H 0.1661 0.9332 0.2610
C7 C 0.1356(3) 0.6617(3) 0.25456(18)
H9 H 0.0765 0.6440 0.2019
C8 C 0.2192(3) 0.5263(3) 0.28102(18)
C9 C 0.2120(3) 0.3562(4) 0.2285(2)
H10 H 0.1508 0.3499 0.1762
C10 C 0.0686(5) 0.9622(5) 0.5903(3)
H11 H 0.0938 0.8805 0.6414
H12 H -0.0088 1.0374 0.6105
H13 H 0.1481 1.0376 0.5745
loop_
_geom_bond_atom_site_label_1
_geom_bond_atom_site_label_2
_geom_bond_site_symmetry_1
_geom_bond_site_symmetry_2
N1 O2 1_555 1_555
O1 C1 1_555 1_555
O2 C10 1_555 1_555
O3 C9 1_555 1_555
C1 N1 1_555 1_555
C2 C1 1_555 1_555
H1 C2 1_555 1_555
H2 C2 1_555 1_555
C3 C2 1_555 1_555
H3 C3 1_555 1_555
C4 C3 1_555 1_555
H4 C4 1_555 1_555
H5 C4 1_555 1_555
C5 N1 1_555 1_555
H6 C5 1_555 1_555
C6 C5 1_555 1_555
H7 C6 1_555 1_555
H8 C6 1_555 1_555
C7 C6 1_555 1_555
H9 C7 1_555 1_555
C8 C3 1_555 1_555
C9 C8 1_555 1_555
H10 C9 1_555 1_555
C10 H11 1_555 1_555
H12 C10 1_555 1_555
H13 C10 1_555 1_555
C4 C5 1_555 1_555
C7 C8 1_555 1_555

#END
