
#######################################################################
#
#                 Cambridge Crystallographic Data Centre
#                                CCDC 
#
#######################################################################
#
# If this CIF has been generated from an entry in the Cambridge 
# Structural Database, then it will include bibliographic, chemical, 
# crystal, experimental, refinement or atomic coordinate data resulting 
# from the CCDC's data processing and validation procedures.
#
#######################################################################

data_ODOVEI
_chemical_formula_moiety         'C20 H16 Cl2 O2'
_chemical_name_systematic        
endo,exo-5,11-Dichloro-4,12-dimethoxy-4,12-dihydrodibenzo(ef,kl)heptalene
_symmetry_cell_setting           monoclinic
_symmetry_space_group_name_H-M   'P 21/c'
_symmetry_Int_Tables_number      14
_space_group_name_Hall           '-P 2ybc'
loop_
_symmetry_equiv_pos_site_id
_symmetry_equiv_pos_as_xyz
1 x,y,z
2 x,1/2-y,1/2+z
3 -x,-y,-z
4 -x,1/2+y,1/2-z
_cell_length_a                   12.3267(3)
_cell_length_b                   12.84100(10)
_cell_length_c                   11.7222(2)
_cell_angle_alpha                90
_cell_angle_beta                 111.53
_cell_angle_gamma                90
_cell_volume                     1726.01
_exptl_crystal_colour            colorless
_exptl_crystal_description       columnar
_chemical_melting_point          175-176deg.C
_cell_formula_units_Z            4
_exptl_crystal_recrystallization_method chloroform/ether
loop_
_atom_site_label
_atom_site_type_symbol
_atom_site_fract_x
_atom_site_fract_y
_atom_site_fract_z
Cl1 Cl 0.55503(6) 0.16008(5) 0.65438(7)
Cl2 Cl -0.08696(7) 0.04862(9) 0.84995(8)
O1 O 0.55224(13) 0.02445(12) 0.86006(16)
O2 O 0.01142(13) 0.20016(13) 0.63035(14)
C1 C 0.25247(16) 0.21026(16) 0.81303(18)
C2 C 0.24305(17) 0.10290(15) 0.76076(18)
C3 C 0.34424(17) 0.04689(15) 0.76864(19)
C4 C 0.46146(17) 0.09895(16) 0.8288(2)
C5 C 0.46748(17) 0.18238(16) 0.7388(2)
C6 C 0.40108(18) 0.26640(16) 0.7203(2)
C7 C 0.32621(18) 0.28625(16) 0.7918(2)
C8 C 0.3319(2) 0.38653(18) 0.8400(3)
C9 C 0.2745(3) 0.4111(2) 0.9171(3)
C10 C 0.2046(2) 0.3380(2) 0.9414(2)
C11 C 0.18746(18) 0.23905(19) 0.88648(19)
C12 C 0.0990(2) 0.1737(2) 0.9075(2)
C13 C 0.0233(2) 0.1164(2) 0.8223(2)
C14 C 0.02184(18) 0.1041(2) 0.6928(2)
C15 C 0.13459(18) 0.05267(17) 0.70196(19)
C16 C 0.1301(2) -0.04802(18) 0.6554(2)
C17 C 0.2304(2) -0.10086(18) 0.6664(2)
C18 C 0.3374(2) -0.05372(17) 0.7219(2)
C19 C 0.6601(2) 0.0636(2) 0.9453(3)
C20 C -0.0887(3) 0.2583(3) 0.6234(3)
H1 H 0.4674 0.1320 0.9071
H2 H 0.4028 0.3171 0.6651
H3 H 0.3778 0.4321 0.8243
H4 H 0.2810 0.4776 0.9531
H5 H 0.1580 0.3500 0.9986
H6 H 0.0911 0.1810 0.9891
H7 H -0.0471 0.0611 0.6425
H8 H 0.0537 -0.0790 0.6128
H9 H 0.2238 -0.1705 0.6377
H10 H 0.4094 -0.0877 0.7320
H11 H 0.6863 0.1251 0.9086
H12 H 0.7222 0.0085 0.9643
H13 H 0.6485 0.0865 1.0201
H14 H -0.1708 0.2119 0.5936
H15 H -0.0946 0.2747 0.6908
H16 H -0.1042 0.3136 0.5543
loop_
_geom_bond_atom_site_label_1
_geom_bond_atom_site_label_2
_geom_bond_site_symmetry_1
_geom_bond_site_symmetry_2
Cl1 C5 1_555 1_555
Cl2 C13 1_555 1_555
O1 C4 1_555 1_555
O2 C14 1_555 1_555
C1 C2 1_555 1_555
C2 C3 1_555 1_555
C3 C4 1_555 1_555
C4 C5 1_555 1_555
C5 C6 1_555 1_555
C6 C7 1_555 1_555
C7 C1 1_555 1_555
C8 C7 1_555 1_555
C9 C8 1_555 1_555
C10 C9 1_555 1_555
C11 C1 1_555 1_555
C12 C11 1_555 1_555
C13 C12 1_555 1_555
C14 C13 1_555 1_555
C15 C2 1_555 1_555
C16 C15 1_555 1_555
C17 C16 1_555 1_555
C18 C3 1_555 1_555
C19 O1 1_555 1_555
C20 O2 1_555 1_555
H1 C4 1_555 1_555
H2 C6 1_555 1_555
H3 C8 1_555 1_555
H4 C9 1_555 1_555
H5 C10 1_555 1_555
H6 C12 1_555 1_555
H7 C14 1_555 1_555
H8 C16 1_555 1_555
H9 C17 1_555 1_555
H10 C18 1_555 1_555
H11 C19 1_555 1_555
H12 C19 1_555 1_555
H13 C19 1_555 1_555
H14 C20 1_555 1_555
H15 C20 1_555 1_555
H16 C20 1_555 1_555
C10 C11 1_555 1_555
C14 C15 1_555 1_555
C17 C18 1_555 1_555

#END
