
#######################################################################
#
#                 Cambridge Crystallographic Data Centre
#                                CCDC 
#
#######################################################################
#
# If this CIF has been generated from an entry in the Cambridge 
# Structural Database, then it will include bibliographic, chemical, 
# crystal, experimental, refinement or atomic coordinate data resulting 
# from the CCDC's data processing and validation procedures.
#
#######################################################################

data_ODOVOV
_chemical_formula_moiety         'C17 H18 Br1 N1 O4'
_chemical_name_systematic        
'(2-methoxy-3-oxo-2-azabicyclo[3.3.1]non-7-en-6-yl)methyl 4-bromobenzoate'
_symmetry_cell_setting           monoclinic
_symmetry_space_group_name_H-M   'C 2/c'
_symmetry_Int_Tables_number      15
_space_group_name_Hall           '-C 2yn'
loop_
_symmetry_equiv_pos_site_id
_symmetry_equiv_pos_as_xyz
1 x,y,z
2 -x,y,1/2-z
3 1/2+x,1/2+y,z
4 1/2-x,1/2+y,1/2-z
5 -x,-y,-z
6 x,-y,1/2+z
7 1/2-x,1/2-y,-z
8 1/2+x,1/2-y,1/2+z
_cell_length_a                   25.599(3)
_cell_length_b                   7.2260(9)
_cell_length_c                   18.684(2)
_cell_angle_alpha                90
_cell_angle_beta                 106.281(3)
_cell_angle_gamma                90
_cell_volume                     3317.54
_exptl_crystal_colour            colorless
_exptl_crystal_description       prismatic
_cell_formula_units_Z            8
loop_
_atom_site_label
_atom_site_type_symbol
_atom_site_fract_x
_atom_site_fract_y
_atom_site_fract_z
Br1 Br 0.52909(3) 0.29949(10) 0.86306(3)
N1 N 0.17177(17) 1.2909(5) 0.81242(19)
O1 O 0.24229(14) 1.4906(4) 0.84080(16)
O2 O 0.13809(14) 1.4358(4) 0.82394(16)
O3 O 0.34262(12) 0.8366(4) 0.95537(16)
O4 O 0.40521(16) 1.0499(5) 0.9664(3)
C1 C 0.2256(2) 1.3335(6) 0.8311(2)
C2 C 0.26225(18) 1.1720(5) 0.8318(2)
H1 H 0.2963 1.1960 0.8694
H2 H 0.2703 1.1696 0.7840
C3 C 0.24361(17) 0.9793(5) 0.84581(19)
H3 H 0.2640 0.8891 0.8251
C4 C 0.18436(18) 0.9616(5) 0.8045(2)
H4 H 0.1711 0.8402 0.8129
H5 H 0.1792 0.9771 0.7514
C5 C 0.15352(18) 1.1105(6) 0.8331(2)
H6 H 0.1144 1.0963 0.8094
C6 C 0.16450(18) 1.0984(6) 0.9162(2)
H7 H 0.1394 1.1479 0.9385
C7 C 0.20838(18) 1.0202(5) 0.9576(2)
H8 H 0.2139 1.0202 1.0089
C8 C 0.25058(16) 0.9303(5) 0.92768(19)
H9 H 0.2441 0.7968 0.9287
C9 C 0.30653(17) 0.9616(5) 0.9779(2)
H10 H 0.3176 1.0886 0.9738
H11 H 0.3073 0.9384 1.0293
C10 C 0.1043(2) 1.4943(8) 0.7541(3)
H12 H 0.1264 1.5298 0.7225
H13 H 0.0828 1.5981 0.7611
H14 H 0.0806 1.3948 0.7312
C11 C 0.39000(18) 0.8954(6) 0.9520(2)
C12 C 0.42204(18) 0.7492(6) 0.9292(2)
C13 C 0.40211(19) 0.5743(6) 0.9106(2)
H15 H 0.3669 0.5449 0.9114
C14 C 0.4343(2) 0.4419(7) 0.8907(3)
H16 H 0.4208 0.3231 0.8785
C15 C 0.48522(19) 0.4836(7) 0.8889(2)
C16 C 0.5055(2) 0.6578(8) 0.9061(3)
H17 H 0.5404 0.6865 0.9040
C17 C 0.4743(2) 0.7891(7) 0.9263(3)
H18 H 0.4883 0.9075 0.9383
loop_
_geom_bond_atom_site_label_1
_geom_bond_atom_site_label_2
_geom_bond_site_symmetry_1
_geom_bond_site_symmetry_2
Br1 C15 1_555 1_555
N1 O2 1_555 1_555
O1 C1 1_555 1_555
O2 C10 1_555 1_555
O3 C9 1_555 1_555
O4 C11 1_555 1_555
C1 N1 1_555 1_555
C2 C1 1_555 1_555
H1 C2 1_555 1_555
H2 C2 1_555 1_555
C3 C2 1_555 1_555
H3 C3 1_555 1_555
C4 C3 1_555 1_555
H4 C4 1_555 1_555
H5 C4 1_555 1_555
C5 N1 1_555 1_555
H6 C5 1_555 1_555
C6 C5 1_555 1_555
H7 C6 1_555 1_555
C7 C6 1_555 1_555
H8 C7 1_555 1_555
C8 C3 1_555 1_555
H9 C8 1_555 1_555
C9 C8 1_555 1_555
H10 C9 1_555 1_555
H11 C9 1_555 1_555
C10 H12 1_555 1_555
H13 C10 1_555 1_555
H14 C10 1_555 1_555
C11 O3 1_555 1_555
C12 C11 1_555 1_555
C13 C12 1_555 1_555
H15 C13 1_555 1_555
C14 C13 1_555 1_555
H16 C14 1_555 1_555
C15 C14 1_555 1_555
C16 C15 1_555 1_555
H17 C16 1_555 1_555
C17 C12 1_555 1_555
H18 C17 1_555 1_555
C4 C5 1_555 1_555
C7 C8 1_555 1_555
C16 C17 1_555 1_555

#END
