
#######################################################################
#
#                 Cambridge Crystallographic Data Centre
#                                CCDC 
#
#######################################################################
#
# If this CIF has been generated from an entry in the Cambridge 
# Structural Database, then it will include bibliographic, chemical, 
# crystal, experimental, refinement or atomic coordinate data resulting 
# from the CCDC's data processing and validation procedures.
#
#######################################################################

data_ODOVAH
_chemical_formula_moiety         'C16 H15 Br1 O4'
_chemical_name_systematic        
'(3-oxo-2-oxabicyclo[3.3.1]non-7-en-6-yl)methyl 4-bromobenzoate'
_symmetry_cell_setting           monoclinic
_symmetry_space_group_name_H-M   'P 21/c'
_symmetry_Int_Tables_number      14
_space_group_name_Hall           '-P 2ybc'
loop_
_symmetry_equiv_pos_site_id
_symmetry_equiv_pos_as_xyz
1 x,y,z
2 -x,1/2+y,1/2-z
3 -x,-y,-z
4 x,1/2-y,1/2+z
_cell_length_a                   16.786(3)
_cell_length_b                   5.9832(9)
_cell_length_c                   15.586(2)
_cell_angle_alpha                90
_cell_angle_beta                 109.259(3)
_cell_angle_gamma                90
_cell_volume                     1477.76
_exptl_crystal_colour            colorless
_exptl_crystal_description       prismatic
_cell_formula_units_Z            4
loop_
_atom_site_label
_atom_site_type_symbol
_atom_site_fract_x
_atom_site_fract_y
_atom_site_fract_z
Br1 Br 0.39086(2) 1.28496(7) 0.35563(3)
O1 O 0.78757(17) -0.0174(4) 0.15329(18)
O2 O 0.90086(15) 0.1732(4) 0.21993(17)
O3 O 0.75432(15) 0.7033(4) 0.43579(16)
O4 O 0.80547(15) 0.9799(4) 0.53457(16)
C1 C 0.8185(2) 0.1388(6) 0.2007(2)
C2 C 0.7665(2) 0.3038(6) 0.2312(2)
H1 H 0.7305 0.2205 0.2573
H2 H 0.7298 0.3790 0.1775
C3 C 0.81141(19) 0.4827(5) 0.2993(2)
H3 H 0.7750 0.6149 0.2889
C4 C 0.8908(2) 0.5442(5) 0.2800(2)
H4 H 0.8771 0.6021 0.2187
H5 H 0.9216 0.6581 0.3222
C5 C 0.9429(2) 0.3364(6) 0.2907(3)
H6 H 0.9974 0.3760 0.2844
C6 C 0.9585(2) 0.2335(5) 0.3808(3)
H7 H 1.0049 0.1397 0.4037
C7 C 0.9097(2) 0.2690(6) 0.4295(3)
H8 H 0.9244 0.2045 0.4869
C8 C 0.83078(19) 0.4091(5) 0.3976(2)
H9 H 0.7837 0.3158 0.4004
C9 C 0.8376(2) 0.6050(7) 0.4608(2)
H10 H 0.8558 0.5552 0.5235
H11 H 0.8781 0.7131 0.4537
C10 C 0.7477(2) 0.8932(6) 0.4782(2)
C11 C 0.6601(2) 0.9827(5) 0.4447(2)
C12 C 0.5937(2) 0.8696(6) 0.3844(2)
H12 H 0.6032 0.7322 0.3616
C13 C 0.5135(2) 0.9572(6) 0.3574(2)
H13 H 0.4686 0.8782 0.3180
C14 C 0.5010(2) 1.1623(6) 0.3893(2)
C15 C 0.5667(2) 1.2796(6) 0.4478(2)
H14 H 0.5573 1.4198 0.4685
C16 C 0.6456(2) 1.1907(5) 0.4757(2)
H15 H 0.6901 1.2699 0.5157
loop_
_geom_bond_atom_site_label_1
_geom_bond_atom_site_label_2
_geom_bond_site_symmetry_1
_geom_bond_site_symmetry_2
Br1 C14 1_555 1_555
O1 C1 1_555 1_555
O2 C1 1_555 1_555
O3 C9 1_555 1_555
O4 C10 1_555 1_555
C1 C2 1_555 1_555
C2 H1 1_555 1_555
H2 C2 1_555 1_555
C3 C2 1_555 1_555
H3 C3 1_555 1_555
C4 C3 1_555 1_555
H4 C4 1_555 1_555
H5 C4 1_555 1_555
C5 O2 1_555 1_555
H6 C5 1_555 1_555
C6 C5 1_555 1_555
H7 C6 1_555 1_555
C7 C6 1_555 1_555
H8 C7 1_555 1_555
C8 C3 1_555 1_555
H9 C8 1_555 1_555
C9 C8 1_555 1_555
H10 C9 1_555 1_555
H11 C9 1_555 1_555
C10 O3 1_555 1_555
C11 C10 1_555 1_555
C12 C11 1_555 1_555
H12 C12 1_555 1_555
C13 C12 1_555 1_555
H13 C13 1_555 1_555
C14 C13 1_555 1_555
C15 C14 1_555 1_555
H14 C15 1_555 1_555
C16 C11 1_555 1_555
H15 C16 1_555 1_555
C4 C5 1_555 1_555
C7 C8 1_555 1_555
C15 C16 1_555 1_555

#END
