
#######################################################################
#
#                 Cambridge Crystallographic Data Centre
#                                CCDC 
#
#######################################################################
#
# If this CIF has been generated from an entry in the Cambridge 
# Structural Database, then it will include bibliographic, chemical, 
# crystal, experimental, refinement or atomic coordinate data resulting 
# from the CCDC's data processing and validation procedures.
#
#######################################################################

data_ODOYEN
_chemical_formula_moiety         '2(C30 H64 Li4 N10),C6 H14'
_chemical_name_systematic        
"bis(\m~4~-2-[(methylazanidyl)methyl]pyrrolato)-(\m~2~-N,N,N',N'-tetramethylethane-1,2-diamine)-bis(N,N,N',N'-tetramethylethane-1,2-diamine)-tetra-lithium n-hexane solvate"
_symmetry_cell_setting           monoclinic
_symmetry_space_group_name_H-M   'P 21/c'
_symmetry_Int_Tables_number      14
_space_group_name_Hall           '-P 2ybc'
loop_
_symmetry_equiv_pos_site_id
_symmetry_equiv_pos_as_xyz
1 x,y,z
2 -x,1/2+y,1/2-z
3 -x,-y,-z
4 x,1/2-y,1/2+z
_cell_length_a                   11.896(3)
_cell_length_b                   19.187(4)
_cell_length_c                   18.448(4)
_cell_angle_alpha                90
_cell_angle_beta                 99.045(5)
_cell_angle_gamma                90
_cell_volume                     4158.37
_cell_formula_units_Z            2
loop_
_atom_site_label
_atom_site_type_symbol
_atom_site_fract_x
_atom_site_fract_y
_atom_site_fract_z
Li1 Li 0.5091(5) 0.7076(3) 0.5966(4)
Li2 Li 0.3790(6) 0.7060(3) 0.6925(3)
Li3 Li 0.2090(5) 0.7520(3) 0.6441(3)
Li4 Li 0.2216(6) 0.8814(3) 0.6372(4)
N1 N 0.5483(3) 0.72617(19) 0.71021(18)
N2 N 0.3219(3) 0.81207(16) 0.71187(16)
N3 N 0.1315(3) 0.81485(15) 0.56181(17)
N4 N 0.3296(3) 0.70178(15) 0.58242(16)
N5 N 0.6000(4) 0.6250(2) 0.5478(3)
N6 N 0.6315(3) 0.7772(2) 0.5512(2)
N7 N 0.3342(3) 0.61900(18) 0.75509(19)
N8 N 0.0909(3) 0.69312(16) 0.69551(18)
N9 N 0.1243(4) 0.9645(2) 0.6802(2)
N10 N 0.2718(3) 0.96889(17) 0.5678(2)
C1 C 0.6450(4) 0.7012(3) 0.7529(3)
H1 H 0.6755 0.6560 0.7482
C2 C 0.6913(4) 0.7494(3) 0.8026(3)
H2 H 0.7587 0.7443 0.8374
C3 C 0.6213(4) 0.8072(3) 0.7926(3)
H3 H 0.6311 0.8496 0.8195
C4 C 0.5349(3) 0.7918(2) 0.7362(2)
C5 C 0.4363(3) 0.8365(2) 0.7027(2)
H4 H 0.4473 0.8838 0.7242
H5 H 0.4388 0.8408 0.6495
C6 C 0.3124(4) 0.8210(2) 0.7888(2)
H6 H 0.3689 0.7916 0.8188
H7 H 0.2359 0.8076 0.7968
H8 H 0.3262 0.8700 0.8027
C7 C 0.0209(4) 0.8257(2) 0.5289(3)
H9 H -0.0349 0.8489 0.5516
C8 C 0.0013(4) 0.7989(2) 0.4595(3)
H10 H -0.0681 0.8002 0.4261
C9 C 0.1042(4) 0.7694(2) 0.4479(2)
H11 H 0.1176 0.7461 0.4046
C10 C 0.1820(3) 0.77979(19) 0.5093(2)
C11 C 0.3042(3) 0.7577(2) 0.5274(2)
H12 H 0.3298 0.7422 0.4815
H13 H 0.3501 0.7991 0.5452
C12 C 0.2810(4) 0.6379(2) 0.5476(2)
H14 H 0.1983 0.6432 0.5346
H15 H 0.2979 0.5987 0.5817
H16 H 0.3141 0.6288 0.5031
C13 C 0.7017(5) 0.6580(3) 0.5366(5)
H17 H 0.7619 0.6407 0.5757
H18 H 0.7202 0.6397 0.4897
C14 C 0.7148(5) 0.7288(3) 0.5343(4)
H19 H 0.7284 0.7401 0.4840
H20 H 0.7863 0.7398 0.5676
C15 C 0.5440(5) 0.5966(3) 0.4791(3)
H21 H 0.5215 0.6347 0.4445
H22 H 0.4762 0.5707 0.4874
H23 H 0.5962 0.5653 0.4589
C16 C 0.6307(7) 0.5684(4) 0.5974(4)
H24 H 0.6684 0.5320 0.5727
H25 H 0.5621 0.5492 0.6131
H26 H 0.6827 0.5851 0.6403
C17 C 0.6868(5) 0.8257(4) 0.6054(3)
H27 H 0.7491 0.8492 0.5861
H28 H 0.7174 0.8004 0.6503
H29 H 0.6315 0.8604 0.6164
C18 C 0.5855(5) 0.8136(3) 0.4851(3)
H30 H 0.5352 0.8510 0.4968
H31 H 0.5422 0.7810 0.4505
H32 H 0.6478 0.8336 0.4629
C19 C 0.2166(4) 0.5940(2) 0.7490(3)
H33 H 0.2143 0.5571 0.7862
H34 H 0.1955 0.5721 0.7001
C20 C 0.1280(4) 0.6472(3) 0.7583(3)
H35 H 0.0603 0.6224 0.7703
H36 H 0.1578 0.6766 0.8011
C21 C 0.3803(5) 0.6385(3) 0.8309(3)
H37 H 0.3316 0.6741 0.8480
H38 H 0.4575 0.6570 0.8328
H39 H 0.3825 0.5973 0.8626
C22 C 0.4061(4) 0.5616(3) 0.7340(3)
H40 H 0.4019 0.5216 0.7666
H41 H 0.4852 0.5774 0.7384
H42 H 0.3786 0.5477 0.6832
C23 C 0.0261(4) 0.6551(2) 0.6338(3)
H43 H -0.0405 0.6333 0.6496
H44 H 0.0744 0.6190 0.6171
H45 H 0.0011 0.6875 0.5935
C24 C 0.0139(4) 0.7454(3) 0.7183(3)
H46 H -0.0117 0.7769 0.6772
H47 H 0.0539 0.7721 0.7597
H48 H -0.0521 0.7220 0.7332
C25 C 0.1167(6) 1.0167(3) 0.6236(4)
H49 H 0.0530 1.0038 0.5848
H50 H 0.0959 1.0613 0.6450
C26 C 0.2131(5) 1.0290(3) 0.5896(4)
H51 H 0.2681 1.0569 0.6237
H52 H 0.1890 1.0580 0.5455
C27 C 0.0093(6) 0.9449(3) 0.6905(4)
H53 H 0.0132 0.9072 0.7266
H54 H -0.0336 0.9291 0.6437
H55 H -0.0289 0.9853 0.7082
C28 C 0.1837(6) 0.9902(4) 0.7504(4)
H56 H 0.1510 1.0350 0.7618
H57 H 0.2646 0.9963 0.7474
H58 H 0.1754 0.9565 0.7891
C29 C 0.3919(5) 0.9840(3) 0.5722(4)
H59 H 0.4018 1.0239 0.5407
H60 H 0.4309 0.9433 0.5560
H61 H 0.4242 0.9951 0.6231
C30 C 0.2271(6) 0.9518(3) 0.4919(3)
H62 H 0.1448 0.9442 0.4868
H63 H 0.2639 0.9093 0.4777
H64 H 0.2426 0.9903 0.4599
C31 C 0.8950(7) 0.6024(4) 0.3735(4)
H65 H 0.8285 0.5742 0.3540
H66 H 0.9237 0.6260 0.3330
H67 H 0.8732 0.6373 0.4076
C32 C 0.9824(7) 0.5582(4) 0.4116(4)
H68 H 1.0520 0.5865 0.4254
H69 H 1.0001 0.5218 0.3770
C33 C 0.9552(5) 0.5228(3) 0.4796(3)
H70 H 0.9364 0.5592 0.5138
H71 H 0.8858 0.4942 0.4655
C31B C 1.1050(7) 0.3976(4) 0.6265(4)
H65B H 1.1715 0.4258 0.6460
H66B H 1.0763 0.3740 0.6670
H67B H 1.1268 0.3627 0.5924
C32B C 1.0176(7) 0.4418(4) 0.5884(4)
H68B H 0.9480 0.4135 0.5746
H69B H 0.9999 0.4782 0.6230
C33B C 1.0448(5) 0.4772(3) 0.5204(3)
H70B H 1.0636 0.4408 0.4862
H71B H 1.1142 0.5058 0.5345
loop_
_geom_bond_atom_site_label_1
_geom_bond_atom_site_label_2
_geom_bond_site_symmetry_1
_geom_bond_site_symmetry_2
Li1 N1 1_555 1_555
Li2 N1 1_555 1_555
Li3 N2 1_555 1_555
Li4 N2 1_555 1_555
N1 C1 1_555 1_555
N2 Li2 1_555 1_555
N3 Li3 1_555 1_555
N4 Li1 1_555 1_555
N5 Li1 1_555 1_555
N6 Li1 1_555 1_555
N7 Li2 1_555 1_555
N8 Li3 1_555 1_555
N9 Li4 1_555 1_555
N10 Li4 1_555 1_555
C1 H1 1_555 1_555
C2 C1 1_555 1_555
H2 C2 1_555 1_555
C3 C2 1_555 1_555
H3 C3 1_555 1_555
C4 N1 1_555 1_555
C5 N2 1_555 1_555
H4 C5 1_555 1_555
H5 C5 1_555 1_555
C6 N2 1_555 1_555
H6 C6 1_555 1_555
H7 C6 1_555 1_555
H8 C6 1_555 1_555
C7 N3 1_555 1_555
H9 C7 1_555 1_555
C8 C7 1_555 1_555
H10 C8 1_555 1_555
C9 C8 1_555 1_555
H11 C9 1_555 1_555
C10 N3 1_555 1_555
C11 N4 1_555 1_555
H12 C11 1_555 1_555
H13 C11 1_555 1_555
C12 N4 1_555 1_555
H14 C12 1_555 1_555
H15 C12 1_555 1_555
H16 C12 1_555 1_555
C13 N5 1_555 1_555
H17 C13 1_555 1_555
H18 C13 1_555 1_555
C14 N6 1_555 1_555
H19 C14 1_555 1_555
H20 C14 1_555 1_555
C15 N5 1_555 1_555
H21 C15 1_555 1_555
H22 C15 1_555 1_555
H23 C15 1_555 1_555
C16 N5 1_555 1_555
H24 C16 1_555 1_555
H25 C16 1_555 1_555
H26 C16 1_555 1_555
C17 N6 1_555 1_555
H27 C17 1_555 1_555
H28 C17 1_555 1_555
H29 C17 1_555 1_555
C18 N6 1_555 1_555
H30 C18 1_555 1_555
H31 C18 1_555 1_555
H32 C18 1_555 1_555
C19 N7 1_555 1_555
H33 C19 1_555 1_555
H34 C19 1_555 1_555
C20 N8 1_555 1_555
H35 C20 1_555 1_555
H36 C20 1_555 1_555
C21 N7 1_555 1_555
H37 C21 1_555 1_555
H38 C21 1_555 1_555
H39 C21 1_555 1_555
C22 N7 1_555 1_555
H40 C22 1_555 1_555
H41 C22 1_555 1_555
H42 C22 1_555 1_555
C23 N8 1_555 1_555
H43 C23 1_555 1_555
H44 C23 1_555 1_555
H45 C23 1_555 1_555
C24 N8 1_555 1_555
H46 C24 1_555 1_555
H47 C24 1_555 1_555
H48 C24 1_555 1_555
C25 N9 1_555 1_555
H49 C25 1_555 1_555
H50 C25 1_555 1_555
C26 N10 1_555 1_555
H51 C26 1_555 1_555
H52 C26 1_555 1_555
C27 N9 1_555 1_555
H53 C27 1_555 1_555
H54 C27 1_555 1_555
H55 C27 1_555 1_555
C28 N9 1_555 1_555
H56 C28 1_555 1_555
H57 C28 1_555 1_555
H58 C28 1_555 1_555
C29 N10 1_555 1_555
H59 C29 1_555 1_555
H60 C29 1_555 1_555
H61 C29 1_555 1_555
C30 N10 1_555 1_555
H62 C30 1_555 1_555
H63 C30 1_555 1_555
H64 C30 1_555 1_555
C31 H65 1_555 1_555
H66 C31 1_555 1_555
H67 C31 1_555 1_555
C32 C31 1_555 1_555
H68 C32 1_555 1_555
H69 C32 1_555 1_555
C33 C32 1_555 1_555
H70 C33 1_555 1_555
H71 C33 1_555 1_555
C31B H65B 1_555 1_555
H66B C31B 1_555 1_555
H67B C31B 1_555 1_555
C32B C31B 1_555 1_555
H68B C32B 1_555 1_555
H69B C32B 1_555 1_555
C33B C33 1_555 1_555
H70B C33B 1_555 1_555
H71B C33B 1_555 1_555
Li2 N4 1_555 1_555
Li3 N4 1_555 1_555
Li4 N3 1_555 1_555
C3 C4 1_555 1_555
C4 C5 1_555 1_555
C9 C10 1_555 1_555
C10 C11 1_555 1_555
C13 C14 1_555 1_555
C19 C20 1_555 1_555
C25 C26 1_555 1_555
C32B C33B 1_555 1_555

#END
