
#######################################################################
#
#                 Cambridge Crystallographic Data Centre
#                                CCDC 
#
#######################################################################
#
# If this CIF has been generated from an entry in the Cambridge 
# Structural Database, then it will include bibliographic, chemical, 
# crystal, experimental, refinement or atomic coordinate data resulting 
# from the CCDC's data processing and validation procedures.
#
#######################################################################

data_ODUBUN
_chemical_formula_moiety         'C19 H17 Cl2 N3 O2'
_chemical_name_systematic        
'methyl 4-(2,4-dichlorophenyl)-2-(5,6-dimethyl-2H-benzotriazol-2-yl)but-3-enoate'
_symmetry_cell_setting           orthorhombic
_symmetry_space_group_name_H-M   'P b c a'
_symmetry_Int_Tables_number      61
_space_group_name_Hall           '-P 2ac 2ab'
loop_
_symmetry_equiv_pos_site_id
_symmetry_equiv_pos_as_xyz
1 x,y,z
2 1/2-x,-y,1/2+z
3 1/2+x,1/2-y,-z
4 -x,1/2+y,1/2-z
5 -x,-y,-z
6 1/2+x,y,1/2-z
7 1/2-x,1/2+y,z
8 x,1/2-y,1/2+z
_cell_length_a                   12.8093(13)
_cell_length_b                   9.8339(10)
_cell_length_c                   28.828(3)
_cell_angle_alpha                90
_cell_angle_beta                 90
_cell_angle_gamma                90
_cell_volume                     3631.33
_cell_formula_units_Z            8
loop_
_atom_site_label
_atom_site_type_symbol
_atom_site_fract_x
_atom_site_fract_y
_atom_site_fract_z
Cl1 Cl 0.52382(5) -0.39770(6) 0.45200(2)
Cl2 Cl 0.18629(4) -0.08831(6) 0.42386(2)
O1 O 0.38958(12) 0.35934(16) 0.30904(5)
O2 O 0.38677(13) 0.35543(18) 0.23106(5)
N1 N 0.15447(13) 0.20923(18) 0.21241(6)
N2 N 0.24128(14) 0.15481(18) 0.22977(6)
N3 N 0.29657(14) 0.07285(19) 0.20265(6)
C1 C 0.45448(17) -0.1277(2) 0.35366(8)
H1 H 0.486369 -0.092754 0.327244
C2 C 0.50624(17) -0.2264(2) 0.37886(8)
H2 H 0.571549 -0.257514 0.369582
C3 C 0.45890(18) -0.2778(2) 0.41807(8)
C4 C 0.36058(18) -0.2359(2) 0.43171(7)
H3 H 0.328890 -0.272775 0.457867
C5 C 0.31039(16) -0.1376(2) 0.40545(7)
C6 C 0.35602(17) -0.0782(2) 0.36625(7)
C7 C 0.30508(16) 0.0322(2) 0.34061(7)
H4 H 0.247862 0.073786 0.354510
C8 C 0.33387(17) 0.0776(2) 0.29928(7)
H5 H 0.389209 0.034656 0.284403
C9 C 0.28169(17) 0.1949(2) 0.27519(7)
H6 H 0.223480 0.226815 0.294386
C10 C 0.35862(16) 0.3128(2) 0.26803(7)
C11 C 0.46641(18) 0.4677(2) 0.30745(9)
H7 H 0.440664 0.540598 0.288497
H8 H 0.530295 0.433494 0.294516
H9 H 0.479118 0.500608 0.338288
C12 C 0.23931(17) 0.0707(2) 0.16328(7)
C13 C 0.25613(18) -0.0005(2) 0.12133(7)
H10 H 0.313248 -0.057973 0.117854
C14 C 0.18607(17) 0.0174(2) 0.08595(7)
C15 C 0.09711(18) 0.1059(2) 0.09164(8)
C16 C 0.07952(17) 0.1729(2) 0.13265(7)
H11 H 0.021234 0.228224 0.136378
C17 C 0.15212(17) 0.1558(2) 0.16905(7)
C18 C 0.2017(2) -0.0578(3) 0.04102(8)
H12 H 0.140948 -0.111623 0.034452
H13 H 0.261553 -0.115984 0.043573
H14 H 0.212481 0.006382 0.016381
C19 C 0.0194(2) 0.1197(3) 0.05267(8)
H15 H -0.035248 0.180781 0.061809
H16 H -0.009858 0.032148 0.045708
H17 H 0.053956 0.154808 0.025647
loop_
_geom_bond_atom_site_label_1
_geom_bond_atom_site_label_2
_geom_bond_site_symmetry_1
_geom_bond_site_symmetry_2
Cl1 C3 1_555 1_555
Cl2 C5 1_555 1_555
O1 C10 1_555 1_555
O2 C10 1_555 1_555
N1 N2 1_555 1_555
N2 N3 1_555 1_555
N3 C12 1_555 1_555
C1 H1 1_555 1_555
C2 C1 1_555 1_555
H2 C2 1_555 1_555
C3 C2 1_555 1_555
C4 C3 1_555 1_555
H3 C4 1_555 1_555
C5 C4 1_555 1_555
C6 C1 1_555 1_555
C7 C6 1_555 1_555
H4 C7 1_555 1_555
C8 C7 1_555 1_555
H5 C8 1_555 1_555
C9 N2 1_555 1_555
H6 C9 1_555 1_555
C10 C9 1_555 1_555
C11 O1 1_555 1_555
H7 C11 1_555 1_555
H8 C11 1_555 1_555
H9 C11 1_555 1_555
C12 C13 1_555 1_555
C13 H10 1_555 1_555
C14 C13 1_555 1_555
C15 C14 1_555 1_555
C16 C15 1_555 1_555
H11 C16 1_555 1_555
C17 N1 1_555 1_555
C18 C14 1_555 1_555
H12 C18 1_555 1_555
H13 C18 1_555 1_555
H14 C18 1_555 1_555
C19 C15 1_555 1_555
H15 C19 1_555 1_555
H16 C19 1_555 1_555
H17 C19 1_555 1_555
C5 C6 1_555 1_555
C8 C9 1_555 1_555
C12 C17 1_555 1_555
C16 C17 1_555 1_555

#END
