
#######################################################################
#
#                 Cambridge Crystallographic Data Centre
#                                CCDC 
#
#######################################################################
#
# If this CIF has been generated from an entry in the Cambridge 
# Structural Database, then it will include bibliographic, chemical, 
# crystal, experimental, refinement or atomic coordinate data resulting 
# from the CCDC's data processing and validation procedures.
#
#######################################################################

data_ODUDID
_chemical_formula_moiety         'C16 H24 N3 O1 S1 1+,H1 O4 S1 1-'
_chemical_name_systematic        
'N-t-butyl-4-oxo-5-phenyl-3-(propan-2-yl)-1,3,5-thiadiazinan-2-iminium hydrogen sulfate unknown solvate'
_symmetry_cell_setting           monoclinic
_symmetry_space_group_name_H-M   'P 21/n'
_symmetry_Int_Tables_number      14
_space_group_name_Hall           '-P 2yn'
loop_
_symmetry_equiv_pos_site_id
_symmetry_equiv_pos_as_xyz
1 x,y,z
2 1/2-x,1/2+y,1/2-z
3 -x,-y,-z
4 1/2+x,1/2-y,1/2+z
_cell_length_a                   11.1861(5)
_cell_length_b                   9.4316(3)
_cell_length_c                   18.7738(8)
_cell_angle_alpha                90
_cell_angle_beta                 100.552(4)
_cell_angle_gamma                90
_cell_volume                     1947.19
_exptl_crystal_colour            colorless
_exptl_crystal_description       block
_cell_formula_units_Z            4
loop_
_atom_site_label
_atom_site_type_symbol
_atom_site_fract_x
_atom_site_fract_y
_atom_site_fract_z
S1 S 0.87432(4) 0.13929(5) 0.43374(2)
O1 O 0.91114(12) 0.12695(13) 0.51274(7)
O2 O 0.91138(13) -0.00338(14) 0.40203(7)
H1 H 0.968828 -0.038172 0.429971
O3 O 0.74454(11) 0.14662(16) 0.41236(8)
O4 O 0.93740(14) 0.25119(16) 0.40436(9)
S2 S 0.70279(4) 0.76381(4) 0.42823(2)
O5 O 0.61576(11) 0.58971(13) 0.61817(7)
N1 N 0.70590(13) 0.77429(15) 0.57040(8)
N2 N 0.70626(13) 0.54610(14) 0.51972(8)
N3 N 0.67550(13) 0.48955(15) 0.39697(8)
H2 H 0.664275 0.404408 0.410767
C1 C 0.67055(15) 0.63787(18) 0.57394(9)
C2 C 0.67946(16) 0.87928(17) 0.62090(9)
C3 C 0.69361(15) 0.58448(18) 0.44885(9)
C4 C 0.67140(16) 0.50737(18) 0.31650(9)
C5 C 0.77557(16) 0.95582(19) 0.66016(9)
H3 H 0.854895 0.938096 0.654131
C6 C 0.73748(17) 0.39531(18) 0.54243(9)
H4 H 0.780464 0.354489 0.506250
C7 C 0.78014(16) 0.81331(19) 0.51771(10)
H5 H 0.858035 0.765352 0.528846
H6 H 0.794768 0.914732 0.519633
C8 C 0.75213(18) 1.05863(19) 0.70829(10)
H7 H 0.816069 1.110512 0.734557
C9 C 0.53960(18) 1.00796(19) 0.67835(10)
H8 H 0.460467 1.025287 0.684861
C10 C 0.56107(16) 0.90523(19) 0.62928(10)
H9 H 0.496881 0.854607 0.602441
C11 C 0.62586(17) 0.30414(18) 0.54313(10)
H10 H 0.586433 0.333980 0.581917
H11 H 0.649898 0.206670 0.550110
H12 H 0.570667 0.314104 0.497809
C12 C 0.63459(18) 1.08486(19) 0.71768(10)
H13 H 0.619362 1.153852 0.750265
C13 C 0.6270(2) 0.36491(19) 0.28357(10)
H14 H 0.683070 0.291892 0.303509
H15 H 0.621793 0.368486 0.231987
H16 H 0.548213 0.344580 0.294463
C14 C 0.57959(17) 0.62108(19) 0.28494(10)
H17 H 0.504517 0.605716 0.301678
H18 H 0.565412 0.616022 0.232999
H19 H 0.611129 0.712978 0.300302
C15 C 0.79891(17) 0.5380(2) 0.30302(10)
H20 H 0.828159 0.624586 0.326946
H21 H 0.796966 0.547331 0.251901
H22 H 0.852080 0.461474 0.321711
C16 C 0.82566(19) 0.3936(2) 0.61456(11)
H23 H 0.889059 0.461712 0.613362
H24 H 0.860608 0.300810 0.622943
H25 H 0.782904 0.417335 0.652860
loop_
_geom_bond_atom_site_label_1
_geom_bond_atom_site_label_2
_geom_bond_site_symmetry_1
_geom_bond_site_symmetry_2
S1 O1 1_555 1_555
O2 S1 1_555 1_555
H1 O2 1_555 1_555
O3 S1 1_555 1_555
O4 S1 1_555 1_555
S2 C3 1_555 1_555
O5 C1 1_555 1_555
N1 C1 1_555 1_555
N2 C1 1_555 1_555
N3 H2 1_555 1_555
C2 N1 1_555 1_555
C3 N2 1_555 1_555
C4 N3 1_555 1_555
C5 C2 1_555 1_555
H3 C5 1_555 1_555
C6 N2 1_555 1_555
H4 C6 1_555 1_555
C7 S2 1_555 1_555
H5 C7 1_555 1_555
H6 C7 1_555 1_555
C8 C5 1_555 1_555
H7 C8 1_555 1_555
C9 H8 1_555 1_555
C10 C2 1_555 1_555
H9 C10 1_555 1_555
C11 C6 1_555 1_555
H10 C11 1_555 1_555
H11 C11 1_555 1_555
H12 C11 1_555 1_555
C12 C8 1_555 1_555
H13 C12 1_555 1_555
C13 C4 1_555 1_555
H14 C13 1_555 1_555
H15 C13 1_555 1_555
H16 C13 1_555 1_555
C14 C4 1_555 1_555
H17 C14 1_555 1_555
H18 C14 1_555 1_555
H19 C14 1_555 1_555
C15 C4 1_555 1_555
H20 C15 1_555 1_555
H21 C15 1_555 1_555
H22 C15 1_555 1_555
C16 C6 1_555 1_555
H23 C16 1_555 1_555
H24 C16 1_555 1_555
H25 C16 1_555 1_555
N1 C7 1_555 1_555
N3 C3 1_555 1_555
C9 C10 1_555 1_555
C9 C12 1_555 1_555

#END
