
#######################################################################
#
#                 Cambridge Crystallographic Data Centre
#                                CCDC 
#
#######################################################################
#
# If this CIF has been generated from an entry in the Cambridge 
# Structural Database, then it will include bibliographic, chemical, 
# crystal, experimental, refinement or atomic coordinate data resulting 
# from the CCDC's data processing and validation procedures.
#
#######################################################################

data_ODUJIH
_chemical_formula_moiety         'C22 H31 P1'
_chemical_name_systematic        
rac-(2,4,6-Tri-isopropylphenyl)-methyl-phenylphosphine
_symmetry_cell_setting           monoclinic
_symmetry_space_group_name_H-M   'P 21/n'
_symmetry_Int_Tables_number      14
_space_group_name_Hall           '-P 2yn'
loop_
_symmetry_equiv_pos_site_id
_symmetry_equiv_pos_as_xyz
1 x,y,z
2 1/2-x,1/2+y,1/2-z
3 -x,-y,-z
4 1/2+x,1/2-y,1/2+z
_cell_length_a                   9.3903(14)
_cell_length_b                   12.4608(19)
_cell_length_c                   16.996(3)
_cell_angle_alpha                90
_cell_angle_beta                 93.718(3)
_cell_angle_gamma                90
_cell_volume                     1984.53
_exptl_crystal_colour            colorless
_exptl_crystal_description       block
_cell_formula_units_Z            4
_chemical_properties_physical    air-sensitive
loop_
_atom_site_label
_atom_site_type_symbol
_atom_site_fract_x
_atom_site_fract_y
_atom_site_fract_z
P1 P 0.34663(8) 0.07296(6) 0.05331(5)
C1 C 0.2730(3) 0.0226(3) -0.0422(2)
H1 H 0.3508 -0.0036 -0.0728
H2 H 0.2225 0.0807 -0.0711
H3 H 0.2064 -0.0362 -0.0337
C2 C 0.4371(3) 0.1970(2) 0.0293(2)
C3 C 0.4535(4) 0.2779(3) 0.0846(3)
H4 H 0.4078 0.2725 0.1328
C4 C 0.5363(5) 0.3674(3) 0.0703(3)
H5 H 0.5462 0.4230 0.1086
C5 C 0.6034(4) 0.3759(3) 0.0018(3)
H6 H 0.6606 0.4369 -0.0075
C6 C 0.5880(4) 0.2968(3) -0.0532(3)
H7 H 0.6334 0.3033 -0.1013
C7 C 0.5071(3) 0.2070(3) -0.0397(2)
H8 H 0.4993 0.1516 -0.0781
C8 C 0.1902(3) 0.1189(2) 0.10400(18)
C9 C 0.1728(4) 0.0750(2) 0.17952(19)
C10 C 0.0501(4) 0.1004(2) 0.2173(2)
H9 H 0.0378 0.0701 0.2677
C11 C -0.0530(4) 0.1668(3) 0.1851(2)
C12 C -0.0334(3) 0.2108(2) 0.1122(2)
H10 H -0.1046 0.2574 0.0893
C13 C 0.0861(3) 0.1897(2) 0.07126(19)
C14 C 0.2848(4) 0.0026(3) 0.2218(2)
H11 H 0.3731 0.0119 0.1926
C15 C 0.2592(7) -0.1067(5) 0.2221(5)
H12 H 0.3135 -0.1414 0.1819
H13 H 0.1571 -0.1200 0.2107
H14 H 0.2888 -0.1361 0.2741
C16 C 0.3270(9) 0.0429(7) 0.3111(4)
H15 H 0.3872 0.1070 0.3096
H16 H 0.3794 -0.0141 0.3403
H17 H 0.2400 0.0601 0.3374
C19 C -0.1906(5) 0.1926(3) 0.2253(3)
H24 H -0.2646 0.1881 0.1804
C20 C -0.2384(7) 0.1193(4) 0.2767(5)
H25 H -0.2338 0.0474 0.2537
H26 H -0.3373 0.1358 0.2874
H27 H -0.1784 0.1218 0.3261
C21 C -0.1955(4) 0.3100(3) 0.2471(3)
H28 H -0.2858 0.3257 0.2706
H29 H -0.1881 0.3539 0.1997
H30 H -0.1157 0.3267 0.2852
C22 C 0.0956(3) 0.2447(2) -0.00805(19)
H31 H 0.1900 0.2256 -0.0282
C23 C 0.0904(4) 0.3658(3) -0.0003(2)
H32 H 0.1660 0.3896 0.0382
H33 H -0.0026 0.3873 0.0174
H34 H 0.1044 0.3988 -0.0516
C24 C -0.0196(4) 0.2044(3) -0.0677(2)
H35 H -0.0123 0.1263 -0.0726
H36 H -0.0072 0.2377 -0.1191
H37 H -0.1137 0.2232 -0.0500
C17? C 0.1980(11) -0.0910(8) 0.2667(6)
H18? H 0.1516 -0.1394 0.2275
H19? H 0.1256 -0.0577 0.2978
H20? H 0.2651 -0.1318 0.3018
C18? C 0.3844(13) 0.0553(9) 0.2628(9)
H21? H 0.4266 0.1089 0.2291
H22? H 0.4585 0.0052 0.2829
H23? H 0.3428 0.0914 0.3071
loop_
_geom_bond_atom_site_label_1
_geom_bond_atom_site_label_2
_geom_bond_site_symmetry_1
_geom_bond_site_symmetry_2
P1 C1 1_555 1_555
C1 H1 1_555 1_555
H2 C1 1_555 1_555
H3 C1 1_555 1_555
C2 P1 1_555 1_555
C3 C2 1_555 1_555
H4 C3 1_555 1_555
C4 C3 1_555 1_555
H5 C4 1_555 1_555
C5 C4 1_555 1_555
H6 C5 1_555 1_555
C6 C5 1_555 1_555
H7 C6 1_555 1_555
C7 C2 1_555 1_555
H8 C7 1_555 1_555
C8 P1 1_555 1_555
C9 C8 1_555 1_555
C10 C9 1_555 1_555
H9 C10 1_555 1_555
C11 C10 1_555 1_555
C12 C11 1_555 1_555
H10 C12 1_555 1_555
C13 C8 1_555 1_555
C14 C9 1_555 1_555
H11 C14 1_555 1_555
C15 C14 1_555 1_555
H12 C15 1_555 1_555
H13 C15 1_555 1_555
H14 C15 1_555 1_555
C16 C14 1_555 1_555
H15 C16 1_555 1_555
H16 C16 1_555 1_555
H17 C16 1_555 1_555
C19 C11 1_555 1_555
H24 C19 1_555 1_555
C20 C19 1_555 1_555
H25 C20 1_555 1_555
H26 C20 1_555 1_555
H27 C20 1_555 1_555
C21 C19 1_555 1_555
H28 C21 1_555 1_555
H29 C21 1_555 1_555
H30 C21 1_555 1_555
C22 C13 1_555 1_555
H31 C22 1_555 1_555
C23 C22 1_555 1_555
H32 C23 1_555 1_555
H33 C23 1_555 1_555
H34 C23 1_555 1_555
C24 C22 1_555 1_555
H35 C24 1_555 1_555
H36 C24 1_555 1_555
H37 C24 1_555 1_555
C6 C7 1_555 1_555
C12 C13 1_555 1_555

#END
