
#######################################################################
#
#                 Cambridge Crystallographic Data Centre
#                                CCDC 
#
#######################################################################
#
# If this CIF has been generated from an entry in the Cambridge 
# Structural Database, then it will include bibliographic, chemical, 
# crystal, experimental, refinement or atomic coordinate data resulting 
# from the CCDC's data processing and validation procedures.
#
#######################################################################

data_ODUJUT
_chemical_formula_moiety         'C23 H33 O1 P1'
_chemical_name_systematic        
(2,4,6-Tri-isopropylphenyl)-methyl-(4-methoxyphenyl)phosphine
_symmetry_cell_setting           monoclinic
_symmetry_space_group_name_H-M   'P 21'
_symmetry_Int_Tables_number      4
_space_group_name_Hall           'P 2yb'
loop_
_symmetry_equiv_pos_site_id
_symmetry_equiv_pos_as_xyz
1 x,y,z
2 -x,1/2+y,-z
_cell_length_a                   9.4976(8)
_cell_length_b                   9.5461(8)
_cell_length_c                   11.7991(10)
_cell_angle_alpha                90
_cell_angle_beta                 90.303(2)
_cell_angle_gamma                90
_cell_volume                     1069.75
_exptl_crystal_colour            colorless
_exptl_crystal_description       block
_cell_formula_units_Z            2
_exptl_crystal_recrystallization_method isopropanol
loop_
_atom_site_label
_atom_site_type_symbol
_atom_site_fract_x
_atom_site_fract_y
_atom_site_fract_z
P1 P 0.54051(7) 0.50987(6) 0.58459(6)
O1 O 0.2258(2) 0.8831(2) 0.90355(18)
C1 C 0.4377(3) 0.6099(2) 0.6869(2)
C2 C 0.4958(3) 0.6463(3) 0.7903(2)
H1 H 0.5837 0.6084 0.8106
C3 C 0.4300(3) 0.7364(3) 0.8653(2)
H2 H 0.4733 0.7595 0.9347
C4 C 0.3012(3) 0.7913(3) 0.8372(2)
C5 C 0.2423(4) 0.7585(4) 0.7341(3)
H3 H 0.1550 0.7976 0.7137
C6 C 0.3093(3) 0.6689(3) 0.6596(3)
H4 H 0.2667 0.6479 0.5895
C7 C 0.2893(4) 0.9306(3) 1.0048(3)
C8 C 0.4098(4) 0.4383(4) 0.4856(3)
C9 C 0.6034(3) 0.3571(2) 0.6675(2)
C10 C 0.7501(3) 0.3331(3) 0.6660(2)
C11 C 0.8061(3) 0.2206(3) 0.7260(2)
H5 H 0.9036 0.2042 0.7230
C12 C 0.7228(3) 0.1317(2) 0.7904(2)
C13 C 0.5799(3) 0.1563(2) 0.79006(19)
H6 H 0.5217 0.0957 0.8316
C14 C 0.5178(2) 0.2663(2) 0.73117(19)
C15 C 0.8534(3) 0.4288(4) 0.6029(4)
H7 H 0.7974 0.4799 0.5452
C16 C 0.9117(9) 0.5344(6) 0.6789(7)
H8 H 0.9762 0.5939 0.6374
H9 H 0.9617 0.4887 0.7405
H10 H 0.8359 0.5909 0.7094
C17 C 0.9663(4) 0.3538(6) 0.5406(3)
H11 H 1.0261 0.4214 0.5027
H12 H 0.9242 0.2918 0.4848
H13 H 1.0223 0.2994 0.5936
C18 C 0.7860(3) 0.0113(3) 0.8573(2)
H14 H 0.7094 -0.0298 0.9031
C19 C 0.9004(4) 0.0586(4) 0.9395(3)
H15 H 0.8631 0.1305 0.9891
H16 H 0.9792 0.0963 0.8973
H17 H 0.9318 -0.0206 0.9844
C20 C 0.8396(5) -0.1031(4) 0.7798(3)
H18 H 0.8793 -0.1784 0.8250
H19 H 0.9116 -0.0652 0.7305
H20 H 0.7624 -0.1391 0.7343
C21 C 0.3580(2) 0.2827(2) 0.7404(2)
H21 H 0.3297 0.3640 0.6934
C22 C 0.2821(3) 0.1530(3) 0.6939(3)
H22 H 0.3108 0.1368 0.6162
H23 H 0.1812 0.1680 0.6963
H24 H 0.3064 0.0721 0.7398
C23 C 0.3141(3) 0.3121(3) 0.8620(2)
H25 H 0.3628 0.3949 0.8895
H26 H 0.3384 0.2326 0.9094
H27 H 0.2133 0.3277 0.8646
H28 H 0.231(4) 1.005(4) 1.029(3)
H29 H 0.393(3) 0.977(3) 0.984(2)
H30 H 0.303(3) 0.864(3) 1.055(2)
H31 H 0.379(3) 0.517(4) 0.446(3)
H32 H 0.331(4) 0.394(4) 0.521(3)
H33 H 0.464(4) 0.382(5) 0.433(3)
loop_
_geom_bond_atom_site_label_1
_geom_bond_atom_site_label_2
_geom_bond_site_symmetry_1
_geom_bond_site_symmetry_2
P1 C1 1_555 1_555
O1 C4 1_555 1_555
C1 C2 1_555 1_555
C2 H1 1_555 1_555
C3 C2 1_555 1_555
H2 C3 1_555 1_555
C4 C3 1_555 1_555
C5 C4 1_555 1_555
H3 C5 1_555 1_555
C6 C1 1_555 1_555
H4 C6 1_555 1_555
C7 O1 1_555 1_555
C8 P1 1_555 1_555
C9 P1 1_555 1_555
C10 C9 1_555 1_555
C11 C10 1_555 1_555
H5 C11 1_555 1_555
C12 C11 1_555 1_555
C13 C12 1_555 1_555
H6 C13 1_555 1_555
C14 C9 1_555 1_555
C15 C10 1_555 1_555
H7 C15 1_555 1_555
C16 C15 1_555 1_555
H8 C16 1_555 1_555
H9 C16 1_555 1_555
H10 C16 1_555 1_555
C17 C15 1_555 1_555
H11 C17 1_555 1_555
H12 C17 1_555 1_555
H13 C17 1_555 1_555
C18 C12 1_555 1_555
H14 C18 1_555 1_555
C19 C18 1_555 1_555
H15 C19 1_555 1_555
H16 C19 1_555 1_555
H17 C19 1_555 1_555
C20 C18 1_555 1_555
H18 C20 1_555 1_555
H19 C20 1_555 1_555
H20 C20 1_555 1_555
C21 C14 1_555 1_555
H21 C21 1_555 1_555
C22 C21 1_555 1_555
H22 C22 1_555 1_555
H23 C22 1_555 1_555
H24 C22 1_555 1_555
C23 C21 1_555 1_555
H25 C23 1_555 1_555
H26 C23 1_555 1_555
H27 C23 1_555 1_555
H28 C7 1_555 1_555
H29 C7 1_555 1_555
H30 C7 1_555 1_555
H31 C8 1_555 1_555
H32 C8 1_555 1_555
H33 C8 1_555 1_555
C5 C6 1_555 1_555
C13 C14 1_555 1_555

#END
