
#######################################################################
#
#                 Cambridge Crystallographic Data Centre
#                                CCDC 
#
#######################################################################
#
# If this CIF has been generated from an entry in the Cambridge 
# Structural Database, then it will include bibliographic, chemical, 
# crystal, experimental, refinement or atomic coordinate data resulting 
# from the CCDC's data processing and validation procedures.
#
#######################################################################

data_ODUKEE
_chemical_formula_moiety         'C24 H35 P1'
_chemical_name_systematic        
rac-(2,4,6-Tri-isopropylphenyl)-methyl-(3,5-dimethylphenyl)phosphine
_symmetry_cell_setting           monoclinic
_symmetry_space_group_name_H-M   'P 21/n'
_symmetry_Int_Tables_number      14
_space_group_name_Hall           '-P 2yn'
loop_
_symmetry_equiv_pos_site_id
_symmetry_equiv_pos_as_xyz
1 x,y,z
2 1/2-x,1/2+y,1/2-z
3 -x,-y,-z
4 1/2+x,1/2-y,1/2+z
_cell_length_a                   9.8603(9)
_cell_length_b                   16.3092(15)
_cell_length_c                   14.0309(13)
_cell_angle_alpha                90
_cell_angle_beta                 101.751(2)
_cell_angle_gamma                90
_cell_volume                     2209.07
_exptl_crystal_colour            colorless
_exptl_crystal_description       block
_cell_formula_units_Z            4
loop_
_atom_site_label
_atom_site_type_symbol
_atom_site_fract_x
_atom_site_fract_y
_atom_site_fract_z
P1 P 0.79849(7) 0.13961(4) 0.89869(5)
C1 C 0.6450(3) 0.07759(16) 0.84304(18)
C2 C 0.6361(3) -0.00192(17) 0.88199(19)
C3 C 0.5225(3) -0.05060(17) 0.84541(19)
H1 H 0.5172 -0.1036 0.8724
C4 C 0.4160(3) -0.02491(17) 0.7707(2)
C5 C 0.4280(3) 0.05215(17) 0.73178(19)
H2 H 0.3574 0.0703 0.6795
C6 C 0.5389(3) 0.10394(16) 0.76606(18)
C7 C 0.7534(3) -0.03820(18) 0.9590(2)
H3 H 0.7982 0.0080 1.0006
C8 C 0.8616(4) -0.0753(2) 0.9092(3)
H4 H 0.8920 -0.0341 0.8672
H5 H 0.8217 -0.1223 0.8697
H6 H 0.9412 -0.0935 0.9585
C9 C 0.7057(4) -0.1010(2) 1.0261(2)
H7 H 0.7860 -0.1209 1.0736
H8 H 0.6609 -0.1472 0.9873
H9 H 0.6397 -0.0752 1.0605
C10 C 0.2937(3) -0.08009(19) 0.7329(2)
H10 H 0.3015 -0.1288 0.7770
C11 C 0.2976(4) -0.1116(2) 0.6309(3)
H11 H 0.3866 -0.1385 0.6318
H12 H 0.2864 -0.0654 0.5853
H13 H 0.2222 -0.1510 0.6104
C12 C 0.1562(3) -0.0387(2) 0.7345(3)
H14 H 0.1558 -0.0194 0.8006
H15 H 0.0806 -0.0780 0.7144
H16 H 0.1435 0.0080 0.6897
C13 C 0.5384(3) 0.18691(16) 0.71533(19)
H17 H 0.6230 0.2174 0.7482
C14 C 0.5464(4) 0.17674(19) 0.6078(2)
H18 H 0.6278 0.1438 0.6030
H19 H 0.5538 0.2308 0.5788
H20 H 0.4626 0.1491 0.5729
C15 C 0.4126(3) 0.2382(2) 0.7253(3)
H21 H 0.4097 0.2443 0.7943
H22 H 0.3280 0.2109 0.6913
H23 H 0.4194 0.2925 0.6966
C16 C 0.7280(3) 0.23994(17) 0.91969(18)
C17 C 0.7718(3) 0.31338(17) 0.88566(19)
H24 H 0.8342 0.3119 0.8422
C18 C 0.7270(3) 0.38878(17) 0.91331(19)
C19 C 0.6366(3) 0.38983(18) 0.9770(2)
H25 H 0.6050 0.4410 0.9962
C20 C 0.5906(3) 0.31774(18) 1.0135(2)
C21 C 0.6382(3) 0.24350(17) 0.98482(19)
H26 H 0.6091 0.1939 1.0100
C22 C 0.7790(4) 0.46712(19) 0.8777(2)
H27 H 0.7362 0.5138 0.9043
H28 H 0.7548 0.4687 0.8065
H29 H 0.8799 0.4701 0.8992
C23 C 0.4959(4) 0.3205(2) 1.0853(2)
H30 H 0.4740 0.3777 1.0975
H31 H 0.5420 0.2948 1.1465
H32 H 0.4102 0.2908 1.0586
C24 C 0.8882(3) 0.15777(19) 0.7984(2)
H33 H 0.9717 0.1904 0.8219
H34 H 0.8267 0.1875 0.7461
H35 H 0.9142 0.1051 0.7736
loop_
_geom_bond_atom_site_label_1
_geom_bond_atom_site_label_2
_geom_bond_site_symmetry_1
_geom_bond_site_symmetry_2
P1 C1 1_555 1_555
C1 C2 1_555 1_555
C2 C3 1_555 1_555
C3 H1 1_555 1_555
C4 C3 1_555 1_555
C5 C4 1_555 1_555
H2 C5 1_555 1_555
C6 C1 1_555 1_555
C7 C2 1_555 1_555
H3 C7 1_555 1_555
C8 C7 1_555 1_555
H4 C8 1_555 1_555
H5 C8 1_555 1_555
H6 C8 1_555 1_555
C9 C7 1_555 1_555
H7 C9 1_555 1_555
H8 C9 1_555 1_555
H9 C9 1_555 1_555
C10 C4 1_555 1_555
H10 C10 1_555 1_555
C11 C10 1_555 1_555
H11 C11 1_555 1_555
H12 C11 1_555 1_555
H13 C11 1_555 1_555
C12 C10 1_555 1_555
H14 C12 1_555 1_555
H15 C12 1_555 1_555
H16 C12 1_555 1_555
C13 C6 1_555 1_555
H17 C13 1_555 1_555
C14 C13 1_555 1_555
H18 C14 1_555 1_555
H19 C14 1_555 1_555
H20 C14 1_555 1_555
C15 C13 1_555 1_555
H21 C15 1_555 1_555
H22 C15 1_555 1_555
H23 C15 1_555 1_555
C16 P1 1_555 1_555
C17 C16 1_555 1_555
H24 C17 1_555 1_555
C18 C17 1_555 1_555
C19 C18 1_555 1_555
H25 C19 1_555 1_555
C20 C19 1_555 1_555
C21 C16 1_555 1_555
H26 C21 1_555 1_555
C22 C18 1_555 1_555
H27 C22 1_555 1_555
H28 C22 1_555 1_555
H29 C22 1_555 1_555
C23 C20 1_555 1_555
H30 C23 1_555 1_555
H31 C23 1_555 1_555
H32 C23 1_555 1_555
C24 P1 1_555 1_555
H33 C24 1_555 1_555
H34 C24 1_555 1_555
H35 C24 1_555 1_555
C5 C6 1_555 1_555
C20 C21 1_555 1_555

#END
