
#######################################################################
#
#                 Cambridge Crystallographic Data Centre
#                                CCDC 
#
#######################################################################
#
# If this CIF has been generated from an entry in the Cambridge 
# Structural Database, then it will include bibliographic, chemical, 
# crystal, experimental, refinement or atomic coordinate data resulting 
# from the CCDC's data processing and validation procedures.
#
#######################################################################

data_ODURAJ
_chemical_formula_moiety         'C20 H19 N3 O3'
_chemical_name_systematic        
'ethyl 1-(4-methoxyphenyl)-3-(2-phenylethenyl)-1H-1,2,4-triazole-5-carboxylate'
_symmetry_cell_setting           monoclinic
_symmetry_space_group_name_H-M   'P 21/n'
_symmetry_Int_Tables_number      14
_space_group_name_Hall           '-P 2yn'
loop_
_symmetry_equiv_pos_site_id
_symmetry_equiv_pos_as_xyz
1 x,y,z
2 1/2-x,1/2+y,1/2-z
3 -x,-y,-z
4 1/2+x,1/2-y,1/2+z
_cell_length_a                   10.5599(9)
_cell_length_b                   16.7591(14)
_cell_length_c                   10.8260(8)
_cell_angle_alpha                90
_cell_angle_beta                 114.404(2)
_cell_angle_gamma                90
_cell_volume                     1744.75
_exptl_crystal_colour            colorless
_exptl_crystal_description       BLOCK
_cell_formula_units_Z            4
loop_
_atom_site_label
_atom_site_type_symbol
_atom_site_fract_x
_atom_site_fract_y
_atom_site_fract_z
C1 C -0.0854(2) 0.11649(12) 0.3301(2)
H1 H -0.1153 0.0785 0.3817
H2 H -0.1558 0.1191 0.2364
H3 H -0.0739 0.1694 0.3718
C2 C 0.1547(2) 0.08278(11) 0.45446(19)
C3 C 0.2825(2) 0.06972(12) 0.4496(2)
H4 H 0.2886 0.0676 0.3646
C4 C 0.3999(2) 0.05980(12) 0.5674(2)
H5 H 0.4876 0.0521 0.5641
C5 C 0.3900(2) 0.06106(11) 0.69145(18)
C6 C 0.2641(2) 0.07381(11) 0.6972(2)
H6 H 0.2580 0.0742 0.7823
C7 C 0.1456(2) 0.08610(11) 0.5781(2)
H7 H 0.0588 0.0967 0.5819
C8 C 0.5695(2) 0.07167(11) 0.93918(18)
C9 C 0.5125(2) 0.13951(11) 0.9890(2)
C10 C 0.5242(2) 0.20362(13) 1.1881(2)
H8 H 0.4224 0.1986 1.1579
H9 H 0.5448 0.2575 1.1635
C11 C 0.5968(3) 0.19132(14) 1.3377(2)
H10 H 0.5843 0.1360 1.3596
H11 H 0.5575 0.2274 1.3840
H12 H 0.6962 0.2025 1.3678
C12 C 0.7021(2) -0.01710(11) 0.92269(19)
C13 C 0.8185(2) -0.07089(11) 0.9536(2)
H13 H 0.8126 -0.1097 0.8875
C14 C 0.9333(2) -0.06959(11) 1.0686(2)
H14 H 0.9375 -0.0315 1.1352
C15 C 1.05381(19) -0.12216(11) 1.10065(19)
C16 C 1.0713(2) -0.16846(12) 1.0017(2)
H15 H 1.0057 -0.1646 0.9099
C17 C 1.1830(2) -0.21973(12) 1.0356(2)
H16 H 1.1929 -0.2515 0.9675
C18 C 1.2808(2) -0.22511(13) 1.1688(2)
H17 H 1.3572 -0.2607 1.1920
C19 C 1.2666(2) -0.17875(13) 1.2674(2)
H18 H 1.3339 -0.1819 1.3586
C20 C 1.1540(2) -0.12728(12) 1.2335(2)
H19 H 1.1452 -0.0952 1.3019
N1 N 0.68669(17) 0.03458(9) 1.01260(15)
N2 N 0.51381(16) 0.04342(9) 0.80983(15)
N3 N 0.59890(17) -0.01463(10) 0.79893(16)
O1 O 0.42467(15) 0.18484(8) 0.91837(14)
O2 O 0.57520(15) 0.14229(8) 1.12366(13)
O3 O 0.04391(14) 0.09086(9) 0.33085(14)
loop_
_geom_bond_atom_site_label_1
_geom_bond_atom_site_label_2
_geom_bond_site_symmetry_1
_geom_bond_site_symmetry_2
C1 H1 1_555 1_555
H2 C1 1_555 1_555
H3 C1 1_555 1_555
C2 C3 1_555 1_555
C3 H4 1_555 1_555
C4 C3 1_555 1_555
H5 C4 1_555 1_555
C5 C4 1_555 1_555
C6 C5 1_555 1_555
H6 C6 1_555 1_555
C7 C2 1_555 1_555
H7 C7 1_555 1_555
C8 C9 1_555 1_555
C9 O1 1_555 1_555
C10 H8 1_555 1_555
H9 C10 1_555 1_555
C11 C10 1_555 1_555
H10 C11 1_555 1_555
H11 C11 1_555 1_555
H12 C11 1_555 1_555
C12 C13 1_555 1_555
C13 H13 1_555 1_555
C14 C13 1_555 1_555
H14 C14 1_555 1_555
C15 C14 1_555 1_555
C16 C15 1_555 1_555
H15 C16 1_555 1_555
C17 C16 1_555 1_555
H16 C17 1_555 1_555
C18 C17 1_555 1_555
H17 C18 1_555 1_555
C19 C18 1_555 1_555
H18 C19 1_555 1_555
C20 C15 1_555 1_555
H19 C20 1_555 1_555
N1 C8 1_555 1_555
N2 C5 1_555 1_555
N3 C12 1_555 1_555
O2 C9 1_555 1_555
O3 C1 1_555 1_555
C2 O3 1_555 1_555
C6 C7 1_555 1_555
C8 N2 1_555 1_555
C10 O2 1_555 1_555
C12 N1 1_555 1_555
C19 C20 1_555 1_555
N2 N3 1_555 1_555

#END
