
#######################################################################
#
#                 Cambridge Crystallographic Data Centre
#                                CCDC 
#
#######################################################################
#
# If this CIF has been generated from an entry in the Cambridge 
# Structural Database, then it will include bibliographic, chemical, 
# crystal, experimental, refinement or atomic coordinate data resulting 
# from the CCDC's data processing and validation procedures.
#
#######################################################################

data_ODUSEN
_chemical_formula_moiety         'C36 H38 N2 O9,C1 H4 O1'
_chemical_name_systematic        
"1,1'-Dihydroxy-2,2'-dimethoxy-1,1',4,5,5',6',8,8',9,9',14b,14b'-dodecahydro-4'H,6H-5,6'-bicyclopenta[a][1,3]dioxolo[4,5-h]pyrrolo[2,1-b][3]benzazepin-6-one methanol solvate"
_symmetry_cell_setting           monoclinic
_symmetry_space_group_name_H-M   'P 21'
_symmetry_Int_Tables_number      4
_space_group_name_Hall           'P 2yb'
loop_
_symmetry_equiv_pos_site_id
_symmetry_equiv_pos_as_xyz
1 x,y,z
2 -x,1/2+y,-z
_cell_length_a                   8.39510(10)
_cell_length_b                   17.3783(3)
_cell_length_c                   11.3044(2)
_cell_angle_alpha                90
_cell_angle_beta                 93.1500(10)
_cell_angle_gamma                90
_cell_volume                     1646.74
_exptl_crystal_colour            colorless
_exptl_crystal_description       block
_cell_formula_units_Z            2
loop_
_atom_site_label
_atom_site_type_symbol
_atom_site_fract_x
_atom_site_fract_y
_atom_site_fract_z
O1 O 0.60625(16) 0.00948(9) 0.56035(11)
O2 O 0.39926(16) 0.13452(8) 0.62248(12)
H1 H 0.4535 0.1228 0.6845
O3 O -0.21817(17) 0.28152(9) 0.48360(14)
O4 O -0.05936(18) 0.37905(9) 0.41639(14)
O5 O -0.43626(15) 0.23081(8) -0.18438(13)
O6 O -0.46017(15) 0.06433(8) -0.16651(11)
H2 H -0.5492 0.0459 -0.1511
O7 O 0.23463(15) 0.02723(8) -0.12278(12)
O8 O -0.26582(18) -0.14506(9) 0.27414(12)
O9 O -0.18412(17) -0.23099(8) 0.13287(12)
C1 C 0.4247(2) 0.01113(11) 0.38452(17)
H3 H 0.4865 -0.0183 0.3331
C2 C 0.4679(2) 0.02610(11) 0.49741(17)
C3 C 0.3437(2) 0.06667(12) 0.56474(16)
H4 H 0.3034 0.0306 0.6252
C4 C 0.2072(2) 0.08200(11) 0.46779(16)
H5 H 0.1142 0.0502 0.4900
C5 C 0.2653(2) 0.04678(11) 0.34836(16)
C6 C 0.1421(2) -0.00998(11) 0.29358(16)
H6 H 0.1541 -0.0612 0.3313
H7 H 0.0323 0.0088 0.3032
C7 C 0.1777(2) -0.01413(11) 0.16254(16)
H8 H 0.0778 -0.0195 0.1124
H9 H 0.2482 -0.0583 0.1474
C8 C 0.2613(2) 0.06261(12) 0.13692(16)
H10 H 0.3713 0.0516 0.1116
N1 N 0.27293(18) 0.10338(10) 0.25083(13)
C9 C 0.4012(2) 0.15973(11) 0.25756(17)
H11 H 0.3866 0.1959 0.1902
H12 H 0.5043 0.1330 0.2502
C10 C 0.4073(2) 0.20544(11) 0.37383(17)
H13 H 0.4661 0.1754 0.4365
H14 H 0.4656 0.2542 0.3631
C11 C 0.2421(2) 0.22306(12) 0.41245(16)
C12 C 0.1476(2) 0.16377(11) 0.45575(16)
C13 C -0.0118(2) 0.17916(12) 0.48193(16)
H15 H -0.0776 0.1401 0.5120
C14 C -0.0684(2) 0.25240(12) 0.46251(17)
C15 C 0.0257(2) 0.31085(12) 0.42205(17)
C16 C 0.1822(2) 0.29749(12) 0.39681(17)
H16 H 0.2473 0.3378 0.3696
C17 C -0.2223(3) 0.35381(14) 0.4228(2)
H17 H -0.2843 0.3919 0.4664
H18 H -0.2731 0.3478 0.3422
C18 C 0.7318(2) -0.01657(13) 0.49012(18)
H19 H 0.7018 -0.0659 0.4532
H20 H 0.8295 -0.0232 0.5406
H21 H 0.7503 0.0215 0.4283
C19 C -0.1770(2) 0.19296(11) -0.09551(16)
H22 H -0.1156 0.2363 -0.1164
C20 C -0.3328(2) 0.18528(11) -0.12118(16)
C21 C -0.4045(2) 0.11322(11) -0.07269(15)
H23 H -0.4952 0.1271 -0.0230
C22 C -0.2631(2) 0.08167(11) 0.00811(15)
H24 H -0.2822 0.1025 0.0886
C23 C -0.1108(2) 0.12410(11) -0.02924(16)
C24 C 0.0090(2) 0.14057(12) 0.07712(16)
H25 H 0.0123 0.1964 0.0947
H26 H -0.0234 0.1129 0.1485
C25 C 0.1730(2) 0.11257(11) 0.04213(16)
H27 H 0.2406 0.1581 0.0244
C26 C 0.1380(2) 0.06737(11) -0.07062(15)
N2 N -0.01523(18) 0.07637(10) -0.10658(13)
C27 C -0.0890(2) 0.04048(12) -0.21209(16)
H28 H -0.0073 0.0337 -0.2712
H29 H -0.1725 0.0752 -0.2469
C28 C -0.1641(2) -0.03803(12) -0.18712(16)
H30 H -0.2669 -0.0414 -0.2341
H31 H -0.0935 -0.0785 -0.2169
C29 C -0.1951(2) -0.05686(11) -0.05892(16)
C30 C -0.2465(2) -0.00459(11) 0.02644(15)
C31 C -0.2716(2) -0.03094(12) 0.14201(16)
H32 H -0.3050 0.0038 0.2006
C32 C -0.2474(2) -0.10706(12) 0.16917(17)
C33 C -0.1978(2) -0.15834(11) 0.08451(17)
C34 C -0.1713(2) -0.13456(12) -0.02813(17)
H33 H -0.1370 -0.1703 -0.0851
C35 C -0.1951(3) -0.21928(13) 0.25825(18)
H34 H -0.2618 -0.2599 0.2919
H35 H -0.0877 -0.2213 0.2989
C36 C -0.3631(3) 0.29028(15) -0.2499(3)
H36 H -0.3019 0.3243 -0.1951
H37 H -0.4458 0.3202 -0.2939
H38 H -0.2914 0.2672 -0.3056
C37 C 0.5964(3) 0.35112(19) 0.0890(3)
H39 H 0.5345 0.3637 0.1575
H40 H 0.5788 0.2971 0.0672
H41 H 0.5623 0.3842 0.0221
O10 O 0.7590(2) 0.36312(12) 0.1181(2)
H42 H 0.7770 0.4105 0.1243
loop_
_geom_bond_atom_site_label_1
_geom_bond_atom_site_label_2
_geom_bond_site_symmetry_1
_geom_bond_site_symmetry_2
O1 C2 1_555 1_555
O2 H1 1_555 1_555
O3 C14 1_555 1_555
O4 C15 1_555 1_555
O5 C20 1_555 1_555
O6 H2 1_555 1_555
O7 C26 1_555 1_555
O8 C32 1_555 1_555
O9 C33 1_555 1_555
C1 H3 1_555 1_555
C2 C1 1_555 1_555
C3 O2 1_555 1_555
H4 C3 1_555 1_555
C4 C3 1_555 1_555
H5 C4 1_555 1_555
C5 C1 1_555 1_555
C6 C5 1_555 1_555
H6 C6 1_555 1_555
H7 C6 1_555 1_555
C7 C6 1_555 1_555
H8 C7 1_555 1_555
H9 C7 1_555 1_555
C8 C7 1_555 1_555
H10 C8 1_555 1_555
N1 C5 1_555 1_555
C9 N1 1_555 1_555
H11 C9 1_555 1_555
H12 C9 1_555 1_555
C10 C9 1_555 1_555
H13 C10 1_555 1_555
H14 C10 1_555 1_555
C11 C10 1_555 1_555
C12 C4 1_555 1_555
C13 C12 1_555 1_555
H15 C13 1_555 1_555
C14 C13 1_555 1_555
C15 C14 1_555 1_555
C16 C11 1_555 1_555
H16 C16 1_555 1_555
C17 O3 1_555 1_555
H17 C17 1_555 1_555
H18 C17 1_555 1_555
C18 O1 1_555 1_555
H19 C18 1_555 1_555
H20 C18 1_555 1_555
H21 C18 1_555 1_555
C19 H22 1_555 1_555
C20 C19 1_555 1_555
C21 O6 1_555 1_555
H23 C21 1_555 1_555
C22 C21 1_555 1_555
H24 C22 1_555 1_555
C23 C19 1_555 1_555
C24 C23 1_555 1_555
H25 C24 1_555 1_555
H26 C24 1_555 1_555
C25 C8 1_555 1_555
H27 C25 1_555 1_555
C26 C25 1_555 1_555
N2 C23 1_555 1_555
C27 N2 1_555 1_555
H28 C27 1_555 1_555
H29 C27 1_555 1_555
C28 C27 1_555 1_555
H30 C28 1_555 1_555
H31 C28 1_555 1_555
C29 C28 1_555 1_555
C30 C22 1_555 1_555
C31 C30 1_555 1_555
H32 C31 1_555 1_555
C32 C31 1_555 1_555
C33 C32 1_555 1_555
C34 C29 1_555 1_555
H33 C34 1_555 1_555
C35 O8 1_555 1_555
H34 C35 1_555 1_555
H35 C35 1_555 1_555
C36 O5 1_555 1_555
H36 C36 1_555 1_555
H37 C36 1_555 1_555
H38 C36 1_555 1_555
C37 H39 1_555 1_555
H40 C37 1_555 1_555
H41 C37 1_555 1_555
O10 C37 1_555 1_555
H42 O10 1_555 1_555
O4 C17 1_555 1_555
O9 C35 1_555 1_555
C2 C3 1_555 1_555
C4 C5 1_555 1_555
C8 N1 1_555 1_555
C11 C12 1_555 1_555
C15 C16 1_555 1_555
C20 C21 1_555 1_555
C22 C23 1_555 1_555
C24 C25 1_555 1_555
C26 N2 1_555 1_555
C29 C30 1_555 1_555
C33 C34 1_555 1_555

#END
