
#######################################################################
#
#                 Cambridge Crystallographic Data Centre
#                                CCDC 
#
#######################################################################
#
# If this CIF has been generated from an entry in the Cambridge 
# Structural Database, then it will include bibliographic, chemical, 
# crystal, experimental, refinement or atomic coordinate data resulting 
# from the CCDC's data processing and validation procedures.
#
#######################################################################

data_ODUVIS
_chemical_formula_moiety         'C20 H20 F1 N1 O2'
_chemical_name_systematic        
(1S,5'R)-8-Fluoro-5'-phenyl-2',3',5',6'-tetrahydro-spiro(benzocycloheptane-1,3'-(1',4')oxazine)-2'-one
_symmetry_cell_setting           monoclinic
_symmetry_space_group_name_H-M   'P 21'
_symmetry_Int_Tables_number      4
_space_group_name_Hall           'P 2yb'
loop_
_symmetry_equiv_pos_site_id
_symmetry_equiv_pos_as_xyz
1 x,y,z
2 -x,1/2+y,-z
_cell_length_a                   9.6979(19)
_cell_length_b                   6.6376(12)
_cell_length_c                   12.736(3)
_cell_angle_alpha                90
_cell_angle_beta                 91.641(3)
_cell_angle_gamma                90
_cell_volume                     819.49
_exptl_crystal_colour            colorless
_chemical_melting_point          '126 deg.C'
_cell_formula_units_Z            2
loop_
_atom_site_label
_atom_site_type_symbol
_atom_site_fract_x
_atom_site_fract_y
_atom_site_fract_z
F1 F 0.3245(2) 0.0213(2) 0.9278(1)
O1 O -0.0462(2) 0.2411(2) 0.6752(1)
O2 O 0.0970(2) 0.1197(2) 0.5613(1)
N1 N 0.0757(2) 0.6276(3) 0.6552(2)
C1 C -0.0635(2) 0.6025(3) 0.6953(2)
C2 C -0.0730(3) 0.4016(3) 0.7479(2)
C3 C 0.0698(3) 0.2566(4) 0.6201(2)
C4 C 0.1591(2) 0.4460(3) 0.6360(2)
C5 C 0.2583(2) 0.4076(3) 0.7308(2)
C6 C 0.3590(3) 0.5514(3) 0.7615(2)
C7 C 0.3794(3) 0.7468(4) 0.7048(2)
C8 C 0.4283(3) 0.7240(4) 0.5914(2)
C9 C 0.3127(3) 0.6697(4) 0.5134(2)
C10 C 0.2384(2) 0.4707(4) 0.5326(2)
C11 C -0.0991(2) 0.7636(3) 0.7746(2)
C12 C -0.2324(3) 0.8396(4) 0.7760(2)
C13 C -0.2692(3) 0.9751(4) 0.8529(2)
C14 C -0.1747(3) 1.0366(4) 0.9285(2)
C15 C -0.0405(3) 0.9661(4) 0.9264(2)
C16 C -0.0040(3) 0.8301(3) 0.8496(2)
C17 C 0.2498(2) 0.2302(4) 0.7883(2)
C18 C 0.3385(3) 0.1977(4) 0.8725(2)
C19 C 0.4389(3) 0.3305(4) 0.9034(2)
C20 C 0.4474(2) 0.5071(4) 0.8466(2)
H1 H 0.0666 0.6972 0.5895
H2 H -0.1371 0.6116 0.6299
H3 H -0.0050 0.4028 0.8138
H4 H -0.1657 0.3779 0.7731
H5 H 0.4475 0.8409 0.7369
H6 H 0.3025 0.8294 0.7021
H7 H 0.4967 0.6240 0.5909
H8 H 0.4817 0.8481 0.5721
H9 H 0.2425 0.7724 0.5099
H10 H 0.3518 0.6651 0.4456
H11 H 0.3112 0.3702 0.5420
H12 H 0.1731 0.4323 0.4722
H13 H -0.3022 0.7808 0.7268
H14 H -0.3651 1.0155 0.8478
H15 H -0.1997 1.1557 0.9785
H16 H 0.0133 1.0057 0.9911
H17 H 0.0869 0.7633 0.8521
H18 H 0.1846 0.1302 0.7724
H19 H 0.4896 0.3101 0.9733
H20 H 0.5286 0.6002 0.8609
loop_
_geom_bond_atom_site_label_1
_geom_bond_atom_site_label_2
_geom_bond_site_symmetry_1
_geom_bond_site_symmetry_2
F1 C18 1_555 1_555
O1 C2 1_555 1_555
O2 C3 1_555 1_555
N1 C1 1_555 1_555
C1 C2 1_555 1_555
C2 H3 1_555 1_555
C3 O1 1_555 1_555
C4 N1 1_555 1_555
C5 C4 1_555 1_555
C6 C5 1_555 1_555
C7 C6 1_555 1_555
C8 C7 1_555 1_555
C9 C8 1_555 1_555
C10 C4 1_555 1_555
C11 C1 1_555 1_555
C12 C11 1_555 1_555
C13 C12 1_555 1_555
C14 C13 1_555 1_555
C15 C14 1_555 1_555
C16 C11 1_555 1_555
C17 C5 1_555 1_555
C18 C17 1_555 1_555
C19 C18 1_555 1_555
C20 C6 1_555 1_555
H1 N1 1_555 1_555
H2 C1 1_555 1_555
H4 C2 1_555 1_555
H5 C7 1_555 1_555
H6 C7 1_555 1_555
H7 C8 1_555 1_555
H8 C8 1_555 1_555
H9 C9 1_555 1_555
H10 C9 1_555 1_555
H11 C10 1_555 1_555
H12 C10 1_555 1_555
H13 C12 1_555 1_555
H14 C13 1_555 1_555
H15 C14 1_555 1_555
H16 C15 1_555 1_555
H17 C16 1_555 1_555
H18 C17 1_555 1_555
H19 C19 1_555 1_555
H20 C20 1_555 1_555
C3 C4 1_555 1_555
C9 C10 1_555 1_555
C15 C16 1_555 1_555
C19 C20 1_555 1_555

#END
