
#######################################################################
#
#                 Cambridge Crystallographic Data Centre
#                                CCDC 
#
#######################################################################
#
# If this CIF has been generated from an entry in the Cambridge 
# Structural Database, then it will include bibliographic, chemical, 
# crystal, experimental, refinement or atomic coordinate data resulting 
# from the CCDC's data processing and validation procedures.
#
#######################################################################

data_ODUVEO
_chemical_formula_moiety         'C18 H17 N1 O2'
_chemical_name_systematic        
(1S,5'R)-5'-Phenyl-2',3',5',6'-tetrahydro-spiro(indan-1,3'-(1',4')oxazine)-2'-one
_symmetry_cell_setting           orthorhombic
_symmetry_space_group_name_H-M   'P 21 21 21'
_symmetry_Int_Tables_number      19
_space_group_name_Hall           'P 2ac 2ab'
loop_
_symmetry_equiv_pos_site_id
_symmetry_equiv_pos_as_xyz
1 x,y,z
2 1/2-x,-y,1/2+z
3 1/2+x,1/2-y,-z
4 -x,1/2+y,1/2-z
_cell_length_a                   10.3411(5)
_cell_length_b                   11.6263(6)
_cell_length_c                   11.6780(6)
_cell_angle_alpha                90
_cell_angle_beta                 90
_cell_angle_gamma                90
_cell_volume                     1404.03
_cell_formula_units_Z            4
loop_
_atom_site_label
_atom_site_type_symbol
_atom_site_fract_x
_atom_site_fract_y
_atom_site_fract_z
O1 O -0.2533(1) -0.3472(1) -0.1184(1)
O2 O -0.1994(1) -0.1694(1) -0.0809(1)
N1 N -0.3298(1) -0.3871(1) 0.1051(1)
C1 C -0.2332(1) -0.1069(1) 0.1930(1)
C2 C -0.1555(1) -0.0488(1) 0.2717(1)
C3 C -0.0477(2) -0.1039(1) 0.3164(1)
C4 C -0.0168(1) -0.2157(1) 0.2834(1)
C5 C -0.0937(1) -0.2741(1) 0.2048(1)
C6 C -0.2015(1) -0.2184(1) 0.1604(1)
C7 C -0.2992(1) -0.2675(1) 0.0762(1)
C8 C -0.4134(1) -0.1793(1) 0.0859(1)
C9 C -0.3571(1) -0.0682(1) 0.1371(1)
C10 C -0.2455(1) -0.2581(1) -0.0461(1)
C11 C -0.3072(1) -0.4574(1) -0.0837(1)
C12 C -0.4018(1) -0.4455(1) 0.0143(1)
C13 C -0.4469(1) -0.5628(1) 0.0529(1)
C14 C -0.3629(1) -0.6382(1) 0.1086(1)
C15 C -0.4037(1) -0.7480(1) 0.1393(1)
C16 C -0.5292(1) -0.7827(1) 0.1153(1)
C17 C -0.6150(1) -0.7072(1) 0.0635(1)
C18 C -0.5738(1) -0.5977(1) 0.0321(1)
H1 H -0.3797 -0.3858 0.1684
H2 H -0.1717 0.0275 0.2929
H3 H -0.0001 -0.0685 0.3755
H4 H 0.0499 -0.2612 0.3234
H5 H -0.0789 -0.3542 0.1755
H6 H -0.4626 -0.1633 0.0112
H7 H -0.4689 -0.2115 0.1360
H8 H -0.3334 -0.0167 0.0752
H9 H -0.4159 -0.0327 0.1941
H10 H -0.3521 -0.4903 -0.1436
H11 H -0.2311 -0.5031 -0.0564
H12 H -0.4812 -0.4000 -0.0132
H13 H -0.2775 -0.6150 0.1227
H14 H -0.3530 -0.8038 0.1797
H15 H -0.5633 -0.8566 0.1415
H16 H -0.7008 -0.7339 0.0482
H17 H -0.6326 -0.5456 -0.0141
loop_
_geom_bond_atom_site_label_1
_geom_bond_atom_site_label_2
_geom_bond_site_symmetry_1
_geom_bond_site_symmetry_2
O1 C10 1_555 1_555
O2 C10 1_555 1_555
N1 C7 1_555 1_555
C1 C2 1_555 1_555
C2 C3 1_555 1_555
C3 C4 1_555 1_555
C4 C5 1_555 1_555
C5 C6 1_555 1_555
C6 C1 1_555 1_555
C7 C6 1_555 1_555
C8 C7 1_555 1_555
C9 C1 1_555 1_555
C10 C7 1_555 1_555
C11 O1 1_555 1_555
C12 N1 1_555 1_555
C13 C12 1_555 1_555
C14 C13 1_555 1_555
C15 C14 1_555 1_555
C16 C15 1_555 1_555
C17 C16 1_555 1_555
C18 C13 1_555 1_555
H1 N1 1_555 1_555
H2 C2 1_555 1_555
H3 C3 1_555 1_555
H4 C4 1_555 1_555
H5 C5 1_555 1_555
H6 C8 1_555 1_555
H7 C8 1_555 1_555
H8 C9 1_555 1_555
H9 C9 1_555 1_555
H10 C11 1_555 1_555
H11 C11 1_555 1_555
H12 C12 1_555 1_555
H13 C14 1_555 1_555
H14 C15 1_555 1_555
H15 C16 1_555 1_555
H16 C17 1_555 1_555
H17 C18 1_555 1_555
C8 C9 1_555 1_555
C11 C12 1_555 1_555
C17 C18 1_555 1_555

#END
