
#######################################################################
#
#                 Cambridge Crystallographic Data Centre
#                                CCDC 
#
#######################################################################
#
# If this CIF has been generated from an entry in the Cambridge 
# Structural Database, then it will include bibliographic, chemical, 
# crystal, experimental, refinement or atomic coordinate data resulting 
# from the CCDC's data processing and validation procedures.
#
#######################################################################

data_OFABAB
_chemical_formula_moiety         'C40 H26'
_chemical_name_systematic        4,5,9,10-tetraphenylpyrene
_symmetry_cell_setting           monoclinic
_symmetry_space_group_name_H-M   'P 21/n'
_symmetry_Int_Tables_number      14
_space_group_name_Hall           '-P 2yn'
loop_
_symmetry_equiv_pos_site_id
_symmetry_equiv_pos_as_xyz
1 x,y,z
2 1/2-x,1/2+y,1/2-z
3 -x,-y,-z
4 1/2+x,1/2-y,1/2+z
_cell_length_a                   11.5703(5)
_cell_length_b                   7.8358(4)
_cell_length_c                   15.4854(6)
_cell_angle_alpha                90
_cell_angle_beta                 110.3476(13)
_cell_angle_gamma                90
_cell_volume                     1316.34
_cell_formula_units_Z            2
loop_
_atom_site_label
_atom_site_type_symbol
_atom_site_fract_x
_atom_site_fract_y
_atom_site_fract_z
C1 C 0.6869(2) 0.3154(3) 0.50972(18)
C2 C 0.8130(2) 0.2388(3) 0.53838(17)
C3 C 0.9012(3) 0.3011(4) 0.50478(18)
C4 C 0.8427(2) 0.1076(4) 0.60184(18)
C5 C 1.0198(3) 0.2325(5) 0.5361(2)
C6 C 1.0479(3) 0.1017(5) 0.5983(2)
C7 C 0.9607(3) 0.0414(4) 0.6324(2)
C8 C 0.5312(2) 0.6761(3) 0.58707(18)
C9 C 0.6690(2) 0.4605(3) 0.56068(18)
C10 C 0.5504(2) 0.5340(3) 0.53743(16)
C11 C 0.3926(2) 0.8990(4) 0.61672(17)
C12 C 0.4098(2) 0.7510(3) 0.56249(17)
C13 C 0.7474(2) 0.6725(4) 0.68063(18)
C14 C 0.7676(2) 0.5339(3) 0.63283(18)
C15 C 0.6323(2) 0.7436(3) 0.65872(16)
C16 C 0.3772(2) 0.8721(4) 0.7009(2)
C17 C 0.3973(3) 1.0661(4) 0.5888(2)
C18 C 0.3660(2) 1.0063(4) 0.7538(2)
C19 C 0.3698(2) 1.1701(4) 0.7260(2)
C20 C 0.3859(3) 1.2019(4) 0.6430(2)
H1 H 0.8806 0.3920 0.4615
H2 H 0.7818 0.0654 0.6245
H3 H 1.0808 0.2744 0.5134
H4 H 1.1278 0.0520 0.6179
H5 H 0.9827 -0.0463 0.6775
H6 H 0.8146 0.7194 0.7295
H7 H 0.8481 0.4878 0.6473
H8 H 0.6201 0.8388 0.6926
H9 H 0.3745 0.7587 0.7218
H10 H 0.4088 1.0867 0.5319
H11 H 0.3553 0.9856 0.8110
H12 H 0.3616 1.2619 0.7635
H13 H 0.3888 1.3157 0.6227
C1B C 0.3131(2) 0.6846(3) 0.49028(18)
C2B C 0.1870(2) 0.7612(3) 0.46162(17)
C3B C 0.0988(3) 0.6989(4) 0.49522(18)
C4B C 0.1573(2) 0.8924(4) 0.39816(18)
C5B C -0.0198(3) 0.7675(5) 0.4639(2)
C6B C -0.0479(3) 0.8983(5) 0.4017(2)
C7B C 0.0393(3) 0.9586(4) 0.3676(2)
C8B C 0.4688(2) 0.3239(3) 0.41293(18)
C9B C 0.3310(2) 0.5395(3) 0.43932(18)
C10B C 0.4496(2) 0.4660(3) 0.46257(16)
C11B C 0.6074(2) 0.1010(4) 0.38328(17)
C12B C 0.5902(2) 0.2490(3) 0.43751(17)
C13B C 0.2526(2) 0.3275(4) 0.31937(18)
C14B C 0.2324(2) 0.4661(3) 0.36717(18)
C15B C 0.3677(2) 0.2564(3) 0.34128(16)
C16B C 0.6228(2) 0.1279(4) 0.2991(2)
C17B C 0.6027(3) -0.0661(4) 0.4112(2)
C18B C 0.6340(2) -0.0063(4) 0.2462(2)
C19B C 0.6302(2) -0.1701(4) 0.2740(2)
C20B C 0.6141(3) -0.2019(4) 0.3570(2)
H1B H 0.1194 0.6080 0.5385
H2B H 0.2182 0.9346 0.3755
H3B H -0.0808 0.7256 0.4866
H4B H -0.1278 0.9480 0.3821
H5B H 0.0173 1.0463 0.3225
H6B H 0.1854 0.2806 0.2705
H7B H 0.1519 0.5122 0.3527
H8B H 0.3799 0.1612 0.3074
H9B H 0.6255 0.2413 0.2782
H10B H 0.5912 -0.0867 0.4681
H11B H 0.6447 0.0144 0.1890
H12B H 0.6384 -0.2619 0.2365
H13B H 0.6112 -0.3157 0.3773
loop_
_geom_bond_atom_site_label_1
_geom_bond_atom_site_label_2
_geom_bond_site_symmetry_1
_geom_bond_site_symmetry_2
C1 C2 1_555 1_555
C2 C3 1_555 1_555
C3 C5 1_555 1_555
C4 C2 1_555 1_555
C5 C6 1_555 1_555
C6 C7 1_555 1_555
C7 C4 1_555 1_555
C8 C10 1_555 1_555
C9 C1 1_555 1_555
C10 C9 1_555 1_555
C11 C12 1_555 1_555
C12 C8 1_555 1_555
C13 C14 1_555 1_555
C14 C9 1_555 1_555
C15 C8 1_555 1_555
C16 C11 1_555 1_555
C17 C11 1_555 1_555
C18 C16 1_555 1_555
C19 C18 1_555 1_555
C20 C17 1_555 1_555
H1 C3 1_555 1_555
H2 C4 1_555 1_555
H3 C5 1_555 1_555
H4 C6 1_555 1_555
H5 C7 1_555 1_555
H6 C13 1_555 1_555
H7 C14 1_555 1_555
H8 C15 1_555 1_555
H9 C16 1_555 1_555
H10 C17 1_555 1_555
H11 C18 1_555 1_555
H12 C19 1_555 1_555
H13 C20 1_555 1_555
C1B C12 1_555 1_555
C2B C1B 1_555 1_555
C3B C2B 1_555 1_555
C4B C2B 1_555 1_555
C5B C3B 1_555 1_555
C6B C5B 1_555 1_555
C7B C4B 1_555 1_555
C8B C10B 1_555 1_555
C9B C1B 1_555 1_555
C10B C10 1_555 1_555
C11B C12B 1_555 1_555
C12B C1 1_555 1_555
C13B C14B 1_555 1_555
C14B C9B 1_555 1_555
C15B C8B 1_555 1_555
C16B C11B 1_555 1_555
C17B C11B 1_555 1_555
C18B C16B 1_555 1_555
C19B C18B 1_555 1_555
C20B C17B 1_555 1_555
H1B C3B 1_555 1_555
H2B C4B 1_555 1_555
H3B C5B 1_555 1_555
H4B C6B 1_555 1_555
H5B C7B 1_555 1_555
H6B C13B 1_555 1_555
H7B C14B 1_555 1_555
H8B C15B 1_555 1_555
H9B C16B 1_555 1_555
H10B C17B 1_555 1_555
H11B C18B 1_555 1_555
H12B C19B 1_555 1_555
H13B C20B 1_555 1_555
C13 C15 1_555 1_555
C19 C20 1_555 1_555
C6B C7B 1_555 1_555
C8B C12B 1_555 1_555
C9B C10B 1_555 1_555
C13B C15B 1_555 1_555
C19B C20B 1_555 1_555

#END
