
#######################################################################
#
#                 Cambridge Crystallographic Data Centre
#                                CCDC 
#
#######################################################################
#
# If this CIF has been generated from an entry in the Cambridge 
# Structural Database, then it will include bibliographic, chemical, 
# crystal, experimental, refinement or atomic coordinate data resulting 
# from the CCDC's data processing and validation procedures.
#
#######################################################################

data_OFACIK
_chemical_formula_moiety         'C40 H26 S4'
_chemical_name_systematic        1,3,6,8-tetrakis(phenylsulfanyl)pyrene
_symmetry_cell_setting           monoclinic
_symmetry_space_group_name_H-M   'P 21/n'
_symmetry_Int_Tables_number      14
_space_group_name_Hall           '-P 2yn'
loop_
_symmetry_equiv_pos_site_id
_symmetry_equiv_pos_as_xyz
1 x,y,z
2 1/2-x,1/2+y,1/2-z
3 -x,-y,-z
4 1/2+x,1/2-y,1/2+z
_cell_length_a                   5.6980(11)
_cell_length_b                   24.912(5)
_cell_length_c                   10.485(2)
_cell_angle_alpha                90
_cell_angle_beta                 93.92(3)
_cell_angle_gamma                90
_cell_volume                     1484.85
_exptl_crystal_colour            yellow
_exptl_crystal_description       column
_cell_formula_units_Z            2
loop_
_atom_site_label
_atom_site_type_symbol
_atom_site_fract_x
_atom_site_fract_y
_atom_site_fract_z
S1 S 1.38670(11) 0.03708(3) 0.38668(6)
S2 S 0.60963(11) 0.14247(2) 0.18157(6)
C1 C 0.9988(4) 0.08718(9) 0.2631(2)
H1 H 0.9999 0.1107 0.3321
C2 C 1.1677(4) 0.04692(8) 0.2622(2)
C3 C 1.1738(4) 0.01236(8) 0.1564(2)
C4 C 0.9995(4) 0.01776(8) 0.05364(19)
C5 C 0.8227(4) 0.05826(8) 0.0570(2)
C6 C 0.8287(4) 0.09297(8) 0.1630(2)
C7 C 1.3501(4) -0.02821(9) 0.1480(2)
H2 H 1.4663 -0.0317 0.2142
C8 C 0.6478(4) 0.06137(9) -0.0471(2)
H3 H 0.5295 0.0870 -0.0449
C9 C 1.3247(4) 0.08243(9) 0.5095(2)
C10 C 1.1384(4) 0.07530(11) 0.5857(3)
H4 H 1.0274 0.0486 0.5661
C11 C 1.1174(5) 0.10784(13) 0.6909(3)
H5 H 0.9909 0.1034 0.7415
C12 C 1.2818(6) 0.14653(12) 0.7209(3)
H6 H 1.2684 0.1681 0.7925
C13 C 1.4654(5) 0.15357(11) 0.6461(3)
H7 H 1.5764 0.1801 0.6663
C14 C 1.4874(4) 0.12173(10) 0.5412(2)
H8 H 1.6139 0.1267 0.4909
C15 C 0.6491(4) 0.19047(8) 0.0607(2)
C16 C 0.4718(4) 0.22839(10) 0.0416(3)
H9 H 0.3423 0.2271 0.0909
C17 C 0.4849(5) 0.26786(10) -0.0494(3)
H10 H 0.3653 0.2932 -0.0607
C18 C 0.6741(5) 0.27010(10) -0.1239(3)
H11 H 0.6826 0.2965 -0.1861
C19 C 0.8499(5) 0.23289(10) -0.1049(3)
H12 H 0.9794 0.2345 -0.1542
C20 C 0.8386(4) 0.19315(10) -0.0139(2)
H13 H 0.9592 0.1681 -0.0030
S1B S 0.61330(11) -0.03708(3) -0.38668(6)
S2B S 1.39037(11) -0.14247(2) -0.18157(6)
C1B C 1.0012(4) -0.08718(9) -0.2631(2)
H1B H 1.0001 -0.1107 -0.3321
C2B C 0.8323(4) -0.04692(8) -0.2622(2)
C3B C 0.8262(4) -0.01236(8) -0.1564(2)
C4B C 1.0005(4) -0.01776(8) -0.05364(19)
C5B C 1.1773(4) -0.05826(8) -0.0570(2)
C6B C 1.1713(4) -0.09297(8) -0.1630(2)
C7B C 0.6499(4) 0.02821(9) -0.1480(2)
H2B H 0.5337 0.0317 -0.2142
C8B C 1.3522(4) -0.06137(9) 0.0471(2)
H3B H 1.4705 -0.0870 0.0449
C9B C 0.6753(4) -0.08243(9) -0.5095(2)
C10B C 0.8616(4) -0.07530(11) -0.5857(3)
H4B H 0.9726 -0.0486 -0.5661
C11B C 0.8826(5) -0.10784(13) -0.6909(3)
H5B H 1.0091 -0.1034 -0.7415
C12B C 0.7182(6) -0.14653(12) -0.7209(3)
H6B H 0.7316 -0.1681 -0.7925
C13B C 0.5346(5) -0.15357(11) -0.6461(3)
H7B H 0.4236 -0.1801 -0.6663
C14B C 0.5126(4) -0.12173(10) -0.5412(2)
H8B H 0.3861 -0.1267 -0.4909
C15B C 1.3509(4) -0.19047(8) -0.0607(2)
C16B C 1.5282(4) -0.22839(10) -0.0416(3)
H9B H 1.6577 -0.2271 -0.0909
C17B C 1.5151(5) -0.26786(10) 0.0494(3)
H10B H 1.6347 -0.2932 0.0607
C18B C 1.3259(5) -0.27010(10) 0.1239(3)
H11B H 1.3174 -0.2965 0.1861
C19B C 1.1501(5) -0.23289(10) 0.1049(3)
H12B H 1.0206 -0.2345 0.1542
C20B C 1.1614(4) -0.19315(10) 0.0139(2)
H13B H 1.0408 -0.1681 0.0030
loop_
_geom_bond_atom_site_label_1
_geom_bond_atom_site_label_2
_geom_bond_site_symmetry_1
_geom_bond_site_symmetry_2
S1 C2 1_555 1_555
S2 C6 1_555 1_555
C1 H1 1_555 1_555
C2 C1 1_555 1_555
C3 C2 1_555 1_555
C4 C3 1_555 1_555
C5 C4 1_555 1_555
C6 C1 1_555 1_555
C7 C3 1_555 1_555
H2 C7 1_555 1_555
C8 C5 1_555 1_555
H3 C8 1_555 1_555
C9 S1 1_555 1_555
C10 C9 1_555 1_555
H4 C10 1_555 1_555
C11 C10 1_555 1_555
H5 C11 1_555 1_555
C12 C11 1_555 1_555
H6 C12 1_555 1_555
C13 C12 1_555 1_555
H7 C13 1_555 1_555
C14 C9 1_555 1_555
H8 C14 1_555 1_555
C15 S2 1_555 1_555
C16 C15 1_555 1_555
H9 C16 1_555 1_555
C17 C16 1_555 1_555
H10 C17 1_555 1_555
C18 C17 1_555 1_555
H11 C18 1_555 1_555
C19 C18 1_555 1_555
H12 C19 1_555 1_555
C20 C15 1_555 1_555
H13 C20 1_555 1_555
S1B C2B 1_555 1_555
S2B C6B 1_555 1_555
C1B H1B 1_555 1_555
C2B C1B 1_555 1_555
C3B C2B 1_555 1_555
C4B C4 1_555 1_555
C5B C4B 1_555 1_555
C6B C1B 1_555 1_555
C7B C8 1_555 1_555
H2B C7B 1_555 1_555
C8B C7 1_555 1_555
H3B C8B 1_555 1_555
C9B S1B 1_555 1_555
C10B C9B 1_555 1_555
H4B C10B 1_555 1_555
C11B C10B 1_555 1_555
H5B C11B 1_555 1_555
C12B C11B 1_555 1_555
H6B C12B 1_555 1_555
C13B C12B 1_555 1_555
H7B C13B 1_555 1_555
C14B C9B 1_555 1_555
H8B C14B 1_555 1_555
C15B S2B 1_555 1_555
C16B C15B 1_555 1_555
H9B C16B 1_555 1_555
C17B C16B 1_555 1_555
H10B C17B 1_555 1_555
C18B C17B 1_555 1_555
H11B C18B 1_555 1_555
C19B C18B 1_555 1_555
H12B C19B 1_555 1_555
C20B C15B 1_555 1_555
H13B C20B 1_555 1_555
C5 C6 1_555 1_555
C13 C14 1_555 1_555
C19 C20 1_555 1_555
C3B C4B 1_555 1_555
C3B C7B 1_555 1_555
C5B C6B 1_555 1_555
C5B C8B 1_555 1_555
C13B C14B 1_555 1_555
C19B C20B 1_555 1_555

#END
