
#######################################################################
#
#                 Cambridge Crystallographic Data Centre
#                                CCDC 
#
#######################################################################
#
# If this CIF has been generated from an entry in the Cambridge 
# Structural Database, then it will include bibliographic, chemical, 
# crystal, experimental, refinement or atomic coordinate data resulting 
# from the CCDC's data processing and validation procedures.
#
#######################################################################

data_OFACEG
_chemical_formula_moiety         'C40 H26 Se4'
_chemical_name_systematic        1,3,6,8-tetrakis(phenylselanyl)pyrene
_symmetry_cell_setting           triclinic
_symmetry_space_group_name_H-M   'P -1'
_symmetry_Int_Tables_number      2
_space_group_name_Hall           '-P 1'
loop_
_symmetry_equiv_pos_site_id
_symmetry_equiv_pos_as_xyz
1 x,y,z
2 -x,-y,-z
_cell_length_a                   4.8528(10)
_cell_length_b                   10.645(2)
_cell_length_c                   15.311(3)
_cell_angle_alpha                85.51(3)
_cell_angle_beta                 89.84(3)
_cell_angle_gamma                86.75(3)
_cell_volume                     787.24
_exptl_crystal_colour            yellow
_exptl_crystal_description       column
_cell_formula_units_Z            1
loop_
_atom_site_label
_atom_site_type_symbol
_atom_site_fract_x
_atom_site_fract_y
_atom_site_fract_z
Se1 Se 0.31521(7) 0.30494(3) 0.87526(2)
Se2 Se 1.05071(9) -0.01344(4) 0.69120(2)
C1 C 0.7049(6) 0.1329(3) 0.8036(2)
H1 H 0.6223 0.1662 0.7514
C2 C 0.6112(6) 0.1747(3) 0.8809(2)
C3 C 0.7232(6) 0.1235(3) 0.9616(2)
C4 C 0.9410(6) 0.0276(3) 0.95953(18)
C5 C 1.0408(6) -0.0124(3) 0.87869(19)
C6 C 0.9191(6) 0.0423(3) 0.80087(19)
C7 C 1.2609(6) -0.1071(3) 0.8805(2)
H2 H 1.3302 -0.1331 0.8278
C8 C 0.6284(6) 0.1602(3) 1.0443(2)
H3 H 0.4864 0.2224 1.0463
C9 C 0.9233(8) 0.1271(3) 0.6139(2)
C10 C 0.7476(11) 0.1094(4) 0.5481(3)
H4 H 0.6858 0.0294 0.5421
C11 C 0.6595(14) 0.2085(6) 0.4902(3)
H5 H 0.5338 0.1958 0.4464
C12 C 0.7550(13) 0.3248(5) 0.4965(3)
H6 H 0.7041 0.3905 0.4551
C13 C 0.9251(14) 0.3444(5) 0.5635(4)
H7 H 0.9840 0.4248 0.5701
C14 C 1.0105(12) 0.2447(4) 0.6219(3)
H8 H 1.1294 0.2581 0.6673
C15 C 0.5346(7) 0.4439(3) 0.8365(2)
C16 C 0.5171(11) 0.4954(4) 0.7532(3)
H9 H 0.4031 0.4622 0.7131
C17 C 0.6706(14) 0.5987(6) 0.7276(4)
H10 H 0.6592 0.6344 0.6702
C18 C 0.8334(12) 0.6464(4) 0.7849(4)
H11 H 0.9323 0.7163 0.7673
C19 C 0.8574(9) 0.5946(4) 0.8686(4)
H12 H 0.9763 0.6269 0.9077
C20 C 0.7051(8) 0.4951(4) 0.8945(3)
H13 H 0.7161 0.4610 0.9523
Se1A Se 1.68479(7) -0.30494(3) 1.12474(2)
Se2A Se 0.94929(9) 0.01344(4) 1.30880(2)
C1A C 1.2951(6) -0.1329(3) 1.1964(2)
H1A H 1.3777 -0.1662 1.2486
C2A C 1.3888(6) -0.1747(3) 1.1191(2)
C3A C 1.2768(6) -0.1235(3) 1.0384(2)
C4A C 1.0590(6) -0.0276(3) 1.04047(18)
C5A C 0.9592(6) 0.0124(3) 1.12131(19)
C6A C 1.0809(6) -0.0423(3) 1.19913(19)
C7A C 0.7391(6) 0.1071(3) 1.1195(2)
H2A H 0.6698 0.1331 1.1722
C8A C 1.3716(6) -0.1602(3) 0.9557(2)
H3A H 1.5136 -0.2224 0.9537
C9A C 1.0767(8) -0.1271(3) 1.3861(2)
C10A C 1.2524(11) -0.1094(4) 1.4519(3)
H4A H 1.3142 -0.0294 1.4579
C11A C 1.3405(14) -0.2085(6) 1.5098(3)
H5A H 1.4662 -0.1958 1.5536
C12A C 1.2450(13) -0.3248(5) 1.5035(3)
H6A H 1.2959 -0.3905 1.5449
C13A C 1.0749(14) -0.3444(5) 1.4365(4)
H7A H 1.0160 -0.4248 1.4299
C14A C 0.9895(12) -0.2447(4) 1.3781(3)
H8A H 0.8706 -0.2581 1.3327
C15A C 1.4654(7) -0.4439(3) 1.1635(2)
C16A C 1.4829(11) -0.4954(4) 1.2468(3)
H9A H 1.5969 -0.4622 1.2869
C17A C 1.3294(14) -0.5987(6) 1.2724(4)
H10A H 1.3408 -0.6344 1.3298
C18A C 1.1666(12) -0.6464(4) 1.2151(4)
H11A H 1.0677 -0.7163 1.2327
C19A C 1.1426(9) -0.5946(4) 1.1314(4)
H12A H 1.0237 -0.6269 1.0923
C20A C 1.2949(8) -0.4951(4) 1.1055(3)
H13A H 1.2839 -0.4610 1.0477
loop_
_geom_bond_atom_site_label_1
_geom_bond_atom_site_label_2
_geom_bond_site_symmetry_1
_geom_bond_site_symmetry_2
Se1 C2 1_555 1_555
Se2 C6 1_555 1_555
C1 H1 1_555 1_555
C2 C1 1_555 1_555
C3 C2 1_555 1_555
C4 C3 1_555 1_555
C5 C4 1_555 1_555
C6 C1 1_555 1_555
C7 C5 1_555 1_555
H2 C7 1_555 1_555
C8 C3 1_555 1_555
H3 C8 1_555 1_555
C9 Se2 1_555 1_555
C10 C9 1_555 1_555
H4 C10 1_555 1_555
C11 C10 1_555 1_555
H5 C11 1_555 1_555
C12 C11 1_555 1_555
H6 C12 1_555 1_555
C13 C12 1_555 1_555
H7 C13 1_555 1_555
C14 C9 1_555 1_555
H8 C14 1_555 1_555
C15 Se1 1_555 1_555
C16 C15 1_555 1_555
H9 C16 1_555 1_555
C17 C16 1_555 1_555
H10 C17 1_555 1_555
C18 C17 1_555 1_555
H11 C18 1_555 1_555
C19 C18 1_555 1_555
H12 C19 1_555 1_555
C20 C15 1_555 1_555
H13 C20 1_555 1_555
Se1A C2A 1_555 1_555
Se2A C6A 1_555 1_555
C1A H1A 1_555 1_555
C2A C1A 1_555 1_555
C3A C2A 1_555 1_555
C4A C4 1_555 1_555
C5A C4A 1_555 1_555
C6A C1A 1_555 1_555
C7A C8 1_555 1_555
H2A C7A 1_555 1_555
C8A C7 1_555 1_555
H3A C8A 1_555 1_555
C9A Se2A 1_555 1_555
C10A C9A 1_555 1_555
H4A C10A 1_555 1_555
C11A C10A 1_555 1_555
H5A C11A 1_555 1_555
C12A C11A 1_555 1_555
H6A C12A 1_555 1_555
C13A C12A 1_555 1_555
H7A C13A 1_555 1_555
C14A C9A 1_555 1_555
H8A C14A 1_555 1_555
C15A Se1A 1_555 1_555
C16A C15A 1_555 1_555
H9A C16A 1_555 1_555
C17A C16A 1_555 1_555
H10A C17A 1_555 1_555
C18A C17A 1_555 1_555
H11A C18A 1_555 1_555
C19A C18A 1_555 1_555
H12A C19A 1_555 1_555
C20A C15A 1_555 1_555
H13A C20A 1_555 1_555
C5 C6 1_555 1_555
C13 C14 1_555 1_555
C19 C20 1_555 1_555
C3A C4A 1_555 1_555
C3A C8A 1_555 1_555
C5A C6A 1_555 1_555
C5A C7A 1_555 1_555
C13A C14A 1_555 1_555
C19A C20A 1_555 1_555

#END
