
#######################################################################
#
#                 Cambridge Crystallographic Data Centre
#                                CCDC 
#
#######################################################################
#
# If this CIF has been generated from an entry in the Cambridge 
# Structural Database, then it will include bibliographic, chemical, 
# crystal, experimental, refinement or atomic coordinate data resulting 
# from the CCDC's data processing and validation procedures.
#
#######################################################################

data_OFAGIO
_chemical_formula_moiety         'C31 H26 N4 O6 S1'
_chemical_name_systematic        
'3-methyl-4-[1-(4-nitrophenyl)-3-oxo-3-(pyridin-2-yl)propyl]-1-phenyl-1H-pyrazol-5-yl 4-methylbenzene-1-sulfonate'
_symmetry_cell_setting           monoclinic
_symmetry_space_group_name_H-M   'P 21'
_symmetry_Int_Tables_number      4
_space_group_name_Hall           'P 2yb'
loop_
_symmetry_equiv_pos_site_id
_symmetry_equiv_pos_as_xyz
1 x,y,z
2 -x,1/2+y,-z
_cell_length_a                   7.5644(2)
_cell_length_b                   19.5682(6)
_cell_length_c                   9.8133(3)
_cell_angle_alpha                90
_cell_angle_beta                 105.002(3)
_cell_angle_gamma                90
_cell_volume                     1403.07
_exptl_crystal_colour            colorless
_exptl_crystal_description       block
_cell_formula_units_Z            2
_exptl_crystal_recrystallization_method 
'Re-crystallisation from solvent: Acetonitrile'
loop_
_atom_site_label
_atom_site_type_symbol
_atom_site_fract_x
_atom_site_fract_y
_atom_site_fract_z
S1 S 0.45876(9) 0.50874(3) 0.68872(7)
O1 O 0.63971(19) 0.54632(9) 0.65984(16)
O2 O 0.3514(3) 0.48504(10) 0.5567(2)
O3 O 0.5230(3) 0.46167(11) 0.8002(2)
N1 N 0.9028(3) 0.47653(11) 0.7455(2)
O4 O 0.8171(3) 0.62336(11) 0.3940(2)
N2 N 1.0091(3) 0.43117(11) 0.6979(2)
C1 C 0.9489(3) 0.49383(14) 0.8920(2)
N3 N 0.3078(4) 0.25270(18) 0.0794(5)
C2 C 0.7902(3) 0.47384(12) 0.5128(2)
C3 C 0.7697(3) 0.50170(13) 0.6356(2)
C4 C 0.4060(4) 0.31234(16) 0.1507(4)
C5 C 0.3590(3) 0.57962(14) 0.7449(3)
C6 C 0.5924(3) 0.42347(13) 0.2883(3)
N4 N 0.3547(4) 0.66512(15) 0.3398(3)
O5 O 0.2797(4) 0.20502(15) 0.1520(4)
C7 C 0.5623(3) 0.54756(14) 0.3344(3)
H1 H 0.491100 0.546353 0.236846
H2 H 0.477693 0.542638 0.393104
C8 C 0.6920(3) 0.48658(12) 0.3607(2)
H3 H 0.787202 0.496901 0.312427
C9 C 0.9171(4) 0.55816(16) 0.9361(3)
H4 H 0.861273 0.591140 0.870787
C10 C 0.9409(3) 0.42937(13) 0.5591(3)
C11 C 1.0542(4) 0.52613(18) 1.1747(3)
H5 H 1.089642 0.537000 1.270186
C12 C 0.9689(4) 0.57349(17) 1.0788(3)
H6 H 0.944993 0.616691 1.109261
C13 C 0.5585(4) 0.41700(15) 0.1432(3)
H7 H 0.600791 0.450457 0.092177
C14 C 0.6529(4) 0.61621(14) 0.3631(3)
C15 C 0.1503(4) 0.67209(19) 0.6978(4)
H8 H 0.060557 0.696643 0.633888
C16 C 0.4629(4) 0.36168(17) 0.0730(3)
H9 H 0.437965 0.358123 -0.024596
C17 C 0.2050(4) 0.69356(17) 0.8349(4)
C18 C 1.0217(4) 0.38233(16) 0.4717(3)
H10 H 1.142560 0.369200 0.523928
H11 H 1.028192 0.405188 0.386569
H12 H 0.946407 0.342347 0.448417
O6 O 0.2545(5) 0.25263(19) -0.0473(4)
C19 C 1.0328(4) 0.44471(18) 0.9882(3)
H13 H 1.052114 0.400845 0.958503
C20 C 0.4378(4) 0.31690(16) 0.2955(3)
H14 H 0.398074 0.282768 0.346475
C21 C 0.5293(5) 0.67703(15) 0.3447(3)
C22 C 0.2251(4) 0.61477(18) 0.6516(3)
H15 H 0.184509 0.600467 0.558369
C23 C 0.5297(4) 0.37318(15) 0.3622(3)
H16 H 0.550042 0.377396 0.459442
C24 C 0.4133(4) 0.59878(18) 0.8855(3)
H17 H 0.501054 0.573605 0.949873
C25 C 1.0878(4) 0.4620(2) 1.1297(3)
H18 H 1.148149 0.429914 1.195182
C26 C 0.3360(5) 0.65517(19) 0.9281(3)
H19 H 0.372339 0.668162 1.022400
C27 C 0.5963(6) 0.74089(17) 0.3263(3)
H20 H 0.719505 0.747442 0.331177
C28 C 0.1272(5) 0.7572(2) 0.8834(5)
H21 H 0.220184 0.791814 0.906062
H22 H 0.085470 0.746990 0.965614
H23 H 0.026326 0.773420 0.809579
C29 C 0.4743(9) 0.79492(19) 0.3004(4)
H24 H 0.514125 0.838571 0.285372
C30 C 0.2966(9) 0.7838(3) 0.2970(4)
H25 H 0.213262 0.819704 0.280616
C31 C 0.2409(6) 0.7182(2) 0.3182(4)
H26 H 0.119153 0.710875 0.317229
loop_
_geom_bond_atom_site_label_1
_geom_bond_atom_site_label_2
_geom_bond_site_symmetry_1
_geom_bond_site_symmetry_2
S1 O1 1_555 1_555
O1 C3 1_555 1_555
O2 S1 1_555 1_555
O3 S1 1_555 1_555
N1 N2 1_555 1_555
O4 C14 1_555 1_555
N2 C10 1_555 1_555
C1 N1 1_555 1_555
N3 C4 1_555 1_555
C2 C3 1_555 1_555
C3 N1 1_555 1_555
C4 C16 1_555 1_555
C5 S1 1_555 1_555
C6 C8 1_555 1_555
N4 C21 1_555 1_555
O5 N3 1_555 1_555
C7 H1 1_555 1_555
H2 C7 1_555 1_555
C8 C2 1_555 1_555
H3 C8 1_555 1_555
C9 C1 1_555 1_555
H4 C9 1_555 1_555
C10 C2 1_555 1_555
C11 H5 1_555 1_555
C12 C9 1_555 1_555
H6 C12 1_555 1_555
C13 C6 1_555 1_555
H7 C13 1_555 1_555
C14 C7 1_555 1_555
C15 H8 1_555 1_555
C16 C13 1_555 1_555
H9 C16 1_555 1_555
C17 C15 1_555 1_555
C18 C10 1_555 1_555
H10 C18 1_555 1_555
H11 C18 1_555 1_555
H12 C18 1_555 1_555
O6 N3 1_555 1_555
C19 C1 1_555 1_555
H13 C19 1_555 1_555
C20 C4 1_555 1_555
H14 C20 1_555 1_555
C21 C14 1_555 1_555
C22 C5 1_555 1_555
H15 C22 1_555 1_555
C23 C6 1_555 1_555
H16 C23 1_555 1_555
C24 C5 1_555 1_555
H17 C24 1_555 1_555
C25 C11 1_555 1_555
H18 C25 1_555 1_555
C26 C17 1_555 1_555
H19 C26 1_555 1_555
C27 C21 1_555 1_555
H20 C27 1_555 1_555
C28 C17 1_555 1_555
H21 C28 1_555 1_555
H22 C28 1_555 1_555
H23 C28 1_555 1_555
C29 C27 1_555 1_555
H24 C29 1_555 1_555
C30 C29 1_555 1_555
H25 C30 1_555 1_555
C31 N4 1_555 1_555
H26 C31 1_555 1_555
C7 C8 1_555 1_555
C11 C12 1_555 1_555
C15 C22 1_555 1_555
C19 C25 1_555 1_555
C20 C23 1_555 1_555
C24 C26 1_555 1_555
C30 C31 1_555 1_555

#END
