
#######################################################################
#
#                 Cambridge Crystallographic Data Centre
#                                CCDC 
#
#######################################################################
#
# If this CIF has been generated from an entry in the Cambridge 
# Structural Database, then it will include bibliographic, chemical, 
# crystal, experimental, refinement or atomic coordinate data resulting 
# from the CCDC's data processing and validation procedures.
#
#######################################################################

data_OFAJAJ
_chemical_formula_moiety         'C8 H5 F2 N1 O4'
_chemical_name_systematic        
2,2-difluoro-5-nitro-2,3-dihydro-1-benzofuran-3-ol
_symmetry_cell_setting           monoclinic
_symmetry_space_group_name_H-M   'P 21/n'
_symmetry_Int_Tables_number      14
_space_group_name_Hall           '-P 2yn'
loop_
_symmetry_equiv_pos_site_id
_symmetry_equiv_pos_as_xyz
1 x,y,z
2 1/2-x,1/2+y,1/2-z
3 -x,-y,-z
4 1/2+x,1/2-y,1/2+z
_cell_length_a                   4.94809(15)
_cell_length_b                   7.5919(2)
_cell_length_c                   43.8333(14)
_cell_angle_alpha                90
_cell_angle_beta                 92.535(3)
_cell_angle_gamma                90
_cell_volume                     1645
_exptl_crystal_colour            colorless
_cell_formula_units_Z            8
loop_
_atom_site_label
_atom_site_type_symbol
_atom_site_fract_x
_atom_site_fract_y
_atom_site_fract_z
F1 F 0.2487(2) 0.41931(16) 0.02168(2)
F2 F -0.1352(2) 0.35624(15) 0.04056(3)
O1 O 0.0986(3) 0.27586(18) 0.09565(3)
H1 H 0.0308 0.3752 0.0989
O2 O 0.1214(3) 0.13937(18) 0.02509(3)
O3 O 1.0301(3) -0.34702(19) 0.08063(3)
O4 O 0.9845(3) -0.1612(2) 0.11742(3)
C1 C 0.7024(4) -0.1300(2) 0.07434(4)
N1 N 0.9210(3) -0.2190(2) 0.09208(4)
C2 C 0.4019(4) -0.1243(2) 0.02991(4)
H2 H 0.3265 -0.1754 0.0117
C3 C 0.6052(4) -0.2077(2) 0.04734(4)
H3 H 0.6772 -0.3168 0.0409
C4 C 0.6099(4) 0.0295(2) 0.08540(4)
H4 H 0.6777 0.0777 0.1042
C5 C 0.3146(4) 0.0367(2) 0.04039(4)
C6 C 0.2754(4) 0.2881(2) 0.07135(4)
H5 H 0.4094 0.3856 0.0747
C7 C 0.4126(4) 0.1142(2) 0.06731(4)
C8 C 0.1226(4) 0.3031(2) 0.03962(4)
F3 F 0.3895(3) 0.29344(15) 0.20571(3)
O5 O 0.4552(3) 0.02721(18) 0.22500(3)
F4 F 0.0451(2) 0.14071(18) 0.21792(3)
O6 O 0.6725(3) -0.52051(19) 0.12442(3)
O7 O 0.9313(3) -0.6272(2) 0.16082(4)
O8 O 0.3893(3) 0.1464(2) 0.15070(3)
H6 H 0.2699 0.2062 0.1412
C9 C 0.6797(4) -0.3800(2) 0.17145(4)
C10 C 0.5379(4) -0.1170(3) 0.20886(4)
N2 N 0.7663(3) -0.5194(2) 0.15103(4)
C11 C 0.5028(4) -0.2536(3) 0.15961(4)
H7 H 0.4330 -0.2587 0.1391
C12 C 0.7867(4) -0.3777(3) 0.20135(4)
H8 H 0.9074 -0.4677 0.2084
C13 C 0.4328(4) -0.1199(2) 0.17901(4)
C14 C 0.7155(4) -0.2429(3) 0.22074(4)
H9 H 0.7854 -0.2371 0.2413
C15 C 0.2889(4) 0.1302(2) 0.20543(4)
C16 C 0.2689(4) 0.0441(2) 0.17311(4)
H10 H 0.0772 0.0147 0.1669
loop_
_geom_bond_atom_site_label_1
_geom_bond_atom_site_label_2
_geom_bond_site_symmetry_1
_geom_bond_site_symmetry_2
F1 C8 1_555 1_555
F2 C8 1_555 1_555
O1 H1 1_555 1_555
O2 C5 1_555 1_555
O3 N1 1_555 1_555
O4 N1 1_555 1_555
C1 N1 1_555 1_555
C2 H2 1_555 1_555
C3 C1 1_555 1_555
H3 C3 1_555 1_555
C4 C1 1_555 1_555
H4 C4 1_555 1_555
C5 C2 1_555 1_555
C6 O1 1_555 1_555
H5 C6 1_555 1_555
C7 C4 1_555 1_555
C8 O2 1_555 1_555
F3 C15 1_555 1_555
O5 C10 1_555 1_555
F4 C15 1_555 1_555
O6 N2 1_555 1_555
O7 N2 1_555 1_555
O8 H6 1_555 1_555
C9 N2 1_555 1_555
C10 C13 1_555 1_555
C11 C9 1_555 1_555
H7 C11 1_555 1_555
C12 C9 1_555 1_555
H8 C12 1_555 1_555
C13 C11 1_555 1_555
C14 C10 1_555 1_555
H9 C14 1_555 1_555
C15 O5 1_555 1_555
C16 O8 1_555 1_555
H10 C16 1_555 1_555
C2 C3 1_555 1_555
C5 C7 1_555 1_555
C6 C7 1_555 1_555
C6 C8 1_555 1_555
C12 C14 1_555 1_555
C13 C16 1_555 1_555
C15 C16 1_555 1_555

#END
