
#######################################################################
#
#                 Cambridge Crystallographic Data Centre
#                                CCDC 
#
#######################################################################
#
# If this CIF has been generated from an entry in the Cambridge 
# Structural Database, then it will include bibliographic, chemical, 
# crystal, experimental, refinement or atomic coordinate data resulting 
# from the CCDC's data processing and validation procedures.
#
#######################################################################

data_OFARIY
_chemical_formula_moiety         'C48 H38 N4 O2'
_chemical_name_systematic        
3,4-bis((1,3-Dibenzyl-1,3-dihydro-2H-benzimidazol-2-ylidene)methyl)cyclobut-3-ene-1,2-dione
_symmetry_cell_setting           monoclinic
_symmetry_space_group_name_H-M   'C 2/c'
_symmetry_Int_Tables_number      15
_space_group_name_Hall           '-C 2yn'
loop_
_symmetry_equiv_pos_site_id
_symmetry_equiv_pos_as_xyz
1 x,y,z
2 -x,y,1/2-z
3 1/2+x,1/2+y,z
4 1/2-x,1/2+y,1/2-z
5 -x,-y,-z
6 x,-y,1/2+z
7 1/2-x,1/2-y,-z
8 1/2+x,1/2-y,1/2+z
_cell_length_a                   25.957(6)
_cell_length_b                   11.995(3)
_cell_length_c                   23.968(5)
_cell_angle_alpha                90
_cell_angle_beta                 94.994(3)
_cell_angle_gamma                90
_cell_volume                     7434.21
_exptl_crystal_colour            yellow
_exptl_crystal_description       block
_cell_formula_units_Z            8
loop_
_atom_site_label
_atom_site_type_symbol
_atom_site_fract_x
_atom_site_fract_y
_atom_site_fract_z
O1 O 0.18918(12) 0.2628(2) 0.25898(11)
N1 N 0.15393(13) 0.6250(2) 0.17294(13)
C1 C 0.1042(2) 0.8164(4) 0.2152(2)
H1 H 0.0852 0.7527 0.2050
C2 C 0.0793(2) 0.9090(5) 0.2341(2)
H2 H 0.0436 0.9079 0.2356
C3 C 0.1067(3) 1.0018(4) 0.2507(2)
H3 H 0.0897 1.0630 0.2645
C4 C 0.1587(2) 1.0054(4) 0.2473(2)
H4 H 0.1775 1.0690 0.2582
C5 C 0.1830(2) 0.9133(3) 0.22745(18)
H5 H 0.2185 0.9156 0.2249
C6 C 0.15603(17) 0.8176(3) 0.21127(16)
C7 C 0.18561(16) 0.7219(3) 0.18904(17)
H6 H 0.2023 0.7474 0.1567
H7 H 0.2125 0.6996 0.2175
C8 C 0.13235(16) 0.6033(3) 0.11920(16)
C9 C 0.13302(17) 0.6641(3) 0.07063(17)
H8 H 0.1491 0.7333 0.0700
C10 C 0.10857(19) 0.6172(4) 0.02284(18)
H9 H 0.1084 0.6553 -0.0110
C11 C 0.08441(18) 0.5148(4) 0.02432(18)
H10 H 0.0677 0.4860 -0.0085
C12 C 0.08436(17) 0.4538(3) 0.07333(17)
H11 H 0.0686 0.3843 0.0740
C13 C 0.10861(16) 0.5003(3) 0.12100(16)
C14 C 0.14445(15) 0.5390(3) 0.20809(16)
C15 C 0.09333(17) 0.3622(3) 0.19885(18)
H12 H 0.0946 0.3685 0.2393
H13 H 0.1145 0.2989 0.1902
C16 C 0.03831(19) 0.3400(4) 0.17623(17)
C17 C 0.0242(2) 0.2320(4) 0.1621(2)
H14 H 0.0488 0.1754 0.1655
C18 C -0.0261(3) 0.2076(7) 0.1428(3)
H15 H -0.0356 0.1345 0.1340
C19 C -0.0618(3) 0.2898(9) 0.1366(3)
H16 H -0.0956 0.2730 0.1230
C20 C -0.0488(2) 0.3963(7) 0.1500(2)
H17 H -0.0735 0.4526 0.1455
C21 C 0.0016(2) 0.4213(5) 0.1705(2)
H18 H 0.0103 0.4943 0.1803
C22 C 0.16069(16) 0.5380(3) 0.26487(16)
H19 H 0.1629 0.6079 0.2817
C23 C 0.17409(14) 0.4502(3) 0.30052(15)
C24 C 0.18639(15) 0.3313(3) 0.29662(16)
C25 C 0.19845(15) 0.3287(3) 0.35863(16)
C26 C 0.18777(14) 0.4496(3) 0.35992(15)
C27 C 0.18575(15) 0.5422(3) 0.39462(15)
H20 H 0.1729 0.6046 0.3749
C28 C 0.19790(15) 0.5661(3) 0.45113(16)
C29 C 0.22260(15) 0.5637(3) 0.54357(15)
C30 C 0.24044(16) 0.5360(4) 0.59797(16)
H21 H 0.2556 0.4672 0.6067
C31 C 0.23455(18) 0.6153(4) 0.63859(18)
H22 H 0.2456 0.5988 0.6756
C32 C 0.21282(18) 0.7183(4) 0.62605(19)
H23 H 0.2101 0.7700 0.6546
C33 C 0.19507(16) 0.7458(4) 0.57189(18)
H24 H 0.1801 0.8148 0.5632
C34 C 0.20052(16) 0.6663(3) 0.53117(16)
C35 C 0.16445(16) 0.7635(3) 0.44263(16)
H25 H 0.1809 0.7688 0.4079
H26 H 0.1732 0.8304 0.4642
C36 C 0.10688(17) 0.7603(3) 0.42908(19)
C37 C 0.0861(2) 0.7616(5) 0.3756(2)
H27 H 0.1077 0.7642 0.3465
C38 C 0.0332(3) 0.7591(7) 0.3636(3)
H28 H 0.0194 0.7589 0.3265
C39 C 0.0012(2) 0.7569(6) 0.4052(3)
H29 H -0.0344 0.7555 0.3968
C40 C 0.0215(2) 0.7568(5) 0.4587(3)
H30 H -0.0001 0.7554 0.4877
C41 C 0.0741(2) 0.7587(4) 0.4704(2)
H31 H 0.0877 0.7589 0.5076
C42 C 0.25107(16) 0.4015(3) 0.48874(17)
H32 H 0.2351 0.3572 0.4581
H33 H 0.2504 0.3582 0.5229
C43 C 0.30610(17) 0.4257(3) 0.47833(17)
C44 C 0.31889(18) 0.4561(3) 0.42526(18)
H34 H 0.2930 0.4608 0.3960
C45 C 0.3691(2) 0.4792(3) 0.4153(2)
H35 H 0.3771 0.4991 0.3796
C46 C 0.4073(2) 0.4730(4) 0.4583(3)
H36 H 0.4414 0.4897 0.4521
C47 C 0.3950(2) 0.4420(5) 0.5103(2)
H37 H 0.4211 0.4364 0.5393
C48 C 0.3448(2) 0.4188(4) 0.5208(2)
H38 H 0.3372 0.3984 0.5566
O2 O 0.21187(12) 0.2543(2) 0.39173(11)
N2 N 0.11554(13) 0.4631(2) 0.17652(13)
N3 N 0.18574(12) 0.6669(2) 0.47411(13)
N4 N 0.22131(13) 0.5039(2) 0.49390(13)
loop_
_geom_bond_atom_site_label_1
_geom_bond_atom_site_label_2
_geom_bond_site_symmetry_1
_geom_bond_site_symmetry_2
O1 C24 1_555 1_555
N1 C7 1_555 1_555
C1 H1 1_555 1_555
C2 C1 1_555 1_555
H2 C2 1_555 1_555
C3 C2 1_555 1_555
H3 C3 1_555 1_555
C4 C3 1_555 1_555
H4 C4 1_555 1_555
C5 C4 1_555 1_555
H5 C5 1_555 1_555
C6 C1 1_555 1_555
C7 C6 1_555 1_555
H6 C7 1_555 1_555
H7 C7 1_555 1_555
C8 N1 1_555 1_555
C9 C8 1_555 1_555
H8 C9 1_555 1_555
C10 C9 1_555 1_555
H9 C10 1_555 1_555
C11 C10 1_555 1_555
H10 C11 1_555 1_555
C12 C11 1_555 1_555
H11 C12 1_555 1_555
C13 C8 1_555 1_555
C14 N1 1_555 1_555
C15 H12 1_555 1_555
H13 C15 1_555 1_555
C16 C15 1_555 1_555
C17 C16 1_555 1_555
H14 C17 1_555 1_555
C18 C17 1_555 1_555
H15 C18 1_555 1_555
C19 C18 1_555 1_555
H16 C19 1_555 1_555
C20 C19 1_555 1_555
H17 C20 1_555 1_555
C21 C16 1_555 1_555
H18 C21 1_555 1_555
C22 C14 1_555 1_555
H19 C22 1_555 1_555
C23 C22 1_555 1_555
C24 C23 1_555 1_555
C25 C24 1_555 1_555
C26 C23 1_555 1_555
C27 C26 1_555 1_555
H20 C27 1_555 1_555
C28 C27 1_555 1_555
C29 C30 1_555 1_555
C30 H21 1_555 1_555
C31 C30 1_555 1_555
H22 C31 1_555 1_555
C32 C31 1_555 1_555
H23 C32 1_555 1_555
C33 C32 1_555 1_555
H24 C33 1_555 1_555
C34 C29 1_555 1_555
C35 H25 1_555 1_555
H26 C35 1_555 1_555
C36 C35 1_555 1_555
C37 C36 1_555 1_555
H27 C37 1_555 1_555
C38 C37 1_555 1_555
H28 C38 1_555 1_555
C39 C38 1_555 1_555
H29 C39 1_555 1_555
C40 C39 1_555 1_555
H30 C40 1_555 1_555
C41 C36 1_555 1_555
H31 C41 1_555 1_555
C42 H32 1_555 1_555
H33 C42 1_555 1_555
C43 C42 1_555 1_555
C44 C43 1_555 1_555
H34 C44 1_555 1_555
C45 C44 1_555 1_555
H35 C45 1_555 1_555
C46 C45 1_555 1_555
H36 C46 1_555 1_555
C47 C46 1_555 1_555
H37 C47 1_555 1_555
C48 C43 1_555 1_555
H38 C48 1_555 1_555
O2 C25 1_555 1_555
N2 C13 1_555 1_555
N3 C28 1_555 1_555
N4 C28 1_555 1_555
C5 C6 1_555 1_555
C12 C13 1_555 1_555
C14 N2 1_555 1_555
C15 N2 1_555 1_555
C20 C21 1_555 1_555
C25 C26 1_555 1_555
C29 N4 1_555 1_555
C33 C34 1_555 1_555
C34 N3 1_555 1_555
C35 N3 1_555 1_555
C40 C41 1_555 1_555
C42 N4 1_555 1_555
C47 C48 1_555 1_555

#END
