
#######################################################################
#
#                 Cambridge Crystallographic Data Centre
#                                CCDC 
#
#######################################################################
#
# If this CIF has been generated from an entry in the Cambridge 
# Structural Database, then it will include bibliographic, chemical, 
# crystal, experimental, refinement or atomic coordinate data resulting 
# from the CCDC's data processing and validation procedures.
#
#######################################################################

data_OFASEV
_chemical_formula_moiety         'C32 H20 O4 P2 S2 Se2'
_chemical_name_systematic        
"6,6'-(2,2'-Bithiene-5,5'-diyl)bis(dibenzo[d,f][1,3,2]dioxaphosphepine) 6,6'-diselenide"
_symmetry_cell_setting           monoclinic
_symmetry_space_group_name_H-M   'P 21/c'
_symmetry_Int_Tables_number      14
_space_group_name_Hall           '-P 2ybc'
loop_
_symmetry_equiv_pos_site_id
_symmetry_equiv_pos_as_xyz
1 x,y,z
2 -x,1/2+y,1/2-z
3 -x,-y,-z
4 x,1/2-y,1/2+z
_cell_length_a                   7.1023(14)
_cell_length_b                   12.956(3)
_cell_length_c                   15.763(3)
_cell_angle_alpha                90
_cell_angle_beta                 95.46(3)
_cell_angle_gamma                90
_cell_volume                     1443.89
_cell_formula_units_Z            2
loop_
_atom_site_label
_atom_site_type_symbol
_atom_site_fract_x
_atom_site_fract_y
_atom_site_fract_z
C1 C 0.8224(9) 0.2734(6) 0.1609(5)
C2 C 0.8302(11) 0.1862(6) 0.1123(5)
H1 H 0.9258 0.1381 0.1252
C3 C 0.6982(13) 0.1695(7) 0.0449(5)
H2 H 0.7005 0.1092 0.0129
C4 C 0.5610(12) 0.2435(8) 0.0249(5)
H3 H 0.4740 0.2343 -0.0224
C5 C 0.5514(10) 0.3305(7) 0.0741(5)
H4 H 0.4558 0.3783 0.0602
C6 C 0.6802(9) 0.3485(5) 0.1434(4)
C7 C 0.6691(9) 0.4429(5) 0.1953(5)
C8 C 0.6181(10) 0.5375(6) 0.1567(5)
H5 H 0.5954 0.5409 0.0976
C9 C 0.6009(11) 0.6252(6) 0.2043(6)
H6 H 0.5656 0.6872 0.1775
C10 C 0.6356(10) 0.6213(6) 0.2904(6)
H7 H 0.6236 0.6807 0.3226
C11 C 0.6887(11) 0.5295(6) 0.3306(5)
H8 H 0.7134 0.5266 0.3895
C12 C 0.7041(10) 0.4431(5) 0.2819(4)
C13 C 0.9479(9) 0.1822(5) 0.3650(4)
C14 C 0.8761(10) 0.0942(5) 0.3296(5)
H9 H 0.8189 0.0905 0.2741
C15 C 0.8961(9) 0.0079(5) 0.3848(5)
H10 H 0.8572 -0.0586 0.3691
C16 C 0.9790(9) 0.0334(5) 0.4637(4)
O1 O 0.9755(6) 0.2921(4) 0.2221(3)
O2 O 0.7471(6) 0.3480(4) 0.3240(3)
P1 P 0.9603(3) 0.30703(13) 0.32086(12)
S1 S 1.0400(3) 0.16137(12) 0.46884(11)
Se1 Se 1.17407(12) 0.39904(6) 0.37478(7)
C1B C 1.1776(9) -0.2734(6) 0.8391(5)
C2B C 1.1698(11) -0.1862(6) 0.8877(5)
H1B H 1.0742 -0.1381 0.8748
C3B C 1.3018(13) -0.1695(7) 0.9551(5)
H2B H 1.2995 -0.1092 0.9871
C4B C 1.4390(12) -0.2435(8) 0.9751(5)
H3B H 1.5260 -0.2343 1.0224
C5B C 1.4486(10) -0.3305(7) 0.9259(5)
H4B H 1.5442 -0.3783 0.9398
C6B C 1.3198(9) -0.3485(5) 0.8566(4)
C7B C 1.3309(9) -0.4429(5) 0.8047(5)
C8B C 1.3819(10) -0.5375(6) 0.8433(5)
H5B H 1.4046 -0.5409 0.9024
C9B C 1.3991(11) -0.6252(6) 0.7957(6)
H6B H 1.4344 -0.6872 0.8225
C10B C 1.3644(10) -0.6213(6) 0.7096(6)
H7B H 1.3764 -0.6807 0.6774
C11B C 1.3113(11) -0.5295(6) 0.6694(5)
H8B H 1.2866 -0.5266 0.6105
C12B C 1.2959(10) -0.4431(5) 0.7181(4)
C13B C 1.0521(9) -0.1822(5) 0.6350(4)
C14B C 1.1239(10) -0.0942(5) 0.6704(5)
H9B H 1.1811 -0.0905 0.7259
C15B C 1.1039(9) -0.0079(5) 0.6152(5)
H10B H 1.1428 0.0586 0.6309
C16B C 1.0210(9) -0.0334(5) 0.5363(4)
O1B O 1.0245(6) -0.2921(4) 0.7779(3)
O2B O 1.2529(6) -0.3480(4) 0.6760(3)
P1B P 1.0397(3) -0.30703(13) 0.67914(12)
S1B S 0.9600(3) -0.16137(12) 0.53116(11)
Se1B Se 0.82593(12) -0.39904(6) 0.62522(7)
loop_
_geom_bond_atom_site_label_1
_geom_bond_atom_site_label_2
_geom_bond_site_symmetry_1
_geom_bond_site_symmetry_2
C1 C2 1_555 1_555
C2 H1 1_555 1_555
C3 C2 1_555 1_555
H2 C3 1_555 1_555
C4 C3 1_555 1_555
H3 C4 1_555 1_555
C5 C4 1_555 1_555
H4 C5 1_555 1_555
C6 C1 1_555 1_555
C7 C6 1_555 1_555
C8 C7 1_555 1_555
H5 C8 1_555 1_555
C9 C8 1_555 1_555
H6 C9 1_555 1_555
C10 C9 1_555 1_555
H7 C10 1_555 1_555
C11 C10 1_555 1_555
H8 C11 1_555 1_555
C12 C7 1_555 1_555
C13 C14 1_555 1_555
C14 H9 1_555 1_555
C15 C14 1_555 1_555
H10 C15 1_555 1_555
C16 C15 1_555 1_555
O1 C1 1_555 1_555
O2 C12 1_555 1_555
P1 C13 1_555 1_555
S1 C13 1_555 1_555
Se1 P1 1_555 1_555
C1B C2B 1_555 1_555
C2B H1B 1_555 1_555
C3B C2B 1_555 1_555
H2B C3B 1_555 1_555
C4B C3B 1_555 1_555
H3B C4B 1_555 1_555
C5B C4B 1_555 1_555
H4B C5B 1_555 1_555
C6B C1B 1_555 1_555
C7B C6B 1_555 1_555
C8B C7B 1_555 1_555
H5B C8B 1_555 1_555
C9B C8B 1_555 1_555
H6B C9B 1_555 1_555
C10B C9B 1_555 1_555
H7B C10B 1_555 1_555
C11B C10B 1_555 1_555
H8B C11B 1_555 1_555
C12B C7B 1_555 1_555
C13B C14B 1_555 1_555
C14B H9B 1_555 1_555
C15B C14B 1_555 1_555
H10B C15B 1_555 1_555
C16B C16 1_555 1_555
O1B C1B 1_555 1_555
O2B C12B 1_555 1_555
P1B C13B 1_555 1_555
S1B C13B 1_555 1_555
Se1B P1B 1_555 1_555
C5 C6 1_555 1_555
C11 C12 1_555 1_555
C16 S1 1_555 1_555
O1 P1 1_555 1_555
O2 P1 1_555 1_555
C5B C6B 1_555 1_555
C11B C12B 1_555 1_555
C15B C16B 1_555 1_555
C16B S1B 1_555 1_555
O1B P1B 1_555 1_555
O2B P1B 1_555 1_555

#END
