
#######################################################################
#
#                 Cambridge Crystallographic Data Centre
#                                CCDC 
#
#######################################################################
#
# If this CIF has been generated from an entry in the Cambridge 
# Structural Database, then it will include bibliographic, chemical, 
# crystal, experimental, refinement or atomic coordinate data resulting 
# from the CCDC's data processing and validation procedures.
#
#######################################################################

data_OFAWIB
_chemical_formula_moiety         'C24 H40 I4 Te4,C1 H1 Cl3'
_chemical_name_systematic        
'tetrakis(\m~3~-Iodo)-bis(\m~2~-o-xylylene)-octamethyl-tetra-tellurium(iv) chloroform solvate'
_symmetry_cell_setting           monoclinic
_symmetry_space_group_name_H-M   'C 2/c'
_symmetry_Int_Tables_number      15
_space_group_name_Hall           '-C 2yn'
loop_
_symmetry_equiv_pos_site_id
_symmetry_equiv_pos_as_xyz
1 x,y,z
2 1/2+x,1/2+y,z
3 x,-y,1/2+z
4 1/2+x,1/2-y,1/2+z
5 -x,-y,-z
6 1/2-x,1/2-y,-z
7 -x,y,1/2-z
8 1/2-x,1/2+y,1/2-z
_cell_length_a                   18.05(2)
_cell_length_b                   13.34(1)
_cell_length_c                   33.907(9)
_cell_angle_alpha                90
_cell_angle_beta                 90.17(4)
_cell_angle_gamma                90
_cell_volume                     8164.33
_exptl_crystal_colour            colorless
_exptl_crystal_description       prism
_cell_formula_units_Z            8
loop_
_atom_site_label
_atom_site_type_symbol
_atom_site_fract_x
_atom_site_fract_y
_atom_site_fract_z
I1 I -0.18030(4) 0.97129(6) 0.22433(2)
I2 I -0.03980(4) 1.25284(6) 0.14331(2)
I3 I -0.32364(4) 1.22447(6) 0.08432(2)
I4 I -0.18003(4) 0.86082(6) 0.07553(2)
Te1 Te -0.31413(4) 0.97450(5) 0.13654(2)
Te2 Te -0.22484(4) 1.22253(5) 0.17846(2)
Te3 Te -0.05043(4) 0.97077(6) 0.14598(2)
Te4 Te -0.14354(4) 1.12948(5) 0.05907(2)
C1 C -0.3834(6) 0.9430(9) 0.0875(3)
C2 C -0.3235(6) 0.8285(9) 0.1607(3)
C3 C -0.4079(6) 1.0353(9) 0.1692(3)
C4 C -0.3918(6) 1.0553(8) 0.2120(3)
C5 C -0.4120(6) 0.9808(9) 0.2388(3)
C6 C -0.4023(7) 0.9950(9) 0.2794(3)
C7 C -0.3733(7) 1.0838(9) 0.2925(3)
C8 C -0.3522(7) 1.1589(9) 0.2667(3)
C9 C -0.3623(6) 1.1444(8) 0.2260(3)
C10 C -0.3398(6) 1.2272(8) 0.2001(3)
C11 C -0.1767(7) 1.2515(9) 0.2352(3)
C12 C -0.2311(7) 1.3765(9) 0.1627(3)
C13 C -0.0487(7) 0.8165(9) 0.1617(3)
C14 C 0.0350(8) 1.010(1) 0.1861(3)
C15 C 0.0244(6) 0.9434(9) 0.0965(3)
C16 C 0.0614(6) 1.0330(8) 0.0794(3)
C17 C 0.1331(6) 1.0581(9) 0.0919(3)
C18 C 0.1719(6) 1.1348(9) 0.0760(3)
C19 C 0.1418(6) 1.1900(9) 0.0456(3)
C20 C 0.0699(6) 1.1692(9) 0.0330(3)
C21 C 0.0287(6) 1.0900(8) 0.0493(3)
C22 C -0.0451(6) 1.0661(8) 0.0318(3)
C23 C -0.1218(6) 1.2757(9) 0.0391(3)
C24 C -0.2077(6) 1.0860(9) 0.0088(3)
H1 H -0.3562 0.9129 0.0666
H2 H -0.4061 1.0032 0.0777
H3 H -0.4227 0.8977 0.0949
H4 H -0.3060 0.7793 0.1424
H5 H -0.3744 0.8134 0.1665
H6 H -0.2956 0.8229 0.1845
H7 H -0.4240 1.0970 0.1570
H8 H -0.4492 0.9890 0.1674
H9 H -0.4335 0.9177 0.2288
H10 H -0.4140 0.9424 0.2981
H11 H -0.3673 1.0943 0.3210
H12 H -0.3306 1.2213 0.2768
H13 H -0.3462 1.2902 0.2141
H14 H -0.3722 1.2299 0.1775
H15 H -0.1680 1.1906 0.2493
H16 H -0.2095 1.2924 0.2510
H17 H -0.1308 1.2866 0.2328
H18 H -0.2413 1.4169 0.1852
H19 H -0.1852 1.3985 0.1514
H20 H -0.2696 1.3871 0.1436
H21 H -0.0665 0.7753 0.1404
H22 H -0.0788 0.8037 0.1842
H23 H 0.0010 0.7948 0.1678
H24 H 0.0228 0.9943 0.2124
H25 H 0.0464 1.0807 0.1844
H26 H 0.0808 0.9748 0.1796
H27 H 0.0627 0.8975 0.1053
H28 H -0.0027 0.9103 0.0760
H29 H 0.1562 1.0179 0.1127
H30 H 0.2209 1.1526 0.0862
H31 H 0.1703 1.2421 0.0328
H32 H 0.0478 1.2105 0.0125
H33 H -0.0446 1.0872 0.0046
H34 H -0.0507 0.9940 0.0318
H35 H -0.0755 1.2992 0.0490
H36 H -0.1211 1.2782 0.0111
H37 H -0.1599 1.3210 0.0481
H38 H -0.1891 1.1168 -0.0146
H39 H -0.2063 1.0148 0.0054
H40 H -0.2584 1.1057 0.0120
Cl1 Cl 0.4917(2) 0.1606(3) 0.0618(1)
Cl2 Cl 0.3936(3) 0.0184(3) 0.0957(1)
Cl3 Cl 0.3873(4) 0.0543(4) 0.0135(1)
C25 C 0.4040(7) 0.1069(9) 0.0584(4)
H41 H 0.3681 0.1594 0.0624
loop_
_geom_bond_atom_site_label_1
_geom_bond_atom_site_label_2
_geom_bond_site_symmetry_1
_geom_bond_site_symmetry_2
I1 Te1 1_555 1_555
I2 Te2 1_555 1_555
I3 Te1 1_555 1_555
I4 Te1 1_555 1_555
Te1 C1 1_555 1_555
Te2 I1 1_555 1_555
Te3 I1 1_555 1_555
Te4 I2 1_555 1_555
Cl1 C25 1_555 1_555
Cl2 C25 1_555 1_555
Cl3 C25 1_555 1_555
C1 H1 1_555 1_555
C2 Te1 1_555 1_555
C3 Te1 1_555 1_555
C4 C3 1_555 1_555
C5 C4 1_555 1_555
C6 C5 1_555 1_555
C7 C6 1_555 1_555
C8 C7 1_555 1_555
C9 C4 1_555 1_555
C10 Te2 1_555 1_555
C11 Te2 1_555 1_555
C12 Te2 1_555 1_555
C13 Te3 1_555 1_555
C14 Te3 1_555 1_555
C15 Te3 1_555 1_555
C16 C15 1_555 1_555
C17 C16 1_555 1_555
C18 C17 1_555 1_555
C19 C18 1_555 1_555
C20 C19 1_555 1_555
C21 C16 1_555 1_555
C22 Te4 1_555 1_555
C23 Te4 1_555 1_555
C24 Te4 1_555 1_555
C25 H41 1_555 1_555
H2 C1 1_555 1_555
H3 C1 1_555 1_555
H4 C2 1_555 1_555
H5 C2 1_555 1_555
H6 C2 1_555 1_555
H7 C3 1_555 1_555
H8 C3 1_555 1_555
H9 C5 1_555 1_555
H10 C6 1_555 1_555
H11 C7 1_555 1_555
H12 C8 1_555 1_555
H13 C10 1_555 1_555
H14 C10 1_555 1_555
H15 C11 1_555 1_555
H16 C11 1_555 1_555
H17 C11 1_555 1_555
H18 C12 1_555 1_555
H19 C12 1_555 1_555
H20 C12 1_555 1_555
H21 C13 1_555 1_555
H22 C13 1_555 1_555
H23 C13 1_555 1_555
H24 C14 1_555 1_555
H25 C14 1_555 1_555
H26 C14 1_555 1_555
H27 C15 1_555 1_555
H28 C15 1_555 1_555
H29 C17 1_555 1_555
H30 C18 1_555 1_555
H31 C19 1_555 1_555
H32 C20 1_555 1_555
H33 C22 1_555 1_555
H34 C22 1_555 1_555
H35 C23 1_555 1_555
H36 C23 1_555 1_555
H37 C23 1_555 1_555
H38 C24 1_555 1_555
H39 C24 1_555 1_555
H40 C24 1_555 1_555
I2 Te3 1_555 1_555
I3 Te2 1_555 1_555
I3 Te4 1_555 1_555
I4 Te3 1_555 1_555
I4 Te4 1_555 1_555
C8 C9 1_555 1_555
C9 C10 1_555 1_555
C20 C21 1_555 1_555
C21 C22 1_555 1_555

#END
