
#######################################################################
#
#                 Cambridge Crystallographic Data Centre
#                                CCDC 
#
#######################################################################
#
# If this CIF has been generated from an entry in the Cambridge 
# Structural Database, then it will include bibliographic, chemical, 
# crystal, experimental, refinement or atomic coordinate data resulting 
# from the CCDC's data processing and validation procedures.
#
#######################################################################

data_OFAXEA
_chemical_formula_moiety         'C21 H21 Cl1 F2 O6 S2'
_chemical_name_systematic        
10b-((4-Chlorophenyl)sulfonyl)-7,10-difluoro-4-(2-(methylsulfonyl)ethyl)-1,4a,5,10b-tetrahydro-2H,4H-pyrano[3,4-c]chromene
_symmetry_cell_setting           orthorhombic
_symmetry_space_group_name_H-M   'P 21 21 21'
_symmetry_Int_Tables_number      19
_space_group_name_Hall           'P 2ac 2ab'
loop_
_symmetry_equiv_pos_site_id
_symmetry_equiv_pos_as_xyz
1 x,y,z
2 1/2-x,-y,1/2+z
3 -x,1/2+y,1/2-z
4 1/2+x,1/2-y,-z
_cell_length_a                   7.2852(4)
_cell_length_b                   14.0063(8)
_cell_length_c                   21.0186(11)
_cell_angle_alpha                90
_cell_angle_beta                 90
_cell_angle_gamma                90
_cell_volume                     2144.71
_cell_formula_units_Z            4
loop_
_atom_site_label
_atom_site_type_symbol
_atom_site_fract_x
_atom_site_fract_y
_atom_site_fract_z
C1 C 1.1647(2) 0.71513(10) 0.70887(6)
C2 C 1.2998(2) 0.63955(10) 0.73084(6)
O1 O 1.33456(13) 0.65031(6) 0.79728(5)
C3 C 1.1736(2) 0.63448(10) 0.83441(6)
C4 C 1.0198(2) 0.70627(10) 0.81675(6)
C5 C 0.8449(2) 0.68553(10) 0.85401(6)
O2 O 0.77651(13) 0.59171(6) 0.83880(5)
C6 C 0.7702(2) 0.56848(10) 0.77590(6)
C7 C 0.6647(2) 0.48800(10) 0.76158(6)
F1 F 0.57892(12) 0.44454(6) 0.81104(4)
C8 C 0.6486(2) 0.45228(10) 0.70115(6)
C9 C 0.7422(2) 0.49840(11) 0.65197(6)
C10 C 0.8461(2) 0.57719(10) 0.66639(6)
F2 F 0.93573(12) 0.61927(6) 0.61700(4)
C11 C 0.86664(18) 0.61610(10) 0.72750(6)
C12 C 0.9792(2) 0.70421(10) 0.74379(6)
C13 C 1.2327(2) 0.64760(11) 0.90343(6)
C14 C 1.3914(2) 0.58108(11) 0.92033(6)
S1 S 1.51410(5) 0.61653(3) 0.989202(17)
O3 O 1.56131(17) 0.71634(9) 0.98325(6)
O4 O 1.66210(18) 0.54965(10) 0.99839(6)
C15 C 1.3585(2) 0.60471(11) 1.05306(6)
S2 S 0.83615(5) 0.81174(2) 0.727324(16)
O5 O 0.92044(16) 0.89140(6) 0.75992(5)
O6 O 0.64808(14) 0.78786(8) 0.74115(5)
C16 C 0.8517(2) 0.83413(10) 0.64439(6)
C17 C 1.0009(2) 0.88525(11) 0.62051(6)
C18 C 1.0148(2) 0.90123(11) 0.55537(8)
C19 C 0.8777(2) 0.86558(10) 0.51615(6)
Cl1 Cl 0.89697(6) 0.88188(3) 0.434359(17)
C20 C 0.7253(2) 0.81704(11) 0.53958(6)
C21 C 0.7128(2) 0.80143(10) 0.60495(6)
H1 H 1.1451 0.7091 0.6624
H2 H 1.2159 0.7793 0.7174
H3 H 1.2489 0.5752 0.7224
H4 H 1.4161 0.6459 0.7068
H5 H 1.1288 0.5677 0.8278
H6 H 1.0626 0.7719 0.8282
H7 H 0.8707 0.6896 0.9002
H8 H 0.7507 0.7339 0.8435
H9 H 0.5756 0.3975 0.6929
H10 H 0.7342 0.4757 0.6095
H11 H 1.1274 0.6343 0.9318
H12 H 1.2710 0.7146 0.9103
H13 H 1.4774 0.5784 0.8839
H14 H 1.3424 0.5159 0.9271
H15 H 1.4207 0.6206 1.0930
H16 H 1.3136 0.5388 1.0549
H17 H 1.2547 0.6482 1.0467
H18 H 1.0924 0.9090 0.6486
H19 H 1.1156 0.9357 0.5382
H20 H 0.6318 0.7951 0.5117
H21 H 0.6101 0.7687 0.6223
loop_
_geom_bond_atom_site_label_1
_geom_bond_atom_site_label_2
_geom_bond_site_symmetry_1
_geom_bond_site_symmetry_2
C1 C2 1_555 1_555
C2 O1 1_555 1_555
O1 C3 1_555 1_555
C3 C4 1_555 1_555
C4 C5 1_555 1_555
C5 O2 1_555 1_555
O2 C6 1_555 1_555
C6 C7 1_555 1_555
C7 F1 1_555 1_555
C8 C7 1_555 1_555
C9 C8 1_555 1_555
C10 C9 1_555 1_555
F2 C10 1_555 1_555
C11 C6 1_555 1_555
C12 C1 1_555 1_555
C13 C3 1_555 1_555
C14 C13 1_555 1_555
S1 C14 1_555 1_555
O3 S1 1_555 1_555
O4 S1 1_555 1_555
C15 S1 1_555 1_555
S2 C12 1_555 1_555
O5 S2 1_555 1_555
O6 S2 1_555 1_555
C16 S2 1_555 1_555
C17 C16 1_555 1_555
C18 C17 1_555 1_555
C19 C18 1_555 1_555
Cl1 C19 1_555 1_555
C20 C19 1_555 1_555
C21 C16 1_555 1_555
H1 C1 1_555 1_555
H2 C1 1_555 1_555
H3 C2 1_555 1_555
H4 C2 1_555 1_555
H5 C3 1_555 1_555
H6 C4 1_555 1_555
H7 C5 1_555 1_555
H8 C5 1_555 1_555
H9 C8 1_555 1_555
H10 C9 1_555 1_555
H11 C13 1_555 1_555
H12 C13 1_555 1_555
H13 C14 1_555 1_555
H14 C14 1_555 1_555
H15 C15 1_555 1_555
H16 C15 1_555 1_555
H17 C15 1_555 1_555
H18 C17 1_555 1_555
H19 C18 1_555 1_555
H20 C20 1_555 1_555
H21 C21 1_555 1_555
C4 C12 1_555 1_555
C10 C11 1_555 1_555
C11 C12 1_555 1_555
C20 C21 1_555 1_555

#END
