
#######################################################################
#
#                 Cambridge Crystallographic Data Centre
#                                CCDC 
#
#######################################################################
#
# If this CIF has been generated from an entry in the Cambridge 
# Structural Database, then it will include bibliographic, chemical, 
# crystal, experimental, refinement or atomic coordinate data resulting 
# from the CCDC's data processing and validation procedures.
#
#######################################################################

data_OFAZUQ
_chemical_name_common            Entacapone
_chemical_formula_moiety         'C14 H15 N3 O5'
_chemical_name_systematic        
(E)-2-Cyano-N,N-diethyl-3-(3,4-dihydroxy-5-nitrophenyl)propenamide
_chemical_properties_biological  
'potent inhibitor of catechol-O-methyltransferase (COMT)'
_symmetry_cell_setting           triclinic
_symmetry_space_group_name_H-M   'P -1'
_symmetry_Int_Tables_number      2
_space_group_name_Hall           '-P 1'
loop_
_symmetry_equiv_pos_site_id
_symmetry_equiv_pos_as_xyz
1 x,y,z
2 -x,-y,-z
_cell_length_a                   7.576(3)
_cell_length_b                   9.688(2)
_cell_length_c                   9.905(3)
_cell_angle_alpha                100.17(2)
_cell_angle_beta                 99.61(3)
_cell_angle_gamma                95.81(2)
_cell_volume                     699.098
_exptl_crystal_colour            yellow
_exptl_crystal_description       block
_cell_formula_units_Z            2
_exptl_crystal_recrystallization_method 'ethyl acetate'
loop_
_atom_site_label
_atom_site_type_symbol
_atom_site_fract_x
_atom_site_fract_y
_atom_site_fract_z
O1 O 1.40622(17) 0.73991(15) 1.06993(15)
O2 O 0.38453(17) 0.53216(15) 0.85707(14)
H1 H 0.3916 0.594 0.9295
O3 O 0.39469(18) 0.36161(16) 0.62212(14)
H2 H 0.3203 0.36 0.6761
O4 O 0.5807(2) 0.30384(19) 0.42607(17)
O5 O 0.8708(2) 0.3394(2) 0.48116(19)
N1 N 1.3318(2) 0.92673(18) 1.20663(17)
N2 N 0.8852(2) 0.7451(2) 1.23652(19)
N3 N 0.7207(2) 0.35550(18) 0.50798(17)
C1 C 0.8669(2) 0.6145(2) 0.8419(2)
C2 C 0.7026(2) 0.6181(2) 0.8916(2)
H3 H 0.6996 0.6781 0.9779
C3 C 0.5480(2) 0.5362(2) 0.8165(2)
C4 C 0.5471(2) 0.4442(2) 0.6893(2)
C5 C 0.7099(3) 0.4449(2) 0.6400(2)
C6 C 0.8675(3) 0.5289(2) 0.7142(2)
H4 H 0.9755 0.5278 0.6774
C7 C 1.0405(2) 0.6898(2) 0.9184(2)
H5 H 1.1323 0.6958 0.8642
C8 C 1.0912(2) 0.7523(2) 1.0535(2)
C9 C 1.2886(2) 0.8085(2) 1.1106(2)
C10 C 1.2106(3) 1.0341(2) 1.2340(2)
H6 H 1.095 1.0051 1.1666
H7 H 1.266 1.1251 1.2174
C11 C 1.1713(3) 1.0568(3) 1.3806(3)
H8 H 1.0903 1.1292 1.3912
H9 H 1.2845 1.0882 1.4482
H10 H 1.1134 0.9679 1.3974
C12 C 1.5251(2) 0.9682(2) 1.2715(2)
H11 H 1.5791 0.8824 1.2879
H12 H 1.5342 1.0312 1.3634
C13 C 1.6330(3) 1.0434(3) 1.1833(2)
H13 H 1.7592 1.068 1.2316
H14 H 1.5824 1.1299 1.1685
H15 H 1.6272 0.9809 1.0929
C14 C 0.9741(2) 0.7498(2) 1.1537(2)
loop_
_geom_bond_atom_site_label_1
_geom_bond_atom_site_label_2
_geom_bond_site_symmetry_1
_geom_bond_site_symmetry_2
O1 C9 1_555 1_555
O2 H1 1_555 1_555
O3 H2 1_555 1_555
O4 N3 1_555 1_555
O5 N3 1_555 1_555
N1 C9 1_555 1_555
N2 C14 1_555 1_555
N3 C5 1_555 1_555
C1 C2 1_555 1_555
C2 H3 1_555 1_555
C3 O2 1_555 1_555
C4 O3 1_555 1_555
C5 C4 1_555 1_555
C6 C1 1_555 1_555
H4 C6 1_555 1_555
C7 C1 1_555 1_555
H5 C7 1_555 1_555
C8 C7 1_555 1_555
C9 C8 1_555 1_555
C10 N1 1_555 1_555
H6 C10 1_555 1_555
H7 C10 1_555 1_555
C11 C10 1_555 1_555
H8 C11 1_555 1_555
H9 C11 1_555 1_555
H10 C11 1_555 1_555
C12 N1 1_555 1_555
H11 C12 1_555 1_555
H12 C12 1_555 1_555
C13 C12 1_555 1_555
H13 C13 1_555 1_555
H14 C13 1_555 1_555
H15 C13 1_555 1_555
C14 C8 1_555 1_555
C2 C3 1_555 1_555
C3 C4 1_555 1_555
C5 C6 1_555 1_555

#END
