
#######################################################################
#
#                 Cambridge Crystallographic Data Centre
#                                CCDC 
#
#######################################################################
#
# If this CIF has been generated from an entry in the Cambridge 
# Structural Database, then it will include bibliographic, chemical, 
# crystal, experimental, refinement or atomic coordinate data resulting 
# from the CCDC's data processing and validation procedures.
#
#######################################################################

data_OFEBIL
_chemical_formula_moiety         'C20 H24 N6 O2'
_chemical_name_systematic        
N',N''-[(2-Phenylpyrimidine-4,6-diyl)dimethylene]bis(N-methylpropanehydrazide)
_symmetry_cell_setting           triclinic
_symmetry_space_group_name_H-M   'P -1'
_symmetry_Int_Tables_number      2
_space_group_name_Hall           '-P 1'
loop_
_symmetry_equiv_pos_site_id
_symmetry_equiv_pos_as_xyz
1 x,y,z
2 -x,-y,-z
_cell_length_a                   7.7940(2)
_cell_length_b                   10.7990(3)
_cell_length_c                   23.9020(6)
_cell_angle_alpha                88.312(2)
_cell_angle_beta                 87.627(2)
_cell_angle_gamma                76.9290(10)
_cell_volume                     1957.55
_exptl_crystal_colour            yellow
_exptl_crystal_description       prism
_chemical_melting_point          231-232deg.C
_cell_formula_units_Z            4
_exptl_crystal_recrystallization_method chloroform/acetonitrile
loop_
_atom_site_label
_atom_site_type_symbol
_atom_site_fract_x
_atom_site_fract_y
_atom_site_fract_z
O1 O -0.3138(2) 0.59243(16) -0.58304(7)
O2 O 0.5039(2) -0.01256(16) -0.77479(6)
N1 N -0.1686(2) 0.43106(17) -0.52878(7)
N2 N -0.0464(2) 0.31892(16) -0.52927(7)
N3 N 0.1411(2) 0.05847(16) -0.44069(6)
N4 N 0.3455(2) -0.10264(16) -0.49146(6)
N5 N 0.3801(2) -0.01925(16) -0.63463(7)
N6 N 0.4738(2) -0.05798(16) -0.68250(7)
C1 C -0.1305(4) 0.5150(2) -0.68359(10)
H1 H -0.2548 0.5232 -0.6917
H2 H -0.0562 0.4730 -0.7147
H3 H -0.1078 0.5996 -0.6788
C2 C -0.0879(3) 0.4361(2) -0.63009(9)
H4 H -0.1068 0.3497 -0.6356
H5 H 0.0380 0.4278 -0.6222
C3 C -0.2005(3) 0.4948(2) -0.58018(9)
C4 C -0.2710(3) 0.4782(2) -0.47849(9)
H6 H -0.3458 0.4198 -0.4666
H7 H -0.3451 0.5626 -0.4863
H8 H -0.1910 0.4840 -0.4486
C5 C -0.0162(3) 0.2508(2) -0.48451(8)
H9 H -0.0747 0.2785 -0.4499
C6 C 0.1121(3) 0.1286(2) -0.48842(8)
C7 C 0.1986(3) 0.0872(2) -0.53845(8)
H10 H 0.1785 0.1377 -0.5718
C8 C 0.3155(3) -0.0304(2) -0.53846(8)
C9 C 0.4174(3) -0.0823(2) -0.58876(8)
H11 H 0.5064 -0.1586 -0.5874
C10 C 0.6221(3) -0.1671(2) -0.68350(9)
H12 H 0.7113 -0.1533 -0.6581
H13 H 0.6734 -0.1781 -0.7217
H14 H 0.5817 -0.2435 -0.6714
C11 C 0.4217(3) 0.0135(2) -0.73059(8)
C12 C 0.2611(3) 0.1208(2) -0.72501(9)
H15 H 0.2849 0.1838 -0.6989
H16 H 0.1615 0.0871 -0.7088
C13 C 0.2094(4) 0.1862(3) -0.78069(10)
H17 H 0.3031 0.2268 -0.7952
H18 H 0.0997 0.2509 -0.7755
H19 H 0.1919 0.1233 -0.8073
C14 C 0.2561(3) -0.05391(19) -0.44473(8)
C15 C 0.2930(3) -0.13281(19) -0.39278(8)
C16 C 0.4315(3) -0.2391(2) -0.39186(8)
H20 H 0.5005 -0.2633 -0.4251
C17 C 0.4701(3) -0.3102(2) -0.34306(9)
H21 H 0.5657 -0.3825 -0.3430
C18 C 0.3703(3) -0.2766(2) -0.29436(9)
H22 H 0.3967 -0.3255 -0.2609
C19 C 0.2325(3) -0.1717(2) -0.29500(8)
H23 H 0.1636 -0.1479 -0.2617
C20 C 0.1932(3) -0.1004(2) -0.34375(8)
H24 H 0.0969 -0.0285 -0.3437
O3 O 0.0778(2) -0.45118(16) -0.16731(6)
O4 O 0.8450(2) -1.08673(15) 0.02162(6)
N7 N 0.1034(2) -0.41768(16) -0.07583(6)
N8 N 0.1905(2) -0.46364(16) -0.02882(6)
N9 N 0.2151(2) -0.38397(15) 0.11264(6)
N10 N 0.4118(2) -0.54774(15) 0.16329(6)
N11 N 0.6140(2) -0.80059(16) 0.07474(7)
N12 N 0.7229(2) -0.91844(16) 0.07509(7)
C21 C 0.1430(3) -0.4916(2) -0.12330(8)
C22 C -0.0229(3) -0.2958(2) -0.07683(8)
H25 H -0.0814 -0.2839 -0.1127
H26 H 0.0388 -0.2273 -0.0722
H27 H -0.1111 -0.2940 -0.0463
C23 C 0.2648(3) -0.6202(2) -0.11709(8)
H28 H 0.2096 -0.6734 -0.0907
H29 H 0.3759 -0.6106 -0.1010
C24 C 0.3061(3) -0.6868(2) -0.17268(10)
H30 H 0.1966 -0.6983 -0.1883
H31 H 0.3858 -0.7700 -0.1669
H32 H 0.3624 -0.6351 -0.1987
C25 C 0.1619(3) -0.39758(18) 0.01581(8)
H33 H 0.0815 -0.3171 0.0165
C26 C 0.2581(3) -0.45113(19) 0.06577(8)
C27 C 0.3811(3) -0.56582(19) 0.06505(8)
H34 H 0.4146 -0.6107 0.0313
C28 C 0.4533(3) -0.61247(19) 0.11556(8)
C29 C 0.5763(3) -0.7370(2) 0.11966(8)
H35 H 0.6259 -0.7691 0.1543
C30 C 0.7958(3) -0.9814(2) 0.12651(9)
H36 H 0.8665 -0.9296 0.1438
H37 H 0.8703 -1.0650 0.1177
H38 H 0.6994 -0.9920 0.1526
C31 C 0.7526(3) -0.9797(2) 0.02395(9)
C32 C 0.6651(3) -0.9070(2) -0.02605(9)
H39 H 0.7081 -0.8279 -0.0318
H40 H 0.5363 -0.8827 -0.0183
C33 C 0.7015(3) -0.9836(2) -0.07925(9)
H41 H 0.8287 -1.0065 -0.0876
H42 H 0.6423 -0.9327 -0.1104
H43 H 0.6568 -1.0612 -0.0740
C34 C 0.2953(3) -0.43521(19) 0.15945(8)
C35 C 0.2470(3) -0.36021(19) 0.21127(8)
C36 C 0.1334(3) -0.2419(2) 0.20970(9)
H44 H 0.0875 -0.2071 0.1750
C37 C 0.0856(3) -0.1733(2) 0.25817(9)
H45 H 0.0063 -0.0924 0.2565
C38 C 0.1519(3) -0.2212(2) 0.30868(9)
H46 H 0.1174 -0.1747 0.3420
C39 C 0.2683(4) -0.3370(2) 0.31047(9)
H47 H 0.3175 -0.3696 0.3451
C40 C 0.3153(3) -0.4072(2) 0.26229(9)
H48 H 0.3947 -0.4880 0.2643
loop_
_geom_bond_atom_site_label_1
_geom_bond_atom_site_label_2
_geom_bond_site_symmetry_1
_geom_bond_site_symmetry_2
O1 C3 1_555 1_555
O2 C11 1_555 1_555
O3 C21 1_555 1_555
O4 C31 1_555 1_555
N1 N2 1_555 1_555
N2 C5 1_555 1_555
N3 C6 1_555 1_555
N4 C8 1_555 1_555
N5 N6 1_555 1_555
N6 C10 1_555 1_555
N7 N8 1_555 1_555
N8 C25 1_555 1_555
N9 C26 1_555 1_555
N10 C28 1_555 1_555
N11 N12 1_555 1_555
N12 C30 1_555 1_555
C1 H1 1_555 1_555
H2 C1 1_555 1_555
H3 C1 1_555 1_555
C2 C1 1_555 1_555
H4 C2 1_555 1_555
H5 C2 1_555 1_555
C3 N1 1_555 1_555
C4 N1 1_555 1_555
H6 C4 1_555 1_555
H7 C4 1_555 1_555
H8 C4 1_555 1_555
C5 H9 1_555 1_555
C6 C5 1_555 1_555
C7 C6 1_555 1_555
H10 C7 1_555 1_555
C8 C7 1_555 1_555
C9 N5 1_555 1_555
H11 C9 1_555 1_555
C10 H12 1_555 1_555
H13 C10 1_555 1_555
H14 C10 1_555 1_555
C11 N6 1_555 1_555
C12 C11 1_555 1_555
H15 C12 1_555 1_555
H16 C12 1_555 1_555
C13 C12 1_555 1_555
H17 C13 1_555 1_555
H18 C13 1_555 1_555
H19 C13 1_555 1_555
C14 N3 1_555 1_555
C15 C14 1_555 1_555
C16 C15 1_555 1_555
H20 C16 1_555 1_555
C17 C16 1_555 1_555
H21 C17 1_555 1_555
C18 C17 1_555 1_555
H22 C18 1_555 1_555
C19 C18 1_555 1_555
H23 C19 1_555 1_555
C20 C15 1_555 1_555
H24 C20 1_555 1_555
C21 N7 1_555 1_555
C22 N7 1_555 1_555
H25 C22 1_555 1_555
H26 C22 1_555 1_555
H27 C22 1_555 1_555
C23 C21 1_555 1_555
H28 C23 1_555 1_555
H29 C23 1_555 1_555
C24 C23 1_555 1_555
H30 C24 1_555 1_555
H31 C24 1_555 1_555
H32 C24 1_555 1_555
C25 H33 1_555 1_555
C26 C25 1_555 1_555
C27 C26 1_555 1_555
H34 C27 1_555 1_555
C28 C27 1_555 1_555
C29 N11 1_555 1_555
H35 C29 1_555 1_555
C30 H36 1_555 1_555
H37 C30 1_555 1_555
H38 C30 1_555 1_555
C31 N12 1_555 1_555
C32 C31 1_555 1_555
H39 C32 1_555 1_555
H40 C32 1_555 1_555
C33 C32 1_555 1_555
H41 C33 1_555 1_555
H42 C33 1_555 1_555
H43 C33 1_555 1_555
C34 N9 1_555 1_555
C35 C34 1_555 1_555
C36 C35 1_555 1_555
H44 C36 1_555 1_555
C37 C36 1_555 1_555
H45 C37 1_555 1_555
C38 C37 1_555 1_555
H46 C38 1_555 1_555
C39 C38 1_555 1_555
H47 C39 1_555 1_555
C40 C35 1_555 1_555
H48 C40 1_555 1_555
N4 C14 1_555 1_555
N10 C34 1_555 1_555
C2 C3 1_555 1_555
C8 C9 1_555 1_555
C19 C20 1_555 1_555
C28 C29 1_555 1_555
C39 C40 1_555 1_555

#END
