
#######################################################################
#
#                 Cambridge Crystallographic Data Centre
#                                CCDC 
#
#######################################################################
#
# If this CIF has been generated from an entry in the Cambridge 
# Structural Database, then it will include bibliographic, chemical, 
# crystal, experimental, refinement or atomic coordinate data resulting 
# from the CCDC's data processing and validation procedures.
#
#######################################################################

data_OFEFIR
_chemical_formula_moiety         'C34 H28 Cl1 N1 O1'
_chemical_name_systematic        
N-[5-chloro-2,4-bis(diphenylmethyl)phenyl]acetamide
_symmetry_cell_setting           monoclinic
_symmetry_space_group_name_H-M   'P 21/c'
_symmetry_Int_Tables_number      14
_space_group_name_Hall           '-P 2ybc'
loop_
_symmetry_equiv_pos_site_id
_symmetry_equiv_pos_as_xyz
1 x,y,z
2 -x,1/2+y,1/2-z
3 -x,-y,-z
4 x,1/2-y,1/2+z
_cell_length_a                   13.5024(11)
_cell_length_b                   9.0647(8)
_cell_length_c                   22.691(2)
_cell_angle_alpha                90
_cell_angle_beta                 97.115(2)
_cell_angle_gamma                90
_cell_volume                     2755.88
_exptl_crystal_colour            colorless
_exptl_crystal_description       block
_cell_formula_units_Z            4
loop_
_atom_site_label
_atom_site_type_symbol
_atom_site_fract_x
_atom_site_fract_y
_atom_site_fract_z
O1 O -0.04798(10) 0.66379(14) 0.27970(7)
N1 N 0.04563(11) 0.86232(16) 0.26325(7)
H1 H 0.0443 0.9532 0.2524
Cl1 Cl 0.37193(4) 0.70977(8) 0.19151(2)
C1 C 0.17018(13) 0.74024(19) 0.33629(8)
C2 C 0.14049(13) 0.79546(18) 0.27923(8)
C3 C 0.20419(14) 0.7860(2) 0.23595(8)
H2 H 0.1853 0.8271 0.1987
C4 C 0.29522(14) 0.7164(2) 0.24763(8)
C5 C 0.32500(13) 0.6504(2) 0.30219(8)
C6 C 0.26099(13) 0.6659(2) 0.34503(8)
H3 H 0.2800 0.6239 0.3821
C7 C 0.15771(15) 0.6967(2) 0.44548(8)
C8 C 0.23554(18) 0.7735(3) 0.47750(9)
H4 H 0.2537 0.8653 0.4641
C9 C 0.2864(2) 0.7161(4) 0.52886(11)
H5 H 0.3387 0.7690 0.5494
C10 C 0.2609(3) 0.5850(4) 0.54916(13)
H6 H 0.2957 0.5467 0.5837
C11 C 0.1843(3) 0.5071(4) 0.51967(15)
H7 H 0.1666 0.4163 0.5343
C12 C 0.1316(2) 0.5629(3) 0.46718(11)
H8 H 0.0791 0.5093 0.4472
C13 C 0.06613(14) 0.9102(2) 0.39446(8)
C14 C 0.12117(19) 1.0345(2) 0.38719(11)
H9 H 0.1843 1.0250 0.3752
C15 C 0.0850(3) 1.1737(3) 0.39734(14)
H10 H 0.1238 1.2566 0.3927
C16 C -0.0085(3) 1.1888(4) 0.41433(15)
H11 H -0.0337 1.2821 0.4209
C17 C -0.0639(2) 1.0670(4) 0.42145(15)
H12 H -0.1274 1.0773 0.4328
C18 C -0.02757(17) 0.9281(3) 0.41213(11)
H13 H -0.0663 0.8457 0.4178
C19 C 0.51123(14) 0.6644(3) 0.33627(10)
C20 C 0.50279(19) 0.7868(3) 0.37155(13)
H14 H 0.4406 0.8131 0.3819
C21 C 0.5861(3) 0.8711(4) 0.39188(18)
H15 H 0.5798 0.9526 0.4160
C22 C 0.6771(3) 0.8336(5) 0.3762(2)
H16 H 0.7324 0.8919 0.3888
C23 C 0.6880(2) 0.7139(5) 0.34293(19)
H17 H 0.7510 0.6874 0.3340
C24 C 0.60482(16) 0.6289(3) 0.32166(13)
H18 H 0.6125 0.5479 0.2975
C25 C 0.41460(13) 0.4339(2) 0.35509(9)
C26 C 0.42829(17) 0.4431(3) 0.41653(10)
H19 H 0.4463 0.5326 0.4348
C27 C 0.4153(2) 0.3201(3) 0.45082(13)
H20 H 0.4228 0.3282 0.4920
C28 C 0.3916(2) 0.1871(3) 0.42489(17)
H21 H 0.3842 0.1045 0.4483
C29 C 0.3788(2) 0.1753(3) 0.36404(17)
H22 H 0.3625 0.0848 0.3461
C30 C 0.39007(16) 0.2978(3) 0.32992(12)
H23 H 0.3810 0.2890 0.2888
C31 C 0.10510(14) 0.7546(2) 0.38676(8)
H24 H 0.0466 0.6917 0.3762
C32 C 0.42298(14) 0.5659(2) 0.31461(9)
H25 H 0.4367 0.5256 0.2764
C33 C -0.13240(15) 0.8850(2) 0.24540(11)
H26 H -0.1121 0.9820 0.2349
H27 H -0.1711 0.8403 0.2117
H28 H -0.1721 0.8919 0.2776
C34 C -0.04182(14) 0.7926(2) 0.26410(8)
loop_
_geom_bond_atom_site_label_1
_geom_bond_atom_site_label_2
_geom_bond_site_symmetry_1
_geom_bond_site_symmetry_2
O1 C34 1_555 1_555
N1 H1 1_555 1_555
Cl1 C4 1_555 1_555
C1 C2 1_555 1_555
C2 N1 1_555 1_555
C3 C2 1_555 1_555
H2 C3 1_555 1_555
C4 C3 1_555 1_555
C5 C4 1_555 1_555
C6 C1 1_555 1_555
H3 C6 1_555 1_555
C7 C8 1_555 1_555
C8 H4 1_555 1_555
C9 C8 1_555 1_555
H5 C9 1_555 1_555
C10 C9 1_555 1_555
H6 C10 1_555 1_555
C11 C10 1_555 1_555
H7 C11 1_555 1_555
C12 C7 1_555 1_555
H8 C12 1_555 1_555
C13 C14 1_555 1_555
C14 H9 1_555 1_555
C15 C14 1_555 1_555
H10 C15 1_555 1_555
C16 C15 1_555 1_555
H11 C16 1_555 1_555
C17 C16 1_555 1_555
H12 C17 1_555 1_555
C18 C13 1_555 1_555
H13 C18 1_555 1_555
C19 C20 1_555 1_555
C20 H14 1_555 1_555
C21 C20 1_555 1_555
H15 C21 1_555 1_555
C22 C21 1_555 1_555
H16 C22 1_555 1_555
C23 C22 1_555 1_555
H17 C23 1_555 1_555
C24 C19 1_555 1_555
H18 C24 1_555 1_555
C25 C26 1_555 1_555
C26 H19 1_555 1_555
C27 C26 1_555 1_555
H20 C27 1_555 1_555
C28 C27 1_555 1_555
H21 C28 1_555 1_555
C29 C28 1_555 1_555
H22 C29 1_555 1_555
C30 C25 1_555 1_555
H23 C30 1_555 1_555
C31 C1 1_555 1_555
H24 C31 1_555 1_555
C32 C5 1_555 1_555
H25 C32 1_555 1_555
C33 H26 1_555 1_555
H27 C33 1_555 1_555
H28 C33 1_555 1_555
C34 N1 1_555 1_555
C5 C6 1_555 1_555
C7 C31 1_555 1_555
C11 C12 1_555 1_555
C13 C31 1_555 1_555
C17 C18 1_555 1_555
C19 C32 1_555 1_555
C23 C24 1_555 1_555
C25 C32 1_555 1_555
C29 C30 1_555 1_555
C33 C34 1_555 1_555

#END
