
#######################################################################
#
#                 Cambridge Crystallographic Data Centre
#                                CCDC 
#
#######################################################################
#
# If this CIF has been generated from an entry in the Cambridge 
# Structural Database, then it will include bibliographic, chemical, 
# crystal, experimental, refinement or atomic coordinate data resulting 
# from the CCDC's data processing and validation procedures.
#
#######################################################################

data_OFEGUC
_chemical_formula_moiety         'C18 H16 Cl4 N2 O2'
_chemical_name_systematic        
(E,E)-4,4',6,6'-Tetrachloro-2,2'-(1,1'-azinodiethylene)diphenol
_symmetry_cell_setting           triclinic
_symmetry_space_group_name_H-M   'P -1'
_symmetry_Int_Tables_number      2
_space_group_name_Hall           '-P 1'
loop_
_symmetry_equiv_pos_site_id
_symmetry_equiv_pos_as_xyz
1 x,y,z
2 -x,-y,-z
_cell_length_a                   7.8251(5)
_cell_length_b                   8.0294(4)
_cell_length_c                   8.3899(5)
_cell_angle_alpha                65.894(2)
_cell_angle_beta                 80.961(4)
_cell_angle_gamma                74.821(2)
_cell_volume                     463.633
_exptl_crystal_colour            yellow
_exptl_crystal_description       plate
_cell_formula_units_Z            1
_exptl_crystal_recrystallization_method 1,2-dichloroethane
loop_
_atom_site_label
_atom_site_type_symbol
_atom_site_fract_x
_atom_site_fract_y
_atom_site_fract_z
Cl1 Cl 0.18719(6) -0.14153(6) 0.90825(6)
Cl2 Cl 0.43014(6) 0.46317(6) 0.80112(7)
O1 O 0.73361(16) 0.29828(16) 0.62779(17)
H1 H 0.8185 0.2477 0.5804
N1 N 0.92133(17) 0.03912(18) 0.53574(17)
C1 C 0.3518(2) -0.0141(2) 0.82541(19)
C2 C 0.3274(2) 0.1548(2) 0.84262(19)
H2 H 0.2247 0.1997 0.8986
C3 C 0.4578(2) 0.2547(2) 0.7753(2)
C4 C 0.6141(2) 0.1919(2) 0.68970(19)
C5 C 0.63793(19) 0.0177(2) 0.67474(18)
C6 C 0.5032(2) -0.0823(2) 0.74394(19)
H3 H 0.5167 -0.1966 0.7345
C7 C 0.80203(19) -0.0610(2) 0.59174(18)
C8 C 0.8265(2) -0.2498(2) 0.5844(2)
H4 H 0.9018 -0.2539 0.4819
H5 H 0.7123 -0.2690 0.5733
C9 C 0.9097(3) -0.4059(2) 0.7471(3)
H6 H 1.0241 -0.3890 0.7568
H7 H 0.9227 -0.5244 0.7387
H8 H 0.8348 -0.4029 0.8487
Cl1A Cl 1.81281(6) 0.14153(6) 0.09175(6)
Cl2A Cl 1.56986(6) -0.46317(6) 0.19888(7)
O1A O 1.26639(16) -0.29828(16) 0.37221(17)
H1A H 1.1815 -0.2477 0.4196
N1A N 1.07867(17) -0.03912(18) 0.46426(17)
C1A C 1.6482(2) 0.0141(2) 0.17459(19)
C2A C 1.6726(2) -0.1548(2) 0.15738(19)
H2A H 1.7753 -0.1997 0.1014
C3A C 1.5422(2) -0.2547(2) 0.2247(2)
C4A C 1.3859(2) -0.1919(2) 0.31030(19)
C5A C 1.36207(19) -0.0177(2) 0.32526(18)
C6A C 1.4968(2) 0.0823(2) 0.25606(19)
H3A H 1.4833 0.1966 0.2655
C7A C 1.19797(19) 0.0610(2) 0.40826(18)
C8A C 1.1735(2) 0.2498(2) 0.4156(2)
H4A H 1.0982 0.2539 0.5181
H5A H 1.2877 0.2690 0.4267
C9A C 1.0903(3) 0.4059(2) 0.2529(3)
H6A H 0.9759 0.3890 0.2432
H7A H 1.0773 0.5244 0.2613
H8A H 1.1652 0.4029 0.1513
loop_
_geom_bond_atom_site_label_1
_geom_bond_atom_site_label_2
_geom_bond_site_symmetry_1
_geom_bond_site_symmetry_2
Cl1 C1 1_555 1_555
Cl2 C3 1_555 1_555
O1 H1 1_555 1_555
N1 C7 1_555 1_555
C1 C2 1_555 1_555
C2 H2 1_555 1_555
C3 C2 1_555 1_555
C4 O1 1_555 1_555
C5 C4 1_555 1_555
C6 C1 1_555 1_555
H3 C6 1_555 1_555
C7 C5 1_555 1_555
C8 C7 1_555 1_555
H4 C8 1_555 1_555
H5 C8 1_555 1_555
C9 C8 1_555 1_555
H6 C9 1_555 1_555
H7 C9 1_555 1_555
H8 C9 1_555 1_555
Cl1A C1A 1_555 1_555
Cl2A C3A 1_555 1_555
O1A H1A 1_555 1_555
N1A N1 1_555 1_555
C1A C2A 1_555 1_555
C2A H2A 1_555 1_555
C3A C2A 1_555 1_555
C4A O1A 1_555 1_555
C5A C4A 1_555 1_555
C6A C1A 1_555 1_555
H3A C6A 1_555 1_555
C7A N1A 1_555 1_555
C8A C7A 1_555 1_555
H4A C8A 1_555 1_555
H5A C8A 1_555 1_555
C9A C8A 1_555 1_555
H6A C9A 1_555 1_555
H7A C9A 1_555 1_555
H8A C9A 1_555 1_555
C3 C4 1_555 1_555
C5 C6 1_555 1_555
C3A C4A 1_555 1_555
C5A C6A 1_555 1_555
C5A C7A 1_555 1_555

#END
