
#######################################################################
#
#                 Cambridge Crystallographic Data Centre
#                                CCDC 
#
#######################################################################
#
# If this CIF has been generated from an entry in the Cambridge 
# Structural Database, then it will include bibliographic, chemical, 
# crystal, experimental, refinement or atomic coordinate data resulting 
# from the CCDC's data processing and validation procedures.
#
#######################################################################

data_OFEGEO
_chemical_formula_moiety         'C24 H16 N2,2(C7 H2 F4 O3)'
_chemical_name_systematic        
"bis(2,3,5,6-tetrafluoro-4-hydroxybenzoic acid) 2,2'-(1,4-phenylene)bis(3-phenylprop-2-enenitrile)"
_symmetry_cell_setting           triclinic
_symmetry_space_group_name_H-M   'P -1'
_symmetry_Int_Tables_number      2
_space_group_name_Hall           '-P 1'
loop_
_symmetry_equiv_pos_site_id
_symmetry_equiv_pos_as_xyz
1 x,y,z
2 -x,-y,-z
_cell_length_a                   9.3317(16)
_cell_length_b                   9.3436(16)
_cell_length_c                   10.5310(18)
_cell_angle_alpha                63.940(3)
_cell_angle_beta                 77.306(3)
_cell_angle_gamma                80.095(3)
_cell_volume                     801.713
_exptl_crystal_colour            green
_exptl_crystal_description       block
_chemical_melting_point          '530.15 K'
_cell_formula_units_Z            1
_chemical_properties_physical    Light-sensitive
_exptl_crystal_recrystallization_method 'chloroform / methanol'
_exptl_crystal_preparation       
'Luminescent, This cocrystal exhibits fluorescence emission at 458nm under ultraviolet excitation.'
loop_
_atom_site_label
_atom_site_type_symbol
_atom_site_fract_x
_atom_site_fract_y
_atom_site_fract_z
C1 C 0.2030(3) 0.9186(3) 0.4844(3)
C2 C 0.3618(2) 0.8603(3) 0.4652(3)
C3 C 0.4176(3) 0.7054(3) 0.5414(3)
C4 C 0.5657(3) 0.6561(3) 0.5244(3)
C5 C 0.6675(2) 0.7606(3) 0.4269(3)
C6 C 0.6130(2) 0.9147(3) 0.3505(3)
C7 C 0.4659(3) 0.9641(3) 0.3689(3)
F1 F 0.32916(16) 0.59414(18) 0.63908(16)
F2 F 0.61131(16) 0.50427(17) 0.60390(17)
F3 F 0.70795(15) 1.02104(17) 0.25567(16)
F4 F 0.42696(15) 1.11741(18) 0.28879(16)
O1 O 0.11359(19) 0.8085(2) 0.5521(3)
H1 H 0.0301 0.8491 0.5670
O2 O 0.1634(2) 1.0601(3) 0.4376(3)
O3 O 0.81051(17) 0.7065(2) 0.4128(2)
H2 H 0.8592 0.7797 0.3531
C8 C -0.2858(3) 0.5098(3) 0.9097(3)
H3 H -0.3798 0.5621 0.9014
C9 C -0.2571(3) 0.3912(3) 1.0394(3)
H4 H -0.3313 0.3656 1.1190
C10 C -0.1186(3) 0.3098(3) 1.0521(3)
H5 H -0.0998 0.2303 1.1402
C11 C -0.0074(2) 0.3471(3) 0.9330(3)
C12 C -0.0380(3) 0.4699(3) 0.8050(3)
H6 H 0.0360 0.4986 0.7253
C13 C -0.1764(3) 0.5508(3) 0.7933(3)
H7 H -0.1951 0.6329 0.7063
C14 C 0.1421(2) 0.2675(3) 0.9358(3)
H8 H 0.2137 0.3279 0.8645
C15 C 0.1932(2) 0.1220(3) 1.0241(2)
C16 C 0.0946(2) 0.0119(3) 1.1348(3)
C17 C 0.3508(2) 0.0599(3) 1.0123(2)
C18 C 0.3919(2) -0.1029(3) 1.0733(3)
H9 H 0.3195 -0.1737 1.1244
C19 C 0.4627(2) 0.1624(3) 0.9399(3)
H10 H 0.4388 0.2723 0.9000
N1 N 0.0211(2) -0.0813(3) 1.2230(3)
C8A C 1.2858(3) -0.5098(3) 1.0903(3)
H3A H 1.3798 -0.5621 1.0986
C9A C 1.2571(3) -0.3912(3) 0.9606(3)
H4A H 1.3313 -0.3656 0.8810
C10A C 1.1186(3) -0.3098(3) 0.9479(3)
H5A H 1.0998 -0.2303 0.8598
C11A C 1.0074(2) -0.3471(3) 1.0670(3)
C12A C 1.0380(3) -0.4699(3) 1.1950(3)
H6A H 0.9640 -0.4986 1.2747
C13A C 1.1764(3) -0.5508(3) 1.2067(3)
H7A H 1.1951 -0.6329 1.2937
C14A C 0.8579(2) -0.2675(3) 1.0642(3)
H8A H 0.7863 -0.3279 1.1355
C15A C 0.8068(2) -0.1220(3) 0.9759(2)
C16A C 0.9054(2) -0.0119(3) 0.8652(3)
C17A C 0.6492(2) -0.0599(3) 0.9877(2)
C18A C 0.6081(2) 0.1029(3) 0.9267(3)
H9A H 0.6805 0.1737 0.8756
C19A C 0.5373(2) -0.1624(3) 1.0601(3)
H10A H 0.5612 -0.2723 1.1000
N1A N 0.9789(2) 0.0813(3) 0.7770(3)
loop_
_geom_bond_atom_site_label_1
_geom_bond_atom_site_label_2
_geom_bond_site_symmetry_1
_geom_bond_site_symmetry_2
C1 C2 1_555 1_555
C2 C3 1_555 1_555
C3 C4 1_555 1_555
C4 C5 1_555 1_555
C5 C6 1_555 1_555
C6 C7 1_555 1_555
C7 C2 1_555 1_555
F1 C3 1_555 1_555
F2 C4 1_555 1_555
F3 C6 1_555 1_555
F4 C7 1_555 1_555
O1 C1 1_555 1_555
H1 O1 1_555 1_555
O2 C1 1_555 1_555
O3 C5 1_555 1_555
H2 O3 1_555 1_555
C8 H3 1_555 1_555
C9 C8 1_555 1_555
H4 C9 1_555 1_555
C10 C9 1_555 1_555
H5 C10 1_555 1_555
C11 C10 1_555 1_555
C12 C11 1_555 1_555
H6 C12 1_555 1_555
C13 C8 1_555 1_555
H7 C13 1_555 1_555
C14 C11 1_555 1_555
H8 C14 1_555 1_555
C15 C14 1_555 1_555
C16 C15 1_555 1_555
C17 C15 1_555 1_555
C18 C17 1_555 1_555
H9 C18 1_555 1_555
C19 C17 1_555 1_555
H10 C19 1_555 1_555
N1 C16 1_555 1_555
C8A H3A 1_555 1_555
C9A C8A 1_555 1_555
H4A C9A 1_555 1_555
C10A C9A 1_555 1_555
H5A C10A 1_555 1_555
C11A C10A 1_555 1_555
C12A C11A 1_555 1_555
H6A C12A 1_555 1_555
C13A C8A 1_555 1_555
H7A C13A 1_555 1_555
C14A C11A 1_555 1_555
H8A C14A 1_555 1_555
C15A C14A 1_555 1_555
C16A C15A 1_555 1_555
C17A C15A 1_555 1_555
C18A C19 1_555 1_555
H9A C18A 1_555 1_555
C19A C18 1_555 1_555
H10A C19A 1_555 1_555
N1A C16A 1_555 1_555
C12 C13 1_555 1_555
C12A C13A 1_555 1_555
C17A C18A 1_555 1_555
C17A C19A 1_555 1_555

#END
