
#######################################################################
#
#                 Cambridge Crystallographic Data Centre
#                                CCDC 
#
#######################################################################
#
# If this CIF has been generated from an entry in the Cambridge 
# Structural Database, then it will include bibliographic, chemical, 
# crystal, experimental, refinement or atomic coordinate data resulting 
# from the CCDC's data processing and validation procedures.
#
#######################################################################

data_OFEGAK
_chemical_formula_moiety         'C24 H16 N2,5(C6 H2 F4 O2)'
_chemical_name_systematic        
"2,2'-(1,4-phenylene)bis(3-phenylprop-2-enenitrile) pentakis(2,3,5,6-tetrafluorobenzene-1,4-diol)"
_symmetry_cell_setting           triclinic
_symmetry_space_group_name_H-M   'P -1'
_symmetry_Int_Tables_number      2
_space_group_name_Hall           '-P 1'
loop_
_symmetry_equiv_pos_site_id
_symmetry_equiv_pos_as_xyz
1 x,y,z
2 -x,-y,-z
_cell_length_a                   6.0315(17)
_cell_length_b                   7.416(2)
_cell_length_c                   26.164(7)
_cell_angle_alpha                88.67(2)
_cell_angle_beta                 88.29(2)
_cell_angle_gamma                85.06(2)
_cell_volume                     1165.19
_exptl_crystal_colour            'light yellow'
_exptl_crystal_description       plate
_chemical_melting_point          '431.15 K'
_cell_formula_units_Z            1
_chemical_properties_physical    Light-sensitive
_exptl_crystal_recrystallization_method 'chloroform  / methanol'
_exptl_crystal_preparation       
'Luminescent, This co-crystal exhibits fluorescence emission at 498nm under ultraviolet excitation.'
loop_
_atom_site_label
_atom_site_type_symbol
_atom_site_fract_x
_atom_site_fract_y
_atom_site_fract_z
F1 F 0.2694(3) 1.5443(2) 0.40666(7)
F2 F 0.9302(3) 1.6970(2) 0.47955(7)
F3 F 0.1366(3) 1.8970(2) 0.39386(7)
O1 O 0.6817(3) 1.4340(2) 0.44836(8)
H1 H 0.5826 1.3697 0.4419
F4 F 0.7979(3) 2.0503(2) 0.46658(6)
O2 O 0.4047(3) 2.1638(2) 0.42515(9)
H2 H 0.2859 2.1796 0.4106
C1 C 0.4670(5) 1.9833(4) 0.42899(11)
C2 C 0.7367(5) 1.7441(4) 0.45732(11)
C3 C 0.6056(5) 1.6118(4) 0.44195(11)
C4 C 0.3357(5) 1.8498(4) 0.41423(11)
C5 C 0.4058(5) 1.6692(4) 0.42088(11)
C6 C 0.6668(5) 1.9263(4) 0.45021(11)
O3 O 1.0086(3) 1.2756(3) 0.37877(8)
H3 H 0.9066 1.3324 0.3944
C7 C 0.9520(5) 1.2601(4) 0.32888(12)
F5 F 0.5003(3) 1.3733(2) 0.24322(6)
F6 F 0.5939(3) 1.4077(2) 0.34137(6)
O4 O 0.8152(4) 1.2116(3) 0.17393(8)
H4 H 0.7009 1.2736 0.1667
F7 F 1.2151(3) 1.0843(2) 0.21192(7)
C8 C 1.1043(5) 1.1801(4) 0.29453(12)
F8 F 1.3064(3) 1.1143(2) 0.31147(7)
C9 C 0.7023(5) 1.3082(4) 0.25896(12)
C10 C 0.8555(5) 1.2289(4) 0.22466(12)
C11 C 1.0580(5) 1.1646(4) 0.24346(12)
C12 C 0.7488(5) 1.3248(4) 0.30974(12)
F9 F 0.6961(3) 1.1693(2) 0.06504(7)
O5 O 1.1133(4) 1.0383(3) 0.10107(8)
H5 H 1.0118 1.0939 0.1172
F10 F 1.4029(3) 0.8662(2) 0.03413(7)
C13 C 1.2022(5) 0.9345(4) 0.01758(13)
C14 C 0.8496(5) 1.0844(4) 0.03296(13)
C15 C 1.0519(5) 1.0204(4) 0.05185(12)
F9A F 1.3039(3) 0.8307(2) -0.06504(7)
O5A O 0.8867(4) 0.9617(3) -0.10107(8)
H5A H 0.9882 0.9061 -0.1172
F10A F 0.5971(3) 1.1338(2) -0.03413(7)
C13A C 0.7978(5) 1.0655(4) -0.01758(13)
C14A C 1.1504(5) 0.9156(4) -0.03296(13)
C15A C 0.9481(5) 0.9796(4) -0.05185(12)
C16 C 0.2696(6) 1.4832(4) 0.12633(12)
C17 C -0.0889(5) 1.6552(4) 0.13783(12)
H6 H -0.2129 1.7060 0.1208
C18 C -0.1450(6) 1.7631(4) 0.29758(13)
H7 H -0.1619 1.7842 0.3324
C19 C 0.0810(5) 1.6534(4) 0.22551(12)
H8 H 0.2167 1.6027 0.2124
C20 C -0.1748(5) 1.5754(4) 0.02969(12)
H9 H -0.2945 1.6255 0.0494
C21 C -0.2951(5) 1.7741(4) 0.21330(13)
H10 H -0.4128 1.8063 0.1918
C22 C -0.3203(6) 1.8065(4) 0.26544(13)
H11 H -0.4556 1.8574 0.2787
C23 C 0.2015(5) 1.4521(4) 0.02163(12)
H12 H 0.3384 1.4182 0.0360
C24 C 0.0562(6) 1.6879(4) 0.27742(12)
H13 H 0.1754 1.6602 0.2988
C25 C 0.0601(5) 1.5612(4) 0.10745(12)
C26 C 0.0281(5) 1.5295(4) 0.05243(12)
C27 C -0.0951(5) 1.6940(4) 0.19295(12)
N1 N 0.4417(5) 1.4178(4) 0.13835(10)
C16A C -0.2696(6) 1.5168(4) -0.12633(12)
C17A C 0.0889(5) 1.3448(4) -0.13783(12)
H6A H 0.2129 1.2940 -0.1208
C18A C 0.1450(6) 1.2369(4) -0.29758(13)
H7A H 0.1619 1.2158 -0.3324
C19A C -0.0810(5) 1.3466(4) -0.22551(12)
H8A H -0.2167 1.3973 -0.2124
C20A C 0.1748(5) 1.4246(4) -0.02969(12)
H9A H 0.2945 1.3745 -0.0494
C21A C 0.2951(5) 1.2259(4) -0.21330(13)
H10A H 0.4128 1.1937 -0.1918
C22A C 0.3203(6) 1.1935(4) -0.26544(13)
H11A H 0.4556 1.1426 -0.2787
C23A C -0.2015(5) 1.5479(4) -0.02163(12)
H12A H -0.3384 1.5818 -0.0360
C24A C -0.0562(6) 1.3121(4) -0.27742(12)
H13A H -0.1754 1.3398 -0.2988
C25A C -0.0601(5) 1.4388(4) -0.10745(12)
C26A C -0.0281(5) 1.4705(4) -0.05243(12)
C27A C 0.0951(5) 1.3060(4) -0.19295(12)
N1A N -0.4417(5) 1.5822(4) -0.13835(10)
loop_
_geom_bond_atom_site_label_1
_geom_bond_atom_site_label_2
_geom_bond_site_symmetry_1
_geom_bond_site_symmetry_2
F1 C5 1_555 1_555
F2 C2 1_555 1_555
F3 C4 1_555 1_555
O1 H1 1_555 1_555
F4 C6 1_555 1_555
O2 H2 1_555 1_555
C1 O2 1_555 1_555
C2 C3 1_555 1_555
C3 O1 1_555 1_555
C4 C1 1_555 1_555
C5 C3 1_555 1_555
C6 C1 1_555 1_555
O3 H3 1_555 1_555
C7 O3 1_555 1_555
F5 C9 1_555 1_555
F6 C12 1_555 1_555
O4 H4 1_555 1_555
F7 C11 1_555 1_555
C8 C7 1_555 1_555
F8 C8 1_555 1_555
C9 C10 1_555 1_555
C10 O4 1_555 1_555
C11 C8 1_555 1_555
C12 C7 1_555 1_555
F9 C14 1_555 1_555
O5 H5 1_555 1_555
F10 C13 1_555 1_555
C13 C15 1_555 1_555
C14 C15 1_555 1_555
C15 O5 1_555 1_555
C16 C25 1_555 1_555
C17 H6 1_555 1_555
C18 H7 1_555 1_555
C19 H8 1_555 1_555
C20 H9 1_555 1_555
C21 H10 1_555 1_555
C22 C18 1_555 1_555
H11 C22 1_555 1_555
C23 H12 1_555 1_555
C24 C18 1_555 1_555
H13 C24 1_555 1_555
C25 C17 1_555 1_555
C26 C20 1_555 1_555
C27 C17 1_555 1_555
N1 C16 1_555 1_555
F9A C14A 1_555 1_555
O5A H5A 1_555 1_555
F10A C13A 1_555 1_555
C13A C14 1_555 1_555
C14A C13 1_555 1_555
C15A O5A 1_555 1_555
C16A C25A 1_555 1_555
C17A H6A 1_555 1_555
C18A H7A 1_555 1_555
C19A H8A 1_555 1_555
C20A C23 1_555 1_555
H9A C20A 1_555 1_555
C21A H10A 1_555 1_555
C22A C18A 1_555 1_555
H11A C22A 1_555 1_555
C23A C20 1_555 1_555
H12A C23A 1_555 1_555
C24A C18A 1_555 1_555
H13A C24A 1_555 1_555
C25A C17A 1_555 1_555
C26A C20A 1_555 1_555
C27A C17A 1_555 1_555
N1A C16A 1_555 1_555
C2 C6 1_555 1_555
C4 C5 1_555 1_555
C9 C12 1_555 1_555
C10 C11 1_555 1_555
C19 C24 1_555 1_555
C19 C27 1_555 1_555
C21 C22 1_555 1_555
C21 C27 1_555 1_555
C23 C26 1_555 1_555
C25 C26 1_555 1_555
C13A C15A 1_555 1_555
C14A C15A 1_555 1_555
C19A C24A 1_555 1_555
C19A C27A 1_555 1_555
C21A C22A 1_555 1_555
C21A C27A 1_555 1_555
C23A C26A 1_555 1_555
C25A C26A 1_555 1_555

#END
