
#######################################################################
#
#                 Cambridge Crystallographic Data Centre
#                                CCDC 
#
#######################################################################
#
# If this CIF has been generated from an entry in the Cambridge 
# Structural Database, then it will include bibliographic, chemical, 
# crystal, experimental, refinement or atomic coordinate data resulting 
# from the CCDC's data processing and validation procedures.
#
#######################################################################

data_OFEKER
_chemical_formula_moiety         'C22 H22 O3'
_chemical_name_systematic        
2-(Hydroxy(phenyl)methyl)-1,3-diphenylpropane-1,3-diol
_symmetry_cell_setting           orthorhombic
_symmetry_space_group_name_H-M   'P 21 21 21'
_symmetry_Int_Tables_number      19
_space_group_name_Hall           'P 2ac 2ab'
loop_
_symmetry_equiv_pos_site_id
_symmetry_equiv_pos_as_xyz
1 x,y,z
2 1/2-x,-y,1/2+z
3 -x,1/2+y,1/2-z
4 1/2+x,1/2-y,-z
_cell_length_a                   8.1269(7)
_cell_length_b                   9.4092(8)
_cell_length_c                   24.584(2)
_cell_angle_alpha                90
_cell_angle_beta                 90
_cell_angle_gamma                90
_cell_volume                     1879.88
_exptl_crystal_colour            colorless
_exptl_crystal_description       prismatic
_cell_formula_units_Z            4
loop_
_atom_site_label
_atom_site_type_symbol
_atom_site_fract_x
_atom_site_fract_y
_atom_site_fract_z
O1 O 0.81747(16) 0.44679(13) 0.89545(6)
H1 H 0.9056 0.4244 0.9093
O2 O 0.70030(17) 0.28311(14) 0.98636(4)
H2 H 0.7439 0.3568 0.9758
O3 O 1.02642(14) 0.23546(14) 0.91725(4)
H3 H 1.0770 0.2201 0.9455
C1 C 0.74050(17) 0.19576(16) 0.89292(6)
H4 H 0.6873 0.1288 0.8680
C2 C 0.7616(2) 0.33462(17) 0.86123(6)
H5 H 0.8437 0.3193 0.8326
C3 C 0.6223(2) 0.21382(17) 0.94149(6)
H6 H 0.5295 0.2727 0.9297
C4 C 0.90613(17) 0.12731(17) 0.90941(6)
H7 H 0.8902 0.0781 0.9441
C5 C 0.6022(2) 0.38013(19) 0.83469(6)
C6 C 0.5190(3) 0.4989(3) 0.85077(9)
H8 H 0.5623 0.5565 0.8780
C7 C 0.3690(3) 0.5343(3) 0.82658(12)
H9 H 0.3117 0.6141 0.8385
C8 C 0.3063(3) 0.4535(3) 0.78588(12)
H10 H 0.2071 0.4782 0.7695
C9 C 0.3890(3) 0.3368(2) 0.76930(9)
H11 H 0.3464 0.2813 0.7414
C10 C 0.5364(2) 0.2987(2) 0.79336(7)
H12 H 0.5915 0.2177 0.7816
C11 C 0.55607(19) 0.07319(18) 0.95971(6)
C12 C 0.4361(2) 0.0096(2) 0.92851(9)
H13 H 0.3967 0.0568 0.8979
C13 C 0.3738(3) -0.1206(3) 0.94126(12)
H14 H 0.2943 -0.1621 0.9192
C14 C 0.4289(3) -0.1903(3) 0.98701(13)
H15 H 0.3864 -0.2790 0.9960
C15 C 0.5460(3) -0.1292(2) 1.01913(9)
H16 H 0.5825 -0.1759 1.0502
C16 C 0.6111(2) 0.00316(19) 1.00548(7)
H17 H 0.6917 0.0442 1.0273
C17 C 0.96395(17) 0.01940(17) 0.86806(6)
C18 C 0.8987(2) -0.11636(18) 0.86798(7)
H18 H 0.8189 -0.1408 0.8934
C19 C 0.9508(3) -0.2164(2) 0.83038(8)
H19 H 0.9070 -0.3077 0.8310
C20 C 1.0665(3) -0.1810(2) 0.79253(8)
H20 H 1.1012 -0.2482 0.7673
C21 C 1.1314(2) -0.0471(2) 0.79161(7)
H21 H 1.2092 -0.0234 0.7654
C22 C 1.0822(2) 0.0537(2) 0.82940(6)
H22 H 1.1283 0.1441 0.8289
loop_
_geom_bond_atom_site_label_1
_geom_bond_atom_site_label_2
_geom_bond_site_symmetry_1
_geom_bond_site_symmetry_2
O1 H1 1_555 1_555
O2 H2 1_555 1_555
O3 H3 1_555 1_555
C1 H4 1_555 1_555
C2 O1 1_555 1_555
H5 C2 1_555 1_555
C3 O2 1_555 1_555
H6 C3 1_555 1_555
C4 O3 1_555 1_555
H7 C4 1_555 1_555
C5 C2 1_555 1_555
C6 C5 1_555 1_555
H8 C6 1_555 1_555
C7 C6 1_555 1_555
H9 C7 1_555 1_555
C8 C7 1_555 1_555
H10 C8 1_555 1_555
C9 C8 1_555 1_555
H11 C9 1_555 1_555
C10 C5 1_555 1_555
H12 C10 1_555 1_555
C11 C3 1_555 1_555
C12 C11 1_555 1_555
H13 C12 1_555 1_555
C13 C12 1_555 1_555
H14 C13 1_555 1_555
C14 C13 1_555 1_555
H15 C14 1_555 1_555
C15 C14 1_555 1_555
H16 C15 1_555 1_555
C16 C11 1_555 1_555
H17 C16 1_555 1_555
C17 C4 1_555 1_555
C18 C17 1_555 1_555
H18 C18 1_555 1_555
C19 C18 1_555 1_555
H19 C19 1_555 1_555
C20 C19 1_555 1_555
H20 C20 1_555 1_555
C21 C20 1_555 1_555
H21 C21 1_555 1_555
C22 C17 1_555 1_555
H22 C22 1_555 1_555
C1 C2 1_555 1_555
C1 C3 1_555 1_555
C1 C4 1_555 1_555
C9 C10 1_555 1_555
C15 C16 1_555 1_555
C21 C22 1_555 1_555

#END
