
#######################################################################
#
#                 Cambridge Crystallographic Data Centre
#                                CCDC 
#
#######################################################################
#
# If this CIF has been generated from an entry in the Cambridge 
# Structural Database, then it will include bibliographic, chemical, 
# crystal, experimental, refinement or atomic coordinate data resulting 
# from the CCDC's data processing and validation procedures.
#
#######################################################################

data_OFELOD
_chemical_formula_moiety         'C7 H7 N1 O2,C6 H5 N1 O3,H2 O1'
_chemical_name_systematic        '4-aminobenzoic acid 4-nitrophenol monohydrate'
_symmetry_cell_setting           monoclinic
_symmetry_space_group_name_H-M   'P 21/c'
_symmetry_Int_Tables_number      14
_space_group_name_Hall           '-P 2ybc'
loop_
_symmetry_equiv_pos_site_id
_symmetry_equiv_pos_as_xyz
1 x,y,z
2 -x,1/2+y,1/2-z
3 -x,-y,-z
4 x,1/2-y,1/2+z
_cell_length_a                   12.2560(6)
_cell_length_b                   6.1232(2)
_cell_length_c                   18.5364(7)
_cell_angle_alpha                90
_cell_angle_beta                 90.318(2)
_cell_angle_gamma                90
_cell_volume                     1391.06
_exptl_crystal_colour            brown
_exptl_crystal_description       block
_chemical_melting_point          '348.15 K'
_cell_formula_units_Z            4
_exptl_crystal_recrystallization_method 'Re-crystallisation from solvent'
loop_
_atom_site_label
_atom_site_type_symbol
_atom_site_fract_x
_atom_site_fract_y
_atom_site_fract_z
C1 C -0.07548(15) 1.0576(3) 0.11011(11)
C2 C -0.03914(16) 0.8493(3) 0.09406(11)
H1 H 0.0181 0.7879 0.1202
C3 C -0.08778(15) 0.7345(3) 0.03959(11)
H2 H -0.0642 0.5940 0.0287
C4 C -0.17181(15) 0.8276(3) 0.00091(10)
C5 C -0.21026(16) 1.0332(3) 0.01713(11)
H3 H -0.2679 1.0934 -0.0089
C6 C -0.16191(16) 1.1473(3) 0.07235(11)
H4 H -0.1874 1.2855 0.0844
N1 N -0.22078(15) 0.7054(3) -0.05792(9)
O1 O -0.18682(15) 0.5213(3) -0.07070(9)
O2 O -0.29433(16) 0.7882(4) -0.09294(10)
O3 O -0.02736(13) 1.1800(3) 0.16247(9)
H5 H 0.0226 1.1103 0.1811
C7 C 0.40939(13) 0.3369(3) 0.36728(8)
C8 C 0.45887(14) 0.5373(3) 0.35485(9)
H6 H 0.5151 0.5839 0.3851
C9 C 0.42572(14) 0.6681(3) 0.29832(10)
H7 H 0.4593 0.8023 0.2908
C10 C 0.34249(14) 0.6004(3) 0.25257(9)
C11 C 0.29138(14) 0.4015(3) 0.26593(9)
H8 H 0.2343 0.3560 0.2363
C12 C 0.32429(14) 0.2725(3) 0.32222(9)
H9 H 0.2893 0.1401 0.3304
C13 C 0.44680(14) 0.1944(3) 0.42595(9)
N2 N 0.30664(15) 0.7330(3) 0.19564(9)
O4 O 0.39048(11) 0.0266(2) 0.44214(7)
O5 O 0.53529(11) 0.2407(2) 0.45801(7)
H10 H 0.5474 0.1498 0.4895
H11 H 0.3544(16) 0.833(3) 0.1828(12)
H12 H 0.2784(18) 0.658(3) 0.1592(11)
O6 O 0.11825(14) 0.9765(3) 0.24068(10)
H13 H 0.0873(19) 0.889(4) 0.2739(12)
H14 H 0.1755(17) 0.905(4) 0.2228(14)
loop_
_geom_bond_atom_site_label_1
_geom_bond_atom_site_label_2
_geom_bond_site_symmetry_1
_geom_bond_site_symmetry_2
C1 C2 1_555 1_555
C2 H1 1_555 1_555
C3 C2 1_555 1_555
H2 C3 1_555 1_555
C4 C3 1_555 1_555
C5 C4 1_555 1_555
H3 C5 1_555 1_555
C6 C1 1_555 1_555
H4 C6 1_555 1_555
N1 C4 1_555 1_555
O1 N1 1_555 1_555
O2 N1 1_555 1_555
O3 C1 1_555 1_555
H5 O3 1_555 1_555
C7 C8 1_555 1_555
C8 H6 1_555 1_555
C9 C8 1_555 1_555
H7 C9 1_555 1_555
C10 C9 1_555 1_555
C11 C10 1_555 1_555
H8 C11 1_555 1_555
C12 C7 1_555 1_555
H9 C12 1_555 1_555
C13 C7 1_555 1_555
N2 C10 1_555 1_555
O4 C13 1_555 1_555
O5 C13 1_555 1_555
H10 O5 1_555 1_555
H11 N2 1_555 1_555
H12 N2 1_555 1_555
O6 H13 1_555 1_555
H14 O6 1_555 1_555
C5 C6 1_555 1_555
C11 C12 1_555 1_555

#END
