
#######################################################################
#
#                 Cambridge Crystallographic Data Centre
#                                CCDC 
#
#######################################################################
#
# If this CIF has been generated from an entry in the Cambridge 
# Structural Database, then it will include bibliographic, chemical, 
# crystal, experimental, refinement or atomic coordinate data resulting 
# from the CCDC's data processing and validation procedures.
#
#######################################################################

data_OFEMUK
_chemical_formula_moiety         'C17 H18 N4 O1'
_chemical_name_systematic        
5-{4-[(morpholin-4-yl)methyl]phenyl}[1,2,4]triazolo[1,5-a]pyridine
_symmetry_cell_setting           monoclinic
_symmetry_space_group_name_H-M   'P 21/n'
_symmetry_Int_Tables_number      14
_space_group_name_Hall           '-P 2yn'
loop_
_symmetry_equiv_pos_site_id
_symmetry_equiv_pos_as_xyz
1 x,y,z
2 1/2-x,1/2+y,1/2-z
3 -x,-y,-z
4 1/2+x,1/2-y,1/2+z
_cell_length_a                   12.8851(5)
_cell_length_b                   7.2910(2)
_cell_length_c                   16.8970(7)
_cell_angle_alpha                90
_cell_angle_beta                 103.303(2)
_cell_angle_gamma                90
_cell_volume                     1544.8
_exptl_crystal_colour            colorless
_exptl_crystal_description       block
_cell_formula_units_Z            4
loop_
_atom_site_label
_atom_site_type_symbol
_atom_site_fract_x
_atom_site_fract_y
_atom_site_fract_z
O1 O 0.26868(7) 0.03257(13) 0.45718(6)
N1 N 0.93906(7) 0.53457(12) 0.38629(6)
N2 N 0.96201(8) 0.35374(13) 0.37603(7)
N3 N 1.11615(8) 0.51655(14) 0.41950(7)
N4 N 0.42000(8) 0.10990(15) 0.36235(7)
C1 C 0.74205(9) 0.49814(15) 0.35027(8)
C2 C 0.83866(9) 0.61278(15) 0.37227(7)
C3 C 1.03302(9) 0.63142(16) 0.41191(7)
C4 C 1.06783(10) 0.35501(17) 0.39727(8)
H1 H 1.1079 0.2458 0.3968
C5 C 0.73569(10) 0.32590(16) 0.38496(8)
H2 H 0.7962 0.2768 0.4220
C6 C 1.02821(10) 0.82180(16) 0.42293(8)
H3 H 1.0913 0.8920 0.4409
C7 C 0.83670(10) 0.79831(16) 0.38271(8)
H4 H 0.7697 0.8590 0.3732
C8 C 0.55140(10) 0.29553(18) 0.31257(8)
C9 C 0.93053(10) 0.90268(16) 0.40713(8)
H5 H 0.9255 1.0318 0.4127
C10 C 0.64186(10) 0.22638(17) 0.36578(9)
H6 H 0.6391 0.1087 0.3893
C11 C 0.65099(10) 0.56835(17) 0.29752(8)
H7 H 0.6535 0.6855 0.2734
C12 C 0.55708(10) 0.46856(18) 0.28010(8)
H8 H 0.4954 0.5197 0.2452
C13 C 0.37357(11) 0.25521(18) 0.40256(9)
H9 H 0.3101 0.3061 0.3644
H10 H 0.4261 0.3554 0.4184
C14 C 0.45222(11) 0.1780(2) 0.29044(9)
H11 H 0.3933 0.2511 0.2571
H12 H 0.4659 0.0727 0.2573
C15 C 0.34178(11) 0.18204(19) 0.47709(9)
H13 H 0.4063 0.1405 0.5171
H14 H 0.3084 0.2815 0.5025
C16 C 0.34393(11) -0.0413(2) 0.34238(10)
H15 H 0.3757 -0.1421 0.3166
H16 H 0.2788 0.0013 0.3034
C17 C 0.31541(11) -0.1099(2) 0.41888(10)
H17 H 0.2646 -0.2133 0.4053
H18 H 0.3804 -0.1558 0.4570
loop_
_geom_bond_atom_site_label_1
_geom_bond_atom_site_label_2
_geom_bond_site_symmetry_1
_geom_bond_site_symmetry_2
O1 C15 1_555 1_555
N1 N2 1_555 1_555
N2 C4 1_555 1_555
N3 C3 1_555 1_555
N4 C13 1_555 1_555
C1 C2 1_555 1_555
C2 N1 1_555 1_555
C3 N1 1_555 1_555
C4 N3 1_555 1_555
H1 C4 1_555 1_555
C5 C1 1_555 1_555
H2 C5 1_555 1_555
C6 C3 1_555 1_555
H3 C6 1_555 1_555
C7 C2 1_555 1_555
H4 C7 1_555 1_555
C8 C10 1_555 1_555
C9 C6 1_555 1_555
H5 C9 1_555 1_555
C10 C5 1_555 1_555
H6 C10 1_555 1_555
C11 C1 1_555 1_555
H7 C11 1_555 1_555
C12 C8 1_555 1_555
H8 C12 1_555 1_555
C13 H9 1_555 1_555
H10 C13 1_555 1_555
C14 N4 1_555 1_555
H11 C14 1_555 1_555
H12 C14 1_555 1_555
C15 C13 1_555 1_555
H13 C15 1_555 1_555
H14 C15 1_555 1_555
C16 N4 1_555 1_555
H15 C16 1_555 1_555
H16 C16 1_555 1_555
C17 O1 1_555 1_555
H17 C17 1_555 1_555
H18 C17 1_555 1_555
C7 C9 1_555 1_555
C8 C14 1_555 1_555
C11 C12 1_555 1_555
C16 C17 1_555 1_555

#END
