
#######################################################################
#
#                 Cambridge Crystallographic Data Centre
#                                CCDC 
#
#######################################################################
#
# If this CIF has been generated from an entry in the Cambridge 
# Structural Database, then it will include bibliographic, chemical, 
# crystal, experimental, refinement or atomic coordinate data resulting 
# from the CCDC's data processing and validation procedures.
#
#######################################################################

data_OFENUJ
_chemical_name_common            3a,6a-Dipropoxycarbonylglycoluril
_chemical_formula_moiety         'C12 H18 N4 O6'
_chemical_name_systematic        
'Dipropyl 2,5-dioxoperhydroimidazo(4,5-d)imidazole-3a,6a-dicarboxylate'
_symmetry_cell_setting           orthorhombic
_symmetry_space_group_name_H-M   'P b c a'
_symmetry_Int_Tables_number      61
_space_group_name_Hall           '-P 2ac 2ab'
loop_
_symmetry_equiv_pos_site_id
_symmetry_equiv_pos_as_xyz
1 x,y,z
2 1/2-x,-y,1/2+z
3 -x,1/2+y,1/2-z
4 1/2+x,1/2-y,-z
5 -x,-y,-z
6 1/2+x,y,1/2-z
7 x,1/2-y,1/2+z
8 1/2-x,1/2+y,z
_cell_length_a                   13.3013(7)
_cell_length_b                   11.5852(6)
_cell_length_c                   19.9867(10)
_cell_angle_alpha                90
_cell_angle_beta                 90
_cell_angle_gamma                90
_cell_volume                     3079.91
_exptl_crystal_colour            colorless
_exptl_crystal_description       plate
_cell_formula_units_Z            8
_exptl_crystal_recrystallization_method methanol
loop_
_atom_site_label
_atom_site_type_symbol
_atom_site_fract_x
_atom_site_fract_y
_atom_site_fract_z
C1 C 0.75770(11) -0.07104(12) 0.27047(7)
C2 C 0.99691(11) 0.11085(12) 0.25548(8)
C3 C 0.91169(11) -0.02387(12) 0.31998(8)
C4 C 0.84418(10) 0.08686(12) 0.31140(8)
C5 C 0.93005(12) -0.06780(13) 0.39124(8)
C6 C 0.85324(15) -0.09772(19) 0.49676(9)
H1 H 0.9205 -0.0884 0.5148
H2 H 0.8390 -0.1798 0.4947
C7 C 0.7798(6) -0.0418(10) 0.5431(5)
H5 H 0.7146 -0.0361 0.5216
H6 H 0.8023 0.0356 0.5540
C8 C 0.7710(8) -0.1140(18) 0.6072(3)
H7 H 0.7477 -0.1901 0.5962
H8 H 0.7242 -0.0780 0.6372
H9 H 0.8357 -0.1191 0.6284
C11 C 0.82776(12) 0.16353(13) 0.37327(9)
C12 C 0.91527(18) 0.27569(18) 0.45434(11)
H15 H 0.8515 0.3163 0.4550
H17 H 0.9666 0.2577 0.4872
C13 C 0.9967(4) 0.3581(3) 0.4464(2)
H19 H 1.0587 0.3163 0.4385
H20 H 1.0044 0.4012 0.4877
C14 C 0.9801(6) 0.4412(5) 0.3901(3)
H21 H 0.9778 0.3997 0.3485
H22 H 1.0342 0.4960 0.3889
H23 H 0.9176 0.4811 0.3967
N1 N 0.75121(9) 0.04142(11) 0.28776(7)
H29 H 0.6968 0.0813 0.2848
N2 N 0.85239(9) -0.10854(10) 0.28403(7)
H30 H 0.8747 -0.1753 0.2725
N3 N 1.00441(9) 0.00930(11) 0.28903(7)
H31 H 1.0588 -0.0307 0.2914
N4 N 0.90195(10) 0.15112(10) 0.26255(7)
H32 H 0.8784 0.2087 0.2404
O1 O 0.68919(9) -0.12847(9) 0.24606(6)
O2 O 1.06484(9) 0.15783(9) 0.22415(7)
O3 O 1.00591(10) -0.11525(15) 0.40724(7)
O4 O 0.85052(9) -0.05045(11) 0.42944(6)
O5 O 0.74722(10) 0.19561(12) 0.39100(7)
O6 O 0.91566(9) 0.19233(11) 0.39968(7)
H3? H 0.9199 -0.0914 0.5161
H4? H 0.8322 -0.1779 0.4975
C9? C 0.7807(13) -0.0185(17) 0.5315(9)
H10? H 0.7175 -0.0168 0.5074
H11? H 0.8078 0.0592 0.5327
C10? C 0.7635(12) -0.063(2) 0.6031(7)
H12? H 0.7223 -0.1306 0.6019
H13? H 0.7304 -0.0039 0.6289
H14? H 0.8270 -0.0808 0.6233
H16? H 0.9227 0.2355 0.4966
H18? H 0.8503 0.2768 0.4763
C15? C 0.9364(6) 0.3945(7) 0.4212(4)
H24? H 0.8867 0.4092 0.3868
H25? H 0.9311 0.4550 0.4546
C16? C 1.0388(8) 0.3958(10) 0.3912(6)
H26? H 1.0881 0.3863 0.4258
H27? H 1.0496 0.4681 0.3688
H28? H 1.0447 0.3339 0.3595
loop_
_geom_bond_atom_site_label_1
_geom_bond_atom_site_label_2
_geom_bond_site_symmetry_1
_geom_bond_site_symmetry_2
C1 N1 1_555 1_555
C2 N3 1_555 1_555
C3 C4 1_555 1_555
C4 C11 1_555 1_555
C5 C3 1_555 1_555
C6 H1 1_555 1_555
H2 C6 1_555 1_555
C7 C6 1_555 1_555
H5 C7 1_555 1_555
H6 C7 1_555 1_555
C8 C7 1_555 1_555
H7 C8 1_555 1_555
H8 C8 1_555 1_555
H9 C8 1_555 1_555
C11 O5 1_555 1_555
C12 H15 1_555 1_555
H17 C12 1_555 1_555
C13 C12 1_555 1_555
H19 C13 1_555 1_555
H20 C13 1_555 1_555
C14 C13 1_555 1_555
H21 C14 1_555 1_555
H22 C14 1_555 1_555
H23 C14 1_555 1_555
N1 C4 1_555 1_555
H29 N1 1_555 1_555
N2 C1 1_555 1_555
H30 N2 1_555 1_555
N3 C3 1_555 1_555
H31 N3 1_555 1_555
N4 C2 1_555 1_555
H32 N4 1_555 1_555
O1 C1 1_555 1_555
O2 C2 1_555 1_555
O3 C5 1_555 1_555
O4 C5 1_555 1_555
O6 C11 1_555 1_555
C3 N2 1_555 1_555
C4 N4 1_555 1_555
C6 O4 1_555 1_555
C12 O6 1_555 1_555

#END
