
#######################################################################
#
#                 Cambridge Crystallographic Data Centre
#                                CCDC 
#
#######################################################################
#
# If this CIF has been generated from an entry in the Cambridge 
# Structural Database, then it will include bibliographic, chemical, 
# crystal, experimental, refinement or atomic coordinate data resulting 
# from the CCDC's data processing and validation procedures.
#
#######################################################################

data_OFENOD
_chemical_formula_moiety         'C12 H9 N2 1+,C5 H6 O6 P1 1-,C5 H7 O6 P1,H2 O1'
_chemical_name_systematic        
'1,10-Phenanthrolin-1-ium 1-oxo-2,6,7-trioxa-1-phosphabicyclo(2.2.2)octane-4-carboxylate 1-oxo-2,6,7-trioxa-1-phosphabicyclo(2.2.2)octane-4-carboxylic acid monohydrate'
_symmetry_cell_setting           monoclinic
_symmetry_space_group_name_H-M   'P 21/c'
_symmetry_Int_Tables_number      14
_space_group_name_Hall           '-P 2ybc'
loop_
_symmetry_equiv_pos_site_id
_symmetry_equiv_pos_as_xyz
1 x,y,z
2 -x,1/2+y,1/2-z
3 -x,-y,-z
4 x,1/2-y,1/2+z
_cell_length_a                   9.2841(18)
_cell_length_b                   8.5863(16)
_cell_length_c                   31.124(6)
_cell_angle_alpha                90
_cell_angle_beta                 99.917(5)
_cell_angle_gamma                90
_cell_volume                     2444.01
_exptl_crystal_colour            colorless
_exptl_crystal_description       prism
_cell_formula_units_Z            4
loop_
_atom_site_label
_atom_site_type_symbol
_atom_site_fract_x
_atom_site_fract_y
_atom_site_fract_z
P1 P 1.15068(9) 0.02050(10) 0.95898(3)
O1 O 1.2593(2) 0.0302(3) 0.99848(7)
O2 O 1.2147(2) 0.0221(3) 0.91570(7)
O3 O 1.0366(2) 0.1551(3) 0.95336(7)
O4 O 1.0576(2) -0.1324(3) 0.95573(7)
O5 O 0.8678(3) -0.0305(3) 0.81115(7)
O6 O 0.7046(2) -0.0035(3) 0.85531(7)
H1 H 0.6335 -0.0100 0.8339
C1 C 1.1025(4) 0.0206(5) 0.87599(10)
H2 H 1.1220 -0.0637 0.8571
H3 H 1.1055 0.1178 0.8603
C2 C 0.9191(3) 0.1378(4) 0.91576(10)
H4 H 0.9109 0.2321 0.8983
H5 H 0.8268 0.1210 0.9256
C3 C 0.9521(4) -0.1485(4) 0.91557(10)
H6 H 0.8552 -0.1652 0.9224
H7 H 0.9772 -0.2377 0.8992
C4 C 0.9527(3) -0.0008(3) 0.88813(9)
C5 C 0.8348(4) -0.0131(4) 0.84658(10)
P2 P 0.91080(11) 0.49646(13) 0.82372(3)
O7 O 1.0150(3) 0.4764(4) 0.86362(9)
O8 O 0.8420(4) 0.3432(3) 0.80474(10)
O9 O 0.7750(3) 0.5977(4) 0.82963(7)
O10 O 0.9709(3) 0.5822(4) 0.78669(8)
C6 C 0.7333(5) 0.3608(5) 0.76470(14)
H8 H 0.6396 0.3205 0.7694
H9 H 0.7638 0.3021 0.7412
C7 C 0.6693(4) 0.6187(5) 0.78974(10)
H10 H 0.6594 0.7287 0.7828
H11 H 0.5747 0.5798 0.7940
C8 C 0.8643(4) 0.5989(6) 0.74632(11)
H12 H 0.8993 0.5447 0.7228
H13 H 0.8530 0.7081 0.7386
C9 C 0.7185(4) 0.5323(4) 0.75239(10)
C10 C 0.6033(4) 0.5554(5) 0.71121(11)
O11 O 0.5054(7) 0.4583(8) 0.7037(2)
O12 O 0.6099(9) 0.6825(11) 0.6909(3)
N1 N 0.5028(3) 0.8006(3) 0.96061(8)
H14 H 0.5655 0.8589 0.9790
N2 N 0.5012(3) 0.7655(3) 1.04740(8)
C11 C 0.5104(4) 0.8262(4) 0.91909(10)
H15 H 0.5743 0.9009 0.9116
C12 C 0.4235(4) 0.7417(4) 0.88690(10)
H16 H 0.4296 0.7583 0.8577
C13 C 0.3281(4) 0.6333(4) 0.89802(10)
H17 H 0.2697 0.5762 0.8763
C14 C 0.3182(3) 0.6079(4) 0.94211(9)
C15 C 0.2217(4) 0.4975(4) 0.95668(11)
H18 H 0.1603 0.4379 0.9363
C16 C 0.2182(4) 0.4786(4) 0.99920(11)
H19 H 0.1543 0.4060 1.0078
C17 C 0.3105(3) 0.5678(4) 1.03176(10)
C18 C 0.3133(4) 0.5502(4) 1.07702(11)
H20 H 0.2517 0.4791 1.0873
C19 C 0.4072(4) 0.6385(4) 1.10530(10)
H21 H 0.4103 0.6283 1.1352
C20 C 0.4988(4) 0.7445(4) 1.08938(10)
H22 H 0.5617 0.8039 1.1094
C21 C 0.4079(3) 0.6769(3) 1.01926(9)
C22 C 0.4103(3) 0.6958(3) 0.97354(9)
O15 O 0.3103(4) 0.5046(4) 0.79112(13)
H23 H 0.3580 0.5070 0.7702
H24 H 0.2572 0.4255 0.7859
O13? O 0.4766(12) 0.5159(19) 0.7151(4)
O14? O 0.6430(10) 0.553(3) 0.6759(3)
loop_
_geom_bond_atom_site_label_1
_geom_bond_atom_site_label_2
_geom_bond_site_symmetry_1
_geom_bond_site_symmetry_2
P1 O1 1_555 1_555
O2 P1 1_555 1_555
O3 P1 1_555 1_555
O4 P1 1_555 1_555
O5 C5 1_555 1_555
O6 H1 1_555 1_555
C1 O2 1_555 1_555
H2 C1 1_555 1_555
H3 C1 1_555 1_555
C2 O3 1_555 1_555
H4 C2 1_555 1_555
H5 C2 1_555 1_555
C3 O4 1_555 1_555
H6 C3 1_555 1_555
H7 C3 1_555 1_555
C4 C1 1_555 1_555
C5 O6 1_555 1_555
P2 O7 1_555 1_555
O8 P2 1_555 1_555
O9 P2 1_555 1_555
O10 P2 1_555 1_555
C6 O8 1_555 1_555
H8 C6 1_555 1_555
H9 C6 1_555 1_555
C7 O9 1_555 1_555
H10 C7 1_555 1_555
H11 C7 1_555 1_555
C8 O10 1_555 1_555
H12 C8 1_555 1_555
H13 C8 1_555 1_555
C9 C6 1_555 1_555
C10 C9 1_555 1_555
O11 C10 1_555 1_555
O12 C10 1_555 1_555
N1 H14 1_555 1_555
N2 C20 1_555 1_555
C11 N1 1_555 1_555
H15 C11 1_555 1_555
C12 C11 1_555 1_555
H16 C12 1_555 1_555
C13 C12 1_555 1_555
H17 C13 1_555 1_555
C14 C13 1_555 1_555
C15 C14 1_555 1_555
H18 C15 1_555 1_555
C16 C15 1_555 1_555
H19 C16 1_555 1_555
C17 C16 1_555 1_555
C18 C17 1_555 1_555
H20 C18 1_555 1_555
C19 C18 1_555 1_555
H21 C19 1_555 1_555
C20 C19 1_555 1_555
H22 C20 1_555 1_555
C21 N2 1_555 1_555
C22 N1 1_555 1_555
O15 H23 1_555 1_555
H24 O15 1_555 1_555
C2 C4 1_555 1_555
C3 C4 1_555 1_555
C4 C5 1_555 1_555
C7 C9 1_555 1_555
C8 C9 1_555 1_555
C14 C22 1_555 1_555
C17 C21 1_555 1_555
C21 C22 1_555 1_555

#END
