
#######################################################################
#
#                 Cambridge Crystallographic Data Centre
#                                CCDC 
#
#######################################################################
#
# If this CIF has been generated from an entry in the Cambridge 
# Structural Database, then it will include bibliographic, chemical, 
# crystal, experimental, refinement or atomic coordinate data resulting 
# from the CCDC's data processing and validation procedures.
#
#######################################################################

data_OFERIC
_chemical_formula_moiety         'C35 H34 O2 P2,H2 O1'
_chemical_name_systematic        
'(Spiro[4.4]nona-1,6-diene-1,6-diylbis(methylene))bis(diphenylphosphine) dioxide monohydrate'
_symmetry_cell_setting           orthorhombic
_symmetry_space_group_name_H-M   'P 21 21 21'
_symmetry_Int_Tables_number      19
_space_group_name_Hall           'P 2ac 2ab'
loop_
_symmetry_equiv_pos_site_id
_symmetry_equiv_pos_as_xyz
1 x,y,z
2 1/2-x,-y,1/2+z
3 -x,1/2+y,1/2-z
4 1/2+x,1/2-y,-z
_cell_length_a                   9.5375(7)
_cell_length_b                   10.1488(8)
_cell_length_c                   31.476(2)
_cell_angle_alpha                90
_cell_angle_beta                 90
_cell_angle_gamma                90
_cell_volume                     3046.69
_exptl_crystal_colour            colorless
_exptl_crystal_description       prismatic
_cell_formula_units_Z            4
loop_
_atom_site_label
_atom_site_type_symbol
_atom_site_fract_x
_atom_site_fract_y
_atom_site_fract_z
P1 P 0.58862(9) -0.21851(9) 0.15055(3)
P2 P 0.34471(7) 0.22837(7) 0.09633(2)
O1 O 0.6145(3) -0.3617(3) 0.15249(10)
O2 O 0.4942(2) 0.1990(2) 0.10584(7)
C1 C 0.5123(4) -0.1606(4) 0.10158(10)
H1 H 0.5107 -0.0650 0.1021
H2 H 0.5723 -0.1873 0.0782
C2 C 0.3661(3) -0.2096(3) 0.09303(10)
C3 C 0.2973(4) -0.3089(3) 0.11129(11)
H3 H 0.3334 -0.3583 0.1336
C4 C 0.1588(4) -0.3323(3) 0.09249(13)
H4 H 0.0879 -0.3436 0.1143
H5 H 0.1596 -0.4092 0.0742
C5 C 0.1340(4) -0.2063(3) 0.06695(13)
H6 H 0.0815 -0.1426 0.0836
H7 H 0.0824 -0.2252 0.0411
C6 C 0.2823(4) -0.1530(3) 0.05646(9)
C7 C 0.3406(6) -0.2006(4) 0.01382(11)
H8 H 0.4373 -0.2285 0.0170
H9 H 0.2862 -0.2747 0.0034
C8 C 0.3312(5) -0.0858(4) -0.01716(11)
H10 H 0.4168 -0.0768 -0.0335
H11 H 0.2527 -0.0963 -0.0365
C9 C 0.3103(3) 0.0283(3) 0.01135(10)
H12 H 0.3155 0.1152 0.0022
C10 C 0.2835(3) -0.0050(3) 0.05124(9)
C11 C 0.2411(3) 0.0806(3) 0.08795(9)
H13 H 0.2450 0.0279 0.1136
H14 H 0.1441 0.1067 0.0839
C12 C 0.7482(4) -0.1263(4) 0.15770(10)
C13 C 0.8647(4) -0.1890(5) 0.17333(13)
H15 H 0.8617 -0.2791 0.1785
C14 C 0.9871(4) -0.1192(6) 0.18147(15)
H16 H 1.0651 -0.1631 0.1921
C15 C 0.9940(4) 0.0113(6) 0.17415(13)
H17 H 1.0767 0.0568 0.1795
C16 C 0.8804(4) 0.0768(5) 0.15890(13)
H18 H 0.8861 0.1669 0.1537
C17 C 0.7570(4) 0.0108(4) 0.15110(12)
H19 H 0.6790 0.0569 0.1414
C18 C 0.4732(3) -0.1640(4) 0.19260(11)
C19 C 0.4300(4) -0.0355(4) 0.19664(12)
H20 H 0.4586 0.0267 0.1768
C20 C 0.3448(4) 0.0022(5) 0.22986(12)
H21 H 0.3161 0.0894 0.2325
C21 C 0.3037(5) -0.0883(7) 0.25840(15)
H22 H 0.2477 -0.0630 0.2812
C22 C 0.3429(6) -0.2160(7) 0.25439(15)
H23 H 0.3113 -0.2777 0.2740
C23 C 0.4285(4) -0.2556(4) 0.22178(13)
H24 H 0.4559 -0.3433 0.2194
C24 C 0.3246(3) 0.3280(3) 0.04899(9)
C25 C 0.1979(3) 0.3412(3) 0.02775(10)
H25 H 0.1170 0.3047 0.0393
C26 C 0.1914(4) 0.4075(3) -0.00993(11)
H26 H 0.1063 0.4154 -0.0241
C27 C 0.3109(4) 0.4626(3) -0.02691(11)
H27 H 0.3069 0.5064 -0.0528
C28 C 0.4353(4) 0.4529(4) -0.00555(12)
H28 H 0.5156 0.4918 -0.0167
C29 C 0.4422(3) 0.3853(3) 0.03248(11)
H29 H 0.5270 0.3788 0.0469
C30 C 0.2604(3) 0.3132(3) 0.13966(9)
C31 C 0.1219(4) 0.3514(4) 0.13834(12)
H30 H 0.0694 0.3352 0.1140
C32 C 0.0591(5) 0.4137(4) 0.17285(15)
H31 H -0.0353 0.4364 0.1720
C33 C 0.1385(7) 0.4412(5) 0.20816(13)
H32 H 0.0978 0.4840 0.2312
C34 C 0.2790(7) 0.4054(5) 0.20971(13)
H33 H 0.3329 0.4244 0.2336
C35 C 0.3379(5) 0.3408(4) 0.17512(11)
H34 H 0.4316 0.3159 0.1761
O3 O 0.7139(5) 0.3879(5) 0.12698(15)
H35 H 0.643(17) 0.445(16) 0.133(3)
H36 H 0.739(2) 0.392(2) 0.1038(6)
loop_
_geom_bond_atom_site_label_1
_geom_bond_atom_site_label_2
_geom_bond_site_symmetry_1
_geom_bond_site_symmetry_2
P1 O1 1_555 1_555
P2 O2 1_555 1_555
C1 P1 1_555 1_555
H1 C1 1_555 1_555
H2 C1 1_555 1_555
C2 C1 1_555 1_555
C3 C2 1_555 1_555
H3 C3 1_555 1_555
C4 C3 1_555 1_555
H4 C4 1_555 1_555
H5 C4 1_555 1_555
C5 C4 1_555 1_555
H6 C5 1_555 1_555
H7 C5 1_555 1_555
C6 C2 1_555 1_555
C7 C6 1_555 1_555
H8 C7 1_555 1_555
H9 C7 1_555 1_555
C8 C7 1_555 1_555
H10 C8 1_555 1_555
H11 C8 1_555 1_555
C9 C8 1_555 1_555
H12 C9 1_555 1_555
C10 C6 1_555 1_555
C11 P2 1_555 1_555
H13 C11 1_555 1_555
H14 C11 1_555 1_555
C12 P1 1_555 1_555
C13 C12 1_555 1_555
H15 C13 1_555 1_555
C14 C13 1_555 1_555
H16 C14 1_555 1_555
C15 C14 1_555 1_555
H17 C15 1_555 1_555
C16 C15 1_555 1_555
H18 C16 1_555 1_555
C17 C12 1_555 1_555
H19 C17 1_555 1_555
C18 P1 1_555 1_555
C19 C18 1_555 1_555
H20 C19 1_555 1_555
C20 C19 1_555 1_555
H21 C20 1_555 1_555
C21 C20 1_555 1_555
H22 C21 1_555 1_555
C22 C21 1_555 1_555
H23 C22 1_555 1_555
C23 C18 1_555 1_555
H24 C23 1_555 1_555
C24 P2 1_555 1_555
C25 C24 1_555 1_555
H25 C25 1_555 1_555
C26 C25 1_555 1_555
H26 C26 1_555 1_555
C27 C26 1_555 1_555
H27 C27 1_555 1_555
C28 C27 1_555 1_555
H28 C28 1_555 1_555
C29 C24 1_555 1_555
H29 C29 1_555 1_555
C30 P2 1_555 1_555
C31 C30 1_555 1_555
H30 C31 1_555 1_555
C32 C31 1_555 1_555
H31 C32 1_555 1_555
C33 C32 1_555 1_555
H32 C33 1_555 1_555
C34 C33 1_555 1_555
H33 C34 1_555 1_555
C35 C30 1_555 1_555
H34 C35 1_555 1_555
O3 H35 1_555 1_555
H36 O3 1_555 1_555
C5 C6 1_555 1_555
C9 C10 1_555 1_555
C10 C11 1_555 1_555
C16 C17 1_555 1_555
C22 C23 1_555 1_555
C28 C29 1_555 1_555
C34 C35 1_555 1_555

#END
