
#######################################################################
#
#                 Cambridge Crystallographic Data Centre
#                                CCDC 
#
#######################################################################
#
# If this CIF has been generated from an entry in the Cambridge 
# Structural Database, then it will include bibliographic, chemical, 
# crystal, experimental, refinement or atomic coordinate data resulting 
# from the CCDC's data processing and validation procedures.
#
#######################################################################

data_OFEZOQ
_chemical_formula_moiety         'C17 H15 F3 O4'
_chemical_name_systematic        
'Methyl 1-(2-methoxy-2-oxoethyl)-2-(4-(trifluoromethyl)phenyl)cyclopenta-2,4-diene-1-carboxylate'
_symmetry_cell_setting           monoclinic
_symmetry_space_group_name_H-M   'P 21/c'
_symmetry_Int_Tables_number      14
_space_group_name_Hall           '-P 2ybc'
loop_
_symmetry_equiv_pos_site_id
_symmetry_equiv_pos_as_xyz
1 x,y,z
2 -x,1/2+y,1/2-z
3 -x,-y,-z
4 x,1/2-y,1/2+z
_cell_length_a                   11.4167(12)
_cell_length_b                   18.9563(19)
_cell_length_c                   7.8459(8)
_cell_angle_alpha                90
_cell_angle_beta                 106.362(2)
_cell_angle_gamma                90
_cell_volume                     1629.23
_exptl_crystal_colour            colorless
_exptl_crystal_description       prismatic
_cell_formula_units_Z            4
loop_
_atom_site_label
_atom_site_type_symbol
_atom_site_fract_x
_atom_site_fract_y
_atom_site_fract_z
F1 F 0.7666(3) 0.1530(2) 0.8073(5)
F2 F 0.8049(4) 0.24409(18) 0.6975(8)
F3 F 0.8413(4) 0.11787(19) 0.6608(6)
O1 O 0.1870(8) 0.0595(4) 0.4361(12)
O2 O 0.02613(15) 0.05760(10) 0.2079(3)
O3 O 0.32957(14) 0.00211(7) -0.0924(2)
O4 O 0.36655(13) 0.11373(6) -0.14569(19)
C1 C 0.24168(17) 0.09488(9) 0.0436(3)
C2 C 0.12459(19) 0.12359(12) -0.0779(3)
H1 H 0.0664 0.0971 -0.1598
C3 C 0.1171(2) 0.19234(12) -0.0506(3)
H2 H 0.0526 0.2212 -0.1100
C4 C 0.22352(19) 0.21547(11) 0.0847(3)
H3 H 0.2376 0.2616 0.1258
C5 C 0.29978(17) 0.16101(9) 0.1433(3)
C6 C 0.41960(16) 0.16345(9) 0.2732(2)
C7 C 0.45409(18) 0.22209(9) 0.3844(3)
H4 H 0.3984 0.2585 0.3776
C8 C 0.5677(2) 0.22728(10) 0.5029(3)
H5 H 0.5884 0.2672 0.5740
C9 C 0.65146(18) 0.17350(10) 0.5172(3)
C10 C 0.62019(18) 0.11509(10) 0.4094(3)
H6 H 0.6762 0.0787 0.4179
C11 C 0.50632(18) 0.11033(9) 0.2892(3)
H7 H 0.4869 0.0707 0.2169
C12 C 0.7731(2) 0.17797(15) 0.6500(3)
C13 C 0.21726(19) 0.03595(11) 0.1656(3)
H8 H 0.1745 -0.0025 0.0925
H9 H 0.2947 0.0179 0.2382
C14 C 0.1435(2) 0.06067(14) 0.2839(4)
C15 C -0.0528(3) 0.08522(19) 0.3069(5)
H10 H -0.0558 0.0526 0.3993
H11 H -0.1334 0.0917 0.2286
H12 H -0.0216 0.1297 0.3587
C16 C 0.31681(16) 0.06366(9) -0.0711(2)
C17 C 0.4419(2) 0.09096(12) -0.2557(3)
H13 H 0.5133 0.0677 -0.1834
H14 H 0.4659 0.1312 -0.3122
H15 H 0.3965 0.0589 -0.3447
F4? F 0.8581(4) 0.1595(5) 0.5901(9)
F5? F 0.7798(7) 0.2040(8) 0.7967(12)
F6? F 0.8533(5) 0.2162(5) 0.5959(11)
O5? O 0.1775(8) 0.1009(3) 0.4203(12)
loop_
_geom_bond_atom_site_label_1
_geom_bond_atom_site_label_2
_geom_bond_site_symmetry_1
_geom_bond_site_symmetry_2
F1 C12 1_555 1_555
F2 C12 1_555 1_555
F3 C12 1_555 1_555
O1 C14 1_555 1_555
O2 C14 1_555 1_555
O3 C16 1_555 1_555
O4 C16 1_555 1_555
C1 C2 1_555 1_555
C2 H1 1_555 1_555
C3 C2 1_555 1_555
H2 C3 1_555 1_555
C4 C3 1_555 1_555
H3 C4 1_555 1_555
C5 C1 1_555 1_555
C6 C5 1_555 1_555
C7 C6 1_555 1_555
H4 C7 1_555 1_555
C8 C7 1_555 1_555
H5 C8 1_555 1_555
C9 C8 1_555 1_555
C10 C9 1_555 1_555
H6 C10 1_555 1_555
C11 C6 1_555 1_555
H7 C11 1_555 1_555
C12 C9 1_555 1_555
C13 C1 1_555 1_555
H8 C13 1_555 1_555
H9 C13 1_555 1_555
C14 C13 1_555 1_555
C15 O2 1_555 1_555
H10 C15 1_555 1_555
H11 C15 1_555 1_555
H12 C15 1_555 1_555
C16 C1 1_555 1_555
C17 O4 1_555 1_555
H13 C17 1_555 1_555
H14 C17 1_555 1_555
H15 C17 1_555 1_555
C4 C5 1_555 1_555
C10 C11 1_555 1_555

#END
