
#######################################################################
#
#                 Cambridge Crystallographic Data Centre
#                                CCDC 
#
#######################################################################
#
# If this CIF has been generated from an entry in the Cambridge 
# Structural Database, then it will include bibliographic, chemical, 
# crystal, experimental, refinement or atomic coordinate data resulting 
# from the CCDC's data processing and validation procedures.
#
#######################################################################

data_OFEZIK
_chemical_formula_moiety         'C16 H15 N1 O6'
_chemical_name_systematic        
'Methyl 1-(2-methoxy-2-oxoethyl)-2-(4-nitrophenyl)cyclopenta-2,4-diene-1-carboxylate'
_symmetry_cell_setting           monoclinic
_symmetry_space_group_name_H-M   'P 21/c'
_symmetry_Int_Tables_number      14
_space_group_name_Hall           '-P 2ybc'
loop_
_symmetry_equiv_pos_site_id
_symmetry_equiv_pos_as_xyz
1 x,y,z
2 -x,1/2+y,1/2-z
3 -x,-y,-z
4 x,1/2-y,1/2+z
_cell_length_a                   13.5543(13)
_cell_length_b                   12.6860(12)
_cell_length_c                   8.9203(9)
_cell_angle_alpha                90
_cell_angle_beta                 96.517(2)
_cell_angle_gamma                90
_cell_volume                     1523.93
_exptl_crystal_colour            colorless
_exptl_crystal_description       prismatic
_cell_formula_units_Z            4
loop_
_atom_site_label
_atom_site_type_symbol
_atom_site_fract_x
_atom_site_fract_y
_atom_site_fract_z
N1 N -0.02898(12) 0.22005(16) -0.1650(2)
O1 O 0.37041(12) 0.54888(12) 0.58696(15)
O2 O 0.27081(10) 0.41602(10) 0.62741(13)
O3 O 0.38557(10) 0.36106(10) 0.34302(15)
O4 O 0.41904(9) 0.43765(10) 0.13021(13)
O5 O -0.08649(10) 0.24560(14) -0.27459(19)
O6 O -0.02472(16) 0.13113(16) -0.1116(2)
C1 C 0.29884(11) 0.52032(11) 0.26122(17)
C2 C 0.35279(12) 0.62535(12) 0.2718(2)
H1 H 0.4022 0.6442 0.3481
C3 C 0.31950(13) 0.68603(13) 0.1570(2)
H2 H 0.3408 0.7545 0.1416
C4 C 0.24493(13) 0.63019(13) 0.0589(2)
H3 H 0.2113 0.6575 -0.0292
C5 C 0.23112(11) 0.53308(12) 0.11331(17)
C6 C 0.16557(10) 0.45123(12) 0.04268(16)
C7 C 0.10137(12) 0.47393(13) -0.08745(18)
H4 H 0.1011 0.5414 -0.1282
C8 C 0.03883(12) 0.39910(15) -0.1562(2)
H5 H -0.0034 0.4154 -0.2427
C9 C 0.03969(11) 0.29956(14) -0.09524(19)
C10 C 0.10330(13) 0.27223(14) 0.02953(19)
H6 H 0.1043 0.2038 0.0671
C11 C 0.16563(12) 0.34833(13) 0.09793(18)
H7 H 0.2087 0.3307 0.1829
C12 C 0.23845(12) 0.50435(14) 0.39587(18)
H8 H 0.1941 0.5639 0.4012
H9 H 0.1979 0.4416 0.3783
C13 C 0.30167(13) 0.49345(13) 0.54473(18)
C14 C 0.32930(17) 0.39887(17) 0.7706(2)
H10 H 0.3965 0.3828 0.7542
H11 H 0.3020 0.3410 0.8217
H12 H 0.3284 0.4613 0.8311
C15 C 0.37245(11) 0.43004(12) 0.25221(17)
C16 C 0.48880(15) 0.35513(16) 0.1067(2)
H13 H 0.5327 0.3444 0.1977
H14 H 0.5268 0.3750 0.0266
H15 H 0.4534 0.2910 0.0801
loop_
_geom_bond_atom_site_label_1
_geom_bond_atom_site_label_2
_geom_bond_site_symmetry_1
_geom_bond_site_symmetry_2
N1 O5 1_555 1_555
O1 C13 1_555 1_555
O2 C13 1_555 1_555
O3 C15 1_555 1_555
O4 C15 1_555 1_555
O6 N1 1_555 1_555
C1 C2 1_555 1_555
C2 H1 1_555 1_555
C3 C2 1_555 1_555
H2 C3 1_555 1_555
C4 C3 1_555 1_555
H3 C4 1_555 1_555
C5 C1 1_555 1_555
C6 C5 1_555 1_555
C7 C6 1_555 1_555
H4 C7 1_555 1_555
C8 C7 1_555 1_555
H5 C8 1_555 1_555
C9 N1 1_555 1_555
C10 C9 1_555 1_555
H6 C10 1_555 1_555
C11 C6 1_555 1_555
H7 C11 1_555 1_555
C12 C1 1_555 1_555
H8 C12 1_555 1_555
H9 C12 1_555 1_555
C13 C12 1_555 1_555
C14 O2 1_555 1_555
H10 C14 1_555 1_555
H11 C14 1_555 1_555
H12 C14 1_555 1_555
C15 C1 1_555 1_555
C16 O4 1_555 1_555
H13 C16 1_555 1_555
H14 C16 1_555 1_555
H15 C16 1_555 1_555
C4 C5 1_555 1_555
C8 C9 1_555 1_555
C10 C11 1_555 1_555

#END
