
#######################################################################
#
#                 Cambridge Crystallographic Data Centre
#                                CCDC 
#
#######################################################################
#
# If this CIF has been generated from an entry in the Cambridge 
# Structural Database, then it will include bibliographic, chemical, 
# crystal, experimental, refinement or atomic coordinate data resulting 
# from the CCDC's data processing and validation procedures.
#
#######################################################################

data_OFEZAC
_chemical_formula_moiety         'C35 H53 N1 O9,C1 H1 Cl3'
_chemical_name_systematic        
'23-(1,2-Dihydroxy-3-methylpent-3-en-1-yl)-2,21,22-trihydroxy-5,7,13,20-tetramethyl-14,25-dioxa-24-azapentacyclo[22.2.2.0^3,12^.0^4,9^.0^13,15^]octacosa-1,10-diene-26,27-dione chloroform solvate'
_symmetry_cell_setting           orthorhombic
_symmetry_space_group_name_H-M   'P 21 21 21'
_symmetry_Int_Tables_number      19
_space_group_name_Hall           'P 2ac 2ab'
loop_
_symmetry_equiv_pos_site_id
_symmetry_equiv_pos_as_xyz
1 x,y,z
2 1/2-x,-y,1/2+z
3 1/2+x,1/2-y,-z
4 -x,1/2+y,1/2-z
_cell_length_a                   18.747(3)
_cell_length_b                   20.288(2)
_cell_length_c                   10.5886(17)
_cell_angle_alpha                90
_cell_angle_beta                 90
_cell_angle_gamma                90
_cell_volume                     4027.26
_cell_formula_units_Z            4
loop_
_atom_site_label
_atom_site_type_symbol
_atom_site_fract_x
_atom_site_fract_y
_atom_site_fract_z
C1 C 0.5508(3) 0.9677(3) 0.4725(6)
C2 C 0.5061(4) 0.9640(4) 0.5861(6)
C3 C 0.4325(4) 0.9792(4) 0.5849(6)
C4 C 0.3907(4) 1.0064(4) 0.4759(7)
H1 H 0.4222 1.0093 0.4022
C5 C 0.3266(4) 0.9602(4) 0.4429(7)
H2 H 0.2929 0.9619 0.5136
C6 C 0.3391(4) 0.8892(5) 0.4119(9)
H3 H 0.2919 0.8709 0.3928
C7 C 0.3828(5) 0.8818(6) 0.2896(9)
H4 H 0.4296 0.9010 0.3032
H5 H 0.3897 0.8352 0.2732
C8 C 0.3516(6) 0.9116(6) 0.1790(9)
H6 H 0.3074 0.8877 0.1606
C9 C 0.3316(5) 0.9820(7) 0.2032(10)
H7 H 0.3039 0.9983 0.1324
H8 H 0.3747 1.0083 0.2086
C10 C 0.2886(5) 0.9909(5) 0.3242(9)
H9 H 0.2439 0.9666 0.3127
C11 C 0.2690(5) 1.0612(6) 0.3470(12)
H10 H 0.2313 1.0794 0.3018
C12 C 0.3037(5) 1.0985(6) 0.4296(11)
H11 H 0.2888 1.1419 0.4391
C13 C 0.3670(4) 1.0749(4) 0.5111(8)
H12 H 0.3517 1.0744 0.5997
C14 C 0.4293(5) 1.1265(4) 0.4969(9)
C15 C 0.4409(5) 1.1736(4) 0.6014(10)
H13 H 0.4056 1.1713 0.6696
C16 C 0.4744(6) 1.2394(4) 0.5840(12)
H14 H 0.4372 1.2721 0.5732
H15 H 0.5027 1.2388 0.5072
C17 C 0.5226(7) 1.2604(4) 0.6949(12)
H16 H 0.5325 1.3072 0.6875
H17 H 0.4967 1.2537 0.7732
C18 C 0.5937(6) 1.2230(5) 0.7023(11)
H18 H 0.6177 1.2352 0.7801
H19 H 0.5838 1.1761 0.7061
C19 C 0.6436(6) 1.2360(4) 0.5928(12)
H20 H 0.6632 1.2800 0.6024
H21 H 0.6159 1.2356 0.5154
C20 C 0.7064(6) 1.1867(4) 0.5781(11)
H22 H 0.7377 1.1907 0.6519
C21 C 0.6778(5) 1.1166(4) 0.5730(8)
H23 H 0.6564 1.1063 0.6551
C22 C 0.7353(4) 1.0640(3) 0.5440(6)
H24 H 0.7805 1.0812 0.5768
C23 C 0.7206(3) 0.9997(4) 0.6144(6)
H25 H 0.7326 1.0095 0.7025
C24 C 0.7702(4) 0.9442(3) 0.5784(6)
H26 H 0.7603 0.9078 0.6368
C25 C 0.8491(4) 0.9638(4) 0.5987(7)
H27 H 0.8591 1.0031 0.5479
C26 C 0.9029(5) 0.9125(4) 0.5672(8)
C27 C 0.9585(5) 0.9289(5) 0.4999(8)
H28 H 0.9602 0.9728 0.4753
C28 C 1.0209(6) 0.8871(8) 0.4557(14)
H29 H 1.0535 0.9140 0.4085
H30 H 1.0036 0.8520 0.4029
H31 H 1.0450 0.8687 0.5276
C29 C 0.5375(4) 0.9434(3) 0.6996(6)
C30 C 0.6176(4) 0.9360(4) 0.7039(7)
H32 H 0.6357 0.9440 0.7884
H33 H 0.6319 0.8922 0.6773
C31 C 0.3682(6) 0.8480(5) 0.5204(10)
H34 H 0.3744 0.8033 0.4927
H35 H 0.3352 0.8491 0.5897
H36 H 0.4133 0.8655 0.5471
C32 C 0.3975(8) 0.9096(8) 0.0590(11)
H37 H 0.3722 0.9304 -0.0090
H38 H 0.4074 0.8646 0.0372
H39 H 0.4415 0.9325 0.0738
C33 C 0.4550(6) 1.1403(5) 0.3633(9)
H40 H 0.4434 1.1036 0.3099
H41 H 0.5057 1.1468 0.3639
H42 H 0.4320 1.1793 0.3318
C34 C 0.7490(7) 1.2059(5) 0.4597(14)
H43 H 0.7658 1.2504 0.4681
H44 H 0.7189 1.2025 0.3867
H45 H 0.7890 1.1767 0.4504
C35 C 0.8908(6) 0.8456(5) 0.6234(12)
H46 H 0.8458 0.8451 0.6667
H47 H 0.9284 0.8358 0.6820
H48 H 0.8905 0.8132 0.5574
O1 O 0.5313(2) 0.9713(3) 0.3636(4)
O2 O 0.6220(3) 0.9641(3) 0.4899(4)
O3 O 0.3965(3) 0.9725(3) 0.6901(5)
O4 O 0.4848(3) 1.1159(3) 0.5877(5)
O5 O 0.6234(3) 1.1110(3) 0.4782(5)
H49 H 0.5785 1.1062 0.5067
O6 O 0.7450(3) 1.0542(2) 0.4132(5)
H50 H 0.7014 1.0541 0.3589
O7 O 0.7619(3) 0.9181(3) 0.4520(5)
H51 H 0.7440 0.9600 0.4249
O8 O 0.8518(3) 0.9817(3) 0.7288(5)
H52 H 0.8939 0.9963 0.7460
O9 O 0.5033(3) 0.9328(3) 0.7985(5)
N1 N 0.6432(3) 0.9853(3) 0.6167(5)
C36 C 0.6700(5) 0.7819(8) 0.4463(10)
Cl1 Cl 0.6971(2) 0.7220(3) 0.3558(4)
Cl2 Cl 0.5762(3) 0.79805(19) 0.4437(6)
Cl3 Cl 0.6807(4) 0.7577(2) 0.6082(5)
loop_
_geom_bond_atom_site_label_1
_geom_bond_atom_site_label_2
_geom_bond_site_symmetry_1
_geom_bond_site_symmetry_2
C1 C2 1_555 1_555
C2 C3 1_555 1_555
C3 C4 1_555 1_555
C4 H1 1_555 1_555
C5 C4 1_555 1_555
H2 C5 1_555 1_555
C6 C5 1_555 1_555
H3 C6 1_555 1_555
C7 C6 1_555 1_555
H4 C7 1_555 1_555
H5 C7 1_555 1_555
C8 C7 1_555 1_555
H6 C8 1_555 1_555
C9 C8 1_555 1_555
H7 C9 1_555 1_555
H8 C9 1_555 1_555
C10 C5 1_555 1_555
H9 C10 1_555 1_555
C11 C10 1_555 1_555
H10 C11 1_555 1_555
C12 C11 1_555 1_555
H11 C12 1_555 1_555
C13 C4 1_555 1_555
H12 C13 1_555 1_555
C14 C13 1_555 1_555
C15 C14 1_555 1_555
H13 C15 1_555 1_555
C16 C15 1_555 1_555
H14 C16 1_555 1_555
H15 C16 1_555 1_555
C17 C16 1_555 1_555
H16 C17 1_555 1_555
H17 C17 1_555 1_555
C18 C17 1_555 1_555
H18 C18 1_555 1_555
H19 C18 1_555 1_555
C19 C18 1_555 1_555
H20 C19 1_555 1_555
H21 C19 1_555 1_555
C20 C19 1_555 1_555
H22 C20 1_555 1_555
C21 C20 1_555 1_555
H23 C21 1_555 1_555
C22 C21 1_555 1_555
H24 C22 1_555 1_555
C23 C22 1_555 1_555
H25 C23 1_555 1_555
C24 C23 1_555 1_555
H26 C24 1_555 1_555
C25 C24 1_555 1_555
H27 C25 1_555 1_555
C26 C25 1_555 1_555
C27 C26 1_555 1_555
H28 C27 1_555 1_555
C28 C27 1_555 1_555
H29 C28 1_555 1_555
H30 C28 1_555 1_555
H31 C28 1_555 1_555
C29 C2 1_555 1_555
C30 C29 1_555 1_555
H32 C30 1_555 1_555
H33 C30 1_555 1_555
C31 C6 1_555 1_555
H34 C31 1_555 1_555
H35 C31 1_555 1_555
H36 C31 1_555 1_555
C32 C8 1_555 1_555
H37 C32 1_555 1_555
H38 C32 1_555 1_555
H39 C32 1_555 1_555
C33 C14 1_555 1_555
H40 C33 1_555 1_555
H41 C33 1_555 1_555
H42 C33 1_555 1_555
C34 C20 1_555 1_555
H43 C34 1_555 1_555
H44 C34 1_555 1_555
H45 C34 1_555 1_555
C35 C26 1_555 1_555
H46 C35 1_555 1_555
H47 C35 1_555 1_555
H48 C35 1_555 1_555
O1 C1 1_555 1_555
O2 C1 1_555 1_555
O3 C3 1_555 1_555
O4 C14 1_555 1_555
O5 C21 1_555 1_555
H49 O5 1_555 1_555
O6 C22 1_555 1_555
H50 O6 1_555 1_555
O7 C24 1_555 1_555
H51 O7 1_555 1_555
O8 C25 1_555 1_555
H52 O8 1_555 1_555
O9 C29 1_555 1_555
N1 C23 1_555 1_555
C36 Cl1 1_555 1_555
Cl2 C36 1_555 1_555
Cl3 C36 1_555 1_555
C9 C10 1_555 1_555
C12 C13 1_555 1_555
C15 O4 1_555 1_555
C30 N1 1_555 1_555
O2 N1 1_555 1_555

#END
