
#######################################################################
#
#                 Cambridge Crystallographic Data Centre
#                                CCDC 
#
#######################################################################
#
# If this CIF has been generated from an entry in the Cambridge 
# Structural Database, then it will include bibliographic, chemical, 
# crystal, experimental, refinement or atomic coordinate data resulting 
# from the CCDC's data processing and validation procedures.
#
#######################################################################

data_OFICUD
_chemical_name_common            
14,17-Dihydroxy-11,11,16,16-tetramethyl-6-methylene-10,12,21-trioxahexacyclo[11.6.2.0$1,15!.0$2,8!.0$5,9!.0$8,13!]henicos-18-en-7-one
_chemical_formula_moiety         'C23 H30 O6'
_chemical_name_systematic        
(3S,3aR,3a1R,6aR,7S,7aS,9S,11aR,11bS)-7,9-dihydroxy-5,5,8,8-tetramethyl-15-methylene-2,3,3a,7,7a,8,9,11b-octahydro-1H-6a,11a-(epoxymethano)-3,3a1-ethanophenanthro[1,10-de][1,3]dioxin-14-one
_symmetry_cell_setting           orthorhombic
_symmetry_space_group_name_H-M   'P 21 21 21'
_symmetry_Int_Tables_number      19
_space_group_name_Hall           'P 2ac 2ab'
loop_
_symmetry_equiv_pos_site_id
_symmetry_equiv_pos_as_xyz
1 x,y,z
2 1/2+x,1/2-y,-z
3 -x,1/2+y,1/2-z
4 1/2-x,-y,1/2+z
_cell_length_a                   11.627(2)
_cell_length_b                   12.127(2)
_cell_length_c                   14.846(3)
_cell_angle_alpha                90
_cell_angle_beta                 90
_cell_angle_gamma                90
_cell_volume                     2093.3
_exptl_crystal_colour            colorless
_exptl_crystal_description       rod
_cell_formula_units_Z            4
loop_
_atom_site_label
_atom_site_type_symbol
_atom_site_fract_x
_atom_site_fract_y
_atom_site_fract_z
O1 O -0.19545(11) -0.55484(11) -0.79553(9)
C1 C -0.31742(16) -0.55481(15) -0.81213(12)
C2 C -0.36948(14) -0.47645(14) -0.74251(11)
C3 C -0.34136(14) -0.51878(14) -0.64810(11)
O2 O -0.22299(10) -0.53479(11) -0.63774(8)
C4 C -0.16183(17) -0.59291(17) -0.70875(14)
C5 C -0.1745(2) -0.71699(18) -0.70031(17)
C6 C -0.03802(18) -0.5562(2) -0.69715(17)
O3 O -0.39479(11) -0.62408(10) -0.63725(9)
C7 C -0.51823(16) -0.62000(15) -0.64347(15)
C8 C -0.55935(15) -0.50244(14) -0.66405(12)
C9 C -0.50433(16) -0.46571(16) -0.75420(12)
C10 C -0.54353(18) -0.5253(2) -0.84006(14)
C11 C -0.46904(19) -0.4966(2) -0.92214(14)
C12 C -0.33784(18) -0.49296(17) -0.89983(13)
C13 C -0.29812(18) -0.37899(17) -0.87390(13)
C14 C -0.31570(15) -0.36829(15) -0.77471(12)
O4 O -0.29389(13) -0.28703(11) -0.72955(9)
C15 C -0.2487(2) -0.30151(19) -0.92364(16)
C16 C -0.51509(15) -0.42181(13) -0.59034(11)
C17 C -0.38659(15) -0.44633(15) -0.57082(12)
O5 O -0.32125(12) -0.34908(11) -0.55733(9)
C18 C -0.59205(17) -0.40970(15) -0.50616(13)
C19 C -0.71230(17) -0.37334(16) -0.54011(14)
O6 O -0.70915(14) -0.26409(11) -0.57588(10)
C20 C -0.75574(16) -0.44595(18) -0.61433(16)
C21 C -0.68904(16) -0.50220(16) -0.66921(14)
C22 C -0.5431(2) -0.32028(18) -0.44385(14)
C23 C -0.6071(2) -0.51486(19) -0.45069(16)
H1 H -0.3503 -0.6330 -0.8130
H2 H -0.1486 -0.7392 -0.6408
H3 H -0.1285 -0.7524 -0.7481
H4 H -0.2535 -0.7405 -0.7093
H5 H -0.0147 -0.5775 -0.6382
H6 H 0.0049 -0.5942 -0.7450
H7 H -0.0362 -0.4746 -0.7044
H8 H -0.5415 -0.6710 -0.6923
H9 H -0.5506 -0.6457 -0.5844
H10 H -0.5227 -0.3865 -0.7608
H11 H -0.6223 -0.5071 -0.8508
H12 H -0.5404 -0.6050 -0.8290
H13 H -0.4801 -0.5514 -0.9708
H14 H -0.4902 -0.4226 -0.9466
H15 H -0.2939 -0.5195 -0.9530
H16 H -0.2337 -0.3148 -0.9856
H17 H -0.2269 -0.2339 -0.8940
H18 H -0.5142 -0.3484 -0.6212
H19 H -0.3814 -0.4928 -0.5153
H20 H -0.7673 -0.3807 -0.4881
H21 H -0.8353 -0.4493 -0.6210
H22 H -0.7205 -0.5448 -0.7155
H23 H -0.5969 -0.3003 -0.3959
H24 H -0.5270 -0.2536 -0.4776
H25 H -0.4744 -0.3441 -0.4095
H26 H -0.6418 -0.5007 -0.3921
H27 H -0.6536 -0.5650 -0.4855
H28 H -0.5353 -0.5489 -0.4405
H29 H -0.3158 -0.3253 -0.6133
H30 H -0.7405 -0.2302 -0.5320
loop_
_geom_bond_atom_site_label_1
_geom_bond_atom_site_label_2
_geom_bond_site_symmetry_1
_geom_bond_site_symmetry_2
O1 C1 1_555 1_555
C1 C2 1_555 1_555
C2 C3 1_555 1_555
C3 O2 1_555 1_555
O2 C4 1_555 1_555
C4 O1 1_555 1_555
C5 C4 1_555 1_555
C6 C4 1_555 1_555
O3 C3 1_555 1_555
C7 O3 1_555 1_555
C8 C7 1_555 1_555
C9 C2 1_555 1_555
C10 C9 1_555 1_555
C11 C10 1_555 1_555
C12 C1 1_555 1_555
C13 C12 1_555 1_555
C14 C2 1_555 1_555
O4 C14 1_555 1_555
C15 C13 1_555 1_555
C16 C8 1_555 1_555
C17 C3 1_555 1_555
O5 C17 1_555 1_555
C18 C16 1_555 1_555
C19 C18 1_555 1_555
O6 C19 1_555 1_555
C20 C19 1_555 1_555
C21 C8 1_555 1_555
C22 C18 1_555 1_555
C23 C18 1_555 1_555
H1 C1 1_555 1_555
H2 C5 1_555 1_555
H3 C5 1_555 1_555
H4 C5 1_555 1_555
H5 C6 1_555 1_555
H6 C6 1_555 1_555
H7 C6 1_555 1_555
H8 C7 1_555 1_555
H9 C7 1_555 1_555
H10 C9 1_555 1_555
H11 C10 1_555 1_555
H12 C10 1_555 1_555
H13 C11 1_555 1_555
H14 C11 1_555 1_555
H15 C12 1_555 1_555
H16 C15 1_555 1_555
H17 C15 1_555 1_555
H18 C16 1_555 1_555
H19 C17 1_555 1_555
H20 C19 1_555 1_555
H21 C20 1_555 1_555
H22 C21 1_555 1_555
H23 C22 1_555 1_555
H24 C22 1_555 1_555
H25 C22 1_555 1_555
H26 C23 1_555 1_555
H27 C23 1_555 1_555
H28 C23 1_555 1_555
H29 O5 1_555 1_555
H30 O6 1_555 1_555
C8 C9 1_555 1_555
C11 C12 1_555 1_555
C13 C14 1_555 1_555
C16 C17 1_555 1_555
C20 C21 1_555 1_555

#END
