
#######################################################################
#
#                 Cambridge Crystallographic Data Centre
#                                CCDC 
#
#######################################################################
#
# If this CIF has been generated from an entry in the Cambridge 
# Structural Database, then it will include bibliographic, chemical, 
# crystal, experimental, refinement or atomic coordinate data resulting 
# from the CCDC's data processing and validation procedures.
#
#######################################################################

data_OFIMEW
_chemical_name_common            
"Diethyl 6,6'-(2,6-pyridinediylbis(carbonylcarbamoyl)) di(2-pyridinecarboxylate)"
_chemical_formula_moiety         'C25 H21 N5 O8'
_chemical_name_systematic        
"Ethyl 6-(6'-(6''-(ethoxycarbonyl)pyrid-2''-ylcarbonylcarbamoyl)pyrid-2'-ylcarbonylcarbamoyl)pyridine-2-carboxylate"
_symmetry_cell_setting           orthorhombic
_symmetry_space_group_name_H-M   'P 21 21 21'
_symmetry_Int_Tables_number      19
_space_group_name_Hall           'P 2ac 2ab'
loop_
_symmetry_equiv_pos_site_id
_symmetry_equiv_pos_as_xyz
1 x,y,z
2 1/2+x,1/2-y,-z
3 -x,1/2+y,1/2-z
4 1/2-x,-y,1/2+z
_cell_length_a                   7.7201(14)
_cell_length_b                   8.3506(15)
_cell_length_c                   37.025(7)
_cell_angle_alpha                90
_cell_angle_beta                 90
_cell_angle_gamma                90
_cell_volume                     2386.91
_exptl_crystal_colour            colorless
_exptl_crystal_description       prism
_cell_formula_units_Z            4
_exptl_crystal_recrystallization_method 'dimethylformamide/diethyl ether'
loop_
_atom_site_label
_atom_site_type_symbol
_atom_site_fract_x
_atom_site_fract_y
_atom_site_fract_z
O1 O 0.92206(18) -0.12927(16) 0.92875(3)
O2 O 0.69883(16) -0.30352(16) 0.92689(3)
O3 O 1.07311(18) -0.03888(15) 0.76616(3)
O4 O 1.23248(17) 0.26482(17) 0.78158(3)
O5 O 1.01897(17) 0.45990(16) 0.96021(3)
O6 O 0.72500(18) 0.28126(19) 0.98007(3)
O7 O 0.41043(19) -0.11837(16) 0.82786(3)
O8 O 0.58269(16) 0.09617(15) 0.82103(3)
N1 N 0.92618(18) -0.13640(17) 0.85389(3)
N2 N 1.0676(2) 0.10557(18) 0.81900(4)
H1 H 1.035(3) 0.099(3) 0.8419(6)
N3 N 1.09331(17) 0.31803(16) 0.87161(3)
N4 N 0.86928(19) 0.27604(18) 0.92590(4)
H2 H 0.867(2) 0.234(2) 0.9040(5)
N5 N 0.60399(17) 0.11975(17) 0.89527(3)
C1 C 0.8445(2) -0.2509(2) 0.87247(4)
C2 C 0.7857(2) -0.3923(2) 0.85689(4)
H3 H 0.7273 -0.4705 0.8710
C3 C 0.8143(2) -0.4168(2) 0.82014(4)
H4 H 0.7775 -0.5130 0.8088
C4 C 0.8974(2) -0.2985(2) 0.80043(4)
H5 H 0.9182 -0.3113 0.7753
C5 C 0.9494(2) -0.1609(2) 0.81836(4)
C6 C 0.8282(2) -0.2190(2) 0.91244(4)
C7 C 1.0368(2) -0.0285(2) 0.79778(4)
C8 C 1.1659(2) 0.2375(2) 0.81060(4)
C9 C 1.1902(2) 0.3481(2) 0.84238(4)
C10 C 1.3086(2) 0.4725(2) 0.84047(5)
H6 H 1.3738 0.4907 0.8191
C11 C 1.3295(2) 0.5699(2) 0.87046(5)
H7 H 1.4108 0.6553 0.8701
C12 C 1.2300(2) 0.5407(2) 0.90091(5)
H8 H 1.2412 0.6059 0.9218
C13 C 1.1135(2) 0.4141(2) 0.90015(4)
C14 C 0.9994(2) 0.3859(2) 0.93236(4)
C15 C 0.7327(2) 0.2401(2) 0.94879(4)
C16 C 0.5882(2) 0.1502(2) 0.93072(4)
C17 C 0.4451(2) 0.1072(2) 0.95157(4)
H9 H 0.4402 0.1319 0.9766
C18 C 0.3108(2) 0.0276(2) 0.93469(4)
H10 H 0.2097 -0.0013 0.9478
C19 C 0.3257(2) -0.0094(2) 0.89832(4)
H11 H 0.2365 -0.0667 0.8863
C20 C 0.4737(2) 0.0388(2) 0.87978(4)
C21 C 0.4868(2) -0.0047(2) 0.84032(4)
C22 C 0.6821(2) -0.2915(2) 0.96628(4)
H12 H 0.6852 -0.1779 0.9739
H13 H 0.7787 -0.3486 0.9782
C23 C 0.5119(2) -0.3660(3) 0.97663(5)
H14 H 0.4169 -0.3039 0.9661
H15 H 0.5006 -0.3665 1.0030
H16 H 0.5072 -0.4762 0.9676
C24 C 0.5859(2) 0.0611(2) 0.78212(4)
H17 H 0.4667 0.0449 0.7730
H18 H 0.6538 -0.0373 0.7774
C25 C 0.6685(3) 0.2023(2) 0.76377(5)
H19 H 0.6010 0.2991 0.7689
H20 H 0.6713 0.1840 0.7376
H21 H 0.7869 0.2160 0.7728
loop_
_geom_bond_atom_site_label_1
_geom_bond_atom_site_label_2
_geom_bond_site_symmetry_1
_geom_bond_site_symmetry_2
O1 C6 1_555 1_555
O2 C6 1_555 1_555
O3 C7 1_555 1_555
O4 C8 1_555 1_555
O5 C14 1_555 1_555
O6 C15 1_555 1_555
O7 C21 1_555 1_555
O8 C21 1_555 1_555
N1 C1 1_555 1_555
N2 H1 1_555 1_555
N3 C9 1_555 1_555
N4 H2 1_555 1_555
N5 C16 1_555 1_555
C1 C2 1_555 1_555
C2 H3 1_555 1_555
C3 C2 1_555 1_555
H4 C3 1_555 1_555
C4 C3 1_555 1_555
H5 C4 1_555 1_555
C5 N1 1_555 1_555
C6 C1 1_555 1_555
C7 N2 1_555 1_555
C8 N2 1_555 1_555
C9 C8 1_555 1_555
C10 C9 1_555 1_555
H6 C10 1_555 1_555
C11 C10 1_555 1_555
H7 C11 1_555 1_555
C12 C11 1_555 1_555
H8 C12 1_555 1_555
C13 N3 1_555 1_555
C14 N4 1_555 1_555
C15 N4 1_555 1_555
C16 C15 1_555 1_555
C17 C16 1_555 1_555
H9 C17 1_555 1_555
C18 C17 1_555 1_555
H10 C18 1_555 1_555
C19 C18 1_555 1_555
H11 C19 1_555 1_555
C20 N5 1_555 1_555
C21 C20 1_555 1_555
C22 O2 1_555 1_555
H12 C22 1_555 1_555
H13 C22 1_555 1_555
C23 C22 1_555 1_555
H14 C23 1_555 1_555
H15 C23 1_555 1_555
H16 C23 1_555 1_555
C24 O8 1_555 1_555
H17 C24 1_555 1_555
H18 C24 1_555 1_555
C25 C24 1_555 1_555
H19 C25 1_555 1_555
H20 C25 1_555 1_555
H21 C25 1_555 1_555
C4 C5 1_555 1_555
C5 C7 1_555 1_555
C12 C13 1_555 1_555
C13 C14 1_555 1_555
C19 C20 1_555 1_555

#END
