
#######################################################################
#
#                 Cambridge Crystallographic Data Centre
#                                CCDC 
#
#######################################################################
#
# If this CIF has been generated from an entry in the Cambridge 
# Structural Database, then it will include bibliographic, chemical, 
# crystal, experimental, refinement or atomic coordinate data resulting 
# from the CCDC's data processing and validation procedures.
#
#######################################################################

data_OFIQAX
_chemical_formula_moiety         'C18 H28 O7,C16 H23 F3 N1 O2 1+,F6 P1 1-'
_chemical_name_systematic        
'(2)-(N-(3,5-Dimethylbenzyl)-5-(2,2,2-trifluoroacetoxy)pentan-1-aminium hexafluorophosphate 2,3,5,6,8,9,11,12,14,15,17,18-dodecahydro-1,4,7,10,13,16,19-benzoheptaoxacyclohenicosine) rotaxane hexafluorophosphate'
_symmetry_cell_setting           monoclinic
_symmetry_space_group_name_H-M   'P 21/c'
_symmetry_Int_Tables_number      14
_space_group_name_Hall           '-P 2ybc'
loop_
_symmetry_equiv_pos_site_id
_symmetry_equiv_pos_as_xyz
1 x,y,z
2 -x,1/2+y,1/2-z
3 -x,-y,-z
4 x,1/2-y,1/2+z
_cell_length_a                   13.6071(6)
_cell_length_b                   15.3919(7)
_cell_length_c                   23.1024(11)
_cell_angle_alpha                90
_cell_angle_beta                 123.978(3)
_cell_angle_gamma                90
_cell_volume                     4012.38
_exptl_crystal_colour            colorless
_exptl_crystal_description       block
_cell_formula_units_Z            4
loop_
_atom_site_label
_atom_site_type_symbol
_atom_site_fract_x
_atom_site_fract_y
_atom_site_fract_z
P1 P 0.35138(14) 0.40522(11) 0.59229(9)
F1 F 0.3472(7) 0.5015(4) 0.5824(7)
F2 F 0.3012(10) 0.3947(6) 0.5127(4)
F3 F 0.2228(5) 0.4050(5) 0.5745(4)
F4 F 0.3544(6) 0.3012(4) 0.5944(3)
F5 F 0.4832(5) 0.4018(5) 0.6199(6)
F6 F 0.3919(9) 0.3990(8) 0.6697(3)
F7 F 0.3707(7) 0.8718(6) 0.4290(4)
F8 F 0.4935(8) 0.7776(5) 0.4696(3)
F9 F 0.5483(9) 0.9057(6) 0.4899(4)
O1 O 0.3893(4) 0.8163(3) 0.3276(2)
O2 O 0.5544(5) 0.8970(4) 0.3788(4)
N1 N 0.0725(4) 0.5459(3) 0.2034(2)
H1 H 0.1249 0.5597 0.2486
H2 H 0.0201 0.5898 0.1837
C1 C -0.1751(6) 0.5203(4) 0.1914(3)
H3 H -0.2087 0.5317 0.1444
C2 C -0.2381(5) 0.5408(4) 0.2196(3)
C3 C -0.1902(6) 0.5197(4) 0.2887(3)
H4 H -0.2326 0.5327 0.3081
C4 C -0.0813(6) 0.4798(4) 0.3294(3)
C5 C -0.0184(5) 0.4633(4) 0.2997(3)
H5 H 0.0563 0.4380 0.3268
C6 C -0.0647(5) 0.4837(3) 0.2299(3)
C7 C -0.3578(7) 0.5861(6) 0.1762(5)
H6 H -0.3472 0.6476 0.1843
H7 H -0.4090 0.5648 0.1894
H8 H -0.3929 0.5746 0.1276
C8 C -0.0315(8) 0.4556(5) 0.4039(4)
H9 H -0.0276 0.3934 0.4084
H10 H -0.0818 0.4782 0.4173
H11 H 0.0466 0.4796 0.4336
C9 C 0.0085(6) 0.4669(4) 0.2004(3)
H12 H 0.0650 0.4209 0.2267
H13 H -0.0430 0.4479 0.1523
C10 C 0.1373(5) 0.5398(4) 0.1687(3)
H14 H 0.0875 0.5117 0.1236
H15 H 0.2082 0.5049 0.1970
C11 C 0.1710(7) 0.6290(4) 0.1590(4)
H16 H 0.1928 0.6242 0.1257
H17 H 0.1006 0.6651 0.1376
C12 C 0.2662(6) 0.6756(4) 0.2199(4)
H18 H 0.3398 0.6450 0.2367
H19 H 0.2514 0.6723 0.2563
C13 C 0.2840(8) 0.7669(5) 0.2108(4)
H20 H 0.2803 0.7707 0.1677
H21 H 0.2159 0.7983 0.2031
C14 C 0.3863(8) 0.8139(6) 0.2621(4)
H22 H 0.3833 0.8726 0.2458
H23 H 0.4571 0.7859 0.2707
C15 C 0.4763(9) 0.8594(6) 0.3785(5)
C16 C 0.4758(10) 0.8550(7) 0.4413(5)
O3 O -0.1090(4) 0.4415(3) 0.0305(2)
O4 O -0.1375(4) 0.6203(3) 0.0679(2)
O5 O -0.0201(5) 0.7148(3) 0.1967(3)
O6 O 0.1587(5) 0.6369(4) 0.3306(3)
O7 O 0.2956(4) 0.4931(4) 0.3447(2)
O8 O 0.2616(4) 0.3497(3) 0.2492(2)
O9 O 0.0642(4) 0.3328(2) 0.1025(2)
C17 C -0.1359(7) 0.3539(5) 0.0177(3)
C18 C -0.2489(8) 0.3208(6) -0.0295(4)
H24 H -0.3141 0.3575 -0.0537
C19 C -0.2623(9) 0.2276(6) -0.0399(4)
H25 H -0.3370 0.2042 -0.0713
C20 C -0.1727(10) 0.1769(6) -0.0063(5)
H26 H -0.1837 0.1173 -0.0141
C21 C -0.0603(8) 0.2082(5) 0.0411(4)
H27 H 0.0036 0.1702 0.0642
C22 C -0.0429(7) 0.2971(4) 0.0542(3)
C23 C -0.2029(7) 0.5027(5) -0.0129(4)
H28 H -0.2648 0.4975 -0.0043
H29 H -0.2372 0.4898 -0.0617
C24 C -0.1564(7) 0.5906(5) 0.0025(4)
H30 H -0.0820 0.5922 0.0060
H31 H -0.2118 0.6291 -0.0350
C25 C -0.1422(8) 0.7122(5) 0.0719(5)
H32 H -0.2143 0.7341 0.0306
H33 H -0.0751 0.7382 0.0743
C26 C -0.1397(8) 0.7344(5) 0.1327(5)
H34 H -0.1997 0.7016 0.1335
H35 H -0.1571 0.7958 0.1316
C27 C -0.0081(8) 0.7291(5) 0.2614(5)
H36 H -0.0420 0.7850 0.2603
H37 H -0.0510 0.6845 0.2683
C28 C 0.1124(8) 0.7271(6) 0.3170(4)
H38 H 0.1213 0.7505 0.3587
H39 H 0.1578 0.7633 0.3057
C29 C 0.2758(8) 0.6277(6) 0.3872(4)
H40 H 0.2865 0.6560 0.4279
H41 H 0.3283 0.6553 0.3768
C30 C 0.3056(8) 0.5350(6) 0.4021(4)
H42 H 0.3860 0.5290 0.4428
H43 H 0.2527 0.5075 0.4122
C31 C 0.3634(8) 0.4122(6) 0.3612(5)
H44 H 0.4428 0.4209 0.4024
H45 H 0.3258 0.3670 0.3715
C32 C 0.3706(7) 0.3851(6) 0.3044(5)
H46 H 0.3915 0.4344 0.2872
H47 H 0.4325 0.3418 0.3208
C33 C 0.2696(6) 0.3206(5) 0.1941(4)
H48 H 0.3379 0.2828 0.2124
H49 H 0.2806 0.3701 0.1722
C34 C 0.1640(6) 0.2743(4) 0.1430(4)
H50 H 0.1783 0.2432 0.1118
H51 H 0.1449 0.2320 0.1663
loop_
_geom_bond_atom_site_label_1
_geom_bond_atom_site_label_2
_geom_bond_site_symmetry_1
_geom_bond_site_symmetry_2
P1 F1 1_555 1_555
F2 P1 1_555 1_555
F3 P1 1_555 1_555
F4 P1 1_555 1_555
F5 P1 1_555 1_555
F6 P1 1_555 1_555
F7 C16 1_555 1_555
F8 C16 1_555 1_555
F9 C16 1_555 1_555
O1 C14 1_555 1_555
O2 C15 1_555 1_555
N1 H1 1_555 1_555
H2 N1 1_555 1_555
C1 H3 1_555 1_555
C2 C1 1_555 1_555
C3 C2 1_555 1_555
H4 C3 1_555 1_555
C4 C3 1_555 1_555
C5 C4 1_555 1_555
H5 C5 1_555 1_555
C6 C1 1_555 1_555
C7 C2 1_555 1_555
H6 C7 1_555 1_555
H7 C7 1_555 1_555
H8 C7 1_555 1_555
C8 C4 1_555 1_555
H9 C8 1_555 1_555
H10 C8 1_555 1_555
H11 C8 1_555 1_555
C9 N1 1_555 1_555
H12 C9 1_555 1_555
H13 C9 1_555 1_555
C10 N1 1_555 1_555
H14 C10 1_555 1_555
H15 C10 1_555 1_555
C11 C10 1_555 1_555
H16 C11 1_555 1_555
H17 C11 1_555 1_555
C12 C11 1_555 1_555
H18 C12 1_555 1_555
H19 C12 1_555 1_555
C13 C12 1_555 1_555
H20 C13 1_555 1_555
H21 C13 1_555 1_555
C14 C13 1_555 1_555
H22 C14 1_555 1_555
H23 C14 1_555 1_555
C15 O1 1_555 1_555
C16 C15 1_555 1_555
O3 C17 1_555 1_555
O4 C24 1_555 1_555
O5 C26 1_555 1_555
O6 C28 1_555 1_555
O7 C30 1_555 1_555
O8 C32 1_555 1_555
O9 C22 1_555 1_555
C17 C18 1_555 1_555
C18 H24 1_555 1_555
C19 C18 1_555 1_555
H25 C19 1_555 1_555
C20 C19 1_555 1_555
H26 C20 1_555 1_555
C21 C20 1_555 1_555
H27 C21 1_555 1_555
C22 C17 1_555 1_555
C23 O3 1_555 1_555
H28 C23 1_555 1_555
H29 C23 1_555 1_555
C24 C23 1_555 1_555
H30 C24 1_555 1_555
H31 C24 1_555 1_555
C25 O4 1_555 1_555
H32 C25 1_555 1_555
H33 C25 1_555 1_555
C26 C25 1_555 1_555
H34 C26 1_555 1_555
H35 C26 1_555 1_555
C27 O5 1_555 1_555
H36 C27 1_555 1_555
H37 C27 1_555 1_555
C28 C27 1_555 1_555
H38 C28 1_555 1_555
H39 C28 1_555 1_555
C29 O6 1_555 1_555
H40 C29 1_555 1_555
H41 C29 1_555 1_555
C30 C29 1_555 1_555
H42 C30 1_555 1_555
H43 C30 1_555 1_555
C31 O7 1_555 1_555
H44 C31 1_555 1_555
H45 C31 1_555 1_555
C32 C31 1_555 1_555
H46 C32 1_555 1_555
H47 C32 1_555 1_555
C33 O8 1_555 1_555
H48 C33 1_555 1_555
H49 C33 1_555 1_555
C34 O9 1_555 1_555
H50 C34 1_555 1_555
H51 C34 1_555 1_555
C5 C6 1_555 1_555
C6 C9 1_555 1_555
C21 C22 1_555 1_555
C33 C34 1_555 1_555

#END
