
#######################################################################
#
#                 Cambridge Crystallographic Data Centre
#                                CCDC 
#
#######################################################################
#
# If this CIF has been generated from an entry in the Cambridge 
# Structural Database, then it will include bibliographic, chemical, 
# crystal, experimental, refinement or atomic coordinate data resulting 
# from the CCDC's data processing and validation procedures.
#
#######################################################################

data_OFIQIF
_chemical_formula_moiety         'C18 H28 O7,C16 H23 Cl3 N1 O2 1+,F6 P1 1-'
_chemical_name_systematic        
'(2)-(N-(3,5-Dimethylbenzyl)-5-(2,2,2-trichloroacetoxy)pentan-1-aminium hexafluorophosphate 2,3,5,6,8,9,11,12,14,15,17,18-dodecahydro-1,4,7,10,13,16,19-benzoheptaoxacyclohenicosine) rotaxane hexafluorophosphate'
_symmetry_cell_setting           triclinic
_symmetry_space_group_name_H-M   'P -1'
_symmetry_Int_Tables_number      2
_space_group_name_Hall           '-P 1'
loop_
_symmetry_equiv_pos_site_id
_symmetry_equiv_pos_as_xyz
1 x,y,z
2 -x,-y,-z
_cell_length_a                   10.974(2)
_cell_length_b                   13.309(3)
_cell_length_c                   15.389(3)
_cell_angle_alpha                98.00(3)
_cell_angle_beta                 109.51(3)
_cell_angle_gamma                97.42(3)
_cell_volume                     2060.47
_exptl_crystal_colour            colorless
_exptl_crystal_description       block
_cell_formula_units_Z            2
loop_
_atom_site_label
_atom_site_type_symbol
_atom_site_fract_x
_atom_site_fract_y
_atom_site_fract_z
P1 P 0.33733(9) 0.81896(7) 0.22247(6)
F1 F 0.1789(7) 0.8012(7) 0.2012(6)
F2 F 0.3513(8) 0.9137(7) 0.2987(6)
F3 F 0.3157(11) 0.7140(11) 0.1467(11)
F4 F 0.4880(17) 0.8284(9) 0.2459(12)
F5 F 0.3355(4) 0.8877(2) 0.14558(18)
F6 F 0.3441(2) 0.75050(18) 0.30042(15)
Cl1 Cl 0.40953(9) 0.30142(7) -0.10088(6)
Cl2 Cl 0.15246(9) 0.26780(9) -0.08361(7)
Cl3 Cl 0.33301(11) 0.46031(8) 0.00745(8)
N1 N 0.0044(2) 0.19238(18) 0.30109(17)
H1 H 0.0327 0.1562 0.3468
H2 H -0.0751 0.1578 0.2612
O1 O 0.3509(2) 0.18032(17) 0.04356(14)
O2 O 0.4542(3) 0.33495(19) 0.13539(17)
C1 C 0.0183(4) 0.3607(3) 0.6807(2)
H3 H -0.0356 0.3469 0.7172
H4 H 0.0460 0.4340 0.6893
H5 H 0.0942 0.3291 0.7010
C2 C -0.4049(3) 0.1698(3) 0.4264(3)
H6 H -0.4284 0.1685 0.4811
H7 H -0.4150 0.1003 0.3943
H8 H -0.4613 0.2062 0.3852
C3 C -0.2052(3) 0.2353(2) 0.3888(2)
H9 H -0.2537 0.2087 0.3256
C4 C -0.2631(3) 0.2239(2) 0.4559(2)
C5 C -0.1890(3) 0.2647(3) 0.5495(2)
H10 H -0.2270 0.2569 0.5944
C6 C -0.0595(3) 0.3171(3) 0.5787(2)
C7 C -0.0039(3) 0.3268(2) 0.5103(2)
H11 H 0.0826 0.3613 0.5282
C8 C -0.0752(3) 0.2862(2) 0.4160(2)
C9 C -0.0105(3) 0.2962(2) 0.3444(2)
H12 H -0.0633 0.3280 0.2956
H13 H 0.0755 0.3405 0.3744
C10 C 0.0979(3) 0.1973(2) 0.2490(2)
H14 H 0.1872 0.2211 0.2934
H15 H 0.0780 0.2463 0.2075
C11 C 0.0873(3) 0.0920(2) 0.1918(2)
H16 H -0.0042 0.0647 0.1529
H17 H 0.1167 0.0451 0.2341
C12 C 0.1695(3) 0.0969(2) 0.1293(2)
H18 H 0.1572 0.0286 0.0925
H19 H 0.1381 0.1423 0.0859
C13 C 0.3159(3) 0.1358(2) 0.1848(2)
H20 H 0.3294 0.2072 0.2156
H21 H 0.3450 0.0956 0.2333
C14 C 0.3989(3) 0.1285(3) 0.1238(2)
H22 H 0.4896 0.1603 0.1612
H23 H 0.3965 0.0564 0.1006
C15 C 0.3840(3) 0.2822(3) 0.0629(2)
C16 C 0.3193(4) 0.3262(3) -0.0262(2)
O3 O 0.29838(19) 0.41622(15) 0.40122(13)
O4 O 0.1096(2) 0.43681(16) 0.21996(14)
O5 O -0.1271(2) 0.28685(19) 0.10811(15)
O6 O -0.2646(2) 0.10841(18) 0.15786(15)
O7 O -0.1261(2) -0.01981(18) 0.27566(16)
O8 O 0.1257(2) 0.05614(15) 0.42260(15)
O9 O 0.30389(19) 0.25545(15) 0.48193(14)
C17 C 0.3390(3) 0.3505(2) 0.5411(2)
C18 C 0.3754(3) 0.3654(2) 0.6379(2)
H24 H 0.3813 0.3087 0.6673
C19 C 0.4032(3) 0.4644(3) 0.6917(2)
H25 H 0.4267 0.4738 0.7566
C20 C 0.3958(3) 0.5487(3) 0.6483(2)
H26 H 0.4134 0.6149 0.6840
C21 C 0.3622(3) 0.5348(2) 0.5516(2)
H27 H 0.3587 0.5921 0.5230
C22 C 0.3339(3) 0.4370(2) 0.4969(2)
C23 C 0.2986(3) 0.5051(2) 0.3572(2)
H28 H 0.3872 0.5451 0.3787
H29 H 0.2428 0.5489 0.3744
C24 C 0.2489(3) 0.4701(2) 0.2530(2)
H30 H 0.2707 0.5264 0.2237
H31 H 0.2899 0.4137 0.2366
C25 C 0.0510(3) 0.4191(3) 0.1204(2)
H32 H 0.0854 0.3648 0.0925
H33 H 0.0717 0.4814 0.0981
C26 C -0.0948(3) 0.3882(3) 0.0922(2)
H34 H -0.1268 0.4367 0.1285
H35 H -0.1371 0.3897 0.0262
C27 C -0.2663(3) 0.2535(3) 0.0789(2)
H36 H -0.3097 0.2730 0.0193
H37 H -0.2982 0.2866 0.1251
C28 C -0.2973(3) 0.1387(3) 0.0687(2)
H38 H -0.3905 0.1142 0.0332
H39 H -0.2486 0.1069 0.0338
C29 C -0.3060(3) -0.0009(3) 0.1472(3)
H40 H -0.2673 -0.0377 0.1073
H41 H -0.4010 -0.0191 0.1170
C30 C -0.2654(3) -0.0325(3) 0.2401(3)
H42 H -0.2945 0.0100 0.2830
H43 H -0.3048 -0.1040 0.2333
C31 C -0.0796(4) -0.0622(3) 0.3576(2)
H44 H -0.1199 -0.1347 0.3443
H45 H -0.1034 -0.0265 0.4072
C32 C 0.0665(4) -0.0513(2) 0.3887(2)
H46 H 0.0975 -0.0898 0.4383
H47 H 0.0910 -0.0788 0.3365
C33 C 0.2659(3) 0.0713(2) 0.4562(2)
H48 H 0.2967 0.0753 0.4043
H49 H 0.2949 0.0133 0.4838
C34 C 0.3221(3) 0.1690(2) 0.5281(2)
H50 H 0.2782 0.1710 0.5734
H51 H 0.4151 0.1720 0.5614
F7? F 0.2237(7) 0.8702(7) 0.2318(6)
F8? F 0.4309(8) 0.9199(7) 0.3080(6)
F9? F 0.2660(11) 0.7282(11) 0.1416(11)
F10? F 0.4770(17) 0.7910(9) 0.2265(12)
loop_
_geom_bond_atom_site_label_1
_geom_bond_atom_site_label_2
_geom_bond_site_symmetry_1
_geom_bond_site_symmetry_2
P1 F1 1_555 1_555
F2 P1 1_555 1_555
F3 P1 1_555 1_555
F4 P1 1_555 1_555
F5 P1 1_555 1_555
F6 P1 1_555 1_555
Cl1 C16 1_555 1_555
Cl2 C16 1_555 1_555
Cl3 C16 1_555 1_555
N1 H1 1_555 1_555
H2 N1 1_555 1_555
O1 C14 1_555 1_555
O2 C15 1_555 1_555
C1 H3 1_555 1_555
H4 C1 1_555 1_555
H5 C1 1_555 1_555
C2 H6 1_555 1_555
H7 C2 1_555 1_555
H8 C2 1_555 1_555
C3 H9 1_555 1_555
C4 C2 1_555 1_555
C5 C4 1_555 1_555
H10 C5 1_555 1_555
C6 C1 1_555 1_555
C7 C6 1_555 1_555
H11 C7 1_555 1_555
C8 C3 1_555 1_555
C9 N1 1_555 1_555
H12 C9 1_555 1_555
H13 C9 1_555 1_555
C10 N1 1_555 1_555
H14 C10 1_555 1_555
H15 C10 1_555 1_555
C11 C10 1_555 1_555
H16 C11 1_555 1_555
H17 C11 1_555 1_555
C12 C11 1_555 1_555
H18 C12 1_555 1_555
H19 C12 1_555 1_555
C13 C12 1_555 1_555
H20 C13 1_555 1_555
H21 C13 1_555 1_555
C14 C13 1_555 1_555
H22 C14 1_555 1_555
H23 C14 1_555 1_555
C15 O1 1_555 1_555
C16 C15 1_555 1_555
O3 C22 1_555 1_555
O4 C24 1_555 1_555
O5 C26 1_555 1_555
O6 C28 1_555 1_555
O7 C30 1_555 1_555
O8 C32 1_555 1_555
O9 C17 1_555 1_555
C17 C18 1_555 1_555
C18 H24 1_555 1_555
C19 C18 1_555 1_555
H25 C19 1_555 1_555
C20 C19 1_555 1_555
H26 C20 1_555 1_555
C21 C20 1_555 1_555
H27 C21 1_555 1_555
C22 C17 1_555 1_555
C23 O3 1_555 1_555
H28 C23 1_555 1_555
H29 C23 1_555 1_555
C24 C23 1_555 1_555
H30 C24 1_555 1_555
H31 C24 1_555 1_555
C25 O4 1_555 1_555
H32 C25 1_555 1_555
H33 C25 1_555 1_555
C26 C25 1_555 1_555
H34 C26 1_555 1_555
H35 C26 1_555 1_555
C27 O5 1_555 1_555
H36 C27 1_555 1_555
H37 C27 1_555 1_555
C28 C27 1_555 1_555
H38 C28 1_555 1_555
H39 C28 1_555 1_555
C29 O6 1_555 1_555
H40 C29 1_555 1_555
H41 C29 1_555 1_555
C30 C29 1_555 1_555
H42 C30 1_555 1_555
H43 C30 1_555 1_555
C31 O7 1_555 1_555
H44 C31 1_555 1_555
H45 C31 1_555 1_555
C32 C31 1_555 1_555
H46 C32 1_555 1_555
H47 C32 1_555 1_555
C33 O8 1_555 1_555
H48 C33 1_555 1_555
H49 C33 1_555 1_555
C34 O9 1_555 1_555
H50 C34 1_555 1_555
H51 C34 1_555 1_555
C3 C4 1_555 1_555
C5 C6 1_555 1_555
C7 C8 1_555 1_555
C8 C9 1_555 1_555
C21 C22 1_555 1_555
C33 C34 1_555 1_555

#END
