
#######################################################################
#
#                 Cambridge Crystallographic Data Centre
#                                CCDC 
#
#######################################################################
#
# If this CIF has been generated from an entry in the Cambridge 
# Structural Database, then it will include bibliographic, chemical, 
# crystal, experimental, refinement or atomic coordinate data resulting 
# from the CCDC's data processing and validation procedures.
#
#######################################################################

data_OFIYOS
_chemical_formula_moiety         'C30 H18 N2 S3'
_chemical_name_systematic        
5,5''-bis(Quinol-3-yl)-2,2':5',2''-terthiophene
_symmetry_cell_setting           monoclinic
_symmetry_space_group_name_H-M   'P 21/c'
_symmetry_Int_Tables_number      14
_space_group_name_Hall           '-P 2ybc'
loop_
_symmetry_equiv_pos_site_id
_symmetry_equiv_pos_as_xyz
1 x,y,z
2 -x,1/2+y,1/2-z
3 -x,-y,-z
4 x,1/2-y,1/2+z
_cell_length_a                   21.688(4)
_cell_length_b                   5.9423(10)
_cell_length_c                   17.939(3)
_cell_angle_alpha                90
_cell_angle_beta                 97.188(3)
_cell_angle_gamma                90
_cell_volume                     2293.75
_chemical_melting_point          '285 deg.C'
_cell_formula_units_Z            4
loop_
_atom_site_label
_atom_site_type_symbol
_atom_site_fract_x
_atom_site_fract_y
_atom_site_fract_z
S1 S 0.34258(4) 0.69941(14) 0.21220(5)
S2 S 0.50997(4) 0.39395(14) 0.14314(5)
S3 S 0.63693(4) 0.70030(14) 0.00152(5)
N1 N 0.16898(13) 0.8231(5) 0.31148(17)
N2 N 0.78910(13) 0.8361(5) -0.13493(16)
C1 C 0.17029(14) 0.4603(5) 0.37392(17)
C2 C 0.13995(16) 0.3137(6) 0.41872(19)
H1 H 0.1573 0.1734 0.4310
C3 C 0.08595(17) 0.3718(7) 0.4445(2)
H2 H 0.0667 0.2722 0.4742
C4 C 0.05926(17) 0.5827(7) 0.4260(2)
H3 H 0.0221 0.6222 0.4435
C5 C 0.08720(16) 0.7299(6) 0.3828(2)
H4 H 0.0690 0.8693 0.3712
C6 C 0.14308(14) 0.6742(5) 0.35578(18)
C7 C 0.22504(14) 0.4068(5) 0.34360(17)
H5 H 0.2438 0.2678 0.3543
C8 C 0.21972(15) 0.7638(6) 0.28384(19)
H6 H 0.2364 0.8649 0.2522
C9 C 0.25122(13) 0.5543(5) 0.29894(16)
C10 C 0.30840(13) 0.5051(5) 0.26639(16)
C11 C 0.34294(15) 0.3126(6) 0.27311(19)
H7 H 0.3324 0.1878 0.3001
C12 C 0.39573(15) 0.3204(6) 0.23566(18)
H8 H 0.4234 0.2010 0.2353
C13 C 0.40281(14) 0.5177(5) 0.20000(17)
C14 C 0.45142(13) 0.5836(5) 0.15549(17)
C15 C 0.45975(15) 0.7789(6) 0.11924(19)
H9 H 0.4331 0.9013 0.1193
C16 C 0.51301(15) 0.7784(6) 0.08120(18)
H10 H 0.5249 0.9008 0.0540
C17 C 0.54510(14) 0.5817(5) 0.08817(16)
C18 C 0.60170(14) 0.5179(5) 0.05750(16)
C19 C 0.63479(15) 0.3218(6) 0.06757(19)
H11 H 0.6234 0.2025 0.0965
C20 C 0.68770(15) 0.3190(6) 0.02968(18)
H12 H 0.7146 0.1968 0.0311
C21 C 0.69618(13) 0.5115(5) -0.00944(17)
C22 C 0.74602(13) 0.5663(5) -0.05453(16)
C23 C 0.74691(16) 0.7733(6) -0.09327(19)
H13 H 0.7146 0.8734 -0.0887
C24 C 0.79437(14) 0.4217(5) -0.06074(17)
H14 H 0.7960 0.2842 -0.0358
C25 C 0.83708(15) 0.6910(6) -0.14115(18)
C26 C 0.88272(16) 0.7510(6) -0.1875(2)
H15 H 0.8799 0.8876 -0.2130
C27 C 0.93047(16) 0.6091(7) -0.1946(2)
H16 H 0.9604 0.6503 -0.2249
C28 C 0.93580(17) 0.4016(7) -0.1573(2)
H17 H 0.9691 0.3070 -0.1627
C29 C 0.89199(16) 0.3386(6) -0.1132(2)
H18 H 0.8957 0.2006 -0.0886
C30 C 0.84135(14) 0.4791(5) -0.10418(17)
loop_
_geom_bond_atom_site_label_1
_geom_bond_atom_site_label_2
_geom_bond_site_symmetry_1
_geom_bond_site_symmetry_2
S1 C10 1_555 1_555
S2 C14 1_555 1_555
S3 C18 1_555 1_555
N1 C6 1_555 1_555
N2 C23 1_555 1_555
C1 C2 1_555 1_555
C2 H1 1_555 1_555
C3 C2 1_555 1_555
H2 C3 1_555 1_555
C4 C3 1_555 1_555
H3 C4 1_555 1_555
C5 C4 1_555 1_555
H4 C5 1_555 1_555
C6 C1 1_555 1_555
C7 C1 1_555 1_555
H5 C7 1_555 1_555
C8 N1 1_555 1_555
H6 C8 1_555 1_555
C9 C7 1_555 1_555
C10 C9 1_555 1_555
C11 C10 1_555 1_555
H7 C11 1_555 1_555
C12 C11 1_555 1_555
H8 C12 1_555 1_555
C13 S1 1_555 1_555
C14 C13 1_555 1_555
C15 C14 1_555 1_555
H9 C15 1_555 1_555
C16 C15 1_555 1_555
H10 C16 1_555 1_555
C17 S2 1_555 1_555
C18 C17 1_555 1_555
C19 C18 1_555 1_555
H11 C19 1_555 1_555
C20 C19 1_555 1_555
H12 C20 1_555 1_555
C21 S3 1_555 1_555
C22 C21 1_555 1_555
C23 C22 1_555 1_555
H13 C23 1_555 1_555
C24 C22 1_555 1_555
H14 C24 1_555 1_555
C25 N2 1_555 1_555
C26 C25 1_555 1_555
H15 C26 1_555 1_555
C27 C26 1_555 1_555
H16 C27 1_555 1_555
C28 C27 1_555 1_555
H17 C28 1_555 1_555
C29 C28 1_555 1_555
H18 C29 1_555 1_555
C30 C24 1_555 1_555
C5 C6 1_555 1_555
C8 C9 1_555 1_555
C12 C13 1_555 1_555
C16 C17 1_555 1_555
C20 C21 1_555 1_555
C25 C30 1_555 1_555
C29 C30 1_555 1_555

#END
