
#######################################################################
#
#                 Cambridge Crystallographic Data Centre
#                                CCDC 
#
#######################################################################
#
# If this CIF has been generated from an entry in the Cambridge 
# Structural Database, then it will include bibliographic, chemical, 
# crystal, experimental, refinement or atomic coordinate data resulting 
# from the CCDC's data processing and validation procedures.
#
#######################################################################

data_OFIYAE
_chemical_formula_moiety         'C26 H16 N2 S4'
_chemical_name_systematic        
5,5'''-bis(Pyrid-2-yl)-2,2':5',2'':5'',2'''-quaterthiophene
_symmetry_cell_setting           monoclinic
_symmetry_space_group_name_H-M   'C c'
_symmetry_Int_Tables_number      9
_space_group_name_Hall           'C -2yc'
loop_
_symmetry_equiv_pos_site_id
_symmetry_equiv_pos_as_xyz
1 x,y,z
2 x,-y,1/2+z
3 1/2+x,1/2+y,z
4 1/2+x,1/2-y,1/2+z
_cell_length_a                   9.750(2)
_cell_length_b                   16.272(3)
_cell_length_c                   27.749(6)
_cell_angle_alpha                90
_cell_angle_beta                 91.229(3)
_cell_angle_gamma                90
_cell_volume                     4401.42
_cell_formula_units_Z            8
_exptl_crystal_recrystallization_method sublimation
loop_
_atom_site_label
_atom_site_type_symbol
_atom_site_fract_x
_atom_site_fract_y
_atom_site_fract_z
S1 S -0.04766(10) 0.64660(5) 0.22453(3)
S2 S 0.00356(9) 0.50962(5) 0.09005(3)
S3 S 0.10473(9) 0.24904(5) 0.07485(3)
S4 S 0.14996(9) 0.11261(5) -0.06021(3)
N1 N -0.0698(4) 0.78731(19) 0.29092(11)
N2 N 0.1630(4) -0.02944(19) -0.12620(10)
C1 C -0.0727(5) 0.8462(3) 0.32432(15)
H1 H -0.0484 0.8318 0.3558
C2 C -0.1093(5) 0.9269(3) 0.31556(18)
H2 H -0.1087 0.9655 0.3403
C3 C -0.1466(5) 0.9488(3) 0.26936(18)
H3 H -0.1732 1.0023 0.2620
C4 C -0.1434(5) 0.8893(2) 0.23410(15)
H4 H -0.1673 0.9025 0.2024
C5 C -0.1050(4) 0.8102(2) 0.24585(13)
C6 C -0.0947(4) 0.7457(2) 0.20884(12)
C7 C -0.1105(4) 0.7526(2) 0.16013(12)
H5 H -0.1369 0.8010 0.1448
C8 C -0.0827(4) 0.6793(2) 0.13534(11)
H6 H -0.0880 0.6749 0.1019
C9 C -0.0475(4) 0.6154(2) 0.16474(11)
C10 C -0.0096(4) 0.5328(2) 0.15099(12)
C11 C 0.0181(4) 0.4647(2) 0.17819(12)
H7 H 0.0173 0.4648 0.2117
C12 C 0.0478(4) 0.3944(2) 0.15107(11)
H8 H 0.0689 0.3437 0.1648
C13 C 0.0426(3) 0.40789(19) 0.10248(12)
C14 C 0.0646(4) 0.35055(19) 0.06312(12)
C15 C 0.0573(4) 0.3636(2) 0.01436(12)
H9 H 0.0361 0.4144 0.0008
C16 C 0.0847(4) 0.2931(2) -0.01336(12)
H10 H 0.0822 0.2926 -0.0469
C17 C 0.1153(4) 0.2258(2) 0.01421(12)
C18 C 0.1529(4) 0.14223(19) -0.00009(11)
C19 C 0.1909(4) 0.0788(2) 0.02915(11)
H11 H 0.1988 0.0833 0.0625
C20 C 0.2171(4) 0.0056(2) 0.00376(11)
H12 H 0.2450 -0.0430 0.0187
C21 C 0.1976(4) 0.01301(19) -0.04466(12)
C22 C 0.2032(4) -0.0516(2) -0.08140(13)
C23 C 0.2392(5) -0.1318(2) -0.07004(14)
H13 H 0.2667 -0.1457 -0.0388
C24 C 0.1591(5) -0.0893(3) -0.15992(14)
H14 H 0.1315 -0.0746 -0.1910
C25 C 0.1922(5) -0.1684(3) -0.15194(16)
H15 H 0.1876 -0.2070 -0.1767
C26 C 0.2336(5) -0.1906(2) -0.10563(16)
H16 H 0.2573 -0.2447 -0.0987
S5 S 0.02828(9) 1.15808(5) 0.21012(3)
S6 S -0.07050(9) 0.97307(5) 0.10001(3)
S7 S 0.19055(9) 0.76847(5) 0.05738(3)
S8 S 0.08920(9) 0.58439(5) -0.05304(3)
N3 N 0.0090(3) 1.30169(19) 0.27359(11)
N4 N 0.1002(4) 0.44210(18) -0.11559(10)
C27 C 0.0128(5) 1.3620(2) 0.30653(14)
H17 H 0.0945 1.3708 0.3237
C28 C -0.0970(5) 1.4114(3) 0.31637(16)
H18 H -0.0909 1.4514 0.3403
C29 C -0.2150(5) 1.4003(2) 0.29026(14)
H19 H -0.2910 1.4331 0.2961
C30 C -0.2222(4) 1.3405(2) 0.25497(13)
H20 H -0.3012 1.3334 0.2361
C31 C -0.1079(4) 1.29150(19) 0.24871(12)
C32 C -0.1104(4) 1.22344(19) 0.21338(11)
C33 C -0.2114(4) 1.2016(2) 0.18112(12)
H21 H -0.2934 1.2303 0.1774
C34 C -0.1793(4) 1.1313(2) 0.15414(12)
H22 H -0.2376 1.1091 0.1306
C35 C -0.0537(4) 1.0992(2) 0.16592(11)
C36 C 0.0125(4) 1.0277(2) 0.14580(12)
C37 C 0.1355(4) 0.9921(2) 0.15711(12)
H23 H 0.1946 1.0123 0.1811
C38 C 0.1652(4) 0.9224(2) 0.12949(11)
H24 H 0.2458 0.8923 0.1329
C39 C 0.0629(4) 0.90382(19) 0.09706(12)
C40 C 0.0562(4) 0.83679(19) 0.06197(12)
C41 C -0.0477(4) 0.8179(2) 0.02963(12)
H25 H -0.1282 0.8483 0.0263
C42 C -0.0190(4) 0.74707(19) 0.00177(12)
H26 H -0.0794 0.7258 -0.0214
C43 C 0.1058(4) 0.7133(2) 0.01244(12)
C44 C 0.1708(4) 0.64074(19) -0.00787(12)
C45 C 0.2941(4) 0.6078(2) 0.00375(12)
H27 H 0.3526 0.6300 0.0273
C46 C 0.3264(4) 0.5369(2) -0.02283(12)
H28 H 0.4074 0.5074 -0.0186
C47 C 0.2254(4) 0.51642(19) -0.05559(12)
C48 C 0.2176(4) 0.4476(2) -0.08983(12)
C49 C 0.3258(4) 0.3925(2) -0.09501(13)
H29 H 0.4064 0.3981 -0.0768
C50 C 0.3102(5) 0.3295(2) -0.12772(16)
H30 H 0.3802 0.2914 -0.1318
C51 C 0.1910(5) 0.3233(3) -0.15420(17)
H31 H 0.1792 0.2817 -0.1769
C52 C 0.0902(5) 0.3790(3) -0.14684(15)
H32 H 0.0087 0.3733 -0.1646
loop_
_geom_bond_atom_site_label_1
_geom_bond_atom_site_label_2
_geom_bond_site_symmetry_1
_geom_bond_site_symmetry_2
S1 C6 1_555 1_555
S2 C10 1_555 1_555
S3 C14 1_555 1_555
S4 C18 1_555 1_555
S5 C32 1_555 1_555
S6 C36 1_555 1_555
S7 C40 1_555 1_555
S8 C44 1_555 1_555
N1 C1 1_555 1_555
N2 C22 1_555 1_555
N3 C27 1_555 1_555
N4 C48 1_555 1_555
C1 H1 1_555 1_555
C2 C1 1_555 1_555
H2 C2 1_555 1_555
C3 C2 1_555 1_555
H3 C3 1_555 1_555
C4 C3 1_555 1_555
H4 C4 1_555 1_555
C5 N1 1_555 1_555
C6 C5 1_555 1_555
C7 C6 1_555 1_555
H5 C7 1_555 1_555
C8 C7 1_555 1_555
H6 C8 1_555 1_555
C9 S1 1_555 1_555
C10 C9 1_555 1_555
C11 C10 1_555 1_555
H7 C11 1_555 1_555
C12 C11 1_555 1_555
H8 C12 1_555 1_555
C13 S2 1_555 1_555
C14 C13 1_555 1_555
C15 C14 1_555 1_555
H9 C15 1_555 1_555
C16 C15 1_555 1_555
H10 C16 1_555 1_555
C17 S3 1_555 1_555
C18 C17 1_555 1_555
C19 C18 1_555 1_555
H11 C19 1_555 1_555
C20 C19 1_555 1_555
H12 C20 1_555 1_555
C21 S4 1_555 1_555
C22 C21 1_555 1_555
C23 C22 1_555 1_555
H13 C23 1_555 1_555
C24 N2 1_555 1_555
H14 C24 1_555 1_555
C25 C24 1_555 1_555
H15 C25 1_555 1_555
C26 C23 1_555 1_555
H16 C26 1_555 1_555
C27 H17 1_555 1_555
C28 C27 1_555 1_555
H18 C28 1_555 1_555
C29 C28 1_555 1_555
H19 C29 1_555 1_555
C30 C29 1_555 1_555
H20 C30 1_555 1_555
C31 N3 1_555 1_555
C32 C31 1_555 1_555
C33 C32 1_555 1_555
H21 C33 1_555 1_555
C34 C33 1_555 1_555
H22 C34 1_555 1_555
C35 S5 1_555 1_555
C36 C35 1_555 1_555
C37 C36 1_555 1_555
H23 C37 1_555 1_555
C38 C37 1_555 1_555
H24 C38 1_555 1_555
C39 S6 1_555 1_555
C40 C39 1_555 1_555
C41 C40 1_555 1_555
H25 C41 1_555 1_555
C42 C41 1_555 1_555
H26 C42 1_555 1_555
C43 S7 1_555 1_555
C44 C43 1_555 1_555
C45 C44 1_555 1_555
H27 C45 1_555 1_555
C46 C45 1_555 1_555
H28 C46 1_555 1_555
C47 S8 1_555 1_555
C48 C47 1_555 1_555
C49 C48 1_555 1_555
H29 C49 1_555 1_555
C50 C49 1_555 1_555
H30 C50 1_555 1_555
C51 C50 1_555 1_555
H31 C51 1_555 1_555
C52 N4 1_555 1_555
H32 C52 1_555 1_555
C4 C5 1_555 1_555
C8 C9 1_555 1_555
C12 C13 1_555 1_555
C16 C17 1_555 1_555
C20 C21 1_555 1_555
C25 C26 1_555 1_555
C30 C31 1_555 1_555
C34 C35 1_555 1_555
C38 C39 1_555 1_555
C42 C43 1_555 1_555
C46 C47 1_555 1_555
C51 C52 1_555 1_555

#END
