
#######################################################################
#
#                 Cambridge Crystallographic Data Centre
#                                CCDC 
#
#######################################################################
#
# If this CIF has been generated from an entry in the Cambridge 
# Structural Database, then it will include bibliographic, chemical, 
# crystal, experimental, refinement or atomic coordinate data resulting 
# from the CCDC's data processing and validation procedures.
#
#######################################################################

data_OFODAR
_chemical_formula_moiety         'C16 H22 B10'
_chemical_name_systematic        
7-phenyl-3,4-dihydronaphtho(1,2)-1,2-dicarba-closo-dodecaborane
_symmetry_cell_setting           monoclinic
_symmetry_space_group_name_H-M   'P 21/n'
_symmetry_Int_Tables_number      14
_space_group_name_Hall           '-P 2yn'
loop_
_symmetry_equiv_pos_site_id
_symmetry_equiv_pos_as_xyz
1 x,y,z
2 1/2-x,1/2+y,1/2-z
3 -x,-y,-z
4 1/2+x,1/2-y,1/2+z
_cell_length_a                   10.1765(2)
_cell_length_b                   15.4229(4)
_cell_length_c                   23.5228(6)
_cell_angle_alpha                90
_cell_angle_beta                 91.8169(14)
_cell_angle_gamma                90
_cell_volume                     3690.07
_exptl_crystal_colour            colorless
_exptl_crystal_description       block
_cell_formula_units_Z            8
loop_
_atom_site_label
_atom_site_type_symbol
_atom_site_fract_x
_atom_site_fract_y
_atom_site_fract_z
C1 C 0.6997(2) 0.35177(15) 0.14930(9)
C2 C 0.6997(2) 0.38475(14) 0.08252(8)
C3 C 0.8312(2) 0.32142(17) 0.17451(9)
H1 H 0.8315 0.3290 0.2154
H2 H 0.8413 0.2600 0.1668
C4 C 0.9472(2) 0.36985(17) 0.15102(10)
H3 H 0.9476 0.4285 0.1659
H4 H 1.0278 0.3419 0.1644
C5 C 0.9461(2) 0.37389(15) 0.08691(9)
C6 C 1.0633(2) 0.37073(16) 0.05853(11)
H5 H 1.1418 0.3651 0.0795
C7 C 1.0666(2) 0.37572(17) 0.00021(11)
H6 H 1.1473 0.3745 -0.0173
C8 C 0.9518(2) 0.38258(15) -0.03303(10)
C9 C 0.8339(2) 0.38620(14) -0.00452(9)
H7 H 0.7554 0.3917 -0.0255
C10 C 0.8305(2) 0.38187(14) 0.05449(9)
C11 C 0.9536(2) 0.38529(15) -0.09630(10)
C12 C 1.0556(3) 0.34723(17) -0.12546(11)
H8 H 1.1241 0.3203 -0.1052
C13 C 1.0560(3) 0.3491(2) -0.18422(12)
H9 H 1.1249 0.3233 -0.2030
C14 C 0.9565(3) 0.38856(19) -0.21520(12)
H10 H 0.9576 0.3897 -0.2547
C15 C 0.8551(3) 0.42640(18) -0.18709(11)
H11 H 0.7868 0.4530 -0.2077
C16 C 0.8542(3) 0.42512(16) -0.12839(10)
H12 H 0.7853 0.4516 -0.1100
B1 B 0.6286(3) 0.28610(18) 0.09739(11)
H13 H 0.6680 0.2230 0.0843
B2 B 0.5561(3) 0.3014(2) 0.16398(12)
H14 H 0.5479 0.2479 0.1946
B3 B 0.5875(3) 0.4079(2) 0.18703(11)
H15 H 0.5996 0.4231 0.2326
B4 B 0.6815(3) 0.46114(18) 0.13580(11)
H16 H 0.7548 0.5110 0.1475
B5 B 0.5542(2) 0.35828(19) 0.04795(11)
H17 H 0.5446 0.3422 0.0024
B6 B 0.4593(3) 0.3065(2) 0.09965(12)
H18 H 0.3863 0.2564 0.0881
B7 B 0.4334(3) 0.3821(2) 0.15515(12)
H19 H 0.3431 0.3812 0.1796
B8 B 0.5117(3) 0.4806(2) 0.13791(12)
H20 H 0.4728 0.5438 0.1511
B9 B 0.5875(3) 0.46568(18) 0.07153(11)
H21 H 0.5997 0.5190 0.0411
B10 B 0.4325(3) 0.4176(2) 0.08337(11)
H22 H 0.3422 0.4401 0.0610
C17 C 0.1641(2) 0.35129(15) 0.34734(9)
C18 C 0.1812(2) 0.38394(14) 0.41388(8)
C19 C 0.2892(2) 0.32021(17) 0.31978(10)
H23 H 0.3004 0.2588 0.3273
H24 H 0.2795 0.3276 0.2789
C20 C 0.4116(2) 0.36809(18) 0.34095(10)
H25 H 0.4884 0.3397 0.3261
H26 H 0.4091 0.4268 0.3262
C21 C 0.4257(2) 0.37167(15) 0.40487(10)
C22 C 0.5488(2) 0.36813(17) 0.43139(12)
H27 H 0.6221 0.3627 0.4091
C23 C 0.5667(2) 0.37228(17) 0.48943(12)
H28 H 0.6514 0.3698 0.5054
C24 C 0.4601(2) 0.38014(15) 0.52463(10)
C25 C 0.3350(2) 0.38437(15) 0.49825(9)
H29 H 0.2617 0.3900 0.5206
C26 C 0.3178(2) 0.38034(14) 0.43961(9)
C27 C 0.4769(2) 0.38282(16) 0.58750(11)
C28 C 0.5856(3) 0.34549(19) 0.61539(13)
H30 H 0.6494 0.3182 0.5943
C29 C 0.6001(3) 0.3484(2) 0.67397(15)
H31 H 0.6733 0.3229 0.6918
C30 C 0.5080(4) 0.3881(2) 0.70606(14)
H32 H 0.5188 0.3902 0.7454
C31 C 0.3992(3) 0.42500(19) 0.67959(12)
H33 H 0.3356 0.4517 0.7011
C32 C 0.3846(3) 0.42234(17) 0.62125(11)
H34 H 0.3108 0.4477 0.6039
B11 B 0.1506(3) 0.46051(18) 0.36110(11)
H35 H 0.2215 0.5100 0.3481
B12 B 0.0447(3) 0.4083(2) 0.31171(12)
H36 H 0.0465 0.4239 0.2661
B13 B 0.0171(3) 0.3014(2) 0.33538(12)
H37 H 0.0010 0.2479 0.3051
B14 B 0.1053(3) 0.28554(19) 0.40017(11)
H38 H 0.1471 0.2222 0.4124
B15 B 0.0725(3) 0.46573(19) 0.42707(11)
H39 H 0.0927 0.5189 0.4573
B16 B -0.0191(3) 0.4811(2) 0.36210(11)
H40 H -0.0607 0.5444 0.3498
B17 B -0.1026(3) 0.3825(2) 0.34576(12)
H41 H -0.1983 0.3818 0.3227
B18 B -0.0642(3) 0.3064(2) 0.40080(12)
H42 H -0.1347 0.2565 0.4135
B19 B 0.0436(3) 0.35860(19) 0.45079(11)
H43 H 0.0445 0.3428 0.4964
B20 B -0.0849(3) 0.4182(2) 0.41762(11)
H44 H -0.1694 0.4411 0.4415
loop_
_geom_bond_atom_site_label_1
_geom_bond_atom_site_label_2
_geom_bond_site_symmetry_1
_geom_bond_site_symmetry_2
C1 C2 1_555 1_555
C2 C10 1_555 1_555
C3 C1 1_555 1_555
H1 C3 1_555 1_555
H2 C3 1_555 1_555
C4 C3 1_555 1_555
H3 C4 1_555 1_555
H4 C4 1_555 1_555
C5 C4 1_555 1_555
C6 C5 1_555 1_555
H5 C6 1_555 1_555
C7 C6 1_555 1_555
H6 C7 1_555 1_555
C8 C7 1_555 1_555
C9 C8 1_555 1_555
H7 C9 1_555 1_555
C10 C5 1_555 1_555
C11 C8 1_555 1_555
C12 C11 1_555 1_555
H8 C12 1_555 1_555
C13 C12 1_555 1_555
H9 C13 1_555 1_555
C14 C13 1_555 1_555
H10 C14 1_555 1_555
C15 C14 1_555 1_555
H11 C15 1_555 1_555
C16 C11 1_555 1_555
H12 C16 1_555 1_555
B1 C1 1_555 1_555
H13 B1 1_555 1_555
B2 C1 1_555 1_555
H14 B2 1_555 1_555
B3 C1 1_555 1_555
H15 B3 1_555 1_555
B4 C1 1_555 1_555
H16 B4 1_555 1_555
B5 C2 1_555 1_555
H17 B5 1_555 1_555
B6 B1 1_555 1_555
H18 B6 1_555 1_555
B7 B2 1_555 1_555
H19 B7 1_555 1_555
B8 B3 1_555 1_555
H20 B8 1_555 1_555
B9 C2 1_555 1_555
H21 B9 1_555 1_555
B10 B5 1_555 1_555
H22 B10 1_555 1_555
C17 C18 1_555 1_555
C18 C26 1_555 1_555
C19 C17 1_555 1_555
H23 C19 1_555 1_555
H24 C19 1_555 1_555
C20 C19 1_555 1_555
H25 C20 1_555 1_555
H26 C20 1_555 1_555
C21 C20 1_555 1_555
C22 C21 1_555 1_555
H27 C22 1_555 1_555
C23 C22 1_555 1_555
H28 C23 1_555 1_555
C24 C23 1_555 1_555
C25 C24 1_555 1_555
H29 C25 1_555 1_555
C26 C21 1_555 1_555
C27 C24 1_555 1_555
C28 C27 1_555 1_555
H30 C28 1_555 1_555
C29 C28 1_555 1_555
H31 C29 1_555 1_555
C30 C29 1_555 1_555
H32 C30 1_555 1_555
C31 C30 1_555 1_555
H33 C31 1_555 1_555
C32 C27 1_555 1_555
H34 C32 1_555 1_555
B11 C17 1_555 1_555
H35 B11 1_555 1_555
B12 C17 1_555 1_555
H36 B12 1_555 1_555
B13 C17 1_555 1_555
H37 B13 1_555 1_555
B14 C17 1_555 1_555
H38 B14 1_555 1_555
B15 C18 1_555 1_555
H39 B15 1_555 1_555
B16 B11 1_555 1_555
H40 B16 1_555 1_555
B17 B12 1_555 1_555
H41 B17 1_555 1_555
B18 B13 1_555 1_555
H42 B18 1_555 1_555
B19 C18 1_555 1_555
H43 B19 1_555 1_555
B20 B15 1_555 1_555
H44 B20 1_555 1_555
C2 B1 1_555 1_555
C2 B4 1_555 1_555
C9 C10 1_555 1_555
C15 C16 1_555 1_555
B1 B2 1_555 1_555
B1 B5 1_555 1_555
B2 B3 1_555 1_555
B2 B6 1_555 1_555
B3 B4 1_555 1_555
B3 B7 1_555 1_555
B4 B8 1_555 1_555
B4 B9 1_555 1_555
B5 B6 1_555 1_555
B5 B9 1_555 1_555
B6 B7 1_555 1_555
B6 B10 1_555 1_555
B7 B8 1_555 1_555
B7 B10 1_555 1_555
B8 B9 1_555 1_555
B8 B10 1_555 1_555
B9 B10 1_555 1_555
C18 B11 1_555 1_555
C18 B14 1_555 1_555
C25 C26 1_555 1_555
C31 C32 1_555 1_555
B11 B12 1_555 1_555
B11 B15 1_555 1_555
B12 B13 1_555 1_555
B12 B16 1_555 1_555
B13 B14 1_555 1_555
B13 B17 1_555 1_555
B14 B18 1_555 1_555
B14 B19 1_555 1_555
B15 B16 1_555 1_555
B15 B19 1_555 1_555
B16 B17 1_555 1_555
B16 B20 1_555 1_555
B17 B18 1_555 1_555
B17 B20 1_555 1_555
B18 B19 1_555 1_555
B18 B20 1_555 1_555
B19 B20 1_555 1_555

#END
