
#######################################################################
#
#                 Cambridge Crystallographic Data Centre
#                                CCDC 
#
#######################################################################
#
# If this CIF has been generated from an entry in the Cambridge 
# Structural Database, then it will include bibliographic, chemical, 
# crystal, experimental, refinement or atomic coordinate data resulting 
# from the CCDC's data processing and validation procedures.
#
#######################################################################

data_OFODUL
_chemical_formula_moiety         'C10 H16 B10 F2'
_chemical_name_systematic        
4,5-difluoro-3,4-dihydronaphtho(1,2)-1,2-dicarba-closo-dodecaborane
_symmetry_cell_setting           tetragonal
_symmetry_space_group_name_H-M   'P 42 b c'
_symmetry_Int_Tables_number      106
_space_group_name_Hall           'P 4c -2ab'
loop_
_symmetry_equiv_pos_site_id
_symmetry_equiv_pos_as_xyz
1 x,y,z
2 -x,-y,z
3 -y,x,1/2+z
4 y,-x,1/2+z
5 1/2+x,1/2-y,z
6 1/2-x,1/2+y,z
7 1/2-y,1/2-x,1/2+z
8 1/2+y,1/2+x,1/2+z
_cell_length_a                   20.5496(7)
_cell_length_b                   20.5496(7)
_cell_length_c                   6.9985(3)
_cell_angle_alpha                90
_cell_angle_beta                 90
_cell_angle_gamma                90
_cell_volume                     2955.37
_exptl_crystal_colour            colorless
_exptl_crystal_description       prism
_cell_formula_units_Z            8
loop_
_atom_site_label
_atom_site_type_symbol
_atom_site_fract_x
_atom_site_fract_y
_atom_site_fract_z
F1 F -0.41724(8) 0.02590(8) -0.2578(3)
F2 F -0.45598(8) -0.11200(9) -0.3973(3)
C1 C -0.27963(12) 0.06184(10) -0.4462(4)
C2 C -0.24550(10) -0.00527(9) -0.3718(3)
C3 C -0.34923(12) 0.05681(12) -0.5180(4)
H1 H -0.3708 0.0980 -0.4944
H2 H -0.3481 0.0504 -0.6553
C4 C -0.38991(12) 0.00355(12) -0.4315(4)
H3 H -0.4258 -0.0057 -0.5197
C5 C -0.35489(11) -0.05920(10) -0.3932(3)
C6 C -0.39049(12) -0.11645(12) -0.3795(4)
C7 C -0.36360(15) -0.17604(12) -0.3483(4)
H4 H -0.3895 -0.2131 -0.3421
C8 C -0.29740(14) -0.18016(11) -0.3264(4)
H5 H -0.2779 -0.2204 -0.3059
C9 C -0.25937(13) -0.12445(11) -0.3347(4)
H6 H -0.2146 -0.1275 -0.3181
C10 C -0.28773(11) -0.06458(10) -0.3676(3)
B1 B -0.22251(14) 0.02435(13) -0.5923(4)
H7 H -0.2333 0.0006 -0.7296
B2 B -0.22458(17) 0.10979(14) -0.5637(5)
H8 H -0.2368 0.1420 -0.6840
B3 B -0.25008(16) 0.12757(14) -0.3267(6)
H9 H -0.2787 0.1715 -0.2946
B4 B -0.26466(14) 0.05428(13) -0.2044(4)
H10 H -0.3024 0.0498 -0.0935
B5 B -0.16452(14) -0.00698(14) -0.4308(4)
H11 H -0.1372 -0.0516 -0.4636
B6 B -0.14953(16) 0.06714(15) -0.5516(5)
H12 H -0.1121 0.0717 -0.6632
B7 B -0.16664(17) 0.13122(15) -0.3875(7)
H13 H -0.1402 0.1777 -0.3932
B8 B -0.19121(16) 0.09630(17) -0.1657(5)
H14 H -0.1805 0.1197 -0.0279
B9 B -0.18997(14) 0.01058(14) -0.1930(4)
H15 H -0.1792 -0.0226 -0.0736
B10 B -0.12887(16) 0.05859(16) -0.3050(6)
H16 H -0.0779 0.0575 -0.2572
loop_
_geom_bond_atom_site_label_1
_geom_bond_atom_site_label_2
_geom_bond_site_symmetry_1
_geom_bond_site_symmetry_2
F1 C4 1_555 1_555
F2 C6 1_555 1_555
C1 C2 1_555 1_555
C2 C10 1_555 1_555
C3 C1 1_555 1_555
H1 C3 1_555 1_555
H2 C3 1_555 1_555
C4 C3 1_555 1_555
H3 C4 1_555 1_555
C5 C4 1_555 1_555
C6 C5 1_555 1_555
C7 C6 1_555 1_555
H4 C7 1_555 1_555
C8 C7 1_555 1_555
H5 C8 1_555 1_555
C9 C8 1_555 1_555
H6 C9 1_555 1_555
C10 C5 1_555 1_555
B1 C1 1_555 1_555
H7 B1 1_555 1_555
B2 C1 1_555 1_555
H8 B2 1_555 1_555
B3 C1 1_555 1_555
H9 B3 1_555 1_555
B4 C1 1_555 1_555
H10 B4 1_555 1_555
B5 C2 1_555 1_555
H11 B5 1_555 1_555
B6 B1 1_555 1_555
H12 B6 1_555 1_555
B7 B2 1_555 1_555
H13 B7 1_555 1_555
B8 B3 1_555 1_555
H14 B8 1_555 1_555
B9 C2 1_555 1_555
H15 B9 1_555 1_555
B10 B5 1_555 1_555
H16 B10 1_555 1_555
C2 B1 1_555 1_555
C2 B4 1_555 1_555
C9 C10 1_555 1_555
B1 B2 1_555 1_555
B1 B5 1_555 1_555
B2 B3 1_555 1_555
B2 B6 1_555 1_555
B3 B4 1_555 1_555
B3 B7 1_555 1_555
B4 B8 1_555 1_555
B4 B9 1_555 1_555
B5 B6 1_555 1_555
B5 B9 1_555 1_555
B6 B7 1_555 1_555
B6 B10 1_555 1_555
B7 B8 1_555 1_555
B7 B10 1_555 1_555
B8 B9 1_555 1_555
B8 B10 1_555 1_555
B9 B10 1_555 1_555

#END
