
#######################################################################
#
#                 Cambridge Crystallographic Data Centre
#                                CCDC 
#
#######################################################################
#
# If this CIF has been generated from an entry in the Cambridge 
# Structural Database, then it will include bibliographic, chemical, 
# crystal, experimental, refinement or atomic coordinate data resulting 
# from the CCDC's data processing and validation procedures.
#
#######################################################################

data_OFOFIA
_chemical_formula_moiety         'C13 H14 Cl1 N1 O5'
_chemical_name_systematic        
(R)-5-Chloro-3-(3,3-dimethoxy-2-oxopropyl)-3-hydroxy-1,3-dihydro-2H-indol-2-one
_symmetry_cell_setting           monoclinic
_symmetry_space_group_name_H-M   'P 21'
_symmetry_Int_Tables_number      4
_space_group_name_Hall           'P 2yb'
loop_
_symmetry_equiv_pos_site_id
_symmetry_equiv_pos_as_xyz
1 x,y,z
2 -x,1/2+y,-z
_cell_length_a                   11.027(2)
_cell_length_b                   5.9102(12)
_cell_length_c                   21.499(4)
_cell_angle_alpha                90
_cell_angle_beta                 101.247(11)
_cell_angle_gamma                90
_cell_volume                     1374.22
_exptl_crystal_colour            white
_cell_formula_units_Z            4
loop_
_atom_site_label
_atom_site_type_symbol
_atom_site_fract_x
_atom_site_fract_y
_atom_site_fract_z
C1 C 0.5499(18) 0.026(4) 0.2719(8)
C2 C 0.5693(17) 0.237(4) 0.2472(8)
H1 H 0.5132 0.2964 0.2132
C3 C 0.6783(10) 0.361(2) 0.2756(4)
H2 H 0.7081 0.4803 0.2546
C4 C 0.7354(18) 0.295(4) 0.3345(7)
C5 C 0.7131(16) 0.082(3) 0.3585(7)
C6 C 0.6216(17) -0.056(3) 0.3271(9)
H3 H 0.6085 -0.1998 0.3423
C7 C 0.8755(16) 0.279(3) 0.4268(7)
C8 C 0.8086(16) 0.047(3) 0.4203(7)
C9 C 0.7521(16) -0.003(3) 0.4791(7)
H4 H 0.7012 -0.1375 0.4711
H5 H 0.8184 -0.0343 0.5149
C10 C 0.6757(18) 0.186(3) 0.4963(9)
C11 C 0.618(2) 0.160(4) 0.5559(9)
H6 H 0.5288 0.1458 0.5416
C12 C 0.597(3) -0.093(5) 0.6385(9)
H7 H 0.6289 -0.2318 0.6584
H8 H 0.5103 -0.1071 0.6224
H9 H 0.6120 0.0278 0.6690
C13 C 0.765(3) 0.400(5) 0.6163(12)
H10 H 0.7726 0.5340 0.6421
H11 H 0.8042 0.4243 0.5808
H12 H 0.8036 0.2753 0.6411
N1 N 0.8361(14) 0.400(2) 0.3734(6)
H13 H 0.8686 0.5252 0.3646
O1 O 0.9573(11) 0.337(3) 0.4715(5)
O2 O 0.8927(11) -0.124(2) 0.4109(5)
H14 H 0.9455 -0.1395 0.4432
O3 O 0.6596(17) 0.362(3) 0.4676(7)
O4 O 0.6399(17) 0.352(3) 0.5945(8)
O5 O 0.6603(15) -0.042(3) 0.5863(6)
Cl1 Cl 0.4336(4) -0.1516(10) 0.2286(2)
C14 C 0.0512(17) 0.024(3) -0.2299(7)
C15 C 0.071(2) 0.233(3) -0.2532(8)
H15 H 0.0128 0.2811 -0.2878
C16 C 0.169(2) 0.387(4) -0.2320(11)
H16 H 0.1890 0.5167 -0.2526
C17 C 0.2355(15) 0.293(3) -0.1671(7)
C18 C 0.2131(16) 0.086(3) -0.1412(8)
C19 C 0.1225(17) -0.053(3) -0.1724(9)
H17 H 0.1084 -0.1939 -0.1560
C20 C 0.3753(16) 0.280(3) -0.0733(8)
C21 C 0.3068(14) 0.049(3) -0.0796(7)
C22 C 0.2520(19) -0.001(3) -0.0228(7)
H18 H 0.3185 -0.0380 0.0124
H19 H 0.2000 -0.1342 -0.0317
C23 C 0.1752(17) 0.191(4) -0.0024(8)
C24 C 0.1189(19) 0.159(4) 0.0556(9)
H20 H 0.0293 0.1467 0.0409
C25 C 0.270(3) 0.397(6) 0.1156(12)
H21 H 0.2803 0.5259 0.1434
H22 H 0.3045 0.4301 0.0789
H23 H 0.3116 0.2691 0.1375
C26 C 0.099(3) -0.103(5) 0.1394(11)
H24 H 0.1329 -0.2441 0.1573
H25 H 0.0117 -0.1194 0.1247
H26 H 0.1149 0.0130 0.1711
N2 N 0.3348(14) 0.404(3) -0.1270(6)
H27 H 0.3655 0.5315 -0.1354
O6 O 0.4590(13) 0.330(3) -0.0301(6)
O7 O 0.3911(11) -0.124(2) -0.0897(5)
H28 H 0.4568 -0.1083 -0.0646
O8 O 0.1539(18) 0.363(3) -0.0310(7)
O9 O 0.1581(14) -0.042(3) 0.0856(7)
O10 O 0.1402(18) 0.347(3) 0.0962(7)
Cl2 Cl -0.0659(6) -0.1424(15) -0.2684(3)
loop_
_geom_bond_atom_site_label_1
_geom_bond_atom_site_label_2
_geom_bond_site_symmetry_1
_geom_bond_site_symmetry_2
C1 C2 1_555 1_555
C2 H1 1_555 1_555
C3 C2 1_555 1_555
H2 C3 1_555 1_555
C4 C3 1_555 1_555
C5 C4 1_555 1_555
C6 C1 1_555 1_555
H3 C6 1_555 1_555
C7 C8 1_555 1_555
C8 C5 1_555 1_555
C9 C8 1_555 1_555
H4 C9 1_555 1_555
H5 C9 1_555 1_555
C10 C9 1_555 1_555
C11 C10 1_555 1_555
H6 C11 1_555 1_555
C12 H7 1_555 1_555
H8 C12 1_555 1_555
H9 C12 1_555 1_555
C13 H10 1_555 1_555
H11 C13 1_555 1_555
H12 C13 1_555 1_555
N1 C4 1_555 1_555
H13 N1 1_555 1_555
O1 C7 1_555 1_555
O2 C8 1_555 1_555
H14 O2 1_555 1_555
O3 C10 1_555 1_555
O4 C11 1_555 1_555
O5 C11 1_555 1_555
Cl1 C1 1_555 1_555
C14 C15 1_555 1_555
C15 H15 1_555 1_555
C16 C15 1_555 1_555
H16 C16 1_555 1_555
C17 C16 1_555 1_555
C18 C17 1_555 1_555
C19 C14 1_555 1_555
H17 C19 1_555 1_555
C20 C21 1_555 1_555
C21 C18 1_555 1_555
C22 C21 1_555 1_555
H18 C22 1_555 1_555
H19 C22 1_555 1_555
C23 C22 1_555 1_555
C24 C23 1_555 1_555
H20 C24 1_555 1_555
C25 H21 1_555 1_555
H22 C25 1_555 1_555
H23 C25 1_555 1_555
C26 H24 1_555 1_555
H25 C26 1_555 1_555
H26 C26 1_555 1_555
N2 C17 1_555 1_555
H27 N2 1_555 1_555
O6 C20 1_555 1_555
O7 C21 1_555 1_555
H28 O7 1_555 1_555
O8 C23 1_555 1_555
O9 C24 1_555 1_555
O10 C24 1_555 1_555
Cl2 C14 1_555 1_555
C5 C6 1_555 1_555
C7 N1 1_555 1_555
C12 O5 1_555 1_555
C13 O4 1_555 1_555
C18 C19 1_555 1_555
C20 N2 1_555 1_555
C25 O10 1_555 1_555
C26 O9 1_555 1_555

#END
