
#######################################################################
#
#                 Cambridge Crystallographic Data Centre
#                                CCDC 
#
#######################################################################
#
# If this CIF has been generated from an entry in the Cambridge 
# Structural Database, then it will include bibliographic, chemical, 
# crystal, experimental, refinement or atomic coordinate data resulting 
# from the CCDC's data processing and validation procedures.
#
#######################################################################

data_OFOGIC
_chemical_formula_moiety         'C22 H24 N2 O7 S1,0.5(C7 H8 N4 O2)'
_chemical_name_systematic        
'N-{2-[1-(3-ethoxy-4-methoxyphenyl)-2-(methylsulfonyl)ethyl]-1,3-dioxo-2,3-dihydro-1H-isoindol-4-yl}acetamide 3,7-dimethyl-3,7-dihydro-1H-purine-2,6-dione solvate'
_symmetry_cell_setting           tetragonal
_symmetry_space_group_name_H-M   'P 41 21 2'
_symmetry_Int_Tables_number      92
_space_group_name_Hall           'P 4abw 2nw'
loop_
_symmetry_equiv_pos_site_id
_symmetry_equiv_pos_as_xyz
1 x,y,z
2 -x,-y,1/2+z
3 1/2-y,1/2+x,1/4+z
4 1/2+y,1/2-x,3/4+z
5 1/2-x,1/2+y,1/4-z
6 1/2+x,1/2-y,3/4-z
7 y,x,-z
8 -y,-x,1/2-z
_cell_length_a                   13.1300(3)
_cell_length_b                   13.1300(3)
_cell_length_c                   28.8287(6)
_cell_angle_alpha                90
_cell_angle_beta                 90
_cell_angle_gamma                90
_cell_volume                     4969.98
_exptl_crystal_colour            colorless
_exptl_crystal_description       block
_cell_formula_units_Z            8
loop_
_atom_site_label
_atom_site_type_symbol
_atom_site_fract_x
_atom_site_fract_y
_atom_site_fract_z
N1 N 0.3493(8) 0.4748(7) 0.6049(3)
C1 C 0.3106(8) 0.4445(8) 0.6477(3)
C2 C 0.4289(8) 0.4101(8) 0.5918(3)
C3 C 0.3707(8) 0.6469(8) 0.5696(4)
C4 C 0.3714(8) 0.3545(8) 0.6633(4)
C5 C 0.2706(8) 0.2823(8) 0.7784(3)
C6 C 0.3612(8) 0.2963(8) 0.7039(3)
C7 C 0.4426(8) 0.3341(8) 0.6295(3)
C8 C 0.5102(8) 0.2540(8) 0.6328(3)
H1 H 0.558555 0.239199 0.609295
C9 C 0.2690(8) 0.5115(8) 0.5296(3)
H2 H 0.328696 0.482968 0.513141
H3 H 0.241787 0.568047 0.510481
C10 C 0.4324(8) 0.2153(8) 0.7077(4)
H4 H 0.431888 0.173276 0.734542
C11 C 0.4294(8) 0.6605(8) 0.5298(3)
H5 H 0.429341 0.609390 0.506485
C12 C 0.5023(8) 0.1968(8) 0.6731(4)
H6 H 0.547929 0.141349 0.676982
C13 C 0.3036(8) 0.5539(8) 0.5760(3)
H7 H 0.240918 0.577524 0.592515
C14 C 0.4309(8) 0.8067(8) 0.5988(3)
H8 H 0.430860 0.857000 0.622438
C15 C 0.3725(8) 0.7189(8) 0.6036(4)
H9 H 0.333449 0.709130 0.630975
C16 C 0.4870(8) 0.7463(8) 0.5238(3)
C17 C 0.1948(8) 0.3391(8) 0.8079(4)
H10 H 0.165380 0.292673 0.830857
H11 H 0.140508 0.366357 0.788114
H12 H 0.229187 0.395369 0.823831
C18 C 0.4898(8) 0.8203(8) 0.5586(4)
C19 C 0.5459(8) 0.6891(8) 0.4494(3)
H13 H 0.476943 0.680502 0.436070
H14 H 0.567537 0.623204 0.462920
C20 C 0.1440(8) 0.3905(8) 0.4761(3)
H15 H 0.149091 0.453632 0.458088
H16 H 0.074471 0.363853 0.474043
H17 H 0.191792 0.340112 0.463581
C21 C 0.6211(8) 0.7225(8) 0.4116(4)
H18 H 0.619775 0.673261 0.386045
H19 H 0.689972 0.725780 0.424610
H20 H 0.601600 0.789868 0.399920
C22 C 0.5510(8) 0.9781(8) 0.5892(4)
H21 H 0.589915 1.038549 0.580069
H22 H 0.584169 0.945487 0.615821
H23 H 0.481675 0.998303 0.597826
S1 S 0.17414(18) 0.41541(19) 0.53435(8)
O1 O 0.2422(6) 0.4875(6) 0.6685(2)
O2 O 0.4772(6) 0.4177(6) 0.5551(2)
O3 O 0.3109(6) 0.2038(6) 0.7917(2)
O4 O 0.2200(6) 0.3252(6) 0.5542(2)
O5 O 0.0865(6) 0.4575(6) 0.5569(2)
O6 O 0.5444(6) 0.7666(6) 0.4848(3)
O7 O 0.5469(6) 0.9056(6) 0.5500(3)
N2 N 0.2906(7) 0.3264(7) 0.7363(3)
H24 H 0.253969 0.380301 0.729124
C23? C 1.0073(11) 0.9918(11) 0.4978(4)
C24? C 0.9306(10) 0.9755(10) 0.5318(5)
N3? N 0.9405(10) 1.0522(11) 0.5662(4)
C25? C 1.0233(11) 1.1160(9) 0.5535(4)
H25? H 1.046908 1.173518 0.570373
N4? N 1.0646(10) 1.0787(10) 0.5113(4)
C26? C 1.1470(16) 1.1175(16) 0.4845(7)
H26? H 1.182543 1.061048 0.469293
H27? H 1.194521 1.153836 0.504872
H28? H 1.120731 1.164489 0.460956
C27? C 1.0162(13) 0.9336(13) 0.4552(5)
N5? N 0.9288(12) 0.8659(13) 0.4556(5)
C28? C 0.8537(15) 0.8357(15) 0.4901(5)
N6? N 0.8422(12) 0.9043(12) 0.5297(5)
C29? C 0.7847(15) 0.9108(17) 0.5735(6)
H29? H 0.831049 0.899840 0.599715
H30? H 0.731415 0.858505 0.573870
H31? H 0.753393 0.978284 0.576174
O8? O 1.0635(12) 0.9660(12) 0.4253(5)
O9? O 0.7913(6) 0.7913(6) 0.500000
loop_
_geom_bond_atom_site_label_1
_geom_bond_atom_site_label_2
_geom_bond_site_symmetry_1
_geom_bond_site_symmetry_2
N1 C1 1_555 1_555
C1 C4 1_555 1_555
C2 N1 1_555 1_555
C3 C11 1_555 1_555
C4 C6 1_555 1_555
C5 C17 1_555 1_555
C6 C10 1_555 1_555
C7 C2 1_555 1_555
C8 C7 1_555 1_555
H1 C8 1_555 1_555
C9 H2 1_555 1_555
H3 C9 1_555 1_555
C10 H4 1_555 1_555
C11 H5 1_555 1_555
C12 C8 1_555 1_555
H6 C12 1_555 1_555
C13 N1 1_555 1_555
H7 C13 1_555 1_555
C14 H8 1_555 1_555
C15 C3 1_555 1_555
H9 C15 1_555 1_555
C16 C11 1_555 1_555
C17 H10 1_555 1_555
H11 C17 1_555 1_555
H12 C17 1_555 1_555
C18 C14 1_555 1_555
C19 H13 1_555 1_555
H14 C19 1_555 1_555
C20 H15 1_555 1_555
H16 C20 1_555 1_555
H17 C20 1_555 1_555
C21 C19 1_555 1_555
H18 C21 1_555 1_555
H19 C21 1_555 1_555
H20 C21 1_555 1_555
C22 H21 1_555 1_555
H22 C22 1_555 1_555
H23 C22 1_555 1_555
S1 C9 1_555 1_555
O1 C1 1_555 1_555
O2 C2 1_555 1_555
O3 C5 1_555 1_555
O4 S1 1_555 1_555
O5 S1 1_555 1_555
O6 C16 1_555 1_555
O7 C18 1_555 1_555
N2 C5 1_555 1_555
H24 N2 1_555 1_555
C3 C13 1_555 1_555
C4 C7 1_555 1_555
C6 N2 1_555 1_555
C9 C13 1_555 1_555
C10 C12 1_555 1_555
C14 C15 1_555 1_555
C16 C18 1_555 1_555
C19 O6 1_555 1_555
C20 S1 1_555 1_555
C22 O7 1_555 1_555

#END
