
#######################################################################
#
#                 Cambridge Crystallographic Data Centre
#                                CCDC 
#
#######################################################################
#
# If this CIF has been generated from an entry in the Cambridge 
# Structural Database, then it will include bibliographic, chemical, 
# crystal, experimental, refinement or atomic coordinate data resulting 
# from the CCDC's data processing and validation procedures.
#
#######################################################################

data_OFOHOI
_chemical_name_common            
'1,3-(1,4-Dimethoxypillar[3]arene[2]quinone) unknown solvate'
_chemical_formula_moiety         'C41 H38 O10'
_chemical_name_systematic        
'9,19,24,26,28,32-Hexamethoxyhexacyclo[21.2.2.2^3,6^.2^8,11^.2^13,16^.2^18,21^]pentatriaconta-1(25),3(35),5,8,10,13(31),15,18,20,23,26,28,32-tridecaene-4,14,30,34-tetrone unknown solvate'
_symmetry_cell_setting           triclinic
_symmetry_space_group_name_H-M   'P -1'
_symmetry_Int_Tables_number      2
_space_group_name_Hall           '-P 1'
loop_
_symmetry_equiv_pos_site_id
_symmetry_equiv_pos_as_xyz
1 x,y,z
2 -x,-y,-z
_cell_length_a                   11.8606(5)
_cell_length_b                   17.4274(7)
_cell_length_c                   22.2370(10)
_cell_angle_alpha                71.645(4)
_cell_angle_beta                 76.223(4)
_cell_angle_gamma                74.561(4)
_cell_volume                     4144.86
_exptl_crystal_colour            colorless
_exptl_crystal_description       block
_cell_formula_units_Z            4
loop_
_atom_site_label
_atom_site_type_symbol
_atom_site_fract_x
_atom_site_fract_y
_atom_site_fract_z
O1 O -0.2000(2) 0.51225(15) 0.20758(12)
O2 O -0.4319(3) 0.78691(17) 0.27292(13)
O3 O -0.0790(2) 0.57612(14) 0.38383(12)
O4 O -0.1169(2) 0.91438(13) 0.30445(11)
O5 O 0.2895(3) 0.69603(15) 0.28866(11)
O6 O 0.2002(2) 0.97003(14) 0.10262(10)
O7 O 0.4034(2) 0.67718(13) 0.06604(10)
O8 O 0.0853(2) 0.90828(16) -0.07944(12)
O9 O 0.1065(2) 0.57899(15) -0.00289(11)
O10 O -0.3114(2) 0.80240(14) 0.04244(11)
C1 C -0.3091(3) 0.6375(2) 0.10936(14)
H1 H -0.3824 0.6701 0.0924
H2 H -0.3042 0.5786 0.1129
C2 C -0.3156(3) 0.6474(2) 0.17484(14)
C3 C -0.2510(3) 0.5754(2) 0.22202(15)
C4 C -0.2536(3) 0.5864(2) 0.28503(15)
H3 H -0.2143 0.5415 0.3152
C5 C -0.3073(3) 0.6550(2) 0.30248(14)
C6 C -0.3741(3) 0.7241(2) 0.25735(15)
C7 C -0.3703(3) 0.7154(2) 0.19300(15)
H4 H -0.4092 0.7608 0.1630
C8 C -0.3011(3) 0.6698(2) 0.36567(14)
H5 H -0.3756 0.7062 0.3799
H6 H -0.2915 0.6166 0.3993
C9 C -0.1970(3) 0.7096(2) 0.35597(13)
C10 C -0.0866(3) 0.65954(18) 0.36576(14)
C11 C 0.0093(3) 0.6965(2) 0.35672(13)
H7 H 0.0845 0.6624 0.3642
C12 C -0.0024(3) 0.78163(19) 0.33704(13)
C13 C -0.1133(3) 0.83150(19) 0.32620(13)
C14 C -0.2105(3) 0.7949(2) 0.33651(14)
H8 H -0.2863 0.8287 0.3301
C15 C 0.0300(4) 0.5238(2) 0.3983(3)
H9 H 0.0912 0.5319 0.3599
H10 H 0.0214 0.4661 0.4123
H11 H 0.0529 0.5372 0.4327
C16 C -0.2272(4) 0.9663(2) 0.2905(2)
H12 H -0.2502 0.9530 0.2560
H13 H -0.2196 1.0242 0.2767
H14 H -0.2880 0.9576 0.3291
C17 C 0.1037(3) 0.8208(2) 0.32680(14)
H15 H 0.0757 0.8758 0.3353
H16 H 0.1571 0.7860 0.3577
C18 C 0.1718(3) 0.83004(18) 0.25902(13)
C19 C 0.2658(3) 0.7591(2) 0.24630(14)
C20 C 0.3319(3) 0.76635(19) 0.18003(14)
H17 H 0.3910 0.7204 0.1715
C21 C 0.3126(3) 0.83407(19) 0.13181(14)
C22 C 0.2190(3) 0.90575(19) 0.14462(14)
C23 C 0.1508(3) 0.89814(19) 0.21073(14)
H18 H 0.0900 0.9434 0.2191
C24 C 0.3790(3) 0.8411(2) 0.06410(13)
H19 H 0.4590 0.8049 0.0648
H20 H 0.3884 0.8988 0.0431
C25 C 0.3103(3) 0.81556(19) 0.02668(13)
C26 C 0.3230(3) 0.73220(19) 0.02976(13)
C27 C 0.2556(3) 0.7107(2) -0.00277(13)
H21 H 0.2634 0.6540 0.0004
C28 C 0.1771(3) 0.7692(2) -0.03981(13)
C29 C 0.1650(3) 0.8524(2) -0.04365(14)
C30 C 0.2314(3) 0.8749(2) -0.01054(14)
H22 H 0.2229 0.9316 -0.0134
C31 C 0.4133(4) 0.5913(2) 0.07347(18)
H23 H 0.4383 0.5801 0.0312
H24 H 0.3363 0.5764 0.0933
H25 H 0.4723 0.5587 0.1010
C32 C 0.0924(4) 0.9919(3) -0.0973(2)
H26 H 0.0465 1.0228 -0.1319
H27 H 0.1755 0.9968 -0.1123
H28 H 0.0601 1.0146 -0.0601
C33 C 0.1004(3) 0.7431(2) -0.07220(14)
H29 H 0.0731 0.7901 -0.1080
H30 H 0.1483 0.6972 -0.0905
C34 C -0.0052(3) 0.7158(2) -0.02611(13)
C35 C 0.0016(3) 0.6333(2) 0.00889(14)
C36 C -0.0978(3) 0.6086(2) 0.05286(14)
H31 H -0.0931 0.5521 0.0760
C37 C -0.2028(3) 0.6656(2) 0.06302(14)
C38 C -0.2071(3) 0.7485(2) 0.02917(14)
C39 C -0.1094(3) 0.7728(2) -0.01506(13)
H32 H -0.1141 0.8294 -0.0380
C40 C 0.1324(4) 0.5054(3) 0.04456(18)
H33 H 0.2134 0.4761 0.0323
H34 H 0.0764 0.4707 0.0492
H35 H 0.1256 0.5178 0.0855
C41 C -0.3140(4) 0.8881(2) 0.0130(2)
H36 H -0.2937 0.8978 -0.0338
H37 H -0.2563 0.9054 0.0283
H38 H -0.3936 0.9201 0.0242
O11 O 0.7286(2) 0.16599(14) 0.20953(11)
O12 O 0.4016(2) 0.37398(17) 0.07748(14)
O13 O 0.4367(2) 0.04393(15) 0.16162(12)
O14 O 0.0126(2) 0.26223(14) 0.20252(10)
O15 O 0.1391(2) -0.01710(14) 0.37889(11)
O16 O -0.0591(2) 0.29143(14) 0.42000(11)
O17 O 0.2758(3) 0.08018(15) 0.54306(14)
O18 O 0.2457(2) 0.40359(14) 0.46401(13)
O19 O 0.6417(2) 0.17938(14) 0.43815(10)
O20 O 0.5292(2) 0.46210(14) 0.24393(10)
C42 C 0.6979(3) 0.3328(2) 0.20742(14)
H39 H 0.7036 0.3908 0.1845
H40 H 0.7794 0.2987 0.2057
C43 C 0.6276(3) 0.30357(19) 0.17404(13)
C44 C 0.6518(3) 0.21339(19) 0.18018(13)
C45 C 0.5814(3) 0.1843(2) 0.14885(14)
H41 H 0.5958 0.1267 0.1527
C46 C 0.4984(3) 0.2349(2) 0.11518(14)
C47 C 0.4760(3) 0.3253(2) 0.10824(15)
C48 C 0.5459(3) 0.3538(2) 0.13980(15)
H42 H 0.5321 0.4113 0.1356
C49 C 0.4234(3) 0.2040(2) 0.08472(15)
H43 H 0.3944 0.2485 0.0480
H44 H 0.4723 0.1568 0.0683
C50 C 0.3188(3) 0.1772(2) 0.13404(14)
C51 C 0.3307(3) 0.0957(2) 0.17276(15)
C52 C 0.2354(3) 0.0721(2) 0.21954(15)
H45 H 0.2436 0.0166 0.2455
C53 C 0.1288(3) 0.12771(19) 0.22908(14)
C54 C 0.1187(3) 0.20971(19) 0.19099(14)
C55 C 0.2129(3) 0.2334(2) 0.14387(13)
H46 H 0.2049 0.2889 0.1180
C56 C 0.4586(4) -0.0351(2) 0.2051(2)
H47 H 0.5397 -0.0640 0.1925
H48 H 0.4022 -0.0667 0.2043
H49 H 0.4492 -0.0293 0.2485
C57 C 0.0067(3) 0.3489(2) 0.17264(18)
H50 H 0.0178 0.3593 0.1259
H51 H 0.0692 0.3664 0.1838
H52 H -0.0710 0.3801 0.1879
C58 C 0.0265(3) 0.1021(2) 0.28127(14)
H53 H -0.0497 0.1332 0.2669
H54 H 0.0299 0.0424 0.2889
C59 C 0.0321(3) 0.1186(2) 0.34325(14)
C60 C 0.0886(3) 0.0590(2) 0.39115(15)
C61 C 0.0935(3) 0.0767(2) 0.44665(15)
H55 H 0.1319 0.0347 0.4788
C62 C 0.0439(3) 0.1541(2) 0.45663(14)
C63 C -0.0123(3) 0.21499(19) 0.40883(14)
C64 C -0.0192(3) 0.1965(2) 0.35349(14)
H56 H -0.0597 0.2379 0.3219
C65 C 0.2113(4) -0.0758(2) 0.4211(2)
H57 H 0.2415 -0.1261 0.4065
H58 H 0.1646 -0.0890 0.4644
H59 H 0.2780 -0.0532 0.4220
C66 C -0.1156(4) 0.3547(2) 0.37241(19)
H60 H -0.0582 0.3663 0.3326
H61 H -0.1469 0.4048 0.3873
H62 H -0.1810 0.3368 0.3643
C67 C 0.0489(3) 0.1733(2) 0.51798(15)
H63 H -0.0255 0.2114 0.5300
H64 H 0.0553 0.1216 0.5533
C68 C 0.1536(3) 0.2123(2) 0.50985(13)
C69 C 0.2675(3) 0.1550(2) 0.52312(15)
C70 C 0.3726(3) 0.1905(2) 0.51235(15)
H65 H 0.4458 0.1540 0.5211
C71 C 0.3697(3) 0.2719(2) 0.49082(13)
C72 C 0.2544(3) 0.32811(19) 0.48081(14)
C73 C 0.1500(3) 0.2928(2) 0.49112(14)
H66 H 0.0762 0.3294 0.4840
C74 C 0.4782(3) 0.3088(2) 0.47610(14)
H67 H 0.5352 0.2733 0.5047
H68 H 0.4550 0.3642 0.4841
C75 C 0.5367(3) 0.31619(19) 0.40605(14)
C76 C 0.6177(3) 0.24900(19) 0.38913(14)
C77 C 0.6712(3) 0.2552(2) 0.32516(14)
H69 H 0.7284 0.2098 0.3142
C78 C 0.6413(3) 0.32750(19) 0.27698(14)
C79 C 0.5574(3) 0.39353(19) 0.29411(14)
C80 C 0.5071(3) 0.3879(2) 0.35815(15)
H70 H 0.4516 0.4339 0.3693
C81 C 0.7045(4) 0.1062(2) 0.42132(19)
H71 H 0.6685 0.0984 0.3889
H72 H 0.7013 0.0591 0.4596
H73 H 0.7874 0.1103 0.4038
C82 C 0.4470(4) 0.5303(2) 0.26037(18)
H74 H 0.4341 0.5751 0.2213
H75 H 0.4780 0.5494 0.2890
H76 H 0.3716 0.5139 0.2823
loop_
_geom_bond_atom_site_label_1
_geom_bond_atom_site_label_2
_geom_bond_site_symmetry_1
_geom_bond_site_symmetry_2
O1 C3 1_555 1_555
O2 C6 1_555 1_555
O3 C10 1_555 1_555
O4 C13 1_555 1_555
O5 C19 1_555 1_555
O6 C22 1_555 1_555
O7 C26 1_555 1_555
O8 C29 1_555 1_555
O9 C35 1_555 1_555
O10 C38 1_555 1_555
C1 H1 1_555 1_555
H2 C1 1_555 1_555
C2 C1 1_555 1_555
C3 C2 1_555 1_555
C4 C3 1_555 1_555
H3 C4 1_555 1_555
C5 C4 1_555 1_555
C6 C5 1_555 1_555
C7 C2 1_555 1_555
H4 C7 1_555 1_555
C8 C5 1_555 1_555
H5 C8 1_555 1_555
H6 C8 1_555 1_555
C9 C8 1_555 1_555
C10 C9 1_555 1_555
C11 C10 1_555 1_555
H7 C11 1_555 1_555
C12 C11 1_555 1_555
C13 C12 1_555 1_555
C14 C9 1_555 1_555
H8 C14 1_555 1_555
C15 O3 1_555 1_555
H9 C15 1_555 1_555
H10 C15 1_555 1_555
H11 C15 1_555 1_555
C16 O4 1_555 1_555
H12 C16 1_555 1_555
H13 C16 1_555 1_555
H14 C16 1_555 1_555
C17 C12 1_555 1_555
H15 C17 1_555 1_555
H16 C17 1_555 1_555
C18 C17 1_555 1_555
C19 C18 1_555 1_555
C20 C19 1_555 1_555
H17 C20 1_555 1_555
C21 C20 1_555 1_555
C22 C21 1_555 1_555
C23 C18 1_555 1_555
H18 C23 1_555 1_555
C24 C21 1_555 1_555
H19 C24 1_555 1_555
H20 C24 1_555 1_555
C25 C24 1_555 1_555
C26 C25 1_555 1_555
C27 C26 1_555 1_555
H21 C27 1_555 1_555
C28 C27 1_555 1_555
C29 C28 1_555 1_555
C30 C25 1_555 1_555
H22 C30 1_555 1_555
C31 O7 1_555 1_555
H23 C31 1_555 1_555
H24 C31 1_555 1_555
H25 C31 1_555 1_555
C32 O8 1_555 1_555
H26 C32 1_555 1_555
H27 C32 1_555 1_555
H28 C32 1_555 1_555
C33 C28 1_555 1_555
H29 C33 1_555 1_555
H30 C33 1_555 1_555
C34 C33 1_555 1_555
C35 C34 1_555 1_555
C36 C35 1_555 1_555
H31 C36 1_555 1_555
C37 C1 1_555 1_555
C38 C37 1_555 1_555
C39 C34 1_555 1_555
H32 C39 1_555 1_555
C40 O9 1_555 1_555
H33 C40 1_555 1_555
H34 C40 1_555 1_555
H35 C40 1_555 1_555
C41 O10 1_555 1_555
H36 C41 1_555 1_555
H37 C41 1_555 1_555
H38 C41 1_555 1_555
O11 C44 1_555 1_555
O12 C47 1_555 1_555
O13 C51 1_555 1_555
O14 C54 1_555 1_555
O15 C60 1_555 1_555
O16 C63 1_555 1_555
O17 C69 1_555 1_555
O18 C72 1_555 1_555
O19 C76 1_555 1_555
O20 C79 1_555 1_555
C42 H39 1_555 1_555
H40 C42 1_555 1_555
C43 C42 1_555 1_555
C44 C43 1_555 1_555
C45 C44 1_555 1_555
H41 C45 1_555 1_555
C46 C45 1_555 1_555
C47 C46 1_555 1_555
C48 C43 1_555 1_555
H42 C48 1_555 1_555
C49 C46 1_555 1_555
H43 C49 1_555 1_555
H44 C49 1_555 1_555
C50 C49 1_555 1_555
C51 C50 1_555 1_555
C52 C51 1_555 1_555
H45 C52 1_555 1_555
C53 C52 1_555 1_555
C54 C53 1_555 1_555
C55 C50 1_555 1_555
H46 C55 1_555 1_555
C56 O13 1_555 1_555
H47 C56 1_555 1_555
H48 C56 1_555 1_555
H49 C56 1_555 1_555
C57 O14 1_555 1_555
H50 C57 1_555 1_555
H51 C57 1_555 1_555
H52 C57 1_555 1_555
C58 C53 1_555 1_555
H53 C58 1_555 1_555
H54 C58 1_555 1_555
C59 C58 1_555 1_555
C60 C59 1_555 1_555
C61 C60 1_555 1_555
H55 C61 1_555 1_555
C62 C61 1_555 1_555
C63 C62 1_555 1_555
C64 C59 1_555 1_555
H56 C64 1_555 1_555
C65 O15 1_555 1_555
H57 C65 1_555 1_555
H58 C65 1_555 1_555
H59 C65 1_555 1_555
C66 O16 1_555 1_555
H60 C66 1_555 1_555
H61 C66 1_555 1_555
H62 C66 1_555 1_555
C67 C62 1_555 1_555
H63 C67 1_555 1_555
H64 C67 1_555 1_555
C68 C67 1_555 1_555
C69 C68 1_555 1_555
C70 C69 1_555 1_555
H65 C70 1_555 1_555
C71 C70 1_555 1_555
C72 C71 1_555 1_555
C73 C68 1_555 1_555
H66 C73 1_555 1_555
C74 C71 1_555 1_555
H67 C74 1_555 1_555
H68 C74 1_555 1_555
C75 C74 1_555 1_555
C76 C75 1_555 1_555
C77 C76 1_555 1_555
H69 C77 1_555 1_555
C78 C42 1_555 1_555
C79 C78 1_555 1_555
C80 C75 1_555 1_555
H70 C80 1_555 1_555
C81 O19 1_555 1_555
H71 C81 1_555 1_555
H72 C81 1_555 1_555
H73 C81 1_555 1_555
C82 O20 1_555 1_555
H74 C82 1_555 1_555
H75 C82 1_555 1_555
H76 C82 1_555 1_555
C6 C7 1_555 1_555
C13 C14 1_555 1_555
C22 C23 1_555 1_555
C29 C30 1_555 1_555
C36 C37 1_555 1_555
C38 C39 1_555 1_555
C47 C48 1_555 1_555
C54 C55 1_555 1_555
C63 C64 1_555 1_555
C72 C73 1_555 1_555
C77 C78 1_555 1_555
C79 C80 1_555 1_555

#END
