
#######################################################################
#
#                 Cambridge Crystallographic Data Centre
#                                CCDC 
#
#######################################################################
#
# If this CIF has been generated from an entry in the Cambridge 
# Structural Database, then it will include bibliographic, chemical, 
# crystal, experimental, refinement or atomic coordinate data resulting 
# from the CCDC's data processing and validation procedures.
#
#######################################################################

data_OFOMAY
_chemical_formula_moiety         
'C36 H42 N20 O10,2(H3 O1 1+),2(Cl1 1-),7(H2 O1)'
_chemical_name_systematic        
'\a,\b,\f-Hexamethylcucurbit(5)uril monohydrate clathrate dioxonium dichloride hexahydrate'
_symmetry_cell_setting           orthorhombic
_symmetry_space_group_name_H-M   'P n m a'
_symmetry_Int_Tables_number      62
_space_group_name_Hall           '-P 2ac 2n'
loop_
_symmetry_equiv_pos_site_id
_symmetry_equiv_pos_as_xyz
1 x,y,z
2 1/2-x,-y,1/2+z
3 1/2+x,1/2-y,1/2-z
4 -x,1/2+y,-z
5 -x,-y,-z
6 1/2+x,y,1/2-z
7 1/2-x,1/2+y,1/2+z
8 x,1/2-y,z
_cell_length_a                   26.618(3)
_cell_length_b                   11.8068(13)
_cell_length_c                   15.2446(17)
_cell_angle_alpha                90
_cell_angle_beta                 90
_cell_angle_gamma                90
_cell_volume                     4790.97
_exptl_crystal_colour            colorless
_cell_formula_units_Z            4
_exptl_crystal_recrystallization_method water
loop_
_atom_site_label
_atom_site_type_symbol
_atom_site_fract_x
_atom_site_fract_y
_atom_site_fract_z
O1 O 0.1057(7) 0.7500 0.1568(10)
O2 O 0.1495(3) 0.6244(12) 0.3365(5)
O3 O 0.0000 0.5000 0.0000
O4 O 0.4659(4) -0.1367(9) 0.3325(8)
O5 O 0.1461(6) 0.337(3) 0.3366(10)
O6 O 0.4284(8) 0.171(2) 0.4949(12)
Cl2 Cl 0.4079(4) 0.0762(7) 0.3750(8)
C1 C 0.2658(3) 0.4174(6) 0.3459(4)
C2 C 0.2993(4) 0.2500 0.4017(6)
H1 H 0.3323 0.2500 0.4301
C3 C 0.3047(4) 0.2500 0.2993(6)
H2 H 0.3400 0.2500 0.2808
C4 C 0.2786(3) 0.3962(5) 0.1862(4)
H3 H 0.3099 0.3762 0.1573
H4 H 0.2765 0.4782 0.1880
C5 C 0.1911(3) 0.4081(6) 0.1361(4)
C6 C 0.2352(3) 0.2500 0.0819(5)
C7 C 0.1809(4) 0.2500 0.0448(5)
C8 C 0.1083(3) 0.3955(6) 0.0702(4)
H5 H 0.0970 0.3732 0.0122
H6 H 0.1085 0.4777 0.0722
C9 C 0.0557(3) 0.4171(7) 0.2025(4)
C10 C 0.0446(4) 0.2500 0.1242(7)
H7 H 0.0262 0.2500 0.0685
C11 C 0.0080(4) 0.2500 0.2024(7)
H8 H -0.0271 0.2500 0.1827
C12 C -0.0080(3) 0.3963(7) 0.3208(4)
H9 H -0.0430 0.3761 0.3129
H10 H -0.0058 0.4784 0.3211
C13 C 0.0431(3) 0.4131(6) 0.4527(4)
C14 C -0.0082(4) 0.2500 0.4482(6)
C15 C 0.0225(4) 0.2500 0.5363(6)
C16 C 0.0881(3) 0.3961(6) 0.5938(4)
H11 H 0.0894 0.4780 0.5888
H12 H 0.0754 0.3782 0.6519
C17 C 0.1756(3) 0.4114(6) 0.5427(4)
C18 C 0.1580(4) 0.2500 0.6280(6)
C19 C 0.2156(4) 0.2500 0.6000(6)
C20 C 0.2640(3) 0.3956(5) 0.5070(4)
H13 H 0.2927 0.3761 0.5432
H14 H 0.2621 0.4776 0.5045
C21 C 0.2772(4) 0.2500 0.0128(6)
H15 H 0.2752 0.1821 -0.0216
H17 H 0.2735 0.3147 -0.0247
C22 C 0.1754(4) 0.2500 -0.0549(6)
H18 H 0.1897 0.3182 -0.0784
H20 H 0.1926 0.1856 -0.0789
C23 C -0.0672(4) 0.2500 0.4583(7)
C24 C -0.0088(4) 0.2500 0.6193(6)
H24 H -0.0279 0.3187 0.6224
H26 H -0.0311 0.1862 0.6188
C25 C 0.1467(5) 0.2500 0.7266(6)
H27 H 0.1596 0.3181 0.7525
H28 H 0.1623 0.1855 0.7535
C26 C 0.2540(4) 0.2500 0.6771(6)
N1 N 0.2728(2) 0.3534(4) 0.4197(3)
N2 N 0.2796(2) 0.3531(4) 0.2754(3)
N3 N 0.2367(2) 0.3524(4) 0.1346(3)
N4 N 0.1591(2) 0.3550(5) 0.0829(4)
N5 N 0.0721(2) 0.3536(5) 0.1350(4)
N6 N 0.0205(2) 0.3537(5) 0.2472(4)
N7 N 0.0089(2) 0.3537(5) 0.4055(4)
N8 N 0.0522(2) 0.3526(5) 0.5284(4)
N9 N 0.1381(2) 0.3528(5) 0.5864(3)
N10 N 0.2198(2) 0.3541(4) 0.5482(3)
O7 O 0.2505(2) 0.5164(4) 0.3445(3)
O8 O 0.1828(2) 0.4973(4) 0.1755(3)
O9 O 0.0677(2) 0.5144(5) 0.2198(3)
O10 O 0.0619(2) 0.5031(4) 0.4333(3)
O11 O 0.16939(18) 0.5042(4) 0.5072(3)
C1G C 0.2658(3) 0.0826(6) 0.3459(4)
C4G C 0.2786(3) 0.1038(5) 0.1862(4)
H3G H 0.3099 0.1238 0.1573
H4G H 0.2765 0.0218 0.1880
C5G C 0.1911(3) 0.0919(6) 0.1361(4)
C8G C 0.1083(3) 0.1045(6) 0.0702(4)
H5G H 0.0970 0.1268 0.0122
H6G H 0.1085 0.0223 0.0722
C9G C 0.0557(3) 0.0829(7) 0.2025(4)
C12G C -0.0080(3) 0.1037(7) 0.3208(4)
H9G H -0.0430 0.1239 0.3129
H10G H -0.0058 0.0216 0.3211
C13G C 0.0431(3) 0.0869(6) 0.4527(4)
C16G C 0.0881(3) 0.1039(6) 0.5938(4)
H11G H 0.0894 0.0220 0.5888
H12G H 0.0754 0.1218 0.6519
C17G C 0.1756(3) 0.0886(6) 0.5427(4)
C20G C 0.2640(3) 0.1044(5) 0.5070(4)
H13G H 0.2927 0.1239 0.5432
H14G H 0.2621 0.0224 0.5045
N1G N 0.2728(2) 0.1466(4) 0.4197(3)
N2G N 0.2796(2) 0.1469(4) 0.2754(3)
N3G N 0.2367(2) 0.1476(4) 0.1346(3)
N4G N 0.1591(2) 0.1450(5) 0.0829(4)
N5G N 0.0721(2) 0.1464(5) 0.1350(4)
N6G N 0.0205(2) 0.1463(5) 0.2472(4)
N7G N 0.0089(2) 0.1463(5) 0.4055(4)
N8G N 0.0522(2) 0.1474(5) 0.5284(4)
N9G N 0.1381(2) 0.1472(5) 0.5864(3)
N10G N 0.2198(2) 0.1459(4) 0.5482(3)
O7G O 0.2505(2) -0.0164(4) 0.3445(3)
O8G O 0.1828(2) 0.0027(4) 0.1755(3)
O9G O 0.0677(2) -0.0144(5) 0.2198(3)
O10G O 0.0619(2) -0.0031(4) 0.4333(3)
O11G O 0.16939(18) -0.0042(4) 0.5072(3)
Cl1? Cl 0.3958(5) 0.0441(16) 0.3362(19)
H16? H 0.3093 0.2532 0.0416
H19? H 0.1404 0.2462 -0.0701
H21? H -0.0777 0.3186 0.4867
H22? H -0.0774 0.1860 0.4929
H23? H -0.0825 0.2454 0.4013
H25? H 0.0130 0.2450 0.6694
H29? H 0.1110 0.2464 0.7355
H30? H 0.2507 0.3191 0.7099
H31? H 0.2875 0.2443 0.6542
H32? H 0.2474 0.1867 0.7149
loop_
_geom_bond_atom_site_label_1
_geom_bond_atom_site_label_2
_geom_bond_site_symmetry_1
_geom_bond_site_symmetry_2
C1 N1 1_555 1_555
C2 H1 1_555 1_555
C3 C2 1_555 1_555
H2 C3 1_555 1_555
C4 H3 1_555 1_555
H4 C4 1_555 1_555
C5 N3 1_555 1_555
C6 C7 1_555 1_555
C7 C22 1_555 1_555
C8 H5 1_555 1_555
H6 C8 1_555 1_555
C9 N5 1_555 1_555
C10 H7 1_555 1_555
C11 C10 1_555 1_555
H8 C11 1_555 1_555
C12 H9 1_555 1_555
H10 C12 1_555 1_555
C13 N7 1_555 1_555
C14 C15 1_555 1_555
C15 C24 1_555 1_555
C16 H11 1_555 1_555
H12 C16 1_555 1_555
C17 N9 1_555 1_555
C18 C19 1_555 1_555
C19 C26 1_555 1_555
C20 H13 1_555 1_555
H14 C20 1_555 1_555
C21 C6 1_555 1_555
H15 C21 1_555 1_555
H17 C21 1_555 1_555
C22 H18 1_555 1_555
H20 C22 1_555 1_555
C23 C14 1_555 1_555
C24 H24 1_555 1_555
H26 C24 1_555 1_555
C25 C18 1_555 1_555
H27 C25 1_555 1_555
H28 C25 1_555 1_555
N1 C2 1_555 1_555
N2 C1 1_555 1_555
N3 C4 1_555 1_555
N4 C5 1_555 1_555
N5 C8 1_555 1_555
N6 C9 1_555 1_555
N7 C12 1_555 1_555
N8 C13 1_555 1_555
N9 C16 1_555 1_555
N10 C17 1_555 1_555
O7 C1 1_555 1_555
O8 C5 1_555 1_555
O9 C9 1_555 1_555
O10 C13 1_555 1_555
O11 C17 1_555 1_555
C1G N1G 1_555 1_555
C4G H3G 1_555 1_555
H4G C4G 1_555 1_555
C5G N3G 1_555 1_555
C8G H5G 1_555 1_555
H6G C8G 1_555 1_555
C9G N5G 1_555 1_555
C12G H9G 1_555 1_555
H10G C12G 1_555 1_555
C13G N7G 1_555 1_555
C16G H11G 1_555 1_555
H12G C16G 1_555 1_555
C17G N9G 1_555 1_555
C20G H13G 1_555 1_555
H14G C20G 1_555 1_555
N1G C2 1_555 1_555
N2G C3 1_555 1_555
N3G C6 1_555 1_555
N4G C7 1_555 1_555
N5G C10 1_555 1_555
N6G C11 1_555 1_555
N7G C14 1_555 1_555
N8G C15 1_555 1_555
N9G C18 1_555 1_555
N10G C19 1_555 1_555
O7G C1G 1_555 1_555
O8G C5G 1_555 1_555
O9G C9G 1_555 1_555
O10G C13G 1_555 1_555
O11G C17G 1_555 1_555
C3 N2 1_555 1_555
C4 N2 1_555 1_555
C6 N3 1_555 1_555
C7 N4 1_555 1_555
C8 N4 1_555 1_555
C10 N5 1_555 1_555
C11 N6 1_555 1_555
C12 N6 1_555 1_555
C14 N7 1_555 1_555
C15 N8 1_555 1_555
C16 N8 1_555 1_555
C18 N9 1_555 1_555
C19 N10 1_555 1_555
C20 N1 1_555 1_555
C20 N10 1_555 1_555
C1G N2G 1_555 1_555
C4G N2G 1_555 1_555
C4G N3G 1_555 1_555
C5G N4G 1_555 1_555
C8G N4G 1_555 1_555
C8G N5G 1_555 1_555
C9G N6G 1_555 1_555
C12G N6G 1_555 1_555
C12G N7G 1_555 1_555
C13G N8G 1_555 1_555
C16G N8G 1_555 1_555
C16G N9G 1_555 1_555
C17G N10G 1_555 1_555
C20G N1G 1_555 1_555
C20G N10G 1_555 1_555

#END
