
#######################################################################
#
#                 Cambridge Crystallographic Data Centre
#                                CCDC 
#
#######################################################################
#
# If this CIF has been generated from an entry in the Cambridge 
# Structural Database, then it will include bibliographic, chemical, 
# crystal, experimental, refinement or atomic coordinate data resulting 
# from the CCDC's data processing and validation procedures.
#
#######################################################################

data_OFOQOS
_chemical_formula_moiety         'C54 H60 N12,3(C4 H8 O2),C1 H2 Cl2,H2 O1'
_chemical_name_systematic        
'6,17,28,39,47,55-hexamethyl-5,8,16,19,27,30,38,41,46,49,54,57-dodecaazaheptacyclo[21.21.6.6^12,34^.1^3,43^.1^10,14^.1^21,25^.1^32,36^]hexaconta-1,3(51),4,8,10(60),11,13,15,19,21(59),22,24,26,30,32(52),33,35,37,41,43,45,49,53,57-tetracosaene dichloromethane 1,4-dioxane unknown solvate monohydrate'
_symmetry_cell_setting           orthorhombic
_symmetry_space_group_name_H-M   'F d d d'
_symmetry_Int_Tables_number      70
_space_group_name_Hall           '-F 2uv 2vw'
loop_
_symmetry_equiv_pos_site_id
_symmetry_equiv_pos_as_xyz
1 x,y,z
2 3/4-x,3/4-y,z
3 3/4-x,y,3/4-z
4 x,3/4-y,3/4-z
5 x,1/2+y,1/2+z
6 3/4-x,1/4-y,1/2+z
7 3/4-x,1/2+y,1/4-z
8 x,1/4-y,1/4-z
9 1/2+x,y,1/2+z
10 1/4-x,3/4-y,1/2+z
11 1/4-x,y,1/4-z
12 1/2+x,3/4-y,1/4-z
13 1/2+x,1/2+y,z
14 1/4-x,1/4-y,z
15 1/4-x,1/2+y,3/4-z
16 1/2+x,1/4-y,3/4-z
17 -x,-y,-z
18 1/4+x,1/4+y,-z
19 1/4+x,-y,1/4+z
20 -x,1/4+y,1/4+z
21 -x,1/2-y,1/2-z
22 1/4+x,3/4+y,1/2-z
23 1/4+x,1/2-y,3/4+z
24 -x,3/4+y,3/4+z
25 1/2-x,-y,1/2-z
26 3/4+x,1/4+y,1/2-z
27 3/4+x,-y,3/4+z
28 1/2-x,1/4+y,3/4+z
29 1/2-x,1/2-y,-z
30 3/4+x,3/4+y,-z
31 3/4+x,1/2-y,1/4+z
32 1/2-x,3/4+y,1/4+z
_cell_length_a                   23.321(2)
_cell_length_b                   23.577(2)
_cell_length_c                   26.891(3)
_cell_angle_alpha                90
_cell_angle_beta                 90
_cell_angle_gamma                90
_cell_volume                     14785.7
_exptl_crystal_colour            colorless
_exptl_crystal_description       prism
_cell_formula_units_Z            8
loop_
_atom_site_label
_atom_site_type_symbol
_atom_site_fract_x
_atom_site_fract_y
_atom_site_fract_z
O1 O 0.4628(3) 0.5454(3) 0.4949(3)
C16 C 0.4780(7) 0.5231(9) 0.5389(6)
H18 H 0.4486 0.4947 0.5480
H19 H 0.4760 0.5538 0.5639
C17 C 0.4623(8) 0.5059(7) 0.4558(6)
H20 H 0.4584 0.5251 0.4232
H21 H 0.4307 0.4782 0.4598
O1P O 0.5372(3) 0.4546(3) 0.5051(3)
C16P C 0.5220(7) 0.4769(9) 0.4611(6)
H18P H 0.5514 0.5053 0.4520
H19P H 0.5240 0.4462 0.4361
C17P C 0.5377(8) 0.4941(7) 0.5442(6)
H20P H 0.5416 0.4749 0.5768
H21P H 0.5693 0.5218 0.5402
C18 C 0.6250 0.6250 0.1763(18)
H22 H 0.6494 0.6013 0.1544
Cl1 Cl 0.5818(4) 0.5815(5) 0.2081(4)
H22M H 0.6006 0.6487 0.1544
Cl1M Cl 0.6682(4) 0.6685(5) 0.2081(4)
O2 O 0.6737(13) 0.5448(16) 0.2410(13)
N1 N 0.6756(3) 0.3882(3) 0.5914(4)
N2 N 0.6641(5) 0.5746(3) 0.4158(4)
N3 N 0.8628(4) 0.5883(4) 0.5791(4)
C1 C 0.7011(5) 0.4662(4) 0.5387(5)
C2 C 0.6889(5) 0.4984(4) 0.4984(5)
H1 H 0.6581 0.4870 0.4775
C3 C 0.7204(6) 0.5492(4) 0.4854(6)
C4 C 0.7683(5) 0.5621(5) 0.5156(7)
H2 H 0.7913 0.5941 0.5077
C5 C 0.7823(5) 0.5299(5) 0.5557(5)
C6 C 0.7497(5) 0.4825(4) 0.5674(5)
H3 H 0.7601 0.4602 0.5954
C7 C 0.6662(4) 0.4164(4) 0.5549(5)
H4 H 0.6342 0.4061 0.5350
C8 C 0.7072(6) 0.5836(5) 0.4429(6)
H5 H 0.7319 0.6143 0.4349
C9 C 0.8322(5) 0.5456(5) 0.5877(5)
H6 H 0.8411 0.5223 0.6155
C10 C 0.6376(4) 0.3394(3) 0.5982(3)
C11 C 0.6680(11) 0.2865(9) 0.5936(9)
H7 H 0.6415 0.2550 0.5996
H8 H 0.6991 0.2853 0.6181
H9 H 0.6841 0.2833 0.5600
C12 C 0.6541(7) 0.6123(5) 0.3728(4)
H10 H 0.6803 0.6452 0.3787
C13 C 0.6818(9) 0.5799(9) 0.3271(7)
H11 H 0.6764 0.6023 0.2967
H12 H 0.6633 0.5428 0.3231
H13 H 0.7229 0.5745 0.3331
C14 C 0.9142(5) 0.5941(4) 0.6124(5)
H14 H 0.9108 0.5653 0.6395
C15 C 0.9614(10) 0.5825(11) 0.5863(14)
H15 H 0.9950 0.5846 0.6081
H16 H 0.9655 0.6101 0.5592
H17 H 0.9585 0.5442 0.5723
N1G N 0.6756(3) 0.8618(3) 0.6586(4)
N2G N 0.6641(5) 0.6754(3) 0.8342(4)
N3G N 0.8628(4) 0.6617(4) 0.6709(4)
C1G C 0.7011(5) 0.7838(4) 0.7113(5)
C2G C 0.6889(5) 0.7516(4) 0.7516(5)
H1G H 0.6581 0.7630 0.7725
C3G C 0.7204(6) 0.7008(4) 0.7646(6)
C4G C 0.7683(5) 0.6879(5) 0.7344(7)
H2G H 0.7913 0.6559 0.7423
C5G C 0.7823(5) 0.7201(5) 0.6943(5)
C6G C 0.7497(5) 0.7675(4) 0.6826(5)
H3G H 0.7601 0.7898 0.6546
C7G C 0.6662(4) 0.8336(4) 0.6951(5)
H4G H 0.6342 0.8439 0.7150
C8G C 0.7072(6) 0.6664(5) 0.8071(6)
H5G H 0.7319 0.6357 0.8151
C9G C 0.8322(5) 0.7044(5) 0.6623(5)
H6G H 0.8411 0.7277 0.6345
C10G C 0.6376(4) 0.9106(3) 0.6518(3)
C11G C 0.6680(11) 0.9635(9) 0.6564(9)
H7G H 0.6415 0.9950 0.6504
H8G H 0.6991 0.9647 0.6319
H9G H 0.6841 0.9667 0.6900
C12G C 0.6541(7) 0.6377(5) 0.8772(4)
H10G H 0.6803 0.6048 0.8713
C13G C 0.6818(9) 0.6701(9) 0.9229(7)
H11G H 0.6764 0.6477 0.9533
H12G H 0.6633 0.7072 0.9269
H13G H 0.7229 0.6755 0.9169
C14G C 0.9142(5) 0.6559(4) 0.6376(5)
H14G H 0.9108 0.6847 0.6105
C15G C 0.9614(10) 0.6675(11) 0.6637(14)
H15G H 0.9950 0.6654 0.6419
H16G H 0.9655 0.6399 0.6908
H17G H 0.9585 0.7058 0.6777
N1J N 0.5744(3) 0.3882(3) 0.6586(4)
N2J N 0.5859(5) 0.5746(3) 0.8342(4)
N3J N 0.3872(4) 0.5883(4) 0.6709(4)
C1J C 0.5489(5) 0.4662(4) 0.7113(5)
C2J C 0.5611(5) 0.4984(4) 0.7516(5)
H1J H 0.5919 0.4870 0.7725
C3J C 0.5296(6) 0.5492(4) 0.7646(6)
C4J C 0.4817(5) 0.5621(5) 0.7344(7)
H2J H 0.4587 0.5941 0.7423
C5J C 0.4677(5) 0.5299(5) 0.6943(5)
C6J C 0.5003(5) 0.4825(4) 0.6826(5)
H3J H 0.4899 0.4602 0.6546
C7J C 0.5838(4) 0.4164(4) 0.6951(5)
H4J H 0.6158 0.4061 0.7150
C8J C 0.5428(6) 0.5836(5) 0.8071(6)
H5J H 0.5181 0.6143 0.8151
C9J C 0.4178(5) 0.5456(5) 0.6623(5)
H6J H 0.4089 0.5223 0.6345
C10J C 0.6124(4) 0.3394(3) 0.6518(3)
C11J C 0.5820(11) 0.2865(9) 0.6564(9)
H7J H 0.6085 0.2550 0.6504
H8J H 0.5509 0.2853 0.6319
H9J H 0.5659 0.2833 0.6900
C12J C 0.5959(7) 0.6123(5) 0.8772(4)
H10J H 0.5697 0.6452 0.8713
C13J C 0.5682(9) 0.5799(9) 0.9229(7)
H11J H 0.5736 0.6023 0.9533
H12J H 0.5867 0.5428 0.9269
H13J H 0.5271 0.5745 0.9169
C14J C 0.3358(5) 0.5941(4) 0.6376(5)
H14J H 0.3392 0.5653 0.6105
C15J C 0.2886(10) 0.5825(11) 0.6637(14)
H15J H 0.2550 0.5846 0.6419
H16J H 0.2845 0.6101 0.6908
H17J H 0.2915 0.5442 0.6777
N1M N 0.5744(3) 0.8618(3) 0.5914(4)
N2M N 0.5859(5) 0.6754(3) 0.4158(4)
N3M N 0.3872(4) 0.6617(4) 0.5791(4)
C1M C 0.5489(5) 0.7838(4) 0.5387(5)
C2M C 0.5611(5) 0.7516(4) 0.4984(5)
H1M H 0.5919 0.7630 0.4775
C3M C 0.5296(6) 0.7008(4) 0.4854(6)
C4M C 0.4817(5) 0.6879(5) 0.5156(7)
H2M H 0.4587 0.6559 0.5077
C5M C 0.4677(5) 0.7201(5) 0.5557(5)
C6M C 0.5003(5) 0.7675(4) 0.5674(5)
H3M H 0.4899 0.7898 0.5954
C7M C 0.5838(4) 0.8336(4) 0.5549(5)
H4M H 0.6158 0.8439 0.5350
C8M C 0.5428(6) 0.6664(5) 0.4429(6)
H5M H 0.5181 0.6357 0.4349
C9M C 0.4178(5) 0.7044(5) 0.5877(5)
H6M H 0.4089 0.7277 0.6155
C10M C 0.6124(4) 0.9106(3) 0.5982(3)
C11M C 0.5820(11) 0.9635(9) 0.5936(9)
H7M H 0.6085 0.9950 0.5996
H8M H 0.5509 0.9647 0.6181
H9M H 0.5659 0.9667 0.5600
C12M C 0.5959(7) 0.6377(5) 0.3728(4)
H10M H 0.5697 0.6048 0.3787
C13M C 0.5682(9) 0.6701(9) 0.3271(7)
H11M H 0.5736 0.6477 0.2967
H12M H 0.5867 0.7072 0.3231
H13M H 0.5271 0.6755 0.3331
C14M C 0.3358(5) 0.6559(4) 0.6124(5)
H14M H 0.3392 0.6847 0.6395
C15M C 0.2886(10) 0.6675(11) 0.5863(14)
H15M H 0.2550 0.6654 0.6081
H16M H 0.2845 0.6399 0.5592
H17M H 0.2915 0.7058 0.5723
H23? H 0.6057 0.3409 0.5733
C19? C 0.4531(16) 0.4586(16) 0.4986(14)
H24? H 0.4124 0.4579 0.5092
H25? H 0.4634 0.4206 0.4858
O3? O 0.4888(12) 0.4731(9) 0.5394(9)
H26? H 0.4585 0.4883 0.4226
H27? H 0.4328 0.5360 0.4589
H28? H 0.6494 0.6013 0.1544
loop_
_geom_bond_atom_site_label_1
_geom_bond_atom_site_label_2
_geom_bond_site_symmetry_1
_geom_bond_site_symmetry_2
N1 C7 1_555 1_555
N2 C8 1_555 1_555
N3 C9 1_555 1_555
C1 C2 1_555 1_555
C2 H1 1_555 1_555
C3 C2 1_555 1_555
C4 C3 1_555 1_555
H2 C4 1_555 1_555
C5 C4 1_555 1_555
C6 C1 1_555 1_555
H3 C6 1_555 1_555
C7 C1 1_555 1_555
H4 C7 1_555 1_555
C8 C3 1_555 1_555
H5 C8 1_555 1_555
C9 C5 1_555 1_555
H6 C9 1_555 1_555
C10 N1 1_555 1_555
C11 C10 1_555 1_555
H7 C11 1_555 1_555
H8 C11 1_555 1_555
H9 C11 1_555 1_555
C12 N2 1_555 1_555
H10 C12 1_555 1_555
C13 C12 1_555 1_555
H11 C13 1_555 1_555
H12 C13 1_555 1_555
H13 C13 1_555 1_555
C14 N3 1_555 1_555
H14 C14 1_555 1_555
C15 C14 1_555 1_555
H15 C15 1_555 1_555
H16 C15 1_555 1_555
H17 C15 1_555 1_555
O1 C16 1_555 1_555
C16 H18 1_555 1_555
H19 C16 1_555 1_555
C17 O1 1_555 1_555
H20 C17 1_555 1_555
H21 C17 1_555 1_555
C18 H22 1_555 1_555
Cl1 C18 1_555 1_555
N1G C7G 1_555 1_555
N2G C8G 1_555 1_555
N3G C9G 1_555 1_555
C1G C2G 1_555 1_555
C2G H1G 1_555 1_555
C3G C2G 1_555 1_555
C4G C3G 1_555 1_555
H2G C4G 1_555 1_555
C5G C4G 1_555 1_555
C6G C1G 1_555 1_555
H3G C6G 1_555 1_555
C7G C1G 1_555 1_555
H4G C7G 1_555 1_555
C8G C3G 1_555 1_555
H5G C8G 1_555 1_555
C9G C5G 1_555 1_555
H6G C9G 1_555 1_555
C10G N1G 1_555 1_555
C11G C10G 1_555 1_555
H7G C11G 1_555 1_555
H8G C11G 1_555 1_555
H9G C11G 1_555 1_555
C12G N2G 1_555 1_555
H10G C12G 1_555 1_555
C13G C12G 1_555 1_555
H11G C13G 1_555 1_555
H12G C13G 1_555 1_555
H13G C13G 1_555 1_555
C14G C14 1_555 1_555
H14G C14G 1_555 1_555
C15G C14G 1_555 1_555
H15G C15G 1_555 1_555
H16G C15G 1_555 1_555
H17G C15G 1_555 1_555
N1J C7J 1_555 1_555
N2J C8J 1_555 1_555
N3J C9J 1_555 1_555
C1J C2J 1_555 1_555
C2J H1J 1_555 1_555
C3J C2J 1_555 1_555
C4J C3J 1_555 1_555
H2J C4J 1_555 1_555
C5J C4J 1_555 1_555
C6J C1J 1_555 1_555
H3J C6J 1_555 1_555
C7J C1J 1_555 1_555
H4J C7J 1_555 1_555
C8J C3J 1_555 1_555
H5J C8J 1_555 1_555
C9J C5J 1_555 1_555
H6J C9J 1_555 1_555
C10J C10 1_555 1_555
C11J C10J 1_555 1_555
H7J C11J 1_555 1_555
H8J C11J 1_555 1_555
H9J C11J 1_555 1_555
C12J C12G 1_555 1_555
H10J C12J 1_555 1_555
C13J C12J 1_555 1_555
H11J C13J 1_555 1_555
H12J C13J 1_555 1_555
H13J C13J 1_555 1_555
C14J N3J 1_555 1_555
H14J C14J 1_555 1_555
C15J C14J 1_555 1_555
H15J C15J 1_555 1_555
H16J C15J 1_555 1_555
H17J C15J 1_555 1_555
N1M C7M 1_555 1_555
N2M C8M 1_555 1_555
N3M C9M 1_555 1_555
C1M C2M 1_555 1_555
C2M H1M 1_555 1_555
C3M C2M 1_555 1_555
C4M C3M 1_555 1_555
H2M C4M 1_555 1_555
C5M C4M 1_555 1_555
C6M C1M 1_555 1_555
H3M C6M 1_555 1_555
C7M C1M 1_555 1_555
H4M C7M 1_555 1_555
C8M C3M 1_555 1_555
H5M C8M 1_555 1_555
C9M C5M 1_555 1_555
H6M C9M 1_555 1_555
C10M C10G 1_555 1_555
C11M C10M 1_555 1_555
H7M C11M 1_555 1_555
H8M C11M 1_555 1_555
H9M C11M 1_555 1_555
C12M C12 1_555 1_555
H10M C12M 1_555 1_555
C13M C12M 1_555 1_555
H11M C13M 1_555 1_555
H12M C13M 1_555 1_555
H13M C13M 1_555 1_555
C14M C14J 1_555 1_555
H14M C14M 1_555 1_555
C15M C14M 1_555 1_555
H15M C15M 1_555 1_555
H16M C15M 1_555 1_555
H17M C15M 1_555 1_555
O1P C16P 1_555 1_555
C16P C17 1_555 1_555
H18P C16P 1_555 1_555
H19P C16P 1_555 1_555
C17P C16 1_555 1_555
H20P C17P 1_555 1_555
H21P C17P 1_555 1_555
H22M C18 1_555 1_555
Cl1M C18 1_555 1_555
C5 C6 1_555 1_555
N3G C14G 1_555 1_555
C5G C6G 1_555 1_555
N1J C10J 1_555 1_555
N2J C12J 1_555 1_555
C5J C6J 1_555 1_555
N1M C10M 1_555 1_555
N2M C12M 1_555 1_555
N3M C14M 1_555 1_555
C5M C6M 1_555 1_555
O1P C17P 1_555 1_555

#END
