
#######################################################################
#
#                 Cambridge Crystallographic Data Centre
#                                CCDC 
#
#######################################################################
#
# If this CIF has been generated from an entry in the Cambridge 
# Structural Database, then it will include bibliographic, chemical, 
# crystal, experimental, refinement or atomic coordinate data resulting 
# from the CCDC's data processing and validation procedures.
#
#######################################################################

data_OFOSIL
_chemical_formula_moiety         'C76 H80 N8 O1,C3 H6 O1'
_chemical_name_systematic        
'4,6-bis(2,8,13,17-Tetraethyl-3,7,12,18-tetramethyl-5-porphyrinyl)-dibenzo(b,d)furan acetone solvate'
_symmetry_cell_setting           monoclinic
_symmetry_space_group_name_H-M   'C 2/c'
_symmetry_Int_Tables_number      15
_space_group_name_Hall           '-C 2yn'
loop_
_symmetry_equiv_pos_site_id
_symmetry_equiv_pos_as_xyz
1 x,y,z
2 1/2+x,1/2+y,z
3 x,-y,1/2+z
4 1/2+x,1/2-y,1/2+z
5 -x,-y,-z
6 1/2-x,1/2-y,-z
7 -x,y,1/2-z
8 1/2-x,1/2+y,1/2-z
_cell_length_a                   22.666(2)
_cell_length_b                   13.6749(14)
_cell_length_c                   42.084(4)
_cell_angle_alpha                90.00
_cell_angle_beta                 94.554(2)
_cell_angle_gamma                90.00
_cell_volume                     13003
_exptl_crystal_colour            'brick red'
_exptl_crystal_description       block
_cell_formula_units_Z            8
_exptl_crystal_recrystallization_method pentane/acetone
loop_
_atom_site_label
_atom_site_type_symbol
_atom_site_fract_x
_atom_site_fract_y
_atom_site_fract_z
C1 C 0.371(2) 0.399(2) 0.1354(10)
C2 C 0.3740(17) 0.507(3) 0.0854(6)
C3 C 0.4048(7) 0.4813(15) 0.1175(6)
O1 O 0.4499(5) 0.5190(10) 0.1247(3)
O2 O 0.33162(10) 0.22821(16) 0.20042(5)
N1 N 0.34151(11) 0.1187(2) 0.09518(6)
N2 N 0.13964(12) 0.5829(2) 0.11223(6)
H1 H 0.1677 0.5877 0.1272
N3 N 0.44865(12) 0.2170(2) 0.10992(6)
H2 H 0.4231 0.2080 0.0940
N4 N 0.17258(12) 0.4596(2) 0.17122(6)
N5 N 0.25331(12) 0.6654(2) 0.12180(6)
N6 N 0.33793(12) 0.1764(2) 0.02470(7)
H3 H 0.3613 0.1892 0.0413
N7 N 0.44369(12) 0.2804(2) 0.04001(7)
N8 N 0.28516(11) 0.5452(2) 0.18049(6)
H4 H 0.2546 0.5485 0.1670
C4 C 0.14037(14) 0.6248(2) 0.08285(8)
C5 C 0.18708(15) 0.6808(3) 0.07343(8)
H5 H 0.1832 0.7066 0.0529
C6 C 0.08552(15) 0.6000(3) 0.06511(8)
C7 C 0.08826(14) 0.5321(2) 0.11463(8)
C8 C 0.34506(15) 0.0988(2) 0.12730(8)
C9 C 0.43872(15) 0.2994(3) 0.00799(8)
C10 C 0.32641(15) 0.7743(2) 0.10774(8)
C11 C 0.23926(15) 0.7019(2) 0.09195(8)
C12 C 0.36497(15) 0.1436(2) 0.20560(8)
C13 C 0.25248(15) 0.4013(2) 0.20904(8)
C14 C 0.34468(15) 0.2116(3) -0.00515(8)
C15 C 0.44289(15) 0.1828(3) 0.14017(8)
C16 C 0.33228(14) 0.6082(2) 0.18110(8)
C17 C 0.29640(15) 0.1736(3) -0.02585(8)
C18 C 0.34088(14) 0.6819(3) 0.15927(8)
H6 H 0.3743 0.7205 0.1638
C19 C 0.28909(15) 0.1180(3) 0.02459(8)
C20 C 0.30821(15) 0.2493(3) 0.22918(8)
C21 C 0.10257(15) 0.3406(3) 0.17967(8)
C22 C 0.49030(15) 0.3517(3) -0.00208(8)
C23 C 0.49701(15) 0.3187(3) 0.05092(8)
C24 C 0.34940(15) 0.4991(3) 0.22159(8)
C25 C 0.50081(14) 0.2677(3) 0.10848(8)
C26 C 0.29033(15) 0.0748(3) 0.08281(8)
C27 C 0.28527(15) 0.7689(2) 0.08232(8)
C28 C 0.39355(15) 0.1280(3) 0.14853(8)
C29 C 0.49513(15) 0.2139(3) 0.15940(8)
C30 C 0.29366(15) 0.0406(3) 0.13552(8)
C31 C 0.07685(16) 0.4684(3) 0.13867(8)
C32 C 0.11617(14) 0.4294(2) 0.16277(8)
C33 C 0.15270(16) 0.3142(3) 0.19754(9)
C34 C 0.36350(14) 0.1111(3) 0.23700(8)
C35 C 0.52172(16) 0.3129(3) 0.08227(8)
H7 H 0.5579 0.3445 0.0861
C36 C 0.05279(15) 0.5459(3) 0.08475(9)
C37 C 0.39408(15) 0.0954(3) 0.18254(8)
C38 C 0.29302(14) 0.4764(2) 0.20413(7)
C39 C 0.30657(14) 0.7062(2) 0.13158(8)
C40 C 0.32656(15) 0.1805(3) 0.25255(8)
C41 C 0.25320(16) 0.3344(3) 0.26510(9)
H8 H 0.2285 0.3856 0.2700
C42 C 0.26306(16) 0.1154(3) -0.00779(8)
C43 C 0.53049(15) 0.2637(3) 0.13986(9)
C44 C 0.27094(17) 0.2674(3) 0.28904(9)
H9 H 0.2579 0.2751 0.3093
C45 C 0.26840(15) 0.0733(3) 0.05095(8)
H10 H 0.2343 0.0362 0.0467
C46 C 0.25996(15) 0.0266(3) 0.10774(9)
C47 C 0.52706(15) 0.3639(3) 0.02493(9)
C48 C 0.37237(15) 0.5793(3) 0.20727(8)
C49 C 0.27103(15) 0.3276(2) 0.23421(8)
C50 C 0.30757(16) 0.1899(3) 0.28304(8)
H11 H 0.3192 0.1452 0.2990
C51 C 0.58896(17) 0.3106(3) 0.14932(9)
H12 H 0.6114 0.3162 0.1307
H13 H 0.6112 0.2691 0.1647
C52 C 0.39307(17) 0.0254(3) 0.24645(9)
H14 H 0.3926 0.0022 0.2672
C53 C 0.42285(19) -0.0238(3) 0.22427(10)
C54 C 0.42350(18) 0.0098(3) 0.19314(10)
C55 C 0.5822(2) 0.4110(4) 0.16369(10)
H15 H 0.5602 0.4523 0.1486
H16 H 0.6206 0.4388 0.1690
H17 H 0.5615 0.4055 0.1826
C56 C 0.51054(19) 0.1988(4) 0.19436(9)
H18 H 0.5472 0.2314 0.2006
H19 H 0.5146 0.1302 0.1987
H20 H 0.4797 0.2253 0.2062
C57 C 0.20095(15) -0.0230(3) 0.10291(9)
H21 H 0.1976 -0.0715 0.1195
H22 H 0.1980 -0.0566 0.0825
C58 C 0.38117(15) 0.8353(3) 0.11110(9)
H23 H 0.3830 0.8756 0.0925
H24 H 0.4153 0.7935 0.1133
H25 H 0.3804 0.8761 0.1296
C59 C 0.28670(17) 0.1945(3) -0.06094(9)
H26 H 0.3012 0.2597 -0.0650
H27 H 0.2445 0.1937 -0.0671
C60 C -0.00721(16) 0.5028(3) 0.07718(10)
H28 H -0.0264 0.5354 0.0590
H29 H -0.0304 0.5108 0.0951
H30 H -0.0034 0.4344 0.0726
C61 C 0.28709(17) 0.8149(3) 0.05028(9)
H31 H 0.3113 0.8735 0.0521
H32 H 0.2474 0.8339 0.0424
C62 C 0.39121(15) 0.2700(3) -0.01297(8)
H33 H 0.3908 0.2915 -0.0340
C63 C 0.07103(18) 0.6209(3) 0.03047(9)
C64 C 0.19589(15) 0.3921(3) 0.19283(8)
C65 C 0.27722(18) 0.0026(3) 0.16716(9)
H34 H 0.2431 -0.0390 0.1639
H35 H 0.2683 0.0565 0.1806
H36 H 0.3097 -0.0341 0.1772
C66 C 0.50150(18) 0.3762(3) -0.03568(9)
H37 H 0.5339 0.4225 -0.0355
H38 H 0.4666 0.4076 -0.0459
C67 C 0.20895(17) 0.0572(3) -0.01888(10)
H39 H 0.1834 0.0965 -0.0330
H40 H 0.1883 0.0383 -0.0008
H41 H 0.2206 -0.0002 -0.0299
C68 C 0.04521(16) 0.2853(3) 0.17492(9)
H42 H 0.0129 0.3317 0.1719
H43 H 0.0396 0.2480 0.1940
C69 C 0.15054(18) 0.0500(3) 0.10368(11)
H44 H 0.1544 0.0855 0.1234
H45 H 0.1134 0.0157 0.1019
H46 H 0.1519 0.0948 0.0862
C70 C 0.58780(16) 0.4084(3) 0.02754(9)
H47 H 0.6170 0.3575 0.0298
H48 H 0.5919 0.4506 0.0458
H49 H 0.5933 0.4456 0.0086
C71 C 0.43144(15) 0.6257(3) 0.21567(9)
H50 H 0.4331 0.6886 0.2051
H51 H 0.4365 0.6366 0.2385
C72 C 0.37924(19) 0.4478(3) 0.24992(10)
H52 H 0.3953 0.3868 0.2433
H53 H 0.3509 0.4355 0.2653
H54 H 0.4106 0.4880 0.2594
C73 C 0.5165(2) 0.2872(4) -0.05512(10)
H55 H 0.5501 0.2542 -0.0447
H56 H 0.5257 0.3076 -0.0760
H57 H 0.4832 0.2436 -0.0570
C74 C 0.1608(2) 0.2190(3) 0.21545(13)
H58 H 0.1671 0.2321 0.2379
H59 H 0.1944 0.1849 0.2084
H60 H 0.1260 0.1795 0.2115
C75 C 0.0934(2) 0.5414(4) 0.00895(10)
H61 H 0.1354 0.5344 0.0132
H62 H 0.0845 0.5593 -0.0130
H63 H 0.0744 0.4806 0.0131
C76 C 0.0428(2) 0.2165(3) 0.14676(11)
H64 H 0.0492 0.2527 0.1278
H65 H 0.0047 0.1856 0.1443
H66 H 0.0730 0.1675 0.1502
C77 C 0.31255(19) 0.7443(4) 0.02664(10)
H67 H 0.3517 0.7248 0.0346
H68 H 0.3143 0.7762 0.0064
H69 H 0.2877 0.6876 0.0241
C78 C 0.3169(3) 0.1227(4) -0.08142(11)
H70 H 0.3587 0.1230 -0.0756
H71 H 0.3098 0.1409 -0.1034
H72 H 0.3015 0.0583 -0.0783
H73 H 0.4423(15) -0.078(3) 0.2286(8)
H74 H 0.0899(14) 0.682(3) 0.0248(7)
H75 H 0.0274(18) 0.633(3) 0.0254(9)
H76 H 0.4457(17) -0.028(3) 0.1783(10)
H77 H 0.0395(15) 0.437(2) 0.1368(7)
C82 C 0.4794(2) 0.5633(4) 0.20597(13)
H78 H 0.4801 0.5034 0.2179
H79 H 0.5165 0.5966 0.2100
H80 H 0.4729 0.5489 0.1836
C79? C 0.3330(8) 0.3765(17) 0.1270(5)
O3? O 0.4235(5) 0.4387(10) 0.1492(2)
C80? C 0.3862(9) 0.4365(15) 0.1267(5)
C81? C 0.3915(14) 0.4979(16) 0.0950(5)
loop_
_geom_bond_atom_site_label_1
_geom_bond_atom_site_label_2
_geom_bond_site_symmetry_1
_geom_bond_site_symmetry_2
C1 C3 1_555 1_555
C2 C3 1_555 1_555
C3 O1 1_555 1_555
O2 C12 1_555 1_555
N1 C8 1_555 1_555
N2 H1 1_555 1_555
N3 H2 1_555 1_555
N4 C32 1_555 1_555
N5 C11 1_555 1_555
N6 H3 1_555 1_555
N7 C9 1_555 1_555
N8 H4 1_555 1_555
C4 N2 1_555 1_555
C5 C4 1_555 1_555
H5 C5 1_555 1_555
C6 C4 1_555 1_555
C7 N2 1_555 1_555
C8 C28 1_555 1_555
C9 C22 1_555 1_555
C10 C27 1_555 1_555
C11 C5 1_555 1_555
C12 C34 1_555 1_555
C13 C38 1_555 1_555
C14 N6 1_555 1_555
C15 N3 1_555 1_555
C16 N8 1_555 1_555
C17 C14 1_555 1_555
C18 C16 1_555 1_555
H6 C18 1_555 1_555
C19 N6 1_555 1_555
C20 O2 1_555 1_555
C21 C32 1_555 1_555
C22 C47 1_555 1_555
C23 N7 1_555 1_555
C24 C38 1_555 1_555
C25 N3 1_555 1_555
C26 N1 1_555 1_555
C27 C11 1_555 1_555
C28 C15 1_555 1_555
C29 C15 1_555 1_555
C30 C8 1_555 1_555
C31 C7 1_555 1_555
C32 C31 1_555 1_555
C33 C21 1_555 1_555
C34 C40 1_555 1_555
C35 C23 1_555 1_555
H7 C35 1_555 1_555
C36 C6 1_555 1_555
C37 C12 1_555 1_555
C38 N8 1_555 1_555
C39 N5 1_555 1_555
C40 C20 1_555 1_555
C41 H8 1_555 1_555
C42 C17 1_555 1_555
C43 C25 1_555 1_555
C44 C41 1_555 1_555
H9 C44 1_555 1_555
C45 C19 1_555 1_555
H10 C45 1_555 1_555
C46 C26 1_555 1_555
C47 C23 1_555 1_555
C48 C16 1_555 1_555
C49 C13 1_555 1_555
C50 C40 1_555 1_555
H11 C50 1_555 1_555
C51 C43 1_555 1_555
H12 C51 1_555 1_555
H13 C51 1_555 1_555
C52 C34 1_555 1_555
H14 C52 1_555 1_555
C53 C52 1_555 1_555
C54 C37 1_555 1_555
C55 C51 1_555 1_555
H15 C55 1_555 1_555
H16 C55 1_555 1_555
H17 C55 1_555 1_555
C56 C29 1_555 1_555
H18 C56 1_555 1_555
H19 C56 1_555 1_555
H20 C56 1_555 1_555
C57 C46 1_555 1_555
H21 C57 1_555 1_555
H22 C57 1_555 1_555
C58 C10 1_555 1_555
H23 C58 1_555 1_555
H24 C58 1_555 1_555
H25 C58 1_555 1_555
C59 C17 1_555 1_555
H26 C59 1_555 1_555
H27 C59 1_555 1_555
C60 C36 1_555 1_555
H28 C60 1_555 1_555
H29 C60 1_555 1_555
H30 C60 1_555 1_555
C61 C27 1_555 1_555
H31 C61 1_555 1_555
H32 C61 1_555 1_555
C62 C9 1_555 1_555
H33 C62 1_555 1_555
C63 C6 1_555 1_555
C64 N4 1_555 1_555
C65 C30 1_555 1_555
H34 C65 1_555 1_555
H35 C65 1_555 1_555
H36 C65 1_555 1_555
C66 C22 1_555 1_555
H37 C66 1_555 1_555
H38 C66 1_555 1_555
C67 C42 1_555 1_555
H39 C67 1_555 1_555
H40 C67 1_555 1_555
H41 C67 1_555 1_555
C68 C21 1_555 1_555
H42 C68 1_555 1_555
H43 C68 1_555 1_555
C69 C57 1_555 1_555
H44 C69 1_555 1_555
H45 C69 1_555 1_555
H46 C69 1_555 1_555
C70 C47 1_555 1_555
H47 C70 1_555 1_555
H48 C70 1_555 1_555
H49 C70 1_555 1_555
C71 C48 1_555 1_555
H50 C71 1_555 1_555
H51 C71 1_555 1_555
C72 C24 1_555 1_555
H52 C72 1_555 1_555
H53 C72 1_555 1_555
H54 C72 1_555 1_555
C73 C66 1_555 1_555
H55 C73 1_555 1_555
H56 C73 1_555 1_555
H57 C73 1_555 1_555
C74 C33 1_555 1_555
H58 C74 1_555 1_555
H59 C74 1_555 1_555
H60 C74 1_555 1_555
C75 C63 1_555 1_555
H61 C75 1_555 1_555
H62 C75 1_555 1_555
H63 C75 1_555 1_555
C76 C68 1_555 1_555
H64 C76 1_555 1_555
H65 C76 1_555 1_555
H66 C76 1_555 1_555
C77 C61 1_555 1_555
H67 C77 1_555 1_555
H68 C77 1_555 1_555
H69 C77 1_555 1_555
C78 C59 1_555 1_555
H70 C78 1_555 1_555
H71 C78 1_555 1_555
H72 C78 1_555 1_555
H73 C53 1_555 1_555
H74 C63 1_555 1_555
H75 C63 1_555 1_555
H76 C54 1_555 1_555
H77 C31 1_555 1_555
C82 C71 1_555 1_555
H78 C82 1_555 1_555
H79 C82 1_555 1_555
H80 C82 1_555 1_555
C7 C36 1_555 1_555
C10 C39 1_555 1_555
C13 C64 1_555 1_555
C14 C62 1_555 1_555
C18 C39 1_555 1_555
C19 C42 1_555 1_555
C20 C49 1_555 1_555
C24 C48 1_555 1_555
C25 C35 1_555 1_555
C26 C45 1_555 1_555
C28 C37 1_555 1_555
C29 C43 1_555 1_555
C30 C46 1_555 1_555
C33 C64 1_555 1_555
C41 C49 1_555 1_555
C44 C50 1_555 1_555
C53 C54 1_555 1_555

#END
