
#######################################################################
#
#                 Cambridge Crystallographic Data Centre
#                                CCDC 
#
#######################################################################
#
# If this CIF has been generated from an entry in the Cambridge 
# Structural Database, then it will include bibliographic, chemical, 
# crystal, experimental, refinement or atomic coordinate data resulting 
# from the CCDC's data processing and validation procedures.
#
#######################################################################

data_OFOWAK
_chemical_formula_moiety         'C19 H15 F2 N1 O2'
_chemical_name_systematic        
4-[(1-benzofuran-2-yl)methyl]-3,3-difluoro-1-phenylpyrrolidin-2-one
_symmetry_cell_setting           triclinic
_symmetry_space_group_name_H-M   'P -1'
_symmetry_Int_Tables_number      2
_space_group_name_Hall           '-P 1'
loop_
_symmetry_equiv_pos_site_id
_symmetry_equiv_pos_as_xyz
1 x,y,z
2 -x,-y,-z
_cell_length_a                   9.5617(18)
_cell_length_b                   9.7384(18)
_cell_length_c                   10.228(2)
_cell_angle_alpha                75.270(17)
_cell_angle_beta                 68.659(18)
_cell_angle_gamma                61.422(19)
_cell_volume                     775.255
_exptl_crystal_colour            colorless
_exptl_crystal_description       block
_cell_formula_units_Z            2
loop_
_atom_site_label
_atom_site_type_symbol
_atom_site_fract_x
_atom_site_fract_y
_atom_site_fract_z
C1 C 0.2213(3) 1.1825(3) 0.0744(3)
C2 C 0.2799(3) 1.0659(3) 0.1954(3)
C3 C 0.2418(3) 0.9304(3) 0.2055(3)
H1 H 0.1324 0.9511 0.2739
C4 C 0.2251(4) 0.9443(3) 0.0592(3)
H2 H 0.3279 0.8740 -0.0007
H3 H 0.1363 0.9188 0.0655
C5 C 0.3622(4) 0.7689(3) 0.2474(3)
H4 H 0.3244 0.6936 0.2446
H5 H 0.4692 0.7453 0.1769
C6 C 0.3869(4) 0.7442(3) 0.3873(3)
C7 C 0.5073(4) 0.7401(3) 0.4265(3)
H6 H 0.5978 0.7593 0.3674
C8 C 0.4726(3) 0.7009(3) 0.5755(3)
C9 C 0.3262(3) 0.6839(3) 0.6173(3)
C10 C 0.2533(4) 0.6427(4) 0.7554(3)
H7 H 0.1543 0.6329 0.7815
C11 C 0.3340(5) 0.6169(4) 0.8526(3)
H8 H 0.2897 0.5872 0.9465
C12 C 0.4792(4) 0.6341(3) 0.8137(3)
H9 H 0.5298 0.6172 0.8823
C13 C 0.5512(4) 0.6757(3) 0.6759(3)
H10 H 0.6494 0.6866 0.6506
C14 C 0.1408(3) 1.1712(3) -0.1238(3)
C15 C 0.1899(3) 1.0703(3) -0.2227(3)
H11 H 0.2545 0.9633 -0.2065
C16 C 0.1421(4) 1.1298(3) -0.3454(3)
H12 H 0.1748 1.0623 -0.4117
C17 C 0.0467(4) 1.2876(4) -0.3701(3)
H13 H 0.0149 1.3268 -0.4528
C18 C -0.0016(4) 1.3873(3) -0.2719(3)
H14 H -0.0666 1.4941 -0.2883
C19 C 0.0460(3) 1.3300(3) -0.1489(3)
H15 H 0.0142 1.3981 -0.0835
F1 F 0.4449(2) 1.0231(2) 0.1663(2)
F2 F 0.2080(3) 1.1367(2) 0.31543(18)
N1 N 0.1872(2) 1.1084(2) 0.0030(2)
O1 O 0.2129(3) 1.3144(2) 0.0496(2)
O2 O 0.2701(2) 0.7124(2) 0.5030(2)
loop_
_geom_bond_atom_site_label_1
_geom_bond_atom_site_label_2
_geom_bond_site_symmetry_1
_geom_bond_site_symmetry_2
C1 C2 1_555 1_555
C2 C3 1_555 1_555
C3 H1 1_555 1_555
C4 C3 1_555 1_555
H2 C4 1_555 1_555
H3 C4 1_555 1_555
C5 C3 1_555 1_555
H4 C5 1_555 1_555
H5 C5 1_555 1_555
C6 C5 1_555 1_555
C7 C6 1_555 1_555
H6 C7 1_555 1_555
C8 C7 1_555 1_555
C9 C8 1_555 1_555
C10 C9 1_555 1_555
H7 C10 1_555 1_555
C11 C10 1_555 1_555
H8 C11 1_555 1_555
C12 C11 1_555 1_555
H9 C12 1_555 1_555
C13 C8 1_555 1_555
H10 C13 1_555 1_555
C14 C15 1_555 1_555
C15 H11 1_555 1_555
C16 C15 1_555 1_555
H12 C16 1_555 1_555
C17 C16 1_555 1_555
H13 C17 1_555 1_555
C18 C17 1_555 1_555
H14 C18 1_555 1_555
C19 C14 1_555 1_555
H15 C19 1_555 1_555
F1 C2 1_555 1_555
F2 C2 1_555 1_555
N1 C1 1_555 1_555
O1 C1 1_555 1_555
O2 C6 1_555 1_555
C4 N1 1_555 1_555
C9 O2 1_555 1_555
C12 C13 1_555 1_555
C14 N1 1_555 1_555
C18 C19 1_555 1_555

#END
