
#######################################################################
#
#                 Cambridge Crystallographic Data Centre
#                                CCDC 
#
#######################################################################
#
# If this CIF has been generated from an entry in the Cambridge 
# Structural Database, then it will include bibliographic, chemical, 
# crystal, experimental, refinement or atomic coordinate data resulting 
# from the CCDC's data processing and validation procedures.
#
#######################################################################

data_OFOXUF
_chemical_formula_moiety         'C18 H32 O6,H2 O1'
_chemical_name_systematic        
'5-(hydroxymethyl)-6-(3-hydroxyundec-1-en-1-yl)cyclohex-5-ene-1,2,3,4-tetrol monohydrate'
_symmetry_cell_setting           orthorhombic
_symmetry_space_group_name_H-M   'P 21 21 21'
_symmetry_Int_Tables_number      19
_space_group_name_Hall           'P 2ac 2ab'
loop_
_symmetry_equiv_pos_site_id
_symmetry_equiv_pos_as_xyz
1 x,y,z
2 1/2+x,1/2-y,-z
3 -x,1/2+y,1/2-z
4 1/2-x,-y,1/2+z
_cell_length_a                   4.668
_cell_length_b                   9.78500(10)
_cell_length_c                   41.7773(5)
_cell_angle_alpha                90
_cell_angle_beta                 90
_cell_angle_gamma                90
_cell_volume                     1908.24
_exptl_crystal_colour            colorless
_exptl_crystal_description       needle
_cell_formula_units_Z            4
loop_
_atom_site_label
_atom_site_type_symbol
_atom_site_fract_x
_atom_site_fract_y
_atom_site_fract_z
O1 O -0.3758(2) 1.46586(9) 0.24230(2)
H1 H -0.2319 1.4805 0.2539
O2 O -0.0193(2) 1.02047(8) 0.213484(19)
H2 H -0.1156 0.9515 0.2082
O3 O -0.2298(2) 1.55656(9) 0.17785(2)
H3 H -0.3734 1.5312 0.1673
O4 O 0.3208(2) 1.49655(8) 0.14068(2)
H4 H 0.2512 1.5757 0.1405
O5 O 0.2791(2) 0.77010(8) 0.14179(2)
H5 H 0.3750 0.8025 0.1570
O6 O -0.3093(3) 1.19652(10) 0.25677(2)
H6 H -0.3740 1.1179 0.2531
C1 C -0.2998(3) 1.37549(12) 0.21712(3)
H7 H -0.4801 1.3494 0.2057
C2 C -0.1009(3) 1.44148(12) 0.19263(3)
H8 H 0.0730 1.4742 0.2043
C3 C -0.0028(3) 1.33718(12) 0.16783(3)
C4 C -0.0144(3) 1.20119(12) 0.17251(3)
C5 C 0.1115(3) 1.10377(12) 0.14950(3)
H9 H 0.2783 1.1328 0.1384
C6 C 0.0139(3) 0.97919(12) 0.14284(3)
H10 H -0.1653 0.9521 0.1516
C7 C 0.1737(3) 0.87961(12) 0.12221(3)
H11 H 0.3396 0.9274 0.1120
C8 C -0.0099(3) 0.81497(12) 0.09620(3)
H12 H -0.1026 0.8883 0.0836
H13 H -0.1631 0.7601 0.1064
C9 C 0.1617(3) 0.72340(13) 0.07366(3)
H14 H 0.3144 0.7785 0.0635
H15 H 0.2555 0.6506 0.0864
C10 C -0.0196(3) 0.65728(13) 0.04757(3)
H16 H -0.1724 0.6020 0.0577
H17 H -0.1130 0.7299 0.0348
C11 C 0.1550(3) 0.56619(13) 0.02535(3)
H18 H 0.2446 0.4927 0.0382
H19 H 0.3112 0.6213 0.0158
C12 C -0.0183(3) 0.50106(13) -0.00160(3)
H20 H -0.1717 0.4440 0.0079
H21 H -0.1111 0.5742 -0.0143
C13 C 0.1619(3) 0.41297(13) -0.02389(3)
H22 H 0.2575 0.3411 -0.0111
H23 H 0.3134 0.4706 -0.0335
C14 C -0.0077(3) 0.34498(14) -0.05067(3)
H24 H -0.1570 0.2858 -0.0411
H25 H -0.1054 0.4164 -0.0634
C15 C 0.1787(4) 0.25951(15) -0.07277(3)
H26 H 0.3190 0.3186 -0.0834
H27 H 0.0581 0.2151 -0.0889
H28 H 0.2791 0.1897 -0.0602
C16 C -0.1618(3) 1.24455(12) 0.22941(3)
H29 H 0.0405 1.2652 0.2356
C17 C -0.1582(3) 1.14051(11) 0.20229(3)
H30 H -0.3606 1.1169 0.1968
C18 C 0.0967(3) 1.39884(12) 0.13660(3)
H31 H 0.1652 1.3248 0.1224
H32 H -0.0679 1.4437 0.1260
O7 O 0.3686(2) 0.31484(8) 0.303558(19)
H33 H 0.4795 0.2990 0.2880
H34 H 0.2951 0.2424 0.3084
loop_
_geom_bond_atom_site_label_1
_geom_bond_atom_site_label_2
_geom_bond_site_symmetry_1
_geom_bond_site_symmetry_2
O1 H1 1_555 1_555
O2 H2 1_555 1_555
O3 H3 1_555 1_555
O4 H4 1_555 1_555
O5 H5 1_555 1_555
O6 H6 1_555 1_555
C1 O1 1_555 1_555
H7 C1 1_555 1_555
C2 O3 1_555 1_555
H8 C2 1_555 1_555
C3 C2 1_555 1_555
C4 C3 1_555 1_555
C5 C4 1_555 1_555
H9 C5 1_555 1_555
C6 C5 1_555 1_555
H10 C6 1_555 1_555
C7 O5 1_555 1_555
H11 C7 1_555 1_555
C8 C7 1_555 1_555
H12 C8 1_555 1_555
H13 C8 1_555 1_555
C9 C8 1_555 1_555
H14 C9 1_555 1_555
H15 C9 1_555 1_555
C10 C9 1_555 1_555
H16 C10 1_555 1_555
H17 C10 1_555 1_555
C11 C10 1_555 1_555
H18 C11 1_555 1_555
H19 C11 1_555 1_555
C12 C11 1_555 1_555
H20 C12 1_555 1_555
H21 C12 1_555 1_555
C13 C12 1_555 1_555
H22 C13 1_555 1_555
H23 C13 1_555 1_555
C14 C13 1_555 1_555
H24 C14 1_555 1_555
H25 C14 1_555 1_555
C15 C14 1_555 1_555
H26 C15 1_555 1_555
H27 C15 1_555 1_555
H28 C15 1_555 1_555
C16 O6 1_555 1_555
H29 C16 1_555 1_555
C17 O2 1_555 1_555
H30 C17 1_555 1_555
C18 O4 1_555 1_555
H31 C18 1_555 1_555
H32 C18 1_555 1_555
O7 H33 1_555 1_555
H34 O7 1_555 1_555
C1 C2 1_555 1_555
C1 C16 1_555 1_555
C3 C18 1_555 1_555
C4 C17 1_555 1_555
C6 C7 1_555 1_555
C16 C17 1_555 1_555

#END
