
#######################################################################
#
#                 Cambridge Crystallographic Data Centre
#                                CCDC 
#
#######################################################################
#
# If this CIF has been generated from an entry in the Cambridge 
# Structural Database, then it will include bibliographic, chemical, 
# crystal, experimental, refinement or atomic coordinate data resulting 
# from the CCDC's data processing and validation procedures.
#
#######################################################################

data_OFOXOX
_chemical_formula_moiety         'C20 H20 N2 O3 S1'
_chemical_name_systematic        
6-Benzyl-5-isopropyl-2-((furan-2-ylcarbonylmethyl)thio)pyrimidin-4(3H)-one
_chemical_properties_biological  
'Anti-HIV-1 activity. The compound prevented the cytopathic effect of HIV-1!IIIB$ at low concentrations and was minimally toxic to C8166 cells. Also shown to have inhibitory activity against HIV-1 reverse transcriptase'
_symmetry_cell_setting           monoclinic
_symmetry_space_group_name_H-M   'P 21/c'
_symmetry_Int_Tables_number      14
_space_group_name_Hall           '-P 2ybc'
loop_
_symmetry_equiv_pos_site_id
_symmetry_equiv_pos_as_xyz
1 x,y,z
2 -x,1/2+y,1/2-z
3 -x,-y,-z
4 x,1/2-y,1/2+z
_cell_length_a                   12.5785(17)
_cell_length_b                   9.6073(13)
_cell_length_c                   15.676(2)
_cell_angle_alpha                90.00
_cell_angle_beta                 102.653(2)
_cell_angle_gamma                90.00
_cell_volume                     1848.37
_exptl_crystal_colour            colorless
_exptl_crystal_description       cubic
_chemical_melting_point          '163-164.8 deg.C'
_cell_formula_units_Z            4
_exptl_crystal_recrystallization_method 'ethyl acetate'
loop_
_atom_site_label
_atom_site_type_symbol
_atom_site_fract_x
_atom_site_fract_y
_atom_site_fract_z
S1 S 0.77896(9) 1.00443(15) 0.15937(7)
O1 O 0.9350(4) 0.8477(6) 0.4425(3)
O2 O 0.9626(3) 0.8035(5) 0.2180(2)
O3 O 0.3890(2) 0.9791(4) 0.05114(18)
N1 N 0.5681(3) 0.9837(3) 0.1134(2)
H1 H 0.5826 0.9952 0.0628
N2 N 0.6383(3) 0.9495(5) 0.2623(2)
C1 C 0.9892(5) 0.7520(7) 0.5066(3)
H2 H 0.9862 0.7508 0.5653
C2 C 1.0448(5) 0.6649(6) 0.4675(4)
H3 H 1.0882 0.5927 0.4953
C3 C 1.0296(3) 0.6956(4) 0.3815(2)
H4 H 1.0589 0.6483 0.3402
C4 C 0.9626(3) 0.8097(5) 0.3666(3)
C5 C 0.9333(3) 0.8599(5) 0.2782(3)
C6 C 0.8686(4) 0.9941(5) 0.2651(3)
H5 H 0.9187 1.0722 0.2725
H6 H 0.8261 1.0011 0.3096
C7 C 0.6512(3) 0.9756(5) 0.1844(3)
C8 C 0.4601(3) 0.9739(4) 0.1197(2)
C9 C 0.4429(3) 0.9567(5) 0.2063(3)
C10 C 0.5320(4) 0.9380(6) 0.2725(3)
C11 C 0.3260(3) 0.9555(5) 0.2197(3)
H7 H 0.3316 0.9552 0.2830
C12 C 0.2602(5) 1.0830(7) 0.1847(5)
H8 H 0.1881 1.0746 0.1952
H9 H 0.2560 1.0908 0.1230
H10 H 0.2947 1.1644 0.2138
C13 C 0.2651(5) 0.8266(7) 0.1853(5)
H11 H 0.1925 0.8314 0.1952
H12 H 0.3018 0.7469 0.2149
H13 H 0.2619 0.8188 0.1238
C14 C 0.5252(5) 0.8893(10) 0.3639(3)
H14 H 0.4541 0.9148 0.3736
H15 H 0.5296 0.7885 0.3653
C15 C 0.6304(6) 1.0819(8) 0.4548(5)
H16 H 0.5900 1.1460 0.4165
C16 C 0.7020(7) 1.1290(9) 0.5203(5)
H17 H 0.7113 1.2247 0.5274
C17 C 0.7620(5) 1.0448(10) 0.5772(4)
H18 H 0.8134 1.0817 0.6236
C18 C 0.7497(5) 0.9010(9) 0.5691(3)
H19 H 0.7913 0.8406 0.6094
C19 C 0.6704(5) 0.8506(6) 0.4962(4)
H20 H 0.6592 0.7555 0.4876
C20 C 0.6104(4) 0.9452(6) 0.4385(3)
loop_
_geom_bond_atom_site_label_1
_geom_bond_atom_site_label_2
_geom_bond_site_symmetry_1
_geom_bond_site_symmetry_2
S1 C6 1_555 1_555
O1 C1 1_555 1_555
O2 C5 1_555 1_555
O3 C8 1_555 1_555
N1 H1 1_555 1_555
N2 C7 1_555 1_555
C1 H2 1_555 1_555
C2 C1 1_555 1_555
H3 C2 1_555 1_555
C3 C2 1_555 1_555
H4 C3 1_555 1_555
C4 O1 1_555 1_555
C5 C4 1_555 1_555
C6 C5 1_555 1_555
H5 C6 1_555 1_555
H6 C6 1_555 1_555
C7 S1 1_555 1_555
C8 N1 1_555 1_555
C9 C8 1_555 1_555
C10 N2 1_555 1_555
C11 C9 1_555 1_555
H7 C11 1_555 1_555
C12 C11 1_555 1_555
H8 C12 1_555 1_555
H9 C12 1_555 1_555
H10 C12 1_555 1_555
C13 C11 1_555 1_555
H11 C13 1_555 1_555
H12 C13 1_555 1_555
H13 C13 1_555 1_555
C14 C10 1_555 1_555
H14 C14 1_555 1_555
H15 C14 1_555 1_555
C15 H16 1_555 1_555
C16 C15 1_555 1_555
H17 C16 1_555 1_555
C17 C16 1_555 1_555
H18 C17 1_555 1_555
C18 C17 1_555 1_555
H19 C18 1_555 1_555
C19 C18 1_555 1_555
H20 C19 1_555 1_555
C20 C14 1_555 1_555
N1 C7 1_555 1_555
C3 C4 1_555 1_555
C9 C10 1_555 1_555
C15 C20 1_555 1_555
C19 C20 1_555 1_555

#END
