
#######################################################################
#
#                 Cambridge Crystallographic Data Centre
#                                CCDC 
#
#######################################################################
#
# If this CIF has been generated from an entry in the Cambridge 
# Structural Database, then it will include bibliographic, chemical, 
# crystal, experimental, refinement or atomic coordinate data resulting 
# from the CCDC's data processing and validation procedures.
#
#######################################################################

data_OFOYEQ
_chemical_formula_moiety         'C31 H27 N3 O5'
_chemical_name_systematic        
2'-anilino-6'-(diethylamino)-3'-methyl-4-nitro-3H-spiro[2-benzofuran-1,9'-xanthen]-3-one
_symmetry_cell_setting           triclinic
_symmetry_space_group_name_H-M   'P -1'
_symmetry_Int_Tables_number      2
_space_group_name_Hall           '-P 1'
loop_
_symmetry_equiv_pos_site_id
_symmetry_equiv_pos_as_xyz
1 x,y,z
2 -x,-y,-z
_cell_length_a                   10.558(2)
_cell_length_b                   11.152(2)
_cell_length_c                   11.868(2)
_cell_angle_alpha                89.94(3)
_cell_angle_beta                 86.75(3)
_cell_angle_gamma                72.15(3)
_cell_volume                     1327.77
_exptl_crystal_colour            brown
_exptl_crystal_description       block
_cell_formula_units_Z            2
loop_
_atom_site_label
_atom_site_type_symbol
_atom_site_fract_x
_atom_site_fract_y
_atom_site_fract_z
O1 O -0.1758(13) 0.665(2) 0.6205(13)
O2 O 0.11261(15) 0.69017(13) 0.23601(13)
O3 O 0.42607(16) 0.84345(14) 0.25611(16)
C1 C 0.3357(2) 0.67052(19) 0.29524(18)
C2 C 0.1971(2) 0.86970(19) 0.21637(18)
C3 C 0.4417(2) 0.7194(2) 0.28402(19)
C4 C 0.1944(2) 1.1002(2) 0.11253(19)
C5 C 0.1275(2) 0.79432(18) 0.40220(18)
C6 C 0.0852(2) 0.94486(19) 0.16570(19)
H1 H 0.0091 0.9193 0.1672
C7 C 0.0829(2) 1.0553(2) 0.11358(19)
H2 H 0.0070 1.1012 0.0785
C8 C 0.4905(2) 0.46996(19) 0.34448(19)
C9 C 0.1959(2) 0.75725(19) 0.28644(18)
C10 C 0.5966(2) 0.5215(2) 0.3363(2)
C11 C 0.3081(2) 0.9115(2) 0.21067(19)
C12 C 0.0184(2) 0.75119(19) 0.41438(18)
C13 C 0.0885(2) 0.8770(2) 0.5894(2)
H3 H 0.1117 0.9195 0.6483
C14 C 0.5703(2) 0.6456(2) 0.3040(2)
H4 H 0.6400 0.6802 0.2955
C15 C 0.1639(2) 0.85767(19) 0.48821(19)
H5 H 0.2374 0.8867 0.4784
C16 C 0.3629(2) 0.54466(19) 0.32444(19)
H6 H 0.2934 0.5098 0.3307
O4 O -0.0736(2) 0.64032(19) 0.28104(16)
C17 C 0.3089(2) 1.0231(2) 0.1610(2)
H7 H 0.3856 1.0475 0.1595
N1 N 0.5123(2) 0.34386(17) 0.38036(19)
N2 N 0.1904(2) 1.21427(19) 0.06577(19)
C18 C -0.0217(2) 0.8338(2) 0.6045(2)
H8 H -0.0718 0.8470 0.6729
C19 C 0.5742(2) 0.2387(2) 0.3112(2)
C20 C -0.0555(2) 0.7714(2) 0.5170(2)
C21 C 0.0077(2) 0.6875(2) 0.30812(19)
C22 C 0.7345(2) 0.4467(2) 0.3653(2)
H9 H 0.7920 0.4988 0.3583
H10 H 0.7677 0.3754 0.3147
H11 H 0.7323 0.4181 0.4415
C23 C 0.5785(3) 0.1194(2) 0.3500(3)
H12 H 0.5387 0.1111 0.4203
C24 C 0.0722(3) 1.2896(2) 0.0116(2)
H13 H 0.0382 1.2336 -0.0317
H14 H 0.0982 1.3455 -0.0412
N3 N -0.1692(3) 0.7229(3) 0.5365(2)
C25 C 0.6343(3) 0.2472(3) 0.2052(2)
H15 H 0.6324 0.3257 0.1774
C26 C 0.2933(3) 1.2743(3) 0.0827(3)
H16 H 0.2508 1.3635 0.0980
H17 H 0.3409 1.2385 0.1484
C27 C 0.6423(3) 0.0132(3) 0.2837(4)
H18 H 0.6452 -0.0660 0.3103
C28 C 0.7015(3) 0.0235(3) 0.1788(4)
H19 H 0.7440 -0.0481 0.1349
C29 C 0.6970(3) 0.1393(3) 0.1407(3)
H20 H 0.7366 0.1466 0.0701
C30 C 0.3849(5) 1.2597(7) -0.0104(5)
H21 H 0.4386 1.1730 -0.0177
H22 H 0.4411 1.3115 0.0005
H23 H 0.3377 1.2845 -0.0776
O5 O -0.2651(3) 0.7654(4) 0.4924(4)
C31 C -0.0381(4) 1.3670(3) 0.0908(3)
H24 H -0.0676 1.3125 0.1414
H25 H -0.1111 1.4144 0.0484
H26 H -0.0062 1.4238 0.1334
H27 H 0.452(3) 0.331(3) 0.424(3)
O6? O -0.1423(12) 0.6077(13) 0.548(3)
loop_
_geom_bond_atom_site_label_1
_geom_bond_atom_site_label_2
_geom_bond_site_symmetry_1
_geom_bond_site_symmetry_2
O1 N3 1_555 1_555
O2 C9 1_555 1_555
O3 C3 1_555 1_555
C1 C3 1_555 1_555
C2 C6 1_555 1_555
C3 C14 1_555 1_555
C4 C7 1_555 1_555
C5 C9 1_555 1_555
C6 H1 1_555 1_555
C7 C6 1_555 1_555
H2 C7 1_555 1_555
C8 C10 1_555 1_555
C9 C1 1_555 1_555
C10 C14 1_555 1_555
C11 O3 1_555 1_555
C12 C5 1_555 1_555
C13 H3 1_555 1_555
C14 H4 1_555 1_555
C15 C5 1_555 1_555
H5 C15 1_555 1_555
C16 C1 1_555 1_555
H6 C16 1_555 1_555
O4 C21 1_555 1_555
C17 C4 1_555 1_555
H7 C17 1_555 1_555
N1 C8 1_555 1_555
N2 C4 1_555 1_555
C18 C13 1_555 1_555
H8 C18 1_555 1_555
C19 N1 1_555 1_555
C20 C12 1_555 1_555
C21 O2 1_555 1_555
C22 C10 1_555 1_555
H9 C22 1_555 1_555
H10 C22 1_555 1_555
H11 C22 1_555 1_555
C23 C19 1_555 1_555
H12 C23 1_555 1_555
C24 N2 1_555 1_555
H13 C24 1_555 1_555
H14 C24 1_555 1_555
N3 C20 1_555 1_555
C25 C19 1_555 1_555
H15 C25 1_555 1_555
C26 N2 1_555 1_555
H16 C26 1_555 1_555
H17 C26 1_555 1_555
C27 C23 1_555 1_555
H18 C27 1_555 1_555
C28 C27 1_555 1_555
H19 C28 1_555 1_555
C29 C25 1_555 1_555
H20 C29 1_555 1_555
C30 C26 1_555 1_555
H21 C30 1_555 1_555
H22 C30 1_555 1_555
H23 C30 1_555 1_555
O5 N3 1_555 1_555
C31 C24 1_555 1_555
H24 C31 1_555 1_555
H25 C31 1_555 1_555
H26 C31 1_555 1_555
H27 N1 1_555 1_555
C2 C9 1_555 1_555
C2 C11 1_555 1_555
C8 C16 1_555 1_555
C11 C17 1_555 1_555
C12 C21 1_555 1_555
C13 C15 1_555 1_555
C18 C20 1_555 1_555
C28 C29 1_555 1_555

#END
