
#######################################################################
#
#                 Cambridge Crystallographic Data Centre
#                                CCDC 
#
#######################################################################
#
# If this CIF has been generated from an entry in the Cambridge 
# Structural Database, then it will include bibliographic, chemical, 
# crystal, experimental, refinement or atomic coordinate data resulting 
# from the CCDC's data processing and validation procedures.
#
#######################################################################

data_OFOYAM
_chemical_formula_moiety         'C18 H14 F3 N3'
_chemical_name_systematic        
1-benzyl-3-((2,2,2-trifluoroethylidene)carbonohydrazonoyl)-1H-indole
_symmetry_cell_setting           monoclinic
_symmetry_space_group_name_H-M   'P 21/c'
_symmetry_Int_Tables_number      14
_space_group_name_Hall           '-P 2ybc'
loop_
_symmetry_equiv_pos_site_id
_symmetry_equiv_pos_as_xyz
1 x,y,z
2 -x,1/2+y,1/2-z
3 -x,-y,-z
4 x,1/2-y,1/2+z
_cell_length_a                   13.14(2)
_cell_length_b                   12.32(2)
_cell_length_c                   10.346(20)
_cell_angle_alpha                90
_cell_angle_beta                 100.98(2)
_cell_angle_gamma                90
_cell_volume                     1644.2
_exptl_crystal_colour            colorless
_exptl_crystal_description       block
_cell_formula_units_Z            4
loop_
_atom_site_label
_atom_site_type_symbol
_atom_site_fract_x
_atom_site_fract_y
_atom_site_fract_z
C1 C 0.3229(4) 0.8991(4) 1.3064(5)
H1 H 0.3884 0.8838 1.2892
C2 C 0.3131(5) 0.9738(4) 1.4047(6)
H2 H 0.3711 1.0081 1.4531
C3 C 0.2154(7) 0.9957(5) 1.4284(6)
H3 H 0.2072 1.0458 1.4929
C4 C 0.1321(6) 0.9451(5) 1.3588(6)
H4 H 0.0665 0.9602 1.3759
C5 C 0.1429(4) 0.8708(4) 1.2620(5)
H5 H 0.0847 0.8360 1.2149
C6 C 0.2386(4) 0.8483(4) 1.2352(5)
C7 C 0.2507(4) 0.7657(4) 1.1317(5)
H6 H 0.2676 0.6959 1.1738
H7 H 0.1851 0.7581 1.0709
C8 C 0.3210(4) 0.8739(4) 0.9627(4)
C9 C 0.2367(4) 0.9377(4) 0.9111(5)
H8 H 0.1735 0.9302 0.9383
C10 C 0.2503(5) 1.0133(4) 0.8173(5)
H9 H 0.1950 1.0575 0.7803
C11 C 0.3451(5) 1.0247(4) 0.7768(5)
H10 H 0.3521 1.0773 0.7146
C12 C 0.4276(4) 0.9603(4) 0.8267(4)
H11 H 0.4904 0.9684 0.7989
C13 C 0.4160(4) 0.8813(3) 0.9209(4)
C14 C 0.4837(4) 0.8042(4) 0.9944(4)
C15 C 0.4276(4) 0.7549(4) 1.0764(5)
H12 H 0.4532 0.7010 1.1369
C16 C 0.5882(4) 0.7761(4) 0.9894(5)
H13 H 0.6225 0.7259 1.0496
C17 C 0.7967(4) 0.8346(4) 0.8691(5)
H14 H 0.7715 0.8966 0.8225
C18 C 0.9045(5) 0.8026(6) 0.8793(8)
F1 F 0.9308(3) 0.7896(5) 0.7660(5)
F2 F 0.9327(3) 0.7162(4) 0.9455(5)
F3 F 0.9678(3) 0.8771(4) 0.9359(6)
N1 N 0.3307(3) 0.7945(3) 1.0581(4)
N2 N 0.6365(3) 0.8177(3) 0.9048(4)
N3 N 0.7385(3) 0.7780(3) 0.9236(4)
loop_
_geom_bond_atom_site_label_1
_geom_bond_atom_site_label_2
_geom_bond_site_symmetry_1
_geom_bond_site_symmetry_2
C1 H1 1_555 1_555
C2 C1 1_555 1_555
H2 C2 1_555 1_555
C3 C2 1_555 1_555
H3 C3 1_555 1_555
C4 C3 1_555 1_555
H4 C4 1_555 1_555
C5 C4 1_555 1_555
H5 C5 1_555 1_555
C6 C1 1_555 1_555
C7 C6 1_555 1_555
H6 C7 1_555 1_555
H7 C7 1_555 1_555
C8 C9 1_555 1_555
C9 H8 1_555 1_555
C10 C9 1_555 1_555
H9 C10 1_555 1_555
C11 C10 1_555 1_555
H10 C11 1_555 1_555
C12 C11 1_555 1_555
H11 C12 1_555 1_555
C13 C8 1_555 1_555
C14 C13 1_555 1_555
C15 C14 1_555 1_555
H12 C15 1_555 1_555
C16 C14 1_555 1_555
H13 C16 1_555 1_555
C17 H14 1_555 1_555
C18 C17 1_555 1_555
F1 C18 1_555 1_555
F2 C18 1_555 1_555
F3 C18 1_555 1_555
N1 C7 1_555 1_555
N2 C16 1_555 1_555
N3 C17 1_555 1_555
C5 C6 1_555 1_555
C8 N1 1_555 1_555
C12 C13 1_555 1_555
C15 N1 1_555 1_555
N2 N3 1_555 1_555

#END
