
#######################################################################
#
#                 Cambridge Crystallographic Data Centre
#                                CCDC 
#
#######################################################################
#
# If this CIF has been generated from an entry in the Cambridge 
# Structural Database, then it will include bibliographic, chemical, 
# crystal, experimental, refinement or atomic coordinate data resulting 
# from the CCDC's data processing and validation procedures.
#
#######################################################################

data_OFOZOZ
_chemical_formula_moiety         'C21 H23 F2 N1 O3 S1'
_chemical_name_systematic        
3,3-Difluoro-1,2,2-trimethyl-6-phenyl-5-tosyl-1,2,3,6-tetrahydropyridin-4-ol
_symmetry_cell_setting           monoclinic
_symmetry_space_group_name_H-M   'P 21/n'
_symmetry_Int_Tables_number      14
_space_group_name_Hall           '-P 2yn'
loop_
_symmetry_equiv_pos_site_id
_symmetry_equiv_pos_as_xyz
1 x,y,z
2 1/2-x,1/2+y,1/2-z
3 -x,-y,-z
4 1/2+x,1/2-y,1/2+z
_cell_length_a                   13.6556(16)
_cell_length_b                   8.4546(10)
_cell_length_c                   17.121(2)
_cell_angle_alpha                90
_cell_angle_beta                 94.656(2)
_cell_angle_gamma                90
_cell_volume                     1970.14
_exptl_crystal_colour            colorless
_exptl_crystal_description       prismatic
_cell_formula_units_Z            4
_exptl_crystal_recrystallization_method chloroform
loop_
_atom_site_label
_atom_site_type_symbol
_atom_site_fract_x
_atom_site_fract_y
_atom_site_fract_z
H1 H 0.5058(14) 0.595(2) 0.0874(11)
S1 S 0.37471(3) 0.85180(6) 0.02908(3)
F1 F 0.62453(9) 0.99766(16) 0.23994(9)
F2 F 0.50890(9) 0.88230(15) 0.29692(7)
O1 O 0.46948(13) 1.07789(17) 0.15650(11)
O2 O 0.38630(10) 1.01872(18) 0.01520(9)
O3 O 0.39953(10) 0.74216(17) -0.03015(7)
N1 N 0.52856(11) 0.60697(18) 0.20522(8)
C1 C 0.46994(12) 0.6327(2) 0.13013(10)
C2 C 0.44682(12) 0.8065(2) 0.11599(10)
C3 C 0.48515(13) 0.9218(2) 0.16187(11)
C4 C 0.55712(14) 0.8795(2) 0.22998(12)
C5 C 0.60873(12) 0.7229(2) 0.22107(11)
C6 C 0.68008(14) 0.7353(3) 0.15582(12)
H2 H 0.7057 0.6323 0.1455
H3 H 0.7332 0.8050 0.1724
H4 H 0.6456 0.7761 0.1090
C7 C 0.66655(16) 0.6845(3) 0.29917(13)
H5 H 0.6216 0.6619 0.3380
H6 H 0.7067 0.7735 0.3157
H7 H 0.7076 0.5940 0.2927
C8 C 0.37564(12) 0.5367(2) 0.13006(10)
C9 C 0.30781(13) 0.5697(2) 0.18399(10)
H8 H 0.3210 0.6487 0.2211
C10 C 0.22115(14) 0.4862(3) 0.18282(12)
H9 H 0.1757 0.5095 0.2187
C11 C 0.20190(15) 0.3676(2) 0.12825(13)
H10 H 0.1435 0.3108 0.1275
C12 C 0.26886(14) 0.3338(2) 0.07529(12)
H11 H 0.2560 0.2536 0.0387
C13 C 0.35563(13) 0.4185(2) 0.07612(11)
H12 H 0.4007 0.3952 0.0399
C14 C 0.56090(17) 0.4420(2) 0.20935(13)
H13 H 0.6018 0.4208 0.1675
H14 H 0.5046 0.3736 0.2045
H15 H 0.5975 0.4232 0.2587
C15 C 0.25033(13) 0.8242(2) 0.04575(10)
C16 C 0.20795(15) 0.9178(2) 0.10039(12)
H16 H 0.2457 0.9906 0.1303
C17 C 0.10909(15) 0.9014(3) 0.10969(12)
H17 H 0.0807 0.9630 0.1468
C18 C 0.05148(14) 0.7959(3) 0.06526(12)
C19 C 0.09564(16) 0.7044(3) 0.01096(12)
H18 H 0.0576 0.6331 -0.0197
C20 C 0.19443(15) 0.7162(2) 0.00128(11)
H19 H 0.2231 0.6522 -0.0347
C21 C -0.05631(17) 0.7772(4) 0.07588(17)
H20 H -0.0870 0.7175 0.0329
H21 H -0.0864 0.8797 0.0774
H22 H -0.0642 0.7225 0.1241
H23 H 0.445(2) 1.095(3) 0.1094(12)
loop_
_geom_bond_atom_site_label_1
_geom_bond_atom_site_label_2
_geom_bond_site_symmetry_1
_geom_bond_site_symmetry_2
H1 C1 1_555 1_555
S1 O2 1_555 1_555
F1 C4 1_555 1_555
F2 C4 1_555 1_555
O1 C3 1_555 1_555
O3 S1 1_555 1_555
N1 C1 1_555 1_555
C1 C2 1_555 1_555
C2 S1 1_555 1_555
C3 C2 1_555 1_555
C4 C3 1_555 1_555
C5 N1 1_555 1_555
C6 C5 1_555 1_555
H2 C6 1_555 1_555
H3 C6 1_555 1_555
H4 C6 1_555 1_555
C7 C5 1_555 1_555
H5 C7 1_555 1_555
H6 C7 1_555 1_555
H7 C7 1_555 1_555
C8 C1 1_555 1_555
C9 C8 1_555 1_555
H8 C9 1_555 1_555
C10 C9 1_555 1_555
H9 C10 1_555 1_555
C11 C10 1_555 1_555
H10 C11 1_555 1_555
C12 C11 1_555 1_555
H11 C12 1_555 1_555
C13 C8 1_555 1_555
H12 C13 1_555 1_555
C14 N1 1_555 1_555
H13 C14 1_555 1_555
H14 C14 1_555 1_555
H15 C14 1_555 1_555
C15 S1 1_555 1_555
C16 C15 1_555 1_555
H16 C16 1_555 1_555
C17 C16 1_555 1_555
H17 C17 1_555 1_555
C18 C17 1_555 1_555
C19 C18 1_555 1_555
H18 C19 1_555 1_555
C20 C15 1_555 1_555
H19 C20 1_555 1_555
C21 C18 1_555 1_555
H20 C21 1_555 1_555
H21 C21 1_555 1_555
H22 C21 1_555 1_555
H23 O1 1_555 1_555
C4 C5 1_555 1_555
C12 C13 1_555 1_555
C19 C20 1_555 1_555

#END
