
#######################################################################
#
#                 Cambridge Crystallographic Data Centre
#                                CCDC 
#
#######################################################################
#
# If this CIF has been generated from an entry in the Cambridge 
# Structural Database, then it will include bibliographic, chemical, 
# crystal, experimental, refinement or atomic coordinate data resulting 
# from the CCDC's data processing and validation procedures.
#
#######################################################################

data_OFUBEW
_chemical_formula_moiety         'C20 H56 Br2 Mg2 N2 O2 Si4'
_chemical_name_systematic        
'bis(\m~2~-Bromo)-bis(diethyl ether-O)-bis(bis(trimethylsilyl)amido-N)-di-magnesium'
_symmetry_cell_setting           monoclinic
_symmetry_space_group_name_H-M   'P 21/c'
_symmetry_Int_Tables_number      14
_space_group_name_Hall           '-P 2ybc'
loop_
_symmetry_equiv_pos_site_id
_symmetry_equiv_pos_as_xyz
1 x,y,z
2 x,1/2-y,1/2+z
3 -x,-y,-z
4 -x,1/2+y,1/2-z
_cell_length_a                   10.6194(20)
_cell_length_b                   14.006(3)
_cell_length_c                   13.508(3)
_cell_angle_alpha                90
_cell_angle_beta                 105.479(21)
_cell_angle_gamma                90
_cell_volume                     1936.24
_exptl_crystal_colour            colorless
_exptl_crystal_description       block
_chemical_melting_point          'decomposes above 120 deg.C'
_cell_formula_units_Z            2
loop_
_atom_site_label
_atom_site_type_symbol
_atom_site_fract_x
_atom_site_fract_y
_atom_site_fract_z
Mg1 Mg 0.05110(15) 0.92033(12) 0.10930(13)
Br1 Br 0.00327(6) 1.09948(4) 0.08599(4)
Si1 Si 0.25278(17) 0.75849(13) 0.18212(13)
Si2 Si 0.31782(18) 0.95072(15) 0.28004(15)
O1 O -0.1048(3) 0.87650(23) 0.1534(3)
N1 N 0.2155(3) 0.8735(3) 0.2006(3)
C1 C -0.0910(6) 0.8353(5) 0.2532(5)
C2 C -0.1358(8) 0.8977(6) 0.3232(6)
C3 C -0.2368(6) 0.8887(5) 0.0911(5)
C4 C -0.2919(7) 0.8044(7) 0.0434(7)
C5 C 0.2972(6) 0.6842(5) 0.3003(5)
C6 C 0.1121(7) 0.6972(4) 0.0957(5)
C7 C 0.3880(7) 0.7474(6) 0.1196(5)
C8 C 0.4687(7) 0.8979(6) 0.3649(6)
C9 C 0.2347(9) 1.0129(6) 0.3637(7)
C10 C 0.3757(9) 1.0420(7) 0.2073(7)
H1 H -0.006 0.812 0.285
H2 H -0.148 0.782 0.248
H3 H -0.122 0.870 0.390
H4 H -0.077 0.949 0.332
H5 H -0.221 0.921 0.294
H6 H -0.251 0.938 0.042
H7 H -0.295 0.909 0.130
H8 H -0.380 0.805 0.001
H9 H -0.236 0.783 0.002
H10 H -0.283 0.755 0.094
H11 H 0.317 0.621 0.287
H12 H 0.370 0.710 0.350
H13 H 0.228 0.683 0.333
H14 H 0.128 0.631 0.086
H15 H 0.040 0.696 0.125
H16 H 0.080 0.726 0.030
H17 H 0.410 0.684 0.110
H18 H 0.368 0.779 0.055
H19 H 0.465 0.778 0.160
H20 H 0.526 0.942 0.408
H21 H 0.450 0.848 0.407
H22 H 0.519 0.867 0.326
H23 H 0.293 1.055 0.411
H24 H 0.160 1.048 0.329
H25 H 0.208 0.970 0.408
H26 H 0.435 1.086 0.250
H27 H 0.420 1.015 0.164
H28 H 0.304 1.078 0.162
Mg1B Mg -0.05110(15) 1.07967(12) -0.10930(13)
Br1B Br -0.00327(6) 0.90052(4) -0.08599(4)
O1B O 0.1048(3) 1.12350(23) -0.1534(3)
C1B C 0.0910(6) 1.1647(5) -0.2532(5)
C2B C 0.1358(8) 1.1023(6) -0.3232(6)
H3B H 0.122 1.130 -0.390
H4B H 0.077 1.051 -0.332
H5B H 0.221 1.079 -0.294
H1B H 0.006 1.188 -0.285
H2B H 0.148 1.218 -0.248
C3B C 0.2368(6) 1.1113(5) -0.0911(5)
C4B C 0.2919(7) 1.1956(7) -0.0434(7)
H8B H 0.380 1.195 -0.001
H9B H 0.236 1.217 -0.002
H10B H 0.283 1.245 -0.094
H6B H 0.251 1.062 -0.042
H7B H 0.295 1.091 -0.130
N1B N -0.2155(3) 1.1265(3) -0.2006(3)
Si1B Si -0.25278(17) 1.24151(13) -0.18212(13)
C5B C -0.2972(6) 1.3158(5) -0.3003(5)
H11B H -0.317 1.379 -0.287
H12B H -0.370 1.290 -0.350
H13B H -0.228 1.317 -0.333
C6B C -0.1121(7) 1.3028(4) -0.0957(5)
H14B H -0.128 1.369 -0.086
H15B H -0.040 1.304 -0.125
H16B H -0.080 1.274 -0.030
C7B C -0.3880(7) 1.2526(6) -0.1196(5)
H17B H -0.410 1.316 -0.110
H18B H -0.368 1.221 -0.055
H19B H -0.465 1.222 -0.160
Si2B Si -0.31782(18) 1.04928(15) -0.28004(15)
C8B C -0.4687(7) 1.1021(6) -0.3649(6)
H20B H -0.526 1.058 -0.408
H21B H -0.450 1.152 -0.407
H22B H -0.519 1.133 -0.326
C9B C -0.2347(9) 0.9871(6) -0.3637(7)
H23B H -0.293 0.945 -0.411
H24B H -0.160 0.952 -0.329
H25B H -0.208 1.030 -0.408
C10B C -0.3757(9) 0.9580(7) -0.2073(7)
H26B H -0.435 0.914 -0.250
H27B H -0.420 0.985 -0.164
H28B H -0.304 0.922 -0.162
loop_
_geom_bond_atom_site_label_1
_geom_bond_atom_site_label_2
_geom_bond_site_symmetry_1
_geom_bond_site_symmetry_2
Mg1 Br1 1_555 1_555
Br1 Mg1B 1_555 1_555
Si1 N1 1_555 1_555
Si2 N1 1_555 1_555
O1 Mg1 1_555 1_555
N1 Mg1 1_555 1_555
C1 O1 1_555 1_555
C2 C1 1_555 1_555
C3 O1 1_555 1_555
C4 C3 1_555 1_555
C5 Si1 1_555 1_555
C6 Si1 1_555 1_555
C7 Si1 1_555 1_555
C8 Si2 1_555 1_555
C9 Si2 1_555 1_555
C10 Si2 1_555 1_555
H1 C1 1_555 1_555
H2 C1 1_555 1_555
H3 C2 1_555 1_555
H4 C2 1_555 1_555
H5 C2 1_555 1_555
H6 C3 1_555 1_555
H7 C3 1_555 1_555
H8 C4 1_555 1_555
H9 C4 1_555 1_555
H10 C4 1_555 1_555
H11 C5 1_555 1_555
H12 C5 1_555 1_555
H13 C5 1_555 1_555
H14 C6 1_555 1_555
H15 C6 1_555 1_555
H16 C6 1_555 1_555
H17 C7 1_555 1_555
H18 C7 1_555 1_555
H19 C7 1_555 1_555
H20 C8 1_555 1_555
H21 C8 1_555 1_555
H22 C8 1_555 1_555
H23 C9 1_555 1_555
H24 C9 1_555 1_555
H25 C9 1_555 1_555
H26 C10 1_555 1_555
H27 C10 1_555 1_555
H28 C10 1_555 1_555
Mg1B Br1B 1_555 1_555
Br1B Mg1 1_555 1_555
O1B Mg1B 1_555 1_555
C1B O1B 1_555 1_555
C2B C1B 1_555 1_555
H3B C2B 1_555 1_555
H4B C2B 1_555 1_555
H5B C2B 1_555 1_555
H1B C1B 1_555 1_555
H2B C1B 1_555 1_555
C3B O1B 1_555 1_555
C4B C3B 1_555 1_555
H8B C4B 1_555 1_555
H9B C4B 1_555 1_555
H10B C4B 1_555 1_555
H6B C3B 1_555 1_555
H7B C3B 1_555 1_555
N1B Mg1B 1_555 1_555
Si1B N1B 1_555 1_555
C5B Si1B 1_555 1_555
H11B C5B 1_555 1_555
H12B C5B 1_555 1_555
H13B C5B 1_555 1_555
C6B Si1B 1_555 1_555
H14B C6B 1_555 1_555
H15B C6B 1_555 1_555
H16B C6B 1_555 1_555
C7B Si1B 1_555 1_555
H17B C7B 1_555 1_555
H18B C7B 1_555 1_555
H19B C7B 1_555 1_555
Si2B N1B 1_555 1_555
C8B Si2B 1_555 1_555
H20B C8B 1_555 1_555
H21B C8B 1_555 1_555
H22B C8B 1_555 1_555
C9B Si2B 1_555 1_555
H23B C9B 1_555 1_555
H24B C9B 1_555 1_555
H25B C9B 1_555 1_555
C10B Si2B 1_555 1_555
H26B C10B 1_555 1_555
H27B C10B 1_555 1_555
H28B C10B 1_555 1_555

#END
