
#######################################################################
#
#                 Cambridge Crystallographic Data Centre
#                                CCDC 
#
#######################################################################
#
# If this CIF has been generated from an entry in the Cambridge 
# Structural Database, then it will include bibliographic, chemical, 
# crystal, experimental, refinement or atomic coordinate data resulting 
# from the CCDC's data processing and validation procedures.
#
#######################################################################

data_OFUCAT
_chemical_formula_moiety         'C36 H56 Mg1 N8 O2 P2'
_chemical_name_systematic        
bis(Hexamethylphosphoramide-O)-bis(diphenylamido-N)-magnesium
_symmetry_cell_setting           monoclinic
_symmetry_space_group_name_H-M   'P 21/n'
_symmetry_Int_Tables_number      14
_space_group_name_Hall           '-P 2yn'
loop_
_symmetry_equiv_pos_site_id
_symmetry_equiv_pos_as_xyz
1 x,y,z
2 1/2+x,1/2-y,1/2+z
3 -x,-y,-z
4 1/2-x,1/2+y,1/2-z
_cell_length_a                   12.1181(1)
_cell_length_b                   19.2188(3)
_cell_length_c                   17.4236(2)
_cell_angle_alpha                90
_cell_angle_beta                 95.779(1)
_cell_angle_gamma                90
_cell_volume                     4037.25
_exptl_crystal_colour            colorless
_exptl_crystal_description       'irregular block'
_chemical_melting_point          '164-166 deg.C'
_cell_formula_units_Z            4
loop_
_atom_site_label
_atom_site_type_symbol
_atom_site_fract_x
_atom_site_fract_y
_atom_site_fract_z
Mg1 Mg 0.04321(4) 0.23470(3) 0.76997(3)
P1 P 0.13783(3) 0.12851(2) 0.63803(2)
P2 P -0.12781(3) 0.35945(2) 0.68944(3)
O1 O 0.11768(10) 0.18800(6) 0.68999(7)
O2 O -0.06923(10) 0.29618(6) 0.72176(7)
N1 N 0.15723(11) 0.29741(8) 0.83178(8)
N2 N -0.02456(11) 0.15591(7) 0.82985(8)
N3 N 0.27120(12) 0.11423(8) 0.64229(9)
N4 N 0.08688(13) 0.14875(8) 0.54951(8)
N5 N 0.07637(12) 0.05447(8) 0.65415(8)
N6 N -0.04279(13) 0.41715(8) 0.65830(9)
N7 N -0.18991(14) 0.39874(9) 0.75594(10)
N8 N -0.21686(12) 0.33576(8) 0.61740(9)
C1 C 0.25907(14) 0.30708(8) 0.80091(10)
C2 C 0.2597(2) 0.32356(9) 0.72236(10)
H1 H 0.1914(2) 0.33230(9) 0.69217(10)
C3 C 0.3583(2) 0.32738(11) 0.68781(12)
H2 H 0.3562(2) 0.33816(11) 0.63447(12)
C4 C 0.4594(2) 0.31559(11) 0.73050(12)
H3 H 0.5267(2) 0.31873(11) 0.70701(12)
C5 C 0.4607(2) 0.29910(10) 0.80828(12)
H4 H 0.5294(2) 0.29059(10) 0.83804(12)
C6 C 0.36250(14) 0.29491(9) 0.84304(10)
H5 H 0.36533(14) 0.28360(9) 0.89628(10)
C7 C 0.14523(14) 0.32162(9) 0.90574(10)
C8 C 0.20914(14) 0.37548(9) 0.94315(10)
H6 H 0.26705(14) 0.39599(9) 0.91797(10)
C9 C 0.1895(2) 0.39915(10) 1.01565(11)
H7 H 0.2343(2) 0.43548(10) 1.03897(11)
C10 C 0.1058(2) 0.37095(11) 1.05512(11)
H8 H 0.0933(2) 0.38713(11) 1.10503(11)
C11 C 0.0408(2) 0.31818(12) 1.01899(12)
H9 H -0.0174(2) 0.29839(12) 1.04448(12)
C12 C 0.0598(2) 0.29412(10) 0.94644(11)
H10 H 0.0141(2) 0.25810(10) 0.92339(11)
C13 C 0.04696(14) 0.10619(9) 0.86513(9)
C14 C 0.0144(2) 0.04070(9) 0.89226(10)
H11 H -0.0624(2) 0.03035(9) 0.89143(10)
C15 C 0.0915(2) -0.00879(10) 0.92004(11)
H12 H 0.0665(2) -0.05209(10) 0.93804(11)
C16 C 0.2046(2) 0.00355(10) 0.92210(11)
H13 H 0.2570(2) -0.03100(10) 0.94019(11)
C17 C 0.2392(2) 0.06798(10) 0.89691(10)
H14 H 0.3163(2) 0.07748(10) 0.89807(10)
C18 C 0.16309(15) 0.11858(9) 0.87014(10)
H15 H 0.18925(15) 0.16253(9) 0.85481(10)
C19 C -0.13814(14) 0.15206(9) 0.84033(10)
C20 C -0.21791(15) 0.16404(9) 0.77775(11)
H16 H -0.19431(15) 0.17260(9) 0.72825(11)
C21 C -0.3309(2) 0.16370(11) 0.78638(13)
H17 H -0.3830(2) 0.17258(11) 0.74299(13)
C22 C -0.3682(2) 0.15054(11) 0.85752(15)
H18 H -0.4454(2) 0.14898(11) 0.86312(15)
C23 C -0.2907(2) 0.13972(11) 0.92025(14)
H19 H -0.3153(2) 0.13144(11) 0.96954(14)
C24 C -0.1778(2) 0.14073(10) 0.91257(11)
H20 H -0.1264(2) 0.13367(10) 0.95677(11)
C25 C 0.3505(2) 0.13835(11) 0.70480(13)
H21 H 0.3138(2) 0.17059(11) 0.73761(13)
H22 H 0.4119(2) 0.16226(11) 0.68333(13)
H23 H 0.3794(2) 0.09845(11) 0.73561(13)
C26 C 0.3161(2) 0.06533(12) 0.58866(14)
H24 H 0.2574(2) 0.05185(12) 0.54861(14)
H25 H 0.3442(2) 0.02384(12) 0.61693(14)
H26 H 0.3767(2) 0.08765(12) 0.56465(14)
C27 C 0.1136(2) 0.21784(11) 0.52084(12)
H27 H 0.1327(2) 0.24912(11) 0.56459(12)
H28 H 0.0493(2) 0.23636(11) 0.48869(12)
H29 H 0.1768(2) 0.21421(11) 0.49007(12)
C28 C 0.0574(2) 0.09844(12) 0.48846(12)
H30 H 0.0406(2) 0.05357(12) 0.51132(12)
H31 H 0.1196(2) 0.09287(12) 0.45717(12)
H32 H -0.0078(2) 0.11501(12) 0.45577(12)
C29 C 0.1305(2) -0.00005(10) 0.70336(11)
H33 H 0.2109(2) 0.00213(10) 0.70103(11)
H34 H 0.1029(2) -0.04571(10) 0.68523(11)
H35 H 0.1139(2) 0.00700(10) 0.75670(11)
C30 C -0.0446(2) 0.05504(11) 0.65417(12)
H36 H -0.0760(2) 0.09238(11) 0.62043(12)
H37 H -0.0639(2) 0.06292(11) 0.70677(12)
H38 H -0.0748(2) 0.01021(11) 0.63531(12)
C31 C -0.0518(2) 0.44754(14) 0.58214(14)
H39 H -0.1089(2) 0.42287(14) 0.54877(14)
H40 H 0.0195(2) 0.44366(14) 0.56058(14)
H41 H -0.0723(2) 0.49671(14) 0.58538(14)
C32 C 0.0406(2) 0.44982(12) 0.71405(14)
H42 H 0.0414(2) 0.42620(12) 0.76395(14)
H43 H 0.0221(2) 0.49902(12) 0.72010(14)
H44 H 0.1139(2) 0.44600(12) 0.69525(14)
C33 C -0.2195(2) 0.47272(13) 0.7527(2)
H45 H -0.1889(2) 0.49449(13) 0.7087(2)
H46 H -0.1890(2) 0.49562(13) 0.8005(2)
H47 H -0.3004(2) 0.47750(13) 0.7469(2)
C34 C -0.2310(2) 0.36030(14) 0.81946(13)
H48 H -0.2076(2) 0.31158(14) 0.81734(13)
H49 H -0.3122(2) 0.36269(14) 0.81506(13)
H50 H -0.2008(2) 0.38081(14) 0.86863(13)
C35 C -0.1863(2) 0.28302(12) 0.56192(13)
H51 H -0.1168(2) 0.26043(12) 0.58207(13)
H52 H -0.1764(2) 0.30549(12) 0.51258(13)
H53 H -0.2452(2) 0.24806(12) 0.55420(13)
C36 C -0.3198(2) 0.37313(13) 0.59349(13)
H54 H -0.3342(2) 0.40706(13) 0.63325(13)
H55 H -0.3814(2) 0.33997(13) 0.58642(13)
H56 H -0.3126(2) 0.39740(13) 0.54477(13)
loop_
_geom_bond_atom_site_label_1
_geom_bond_atom_site_label_2
_geom_bond_site_symmetry_1
_geom_bond_site_symmetry_2
Mg1 O1 1_555 1_555
P1 O1 1_555 1_555
P2 O2 1_555 1_555
O2 Mg1 1_555 1_555
N1 Mg1 1_555 1_555
N2 Mg1 1_555 1_555
N3 P1 1_555 1_555
N4 P1 1_555 1_555
N5 P1 1_555 1_555
N6 P2 1_555 1_555
N7 P2 1_555 1_555
N8 P2 1_555 1_555
C1 N1 1_555 1_555
C2 C1 1_555 1_555
H1 C2 1_555 1_555
C3 C2 1_555 1_555
H2 C3 1_555 1_555
C4 C3 1_555 1_555
H3 C4 1_555 1_555
C5 C4 1_555 1_555
H4 C5 1_555 1_555
C6 C1 1_555 1_555
H5 C6 1_555 1_555
C7 N1 1_555 1_555
C8 C7 1_555 1_555
H6 C8 1_555 1_555
C9 C8 1_555 1_555
H7 C9 1_555 1_555
C10 C9 1_555 1_555
H8 C10 1_555 1_555
C11 C10 1_555 1_555
H9 C11 1_555 1_555
C12 C7 1_555 1_555
H10 C12 1_555 1_555
C13 N2 1_555 1_555
C14 C13 1_555 1_555
H11 C14 1_555 1_555
C15 C14 1_555 1_555
H12 C15 1_555 1_555
C16 C15 1_555 1_555
H13 C16 1_555 1_555
C17 C16 1_555 1_555
H14 C17 1_555 1_555
C18 C13 1_555 1_555
H15 C18 1_555 1_555
C19 N2 1_555 1_555
C20 C19 1_555 1_555
H16 C20 1_555 1_555
C21 C20 1_555 1_555
H17 C21 1_555 1_555
C22 C21 1_555 1_555
H18 C22 1_555 1_555
C23 C22 1_555 1_555
H19 C23 1_555 1_555
C24 C19 1_555 1_555
H20 C24 1_555 1_555
C25 N3 1_555 1_555
H21 C25 1_555 1_555
H22 C25 1_555 1_555
H23 C25 1_555 1_555
C26 N3 1_555 1_555
H24 C26 1_555 1_555
H25 C26 1_555 1_555
H26 C26 1_555 1_555
C27 N4 1_555 1_555
H27 C27 1_555 1_555
H28 C27 1_555 1_555
H29 C27 1_555 1_555
C28 N4 1_555 1_555
H30 C28 1_555 1_555
H31 C28 1_555 1_555
H32 C28 1_555 1_555
C29 N5 1_555 1_555
H33 C29 1_555 1_555
H34 C29 1_555 1_555
H35 C29 1_555 1_555
C30 N5 1_555 1_555
H36 C30 1_555 1_555
H37 C30 1_555 1_555
H38 C30 1_555 1_555
C31 N6 1_555 1_555
H39 C31 1_555 1_555
H40 C31 1_555 1_555
H41 C31 1_555 1_555
C32 N6 1_555 1_555
H42 C32 1_555 1_555
H43 C32 1_555 1_555
H44 C32 1_555 1_555
C33 N7 1_555 1_555
H45 C33 1_555 1_555
H46 C33 1_555 1_555
H47 C33 1_555 1_555
C34 N7 1_555 1_555
H48 C34 1_555 1_555
H49 C34 1_555 1_555
H50 C34 1_555 1_555
C35 N8 1_555 1_555
H51 C35 1_555 1_555
H52 C35 1_555 1_555
H53 C35 1_555 1_555
C36 N8 1_555 1_555
H54 C36 1_555 1_555
H55 C36 1_555 1_555
H56 C36 1_555 1_555
C5 C6 1_555 1_555
C11 C12 1_555 1_555
C17 C18 1_555 1_555
C23 C24 1_555 1_555

#END
