
#######################################################################
#
#                 Cambridge Crystallographic Data Centre
#                                CCDC 
#
#######################################################################
#
# If this CIF has been generated from an entry in the Cambridge 
# Structural Database, then it will include bibliographic, chemical, 
# crystal, experimental, refinement or atomic coordinate data resulting 
# from the CCDC's data processing and validation procedures.
#
#######################################################################

data_OFUJAA
_chemical_formula_moiety         'C27 H28 N2 O5 S1'
_chemical_name_systematic        
(4S)-4-Benzyl-3-((2R,3S)-2-methyl-3-((4-toluenesulfonyl)amino)-3-phenylpropionyl)oxazolidin-2-one
_symmetry_cell_setting           monoclinic
_symmetry_space_group_name_H-M   'P 21'
_symmetry_Int_Tables_number      4
_space_group_name_Hall           'P 2yb'
loop_
_symmetry_equiv_pos_site_id
_symmetry_equiv_pos_as_xyz
1 x,y,z
2 -x,1/2+y,-z
_cell_length_a                   14.0412(8)
_cell_length_b                   6.2142(3)
_cell_length_c                   15.5205(9)
_cell_angle_alpha                90
_cell_angle_beta                 115.901(2)
_cell_angle_gamma                90
_cell_volume                     1218.21
_exptl_crystal_colour            colorless
_exptl_crystal_description       needle
_cell_formula_units_Z            2
loop_
_atom_site_label
_atom_site_type_symbol
_atom_site_fract_x
_atom_site_fract_y
_atom_site_fract_z
S1 S 0.77014(5) 0.50255(13) 1.00282(5)
O1 O 1.01365(14) 0.5038(3) 0.70550(13)
O2 O 1.05094(14) 0.1926(3) 0.65621(12)
O3 O 0.87529(13) 0.0788(3) 0.83143(12)
O4 O 0.77736(15) 0.7331(4) 0.99778(15)
O5 O 0.81846(13) 0.3951(4) 1.09337(12)
N1 N 0.95717(15) 0.1757(4) 0.74086(14)
N2 N 0.82355(15) 0.3992(4) 0.93750(14)
C1 C 0.7468(2) 0.2258(5) 0.54941(19)
H1 H 0.7317 0.2463 0.6015
C2 C 0.7126(2) 0.3776(6) 0.4755(2)
H2 H 0.6762 0.4995 0.4792
C3 C 0.7328(3) 0.3467(7) 0.3977(2)
H3 H 0.7104 0.4480 0.3487
C4 C 0.7866(2) 0.1649(6) 0.3921(2)
H4 H 0.7992 0.1434 0.3386
C5 C 0.82213(19) 0.0140(6) 0.46567(17)
H5 H 0.8585 -0.1075 0.4615
C6 C 0.80300(18) 0.0454(5) 0.54607(17)
C7 C 0.84612(18) -0.1095(5) 0.62945(17)
H6 H 0.8508 -0.2515 0.6056
H7 H 0.7966 -0.1180 0.6575
C8 C 0.95574(19) -0.0472(4) 0.70826(18)
H8 H 0.9766 -0.1466 0.7625
C9 C 1.0433(2) -0.0350(4) 0.67407(19)
H9 H 1.1099 -0.0884 0.7230
H10 H 1.0242 -0.1184 0.6160
C10 C 1.0073(2) 0.3125(5) 0.70169(18)
C11 C 0.90762(18) 0.2255(5) 0.79960(17)
C12 C 0.89928(18) 0.4596(4) 0.82214(18)
H11 H 0.8880 0.5437 0.7651
C13 C 1.00290(17) 0.5369(5) 0.90393(17)
H12 H 1.0590 0.5275 0.8845
H13 H 1.0195 0.4482 0.9593
H14 H 0.9951 0.6836 0.9192
C14 C 0.80424(16) 0.5017(5) 0.84504(15)
H15 H 0.8035 0.6572 0.8554
C15 C 0.69663(18) 0.4478(4) 0.76275(17)
C16 C 0.64369(18) 0.6102(5) 0.69718(18)
H16 H 0.6753 0.7444 0.7034
C17 C 0.5440(2) 0.5731(6) 0.62256(19)
H17 H 0.5094 0.6819 0.5788
C18 C 0.4969(2) 0.3758(6) 0.6137(2)
H18 H 0.4303 0.3512 0.5638
C19 C 0.5474(2) 0.2136(5) 0.67810(19)
H19 H 0.5146 0.0808 0.6722
C20 C 0.6478(2) 0.2493(5) 0.75218(18)
H20 H 0.6824 0.1389 0.7949
C21 C 0.63454(18) 0.4349(5) 0.94844(17)
C22 C 0.56088(18) 0.5805(5) 0.88811(17)
H21 H 0.5819 0.7162 0.8779
C23 C 0.45549(19) 0.5204(6) 0.84336(17)
H22 H 0.4055 0.6170 0.8026
C24 C 0.4232(2) 0.3190(6) 0.85818(18)
C25 C 0.4983(2) 0.1751(5) 0.91797(19)
H23 H 0.4772 0.0391 0.9279
C26 C 0.6043(2) 0.2311(5) 0.96315(19)
H24 H 0.6545 0.1334 1.0028
C27 C 0.3071(2) 0.2590(7) 0.8106(2)
H25 H 0.2786 0.2874 0.7431
H26 H 0.2695 0.3428 0.8378
H27 H 0.2994 0.1088 0.8207
loop_
_geom_bond_atom_site_label_1
_geom_bond_atom_site_label_2
_geom_bond_site_symmetry_1
_geom_bond_site_symmetry_2
S1 O4 1_555 1_555
O1 C10 1_555 1_555
O2 C9 1_555 1_555
O3 C11 1_555 1_555
O5 S1 1_555 1_555
N1 C8 1_555 1_555
N2 S1 1_555 1_555
C1 H1 1_555 1_555
C2 C1 1_555 1_555
H2 C2 1_555 1_555
C3 C2 1_555 1_555
H3 C3 1_555 1_555
C4 C3 1_555 1_555
H4 C4 1_555 1_555
C5 C4 1_555 1_555
H5 C5 1_555 1_555
C6 C1 1_555 1_555
C7 C6 1_555 1_555
H6 C7 1_555 1_555
H7 C7 1_555 1_555
C8 C7 1_555 1_555
H8 C8 1_555 1_555
C9 C8 1_555 1_555
H9 C9 1_555 1_555
H10 C9 1_555 1_555
C10 O2 1_555 1_555
C11 N1 1_555 1_555
C12 C11 1_555 1_555
H11 C12 1_555 1_555
C13 C12 1_555 1_555
H12 C13 1_555 1_555
H13 C13 1_555 1_555
H14 C13 1_555 1_555
C14 N2 1_555 1_555
H15 C14 1_555 1_555
C15 C14 1_555 1_555
C16 C15 1_555 1_555
H16 C16 1_555 1_555
C17 C16 1_555 1_555
H17 C17 1_555 1_555
C18 C17 1_555 1_555
H18 C18 1_555 1_555
C19 C18 1_555 1_555
H19 C19 1_555 1_555
C20 C15 1_555 1_555
H20 C20 1_555 1_555
C21 S1 1_555 1_555
C22 C21 1_555 1_555
H21 C22 1_555 1_555
C23 C22 1_555 1_555
H22 C23 1_555 1_555
C24 C23 1_555 1_555
C25 C24 1_555 1_555
H23 C25 1_555 1_555
C26 C21 1_555 1_555
H24 C26 1_555 1_555
C27 C24 1_555 1_555
H25 C27 1_555 1_555
H26 C27 1_555 1_555
H27 C27 1_555 1_555
N1 C10 1_555 1_555
C5 C6 1_555 1_555
C12 C14 1_555 1_555
C19 C20 1_555 1_555
C25 C26 1_555 1_555

#END
