
#######################################################################
#
#                 Cambridge Crystallographic Data Centre
#                                CCDC 
#
#######################################################################
#
# If this CIF has been generated from an entry in the Cambridge 
# Structural Database, then it will include bibliographic, chemical, 
# crystal, experimental, refinement or atomic coordinate data resulting 
# from the CCDC's data processing and validation procedures.
#
#######################################################################

data_OFUJEE
_chemical_formula_moiety         'C27 H28 N2 O5 S1'
_chemical_name_systematic        
(4S)-4-Benzyl-3-((3S)-3-((4-toluenesulfonyl)amino)-3-(o-tolyl)propionyl)oxazolidin-2-one
_symmetry_cell_setting           orthorhombic
_symmetry_space_group_name_H-M   'P 21 21 21'
_symmetry_Int_Tables_number      19
_space_group_name_Hall           'P 2ac 2ab'
loop_
_symmetry_equiv_pos_site_id
_symmetry_equiv_pos_as_xyz
1 x,y,z
2 1/2-x,-y,1/2+z
3 -x,1/2+y,1/2-z
4 1/2+x,1/2-y,-z
_cell_length_a                   8.679(2)
_cell_length_b                   12.209(2)
_cell_length_c                   23.109(5)
_cell_angle_alpha                90
_cell_angle_beta                 90
_cell_angle_gamma                90
_cell_volume                     2448.67
_exptl_crystal_colour            colorless
_chemical_melting_point          '128-130 deg.C'
_cell_formula_units_Z            4
loop_
_atom_site_label
_atom_site_type_symbol
_atom_site_fract_x
_atom_site_fract_y
_atom_site_fract_z
S1 S 0.37130(7) 0.14041(4) 0.08698(3)
C1 C -0.0573(3) 0.3728(3) 0.25373(12)
H1 H -0.0797 0.4443 0.2387
H2 H -0.0124 0.3797 0.2915
H3 H -0.1508 0.3311 0.2563
C2 C 0.0541(3) 0.3153(2) 0.21405(11)
C3 C 0.1046(3) 0.3668(2) 0.16380(11)
H4 H 0.0726 0.4381 0.1561
C4 C 0.2010(3) 0.3146(2) 0.12495(11)
H5 H 0.2324 0.3499 0.0913
C5 C 0.2507(3) 0.20836(19) 0.13683(10)
C6 C 0.2037(3) 0.1563(2) 0.18734(11)
H6 H 0.2381 0.0859 0.1957
C7 C 0.1051(3) 0.2099(2) 0.22514(11)
H7 H 0.0725 0.1743 0.2586
C8 C 0.6114(3) 0.26755(18) 0.11336(10)
H8 H 0.5961 0.2229 0.1481
C9 C 0.5822(3) 0.38644(18) 0.12967(10)
C10 C 0.5978(3) 0.46739(18) 0.08708(10)
H9 H 0.6246 0.4472 0.0496
C11 C 0.5742(3) 0.57695(19) 0.09978(11)
H10 H 0.5858 0.6299 0.0712
C12 C 0.5331(3) 0.6070(2) 0.15553(11)
H11 H 0.5154 0.6803 0.1643
C13 C 0.5184(3) 0.52839(19) 0.19801(11)
H12 H 0.4913 0.5498 0.2353
C14 C 0.5434(3) 0.41675(18) 0.18650(10)
C15 C 0.5248(3) 0.3363(2) 0.23537(10)
H13 H 0.4976 0.3749 0.2701
H14 H 0.6200 0.2978 0.2413
H15 H 0.4450 0.2849 0.2259
C16 C 0.7800(3) 0.25276(17) 0.09376(10)
H16 H 0.8030 0.3074 0.0646
H17 H 0.8470 0.2665 0.1266
C17 C 0.8171(3) 0.14143(19) 0.06952(10)
C18 C 0.7727(3) 0.0470(2) 0.16442(10)
C19 C 0.7369(3) -0.1256(2) 0.12833(11)
H18 H 0.6306 -0.1373 0.1170
H19 H 0.7852 -0.1961 0.1350
C20 C 0.8234(3) -0.06128(18) 0.08210(11)
H20 H 0.7710 -0.0677 0.0447
C21 C 0.9945(3) -0.09210(18) 0.07607(11)
H21 H 1.0407 -0.0481 0.0457
H22 H 1.0475 -0.0756 0.1120
C22 C 1.0156(3) -0.21252(18) 0.06181(11)
C23 C 1.1255(3) -0.27567(19) 0.09040(11)
H23 H 1.1883 -0.2433 0.1182
C24 C 1.1425(3) -0.3862(2) 0.07799(12)
H24 H 1.2169 -0.4272 0.0972
C25 C 1.0495(3) -0.4356(2) 0.03724(12)
H25 H 1.0601 -0.5100 0.0296
C26 C 0.9403(3) -0.3745(2) 0.00774(12)
H26 H 0.8778 -0.4075 -0.0199
C27 C 0.9250(3) -0.2630(2) 0.01989(11)
H27 H 0.8530 -0.2217 -0.0004
O1 O 0.4432(2) 0.05137(13) 0.11774(8)
O2 O 0.2838(2) 0.11740(13) 0.03561(7)
O3 O 0.8542(2) 0.12695(13) 0.01905(7)
O4 O 0.7724(2) 0.12057(14) 0.19877(7)
O5 O 0.7456(2) -0.05763(13) 0.17961(8)
N1 N 0.5049(2) 0.22587(16) 0.06790(9)
H28 H 0.481(4) 0.263(2) 0.0426(13)
N2 N 0.8059(2) 0.05016(16) 0.10538(8)
loop_
_geom_bond_atom_site_label_1
_geom_bond_atom_site_label_2
_geom_bond_site_symmetry_1
_geom_bond_site_symmetry_2
S1 C5 1_555 1_555
C1 H1 1_555 1_555
H2 C1 1_555 1_555
H3 C1 1_555 1_555
C2 C1 1_555 1_555
C3 C2 1_555 1_555
H4 C3 1_555 1_555
C4 C3 1_555 1_555
H5 C4 1_555 1_555
C5 C4 1_555 1_555
C6 C5 1_555 1_555
H6 C6 1_555 1_555
C7 C2 1_555 1_555
H7 C7 1_555 1_555
C8 H8 1_555 1_555
C9 C8 1_555 1_555
C10 C9 1_555 1_555
H9 C10 1_555 1_555
C11 C10 1_555 1_555
H10 C11 1_555 1_555
C12 C11 1_555 1_555
H11 C12 1_555 1_555
C13 C12 1_555 1_555
H12 C13 1_555 1_555
C14 C9 1_555 1_555
C15 C14 1_555 1_555
H13 C15 1_555 1_555
H14 C15 1_555 1_555
H15 C15 1_555 1_555
C16 C8 1_555 1_555
H16 C16 1_555 1_555
H17 C16 1_555 1_555
C17 C16 1_555 1_555
C18 O4 1_555 1_555
C19 H18 1_555 1_555
H19 C19 1_555 1_555
C20 C19 1_555 1_555
H20 C20 1_555 1_555
C21 C20 1_555 1_555
H21 C21 1_555 1_555
H22 C21 1_555 1_555
C22 C21 1_555 1_555
C23 C22 1_555 1_555
H23 C23 1_555 1_555
C24 C23 1_555 1_555
H24 C24 1_555 1_555
C25 C24 1_555 1_555
H25 C25 1_555 1_555
C26 C25 1_555 1_555
H26 C26 1_555 1_555
C27 C22 1_555 1_555
H27 C27 1_555 1_555
O1 S1 1_555 1_555
O2 S1 1_555 1_555
O3 C17 1_555 1_555
O5 C18 1_555 1_555
N1 S1 1_555 1_555
H28 N1 1_555 1_555
N2 C17 1_555 1_555
C6 C7 1_555 1_555
C8 N1 1_555 1_555
C13 C14 1_555 1_555
C18 N2 1_555 1_555
C19 O5 1_555 1_555
C20 N2 1_555 1_555
C26 C27 1_555 1_555

#END
