
#######################################################################
#
#                 Cambridge Crystallographic Data Centre
#                                CCDC 
#
#######################################################################
#
# If this CIF has been generated from an entry in the Cambridge 
# Structural Database, then it will include bibliographic, chemical, 
# crystal, experimental, refinement or atomic coordinate data resulting 
# from the CCDC's data processing and validation procedures.
#
#######################################################################

data_OFUPIR
_chemical_formula_moiety         'C64 H74 S2'
_chemical_name_systematic        
4,4,9,9-tetrakis(4-hexylphenyl)-4,9-dihydro-s-indaceno[1,2-b:5,6-b']bisthiophene
_symmetry_cell_setting           triclinic
_symmetry_space_group_name_H-M   'P -1'
_symmetry_Int_Tables_number      2
_space_group_name_Hall           '-P 1'
loop_
_symmetry_equiv_pos_site_id
_symmetry_equiv_pos_as_xyz
1 x,y,z
2 -x,-y,-z
_cell_length_a                   10.640(3)
_cell_length_b                   15.198(4)
_cell_length_c                   18.576(6)
_cell_angle_alpha                106.712(5)
_cell_angle_beta                 93.358(5)
_cell_angle_gamma                107.192(5)
_cell_volume                     2714.4
_exptl_crystal_colour            yellow
_exptl_crystal_description       plate
_cell_formula_units_Z            2
loop_
_atom_site_label
_atom_site_type_symbol
_atom_site_fract_x
_atom_site_fract_y
_atom_site_fract_z
S1 S 0.64452(9) 0.46136(8) 1.10089(6)
C1 C 0.5016(4) 0.3993(3) 1.0368(2)
H1 H 0.4171 0.3846 1.0507
C2 C 0.5233(3) 0.3734(3) 0.9635(2)
H2 H 0.4563 0.3395 0.9216
C3 C 0.6609(3) 0.4047(3) 0.9590(2)
C4 C 0.7375(3) 0.4525(3) 1.0289(2)
C5 C 0.8771(3) 0.4832(2) 1.02295(19)
C6 C 0.9903(3) 0.5302(3) 1.0778(2)
H3 H 0.9829 0.5505 1.1291
C7 C 1.1130(3) 0.5464(2) 1.0552(2)
C8 C 0.7472(3) 0.4034(3) 0.89574(19)
C9 C 0.7359(3) 0.3012(3) 0.8449(2)
C10 C 0.6743(4) 0.2183(3) 0.8625(3)
H4 H 0.6340 0.2223 0.9059
C11 C 0.6729(5) 0.1285(3) 0.8147(3)
H5 H 0.6298 0.0729 0.8267
C12 C 0.7331(4) 0.1186(3) 0.7500(3)
C13 C 0.7909(5) 0.2009(3) 0.7332(2)
H6 H 0.8311 0.1970 0.6898
C14 C 0.7915(4) 0.2903(3) 0.7789(2)
H7 H 0.8306 0.3450 0.7649
C15 C 0.7372(5) 0.0210(3) 0.7025(3)
H8 H 0.7445 0.0214 0.6507
H9 H 0.6542 -0.0286 0.7011
C16 C 0.8528(5) -0.0052(3) 0.7325(3)
H10 H 0.9347 0.0479 0.7392
H11 H 0.8401 -0.0122 0.7822
C17 C 0.8678(6) -0.0980(4) 0.6811(3)
H12 H 0.7825 -0.1492 0.6703
H13 H 0.8883 -0.0882 0.6333
C18 C 0.9677(8) -0.1316(5) 0.7099(5)
H14 H 0.9397 -0.1532 0.7524
H15 H 1.0505 -0.0777 0.7286
C19 C 0.9932(13) -0.2172(8) 0.6480(6)
H16 H 0.9184 -0.2762 0.6388
H17 H 0.9990 -0.2022 0.6007
C20 C 1.1184(14) -0.2343(13) 0.6717(10)
H18 H 1.1302 -0.2870 0.6324
H19 H 1.1930 -0.1765 0.6798
H20 H 1.1124 -0.2505 0.7179
C21 C 0.7117(3) 0.4620(3) 0.8472(2)
C22 C 0.5859(4) 0.4274(3) 0.8043(2)
H21 H 0.5259 0.3691 0.8048
C23 C 0.5483(4) 0.4778(4) 0.7610(2)
H22 H 0.4627 0.4532 0.7334
C24 C 0.6343(5) 0.5641(4) 0.7576(3)
C25 C 0.7594(6) 0.5979(4) 0.8009(3)
H23 H 0.8203 0.6557 0.7998
C26 C 0.7968(4) 0.5480(3) 0.8459(3)
H24 H 0.8808 0.5737 0.8754
C27 C 0.5946(7) 0.6185(5) 0.7092(3)
H25 H 0.6737 0.6542 0.6934
H26 H 0.5355 0.5719 0.6637
C28 C 0.5273(13) 0.6873(8) 0.7477(5)
H27 H 0.5104 0.7202 0.7124
H28 H 0.4410 0.6486 0.7545
C29 C 0.5874(12) 0.7617(7) 0.8203(6)
H29 H 0.6791 0.7953 0.8175
H30 H 0.5886 0.7307 0.8591
C30 C 0.5157(17) 0.8367(9) 0.8444(8)
H31 H 0.5075 0.8650 0.8046
H32 H 0.4270 0.8057 0.8535
C31 C 0.592(2) 0.9107(15) 0.9128(14)
H33 H 0.5688 0.9688 0.9169
H34 H 0.6854 0.9258 0.9070
C32 C 0.5775(19) 0.8887(12) 0.9892(10)
H35 H 0.5354 0.9304 1.0201
H36 H 0.6640 0.9000 1.0155
H37 H 0.5240 0.8221 0.9790
S1A S 1.35548(9) 0.53864(8) 0.89911(6)
C1A C 1.4984(4) 0.6007(3) 0.9632(2)
H1A H 1.5829 0.6154 0.9493
C2A C 1.4767(3) 0.6266(3) 1.0365(2)
H2A H 1.5437 0.6605 1.0784
C3A C 1.3391(3) 0.5953(3) 1.0410(2)
C4A C 1.2625(3) 0.5475(3) 0.9711(2)
C5A C 1.1229(3) 0.5168(2) 0.97705(19)
C6A C 1.0097(3) 0.4698(3) 0.9222(2)
H3A H 1.0171 0.4495 0.8709
C7A C 0.8870(3) 0.4536(2) 0.9448(2)
C8A C 1.2528(3) 0.5966(3) 1.10426(19)
C9A C 1.2641(3) 0.6988(3) 1.1551(2)
C10A C 1.3257(4) 0.7817(3) 1.1375(3)
H4A H 1.3660 0.7777 1.0941
C11A C 1.3271(5) 0.8715(3) 1.1853(3)
H5A H 1.3702 0.9271 1.1733
C12A C 1.2669(4) 0.8814(3) 1.2500(3)
C13A C 1.2091(5) 0.7991(3) 1.2668(2)
H6A H 1.1689 0.8030 1.3102
C14A C 1.2085(4) 0.7097(3) 1.2211(2)
H7A H 1.1694 0.6550 1.2351
C15A C 1.2628(5) 0.9790(3) 1.2975(3)
H8A H 1.2555 0.9786 1.3493
H9A H 1.3458 1.0286 1.2989
C16A C 1.1472(5) 1.0052(3) 1.2675(3)
H10A H 1.0653 0.9521 1.2608
H11A H 1.1599 1.0122 1.2178
C17A C 1.1322(6) 1.0980(4) 1.3189(3)
H12A H 1.2175 1.1492 1.3297
H13A H 1.1117 1.0882 1.3667
C18A C 1.0323(8) 1.1316(5) 1.2901(5)
H14A H 1.0603 1.1532 1.2476
H15A H 0.9495 1.0777 1.2714
C19A C 1.0068(13) 1.2172(8) 1.3520(6)
H16A H 1.0816 1.2762 1.3612
H17A H 1.0010 1.2022 1.3993
C20A C 0.8816(14) 1.2343(13) 1.3283(10)
H18A H 0.8698 1.2870 1.3676
H19A H 0.8070 1.1765 1.3202
H20A H 0.8876 1.2505 1.2821
C21A C 1.2883(3) 0.5380(3) 1.1528(2)
C22A C 1.4141(4) 0.5726(3) 1.1957(2)
H21A H 1.4741 0.6309 1.1952
C23A C 1.4517(4) 0.5222(4) 1.2390(2)
H22A H 1.5373 0.5468 1.2666
C24A C 1.3657(5) 0.4359(4) 1.2424(3)
C25A C 1.2406(6) 0.4021(4) 1.1991(3)
H23A H 1.1797 0.3443 1.2002
C26A C 1.2032(4) 0.4520(3) 1.1541(3)
H24A H 1.1192 0.4263 1.1246
C27A C 1.4054(7) 0.3815(5) 1.2908(3)
H25A H 1.3263 0.3458 1.3066
H26A H 1.4645 0.4281 1.3363
C28A C 1.4727(13) 0.3127(8) 1.2523(5)
H27A H 1.4896 0.2798 1.2876
H28A H 1.5590 0.3514 1.2455
C29A C 1.4126(12) 0.2383(7) 1.1797(6)
H29A H 1.3209 0.2047 1.1825
H30A H 1.4114 0.2693 1.1409
C30A C 1.4843(17) 0.1633(9) 1.1556(8)
H31A H 1.4925 0.1350 1.1954
H32A H 1.5730 0.1943 1.1465
C31A C 1.408(2) 0.0893(15) 1.0872(14)
H33A H 1.4312 0.0312 1.0831
H34A H 1.3146 0.0742 1.0930
C32A C 1.4225(19) 0.1113(12) 1.0108(10)
H35A H 1.4646 0.0696 0.9799
H36A H 1.3360 0.1000 0.9845
H37A H 1.4760 0.1779 1.0210
S2 S 0.28112(10) -0.15241(8) 0.49326(6)
C33 C 0.4270(4) -0.0863(3) 0.5551(3)
H38 H 0.4968 -0.1103 0.5602
C34 C 0.4304(4) 0.0033(3) 0.5955(2)
H39 H 0.5025 0.0485 0.6310
C35 C 0.3115(3) 0.0207(3) 0.5774(2)
C36 C 0.2222(3) -0.0574(3) 0.5229(2)
C37 C 0.1012(3) -0.0372(3) 0.50463(19)
C38 C 0.1182(3) 0.0584(3) 0.5490(2)
C39 C 0.0162(3) 0.0960(3) 0.5448(2)
H40 H 0.0254 0.1590 0.5743
C40 C 0.2577(3) 0.1067(3) 0.5993(2)
C41 C 0.3505(3) 0.1911(3) 0.5773(2)
C42 C 0.3148(4) 0.2199(3) 0.5183(3)
H41 H 0.2299 0.1896 0.4898
C43 C 0.4056(5) 0.2946(4) 0.5011(3)
H42 H 0.3805 0.3127 0.4601
C44 C 0.5303(5) 0.3427(3) 0.5420(3)
C45 C 0.5650(4) 0.3122(3) 0.6006(3)
H43 H 0.6502 0.3425 0.6287
C46 C 0.4775(4) 0.2384(3) 0.6187(2)
H44 H 0.5036 0.2199 0.6592
C47 C 0.6255(7) 0.4256(4) 0.5218(5)
H45 H 0.5733 0.4612 0.5058
H46 H 0.6849 0.4694 0.5681
C48 C 0.7016(9) 0.4046(6) 0.4679(5)
H47 H 0.6444 0.3614 0.4207
H48 H 0.7575 0.3711 0.4835
C49 C 0.7936(10) 0.5000(7) 0.4535(8)
H49 H 0.7448 0.5456 0.4585
H50 H 0.8715 0.5301 0.4928
C50 C 0.8377(15) 0.4827(9) 0.3793(8)
H51 H 0.7636 0.4566 0.3379
H52 H 0.8914 0.4402 0.3724
C51 C 0.9228(15) 0.5902(9) 0.3881(9)
H53 H 0.8722 0.6349 0.3960
H54 H 1.0033 0.6160 0.4252
C52 C 0.9442(19) 0.5544(14) 0.3094(11)
H55 H 0.9985 0.6075 0.2951
H56 H 0.9883 0.5068 0.3050
H57 H 0.8599 0.5253 0.2764
C53 C 0.2426(3) 0.1413(3) 0.6832(2)
C54 C 0.2607(4) 0.0947(4) 0.7330(2)
H58 H 0.2857 0.0393 0.7169
C55 C 0.2420(5) 0.1297(4) 0.8086(3)
H59 H 0.2574 0.0976 0.8423
C56 C 0.2016(4) 0.2096(4) 0.8350(3)
C57 C 0.1858(4) 0.2569(3) 0.7846(3)
H60 H 0.1588 0.3113 0.8004
C58 C 0.2090(4) 0.2257(3) 0.7106(2)
H61 H 0.2022 0.2617 0.6785
C59 C 0.1733(5) 0.2425(4) 0.9145(3)
H62 H 0.1891 0.3120 0.9300
H63 H 0.2343 0.2305 0.9485
C60 C 0.0333(6) 0.1920(6) 0.9222(3)
H64 H 0.0170 0.1224 0.9050
H65 H -0.0273 0.2054 0.8890
C61 C 0.0017(8) 0.2223(7) 1.0041(4)
H66 H 0.0764 0.2263 1.0388
H67 H -0.0053 0.2869 1.0159
C62 C -0.1163(12) 0.1601(10) 1.0185(6)
H68 H -0.1126 0.0943 1.0034
H69 H -0.1921 0.1599 0.9868
C63 C -0.1390(16) 0.1880(14) 1.1012(7)
H70 H -0.0612 0.1909 1.1330
H71 H -0.2142 0.1369 1.1066
C64 C -0.165(2) 0.2849(14) 1.1308(11)
H72 H -0.1784 0.2965 1.1830
H73 H -0.0904 0.3365 1.1272
H74 H -0.2437 0.2823 1.1008
S2A S -0.28112(10) 0.15241(8) 0.50674(6)
C33A C -0.4270(4) 0.0863(3) 0.4449(3)
H38A H -0.4968 0.1103 0.4398
C34A C -0.4304(4) -0.0033(3) 0.4045(2)
H39A H -0.5025 -0.0485 0.3690
C35A C -0.3115(3) -0.0207(3) 0.4226(2)
C36A C -0.2222(3) 0.0574(3) 0.4771(2)
C37A C -0.1012(3) 0.0372(3) 0.49537(19)
C38A C -0.1182(3) -0.0584(3) 0.4510(2)
C39A C -0.0162(3) -0.0960(3) 0.4552(2)
H40A H -0.0254 -0.1590 0.4257
C40A C -0.2577(3) -0.1067(3) 0.4007(2)
C41A C -0.3505(3) -0.1911(3) 0.4227(2)
C42A C -0.3148(4) -0.2199(3) 0.4817(3)
H41A H -0.2299 -0.1896 0.5102
C43A C -0.4056(5) -0.2946(4) 0.4989(3)
H42A H -0.3805 -0.3127 0.5399
C44A C -0.5303(5) -0.3427(3) 0.4580(3)
C45A C -0.5650(4) -0.3122(3) 0.3994(3)
H43A H -0.6502 -0.3425 0.3713
C46A C -0.4775(4) -0.2384(3) 0.3813(2)
H44A H -0.5036 -0.2199 0.3408
C47A C -0.6255(7) -0.4256(4) 0.4782(5)
H45A H -0.5733 -0.4612 0.4942
H46A H -0.6849 -0.4694 0.4319
C48A C -0.7016(9) -0.4046(6) 0.5321(5)
H47A H -0.6444 -0.3614 0.5793
H48A H -0.7575 -0.3711 0.5165
C49A C -0.7936(10) -0.5000(7) 0.5465(8)
H49A H -0.7448 -0.5456 0.5415
H50A H -0.8715 -0.5301 0.5072
C50A C -0.8377(15) -0.4827(9) 0.6207(8)
H51A H -0.7636 -0.4566 0.6621
H52A H -0.8914 -0.4402 0.6276
C51A C -0.9228(15) -0.5902(9) 0.6119(9)
H53A H -0.8722 -0.6349 0.6040
H54A H -1.0033 -0.6160 0.5748
C52A C -0.9442(19) -0.5544(14) 0.6906(11)
H55A H -0.9985 -0.6075 0.7049
H56A H -0.9883 -0.5068 0.6950
H57A H -0.8599 -0.5253 0.7236
C53A C -0.2426(3) -0.1413(3) 0.3168(2)
C54A C -0.2607(4) -0.0947(4) 0.2670(2)
H58A H -0.2857 -0.0393 0.2831
C55A C -0.2420(5) -0.1297(4) 0.1914(3)
H59A H -0.2574 -0.0976 0.1577
C56A C -0.2016(4) -0.2096(4) 0.1650(3)
C57A C -0.1858(4) -0.2569(3) 0.2154(3)
H60A H -0.1588 -0.3113 0.1996
C58A C -0.2090(4) -0.2257(3) 0.2894(2)
H61A H -0.2022 -0.2617 0.3215
C59A C -0.1733(5) -0.2425(4) 0.0855(3)
H62A H -0.1891 -0.3120 0.0700
H63A H -0.2343 -0.2305 0.0515
C60A C -0.0333(6) -0.1920(6) 0.0778(3)
H64A H -0.0170 -0.1224 0.0950
H65A H 0.0273 -0.2054 0.1110
C61A C -0.0017(8) -0.2223(7) -0.0041(4)
H66A H -0.0764 -0.2263 -0.0388
H67A H 0.0053 -0.2869 -0.0159
C62A C 0.1163(12) -0.1601(10) -0.0185(6)
H68A H 0.1126 -0.0943 -0.0034
H69A H 0.1921 -0.1599 0.0132
C63A C 0.1390(16) -0.1880(14) -0.1012(7)
H70A H 0.0612 -0.1909 -0.1330
H71A H 0.2142 -0.1369 -0.1066
C64A C 0.165(2) -0.2849(14) -0.1308(11)
H72A H 0.1784 -0.2965 -0.1830
H73A H 0.0904 -0.3365 -0.1272
H74A H 0.2437 -0.2823 -0.1008
loop_
_geom_bond_atom_site_label_1
_geom_bond_atom_site_label_2
_geom_bond_site_symmetry_1
_geom_bond_site_symmetry_2
S1 C1 1_555 1_555
C1 H1 1_555 1_555
C2 C1 1_555 1_555
H2 C2 1_555 1_555
C3 C2 1_555 1_555
C4 S1 1_555 1_555
C5 C4 1_555 1_555
C6 C5 1_555 1_555
H3 C6 1_555 1_555
C7 C6 1_555 1_555
C8 C3 1_555 1_555
C9 C8 1_555 1_555
C10 C9 1_555 1_555
H4 C10 1_555 1_555
C11 C10 1_555 1_555
H5 C11 1_555 1_555
C12 C11 1_555 1_555
C13 C12 1_555 1_555
H6 C13 1_555 1_555
C14 C9 1_555 1_555
H7 C14 1_555 1_555
C15 C12 1_555 1_555
H8 C15 1_555 1_555
H9 C15 1_555 1_555
C16 C15 1_555 1_555
H10 C16 1_555 1_555
H11 C16 1_555 1_555
C17 C16 1_555 1_555
H12 C17 1_555 1_555
H13 C17 1_555 1_555
C18 C17 1_555 1_555
H14 C18 1_555 1_555
H15 C18 1_555 1_555
C19 C18 1_555 1_555
H16 C19 1_555 1_555
H17 C19 1_555 1_555
C20 C19 1_555 1_555
H18 C20 1_555 1_555
H19 C20 1_555 1_555
H20 C20 1_555 1_555
C21 C8 1_555 1_555
C22 C21 1_555 1_555
H21 C22 1_555 1_555
C23 C22 1_555 1_555
H22 C23 1_555 1_555
C24 C23 1_555 1_555
C25 C24 1_555 1_555
H23 C25 1_555 1_555
C26 C21 1_555 1_555
H24 C26 1_555 1_555
C27 C24 1_555 1_555
H25 C27 1_555 1_555
H26 C27 1_555 1_555
C28 C27 1_555 1_555
H27 C28 1_555 1_555
H28 C28 1_555 1_555
C29 C28 1_555 1_555
H29 C29 1_555 1_555
H30 C29 1_555 1_555
C30 C29 1_555 1_555
H31 C30 1_555 1_555
H32 C30 1_555 1_555
C31 C30 1_555 1_555
H33 C31 1_555 1_555
H34 C31 1_555 1_555
C32 C31 1_555 1_555
H35 C32 1_555 1_555
H36 C32 1_555 1_555
H37 C32 1_555 1_555
S2 C33 1_555 1_555
C33 H38 1_555 1_555
C34 C33 1_555 1_555
H39 C34 1_555 1_555
C35 C34 1_555 1_555
C36 S2 1_555 1_555
C37 C36 1_555 1_555
C38 C37 1_555 1_555
C39 C38 1_555 1_555
H40 C39 1_555 1_555
C40 C35 1_555 1_555
C41 C40 1_555 1_555
C42 C41 1_555 1_555
H41 C42 1_555 1_555
C43 C42 1_555 1_555
H42 C43 1_555 1_555
C44 C43 1_555 1_555
C45 C44 1_555 1_555
H43 C45 1_555 1_555
C46 C41 1_555 1_555
H44 C46 1_555 1_555
C47 C44 1_555 1_555
H45 C47 1_555 1_555
H46 C47 1_555 1_555
C48 C47 1_555 1_555
H47 C48 1_555 1_555
H48 C48 1_555 1_555
C49 C48 1_555 1_555
H49 C49 1_555 1_555
H50 C49 1_555 1_555
C50 C49 1_555 1_555
H51 C50 1_555 1_555
H52 C50 1_555 1_555
C51 C50 1_555 1_555
H53 C51 1_555 1_555
H54 C51 1_555 1_555
C52 C51 1_555 1_555
H55 C52 1_555 1_555
H56 C52 1_555 1_555
H57 C52 1_555 1_555
C53 C40 1_555 1_555
C54 C53 1_555 1_555
H58 C54 1_555 1_555
C55 C54 1_555 1_555
H59 C55 1_555 1_555
C56 C55 1_555 1_555
C57 C56 1_555 1_555
H60 C57 1_555 1_555
C58 C53 1_555 1_555
H61 C58 1_555 1_555
C59 C56 1_555 1_555
H62 C59 1_555 1_555
H63 C59 1_555 1_555
C60 C59 1_555 1_555
H64 C60 1_555 1_555
H65 C60 1_555 1_555
C61 C60 1_555 1_555
H66 C61 1_555 1_555
H67 C61 1_555 1_555
C62 C61 1_555 1_555
H68 C62 1_555 1_555
H69 C62 1_555 1_555
C63 C62 1_555 1_555
H70 C63 1_555 1_555
H71 C63 1_555 1_555
C64 C63 1_555 1_555
H72 C64 1_555 1_555
H73 C64 1_555 1_555
H74 C64 1_555 1_555
S1A C1A 1_555 1_555
C1A H1A 1_555 1_555
C2A C1A 1_555 1_555
H2A C2A 1_555 1_555
C3A C2A 1_555 1_555
C4A S1A 1_555 1_555
C5A C7 1_555 1_555
C6A C5A 1_555 1_555
H3A C6A 1_555 1_555
C7A C5 1_555 1_555
C8A C7 1_555 1_555
C9A C8A 1_555 1_555
C10A C9A 1_555 1_555
H4A C10A 1_555 1_555
C11A C10A 1_555 1_555
H5A C11A 1_555 1_555
C12A C11A 1_555 1_555
C13A C12A 1_555 1_555
H6A C13A 1_555 1_555
C14A C9A 1_555 1_555
H7A C14A 1_555 1_555
C15A C12A 1_555 1_555
H8A C15A 1_555 1_555
H9A C15A 1_555 1_555
C16A C15A 1_555 1_555
H10A C16A 1_555 1_555
H11A C16A 1_555 1_555
C17A C16A 1_555 1_555
H12A C17A 1_555 1_555
H13A C17A 1_555 1_555
C18A C17A 1_555 1_555
H14A C18A 1_555 1_555
H15A C18A 1_555 1_555
C19A C18A 1_555 1_555
H16A C19A 1_555 1_555
H17A C19A 1_555 1_555
C20A C19A 1_555 1_555
H18A C20A 1_555 1_555
H19A C20A 1_555 1_555
H20A C20A 1_555 1_555
C21A C8A 1_555 1_555
C22A C21A 1_555 1_555
H21A C22A 1_555 1_555
C23A C22A 1_555 1_555
H22A C23A 1_555 1_555
C24A C23A 1_555 1_555
C25A C24A 1_555 1_555
H23A C25A 1_555 1_555
C26A C21A 1_555 1_555
H24A C26A 1_555 1_555
C27A C24A 1_555 1_555
H25A C27A 1_555 1_555
H26A C27A 1_555 1_555
C28A C27A 1_555 1_555
H27A C28A 1_555 1_555
H28A C28A 1_555 1_555
C29A C28A 1_555 1_555
H29A C29A 1_555 1_555
H30A C29A 1_555 1_555
C30A C29A 1_555 1_555
H31A C30A 1_555 1_555
H32A C30A 1_555 1_555
C31A C30A 1_555 1_555
H33A C31A 1_555 1_555
H34A C31A 1_555 1_555
C32A C31A 1_555 1_555
H35A C32A 1_555 1_555
H36A C32A 1_555 1_555
H37A C32A 1_555 1_555
S2A C33A 1_555 1_555
C33A H38A 1_555 1_555
C34A C33A 1_555 1_555
H39A C34A 1_555 1_555
C35A C34A 1_555 1_555
C36A S2A 1_555 1_555
C37A C39 1_555 1_555
C38A C37A 1_555 1_555
C39A C37 1_555 1_555
H40A C39A 1_555 1_555
C40A C35A 1_555 1_555
C41A C40A 1_555 1_555
C42A C41A 1_555 1_555
H41A C42A 1_555 1_555
C43A C42A 1_555 1_555
H42A C43A 1_555 1_555
C44A C43A 1_555 1_555
C45A C44A 1_555 1_555
H43A C45A 1_555 1_555
C46A C41A 1_555 1_555
H44A C46A 1_555 1_555
C47A C44A 1_555 1_555
H45A C47A 1_555 1_555
H46A C47A 1_555 1_555
C48A C47A 1_555 1_555
H47A C48A 1_555 1_555
H48A C48A 1_555 1_555
C49A C48A 1_555 1_555
H49A C49A 1_555 1_555
H50A C49A 1_555 1_555
C50A C49A 1_555 1_555
H51A C50A 1_555 1_555
H52A C50A 1_555 1_555
C51A C50A 1_555 1_555
H53A C51A 1_555 1_555
H54A C51A 1_555 1_555
C52A C51A 1_555 1_555
H55A C52A 1_555 1_555
H56A C52A 1_555 1_555
H57A C52A 1_555 1_555
C53A C40A 1_555 1_555
C54A C53A 1_555 1_555
H58A C54A 1_555 1_555
C55A C54A 1_555 1_555
H59A C55A 1_555 1_555
C56A C55A 1_555 1_555
C57A C56A 1_555 1_555
H60A C57A 1_555 1_555
C58A C53A 1_555 1_555
H61A C58A 1_555 1_555
C59A C56A 1_555 1_555
H62A C59A 1_555 1_555
H63A C59A 1_555 1_555
C60A C59A 1_555 1_555
H64A C60A 1_555 1_555
H65A C60A 1_555 1_555
C61A C60A 1_555 1_555
H66A C61A 1_555 1_555
H67A C61A 1_555 1_555
C62A C61A 1_555 1_555
H68A C62A 1_555 1_555
H69A C62A 1_555 1_555
C63A C62A 1_555 1_555
H70A C63A 1_555 1_555
H71A C63A 1_555 1_555
C64A C63A 1_555 1_555
H72A C64A 1_555 1_555
H73A C64A 1_555 1_555
H74A C64A 1_555 1_555
C3 C4 1_555 1_555
C8 C7A 1_555 1_555
C13 C14 1_555 1_555
C25 C26 1_555 1_555
C35 C36 1_555 1_555
C38 C40 1_555 1_555
C45 C46 1_555 1_555
C57 C58 1_555 1_555
C3A C4A 1_555 1_555
C3A C8A 1_555 1_555
C4A C5A 1_555 1_555
C6A C7A 1_555 1_555
C13A C14A 1_555 1_555
C25A C26A 1_555 1_555
C35A C36A 1_555 1_555
C36A C37A 1_555 1_555
C38A C39A 1_555 1_555
C38A C40A 1_555 1_555
C45A C46A 1_555 1_555
C57A C58A 1_555 1_555

#END
