
#######################################################################
#
#                 Cambridge Crystallographic Data Centre
#                                CCDC 
#
#######################################################################
#
# If this CIF has been generated from an entry in the Cambridge 
# Structural Database, then it will include bibliographic, chemical, 
# crystal, experimental, refinement or atomic coordinate data resulting 
# from the CCDC's data processing and validation procedures.
#
#######################################################################

data_OFUTUG
_chemical_formula_moiety         'C20 H13 F3 N2 O2'
_chemical_name_systematic        
2-Oxo-1-phenyl-2-(2-(2-(trifluoromethyl)benzoyl)phenyl)diazan-2-ium-1-ide
_symmetry_cell_setting           triclinic
_symmetry_space_group_name_H-M   'P -1'
_symmetry_Int_Tables_number      2
_space_group_name_Hall           '-P 1'
loop_
_symmetry_equiv_pos_site_id
_symmetry_equiv_pos_as_xyz
1 x,y,z
2 -x,-y,-z
_cell_length_a                   7.7008(16)
_cell_length_b                   8.9697(17)
_cell_length_c                   14.190(3)
_cell_angle_alpha                74.227(4)
_cell_angle_beta                 80.042(4)
_cell_angle_gamma                67.803(4)
_cell_volume                     870.63
_exptl_crystal_colour            colorless
_exptl_crystal_description       prismatic
_cell_formula_units_Z            2
loop_
_atom_site_label
_atom_site_type_symbol
_atom_site_fract_x
_atom_site_fract_y
_atom_site_fract_z
F1 F 0.1336(3) 0.9843(2) 0.07006(12)
F2 F 0.4186(2) 0.8255(2) 0.09383(11)
F3 F 0.3124(3) 0.8773(3) -0.04455(11)
N1 N 0.0017(2) 0.70702(18) 0.46084(11)
N2 N -0.0072(2) 0.77949(18) 0.52792(11)
O1 O 0.13269(19) 0.58471(17) 0.43670(10)
O2 O 0.14835(19) 0.83245(19) 0.26242(11)
C1 C -0.1637(2) 0.7756(2) 0.40491(13)
C2 C -0.3400(3) 0.8177(2) 0.45373(15)
H1 H -0.3536 0.8081 0.5213
C3 C -0.4963(3) 0.8743(3) 0.40114(17)
H2 H -0.6161 0.9058 0.4332
C4 C -0.4757(3) 0.8844(3) 0.30196(17)
H3 H -0.5813 0.9216 0.2669
C5 C -0.2974(3) 0.8393(2) 0.25391(15)
H4 H -0.2842 0.8448 0.1868
C6 C -0.1388(2) 0.7860(2) 0.30471(13)
C7 C 0.0499(2) 0.7652(2) 0.24849(13)
C8 C 0.1065(3) 0.6625(2) 0.17396(13)
C9 C 0.0634(3) 0.5207(3) 0.19741(18)
H5 H -0.0066 0.4970 0.2562
C10 C 0.1215(4) 0.4125(4) 0.1357(2)
H6 H 0.0941 0.3156 0.1538
C11 C 0.2188(4) 0.4482(5) 0.0487(2)
H7 H 0.2577 0.3759 0.0069
C12 C 0.2598(3) 0.5901(4) 0.02231(18)
H8 H 0.3238 0.6146 -0.0384
C13 C 0.2078(3) 0.6986(3) 0.08430(14)
C14 C 0.2665(4) 0.8450(4) 0.05184(17)
C15 C 0.1415(3) 0.7223(2) 0.58930(12)
C16 C 0.1106(3) 0.8211(2) 0.65478(15)
H9 H 0.0022 0.9142 0.6529
C17 C 0.2360(4) 0.7845(3) 0.72189(16)
H10 H 0.2125 0.8522 0.7654
C18 C 0.3975(3) 0.6473(3) 0.72531(16)
H11 H 0.4836 0.6222 0.7709
C19 C 0.4307(3) 0.5480(3) 0.66101(15)
H12 H 0.5399 0.4553 0.6634
C20 C 0.3044(3) 0.5834(2) 0.59286(14)
H13 H 0.3281 0.5151 0.5497
loop_
_geom_bond_atom_site_label_1
_geom_bond_atom_site_label_2
_geom_bond_site_symmetry_1
_geom_bond_site_symmetry_2
F1 C14 1_555 1_555
F2 C14 1_555 1_555
F3 C14 1_555 1_555
N1 N2 1_555 1_555
N2 C15 1_555 1_555
O1 N1 1_555 1_555
O2 C7 1_555 1_555
C1 N1 1_555 1_555
C2 C1 1_555 1_555
H1 C2 1_555 1_555
C3 C2 1_555 1_555
H2 C3 1_555 1_555
C4 C3 1_555 1_555
H3 C4 1_555 1_555
C5 C4 1_555 1_555
H4 C5 1_555 1_555
C6 C1 1_555 1_555
C7 C6 1_555 1_555
C8 C7 1_555 1_555
C9 C8 1_555 1_555
H5 C9 1_555 1_555
C10 C9 1_555 1_555
H6 C10 1_555 1_555
C11 C10 1_555 1_555
H7 C11 1_555 1_555
C12 C11 1_555 1_555
H8 C12 1_555 1_555
C13 C8 1_555 1_555
C14 C13 1_555 1_555
C15 C16 1_555 1_555
C16 H9 1_555 1_555
C17 C16 1_555 1_555
H10 C17 1_555 1_555
C18 C17 1_555 1_555
H11 C18 1_555 1_555
C19 C18 1_555 1_555
H12 C19 1_555 1_555
C20 C15 1_555 1_555
H13 C20 1_555 1_555
C5 C6 1_555 1_555
C12 C13 1_555 1_555
C19 C20 1_555 1_555

#END
