
#######################################################################
#
#                 Cambridge Crystallographic Data Centre
#                                CCDC 
#
#######################################################################
#
# If this CIF has been generated from an entry in the Cambridge 
# Structural Database, then it will include bibliographic, chemical, 
# crystal, experimental, refinement or atomic coordinate data resulting 
# from the CCDC's data processing and validation procedures.
#
#######################################################################

data_OFUXIW
_chemical_formula_moiety         'C33 H32 S20'
_chemical_name_systematic        
3,8,13-tris(4,5-bis(Methylsulfanyl)-1,3-dithiol-2-ylidene)-18,19-bis(methylsulfanyl)-5,7,9,11,17,20-hexathiahexacyclo(13.6.1.0^2,14^.0^4,12^.0^6,10^.0^16,21^)docosa-4(12),6(10),18-triene
_symmetry_cell_setting           monoclinic
_symmetry_space_group_name_H-M   'P 21/c'
_symmetry_Int_Tables_number      14
_space_group_name_Hall           '-P 2ybc'
loop_
_symmetry_equiv_pos_site_id
_symmetry_equiv_pos_as_xyz
1 x,y,z
2 -x,1/2+y,1/2-z
3 -x,-y,-z
4 x,1/2-y,1/2+z
_cell_length_a                   14.2390(10)
_cell_length_b                   28.943(2)
_cell_length_c                   11.0590(10)
_cell_angle_alpha                90
_cell_angle_beta                 95.940(10)
_cell_angle_gamma                90
_cell_volume                     4533.16
_chemical_melting_point          '173 deg.C(dec.)'
_cell_formula_units_Z            4
loop_
_atom_site_label
_atom_site_type_symbol
_atom_site_fract_x
_atom_site_fract_y
_atom_site_fract_z
S1 S 0.1670(2) 0.60951(10) 1.1179(2)
S2 S -0.00198(19) 0.63030(10) 0.9504(2)
S3 S 0.0772(2) 0.66508(10) 1.3342(2)
S4 S -0.09738(19) 0.68048(10) 1.1746(3)
S5 S 0.29525(16) 0.61742(8) 0.9139(2)
S6 S 0.11753(17) 0.64447(8) 0.7378(2)
S7 S 0.0355(2) 0.73932(12) 1.5113(3)
S8 S -0.1606(2) 0.75830(12) 1.3273(3)
S9 S -0.03150(16) 0.59207(9) 0.5751(2)
S10 S 0.05599(16) 0.54347(8) 0.3832(2)
S11 S 0.33475(19) 0.51791(9) 1.0039(2)
S12 S 0.42178(17) 0.46545(9) 0.8183(2)
S13 S -0.22772(17) 0.58260(10) 0.4569(3)
S14 S -0.1308(2) 0.53647(11) 0.2230(3)
S15 S 0.3544(3) 0.44095(11) 1.1865(3)
S16 S 0.4494(3) 0.38031(12) 0.9796(4)
S17 S 0.35905(19) 0.65851(9) 0.3714(2)
S18 S 0.53055(16) 0.62702(10) 0.5491(3)
S19 S 0.4003(2) 0.75921(10) 0.4359(3)
S20 S 0.5826(2) 0.72605(12) 0.6073(3)
C1 C 0.0528(7) 0.6337(3) 1.1005(9)
C2 C 0.0173(7) 0.6560(3) 1.1897(8)
C3 C 0.1845(6) 0.6232(3) 0.9662(8)
C4 C 0.1090(6) 0.6338(3) 0.8917(8)
C5 C 0.0056(7) 0.7113(3) 1.3733(9)
C6 C -0.0730(8) 0.7180(4) 1.3002(9)
C7 C 0.2634(6) 0.5836(3) 0.7819(7)
C8 C 0.1869(6) 0.5959(3) 0.7018(7)
C9 C 0.1627(6) 0.5718(3) 0.5883(7)
C10 C 0.2433(6) 0.5471(3) 0.5359(7)
H1 H 0.2172 0.5196 0.4972
C11 C 0.3294(6) 0.5320(3) 0.6282(7)
H2 H 0.3337 0.4990 0.6232
C12 C 0.3192(5) 0.5434(3) 0.7587(7)
C13 C 0.0752(6) 0.5707(3) 0.5264(7)
C14 C 0.3549(6) 0.5147(3) 0.8494(8)
C15 C -0.1068(6) 0.5732(3) 0.4490(8)
C16 C -0.0675(6) 0.5519(3) 0.3593(8)
C17 C 0.3680(8) 0.4610(4) 1.0397(9)
C18 C 0.4091(7) 0.4367(3) 0.9571(10)
C19 C 0.4153(6) 0.5523(3) 0.5704(8)
H3 H 0.4743 0.5377 0.5973
C20 C 0.3834(6) 0.5464(3) 0.4345(8)
H4 H 0.3718 0.5148 0.4120
H5 H 0.4261 0.5602 0.3833
C21 C 0.2923(6) 0.5743(3) 0.4401(8)
H6 H 0.2548 0.5777 0.3632
C22 C 0.3314(6) 0.6205(3) 0.4949(7)
H7 H 0.2842 0.6349 0.5384
C23 C 0.4164(5) 0.6049(3) 0.5859(8)
H8 H 0.4063 0.6130 0.6677
C24 C 0.4308(7) 0.7002(3) 0.4517(9)
C25 C 0.5069(7) 0.6858(4) 0.5299(9)
C26 C 0.1589(8) 0.7479(4) 1.5125(11)
H9 H 0.1828 0.7636 1.5859
H10 H 0.1897 0.7185 1.5085
H11 H 0.1711 0.7663 1.4436
C27 C -0.1539(9) 0.7967(4) 1.2036(13)
H12 H -0.1990 0.8212 1.2066
H13 H -0.0914 0.8095 1.2081
H14 H -0.1668 0.7800 1.1287
C28 C -0.2440(8) 0.6381(5) 0.4049(15)
H15 H -0.3090 0.6468 0.4057
H16 H -0.2049 0.6586 0.4566
H17 H -0.2268 0.6401 0.3233
C29 C -0.0566(8) 0.4991(4) 0.1546(9)
H18 H -0.0872 0.4891 0.0777
H19 H 0.0010 0.5149 0.1422
H20 H -0.0426 0.4728 0.2062
C30 C 0.2329(13) 0.4398(8) 1.1848(16)
H21 H 0.2154 0.4293 1.2616
H22 H 0.2111 0.4709 1.1704
H23 H 0.2048 0.4201 1.1212
C31 C 0.4725(19) 0.3608(6) 0.8571(17)
H24 H 0.4949 0.3296 0.8660
H25 H 0.4200 0.3620 0.7953
H26 H 0.5222 0.3803 0.8342
C32 C 0.3385(9) 0.7606(4) 0.2862(9)
H27 H 0.3182 0.7917 0.2675
H28 H 0.3795 0.7504 0.2279
H29 H 0.2845 0.7406 0.2833
C33 C 0.5956(9) 0.7029(5) 0.7583(11)
H30 H 0.6367 0.7224 0.8104
H31 H 0.5348 0.7015 0.7885
H32 H 0.6220 0.6725 0.7571
loop_
_geom_bond_atom_site_label_1
_geom_bond_atom_site_label_2
_geom_bond_site_symmetry_1
_geom_bond_site_symmetry_2
S1 C1 1_555 1_555
S2 C1 1_555 1_555
S3 C2 1_555 1_555
S4 C2 1_555 1_555
S5 C3 1_555 1_555
S6 C4 1_555 1_555
S7 C5 1_555 1_555
S8 C6 1_555 1_555
S9 C13 1_555 1_555
S10 C13 1_555 1_555
S11 C14 1_555 1_555
S12 C14 1_555 1_555
S13 C15 1_555 1_555
S14 C16 1_555 1_555
S15 C17 1_555 1_555
S16 C18 1_555 1_555
S17 C22 1_555 1_555
S18 C23 1_555 1_555
S19 C24 1_555 1_555
S20 C25 1_555 1_555
C1 C2 1_555 1_555
C3 S1 1_555 1_555
C4 S2 1_555 1_555
C5 S3 1_555 1_555
C6 S4 1_555 1_555
C7 S5 1_555 1_555
C8 S6 1_555 1_555
C9 C8 1_555 1_555
C10 C9 1_555 1_555
H1 C10 1_555 1_555
C11 C10 1_555 1_555
H2 C11 1_555 1_555
C12 C7 1_555 1_555
C13 C9 1_555 1_555
C14 C12 1_555 1_555
C15 S9 1_555 1_555
C16 S10 1_555 1_555
C17 S11 1_555 1_555
C18 S12 1_555 1_555
C19 C11 1_555 1_555
H3 C19 1_555 1_555
C20 C19 1_555 1_555
H4 C20 1_555 1_555
H5 C20 1_555 1_555
C21 C10 1_555 1_555
H6 C21 1_555 1_555
C22 C21 1_555 1_555
H7 C22 1_555 1_555
C23 C19 1_555 1_555
H8 C23 1_555 1_555
C24 S17 1_555 1_555
C25 S18 1_555 1_555
C26 S7 1_555 1_555
H9 C26 1_555 1_555
H10 C26 1_555 1_555
H11 C26 1_555 1_555
C27 S8 1_555 1_555
H12 C27 1_555 1_555
H13 C27 1_555 1_555
H14 C27 1_555 1_555
C28 S13 1_555 1_555
H15 C28 1_555 1_555
H16 C28 1_555 1_555
H17 C28 1_555 1_555
C29 S14 1_555 1_555
H18 C29 1_555 1_555
H19 C29 1_555 1_555
H20 C29 1_555 1_555
C30 S15 1_555 1_555
H21 C30 1_555 1_555
H22 C30 1_555 1_555
H23 C30 1_555 1_555
C31 S16 1_555 1_555
H24 C31 1_555 1_555
H25 C31 1_555 1_555
H26 C31 1_555 1_555
C32 S19 1_555 1_555
H27 C32 1_555 1_555
H28 C32 1_555 1_555
H29 C32 1_555 1_555
C33 S20 1_555 1_555
H30 C33 1_555 1_555
H31 C33 1_555 1_555
H32 C33 1_555 1_555
C3 C4 1_555 1_555
C5 C6 1_555 1_555
C7 C8 1_555 1_555
C11 C12 1_555 1_555
C15 C16 1_555 1_555
C17 C18 1_555 1_555
C20 C21 1_555 1_555
C22 C23 1_555 1_555
C24 C25 1_555 1_555

#END
