
#######################################################################
#
#                 Cambridge Crystallographic Data Centre
#                                CCDC 
#
#######################################################################
#
# If this CIF has been generated from an entry in the Cambridge 
# Structural Database, then it will include bibliographic, chemical, 
# crystal, experimental, refinement or atomic coordinate data resulting 
# from the CCDC's data processing and validation procedures.
#
#######################################################################

data_OFUZOH
_chemical_formula_moiety         'C37 H23 N1 O1'
_chemical_name_systematic        
9-(spiro[fluorene-9,9'-xanthen]-2'-yl)-9H-carbazole
_symmetry_cell_setting           monoclinic
_symmetry_space_group_name_H-M   'P 21/c'
_symmetry_Int_Tables_number      14
_space_group_name_Hall           '-P 2ybc'
loop_
_symmetry_equiv_pos_site_id
_symmetry_equiv_pos_as_xyz
1 x,y,z
2 -x,1/2+y,1/2-z
3 -x,-y,-z
4 x,1/2-y,1/2+z
_cell_length_a                   9.4322(9)
_cell_length_b                   16.5755(16)
_cell_length_c                   16.9196(15)
_cell_angle_alpha                90
_cell_angle_beta                 90.836(3)
_cell_angle_gamma                90
_cell_volume                     2644.99
_exptl_crystal_colour            colorless
_exptl_crystal_description       block
_cell_formula_units_Z            4
loop_
_atom_site_label
_atom_site_type_symbol
_atom_site_fract_x
_atom_site_fract_y
_atom_site_fract_z
O1 O 0.08981(15) 0.75252(8) 0.20069(7)
N1 N 0.47523(17) 0.85644(10) 0.42951(9)
C1 C 0.40002(18) 0.90244(11) 0.12859(10)
C2 C 0.4812(2) 0.83875(14) 0.10309(12)
H1 H 0.4473 0.7861 0.1051
C3 C 0.6141(3) 0.8552(2) 0.07456(17)
H2 H 0.6709 0.8132 0.0569
C4 C 0.6635(3) 0.9332(2) 0.07193(18)
H3 H 0.7545 0.9428 0.0537
C5 C 0.5823(3) 0.99682(18) 0.09543(16)
H4 H 0.6165 1.0493 0.0921
C6 C 0.4471(2) 0.98173(12) 0.12452(11)
C7 C 0.3379(2) 1.03461(11) 0.15686(10)
C8 C 0.3308(3) 1.11781(13) 0.16671(14)
H5 H 0.4029 1.1510 0.1485
C9 C 0.2148(4) 1.15025(14) 0.20393(16)
H6 H 0.2093 1.2058 0.2109
C10 C 0.1076(3) 1.10247(15) 0.23085(13)
H7 H 0.0313 1.1257 0.2566
C11 C 0.1119(2) 1.02058(12) 0.22011(11)
H8 H 0.0383 0.9881 0.2375
C12 C 0.22672(18) 0.98724(10) 0.18321(9)
C13 C 0.25497(16) 0.89818(9) 0.16664(9)
C14 C 0.26548(17) 0.85007(9) 0.24285(9)
C15 C 0.35974(18) 0.87382(10) 0.30228(10)
H9 H 0.4133 0.9203 0.2953
C16 C 0.37603(18) 0.83065(11) 0.37091(10)
C17 C 0.2958(2) 0.76182(12) 0.38223(11)
H10 H 0.3064 0.7318 0.4284
C18 C 0.2005(2) 0.73821(12) 0.32477(11)
H11 H 0.1450 0.6926 0.3325
C19 C 0.18650(18) 0.78191(11) 0.25523(10)
C20 C 0.07233(18) 0.79233(11) 0.12952(10)
C21 C -0.0237(2) 0.75733(12) 0.07677(11)
H12 H -0.0701 0.7099 0.0902
C22 C -0.0497(2) 0.79296(13) 0.00499(11)
H13 H -0.1127 0.7692 -0.0309
C23 C 0.0172(2) 0.86368(13) -0.01391(11)
H14 H -0.0023 0.8889 -0.0620
C24 C 0.1133(2) 0.89726(12) 0.03850(10)
H15 H 0.1590 0.9449 0.0248
C25 C 0.14410(17) 0.86194(10) 0.11160(9)
C26 C 0.6184(2) 0.87226(11) 0.41731(13)
C27 C 0.6960(2) 0.86398(13) 0.34911(16)
H16 H 0.6540 0.8461 0.3022
C28 C 0.8385(3) 0.88328(15) 0.3533(2)
H17 H 0.8938 0.8774 0.3086
C29 C 0.9005(3) 0.91121(17) 0.4228(3)
H18 H 0.9964 0.9243 0.4238
C30 C 0.8230(3) 0.91990(14) 0.4902(2)
H19 H 0.8657 0.9392 0.5364
C31 C 0.6793(2) 0.89956(11) 0.48885(15)
C32 C 0.5686(3) 0.90046(11) 0.54621(13)
C33 C 0.5632(4) 0.92117(15) 0.62595(16)
H20 H 0.6448 0.9371 0.6533
C34 C 0.4364(4) 0.91770(17) 0.66310(17)
H21 H 0.4321 0.9319 0.7162
C35 C 0.3140(3) 0.89369(15) 0.62422(14)
H22 H 0.2291 0.8926 0.6514
C36 C 0.3153(3) 0.87102(13) 0.54521(12)
H23 H 0.2333 0.8543 0.5188
C37 C 0.4439(2) 0.87446(11) 0.50785(11)
loop_
_geom_bond_atom_site_label_1
_geom_bond_atom_site_label_2
_geom_bond_site_symmetry_1
_geom_bond_site_symmetry_2
O1 C19 1_555 1_555
N1 C16 1_555 1_555
C1 C2 1_555 1_555
C2 H1 1_555 1_555
C3 C2 1_555 1_555
H2 C3 1_555 1_555
C4 C3 1_555 1_555
H3 C4 1_555 1_555
C5 C4 1_555 1_555
H4 C5 1_555 1_555
C6 C1 1_555 1_555
C7 C6 1_555 1_555
C8 C7 1_555 1_555
H5 C8 1_555 1_555
C9 C8 1_555 1_555
H6 C9 1_555 1_555
C10 C9 1_555 1_555
H7 C10 1_555 1_555
C11 C10 1_555 1_555
H8 C11 1_555 1_555
C12 C7 1_555 1_555
C13 C1 1_555 1_555
C14 C13 1_555 1_555
C15 C14 1_555 1_555
H9 C15 1_555 1_555
C16 C15 1_555 1_555
C17 C16 1_555 1_555
H10 C17 1_555 1_555
C18 C17 1_555 1_555
H11 C18 1_555 1_555
C19 C14 1_555 1_555
C20 O1 1_555 1_555
C21 C20 1_555 1_555
H12 C21 1_555 1_555
C22 C21 1_555 1_555
H13 C22 1_555 1_555
C23 C22 1_555 1_555
H14 C23 1_555 1_555
C24 C23 1_555 1_555
H15 C24 1_555 1_555
C25 C13 1_555 1_555
C26 N1 1_555 1_555
C27 C26 1_555 1_555
H16 C27 1_555 1_555
C28 C27 1_555 1_555
H17 C28 1_555 1_555
C29 C28 1_555 1_555
H18 C29 1_555 1_555
C30 C29 1_555 1_555
H19 C30 1_555 1_555
C31 C26 1_555 1_555
C32 C31 1_555 1_555
C33 C32 1_555 1_555
H20 C33 1_555 1_555
C34 C33 1_555 1_555
H21 C34 1_555 1_555
C35 C34 1_555 1_555
H22 C35 1_555 1_555
C36 C35 1_555 1_555
H23 C36 1_555 1_555
C37 N1 1_555 1_555
C5 C6 1_555 1_555
C11 C12 1_555 1_555
C12 C13 1_555 1_555
C18 C19 1_555 1_555
C20 C25 1_555 1_555
C24 C25 1_555 1_555
C30 C31 1_555 1_555
C32 C37 1_555 1_555
C36 C37 1_555 1_555

#END
