
#######################################################################
#
#                 Cambridge Crystallographic Data Centre
#                                CCDC 
#
#######################################################################
#
# If this CIF has been generated from an entry in the Cambridge 
# Structural Database, then it will include bibliographic, chemical, 
# crystal, experimental, refinement or atomic coordinate data resulting 
# from the CCDC's data processing and validation procedures.
#
#######################################################################

data_OGABEG
_chemical_formula_moiety         'C25 H30 O1'
_chemical_name_systematic        
2-methyl-2-(3,5,5,8,8-pentamethyl-5,6,7,8-tetrahydronaphthalen-2-yl)-2,3-dihydro-1H-inden-1-one
_symmetry_cell_setting           orthorhombic
_symmetry_space_group_name_H-M   'P 21 21 21'
_symmetry_Int_Tables_number      19
_space_group_name_Hall           'P 2ac 2ab'
loop_
_symmetry_equiv_pos_site_id
_symmetry_equiv_pos_as_xyz
1 x,y,z
2 1/2-x,-y,1/2+z
3 -x,1/2+y,1/2-z
4 1/2+x,1/2-y,-z
_cell_length_a                   8.9558(2)
_cell_length_b                   14.2654(3)
_cell_length_c                   16.3585(4)
_cell_angle_alpha                90
_cell_angle_beta                 90
_cell_angle_gamma                90
_cell_volume                     2089.93
_exptl_crystal_colour            colorless
_exptl_crystal_description       prismatic
_cell_formula_units_Z            4
loop_
_atom_site_label
_atom_site_type_symbol
_atom_site_fract_x
_atom_site_fract_y
_atom_site_fract_z
O1 O 0.3486(2) 0.13421(11) 0.57496(13)
C1 C 0.2482(2) 0.15747(14) 0.61989(14)
C2 C 0.1906(3) 0.10361(15) 0.68983(14)
C3 C 0.2313(3) 0.01379(18) 0.71464(19)
H1 H 0.3053 -0.0195 0.6874
C4 C 0.1582(4) -0.0241(2) 0.7808(2)
H2 H 0.1832 -0.0839 0.7988
C5 C 0.0500(5) 0.0250(3) 0.8201(2)
H3 H 0.0014 -0.0026 0.8643
C6 C 0.0094(4) 0.1148(3) 0.79666(19)
H4 H -0.0642 0.1477 0.8247
C7 C 0.0826(3) 0.15452(18) 0.72937(15)
C8 C 0.0607(3) 0.24965(17) 0.69053(18)
H5 H 0.0986 0.2989 0.7258
H6 H -0.0442 0.2612 0.6798
C9 C 0.1508(2) 0.24516(13) 0.60950(13)
C10 C 0.0454(3) 0.21649(18) 0.53975(19)
H7 H -0.0303 0.2635 0.5330
H8 H -0.0007 0.1576 0.5527
H9 H 0.1014 0.2104 0.4900
C11 C 0.2383(2) 0.33478(13) 0.59106(12)
C12 C 0.3606(2) 0.36267(14) 0.63945(12)
C13 C 0.4290(2) 0.44723(14) 0.62193(13)
H10 H 0.5079 0.4662 0.6550
C14 C 0.3866(2) 0.50611(13) 0.55728(13)
C15 C 0.4724(3) 0.59772(15) 0.54435(17)
C16 C 0.3852(4) 0.66095(19) 0.4857(2)
H11 H 0.3015 0.6884 0.5148
H12 H 0.4495 0.7117 0.4679
C17 C 0.3278(4) 0.6098(2) 0.41222(19)
H13 H 0.4115 0.5820 0.3834
H14 H 0.2808 0.6544 0.3757
C18 C 0.2154(3) 0.53274(14) 0.43310(14)
C19 C 0.2687(2) 0.47707(13) 0.50759(12)
C20 C 0.1966(2) 0.39297(13) 0.52685(12)
H15 H 0.1158 0.3749 0.4948
C21 C 0.4243(3) 0.30434(17) 0.70810(15)
H16 H 0.3446 0.2826 0.7425
H17 H 0.4920 0.3418 0.7398
H18 H 0.4768 0.2516 0.6857
C22 C 0.4890(5) 0.6511(2) 0.6254(2)
H19 H 0.3924 0.6599 0.6496
H20 H 0.5341 0.7110 0.6154
H21 H 0.5510 0.6156 0.6620
C23 C 0.6276(4) 0.5755(2) 0.5115(2)
H22 H 0.6792 0.5358 0.5496
H23 H 0.6825 0.6327 0.5044
H24 H 0.6188 0.5439 0.4599
C24 C 0.2006(3) 0.46866(19) 0.35817(15)
H25 H 0.2934 0.4366 0.3490
H26 H 0.1763 0.5057 0.3110
H27 H 0.1229 0.4236 0.3676
C25 C 0.0610(3) 0.57433(18) 0.45116(18)
H28 H -0.0084 0.5246 0.4621
H29 H 0.0274 0.6097 0.4047
H30 H 0.0672 0.6148 0.4979
loop_
_geom_bond_atom_site_label_1
_geom_bond_atom_site_label_2
_geom_bond_site_symmetry_1
_geom_bond_site_symmetry_2
O1 C1 1_555 1_555
C1 C2 1_555 1_555
C2 C3 1_555 1_555
C3 H1 1_555 1_555
C4 C3 1_555 1_555
H2 C4 1_555 1_555
C5 C4 1_555 1_555
H3 C5 1_555 1_555
C6 C5 1_555 1_555
H4 C6 1_555 1_555
C7 C2 1_555 1_555
C8 C7 1_555 1_555
H5 C8 1_555 1_555
H6 C8 1_555 1_555
C9 C1 1_555 1_555
C10 C9 1_555 1_555
H7 C10 1_555 1_555
H8 C10 1_555 1_555
H9 C10 1_555 1_555
C11 C9 1_555 1_555
C12 C11 1_555 1_555
C13 C12 1_555 1_555
H10 C13 1_555 1_555
C14 C13 1_555 1_555
C15 C14 1_555 1_555
C16 C15 1_555 1_555
H11 C16 1_555 1_555
H12 C16 1_555 1_555
C17 C16 1_555 1_555
H13 C17 1_555 1_555
H14 C17 1_555 1_555
C18 C17 1_555 1_555
C19 C14 1_555 1_555
C20 C11 1_555 1_555
H15 C20 1_555 1_555
C21 C12 1_555 1_555
H16 C21 1_555 1_555
H17 C21 1_555 1_555
H18 C21 1_555 1_555
C22 C15 1_555 1_555
H19 C22 1_555 1_555
H20 C22 1_555 1_555
H21 C22 1_555 1_555
C23 C15 1_555 1_555
H22 C23 1_555 1_555
H23 C23 1_555 1_555
H24 C23 1_555 1_555
C24 C18 1_555 1_555
H25 C24 1_555 1_555
H26 C24 1_555 1_555
H27 C24 1_555 1_555
C25 C18 1_555 1_555
H28 C25 1_555 1_555
H29 C25 1_555 1_555
H30 C25 1_555 1_555
C6 C7 1_555 1_555
C8 C9 1_555 1_555
C18 C19 1_555 1_555
C19 C20 1_555 1_555

#END
