
#######################################################################
#
#                 Cambridge Crystallographic Data Centre
#                                CCDC 
#
#######################################################################
#
# If this CIF has been generated from an entry in the Cambridge 
# Structural Database, then it will include bibliographic, chemical, 
# crystal, experimental, refinement or atomic coordinate data resulting 
# from the CCDC's data processing and validation procedures.
#
#######################################################################

data_OGABAB
_chemical_formula_moiety         'C30 H28 S1 Si2'
_chemical_name_systematic        
(Anthra[2,3-b]benzo[d]thiene-7,12-diyldiethyne-2,1-diyl)bis(trimethylsilane)
_symmetry_cell_setting           triclinic
_symmetry_space_group_name_H-M   'P -1'
_symmetry_Int_Tables_number      2
_space_group_name_Hall           '-P 1'
loop_
_symmetry_equiv_pos_site_id
_symmetry_equiv_pos_as_xyz
1 x,y,z
2 -x,-y,-z
_cell_length_a                   7.2587(15)
_cell_length_b                   13.877(3)
_cell_length_c                   13.896(3)
_cell_angle_alpha                75.68(3)
_cell_angle_beta                 87.39(3)
_cell_angle_gamma                78.99(3)
_cell_volume                     1331.27
_exptl_crystal_colour            red
_exptl_crystal_description       rod
_cell_formula_units_Z            2
loop_
_atom_site_label
_atom_site_type_symbol
_atom_site_fract_x
_atom_site_fract_y
_atom_site_fract_z
S1 S 0.17446(10) 0.49941(5) 0.80607(5)
Si1 Si 0.15821(11) 0.98786(6) 0.69366(5)
Si2 Si 0.35537(13) 0.36996(6) 1.43972(6)
C1 C 0.1782(3) 0.37852(19) 0.8850(2)
C2 C 0.1448(4) 0.2941(2) 0.8563(2)
H1 H 0.1178 0.2978 0.7891
C3 C 0.1522(4) 0.2047(2) 0.9285(2)
H2 H 0.1308 0.1461 0.9104
C4 C 0.1905(4) 0.1990(2) 1.0275(2)
H3 H 0.1941 0.1370 1.0759
C5 C 0.2231(4) 0.28309(19) 1.0554(2)
H4 H 0.2494 0.2790 1.1228
C6 C 0.2170(3) 0.37397(19) 0.98412(19)
C7 C 0.2436(3) 0.47141(18) 0.99712(19)
C8 C 0.2793(3) 0.49662(18) 1.08224(19)
H5 H 0.2920 0.4464 1.1432
C9 C 0.2978(3) 0.59700(18) 1.08100(18)
C10 C 0.3299(3) 0.62437(18) 1.16962(18)
C11 C 0.3531(3) 0.72361(18) 1.16732(19)
C12 C 0.3919(4) 0.7514(2) 1.25490(19)
H6 H 0.4009 0.7026 1.3168
C13 C 0.4164(4) 0.8471(2) 1.2515(2)
H7 H 0.4435 0.8642 1.3108
C14 C 0.4018(4) 0.92077(19) 1.1605(2)
H8 H 0.4200 0.9871 1.1589
C15 C 0.3620(4) 0.89792(19) 1.0754(2)
H9 H 0.3502 0.9489 1.0150
C16 C 0.3374(3) 0.79852(18) 1.07504(19)
C17 C 0.2983(3) 0.77240(18) 0.98729(18)
C18 C 0.2812(3) 0.67221(18) 0.98796(18)
C19 C 0.2444(3) 0.64416(19) 0.90018(18)
H10 H 0.2329 0.6928 0.8382
C20 C 0.2256(3) 0.54686(19) 0.90512(19)
C21 C 0.2673(4) 0.84833(19) 0.89553(19)
C22 C 0.2316(4) 0.9087(2) 0.8173(2)
C23 C -0.0472(5) 0.9427(3) 0.6562(3)
H11 H -0.0987 0.9877 0.5935
H12 H -0.1437 0.9429 0.7079
H13 H -0.0072 0.8738 0.6476
C24 C 0.3581(5) 0.9713(3) 0.6075(2)
H14 H 0.3826 0.9016 0.5999
H15 H 0.4700 0.9852 0.6344
H16 H 0.3272 1.0183 0.5426
C25 C 0.0928(4) 1.1222(2) 0.6979(2)
H17 H 0.0477 1.1632 0.6323
H18 H 0.2027 1.1451 0.7164
H19 H -0.0068 1.1294 0.7470
C26 C 0.3360(4) 0.55007(19) 1.26236(19)
C27 C 0.3397(4) 0.4844(2) 1.3381(2)
C28 C 0.2279(7) 0.2837(3) 1.3981(3)
H20 H 0.0955 0.3155 1.3870
H21 H 0.2378 0.2200 1.4491
H22 H 0.2832 0.2700 1.3360
C29 C 0.6087(5) 0.3123(3) 1.4592(3)
H23 H 0.6214 0.2471 1.5082
H24 H 0.6732 0.3577 1.4835
H25 H 0.6647 0.3019 1.3962
C30 C 0.2483(5) 0.4006(3) 1.5549(2)
H26 H 0.1168 0.4335 1.5421
H27 H 0.3168 0.4464 1.5759
H28 H 0.2549 0.3382 1.6074
loop_
_geom_bond_atom_site_label_1
_geom_bond_atom_site_label_2
_geom_bond_site_symmetry_1
_geom_bond_site_symmetry_2
S1 C1 1_555 1_555
Si1 C22 1_555 1_555
Si2 C27 1_555 1_555
C1 C2 1_555 1_555
C2 H1 1_555 1_555
C3 C2 1_555 1_555
H2 C3 1_555 1_555
C4 C3 1_555 1_555
H3 C4 1_555 1_555
C5 C4 1_555 1_555
H4 C5 1_555 1_555
C6 C1 1_555 1_555
C7 C6 1_555 1_555
C8 C7 1_555 1_555
H5 C8 1_555 1_555
C9 C8 1_555 1_555
C10 C9 1_555 1_555
C11 C10 1_555 1_555
C12 C11 1_555 1_555
H6 C12 1_555 1_555
C13 C12 1_555 1_555
H7 C13 1_555 1_555
C14 C13 1_555 1_555
H8 C14 1_555 1_555
C15 C14 1_555 1_555
H9 C15 1_555 1_555
C16 C11 1_555 1_555
C17 C16 1_555 1_555
C18 C9 1_555 1_555
C19 C18 1_555 1_555
H10 C19 1_555 1_555
C20 S1 1_555 1_555
C21 C17 1_555 1_555
C22 C21 1_555 1_555
C23 Si1 1_555 1_555
H11 C23 1_555 1_555
H12 C23 1_555 1_555
H13 C23 1_555 1_555
C24 Si1 1_555 1_555
H14 C24 1_555 1_555
H15 C24 1_555 1_555
H16 C24 1_555 1_555
C25 Si1 1_555 1_555
H17 C25 1_555 1_555
H18 C25 1_555 1_555
H19 C25 1_555 1_555
C26 C10 1_555 1_555
C27 C26 1_555 1_555
C28 Si2 1_555 1_555
H20 C28 1_555 1_555
H21 C28 1_555 1_555
H22 C28 1_555 1_555
C29 Si2 1_555 1_555
H23 C29 1_555 1_555
H24 C29 1_555 1_555
H25 C29 1_555 1_555
C30 Si2 1_555 1_555
H26 C30 1_555 1_555
H27 C30 1_555 1_555
H28 C30 1_555 1_555
C5 C6 1_555 1_555
C7 C20 1_555 1_555
C15 C16 1_555 1_555
C17 C18 1_555 1_555
C19 C20 1_555 1_555

#END
