
#######################################################################
#
#                 Cambridge Crystallographic Data Centre
#                                CCDC 
#
#######################################################################
#
# If this CIF has been generated from an entry in the Cambridge 
# Structural Database, then it will include bibliographic, chemical, 
# crystal, experimental, refinement or atomic coordinate data resulting 
# from the CCDC's data processing and validation procedures.
#
#######################################################################

data_OGACOR
_chemical_formula_moiety         'C27 H31 N1 O4'
_chemical_name_systematic        
'diethyl 1,3-dimethyl-5,8-diphenyl-2-azabicyclo[4.2.0]oct-3-ene-4,6-dicarboxylate'
_symmetry_cell_setting           monoclinic
_symmetry_space_group_name_H-M   'C c'
_symmetry_Int_Tables_number      9
_space_group_name_Hall           'C -2yc'
loop_
_symmetry_equiv_pos_site_id
_symmetry_equiv_pos_as_xyz
1 x,y,z
2 x,-y,1/2+z
3 1/2+x,1/2+y,z
4 1/2+x,1/2-y,1/2+z
_cell_length_a                   12.1961(13)
_cell_length_b                   9.8018(11)
_cell_length_c                   19.978(2)
_cell_angle_alpha                90
_cell_angle_beta                 97.063(11)
_cell_angle_gamma                90
_cell_volume                     2370.12
_exptl_crystal_colour            colorless
_exptl_crystal_description       block
_cell_formula_units_Z            4
loop_
_atom_site_label
_atom_site_type_symbol
_atom_site_fract_x
_atom_site_fract_y
_atom_site_fract_z
O1 O 0.4435(4) -0.2144(4) 0.0775(2)
O2 O 0.3276(3) -0.3602(4) 0.0241(2)
O3 O -0.0220(3) -0.1489(4) -0.07141(18)
O4 O -0.0063(3) -0.0023(4) -0.15501(18)
N1 N 0.3143(3) 0.0921(4) -0.06364(19)
H1 H 0.3413 0.1726 -0.0665
C1 C 0.5676(4) 0.0688(7) -0.1435(3)
H2 H 0.6147 0.0747 -0.1033
C2 C 0.5919(5) 0.1415(7) -0.1982(3)
H3 H 0.6551 0.1954 -0.1943
C3 C 0.5262(5) 0.1368(8) -0.2578(3)
H4 H 0.5436 0.1868 -0.2946
C4 C 0.4337(6) 0.0571(9) -0.2627(3)
H5 H 0.3869 0.0543 -0.3031
C5 C 0.4083(5) -0.0202(7) -0.2081(3)
H6 H 0.3465 -0.0766 -0.2129
C6 C 0.4748(4) -0.0133(5) -0.1464(3)
C7 C 0.4478(4) -0.0874(5) -0.0855(2)
H7 H 0.5152 -0.1297 -0.0630
C8 C 0.3880(3) -0.0095(5) -0.0313(2)
C9 C 0.3218(4) -0.1425(5) -0.0219(2)
C10 C 0.3530(4) -0.1933(5) -0.0905(2)
H8 H 0.2960 -0.1776 -0.1280
H9 H 0.3782 -0.2872 -0.0897
C11 C 0.1980(4) -0.1253(5) -0.0164(2)
H10 H 0.1635 -0.2151 -0.0245
C12 C 0.1464(3) -0.0314(5) -0.0713(2)
C13 C 0.2064(4) 0.0758(5) -0.0903(2)
C14 C 0.4617(4) 0.0601(6) 0.0251(3)
H11 H 0.4199 0.0798 0.0616
H12 H 0.4897 0.1436 0.0087
H13 H 0.5223 0.0010 0.0407
C15 C 0.3741(4) -0.2379(5) 0.0326(3)
C16 C 0.3695(5) -0.4671(6) 0.0705(4)
H14 H 0.3695 -0.4364 0.1166
H15 H 0.4447 -0.4899 0.0637
C17 C 0.2984(6) -0.5870(7) 0.0580(4)
H16 H 0.3311 -0.6629 0.0834
H17 H 0.2904 -0.6088 0.0108
H18 H 0.2271 -0.5679 0.0715
C18 C 0.1777(4) -0.0808(5) 0.0539(2)
C19 C 0.1504(4) -0.1770(6) 0.1004(2)
H19 H 0.1453 -0.2685 0.0881
C20 C 0.1307(5) -0.1384(7) 0.1651(3)
H20 H 0.1113 -0.2037 0.1953
C21 C 0.1399(5) -0.0051(7) 0.1838(3)
H21 H 0.1270 0.0209 0.2270
C22 C 0.1681(4) 0.0904(6) 0.1392(3)
H22 H 0.1756 0.1812 0.1524
C23 C 0.1857(4) 0.0533(6) 0.0746(3)
H23 H 0.2032 0.1200 0.0446
C24 C 0.0335(4) -0.0660(5) -0.0975(2)
C25 C -0.1166(4) -0.0392(7) -0.1834(3)
H24 H -0.1688 -0.0172 -0.1521
H25 H -0.1207 -0.1364 -0.1926
C26 C -0.1431(6) 0.0385(11) -0.2466(3)
H26 H -0.1334 0.1342 -0.2375
H27 H -0.2184 0.0213 -0.2649
H28 H -0.0948 0.0105 -0.2786
C27 C 0.1662(4) 0.1873(6) -0.1374(3)
H29 H 0.1850 0.1671 -0.1817
H30 H 0.2001 0.2718 -0.1219
H31 H 0.0874 0.1951 -0.1392
loop_
_geom_bond_atom_site_label_1
_geom_bond_atom_site_label_2
_geom_bond_site_symmetry_1
_geom_bond_site_symmetry_2
O1 C15 1_555 1_555
O2 C15 1_555 1_555
O3 C24 1_555 1_555
O4 C24 1_555 1_555
N1 H1 1_555 1_555
C1 H2 1_555 1_555
C2 C1 1_555 1_555
H3 C2 1_555 1_555
C3 C2 1_555 1_555
H4 C3 1_555 1_555
C4 C3 1_555 1_555
H5 C4 1_555 1_555
C5 C4 1_555 1_555
H6 C5 1_555 1_555
C6 C1 1_555 1_555
C7 C6 1_555 1_555
H7 C7 1_555 1_555
C8 N1 1_555 1_555
C9 C8 1_555 1_555
C10 C7 1_555 1_555
H8 C10 1_555 1_555
H9 C10 1_555 1_555
C11 C9 1_555 1_555
H10 C11 1_555 1_555
C12 C11 1_555 1_555
C13 N1 1_555 1_555
C14 C8 1_555 1_555
H11 C14 1_555 1_555
H12 C14 1_555 1_555
H13 C14 1_555 1_555
C15 C9 1_555 1_555
C16 O2 1_555 1_555
H14 C16 1_555 1_555
H15 C16 1_555 1_555
C17 C16 1_555 1_555
H16 C17 1_555 1_555
H17 C17 1_555 1_555
H18 C17 1_555 1_555
C18 C11 1_555 1_555
C19 C18 1_555 1_555
H19 C19 1_555 1_555
C20 C19 1_555 1_555
H20 C20 1_555 1_555
C21 C20 1_555 1_555
H21 C21 1_555 1_555
C22 C21 1_555 1_555
H22 C22 1_555 1_555
C23 C18 1_555 1_555
H23 C23 1_555 1_555
C24 C12 1_555 1_555
C25 O4 1_555 1_555
H24 C25 1_555 1_555
H25 C25 1_555 1_555
C26 C25 1_555 1_555
H26 C26 1_555 1_555
H27 C26 1_555 1_555
H28 C26 1_555 1_555
C27 C13 1_555 1_555
H29 C27 1_555 1_555
H30 C27 1_555 1_555
H31 C27 1_555 1_555
C5 C6 1_555 1_555
C7 C8 1_555 1_555
C9 C10 1_555 1_555
C12 C13 1_555 1_555
C22 C23 1_555 1_555

#END
