
#######################################################################
#
#                 Cambridge Crystallographic Data Centre
#                                CCDC 
#
#######################################################################
#
# If this CIF has been generated from an entry in the Cambridge 
# Structural Database, then it will include bibliographic, chemical, 
# crystal, experimental, refinement or atomic coordinate data resulting 
# from the CCDC's data processing and validation procedures.
#
#######################################################################

data_OGADEI
_chemical_formula_moiety         'C31 H37 N1 O4'
_chemical_name_systematic        
"diethyl 4,6-dimethyl-2-phenyl-6',7',8',9'-tetrahydro-1H-spiro[5-azabicyclo[4.2.0]oct-3-ene-7,5'-benzo[7]annulene]-1,3-dicarboxylate"
_symmetry_cell_setting           monoclinic
_symmetry_space_group_name_H-M   'P 21'
_symmetry_Int_Tables_number      4
_space_group_name_Hall           'P 2yb'
loop_
_symmetry_equiv_pos_site_id
_symmetry_equiv_pos_as_xyz
1 x,y,z
2 -x,1/2+y,-z
_cell_length_a                   7.4590(6)
_cell_length_b                   15.3140(13)
_cell_length_c                   11.5062(13)
_cell_angle_alpha                90
_cell_angle_beta                 91.057(8)
_cell_angle_gamma                90
_cell_volume                     1314.1
_exptl_crystal_colour            colorless
_exptl_crystal_description       block
_cell_formula_units_Z            2
loop_
_atom_site_label
_atom_site_type_symbol
_atom_site_fract_x
_atom_site_fract_y
_atom_site_fract_z
O1 O 0.3167(8) 0.6350(3) 0.2610(6)
O2 O 0.5947(6) 0.6679(3) 0.2054(4)
O3 O 0.8598(5) 0.9861(4) 0.2482(4)
O4 O 0.6674(6) 1.0222(3) 0.1030(5)
N1 N 0.2292(7) 0.9130(4) 0.2577(5)
H1 H 0.119033 0.932784 0.248917
C1 C 0.2622(10) 0.9028(5) 0.5438(7)
H2 H 0.360268 0.863710 0.536153
C2 C 0.1215(14) 0.8789(8) 0.6167(7)
H3 H 0.122347 0.823922 0.654967
C3 C 0.0793(9) 0.7780(5) 0.2951(7)
H4 H 0.033899 0.745145 0.227603
H5 H -0.010787 0.820699 0.318687
H6 H 0.104216 0.737588 0.359464
C4 C -0.0195(13) 0.9372(8) 0.6318(7)
H7 H -0.115071 0.923147 0.681898
C5 C -0.0183(10) 1.0143(9) 0.5741(7)
H8 H -0.114930 1.053761 0.584857
C6 C 0.1224(9) 1.0391(6) 0.4974(6)
C7 C 0.2648(8) 0.9810(5) 0.4822(5)
C8 C 0.4169(8) 0.9994(4) 0.3985(6)
C9 C 0.5136(9) 1.0866(5) 0.4265(8)
H9 H 0.560280 1.081733 0.507336
H10 H 0.619378 1.089176 0.375916
C10 C 0.4225(12) 1.1740(5) 0.4170(9)
H11 H 0.511446 1.218925 0.440684
H12 H 0.393469 1.184088 0.333804
C11 C 0.2574(11) 1.1907(6) 0.4829(8)
H13 H 0.218348 1.251830 0.470805
H14 H 0.282085 1.182131 0.566994
C12 C 0.1090(11) 1.1287(6) 0.4427(7)
H15 H -0.008474 1.154668 0.461715
H16 H 0.113445 1.122571 0.357126
C13 C 0.3706(8) 0.9781(4) 0.2641(6)
C14 C 0.5567(8) 0.9323(4) 0.2556(5)
C15 C 0.5674(8) 0.9289(4) 0.3898(5)
H17 H 0.684421 0.948327 0.422527
H18 H 0.533136 0.871564 0.422381
C16 C 0.2486(8) 0.8246(4) 0.2637(5)
C17 C 0.4078(8) 0.7850(4) 0.2383(6)
C18 C 0.5632(8) 0.8396(4) 0.1978(5)
H19 H 0.674855 0.810680 0.227902
C19 C 0.3214(9) 1.0510(5) 0.1792(6)
H20 H 0.202304 1.073735 0.197168
H21 H 0.320412 1.028028 0.099666
H22 H 0.409926 1.098092 0.186075
C20 C 0.4272(9) 0.6904(4) 0.2391(6)
C21 C 0.6336(10) 0.5763(5) 0.1930(7)
H23 H 0.544000 0.548419 0.140345
H24 H 0.629808 0.546840 0.269483
C22 C 0.8160(10) 0.5691(5) 0.1436(7)
H25 H 0.905781 0.585641 0.202895
H26 H 0.825267 0.608095 0.076520
H27 H 0.837188 0.508737 0.119060
C23 C 0.5755(9) 0.8408(4) 0.0664(5)
C24 C 0.7402(11) 0.8242(6) 0.0146(7)
H28 H 0.843553 0.811964 0.061336
C25 C 0.7512(14) 0.8258(7) -0.1064(8)
H29 H 0.863181 0.815212 -0.141916
C26 C 0.6039(15) 0.8423(6) -0.1741(8)
H30 H 0.613635 0.841999 -0.256295
C27 C 0.4429(12) 0.8592(5) -0.1256(6)
H31 H 0.341709 0.873055 -0.173413
C28 C 0.4269(10) 0.8560(4) -0.0041(6)
H32 H 0.313044 0.864374 0.029817
C29 C 0.7130(8) 0.9837(4) 0.2055(6)
C30 C 0.8142(10) 1.0652(6) 0.0406(8)
H33 H 0.929501 1.036296 0.060537
H34 H 0.793214 1.059786 -0.044288
C31 C 0.8232(18) 1.1572(7) 0.0728(15)
H35 H 0.883306 1.163034 0.148910
H36 H 0.701532 1.181019 0.076804
H37 H 0.890814 1.189373 0.014494
loop_
_geom_bond_atom_site_label_1
_geom_bond_atom_site_label_2
_geom_bond_site_symmetry_1
_geom_bond_site_symmetry_2
O1 C20 1_555 1_555
O2 C20 1_555 1_555
O3 C29 1_555 1_555
O4 C29 1_555 1_555
N1 H1 1_555 1_555
C1 H2 1_555 1_555
C2 C1 1_555 1_555
H3 C2 1_555 1_555
C3 H4 1_555 1_555
H5 C3 1_555 1_555
H6 C3 1_555 1_555
C4 C2 1_555 1_555
H7 C4 1_555 1_555
C5 C4 1_555 1_555
H8 C5 1_555 1_555
C6 C5 1_555 1_555
C7 C1 1_555 1_555
C8 C7 1_555 1_555
C9 C8 1_555 1_555
H9 C9 1_555 1_555
H10 C9 1_555 1_555
C10 C9 1_555 1_555
H11 C10 1_555 1_555
H12 C10 1_555 1_555
C11 C10 1_555 1_555
H13 C11 1_555 1_555
H14 C11 1_555 1_555
C12 C6 1_555 1_555
H15 C12 1_555 1_555
H16 C12 1_555 1_555
C13 N1 1_555 1_555
C14 C13 1_555 1_555
C15 C8 1_555 1_555
H17 C15 1_555 1_555
H18 C15 1_555 1_555
C16 N1 1_555 1_555
C17 C16 1_555 1_555
C18 C14 1_555 1_555
H19 C18 1_555 1_555
C19 C13 1_555 1_555
H20 C19 1_555 1_555
H21 C19 1_555 1_555
H22 C19 1_555 1_555
C20 C17 1_555 1_555
C21 O2 1_555 1_555
H23 C21 1_555 1_555
H24 C21 1_555 1_555
C22 C21 1_555 1_555
H25 C22 1_555 1_555
H26 C22 1_555 1_555
H27 C22 1_555 1_555
C23 C18 1_555 1_555
C24 C23 1_555 1_555
H28 C24 1_555 1_555
C25 C24 1_555 1_555
H29 C25 1_555 1_555
C26 C25 1_555 1_555
H30 C26 1_555 1_555
C27 C26 1_555 1_555
H31 C27 1_555 1_555
C28 C23 1_555 1_555
H32 C28 1_555 1_555
C29 C14 1_555 1_555
C30 O4 1_555 1_555
H33 C30 1_555 1_555
H34 C30 1_555 1_555
C31 C30 1_555 1_555
H35 C31 1_555 1_555
H36 C31 1_555 1_555
H37 C31 1_555 1_555
C3 C16 1_555 1_555
C6 C7 1_555 1_555
C8 C13 1_555 1_555
C11 C12 1_555 1_555
C14 C15 1_555 1_555
C17 C18 1_555 1_555
C27 C28 1_555 1_555

#END
