
#######################################################################
#
#                 Cambridge Crystallographic Data Centre
#                                CCDC 
#
#######################################################################
#
# If this CIF has been generated from an entry in the Cambridge 
# Structural Database, then it will include bibliographic, chemical, 
# crystal, experimental, refinement or atomic coordinate data resulting 
# from the CCDC's data processing and validation procedures.
#
#######################################################################

data_OGADAE
_chemical_formula_moiety         'C28 H23 N1 O3 S1'
_chemical_name_systematic        
10-(benzenecarbonyl)-2-benzyl-2-methyl-3a,3b,10,10a-tetrahydro-1H-cyclopenta[3,4]pyrrolo[2,1-b][1,3]benzothiazole-1,3(2H)-dione
_symmetry_cell_setting           monoclinic
_symmetry_space_group_name_H-M   'P 21/n'
_symmetry_Int_Tables_number      14
_space_group_name_Hall           '-P 2yn'
loop_
_symmetry_equiv_pos_site_id
_symmetry_equiv_pos_as_xyz
1 x,y,z
2 1/2-x,1/2+y,1/2-z
3 -x,-y,-z
4 1/2+x,1/2-y,1/2+z
_cell_length_a                   13.433(1)
_cell_length_b                   8.4143(6)
_cell_length_c                   20.1570(14)
_cell_angle_alpha                90
_cell_angle_beta                 90.984(7)
_cell_angle_gamma                90
_cell_volume                     2278
_cell_formula_units_Z            4
loop_
_atom_site_label
_atom_site_type_symbol
_atom_site_fract_x
_atom_site_fract_y
_atom_site_fract_z
S1 S 0.60269(11) 0.45968(14) 0.31652(6)
O1 O 0.4729(3) 0.5872(4) 0.19345(17)
O2 O 0.4016(2) 1.0466(3) 0.31412(15)
N1 N 0.6058(2) 0.7442(4) 0.37126(14)
O3 O 0.7466(2) 1.0371(5) 0.32005(15)
C1 C 0.5977(3) 0.9151(4) 0.35851(17)
C2 C 0.4458(3) 0.9477(4) 0.28324(18)
C3 C 0.7442(3) 1.0036(4) 0.43621(17)
C4 C 0.5592(3) 0.9293(4) 0.28571(17)
C5 C 0.4527(3) 0.9975(5) 0.13841(19)
C6 C 0.5186(3) 0.6654(4) 0.39567(19)
C7 C 0.7016(3) 0.9910(5) 0.36795(18)
C8 C 0.5824(3) 0.7695(5) 0.25188(18)
C9 C 0.3990(3) 0.8264(5) 0.23721(19)
C10 C 0.6350(3) 0.6681(5) 0.30819(18)
C11 C 0.4827(3) 0.7086(5) 0.22407(19)
C12 C 0.5076(3) 0.5110(5) 0.3716(2)
C13 C 0.6972(3) 0.9419(5) 0.49180(19)
C14 C 0.8370(3) 1.0809(5) 0.4443(2)
C15 C 0.4771(3) 1.1537(5) 0.1572(2)
C16 C 0.3680(3) 0.9096(5) 0.1707(2)
C17 C 0.7419(3) 0.9570(5) 0.55441(19)
C18 C 0.4523(3) 0.7264(5) 0.4410(2)
C19 C 0.8799(3) 1.0955(6) 0.5065(2)
C20 C 0.8318(4) 1.0334(5) 0.5622(2)
C21 C 0.5121(3) 0.9215(5) 0.0922(2)
C22 C 0.4297(4) 0.4152(6) 0.3926(3)
C23 C 0.3748(4) 0.6287(6) 0.4625(2)
C24 C 0.5607(4) 1.2283(6) 0.1316(2)
C25 C 0.3064(3) 0.7475(7) 0.2675(3)
C26 C 0.6196(4) 1.1489(6) 0.0873(3)
C27 C 0.5948(4) 0.9957(6) 0.0669(3)
C28 C 0.3640(4) 0.4762(6) 0.4385(3)
loop_
_geom_bond_atom_site_label_1
_geom_bond_atom_site_label_2
_geom_bond_site_symmetry_1
_geom_bond_site_symmetry_2
S1 C10 1_555 1_555
O1 C11 1_555 1_555
O2 C2 1_555 1_555
N1 C1 1_555 1_555
O3 C7 1_555 1_555
C1 C4 1_555 1_555
C2 C4 1_555 1_555
C3 C7 1_555 1_555
C4 C8 1_555 1_555
C5 C15 1_555 1_555
C6 N1 1_555 1_555
C7 C1 1_555 1_555
C8 C10 1_555 1_555
C9 C2 1_555 1_555
C10 N1 1_555 1_555
C11 C8 1_555 1_555
C12 S1 1_555 1_555
C13 C3 1_555 1_555
C14 C3 1_555 1_555
C15 C24 1_555 1_555
C16 C5 1_555 1_555
C17 C13 1_555 1_555
C18 C6 1_555 1_555
C19 C14 1_555 1_555
C20 C17 1_555 1_555
C21 C5 1_555 1_555
C22 C12 1_555 1_555
C23 C18 1_555 1_555
C24 C26 1_555 1_555
C25 C9 1_555 1_555
C26 C27 1_555 1_555
C27 C21 1_555 1_555
C28 C22 1_555 1_555
C6 C12 1_555 1_555
C9 C11 1_555 1_555
C9 C16 1_555 1_555
C19 C20 1_555 1_555
C23 C28 1_555 1_555

#END
