
#######################################################################
#
#                 Cambridge Crystallographic Data Centre
#                                CCDC 
#
#######################################################################
#
# If this CIF has been generated from an entry in the Cambridge 
# Structural Database, then it will include bibliographic, chemical, 
# crystal, experimental, refinement or atomic coordinate data resulting 
# from the CCDC's data processing and validation procedures.
#
#######################################################################

data_OGADOS
_chemical_formula_moiety         'C24 H30 N4 O2'
_chemical_name_systematic        
3-[1-(pyrimidin-2-yl)-1H-indol-2-yl]-2-[(2,2,6,6-tetramethylpiperidin-1-yl)oxy]propanal
_symmetry_cell_setting           tetragonal
_symmetry_space_group_name_H-M   'I -4'
_symmetry_Int_Tables_number      82
_space_group_name_Hall           'I -4'
loop_
_symmetry_equiv_pos_site_id
_symmetry_equiv_pos_as_xyz
1 x,y,z
2 y,-x,-z
3 -x,-y,z
4 -y,x,-z
5 1/2+x,1/2+y,1/2+z
6 1/2+y,1/2-x,1/2-z
7 1/2-x,1/2-y,1/2+z
8 1/2-y,1/2+x,1/2-z
_cell_length_a                   17.5556(5)
_cell_length_b                   17.5556(5)
_cell_length_c                   14.1220(7)
_cell_angle_alpha                90
_cell_angle_beta                 90
_cell_angle_gamma                90
_cell_volume                     4352.39
_exptl_crystal_colour            colorless
_exptl_crystal_description       block
_cell_formula_units_Z            8
loop_
_atom_site_label
_atom_site_type_symbol
_atom_site_fract_x
_atom_site_fract_y
_atom_site_fract_z
O1 O -0.54868(11) -0.36715(11) -0.22165(15)
N1 N -0.55962(14) -0.30038(14) -0.28212(18)
O2 O -0.67213(13) -0.49082(13) -0.33478(16)
C1 C -0.85749(18) -0.60749(19) -0.1116(2)
H1 H -0.899766 -0.573768 -0.109275
C2 C -0.65253(18) -0.58438(17) -0.1064(2)
H2 H -0.601773 -0.603075 -0.104572
N2 N -0.75373(14) -0.50538(14) -0.10944(19)
C3 C -0.79751(17) -0.43807(18) -0.1164(2)
C4 C -0.55627(17) -0.23219(17) -0.2186(2)
C5 C -0.71994(17) -0.63001(17) -0.1102(2)
C6 C -0.78231(18) -0.57999(18) -0.1116(2)
N3 N -0.86631(15) -0.44574(16) -0.1558(2)
C7 C -0.67322(16) -0.50997(18) -0.1058(2)
C8 C -0.5629(2) -0.16183(19) -0.2827(3)
H3 H -0.615131 -0.159780 -0.309140
H4 H -0.555407 -0.115556 -0.243743
C9 C -0.61828(16) -0.40976(17) -0.2140(2)
H5 H -0.663320 -0.375794 -0.223862
N4 N -0.76569(15) -0.37489(16) -0.0839(2)
C10 C -0.61936(17) -0.44400(17) -0.1142(2)
H6 H -0.567355 -0.461201 -0.097581
H7 H -0.634383 -0.404065 -0.068407
C11 C -0.61870(18) -0.47459(17) -0.2851(2)
H8 H -0.573793 -0.504433 -0.290798
C12 C -0.8073(2) -0.31112(19) -0.0951(2)
H9 H -0.786552 -0.264009 -0.074423
C13 C -0.90644(19) -0.3815(2) -0.1638(2)
H10 H -0.956170 -0.384084 -0.190169
C14 C -0.62743(19) -0.23454(18) -0.1555(3)
H11 H -0.672861 -0.240398 -0.195152
H12 H -0.631121 -0.187031 -0.119335
H13 H -0.623747 -0.277682 -0.111690
C15 C -0.4860(2) -0.2271(2) -0.1538(3)
H14 H -0.479033 -0.275671 -0.120770
H15 H -0.493525 -0.186322 -0.107353
H16 H -0.440808 -0.216038 -0.192102
C16 C -0.8787(2) -0.3114(2) -0.1354(2)
H17 H -0.907322 -0.265911 -0.143263
C17 C -0.41947(19) -0.31630(19) -0.3342(3)
H18 H -0.398772 -0.267495 -0.312442
H19 H -0.390575 -0.333920 -0.389379
H20 H -0.415427 -0.353985 -0.283241
C18 C -0.8675(2) -0.6859(2) -0.1151(2)
H21 H -0.917785 -0.705951 -0.116383
C19 C -0.5063(2) -0.1608(2) -0.3638(3)
H22 H -0.453808 -0.156937 -0.338525
H23 H -0.515802 -0.115964 -0.404665
C20 C -0.7323(2) -0.70885(19) -0.1138(2)
H24 H -0.690484 -0.743166 -0.114107
C21 C -0.8059(2) -0.73591(19) -0.1169(3)
H25 H -0.814748 -0.789225 -0.120231
C22 C -0.51458(19) -0.2335(2) -0.4214(3)
H26 H -0.476459 -0.233223 -0.473046
H27 H -0.565779 -0.234463 -0.450729
C23 C -0.52769(19) -0.3731(2) -0.4235(2)
H28 H -0.512546 -0.420822 -0.392861
H29 H -0.502721 -0.369130 -0.485398
H30 H -0.583082 -0.372449 -0.432062
C24 C -0.50393(18) -0.30606(19) -0.3618(2)
loop_
_geom_bond_atom_site_label_1
_geom_bond_atom_site_label_2
_geom_bond_site_symmetry_1
_geom_bond_site_symmetry_2
O1 N1 1_555 1_555
N1 C4 1_555 1_555
O2 C11 1_555 1_555
C1 H1 1_555 1_555
C2 H2 1_555 1_555
N2 C3 1_555 1_555
C3 N3 1_555 1_555
C4 C8 1_555 1_555
C5 C2 1_555 1_555
C6 C1 1_555 1_555
N3 C13 1_555 1_555
C7 C2 1_555 1_555
C8 H3 1_555 1_555
H4 C8 1_555 1_555
C9 O1 1_555 1_555
H5 C9 1_555 1_555
N4 C3 1_555 1_555
C10 C7 1_555 1_555
H6 C10 1_555 1_555
H7 C10 1_555 1_555
C11 C9 1_555 1_555
H8 C11 1_555 1_555
C12 N4 1_555 1_555
H9 C12 1_555 1_555
C13 H10 1_555 1_555
C14 C4 1_555 1_555
H11 C14 1_555 1_555
H12 C14 1_555 1_555
H13 C14 1_555 1_555
C15 C4 1_555 1_555
H14 C15 1_555 1_555
H15 C15 1_555 1_555
H16 C15 1_555 1_555
C16 C12 1_555 1_555
H17 C16 1_555 1_555
C17 H18 1_555 1_555
H19 C17 1_555 1_555
H20 C17 1_555 1_555
C18 C1 1_555 1_555
H21 C18 1_555 1_555
C19 C8 1_555 1_555
H22 C19 1_555 1_555
H23 C19 1_555 1_555
C20 C5 1_555 1_555
H24 C20 1_555 1_555
C21 C18 1_555 1_555
H25 C21 1_555 1_555
C22 C19 1_555 1_555
H26 C22 1_555 1_555
H27 C22 1_555 1_555
C23 H28 1_555 1_555
H29 C23 1_555 1_555
H30 C23 1_555 1_555
C24 N1 1_555 1_555
N2 C6 1_555 1_555
N2 C7 1_555 1_555
C5 C6 1_555 1_555
C9 C10 1_555 1_555
C13 C16 1_555 1_555
C17 C24 1_555 1_555
C20 C21 1_555 1_555
C22 C24 1_555 1_555
C23 C24 1_555 1_555

#END
