
#######################################################################
#
#                 Cambridge Crystallographic Data Centre
#                                CCDC 
#
#######################################################################
#
# If this CIF has been generated from an entry in the Cambridge 
# Structural Database, then it will include bibliographic, chemical, 
# crystal, experimental, refinement or atomic coordinate data resulting 
# from the CCDC's data processing and validation procedures.
#
#######################################################################

data_OGAGAG
_chemical_formula_moiety         'C22 H18 I1 N3 O2'
_chemical_name_systematic        
2-(1-(3,4-Dimethoxyphenyl)-2-iodo-2-phenylvinyl)-2H-benzotriazole
_symmetry_cell_setting           triclinic
_symmetry_space_group_name_H-M   'P -1'
_symmetry_Int_Tables_number      2
_space_group_name_Hall           '-P 1'
loop_
_symmetry_equiv_pos_site_id
_symmetry_equiv_pos_as_xyz
1 x,y,z
2 -x,-y,-z
_cell_length_a                   10.665(2)
_cell_length_b                   11.535(2)
_cell_length_c                   18.711(4)
_cell_angle_alpha                89.19(3)
_cell_angle_beta                 82.80(3)
_cell_angle_gamma                64.40(3)
_cell_volume                     2057.45
_cell_formula_units_Z            4
loop_
_atom_site_label
_atom_site_type_symbol
_atom_site_fract_x
_atom_site_fract_y
_atom_site_fract_z
I1 I 0.84166(5) -0.27445(5) 0.91300(3)
O1 O 1.3882(5) -0.6204(4) 1.0430(3)
N1 N 1.1324(6) -0.0660(6) 0.8024(3)
C1 C 1.1991(7) 0.0105(6) 0.8011(4)
N2 N 1.1946(6) -0.0595(5) 0.9138(3)
O2 O 1.1672(5) -0.4430(4) 1.1116(3)
C2 C 1.2280(8) 0.0811(7) 0.7456(5)
H1 H 1.2012 0.0802 0.7003
N3 N 1.1322(5) -0.1023(5) 0.8695(3)
C3 C 1.2971(10) 0.1515(8) 0.7608(6)
H2 H 1.3185 0.1992 0.7249
C4 C 1.3365(10) 0.1532(9) 0.8293(7)
H3 H 1.3834 0.2027 0.8370
C5 C 1.3105(9) 0.0875(8) 0.8848(6)
H4 H 1.3386 0.0893 0.9297
C6 C 1.2363(7) 0.0146(7) 0.8695(4)
C7 C 1.0665(7) -0.1825(6) 0.8971(4)
C8 C 0.9337(7) -0.1485(6) 0.8850(4)
C9 C 0.8437(7) -0.0308(6) 0.8505(4)
C10 C 0.7837(9) -0.0374(8) 0.7912(4)
H5 H 0.7986 -0.1173 0.7726
C11 C 0.7009(9) 0.0732(10) 0.7586(5)
H6 H 0.6613 0.0669 0.7181
C12 C 0.6773(9) 0.1906(9) 0.7855(5)
H7 H 0.6236 0.2646 0.7628
C13 C 0.7321(8) 0.1994(8) 0.8453(5)
H8 H 0.7144 0.2800 0.8641
C14 C 0.8146(8) 0.0900(7) 0.8791(4)
H9 H 0.8503 0.0976 0.9208
C15 C 1.1577(7) -0.2972(6) 0.9350(4)
C16 C 1.2806(7) -0.3891(7) 0.8994(4)
H10 H 1.3101 -0.3783 0.8519
C17 C 1.3616(7) -0.4996(7) 0.9347(4)
H11 H 1.4445 -0.5618 0.9102
C18 C 1.3201(7) -0.5168(6) 1.0045(4)
C19 C 1.1976(7) -0.4208(6) 1.0413(4)
C20 C 1.1154(7) -0.3118(6) 1.0070(4)
H12 H 1.0331 -0.2491 1.0316
C21 C 1.5105(8) -0.7251(7) 1.0073(5)
H13 H 1.5483 -0.7916 1.0406
H14 H 1.5795 -0.6953 0.9899
H15 H 1.4858 -0.7588 0.9675
C22 C 1.0341(9) -0.3585(8) 1.1490(4)
H16 H 1.0257 -0.3847 1.1977
H17 H 0.9610 -0.3616 1.1251
H18 H 1.0257 -0.2722 1.1496
I2 I 0.89588(5) 0.27765(5) 0.61877(3)
O3 O 0.8580(6) 0.0404(5) 0.3969(3)
O4 O 0.7673(6) -0.1196(4) 0.4479(3)
N4 N 0.3878(6) 0.4453(6) 0.6866(3)
N5 N 0.3619(6) 0.4595(5) 0.5685(3)
N6 N 0.4484(5) 0.4237(5) 0.6181(3)
C23 C 0.2488(7) 0.5019(6) 0.6801(4)
C24 C 0.1316(8) 0.5437(8) 0.7331(4)
H19 H 0.1411 0.5391 0.7819
C25 C 0.0038(8) 0.5912(8) 0.7102(5)
H20 H -0.0759 0.6194 0.7442
C26 C -0.0116(8) 0.5989(7) 0.6363(5)
H21 H -0.1013 0.6310 0.6231
C27 C 0.0998(8) 0.5612(7) 0.5839(4)
H22 H 0.0884 0.5685 0.5353
C28 C 0.2346(7) 0.5101(6) 0.6067(4)
C29 C 0.5965(7) 0.3533(6) 0.6005(3)
C30 C 0.6784(7) 0.3976(6) 0.6272(4)
C31 C 0.6311(7) 0.5246(6) 0.6640(4)
C32 C 0.5538(8) 0.6369(7) 0.6294(4)
H23 H 0.5324 0.6311 0.5833
C33 C 0.5091(9) 0.7565(8) 0.6636(5)
H24 H 0.4593 0.8307 0.6400
C34 C 0.5380(9) 0.7656(8) 0.7317(5)
H25 H 0.5069 0.8460 0.7547
C35 C 0.6139(8) 0.6546(8) 0.7670(5)
H26 H 0.6334 0.6607 0.8135
C36 C 0.6600(8) 0.5354(7) 0.7326(4)
H27 H 0.7112 0.4615 0.7561
C37 C 0.6372(7) 0.2291(6) 0.5594(4)
C38 C 0.7291(7) 0.1968(6) 0.4952(4)
H28 H 0.7628 0.2546 0.4765
C39 C 0.7709(7) 0.0796(6) 0.4591(4)
C40 C 0.7197(7) -0.0069(6) 0.4873(4)
C41 C 0.6278(8) 0.0262(7) 0.5490(4)
H29 H 0.5928 -0.0310 0.5671
C42 C 0.5841(7) 0.1459(7) 0.5862(4)
H30 H 0.5205 0.1678 0.6282
C43 C 0.9312(12) 0.1150(10) 0.3712(5)
H31 H 0.9889 0.0768 0.3264
H32 H 0.9891 0.1170 0.4061
H33 H 0.8646 0.2012 0.3638
C44 C 0.7455(9) -0.2224(7) 0.4806(6)
H34 H 0.7835 -0.2955 0.4472
H35 H 0.6468 -0.1961 0.4935
H36 H 0.7915 -0.2449 0.5231
loop_
_geom_bond_atom_site_label_1
_geom_bond_atom_site_label_2
_geom_bond_site_symmetry_1
_geom_bond_site_symmetry_2
I1 C8 1_555 1_555
O1 C18 1_555 1_555
N1 C1 1_555 1_555
C1 C2 1_555 1_555
N2 N3 1_555 1_555
O2 C19 1_555 1_555
C2 H1 1_555 1_555
N3 N1 1_555 1_555
C3 C2 1_555 1_555
H2 C3 1_555 1_555
C4 C3 1_555 1_555
H3 C4 1_555 1_555
C5 C4 1_555 1_555
H4 C5 1_555 1_555
C6 C1 1_555 1_555
C7 N3 1_555 1_555
C8 C7 1_555 1_555
C9 C8 1_555 1_555
C10 C9 1_555 1_555
H5 C10 1_555 1_555
C11 C10 1_555 1_555
H6 C11 1_555 1_555
C12 C11 1_555 1_555
H7 C12 1_555 1_555
C13 C12 1_555 1_555
H8 C13 1_555 1_555
C14 C9 1_555 1_555
H9 C14 1_555 1_555
C15 C7 1_555 1_555
C16 C15 1_555 1_555
H10 C16 1_555 1_555
C17 C16 1_555 1_555
H11 C17 1_555 1_555
C18 C17 1_555 1_555
C19 C18 1_555 1_555
C20 C15 1_555 1_555
H12 C20 1_555 1_555
C21 O1 1_555 1_555
H13 C21 1_555 1_555
H14 C21 1_555 1_555
H15 C21 1_555 1_555
C22 O2 1_555 1_555
H16 C22 1_555 1_555
H17 C22 1_555 1_555
H18 C22 1_555 1_555
I2 C30 1_555 1_555
O3 C39 1_555 1_555
O4 C40 1_555 1_555
N4 N6 1_555 1_555
N5 N6 1_555 1_555
N6 C29 1_555 1_555
C23 N4 1_555 1_555
C24 C23 1_555 1_555
H19 C24 1_555 1_555
C25 C24 1_555 1_555
H20 C25 1_555 1_555
C26 C25 1_555 1_555
H21 C26 1_555 1_555
C27 C26 1_555 1_555
H22 C27 1_555 1_555
C28 N5 1_555 1_555
C29 C30 1_555 1_555
C30 C31 1_555 1_555
C31 C32 1_555 1_555
C32 H23 1_555 1_555
C33 C32 1_555 1_555
H24 C33 1_555 1_555
C34 C33 1_555 1_555
H25 C34 1_555 1_555
C35 C34 1_555 1_555
H26 C35 1_555 1_555
C36 C31 1_555 1_555
H27 C36 1_555 1_555
C37 C29 1_555 1_555
C38 C37 1_555 1_555
H28 C38 1_555 1_555
C39 C38 1_555 1_555
C40 C39 1_555 1_555
C41 C40 1_555 1_555
H29 C41 1_555 1_555
C42 C37 1_555 1_555
H30 C42 1_555 1_555
C43 O3 1_555 1_555
H31 C43 1_555 1_555
H32 C43 1_555 1_555
H33 C43 1_555 1_555
C44 O4 1_555 1_555
H34 C44 1_555 1_555
H35 C44 1_555 1_555
H36 C44 1_555 1_555
N2 C6 1_555 1_555
C5 C6 1_555 1_555
C13 C14 1_555 1_555
C19 C20 1_555 1_555
C23 C28 1_555 1_555
C27 C28 1_555 1_555
C35 C36 1_555 1_555
C41 C42 1_555 1_555

#END
