
#######################################################################
#
#                 Cambridge Crystallographic Data Centre
#                                CCDC 
#
#######################################################################
#
# If this CIF has been generated from an entry in the Cambridge 
# Structural Database, then it will include bibliographic, chemical, 
# crystal, experimental, refinement or atomic coordinate data resulting 
# from the CCDC's data processing and validation procedures.
#
#######################################################################

data_OGAVAW
_chemical_formula_moiety         'C22 H19 F2 N1 O2 S1'
_chemical_name_systematic        
2a,4-difluoro-9b-methyl-3-[(4-methylphenyl)sulfonyl]-2,2a,3,9b-tetrahydro-1H-benzo[f]cyclobuta[b]indole
_symmetry_cell_setting           monoclinic
_symmetry_space_group_name_H-M   'P 21/c'
_symmetry_Int_Tables_number      14
_space_group_name_Hall           '-P 2ybc'
loop_
_symmetry_equiv_pos_site_id
_symmetry_equiv_pos_as_xyz
1 x,y,z
2 -x,1/2+y,1/2-z
3 -x,-y,-z
4 x,1/2-y,1/2+z
_cell_length_a                   14.943(3)
_cell_length_b                   11.511(2)
_cell_length_c                   11.392(2)
_cell_angle_alpha                90
_cell_angle_beta                 98.266(6)
_cell_angle_gamma                90
_cell_volume                     1939.17
_exptl_crystal_colour            green
_exptl_crystal_description       prismatic
_cell_formula_units_Z            4
loop_
_atom_site_label
_atom_site_type_symbol
_atom_site_fract_x
_atom_site_fract_y
_atom_site_fract_z
S1 S 0.77248(6) 0.45748(8) 0.38068(8)
F1 F 0.61176(18) 0.4478(2) 0.5283(2)
F2 F 0.90569(14) 0.2537(2) 0.4738(2)
O1 O 0.68750(17) 0.5016(2) 0.3285(2)
O2 O 0.84541(18) 0.4506(2) 0.3119(2)
N1 N 0.75938(19) 0.3228(2) 0.4240(2)
C1 C 0.5581(2) 0.2682(3) 0.5853(3)
C2 C 0.4891(2) 0.3231(3) 0.6372(4)
H1 H 0.4814 0.4030 0.6301
C3 C 0.4334(3) 0.2595(4) 0.6980(4)
H2 H 0.3889 0.2968 0.7333
C4 C 0.4429(3) 0.1401(4) 0.7074(4)
H3 H 0.4044 0.0977 0.7485
C5 C 0.5079(3) 0.0840(4) 0.6570(4)
H4 H 0.5129 0.0036 0.6630
C6 C 0.5678(2) 0.1471(3) 0.5956(3)
C7 C 0.6393(3) 0.0915(3) 0.5463(3)
H5 H 0.6466 0.0114 0.5526
C8 C 0.6964(2) 0.1556(3) 0.4902(3)
C9 C 0.6878(2) 0.2774(3) 0.4817(3)
C10 C 0.6201(2) 0.3313(3) 0.5269(3)
C11 C 0.7752(2) 0.1176(3) 0.4318(3)
C12 C 0.7547(3) 0.1010(3) 0.2939(3)
H6 H 0.7696 0.0242 0.2674
H7 H 0.6936 0.1228 0.2602
C13 C 0.8261(3) 0.1939(4) 0.2779(3)
H8 H 0.8839 0.1623 0.2642
H9 H 0.8051 0.2531 0.2198
C14 C 0.8231(2) 0.2306(3) 0.4055(3)
C15 C 0.8350(3) 0.0238(4) 0.4945(4)
H10 H 0.8530 0.0456 0.5758
H11 H 0.8877 0.0144 0.4562
H12 H 0.8022 -0.0481 0.4912
C16 C 0.8101(2) 0.5392(3) 0.5096(3)
C17 C 0.8956(2) 0.5181(3) 0.5707(3)
H13 H 0.9306 0.4575 0.5481
C18 C 0.9282(2) 0.5886(3) 0.6655(4)
H14 H 0.9854 0.5744 0.7069
C19 C 0.8779(3) 0.6794(3) 0.7003(3)
C20 C 0.7927(3) 0.6992(3) 0.6380(4)
H15 H 0.7581 0.7604 0.6601
C21 C 0.7579(2) 0.6291(3) 0.5427(3)
H16 H 0.7004 0.6426 0.5019
C22 C 0.9141(3) 0.7548(4) 0.8044(4)
H17 H 0.9738 0.7294 0.8365
H18 H 0.8752 0.7490 0.8643
H19 H 0.9164 0.8341 0.7789
loop_
_geom_bond_atom_site_label_1
_geom_bond_atom_site_label_2
_geom_bond_site_symmetry_1
_geom_bond_site_symmetry_2
S1 O1 1_555 1_555
F1 C10 1_555 1_555
F2 C14 1_555 1_555
O2 S1 1_555 1_555
N1 S1 1_555 1_555
C1 C2 1_555 1_555
C2 H1 1_555 1_555
C3 C2 1_555 1_555
H2 C3 1_555 1_555
C4 C3 1_555 1_555
H3 C4 1_555 1_555
C5 C4 1_555 1_555
H4 C5 1_555 1_555
C6 C1 1_555 1_555
C7 C6 1_555 1_555
H5 C7 1_555 1_555
C8 C7 1_555 1_555
C9 N1 1_555 1_555
C10 C1 1_555 1_555
C11 C8 1_555 1_555
C12 C11 1_555 1_555
H6 C12 1_555 1_555
H7 C12 1_555 1_555
C13 C12 1_555 1_555
H8 C13 1_555 1_555
H9 C13 1_555 1_555
C14 N1 1_555 1_555
C15 C11 1_555 1_555
H10 C15 1_555 1_555
H11 C15 1_555 1_555
H12 C15 1_555 1_555
C16 S1 1_555 1_555
C17 C16 1_555 1_555
H13 C17 1_555 1_555
C18 C17 1_555 1_555
H14 C18 1_555 1_555
C19 C18 1_555 1_555
C20 C19 1_555 1_555
H15 C20 1_555 1_555
C21 C16 1_555 1_555
H16 C21 1_555 1_555
C22 C19 1_555 1_555
H17 C22 1_555 1_555
H18 C22 1_555 1_555
H19 C22 1_555 1_555
C5 C6 1_555 1_555
C8 C9 1_555 1_555
C9 C10 1_555 1_555
C11 C14 1_555 1_555
C13 C14 1_555 1_555
C20 C21 1_555 1_555

#END
