
#######################################################################
#
#                 Cambridge Crystallographic Data Centre
#                                CCDC 
#
#######################################################################
#
# If this CIF has been generated from an entry in the Cambridge 
# Structural Database, then it will include bibliographic, chemical, 
# crystal, experimental, refinement or atomic coordinate data resulting 
# from the CCDC's data processing and validation procedures.
#
#######################################################################

data_OGAWAV
_chemical_formula_moiety         'C16 H17 N3 O3'
_chemical_name_systematic        
5-(2,4-Dimethoxyphenyl)-8-methoxy-3-methylimidazo[1,5-a]pyrazine
_symmetry_cell_setting           triclinic
_symmetry_space_group_name_H-M   'P -1'
_symmetry_Int_Tables_number      2
_space_group_name_Hall           '-P 1'
loop_
_symmetry_equiv_pos_site_id
_symmetry_equiv_pos_as_xyz
1 x,y,z
2 -x,-y,-z
_cell_length_a                   5.1305(7)
_cell_length_b                   11.2440(16)
_cell_length_c                   13.5051(19)
_cell_angle_alpha                107.987(2)
_cell_angle_beta                 90.272(2)
_cell_angle_gamma                99.695(2)
_cell_volume                     729.075
_exptl_crystal_colour            colorless
_exptl_crystal_description       plate
_chemical_melting_point          '166-168 deg.C'
_cell_formula_units_Z            2
_exptl_crystal_recrystallization_method 'hexanes/ethyl acetate'
loop_
_atom_site_label
_atom_site_type_symbol
_atom_site_fract_x
_atom_site_fract_y
_atom_site_fract_z
O1 O 1.0437(2) -0.31506(11) 0.10615(9)
O2 O 0.8741(2) 0.18908(10) 0.38460(8)
O3 O 0.3433(2) 0.47131(10) 0.32346(9)
N1 N 0.5155(3) -0.20073(13) 0.34906(11)
N2 N 0.6582(2) -0.08392(11) 0.24799(9)
N3 N 0.9801(3) -0.12975(12) 0.07769(10)
C1 C 0.6849(3) -0.26110(15) 0.28231(13)
H1 H 0.7328 -0.3396 0.2808
C2 C 0.4998(3) -0.09456(15) 0.32751(12)
C3 C 0.7144(3) 0.00697(14) 0.19526(11)
C4 C 0.8662(3) -0.02182(15) 0.11307(12)
H2 H 0.8985 0.0377 0.0756
C5 C 0.9382(3) -0.20822(15) 0.13066(12)
C6 C 0.7760(3) -0.19260(14) 0.21782(12)
C7 C 1.2226(4) -0.33058(18) 0.02299(14)
H3 H 1.2880 -0.4105 0.0115
H4 H 1.3724 -0.2594 0.0420
H5 H 1.1291 -0.3323 -0.0410
C8 C 0.3256(3) -0.00432(15) 0.38127(13)
H6 H 0.2336 -0.0345 0.4347
H7 H 0.1952 0.0012 0.3303
H8 H 0.4333 0.0799 0.4142
C9 C 0.6142(3) 0.12795(14) 0.22880(12)
C10 C 0.6965(3) 0.22047(14) 0.32591(12)
C11 C 0.6009(3) 0.33331(14) 0.35521(12)
H9 H 0.6524 0.3941 0.4218
C12 C 0.4280(3) 0.35748(14) 0.28636(13)
C13 C 0.3547(3) 0.27049(15) 0.18865(12)
H10 H 0.2420 0.2883 0.1411
C14 C 0.4488(3) 0.15696(15) 0.16151(12)
H11 H 0.3983 0.0969 0.0945
C15 C 0.9741(3) 0.28129(16) 0.48214(12)
H12 H 1.0990 0.2473 0.5165
H13 H 0.8269 0.3007 0.5268
H14 H 1.0651 0.3590 0.4700
C16 C 0.1698(4) 0.50089(16) 0.25483(14)
H15 H 0.1221 0.5840 0.2896
H16 H 0.0090 0.4358 0.2365
H17 H 0.2592 0.5032 0.1913
loop_
_geom_bond_atom_site_label_1
_geom_bond_atom_site_label_2
_geom_bond_site_symmetry_1
_geom_bond_site_symmetry_2
O1 C5 1_555 1_555
O2 C10 1_555 1_555
O3 C12 1_555 1_555
N1 C1 1_555 1_555
N2 C2 1_555 1_555
N3 C4 1_555 1_555
C1 H1 1_555 1_555
C2 N1 1_555 1_555
C3 N2 1_555 1_555
C4 C3 1_555 1_555
H2 C4 1_555 1_555
C5 N3 1_555 1_555
C6 N2 1_555 1_555
C7 O1 1_555 1_555
H3 C7 1_555 1_555
H4 C7 1_555 1_555
H5 C7 1_555 1_555
C8 C2 1_555 1_555
H6 C8 1_555 1_555
H7 C8 1_555 1_555
H8 C8 1_555 1_555
C9 C3 1_555 1_555
C10 C9 1_555 1_555
C11 C10 1_555 1_555
H9 C11 1_555 1_555
C12 C11 1_555 1_555
C13 C12 1_555 1_555
H10 C13 1_555 1_555
C14 C9 1_555 1_555
H11 C14 1_555 1_555
C15 O2 1_555 1_555
H12 C15 1_555 1_555
H13 C15 1_555 1_555
H14 C15 1_555 1_555
C16 O3 1_555 1_555
H15 C16 1_555 1_555
H16 C16 1_555 1_555
H17 C16 1_555 1_555
C1 C6 1_555 1_555
C5 C6 1_555 1_555
C13 C14 1_555 1_555

#END
