
#######################################################################
#
#                 Cambridge Crystallographic Data Centre
#                                CCDC 
#
#######################################################################
#
# If this CIF has been generated from an entry in the Cambridge 
# Structural Database, then it will include bibliographic, chemical, 
# crystal, experimental, refinement or atomic coordinate data resulting 
# from the CCDC's data processing and validation procedures.
#
#######################################################################

data_OGEBUY
_chemical_formula_moiety         'C16 H14 O4'
_chemical_name_systematic        "Biphenyl-2,2'-diyl diacetate"
_symmetry_cell_setting           monoclinic
_symmetry_space_group_name_H-M   'P 21/n'
_symmetry_Int_Tables_number      14
_space_group_name_Hall           '-P 2yn'
loop_
_symmetry_equiv_pos_site_id
_symmetry_equiv_pos_as_xyz
1 x,y,z
2 1/2-x,1/2+y,1/2-z
3 -x,-y,-z
4 1/2+x,1/2-y,1/2+z
_cell_length_a                   8.8380(18)
_cell_length_b                   18.204(4)
_cell_length_c                   8.9620(18)
_cell_angle_alpha                90
_cell_angle_beta                 108.75(3)
_cell_angle_gamma                90
_cell_volume                     1365.35
_exptl_crystal_colour            colorless
_exptl_crystal_description       block
_cell_formula_units_Z            4
_exptl_crystal_recrystallization_method 'ethyl acetate'
loop_
_atom_site_label
_atom_site_type_symbol
_atom_site_fract_x
_atom_site_fract_y
_atom_site_fract_z
O1 O 0.0543(3) 0.18629(18) 0.4765(3)
O2 O 0.0736(3) 0.22040(12) 0.7226(3)
O3 O 0.2528(3) 0.08431(13) 0.7691(2)
O4 O 0.1896(4) -0.03274(15) 0.7923(3)
C1 C 0.2647(5) 0.2666(2) 0.6182(5)
H1 H 0.2874 0.2719 0.5209
H2 H 0.3539 0.2437 0.6952
H3 H 0.2463 0.3142 0.6553
C2 C 0.1200(5) 0.2203(2) 0.5920(5)
C3 C -0.0585(4) 0.17726(18) 0.7219(4)
C4 C -0.2080(4) 0.1915(2) 0.6172(4)
H4 H -0.2217 0.2269 0.5392
C5 C -0.3376(4) 0.1522(2) 0.6297(5)
H5 H -0.4391 0.1613 0.5596
C6 C -0.3171(5) 0.1001(2) 0.7448(5)
H6 H -0.4047 0.0738 0.7520
C7 C -0.1664(4) 0.0864(2) 0.8507(4)
H7 H -0.1541 0.0511 0.9287
C8 C -0.0327(4) 0.12500(18) 0.8416(4)
C9 C 0.1255(4) 0.11569(17) 0.9635(4)
C10 C 0.1422(4) 0.12691(18) 1.1210(4)
H8 H 0.0525 0.1371 1.1502
C11 C 0.2908(4) 0.1231(2) 1.2353(4)
H9 H 0.3003 0.1321 1.3401
C12 C 0.4247(4) 0.1062(2) 1.1957(4)
H10 H 0.5242 0.1039 1.2732
C13 C 0.4108(4) 0.09252(19) 1.0405(4)
H11 H 0.5005 0.0806 1.0126
C14 C 0.2620(4) 0.09669(17) 0.9267(4)
C15 C 0.2136(4) 0.0154(2) 0.7134(4)
C16 C 0.2087(5) 0.0091(2) 0.5468(4)
H12 H 0.1746 -0.0395 0.5088
H13 H 0.3134 0.0180 0.5400
H14 H 0.1351 0.0445 0.4839
loop_
_geom_bond_atom_site_label_1
_geom_bond_atom_site_label_2
_geom_bond_site_symmetry_1
_geom_bond_site_symmetry_2
O1 C2 1_555 1_555
O2 C2 1_555 1_555
O3 C14 1_555 1_555
O4 C15 1_555 1_555
C1 H1 1_555 1_555
H2 C1 1_555 1_555
H3 C1 1_555 1_555
C2 C1 1_555 1_555
C3 O2 1_555 1_555
C4 C3 1_555 1_555
H4 C4 1_555 1_555
C5 C4 1_555 1_555
H5 C5 1_555 1_555
C6 C5 1_555 1_555
H6 C6 1_555 1_555
C7 C6 1_555 1_555
H7 C7 1_555 1_555
C8 C3 1_555 1_555
C9 C8 1_555 1_555
C10 C9 1_555 1_555
H8 C10 1_555 1_555
C11 C10 1_555 1_555
H9 C11 1_555 1_555
C12 C11 1_555 1_555
H10 C12 1_555 1_555
C13 C12 1_555 1_555
H11 C13 1_555 1_555
C14 C9 1_555 1_555
C15 O3 1_555 1_555
C16 C15 1_555 1_555
H12 C16 1_555 1_555
H13 C16 1_555 1_555
H14 C16 1_555 1_555
C7 C8 1_555 1_555
C13 C14 1_555 1_555

#END
