
#######################################################################
#
#                 Cambridge Crystallographic Data Centre
#                                CCDC 
#
#######################################################################
#
# If this CIF has been generated from an entry in the Cambridge 
# Structural Database, then it will include bibliographic, chemical, 
# crystal, experimental, refinement or atomic coordinate data resulting 
# from the CCDC's data processing and validation procedures.
#
#######################################################################

data_OGECIN
_chemical_formula_moiety         'C16 H13 N5 O2 S1'
_chemical_name_systematic        
1-(4-Methylbenzoyl)-3-(5-(4-pyridyl)-1,3,4-thiadiazol-2-yl)urea
_symmetry_cell_setting           triclinic
_symmetry_space_group_name_H-M   'P -1'
_symmetry_Int_Tables_number      2
_space_group_name_Hall           '-P 1'
loop_
_symmetry_equiv_pos_site_id
_symmetry_equiv_pos_as_xyz
1 x,y,z
2 -x,-y,-z
_cell_length_a                   5.0563(5)
_cell_length_b                   11.8561(11)
_cell_length_c                   13.2506(12)
_cell_angle_alpha                88.892(2)
_cell_angle_beta                 80.849(2)
_cell_angle_gamma                77.989(2)
_cell_volume                     766.99
_exptl_crystal_colour            colorless
_exptl_crystal_description       block
_chemical_melting_point          'above 573K'
_cell_formula_units_Z            2
_exptl_crystal_recrystallization_method methanol/dmf
loop_
_atom_site_label
_atom_site_type_symbol
_atom_site_fract_x
_atom_site_fract_y
_atom_site_fract_z
S1 S 0.59211(17) 0.73166(7) -0.09171(5)
N1 N 0.8010(5) 0.96100(19) 0.13767(16)
H1 H 0.9109 1.0058 0.1159
N2 N 0.5583(5) 0.82578(19) 0.09796(16)
H2 H 0.4995 0.8259 0.1625
N3 N 0.2887(6) 0.6962(2) 0.07332(18)
N4 N 0.2335(5) 0.6273(2) 0.00007(19)
N5 N 0.3212(7) 0.4482(3) -0.3539(2)
O1 O 0.5680(6) 0.8977(2) 0.27987(16)
O2 O 0.8225(5) 0.90478(17) -0.02610(13)
C1 C 1.0069(10) 1.2823(3) 0.5070(3)
H3 H 0.9255 1.2708 0.5759
H4 H 0.9400 1.3601 0.4874
H5 H 1.2024 1.2684 0.5025
C2 C 0.9326(7) 1.1995(3) 0.4361(2)
C3 C 0.8036(6) 1.0456(2) 0.3046(2)
C4 C 0.9463(13) 1.2164(5) 0.3343(4)
H6 H 0.9870 1.2852 0.3082
C5 C 0.9036(12) 1.1382(5) 0.2677(4)
H7 H 0.9429 1.1484 0.1976
C6 C 0.7810(12) 1.0218(5) 0.4113(4)
H8 H 0.7357 0.9534 0.4365
C7 C 0.8276(13) 1.1023(6) 0.4758(5)
H9 H 0.7903 1.0933 0.5462
C12 C 0.7154(7) 0.9624(3) 0.2418(2)
C13 C 0.7317(6) 0.8962(2) 0.0638(2)
C14 C 0.4699(6) 0.7538(2) 0.03602(19)
C15 C 0.3759(6) 0.6354(2) -0.0884(2)
C16 C 0.3576(6) 0.5700(2) -0.1797(2)
C17 C 0.5012(9) 0.5865(4) -0.2729(3)
H14 H 0.6168 0.6387 -0.2796
C18 C 0.4754(10) 0.5258(4) -0.3576(3)
H15 H 0.5720 0.5405 -0.4206
C19 C 0.1854(7) 0.4317(3) -0.2624(3)
H16 H 0.0759 0.3771 -0.2572
C20 C 0.1956(7) 0.4896(3) -0.1754(2)
H17 H 0.0937 0.4747 -0.1136
C8? C 1.1141(12) 1.1626(5) 0.3379(4)
H10? H 1.2799 1.1857 0.3197
C9? C 1.0226(12) 1.0914(5) 0.2743(4)
H11? H 1.1179 1.0753 0.2084
C10? C 0.6374(12) 1.0858(5) 0.3994(4)
H12? H 0.4711 1.0634 0.4188
C11? C 0.7220(13) 1.1576(5) 0.4624(4)
H13? H 0.6200 1.1760 0.5270
loop_
_geom_bond_atom_site_label_1
_geom_bond_atom_site_label_2
_geom_bond_site_symmetry_1
_geom_bond_site_symmetry_2
S1 C14 1_555 1_555
N1 H1 1_555 1_555
N2 H2 1_555 1_555
N3 N4 1_555 1_555
N4 C15 1_555 1_555
N5 C18 1_555 1_555
O1 C12 1_555 1_555
O2 C13 1_555 1_555
C1 H3 1_555 1_555
H4 C1 1_555 1_555
H5 C1 1_555 1_555
C2 C1 1_555 1_555
C3 C5 1_555 1_555
C4 C2 1_555 1_555
H6 C4 1_555 1_555
C5 C4 1_555 1_555
H7 C5 1_555 1_555
C6 C3 1_555 1_555
H8 C6 1_555 1_555
C7 C2 1_555 1_555
H9 C7 1_555 1_555
C12 N1 1_555 1_555
C13 N1 1_555 1_555
C14 N2 1_555 1_555
C15 S1 1_555 1_555
C16 C15 1_555 1_555
C17 C16 1_555 1_555
H14 C17 1_555 1_555
C18 C17 1_555 1_555
H15 C18 1_555 1_555
C19 N5 1_555 1_555
H16 C19 1_555 1_555
C20 C16 1_555 1_555
H17 C20 1_555 1_555
N2 C13 1_555 1_555
N3 C14 1_555 1_555
C3 C12 1_555 1_555
C6 C7 1_555 1_555
C19 C20 1_555 1_555

#END
