
#######################################################################
#
#                 Cambridge Crystallographic Data Centre
#                                CCDC 
#
#######################################################################
#
# If this CIF has been generated from an entry in the Cambridge 
# Structural Database, then it will include bibliographic, chemical, 
# crystal, experimental, refinement or atomic coordinate data resulting 
# from the CCDC's data processing and validation procedures.
#
#######################################################################

data_OGECUZ
_chemical_formula_moiety         'C9 H8 N2 O2'
_chemical_name_systematic        '1-Methyl-1H-indazole-3-carboxylic acid'
_symmetry_cell_setting           monoclinic
_symmetry_space_group_name_H-M   'P 21/n'
_symmetry_Int_Tables_number      14
_space_group_name_Hall           '-P 2yn'
loop_
_symmetry_equiv_pos_site_id
_symmetry_equiv_pos_as_xyz
1 x,y,z
2 1/2-x,1/2+y,1/2-z
3 -x,-y,-z
4 1/2+x,1/2-y,1/2+z
_cell_length_a                   7.5470(15)
_cell_length_b                   14.873(3)
_cell_length_c                   14.924(3)
_cell_angle_alpha                90
_cell_angle_beta                 93.10(3)
_cell_angle_gamma                90
_cell_volume                     1672.72
_exptl_crystal_colour            colorless
_exptl_crystal_description       block
_cell_formula_units_Z            8
_exptl_crystal_recrystallization_method 'petroleum ether/methanol'
loop_
_atom_site_label
_atom_site_type_symbol
_atom_site_fract_x
_atom_site_fract_y
_atom_site_fract_z
O1 O -0.0113(3) 0.38836(12) 0.50834(13)
O2 O 0.0844(3) 0.46943(12) 0.39536(13)
H1 H 0.0587 0.5109 0.4284
N1 N 0.0777(3) 0.17493(14) 0.34517(17)
N2 N 0.0425(3) 0.23313(15) 0.41044(16)
C1 C 0.0605(5) 0.07913(19) 0.3588(3)
H2 H 0.0634 0.0488 0.3021
H3 H -0.0500 0.0667 0.3852
H4 H 0.1569 0.0583 0.3980
C2 C 0.0474(4) 0.39448(17) 0.43217(19)
C3 C 0.0726(3) 0.31492(17) 0.37687(17)
C4 C 0.1346(3) 0.31004(17) 0.28951(17)
C5 C 0.1353(3) 0.21700(18) 0.27100(19)
C6 C 0.1899(3) 0.37047(19) 0.22478(18)
H5 H 0.1896 0.4321 0.2355
C7 C 0.2442(4) 0.3372(2) 0.1459(2)
H6 H 0.2834 0.3769 0.1030
C8 C 0.2429(4) 0.2443(2) 0.1273(2)
H7 H 0.2790 0.2240 0.0722
C9 C 0.1899(4) 0.1841(2) 0.1883(2)
H8 H 0.1896 0.1228 0.1761
O3 O 0.4920(3) 0.38818(12) 0.47829(12)
H9 H 0.4752 0.4303 0.5122
O4 O 0.5840(3) 0.50052(13) 0.39334(14)
N3 N 0.6825(3) 0.30394(16) 0.21444(15)
N4 N 0.6574(3) 0.37909(15) 0.26119(15)
C10 C 0.7390(4) 0.3098(2) 0.12273(19)
H10 H 0.7340 0.2512 0.0957
H11 H 0.8584 0.3321 0.1234
H12 H 0.6618 0.3499 0.0887
C11 C 0.5579(3) 0.41736(17) 0.40759(18)
C12 C 0.5990(3) 0.35246(17) 0.33950(17)
C13 C 0.5881(3) 0.25681(17) 0.34408(18)
C14 C 0.6464(4) 0.22852(19) 0.26155(19)
C15 C 0.6532(4) 0.1370(2) 0.2374(2)
H13 H 0.6879 0.1192 0.1813
C16 C 0.6078(4) 0.0772(2) 0.2984(3)
H14 H 0.6139 0.0163 0.2849
C17 C 0.5502(4) 0.1039(2) 0.3838(2)
H15 H 0.5181 0.0600 0.4243
C18 C 0.5410(4) 0.19292(18) 0.4077(2)
H16 H 0.5050 0.2101 0.4638
loop_
_geom_bond_atom_site_label_1
_geom_bond_atom_site_label_2
_geom_bond_site_symmetry_1
_geom_bond_site_symmetry_2
O1 C2 1_555 1_555
O2 H1 1_555 1_555
N1 N2 1_555 1_555
N2 C3 1_555 1_555
C1 N1 1_555 1_555
H2 C1 1_555 1_555
H3 C1 1_555 1_555
H4 C1 1_555 1_555
C2 O2 1_555 1_555
C3 C2 1_555 1_555
C4 C3 1_555 1_555
C5 N1 1_555 1_555
C6 C4 1_555 1_555
H5 C6 1_555 1_555
C7 C6 1_555 1_555
H6 C7 1_555 1_555
C8 C7 1_555 1_555
H7 C8 1_555 1_555
C9 C5 1_555 1_555
H8 C9 1_555 1_555
O3 H9 1_555 1_555
O4 C11 1_555 1_555
N3 N4 1_555 1_555
N4 C12 1_555 1_555
C10 N3 1_555 1_555
H10 C10 1_555 1_555
H11 C10 1_555 1_555
H12 C10 1_555 1_555
C11 O3 1_555 1_555
C12 C11 1_555 1_555
C13 C12 1_555 1_555
C14 N3 1_555 1_555
C15 C14 1_555 1_555
H13 C15 1_555 1_555
C16 C15 1_555 1_555
H14 C16 1_555 1_555
C17 C16 1_555 1_555
H15 C17 1_555 1_555
C18 C13 1_555 1_555
H16 C18 1_555 1_555
C4 C5 1_555 1_555
C8 C9 1_555 1_555
C13 C14 1_555 1_555
C17 C18 1_555 1_555

#END
