
#######################################################################
#
#                 Cambridge Crystallographic Data Centre
#                                CCDC 
#
#######################################################################
#
# If this CIF has been generated from an entry in the Cambridge 
# Structural Database, then it will include bibliographic, chemical, 
# crystal, experimental, refinement or atomic coordinate data resulting 
# from the CCDC's data processing and validation procedures.
#
#######################################################################

data_OGEFAI
_chemical_formula_moiety         'C7 H9 N3 O2'
_chemical_name_systematic        '1-Allyl-3-amino-1H-pyrazole-4-carboxylic acid'
_symmetry_cell_setting           monoclinic
_symmetry_space_group_name_H-M   'P 21/c'
_symmetry_Int_Tables_number      14
_space_group_name_Hall           '-P 2ybc'
loop_
_symmetry_equiv_pos_site_id
_symmetry_equiv_pos_as_xyz
1 x,y,z
2 -x,1/2+y,1/2-z
3 -x,-y,-z
4 x,1/2-y,1/2+z
_cell_length_a                   8.966(2)
_cell_length_b                   8.531(2)
_cell_length_c                   10.266(2)
_cell_angle_alpha                90
_cell_angle_beta                 95.57(3)
_cell_angle_gamma                90
_cell_volume                     781.528
_exptl_crystal_colour            colorless
_exptl_crystal_description       Prism
_cell_formula_units_Z            4
_exptl_crystal_recrystallization_method ethanol
loop_
_atom_site_label
_atom_site_type_symbol
_atom_site_fract_x
_atom_site_fract_y
_atom_site_fract_z
C1 C 0.64833(12) 0.69316(12) 0.51583(10)
C2 C 0.68026(12) 0.53444(13) 0.56126(10)
C3 C 0.63332(12) 0.46275(12) 0.67507(10)
C4 C 0.75001(12) 0.41422(13) 0.49875(10)
H1 H 0.7935 0.4217 0.4182
C5 C 0.79757(13) 0.12954(13) 0.54567(11)
H2 H 0.8212 0.1241 0.4536
H3 H 0.7169 0.0529 0.5570
C6 C 0.93408(13) 0.08629(14) 0.63419(11)
H4 H 1.0204 0.1508 0.6340
C7 C 0.94070(15) -0.03654(16) 0.71224(12)
H5 H 0.8560 -0.1030 0.7143
H6 H 1.0302 -0.0587 0.7665
N1 N 0.55906(11) 0.53395(11) 0.77249(9)
H7 H 0.5169(17) 0.4628(18) 0.8213(15)
H8 H 0.4929(18) 0.6087(19) 0.7423(15)
N2 N 0.67310(10) 0.31234(11) 0.68348(9)
N3 N 0.74458(10) 0.28673(11) 0.57279(9)
O1 O 0.57152(9) 0.78485(9) 0.57215(8)
O2 O 0.70880(9) 0.72908(10) 0.40620(8)
H9 H 0.663(2) 0.818(2) 0.3719(19)
loop_
_geom_bond_atom_site_label_1
_geom_bond_atom_site_label_2
_geom_bond_site_symmetry_1
_geom_bond_site_symmetry_2
C1 C2 1_555 1_555
C2 C3 1_555 1_555
C3 N1 1_555 1_555
C4 C2 1_555 1_555
H1 C4 1_555 1_555
C5 H2 1_555 1_555
H3 C5 1_555 1_555
C6 C5 1_555 1_555
H4 C6 1_555 1_555
C7 C6 1_555 1_555
H5 C7 1_555 1_555
H6 C7 1_555 1_555
N1 H7 1_555 1_555
H8 N1 1_555 1_555
N2 C3 1_555 1_555
N3 C4 1_555 1_555
O1 C1 1_555 1_555
O2 C1 1_555 1_555
H9 O2 1_555 1_555
C5 N3 1_555 1_555
N2 N3 1_555 1_555

#END
