
#######################################################################
#
#                 Cambridge Crystallographic Data Centre
#                                CCDC 
#
#######################################################################
#
# If this CIF has been generated from an entry in the Cambridge 
# Structural Database, then it will include bibliographic, chemical, 
# crystal, experimental, refinement or atomic coordinate data resulting 
# from the CCDC's data processing and validation procedures.
#
#######################################################################

data_OGEHEQ
_chemical_formula_moiety         'C16 H10 B1 F2 N3 S2'
_chemical_name_systematic        
5,5-difluoro-2,3-bis(thiophen-2-yl)-5H-imidazo[1',2':3,4][1,3,2]diazaborolo[1,5-a]pyridine
_symmetry_cell_setting           monoclinic
_symmetry_space_group_name_H-M   'P 21/n'
_symmetry_Int_Tables_number      14
_space_group_name_Hall           '-P 2yn'
loop_
_symmetry_equiv_pos_site_id
_symmetry_equiv_pos_as_xyz
1 x,y,z
2 1/2-x,1/2+y,1/2-z
3 -x,-y,-z
4 1/2+x,1/2-y,1/2+z
_cell_length_a                   9.4685(14)
_cell_length_b                   12.8918(18)
_cell_length_c                   12.7084(19)
_cell_angle_alpha                90
_cell_angle_beta                 101.357(3)
_cell_angle_gamma                90
_cell_volume                     1520.89
_exptl_crystal_colour            yellow
_exptl_crystal_description       prism
_cell_formula_units_Z            4
loop_
_atom_site_label
_atom_site_type_symbol
_atom_site_fract_x
_atom_site_fract_y
_atom_site_fract_z
S1 S 0.20340(5) 0.26354(3) -0.18849(3)
F1 F 0.42288(10) 0.15343(7) 0.10128(8)
F2 F 0.34823(10) 0.04881(7) -0.04372(7)
B1 B 0.31771(18) 0.08797(13) 0.04937(14)
N1 N -0.04922(13) 0.12237(9) 0.08766(9)
N2 N 0.16504(13) 0.13490(9) 0.03642(9)
N3 N 0.29373(13) -0.00464(9) 0.12980(10)
C1 C -0.04963(16) 0.20779(11) 0.02123(11)
C2 C -0.18121(16) 0.26807(11) -0.00896(11)
S2 S -0.20489(11) 0.36974(7) -0.09933(8)
C3 C -0.3081(6) 0.2492(5) 0.0241(5)
H1 H -0.317084 0.196872 0.075031
C4 C -0.4256(6) 0.3138(4) -0.0233(6)
H2 H -0.520456 0.308693 -0.009680
C5 C -0.3826(4) 0.3839(5) -0.0909(5)
H3 H -0.444375 0.435150 -0.129151
C6 C 0.08337(16) 0.21711(11) -0.00993(11)
C7 C 0.13860(15) 0.29570(11) -0.07467(11)
C8 C 0.14607(17) 0.40116(12) -0.05683(14)
H4 H 0.115827 0.434193 0.001795
C9 C 0.20456(17) 0.45511(12) -0.13674(13)
H5 H 0.217749 0.528156 -0.136897
C10 C 0.23917(18) 0.39099(13) -0.21219(12)
H6 H 0.278646 0.413883 -0.271339
C11 C 0.08052(16) 0.08231(11) 0.09329(11)
C12 C 0.15825(16) -0.00466(11) 0.15055(11)
C13 C 0.11542(17) -0.07810(11) 0.21719(12)
H7 H 0.019806 -0.079077 0.229801
C14 C 0.21715(19) -0.15064(12) 0.26525(13)
H8 H 0.191457 -0.201548 0.312159
C15 C 0.35568(18) -0.14875(12) 0.24483(12)
H9 H 0.425380 -0.197586 0.278330
C16 C 0.39173(18) -0.07499(12) 0.17510(12)
H10 H 0.485747 -0.074245 0.159378
S3? S -0.3209(5) 0.2325(4) 0.0423(5)
C17? C -0.2047(17) 0.3472(10) -0.0795(12)
H11? H -0.134601 0.375551 -0.115420
C18? C -0.421(2) 0.3306(15) -0.026(2)
H12? H -0.516375 0.346513 -0.018590
C19? C -0.3518(16) 0.3828(18) -0.0926(19)
H13? H -0.393651 0.435561 -0.141043
loop_
_geom_bond_atom_site_label_1
_geom_bond_atom_site_label_2
_geom_bond_site_symmetry_1
_geom_bond_site_symmetry_2
S1 C7 1_555 1_555
F1 B1 1_555 1_555
F2 B1 1_555 1_555
B1 N2 1_555 1_555
N1 C1 1_555 1_555
N2 C6 1_555 1_555
N3 B1 1_555 1_555
C1 C2 1_555 1_555
C2 S2 1_555 1_555
S2 C5 1_555 1_555
C3 C2 1_555 1_555
H1 C3 1_555 1_555
C4 C3 1_555 1_555
H2 C4 1_555 1_555
C5 C4 1_555 1_555
H3 C5 1_555 1_555
C6 C1 1_555 1_555
C7 C6 1_555 1_555
C8 C7 1_555 1_555
H4 C8 1_555 1_555
C9 C8 1_555 1_555
H5 C9 1_555 1_555
C10 S1 1_555 1_555
H6 C10 1_555 1_555
C11 N1 1_555 1_555
C12 N3 1_555 1_555
C13 C12 1_555 1_555
H7 C13 1_555 1_555
C14 C13 1_555 1_555
H8 C14 1_555 1_555
C15 C14 1_555 1_555
H9 C15 1_555 1_555
C16 N3 1_555 1_555
H10 C16 1_555 1_555
N2 C11 1_555 1_555
C9 C10 1_555 1_555
C11 C12 1_555 1_555
C15 C16 1_555 1_555

#END
