
#######################################################################
#
#                 Cambridge Crystallographic Data Centre
#                                CCDC 
#
#######################################################################
#
# If this CIF has been generated from an entry in the Cambridge 
# Structural Database, then it will include bibliographic, chemical, 
# crystal, experimental, refinement or atomic coordinate data resulting 
# from the CCDC's data processing and validation procedures.
#
#######################################################################

data_OGEKAP
_chemical_formula_moiety         'C26 H26 O6 S1'
_chemical_name_systematic        
'(4-benzyl-7-oxo-2,3,4,5-tetrahydro-7H-1,6-benzodioxonin-4-yl)methyl 4-methylbenzenesulfonate'
_symmetry_cell_setting           orthorhombic
_symmetry_space_group_name_H-M   'P 21 21 21'
_symmetry_Int_Tables_number      19
_space_group_name_Hall           'P 2ac 2ab'
loop_
_symmetry_equiv_pos_site_id
_symmetry_equiv_pos_as_xyz
1 x,y,z
2 1/2-x,-y,1/2+z
3 -x,1/2+y,1/2-z
4 1/2+x,1/2-y,-z
_cell_length_a                   6.2606(6)
_cell_length_b                   7.9157(7)
_cell_length_c                   45.636(5)
_cell_angle_alpha                90
_cell_angle_beta                 90
_cell_angle_gamma                90
_cell_volume                     2261.58
_exptl_crystal_colour            colorless
_exptl_crystal_description       block
_cell_formula_units_Z            4
loop_
_atom_site_label
_atom_site_type_symbol
_atom_site_fract_x
_atom_site_fract_y
_atom_site_fract_z
S1 S 0.09752(19) 0.50702(16) 0.42659(2)
O1 O 0.6105(5) 0.3391(4) 0.29824(7)
O2 O 0.2379(5) 0.2914(4) 0.33648(6)
O3 O 0.1869(6) 0.0488(4) 0.31378(7)
O4 O 0.1725(5) 0.5489(4) 0.39438(6)
O5 O 0.1995(6) 0.3546(4) 0.43625(7)
O6 O -0.1302(5) 0.5156(5) 0.42540(7)
C1 C 0.4178(7) 0.5528(6) 0.35361(9)
C2 C 0.6413(7) 0.4893(6) 0.34438(9)
H1 H 0.7482 0.5574 0.3542
H2 H 0.6580 0.3739 0.3511
C3 C 0.6854(7) 0.4943(7) 0.31136(9)
H3 H 0.6124 0.5899 0.3026
H4 H 0.8374 0.5071 0.3079
C4 C 0.4561(7) 0.3542(6) 0.27671(10)
C5 C 0.4987(9) 0.4283(6) 0.24972(10)
H5 H 0.6318 0.4749 0.2457
C6 C 0.3356(8) 0.4308(6) 0.22878(10)
H6 H 0.3598 0.4818 0.2107
C7 C 0.1387(8) 0.3586(6) 0.23454(10)
H7 H 0.0324 0.3607 0.2203
C8 C 0.0993(8) 0.2833(6) 0.26135(10)
H8 H -0.0321 0.2330 0.2651
C9 C 0.2592(8) 0.2835(6) 0.28290(10)
C10 C 0.2235(8) 0.1984(6) 0.31167(10)
C11 C 0.2382(7) 0.4735(6) 0.33522(9)
H9 H 0.1017 0.5153 0.3422
H10 H 0.2544 0.5088 0.3150
C12 C 0.3889(8) 0.7458(5) 0.34870(10)
H11 H 0.4104 0.7689 0.3280
H12 H 0.2420 0.7745 0.3533
C13 C 0.5328(8) 0.8623(6) 0.36599(9)
C14 C 0.4576(8) 0.9379(6) 0.39142(10)
H13 H 0.3216 0.9117 0.3982
C15 C 0.5837(9) 1.0525(6) 0.40684(11)
H14 H 0.5310 1.1037 0.4237
C16 C 0.7879(9) 1.0902(6) 0.39703(11)
H15 H 0.8735 1.1646 0.4076
C17 C 0.8638(8) 1.0175(7) 0.37169(10)
H16 H 0.9999 1.0439 0.3649
C18 C 0.7373(8) 0.9054(6) 0.35636(11)
H17 H 0.7895 0.8575 0.3392
C19 C 0.3923(7) 0.5034(6) 0.38568(9)
H18 H 0.4153 0.3831 0.3881
H19 H 0.4951 0.5636 0.3977
C20 C 0.1940(8) 0.6785(6) 0.44706(10)
C21 C 0.0715(8) 0.8236(6) 0.44905(10)
H20 H -0.0628 0.8284 0.4404
C22 C 0.1516(8) 0.9615(6) 0.46414(10)
H21 H 0.0706 1.0597 0.4654
C23 C 0.3527(8) 0.9553(6) 0.47750(10)
C24 C 0.4707(8) 0.8070(6) 0.47524(10)
H22 H 0.6044 0.8010 0.4841
C25 C 0.3936(8) 0.6684(6) 0.46017(9)
H23 H 0.4741 0.5700 0.4588
C26 C 0.4366(10) 1.1061(7) 0.49355(12)
H24 H 0.4124 1.2059 0.4821
H25 H 0.5871 1.0926 0.4969
H26 H 0.3643 1.1167 0.5120
loop_
_geom_bond_atom_site_label_1
_geom_bond_atom_site_label_2
_geom_bond_site_symmetry_1
_geom_bond_site_symmetry_2
S1 O4 1_555 1_555
O1 C3 1_555 1_555
O2 C10 1_555 1_555
O3 C10 1_555 1_555
O4 C19 1_555 1_555
O5 S1 1_555 1_555
O6 S1 1_555 1_555
C1 C2 1_555 1_555
C2 H1 1_555 1_555
H2 C2 1_555 1_555
C3 C2 1_555 1_555
H3 C3 1_555 1_555
H4 C3 1_555 1_555
C4 O1 1_555 1_555
C5 C4 1_555 1_555
H5 C5 1_555 1_555
C6 C5 1_555 1_555
H6 C6 1_555 1_555
C7 C6 1_555 1_555
H7 C7 1_555 1_555
C8 C7 1_555 1_555
H8 C8 1_555 1_555
C9 C4 1_555 1_555
C10 C9 1_555 1_555
C11 O2 1_555 1_555
H9 C11 1_555 1_555
H10 C11 1_555 1_555
C12 C1 1_555 1_555
H11 C12 1_555 1_555
H12 C12 1_555 1_555
C13 C12 1_555 1_555
C14 C13 1_555 1_555
H13 C14 1_555 1_555
C15 C14 1_555 1_555
H14 C15 1_555 1_555
C16 C15 1_555 1_555
H15 C16 1_555 1_555
C17 C16 1_555 1_555
H16 C17 1_555 1_555
C18 C13 1_555 1_555
H17 C18 1_555 1_555
C19 C1 1_555 1_555
H18 C19 1_555 1_555
H19 C19 1_555 1_555
C20 S1 1_555 1_555
C21 C20 1_555 1_555
H20 C21 1_555 1_555
C22 C21 1_555 1_555
H21 C22 1_555 1_555
C23 C22 1_555 1_555
C24 C23 1_555 1_555
H22 C24 1_555 1_555
C25 C20 1_555 1_555
H23 C25 1_555 1_555
C26 C23 1_555 1_555
H24 C26 1_555 1_555
H25 C26 1_555 1_555
H26 C26 1_555 1_555
C1 C11 1_555 1_555
C8 C9 1_555 1_555
C17 C18 1_555 1_555
C24 C25 1_555 1_555

#END
