
#######################################################################
#
#                 Cambridge Crystallographic Data Centre
#                                CCDC 
#
#######################################################################
#
# If this CIF has been generated from an entry in the Cambridge 
# Structural Database, then it will include bibliographic, chemical, 
# crystal, experimental, refinement or atomic coordinate data resulting 
# from the CCDC's data processing and validation procedures.
#
#######################################################################

data_OGELEU
_chemical_formula_moiety         'C44 H50 N2 Si4'
_chemical_name_systematic        
3,9-bis(trimethylsilyl)-6,12-bis(4-(trimethylsilyl)phenyl)tetracene-5,11-dicarbonitrile
_symmetry_cell_setting           monoclinic
_symmetry_space_group_name_H-M   'P 21/c'
_symmetry_Int_Tables_number      14
_space_group_name_Hall           '-P 2ybc'
loop_
_symmetry_equiv_pos_site_id
_symmetry_equiv_pos_as_xyz
1 x,y,z
2 -x,1/2+y,1/2-z
3 -x,-y,-z
4 x,1/2-y,1/2+z
_cell_length_a                   17.957(3)
_cell_length_b                   5.9124(9)
_cell_length_c                   22.486(3)
_cell_angle_alpha                90
_cell_angle_beta                 122.636(9)
_cell_angle_gamma                90
_cell_volume                     2010.39
_exptl_crystal_colour            'dark red'
_exptl_crystal_description       plate
_cell_formula_units_Z            2
_exptl_crystal_recrystallization_method 'slow evaporation of dichloromethane'
_exptl_crystal_preparation       ', Luminescent'
loop_
_atom_site_label
_atom_site_type_symbol
_atom_site_fract_x
_atom_site_fract_y
_atom_site_fract_z
Si1 Si 0.55009(7) -0.5313(2) 0.88734(6)
Si2 Si 0.82989(7) 0.5987(2) 0.69552(6)
C1 C 0.7995(2) -0.1680(7) 0.9158(2)
C2 C 0.9417(2) 0.2387(7) 0.8875(2)
C3 C 0.8707(2) 0.0962(7) 0.8755(2)
C4 C 0.7670(2) -0.3587(7) 0.8750(2)
H1 H 0.7949 -0.4164 0.8535
C5 C 0.9636(2) -0.0716(7) 0.9936(2)
C6 C 1.0224(2) 0.2285(7) 0.9537(2)
C7 C 0.7888(2) 0.1131(8) 0.8078(2)
H2 H 0.7408 0.0247 0.7985
C8 C 0.8499(2) 0.4021(7) 0.7684(2)
C9 C 0.7554(3) -0.0779(8) 0.9454(2)
H3 H 0.7752 0.0551 0.9715
C10 C 0.9283(2) 0.3926(7) 0.8334(2)
H4 H 0.9740 0.4894 0.8423
C11 C 0.6811(3) -0.1880(7) 0.9357(2)
H5 H 0.6525 -0.1274 0.9563
C12 C 0.6483(2) -0.3843(7) 0.8964(2)
C13 C 0.8799(2) -0.0476(7) 0.9277(2)
C14 C 0.7807(2) 0.2549(7) 0.7578(2)
H6 H 0.7274 0.2570 0.7142
C15 C 0.6920(2) -0.4672(8) 0.8654(2)
H7 H 0.6711 -0.5972 0.8378
C16 C 0.9137(3) 0.8249(8) 0.7309(2)
H8 H 0.9135 0.9018 0.7684
H9 H 0.9003 0.9305 0.6939
H10 H 0.9710 0.7602 0.7487
C17 C 1.0855(3) 0.3985(8) 0.9644(2)
C18 C 0.5827(3) -0.6627(8) 0.9731(2)
H11 H 0.6344 -0.7541 0.9896
H12 H 0.5352 -0.7556 0.9670
H13 H 0.5952 -0.5463 1.0071
C19 C 0.7140(2) 0.7108(8) 0.6517(2)
H14 H 0.6728 0.5930 0.6242
H15 H 0.7066 0.8348 0.6214
H16 H 0.7035 0.7619 0.6871
C20 C 0.5059(3) -0.7424(8) 0.8150(2)
H17 H 0.4914 -0.6686 0.7720
H18 H 0.4538 -0.8110 0.8089
H19 H 0.5497 -0.8567 0.8267
C21 C 0.4622(3) -0.3194(8) 0.8655(3)
H20 H 0.4863 -0.1996 0.8997
H21 H 0.4147 -0.3910 0.8662
H22 H 0.4403 -0.2583 0.8194
C22 C 0.8358(3) 0.4393(9) 0.6275(2)
H23 H 0.8931 0.3711 0.6485
H24 H 0.8260 0.5405 0.5906
H25 H 0.7913 0.3235 0.6082
N1 N 1.1243(10) 0.558(3) 0.9672(7)
Si1B Si 1.44991(7) 0.5313(2) 1.11266(6)
Si2B Si 1.17011(7) -0.5987(2) 1.30448(6)
C1B C 1.2005(2) 0.1680(7) 1.0842(2)
C2B C 1.0583(2) -0.2387(7) 1.1125(2)
C3B C 1.1293(2) -0.0962(7) 1.1245(2)
C4B C 1.2330(2) 0.3587(7) 1.1250(2)
H1B H 1.2051 0.4164 1.1465
C5B C 1.0364(2) 0.0716(7) 1.0064(2)
C6B C 0.9776(2) -0.2285(7) 1.0463(2)
C7B C 1.2112(2) -0.1131(8) 1.1922(2)
H2B H 1.2592 -0.0247 1.2015
C8B C 1.1501(2) -0.4021(7) 1.2316(2)
C9B C 1.2446(3) 0.0779(8) 1.0546(2)
H3B H 1.2248 -0.0551 1.0285
C10B C 1.0717(2) -0.3926(7) 1.1666(2)
H4B H 1.0260 -0.4894 1.1577
C11B C 1.3189(3) 0.1880(7) 1.0643(2)
H5B H 1.3475 0.1274 1.0437
C12B C 1.3517(2) 0.3843(7) 1.1036(2)
C13B C 1.1201(2) 0.0476(7) 1.0723(2)
C14B C 1.2193(2) -0.2549(7) 1.2422(2)
H6B H 1.2726 -0.2570 1.2858
C15B C 1.3080(2) 0.4672(8) 1.1346(2)
H7B H 1.3289 0.5972 1.1622
C16B C 1.0863(3) -0.8249(8) 1.2691(2)
H8B H 1.0865 -0.9018 1.2316
H9B H 1.0997 -0.9305 1.3061
H10B H 1.0290 -0.7602 1.2513
C17B C 0.9145(3) -0.3985(8) 1.0356(2)
C18B C 1.4173(3) 0.6627(8) 1.0269(2)
H11B H 1.3656 0.7541 1.0104
H12B H 1.4648 0.7556 1.0330
H13B H 1.4048 0.5463 0.9929
C19B C 1.2860(2) -0.7108(8) 1.3483(2)
H14B H 1.3272 -0.5930 1.3758
H15B H 1.2934 -0.8348 1.3786
H16B H 1.2965 -0.7619 1.3129
C20B C 1.4941(3) 0.7424(8) 1.1850(2)
H17B H 1.5086 0.6686 1.2280
H18B H 1.5462 0.8110 1.1911
H19B H 1.4503 0.8567 1.1733
C21B C 1.5378(3) 0.3194(8) 1.1345(3)
H20B H 1.5137 0.1996 1.1003
H21B H 1.5853 0.3910 1.1338
H22B H 1.5597 0.2583 1.1806
C22B C 1.1642(3) -0.4393(9) 1.3725(2)
H23B H 1.1069 -0.3711 1.3515
H24B H 1.1740 -0.5405 1.4094
H25B H 1.2087 -0.3235 1.3918
N1B N 0.8757(10) -0.558(3) 1.0328(7)
N2? N 1.139(2) 0.496(9) 0.960(3)
loop_
_geom_bond_atom_site_label_1
_geom_bond_atom_site_label_2
_geom_bond_site_symmetry_1
_geom_bond_site_symmetry_2
Si1 C12 1_555 1_555
Si2 C8 1_555 1_555
C1 C4 1_555 1_555
C2 C3 1_555 1_555
C3 C7 1_555 1_555
C4 H1 1_555 1_555
C5 C13 1_555 1_555
C6 C2 1_555 1_555
C7 H2 1_555 1_555
C8 C10 1_555 1_555
C9 C1 1_555 1_555
H3 C9 1_555 1_555
C10 C2 1_555 1_555
H4 C10 1_555 1_555
C11 C9 1_555 1_555
H5 C11 1_555 1_555
C12 C11 1_555 1_555
C13 C1 1_555 1_555
C14 C7 1_555 1_555
H6 C14 1_555 1_555
C15 C4 1_555 1_555
H7 C15 1_555 1_555
C16 Si2 1_555 1_555
H8 C16 1_555 1_555
H9 C16 1_555 1_555
H10 C16 1_555 1_555
C17 C6 1_555 1_555
C18 Si1 1_555 1_555
H11 C18 1_555 1_555
H12 C18 1_555 1_555
H13 C18 1_555 1_555
C19 Si2 1_555 1_555
H14 C19 1_555 1_555
H15 C19 1_555 1_555
H16 C19 1_555 1_555
C20 Si1 1_555 1_555
H17 C20 1_555 1_555
H18 C20 1_555 1_555
H19 C20 1_555 1_555
C21 Si1 1_555 1_555
H20 C21 1_555 1_555
H21 C21 1_555 1_555
H22 C21 1_555 1_555
C22 Si2 1_555 1_555
H23 C22 1_555 1_555
H24 C22 1_555 1_555
H25 C22 1_555 1_555
N1 C17 1_555 1_555
Si1B C12B 1_555 1_555
Si2B C8B 1_555 1_555
C1B C4B 1_555 1_555
C2B C3B 1_555 1_555
C3B C7B 1_555 1_555
C4B H1B 1_555 1_555
C5B C5 1_555 1_555
C6B C5 1_555 1_555
C7B H2B 1_555 1_555
C8B C10B 1_555 1_555
C9B C1B 1_555 1_555
H3B C9B 1_555 1_555
C10B C2B 1_555 1_555
H4B C10B 1_555 1_555
C11B C9B 1_555 1_555
H5B C11B 1_555 1_555
C12B C11B 1_555 1_555
C13B C1B 1_555 1_555
C14B C7B 1_555 1_555
H6B C14B 1_555 1_555
C15B C4B 1_555 1_555
H7B C15B 1_555 1_555
C16B Si2B 1_555 1_555
H8B C16B 1_555 1_555
H9B C16B 1_555 1_555
H10B C16B 1_555 1_555
C17B C6B 1_555 1_555
C18B Si1B 1_555 1_555
H11B C18B 1_555 1_555
H12B C18B 1_555 1_555
H13B C18B 1_555 1_555
C19B Si2B 1_555 1_555
H14B C19B 1_555 1_555
H15B C19B 1_555 1_555
H16B C19B 1_555 1_555
C20B Si1B 1_555 1_555
H17B C20B 1_555 1_555
H18B C20B 1_555 1_555
H19B C20B 1_555 1_555
C21B Si1B 1_555 1_555
H20B C21B 1_555 1_555
H21B C21B 1_555 1_555
H22B C21B 1_555 1_555
C22B Si2B 1_555 1_555
H23B C22B 1_555 1_555
H24B C22B 1_555 1_555
H25B C22B 1_555 1_555
N1B C17B 1_555 1_555
C3 C13 1_555 1_555
C6 C5B 1_555 1_555
C8 C14 1_555 1_555
C12 C15 1_555 1_555
C2B C6B 1_555 1_555
C3B C13B 1_555 1_555
C5B C13B 1_555 1_555
C8B C14B 1_555 1_555
C12B C15B 1_555 1_555

#END
