
#######################################################################
#
#                 Cambridge Crystallographic Data Centre
#                                CCDC 
#
#######################################################################
#
# If this CIF has been generated from an entry in the Cambridge 
# Structural Database, then it will include bibliographic, chemical, 
# crystal, experimental, refinement or atomic coordinate data resulting 
# from the CCDC's data processing and validation procedures.
#
#######################################################################

data_OGELOC
_chemical_formula_moiety         'C20 H16 O4'
_chemical_name_systematic        
3-(4-(Benzyloxy)phenyl)-1-(2-furyl)-3-hydroxyprop-2-en-1-one
_symmetry_cell_setting           triclinic
_symmetry_space_group_name_H-M   'P -1'
_symmetry_Int_Tables_number      2
_space_group_name_Hall           '-P 1'
loop_
_symmetry_equiv_pos_site_id
_symmetry_equiv_pos_as_xyz
1 x,y,z
2 -x,-y,-z
_cell_length_a                   5.8927(6)
_cell_length_b                   11.3365(11)
_cell_length_c                   13.3039(13)
_cell_angle_alpha                112.111(3)
_cell_angle_beta                 96.687(3)
_cell_angle_gamma                98.638(3)
_cell_volume                     799.387
_exptl_crystal_colour            yellow
_exptl_crystal_description       block
_chemical_melting_point          '403 K'
_cell_formula_units_Z            2
_exptl_crystal_recrystallization_method dichloromethane/ethanol
loop_
_atom_site_label
_atom_site_type_symbol
_atom_site_fract_x
_atom_site_fract_y
_atom_site_fract_z
C1 C -0.1919(3) 0.94140(17) -0.21175(14)
H1 H -0.2852 0.9490 -0.1588
C2 C -0.2151(3) 1.01001(18) -0.27760(15)
H2 H -0.3229 1.0636 -0.2686
C3 C -0.0791(3) 0.99904(18) -0.35624(13)
H3 H -0.0943 1.0449 -0.4008
C4 C 0.0791(4) 0.9200(2) -0.36863(14)
H4 H 0.1716 0.9124 -0.4219
C5 C 0.1021(3) 0.85205(18) -0.30303(14)
H5 H 0.2100 0.7986 -0.3124
C6 C -0.0332(3) 0.86224(15) -0.22321(12)
C7 C -0.0042(3) 0.78860(17) -0.15223(14)
H6 H -0.1266 0.7946 -0.1088
H7 H -0.0133 0.6975 -0.1976
C8 C 0.2985(3) 0.78337(14) -0.01798(12)
C9 C 0.1650(3) 0.67956(17) -0.00705(15)
H8 H 0.0099 0.6479 -0.0432
C10 C 0.2624(3) 0.62314(17) 0.05756(14)
H9 H 0.1708 0.5530 0.0641
C11 C 0.4923(3) 0.66708(14) 0.11326(12)
C12 C 0.6215(3) 0.77425(15) 0.10371(12)
H10 H 0.7755 0.8073 0.1413
C13 C 0.5265(3) 0.83230(15) 0.04000(13)
H11 H 0.6155 0.9047 0.0357
C14 C 0.5877(3) 0.60034(15) 0.17882(12)
C15 C 0.8145(3) 0.63971(16) 0.23933(13)
H12 H 0.9149 0.7099 0.2370
C16 C 0.8939(3) 0.57587(17) 0.30329(13)
C17 C 1.1263(3) 0.62181(18) 0.37217(13)
C18 C 1.2389(4) 0.5838(2) 0.44496(16)
H13 H 1.1821 0.5149 0.4632
C19 C 1.4595(4) 0.6689(3) 0.48793(17)
H14 H 1.5767 0.6671 0.5402
C20 C 1.4681(4) 0.7517(2) 0.43989(17)
H15 H 1.5957 0.8185 0.4537
O1 O 0.22079(19) 0.84506(10) -0.08083(9)
O2 O 0.4480(2) 0.49997(11) 0.17879(10)
O3 O 0.7661(2) 0.47547(13) 0.30691(11)
O4 O 1.2673(2) 0.72692(13) 0.36792(9)
H16 H 0.573(4) 0.473(2) 0.2360(18)
loop_
_geom_bond_atom_site_label_1
_geom_bond_atom_site_label_2
_geom_bond_site_symmetry_1
_geom_bond_site_symmetry_2
C1 H1 1_555 1_555
C2 C1 1_555 1_555
H2 C2 1_555 1_555
C3 C2 1_555 1_555
H3 C3 1_555 1_555
C4 C3 1_555 1_555
H4 C4 1_555 1_555
C5 C4 1_555 1_555
H5 C5 1_555 1_555
C6 C1 1_555 1_555
C7 C6 1_555 1_555
H6 C7 1_555 1_555
H7 C7 1_555 1_555
C8 C9 1_555 1_555
C9 H8 1_555 1_555
C10 C9 1_555 1_555
H9 C10 1_555 1_555
C11 C10 1_555 1_555
C12 C11 1_555 1_555
H10 C12 1_555 1_555
C13 C8 1_555 1_555
H11 C13 1_555 1_555
C14 C11 1_555 1_555
C15 C14 1_555 1_555
H12 C15 1_555 1_555
C16 C15 1_555 1_555
C17 C16 1_555 1_555
C18 C17 1_555 1_555
H13 C18 1_555 1_555
C19 C18 1_555 1_555
H14 C19 1_555 1_555
C20 C19 1_555 1_555
H15 C20 1_555 1_555
O1 C7 1_555 1_555
O2 C14 1_555 1_555
O3 C16 1_555 1_555
O4 C17 1_555 1_555
H16 O2 1_555 1_555
C5 C6 1_555 1_555
C8 O1 1_555 1_555
C12 C13 1_555 1_555
C20 O4 1_555 1_555

#END
