
#######################################################################
#
#                 Cambridge Crystallographic Data Centre
#                                CCDC 
#
#######################################################################
#
# If this CIF has been generated from an entry in the Cambridge 
# Structural Database, then it will include bibliographic, chemical, 
# crystal, experimental, refinement or atomic coordinate data resulting 
# from the CCDC's data processing and validation procedures.
#
#######################################################################

data_OGEMUJ
_chemical_formula_moiety         'C20 H19 Br2 N1 O1'
_chemical_name_systematic        
2,4-bis(3-Bromophenyl)-3-azabicyclo(3.3.1)nonan-9-one
_symmetry_cell_setting           orthorhombic
_symmetry_space_group_name_H-M   'P n m a'
_symmetry_Int_Tables_number      62
_space_group_name_Hall           '-P 2ac 2n'
loop_
_symmetry_equiv_pos_site_id
_symmetry_equiv_pos_as_xyz
1 x,y,z
2 1/2-x,-y,1/2+z
3 -x,1/2+y,-z
4 1/2+x,1/2-y,1/2-z
5 -x,-y,-z
6 1/2+x,y,1/2-z
7 x,1/2-y,z
8 1/2-x,1/2+y,1/2+z
_cell_length_a                   7.1595(6)
_cell_length_b                   24.5891(19)
_cell_length_c                   10.2598(6)
_cell_angle_alpha                90
_cell_angle_beta                 90
_cell_angle_gamma                90
_cell_volume                     1806.19
_exptl_crystal_colour            colorless
_exptl_crystal_description       block
_cell_formula_units_Z            4
_exptl_crystal_recrystallization_method acetone
loop_
_atom_site_label
_atom_site_type_symbol
_atom_site_fract_x
_atom_site_fract_y
_atom_site_fract_z
Br1 Br 0.06375(6) 0.580496(16) 0.86233(5)
C1 C 0.5903(4) 0.70119(11) 1.1050(3)
H1 H 0.6284 0.7040 1.1965
C2 C 0.7711(4) 0.69950(12) 1.0210(3)
H2 H 0.8451 0.6677 1.0462
C3 C 0.8806(6) 0.7500 1.0506(4)
C4 C 0.7389(4) 0.69827(13) 0.8727(3)
H3 H 0.8577 0.6919 0.8298
H4 H 0.6577 0.6679 0.8521
C5 C 0.6529(6) 0.7500 0.8173(4)
H5 H 0.6685 0.7500 0.7234
H6 H 0.5200 0.7500 0.8356
C6 C 0.4822(4) 0.64879(11) 1.0899(3)
C7 C 0.3394(4) 0.64162(11) 1.0003(3)
H7 H 0.2983 0.6707 0.9498
C8 C 0.2582(4) 0.59064(12) 0.9868(3)
C9 C 0.3157(5) 0.54686(12) 1.0597(4)
H8 H 0.2610 0.5129 1.0488
C10 C 0.4556(6) 0.55456(15) 1.1489(4)
H9 H 0.4955 0.5254 1.1996
C11 C 0.5382(5) 0.60472(14) 1.1647(4)
H10 H 0.6324 0.6091 1.2262
N1 N 0.4821(5) 0.7500 1.0736(3)
O1 O 1.0403(4) 0.7500 1.0910(3)
H11 H 0.376(6) 0.7500 1.115(4)
Br1F Br 0.06375(6) 0.919504(16) 0.86233(5)
C1F C 0.5903(4) 0.79881(11) 1.1050(3)
H1F H 0.6284 0.7960 1.1965
C2F C 0.7711(4) 0.80050(12) 1.0210(3)
H2F H 0.8451 0.8323 1.0462
C4F C 0.7389(4) 0.80173(13) 0.8727(3)
H3F H 0.8577 0.8081 0.8298
H4F H 0.6577 0.8321 0.8521
C6F C 0.4822(4) 0.85121(11) 1.0899(3)
C7F C 0.3394(4) 0.85838(11) 1.0003(3)
H7F H 0.2983 0.8293 0.9498
C8F C 0.2582(4) 0.90936(12) 0.9868(3)
C9F C 0.3157(5) 0.95314(12) 1.0597(4)
H8F H 0.2610 0.9871 1.0488
C10F C 0.4556(6) 0.94544(15) 1.1489(4)
H9F H 0.4955 0.9746 1.1996
C11F C 0.5382(5) 0.89528(14) 1.1647(4)
H10F H 0.6324 0.8909 1.2262
loop_
_geom_bond_atom_site_label_1
_geom_bond_atom_site_label_2
_geom_bond_site_symmetry_1
_geom_bond_site_symmetry_2
Br1 C8 1_555 1_555
C1 H1 1_555 1_555
C2 C1 1_555 1_555
H2 C2 1_555 1_555
C3 C2 1_555 1_555
C4 C2 1_555 1_555
H3 C4 1_555 1_555
H4 C4 1_555 1_555
C5 C4 1_555 1_555
H5 C5 1_555 1_555
H6 C5 1_555 1_555
C6 C1 1_555 1_555
C7 C6 1_555 1_555
H7 C7 1_555 1_555
C8 C7 1_555 1_555
C9 C8 1_555 1_555
H8 C9 1_555 1_555
C10 C9 1_555 1_555
H9 C10 1_555 1_555
C11 C6 1_555 1_555
H10 C11 1_555 1_555
N1 C1 1_555 1_555
O1 C3 1_555 1_555
H11 N1 1_555 1_555
Br1F C8F 1_555 1_555
C1F N1 1_555 1_555
H1F C1F 1_555 1_555
C2F C3 1_555 1_555
H2F C2F 1_555 1_555
C4F C5 1_555 1_555
H3F C4F 1_555 1_555
H4F C4F 1_555 1_555
C6F C1F 1_555 1_555
C7F C6F 1_555 1_555
H7F C7F 1_555 1_555
C8F C7F 1_555 1_555
C9F C8F 1_555 1_555
H8F C9F 1_555 1_555
C10F C9F 1_555 1_555
H9F C10F 1_555 1_555
C11F C6F 1_555 1_555
H10F C11F 1_555 1_555
C10 C11 1_555 1_555
C1F C2F 1_555 1_555
C2F C4F 1_555 1_555
C10F C11F 1_555 1_555

#END
