
#######################################################################
#
#                 Cambridge Crystallographic Data Centre
#                                CCDC 
#
#######################################################################
#
# If this CIF has been generated from an entry in the Cambridge 
# Structural Database, then it will include bibliographic, chemical, 
# crystal, experimental, refinement or atomic coordinate data resulting 
# from the CCDC's data processing and validation procedures.
#
#######################################################################

data_OGENIA
_chemical_formula_moiety         'C13 H11 Br1 O2 S1'
_chemical_name_systematic        1-[(4-bromophenyl)sulfinyl]-3-methoxybenzene
_symmetry_cell_setting           triclinic
_symmetry_space_group_name_H-M   'P -1'
_symmetry_Int_Tables_number      2
_space_group_name_Hall           '-P 1'
loop_
_symmetry_equiv_pos_site_id
_symmetry_equiv_pos_as_xyz
1 x,y,z
2 -x,-y,-z
_cell_length_a                   6.6244(3)
_cell_length_b                   9.5477(5)
_cell_length_c                   11.0255(5)
_cell_angle_alpha                69.7280(10)
_cell_angle_beta                 77.3960(10)
_cell_angle_gamma                74.1380(10)
_cell_volume                     623.314
_exptl_crystal_colour            yellow
_exptl_crystal_description       block
_cell_formula_units_Z            2
loop_
_atom_site_label
_atom_site_type_symbol
_atom_site_fract_x
_atom_site_fract_y
_atom_site_fract_z
Br1 Br 0.16185(5) 0.51330(4) 0.76812(3)
S1 S -0.31684(12) 0.02444(8) 1.21266(7)
O1 O -0.1732(3) 0.1884(3) 1.5692(2)
O2 O -0.5087(4) 0.0263(3) 1.1641(2)
C1 C -0.1861(4) 0.1635(3) 1.0892(3)
C2 C 0.0319(5) 0.1355(3) 1.0720(3)
H1 H 0.1084 0.0470 1.1250
C3 C 0.1363(5) 0.2389(4) 0.9762(3)
H2 H 0.2835 0.2208 0.9639
C4 C 0.0199(5) 0.3692(3) 0.8990(3)
C5 C -0.1986(5) 0.3981(3) 0.9149(3)
H3 H -0.2746 0.4867 0.8618
C6 C -0.3026(5) 0.2945(3) 1.0100(3)
H4 H -0.4497 0.3119 1.0212
C7 C -0.4033(4) 0.1270(3) 1.3309(3)
C8 C -0.6130(5) 0.2032(3) 1.3463(3)
H5 H -0.7089 0.2033 1.2959
C9 C -0.6746(5) 0.2789(3) 1.4392(3)
H6 H -0.8143 0.3317 1.4509
C10 C -0.5335(5) 0.2782(3) 1.5151(3)
H7 H -0.5778 0.3307 1.5765
C11 C -0.3256(4) 0.1987(3) 1.4991(3)
C12 C -0.2607(4) 0.1224(3) 1.4062(3)
H8 H -0.1215 0.0686 1.3950
C13 C -0.2294(6) 0.2656(4) 1.6654(3)
H9 H -0.1082 0.2490 1.7070
H10 H -0.3408 0.2267 1.7295
H11 H -0.2774 0.3732 1.6247
loop_
_geom_bond_atom_site_label_1
_geom_bond_atom_site_label_2
_geom_bond_site_symmetry_1
_geom_bond_site_symmetry_2
Br1 C4 1_555 1_555
S1 O2 1_555 1_555
O1 C11 1_555 1_555
C1 S1 1_555 1_555
C2 C1 1_555 1_555
H1 C2 1_555 1_555
C3 C2 1_555 1_555
H2 C3 1_555 1_555
C4 C3 1_555 1_555
C5 C4 1_555 1_555
H3 C5 1_555 1_555
C6 C1 1_555 1_555
H4 C6 1_555 1_555
C7 S1 1_555 1_555
C8 C7 1_555 1_555
H5 C8 1_555 1_555
C9 C8 1_555 1_555
H6 C9 1_555 1_555
C10 C9 1_555 1_555
H7 C10 1_555 1_555
C11 C10 1_555 1_555
C12 C7 1_555 1_555
H8 C12 1_555 1_555
C13 O1 1_555 1_555
H9 C13 1_555 1_555
H10 C13 1_555 1_555
H11 C13 1_555 1_555
C5 C6 1_555 1_555
C11 C12 1_555 1_555

#END
