
#######################################################################
#
#                 Cambridge Crystallographic Data Centre
#                                CCDC 
#
#######################################################################
#
# If this CIF has been generated from an entry in the Cambridge 
# Structural Database, then it will include bibliographic, chemical, 
# crystal, experimental, refinement or atomic coordinate data resulting 
# from the CCDC's data processing and validation procedures.
#
#######################################################################

data_OGENIZ
_chemical_formula_moiety         'C14 H11 Br3 N2 O1'
_chemical_name_systematic        
8,9,10-Tribromo-1-phenyl-1,4-diazaspiro[4.5]deca-3,6-dien-2-one
_symmetry_cell_setting           monoclinic
_symmetry_space_group_name_H-M   'P 21/n'
_symmetry_Int_Tables_number      14
_space_group_name_Hall           '-P 2yn'
loop_
_symmetry_equiv_pos_site_id
_symmetry_equiv_pos_as_xyz
1 x,y,z
2 1/2-x,1/2+y,1/2-z
3 -x,-y,-z
4 1/2+x,1/2-y,1/2+z
_cell_length_a                   10.5051(2)
_cell_length_b                   10.4063(2)
_cell_length_c                   14.7156(3)
_cell_angle_alpha                90
_cell_angle_beta                 107.786(2)
_cell_angle_gamma                90
_cell_volume                     1531.81
_exptl_crystal_colour            'light yellow'
_exptl_crystal_description       block
_cell_formula_units_Z            4
loop_
_atom_site_label
_atom_site_type_symbol
_atom_site_fract_x
_atom_site_fract_y
_atom_site_fract_z
Br1 Br 0.41789(4) 0.33754(4) 0.44088(2)
Br2 Br 0.27654(4) 0.56972(3) 0.16524(2)
Br3 Br 0.24667(3) 0.24589(3) 0.08570(2)
O1 O 0.6460(3) 0.1263(3) 0.04475(18)
N1 N 0.5044(3) 0.4066(3) 0.09877(19)
N2 N 0.5732(3) 0.2062(3) 0.16778(17)
C1 C 0.6079(3) 0.4017(3) 0.2687(2)
H1 H 0.6980 0.4058 0.2729
C2 C 0.5697(3) 0.4590(3) 0.3366(2)
H2 H 0.6339 0.5015 0.3851
C3 C 0.4299(3) 0.4583(3) 0.33910(19)
H3 H 0.4072 0.5448 0.3554
C4 C 0.3272(3) 0.4171(3) 0.24652(18)
H4 H 0.2477 0.3870 0.2617
C5 C 0.3796(2) 0.3065(3) 0.20127(17)
H5 H 0.3941 0.2354 0.2469
C6 C 0.5148(3) 0.3303(3) 0.18473(19)
C7 C 0.5533(4) 0.3410(4) 0.0449(2)
H6 H 0.5609 0.3721 -0.0125
C8 C 0.5976(3) 0.2096(4) 0.0815(2)
C9 C 0.5781(3) 0.0931(3) 0.2231(2)
C10 C 0.5227(3) -0.0195(4) 0.1780(3)
H7 H 0.4840 -0.0214 0.1121
C11 C 0.5253(4) -0.1288(4) 0.2315(4)
H8 H 0.4892 -0.2048 0.2012
C12 C 0.5811(5) -0.1266(5) 0.3299(4)
H9 H 0.5824 -0.2005 0.3656
C13 C 0.6339(5) -0.0148(5) 0.3736(3)
H10 H 0.6694 -0.0128 0.4398
C14 C 0.6359(4) 0.0957(4) 0.3218(2)
H11 H 0.6751 0.1705 0.3524
loop_
_geom_bond_atom_site_label_1
_geom_bond_atom_site_label_2
_geom_bond_site_symmetry_1
_geom_bond_site_symmetry_2
Br1 C3 1_555 1_555
Br2 C4 1_555 1_555
Br3 C5 1_555 1_555
O1 C8 1_555 1_555
N1 C6 1_555 1_555
N2 C6 1_555 1_555
C1 H1 1_555 1_555
C2 C1 1_555 1_555
H2 C2 1_555 1_555
C3 C2 1_555 1_555
H3 C3 1_555 1_555
C4 C3 1_555 1_555
H4 C4 1_555 1_555
C5 C4 1_555 1_555
H5 C5 1_555 1_555
C6 C1 1_555 1_555
C7 N1 1_555 1_555
H6 C7 1_555 1_555
C8 N2 1_555 1_555
C9 N2 1_555 1_555
C10 C9 1_555 1_555
H7 C10 1_555 1_555
C11 C10 1_555 1_555
H8 C11 1_555 1_555
C12 C11 1_555 1_555
H9 C12 1_555 1_555
C13 C12 1_555 1_555
H10 C13 1_555 1_555
C14 C9 1_555 1_555
H11 C14 1_555 1_555
C5 C6 1_555 1_555
C7 C8 1_555 1_555
C13 C14 1_555 1_555

#END
