
#######################################################################
#
#                 Cambridge Crystallographic Data Centre
#                                CCDC 
#
#######################################################################
#
# If this CIF has been generated from an entry in the Cambridge 
# Structural Database, then it will include bibliographic, chemical, 
# crystal, experimental, refinement or atomic coordinate data resulting 
# from the CCDC's data processing and validation procedures.
#
#######################################################################

data_OGENAS
_chemical_formula_moiety         'C23 H19 F3 N4 O2'
_chemical_name_systematic        
3'-benzyl-5-methyl-1-(pyrimidin-2-yl)-2-(trifluoromethyl)-1,2-dihydro-2'H-spiro[indole-3,5'-[1,3]oxazolidin]-2'-one
_symmetry_cell_setting           monoclinic
_symmetry_space_group_name_H-M   'P 21/n'
_symmetry_Int_Tables_number      14
_space_group_name_Hall           '-P 2yn'
loop_
_symmetry_equiv_pos_site_id
_symmetry_equiv_pos_as_xyz
1 x,y,z
2 1/2-x,1/2+y,1/2-z
3 -x,-y,-z
4 1/2+x,1/2-y,1/2+z
_cell_length_a                   8.76727(17)
_cell_length_b                   24.7029(5)
_cell_length_c                   9.7159(2)
_cell_angle_alpha                90
_cell_angle_beta                 100.5551(18)
_cell_angle_gamma                90
_cell_volume                     2068.63
_cell_formula_units_Z            4
loop_
_atom_site_label
_atom_site_type_symbol
_atom_site_fract_x
_atom_site_fract_y
_atom_site_fract_z
F1 F 0.22297(12) 0.39991(5) 0.40880(12)
F2 F 0.23796(12) 0.33002(4) 0.28210(12)
F3 F 0.32880(13) 0.40631(5) 0.22671(12)
O1 O 0.69883(14) 0.30613(5) 0.42452(12)
O2 O 0.85705(14) 0.23814(5) 0.38569(13)
N1 N 0.53776(16) 0.40687(6) 0.50353(15)
N2 N 0.67568(16) 0.27504(6) 0.20878(15)
N3 N 0.42467(17) 0.38133(6) 0.69000(15)
N4 N 0.60888(18) 0.45360(6) 0.71237(16)
C1 C 0.52290(19) 0.41447(7) 0.64161(17)
C2 C 0.47075(18) 0.35959(6) 0.42361(17)
H1 H 0.4575 0.3295 0.4892
C3 C 0.59461(19) 0.34382(7) 0.33640(16)
C4 C 0.7955(2) 0.27622(7) -0.00118(18)
C5 C 0.68056(19) 0.39637(7) 0.32983(18)
C6 C 0.7076(2) 0.24338(7) 0.09031(18)
H2 H 0.6084 0.2308 0.0336
H3 H 0.7693 0.2110 0.1256
C7 C 0.75375(19) 0.26949(7) 0.34050(18)
C8 C 0.65051(19) 0.43071(7) 0.43470(17)
C9 C 0.5479(2) 0.31273(7) 0.19843(17)
H4 H 0.4475 0.2938 0.1938
H5 H 0.5419 0.3369 0.1163
C10 C 0.31413(19) 0.37421(7) 0.33531(18)
C11 C 0.7269(2) 0.29221(8) -0.13496(19)
H6 H 0.6216 0.2832 -0.1702
C12 C 0.7818(2) 0.41152(8) 0.24270(19)
H7 H 0.8017 0.3879 0.1709
C13 C 0.8232(2) 0.49530(8) 0.3683(2)
H8 H 0.8735 0.5295 0.3814
C14 C 0.7218(2) 0.48089(7) 0.4565(2)
H9 H 0.7022 0.5044 0.5287
C15 C 0.4115(2) 0.38888(8) 0.8236(2)
H10 H 0.3429 0.3663 0.8628
C16 C 0.8543(2) 0.46201(8) 0.2620(2)
C17 C 0.4937(3) 0.42827(8) 0.9068(2)
H11 H 0.4826 0.4335 1.0014
C18 C 0.9484(2) 0.29102(9) 0.04905(19)
H12 H 0.9966 0.2806 0.1409
C19 C 0.5922(2) 0.45950(8) 0.8455(2)
H13 H 0.6514 0.4866 0.9004
C20 C 0.9624(2) 0.33564(9) -0.1671(2)
H14 H 1.0194 0.3557 -0.2241
C21 C 0.8108(2) 0.32130(9) -0.2178(2)
H15 H 0.7634 0.3314 -0.3100
C22 C 1.0316(2) 0.32073(10) -0.0326(2)
H16 H 1.1358 0.3309 0.0034
C23 C 0.9637(3) 0.48043(10) 0.1681(3)
H17 H 0.9817 0.4506 0.1066
H18 H 1.0625 0.4915 0.2256
H19 H 0.9179 0.5111 0.1113
loop_
_geom_bond_atom_site_label_1
_geom_bond_atom_site_label_2
_geom_bond_site_symmetry_1
_geom_bond_site_symmetry_2
F1 C10 1_555 1_555
F2 C10 1_555 1_555
F3 C10 1_555 1_555
O1 C3 1_555 1_555
O2 C7 1_555 1_555
N1 C1 1_555 1_555
N2 C6 1_555 1_555
N3 C1 1_555 1_555
N4 C1 1_555 1_555
C2 N1 1_555 1_555
H1 C2 1_555 1_555
C3 C2 1_555 1_555
C4 C6 1_555 1_555
C5 C3 1_555 1_555
C6 H2 1_555 1_555
H3 C6 1_555 1_555
C7 O1 1_555 1_555
C8 N1 1_555 1_555
C9 N2 1_555 1_555
H4 C9 1_555 1_555
H5 C9 1_555 1_555
C10 C2 1_555 1_555
C11 C4 1_555 1_555
H6 C11 1_555 1_555
C12 C5 1_555 1_555
H7 C12 1_555 1_555
C13 H8 1_555 1_555
C14 C8 1_555 1_555
H9 C14 1_555 1_555
C15 N3 1_555 1_555
H10 C15 1_555 1_555
C16 C12 1_555 1_555
C17 C15 1_555 1_555
H11 C17 1_555 1_555
C18 C4 1_555 1_555
H12 C18 1_555 1_555
C19 N4 1_555 1_555
H13 C19 1_555 1_555
C20 H14 1_555 1_555
C21 C11 1_555 1_555
H15 C21 1_555 1_555
C22 C18 1_555 1_555
H16 C22 1_555 1_555
C23 C16 1_555 1_555
H17 C23 1_555 1_555
H18 C23 1_555 1_555
H19 C23 1_555 1_555
N2 C7 1_555 1_555
C3 C9 1_555 1_555
C5 C8 1_555 1_555
C13 C14 1_555 1_555
C13 C16 1_555 1_555
C17 C19 1_555 1_555
C20 C21 1_555 1_555
C20 C22 1_555 1_555

#END
