
#######################################################################
#
#                 Cambridge Crystallographic Data Centre
#                                CCDC 
#
#######################################################################
#
# If this CIF has been generated from an entry in the Cambridge 
# Structural Database, then it will include bibliographic, chemical, 
# crystal, experimental, refinement or atomic coordinate data resulting 
# from the CCDC's data processing and validation procedures.
#
#######################################################################

data_OGEPOG
_chemical_formula_moiety         'C10 H8 N2,C15 H10 O5'
_chemical_name_systematic        
"4-(2-Carboxybenzoyl)benzoic acid 4,4'-bipyridine"
_symmetry_cell_setting           monoclinic
_symmetry_space_group_name_H-M   'P 21/n'
_symmetry_Int_Tables_number      14
_space_group_name_Hall           '-P 2yn'
loop_
_symmetry_equiv_pos_site_id
_symmetry_equiv_pos_as_xyz
1 x,y,z
2 1/2-x,1/2+y,1/2-z
3 -x,-y,-z
4 1/2+x,1/2-y,1/2+z
_cell_length_a                   7.6883(6)
_cell_length_b                   24.1886(18)
_cell_length_c                   10.9560(8)
_cell_angle_alpha                90
_cell_angle_beta                 95.8730(10)
_cell_angle_gamma                90
_cell_volume                     2026.78
_exptl_crystal_colour            colorless
_exptl_crystal_description       block
_cell_formula_units_Z            4
loop_
_atom_site_label
_atom_site_type_symbol
_atom_site_fract_x
_atom_site_fract_y
_atom_site_fract_z
N1 N 0.7560(3) 0.00682(8) 0.99002(17)
N2 N 0.9586(2) 0.15564(8) 0.46655(17)
C1 C 0.9364(3) 0.18081(10) 0.5716(2)
H3 H 0.9493 0.2190 0.5754
C2 C 0.8955(3) 0.15357(10) 0.6751(2)
H4 H 0.8810 0.1733 0.7463
C3 C 0.8761(3) 0.09687(9) 0.67290(19)
C4 C 0.8951(3) 0.07078(10) 0.5629(2)
H5 H 0.8804 0.0327 0.5560
C5 C 0.9359(3) 0.10128(11) 0.4632(2)
H6 H 0.9480 0.0828 0.3901
C6 C 0.8351(3) 0.06565(9) 0.7835(2)
C7 C 0.8857(3) 0.08447(10) 0.9015(2)
H7 H 0.9477 0.1174 0.9134
C8 C 0.8436(3) 0.05426(11) 1.0008(2)
H8 H 0.8781 0.0677 1.0791
C9 C 0.7071(3) -0.01128(10) 0.8773(2)
H9 H 0.6445 -0.0442 0.8682
C10 C 0.7445(3) 0.01621(10) 0.7733(2)
H10 H 0.7089 0.0016 0.6962
O1 O 0.2912(3) -0.00260(8) 0.69911(15)
O2 O 0.3035(3) 0.06365(7) 0.84053(15)
H1 H 0.2837 0.0379 0.8859
O3 O 0.5482(2) 0.25808(7) 0.42728(14)
O4 O 0.0942(2) 0.13238(8) 0.19022(17)
O5 O 0.1584(2) 0.20365(7) 0.31530(14)
H2 H 0.0822 0.1908 0.3541
C11 C 0.4552(3) 0.11251(9) 0.44658(19)
H11 H 0.4816 0.1016 0.3692
C12 C 0.4068(3) 0.07337(9) 0.5287(2)
H12 H 0.4006 0.0363 0.5060
C13 C 0.3673(3) 0.08886(9) 0.64455(19)
C14 C 0.3797(3) 0.14392(10) 0.6772(2)
H13 H 0.3544 0.1548 0.7548
C15 C 0.4293(3) 0.18291(9) 0.59573(19)
H14 H 0.4392 0.2198 0.6194
C16 C 0.4644(3) 0.16755(9) 0.47894(19)
C17 C 0.3161(3) 0.04481(11) 0.7299(2)
C18 C 0.5073(3) 0.21165(10) 0.3914(2)
C19 C 0.5114(3) 0.19699(9) 0.25883(18)
C20 C 0.6710(3) 0.20203(9) 0.2104(2)
H15 H 0.7674 0.2158 0.2592
C21 C 0.6878(3) 0.18689(10) 0.0910(2)
H16 H 0.7957 0.1898 0.0602
C22 C 0.5460(3) 0.16750(10) 0.0174(2)
H17 H 0.5575 0.1576 -0.0634
C23 C 0.3861(3) 0.16268(9) 0.0633(2)
H18 H 0.2902 0.1496 0.0129
C24 C 0.3669(3) 0.17700(9) 0.18334(19)
C25 C 0.1923(3) 0.16868(10) 0.2289(2)
loop_
_geom_bond_atom_site_label_1
_geom_bond_atom_site_label_2
_geom_bond_site_symmetry_1
_geom_bond_site_symmetry_2
N1 C8 1_555 1_555
N2 C1 1_555 1_555
O1 C17 1_555 1_555
O2 H1 1_555 1_555
O3 C18 1_555 1_555
O4 C25 1_555 1_555
O5 H2 1_555 1_555
C1 H3 1_555 1_555
C2 C1 1_555 1_555
H4 C2 1_555 1_555
C3 C2 1_555 1_555
C4 C3 1_555 1_555
H5 C4 1_555 1_555
C5 N2 1_555 1_555
H6 C5 1_555 1_555
C6 C3 1_555 1_555
C7 C6 1_555 1_555
H7 C7 1_555 1_555
C8 C7 1_555 1_555
H8 C8 1_555 1_555
C9 N1 1_555 1_555
H9 C9 1_555 1_555
C10 C6 1_555 1_555
H10 C10 1_555 1_555
C11 H11 1_555 1_555
C12 C11 1_555 1_555
H12 C12 1_555 1_555
C13 C12 1_555 1_555
C14 C13 1_555 1_555
H13 C14 1_555 1_555
C15 C14 1_555 1_555
H14 C15 1_555 1_555
C16 C11 1_555 1_555
C17 O2 1_555 1_555
C18 C16 1_555 1_555
C19 C18 1_555 1_555
C20 C19 1_555 1_555
H15 C20 1_555 1_555
C21 C20 1_555 1_555
H16 C21 1_555 1_555
C22 C21 1_555 1_555
H17 C22 1_555 1_555
C23 C22 1_555 1_555
H18 C23 1_555 1_555
C24 C19 1_555 1_555
C25 O5 1_555 1_555
C4 C5 1_555 1_555
C9 C10 1_555 1_555
C13 C17 1_555 1_555
C15 C16 1_555 1_555
C23 C24 1_555 1_555
C24 C25 1_555 1_555

#END
