
#######################################################################
#
#                 Cambridge Crystallographic Data Centre
#                                CCDC 
#
#######################################################################
#
# If this CIF has been generated from an entry in the Cambridge 
# Structural Database, then it will include bibliographic, chemical, 
# crystal, experimental, refinement or atomic coordinate data resulting 
# from the CCDC's data processing and validation procedures.
#
#######################################################################

data_OGERAV
_chemical_formula_moiety         'C20 H19 N1 O2'
_chemical_name_systematic        
2-(2-(4-Methylphenyl)vinyl)-N-phenyl-4,5-dihydrofuran-3-carboxamide
_symmetry_cell_setting           orthorhombic
_symmetry_space_group_name_H-M   'P n a 21'
_symmetry_Int_Tables_number      33
_space_group_name_Hall           'P 2c -2n'
loop_
_symmetry_equiv_pos_site_id
_symmetry_equiv_pos_as_xyz
1 x,y,z
2 -x,-y,1/2+z
3 1/2-x,1/2+y,1/2+z
4 1/2+x,1/2-y,z
_cell_length_a                   9.513(5)
_cell_length_b                   18.292(5)
_cell_length_c                   9.488(5)
_cell_angle_alpha                90
_cell_angle_beta                 90
_cell_angle_gamma                90
_cell_volume                     1651.02
_cell_formula_units_Z            4
loop_
_atom_site_label
_atom_site_type_symbol
_atom_site_fract_x
_atom_site_fract_y
_atom_site_fract_z
N1 N 0.3506(3) 0.24632(13) -0.0954(3)
O1 O 0.2994(2) 0.10931(11) 0.3122(2)
O2 O 0.12879(18) 0.21099(12) -0.0501(2)
C1 C 0.2282(3) 0.13562(15) 0.1981(3)
C2 C 0.3032(3) 0.18239(16) 0.1200(3)
C3 C 0.3265(3) 0.27359(15) -0.2338(3)
C4 C 0.0256(3) 0.05767(16) 0.2598(3)
H1 H 0.0760 0.0405 0.3369
C5 C 0.2527(3) 0.21429(16) -0.0127(3)
C6 C 0.2426(3) 0.23649(17) -0.3281(3)
H2 H 0.1963 0.1940 -0.3007
C7 C -0.1769(3) -0.01635(15) 0.3394(3)
H3 H -0.1268 -0.0270 0.4210
C8 C 0.3941(3) 0.33644(16) -0.2760(3)
H4 H 0.4495 0.3620 -0.2120
C9 C -0.1160(3) 0.02756(15) 0.2377(3)
C10 C 0.0873(3) 0.10719(15) 0.1790(3)
H5 H 0.0357 0.1253 0.1034
C11 C -0.3266(3) 0.01107(19) 0.1010(4)
H6 H -0.3755 0.0201 0.0180
C12 C -0.3881(3) -0.03171(16) 0.2029(3)
C13 C 0.2277(3) 0.26312(18) -0.4643(3)
H7 H 0.1712 0.2384 -0.5284
C14 C 0.2959(4) 0.3257(2) -0.5047(4)
H8 H 0.2846 0.3436 -0.5957
C15 C -0.1950(3) 0.04086(18) 0.1183(3)
H9 H -0.1584 0.0707 0.0480
C16 C 0.3806(4) 0.36180(19) -0.4114(4)
H10 H 0.4290 0.4035 -0.4397
C17 C 0.4360(3) 0.14438(18) 0.3147(4)
H11 H 0.5099 0.1079 0.3178
H12 H 0.4444 0.1754 0.3972
C18 C -0.3108(4) -0.04494(15) 0.3226(4)
H13 H -0.3492 -0.0737 0.3938
C19 C 0.4483(3) 0.18963(19) 0.1820(3)
H14 H 0.4704 0.2402 0.2034
H15 H 0.5192 0.1701 0.1190
C20 C -0.5336(4) -0.0638(2) 0.1845(4)
H16 H -0.5577 -0.0919 0.2664
H17 H -0.5348 -0.0948 0.1029
H18 H -0.6005 -0.0250 0.1726
H19 H 0.435(3) 0.2520(13) -0.069(3)
loop_
_geom_bond_atom_site_label_1
_geom_bond_atom_site_label_2
_geom_bond_site_symmetry_1
_geom_bond_site_symmetry_2
N1 C3 1_555 1_555
O1 C1 1_555 1_555
O2 C5 1_555 1_555
C1 C2 1_555 1_555
C2 C5 1_555 1_555
C3 C6 1_555 1_555
C4 H1 1_555 1_555
C5 N1 1_555 1_555
C6 H2 1_555 1_555
C7 H3 1_555 1_555
C8 C3 1_555 1_555
H4 C8 1_555 1_555
C9 C4 1_555 1_555
C10 C1 1_555 1_555
H5 C10 1_555 1_555
C11 H6 1_555 1_555
C12 C11 1_555 1_555
C13 C6 1_555 1_555
H7 C13 1_555 1_555
C14 C13 1_555 1_555
H8 C14 1_555 1_555
C15 C9 1_555 1_555
H9 C15 1_555 1_555
C16 C8 1_555 1_555
H10 C16 1_555 1_555
C17 O1 1_555 1_555
H11 C17 1_555 1_555
H12 C17 1_555 1_555
C18 C7 1_555 1_555
H13 C18 1_555 1_555
C19 C2 1_555 1_555
H14 C19 1_555 1_555
H15 C19 1_555 1_555
C20 C12 1_555 1_555
H16 C20 1_555 1_555
H17 C20 1_555 1_555
H18 C20 1_555 1_555
H19 N1 1_555 1_555
C4 C10 1_555 1_555
C7 C9 1_555 1_555
C11 C15 1_555 1_555
C12 C18 1_555 1_555
C14 C16 1_555 1_555
C17 C19 1_555 1_555

#END
