
#######################################################################
#
#                 Cambridge Crystallographic Data Centre
#                                CCDC 
#
#######################################################################
#
# If this CIF has been generated from an entry in the Cambridge 
# Structural Database, then it will include bibliographic, chemical, 
# crystal, experimental, refinement or atomic coordinate data resulting 
# from the CCDC's data processing and validation procedures.
#
#######################################################################

data_OGEREY
_chemical_name_common            'bis(7-dehydro-3H-allopurinol) sulfate'
_chemical_formula_moiety         '2(C5 H5 N4 O1 1+),O4 S1 2-'
_chemical_name_systematic        
'bis(5-Oxo-4,5-dihydro-8H-2-azonia-4,8,9-trizabicyclo(4.3.0)nona-1(9),2,6-triene) sulfate'
_chemical_properties_biological  
'Allopurinol is a potent inhibitor of xanthine oxidase and is used extensively for treatment of gout'
_symmetry_cell_setting           monoclinic
_symmetry_space_group_name_H-M   'C 2/c'
_symmetry_Int_Tables_number      15
_space_group_name_Hall           '-C 2yn'
loop_
_symmetry_equiv_pos_site_id
_symmetry_equiv_pos_as_xyz
1 x,y,z
2 1/2+x,1/2+y,z
3 -x,y,1/2-z
4 1/2-x,1/2+y,1/2-z
5 -x,-y,-z
6 1/2-x,1/2-y,-z
7 x,-y,1/2+z
8 1/2+x,1/2-y,1/2+z
_cell_length_a                   12.337(3)
_cell_length_b                   10.054(2)
_cell_length_c                   11.064(2)
_cell_angle_alpha                90
_cell_angle_beta                 102.42(3)
_cell_angle_gamma                90
_cell_volume                     1340.22
_exptl_crystal_colour            colorless
_exptl_crystal_description       plate
_cell_formula_units_Z            4
loop_
_atom_site_label
_atom_site_type_symbol
_atom_site_fract_x
_atom_site_fract_y
_atom_site_fract_z
S1 S 0.5000 0.24338(5) 0.2500
O1 O 0.41241(12) 0.33107(12) 0.17777(11)
O2 O 0.45510(13) 0.16122(14) 0.33449(12)
O1B O 0.58759(12) 0.33107(12) 0.32223(11)
O2B O 0.54490(13) 0.16122(14) 0.16551(12)
O3 O 0.32972(10) 0.07703(11) 0.91973(10)
N1 N 0.35100(11) 0.30200(13) 0.92837(12)
C1 C 0.35629(12) 0.19500(15) 0.73986(13)
N2 N 0.38403(11) 0.18821(14) 0.55266(13)
N3 N 0.38369(11) 0.32129(13) 0.57759(12)
N4 N 0.36693(11) 0.43601(13) 0.76273(12)
C2 C 0.34391(12) 0.17773(15) 0.86560(14)
C3 C 0.36700(12) 0.32242(14) 0.69190(14)
C4 C 0.36919(13) 0.11072(16) 0.64455(14)
C5 C 0.36240(13) 0.41996(16) 0.87928(14)
H1 H 0.3674(16) 0.4935(19) 0.9297(18)
H2 H 0.3710(16) 0.018(2) 0.6442(18)
H3 H 0.3781(18) 0.522(2) 0.735(2)
H4 H 0.3967(18) 0.168(2) 0.485(2)
H5 H 0.3606(18) 0.299(2) 1.012(2)
loop_
_geom_bond_atom_site_label_1
_geom_bond_atom_site_label_2
_geom_bond_site_symmetry_1
_geom_bond_site_symmetry_2
S1 O1 1_555 1_555
O2 S1 1_555 1_555
O3 C2 1_555 1_555
N1 C2 1_555 1_555
C1 C2 1_555 1_555
N2 N3 1_555 1_555
N3 C3 1_555 1_555
N4 C3 1_555 1_555
C3 C1 1_555 1_555
C4 C1 1_555 1_555
C5 N1 1_555 1_555
H1 C5 1_555 1_555
H2 C4 1_555 1_555
H3 N4 1_555 1_555
H4 N2 1_555 1_555
H5 N1 1_555 1_555
O1B S1 1_555 1_555
O2B S1 1_555 1_555
N2 C4 1_555 1_555
N4 C5 1_555 1_555

#END
