
#######################################################################
#
#                 Cambridge Crystallographic Data Centre
#                                CCDC 
#
#######################################################################
#
# If this CIF has been generated from an entry in the Cambridge 
# Structural Database, then it will include bibliographic, chemical, 
# crystal, experimental, refinement or atomic coordinate data resulting 
# from the CCDC's data processing and validation procedures.
#
#######################################################################

data_OGETEC
_chemical_formula_moiety         'C32 H14 F4 N2'
_chemical_name_systematic        
3,9-difluoro-6,12-bis(4-fluorophenyl)tetracene-5,11-dicarbonitrile
_symmetry_cell_setting           triclinic
_symmetry_space_group_name_H-M   'P -1'
_symmetry_Int_Tables_number      2
_space_group_name_Hall           '-P 1'
loop_
_symmetry_equiv_pos_site_id
_symmetry_equiv_pos_as_xyz
1 x,y,z
2 -x,-y,-z
_cell_length_a                   7.0204(11)
_cell_length_b                   7.3076(13)
_cell_length_c                   11.485(2)
_cell_angle_alpha                102.679(5)
_cell_angle_beta                 92.770(5)
_cell_angle_gamma                103.071(5)
_cell_volume                     556.962
_exptl_crystal_colour            red
_exptl_crystal_description       plate
_chemical_melting_point          'above 400 deg.C'
_cell_formula_units_Z            1
_chemical_properties_physical    'Oxygen-sensitive, Photo-sensitive'
_exptl_crystal_recrystallization_method 'dichloromethane / hexane'
loop_
_atom_site_label
_atom_site_type_symbol
_atom_site_fract_x
_atom_site_fract_y
_atom_site_fract_z
F1 F 0.75593(15) 0.15696(14) 0.36731(7)
F2 F 0.15915(10) 0.12924(11) 1.09767(7)
N1 N 1.24229(15) 0.36604(16) 0.66676(9)
C1 C 0.7688(2) 0.2006(2) 0.48937(11)
C2 C 0.77635(19) 0.3879(2) 0.54792(12)
H1 H 0.7696 0.4836 0.5048
C3 C 0.79424(17) 0.43213(18) 0.67243(11)
H2 H 0.8013 0.5607 0.7154
C4 C 0.80200(16) 0.29090(17) 0.73519(10)
C5 C 0.81932(17) 0.34494(16) 0.86895(10)
C6 C 0.99683(16) 0.46362(16) 0.93569(10)
C7 C 0.7731(2) 0.0556(2) 0.54712(12)
H3 H 0.7656 -0.0726 0.5032
C8 C 0.78893(18) 0.10171(18) 0.67130(11)
H4 H 0.7909 0.0037 0.7134
C9 C 0.65362(17) 0.28737(16) 0.92705(10)
C10 C 0.65715(17) 0.35711(16) 1.05426(10)
C11 C 0.48473(17) 0.30088(17) 1.11123(11)
H5 H 0.4840 0.3452 1.1954
C12 C 0.32262(17) 0.18355(17) 1.04333(11)
C13 C 0.31181(17) 0.11420(17) 0.91799(11)
H6 H 0.1936 0.0328 0.8739
C14 C 0.47350(17) 0.16613(17) 0.86173(11)
H7 H 0.4675 0.1213 0.7772
C15 C 1.17210(16) 0.51500(16) 0.88079(10)
C16 C 1.19564(17) 0.42796(17) 0.75871(11)
F1A F 1.24407(15) 0.84304(14) 1.63269(7)
F2A F 1.84085(10) 0.87076(11) 0.90233(7)
N1A N 0.75771(15) 0.63396(16) 1.33324(9)
C1A C 1.2312(2) 0.7994(2) 1.51063(11)
C2A C 1.22365(19) 0.6121(2) 1.45208(12)
H1A H 1.2304 0.5164 1.4952
C3A C 1.20576(17) 0.56787(18) 1.32757(11)
H2A H 1.1987 0.4393 1.2846
C4A C 1.19800(16) 0.70910(17) 1.26481(10)
C5A C 1.18068(17) 0.65506(16) 1.13105(10)
C6A C 1.00317(16) 0.53638(16) 1.06431(10)
C7A C 1.2269(2) 0.9444(2) 1.45288(12)
H3A H 1.2344 1.0726 1.4968
C8A C 1.21107(18) 0.89829(18) 1.32870(11)
H4A H 1.2091 0.9963 1.2866
C9A C 1.34638(17) 0.71263(16) 1.07295(10)
C10A C 1.34285(17) 0.64289(16) 0.94574(10)
C11A C 1.51527(17) 0.69912(17) 0.88877(11)
H5A H 1.5160 0.6548 0.8046
C12A C 1.67738(17) 0.81645(17) 0.95667(11)
C13A C 1.68819(17) 0.88580(17) 1.08201(11)
H6A H 1.8064 0.9672 1.1261
C14A C 1.52650(17) 0.83387(17) 1.13827(11)
H7A H 1.5325 0.8787 1.2228
C15A C 0.82790(16) 0.48500(16) 1.11921(10)
C16A C 0.80436(17) 0.57204(17) 1.24129(11)
loop_
_geom_bond_atom_site_label_1
_geom_bond_atom_site_label_2
_geom_bond_site_symmetry_1
_geom_bond_site_symmetry_2
F1 C1 1_555 1_555
F2 C12 1_555 1_555
N1 C16 1_555 1_555
C1 C2 1_555 1_555
C2 H1 1_555 1_555
C3 C2 1_555 1_555
H2 C3 1_555 1_555
C4 C3 1_555 1_555
C5 C4 1_555 1_555
C6 C5 1_555 1_555
C7 C1 1_555 1_555
H3 C7 1_555 1_555
C8 C4 1_555 1_555
H4 C8 1_555 1_555
C9 C5 1_555 1_555
C10 C9 1_555 1_555
C11 C10 1_555 1_555
H5 C11 1_555 1_555
C12 C11 1_555 1_555
C13 C12 1_555 1_555
H6 C13 1_555 1_555
C14 C9 1_555 1_555
H7 C14 1_555 1_555
C15 C6 1_555 1_555
C16 C15 1_555 1_555
F1A C1A 1_555 1_555
F2A C12A 1_555 1_555
N1A C16A 1_555 1_555
C1A C2A 1_555 1_555
C2A H1A 1_555 1_555
C3A C2A 1_555 1_555
H2A C3A 1_555 1_555
C4A C3A 1_555 1_555
C5A C4A 1_555 1_555
C6A C6 1_555 1_555
C7A C1A 1_555 1_555
H3A C7A 1_555 1_555
C8A C4A 1_555 1_555
H4A C8A 1_555 1_555
C9A C5A 1_555 1_555
C10A C15 1_555 1_555
C11A C10A 1_555 1_555
H5A C11A 1_555 1_555
C12A C11A 1_555 1_555
C13A C12A 1_555 1_555
H6A C13A 1_555 1_555
C14A C9A 1_555 1_555
H7A C14A 1_555 1_555
C15A C10 1_555 1_555
C16A C15A 1_555 1_555
C7 C8 1_555 1_555
C13 C14 1_555 1_555
C5A C6A 1_555 1_555
C6A C15A 1_555 1_555
C7A C8A 1_555 1_555
C9A C10A 1_555 1_555
C13A C14A 1_555 1_555

#END
