
#######################################################################
#
#                 Cambridge Crystallographic Data Centre
#                                CCDC 
#
#######################################################################
#
# If this CIF has been generated from an entry in the Cambridge 
# Structural Database, then it will include bibliographic, chemical, 
# crystal, experimental, refinement or atomic coordinate data resulting 
# from the CCDC's data processing and validation procedures.
#
#######################################################################

data_OGEYOQ
_chemical_formula_moiety         'C10 H16 N5 1+,Br1 1-'
_chemical_name_systematic        
'amino(dimethylamino)-N-(N-phenylcarbamimidoyl)methaniminium bromide'
_symmetry_cell_setting           monoclinic
_symmetry_space_group_name_H-M   'P 21/n'
_symmetry_Int_Tables_number      14
_space_group_name_Hall           '-P 2yn'
loop_
_symmetry_equiv_pos_site_id
_symmetry_equiv_pos_as_xyz
1 x,y,z
2 1/2-x,1/2+y,1/2-z
3 -x,-y,-z
4 1/2+x,1/2-y,1/2+z
_cell_length_a                   12.2189(10)
_cell_length_b                   5.8949(4)
_cell_length_c                   18.2917(13)
_cell_angle_alpha                90
_cell_angle_beta                 105.995(2)
_cell_angle_gamma                90
_cell_volume                     1266.53
_exptl_crystal_colour            colorless
_exptl_crystal_description       platelet
_cell_formula_units_Z            4
loop_
_atom_site_label
_atom_site_type_symbol
_atom_site_fract_x
_atom_site_fract_y
_atom_site_fract_z
C1 C 0.4975(7) 0.4681(13) 0.2982(4)
C2 C 0.4788(9) 0.2761(16) 0.2501(6)
H1 H 0.5172 0.2594 0.2130
C3 C 0.4021(10) 0.1134(18) 0.2595(6)
H2 H 0.3906 -0.0180 0.2302
C4 C 0.3436(10) 0.1480(19) 0.3122(8)
H3 H 0.2883 0.0433 0.3157
C5 C 0.3629(10) 0.329(2) 0.3597(7)
H4 H 0.3250 0.3429 0.3971
C6 C 0.4408(8) 0.4952(16) 0.3517(6)
H5 H 0.4535 0.6228 0.3828
C7 C 0.6564(8) 0.7462(13) 0.3365(5)
C8 C 0.7536(8) 0.8199(15) 0.4611(4)
C9 C 0.8339(9) 1.0958(18) 0.5597(5)
H6 H 0.8094 1.2323 0.5791
H7 H 0.8979 1.1287 0.5406
H8 H 0.8555 0.9855 0.5997
C10 C 0.6363(10) 1.145(2) 0.4738(6)
H9 H 0.6425 1.2732 0.5072
H10 H 0.5715 1.0554 0.4755
H11 H 0.6270 1.1978 0.4227
N1 N 0.5746(6) 0.6285(12) 0.2834(4)
H12 H 0.5699 0.6553 0.2364
N2 N 0.7235(7) 0.8794(14) 0.3047(4)
H13 H 0.7783 0.9667 0.3281
N3 N 0.6650(7) 0.7327(12) 0.4072(4)
H14 H 0.6120 0.6649 0.4214
N4 N 0.8505(8) 0.7072(15) 0.4801(5)
H15 H 0.9060 0.7545 0.5170
H16 H 0.8583 0.5863 0.4557
N5 N 0.7407(6) 1.0060(12) 0.4982(4)
Br1 Br 0.59247(14) 0.7836(3) 0.11668(8)
loop_
_geom_bond_atom_site_label_1
_geom_bond_atom_site_label_2
_geom_bond_site_symmetry_1
_geom_bond_site_symmetry_2
C1 C2 1_555 1_555
C2 H1 1_555 1_555
C3 C2 1_555 1_555
H2 C3 1_555 1_555
C4 C3 1_555 1_555
H3 C4 1_555 1_555
C5 C4 1_555 1_555
H4 C5 1_555 1_555
C6 C1 1_555 1_555
H5 C6 1_555 1_555
C7 N1 1_555 1_555
C8 N3 1_555 1_555
C9 H6 1_555 1_555
H7 C9 1_555 1_555
H8 C9 1_555 1_555
C10 H9 1_555 1_555
H10 C10 1_555 1_555
H11 C10 1_555 1_555
N1 C1 1_555 1_555
H12 N1 1_555 1_555
N2 C7 1_555 1_555
H13 N2 1_555 1_555
N3 C7 1_555 1_555
H14 N3 1_555 1_555
N4 C8 1_555 1_555
H15 N4 1_555 1_555
H16 N4 1_555 1_555
N5 C8 1_555 1_555
C5 C6 1_555 1_555
C9 N5 1_555 1_555
C10 N5 1_555 1_555

#END
