
#######################################################################
#
#                 Cambridge Crystallographic Data Centre
#                                CCDC 
#
#######################################################################
#
# If this CIF has been generated from an entry in the Cambridge 
# Structural Database, then it will include bibliographic, chemical, 
# crystal, experimental, refinement or atomic coordinate data resulting 
# from the CCDC's data processing and validation procedures.
#
#######################################################################

data_OGINEZ
_chemical_formula_moiety         'C24 H56 Cl2 N4 Si2'
_chemical_name_systematic        
1,2-Dichloro-N^1^,N^1^,N^1^,N^1^,N^2^,N^2^,N^2^,N^2^-octa-n-propyldisilane-1,1,2,2-tetramine
_symmetry_cell_setting           triclinic
_symmetry_space_group_name_H-M   'P -1'
_symmetry_Int_Tables_number      2
_space_group_name_Hall           '-P 1'
loop_
_symmetry_equiv_pos_site_id
_symmetry_equiv_pos_as_xyz
1 x,y,z
2 -x,-y,-z
_cell_length_a                   9.285(7)
_cell_length_b                   9.430(7)
_cell_length_c                   10.292(8)
_cell_angle_alpha                87.951(11)
_cell_angle_beta                 71.879(10)
_cell_angle_gamma                75.845(11)
_cell_volume                     829.649
_cell_formula_units_Z            1
loop_
_atom_site_label
_atom_site_type_symbol
_atom_site_fract_x
_atom_site_fract_y
_atom_site_fract_z
C1 C 0.6538(4) 0.0586(4) 0.2716(4)
H1 H 0.7108 -0.0414 0.2413
H2 H 0.5856 0.0566 0.3643
C2 C 0.7693(6) 0.1463(6) 0.2732(5)
H3 H 0.7139 0.2476 0.2995
H4 H 0.8424 0.1437 0.1819
C3 C 0.8605(6) 0.0860(7) 0.3738(5)
H5 H 0.7887 0.0908 0.4646
H6 H 0.9332 0.1436 0.3718
H7 H 0.9164 -0.0139 0.3474
C4 C 0.4227(5) 0.2387(4) 0.2448(4)
H8 H 0.3828 0.2826 0.1723
H9 H 0.4585 0.3119 0.2816
C5 C 0.2908(5) 0.2003(5) 0.3559(4)
H10 H 0.3298 0.1555 0.4286
H11 H 0.2520 0.1293 0.3193
C6 C 0.1570(6) 0.3335(6) 0.4148(5)
H12 H 0.1985 0.4147 0.4252
H13 H 0.0928 0.3120 0.5024
H14 H 0.0953 0.3580 0.3540
C7 C 0.6881(4) 0.3109(4) -0.0608(4)
H15 H 0.6834 0.3107 0.0347
H16 H 0.6316 0.4073 -0.0773
C8 C 0.8553(5) 0.2877(6) -0.1467(6)
H17 H 0.8610 0.2946 -0.2423
H18 H 0.9122 0.1900 -0.1342
C9 C 0.9310(6) 0.3973(6) -0.1110(7)
H19 H 0.8653 0.4940 -0.1077
H20 H 1.0305 0.3909 -0.1791
H21 H 0.9458 0.3773 -0.0232
C10 C 0.5689(5) 0.2172(4) -0.2117(4)
H22 H 0.5356 0.1311 -0.2268
H23 H 0.6628 0.2191 -0.2864
C11 C 0.4418(6) 0.3526(5) -0.2154(5)
H24 H 0.3461 0.3484 -0.1438
H25 H 0.4725 0.4387 -0.1961
C12 C 0.4094(9) 0.3681(6) -0.3518(6)
H26 H 0.4978 0.3890 -0.4206
H27 H 0.3187 0.4466 -0.3439
H28 H 0.3914 0.2785 -0.3771
Cl1 Cl 0.79987(10) -0.10508(10) -0.02932(10)
N1 N 0.5584(3) 0.1144(3) 0.1846(3)
N2 N 0.6073(3) 0.2038(3) -0.0835(3)
Si1 Si 0.59037(10) 0.05925(9) 0.01876(8)
C1A C 0.3462(4) -0.0586(4) -0.2716(4)
H1A H 0.2892 0.0414 -0.2413
H2A H 0.4144 -0.0566 -0.3643
C2A C 0.2307(6) -0.1463(6) -0.2732(5)
H3A H 0.2861 -0.2476 -0.2995
H4A H 0.1576 -0.1437 -0.1819
C3A C 0.1395(6) -0.0860(7) -0.3738(5)
H5A H 0.2113 -0.0908 -0.4646
H6A H 0.0668 -0.1436 -0.3718
H7A H 0.0836 0.0139 -0.3474
C4A C 0.5773(5) -0.2387(4) -0.2448(4)
H8A H 0.6172 -0.2826 -0.1723
H9A H 0.5415 -0.3119 -0.2816
C5A C 0.7092(5) -0.2003(5) -0.3559(4)
H10A H 0.6702 -0.1555 -0.4286
H11A H 0.7480 -0.1293 -0.3193
C6A C 0.8430(6) -0.3335(6) -0.4148(5)
H12A H 0.8015 -0.4147 -0.4252
H13A H 0.9072 -0.3120 -0.5024
H14A H 0.9047 -0.3580 -0.3540
C7A C 0.3119(4) -0.3109(4) 0.0608(4)
H15A H 0.3166 -0.3107 -0.0347
H16A H 0.3684 -0.4073 0.0773
C8A C 0.1447(5) -0.2877(6) 0.1467(6)
H17A H 0.1390 -0.2946 0.2423
H18A H 0.0878 -0.1900 0.1342
C9A C 0.0690(6) -0.3973(6) 0.1110(7)
H19A H 0.1347 -0.4940 0.1077
H20A H -0.0305 -0.3909 0.1791
H21A H 0.0542 -0.3773 0.0232
C10A C 0.4311(5) -0.2172(4) 0.2117(4)
H22A H 0.4644 -0.1311 0.2268
H23A H 0.3372 -0.2191 0.2864
C11A C 0.5582(6) -0.3526(5) 0.2154(5)
H24A H 0.6539 -0.3484 0.1438
H25A H 0.5275 -0.4387 0.1961
C12A C 0.5906(9) -0.3681(6) 0.3518(6)
H26A H 0.5022 -0.3890 0.4206
H27A H 0.6813 -0.4466 0.3439
H28A H 0.6086 -0.2785 0.3771
Cl1A Cl 0.20013(10) 0.10508(10) 0.02932(10)
N1A N 0.4416(3) -0.1144(3) -0.1846(3)
N2A N 0.3927(3) -0.2038(3) 0.0835(3)
Si1A Si 0.40963(10) -0.05925(9) -0.01876(8)
loop_
_geom_bond_atom_site_label_1
_geom_bond_atom_site_label_2
_geom_bond_site_symmetry_1
_geom_bond_site_symmetry_2
C1 H1 1_555 1_555
H2 C1 1_555 1_555
C2 C1 1_555 1_555
H3 C2 1_555 1_555
H4 C2 1_555 1_555
C3 C2 1_555 1_555
H5 C3 1_555 1_555
H6 C3 1_555 1_555
H7 C3 1_555 1_555
C4 H8 1_555 1_555
H9 C4 1_555 1_555
C5 C4 1_555 1_555
H10 C5 1_555 1_555
H11 C5 1_555 1_555
C6 C5 1_555 1_555
H12 C6 1_555 1_555
H13 C6 1_555 1_555
H14 C6 1_555 1_555
C7 H15 1_555 1_555
H16 C7 1_555 1_555
C8 C7 1_555 1_555
H17 C8 1_555 1_555
H18 C8 1_555 1_555
C9 C8 1_555 1_555
H19 C9 1_555 1_555
H20 C9 1_555 1_555
H21 C9 1_555 1_555
C10 H22 1_555 1_555
H23 C10 1_555 1_555
C11 C10 1_555 1_555
H24 C11 1_555 1_555
H25 C11 1_555 1_555
C12 C11 1_555 1_555
H26 C12 1_555 1_555
H27 C12 1_555 1_555
H28 C12 1_555 1_555
Cl1 Si1 1_555 1_555
N1 C1 1_555 1_555
N2 C7 1_555 1_555
Si1 N1 1_555 1_555
C1A H1A 1_555 1_555
H2A C1A 1_555 1_555
C2A C1A 1_555 1_555
H3A C2A 1_555 1_555
H4A C2A 1_555 1_555
C3A C2A 1_555 1_555
H5A C3A 1_555 1_555
H6A C3A 1_555 1_555
H7A C3A 1_555 1_555
C4A H8A 1_555 1_555
H9A C4A 1_555 1_555
C5A C4A 1_555 1_555
H10A C5A 1_555 1_555
H11A C5A 1_555 1_555
C6A C5A 1_555 1_555
H12A C6A 1_555 1_555
H13A C6A 1_555 1_555
H14A C6A 1_555 1_555
C7A H15A 1_555 1_555
H16A C7A 1_555 1_555
C8A C7A 1_555 1_555
H17A C8A 1_555 1_555
H18A C8A 1_555 1_555
C9A C8A 1_555 1_555
H19A C9A 1_555 1_555
H20A C9A 1_555 1_555
H21A C9A 1_555 1_555
C10A H22A 1_555 1_555
H23A C10A 1_555 1_555
C11A C10A 1_555 1_555
H24A C11A 1_555 1_555
H25A C11A 1_555 1_555
C12A C11A 1_555 1_555
H26A C12A 1_555 1_555
H27A C12A 1_555 1_555
H28A C12A 1_555 1_555
Cl1A Si1A 1_555 1_555
N1A C1A 1_555 1_555
N2A C7A 1_555 1_555
Si1A Si1 1_555 1_555
C4 N1 1_555 1_555
C10 N2 1_555 1_555
N2 Si1 1_555 1_555
C4A N1A 1_555 1_555
C10A N2A 1_555 1_555
N1A Si1A 1_555 1_555
N2A Si1A 1_555 1_555

#END
