
#######################################################################
#
#                 Cambridge Crystallographic Data Centre
#                                CCDC 
#
#######################################################################
#
# If this CIF has been generated from an entry in the Cambridge 
# Structural Database, then it will include bibliographic, chemical, 
# crystal, experimental, refinement or atomic coordinate data resulting 
# from the CCDC's data processing and validation procedures.
#
#######################################################################

data_OGIVOR
_chemical_formula_moiety         'C20 H24 Br1 N1 O2'
_chemical_name_systematic        
(4aR,7aS,9R,10aS)-1-(4-bromobenzoyl)-9-methyldecahydrocyclopenta[e]quinolin-5(2H)-one
_symmetry_cell_setting           orthorhombic
_symmetry_space_group_name_H-M   'P 21 21 21'
_symmetry_Int_Tables_number      19
_space_group_name_Hall           'P 2ac 2ab'
loop_
_symmetry_equiv_pos_site_id
_symmetry_equiv_pos_as_xyz
1 x,y,z
2 1/2+x,1/2-y,-z
3 -x,1/2+y,1/2-z
4 1/2-x,-y,1/2+z
_cell_length_a                   7.63463(14)
_cell_length_b                   11.4385(2)
_cell_length_c                   19.9190(4)
_cell_angle_alpha                90
_cell_angle_beta                 90
_cell_angle_gamma                90
_cell_volume                     1739.5
_exptl_crystal_colour            colorless
_exptl_crystal_description       platelet
_chemical_melting_point          '158.8-159.2 deg.C'
_cell_formula_units_Z            4
_exptl_crystal_recrystallization_method 'ethyl acetate/n-hexane'
loop_
_atom_site_label
_atom_site_type_symbol
_atom_site_fract_x
_atom_site_fract_y
_atom_site_fract_z
Br1 Br -0.75905(6) 0.20359(4) 0.522703(18)
O1 O -0.4157(4) 0.3774(3) 0.82193(14)
O2 O -0.2296(4) 0.1203(3) 0.84905(12)
N1 N -0.1520(5) 0.3368(3) 0.77136(16)
C1 C -0.6215(5) 0.2467(4) 0.59940(19)
C2 C -0.0808(6) 0.1330(4) 0.86848(19)
C3 C 0.0496(5) 0.2270(4) 0.84601(18)
C4 C -0.4266(5) 0.3080(5) 0.7105(2)
C5 C -0.0558(5) 0.3010(5) 0.71078(19)
C6 C 0.1127(5) 0.3059(4) 0.96400(18)
C7 C 0.0083(6) 0.0521(4) 0.91936(19)
C8 C -0.5100(5) 0.3941(4) 0.67219(19)
C9 C -0.0325(5) 0.3474(4) 0.82950(19)
C10 C 0.1934(5) 0.5058(4) 0.91821(18)
C11 C -0.4460(5) 0.1923(4) 0.69261(19)
C12 C -0.6056(5) 0.3632(4) 0.6151(2)
C13 C -0.5445(5) 0.1604(4) 0.63685(19)
C14 C 0.1950(5) 0.1030(4) 0.9276(2)
C15 C -0.3302(6) 0.3439(4) 0.7730(2)
C16 C 0.0457(6) 0.4273(4) 0.9431(2)
C17 C 0.0243(6) 0.1799(4) 0.72107(18)
C18 C 0.1442(5) 0.1785(4) 0.78285(18)
C19 C -0.1018(5) 0.4094(4) 0.89093(18)
C20 C 0.1789(5) 0.2311(4) 0.90598(18)
H1 H 0.0380 0.3583 0.7011
H2 H -0.1366 0.2992 0.6719
H3 H 0.2089 0.3160 0.9968
H4 H 0.0167 0.2636 0.9869
H5 H 0.0129 -0.0291 0.9023
H6 H -0.0552 0.0528 0.9627
H7 H -0.5014 0.4738 0.6850
H8 H 0.0670 0.3967 0.8133
H9 H 0.2505 0.4692 0.8795
H10 H 0.2793 0.5170 0.9542
H11 H 0.1453 0.5818 0.9049
H12 H -0.3910 0.1334 0.7188
H13 H -0.6586 0.4214 0.5878
H14 H -0.5581 0.0804 0.6250
H15 H 0.2344 0.0973 0.9748
H16 H 0.2795 0.0608 0.8986
H17 H -0.0071 0.4651 0.9836
H18 H 0.0927 0.1578 0.6808
H19 H -0.0703 0.1216 0.7270
H20 H 0.2495 0.2264 0.7736
H21 H 0.1830 0.0974 0.7917
H22 H -0.1973 0.3627 0.9112
H23 H -0.1505 0.4863 0.8778
H24 H 0.2954 0.2606 0.8905
loop_
_geom_bond_atom_site_label_1
_geom_bond_atom_site_label_2
_geom_bond_site_symmetry_1
_geom_bond_site_symmetry_2
Br1 C1 1_555 1_555
O1 C15 1_555 1_555
O2 C2 1_555 1_555
N1 C5 1_555 1_555
C1 C12 1_555 1_555
C2 C3 1_555 1_555
C3 C9 1_555 1_555
C4 C8 1_555 1_555
C5 C17 1_555 1_555
C6 C16 1_555 1_555
C7 C2 1_555 1_555
C8 C12 1_555 1_555
C9 N1 1_555 1_555
C10 C16 1_555 1_555
C11 C4 1_555 1_555
C12 H13 1_555 1_555
C13 C1 1_555 1_555
C14 C7 1_555 1_555
C15 N1 1_555 1_555
C16 C19 1_555 1_555
C17 C18 1_555 1_555
C18 C3 1_555 1_555
C19 C9 1_555 1_555
C20 C3 1_555 1_555
H1 C5 1_555 1_555
H2 C5 1_555 1_555
H3 C6 1_555 1_555
H4 C6 1_555 1_555
H5 C7 1_555 1_555
H6 C7 1_555 1_555
H7 C8 1_555 1_555
H8 C9 1_555 1_555
H9 C10 1_555 1_555
H10 C10 1_555 1_555
H11 C10 1_555 1_555
H12 C11 1_555 1_555
H14 C13 1_555 1_555
H15 C14 1_555 1_555
H16 C14 1_555 1_555
H17 C16 1_555 1_555
H18 C17 1_555 1_555
H19 C17 1_555 1_555
H20 C18 1_555 1_555
H21 C18 1_555 1_555
H22 C19 1_555 1_555
H23 C19 1_555 1_555
H24 C20 1_555 1_555
C4 C15 1_555 1_555
C6 C20 1_555 1_555
C11 C13 1_555 1_555
C14 C20 1_555 1_555

#END
