
#######################################################################
#
#                 Cambridge Crystallographic Data Centre
#                                CCDC 
#
#######################################################################
#
# If this CIF has been generated from an entry in the Cambridge 
# Structural Database, then it will include bibliographic, chemical, 
# crystal, experimental, refinement or atomic coordinate data resulting 
# from the CCDC's data processing and validation procedures.
#
#######################################################################

data_OGIZEJ
_chemical_formula_moiety         
'C72 H104 O48 S8 8-,8(Na1 1+),6(C3 H7 N1 O1),6(H2 O1)'
_chemical_name_systematic        
'octasodium 6-perdeoxy-6-per(2-carboxyethyl)thio-\g-cyclodextrin dimethylformamide solvate hexahydrate'
_chemical_properties_biological  
'potential reversal agent for neuromuscular blocker rocuronium bromide'
_symmetry_cell_setting           orthorhombic
_symmetry_space_group_name_H-M   'P 21 21 21'
_symmetry_Int_Tables_number      19
_space_group_name_Hall           'P 2ac 2ab'
loop_
_symmetry_equiv_pos_site_id
_symmetry_equiv_pos_as_xyz
1 x,y,z
2 1/2-x,-y,1/2+z
3 1/2+x,1/2-y,-z
4 -x,1/2+y,1/2-z
_cell_length_a                   16.839(5)
_cell_length_b                   21.026(5)
_cell_length_c                   35.345(5)
_cell_angle_alpha                90
_cell_angle_beta                 90
_cell_angle_gamma                90
_cell_volume                     12514.1
_exptl_crystal_colour            colorless
_exptl_crystal_description       needle-shaped
_cell_formula_units_Z            4
loop_
_atom_site_label
_atom_site_type_symbol
_atom_site_fract_x
_atom_site_fract_y
_atom_site_fract_z
S1 S 1.40068(16) 0.13958(10) 0.93592(5)
S2 S 1.46628(17) 0.00368(10) 0.84400(6)
S3 S 1.2299(4) -0.14222(19) 0.79951(12)
S4 S 0.89469(19) -0.21938(13) 0.73313(9)
S6 S 0.71109(16) -0.08131(11) 0.86804(6)
S7 S 0.68104(12) 0.03694(9) 0.95086(5)
S8 S 0.85839(13) 0.12249(9) 0.99614(6)
S9 S 1.13879(14) 0.13326(10) 0.98142(6)
C1 C 1.4163(6) 0.1696(4) 0.8886(2)
H1 H 1.4678 0.1902 0.8874
H2 H 1.4169 0.1342 0.8710
C2 C 1.3532(5) 0.2164(3) 0.87651(19)
H3 H 1.3008 0.1962 0.8770
O1 O 1.3561(3) 0.2681(2) 0.90341(13)
C3 C 1.3018(4) 0.3172(3) 0.89770(19)
H6 H 1.3105 0.3498 0.9171
C4 C 1.3147(5) 0.3472(3) 0.8588(2)
H7 H 1.3674 0.3670 0.8583
C5 C 1.3109(4) 0.2971(3) 0.82789(18)
H8 H 1.2573 0.2791 0.8268
C6 C 1.3697(4) 0.2451(3) 0.83703(19)
H9 H 1.4235 0.2628 0.8366
O2 O 1.2221(3) 0.2959(2) 0.90024(13)
O3 O 1.2563(4) 0.3955(3) 0.85393(15)
H10 H 1.2724 0.4219 0.8387
O4 O 1.3291(3) 0.3276(2) 0.79275(14)
H11 H 1.3692 0.3116 0.7836
O5 O 1.3628(3) 0.1970(2) 0.80809(13)
C7 C 1.4390(5) 0.0070(4) 0.7948(2)
H12 H 1.4858 0.0001 0.7794
H13 H 1.4014 -0.0267 0.7894
C8 C 1.4022(5) 0.0706(4) 0.7847(2)
H14 H 1.3527 0.0762 0.7989
O6 O 1.4581(3) 0.1184(3) 0.79598(15)
C9 C 1.4330(5) 0.1815(4) 0.7879(2)
H17 H 1.4751 0.2108 0.7958
C10 C 1.4206(5) 0.1886(4) 0.7456(2)
H18 H 1.4710 0.1800 0.7327
C11 C 1.3586(5) 0.1410(4) 0.73160(19)
H19 H 1.3067 0.1506 0.7428
C12 C 1.3845(4) 0.0745(3) 0.7424(2)
H20 H 1.4323 0.0631 0.7280
O7 O 1.3212(3) 0.0316(2) 0.73273(15)
O8 O 1.3976(4) 0.2527(3) 0.73799(16)
H21 H 1.3512 0.2579 0.7444
O9 O 1.3548(4) 0.1475(3) 0.69176(16)
H22 H 1.3096 0.1395 0.6845
C13 C 1.1833(9) -0.1298(8) 0.7560(4)
H23 H 1.1260 -0.1251 0.7598
C14 C 1.2155(5) -0.0712(5) 0.7351(3)
H24 H 1.1988 -0.0325 0.7484
O10 O 1.3018(4) -0.0766(3) 0.73666(19)
C15 C 1.3425(5) -0.0272(4) 0.7179(2)
H25 H 1.3997 -0.0333 0.7213
C16 C 1.3232(4) -0.0322(4) 0.6765(2)
H26 H 1.3365 -0.0750 0.6674
C17 C 1.2342(4) -0.0202(4) 0.6709(2)
H27 H 1.2219 0.0223 0.6806
C18 C 1.1868(5) -0.0686(4) 0.6937(2)
H28 H 1.1908 -0.1107 0.6820
O11 O 1.1053(3) -0.0473(3) 0.69356(16)
O12 O 1.3657(4) 0.0137(3) 0.65493(16)
H29 H 1.3941 0.0347 0.6690
O13 O 1.2133(3) -0.0221(3) 0.63166(14)
H30 H 1.1796 -0.0497 0.6282
C19 C 0.9437(4) -0.1535(3) 0.75660(19)
H31 H 0.9085 -0.1358 0.7756
H32 H 0.9911 -0.1688 0.7693
C20 C 0.9663(4) -0.1020(3) 0.72857(19)
H33 H 0.9997 -0.0714 0.7421
O14 O 1.0142(4) -0.1296(3) 0.69903(18)
C21 C 1.0512(5) -0.0831(5) 0.6737(2)
H34 H 1.0797 -0.1063 0.6538
C22 C 0.9880(5) -0.0421(6) 0.6550(2)
H35 H 0.9554 -0.0703 0.6393
C23 C 0.9326(5) -0.0118(5) 0.6846(2)
H36 H 0.9622 0.0190 0.6999
C24 C 0.8987(5) -0.0646(4) 0.7102(2)
H37 H 0.8648 -0.0932 0.6954
O15 O 0.8524(3) -0.0309(2) 0.73720(15)
O16 O 0.8709(4) 0.0199(3) 0.66421(17)
H38 H 0.8278 0.0046 0.6701
O17 O 1.0197(4) 0.0065(4) 0.63051(18)
H39 H 1.0684 0.0047 0.6307
C25 C 0.7852(6) -0.0289(4) 0.8504(2)
H40 H 0.7839 0.0097 0.8654
H41 H 0.8366 -0.0486 0.8544
C26 C 0.7786(5) -0.0104(4) 0.8085(2)
H42 H 0.8262 0.0135 0.8013
O18 O 0.7762(3) -0.0688(2) 0.78693(14)
C27 C 0.7784(5) -0.0598(4) 0.7475(2)
H43 H 0.7740 -0.1012 0.7349
C28 C 0.7115(5) -0.0177(3) 0.7344(2)
H44 H 0.6619 -0.0409 0.7390
C29 C 0.7066(4) 0.0436(3) 0.75603(19)
H45 H 0.7535 0.0694 0.7502
C30 C 0.7060(4) 0.0287(4) 0.79838(19)
H46 H 0.6575 0.0055 0.8051
O19 O 0.7103(3) 0.0879(2) 0.81928(14)
O20 O 0.6375(4) 0.0767(3) 0.74399(14)
H47 H 0.6339 0.1103 0.7557
O21 O 0.7166(3) -0.0062(3) 0.69431(14)
H48 H 0.7194 -0.0403 0.6831
C31 C 0.6702(5) 0.1192(4) 0.9369(2)
H49 H 0.6160 0.1323 0.9419
H50 H 0.7047 0.1449 0.9527
C32 C 0.6894(4) 0.1336(3) 0.89499(19)
H51 H 0.7417 0.1162 0.8886
O22 O 0.6299(3) 0.1023(2) 0.87311(13)
C33 C 0.6373(4) 0.1120(4) 0.8337(2)
H52 H 0.5934 0.0903 0.8210
C34 C 0.6328(5) 0.1829(4) 0.8245(2)
H53 H 0.5809 0.1989 0.8327
C35 C 0.6958(5) 0.2183(3) 0.8454(2)
H54 H 0.7480 0.2040 0.8365
C36 C 0.6887(5) 0.2041(3) 0.8876(2)
H55 H 0.6386 0.2219 0.8969
O23 O 0.7530(3) 0.2370(2) 0.90498(13)
O24 O 0.6878(5) 0.2855(3) 0.83805(17)
H56 H 0.6501 0.2915 0.8238
O25 O 0.6378(4) 0.1893(3) 0.78469(14)
H57 H 0.6239 0.2253 0.7786
C37 C 0.9020(5) 0.2017(3) 0.9957(2)
H58 H 0.8893 0.2237 1.0190
H59 H 0.9593 0.1987 0.9936
C38 C 0.8683(4) 0.2383(3) 0.96189(19)
H60 H 0.8800 0.2160 0.9382
O26 O 0.7830(3) 0.2402(2) 0.96878(13)
C39 C 0.7406(4) 0.2694(3) 0.93888(19)
H61 H 0.6838 0.2686 0.9449
C40 C 0.7670(4) 0.3387(3) 0.9345(2)
H62 H 0.7514 0.3620 0.9573
C41 C 0.8556(5) 0.3440(3) 0.9300(2)
H63 H 0.8703 0.3264 0.9053
C42 C 0.8988(4) 0.3069(3) 0.96040(19)
H64 H 0.8925 0.3275 0.9851
O27 O 0.9809(3) 0.3070(3) 0.94911(13)
O28 O 0.8761(4) 0.4089(2) 0.93056(17)
H65 H 0.8376 0.4299 0.9374
O29 O 0.7267(3) 0.3663(2) 0.90282(15)
H66 H 0.7594 0.3801 0.8877
C43 C 1.1868(5) 0.1993(4) 0.9575(2)
H67 H 1.2300 0.2143 0.9732
H68 H 1.2098 0.1836 0.9341
C44 C 1.1336(5) 0.2553(3) 0.94813(19)
H69 H 1.0950 0.2432 0.9287
O30 O 1.0929(3) 0.2733(3) 0.98245(14)
C45 C 1.0395(4) 0.3234(4) 0.97693(19)
H70 H 1.0128 0.3327 1.0009
C46 C 1.0818(5) 0.3827(4) 0.9634(2)
H71 H 1.1199 0.3960 0.9828
C47 C 1.1266(5) 0.3681(3) 0.9273(2)
H72 H 1.0887 0.3563 0.9075
C48 C 1.1823(5) 0.3124(3) 0.9348(2)
H73 H 1.2213 0.3241 0.9542
O31 O 1.0259(3) 0.4324(3) 0.95780(16)
H74 H 0.9813 0.4195 0.9629
O32 O 1.1675(3) 0.4246(2) 0.91647(15)
H75 H 1.1923 0.4180 0.8969
C49 C 1.3581(7) 0.0626(5) 0.9267(3)
H76 H 1.3087 0.0674 0.9129
H77 H 1.3943 0.0375 0.9115
C50 C 1.3424(7) 0.0287(4) 0.9646(3)
H78 H 1.3872 0.0357 0.9813
H79 H 1.2959 0.0473 0.9764
C51 C 1.3294(6) -0.0422(5) 0.9600(3)
O33 O 1.3332(8) -0.0662(4) 0.9291(3)
O34 O 1.3199(5) -0.0734(3) 0.9900(2)
C55 C 1.4455(7) -0.0786(4) 0.8529(2)
H86 H 1.4499 -0.0866 0.8798
H87 H 1.3911 -0.0875 0.8455
C56 C 1.5005(6) -0.1235(4) 0.8319(3)
H88 H 1.5549 -0.1148 0.8392
H89 H 1.4958 -0.1161 0.8049
C57 C 1.4809(6) -0.1924(4) 0.8405(2)
O36 O 1.4714(5) -0.2070(3) 0.87511(18)
O37 O 1.4802(5) -0.2315(3) 0.81425(18)
C58 C 1.1939(12) -0.2194(7) 0.8137(5)
H90 H 1.1966 -0.2220 0.8410
H91 H 1.1383 -0.2224 0.8066
C59 C 1.2403(6) -0.2805(5) 0.7961(3)
H92 H 1.2255 -0.2860 0.7697
H93 H 1.2971 -0.2735 0.7973
C60 C 1.2198(6) -0.3380(5) 0.8174(3)
O38 O 1.2697(4) -0.3652(3) 0.83747(18)
O39 O 1.1487(5) -0.3584(4) 0.8135(2)
C61 C 0.8527(7) -0.2620(5) 0.7729(4)
H95 H 0.8249 -0.2318 0.7888
H96 H 0.8137 -0.2919 0.7634
C62 C 0.9130(8) -0.2990(7) 0.7978(5)
H97 H 0.9441 -0.2686 0.8122
H98 H 0.9491 -0.3219 0.7813
C63 C 0.8747(8) -0.3472(5) 0.8259(3)
O41 O 0.8012(5) -0.3498(4) 0.8256(2)
O42 O 0.9175(5) -0.3783(4) 0.8487(3)
C64 C 0.7376(8) -0.1571(4) 0.8461(3)
H99 H 0.7137 -0.1602 0.8212
H100 H 0.7947 -0.1601 0.8433
C65 C 0.7076(8) -0.2108(5) 0.8710(3)
H101 H 0.7019 -0.2484 0.8555
H102 H 0.6551 -0.1993 0.8801
C66 C 0.7584(6) -0.2282(4) 0.9053(3)
O43 O 0.7244(5) -0.2628(3) 0.92888(18)
O44 O 0.8279(5) -0.2103(4) 0.9077(2)
C67 C 0.5801(5) 0.0090(4) 0.9443(2)
H103 H 0.5446 0.0325 0.9608
H104 H 0.5637 0.0165 0.9184
C68 C 0.5747(6) -0.0628(4) 0.9534(3)
H105 H 0.5252 -0.0784 0.9428
H106 H 0.6174 -0.0839 0.9399
C69 C 0.5785(5) -0.0843(4) 0.9942(2)
O45 O 0.5692(4) -0.0462(3) 1.02118(17)
O46 O 0.5853(4) -0.1442(3) 0.9994(2)
C70 C 0.9188(5) 0.0879(4) 1.0322(3)
H107 H 0.9693 0.0750 1.0215
H108 H 0.9291 0.1192 1.0518
C71 C 0.8774(6) 0.0300(4) 1.0496(3)
H109 H 0.8216 0.0400 1.0530
H110 H 0.8807 -0.0051 1.0319
C72 C 0.9105(5) 0.0083(4) 1.0870(2)
O47 O 0.9594(4) 0.0450(3) 1.10291(18)
O48 O 0.8858(4) -0.0432(3) 1.10089(17)
C73 C 1.0767(7) 0.0996(4) 0.9447(3)
H111 H 1.0218 0.1006 0.9530
H112 H 1.0810 0.1256 0.9222
C74 C 1.0990(8) 0.0323(5) 0.9351(3)
H113 H 1.1544 0.0319 0.9276
H114 H 1.0680 0.0194 0.9133
C75 C 1.0877(6) -0.0178(4) 0.9660(3)
O49 O 1.0714(4) 0.0011(3) 0.99908(18)
O50 O 1.0970(5) -0.0741(3) 0.9568(2)
O35 O 0.5929(4) 0.1666(3) 0.52361(19)
C52 C 0.6181(7) 0.0609(5) 0.4441(3)
H80 H 0.6323 0.0179 0.4503
H81 H 0.6473 0.0743 0.4222
H82 H 0.5622 0.0631 0.4389
C53 C 0.5815(6) 0.1306(5) 0.4961(3)
C54 C 0.7210(7) 0.1140(7) 0.4834(4)
H83 H 0.7486 0.1213 0.4601
H84 H 0.7435 0.0777 0.4960
H85 H 0.7261 0.1507 0.4994
N1 N 0.6369(5) 0.1022(4) 0.4756(2)
C77 C 0.561(3) 0.519(2) 0.1776(11)
H115 H 0.5879 0.5508 0.1647
C78 C 0.6897(12) 0.4765(10) 0.1702(6)
H116 H 0.7127 0.4398 0.1821
H117 H 0.7209 0.5134 0.1761
H118 H 0.6886 0.4703 0.1433
C79 C 0.577(3) 0.447(3) 0.2127(15)
H119 H 0.6151 0.4145 0.2182
H120 H 0.5281 0.4273 0.2044
H121 H 0.5667 0.4713 0.2351
O51 O 0.4873(16) 0.5385(12) 0.1776(7)
N2 N 0.6050(14) 0.4859(11) 0.1848(6)
C80 C 0.414(2) 0.3313(18) 0.2113(10)
H122 H 0.3923 0.2967 0.2241
C81 C 0.4282(15) 0.2727(11) 0.1594(7)
H123 H 0.4294 0.2419 0.1794
H124 H 0.4726 0.2658 0.1428
H125 H 0.3797 0.2683 0.1454
C82 C 0.4349(18) 0.3796(13) 0.1473(8)
O53 O 0.426(2) 0.377(2) 0.2252(11)
N3 N 0.4323(11) 0.3297(9) 0.1737(5)
Na1 Na 0.5069(2) -0.23724(18) 0.98683(10)
Na2 Na 0.6162(2) 0.07158(15) 0.67319(9)
Na3 Na 1.1042(2) 0.52966(19) 0.90968(10)
Na4 Na 0.9271(3) 0.2458(3) 0.57899(16)
Na5 Na 0.6927(2) 0.23975(19) 0.54976(12)
Na6 Na 0.5359(2) 0.13492(16) 0.58647(10)
Na7 Na 0.3319(2) 0.03322(18) 0.59273(10)
Na8 Na 0.1417(3) 0.0535(2) 0.59946(12)
O55 O 0.9056(4) 0.6956(3) 0.25349(18)
O56 O 0.954(2) 0.6746(19) 0.3563(11)
O58 O 0.0253(5) 0.6131(4) 0.2784(2)
O59 O 1.2268(4) 0.5790(3) 0.90382(17)
O60 O 0.0752(4) 0.0945(4) 0.5483(2)
O61 O 0.2523(4) 0.1195(3) 0.6046(2)
O62 O 0.2307(5) 0.0047(3) 0.5510(2)
O63 O 0.4269(4) 0.0867(3) 0.55337(19)
O64 O 0.3944(4) -0.0639(3) 0.57133(18)
O65 O 0.5070(4) 0.1427(3) 0.65580(18)
O66 O 0.5226(4) -0.0107(3) 0.67459(17)
O67 O 0.6414(4) 0.2012(3) 0.60788(19)
O68 O 0.7440(9) 0.3244(7) 0.5944(4)
O69 O 0.7386(4) 0.3006(3) 0.49945(18)
O70 O 0.8141(4) 0.1858(3) 0.55550(18)
O71 O 1.0272(13) 0.3211(14) 0.6312(10)
O72 O 0.9057(15) 0.3462(12) 0.6044(7)
O73 O 0.4146(4) -0.1841(3) 0.94716(19)
O74 O 0.4457(5) -0.2273(4) 1.0494(2)
O75 O 0.6013(5) -0.3044(4) 1.0170(2)
O76 O 0.5599(4) -0.2759(3) 0.92755(19)
O77 O 1.0585(5) 0.6497(4) 0.8833(2)
S5? S 0.9774(13) -0.2200(10) 0.7547(6)
H4? H 1.3474 0.2507 0.9285
H5? H 1.4091 0.2861 0.9030
H15? H 1.4675 0.1145 0.8230
H16? H 1.5081 0.1106 0.7832
O40? O 1.2006(4) -0.1940(3) 0.7442(2)
H94? H 1.2487 -0.2000 0.7450
C76? C 0.656(2) 0.4183(19) 0.1840(11)
H126? H 0.4388 0.4195 0.1603
H127? H 0.3873 0.3791 0.1323
H128? H 0.4802 0.3743 0.1311
C83? C 0.556(2) 0.3004(17) 0.1494(10)
O52? O 0.518(2) 0.5705(18) 0.1634(10)
O54? O 0.6129(19) 0.3431(14) 0.1382(8)
N4? N 0.4693(17) 0.3085(14) 0.1512(8)
O57? O 0.965(3) 0.725(2) 0.4259(14)
loop_
_geom_bond_atom_site_label_1
_geom_bond_atom_site_label_2
_geom_bond_site_symmetry_1
_geom_bond_site_symmetry_2
S1 C1 1_555 1_555
S2 C7 1_555 1_555
S3 C13 1_555 1_555
S4 C19 1_555 1_555
S6 C25 1_555 1_555
S7 C31 1_555 1_555
S8 C37 1_555 1_555
S9 C43 1_555 1_555
C1 H1 1_555 1_555
H2 C1 1_555 1_555
C2 C1 1_555 1_555
H3 C2 1_555 1_555
O1 C2 1_555 1_555
C3 O1 1_555 1_555
H6 C3 1_555 1_555
C4 C3 1_555 1_555
H7 C4 1_555 1_555
C5 C4 1_555 1_555
H8 C5 1_555 1_555
C6 C2 1_555 1_555
H9 C6 1_555 1_555
O2 C3 1_555 1_555
O3 C4 1_555 1_555
H10 O3 1_555 1_555
O4 C5 1_555 1_555
H11 O4 1_555 1_555
O5 C6 1_555 1_555
C7 H12 1_555 1_555
H13 C7 1_555 1_555
C8 C7 1_555 1_555
H14 C8 1_555 1_555
O6 C8 1_555 1_555
C9 O5 1_555 1_555
H17 C9 1_555 1_555
C10 C9 1_555 1_555
H18 C10 1_555 1_555
C11 C10 1_555 1_555
H19 C11 1_555 1_555
C12 C8 1_555 1_555
H20 C12 1_555 1_555
O7 C12 1_555 1_555
O8 C10 1_555 1_555
H21 O8 1_555 1_555
O9 C11 1_555 1_555
H22 O9 1_555 1_555
C13 H23 1_555 1_555
C14 C13 1_555 1_555
H24 C14 1_555 1_555
O10 C14 1_555 1_555
C15 O7 1_555 1_555
H25 C15 1_555 1_555
C16 C15 1_555 1_555
H26 C16 1_555 1_555
C17 C16 1_555 1_555
H27 C17 1_555 1_555
C18 C14 1_555 1_555
H28 C18 1_555 1_555
O11 C18 1_555 1_555
O12 C16 1_555 1_555
H29 O12 1_555 1_555
O13 C17 1_555 1_555
H30 O13 1_555 1_555
C19 H31 1_555 1_555
H32 C19 1_555 1_555
C20 C19 1_555 1_555
H33 C20 1_555 1_555
O14 C20 1_555 1_555
C21 O11 1_555 1_555
H34 C21 1_555 1_555
C22 C21 1_555 1_555
H35 C22 1_555 1_555
C23 C22 1_555 1_555
H36 C23 1_555 1_555
C24 C20 1_555 1_555
H37 C24 1_555 1_555
O15 C24 1_555 1_555
O16 C23 1_555 1_555
H38 O16 1_555 1_555
O17 C22 1_555 1_555
H39 O17 1_555 1_555
C25 H40 1_555 1_555
H41 C25 1_555 1_555
C26 C25 1_555 1_555
H42 C26 1_555 1_555
O18 C26 1_555 1_555
C27 O15 1_555 1_555
H43 C27 1_555 1_555
C28 C27 1_555 1_555
H44 C28 1_555 1_555
C29 C28 1_555 1_555
H45 C29 1_555 1_555
C30 C26 1_555 1_555
H46 C30 1_555 1_555
O19 C30 1_555 1_555
O20 C29 1_555 1_555
H47 O20 1_555 1_555
O21 C28 1_555 1_555
H48 O21 1_555 1_555
C31 H49 1_555 1_555
H50 C31 1_555 1_555
C32 C31 1_555 1_555
H51 C32 1_555 1_555
O22 C32 1_555 1_555
C33 O19 1_555 1_555
H52 C33 1_555 1_555
C34 C33 1_555 1_555
H53 C34 1_555 1_555
C35 C34 1_555 1_555
H54 C35 1_555 1_555
C36 C32 1_555 1_555
H55 C36 1_555 1_555
O23 C36 1_555 1_555
O24 C35 1_555 1_555
H56 O24 1_555 1_555
O25 C34 1_555 1_555
H57 O25 1_555 1_555
C37 H58 1_555 1_555
H59 C37 1_555 1_555
C38 C37 1_555 1_555
H60 C38 1_555 1_555
O26 C38 1_555 1_555
C39 O23 1_555 1_555
H61 C39 1_555 1_555
C40 C39 1_555 1_555
H62 C40 1_555 1_555
C41 C40 1_555 1_555
H63 C41 1_555 1_555
C42 C38 1_555 1_555
H64 C42 1_555 1_555
O27 C42 1_555 1_555
O28 C41 1_555 1_555
H65 O28 1_555 1_555
O29 C40 1_555 1_555
H66 O29 1_555 1_555
C43 H67 1_555 1_555
H68 C43 1_555 1_555
C44 C43 1_555 1_555
H69 C44 1_555 1_555
O30 C44 1_555 1_555
C45 O27 1_555 1_555
H70 C45 1_555 1_555
C46 C45 1_555 1_555
H71 C46 1_555 1_555
C47 C46 1_555 1_555
H72 C47 1_555 1_555
C48 O2 1_555 1_555
H73 C48 1_555 1_555
O31 C46 1_555 1_555
H74 O31 1_555 1_555
O32 C47 1_555 1_555
H75 O32 1_555 1_555
C49 S1 1_555 1_555
H76 C49 1_555 1_555
H77 C49 1_555 1_555
C50 C49 1_555 1_555
H78 C50 1_555 1_555
H79 C50 1_555 1_555
C51 C50 1_555 1_555
O33 C51 1_555 1_555
O34 C51 1_555 1_555
O35 C53 1_555 1_555
C52 H80 1_555 1_555
H81 C52 1_555 1_555
H82 C52 1_555 1_555
C53 N1 1_555 1_555
C54 H83 1_555 1_555
H84 C54 1_555 1_555
H85 C54 1_555 1_555
C55 S2 1_555 1_555
H86 C55 1_555 1_555
H87 C55 1_555 1_555
C56 C55 1_555 1_555
H88 C56 1_555 1_555
H89 C56 1_555 1_555
C57 C56 1_555 1_555
O36 C57 1_555 1_555
O37 C57 1_555 1_555
C58 S3 1_555 1_555
H90 C58 1_555 1_555
H91 C58 1_555 1_555
C59 C58 1_555 1_555
H92 C59 1_555 1_555
H93 C59 1_555 1_555
C60 C59 1_555 1_555
O38 C60 1_555 1_555
O39 C60 1_555 1_555
C61 S4 1_555 1_555
H95 C61 1_555 1_555
H96 C61 1_555 1_555
C62 C61 1_555 1_555
H97 C62 1_555 1_555
H98 C62 1_555 1_555
C63 C62 1_555 1_555
O41 C63 1_555 1_555
O42 C63 1_555 1_555
C64 S6 1_555 1_555
H99 C64 1_555 1_555
H100 C64 1_555 1_555
C65 C64 1_555 1_555
H101 C65 1_555 1_555
H102 C65 1_555 1_555
C66 C65 1_555 1_555
O43 C66 1_555 1_555
O44 C66 1_555 1_555
C67 S7 1_555 1_555
H103 C67 1_555 1_555
H104 C67 1_555 1_555
C68 C67 1_555 1_555
H105 C68 1_555 1_555
H106 C68 1_555 1_555
C69 C68 1_555 1_555
O45 C69 1_555 1_555
O46 C69 1_555 1_555
C70 S8 1_555 1_555
H107 C70 1_555 1_555
H108 C70 1_555 1_555
C71 C70 1_555 1_555
H109 C71 1_555 1_555
H110 C71 1_555 1_555
C72 C71 1_555 1_555
O47 C72 1_555 1_555
O48 C72 1_555 1_555
C73 S9 1_555 1_555
H111 C73 1_555 1_555
H112 C73 1_555 1_555
C74 C73 1_555 1_555
H113 C74 1_555 1_555
H114 C74 1_555 1_555
C75 C74 1_555 1_555
O49 C75 1_555 1_555
O50 C75 1_555 1_555
C77 H115 1_555 1_555
C78 H116 1_555 1_555
H117 C78 1_555 1_555
H118 C78 1_555 1_555
C79 H119 1_555 1_555
H120 C79 1_555 1_555
H121 C79 1_555 1_555
C80 H122 1_555 1_555
C81 H123 1_555 1_555
H124 C81 1_555 1_555
H125 C81 1_555 1_555
C82 N3 1_555 1_555
O51 C77 1_555 1_555
O53 C80 1_555 1_555
N1 C52 1_555 1_555
N2 C77 1_555 1_555
N3 C80 1_555 1_555
C5 C6 1_555 1_555
O6 C9 1_555 1_555
C11 C12 1_555 1_555
O10 C15 1_555 1_555
C17 C18 1_555 1_555
O14 C21 1_555 1_555
C23 C24 1_555 1_555
O18 C27 1_555 1_555
C29 C30 1_555 1_555
O22 C33 1_555 1_555
C35 C36 1_555 1_555
O26 C39 1_555 1_555
C41 C42 1_555 1_555
C44 C48 1_555 1_555
O30 C45 1_555 1_555
C47 C48 1_555 1_555
C54 N1 1_555 1_555
C78 N2 1_555 1_555
C79 N2 1_555 1_555
C81 N3 1_555 1_555

#END
