
#######################################################################
#
#                 Cambridge Crystallographic Data Centre
#                                CCDC 
#
#######################################################################
#
# If this CIF has been generated from an entry in the Cambridge 
# Structural Database, then it will include bibliographic, chemical, 
# crystal, experimental, refinement or atomic coordinate data resulting 
# from the CCDC's data processing and validation procedures.
#
#######################################################################

data_OGIZOV
_chemical_name_common            
3-(5-(bis(4-ethoxyphenyl)amino)-2-thienyl)-1-(pyridin-3-yl)prop-2-en-1-one
_chemical_formula_moiety         'C28 H26 N2 O3 S1'
_chemical_name_systematic        
(E)-3-(5-(bis(4-ethoxyphenyl)amino)thiophen-2-yl)-1-(pyridin-3-yl)prop-2-en-1-one
_symmetry_cell_setting           triclinic
_symmetry_space_group_name_H-M   'P -1'
_symmetry_Int_Tables_number      2
_space_group_name_Hall           '-P 1'
loop_
_symmetry_equiv_pos_site_id
_symmetry_equiv_pos_as_xyz
1 x,y,z
2 -x,-y,-z
_cell_length_a                   9.185(4)
_cell_length_b                   11.757(5)
_cell_length_c                   12.715(5)
_cell_angle_alpha                100.884(6)
_cell_angle_beta                 101.591(5)
_cell_angle_gamma                106.300(5)
_cell_volume                     1246.32
_exptl_crystal_colour            red
_exptl_crystal_description       block
_chemical_melting_point          '435 K'
_cell_formula_units_Z            2
_exptl_crystal_recrystallization_method acetonitrile
_exptl_crystal_preparation       Luminescent
loop_
_atom_site_label
_atom_site_type_symbol
_atom_site_fract_x
_atom_site_fract_y
_atom_site_fract_z
C1 C 1.3442(5) 1.1590(3) 0.9956(3)
H1 H 1.4321 1.1612 1.0482
C2 C 1.3675(4) 1.2050(4) 0.9070(3)
H2 H 1.4686 1.2357 0.8992
C3 C 1.2398(4) 1.2052(3) 0.8298(3)
H3 H 1.2533 1.2368 0.7694
C4 C 1.0916(4) 1.1580(3) 0.8428(2)
C5 C 1.0810(4) 1.1106(3) 0.9334(3)
H4 H 0.9810 1.0754 0.9415
C6 C 0.9533(4) 1.1632(3) 0.7614(3)
C7 C 0.7950(4) 1.0877(3) 0.7573(2)
H5 H 0.7817 1.0330 0.8015
C8 C 0.6688(4) 1.0970(3) 0.6897(3)
H6 H 0.6905 1.1525 0.6470
C9 C 0.5064(4) 1.0337(3) 0.6746(2)
C10 C 0.3796(4) 1.0443(3) 0.6042(3)
H7 H 0.3909 1.0974 0.5583
C11 C 0.2324(4) 0.9703(3) 0.6059(3)
H8 H 0.1372 0.9690 0.5624
C12 C 0.2450(3) 0.8992(3) 0.6796(2)
C13 C -0.0343(4) 0.7792(3) 0.6403(3)
C14 C -0.0800(4) 0.7371(3) 0.5250(3)
H9 H -0.0042 0.7363 0.4863
C15 C -0.2362(4) 0.6967(3) 0.4681(3)
H10 H -0.2654 0.6701 0.3909
C16 C -0.3507(4) 0.6952(3) 0.5238(3)
C17 C -0.3063(4) 0.7379(3) 0.6378(3)
H11 H -0.3822 0.7388 0.6762
C18 C -0.1483(4) 0.7795(3) 0.6953(3)
H12 H -0.1191 0.8082 0.7724
C19 C -0.6248(4) 0.6400(3) 0.5131(3)
H13 H -0.6189 0.7207 0.5533
H14 H -0.6141 0.5911 0.5658
C20 C -0.7799(4) 0.5797(3) 0.4261(3)
H15 H -0.7917 0.6307 0.3765
H16 H -0.8641 0.5684 0.4614
H17 H -0.7830 0.5013 0.3849
C21 C 0.1622(3) 0.7506(3) 0.7843(3)
C22 C 0.1535(4) 0.6308(3) 0.7524(3)
H18 H 0.1305 0.5928 0.6771
C23 C 0.1781(4) 0.5648(3) 0.8294(3)
H19 H 0.1711 0.4830 0.8066
C24 C 0.2132(4) 0.6225(4) 0.9402(4)
C25 C 0.2228(4) 0.7414(5) 0.9735(3)
H20 H 0.2472 0.7798 1.0488
C26 C 0.1963(4) 0.8051(3) 0.8956(3)
H21 H 0.2017 0.8864 0.9187
C27 C 0.2441(14) 0.4678(13) 1.0223(13)
H22 H 0.3075 0.4540 0.9719
H23 H 0.1380 0.4099 0.9905
C28 C 0.314(7) 0.454(4) 1.134(3)
H24 H 0.4246 0.5006 1.1577
H25 H 0.2996 0.3694 1.1295
H26 H 0.2632 0.4847 1.1865
N1 N 1.2048(4) 1.1119(3) 1.0106(2)
N2 N 0.1270(3) 0.8147(2) 0.7024(2)
O1 O 0.9773(3) 1.2315(2) 0.70022(19)
O2 O -0.5029(3) 0.6504(2) 0.45878(17)
O3 O 0.2426(8) 0.5910(9) 1.0421(7)
S1 S 0.43952(9) 0.92713(7) 0.74736(7)
C29? C 0.2490(11) 0.5576(13) 1.1072(13)
H27? H 0.1523 0.5699 1.1179
H28? H 0.3358 0.6330 1.1451
C30? C 0.274(6) 0.455(3) 1.153(4)
H29? H 0.3199 0.4092 1.1063
H30? H 0.1750 0.4014 1.1554
H31? H 0.3439 0.4872 1.2268
O4? O 0.2396(10) 0.5258(11) 0.9902(9)
loop_
_geom_bond_atom_site_label_1
_geom_bond_atom_site_label_2
_geom_bond_site_symmetry_1
_geom_bond_site_symmetry_2
C1 H1 1_555 1_555
C2 C1 1_555 1_555
H2 C2 1_555 1_555
C3 C2 1_555 1_555
H3 C3 1_555 1_555
C4 C3 1_555 1_555
C5 C4 1_555 1_555
H4 C5 1_555 1_555
C6 C4 1_555 1_555
C7 C6 1_555 1_555
H5 C7 1_555 1_555
C8 C7 1_555 1_555
H6 C8 1_555 1_555
C9 C8 1_555 1_555
C10 C9 1_555 1_555
H7 C10 1_555 1_555
C11 C10 1_555 1_555
H8 C11 1_555 1_555
C12 C11 1_555 1_555
C13 C14 1_555 1_555
C14 H9 1_555 1_555
C15 C14 1_555 1_555
H10 C15 1_555 1_555
C16 C15 1_555 1_555
C17 C16 1_555 1_555
H11 C17 1_555 1_555
C18 C13 1_555 1_555
H12 C18 1_555 1_555
C19 H13 1_555 1_555
H14 C19 1_555 1_555
C20 C19 1_555 1_555
H15 C20 1_555 1_555
H16 C20 1_555 1_555
H17 C20 1_555 1_555
C21 C22 1_555 1_555
C22 H18 1_555 1_555
C23 C22 1_555 1_555
H19 C23 1_555 1_555
C24 C23 1_555 1_555
C25 C24 1_555 1_555
H20 C25 1_555 1_555
C26 C21 1_555 1_555
H21 C26 1_555 1_555
C27 H22 1_555 1_555
H23 C27 1_555 1_555
C28 C27 1_555 1_555
H24 C28 1_555 1_555
H25 C28 1_555 1_555
H26 C28 1_555 1_555
N1 C1 1_555 1_555
N2 C12 1_555 1_555
O1 C6 1_555 1_555
O2 C16 1_555 1_555
O3 C24 1_555 1_555
S1 C9 1_555 1_555
C5 N1 1_555 1_555
C12 S1 1_555 1_555
C13 N2 1_555 1_555
C17 C18 1_555 1_555
C19 O2 1_555 1_555
C21 N2 1_555 1_555
C25 C26 1_555 1_555
C27 O3 1_555 1_555

#END
