
#######################################################################
#
#                 Cambridge Crystallographic Data Centre
#                                CCDC 
#
#######################################################################
#
# If this CIF has been generated from an entry in the Cambridge 
# Structural Database, then it will include bibliographic, chemical, 
# crystal, experimental, refinement or atomic coordinate data resulting 
# from the CCDC's data processing and validation procedures.
#
#######################################################################

data_OGOKOM
_chemical_formula_moiety         'C28 H19 F2 N1'
_chemical_name_systematic        
3,4-bis(4-Fluorophenyl)-2,5-diphenyl-1H-pyrrole
_symmetry_cell_setting           orthorhombic
_symmetry_space_group_name_H-M   'P 21 21 21'
_symmetry_Int_Tables_number      19
_space_group_name_Hall           'P 2ac 2ab'
loop_
_symmetry_equiv_pos_site_id
_symmetry_equiv_pos_as_xyz
1 x,y,z
2 1/2-x,-y,1/2+z
3 -x,1/2+y,1/2-z
4 1/2+x,1/2-y,-z
_cell_length_a                   10.2133(15)
_cell_length_b                   10.5089(16)
_cell_length_c                   19.636(3)
_cell_angle_alpha                90
_cell_angle_beta                 90
_cell_angle_gamma                90
_cell_volume                     2107.54
_exptl_crystal_colour            colorless
_exptl_crystal_description       block
_cell_formula_units_Z            4
loop_
_atom_site_label
_atom_site_type_symbol
_atom_site_fract_x
_atom_site_fract_y
_atom_site_fract_z
F1 F 0.18183(19) 1.17331(15) 0.18558(11)
F2 F -0.48579(16) 0.92474(18) 0.05306(10)
N1 N 0.07365(19) 0.4479(2) 0.12722(11)
C1 C 0.0234(3) 0.8682(3) 0.19498(14)
H1 H -0.0498 0.8317 0.2153
C2 C 0.0490(3) 0.9950(3) 0.20600(15)
H2 H -0.0057 1.0443 0.2331
C3 C 0.1572(3) 1.0463(3) 0.17599(15)
C4 C 0.2407(3) 0.9769(3) 0.13695(14)
H3 H 0.3149 1.0142 0.1181
C5 C 0.2132(3) 0.8503(2) 0.12590(14)
H4 H 0.2691 0.8022 0.0988
C6 C 0.1038(3) 0.7932(3) 0.15436(13)
C7 C 0.0695(2) 0.6593(2) 0.14003(13)
C8 C 0.1463(3) 0.5514(3) 0.14738(13)
C9 C 0.2791(3) 0.5290(3) 0.17379(14)
C10 C 0.3267(3) 0.5932(3) 0.22962(16)
H5 H 0.2770 0.6576 0.2493
C11 C 0.4479(3) 0.5628(4) 0.25668(18)
H6 H 0.4790 0.6064 0.2946
C12 C 0.5219(3) 0.4688(3) 0.22780(19)
H7 H 0.6024 0.4473 0.2467
C13 C 0.4782(3) 0.4069(3) 0.17174(19)
H8 H 0.5299 0.3448 0.1514
C14 C 0.3568(3) 0.4360(3) 0.14465(16)
H9 H 0.3270 0.3925 0.1064
C15 C -0.2693(3) 0.8644(3) 0.03106(15)
H10 H -0.2654 0.9237 -0.0041
C16 C -0.1624(3) 0.7895(3) 0.04674(15)
H11 H -0.0853 0.7990 0.0220
C17 C -0.1681(3) 0.7008(2) 0.09863(14)
C18 C -0.2837(3) 0.6904(3) 0.13523(17)
H12 H -0.2893 0.6315 0.1705
C19 C -0.3912(3) 0.7662(3) 0.12029(19)
H13 H -0.4681 0.7598 0.1454
C20 C -0.3807(3) 0.8493(3) 0.06836(17)
C21 C -0.0540(2) 0.6176(3) 0.11463(14)
C22 C -0.0496(3) 0.4877(2) 0.10784(14)
C23 C -0.1462(3) 0.3938(3) 0.08417(15)
C24 C -0.1444(3) 0.2703(3) 0.10914(17)
H14 H -0.0820 0.2471 0.1413
C25 C -0.2341(4) 0.1813(3) 0.08675(19)
H15 H -0.2322 0.0991 0.1042
C26 C -0.3261(3) 0.2134(3) 0.03894(19)
H16 H -0.3859 0.1532 0.0235
C27 C -0.3289(3) 0.3354(3) 0.01406(17)
H17 H -0.3918 0.3582 -0.0180
C28 C -0.2399(3) 0.4243(3) 0.03591(15)
H18 H -0.2426 0.5062 0.0181
loop_
_geom_bond_atom_site_label_1
_geom_bond_atom_site_label_2
_geom_bond_site_symmetry_1
_geom_bond_site_symmetry_2
F1 C3 1_555 1_555
F2 C20 1_555 1_555
N1 C8 1_555 1_555
C1 H1 1_555 1_555
C2 C1 1_555 1_555
H2 C2 1_555 1_555
C3 C2 1_555 1_555
C4 C3 1_555 1_555
H3 C4 1_555 1_555
C5 C4 1_555 1_555
H4 C5 1_555 1_555
C6 C1 1_555 1_555
C7 C6 1_555 1_555
C8 C7 1_555 1_555
C9 C8 1_555 1_555
C10 C9 1_555 1_555
H5 C10 1_555 1_555
C11 C10 1_555 1_555
H6 C11 1_555 1_555
C12 C11 1_555 1_555
H7 C12 1_555 1_555
C13 C12 1_555 1_555
H8 C13 1_555 1_555
C14 C9 1_555 1_555
H9 C14 1_555 1_555
C15 H10 1_555 1_555
C16 C15 1_555 1_555
H11 C16 1_555 1_555
C17 C16 1_555 1_555
C18 C17 1_555 1_555
H12 C18 1_555 1_555
C19 C18 1_555 1_555
H13 C19 1_555 1_555
C20 C15 1_555 1_555
C21 C7 1_555 1_555
C22 N1 1_555 1_555
C23 C22 1_555 1_555
C24 C23 1_555 1_555
H14 C24 1_555 1_555
C25 C24 1_555 1_555
H15 C25 1_555 1_555
C26 C25 1_555 1_555
H16 C26 1_555 1_555
C27 C26 1_555 1_555
H17 C27 1_555 1_555
C28 C23 1_555 1_555
H18 C28 1_555 1_555
C5 C6 1_555 1_555
C13 C14 1_555 1_555
C17 C21 1_555 1_555
C19 C20 1_555 1_555
C21 C22 1_555 1_555
C27 C28 1_555 1_555

#END
