
#######################################################################
#
#                 Cambridge Crystallographic Data Centre
#                                CCDC 
#
#######################################################################
#
# If this CIF has been generated from an entry in the Cambridge 
# Structural Database, then it will include bibliographic, chemical, 
# crystal, experimental, refinement or atomic coordinate data resulting 
# from the CCDC's data processing and validation procedures.
#
#######################################################################

data_OGOYUG
_chemical_formula_moiety         'C27 H22 Br1 N1 O3'
_chemical_name_systematic        
2'-bromo-7'-(diethylamino)-3H,11'H-spiro[2-benzofuran-1,10'-indeno[1,2-b]chromen]-3-one
_symmetry_cell_setting           monoclinic
_symmetry_space_group_name_H-M   'C c'
_symmetry_Int_Tables_number      9
_space_group_name_Hall           'C -2yc'
loop_
_symmetry_equiv_pos_site_id
_symmetry_equiv_pos_as_xyz
1 x,y,z
2 x,-y,1/2+z
3 1/2+x,1/2+y,z
4 1/2+x,1/2-y,1/2+z
_cell_length_a                   19.206(5)
_cell_length_b                   11.111(3)
_cell_length_c                   10.847(3)
_cell_angle_alpha                90
_cell_angle_beta                 100.295(4)
_cell_angle_gamma                90
_cell_volume                     2277.46
_exptl_crystal_colour            colorless
_exptl_crystal_description       block
_cell_formula_units_Z            4
loop_
_atom_site_label
_atom_site_type_symbol
_atom_site_fract_x
_atom_site_fract_y
_atom_site_fract_z
Br1 Br 1.03902(5) 0.09858(7) 0.13942(8)
O1 O 0.89078(18) 0.2306(4) 0.6701(3)
C1 C 0.8891(3) 0.1041(5) 0.3661(6)
C2 C 0.9234(4) 0.0819(6) 0.2687(7)
H1 H 0.9012 0.0390 0.1990
O2 O 0.73078(18) 0.0007(3) 0.6024(4)
C3 C 0.7691(3) 0.1945(5) 0.6965(5)
C4 C 0.9910(3) 0.1234(6) 0.2746(6)
C5 C 0.8738(3) 0.1754(5) 0.5565(5)
C6 C 0.6633(3) -0.0266(7) 0.5492(6)
C7 C 0.7380(3) 0.2619(6) 0.8922(6)
H2 H 0.7040 0.2687 0.9430
C8 C 0.8111(3) 0.1249(5) 0.5109(5)
C9 C 0.8367(3) 0.2378(5) 0.7397(5)
N1 N 0.8251(4) 0.3562(9) 1.0503(7)
C10 C 0.9240(3) 0.1676(5) 0.4724(5)
C11 C 0.8154(3) 0.0729(5) 0.3846(6)
H3 H 0.7802 0.1089 0.3198
H4 H 0.8084 -0.0136 0.3839
C12 C 0.9928(3) 0.2074(6) 0.4787(6)
H5 H 1.0159 0.2488 0.5487
C13 C 0.7498(3) 0.1285(5) 0.5734(5)
C14 C 0.6337(3) 0.0768(7) 0.4762(6)
O3 O 0.6378(3) -0.1216(5) 0.5640(6)
C15 C 0.6028(6) 0.2912(13) 0.3539(9)
H6 H 0.5913 0.3626 0.3102
C16 C 0.7212(3) 0.2097(5) 0.7765(6)
H7 H 0.6750 0.1829 0.7502
C17 C 1.0259(3) 0.1849(6) 0.3800(6)
H8 H 1.0722 0.2107 0.3830
C18 C 0.8553(3) 0.2928(7) 0.8544(6)
H9 H 0.9011 0.3220 0.8788
C19 C 0.8071(4) 0.3054(7) 0.9342(6)
C20 C 0.5682(4) 0.0915(11) 0.4007(8)
H10 H 0.5346 0.0303 0.3908
C21 C 0.6828(3) 0.1713(6) 0.4907(5)
C22 C 0.6692(4) 0.2789(7) 0.4321(6)
H11 H 0.7020 0.3413 0.4431
C23 C 0.5550(5) 0.1986(16) 0.3417(9)
H12 H 0.5113 0.2099 0.2903
C24 C 0.7803(5) 0.3495(9) 1.1465(9)
H13 H 0.7535 0.2752 1.1374
H14 H 0.8096 0.3505 1.2292
C25 C 0.7332(7) 0.4500(10) 1.1328(14)
H15 H 0.7020 0.4455 1.0532
H16 H 0.7600 0.5233 1.1374
H17 H 0.7058 0.4488 1.1987
C26 C 0.911(2) 0.504(3) 1.050(4)
H18 H 0.9040 0.5008 0.9607
H19 H 0.9570 0.5355 1.0828
H20 H 0.8756 0.5559 1.0751
C27 C 0.9036(12) 0.375(2) 1.1040(16)
H21 H 0.9335 0.3167 1.0715
H22 H 0.9132 0.3731 1.1948
C28? C 0.9413(15) 0.421(3) 1.130(2)
H23? H 0.9365 0.4130 1.2165
H24? H 0.9796 0.4745 1.1238
H25? H 0.9509 0.3431 1.0980
C29? C 0.8786(17) 0.466(3) 1.061(2)
H26? H 0.8855 0.4925 0.9786
H27? H 0.8613 0.5337 1.1038
loop_
_geom_bond_atom_site_label_1
_geom_bond_atom_site_label_2
_geom_bond_site_symmetry_1
_geom_bond_site_symmetry_2
Br1 C4 1_555 1_555
O1 C5 1_555 1_555
C1 C2 1_555 1_555
C2 H1 1_555 1_555
O2 C6 1_555 1_555
C3 C9 1_555 1_555
C4 C2 1_555 1_555
C5 C8 1_555 1_555
C6 C14 1_555 1_555
C7 H2 1_555 1_555
C8 C11 1_555 1_555
C9 O1 1_555 1_555
N1 C19 1_555 1_555
C10 C1 1_555 1_555
C11 C1 1_555 1_555
H3 C11 1_555 1_555
H4 C11 1_555 1_555
C12 C10 1_555 1_555
H5 C12 1_555 1_555
C13 O2 1_555 1_555
C14 C20 1_555 1_555
O3 C6 1_555 1_555
C15 H6 1_555 1_555
C16 C3 1_555 1_555
H7 C16 1_555 1_555
C17 C4 1_555 1_555
H8 C17 1_555 1_555
C18 C9 1_555 1_555
H9 C18 1_555 1_555
C19 C7 1_555 1_555
C20 H10 1_555 1_555
C21 C13 1_555 1_555
C22 C15 1_555 1_555
H11 C22 1_555 1_555
C23 C15 1_555 1_555
H12 C23 1_555 1_555
C24 N1 1_555 1_555
H13 C24 1_555 1_555
H14 C24 1_555 1_555
C25 C24 1_555 1_555
H15 C25 1_555 1_555
H16 C25 1_555 1_555
H17 C25 1_555 1_555
C26 H18 1_555 1_555
H19 C26 1_555 1_555
H20 C26 1_555 1_555
C27 N1 1_555 1_555
H21 C27 1_555 1_555
H22 C27 1_555 1_555
C3 C13 1_555 1_555
C5 C10 1_555 1_555
C7 C16 1_555 1_555
C8 C13 1_555 1_555
C12 C17 1_555 1_555
C14 C21 1_555 1_555
C18 C19 1_555 1_555
C20 C23 1_555 1_555
C21 C22 1_555 1_555
C26 C27 1_555 1_555

#END
