
#######################################################################
#
#                 Cambridge Crystallographic Data Centre
#                                CCDC 
#
#######################################################################
#
# If this CIF has been generated from an entry in the Cambridge 
# Structural Database, then it will include bibliographic, chemical, 
# crystal, experimental, refinement or atomic coordinate data resulting 
# from the CCDC's data processing and validation procedures.
#
#######################################################################

data_OGUBUO
_chemical_formula_moiety         'C18 H16 N4 O3'
_chemical_name_systematic        
3-(2-Methyl-4-nitrophenyl)-7-phenyl-6,7-dihydro-4H-[1,2,3]triazolo[5,1-c][1,4]oxazine
_symmetry_cell_setting           orthorhombic
_symmetry_space_group_name_H-M   'P b c a'
_symmetry_Int_Tables_number      61
_space_group_name_Hall           '-P 2ac 2ab'
loop_
_symmetry_equiv_pos_site_id
_symmetry_equiv_pos_as_xyz
1 x,y,z
2 1/2-x,-y,1/2+z
3 -x,1/2+y,1/2-z
4 1/2+x,1/2-y,-z
5 -x,-y,-z
6 1/2+x,y,1/2-z
7 x,1/2-y,1/2+z
8 1/2-x,1/2+y,z
_cell_length_a                   11.3308(3)
_cell_length_b                   7.2577(2)
_cell_length_c                   39.1469(9)
_cell_angle_alpha                90
_cell_angle_beta                 90
_cell_angle_gamma                90
_cell_volume                     3219.27
_exptl_crystal_colour            'light brown'
_exptl_crystal_description       needle
_chemical_melting_point          '154-155 deg.C'
_cell_formula_units_Z            8
loop_
_atom_site_label
_atom_site_type_symbol
_atom_site_fract_x
_atom_site_fract_y
_atom_site_fract_z
C1 C 0.46847(13) 0.3676(2) 0.20460(4)
C2 C 0.56120(14) 0.4349(2) 0.17958(4)
H1 H 0.6313 0.4740 0.1923
C3 C 0.56913(14) -0.1937(2) 0.02045(4)
C4 C 0.58309(14) -0.0018(2) 0.08101(4)
C5 C 0.55297(13) 0.2679(2) 0.12376(4)
C6 C 0.59682(14) 0.1009(2) 0.11346(4)
C7 C 0.47382(15) 0.4213(2) 0.23853(4)
H2 H 0.5372 0.4917 0.2461
C8 C 0.46790(14) -0.1648(2) 0.03920(4)
H3 H 0.3959 -0.2089 0.0313
C9 C 0.47327(14) -0.0692(2) 0.07014(4)
C10 C 0.37376(15) 0.2598(2) 0.19404(4)
H4 H 0.3691 0.2213 0.1714
C11 C 0.51840(16) 0.5951(2) 0.15748(5)
H5 H 0.4848 0.6899 0.1720
H6 H 0.5849 0.6482 0.1454
C12 C 0.38584(17) 0.3715(2) 0.26134(4)
H7 H 0.3902 0.4092 0.2840
C13 C 0.67804(15) -0.1320(3) 0.03110(5)
H8 H 0.7455 -0.1540 0.0182
C14 C 0.29202(16) 0.2663(2) 0.25039(5)
H9 H 0.2325 0.2337 0.2656
C15 C 0.68397(14) -0.0365(3) 0.06158(5)
H10 H 0.7567 0.0057 0.0693
C16 C 0.48271(17) 0.4209(3) 0.10799(5)
H11 H 0.5336 0.4943 0.0935
H12 H 0.4207 0.3692 0.0939
C17 C 0.28655(15) 0.2094(2) 0.21681(5)
H13 H 0.2238 0.1368 0.2095
C18 C 0.36260(15) -0.0465(3) 0.09101(5)
H14 H 0.3222 0.0635 0.0840
H15 H 0.3829 -0.0375 0.1148
H16 H 0.3121 -0.1511 0.0876
N1 N 0.59458(11) 0.28833(17) 0.15576(3)
N2 N 0.66139(13) 0.1447(2) 0.16533(4)
N3 N 0.56112(13) -0.2916(2) -0.01211(4)
N4 N 0.66388(12) 0.0301(2) 0.13920(4)
O1 O 0.43189(10) 0.53520(17) 0.13347(3)
O2 O 0.46373(12) -0.3374(2) -0.02289(4)
O3 O 0.65224(13) -0.3264(3) -0.02757(4)
loop_
_geom_bond_atom_site_label_1
_geom_bond_atom_site_label_2
_geom_bond_site_symmetry_1
_geom_bond_site_symmetry_2
C1 C2 1_555 1_555
C2 H1 1_555 1_555
C3 C8 1_555 1_555
C4 C6 1_555 1_555
C5 C6 1_555 1_555
C6 N4 1_555 1_555
C7 C1 1_555 1_555
H2 C7 1_555 1_555
C8 H3 1_555 1_555
C9 C4 1_555 1_555
C10 C1 1_555 1_555
H4 C10 1_555 1_555
C11 C2 1_555 1_555
H5 C11 1_555 1_555
H6 C11 1_555 1_555
C12 C7 1_555 1_555
H7 C12 1_555 1_555
C13 C3 1_555 1_555
H8 C13 1_555 1_555
C14 C12 1_555 1_555
H9 C14 1_555 1_555
C15 C4 1_555 1_555
H10 C15 1_555 1_555
C16 C5 1_555 1_555
H11 C16 1_555 1_555
H12 C16 1_555 1_555
C17 C10 1_555 1_555
H13 C17 1_555 1_555
C18 C9 1_555 1_555
H14 C18 1_555 1_555
H15 C18 1_555 1_555
H16 C18 1_555 1_555
N1 C2 1_555 1_555
N2 N1 1_555 1_555
N3 C3 1_555 1_555
N4 N2 1_555 1_555
O1 C11 1_555 1_555
O2 N3 1_555 1_555
O3 N3 1_555 1_555
C5 N1 1_555 1_555
C8 C9 1_555 1_555
C13 C15 1_555 1_555
C14 C17 1_555 1_555
C16 O1 1_555 1_555

#END
