
#######################################################################
#
#                 Cambridge Crystallographic Data Centre
#                                CCDC 
#
#######################################################################
#
# If this CIF has been generated from an entry in the Cambridge 
# Structural Database, then it will include bibliographic, chemical, 
# crystal, experimental, refinement or atomic coordinate data resulting 
# from the CCDC's data processing and validation procedures.
#
#######################################################################

data_OGUCAV
_chemical_formula_moiety         'C24 H21 N3 O2'
_chemical_name_systematic        
3-(3-Methoxyphenyl)-6,7-diphenyl-6,7-dihydro-4H-[1,2,3]triazolo[5,1-c][1,4]oxazine
_symmetry_cell_setting           triclinic
_symmetry_space_group_name_H-M   'P -1'
_symmetry_Int_Tables_number      2
_space_group_name_Hall           '-P 1'
loop_
_symmetry_equiv_pos_site_id
_symmetry_equiv_pos_as_xyz
1 x,y,z
2 -x,-y,-z
_cell_length_a                   6.8927(7)
_cell_length_b                   9.7044(11)
_cell_length_c                   15.8321(18)
_cell_angle_alpha                89.115(8)
_cell_angle_beta                 81.221(7)
_cell_angle_gamma                72.546(7)
_cell_volume                     997.891
_exptl_crystal_colour            colorless
_exptl_crystal_description       cube
_chemical_melting_point          '196-197 deg.C'
_cell_formula_units_Z            2
loop_
_atom_site_label
_atom_site_type_symbol
_atom_site_fract_x
_atom_site_fract_y
_atom_site_fract_z
O1 O 0.33293(15) 0.98731(11) 0.78150(6)
O2 O 0.55921(17) 0.43018(12) 1.18281(7)
N1 N 0.74556(19) 0.79549(14) 0.97458(8)
N2 N 0.65039(18) 0.92617(13) 0.87044(7)
N3 N 0.80956(18) 0.87020(14) 0.91298(8)
C1 C 0.5550(2) 0.61393(16) 1.07733(9)
C2 C 0.4843(2) 0.88638(15) 0.90415(9)
C3 C 0.5465(2) 0.80178(15) 0.97100(9)
C4 C 0.4592(2) 0.53647(16) 1.13335(9)
C5 C 0.2924(2) 0.9413(2) 0.86613(10)
C6 C 0.2286(2) 0.75017(18) 1.04099(10)
C7 C 0.4403(2) 0.72256(15) 1.03054(9)
C8 C 0.6730(2) 1.00060(17) 0.79093(10)
C9 C 0.2487(3) 0.56416(19) 1.14273(11)
C10 C 0.7960(2) 0.89617(17) 0.71893(9)
C11 C 0.4527(2) 1.08413(17) 0.77665(10)
C12 C 0.1356(3) 0.67096(19) 1.09657(11)
C13 C 0.4468(2) 1.15672(17) 0.69252(10)
C14 C 0.7664(3) 0.76346(19) 0.70925(11)
C15 C 0.9406(3) 0.9333(2) 0.66132(13)
C16 C 0.7708(3) 0.4115(3) 1.18437(16)
C17 C 0.5149(4) 1.2761(2) 0.68026(13)
C18 C 0.8832(3) 0.6688(2) 0.64342(13)
C19 C 0.3763(3) 1.1071(2) 0.62589(12)
C20 C 0.5081(4) 1.3457(3) 0.60385(15)
C21 C 1.0259(3) 0.7078(3) 0.58668(14)
C22 C 0.3715(4) 1.1776(3) 0.54971(15)
C23 C 1.0544(4) 0.8390(3) 0.59506(15)
C24 C 0.4349(4) 1.2975(3) 0.53934(15)
H1 H 0.147(2) 0.8262(17) 1.0098(10)
H2 H 0.740(2) 1.0717(16) 0.7999(9)
H3 H 0.394(2) 1.1563(16) 0.8264(10)
H4 H 0.195(3) 1.0232(18) 0.9024(10)
H5 H 0.229(3) 0.8650(18) 0.8629(10)
H6 H 0.702(2) 0.5937(15) 1.0675(9)
H7 H -0.010(3) 0.6879(18) 1.1025(10)
H8 H 0.806(3) 0.335(2) 1.2257(12)
H9 H 0.185(3) 0.5149(17) 1.1822(11)
H10 H 0.786(3) 0.507(2) 1.2046(11)
H11 H 0.331(3) 1.019(2) 0.6373(13)
H12 H 0.854(3) 0.380(2) 1.1284(14)
H13 H 1.107(3) 0.642(2) 0.5414(13)
H14 H 0.665(3) 0.7348(18) 0.7465(11)
H15 H 0.860(3) 0.574(2) 0.6407(12)
H16 H 0.572(3) 1.305(2) 0.7240(13)
H17 H 0.430(3) 1.350(2) 0.4836(14)
H18 H 0.950(3) 1.031(2) 0.6675(12)
H19 H 0.563(4) 1.431(3) 0.6017(14)
H20 H 1.155(4) 0.866(2) 0.5528(14)
H21 H 0.324(4) 1.135(3) 0.5035(18)
loop_
_geom_bond_atom_site_label_1
_geom_bond_atom_site_label_2
_geom_bond_site_symmetry_1
_geom_bond_site_symmetry_2
O1 C5 1_555 1_555
O2 C4 1_555 1_555
N1 N3 1_555 1_555
N2 N3 1_555 1_555
C1 C4 1_555 1_555
C2 N2 1_555 1_555
C3 N1 1_555 1_555
C4 C9 1_555 1_555
C5 C2 1_555 1_555
C6 C7 1_555 1_555
C7 C1 1_555 1_555
C8 N2 1_555 1_555
C9 C12 1_555 1_555
C10 C8 1_555 1_555
C11 O1 1_555 1_555
C12 C6 1_555 1_555
C13 C11 1_555 1_555
C14 C10 1_555 1_555
C15 C10 1_555 1_555
C16 O2 1_555 1_555
C17 C13 1_555 1_555
C18 C14 1_555 1_555
C19 C13 1_555 1_555
C20 C17 1_555 1_555
C21 C18 1_555 1_555
C22 C19 1_555 1_555
C23 C15 1_555 1_555
C24 C20 1_555 1_555
H1 C6 1_555 1_555
H2 C8 1_555 1_555
H3 C11 1_555 1_555
H4 C5 1_555 1_555
H5 C5 1_555 1_555
H6 C1 1_555 1_555
H7 C12 1_555 1_555
H8 C16 1_555 1_555
H9 C9 1_555 1_555
H10 C16 1_555 1_555
H11 C19 1_555 1_555
H12 C16 1_555 1_555
H13 C21 1_555 1_555
H14 C14 1_555 1_555
H15 C18 1_555 1_555
H16 C17 1_555 1_555
H17 C24 1_555 1_555
H18 C15 1_555 1_555
H19 C20 1_555 1_555
H20 C23 1_555 1_555
H21 C22 1_555 1_555
C2 C3 1_555 1_555
C3 C7 1_555 1_555
C8 C11 1_555 1_555
C21 C23 1_555 1_555
C22 C24 1_555 1_555

#END
