
#######################################################################
#
#                 Cambridge Crystallographic Data Centre
#                                CCDC 
#
#######################################################################
#
# If this CIF has been generated from an entry in the Cambridge 
# Structural Database, then it will include bibliographic, chemical, 
# crystal, experimental, refinement or atomic coordinate data resulting 
# from the CCDC's data processing and validation procedures.
#
#######################################################################

data_OGUCUQ
_chemical_name_common            'gliomasolide C'
_chemical_formula_moiety         'C18 H32 O6,C5 H5 N1'
_chemical_name_systematic        
'5,6,7,8-tetrahydroxy-14-pentyloxacyclotetradec-3-en-2-one pyridine'
_symmetry_cell_setting           monoclinic
_symmetry_space_group_name_H-M   'C 2'
_symmetry_Int_Tables_number      5
_space_group_name_Hall           'C 2y'
loop_
_symmetry_equiv_pos_site_id
_symmetry_equiv_pos_as_xyz
1 x,y,z
2 -x,y,-z
3 1/2+x,1/2+y,z
4 1/2-x,1/2+y,-z
_cell_length_a                   26.5127(8)
_cell_length_b                   5.33762(15)
_cell_length_c                   16.6627(5)
_cell_angle_alpha                90
_cell_angle_beta                 91.282(3)
_cell_angle_gamma                90
_cell_volume                     2357.43
_exptl_crystal_colour            colorless
_exptl_crystal_description       needle
_cell_formula_units_Z            4
_exptl_crystal_recrystallization_method 'Vapour Deposition'
loop_
_atom_site_label
_atom_site_type_symbol
_atom_site_fract_x
_atom_site_fract_y
_atom_site_fract_z
O1 O 0.20925(8) 0.0846(4) 0.19991(12)
O2 O 0.20430(10) -0.3160(6) 0.24290(16)
O3 O 0.14666(10) 0.2884(5) 0.45477(16)
H1 H 0.1425 0.3511 0.5004
O4 O 0.05908(11) 0.0678(6) 0.52321(18)
H2 H 0.0485 0.2086 0.5078
O5 O 0.00770(5) -0.1433(2) 0.38065(8)
H3 H -0.0115 -0.0592 0.4106
O6 O 0.02042(5) 0.3733(2) 0.41087(8)
H4 H 0.0034 0.4950 0.3915
C1 C 0.20107(10) -0.0941(7) 0.25501(17)
C2 C 0.18555(9) 0.0295(5) 0.32973(15)
H5 H 0.1905 0.2049 0.3355
C3 C 0.16496(8) -0.0971(5) 0.38903(14)
H6 H 0.1664 -0.2748 0.3875
C4 C 0.13954(11) 0.0246(6) 0.4586(2)
H7 H 0.1561 -0.0378 0.5093
C5 C 0.08356(13) -0.0544(7) 0.4586(2)
H8 H 0.0829 -0.2380 0.4706
C6 C 0.05514(7) -0.0174(4) 0.37644(12)
H9 H 0.0752 -0.1049 0.3347
C7 C 0.04736(7) 0.2506(4) 0.34842(12)
H10 H 0.0810 0.3329 0.3426
C8 C 0.01772(8) 0.2678(4) 0.26840(12)
H11 H -0.0170 0.2068 0.2770
H12 H 0.0153 0.4464 0.2528
C9 C 0.03965(8) 0.1221(4) 0.19856(12)
H13 H 0.0154 0.1297 0.1526
H14 H 0.0430 -0.0558 0.2146
C10 C 0.09085(8) 0.2148(4) 0.17056(13)
H15 H 0.0873 0.3890 0.1508
H16 H 0.1149 0.2163 0.2168
C11 C 0.11218(8) 0.0524(5) 0.10414(12)
H17 H 0.0880 0.0528 0.0580
H18 H 0.1149 -0.1221 0.1239
C12 C 0.16404(8) 0.1346(5) 0.07446(13)
H19 H 0.1656 0.0970 0.0164
H20 H 0.1668 0.3186 0.0807
C13 C 0.20921(9) 0.0149(4) 0.11625(12)
H21 H 0.2081 -0.1714 0.1102
C14 C 0.25930(8) 0.1183(5) 0.08779(14)
H22 H 0.2594 0.1103 0.0284
H23 H 0.2616 0.2970 0.1033
C15 C 0.30580(9) -0.0165(4) 0.12045(13)
H24 H 0.3044 -0.1946 0.1039
H25 H 0.3060 -0.0105 0.1798
C16 C 0.35426(9) 0.1006(5) 0.09038(14)
H26 H 0.3517 0.1131 0.0312
H27 H 0.3569 0.2731 0.1119
C17 C 0.40222(9) -0.0393(5) 0.11279(15)
H28 H 0.4004 -0.2108 0.0902
H29 H 0.4051 -0.0538 0.1720
C18 C 0.44904(10) 0.0929(7) 0.08156(19)
H30 H 0.4470 0.1009 0.0228
H31 H 0.4793 -0.0006 0.0983
H32 H 0.4508 0.2631 0.1035
N1 N 0.14994(7) 0.5304(4) 0.60372(11)
C24 C 0.10922(8) 0.6056(5) 0.64122(13)
H43 H 0.0783 0.5217 0.6300
C25 C 0.10941(10) 0.8003(5) 0.69601(14)
H44 H 0.0792 0.8487 0.7215
C26 C 0.15387(11) 0.9221(5) 0.71281(15)
H45 H 0.1550 1.0580 0.7496
C27 C 0.19665(10) 0.8448(5) 0.67575(16)
H46 H 0.2281 0.9244 0.6870
C28 C 0.19343(9) 0.6484(5) 0.62140(14)
H47 H 0.2232 0.5953 0.5957
O7? O 0.1935(2) 0.0201(13) 0.2046(4)
O8? O 0.2090(3) -0.4004(18) 0.2188(5)
O9? O 0.1389(3) 0.3445(14) 0.4535(4)
H33? H 0.1100 0.3765 0.4706
O10? O 0.0673(3) 0.0675(19) 0.5168(6)
H34? H 0.0364 0.0319 0.5151
H35? H 0.0123 -0.2858 0.4024
H36? H 0.0001 0.2709 0.4321
C19? C 0.1963(4) -0.209(3) 0.2476(6)
C20? C 0.1806(3) -0.1682(15) 0.3313(4)
H37? H 0.1821 -0.3058 0.3674
C21? C 0.1644(3) 0.0505(14) 0.3584(4)
H38? H 0.1657 0.1916 0.3238
C22? C 0.1437(3) 0.087(2) 0.4424(6)
H39? H 0.1671 0.0131 0.4840
C23? C 0.0910(5) -0.031(2) 0.4467(7)
H40? H 0.0965 -0.2132 0.4574
H41? H 0.0731 -0.1017 0.3317
H42? H 0.2086 -0.1654 0.1000
loop_
_geom_bond_atom_site_label_1
_geom_bond_atom_site_label_2
_geom_bond_site_symmetry_1
_geom_bond_site_symmetry_2
O1 C1 1_555 1_555
O2 C1 1_555 1_555
O3 H1 1_555 1_555
O4 H2 1_555 1_555
O5 H3 1_555 1_555
O6 H4 1_555 1_555
C1 C2 1_555 1_555
C2 H5 1_555 1_555
C3 C2 1_555 1_555
H6 C3 1_555 1_555
C4 O3 1_555 1_555
H7 C4 1_555 1_555
C5 O4 1_555 1_555
H8 C5 1_555 1_555
C6 O5 1_555 1_555
H9 C6 1_555 1_555
C7 O6 1_555 1_555
H10 C7 1_555 1_555
C8 C7 1_555 1_555
H11 C8 1_555 1_555
H12 C8 1_555 1_555
C9 C8 1_555 1_555
H13 C9 1_555 1_555
H14 C9 1_555 1_555
C10 C9 1_555 1_555
H15 C10 1_555 1_555
H16 C10 1_555 1_555
C11 C10 1_555 1_555
H17 C11 1_555 1_555
H18 C11 1_555 1_555
C12 C11 1_555 1_555
H19 C12 1_555 1_555
H20 C12 1_555 1_555
C13 O1 1_555 1_555
H21 C13 1_555 1_555
C14 C13 1_555 1_555
H22 C14 1_555 1_555
H23 C14 1_555 1_555
C15 C14 1_555 1_555
H24 C15 1_555 1_555
H25 C15 1_555 1_555
C16 C15 1_555 1_555
H26 C16 1_555 1_555
H27 C16 1_555 1_555
C17 C16 1_555 1_555
H28 C17 1_555 1_555
H29 C17 1_555 1_555
C18 C17 1_555 1_555
H30 C18 1_555 1_555
H31 C18 1_555 1_555
H32 C18 1_555 1_555
N1 C24 1_555 1_555
C24 H43 1_555 1_555
C25 C24 1_555 1_555
H44 C25 1_555 1_555
C26 C25 1_555 1_555
H45 C26 1_555 1_555
C27 C26 1_555 1_555
H46 C27 1_555 1_555
C28 N1 1_555 1_555
H47 C28 1_555 1_555
C3 C4 1_555 1_555
C4 C5 1_555 1_555
C5 C6 1_555 1_555
C6 C7 1_555 1_555
C12 C13 1_555 1_555
C27 C28 1_555 1_555

#END
