
#######################################################################
#
#                 Cambridge Crystallographic Data Centre
#                                CCDC 
#
#######################################################################
#
# If this CIF has been generated from an entry in the Cambridge 
# Structural Database, then it will include bibliographic, chemical, 
# crystal, experimental, refinement or atomic coordinate data resulting 
# from the CCDC's data processing and validation procedures.
#
#######################################################################

data_OGUKOS
_chemical_formula_moiety         'C22 H13 Cl1 N2 O7,C1 H1 Cl3'
_chemical_name_systematic        
'4-(6-chloro-4-oxo-4H-chromen-3-yl)-2-(methylamino)-3-nitro-4H,5H-pyrano[3,2-c]chromen-5-one chloroform solvate'
_symmetry_cell_setting           triclinic
_symmetry_space_group_name_H-M   'P -1'
_symmetry_Int_Tables_number      2
_space_group_name_Hall           '-P 1'
loop_
_symmetry_equiv_pos_site_id
_symmetry_equiv_pos_as_xyz
1 x,y,z
2 -x,-y,-z
_cell_length_a                   8.3716(2)
_cell_length_b                   11.6435(3)
_cell_length_c                   13.1018(4)
_cell_angle_alpha                86.4550(10)
_cell_angle_beta                 88.2510(10)
_cell_angle_gamma                69.8410(10)
_cell_volume                     1196.51
_exptl_crystal_colour            colorless
_exptl_crystal_description       block
_cell_formula_units_Z            2
loop_
_atom_site_label
_atom_site_type_symbol
_atom_site_fract_x
_atom_site_fract_y
_atom_site_fract_z
C1 C -0.5208(4) 0.5466(3) 0.1998(2)
C2 C -0.4799(4) 0.6959(3) 0.0737(2)
C3 C -0.5346(5) 0.8171(3) 0.0384(3)
H1 H -0.6217 0.8758 0.0718
C4 C -0.4574(5) 0.8492(3) -0.0477(3)
H2 H -0.4933 0.9306 -0.0724
C5 C -0.3270(5) 0.7624(3) -0.0982(3)
H3 H -0.2765 0.7858 -0.1562
C6 C -0.2729(4) 0.6421(3) -0.0623(2)
H4 H -0.1853 0.5839 -0.0959
C7 C -0.3495(4) 0.6070(3) 0.0248(2)
C8 C -0.3013(3) 0.4847(2) 0.0697(2)
C9 C -0.1360(4) 0.2793(2) 0.0413(2)
C10 C 0.0238(5) 0.2595(3) -0.1213(2)
H5 H 0.0962 0.1924 -0.1587
H6 H 0.0864 0.3110 -0.1046
H7 H -0.0723 0.3063 -0.1623
C11 C -0.2074(4) 0.2403(2) 0.1280(2)
C12 C -0.3170(3) 0.3268(2) 0.2033(2)
H8 H -0.4176 0.3036 0.2181
C13 C -0.3764(3) 0.4543(2) 0.1542(2)
C14 C -0.2271(3) 0.3199(2) 0.30355(19)
C15 C -0.0778(3) 0.3561(3) 0.3073(2)
C16 C -0.0029(3) 0.3416(2) 0.4100(2)
C17 C 0.1418(3) 0.3715(3) 0.4272(2)
H9 H 0.1959 0.3994 0.3731
C18 C 0.2030(4) 0.3593(3) 0.5248(2)
C19 C 0.1236(4) 0.3189(3) 0.6067(2)
H10 H 0.1665 0.3122 0.6723
C20 C -0.0170(5) 0.2890(4) 0.5912(2)
H11 H -0.0704 0.2613 0.6457
C21 C -0.0794(4) 0.3003(3) 0.4929(2)
C22 C -0.2851(4) 0.2778(3) 0.3880(2)
H12 H -0.3792 0.2537 0.3815
N1 N -0.1828(3) 0.1178(2) 0.14793(19)
N2 N -0.0351(3) 0.2123(2) -0.02750(18)
H13 H -0.0009 0.1341 -0.0163
O1 O -0.2193(3) 0.2669(2) 0.48229(15)
O2 O -0.0185(3) 0.3960(2) 0.23230(15)
O3 O -0.6066(3) 0.5286(2) 0.26914(18)
O4 O -0.5634(3) 0.66546(19) 0.15818(17)
O5 O -0.1722(2) 0.40090(17) 0.01840(14)
O6 O -0.0894(4) 0.0396(2) 0.08874(18)
O7 O -0.2521(3) 0.0856(2) 0.22354(17)
Cl1 Cl 0.38122(10) 0.39733(9) 0.54961(7)
C23 C -0.3248(6) 0.0682(4) 0.6398(4)
H14 H -0.3592 0.1565 0.6229
Cl2 Cl -0.4964(2) 0.03955(18) 0.70060(11)
Cl3 Cl -0.1553(2) 0.02863(16) 0.72379(17)
Cl4 Cl -0.2684(3) -0.00705(16) 0.52616(15)
loop_
_geom_bond_atom_site_label_1
_geom_bond_atom_site_label_2
_geom_bond_site_symmetry_1
_geom_bond_site_symmetry_2
C1 C13 1_555 1_555
C2 C3 1_555 1_555
C3 H1 1_555 1_555
C4 C3 1_555 1_555
H2 C4 1_555 1_555
C5 C4 1_555 1_555
H3 C5 1_555 1_555
C6 C5 1_555 1_555
H4 C6 1_555 1_555
C7 C2 1_555 1_555
C8 C7 1_555 1_555
C9 C11 1_555 1_555
C10 H5 1_555 1_555
H6 C10 1_555 1_555
H7 C10 1_555 1_555
C11 C12 1_555 1_555
C12 H8 1_555 1_555
C13 C8 1_555 1_555
C14 C12 1_555 1_555
C15 C14 1_555 1_555
C16 C15 1_555 1_555
C17 C16 1_555 1_555
H9 C17 1_555 1_555
C18 C17 1_555 1_555
C19 C18 1_555 1_555
H10 C19 1_555 1_555
C20 C19 1_555 1_555
H11 C20 1_555 1_555
C21 C16 1_555 1_555
C22 C14 1_555 1_555
H12 C22 1_555 1_555
N1 C11 1_555 1_555
N2 C9 1_555 1_555
H13 N2 1_555 1_555
O1 C21 1_555 1_555
O2 C15 1_555 1_555
O3 C1 1_555 1_555
O4 C1 1_555 1_555
O5 C8 1_555 1_555
O6 N1 1_555 1_555
O7 N1 1_555 1_555
Cl1 C18 1_555 1_555
C23 H14 1_555 1_555
Cl2 C23 1_555 1_555
Cl3 C23 1_555 1_555
Cl4 C23 1_555 1_555
C2 O4 1_555 1_555
C6 C7 1_555 1_555
C9 O5 1_555 1_555
C10 N2 1_555 1_555
C12 C13 1_555 1_555
C20 C21 1_555 1_555
C22 O1 1_555 1_555

#END
