
#######################################################################
#
#                 Cambridge Crystallographic Data Centre
#                                CCDC 
#
#######################################################################
#
# If this CIF has been generated from an entry in the Cambridge 
# Structural Database, then it will include bibliographic, chemical, 
# crystal, experimental, refinement or atomic coordinate data resulting 
# from the CCDC's data processing and validation procedures.
#
#######################################################################

data_OGUMEK
_chemical_compound_source        
'Isolated from the fungus Gliomastix sp. ZSDS1-F7-2 from the marine sponge Phakellia fusca Thiele.'
_chemical_name_common            
5,6-dihydroxy-14-pentyl-8-((3,4,5-trihydroxy-6-(hydroxymethyl)tetrahydro-2H-pyran-2-yl)oxy)oxacyclotetradec-3-en-2-one
_chemical_formula_moiety         'C24 H42 O10'
_chemical_name_systematic        'gliomasolide B'
_symmetry_cell_setting           monoclinic
_symmetry_space_group_name_H-M   'C 2'
_symmetry_Int_Tables_number      5
_space_group_name_Hall           'C 2y'
loop_
_symmetry_equiv_pos_site_id
_symmetry_equiv_pos_as_xyz
1 x,y,z
2 -x,y,-z
3 1/2+x,1/2+y,z
4 1/2-x,1/2+y,-z
_cell_length_a                   24.385(5)
_cell_length_b                   5.3330(11)
_cell_length_c                   19.745(4)
_cell_angle_alpha                90
_cell_angle_beta                 92.23(3)
_cell_angle_gamma                90
_cell_volume                     2565.8
_exptl_crystal_colour            colorless
_exptl_crystal_description       needle
_chemical_melting_point          '481-483 K'
_cell_formula_units_Z            4
_exptl_crystal_recrystallization_method methanol
loop_
_atom_site_label
_atom_site_type_symbol
_atom_site_fract_x
_atom_site_fract_y
_atom_site_fract_z
O1 O 0.11870(11) 0.5056(4) 0.63191(10)
O2 O 0.13100(10) 0.9149(4) 0.65246(10)
O3 O 0.11305(5) 0.1208(3) 0.85707(8)
H1 H 0.0794 0.1548 0.8543
O4 O 0.21208(6) 0.2444(4) 0.92480(8)
H2 H 0.2450 0.2079 0.9345
O5 O 0.31802(5) 0.1617(3) 0.85544(7)
O6 O 0.30779(6) 0.1174(4) 0.99185(7)
H3 H 0.2985 0.0050 1.0189
O7 O 0.41349(7) 0.3192(4) 1.03388(10)
H4 H 0.3892 0.4047 1.0521
O8 O 0.48147(7) 0.4194(4) 0.92272(12)
H5 H 0.5133 0.3866 0.9379
O9 O 0.39548(6) -0.0951(3) 0.85746(8)
O10 O 0.51062(6) -0.1792(4) 0.85585(12)
H6 H 0.4876 -0.2828 0.8696
C1 C 0.12400(10) 0.7047(5) 0.67205(13)
C2 C 0.12336(8) 0.6372(5) 0.74495(12)
H7 H 0.1154 0.7631 0.7772
C3 C 0.13363(8) 0.4051(5) 0.76624(11)
H8 H 0.1345 0.2751 0.7334
C4 C 0.14393(8) 0.3370(5) 0.83967(11)
H9 H 0.1330 0.4809 0.8686
C5 C 0.20514(8) 0.2810(5) 0.85344(10)
H10 H 0.2267 0.4323 0.8407
C6 C 0.22633(8) 0.0553(4) 0.81398(10)
H11 H 0.2034 0.0338 0.7719
H12 H 0.2225 -0.0979 0.8417
C7 C 0.28656(8) 0.0842(4) 0.79537(10)
H13 H 0.3006 -0.0818 0.7800
C8 C 0.29540(9) 0.2776(5) 0.74033(11)
H14 H 0.3338 0.3379 0.7439
H15 H 0.2710 0.4230 0.7473
C9 C 0.28346(16) 0.1678(8) 0.66824(15)
H16 H 0.3099 0.0312 0.6600
H17 H 0.2461 0.0948 0.6660
C10 C 0.28773(16) 0.3670(9) 0.61235(16)
H18 H 0.3193 0.4782 0.6234
H19 H 0.2946 0.2829 0.5688
C11 C 0.23526(15) 0.5259(7) 0.60451(16)
H20 H 0.2441 0.6883 0.5832
H21 H 0.2211 0.5608 0.6499
C12 C 0.18928(13) 0.3876(7) 0.55955(15)
H22 H 0.2007 0.3794 0.5120
H23 H 0.1850 0.2137 0.5761
C13 C 0.13600(12) 0.5204(6) 0.56208(12)
H24 H 0.1378 0.6966 0.5449
C14 C 0.0854(4) 0.359(2) 0.5260(5)
H25 H 0.0845 0.1879 0.5457
H26 H 0.0500 0.4416 0.5339
C15 C 0.0947(4) 0.3424(19) 0.4490(4)
H27 H 0.0939 0.5135 0.4295
H28 H 0.1314 0.2700 0.4417
C16 C 0.0523(3) 0.1863(19) 0.4134(4)
H29 H 0.0157 0.2540 0.4234
H30 H 0.0545 0.0140 0.4320
C17 C 0.0568(4) 0.173(2) 0.3383(4)
H31 H 0.0924 0.0942 0.3283
H32 H 0.0572 0.3455 0.3201
C18 C 0.0121(4) 0.030(2) 0.3015(5)
H33 H 0.0238 -0.0139 0.2561
H34 H -0.0211 0.1331 0.2978
H35 H 0.0043 -0.1241 0.3266
C19 C 0.34608(8) -0.0344(4) 0.88919(11)
H36 H 0.3219 -0.1860 0.8890
C20 C 0.35749(8) 0.0481(5) 0.96205(11)
H37 H 0.3742 -0.0950 0.9882
C21 C 0.39701(9) 0.2686(5) 0.96522(12)
H38 H 0.3790 0.4201 0.9445
C22 C 0.44814(9) 0.2040(5) 0.92750(13)
H39 H 0.4691 0.0703 0.9529
C23 C 0.43353(8) 0.1112(5) 0.85606(12)
H40 H 0.4163 0.2517 0.8293
C24 C 0.48281(10) 0.0157(6) 0.81954(15)
H41 H 0.4706 -0.0473 0.7743
H42 H 0.5086 0.1563 0.8129
H43? H 0.2866 0.4447 0.7588
H44? H 0.3349 0.2783 0.7306
C25? C 0.2637(5) 0.246(3) 0.6749(6)
H45? H 0.2776 0.0953 0.6520
H46? H 0.2249 0.2145 0.6850
C26? C 0.2654(6) 0.450(2) 0.6291(6)
H47? H 0.3042 0.5035 0.6285
H48? H 0.2451 0.5887 0.6499
C27? C 0.2450(4) 0.436(3) 0.5558(6)
H49? H 0.2514 0.5967 0.5322
H50? H 0.2637 0.2998 0.5316
H51? H 0.1884 0.2788 0.6001
H52? H 0.1826 0.2723 0.5208
H53? H 0.1421 0.7008 0.5507
H54? H 0.1420 0.7008 0.5506
C28? C 0.0970(4) 0.415(2) 0.5113(4)
H55? H 0.0932 0.2337 0.5213
H56? H 0.0609 0.4929 0.5181
C29? C 0.1083(4) 0.438(2) 0.4402(4)
H57? H 0.1425 0.3444 0.4316
H58? H 0.1152 0.6167 0.4301
C30? C 0.0623(4) 0.341(2) 0.3903(5)
H59? H 0.0289 0.4425 0.3969
H60? H 0.0738 0.3713 0.3435
C31? C 0.0474(5) 0.066(2) 0.3970(6)
H61? H 0.0813 -0.0366 0.3986
H62? H 0.0285 0.0392 0.4399
C32? C 0.0105(5) -0.017(3) 0.3382(6)
H63? H 0.0326 -0.0488 0.2987
H64? H -0.0165 0.1142 0.3273
H65? H -0.0086 -0.1717 0.3503
C33? C 0.0834(7) 0.441(4) 0.5306(9)
C34? C 0.0727(5) 0.454(3) 0.4593(6)
C35? C 0.0623(5) 0.722(3) 0.4278(6)
H66? H 0.0316 0.8017 0.4511
H67? H 0.0954 0.8261 0.4366
H68? H 0.0777 0.2643 0.5440
H69? H 0.0544 0.5404 0.5520
H70? H 0.0402 0.3490 0.4479
H71? H 0.1043 0.3788 0.4367
C36? C 0.0360(8) -0.034(4) 0.3286(9)
H72? H 0.0618 0.0894 0.3480
C37? C 0.0493(7) -0.280(4) 0.3555(8)
H73? H 0.0812 -0.3468 0.3317
H74? H 0.0179 -0.3934 0.3461
H75? H 0.0384 -0.0364 0.2792
H76? H -0.0015 0.0107 0.3404
loop_
_geom_bond_atom_site_label_1
_geom_bond_atom_site_label_2
_geom_bond_site_symmetry_1
_geom_bond_site_symmetry_2
O1 C1 1_555 1_555
O2 C1 1_555 1_555
O3 H1 1_555 1_555
O4 H2 1_555 1_555
O5 C7 1_555 1_555
O6 H3 1_555 1_555
O7 H4 1_555 1_555
O8 H5 1_555 1_555
O9 C19 1_555 1_555
O10 H6 1_555 1_555
C1 C2 1_555 1_555
C2 H7 1_555 1_555
C3 C2 1_555 1_555
H8 C3 1_555 1_555
C4 O3 1_555 1_555
H9 C4 1_555 1_555
C5 O4 1_555 1_555
H10 C5 1_555 1_555
C6 C5 1_555 1_555
H11 C6 1_555 1_555
H12 C6 1_555 1_555
C7 C6 1_555 1_555
H13 C7 1_555 1_555
C8 C7 1_555 1_555
H14 C8 1_555 1_555
H15 C8 1_555 1_555
C9 C8 1_555 1_555
H16 C9 1_555 1_555
H17 C9 1_555 1_555
C10 C9 1_555 1_555
H18 C10 1_555 1_555
H19 C10 1_555 1_555
C11 C10 1_555 1_555
H20 C11 1_555 1_555
H21 C11 1_555 1_555
C12 C11 1_555 1_555
H22 C12 1_555 1_555
H23 C12 1_555 1_555
C13 O1 1_555 1_555
H24 C13 1_555 1_555
C14 C13 1_555 1_555
H25 C14 1_555 1_555
H26 C14 1_555 1_555
C15 C14 1_555 1_555
H27 C15 1_555 1_555
H28 C15 1_555 1_555
C16 C15 1_555 1_555
H29 C16 1_555 1_555
H30 C16 1_555 1_555
C17 C16 1_555 1_555
H31 C17 1_555 1_555
H32 C17 1_555 1_555
C18 C17 1_555 1_555
H33 C18 1_555 1_555
H34 C18 1_555 1_555
H35 C18 1_555 1_555
C19 O5 1_555 1_555
H36 C19 1_555 1_555
C20 O6 1_555 1_555
H37 C20 1_555 1_555
C21 O7 1_555 1_555
H38 C21 1_555 1_555
C22 O8 1_555 1_555
H39 C22 1_555 1_555
C23 O9 1_555 1_555
H40 C23 1_555 1_555
C24 O10 1_555 1_555
H41 C24 1_555 1_555
H42 C24 1_555 1_555
C3 C4 1_555 1_555
C4 C5 1_555 1_555
C12 C13 1_555 1_555
C19 C20 1_555 1_555
C20 C21 1_555 1_555
C21 C22 1_555 1_555
C22 C23 1_555 1_555
C23 C24 1_555 1_555

#END
