
#######################################################################
#
#                 Cambridge Crystallographic Data Centre
#                                CCDC 
#
#######################################################################
#
# If this CIF has been generated from an entry in the Cambridge 
# Structural Database, then it will include bibliographic, chemical, 
# crystal, experimental, refinement or atomic coordinate data resulting 
# from the CCDC's data processing and validation procedures.
#
#######################################################################

data_OGUVIV
_chemical_formula_moiety         'C21 H27 N3 O4,C1 H4 O1'
_chemical_name_systematic        
(1',8'S)-N-(t-Butoxycarbonyl)-8'-amino-2',3',4',5',6',7',8'-heptahydrospiro[imidazolidine-4,1'-anthracene]-2,5-dione
_symmetry_cell_setting           monoclinic
_symmetry_space_group_name_H-M   'P 21'
_symmetry_Int_Tables_number      4
_space_group_name_Hall           'P 2yb'
loop_
_symmetry_equiv_pos_site_id
_symmetry_equiv_pos_as_xyz
1 x,y,z
2 -x,1/2+y,-z
_cell_length_a                   13.491(3)
_cell_length_b                   7.0471(15)
_cell_length_c                   13.506(3)
_cell_angle_alpha                90
_cell_angle_beta                 113.167(4)
_cell_angle_gamma                90
_cell_volume                     1180.51
_chemical_melting_point          224deg.C
_cell_formula_units_Z            2
_exptl_crystal_recrystallization_method chloroform/hexane
loop_
_atom_site_label
_atom_site_type_symbol
_atom_site_fract_x
_atom_site_fract_y
_atom_site_fract_z
C1 C -0.2275(4) 0.1545(6) -0.4300(3)
C2 C -0.1415(4) 0.1319(6) -0.3316(4)
C3 C -0.0347(4) 0.1654(5) -0.3171(3)
C4 C -0.0124(4) 0.2274(6) -0.4039(4)
C5 C -0.0983(4) 0.2472(6) -0.5020(4)
C6 C -0.2057(4) 0.2129(6) -0.5186(3)
C7 C -0.2942(4) 0.2307(7) -0.6284(3)
C8 C -0.3962(4) 0.1320(7) -0.6372(4)
C9 C -0.4257(4) 0.1856(8) -0.5446(4)
C10 C -0.3407(4) 0.1179(7) -0.4380(4)
C11 C 0.0550(4) 0.1269(6) -0.2084(3)
C12 C 0.1607(4) 0.2204(7) -0.1977(4)
C13 C 0.1840(4) 0.2048(9) -0.2917(4)
C14 C 0.0991(4) 0.2735(7) -0.3930(4)
N1 N -0.3572(3) 0.2061(5) -0.3479(3)
C15 C -0.3675(4) 0.1074(9) -0.2681(4)
O1 O -0.3695(3) 0.2310(5) -0.1929(3)
O2 O -0.3717(3) -0.0621(5) -0.2618(3)
C16 C -0.3853(5) 0.1717(9) -0.0983(4)
C17 C -0.3041(6) 0.0371(12) -0.0352(4)
C18 C -0.3759(6) 0.3549(9) -0.0377(5)
C19 C -0.4998(5) 0.1085(13) -0.1365(5)
N2 N 0.0258(3) 0.1791(5) -0.1179(3)
N3 N 0.0424(3) -0.1302(5) -0.1042(3)
O3 O -0.0064(2) 0.0300(4) 0.0191(2)
O4 O 0.0947(3) -0.2031(4) -0.2418(2)
C20 C 0.0181(4) 0.0295(7) -0.0594(3)
C21 C 0.0671(4) -0.0893(7) -0.1904(4)
H1 H -0.1557 0.0927 -0.2727
H2 H -0.0836 0.2859 -0.5607
H3 H -0.2698 0.1774 -0.6812
H4 H -0.3094 0.3641 -0.6452
H5 H -0.4544 0.1669 -0.7045
H6 H -0.3862 -0.0043 -0.6374
H7 H -0.4948 0.1296 -0.5549
H8 H -0.4328 0.3224 -0.5427
H9 H -0.3493 -0.0194 -0.4333
H10 H 0.1580 0.3537 -0.1811
H11 H 0.2192 0.1629 -0.1376
H12 H 0.1982 0.0725 -0.3012
H13 H 0.2497 0.2750 -0.2795
H14 H 0.1109 0.2182 -0.4533
H15 H 0.1057 0.4101 -0.3970
H16 H -0.3605 0.3278 -0.3461
H17 H -0.3119 -0.0783 -0.0754
H18 H -0.3127 0.0107 0.0307
H19 H -0.2338 0.0895 -0.0191
H20 H -0.3028 0.3993 -0.0116
H21 H -0.3962 0.3339 0.0221
H22 H -0.4227 0.4482 -0.0849
H23 H -0.5086 -0.0083 -0.1756
H24 H -0.5459 0.2038 -0.1827
H25 H -0.5187 0.0892 -0.0757
H26 H 0.0146 0.2942 -0.1038
H27 H 0.0420 -0.2433 -0.0804
C22 C -0.1913(6) -0.3747(10) -0.2936(8)
O5 O -0.3002(3) -0.3934(5) -0.3314(3)
H28 H -0.1724 -0.2428 -0.2819
H29 H -0.1658 -0.4256 -0.3452
H30 H -0.1587 -0.4424 -0.2269
H31 H -0.3247 -0.3140 -0.3028
loop_
_geom_bond_atom_site_label_1
_geom_bond_atom_site_label_2
_geom_bond_site_symmetry_1
_geom_bond_site_symmetry_2
C1 C2 1_555 1_555
C2 C3 1_555 1_555
C3 C4 1_555 1_555
C4 C5 1_555 1_555
C5 C6 1_555 1_555
C6 C1 1_555 1_555
C7 C6 1_555 1_555
C8 C7 1_555 1_555
C9 C8 1_555 1_555
C10 C1 1_555 1_555
C11 C3 1_555 1_555
C12 C11 1_555 1_555
C13 C12 1_555 1_555
C14 C4 1_555 1_555
N1 C10 1_555 1_555
C15 N1 1_555 1_555
O1 C15 1_555 1_555
O2 C15 1_555 1_555
C16 O1 1_555 1_555
C17 C16 1_555 1_555
C18 C16 1_555 1_555
C19 C16 1_555 1_555
N2 C11 1_555 1_555
N3 C20 1_555 1_555
O3 C20 1_555 1_555
O4 C21 1_555 1_555
C20 N2 1_555 1_555
C21 C11 1_555 1_555
C22 O5 1_555 1_555
O5 H31 1_555 1_555
H1 C2 1_555 1_555
H2 C5 1_555 1_555
H3 C7 1_555 1_555
H4 C7 1_555 1_555
H5 C8 1_555 1_555
H6 C8 1_555 1_555
H7 C9 1_555 1_555
H8 C9 1_555 1_555
H9 C10 1_555 1_555
H10 C12 1_555 1_555
H11 C12 1_555 1_555
H12 C13 1_555 1_555
H13 C13 1_555 1_555
H14 C14 1_555 1_555
H15 C14 1_555 1_555
H16 N1 1_555 1_555
H17 C17 1_555 1_555
H18 C17 1_555 1_555
H19 C17 1_555 1_555
H20 C18 1_555 1_555
H21 C18 1_555 1_555
H22 C18 1_555 1_555
H23 C19 1_555 1_555
H24 C19 1_555 1_555
H25 C19 1_555 1_555
H26 N2 1_555 1_555
H27 N3 1_555 1_555
H28 C22 1_555 1_555
H29 C22 1_555 1_555
H30 C22 1_555 1_555
C9 C10 1_555 1_555
C13 C14 1_555 1_555
N3 C21 1_555 1_555

#END
