
#######################################################################
#
#                 Cambridge Crystallographic Data Centre
#                                CCDC 
#
#######################################################################
#
# If this CIF has been generated from an entry in the Cambridge 
# Structural Database, then it will include bibliographic, chemical, 
# crystal, experimental, refinement or atomic coordinate data resulting 
# from the CCDC's data processing and validation procedures.
#
#######################################################################

data_OGUWIY
_chemical_formula_moiety         'C24 H32 N2 O4 S2'
_chemical_name_systematic        
'Methyl (R~S~,2R,3S)-cis-N-(t-butylsulfinyl)-1-((4-methylphenyl)sulfonyl)-2-phenylpiperidine-3-carboximidate'
_symmetry_cell_setting           tetragonal
_symmetry_space_group_name_H-M   'P 43 21 2'
_symmetry_Int_Tables_number      96
_space_group_name_Hall           'P 4nw 2abw'
loop_
_symmetry_equiv_pos_site_id
_symmetry_equiv_pos_as_xyz
1 x,y,z
2 1/2-y,1/2+x,3/4+z
3 -x,-y,1/2+z
4 1/2+y,1/2-x,1/4+z
5 1/2+x,1/2-y,1/4-z
6 1/2-x,1/2+y,3/4-z
7 y,x,-z
8 -y,-x,1/2-z
_cell_length_a                   10.85357(10)
_cell_length_b                   10.85357(10)
_cell_length_c                   42.3747(8)
_cell_angle_alpha                90
_cell_angle_beta                 90
_cell_angle_gamma                90
_cell_volume                     4991.74
_exptl_crystal_colour            colorless
_exptl_crystal_description       plate
_chemical_melting_point          '132.0-134.0 deg.C'
_cell_formula_units_Z            8
loop_
_atom_site_label
_atom_site_type_symbol
_atom_site_fract_x
_atom_site_fract_y
_atom_site_fract_z
S1 S 0.65649(8) -0.11506(9) 0.15955(2)
S2 S 0.45882(8) 0.02448(8) 0.05114(2)
O1 O 0.6237(3) -0.2203(3) 0.17810(6)
O2 O 0.5677(2) -0.0194(3) 0.15446(6)
O3 O 0.7846(2) -0.0617(2) 0.02341(6)
O4 O 0.4183(2) -0.0876(2) 0.06839(6)
N1 N 0.6975(3) -0.1668(3) 0.12483(7)
N2 N 0.5919(3) 0.0084(3) 0.03222(7)
C1 C 0.6996(3) -0.0773(3) 0.09836(8)
H1 H 0.6223 -0.0277 0.1004
C2 C 0.6852(3) -0.1530(3) 0.06757(8)
H2 H 0.6030 -0.1945 0.0687
C3 C 0.7817(4) -0.2548(3) 0.06458(9)
H3 H 0.8653 -0.2184 0.0642
H4 H 0.7690 -0.3010 0.0447
C4 C 0.7689(4) -0.3420(3) 0.09295(9)
H5 H 0.6870 -0.3821 0.0924
H6 H 0.8324 -0.4072 0.0916
C5 C 0.7834(3) -0.2719(3) 0.12400(8)
H7 H 0.7663 -0.3277 0.1419
H8 H 0.8691 -0.2417 0.1260
C6 C 0.7875(3) -0.0485(3) 0.17680(8)
C7 C 0.8739(4) -0.1226(3) 0.19189(8)
H9 H 0.8601 -0.2086 0.1942
C8 C 0.9804(4) -0.0686(4) 0.20348(9)
H10 H 1.0385 -0.1186 0.2143
C9 C 1.0052(3) 0.0555(4) 0.19979(9)
C10 C 0.9182(4) 0.1279(3) 0.18430(9)
H11 H 0.9337 0.2133 0.1814
C11 C 0.8094(4) 0.0775(3) 0.17313(9)
H12 H 0.7501 0.1283 0.1630
C12 C 1.1227(4) 0.1111(4) 0.21213(10)
H13 H 1.1236 0.1061 0.2352
H14 H 1.1278 0.1975 0.2056
H15 H 1.1933 0.0657 0.2036
C13 C 0.8049(3) 0.0156(4) 0.09797(8)
C14 C 0.9298(4) -0.0139(4) 0.09959(9)
H16 H 0.9544 -0.0978 0.1007
C15 C 1.0187(4) 0.0783(5) 0.09965(11)
H17 H 1.1034 0.0567 0.1011
C16 C 0.9857(5) 0.2005(5) 0.09758(11)
H18 H 1.0471 0.2629 0.0976
C17 C 0.8627(5) 0.2317(4) 0.09553(11)
H19 H 0.8392 0.3158 0.0941
C18 C 0.7728(4) 0.1398(4) 0.09562(9)
H20 H 0.6884 0.1621 0.0940
C19 C 0.6798(3) -0.0637(3) 0.04020(8)
C20 C 0.7887(4) 0.0257(4) -0.00231(9)
H21 H 0.7180 0.0123 -0.0163
H22 H 0.8652 0.0145 -0.0143
H23 H 0.7857 0.1097 0.0062
C21 C 0.3619(4) 0.0305(4) 0.01539(9)
C22 C 0.2315(4) 0.0390(4) 0.02861(11)
H24 H 0.2140 -0.0341 0.0414
H25 H 0.1724 0.0438 0.0112
H26 H 0.2243 0.1130 0.0417
C23 C 0.3783(4) -0.0874(4) -0.00366(10)
H27 H 0.4630 -0.0918 -0.0116
H28 H 0.3206 -0.0874 -0.0215
H29 H 0.3619 -0.1588 0.0099
C24 C 0.3970(4) 0.1439(4) -0.00372(9)
H30 H 0.3889 0.2175 0.0095
H31 H 0.3423 0.1510 -0.0220
H32 H 0.4825 0.1361 -0.0109
loop_
_geom_bond_atom_site_label_1
_geom_bond_atom_site_label_2
_geom_bond_site_symmetry_1
_geom_bond_site_symmetry_2
S1 O1 1_555 1_555
S2 O4 1_555 1_555
O2 S1 1_555 1_555
O3 C19 1_555 1_555
N1 S1 1_555 1_555
N2 S2 1_555 1_555
C1 N1 1_555 1_555
H1 C1 1_555 1_555
C2 C1 1_555 1_555
H2 C2 1_555 1_555
C3 C2 1_555 1_555
H3 C3 1_555 1_555
H4 C3 1_555 1_555
C4 C3 1_555 1_555
H5 C4 1_555 1_555
H6 C4 1_555 1_555
C5 N1 1_555 1_555
H7 C5 1_555 1_555
H8 C5 1_555 1_555
C6 S1 1_555 1_555
C7 C6 1_555 1_555
H9 C7 1_555 1_555
C8 C7 1_555 1_555
H10 C8 1_555 1_555
C9 C8 1_555 1_555
C10 C9 1_555 1_555
H11 C10 1_555 1_555
C11 C6 1_555 1_555
H12 C11 1_555 1_555
C12 C9 1_555 1_555
H13 C12 1_555 1_555
H14 C12 1_555 1_555
H15 C12 1_555 1_555
C13 C1 1_555 1_555
C14 C13 1_555 1_555
H16 C14 1_555 1_555
C15 C14 1_555 1_555
H17 C15 1_555 1_555
C16 C15 1_555 1_555
H18 C16 1_555 1_555
C17 C16 1_555 1_555
H19 C17 1_555 1_555
C18 C13 1_555 1_555
H20 C18 1_555 1_555
C19 N2 1_555 1_555
C20 O3 1_555 1_555
H21 C20 1_555 1_555
H22 C20 1_555 1_555
H23 C20 1_555 1_555
C21 S2 1_555 1_555
C22 C21 1_555 1_555
H24 C22 1_555 1_555
H25 C22 1_555 1_555
H26 C22 1_555 1_555
C23 C21 1_555 1_555
H27 C23 1_555 1_555
H28 C23 1_555 1_555
H29 C23 1_555 1_555
C24 C21 1_555 1_555
H30 C24 1_555 1_555
H31 C24 1_555 1_555
H32 C24 1_555 1_555
C2 C19 1_555 1_555
C4 C5 1_555 1_555
C10 C11 1_555 1_555
C17 C18 1_555 1_555

#END
