
#######################################################################
#
#                 Cambridge Crystallographic Data Centre
#                                CCDC 
#
#######################################################################
#
# If this CIF has been generated from an entry in the Cambridge 
# Structural Database, then it will include bibliographic, chemical, 
# crystal, experimental, refinement or atomic coordinate data resulting 
# from the CCDC's data processing and validation procedures.
#
#######################################################################

data_OGUWOE
_chemical_formula_moiety         'C24 H32 N2 O4 S2'
_chemical_name_systematic        
'Methyl (R~S~,2S,3R)-cis-N-(t-butylsulfinyl)-1-((4-methylphenyl)sulfonyl)-2-phenylpiperidine-3-carboximidate'
_symmetry_cell_setting           tetragonal
_symmetry_space_group_name_H-M   'P 41 21 2'
_symmetry_Int_Tables_number      92
_space_group_name_Hall           'P 4abw 2nw'
loop_
_symmetry_equiv_pos_site_id
_symmetry_equiv_pos_as_xyz
1 x,y,z
2 1/2-y,1/2+x,1/4+z
3 -x,-y,1/2+z
4 1/2+y,1/2-x,3/4+z
5 1/2+x,1/2-y,3/4-z
6 1/2-x,1/2+y,1/4-z
7 y,x,-z
8 -y,-x,1/2-z
_cell_length_a                   10.87406(11)
_cell_length_b                   10.87406(11)
_cell_length_c                   41.9807(7)
_cell_angle_alpha                90
_cell_angle_beta                 90
_cell_angle_gamma                90
_cell_volume                     4964.02
_exptl_crystal_colour            colorless
_exptl_crystal_description       plate
_chemical_melting_point          '113.0-114.0 deg.C'
_cell_formula_units_Z            8
loop_
_atom_site_label
_atom_site_type_symbol
_atom_site_fract_x
_atom_site_fract_y
_atom_site_fract_z
S1 S 0.87271(8) 0.63970(8) 0.16263(2)
S2 S 0.96305(8) 0.43211(8) 0.05054(2)
O1 O 0.7676(2) 0.6158(3) 0.18241(6)
O2 O 0.9614(3) 0.5443(2) 0.15711(6)
O3 O 0.9182(2) 0.7659(2) 0.02594(6)
O4 O 1.0664(2) 0.4279(2) 0.07374(6)
N1 N 0.8182(3) 0.6795(3) 0.12775(6)
N2 N 0.9734(3) 0.5668(3) 0.03069(7)
C1 C 0.9057(3) 0.6784(3) 0.10031(8)
H1 H 0.9540 0.6005 0.1023
C2 C 0.8261(3) 0.6642(3) 0.06977(7)
H2 H 0.7844 0.5825 0.0713
C3 C 0.7243(3) 0.7605(3) 0.06727(8)
H3 H 0.6760 0.7472 0.0476
H4 H 0.7607 0.8439 0.0664
C4 C 0.6408(3) 0.7493(3) 0.09640(8)
H5 H 0.5752 0.8123 0.0952
H6 H 0.6011 0.6674 0.0964
C5 C 0.7126(3) 0.7661(3) 0.12713(8)
H7 H 0.7429 0.8518 0.1286
H8 H 0.6583 0.7503 0.1456
C6 C 0.9501(3) 0.7683(3) 0.17841(8)
C7 C 0.8837(3) 0.8589(3) 0.19381(8)
H9 H 0.7979 0.8494 0.1973
C8 C 0.9446(3) 0.9641(3) 0.20413(9)
H10 H 0.8995 1.0264 0.2149
C9 C 1.0700(3) 0.9800(3) 0.19909(9)
C10 C 1.1345(3) 0.8872(4) 0.18347(8)
H11 H 1.2200 0.8970 0.1796
C11 C 1.0759(3) 0.7808(3) 0.17353(8)
H12 H 1.1213 0.7170 0.1635
C12 C 1.1346(4) 1.0953(4) 0.21003(10)
H13 H 1.1355 1.0979 0.2334
H14 H 1.0910 1.1675 0.2018
H15 H 1.2193 1.0953 0.2020
C13 C 1.0000(3) 0.7823(3) 0.09926(8)
C14 C 0.9741(4) 0.9070(3) 0.10113(9)
H16 H 0.8910 0.9336 0.1025
C15 C 1.0682(4) 0.9934(4) 0.10106(10)
H17 H 1.0490 1.0784 0.1028
C16 C 1.1887(4) 0.9571(4) 0.09850(10)
H18 H 1.2526 1.0168 0.0985
C17 C 1.2171(4) 0.8335(4) 0.09599(10)
H19 H 1.3003 0.8078 0.0941
C18 C 1.1225(4) 0.7470(4) 0.09623(9)
H20 H 1.1421 0.6621 0.0943
C19 C 0.9107(3) 0.6580(3) 0.04111(8)
C20 C 1.0016(4) 0.7681(4) -0.00105(9)
H21 H 0.9776 0.7046 -0.0164
H22 H 1.0857 0.7524 0.0063
H23 H 0.9980 0.8490 -0.0113
C21 C 1.0055(3) 0.3345(4) 0.01668(9)
C22 C 1.0169(4) 0.2067(4) 0.03165(10)
H24 H 1.0867 0.2056 0.0464
H25 H 1.0300 0.1454 0.0149
H26 H 0.9412 0.1871 0.0433
C23 C 1.1262(3) 0.3757(4) 0.00156(8)
H27 H 1.1162 0.4583 -0.0074
H28 H 1.1490 0.3182 -0.0154
H29 H 1.1910 0.3770 0.0178
C24 C 0.8995(4) 0.3398(4) -0.00704(10)
H30 H 0.8230 0.3156 0.0036
H31 H 0.9160 0.2835 -0.0248
H32 H 0.8913 0.4238 -0.0152
loop_
_geom_bond_atom_site_label_1
_geom_bond_atom_site_label_2
_geom_bond_site_symmetry_1
_geom_bond_site_symmetry_2
S1 O1 1_555 1_555
S2 O4 1_555 1_555
O2 S1 1_555 1_555
O3 C19 1_555 1_555
N1 S1 1_555 1_555
N2 S2 1_555 1_555
C1 N1 1_555 1_555
H1 C1 1_555 1_555
C2 C1 1_555 1_555
H2 C2 1_555 1_555
C3 C2 1_555 1_555
H3 C3 1_555 1_555
H4 C3 1_555 1_555
C4 C3 1_555 1_555
H5 C4 1_555 1_555
H6 C4 1_555 1_555
C5 N1 1_555 1_555
H7 C5 1_555 1_555
H8 C5 1_555 1_555
C6 S1 1_555 1_555
C7 C6 1_555 1_555
H9 C7 1_555 1_555
C8 C7 1_555 1_555
H10 C8 1_555 1_555
C9 C8 1_555 1_555
C10 C9 1_555 1_555
H11 C10 1_555 1_555
C11 C6 1_555 1_555
H12 C11 1_555 1_555
C12 C9 1_555 1_555
H13 C12 1_555 1_555
H14 C12 1_555 1_555
H15 C12 1_555 1_555
C13 C1 1_555 1_555
C14 C13 1_555 1_555
H16 C14 1_555 1_555
C15 C14 1_555 1_555
H17 C15 1_555 1_555
C16 C15 1_555 1_555
H18 C16 1_555 1_555
C17 C16 1_555 1_555
H19 C17 1_555 1_555
C18 C13 1_555 1_555
H20 C18 1_555 1_555
C19 N2 1_555 1_555
C20 O3 1_555 1_555
H21 C20 1_555 1_555
H22 C20 1_555 1_555
H23 C20 1_555 1_555
C21 S2 1_555 1_555
C22 C21 1_555 1_555
H24 C22 1_555 1_555
H25 C22 1_555 1_555
H26 C22 1_555 1_555
C23 C21 1_555 1_555
H27 C23 1_555 1_555
H28 C23 1_555 1_555
H29 C23 1_555 1_555
C24 C21 1_555 1_555
H30 C24 1_555 1_555
H31 C24 1_555 1_555
H32 C24 1_555 1_555
C2 C19 1_555 1_555
C4 C5 1_555 1_555
C10 C11 1_555 1_555
C17 C18 1_555 1_555

#END
