
#######################################################################
#
#                 Cambridge Crystallographic Data Centre
#                                CCDC 
#
#######################################################################
#
# If this CIF has been generated from an entry in the Cambridge 
# Structural Database, then it will include bibliographic, chemical, 
# crystal, experimental, refinement or atomic coordinate data resulting 
# from the CCDC's data processing and validation procedures.
#
#######################################################################

data_OGUXEV
_chemical_formula_moiety         'C19 H22 N2 O3 S1,0.58(H2 O1)'
_chemical_name_systematic        
'(2S,3R)-1-((4-Methylphenyl)sulfonyl)-2-phenylpiperidine-3-carboxamide hydrate'
_symmetry_cell_setting           monoclinic
_symmetry_space_group_name_H-M   'P 21'
_symmetry_Int_Tables_number      4
_space_group_name_Hall           'P 2yb'
loop_
_symmetry_equiv_pos_site_id
_symmetry_equiv_pos_as_xyz
1 x,y,z
2 -x,1/2+y,-z
_cell_length_a                   9.5055(3)
_cell_length_b                   10.2450(2)
_cell_length_c                   10.5267(3)
_cell_angle_alpha                90
_cell_angle_beta                 114.610(4)
_cell_angle_gamma                90
_cell_volume                     932.011
_exptl_crystal_colour            colorless
_exptl_crystal_description       plate
_chemical_melting_point          '178.0-180.0 deg.C'
_cell_formula_units_Z            2
loop_
_atom_site_label
_atom_site_type_symbol
_atom_site_fract_x
_atom_site_fract_y
_atom_site_fract_z
C1 C 0.7001(2) 0.5994(2) 0.4093(2)
H1 H 0.6992 0.6853 0.3640
C2 C 0.8511(2) 0.5983(2) 0.5466(2)
H2 H 0.8619 0.6869 0.5896
C3 C 0.8500(3) 0.4996(2) 0.6547(2)
H3 H 0.8456 0.4100 0.6181
H4 H 0.9464 0.5080 0.7411
C4 C 0.7105(3) 0.5235(2) 0.6875(2)
H5 H 0.7098 0.4585 0.7569
H6 H 0.7182 0.6114 0.7288
C5 C 0.5609(3) 0.5131(2) 0.5560(2)
H7 H 0.5469 0.4224 0.5204
H8 H 0.4720 0.5356 0.5777
C6 C 0.2956(2) 0.5168(2) 0.2245(2)
C7 C 0.1903(3) 0.4508(2) 0.2610(2)
H9 H 0.1814 0.4711 0.3454
C8 C 0.0982(3) 0.3547(2) 0.1722(2)
H10 H 0.0255 0.3095 0.1963
C9 C 0.1105(3) 0.3235(2) 0.0483(3)
C10 C 0.2190(3) 0.3899(2) 0.0154(3)
H11 H 0.2299 0.3685 -0.0678
C11 C 0.3114(3) 0.4870(2) 0.1027(2)
H12 H 0.3845 0.5323 0.0791
C12 C 0.0074(3) 0.2205(3) -0.0480(3)
H13 H 0.0419 0.1340 -0.0073
H14 H 0.0127 0.2259 -0.1389
H15 H -0.0996 0.2348 -0.0605
C13 C 0.6899(2) 0.4965(2) 0.3018(2)
C14 C 0.6641(3) 0.3644(2) 0.3150(3)
H16 H 0.6554 0.3337 0.3966
C15 C 0.6510(3) 0.2770(3) 0.2093(3)
H17 H 0.6342 0.1869 0.2195
C16 C 0.6624(3) 0.3205(3) 0.0902(3)
H18 H 0.6514 0.2608 0.0176
C17 C 0.6897(3) 0.4509(3) 0.0761(3)
H19 H 0.6991 0.4807 -0.0055
C18 C 0.7035(3) 0.5385(3) 0.1814(3)
H20 H 0.7225 0.6281 0.1713
C19 C 0.9890(2) 0.5789(2) 0.5097(2)
N1 N 0.5663(2) 0.60310(18) 0.44834(19)
N2 N 1.0339(2) 0.68529(19) 0.4635(2)
H21 H 1.114(2) 0.678(3) 0.445(3)
H22 H 1.003(4) 0.7647(17) 0.469(3)
O1 O 0.31044(18) 0.69450(15) 0.40198(17)
O2 O 0.43285(18) 0.73957(15) 0.23989(17)
O3 O 1.05107(19) 0.47126(16) 0.51868(18)
S1 S 0.39995(5) 0.64978(5) 0.32852(5)
O4 O 0.3400(4) 0.4390(4) 0.7591(4)
H23 H 0.387(6) 0.376(5) 0.744(6)
H24 H 0.268(6) 0.464(6) 0.684(4)
loop_
_geom_bond_atom_site_label_1
_geom_bond_atom_site_label_2
_geom_bond_site_symmetry_1
_geom_bond_site_symmetry_2
C1 H1 1_555 1_555
C2 C1 1_555 1_555
H2 C2 1_555 1_555
C3 C2 1_555 1_555
H3 C3 1_555 1_555
H4 C3 1_555 1_555
C4 C3 1_555 1_555
H5 C4 1_555 1_555
H6 C4 1_555 1_555
C5 C4 1_555 1_555
H7 C5 1_555 1_555
H8 C5 1_555 1_555
C6 C7 1_555 1_555
C7 H9 1_555 1_555
C8 C7 1_555 1_555
H10 C8 1_555 1_555
C9 C8 1_555 1_555
C10 C9 1_555 1_555
H11 C10 1_555 1_555
C11 C6 1_555 1_555
H12 C11 1_555 1_555
C12 C9 1_555 1_555
H13 C12 1_555 1_555
H14 C12 1_555 1_555
H15 C12 1_555 1_555
C13 C1 1_555 1_555
C14 C13 1_555 1_555
H16 C14 1_555 1_555
C15 C14 1_555 1_555
H17 C15 1_555 1_555
C16 C15 1_555 1_555
H18 C16 1_555 1_555
C17 C16 1_555 1_555
H19 C17 1_555 1_555
C18 C13 1_555 1_555
H20 C18 1_555 1_555
C19 C2 1_555 1_555
N1 C1 1_555 1_555
N2 C19 1_555 1_555
H21 N2 1_555 1_555
H22 N2 1_555 1_555
O1 S1 1_555 1_555
O2 S1 1_555 1_555
O3 C19 1_555 1_555
S1 C6 1_555 1_555
O4 H23 1_555 1_555
H24 O4 1_555 1_555
C5 N1 1_555 1_555
C10 C11 1_555 1_555
C17 C18 1_555 1_555
N1 S1 1_555 1_555

#END
