
#######################################################################
#
#                 Cambridge Crystallographic Data Centre
#                                CCDC 
#
#######################################################################
#
# If this CIF has been generated from an entry in the Cambridge 
# Structural Database, then it will include bibliographic, chemical, 
# crystal, experimental, refinement or atomic coordinate data resulting 
# from the CCDC's data processing and validation procedures.
#
#######################################################################

data_OHACIL
_chemical_formula_moiety         'C48 H54 N14 O8,2(C1 H1 Cl3)'
_chemical_name_systematic        
'9,28-bis(2-(2-(2-methoxyethoxy)ethoxy)ethoxy)-3,4,5,13,14,15,22,23,24,32,33,34,42,47-tetradecaazanonacyclo[34.2.2.2^17,20^.1^3,6^.1^7,11^.1^12,15^.1^22,25^.1^26,30^.1^31,34^]octatetraconta-1(38),4,6(48),7(47),8,10,12(46),13,17,19,23,25(43),26(42),27,29,31(41),32,36,39,44-icosaene chloroform solvate'
_symmetry_cell_setting           monoclinic
_symmetry_space_group_name_H-M   'P 21/c'
_symmetry_Int_Tables_number      14
_space_group_name_Hall           '-P 2ybc'
loop_
_symmetry_equiv_pos_site_id
_symmetry_equiv_pos_as_xyz
1 x,y,z
2 -x,1/2+y,1/2-z
3 -x,-y,-z
4 x,1/2-y,1/2+z
_cell_length_a                   28.5151(15)
_cell_length_b                   9.2145(11)
_cell_length_c                   11.0706(12)
_cell_angle_alpha                90
_cell_angle_beta                 101.193(3)
_cell_angle_gamma                90
_cell_volume                     2853.5
_exptl_crystal_colour            colorless
_exptl_crystal_description       sheet
_cell_formula_units_Z            2
loop_
_atom_site_label
_atom_site_type_symbol
_atom_site_fract_x
_atom_site_fract_y
_atom_site_fract_z
C1 C 0.39712(14) 0.5916(5) 0.9884(4)
H1 H 0.3975 0.5001 1.0338
Cl1 Cl 0.34619(4) 0.59436(12) 0.87339(10)
Cl2 Cl 0.44868(4) 0.59941(13) 0.92621(11)
Cl3 Cl 0.39584(4) 0.73556(12) 1.09241(11)
C2 C 0.28936(11) 0.5347(4) 0.1773(3)
H2 H 0.2880 0.6366 0.1552
H3 H 0.3064 0.4831 0.1226
C3 C 0.31465(12) 0.5157(4) 0.3094(3)
H4 H 0.3452 0.5654 0.3231
H5 H 0.2955 0.5568 0.3644
C4 C 0.33177(15) 0.3382(5) 0.5513(4)
H6 H 0.3372 0.4418 0.5609
H7 H 0.3149 0.3061 0.6147
C5 C 0.30312(13) 0.3087(4) 0.4314(4)
H8 H 0.3001 0.2044 0.4206
H9 H 0.2713 0.3475 0.4284
C6 C 0.40633(18) 0.3252(5) 0.6644(5)
H10 H 0.3885 0.3405 0.7295
H11 H 0.4165 0.4196 0.6405
C7 C 0.44867(18) 0.2401(6) 0.7140(5)
H12 H 0.4723 0.2610 0.6641
H13 H 0.4613 0.2770 0.7959
C8 C 0.45386(17) 0.0434(6) 0.8465(5)
H14 H 0.4851 0.0739 0.8874
H15 H 0.4517 -0.0604 0.8498
H16 H 0.4302 0.0858 0.8868
C9 C 0.17267(11) 0.3778(3) 0.0498(3)
H17 H 0.1646 0.3423 0.1217
C10 C 0.14316(10) 0.3515(3) -0.0638(3)
C11 C 0.21418(11) 0.4573(4) 0.0547(3)
C12 C 0.22467(10) 0.5088(3) -0.0559(3)
H18 H 0.2516 0.5654 -0.0569
C13 C 0.19350(10) 0.4722(3) -0.1638(3)
C14 C 0.20145(10) 0.5242(3) -0.2854(3)
C15 C 0.17256(11) 0.5013(3) -0.3975(3)
H19 H 0.1440 0.4498 -0.4141
C16 C 0.17943(11) 0.5807(4) -0.6134(3)
H20 H 0.1758 0.4838 -0.6481
H21 H 0.2044 0.6292 -0.6465
C17 C 0.13326(11) 0.6622(4) -0.6531(3)
C18 C 0.10604(12) 0.6367(4) -0.7695(3)
H22 H 0.1150 0.5635 -0.8184
C19 C 0.11770(11) 0.7676(4) -0.5827(3)
H23 H 0.1348 0.7849 -0.5035
C20 C 0.09785(10) 0.2727(3) -0.0750(3)
C21 C 0.06881(10) 0.2159(3) -0.1766(3)
H24 H 0.0737 0.2193 -0.2573
C22 C -0.00898(11) 0.0761(4) -0.2074(3)
H25 H -0.0190 0.0030 -0.1546
H26 H 0.0006 0.0265 -0.2760
C23 C -0.05130(10) 0.1748(3) -0.2566(3)
C24 C -0.06542(13) 0.2802(4) -0.1863(3)
H27 H -0.0479 0.2974 -0.1077
C25 C -0.07771(12) 0.1521(4) -0.3739(3)
H28 H -0.0681 0.0813 -0.4238
N1 N 0.15335(8) 0.3956(3) -0.1708(2)
N2 N 0.07702(9) 0.2438(3) 0.0239(2)
N3 N 0.03707(9) 0.1706(3) -0.0145(2)
N4 N 0.03233(9) 0.1548(3) -0.1376(2)
N5 N 0.23886(10) 0.6058(4) -0.3026(2)
N6 N 0.23564(10) 0.6318(4) -0.4204(2)
N7 N 0.19443(9) 0.5695(3) -0.4789(2)
O1 O 0.24192(7) 0.4773(3) 0.1666(2)
O2 O 0.32158(8) 0.3671(3) 0.3327(2)
O3 O 0.37606(10) 0.2652(3) 0.5647(3)
O4 O 0.44580(11) 0.0886(4) 0.7234(3)
C2B C -0.28936(11) 0.4653(4) -1.1773(3)
H2B H -0.2880 0.3634 -1.1552
H3B H -0.3064 0.5169 -1.1226
C3B C -0.31465(12) 0.4843(4) -1.3094(3)
H4B H -0.3452 0.4346 -1.3231
H5B H -0.2955 0.4432 -1.3644
C4B C -0.33177(15) 0.6618(5) -1.5513(4)
H6B H -0.3372 0.5582 -1.5609
H7B H -0.3149 0.6939 -1.6147
C5B C -0.30312(13) 0.6913(4) -1.4314(4)
H8B H -0.3001 0.7956 -1.4206
H9B H -0.2713 0.6525 -1.4284
C6B C -0.40633(18) 0.6748(5) -1.6644(5)
H10B H -0.3885 0.6595 -1.7295
H11B H -0.4165 0.5804 -1.6405
C7B C -0.44867(18) 0.7599(6) -1.7140(5)
H12B H -0.4723 0.7390 -1.6641
H13B H -0.4613 0.7230 -1.7959
C8B C -0.45386(17) 0.9566(6) -1.8465(5)
H14B H -0.4851 0.9261 -1.8874
H15B H -0.4517 1.0604 -1.8498
H16B H -0.4302 0.9142 -1.8868
C9B C -0.17267(11) 0.6222(3) -1.0498(3)
H17B H -0.1646 0.6577 -1.1217
C10B C -0.14316(10) 0.6485(3) -0.9362(3)
C11B C -0.21418(11) 0.5427(4) -1.0547(3)
C12B C -0.22467(10) 0.4912(3) -0.9441(3)
H18B H -0.2516 0.4346 -0.9431
C13B C -0.19350(10) 0.5278(3) -0.8362(3)
C14B C -0.20145(10) 0.4758(3) -0.7146(3)
C15B C -0.17256(11) 0.4987(3) -0.6025(3)
H19B H -0.1440 0.5502 -0.5859
C16B C -0.17943(11) 0.4193(4) -0.3866(3)
H20B H -0.1758 0.5162 -0.3519
H21B H -0.2044 0.3708 -0.3535
C17B C -0.13326(11) 0.3378(4) -0.3469(3)
C18B C -0.10604(12) 0.3633(4) -0.2305(3)
H22B H -0.1150 0.4365 -0.1816
C19B C -0.11770(11) 0.2324(4) -0.4173(3)
H23B H -0.1348 0.2151 -0.4965
C20B C -0.09785(10) 0.7273(3) -0.9250(3)
C21B C -0.06881(10) 0.7841(3) -0.8234(3)
H24B H -0.0737 0.7807 -0.7427
C22B C 0.00898(11) 0.9239(4) -0.7926(3)
H25B H 0.0190 0.9970 -0.8454
H26B H -0.0006 0.9735 -0.7240
C23B C 0.05130(10) 0.8252(3) -0.7434(3)
C24B C 0.06542(13) 0.7198(4) -0.8137(3)
H27B H 0.0479 0.7026 -0.8923
C25B C 0.07771(12) 0.8479(4) -0.6261(3)
H28B H 0.0681 0.9187 -0.5762
N1B N -0.15335(8) 0.6044(3) -0.8292(2)
N2B N -0.07702(9) 0.7562(3) -1.0239(2)
N3B N -0.03707(9) 0.8294(3) -0.9855(2)
N4B N -0.03233(9) 0.8452(3) -0.8624(2)
N5B N -0.23886(10) 0.3942(4) -0.6974(2)
N6B N -0.23564(10) 0.3682(4) -0.5796(2)
N7B N -0.19443(9) 0.4305(3) -0.5211(2)
O1B O -0.24192(7) 0.5227(3) -1.1666(2)
O2B O -0.32158(8) 0.6329(3) -1.3327(2)
O3B O -0.37606(10) 0.7348(3) -1.5647(3)
O4B O -0.44580(11) 0.9114(4) -1.7234(3)
loop_
_geom_bond_atom_site_label_1
_geom_bond_atom_site_label_2
_geom_bond_site_symmetry_1
_geom_bond_site_symmetry_2
C1 H1 1_555 1_555
Cl1 C1 1_555 1_555
Cl2 C1 1_555 1_555
Cl3 C1 1_555 1_555
C2 H2 1_555 1_555
H3 C2 1_555 1_555
C3 C2 1_555 1_555
H4 C3 1_555 1_555
H5 C3 1_555 1_555
C4 H6 1_555 1_555
H7 C4 1_555 1_555
C5 C4 1_555 1_555
H8 C5 1_555 1_555
H9 C5 1_555 1_555
C6 H10 1_555 1_555
H11 C6 1_555 1_555
C7 C6 1_555 1_555
H12 C7 1_555 1_555
H13 C7 1_555 1_555
C8 H14 1_555 1_555
H15 C8 1_555 1_555
H16 C8 1_555 1_555
C9 H17 1_555 1_555
C10 C9 1_555 1_555
C11 C9 1_555 1_555
C12 C11 1_555 1_555
H18 C12 1_555 1_555
C13 C12 1_555 1_555
C14 C13 1_555 1_555
C15 C14 1_555 1_555
H19 C15 1_555 1_555
C16 H20 1_555 1_555
H21 C16 1_555 1_555
C17 C16 1_555 1_555
C18 C17 1_555 1_555
H22 C18 1_555 1_555
C19 C17 1_555 1_555
H23 C19 1_555 1_555
C20 C10 1_555 1_555
C21 C20 1_555 1_555
H24 C21 1_555 1_555
C22 H25 1_555 1_555
H26 C22 1_555 1_555
C23 C22 1_555 1_555
C24 C23 1_555 1_555
H27 C24 1_555 1_555
C25 C23 1_555 1_555
H28 C25 1_555 1_555
N1 C10 1_555 1_555
N2 C20 1_555 1_555
N3 N2 1_555 1_555
N4 C21 1_555 1_555
N5 C14 1_555 1_555
N6 N5 1_555 1_555
N7 C15 1_555 1_555
O1 C2 1_555 1_555
O2 C3 1_555 1_555
O3 C4 1_555 1_555
O4 C7 1_555 1_555
C2B H2B 1_555 1_555
H3B C2B 1_555 1_555
C3B C2B 1_555 1_555
H4B C3B 1_555 1_555
H5B C3B 1_555 1_555
C4B H6B 1_555 1_555
H7B C4B 1_555 1_555
C5B C4B 1_555 1_555
H8B C5B 1_555 1_555
H9B C5B 1_555 1_555
C6B H10B 1_555 1_555
H11B C6B 1_555 1_555
C7B C6B 1_555 1_555
H12B C7B 1_555 1_555
H13B C7B 1_555 1_555
C8B H14B 1_555 1_555
H15B C8B 1_555 1_555
H16B C8B 1_555 1_555
C9B H17B 1_555 1_555
C10B C9B 1_555 1_555
C11B C9B 1_555 1_555
C12B C11B 1_555 1_555
H18B C12B 1_555 1_555
C13B C12B 1_555 1_555
C14B C13B 1_555 1_555
C15B C14B 1_555 1_555
H19B C15B 1_555 1_555
C16B H20B 1_555 1_555
H21B C16B 1_555 1_555
C17B C16B 1_555 1_555
C18B C24 1_555 1_555
H22B C18B 1_555 1_555
C19B C25 1_555 1_555
H23B C19B 1_555 1_555
C20B C10B 1_555 1_555
C21B C20B 1_555 1_555
H24B C21B 1_555 1_555
C22B H25B 1_555 1_555
H26B C22B 1_555 1_555
C23B C22B 1_555 1_555
C24B C18 1_555 1_555
H27B C24B 1_555 1_555
C25B C19 1_555 1_555
H28B C25B 1_555 1_555
N1B C10B 1_555 1_555
N2B C20B 1_555 1_555
N3B N2B 1_555 1_555
N4B C21B 1_555 1_555
N5B C14B 1_555 1_555
N6B N5B 1_555 1_555
N7B C15B 1_555 1_555
O1B C2B 1_555 1_555
O2B C3B 1_555 1_555
O3B C4B 1_555 1_555
O4B C7B 1_555 1_555
C5 O2 1_555 1_555
C6 O3 1_555 1_555
C8 O4 1_555 1_555
C11 O1 1_555 1_555
C13 N1 1_555 1_555
C16 N7 1_555 1_555
C22 N4 1_555 1_555
N3 N4 1_555 1_555
N6 N7 1_555 1_555
C5B O2B 1_555 1_555
C6B O3B 1_555 1_555
C8B O4B 1_555 1_555
C11B O1B 1_555 1_555
C13B N1B 1_555 1_555
C16B N7B 1_555 1_555
C17B C18B 1_555 1_555
C17B C19B 1_555 1_555
C22B N4B 1_555 1_555
C23B C24B 1_555 1_555
C23B C25B 1_555 1_555
N3B N4B 1_555 1_555
N6B N7B 1_555 1_555

#END
