
#######################################################################
#
#                 Cambridge Crystallographic Data Centre
#                                CCDC 
#
#######################################################################
#
# If this CIF has been generated from an entry in the Cambridge 
# Structural Database, then it will include bibliographic, chemical, 
# crystal, experimental, refinement or atomic coordinate data resulting 
# from the CCDC's data processing and validation procedures.
#
#######################################################################

data_OHACEH
_chemical_formula_moiety         'C5 H9 N2 1+,C1 H1 N6 O2 1-'
_chemical_name_systematic        
'1,3-dimethyl-1H-imidazol-3-ium 5-(nitroimino)-1,5-dihydrotetrazol-2-ide'
_symmetry_cell_setting           orthorhombic
_symmetry_space_group_name_H-M   'F d d 2'
_symmetry_Int_Tables_number      43
_space_group_name_Hall           'F 2 -2d'
loop_
_symmetry_equiv_pos_site_id
_symmetry_equiv_pos_as_xyz
1 x,y,z
2 -x,-y,z
3 1/4-x,1/4+y,1/4+z
4 3/4+x,3/4-y,1/4+z
5 x,1/2+y,1/2+z
6 -x,1/2-y,1/2+z
7 1/4-x,3/4+y,3/4+z
8 3/4+x,1/4-y,3/4+z
9 1/2+x,y,1/2+z
10 1/2-x,-y,1/2+z
11 3/4-x,1/4+y,3/4+z
12 1/4+x,3/4-y,3/4+z
13 1/2+x,1/2+y,z
14 1/2-x,1/2-y,z
15 3/4-x,3/4+y,1/4+z
16 1/4+x,1/4-y,1/4+z
_cell_length_a                   49.337(3)
_cell_length_b                   20.9073(12)
_cell_length_c                   3.6993(2)
_cell_angle_alpha                90
_cell_angle_beta                 90
_cell_angle_gamma                90
_cell_volume                     3815.84
_exptl_crystal_colour            colorless
_exptl_crystal_description       block
_cell_formula_units_Z            16
loop_
_atom_site_label
_atom_site_type_symbol
_atom_site_fract_x
_atom_site_fract_y
_atom_site_fract_z
N1 N 0.40708(3) 0.55068(6) 0.0131(4)
N2 N 0.43950(3) 0.48248(6) 0.0760(4)
C1 C 0.43333(3) 0.54079(8) -0.0381(5)
H1 H 0.4457 0.5706 -0.1400
C2 C 0.39598(3) 0.49650(8) 0.1667(5)
H2 H 0.3775 0.4903 0.2322
C3 C 0.41631(3) 0.45404(8) 0.2057(5)
H3 H 0.4149 0.4122 0.3044
C4 C 0.39243(4) 0.60945(8) -0.0779(5)
H4 H 0.3870 0.6314 0.1449
H5 H 0.3762 0.5988 -0.2189
H6 H 0.4042 0.6375 -0.2204
C5 C 0.46660(3) 0.45366(9) 0.0690(6)
H7 H 0.4724 0.4482 -0.1822
H8 H 0.4661 0.4119 0.1890
H9 H 0.4794 0.4817 0.1956
O1 O 0.49406(2) 0.19085(5) 0.8062(3)
O2 O 0.48324(3) 0.09810(5) 1.0368(4)
N3 N 0.41718(3) 0.24416(6) 0.8569(4)
N4 N 0.41599(3) 0.30442(7) 0.7224(5)
N5 N 0.43967(3) 0.32370(6) 0.6167(4)
N6 N 0.45691(3) 0.27496(6) 0.6831(4)
H10 H 0.4744 0.2751 0.6375
N7 N 0.45054(3) 0.16624(6) 0.9452(4)
N8 N 0.47655(3) 0.15249(6) 0.9275(4)
C6 C 0.44298(3) 0.22629(7) 0.8299(4)
loop_
_geom_bond_atom_site_label_1
_geom_bond_atom_site_label_2
_geom_bond_site_symmetry_1
_geom_bond_site_symmetry_2
N1 C1 1_555 1_555
N2 C1 1_555 1_555
C1 H1 1_555 1_555
C2 N1 1_555 1_555
H2 C2 1_555 1_555
C3 N2 1_555 1_555
H3 C3 1_555 1_555
C4 N1 1_555 1_555
H4 C4 1_555 1_555
H5 C4 1_555 1_555
H6 C4 1_555 1_555
C5 N2 1_555 1_555
H7 C5 1_555 1_555
H8 C5 1_555 1_555
H9 C5 1_555 1_555
O1 N8 1_555 1_555
O2 N8 1_555 1_555
N3 N4 1_555 1_555
N4 N5 1_555 1_555
N5 N6 1_555 1_555
N6 H10 1_555 1_555
N7 N8 1_555 1_555
C6 N3 1_555 1_555
C2 C3 1_555 1_555
N6 C6 1_555 1_555
N7 C6 1_555 1_555

#END
