
#######################################################################
#
#                 Cambridge Crystallographic Data Centre
#                                CCDC 
#
#######################################################################
#
# If this CIF has been generated from an entry in the Cambridge 
# Structural Database, then it will include bibliographic, chemical, 
# crystal, experimental, refinement or atomic coordinate data resulting 
# from the CCDC's data processing and validation procedures.
#
#######################################################################

data_OHAXIG
_chemical_name_common            '1-Propyl-3-methylimidazolium picrate'
_chemical_formula_moiety         'C7 H13 N2 1+,C6 H2 N3 O7 1-'
_chemical_name_systematic        
'3-methyl-1-propyl-1H-imidazol-3-ium 2,4,6-trinitrophenolate'
_symmetry_cell_setting           triclinic
_symmetry_space_group_name_H-M   'P -1'
_symmetry_Int_Tables_number      2
_space_group_name_Hall           '-P 1'
loop_
_symmetry_equiv_pos_site_id
_symmetry_equiv_pos_as_xyz
1 x,y,z
2 -x,-y,-z
_cell_length_a                   6.6831(7)
_cell_length_b                   10.6065(10)
_cell_length_c                   11.8839(9)
_cell_angle_alpha                73.513(7)
_cell_angle_beta                 87.771(7)
_cell_angle_gamma                75.787(8)
_cell_volume                     782.592
_exptl_crystal_colour            yellow
_exptl_crystal_description       Rectangular
_chemical_melting_point          '444 K'
_cell_formula_units_Z            2
loop_
_atom_site_label
_atom_site_type_symbol
_atom_site_fract_x
_atom_site_fract_y
_atom_site_fract_z
N1 N 0.3501(4) 0.6948(2) 1.13594(19)
N2 N 0.2909(4) 0.5500(2) 1.29372(19)
C1 C 0.2579(5) 0.5031(3) 1.2017(3)
H1 H 0.2176 0.4238 1.2065
C2 C 0.3458(5) 0.6661(3) 1.2520(2)
H2 H 0.3762 0.7185 1.2967
C3 C 0.2949(5) 0.5935(3) 1.1027(3)
H3 H 0.2849 0.5884 1.0263
C4 C 0.2623(5) 0.4851(3) 1.4184(2)
H4 H 0.1347 0.4576 1.4265
H5 H 0.2586 0.5484 1.4628
H6 H 0.3749 0.4071 1.4473
C5 C 0.3878(6) 0.8209(3) 1.0564(3)
H7 H 0.4424 0.8686 1.1018
H8 H 0.2579 0.8790 1.0193
C6 C 0.5384(5) 0.7936(3) 0.9623(2)
H9 H 0.4838 0.7448 0.9180
H10 H 0.5481 0.8797 0.9085
C7 C 0.7536(5) 0.7128(3) 1.0093(3)
H11 H 0.8408 0.7014 0.9449
H12 H 0.7468 0.6254 1.0595
H13 H 0.8095 0.7603 1.0531
O1 O 0.1631(4) 0.6064(2) 0.65083(18)
O2 O 0.2124(4) 0.6412(2) 0.81544(17)
O3 O 0.0796(4) 1.0959(2) 0.83076(18)
O4 O 0.1373(4) 1.2549(2) 0.68051(19)
O5 O 0.3062(3) 1.1675(2) 0.31792(17)
O6 O 0.3269(3) 0.9733(2) 0.28797(17)
O7 O 0.3317(3) 0.7613(2) 0.47132(16)
N3 N 0.1972(4) 0.6789(2) 0.7074(2)
N4 N 0.1270(4) 1.1373(3) 0.7272(2)
N5 N 0.3014(4) 1.0469(3) 0.3532(2)
C8 C 0.2731(4) 0.8473(3) 0.5251(2)
C9 C 0.2125(4) 0.8163(3) 0.6479(2)
C10 C 0.1683(4) 0.9072(3) 0.7118(2)
H14 H 0.1354 0.8799 0.7904
C11 C 0.1730(4) 1.0407(3) 0.6589(2)
C12 C 0.2169(4) 1.0835(3) 0.5417(2)
H15 H 0.2151 1.1741 0.5065
C13 C 0.2631(4) 0.9917(3) 0.4773(2)
loop_
_geom_bond_atom_site_label_1
_geom_bond_atom_site_label_2
_geom_bond_site_symmetry_1
_geom_bond_site_symmetry_2
N1 C2 1_555 1_555
N2 C1 1_555 1_555
C1 H1 1_555 1_555
C2 N2 1_555 1_555
H2 C2 1_555 1_555
C3 N1 1_555 1_555
H3 C3 1_555 1_555
C4 N2 1_555 1_555
H4 C4 1_555 1_555
H5 C4 1_555 1_555
H6 C4 1_555 1_555
C5 N1 1_555 1_555
H7 C5 1_555 1_555
H8 C5 1_555 1_555
C6 C5 1_555 1_555
H9 C6 1_555 1_555
H10 C6 1_555 1_555
C7 C6 1_555 1_555
H11 C7 1_555 1_555
H12 C7 1_555 1_555
H13 C7 1_555 1_555
O1 N3 1_555 1_555
O2 N3 1_555 1_555
O3 N4 1_555 1_555
O4 N4 1_555 1_555
O5 N5 1_555 1_555
O6 N5 1_555 1_555
O7 C8 1_555 1_555
N3 C9 1_555 1_555
N4 C11 1_555 1_555
N5 C13 1_555 1_555
C8 C9 1_555 1_555
C9 C10 1_555 1_555
C10 H14 1_555 1_555
C11 C10 1_555 1_555
C12 C11 1_555 1_555
H15 C12 1_555 1_555
C13 C8 1_555 1_555
C1 C3 1_555 1_555
C12 C13 1_555 1_555

#END
