
#######################################################################
#
#                 Cambridge Crystallographic Data Centre
#                                CCDC 
#
#######################################################################
#
# If this CIF has been generated from an entry in the Cambridge 
# Structural Database, then it will include bibliographic, chemical, 
# crystal, experimental, refinement or atomic coordinate data resulting 
# from the CCDC's data processing and validation procedures.
#
#######################################################################

data_OHAYAZ
_chemical_formula_moiety         'C22 H18 Cl1 N1 O3'
_chemical_name_systematic        
'methyl 9-(4-chlorophenyl)-5-methyl-6-oxo-5,6,9,10-tetrahydrophenanthridine-8-carboxylate'
_symmetry_cell_setting           monoclinic
_symmetry_space_group_name_H-M   'P 21/c'
_symmetry_Int_Tables_number      14
_space_group_name_Hall           '-P 2ybc'
loop_
_symmetry_equiv_pos_site_id
_symmetry_equiv_pos_as_xyz
1 x,y,z
2 -x,1/2+y,1/2-z
3 -x,-y,-z
4 x,1/2-y,1/2+z
_cell_length_a                   12.024(2)
_cell_length_b                   16.267(3)
_cell_length_c                   9.666(2)
_cell_angle_alpha                90
_cell_angle_beta                 105.11(2)
_cell_angle_gamma                90
_cell_volume                     1825.25
_exptl_crystal_colour            white
_exptl_crystal_description       block
_cell_formula_units_Z            4
loop_
_atom_site_label
_atom_site_type_symbol
_atom_site_fract_x
_atom_site_fract_y
_atom_site_fract_z
C1 C 0.8862(2) 0.23902(16) 0.9782(3)
H1 H 0.8954 0.2922 1.0148
C2 C 0.8042(2) 0.22209(15) 0.8526(3)
H2 H 0.7585 0.2649 0.8052
C3 C 0.78701(18) 0.14412(13) 0.7943(3)
C4 C 0.8560(2) 0.08337(16) 0.8692(3)
H3 H 0.8475 0.0298 0.8342
C5 C 0.9380(3) 0.09985(18) 0.9958(3)
H4 H 0.9829 0.0574 1.0456
C6 C 0.9532(2) 0.17726(16) 1.0473(3)
C7 C 0.69519(19) 0.12933(13) 0.6544(3)
H5 H 0.7158 0.1630 0.5807
C8 C 0.69184(19) 0.04078(15) 0.6051(3)
C9 C 0.61665(19) -0.01145(14) 0.6356(3)
H6 H 0.6174 -0.0659 0.6066
C10 C 0.53378(18) 0.01324(13) 0.7123(2)
C11 C 0.51458(18) 0.09460(13) 0.7311(2)
C12 C 0.57543(19) 0.15657(14) 0.6621(3)
H7 H 0.5824 0.2076 0.7156
H8 H 0.5288 0.1674 0.5657
C13 C 0.43275(18) 0.11851(14) 0.8072(3)
C14 C 0.4081(2) 0.20081(15) 0.8315(3)
H9 H 0.4447 0.2425 0.7943
C15 C 0.3316(2) 0.22102(17) 0.9086(3)
H10 H 0.3163 0.2759 0.9234
C16 C 0.2773(2) 0.15940(18) 0.9643(3)
H11 H 0.2261 0.1731 1.0182
C17 C 0.2977(2) 0.07840(17) 0.9415(3)
H12 H 0.2598 0.0377 0.9791
C18 C 0.37446(19) 0.05653(14) 0.8625(3)
C19 C 0.4674(2) -0.05086(14) 0.7579(3)
C20 C 0.3280(2) -0.09038(16) 0.8841(3)
H13 H 0.2495 -0.0891 0.8274
H14 H 0.3302 -0.0814 0.9829
H15 H 0.3612 -0.1430 0.8739
C21 C 0.7767(2) 0.01512(17) 0.5289(3)
C22 C 0.8621(2) -0.0955(2) 0.4373(3)
H16 H 0.8608 -0.0630 0.3541
H17 H 0.8455 -0.1517 0.4095
H18 H 0.9369 -0.0919 0.5035
Cl1 Cl 1.05765(6) 0.19723(6) 1.20535(8)
N1 N 0.39327(16) -0.02626(11) 0.8357(2)
O1 O 0.47506(16) -0.12400(10) 0.7276(2)
O2 O 0.84074(19) 0.06150(13) 0.4920(3)
O3 O 0.77684(15) -0.06522(11) 0.5044(2)
loop_
_geom_bond_atom_site_label_1
_geom_bond_atom_site_label_2
_geom_bond_site_symmetry_1
_geom_bond_site_symmetry_2
C1 H1 1_555 1_555
C2 C1 1_555 1_555
H2 C2 1_555 1_555
C3 C2 1_555 1_555
C4 C3 1_555 1_555
H3 C4 1_555 1_555
C5 C4 1_555 1_555
H4 C5 1_555 1_555
C6 C1 1_555 1_555
C7 C3 1_555 1_555
H5 C7 1_555 1_555
C8 C7 1_555 1_555
C9 C8 1_555 1_555
H6 C9 1_555 1_555
C10 C9 1_555 1_555
C11 C10 1_555 1_555
C12 C7 1_555 1_555
H7 C12 1_555 1_555
H8 C12 1_555 1_555
C13 C11 1_555 1_555
C14 C13 1_555 1_555
H9 C14 1_555 1_555
C15 C14 1_555 1_555
H10 C15 1_555 1_555
C16 C15 1_555 1_555
H11 C16 1_555 1_555
C17 C16 1_555 1_555
H12 C17 1_555 1_555
C18 C13 1_555 1_555
C19 C10 1_555 1_555
C20 H13 1_555 1_555
H14 C20 1_555 1_555
H15 C20 1_555 1_555
C21 C8 1_555 1_555
C22 H16 1_555 1_555
H17 C22 1_555 1_555
H18 C22 1_555 1_555
Cl1 C6 1_555 1_555
N1 C18 1_555 1_555
O1 C19 1_555 1_555
O2 C21 1_555 1_555
O3 C21 1_555 1_555
C5 C6 1_555 1_555
C11 C12 1_555 1_555
C17 C18 1_555 1_555
C19 N1 1_555 1_555
C20 N1 1_555 1_555
C22 O3 1_555 1_555

#END
