
#######################################################################
#
#                 Cambridge Crystallographic Data Centre
#                                CCDC 
#
#######################################################################
#
# If this CIF has been generated from an entry in the Cambridge 
# Structural Database, then it will include bibliographic, chemical, 
# crystal, experimental, refinement or atomic coordinate data resulting 
# from the CCDC's data processing and validation procedures.
#
#######################################################################

data_OHAZII
_chemical_name_common            
'diethyl 1-tosyl-4-(3,4,5-trimethoxyphenyl)azetidine-2,2-dicarboxylate'
_chemical_formula_moiety         'C25 H31 N1 O9 S1'
_chemical_name_systematic        
'diethyl 1-((4-methylphenyl)sulfonyl)-4-(3,4,5-trimethoxyphenyl)azetidine-2,2-dicarboxylate'
_symmetry_cell_setting           monoclinic
_symmetry_space_group_name_H-M   'P 21/c'
_symmetry_Int_Tables_number      14
_space_group_name_Hall           '-P 2ybc'
loop_
_symmetry_equiv_pos_site_id
_symmetry_equiv_pos_as_xyz
1 x,y,z
2 -x,1/2+y,1/2-z
3 -x,-y,-z
4 x,1/2-y,1/2+z
_cell_length_a                   21.365(5)
_cell_length_b                   9.334(5)
_cell_length_c                   26.587(5)
_cell_angle_alpha                90
_cell_angle_beta                 92.256(5)
_cell_angle_gamma                90
_cell_volume                     5297.89
_exptl_crystal_colour            colorless
_exptl_crystal_description       block
_chemical_melting_point          '363 K'
_cell_formula_units_Z            8
_exptl_crystal_recrystallization_method Ethanol
loop_
_atom_site_label
_atom_site_type_symbol
_atom_site_fract_x
_atom_site_fract_y
_atom_site_fract_z
S1 S 0.56375(3) 0.16028(6) 0.12485(2)
O1 O 0.65830(8) -0.37826(17) -0.05077(6)
O2 O 0.57795(8) 0.22514(19) 0.07805(7)
O3 O 0.75039(8) -0.18559(19) -0.04813(6)
N1 N 0.62044(8) 0.04706(18) 0.13942(6)
O4 O 0.69740(8) 0.27912(18) 0.17252(6)
O5 O 0.57124(8) -0.38160(19) 0.01796(7)
O6 O 0.67488(10) 0.2249(2) 0.25191(6)
O7 O 0.55428(8) 0.24618(19) 0.16813(7)
O8 O 0.57516(9) -0.0268(3) 0.23323(7)
C1 C 0.66831(9) -0.0817(2) 0.06541(7)
C2 C 0.71195(10) -0.0768(2) 0.02811(7)
H1 H 0.7433 -0.0075 0.0292
O9 O 0.66887(11) -0.1131(3) 0.25701(8)
C3 C 0.49649(10) 0.0537(2) 0.11406(8)
C4 C 0.67616(9) 0.0238(2) 0.10770(7)
H2 H 0.6918 0.1155 0.0953
C5 C 0.62083(10) -0.1832(2) 0.06382(8)
H3 H 0.5922 -0.1871 0.0892
C6 C 0.70850(10) -0.1760(2) -0.01078(8)
C7 C 0.66044(10) -0.2758(2) -0.01347(8)
C8 C 0.66011(10) 0.0468(2) 0.18707(7)
C9 C 0.61661(10) -0.2789(2) 0.02384(8)
C10 C 0.71283(10) -0.0209(3) 0.15673(8)
H4 H 0.7168 -0.1237 0.1611
H5 H 0.7531 0.0263 0.1616
C11 C 0.63551(12) -0.0426(3) 0.22946(8)
C12 C 0.46386(12) 0.0028(3) 0.15397(10)
H6 H 0.4767 0.0254 0.1868
C13 C 0.39143(12) -0.1156(3) 0.09614(12)
C14 C 0.47605(11) 0.0253(3) 0.06545(9)
H7 H 0.4975 0.0621 0.0386
C15 C 0.80178(12) -0.0890(3) -0.04649(10)
H8 H 0.8275 -0.1066 -0.0746
H9 H 0.7865 0.0077 -0.0480
H10 H 0.8261 -0.1027 -0.0157
C16 C 0.67724(11) 0.1946(3) 0.20837(9)
C17 C 0.54540(15) -0.0849(4) 0.27711(10)
H11 H 0.5083 -0.1389 0.2667
H12 H 0.5740 -0.1486 0.2954
C18 C 0.52957(15) -0.4012(3) 0.05736(12)
H13 H 0.5003 -0.4759 0.0484
H14 H 0.5528 -0.4273 0.0876
H15 H 0.5072 -0.3137 0.0628
C19 C 0.42325(12) -0.0586(3) 0.05681(11)
H16 H 0.4091 -0.0767 0.0239
C20 C 0.63159(17) -0.3327(4) -0.09718(10)
H17 H 0.6320 -0.4104 -0.1208
H18 H 0.5892 -0.3027 -0.0928
H19 H 0.6554 -0.2539 -0.1097
C21 C 0.71859(18) 0.4211(3) 0.18694(13)
H20 H 0.7386 0.4174 0.2203
H21 H 0.7494 0.4537 0.1637
C22 C 0.41188(13) -0.0820(3) 0.14453(12)
H22 H 0.3901 -0.1173 0.1715
C23 C 0.33508(16) -0.2114(4) 0.08674(16)
H23 H 0.3191 -0.2408 0.1184
H24 H 0.3032 -0.1598 0.0678
H25 H 0.3472 -0.2944 0.0681
C24 C 0.5285(2) 0.0340(4) 0.30884(13)
H26 H 0.5087 -0.0018 0.3381
H27 H 0.5655 0.0864 0.3190
H28 H 0.5000 0.0961 0.2904
C25 C 0.6676(2) 0.5208(4) 0.18687(18)
H29 H 0.6830 0.6138 0.1966
H30 H 0.6482 0.5259 0.1537
H31 H 0.6373 0.4896 0.2103
S2 S 0.93483(3) 0.63355(6) -0.13456(2)
N2 N 0.87762(8) 0.51806(19) -0.14280(6)
O10 O 0.84721(8) 0.12359(17) 0.05523(6)
O11 O 0.75521(8) 0.31895(19) 0.05214(6)
O12 O 0.80307(9) 0.7314(2) -0.18977(7)
O13 O 0.93145(9) 0.1129(2) -0.01606(7)
O14 O 0.94432(8) 0.6969(2) -0.18251(8)
O15 O 0.92142(8) 0.7193(2) -0.09210(8)
C26 C 0.83257(9) 0.4069(2) -0.06511(8)
O16 O 0.91599(11) 0.3336(3) -0.21326(8)
C27 C 0.83890(11) 0.4962(3) -0.18979(8)
C28 C 0.88003(10) 0.3062(2) -0.06305(8)
H32 H 0.9077 0.2996 -0.0891
C29 C 0.82304(9) 0.5053(2) -0.10950(8)
H33 H 0.8082 0.5997 -0.0991
C30 C 0.84398(11) 0.2226(2) 0.01670(8)
C31 C 0.79060(10) 0.4169(2) -0.02677(8)
H34 H 0.7593 0.4862 -0.0281
O17 O 0.83178(11) 0.6457(3) -0.26398(7)
C32 C 0.79566(10) 0.3225(2) 0.01364(8)
C33 C 1.00193(10) 0.5311(2) -0.11821(9)
C34 C 0.88618(11) 0.2148(2) -0.02174(9)
O18 O 0.82633(13) 0.3293(4) -0.25695(11)
C35 C 0.78495(10) 0.4493(3) -0.15610(8)
H35 H 0.7461 0.5006 -0.1629
H36 H 0.7779 0.3466 -0.1558
C36 C 0.70234(12) 0.4118(3) 0.04846(10)
H37 H 0.6776 0.3997 0.0775
H38 H 0.7163 0.5094 0.0467
H39 H 0.6775 0.3890 0.0187
C37 C 1.03405(12) 0.4647(3) -0.15544(10)
H40 H 1.0204 0.4733 -0.1889
C38 C 0.85954(14) 0.3785(3) -0.22441(10)
C39 C 0.82507(12) 0.6326(3) -0.21974(10)
C40 C 1.02299(12) 0.5212(3) -0.06877(10)
H41 H 1.0018 0.5671 -0.0435
C41 C 1.10811(13) 0.3718(3) -0.09369(13)
C42 C 0.87563(17) 0.1714(4) 0.10106(11)
H42 H 0.8756 0.0951 0.1253
H43 H 0.9180 0.2000 0.0956
H44 H 0.8526 0.2515 0.1134
C43 C 1.07619(13) 0.4419(4) -0.05732(12)
H45 H 1.0908 0.4358 -0.0240
C44 C 1.08685(13) 0.3850(3) -0.14271(13)
H46 H 1.1083 0.3394 -0.1679
C45 C 0.97035(16) 0.0874(4) -0.05735(12)
H47 H 1.0001 0.0136 -0.0485
H48 H 0.9450 0.0575 -0.0861
H49 H 0.9922 0.1738 -0.0653
C46 C 0.7882(2) 0.8678(4) -0.21298(15)
H50 H 0.8259 0.9093 -0.2261
H51 H 0.7584 0.8536 -0.2410
C47 C 1.16575(17) 0.2818(4) -0.08083(18)
H52 H 1.1743 0.2837 -0.0451
H53 H 1.1584 0.1848 -0.0915
H54 H 1.2010 0.3200 -0.0977
C48 C 0.7640(4) 0.9581(6) -0.17969(17)
H55 H 0.7545 1.0479 -0.1959
H56 H 0.7263 0.9177 -0.1671
H57 H 0.7938 0.9734 -0.1522
C49 C 0.9384(2) 0.2097(6) -0.24111(16)
H58 H 0.9036 0.1635 -0.2591
H59 H 0.9682 0.2406 -0.2655
C50 C 0.9680(3) 0.1105(5) -0.20621(17)
H60 H 0.9828 0.0289 -0.2242
H61 H 1.0026 0.1566 -0.1888
H62 H 0.9382 0.0798 -0.1823
loop_
_geom_bond_atom_site_label_1
_geom_bond_atom_site_label_2
_geom_bond_site_symmetry_1
_geom_bond_site_symmetry_2
S1 O2 1_555 1_555
O1 C7 1_555 1_555
O3 C6 1_555 1_555
N1 S1 1_555 1_555
O4 C16 1_555 1_555
O5 C9 1_555 1_555
O6 C16 1_555 1_555
O7 S1 1_555 1_555
O8 C11 1_555 1_555
C1 C2 1_555 1_555
C2 H1 1_555 1_555
O9 C11 1_555 1_555
C3 S1 1_555 1_555
C4 N1 1_555 1_555
H2 C4 1_555 1_555
C5 C1 1_555 1_555
H3 C5 1_555 1_555
C6 C2 1_555 1_555
C7 C6 1_555 1_555
C8 N1 1_555 1_555
C9 C5 1_555 1_555
C10 C4 1_555 1_555
H4 C10 1_555 1_555
H5 C10 1_555 1_555
C11 C8 1_555 1_555
C12 C3 1_555 1_555
H6 C12 1_555 1_555
C13 C19 1_555 1_555
C14 C3 1_555 1_555
H7 C14 1_555 1_555
C15 O3 1_555 1_555
H8 C15 1_555 1_555
H9 C15 1_555 1_555
H10 C15 1_555 1_555
C16 C8 1_555 1_555
C17 O8 1_555 1_555
H11 C17 1_555 1_555
H12 C17 1_555 1_555
C18 O5 1_555 1_555
H13 C18 1_555 1_555
H14 C18 1_555 1_555
H15 C18 1_555 1_555
C19 C14 1_555 1_555
H16 C19 1_555 1_555
C20 O1 1_555 1_555
H17 C20 1_555 1_555
H18 C20 1_555 1_555
H19 C20 1_555 1_555
C21 O4 1_555 1_555
H20 C21 1_555 1_555
H21 C21 1_555 1_555
C22 C12 1_555 1_555
H22 C22 1_555 1_555
C23 C13 1_555 1_555
H23 C23 1_555 1_555
H24 C23 1_555 1_555
H25 C23 1_555 1_555
C24 C17 1_555 1_555
H26 C24 1_555 1_555
H27 C24 1_555 1_555
H28 C24 1_555 1_555
C25 C21 1_555 1_555
H29 C25 1_555 1_555
H30 C25 1_555 1_555
H31 C25 1_555 1_555
S2 N2 1_555 1_555
N2 C27 1_555 1_555
O10 C30 1_555 1_555
O11 C32 1_555 1_555
O12 C39 1_555 1_555
O13 C34 1_555 1_555
O14 S2 1_555 1_555
O15 S2 1_555 1_555
C26 C28 1_555 1_555
O16 C38 1_555 1_555
C27 C35 1_555 1_555
C28 H32 1_555 1_555
C29 N2 1_555 1_555
H33 C29 1_555 1_555
C30 C32 1_555 1_555
C31 C26 1_555 1_555
H34 C31 1_555 1_555
O17 C39 1_555 1_555
C32 C31 1_555 1_555
C33 S2 1_555 1_555
C34 C28 1_555 1_555
O18 C38 1_555 1_555
C35 C29 1_555 1_555
H35 C35 1_555 1_555
H36 C35 1_555 1_555
C36 O11 1_555 1_555
H37 C36 1_555 1_555
H38 C36 1_555 1_555
H39 C36 1_555 1_555
C37 C33 1_555 1_555
H40 C37 1_555 1_555
C38 C27 1_555 1_555
C39 C27 1_555 1_555
C40 C33 1_555 1_555
H41 C40 1_555 1_555
C41 C43 1_555 1_555
C42 O10 1_555 1_555
H42 C42 1_555 1_555
H43 C42 1_555 1_555
H44 C42 1_555 1_555
C43 C40 1_555 1_555
H45 C43 1_555 1_555
C44 C37 1_555 1_555
H46 C44 1_555 1_555
C45 O13 1_555 1_555
H47 C45 1_555 1_555
H48 C45 1_555 1_555
H49 C45 1_555 1_555
C46 O12 1_555 1_555
H50 C46 1_555 1_555
H51 C46 1_555 1_555
C47 C41 1_555 1_555
H52 C47 1_555 1_555
H53 C47 1_555 1_555
H54 C47 1_555 1_555
C48 C46 1_555 1_555
H55 C48 1_555 1_555
H56 C48 1_555 1_555
H57 C48 1_555 1_555
C49 O16 1_555 1_555
H58 C49 1_555 1_555
H59 C49 1_555 1_555
C50 C49 1_555 1_555
H60 C50 1_555 1_555
H61 C50 1_555 1_555
H62 C50 1_555 1_555
C1 C4 1_555 1_555
C7 C9 1_555 1_555
C8 C10 1_555 1_555
C13 C22 1_555 1_555
C26 C29 1_555 1_555
C30 C34 1_555 1_555
C41 C44 1_555 1_555

#END
