
#######################################################################
#
#                 Cambridge Crystallographic Data Centre
#                                CCDC 
#
#######################################################################
#
# If this CIF has been generated from an entry in the Cambridge 
# Structural Database, then it will include bibliographic, chemical, 
# crystal, experimental, refinement or atomic coordinate data resulting 
# from the CCDC's data processing and validation procedures.
#
#######################################################################

data_OHEDIQ
_chemical_formula_moiety         'C14 H16 N4 O2 S2,C1 H4 O1,H2 O1'
_chemical_name_systematic        
"2,2,9,9-tetramethyl-2,3,9,10-tetrahydropyrimido[4'',5'':4',5']thieno[3',2':4,5]thieno[3,2-d]pyrimidine-4,7(1H,8H)-dione methanol solvate monohydrate"
_symmetry_cell_setting           triclinic
_symmetry_space_group_name_H-M   'P -1'
_symmetry_Int_Tables_number      2
_space_group_name_Hall           '-P 1'
loop_
_symmetry_equiv_pos_site_id
_symmetry_equiv_pos_as_xyz
1 x,y,z
2 -x,-y,-z
_cell_length_a                   9.9898(7)
_cell_length_b                   10.1850(8)
_cell_length_c                   10.5633(8)
_cell_angle_alpha                82.133(6)
_cell_angle_beta                 65.181(7)
_cell_angle_gamma                68.473(7)
_cell_volume                     907.273
_exptl_crystal_colour            yellow
_exptl_crystal_description       needle-like
_cell_formula_units_Z            2
loop_
_atom_site_label
_atom_site_type_symbol
_atom_site_fract_x
_atom_site_fract_y
_atom_site_fract_z
S1 S 0.95556(6) 0.12972(5) 0.30138(5)
S2 S 0.68495(6) 0.22291(5) 0.59662(5)
O1 O 1.29034(17) 0.03522(16) 0.05609(13)
O2 O 0.48793(15) 0.39603(15) 0.87878(13)
N1 N 1.26810(19) 0.15689(18) 0.41922(15)
H1 H 1.2731 0.1508 0.4993
N2 N 1.4084(2) 0.07798(19) 0.18083(16)
H2 H 1.4988 0.0274 0.1224
N3 N 0.95917(19) 0.29681(18) 0.73424(15)
H3 H 1.0476 0.3104 0.6937
N4 N 0.70292(19) 0.38259(18) 0.91203(16)
H4 H 0.6445 0.4453 0.9778
C1 C 0.8992(2) 0.2545(2) 0.65968(18)
C2 C 1.1355(2) 0.1304(2) 0.28679(19)
C3 C 0.9779(2) 0.2030(2) 0.51787(18)
C4 C 0.7429(2) 0.2677(2) 0.71505(19)
C5 C 1.5533(2) 0.0810(3) 0.3159(2)
H5 H 1.5519 0.1303 0.3879
H6 H 1.6436 0.0785 0.2316
H7 H 1.5581 -0.0137 0.3444
C6 C 1.1335(2) 0.1668(2) 0.40891(18)
C7 C 0.9158(2) 0.4213(2) 0.9371(2)
H8 H 1.0254 0.3816 0.9196
H9 H 0.8547 0.4382 1.0355
H10 H 0.8961 0.5087 0.8890
C8 C 0.8701(2) 0.3188(2) 0.88524(18)
C9 C 0.8739(2) 0.1849(2) 0.47242(19)
C10 C 1.2810(2) 0.0791(2) 0.16578(19)
C11 C 1.4052(2) 0.1568(2) 0.28993(19)
C12 C 0.9005(3) 0.1782(2) 0.9590(2)
H11 H 0.8697 0.1157 0.9255
H12 H 0.8407 0.1936 1.0577
H13 H 1.0103 0.1367 0.9403
C13 C 1.3928(3) 0.3073(2) 0.2429(2)
H14 H 1.2938 0.3550 0.2357
H15 H 1.4767 0.3056 0.1537
H16 H 1.4003 0.3563 0.3098
C14 C 0.6342(2) 0.3498(2) 0.84071(18)
O3 O 1.31229(18) 0.25677(17) 0.86042(15)
H17 H 1.310(3) 0.188(2) 0.916(2)
H18 H 1.371(3) 0.295(3) 0.869(3)
O4 O 1.26987(17) 0.31489(15) 0.62644(14)
H19 H 1.2833 0.2876 0.6983
C15 C 1.2582(3) 0.4594(3) 0.6063(2)
H20 H 1.2197 0.4972 0.5348
H21 H 1.3600 0.4663 0.5785
H22 H 1.1872 0.5119 0.6918
loop_
_geom_bond_atom_site_label_1
_geom_bond_atom_site_label_2
_geom_bond_site_symmetry_1
_geom_bond_site_symmetry_2
S1 C2 1_555 1_555
S2 C4 1_555 1_555
O1 C10 1_555 1_555
O2 C14 1_555 1_555
N1 H1 1_555 1_555
N2 H2 1_555 1_555
N3 H3 1_555 1_555
N4 H4 1_555 1_555
C1 N3 1_555 1_555
C2 C6 1_555 1_555
C3 C1 1_555 1_555
C4 C1 1_555 1_555
C5 H5 1_555 1_555
H6 C5 1_555 1_555
H7 C5 1_555 1_555
C6 N1 1_555 1_555
C7 H8 1_555 1_555
H9 C7 1_555 1_555
H10 C7 1_555 1_555
C8 N3 1_555 1_555
C9 S1 1_555 1_555
C10 N2 1_555 1_555
C11 N1 1_555 1_555
C12 C8 1_555 1_555
H11 C12 1_555 1_555
H12 C12 1_555 1_555
H13 C12 1_555 1_555
C13 C11 1_555 1_555
H14 C13 1_555 1_555
H15 C13 1_555 1_555
H16 C13 1_555 1_555
C14 N4 1_555 1_555
O3 H17 1_555 1_555
H18 O3 1_555 1_555
O4 H19 1_555 1_555
C15 O4 1_555 1_555
H20 C15 1_555 1_555
H21 C15 1_555 1_555
H22 C15 1_555 1_555
S2 C9 1_555 1_555
N2 C11 1_555 1_555
N4 C8 1_555 1_555
C2 C10 1_555 1_555
C3 C6 1_555 1_555
C3 C9 1_555 1_555
C4 C14 1_555 1_555
C5 C11 1_555 1_555
C7 C8 1_555 1_555

#END
