
#######################################################################
#
#                 Cambridge Crystallographic Data Centre
#                                CCDC 
#
#######################################################################
#
# If this CIF has been generated from an entry in the Cambridge 
# Structural Database, then it will include bibliographic, chemical, 
# crystal, experimental, refinement or atomic coordinate data resulting 
# from the CCDC's data processing and validation procedures.
#
#######################################################################

data_OHFULV10
_chemical_name_common            '13-Hydroxy-fulvine-N-oxide dihydrate'
_chemical_formula_moiety         'C16 H23 N1 O7,2(H2 O1)'
_chemical_name_systematic        'Monocrotaline-N-oxide dihydrate'
_symmetry_cell_setting           orthorhombic
_symmetry_space_group_name_H-M   'P 21 21 21'
_symmetry_Int_Tables_number      19
_space_group_name_Hall           'P 2ac 2ab'
loop_
_symmetry_equiv_pos_site_id
_symmetry_equiv_pos_as_xyz
1 x,y,z
2 1/2+x,1/2-y,-z
3 -x,1/2+y,1/2-z
4 1/2-x,-y,1/2+z
_cell_length_a                   22.330(4)
_cell_length_b                   11.525(2)
_cell_length_c                   7.013(1)
_cell_angle_alpha                90
_cell_angle_beta                 90
_cell_angle_gamma                90
_cell_volume                     1804.82
_cell_formula_units_Z            4
loop_
_atom_site_label
_atom_site_type_symbol
_atom_site_fract_x
_atom_site_fract_y
_atom_site_fract_z
C1 C 0.43290 0.57290 0.24620
C2 C 0.40810 0.64200 0.37310
C3 C 0.34760 0.68220 0.31730
N1 N 0.33210 0.60130 0.15330
C4 C 0.30390 0.66470 -0.00840
C5 C 0.35560 0.72230 -0.10900
C6 C 0.40470 0.62830 -0.10350
C7 C 0.39230 0.55740 0.07940
C8 C 0.49120 0.50790 0.26740
O1 O 0.53890 0.58170 0.19340
C9 C 0.58760 0.52740 0.13210
O2 O 0.59390 0.42360 0.13580
C10 C 0.63610 0.61160 0.05830
C11 C 0.69700 0.55710 0.08940
O3 O 0.63070 0.71840 0.15290
C12 C 0.62460 0.64040 -0.16130
O4 O 0.66990 0.72100 -0.21370
C13 C 0.63330 0.53730 -0.28940
C14 C 0.56280 0.70230 -0.18650
C15 C 0.55690 0.76190 -0.38240
C16 C 0.50830 0.62560 -0.16680
O5 O 0.50370 0.52560 -0.21570
O6 O 0.46130 0.68700 -0.10340
O7 O 0.29620 0.51270 0.22180
H1 H 0.42420 0.68310 0.48630
H2 H 0.34780 0.74730 0.25700
H3 H 0.32350 0.70630 0.41750
H4 H 0.27500 0.71990 0.04170
H5 H 0.28270 0.62730 -0.04670
H6 H 0.36310 0.78750 -0.04880
H7 H 0.34370 0.77500 -0.22680
H8 H 0.39890 0.55380 -0.23570
H9 H 0.37660 0.46520 0.06250
H10 H 0.50210 0.46560 0.40510
H11 H 0.50160 0.42780 0.15830
H12 H 0.70050 0.47500 0.03950
H13 H 0.73870 0.57370 0.06670
H14 H 0.71130 0.52500 0.22920
H15 H 0.69160 0.77700 -0.16500
H16 H 0.67270 0.52500 -0.29830
H17 H 0.62080 0.56250 -0.39170
H18 H 0.60710 0.47500 -0.24580
H19 H 0.56780 0.77220 -0.07350
H20 H 0.55940 0.72000 -0.44920
H21 H 0.51940 0.78070 -0.41500
H22 H 0.58330 0.80570 -0.35500
O8 O 0.17760 0.54800 0.11530
H23 H 0.22270 0.54100 0.12500
H24 H 0.18580 0.50000 -0.05170
O9 O 0.71560 0.78430 0.41430
H25 H 0.68330 0.79620 0.54170
H26 H 0.70570 0.84820 0.40590
loop_
_geom_bond_atom_site_label_1
_geom_bond_atom_site_label_2
_geom_bond_site_symmetry_1
_geom_bond_site_symmetry_2
C1 C2 1_555 1_555
C2 C3 1_555 1_555
C3 N1 1_555 1_555
N1 C4 1_555 1_555
C4 C5 1_555 1_555
C5 C6 1_555 1_555
C6 C7 1_555 1_555
C7 C1 1_555 1_555
C8 C1 1_555 1_555
O1 C8 1_555 1_555
C9 O1 1_555 1_555
O2 C9 1_555 1_555
C10 C9 1_555 1_555
C11 C10 1_555 1_555
O3 C10 1_555 1_555
C12 C10 1_555 1_555
O4 C12 1_555 1_555
C13 C12 1_555 1_555
C14 C12 1_555 1_555
C15 C14 1_555 1_555
C16 C14 1_555 1_555
O5 C16 1_555 1_555
O6 C6 1_555 1_555
O7 N1 1_555 1_555
H1 C2 1_555 1_555
H2 C3 1_555 1_555
H3 C3 1_555 1_555
H4 C4 1_555 1_555
H5 C4 1_555 1_555
H6 C5 1_555 1_555
H7 C5 1_555 1_555
H8 C6 1_555 1_555
H9 C7 1_555 1_555
H10 C8 1_555 1_555
H11 C8 1_555 1_555
H12 C11 1_555 1_555
H13 C11 1_555 1_555
H14 C11 1_555 1_555
H15 O4 1_555 1_555
H16 C13 1_555 1_555
H17 C13 1_555 1_555
H18 C13 1_555 1_555
H19 C14 1_555 1_555
H20 C15 1_555 1_555
H21 C15 1_555 1_555
H22 C15 1_555 1_555
O8 H23 1_555 1_555
H24 O8 1_555 1_555
O9 H25 1_555 1_555
H26 O9 1_555 1_555
N1 C7 1_555 1_555
C16 O6 1_555 1_555

#END
