
#######################################################################
#
#                 Cambridge Crystallographic Data Centre
#                                CCDC 
#
#######################################################################
#
# If this CIF has been generated from an entry in the Cambridge 
# Structural Database, then it will include bibliographic, chemical, 
# crystal, experimental, refinement or atomic coordinate data resulting 
# from the CCDC's data processing and validation procedures.
#
#######################################################################

data_OHFULV
_chemical_name_common            '13-Hydroxy-fulvine N-oxide dihydrate'
_chemical_formula_moiety         'C16 H23 N1 O7,2(H2 O1)'
_chemical_name_systematic        'Monocrotaline-N-oxide dihydrate'
_symmetry_cell_setting           orthorhombic
_symmetry_space_group_name_H-M   'P 21 21 21'
_symmetry_Int_Tables_number      19
_space_group_name_Hall           'P 2ac 2ab'
loop_
_symmetry_equiv_pos_site_id
_symmetry_equiv_pos_as_xyz
1 x,y,z
2 1/2+x,1/2-y,-z
3 -x,1/2+y,1/2-z
4 1/2-x,-y,1/2+z
_cell_length_a                   22.330(4)
_cell_length_b                   11.525(2)
_cell_length_c                   7.013(1)
_cell_angle_alpha                90
_cell_angle_beta                 90
_cell_angle_gamma                90
_cell_volume                     1804.82
_cell_formula_units_Z            4
loop_
_atom_site_label
_atom_site_type_symbol
_atom_site_fract_x
_atom_site_fract_y
_atom_site_fract_z
C1 C 0.43290 0.57290 0.24620
C2 C 0.40810 0.64200 0.37310
C3 C 0.34760 0.68220 0.31730
N4 N 0.33210 0.60130 0.15330
C5 C 0.30390 0.66470 -0.00840
C6 C 0.35560 0.72230 -0.10900
C7 C 0.40470 0.62830 -0.10350
C8 C 0.39230 0.55740 0.07940
C9 C 0.49120 0.50790 0.26740
O10 O 0.53890 0.58170 0.19340
C11 C 0.58760 0.52740 0.13210
O12 O 0.59390 0.42360 0.13580
C13 C 0.63610 0.61160 0.05830
C14 C 0.69700 0.55710 0.08940
O15 O 0.63070 0.71840 0.15290
C16 C 0.62460 0.64040 -0.16130
O17 O 0.66990 0.72100 -0.21370
C18 C 0.63330 0.53730 -0.28940
C19 C 0.56280 0.70230 -0.18650
C20 C 0.55690 0.76190 -0.38240
C21 C 0.50830 0.62560 -0.16680
O22 O 0.50370 0.52560 -0.21570
O23 O 0.46130 0.68700 -0.10340
O24 O 0.29620 0.51270 0.22180
O25 O 0.17760 0.54800 0.11530
O26 O 0.71560 0.78430 0.41430
loop_
_geom_bond_atom_site_label_1
_geom_bond_atom_site_label_2
_geom_bond_site_symmetry_1
_geom_bond_site_symmetry_2
C1 C2 1_555 1_555
C2 C3 1_555 1_555
C3 N4 1_555 1_555
N4 C5 1_555 1_555
C5 C6 1_555 1_555
C6 C7 1_555 1_555
C7 C8 1_555 1_555
C8 C1 1_555 1_555
C9 C1 1_555 1_555
O10 C9 1_555 1_555
C11 O10 1_555 1_555
O12 C11 1_555 1_555
C13 C11 1_555 1_555
C14 C13 1_555 1_555
O15 C13 1_555 1_555
C16 C13 1_555 1_555
O17 C16 1_555 1_555
C18 C16 1_555 1_555
C19 C16 1_555 1_555
C20 C19 1_555 1_555
C21 C19 1_555 1_555
O22 C21 1_555 1_555
O23 C7 1_555 1_555
O24 N4 1_555 1_555
N4 C8 1_555 1_555
C21 O23 1_555 1_555

#END
