
#######################################################################
#
#                 Cambridge Crystallographic Data Centre
#                                CCDC 
#
#######################################################################
#
# If this CIF has been generated from an entry in the Cambridge 
# Structural Database, then it will include bibliographic, chemical, 
# crystal, experimental, refinement or atomic coordinate data resulting 
# from the CCDC's data processing and validation procedures.
#
#######################################################################

data_OHICAJ01
_chemical_formula_moiety         'C36 H36 N12'
_chemical_name_systematic        
2,8,14,20,26,32-Hexamethyl-2,8,14,20,26,32,37,38,39,40,41,42-dodecaazaheptacyclo[31.3.1.1^3,7^.1^9,13^.1^15,19^.1^21,25^.1^27,31^]dotetraconta-1(37),3(42),4,6,9(41),10,12,15(40),16,18,21(39),22,24,27(38),28,30,33,35-octadecaene
_symmetry_cell_setting           triclinic
_symmetry_space_group_name_H-M   'P -1'
_symmetry_Int_Tables_number      2
_space_group_name_Hall           '-P 1'
loop_
_symmetry_equiv_pos_site_id
_symmetry_equiv_pos_as_xyz
1 x,y,z
2 -x,-y,-z
_cell_length_a                   10.778(2)
_cell_length_b                   12.792(3)
_cell_length_c                   13.514(3)
_cell_angle_alpha                102.94(3)
_cell_angle_beta                 111.17(3)
_cell_angle_gamma                105.89(3)
_cell_volume                     1559.08
_exptl_crystal_colour            colorless
_exptl_crystal_description       plate
_cell_formula_units_Z            2
loop_
_atom_site_label
_atom_site_type_symbol
_atom_site_fract_x
_atom_site_fract_y
_atom_site_fract_z
N1 N 0.26850(12) 0.96310(10) 0.51107(10)
N2 N 0.35744(14) 0.81913(11) 0.53580(11)
N3 N 0.31547(13) 0.62569(10) 0.51255(10)
N4 N 0.28109(14) 0.42948(11) 0.48317(11)
N5 N 0.13067(13) 0.40839(10) 0.30070(10)
N6 N -0.02970(13) 0.39321(10) 0.11985(10)
N7 N -0.16562(13) 0.50080(10) 0.07060(10)
N8 N -0.32314(14) 0.58580(11) -0.00286(11)
N9 N -0.26028(13) 0.78691(11) 0.04509(10)
N10 N -0.17987(14) 0.98726(12) 0.09861(11)
N11 N 0.00041(13) 1.03839(11) 0.28294(11)
N12 N 0.17097(14) 1.09906(11) 0.47118(11)
C1 C 0.25777(15) 1.06437(12) 0.55125(12)
C2 C 0.32643(17) 1.13080(13) 0.66770(13)
H1 H 0.3167 1.2019 0.6949
C3 C 0.40847(18) 1.09006(14) 0.74170(13)
H2 H 0.4564 1.1336 0.8211
C4 C 0.42152(17) 0.98585(14) 0.70095(13)
H3 H 0.4780 0.9569 0.7509
C5 C 0.34880(15) 0.92588(12) 0.58443(12)
C6 C 0.29456(14) 0.72069(12) 0.55603(11)
C7 C 0.21189(15) 0.72056(13) 0.61631(12)
H4 H 0.1953 0.7880 0.6438
C8 C 0.15582(16) 0.62047(13) 0.63440(13)
H5 H 0.1010 0.6185 0.6760
C9 C 0.17915(17) 0.52210(13) 0.59195(13)
H6 H 0.1432 0.4527 0.6052
C10 C 0.25640(15) 0.52884(12) 0.52996(12)
C11 C 0.23895(15) 0.38554(12) 0.36735(12)
C12 C 0.30258(17) 0.31733(13) 0.32363(14)
H7 H 0.3765 0.2996 0.3720
C13 C 0.25302(18) 0.27727(14) 0.20748(14)
H8 H 0.2932 0.2305 0.1748
C14 C 0.14617(17) 0.30375(13) 0.13769(13)
H9 H 0.1144 0.2780 0.0578
C15 C 0.08609(15) 0.36961(12) 0.18818(12)
C16 C -0.05420(15) 0.49518(12) 0.15225(12)
C17 C 0.03075(16) 0.58536(13) 0.25848(12)
H10 H 0.1108 0.5815 0.3156
C18 C -0.00732(17) 0.68053(13) 0.27644(12)
H11 H 0.0482 0.7432 0.3476
C19 C -0.12358(17) 0.68687(13) 0.19382(12)
H12 H -0.1502 0.7517 0.2072
C20 C -0.20053(15) 0.59347(12) 0.08940(12)
C21 C -0.36348(16) 0.67987(13) -0.01233(12)
C22 C -0.50666(17) 0.66040(15) -0.08162(14)
H13 H -0.5796 0.5839 -0.1208
C23 C -0.53801(18) 0.75661(16) -0.09096(14)
H14 H -0.6341 0.7460 -0.1378
C24 C -0.43232(17) 0.86772(15) -0.03352(13)
H15 H -0.4533 0.9339 -0.0407
C25 C -0.29266(16) 0.87923(13) 0.03583(12)
C26 C -0.04083(16) 0.99470(12) 0.17136(13)
C27 C 0.04387(17) 0.96080(13) 0.12568(13)
H16 H 0.0096 0.9284 0.0457
C28 C 0.18057(16) 0.97579(13) 0.20080(13)
H17 H 0.2424 0.9542 0.1726
C29 C 0.22708(16) 1.02180(13) 0.31615(13)
H18 H 0.3213 1.0337 0.3685
C30 C 0.13153(15) 1.05065(12) 0.35432(12)
C31 C 0.38838(18) 0.80639(14) 0.43775(14)
H19 H 0.4330 0.7494 0.4326
H20 H 0.4547 0.8817 0.4469
H21 H 0.2982 0.7795 0.3681
C32 C 0.39068(17) 0.40275(14) 0.56216(14)
H22 H 0.3626 0.3182 0.5381
H23 H 0.3993 0.4329 0.6387
H24 H 0.4838 0.4392 0.5628
C33 C -0.11369(18) 0.31745(14) -0.00029(13)
H25 H -0.2144 0.3096 -0.0266
H26 H -0.1096 0.2405 -0.0091
H27 H -0.0732 0.3516 -0.0454
C34 C -0.40166(19) 0.47756(15) -0.10255(14)
H28 H -0.4469 0.4947 -0.1708
H29 H -0.4765 0.4233 -0.0928
H30 H -0.3342 0.4423 -0.1107
C35 C -0.21158(18) 1.09094(14) 0.12251(14)
H31 H -0.2555 1.1043 0.0516
H32 H -0.1218 1.1584 0.1759
H33 H -0.2788 1.0800 0.1561
C36 C 0.08822(19) 1.16207(15) 0.50376(15)
H34 H 0.1493 1.2207 0.5806
H35 H 0.0035 1.1070 0.5025
H36 H 0.0566 1.2006 0.4500
loop_
_geom_bond_atom_site_label_1
_geom_bond_atom_site_label_2
_geom_bond_site_symmetry_1
_geom_bond_site_symmetry_2
N1 C1 1_555 1_555
N2 C5 1_555 1_555
N3 C6 1_555 1_555
N4 C10 1_555 1_555
N5 C11 1_555 1_555
N6 C15 1_555 1_555
N7 C16 1_555 1_555
N8 C20 1_555 1_555
N9 C21 1_555 1_555
N10 C25 1_555 1_555
N11 C26 1_555 1_555
N12 C1 1_555 1_555
C1 C2 1_555 1_555
C2 H1 1_555 1_555
C3 C2 1_555 1_555
H2 C3 1_555 1_555
C4 C3 1_555 1_555
H3 C4 1_555 1_555
C5 N1 1_555 1_555
C6 N2 1_555 1_555
C7 C6 1_555 1_555
H4 C7 1_555 1_555
C8 C7 1_555 1_555
H5 C8 1_555 1_555
C9 C8 1_555 1_555
H6 C9 1_555 1_555
C10 N3 1_555 1_555
C11 N4 1_555 1_555
C12 C11 1_555 1_555
H7 C12 1_555 1_555
C13 C12 1_555 1_555
H8 C13 1_555 1_555
C14 C13 1_555 1_555
H9 C14 1_555 1_555
C15 N5 1_555 1_555
C16 N6 1_555 1_555
C17 C16 1_555 1_555
H10 C17 1_555 1_555
C18 C17 1_555 1_555
H11 C18 1_555 1_555
C19 C18 1_555 1_555
H12 C19 1_555 1_555
C20 N7 1_555 1_555
C21 N8 1_555 1_555
C22 C21 1_555 1_555
H13 C22 1_555 1_555
C23 C22 1_555 1_555
H14 C23 1_555 1_555
C24 C23 1_555 1_555
H15 C24 1_555 1_555
C25 N9 1_555 1_555
C26 N10 1_555 1_555
C27 C26 1_555 1_555
H16 C27 1_555 1_555
C28 C27 1_555 1_555
H17 C28 1_555 1_555
C29 C28 1_555 1_555
H18 C29 1_555 1_555
C30 N11 1_555 1_555
C31 N2 1_555 1_555
H19 C31 1_555 1_555
H20 C31 1_555 1_555
H21 C31 1_555 1_555
C32 N4 1_555 1_555
H22 C32 1_555 1_555
H23 C32 1_555 1_555
H24 C32 1_555 1_555
C33 N6 1_555 1_555
H25 C33 1_555 1_555
H26 C33 1_555 1_555
H27 C33 1_555 1_555
C34 N8 1_555 1_555
H28 C34 1_555 1_555
H29 C34 1_555 1_555
H30 C34 1_555 1_555
C35 N10 1_555 1_555
H31 C35 1_555 1_555
H32 C35 1_555 1_555
H33 C35 1_555 1_555
C36 N12 1_555 1_555
H34 C36 1_555 1_555
H35 C36 1_555 1_555
H36 C36 1_555 1_555
N12 C30 1_555 1_555
C4 C5 1_555 1_555
C9 C10 1_555 1_555
C14 C15 1_555 1_555
C19 C20 1_555 1_555
C24 C25 1_555 1_555
C29 C30 1_555 1_555

#END
