
#######################################################################
#
#                 Cambridge Crystallographic Data Centre
#                                CCDC 
#
#######################################################################
#
# If this CIF has been generated from an entry in the Cambridge 
# Structural Database, then it will include bibliographic, chemical, 
# crystal, experimental, refinement or atomic coordinate data resulting 
# from the CCDC's data processing and validation procedures.
#
#######################################################################

data_OHIKAS
_chemical_formula_moiety         'C9 H10 N5 O1 1+,N1 O3 1-'
_chemical_name_systematic        
'3-(2-Amino-2-oxoethyl)-1-(pyrimidin-2-yl)-1H-imidazol-3-ium nitrate'
_symmetry_cell_setting           monoclinic
_symmetry_space_group_name_H-M   'P 21/c'
_symmetry_Int_Tables_number      14
_space_group_name_Hall           '-P 2ybc'
loop_
_symmetry_equiv_pos_site_id
_symmetry_equiv_pos_as_xyz
1 x,y,z
2 -x,1/2+y,1/2-z
3 -x,-y,-z
4 x,1/2-y,1/2+z
_cell_length_a                   13.8870(4)
_cell_length_b                   7.1595(2)
_cell_length_c                   11.3891(4)
_cell_angle_alpha                90
_cell_angle_beta                 99.5050(10)
_cell_angle_gamma                90
_cell_volume                     1116.8
_cell_formula_units_Z            4
loop_
_atom_site_label
_atom_site_type_symbol
_atom_site_fract_x
_atom_site_fract_y
_atom_site_fract_z
N1 N 0.32278(7) 0.14020(13) -0.04014(8)
N2 N 0.20594(7) 0.11956(13) 0.06221(8)
N3 N 0.42971(7) 0.11449(15) -0.17605(8)
N4 N 0.47769(7) 0.26620(15) 0.01100(9)
C1 C 0.20208(8) 0.03659(16) 0.27204(10)
C2 C 0.59150(9) 0.23300(18) -0.12262(11)
C3 C 0.29372(8) 0.19086(16) 0.06177(10)
C4 C 0.52004(9) 0.1424(2) -0.20014(11)
C5 C 0.56678(9) 0.29457(18) -0.01692(12)
C6 C 0.17762(9) 0.02081(18) -0.04182(10)
C7 C 0.25001(9) 0.03291(17) -0.10612(10)
C8 C 0.15040(8) 0.13417(19) 0.15987(10)
O4 O 0.29028(6) 0.00897(14) 0.28775(8)
N6 N 0.14433(9) -0.00367(19) 0.34928(11)
H1 H 0.0875(13) 0.081(2) 0.1314(15)
H2 H 0.1667(13) -0.051(3) 0.4192(18)
C9 C 0.41640(8) 0.17828(15) -0.07087(9)
H3 H 0.3276(11) 0.264(2) 0.1191(13)
H4 H 0.1444(11) 0.262(2) 0.1763(13)
H5 H 0.6536(12) 0.246(2) -0.1409(13)
H6 H 0.2565(11) -0.019(2) -0.1815(15)
H7 H 0.1166(12) -0.044(2) -0.0576(14)
H8 H 0.5302(12) 0.094(2) -0.2740(15)
H9 H 0.6133(12) 0.354(2) 0.0397(15)
H10 H 0.0806(15) 0.016(2) 0.3302(16)
N5 N 0.90877(7) 0.13767(15) 0.37827(9)
O1 O 0.82199(7) 0.11557(18) 0.39251(9)
O2 O 0.93648(7) 0.06481(18) 0.29050(9)
O3 O 0.96687(8) 0.22535(18) 0.45234(11)
loop_
_geom_bond_atom_site_label_1
_geom_bond_atom_site_label_2
_geom_bond_site_symmetry_1
_geom_bond_site_symmetry_2
N1 C3 1_555 1_555
N2 C3 1_555 1_555
N3 C4 1_555 1_555
N4 C5 1_555 1_555
C1 C8 1_555 1_555
C2 C4 1_555 1_555
C3 H3 1_555 1_555
C4 H8 1_555 1_555
C5 C2 1_555 1_555
C6 N2 1_555 1_555
C7 N1 1_555 1_555
C8 N2 1_555 1_555
N5 O1 1_555 1_555
O2 N5 1_555 1_555
O3 N5 1_555 1_555
O4 C1 1_555 1_555
N6 C1 1_555 1_555
H1 C8 1_555 1_555
H2 N6 1_555 1_555
C9 N1 1_555 1_555
H4 C8 1_555 1_555
H5 C2 1_555 1_555
H6 C7 1_555 1_555
H7 C6 1_555 1_555
H9 C5 1_555 1_555
H10 N6 1_555 1_555
N3 C9 1_555 1_555
N4 C9 1_555 1_555
C6 C7 1_555 1_555

#END
