
#######################################################################
#
#                 Cambridge Crystallographic Data Centre
#                                CCDC 
#
#######################################################################
#
# If this CIF has been generated from an entry in the Cambridge 
# Structural Database, then it will include bibliographic, chemical, 
# crystal, experimental, refinement or atomic coordinate data resulting 
# from the CCDC's data processing and validation procedures.
#
#######################################################################

data_OHINOK
_chemical_formula_moiety         'C29 H20 O1'
_chemical_name_systematic        2-methoxy-8-phenylpentahelicene
_symmetry_cell_setting           monoclinic
_symmetry_space_group_name_H-M   'C 2/c'
_symmetry_Int_Tables_number      15
_space_group_name_Hall           '-C 2yn'
loop_
_symmetry_equiv_pos_site_id
_symmetry_equiv_pos_as_xyz
1 x,y,z
2 -x,y,1/2-z
3 1/2+x,1/2+y,z
4 1/2-x,1/2+y,1/2-z
5 -x,-y,-z
6 x,-y,1/2+z
7 1/2-x,1/2-y,-z
8 1/2+x,1/2-y,1/2+z
_cell_length_a                   43.7343(17)
_cell_length_b                   4.9260(2)
_cell_length_c                   19.6387(7)
_cell_angle_alpha                90
_cell_angle_beta                 109.277(2)
_cell_angle_gamma                90
_cell_volume                     3993.66
_exptl_crystal_colour            colorless
_exptl_crystal_description       platelet
_cell_formula_units_Z            8
loop_
_atom_site_label
_atom_site_type_symbol
_atom_site_fract_x
_atom_site_fract_y
_atom_site_fract_z
O1 O 0.237035(14) 0.44917(14) 1.13380(3)
C1 C 0.181996(19) 0.61043(17) 1.07721(4)
H1 H 0.1784 0.4847 1.0401
C2 C 0.21149(2) 0.61364(18) 1.13149(4)
C3 C 0.21703(2) 0.7942(2) 1.18930(5)
H2 H 0.2371 0.7982 1.2256
C4 C 0.19305(2) 0.9629(2) 1.19199(5)
H3 H 0.1968 1.0794 1.2312
C5 C 0.16253(2) 0.96791(19) 1.13738(4)
C6 C 0.13687(2) 1.1293(2) 1.14365(5)
H4 H 0.1410 1.2567 1.1805
C7 C 0.10673(2) 1.1010(2) 1.09713(5)
H5 H 0.0899 1.1992 1.1044
C8 C 0.10000(2) 0.92272(19) 1.03666(5)
C9 C 0.06760(2) 0.8695(2) 0.99407(5)
H6 H 0.0511 0.9659 1.0034
C10 C 0.059456(19) 0.68238(18) 0.93974(4)
C11 C 0.085045(18) 0.56388(16) 0.91886(4)
C12 C 0.07848(2) 0.36446(18) 0.86296(4)
H7 H 0.0577 0.2931 0.8441
C13 C 0.10166(2) 0.27709(19) 0.83678(4)
H8 H 0.0974 0.1320 0.8047
C14 C 0.132455(19) 0.40545(18) 0.85791(4)
C15 C 0.15450(2) 0.3578(2) 0.82041(4)
H9 H 0.1499 0.2236 0.7852
C16 C 0.18230(2) 0.5047(2) 0.83495(4)
H10 H 0.1969 0.4677 0.8107
C17 C 0.18879(2) 0.7110(2) 0.88638(5)
H11 H 0.2071 0.8183 0.8945
C18 C 0.168267(19) 0.75675(18) 0.92512(4)
H12 H 0.1730 0.8952 0.9592
C19 C 0.140209(18) 0.59866(16) 0.91436(4)
C20 C 0.117358(18) 0.64808(16) 0.95301(4)
C21 C 0.125476(19) 0.79247(16) 1.02100(4)
C22 C 0.157104(19) 0.79342(17) 1.07663(4)
C23 C 0.23334(2) 0.2799(2) 1.07338(5)
H13 H 0.2163 0.1515 1.0690
H14 H 0.2532 0.1845 1.0796
H15 H 0.2280 0.3889 1.0305
C24 C 0.025984(17) 0.62162(17) 0.90526(4)
C25 C 0.00570(2) 0.5479(2) 0.94374(4)
H16 H 0.0142 0.5202 0.9933
C26 C -0.02731(2) 0.5157(3) 0.90816(6)
H17 H -0.0409 0.4664 0.9339
C27 C -0.040045(18) 0.5571(3) 0.83410(6)
H18 H -0.0621 0.5356 0.8103
C28 C -0.01976(2) 0.6308(3) 0.79563(4)
H19 H -0.0283 0.6585 0.7461
C29 C 0.01325(2) 0.6631(2) 0.83121(4)
H20 H 0.0268 0.7124 0.8055
C30? C 0.022224(19) 0.6284(2) 0.89620(4)
C31? C 0.01036(2) 0.36472(19) 0.89097(6)
H21? H 0.0245 0.2205 0.9083
C32? C -0.02265(3) 0.3166(2) 0.85984(7)
H22? H -0.0306 0.1402 0.8563
C33? C -0.04381(2) 0.5322(3) 0.83395(6)
H23? H -0.0659 0.5000 0.8131
C34? C -0.03195(2) 0.7959(3) 0.83917(6)
H24? H -0.0461 0.9402 0.8218
C35? C 0.00107(2) 0.8441(2) 0.87030(6)
H25? H 0.0090 1.0205 0.8738
loop_
_geom_bond_atom_site_label_1
_geom_bond_atom_site_label_2
_geom_bond_site_symmetry_1
_geom_bond_site_symmetry_2
O1 C2 1_555 1_555
C1 H1 1_555 1_555
C2 C1 1_555 1_555
C3 C2 1_555 1_555
H2 C3 1_555 1_555
C4 C3 1_555 1_555
H3 C4 1_555 1_555
C5 C4 1_555 1_555
C6 C5 1_555 1_555
H4 C6 1_555 1_555
C7 C6 1_555 1_555
H5 C7 1_555 1_555
C8 C7 1_555 1_555
C9 C8 1_555 1_555
H6 C9 1_555 1_555
C10 C9 1_555 1_555
C11 C10 1_555 1_555
C12 C11 1_555 1_555
H7 C12 1_555 1_555
C13 C12 1_555 1_555
H8 C13 1_555 1_555
C14 C13 1_555 1_555
C15 C14 1_555 1_555
H9 C15 1_555 1_555
C16 C15 1_555 1_555
H10 C16 1_555 1_555
C17 C16 1_555 1_555
H11 C17 1_555 1_555
C18 C17 1_555 1_555
H12 C18 1_555 1_555
C19 C14 1_555 1_555
C20 C11 1_555 1_555
C21 C8 1_555 1_555
C22 C1 1_555 1_555
C23 O1 1_555 1_555
H13 C23 1_555 1_555
H14 C23 1_555 1_555
H15 C23 1_555 1_555
C24 C10 1_555 1_555
C25 C24 1_555 1_555
H16 C25 1_555 1_555
C26 C25 1_555 1_555
H17 C26 1_555 1_555
C27 C26 1_555 1_555
H18 C27 1_555 1_555
C28 C27 1_555 1_555
H19 C28 1_555 1_555
C29 C24 1_555 1_555
H20 C29 1_555 1_555
C5 C22 1_555 1_555
C18 C19 1_555 1_555
C19 C20 1_555 1_555
C20 C21 1_555 1_555
C21 C22 1_555 1_555
C28 C29 1_555 1_555

#END
