
#######################################################################
#
#                 Cambridge Crystallographic Data Centre
#                                CCDC 
#
#######################################################################
#
# If this CIF has been generated from an entry in the Cambridge 
# Structural Database, then it will include bibliographic, chemical, 
# crystal, experimental, refinement or atomic coordinate data resulting 
# from the CCDC's data processing and validation procedures.
#
#######################################################################

data_OHINIE
_chemical_formula_moiety         'C43 H36 O1'
_chemical_name_systematic        
11-hexyl-2,2-diphenyl-2H-benzo[5,6]phenanthro[4,3-f]chromene
_symmetry_cell_setting           monoclinic
_symmetry_space_group_name_H-M   'P 21/c'
_symmetry_Int_Tables_number      14
_space_group_name_Hall           '-P 2ybc'
loop_
_symmetry_equiv_pos_site_id
_symmetry_equiv_pos_as_xyz
1 x,y,z
2 -x,1/2+y,1/2-z
3 -x,-y,-z
4 x,1/2-y,1/2+z
_cell_length_a                   9.979(3)
_cell_length_b                   30.877(9)
_cell_length_c                   20.248(6)
_cell_angle_alpha                90
_cell_angle_beta                 91.561(11)
_cell_angle_gamma                90
_cell_volume                     6236.53
_exptl_crystal_colour            yellow
_exptl_crystal_description       needle
_cell_formula_units_Z            8
loop_
_atom_site_label
_atom_site_type_symbol
_atom_site_fract_x
_atom_site_fract_y
_atom_site_fract_z
C1 C 0.7918(5) 0.60578(17) 0.1093(2)
O1 O 0.7153(3) 0.59389(11) 0.16722(14)
C2 C 0.6155(5) 0.62119(18) 0.1877(2)
C3 C 0.5244(5) 0.60153(18) 0.2295(2)
H1 H 0.5287 0.5713 0.2379
C4 C 0.4309(5) 0.62616(18) 0.2576(2)
H2 H 0.3699 0.6131 0.2868
C5 C 0.4207(5) 0.67100(19) 0.2449(2)
C6 C 0.3345(5) 0.6981(2) 0.2831(2)
H3 H 0.2713 0.6849 0.3110
C7 C 0.3405(5) 0.74103(19) 0.2807(2)
H4 H 0.2907 0.7579 0.3106
C8 C 0.4214(5) 0.7619(2) 0.2334(2)
C9 C 0.4291(5) 0.8068(2) 0.2341(2)
H5 H 0.3792 0.8223 0.2656
C10 C 0.5047(5) 0.82944(19) 0.1915(2)
C11 C 0.5607(4) 0.80634(19) 0.1376(2)
C12 C 0.6361(5) 0.82871(19) 0.0894(2)
H6 H 0.6607 0.8581 0.0968
C13 C 0.6732(5) 0.80864(18) 0.0330(3)
H7 H 0.7310 0.8234 0.0041
C14 C 0.6292(5) 0.76680(19) 0.0160(2)
C15 C 0.6414(5) 0.74825(19) -0.0476(3)
H8 H 0.6919 0.7632 -0.0796
C16 C 0.5829(5) 0.7096(2) -0.0646(2)
H9 H 0.5927 0.6981 -0.1077
C17 C 0.5090(5) 0.6873(2) -0.0182(2)
H10 H 0.4677 0.6606 -0.0300
C18 C 0.4953(5) 0.70345(18) 0.0442(2)
H11 H 0.4413 0.6883 0.0745
C19 C 0.5589(5) 0.74159(17) 0.0644(2)
C20 C 0.5422(4) 0.76112(18) 0.1293(2)
C21 C 0.4903(5) 0.73762(18) 0.1848(2)
C22 C 0.5065(5) 0.69160(18) 0.1998(2)
C23 C 0.6127(5) 0.66478(17) 0.1726(2)
C24 C 0.7280(4) 0.68201(18) 0.1393(2)
H12 H 0.7425 0.7124 0.1374
C25 C 0.8136(5) 0.65474(17) 0.1112(2)
H13 H 0.8912 0.6663 0.0915
C26 C 0.7105(5) 0.59368(17) 0.0480(2)
C27 C 0.5931(5) 0.56888(19) 0.0498(3)
H14 H 0.5599 0.5599 0.0912
C28 C 0.5246(6) 0.5572(2) -0.0083(3)
H15 H 0.4447 0.5406 -0.0067
C29 C 0.5739(6) 0.5701(2) -0.0689(3)
H16 H 0.5261 0.5631 -0.1087
C30 C 0.6889(6) 0.5922(2) -0.0711(3)
H17 H 0.7237 0.5996 -0.1128
C31 C 0.7576(5) 0.60464(19) -0.0150(2)
H18 H 0.8381 0.6208 -0.0183
C32 C 0.9228(5) 0.58128(16) 0.1182(2)
C33 C 1.0104(5) 0.59364(18) 0.1680(2)
H19 H 0.9877 0.6170 0.1961
C34 C 1.1324(5) 0.5723(2) 0.1781(3)
H20 H 1.1925 0.5810 0.2128
C35 C 1.1645(6) 0.53867(19) 0.1372(3)
H21 H 1.2484 0.5245 0.1433
C36 C 1.0784(6) 0.5253(2) 0.0881(3)
H22 H 1.1009 0.5015 0.0609
C37 C 0.9557(5) 0.54708(19) 0.0780(3)
H23 H 0.8955 0.5382 0.0434
C38 C 0.5176(6) 0.87844(19) 0.1987(3)
H24 H 0.5188 0.8919 0.1543
H25 H 0.4391 0.8899 0.2219
C39 C 0.6413(6) 0.88987(19) 0.2360(3)
H26 H 0.7190 0.8789 0.2117
H27 H 0.6410 0.8750 0.2793
C40 C 0.6601(7) 0.9379(2) 0.2478(3)
H28 H 0.5805 0.9495 0.2700
H29 H 0.7391 0.9425 0.2776
C41 C 0.6795(8) 0.96250(18) 0.1845(3)
H30 H 0.7446 0.9462 0.1581
H31 H 0.5931 0.9624 0.1593
C42 C 0.7243(8) 1.0061(2) 0.1890(3)
H32 H 0.8107 1.0066 0.2143
H33 H 0.6587 1.0228 0.2145
C43 C 0.7430(7) 1.0281(2) 0.1243(3)
H34 H 0.8029 1.0108 0.0973
H35 H 0.7824 1.0568 0.1320
H36 H 0.6559 1.0312 0.1012
C44 C 0.2501(5) 0.64716(16) 0.4792(2)
O2 O 0.1783(3) 0.63600(10) 0.41878(14)
C45 C 0.0819(5) 0.66447(16) 0.3954(2)
C46 C -0.0170(5) 0.64633(18) 0.3550(2)
H37 H -0.0245 0.6158 0.3500
C47 C -0.1026(5) 0.67364(17) 0.3230(2)
H38 H -0.1684 0.6616 0.2936
C48 C -0.0994(5) 0.71976(18) 0.3309(2)
C49 C -0.1769(5) 0.74654(18) 0.2890(2)
H39 H -0.2454 0.7345 0.2612
C50 C -0.1531(5) 0.7900(2) 0.2887(2)
H40 H -0.1970 0.8077 0.2563
C51 C -0.0656(5) 0.80896(17) 0.3349(2)
C52 C -0.0360(5) 0.85353(19) 0.3307(2)
H41 H -0.0782 0.8698 0.2961
C53 C 0.0471(5) 0.87417(17) 0.3720(3)
C54 C 0.0921(5) 0.85162(17) 0.4315(2)
C55 C 0.1704(5) 0.87248(18) 0.4824(2)
H42 H 0.2049 0.9006 0.4742
C56 C 0.1971(5) 0.85395(17) 0.5413(3)
H43 H 0.2544 0.8681 0.5727
C57 C 0.1387(4) 0.81270(17) 0.5565(2)
C58 C 0.1457(5) 0.79632(17) 0.6226(2)
H44 H 0.2007 0.8105 0.6549
C59 C 0.0746(5) 0.76067(17) 0.6397(2)
H45 H 0.0829 0.7494 0.6833
C60 C -0.0112(5) 0.74052(17) 0.5927(2)
H46 H -0.0665 0.7170 0.6050
C61 C -0.0135(4) 0.75533(16) 0.5297(2)
H47 H -0.0699 0.7409 0.4982
C62 C 0.0630(4) 0.79082(16) 0.5079(2)
C63 C 0.0535(4) 0.80760(17) 0.4418(2)
C64 C -0.0038(4) 0.78414(17) 0.3861(2)
C65 C -0.0054(4) 0.73672(16) 0.3782(2)
C66 C 0.0919(4) 0.70893(17) 0.4077(2)
C67 C 0.2129(4) 0.72235(17) 0.4436(2)
H48 H 0.2381 0.7520 0.4431
C68 C 0.2896(5) 0.69417(17) 0.4773(2)
H49 H 0.3689 0.7037 0.4999
C69 C 0.1621(5) 0.63693(17) 0.5376(2)
C70 C 0.0484(5) 0.61060(18) 0.5303(3)
H50 H 0.0244 0.5990 0.4882
C71 C -0.0293(6) 0.6014(2) 0.5843(3)
H51 H -0.1068 0.5839 0.5786
C72 C 0.0029(6) 0.61680(19) 0.6440(3)
H52 H -0.0504 0.6095 0.6805
C73 C 0.1128(5) 0.64321(18) 0.6531(2)
H53 H 0.1356 0.6543 0.6957
C74 C 0.1899(5) 0.65353(17) 0.5995(2)
H54 H 0.2640 0.6726 0.6056
C75 C 0.3739(5) 0.61819(16) 0.4792(2)
C76 C 0.4740(5) 0.62590(18) 0.4348(2)
H55 H 0.4660 0.6499 0.4055
C77 C 0.5862(5) 0.59934(18) 0.4320(2)
H56 H 0.6524 0.6049 0.4002
C78 C 0.6019(6) 0.5654(2) 0.4746(3)
H57 H 0.6797 0.5477 0.4733
C79 C 0.5045(6) 0.55691(19) 0.5196(3)
H58 H 0.5153 0.5332 0.5492
C80 C 0.3899(6) 0.58273(18) 0.5222(2)
H59 H 0.3227 0.5763 0.5531
C81 C 0.0893(6) 0.91997(19) 0.3613(3)
H60 H 0.0949 0.9348 0.4046
H61 H 0.0189 0.9347 0.3342
C82 C 0.2216(6) 0.9253(2) 0.3279(3)
H62 H 0.2191 0.9080 0.2867
H63 H 0.2932 0.9131 0.3572
C83 C 0.2593(6) 0.9716(2) 0.3107(3)
H64 H 0.2500 0.9896 0.3508
H65 H 0.3551 0.9720 0.2993
C84 C 0.1817(7) 0.9923(3) 0.2562(3)
H66 H 0.0882 0.9818 0.2581
H67 H 0.1799 1.0239 0.2649
C85 C 0.2251(8) 0.9862(3) 0.1913(3)
H68 H 0.2229 0.9549 0.1812
H69 H 0.3194 0.9959 0.1892
C86 C 0.1446(8) 1.0096(3) 0.1390(4)
H70 H 0.0565 0.9958 0.1336
H71 H 0.1914 1.0082 0.0971
H72 H 0.1333 1.0399 0.1520
loop_
_geom_bond_atom_site_label_1
_geom_bond_atom_site_label_2
_geom_bond_site_symmetry_1
_geom_bond_site_symmetry_2
C1 O1 1_555 1_555
O1 C2 1_555 1_555
C2 C3 1_555 1_555
C3 H1 1_555 1_555
C4 C3 1_555 1_555
H2 C4 1_555 1_555
C5 C4 1_555 1_555
C6 C5 1_555 1_555
H3 C6 1_555 1_555
C7 C6 1_555 1_555
H4 C7 1_555 1_555
C8 C7 1_555 1_555
C9 C8 1_555 1_555
H5 C9 1_555 1_555
C10 C9 1_555 1_555
C11 C10 1_555 1_555
C12 C11 1_555 1_555
H6 C12 1_555 1_555
C13 C12 1_555 1_555
H7 C13 1_555 1_555
C14 C13 1_555 1_555
C15 C14 1_555 1_555
H8 C15 1_555 1_555
C16 C15 1_555 1_555
H9 C16 1_555 1_555
C17 C16 1_555 1_555
H10 C17 1_555 1_555
C18 C17 1_555 1_555
H11 C18 1_555 1_555
C19 C14 1_555 1_555
C20 C11 1_555 1_555
C21 C8 1_555 1_555
C22 C5 1_555 1_555
C23 C2 1_555 1_555
C24 C23 1_555 1_555
H12 C24 1_555 1_555
C25 C1 1_555 1_555
H13 C25 1_555 1_555
C26 C1 1_555 1_555
C27 C26 1_555 1_555
H14 C27 1_555 1_555
C28 C27 1_555 1_555
H15 C28 1_555 1_555
C29 C28 1_555 1_555
H16 C29 1_555 1_555
C30 C29 1_555 1_555
H17 C30 1_555 1_555
C31 C26 1_555 1_555
H18 C31 1_555 1_555
C32 C1 1_555 1_555
C33 C32 1_555 1_555
H19 C33 1_555 1_555
C34 C33 1_555 1_555
H20 C34 1_555 1_555
C35 C34 1_555 1_555
H21 C35 1_555 1_555
C36 C35 1_555 1_555
H22 C36 1_555 1_555
C37 C32 1_555 1_555
H23 C37 1_555 1_555
C38 C10 1_555 1_555
H24 C38 1_555 1_555
H25 C38 1_555 1_555
C39 C38 1_555 1_555
H26 C39 1_555 1_555
H27 C39 1_555 1_555
C40 C39 1_555 1_555
H28 C40 1_555 1_555
H29 C40 1_555 1_555
C41 C40 1_555 1_555
H30 C41 1_555 1_555
H31 C41 1_555 1_555
C42 C41 1_555 1_555
H32 C42 1_555 1_555
H33 C42 1_555 1_555
C43 C42 1_555 1_555
H34 C43 1_555 1_555
H35 C43 1_555 1_555
H36 C43 1_555 1_555
C44 O2 1_555 1_555
O2 C45 1_555 1_555
C45 C46 1_555 1_555
C46 H37 1_555 1_555
C47 C46 1_555 1_555
H38 C47 1_555 1_555
C48 C47 1_555 1_555
C49 C48 1_555 1_555
H39 C49 1_555 1_555
C50 C49 1_555 1_555
H40 C50 1_555 1_555
C51 C50 1_555 1_555
C52 C51 1_555 1_555
H41 C52 1_555 1_555
C53 C52 1_555 1_555
C54 C53 1_555 1_555
C55 C54 1_555 1_555
H42 C55 1_555 1_555
C56 C55 1_555 1_555
H43 C56 1_555 1_555
C57 C56 1_555 1_555
C58 C57 1_555 1_555
H44 C58 1_555 1_555
C59 C58 1_555 1_555
H45 C59 1_555 1_555
C60 C59 1_555 1_555
H46 C60 1_555 1_555
C61 C60 1_555 1_555
H47 C61 1_555 1_555
C62 C57 1_555 1_555
C63 C54 1_555 1_555
C64 C51 1_555 1_555
C65 C48 1_555 1_555
C66 C45 1_555 1_555
C67 C66 1_555 1_555
H48 C67 1_555 1_555
C68 C44 1_555 1_555
H49 C68 1_555 1_555
C69 C44 1_555 1_555
C70 C69 1_555 1_555
H50 C70 1_555 1_555
C71 C70 1_555 1_555
H51 C71 1_555 1_555
C72 C71 1_555 1_555
H52 C72 1_555 1_555
C73 C72 1_555 1_555
H53 C73 1_555 1_555
C74 C69 1_555 1_555
H54 C74 1_555 1_555
C75 C44 1_555 1_555
C76 C75 1_555 1_555
H55 C76 1_555 1_555
C77 C76 1_555 1_555
H56 C77 1_555 1_555
C78 C77 1_555 1_555
H57 C78 1_555 1_555
C79 C78 1_555 1_555
H58 C79 1_555 1_555
C80 C75 1_555 1_555
H59 C80 1_555 1_555
C81 C53 1_555 1_555
H60 C81 1_555 1_555
H61 C81 1_555 1_555
C82 C81 1_555 1_555
H62 C82 1_555 1_555
H63 C82 1_555 1_555
C83 C82 1_555 1_555
H64 C83 1_555 1_555
H65 C83 1_555 1_555
C84 C83 1_555 1_555
H66 C84 1_555 1_555
H67 C84 1_555 1_555
C85 C84 1_555 1_555
H68 C85 1_555 1_555
H69 C85 1_555 1_555
C86 C85 1_555 1_555
H70 C86 1_555 1_555
H71 C86 1_555 1_555
H72 C86 1_555 1_555
C18 C19 1_555 1_555
C19 C20 1_555 1_555
C20 C21 1_555 1_555
C21 C22 1_555 1_555
C22 C23 1_555 1_555
C24 C25 1_555 1_555
C30 C31 1_555 1_555
C36 C37 1_555 1_555
C61 C62 1_555 1_555
C62 C63 1_555 1_555
C63 C64 1_555 1_555
C64 C65 1_555 1_555
C65 C66 1_555 1_555
C67 C68 1_555 1_555
C73 C74 1_555 1_555
C79 C80 1_555 1_555

#END
