
#######################################################################
#
#                 Cambridge Crystallographic Data Centre
#                                CCDC 
#
#######################################################################
#
# If this CIF has been generated from an entry in the Cambridge 
# Structural Database, then it will include bibliographic, chemical, 
# crystal, experimental, refinement or atomic coordinate data resulting 
# from the CCDC's data processing and validation procedures.
#
#######################################################################

data_OHIPOM
_chemical_formula_moiety         'C27 H27 N3 O9 S1'
_chemical_name_systematic        
'diethyl 6-(((4-methylphenyl)sulfonyl)amino)-2-(4-nitrophenyl)-2,3-dihydro-4H-1,3-benzoxazine-4,4-dicarboxylate'
_symmetry_cell_setting           triclinic
_symmetry_space_group_name_H-M   'P -1'
_symmetry_Int_Tables_number      2
_space_group_name_Hall           '-P 1'
loop_
_symmetry_equiv_pos_site_id
_symmetry_equiv_pos_as_xyz
1 x,y,z
2 -x,-y,-z
_cell_length_a                   8.3006(6)
_cell_length_b                   9.3862(7)
_cell_length_c                   17.7170(15)
_cell_angle_alpha                86.352(4)
_cell_angle_beta                 87.532(4)
_cell_angle_gamma                77.772(4)
_cell_volume                     1345.68
_exptl_crystal_colour            colorless
_exptl_crystal_description       Prism
_cell_formula_units_Z            2
loop_
_atom_site_label
_atom_site_type_symbol
_atom_site_fract_x
_atom_site_fract_y
_atom_site_fract_z
S1 S -0.22871(13) 0.81949(9) 0.85808(6)
O1 O 0.4860(5) -0.1103(3) 0.3194(2)
O2 O 0.6428(5) 0.0400(4) 0.3128(3)
O3 O 0.1635(3) 0.4636(2) 0.56480(14)
O4 O -0.3233(4) 0.9546(3) 0.88334(19)
O5 O -0.2946(4) 0.6910(3) 0.86642(17)
O6 O -0.3250(4) 0.3611(3) 0.58778(16)
O7 O -0.3544(3) 0.4140(2) 0.70964(16)
O8 O -0.0893(4) 0.1435(2) 0.73909(18)
O9 O 0.0659(5) 0.2874(3) 0.77242(19)
N1 N 0.5244(4) -0.0032(4) 0.3390(2)
N2 N -0.0006(4) 0.2880(3) 0.59276(18)
H1 H -0.0061 0.1976 0.5921
N3 N -0.1881(4) 0.8513(3) 0.76825(16)
H2 H -0.1521 0.9309 0.7625
C1 C 0.4260(4) 0.0785(3) 0.3994(2)
C2 C 0.4592(5) 0.2100(4) 0.4155(2)
H3 H 0.5408 0.2472 0.3882
C3 C 0.3702(4) 0.2859(4) 0.4725(2)
H4 H 0.3922 0.3750 0.4840
C4 C 0.2483(4) 0.2317(3) 0.51317(19)
C5 C 0.2191(4) 0.0971(3) 0.4957(2)
H5 H 0.1386 0.0585 0.5230
C6 C 0.3080(4) 0.0203(4) 0.4383(2)
H6 H 0.2878 -0.0693 0.4264
C7 C 0.1567(4) 0.3121(3) 0.5791(2)
H7 H 0.2197 0.2766 0.6245
C8 C 0.0744(4) 0.5520(3) 0.61684(19)
C9 C 0.1049(4) 0.6918(3) 0.6177(2)
H8 H 0.1815 0.7206 0.5835
C10 C 0.0226(4) 0.7874(3) 0.6687(2)
H9 H 0.0451 0.8802 0.6692
C11 C -0.0939(4) 0.7469(3) 0.71952(19)
C12 C -0.1255(4) 0.6067(3) 0.71815(19)
H10 H -0.2031 0.5784 0.7521
C13 C -0.0426(4) 0.5092(3) 0.66690(18)
C14 C -0.0833(4) 0.3585(3) 0.66003(19)
C15 C -0.2682(5) 0.3757(3) 0.6471(2)
C16 C -0.5354(5) 0.4486(4) 0.7060(3)
H11 H -0.5779 0.3598 0.7126
H12 H -0.5688 0.4960 0.6573
C17 C -0.6004(5) 0.5469(6) 0.7673(3)
H13 H -0.5668 0.6382 0.7575
H14 H -0.5581 0.5027 0.8147
H15 H -0.7187 0.5636 0.7695
C18 C -0.0406(4) 0.2524(3) 0.7291(2)
C19 C 0.1224(10) 0.1854(8) 0.8366(4)
H16 H 0.0348 0.1926 0.8752
H17 H 0.1460 0.0865 0.8199
C20 C 0.2574(10) 0.2120(8) 0.8668(4)
H18 H 0.3434 0.2081 0.8285
H19 H 0.2934 0.1397 0.9068
H20 H 0.2324 0.3071 0.8868
C21 C -0.0562(6) 0.7976(6) 0.9107(3)
C22 C -0.0118(6) 0.9121(4) 0.9450(3)
H21 H -0.0813 1.0040 0.9432
C23 C 0.1366(6) 0.8893(6) 0.9820(3)
H22 H 0.1664 0.9659 1.0050
C24 C 0.2405(6) 0.7519(7) 0.9847(4)
C25 C 0.1960(9) 0.6374(6) 0.9503(4)
H23 H 0.2655 0.5456 0.9521
C26 C 0.0476(9) 0.6603(5) 0.9133(4)
H24 H 0.0179 0.5837 0.8903
C27 C 0.388(3) 0.695(3) 1.0394(14)
H25 H 0.4905 0.6991 1.0128
H26 H 0.3886 0.5956 1.0566
H27 H 0.3756 0.7546 1.0821
C28? C -0.0224(7) 0.7625(7) 0.8966(3)
C29? C 0.1087(7) 0.8270(6) 0.8733(3)
H28? H 0.1015 0.8880 0.8296
C30? C 0.2507(7) 0.8004(7) 0.9153(4)
H29? H 0.3384 0.8436 0.8997
C31? C 0.2614(9) 0.7093(9) 0.9807(4)
C32? C 0.1302(11) 0.6447(9) 1.0041(3)
H30? H 0.1374 0.5838 1.0478
C33? C -0.0117(9) 0.6714(8) 0.9620(4)
H31? H -0.0995 0.6282 0.9777
C34? C 0.428(3) 0.713(4) 1.0169(14)
H32? H 0.5178 0.6690 0.9843
H33? H 0.4350 0.6597 1.0652
H34? H 0.4342 0.8124 1.0236
loop_
_geom_bond_atom_site_label_1
_geom_bond_atom_site_label_2
_geom_bond_site_symmetry_1
_geom_bond_site_symmetry_2
S1 O4 1_555 1_555
O1 N1 1_555 1_555
O2 N1 1_555 1_555
O3 C7 1_555 1_555
O5 S1 1_555 1_555
O6 C15 1_555 1_555
O7 C15 1_555 1_555
O8 C18 1_555 1_555
O9 C18 1_555 1_555
N1 C1 1_555 1_555
N2 H1 1_555 1_555
N3 S1 1_555 1_555
H2 N3 1_555 1_555
C1 C2 1_555 1_555
C2 H3 1_555 1_555
C3 C2 1_555 1_555
H4 C3 1_555 1_555
C4 C3 1_555 1_555
C5 C4 1_555 1_555
H5 C5 1_555 1_555
C6 C1 1_555 1_555
H6 C6 1_555 1_555
C7 N2 1_555 1_555
H7 C7 1_555 1_555
C8 O3 1_555 1_555
C9 C8 1_555 1_555
H8 C9 1_555 1_555
C10 C9 1_555 1_555
H9 C10 1_555 1_555
C11 N3 1_555 1_555
C12 C11 1_555 1_555
H10 C12 1_555 1_555
C13 C8 1_555 1_555
C14 N2 1_555 1_555
C15 C14 1_555 1_555
C16 O7 1_555 1_555
H11 C16 1_555 1_555
H12 C16 1_555 1_555
C17 C16 1_555 1_555
H13 C17 1_555 1_555
H14 C17 1_555 1_555
H15 C17 1_555 1_555
C18 C14 1_555 1_555
C19 O9 1_555 1_555
H16 C19 1_555 1_555
H17 C19 1_555 1_555
C20 C19 1_555 1_555
H18 C20 1_555 1_555
H19 C20 1_555 1_555
H20 C20 1_555 1_555
C21 S1 1_555 1_555
C22 C21 1_555 1_555
H21 C22 1_555 1_555
C23 C22 1_555 1_555
H22 C23 1_555 1_555
C24 C23 1_555 1_555
C25 C24 1_555 1_555
H23 C25 1_555 1_555
C26 C21 1_555 1_555
H24 C26 1_555 1_555
C27 C24 1_555 1_555
H25 C27 1_555 1_555
H26 C27 1_555 1_555
H27 C27 1_555 1_555
C4 C7 1_555 1_555
C5 C6 1_555 1_555
C10 C11 1_555 1_555
C12 C13 1_555 1_555
C13 C14 1_555 1_555
C25 C26 1_555 1_555

#END
