
#######################################################################
#
#                 Cambridge Crystallographic Data Centre
#                                CCDC 
#
#######################################################################
#
# If this CIF has been generated from an entry in the Cambridge 
# Structural Database, then it will include bibliographic, chemical, 
# crystal, experimental, refinement or atomic coordinate data resulting 
# from the CCDC's data processing and validation procedures.
#
#######################################################################

data_OHNODC
_chemical_formula_moiety         'C10 H15 N1 O4'
_chemical_name_systematic        6-Hydroxy-5-nitro-bicyclo(4.4.0)decan-2-one
_symmetry_cell_setting           monoclinic
_symmetry_space_group_name_H-M   'P 21'
_symmetry_Int_Tables_number      4
_space_group_name_Hall           'P 2yb'
loop_
_symmetry_equiv_pos_site_id
_symmetry_equiv_pos_as_xyz
1 x,y,z
2 -x,1/2+y,-z
_cell_length_a                   10.992(1)
_cell_length_b                   5.647(1)
_cell_length_c                   8.597(1)
_cell_angle_alpha                90
_cell_angle_beta                 103.0(1)
_cell_angle_gamma                90
_cell_volume                     519.955
_chemical_melting_point          128-132deg.C
_cell_formula_units_Z            2
loop_
_atom_site_label
_atom_site_type_symbol
_atom_site_fract_x
_atom_site_fract_y
_atom_site_fract_z
C1 C 0.73760 0.33820 0.72800
C2 C 0.65260 0.41060 0.84110
C3 C 0.72690 0.45120 1.01130
C4 C 0.82370 0.64710 1.01490
C5 C 0.89760 0.61970 0.89090
C6 C 0.82400 0.55300 0.72300
C7 C 0.90690 0.51570 0.60620
C8 C 0.82760 0.45900 0.43860
C9 C 0.74660 0.24450 0.44240
C10 C 0.66270 0.27930 0.55820
N1 N 0.55510 0.22060 0.83730
O1 O 0.80840 0.13250 0.78450
O2 O 1.01000 0.65390 0.91950
O3 O 0.58140 0.05170 0.92740
O4 O 0.45500 0.24620 0.74250
H1 H 0.59800 0.55400 0.79600
H2 H 0.77400 0.28800 1.05600
H3 H 0.67200 0.50200 1.06700
H4 H 0.78000 0.79800 0.99400
H5 H 0.88100 0.66800 1.11800
H6 H 0.77000 0.67300 0.69400
H7 H 0.96200 0.39200 0.63900
H8 H 0.95900 0.66000 0.61400
H9 H 0.88000 0.42300 0.36300
H10 H 0.77200 0.59800 0.40400
H11 H 0.80500 0.09800 0.47900
H12 H 0.69700 0.22200 0.33800
H13 H 0.60600 0.41000 0.52200
H14 H 0.61000 0.13200 0.56200
H15 H 0.85700 0.16500 0.85800
loop_
_geom_bond_atom_site_label_1
_geom_bond_atom_site_label_2
_geom_bond_site_symmetry_1
_geom_bond_site_symmetry_2
C1 C2 1_555 1_555
C2 C3 1_555 1_555
C3 C4 1_555 1_555
C4 C5 1_555 1_555
C5 C6 1_555 1_555
C6 C1 1_555 1_555
C7 C6 1_555 1_555
C8 C7 1_555 1_555
C9 C8 1_555 1_555
C10 C1 1_555 1_555
N1 C2 1_555 1_555
O1 C1 1_555 1_555
O2 C5 1_555 1_555
O3 N1 1_555 1_555
O4 N1 1_555 1_555
H1 C2 1_555 1_555
H2 C3 1_555 1_555
H3 C3 1_555 1_555
H4 C4 1_555 1_555
H5 C4 1_555 1_555
H6 C6 1_555 1_555
H7 C7 1_555 1_555
H8 C7 1_555 1_555
H9 C8 1_555 1_555
H10 C8 1_555 1_555
H11 C9 1_555 1_555
H12 C9 1_555 1_555
H13 C10 1_555 1_555
H14 C10 1_555 1_555
H15 O1 1_555 1_555
C9 C10 1_555 1_555

#END
