
#######################################################################
#
#                 Cambridge Crystallographic Data Centre
#                                CCDC 
#
#######################################################################
#
# If this CIF has been generated from an entry in the Cambridge 
# Structural Database, then it will include bibliographic, chemical, 
# crystal, experimental, refinement or atomic coordinate data resulting 
# from the CCDC's data processing and validation procedures.
#
#######################################################################

data_OHOGEX
_chemical_formula_moiety         'C26 H28 F1 N3 O1'
_chemical_name_systematic        
4-(p-Cyanophenyl)-2-((4-fluorophenyl)methyl)-1-isopropyl-hexahydropyrrolo(3,4-a)pyrrolizin-3-one
_symmetry_cell_setting           monoclinic
_symmetry_space_group_name_H-M   'P 21/c'
_symmetry_Int_Tables_number      14
_space_group_name_Hall           '-P 2ybc'
loop_
_symmetry_equiv_pos_site_id
_symmetry_equiv_pos_as_xyz
1 x,y,z
2 x,1/2-y,1/2+z
3 -x,-y,-z
4 -x,1/2+y,1/2-z
_cell_length_a                   11.2420(3)
_cell_length_b                   17.4887(6)
_cell_length_c                   12.0863(3)
_cell_angle_alpha                90
_cell_angle_beta                 110.072(2)
_cell_angle_gamma                90
_cell_volume                     2231.93
_exptl_crystal_colour            colorless
_cell_formula_units_Z            4
loop_
_atom_site_label
_atom_site_type_symbol
_atom_site_fract_x
_atom_site_fract_y
_atom_site_fract_z
C1 C 0.72744(13) 0.16594(8) 0.09855(12)
H1 H 0.7865 0.1487 0.0577
N1 N 0.80189(11) 0.20006(6) 0.21248(10)
C2 C 0.77703(13) 0.17182(8) 0.30648(12)
C3 C 0.66865(13) 0.11452(8) 0.26101(12)
H2 H 0.5861 0.1383 0.2561
C4 C 0.67056(13) 0.09485(8) 0.13759(12)
H3 H 0.5835 0.0835 0.0816
C5 C 0.63029(14) 0.22209(8) 0.01751(12)
H4 H 0.6771 0.2700 0.0133
C6 C 0.52385(15) 0.24440(10) 0.06270(14)
H5 H 0.5603 0.2658 0.1422
H6 H 0.4735 0.1990 0.0648
H7 H 0.4695 0.2827 0.0101
C7 C 0.57812(17) 0.18934(10) -0.10698(13)
H8 H 0.6485 0.1759 -0.1336
H9 H 0.5243 0.2276 -0.1603
H10 H 0.5280 0.1435 -0.1070
O1 O 0.83102(10) 0.19132(6) 0.40944(9)
C8 C 0.90132(13) 0.25641(8) 0.22338(13)
H11 H 0.9152 0.2869 0.2957
H12 H 0.8729 0.2917 0.1553
C9 C 1.02507(13) 0.21996(8) 0.22848(12)
C10 C 1.10185(14) 0.18355(9) 0.33093(13)
H13 H 1.0754 0.1812 0.3975
C11 C 1.21606(15) 0.15074(9) 0.33686(15)
H14 H 1.2685 0.1261 0.4066
C12 C 1.25111(15) 0.15489(10) 0.23900(17)
C13 C 1.17861(17) 0.18929(11) 0.13635(16)
H15 H 1.2056 0.1907 0.0700
C14 C 1.06414(15) 0.22218(10) 0.13163(14)
H16 H 1.0123 0.2464 0.0612
F1 F 1.36360(10) 0.12190(7) 0.24437(12)
C15 C 0.68650(14) 0.03680(8) 0.32413(12)
H17 H 0.6044 0.0085 0.2937
N2 N 0.77763(12) -0.00252(7) 0.28230(10)
C16 C 0.77025(19) -0.08734(9) 0.28316(15)
H18 H 0.6911 -0.1042 0.2945
H19 H 0.8433 -0.1089 0.3473
C17 C 0.77244(18) -0.11287(9) 0.16333(15)
H20 H 0.7267 -0.1618 0.1387
H21 H 0.8603 -0.1187 0.1641
C18 C 0.70448(18) -0.04734(9) 0.08290(14)
H22 H 0.6115 -0.0514 0.0620
H23 H 0.7255 -0.0462 0.0098
C19 C 0.75661(14) 0.02326(8) 0.15930(12)
H24 H 0.8398 0.0378 0.1523
C20 C 0.72612(14) 0.04034(8) 0.45714(12)
C21 C 0.85028(15) 0.02720(10) 0.52811(13)
H25 H 0.9117 0.0160 0.4926
C22 C 0.88697(16) 0.03003(10) 0.64946(14)
H26 H 0.9725 0.0203 0.6967
C23 C 0.79815(16) 0.04716(8) 0.70196(13)
C24 C 0.67293(16) 0.06071(9) 0.63208(14)
H27 H 0.6118 0.0727 0.6676
C25 C 0.63747(15) 0.05672(9) 0.51054(14)
H28 H 0.5516 0.0653 0.4632
C26 C 0.83635(19) 0.05174(10) 0.82863(15)
N3 N 0.8665(2) 0.05655(11) 0.92858(15)
loop_
_geom_bond_atom_site_label_1
_geom_bond_atom_site_label_2
_geom_bond_site_symmetry_1
_geom_bond_site_symmetry_2
C1 H1 1_555 1_555
N1 C1 1_555 1_555
C2 N1 1_555 1_555
C3 C2 1_555 1_555
H2 C3 1_555 1_555
C4 C1 1_555 1_555
H3 C4 1_555 1_555
C5 C1 1_555 1_555
H4 C5 1_555 1_555
C6 C5 1_555 1_555
H5 C6 1_555 1_555
H6 C6 1_555 1_555
H7 C6 1_555 1_555
C7 C5 1_555 1_555
H8 C7 1_555 1_555
H9 C7 1_555 1_555
H10 C7 1_555 1_555
O1 C2 1_555 1_555
C8 N1 1_555 1_555
H11 C8 1_555 1_555
H12 C8 1_555 1_555
C9 C8 1_555 1_555
C10 C9 1_555 1_555
H13 C10 1_555 1_555
C11 C10 1_555 1_555
H14 C11 1_555 1_555
C12 C11 1_555 1_555
C13 C12 1_555 1_555
H15 C13 1_555 1_555
C14 C9 1_555 1_555
H16 C14 1_555 1_555
F1 C12 1_555 1_555
C15 C3 1_555 1_555
H17 C15 1_555 1_555
N2 C15 1_555 1_555
C16 N2 1_555 1_555
H18 C16 1_555 1_555
H19 C16 1_555 1_555
C17 C16 1_555 1_555
H20 C17 1_555 1_555
H21 C17 1_555 1_555
C18 C17 1_555 1_555
H22 C18 1_555 1_555
H23 C18 1_555 1_555
C19 C4 1_555 1_555
H24 C19 1_555 1_555
C20 C15 1_555 1_555
C21 C20 1_555 1_555
H25 C21 1_555 1_555
C22 C21 1_555 1_555
H26 C22 1_555 1_555
C23 C22 1_555 1_555
C24 C23 1_555 1_555
H27 C24 1_555 1_555
C25 C20 1_555 1_555
H28 C25 1_555 1_555
C26 C23 1_555 1_555
N3 C26 1_555 1_555
C3 C4 1_555 1_555
C13 C14 1_555 1_555
N2 C19 1_555 1_555
C18 C19 1_555 1_555
C24 C25 1_555 1_555

#END
