
#######################################################################
#
#                 Cambridge Crystallographic Data Centre
#                                CCDC 
#
#######################################################################
#
# If this CIF has been generated from an entry in the Cambridge 
# Structural Database, then it will include bibliographic, chemical, 
# crystal, experimental, refinement or atomic coordinate data resulting 
# from the CCDC's data processing and validation procedures.
#
#######################################################################

data_OHOKUT
_chemical_formula_moiety         'C23 H19 N1'
_chemical_name_systematic        2-methyl-1,3,4-triphenyl-1H-pyrrole
_symmetry_cell_setting           monoclinic
_symmetry_space_group_name_H-M   'C 2/c'
_symmetry_Int_Tables_number      15
_space_group_name_Hall           '-C 2yn'
loop_
_symmetry_equiv_pos_site_id
_symmetry_equiv_pos_as_xyz
1 x,y,z
2 -x,y,1/2-z
3 1/2+x,1/2+y,z
4 1/2-x,1/2+y,1/2-z
5 -x,-y,-z
6 x,-y,1/2+z
7 1/2-x,1/2-y,-z
8 1/2+x,1/2-y,1/2+z
_cell_length_a                   29.558(3)
_cell_length_b                   6.0410(6)
_cell_length_c                   19.696(2)
_cell_angle_alpha                90
_cell_angle_beta                 104.661(2)
_cell_angle_gamma                90
_cell_volume                     3402.41
_exptl_crystal_colour            colorless
_exptl_crystal_description       prismatic
_cell_formula_units_Z            8
loop_
_atom_site_label
_atom_site_type_symbol
_atom_site_fract_x
_atom_site_fract_y
_atom_site_fract_z
N1 N 0.05633(4) 0.7208(2) 0.17816(6)
C1 C 0.07629(5) 0.7011(3) 0.24878(8)
H1 H 0.0664 0.7747 0.2839
C2 C 0.11300(5) 0.5562(2) 0.25944(8)
C3 C 0.11583(5) 0.4850(2) 0.19112(8)
C4 C 0.08080(5) 0.5871(3) 0.14252(8)
C5 C 0.07053(7) 0.5801(4) 0.06454(9)
H2 H 0.0979 0.5317 0.0508
H3 H 0.0618 0.7252 0.0459
H4 H 0.0453 0.4788 0.0467
C6 C 0.01886(5) 0.8689(3) 0.14926(8)
C7 C -0.01908(6) 0.8031(3) 0.09595(8)
H5 H -0.0200 0.6614 0.0772
C8 C -0.05541(6) 0.9486(3) 0.07086(10)
H6 H -0.0804 0.9059 0.0341
C9 C -0.05507(7) 1.1563(3) 0.09960(10)
H7 H -0.0801 1.2521 0.0833
C10 C -0.01751(7) 1.2209(3) 0.15250(10)
H8 H -0.0172 1.3612 0.1721
C11 C 0.01984(6) 1.0799(3) 0.17692(9)
H9 H 0.0455 1.1266 0.2118
C12 C 0.14112(5) 0.4872(2) 0.32907(8)
C13 C 0.14728(6) 0.6312(3) 0.38567(9)
H10 H 0.1349 0.7734 0.3783
C14 C 0.17126(6) 0.5690(3) 0.45262(9)
H11 H 0.1744 0.6677 0.4898
C15 C 0.19055(6) 0.3608(3) 0.46425(10)
H12 H 0.2069 0.3184 0.5091
C16 C 0.18539(6) 0.2164(3) 0.40909(10)
H13 H 0.1985 0.0759 0.4168
C17 C 0.16090(5) 0.2770(3) 0.34217(9)
H14 H 0.1576 0.1764 0.3055
C18 C 0.15185(5) 0.3425(3) 0.17294(8)
C19 C 0.19808(6) 0.4091(3) 0.18801(10)
H15 H 0.2067 0.5429 0.2110
C20 C 0.23157(7) 0.2799(4) 0.16948(12)
H16 H 0.2625 0.3273 0.1800
C21 C 0.21952(8) 0.0821(4) 0.13571(12)
H17 H 0.2421 -0.0046 0.1231
C22 C 0.17422(8) 0.0135(3) 0.12079(13)
H18 H 0.1660 -0.1213 0.0983
C23 C 0.14038(7) 0.1422(3) 0.13876(11)
H19 H 0.1095 0.0937 0.1277
loop_
_geom_bond_atom_site_label_1
_geom_bond_atom_site_label_2
_geom_bond_site_symmetry_1
_geom_bond_site_symmetry_2
N1 C1 1_555 1_555
C1 H1 1_555 1_555
C2 C1 1_555 1_555
C3 C2 1_555 1_555
C4 N1 1_555 1_555
C5 C4 1_555 1_555
H2 C5 1_555 1_555
H3 C5 1_555 1_555
H4 C5 1_555 1_555
C6 N1 1_555 1_555
C7 C6 1_555 1_555
H5 C7 1_555 1_555
C8 C7 1_555 1_555
H6 C8 1_555 1_555
C9 C8 1_555 1_555
H7 C9 1_555 1_555
C10 C9 1_555 1_555
H8 C10 1_555 1_555
C11 C6 1_555 1_555
H9 C11 1_555 1_555
C12 C2 1_555 1_555
C13 C12 1_555 1_555
H10 C13 1_555 1_555
C14 C13 1_555 1_555
H11 C14 1_555 1_555
C15 C14 1_555 1_555
H12 C15 1_555 1_555
C16 C15 1_555 1_555
H13 C16 1_555 1_555
C17 C12 1_555 1_555
H14 C17 1_555 1_555
C18 C3 1_555 1_555
C19 C18 1_555 1_555
H15 C19 1_555 1_555
C20 C19 1_555 1_555
H16 C20 1_555 1_555
C21 C20 1_555 1_555
H17 C21 1_555 1_555
C22 C21 1_555 1_555
H18 C22 1_555 1_555
C23 C18 1_555 1_555
H19 C23 1_555 1_555
C3 C4 1_555 1_555
C10 C11 1_555 1_555
C16 C17 1_555 1_555
C22 C23 1_555 1_555

#END
