
#######################################################################
#
#                 Cambridge Crystallographic Data Centre
#                                CCDC 
#
#######################################################################
#
# If this CIF has been generated from an entry in the Cambridge 
# Structural Database, then it will include bibliographic, chemical, 
# crystal, experimental, refinement or atomic coordinate data resulting 
# from the CCDC's data processing and validation procedures.
#
#######################################################################

data_OHORIO
_chemical_formula_moiety         'C41 H44 N5 O10 1+,C7 H7 O3 S1 1-'
_chemical_name_systematic        
'27-benzyl-3,4,8,9,13,14,18,19,23,24-decamethoxy-25,27,28,29-tetraaza-26-azoniahexacyclo[20.2.1.1^2,5^.1^7,10^.1^12,15^.1^17,20^]nonacosa-1(24),2(29),3,5,7,9,11,13,15,17(26),18,20,22-tridecaene 4-methylbenzenesulfonate'
_symmetry_cell_setting           monoclinic
_symmetry_space_group_name_H-M   'P 21/c'
_symmetry_Int_Tables_number      14
_space_group_name_Hall           '-P 2ybc'
loop_
_symmetry_equiv_pos_site_id
_symmetry_equiv_pos_as_xyz
1 x,y,z
2 -x,1/2+y,1/2-z
3 -x,-y,-z
4 x,1/2-y,1/2+z
_cell_length_a                   10.656(3)
_cell_length_b                   38.925(9)
_cell_length_c                   11.435(3)
_cell_angle_alpha                90
_cell_angle_beta                 111.21(3)
_cell_angle_gamma                90
_cell_volume                     4421.77
_exptl_crystal_colour            blue
_exptl_crystal_description       block
_cell_formula_units_Z            4
loop_
_atom_site_label
_atom_site_type_symbol
_atom_site_fract_x
_atom_site_fract_y
_atom_site_fract_z
S1 S 0.6584(2) 0.08470(6) 0.0241(2)
O1 O 0.6413(5) 0.11566(12) 0.0902(5)
C1 C 0.8036(8) 0.0662(2) 0.1329(7)
O2 O 0.6888(5) 0.09226(17) -0.0841(5)
O3 O 0.5477(5) 0.06115(14) 0.0038(5)
C2 C 0.9270(8) 0.0819(2) 0.1527(6)
H1 H 0.9324 0.1004 0.1033
C3 C 0.7986(9) 0.0382(2) 0.2005(8)
H2 H 0.7173 0.0268 0.1847
C4 C 0.9170(10) 0.0261(2) 0.2953(7)
H3 H 0.9131 0.0070 0.3430
C5 C 1.0355(9) 0.0420(2) 0.3166(8)
C6 C 1.1643(8) 0.0301(2) 0.4205(7)
H4 H 1.1425 0.0135 0.4723
H5 H 1.2082 0.0495 0.4706
H6 H 1.2234 0.0199 0.3838
C7 C 1.0420(9) 0.0697(2) 0.2468(8)
H7 H 1.1242 0.0805 0.2621
O4 O 0.5482(5) 0.00634(14) 0.3695(5)
N1 N 0.3961(6) 0.14535(16) 0.0333(5)
N2 N 0.5149(6) 0.09328(15) 0.2770(5)
O5 O 0.2731(5) 0.02645(12) 0.1649(5)
O6 O 0.9429(5) 0.05286(13) 0.6672(5)
N3 N 0.9001(5) 0.16574(14) 0.2464(5)
N4 N 0.6676(6) 0.18494(17) 0.0471(5)
O7 O 1.2572(5) 0.18012(13) 0.3423(5)
O8 O 1.1725(5) 0.10180(14) 0.6575(5)
C8 C 0.6245(8) 0.22988(19) -0.0806(6)
O9 O 0.0496(6) 0.13280(14) -0.0412(5)
C9 C 0.7885(7) 0.20167(17) 0.0662(6)
O10 O 0.8465(5) 0.25615(13) -0.0110(5)
O11 O 0.1325(5) 0.19504(13) -0.1750(5)
C10 C 0.4996(7) 0.0368(2) 0.3163(6)
C11 C 0.9050(6) 0.18900(18) 0.1631(6)
O12 O 0.5458(5) 0.25380(14) -0.1592(5)
C12 C 1.0436(7) 0.19877(19) 0.1841(7)
C13 C 0.8264(7) 0.08475(18) 0.4748(6)
C14 C 1.0421(8) 0.09808(18) 0.5810(6)
C15 C 0.2885(7) 0.09894(18) 0.1104(6)
H8 H 0.2037 0.0894 0.0930
N5 N 0.8599(6) 0.11054(16) 0.4119(6)
C16 C 0.5641(7) 0.20149(18) -0.0441(6)
C17 C 0.2886(7) 0.12786(19) 0.0431(6)
C18 C 0.2084(7) 0.16971(19) -0.0984(7)
C19 C 0.5599(8) 0.13556(19) 0.4509(7)
C20 C 0.5860(7) 0.06655(19) 0.3506(7)
C21 C 0.3825(7) 0.04607(19) 0.2250(6)
C22 C 0.7117(7) 0.06464(17) 0.4426(6)
H9 H 0.7220 0.0457 0.4947
C23 C 0.3503(7) 0.17109(18) -0.0545(6)
C24 C 1.1210(7) 0.1817(2) 0.2856(7)
O13 O 1.0780(5) 0.21952(15) 0.1065(5)
C25 C 0.7590(8) 0.23074(19) -0.0124(7)
C26 C 0.1705(8) 0.14446(19) -0.0394(7)
C27 C 1.0290(7) 0.16112(18) 0.3263(7)
C28 C 0.5383(6) 0.12930(17) 0.3142(6)
H10 H 0.4617 0.1427 0.2625
H11 H 0.6167 0.1373 0.2982
C29 C 0.9920(7) 0.11821(19) 0.4729(6)
C30 C 0.3913(7) 0.08131(19) 0.1997(6)
C31 C 0.9412(7) 0.07741(19) 0.5860(6)
C32 C 0.4284(7) 0.19426(17) -0.0879(6)
H12 H 0.3788 0.2081 -0.1548
C33 C 1.0687(7) 0.14020(19) 0.4281(6)
H13 H 1.1605 0.1405 0.4751
C34 C -0.0656(8) 0.1486(2) -0.1147(8)
H14 H -0.0615 0.1725 -0.0932
H15 H -0.1411 0.1382 -0.1016
H16 H -0.0756 0.1463 -0.2012
C35 C 1.2281(7) 0.0787(2) 0.7589(7)
H17 H 1.1742 0.0789 0.8104
H18 H 1.3182 0.0857 0.8080
H19 H 1.2295 0.0560 0.7270
C36 C 0.6505(8) 0.1605(2) 0.5136(8)
H20 H 0.7016 0.1720 0.4749
C37 C 0.5006(11) 0.1275(3) 0.6294(8)
H21 H 0.4498 0.1162 0.6689
C38 C 1.3108(8) 0.2035(2) 0.4450(7)
H22 H 1.2845 0.2265 0.4164
H23 H 1.4073 0.2019 0.4779
H24 H 1.2768 0.1978 0.5096
C39 C 0.4722(8) -0.02357(19) 0.3293(8)
H25 H 0.3868 -0.0209 0.3385
H26 H 0.5195 -0.0427 0.3789
H27 H 0.4583 -0.0277 0.2427
C40 C 0.2663(8) 0.0146(2) 0.0457(7)
H28 H 0.2883 0.0330 0.0008
H29 H 0.1768 0.0066 -0.0007
H30 H 0.3290 -0.0039 0.0562
C41 C 0.5678(11) 0.2636(3) -0.2568(10)
H31 H 0.6552 0.2740 -0.2320
H32 H 0.5005 0.2800 -0.3021
H33 H 0.5640 0.2441 -0.3094
C42 C 0.6638(9) 0.1683(3) 0.6360(8)
H34 H 0.7245 0.1851 0.6796
C43 C 0.0863(9) 0.1886(2) -0.3017(7)
H35 H 0.1610 0.1832 -0.3266
H36 H 0.0404 0.2085 -0.3465
H37 H 0.0253 0.1694 -0.3205
C44 C 0.4836(8) 0.1193(2) 0.5094(8)
H38 H 0.4206 0.1028 0.4667
C45 C 1.2123(8) 0.2264(2) 0.1325(7)
H39 H 1.2472 0.2398 0.2081
H40 H 1.2219 0.2391 0.0642
H41 H 1.2612 0.2052 0.1432
C46 C 0.8966(9) 0.2561(3) -0.1088(9)
H42 H 0.9395 0.2345 -0.1101
H43 H 0.9608 0.2744 -0.0959
H44 H 0.8237 0.2595 -0.1873
C47 C 0.5904(12) 0.1518(3) 0.6929(10)
H45 H 0.6013 0.1571 0.7753
C48 C 0.8868(8) 0.0613(2) 0.7586(8)
H46 H 0.9384 0.0795 0.8111
H47 H 0.8885 0.0415 0.8089
H48 H 0.7955 0.0688 0.7175
H49 H 0.477(6) 0.1369(15) 0.056(5)
H50 H 0.810(6) 0.1183(16) 0.334(5)
H51 H 0.678(6) 0.1589(18) 0.076(5)
loop_
_geom_bond_atom_site_label_1
_geom_bond_atom_site_label_2
_geom_bond_site_symmetry_1
_geom_bond_site_symmetry_2
S1 O1 1_555 1_555
C1 S1 1_555 1_555
O2 S1 1_555 1_555
O3 S1 1_555 1_555
C2 C1 1_555 1_555
H1 C2 1_555 1_555
C3 C1 1_555 1_555
H2 C3 1_555 1_555
C4 C3 1_555 1_555
H3 C4 1_555 1_555
C5 C4 1_555 1_555
C6 C5 1_555 1_555
H4 C6 1_555 1_555
H5 C6 1_555 1_555
H6 C6 1_555 1_555
C7 C2 1_555 1_555
H7 C7 1_555 1_555
O4 C10 1_555 1_555
N1 C17 1_555 1_555
N2 C20 1_555 1_555
O5 C21 1_555 1_555
O6 C31 1_555 1_555
N3 C11 1_555 1_555
N4 C9 1_555 1_555
O7 C24 1_555 1_555
O8 C14 1_555 1_555
C8 O12 1_555 1_555
O9 C26 1_555 1_555
C9 C11 1_555 1_555
O10 C25 1_555 1_555
O11 C18 1_555 1_555
C10 C20 1_555 1_555
C11 C12 1_555 1_555
O12 C41 1_555 1_555
C12 C24 1_555 1_555
C13 N5 1_555 1_555
C14 C29 1_555 1_555
C15 H8 1_555 1_555
N5 C29 1_555 1_555
C16 N4 1_555 1_555
C17 C15 1_555 1_555
C18 C23 1_555 1_555
C19 C28 1_555 1_555
C20 C22 1_555 1_555
C21 C10 1_555 1_555
C22 C13 1_555 1_555
H9 C22 1_555 1_555
C23 N1 1_555 1_555
C24 C27 1_555 1_555
O13 C12 1_555 1_555
C25 C8 1_555 1_555
C26 C17 1_555 1_555
C27 N3 1_555 1_555
C28 N2 1_555 1_555
H10 C28 1_555 1_555
H11 C28 1_555 1_555
C29 C33 1_555 1_555
C30 N2 1_555 1_555
C31 C13 1_555 1_555
C32 C16 1_555 1_555
H12 C32 1_555 1_555
C33 C27 1_555 1_555
H13 C33 1_555 1_555
C34 O9 1_555 1_555
H14 C34 1_555 1_555
H15 C34 1_555 1_555
H16 C34 1_555 1_555
C35 O8 1_555 1_555
H17 C35 1_555 1_555
H18 C35 1_555 1_555
H19 C35 1_555 1_555
C36 C19 1_555 1_555
H20 C36 1_555 1_555
C37 H21 1_555 1_555
C38 O7 1_555 1_555
H22 C38 1_555 1_555
H23 C38 1_555 1_555
H24 C38 1_555 1_555
C39 O4 1_555 1_555
H25 C39 1_555 1_555
H26 C39 1_555 1_555
H27 C39 1_555 1_555
C40 O5 1_555 1_555
H28 C40 1_555 1_555
H29 C40 1_555 1_555
H30 C40 1_555 1_555
C41 H31 1_555 1_555
H32 C41 1_555 1_555
H33 C41 1_555 1_555
C42 C36 1_555 1_555
H34 C42 1_555 1_555
C43 O11 1_555 1_555
H35 C43 1_555 1_555
H36 C43 1_555 1_555
H37 C43 1_555 1_555
C44 C19 1_555 1_555
H38 C44 1_555 1_555
C45 O13 1_555 1_555
H39 C45 1_555 1_555
H40 C45 1_555 1_555
H41 C45 1_555 1_555
C46 O10 1_555 1_555
H42 C46 1_555 1_555
H43 C46 1_555 1_555
H44 C46 1_555 1_555
C47 C37 1_555 1_555
H45 C47 1_555 1_555
C48 O6 1_555 1_555
H46 C48 1_555 1_555
H47 C48 1_555 1_555
H48 C48 1_555 1_555
H49 N1 1_555 1_555
H50 N5 1_555 1_555
H51 N4 1_555 1_555
C5 C7 1_555 1_555
C8 C16 1_555 1_555
C9 C25 1_555 1_555
C14 C31 1_555 1_555
C15 C30 1_555 1_555
C18 C26 1_555 1_555
C21 C30 1_555 1_555
C23 C32 1_555 1_555
C37 C44 1_555 1_555
C42 C47 1_555 1_555

#END
