
#######################################################################
#
#                 Cambridge Crystallographic Data Centre
#                                CCDC 
#
#######################################################################
#
# If this CIF has been generated from an entry in the Cambridge 
# Structural Database, then it will include bibliographic, chemical, 
# crystal, experimental, refinement or atomic coordinate data resulting 
# from the CCDC's data processing and validation procedures.
#
#######################################################################

data_OHOROU
_chemical_formula_moiety         'C28 H19 N1'
_chemical_name_systematic        5,6-diphenylindolo[1,2-a]quinoline
_symmetry_cell_setting           triclinic
_symmetry_space_group_name_H-M   'P -1'
_symmetry_Int_Tables_number      2
_space_group_name_Hall           '-P 1'
loop_
_symmetry_equiv_pos_site_id
_symmetry_equiv_pos_as_xyz
1 x,y,z
2 -x,-y,-z
_cell_length_a                   9.0455(19)
_cell_length_b                   9.563(2)
_cell_length_c                   11.529(2)
_cell_angle_alpha                103.716(18)
_cell_angle_beta                 98.763(17)
_cell_angle_gamma                98.986(19)
_cell_volume                     938.129
_exptl_crystal_colour            yellow
_exptl_crystal_description       block
_cell_formula_units_Z            2
loop_
_atom_site_label
_atom_site_type_symbol
_atom_site_fract_x
_atom_site_fract_y
_atom_site_fract_z
N1 N 0.4945(3) -0.0498(3) 0.8215(3)
C1 C 0.5591(4) -0.1338(4) 0.8938(3)
C2 C 0.4955(5) -0.2431(4) 0.9432(4)
H1 H 0.3879 -0.2747 0.9299
C3 C 0.5925(5) -0.3047(5) 1.0123(4)
H2 H 0.5500 -0.3777 1.0478
C4 C 0.7522(5) -0.2619(5) 1.0311(4)
H3 H 0.8164 -0.3072 1.0773
C5 C 0.8145(5) -0.1547(4) 0.9826(4)
H4 H 0.9223 -0.1258 0.9949
C6 C 0.7202(4) -0.0872(4) 0.9149(3)
C7 C 0.7518(4) 0.0274(5) 0.8584(4)
H5 H 0.8502 0.0798 0.8588
C8 C 0.6156(4) 0.0494(4) 0.8033(3)
C9 C 0.5852(4) 0.1518(4) 0.7340(3)
C10 C 0.4396(4) 0.1514(4) 0.6832(3)
C11 C 0.3134(4) 0.0476(4) 0.7019(3)
C12 C 0.1614(4) 0.0465(4) 0.6518(3)
H6 H 0.1409 0.1134 0.6053
C13 C 0.0410(4) -0.0499(5) 0.6687(4)
H7 H -0.0611 -0.0481 0.6352
C14 C 0.0708(4) -0.1491(5) 0.7351(4)
H8 H -0.0114 -0.2169 0.7459
C15 C 0.2203(4) -0.1502(4) 0.7862(4)
H9 H 0.2392 -0.2177 0.8326
C16 C 0.3416(4) -0.0537(4) 0.7699(3)
C17 C 0.4013(4) 0.2521(4) 0.6072(3)
C18 C 0.3709(4) 0.3897(5) 0.6572(4)
H10 H 0.3806 0.4237 0.7430
C19 C 0.3273(4) 0.4769(5) 0.5847(4)
H11 H 0.3064 0.5699 0.6210
C20 C 0.3132(4) 0.4317(5) 0.4601(4)
H12 H 0.2825 0.4925 0.4103
C21 C 0.3446(4) 0.2966(5) 0.4091(4)
H13 H 0.3362 0.2640 0.3235
C22 C 0.3883(4) 0.2082(4) 0.4818(4)
H14 H 0.4098 0.1156 0.4452
C23 C 0.7229(4) 0.2565(4) 0.7249(3)
C24 C 0.7870(4) 0.3789(5) 0.8213(4)
H15 H 0.7402 0.3993 0.8902
C25 C 0.9192(4) 0.4717(5) 0.8179(4)
H16 H 0.9632 0.5553 0.8844
C26 C 0.9870(4) 0.4423(5) 0.7174(4)
H17 H 1.0779 0.5058 0.7154
C27 C 0.9246(4) 0.3235(5) 0.6216(4)
H18 H 0.9718 0.3042 0.5529
C28 C 0.7916(4) 0.2301(4) 0.6241(4)
H19 H 0.7475 0.1477 0.5566
loop_
_geom_bond_atom_site_label_1
_geom_bond_atom_site_label_2
_geom_bond_site_symmetry_1
_geom_bond_site_symmetry_2
N1 C1 1_555 1_555
C1 C2 1_555 1_555
C2 H1 1_555 1_555
C3 C2 1_555 1_555
H2 C3 1_555 1_555
C4 C3 1_555 1_555
H3 C4 1_555 1_555
C5 C4 1_555 1_555
H4 C5 1_555 1_555
C6 C1 1_555 1_555
C7 C6 1_555 1_555
H5 C7 1_555 1_555
C8 N1 1_555 1_555
C9 C8 1_555 1_555
C10 C9 1_555 1_555
C11 C10 1_555 1_555
C12 C11 1_555 1_555
H6 C12 1_555 1_555
C13 C12 1_555 1_555
H7 C13 1_555 1_555
C14 C13 1_555 1_555
H8 C14 1_555 1_555
C15 C14 1_555 1_555
H9 C15 1_555 1_555
C16 N1 1_555 1_555
C17 C10 1_555 1_555
C18 C17 1_555 1_555
H10 C18 1_555 1_555
C19 C18 1_555 1_555
H11 C19 1_555 1_555
C20 C19 1_555 1_555
H12 C20 1_555 1_555
C21 C20 1_555 1_555
H13 C21 1_555 1_555
C22 C17 1_555 1_555
H14 C22 1_555 1_555
C23 C9 1_555 1_555
C24 C23 1_555 1_555
H15 C24 1_555 1_555
C25 C24 1_555 1_555
H16 C25 1_555 1_555
C26 C25 1_555 1_555
H17 C26 1_555 1_555
C27 C26 1_555 1_555
H18 C27 1_555 1_555
C28 C23 1_555 1_555
H19 C28 1_555 1_555
C5 C6 1_555 1_555
C7 C8 1_555 1_555
C11 C16 1_555 1_555
C15 C16 1_555 1_555
C21 C22 1_555 1_555
C27 C28 1_555 1_555

#END
