
#######################################################################
#
#                 Cambridge Crystallographic Data Centre
#                                CCDC 
#
#######################################################################
#
# If this CIF has been generated from an entry in the Cambridge 
# Structural Database, then it will include bibliographic, chemical, 
# crystal, experimental, refinement or atomic coordinate data resulting 
# from the CCDC's data processing and validation procedures.
#
#######################################################################

data_OHOREK
_chemical_name_common            
'decamethoxysapphyrin bis(4-methylbenzenesulfonate)'
_chemical_formula_moiety         'C34 H39 N5 O10 2+,2(C7 H7 O3 S1 1-)'
_chemical_name_systematic        
'3,4,8,9,13,14,18,19,23,24-decamethoxy-26,27,29-triaza-25,28-diazoniahexacyclo[20.2.1.1^2,5^.1^7,10^.1^12,15^.1^17,20^]nonacosa-1(25),2,4,6,8,10(28),11,13,15,17,19,21,23-tridecaene bis(4-methylbenzenesulfonate)'
_symmetry_cell_setting           monoclinic
_symmetry_space_group_name_H-M   'P 21/n'
_symmetry_Int_Tables_number      14
_space_group_name_Hall           '-P 2yn'
loop_
_symmetry_equiv_pos_site_id
_symmetry_equiv_pos_as_xyz
1 x,y,z
2 1/2-x,1/2+y,1/2-z
3 -x,-y,-z
4 1/2+x,1/2-y,1/2+z
_cell_length_a                   9.5948(3)
_cell_length_b                   11.7166(3)
_cell_length_c                   43.6295(16)
_cell_angle_alpha                90
_cell_angle_beta                 91.392(4)
_cell_angle_gamma                90
_cell_volume                     4903.31
_exptl_crystal_colour            'sapphire blue'
_exptl_crystal_description       block
_cell_formula_units_Z            4
loop_
_atom_site_label
_atom_site_type_symbol
_atom_site_fract_x
_atom_site_fract_y
_atom_site_fract_z
S1 S 1.07853(14) -0.01568(10) 0.09340(3)
O1 O 1.1967(4) 0.0227(3) 0.11278(9)
O2 O 0.9713(5) -0.0658(4) 0.11140(11)
O3 O 1.1246(5) -0.0848(4) 0.06854(10)
C1 C 1.0739(6) 0.1589(5) 0.05188(13)
H1 H 1.1511 0.1238 0.0435
C2 C 1.0099(5) 0.1110(4) 0.07727(13)
C3 C 0.8960(6) 0.1642(5) 0.08981(15)
H2 H 0.8533 0.1323 0.1067
C4 C 1.0211(7) 0.2597(5) 0.03924(15)
H3 H 1.0630 0.2912 0.0222
C5 C 0.9067(8) 0.3140(5) 0.05170(17)
C6 C 0.8455(7) 0.2654(5) 0.07717(18)
H4 H 0.7695 0.3011 0.0859
C7 C 0.8515(10) 0.4231(7) 0.0374(2)
H5 H 0.9282 0.4718 0.0324
H6 H 0.7929 0.4614 0.0516
H7 H 0.7985 0.4053 0.0191
O4 O 0.6501(4) -0.3518(3) 0.09648(9)
O5 O 0.3064(4) 0.4975(3) 0.04183(9)
O6 O -0.0026(5) 0.5029(3) 0.15253(11)
O7 O 0.6908(4) -0.0668(3) 0.01843(8)
O8 O 0.6146(5) 0.1909(3) 0.00558(9)
O9 O 0.1048(4) 0.5389(3) 0.09422(11)
O10 O 0.5000(5) -0.4061(3) 0.15724(10)
O11 O 0.0109(5) -0.0433(4) 0.24510(10)
N1 N 0.4262(5) -0.1362(3) 0.12441(10)
O12 O 0.2091(6) -0.2503(4) 0.23102(11)
O13 O -0.0856(5) 0.3401(4) 0.20350(10)
N2 N 0.3001(5) 0.2832(3) 0.09960(10)
C8 C 0.5186(5) -0.1752(4) 0.10326(12)
C9 C 0.1276(5) 0.3295(4) 0.13719(12)
C10 C 0.5572(5) -0.0183(4) 0.06394(12)
N3 N 0.1381(5) 0.2216(4) 0.14957(11)
C11 C 0.3533(6) 0.3255(4) 0.07307(12)
N4 N 0.1974(5) -0.0326(3) 0.17544(11)
N5 N 0.4861(5) 0.0759(3) 0.07391(11)
C12 C 0.5862(6) 0.1217(4) 0.02913(12)
C13 C 0.1062(6) 0.0151(4) 0.19579(12)
C14 C 0.2013(6) 0.3580(4) 0.11102(12)
C15 C 0.3308(6) -0.2153(4) 0.17288(12)
H8 H 0.3393 -0.2822 0.1842
C16 C 0.5684(6) -0.1254(4) 0.07710(12)
H9 H 0.6218 -0.1752 0.0657
C17 C 0.5005(5) 0.1641(4) 0.05335(12)
C18 C 0.5588(5) -0.2885(4) 0.11270(12)
C19 C 0.4453(6) 0.2722(4) 0.05360(12)
H10 H 0.4751 0.3184 0.0377
C20 C 0.4092(5) -0.2166(4) 0.14691(12)
C21 C 0.4931(6) -0.3136(4) 0.13886(12)
C22 C -0.0055(6) 0.3208(5) 0.17892(13)
C23 C 0.2420(6) -0.1371(4) 0.18593(12)
C24 C 0.0411(6) 0.1195(4) 0.19441(13)
H11 H -0.0250 0.1306 0.2094
C25 C 0.0977(6) -0.0618(4) 0.22089(13)
C26 C 0.1795(7) -0.1547(4) 0.21496(13)
C27 C 0.6196(5) 0.0108(4) 0.03549(12)
C28 C 0.1964(5) 0.4535(4) 0.09034(13)
C29 C 0.7156(7) 0.1522(5) -0.01577(14)
H12 H 0.8033 0.1398 -0.0052
H13 H 0.7269 0.2087 -0.0314
H14 H 0.6844 0.0820 -0.0250
C30 C 0.2893(5) 0.4344(4) 0.06784(12)
C31 C 0.0344(6) 0.3920(4) 0.15615(13)
C32 C 0.0564(6) 0.2114(4) 0.17462(13)
C33 C 0.4350(8) 0.5605(5) 0.04103(18)
H15 H 0.4327 0.6216 0.0557
H16 H 0.4465 0.5914 0.0209
H17 H 0.5115 0.5106 0.0460
C34 C 0.5213(9) -0.5127(4) 0.14284(17)
H18 H 0.4595 -0.5195 0.1253
H19 H 0.5029 -0.5731 0.1570
H20 H 0.6161 -0.5178 0.1364
C35 C 0.7881(7) -0.3475(8) 0.1078(3)
H21 H 0.8251 -0.2724 0.1048
H22 H 0.8435 -0.4021 0.0971
H23 H 0.7902 -0.3652 0.1293
C36 C 0.8308(7) -0.0866(6) 0.02877(16)
H24 H 0.8897 -0.0269 0.0214
H25 H 0.8620 -0.1588 0.0211
H26 H 0.8348 -0.0873 0.0508
C37 C 0.1428(8) 0.6495(5) 0.0832(2)
H27 H 0.2395 0.6635 0.0880
H28 H 0.0869 0.7065 0.0928
H29 H 0.1273 0.6526 0.0614
C38 C 0.0867(9) 0.5794(6) 0.1670(3)
H30 H 0.0944 0.5611 0.1885
H31 H 0.0507 0.6554 0.1646
H32 H 0.1770 0.5747 0.1581
C39 C -0.2087(7) 0.4014(7) 0.1994(2)
H33 H -0.1873 0.4804 0.1960
H34 H -0.2637 0.3944 0.2174
H35 H -0.2601 0.3718 0.1820
C40 C 0.0719(12) 0.0129(10) 0.2697(2)
H36 H 0.1418 -0.0351 0.2792
H37 H 0.0021 0.0308 0.2844
H38 H 0.1144 0.0821 0.2628
C41 C 0.1588(12) -0.2666(9) 0.2594(2)
H39 H 0.2152 -0.2253 0.2742
H40 H 0.1611 -0.3465 0.2643
H41 H 0.0645 -0.2395 0.2600
H42 H 0.481(6) 0.086(5) 0.0956(15)
H43 H 0.195(6) -0.016(5) 0.1591(14)
H44 H 0.385(7) -0.070(6) 0.1249(15)
H45 H 0.180(8) 0.175(7) 0.1447(17)
H46 H 0.333(6) 0.222(5) 0.1109(13)
S2 S 0.54550(15) 1.16349(10) 0.15749(3)
O14 O 0.4346(4) 1.1185(3) 0.13689(9)
O15 O 0.4879(5) 1.2350(3) 0.18099(10)
O16 O 0.6554(5) 1.2143(4) 0.14024(11)
C42 C 0.6164(6) 1.0415(4) 0.17599(12)
C43 C 0.7217(7) 0.9801(5) 0.16261(15)
H47 H 0.7596 1.0047 0.1443
C44 C 0.5584(7) 1.0025(5) 0.20273(15)
H48 H 0.4861 1.0426 0.2116
C45 C 0.7159(7) 0.8416(5) 0.20353(17)
C46 C 0.6090(8) 0.9030(6) 0.21619(16)
H49 H 0.5699 0.8770 0.2342
C47 C 0.7700(8) 0.8816(6) 0.17670(18)
H50 H 0.8416 0.8411 0.1677
C48 C 0.7666(10) 0.7340(7) 0.2188(3)
H51 H 0.7927 0.6798 0.2035
H52 H 0.6935 0.7025 0.2309
H53 H 0.8459 0.7510 0.2319
loop_
_geom_bond_atom_site_label_1
_geom_bond_atom_site_label_2
_geom_bond_site_symmetry_1
_geom_bond_site_symmetry_2
S1 O1 1_555 1_555
O2 S1 1_555 1_555
O3 S1 1_555 1_555
C1 H1 1_555 1_555
C2 S1 1_555 1_555
C3 C2 1_555 1_555
H2 C3 1_555 1_555
C4 C1 1_555 1_555
H3 C4 1_555 1_555
C5 C4 1_555 1_555
C6 C3 1_555 1_555
H4 C6 1_555 1_555
C7 C5 1_555 1_555
H5 C7 1_555 1_555
H6 C7 1_555 1_555
H7 C7 1_555 1_555
O4 C18 1_555 1_555
O5 C30 1_555 1_555
O6 C31 1_555 1_555
O7 C27 1_555 1_555
O8 C12 1_555 1_555
O9 C28 1_555 1_555
O10 C21 1_555 1_555
O11 C25 1_555 1_555
N1 C8 1_555 1_555
O12 C26 1_555 1_555
O13 C22 1_555 1_555
N2 C11 1_555 1_555
C8 C16 1_555 1_555
C9 N3 1_555 1_555
C10 N5 1_555 1_555
N3 C32 1_555 1_555
C11 C19 1_555 1_555
N4 C13 1_555 1_555
N5 C17 1_555 1_555
C12 C17 1_555 1_555
C13 C24 1_555 1_555
C14 N2 1_555 1_555
C15 H8 1_555 1_555
C16 C10 1_555 1_555
H9 C16 1_555 1_555
C17 C19 1_555 1_555
C18 C8 1_555 1_555
C19 H10 1_555 1_555
C20 N1 1_555 1_555
C21 C18 1_555 1_555
C22 C31 1_555 1_555
C23 N4 1_555 1_555
C24 H11 1_555 1_555
C25 C13 1_555 1_555
C26 C23 1_555 1_555
C27 C10 1_555 1_555
C28 C14 1_555 1_555
C29 O8 1_555 1_555
H12 C29 1_555 1_555
H13 C29 1_555 1_555
H14 C29 1_555 1_555
C30 C11 1_555 1_555
C31 C9 1_555 1_555
C32 C22 1_555 1_555
C33 O5 1_555 1_555
H15 C33 1_555 1_555
H16 C33 1_555 1_555
H17 C33 1_555 1_555
C34 O10 1_555 1_555
H18 C34 1_555 1_555
H19 C34 1_555 1_555
H20 C34 1_555 1_555
C35 O4 1_555 1_555
H21 C35 1_555 1_555
H22 C35 1_555 1_555
H23 C35 1_555 1_555
C36 O7 1_555 1_555
H24 C36 1_555 1_555
H25 C36 1_555 1_555
H26 C36 1_555 1_555
C37 O9 1_555 1_555
H27 C37 1_555 1_555
H28 C37 1_555 1_555
H29 C37 1_555 1_555
C38 O6 1_555 1_555
H30 C38 1_555 1_555
H31 C38 1_555 1_555
H32 C38 1_555 1_555
C39 O13 1_555 1_555
H33 C39 1_555 1_555
H34 C39 1_555 1_555
H35 C39 1_555 1_555
C40 O11 1_555 1_555
H36 C40 1_555 1_555
H37 C40 1_555 1_555
H38 C40 1_555 1_555
C41 O12 1_555 1_555
H39 C41 1_555 1_555
H40 C41 1_555 1_555
H41 C41 1_555 1_555
H42 N5 1_555 1_555
H43 N4 1_555 1_555
H44 N1 1_555 1_555
H45 N3 1_555 1_555
H46 N2 1_555 1_555
S2 O14 1_555 1_555
O15 S2 1_555 1_555
O16 S2 1_555 1_555
C42 S2 1_555 1_555
C43 C42 1_555 1_555
H47 C43 1_555 1_555
C44 C42 1_555 1_555
H48 C44 1_555 1_555
C45 C46 1_555 1_555
C46 C44 1_555 1_555
H49 C46 1_555 1_555
C47 C43 1_555 1_555
H50 C47 1_555 1_555
C48 C45 1_555 1_555
H51 C48 1_555 1_555
H52 C48 1_555 1_555
H53 C48 1_555 1_555
C1 C2 1_555 1_555
C5 C6 1_555 1_555
C9 C14 1_555 1_555
C12 C27 1_555 1_555
C15 C20 1_555 1_555
C15 C23 1_555 1_555
C20 C21 1_555 1_555
C24 C32 1_555 1_555
C25 C26 1_555 1_555
C28 C30 1_555 1_555
C45 C47 1_555 1_555

#END
