
#######################################################################
#
#                 Cambridge Crystallographic Data Centre
#                                CCDC 
#
#######################################################################
#
# If this CIF has been generated from an entry in the Cambridge 
# Structural Database, then it will include bibliographic, chemical, 
# crystal, experimental, refinement or atomic coordinate data resulting 
# from the CCDC's data processing and validation procedures.
#
#######################################################################

data_OHORUA
_chemical_formula_moiety         'C25 H29 N1 O5 S1'
_chemical_name_systematic        
5,5-dimethyl-3-((4-methylphenyl)sulfonyl)-2-(4-nitrophenyl)-1,2,3,4,5,6,7,8-octahydronaphthalen-2-ol
_symmetry_cell_setting           monoclinic
_symmetry_space_group_name_H-M   'C 2/c'
_symmetry_Int_Tables_number      15
_space_group_name_Hall           '-C 2yn'
loop_
_symmetry_equiv_pos_site_id
_symmetry_equiv_pos_as_xyz
1 x,y,z
2 -x,y,1/2-z
3 1/2+x,1/2+y,z
4 1/2-x,1/2+y,1/2-z
5 -x,-y,-z
6 x,-y,1/2+z
7 1/2-x,1/2-y,-z
8 1/2+x,1/2-y,1/2+z
_cell_length_a                   30.166(4)
_cell_length_b                   11.6914(15)
_cell_length_c                   14.2065(18)
_cell_angle_alpha                90
_cell_angle_beta                 113.297(3)
_cell_angle_gamma                90
_cell_volume                     4601.88
_exptl_crystal_colour            colorless
_exptl_crystal_description       Tabullar
_cell_formula_units_Z            8
loop_
_atom_site_label
_atom_site_type_symbol
_atom_site_fract_x
_atom_site_fract_y
_atom_site_fract_z
C1 C 0.77487(6) 0.40029(15) 0.74460(12)
H1 H 0.7710 0.3157 0.7344
C2 C 0.82903(6) 0.42738(16) 0.78992(13)
H2 H 0.8442 0.3896 0.7477
H3 H 0.8334 0.5109 0.7862
C3 C 0.85475(6) 0.38886(15) 0.90020(13)
C4 C 0.90983(7) 0.39744(17) 0.94367(14)
C5 C 0.93010(7) 0.38824(18) 1.06083(14)
H4 H 0.9654 0.3766 1.0871
H5 H 0.9242 0.4611 1.0895
C6 C 0.90774(7) 0.29088(18) 1.09767(15)
H6 H 0.9231 0.2861 1.1734
H7 H 0.9134 0.2176 1.0692
C7 C 0.85372(7) 0.31084(17) 1.06339(14)
H8 H 0.8382 0.2383 1.0696
H9 H 0.8484 0.3673 1.1098
C8 C 0.83003(6) 0.35340(15) 0.95485(13)
C9 C 0.77561(6) 0.35436(15) 0.91286(12)
H10 H 0.7652 0.3771 0.9682
H11 H 0.7636 0.2759 0.8910
C10 C 0.75271(6) 0.43591(14) 0.82176(13)
C11 C 0.69770(6) 0.42570(15) 0.77829(12)
C12 C 0.66912(7) 0.52030(16) 0.77556(13)
H12 H 0.6841 0.5917 0.8012
C13 C 0.61931(7) 0.51207(17) 0.73606(14)
H13 H 0.6000 0.5767 0.7349
C14 C 0.59834(6) 0.40781(17) 0.69834(14)
C15 C 0.62526(7) 0.31176(16) 0.70004(13)
H14 H 0.6099 0.2410 0.6736
C16 C 0.67514(6) 0.32061(15) 0.74106(13)
H15 H 0.6942 0.2550 0.7440
C17 C 0.69257(6) 0.41337(15) 0.54935(12)
C18 C 0.65261(6) 0.48417(16) 0.52567(13)
H16 H 0.6563 0.5612 0.5488
C19 C 0.60719(7) 0.44015(17) 0.46750(14)
H17 H 0.5796 0.4879 0.4504
C20 C 0.60137(7) 0.32677(17) 0.43365(13)
C21 C 0.64229(7) 0.25813(16) 0.45737(14)
H18 H 0.6388 0.1813 0.4339
C22 C 0.68782(6) 0.30105(15) 0.51475(13)
H19 H 0.7155 0.2542 0.5303
C23 C 0.55177(7) 0.2804(2) 0.37156(16)
H20 H 0.5388 0.3173 0.3041
H21 H 0.5304 0.2961 0.4071
H22 H 0.5537 0.1976 0.3630
C24 C 0.93121(8) 0.3028(2) 0.89939(17)
H23 H 0.9228 0.2279 0.9185
H24 H 0.9664 0.3107 0.9269
H25 H 0.9181 0.3095 0.8245
C25 C 0.92501(7) 0.51451(19) 0.91664(17)
H26 H 0.9154 0.5197 0.8423
H27 H 0.9601 0.5229 0.9512
H28 H 0.9092 0.5755 0.9392
N1 N 0.54531(6) 0.39917(18) 0.65267(13)
O1 O 0.78119(4) 0.42751(11) 0.56891(9)
O2 O 0.74712(5) 0.58886(10) 0.63248(9)
O3 O 0.76700(5) 0.55113(10) 0.85231(9)
H29 H 0.7736 0.5583 0.9152
O4 O 0.52707(5) 0.30735(16) 0.61716(14)
O5 O 0.52169(6) 0.48471(18) 0.65174(16)
S1 S 0.75080(2) 0.46755(4) 0.62010(3)
loop_
_geom_bond_atom_site_label_1
_geom_bond_atom_site_label_2
_geom_bond_site_symmetry_1
_geom_bond_site_symmetry_2
C1 H1 1_555 1_555
C2 C1 1_555 1_555
H2 C2 1_555 1_555
H3 C2 1_555 1_555
C3 C2 1_555 1_555
C4 C3 1_555 1_555
C5 C4 1_555 1_555
H4 C5 1_555 1_555
H5 C5 1_555 1_555
C6 C5 1_555 1_555
H6 C6 1_555 1_555
H7 C6 1_555 1_555
C7 C6 1_555 1_555
H8 C7 1_555 1_555
H9 C7 1_555 1_555
C8 C3 1_555 1_555
C9 C8 1_555 1_555
H10 C9 1_555 1_555
H11 C9 1_555 1_555
C10 C1 1_555 1_555
C11 C10 1_555 1_555
C12 C11 1_555 1_555
H12 C12 1_555 1_555
C13 C12 1_555 1_555
H13 C13 1_555 1_555
C14 C13 1_555 1_555
C15 C14 1_555 1_555
H14 C15 1_555 1_555
C16 C11 1_555 1_555
H15 C16 1_555 1_555
C17 C18 1_555 1_555
C18 H16 1_555 1_555
C19 C18 1_555 1_555
H17 C19 1_555 1_555
C20 C19 1_555 1_555
C21 C20 1_555 1_555
H18 C21 1_555 1_555
C22 C17 1_555 1_555
H19 C22 1_555 1_555
C23 C20 1_555 1_555
H20 C23 1_555 1_555
H21 C23 1_555 1_555
H22 C23 1_555 1_555
C24 C4 1_555 1_555
H23 C24 1_555 1_555
H24 C24 1_555 1_555
H25 C24 1_555 1_555
C25 C4 1_555 1_555
H26 C25 1_555 1_555
H27 C25 1_555 1_555
H28 C25 1_555 1_555
N1 C14 1_555 1_555
O1 S1 1_555 1_555
O2 S1 1_555 1_555
O3 C10 1_555 1_555
H29 O3 1_555 1_555
O4 N1 1_555 1_555
O5 N1 1_555 1_555
S1 C1 1_555 1_555
C7 C8 1_555 1_555
C9 C10 1_555 1_555
C15 C16 1_555 1_555
C17 S1 1_555 1_555
C21 C22 1_555 1_555

#END
