
#######################################################################
#
#                 Cambridge Crystallographic Data Centre
#                                CCDC 
#
#######################################################################
#
# If this CIF has been generated from an entry in the Cambridge 
# Structural Database, then it will include bibliographic, chemical, 
# crystal, experimental, refinement or atomic coordinate data resulting 
# from the CCDC's data processing and validation procedures.
#
#######################################################################

data_OHOVOY
_chemical_formula_moiety         'C19 H19 F1 O1'
_chemical_name_systematic        
(4,4-dimethyl-1,2,3,4-tetrahydronaphthalen-1-yl)(4-fluorophenyl)methanone
_symmetry_cell_setting           orthorhombic
_symmetry_space_group_name_H-M   'P 21 21 21'
_symmetry_Int_Tables_number      19
_space_group_name_Hall           'P 2ac 2ab'
loop_
_symmetry_equiv_pos_site_id
_symmetry_equiv_pos_as_xyz
1 x,y,z
2 1/2+x,1/2-y,-z
3 -x,1/2+y,1/2-z
4 1/2-x,-y,1/2+z
_cell_length_a                   8.4903(10)
_cell_length_b                   9.6656(11)
_cell_length_c                   18.663(2)
_cell_angle_alpha                90
_cell_angle_beta                 90
_cell_angle_gamma                90
_cell_volume                     1531.56
_exptl_crystal_colour            colorless
_exptl_crystal_description       Tabullar
_cell_formula_units_Z            4
loop_
_atom_site_label
_atom_site_type_symbol
_atom_site_fract_x
_atom_site_fract_y
_atom_site_fract_z
F1 F 0.80527(15) 0.09340(15) 1.01058(7)
O1 O 0.33995(17) 0.23629(14) 0.76070(7)
C1 C -0.1079(3) 0.0554(3) 0.67040(14)
H1 H -0.0820 0.1506 0.6841
H2 H -0.1864 0.0181 0.7037
H3 H -0.1506 0.0546 0.6216
C2 C 0.0415(2) -0.0338(2) 0.67322(12)
C3 C 0.0956(2) -0.0425(2) 0.75158(12)
H4 H 0.0903 0.0508 0.7733
H5 H 0.0224 -0.1033 0.7784
C4 C 0.2622(2) -0.0982(2) 0.75927(11)
H6 H 0.2696 -0.1904 0.7364
H7 H 0.2884 -0.1086 0.8107
C5 C 0.3800(2) 0.0019(2) 0.72355(10)
H8 H 0.4829 -0.0475 0.7185
C6 C 0.4052(2) 0.1257(2) 0.77275(11)
C7 C 0.5087(2) 0.1103(2) 0.83690(10)
C8 C 0.6044(2) -0.0057(2) 0.84832(11)
H9 H 0.6009 -0.0809 0.8156
C9 C 0.7044(2) -0.0116(2) 0.90704(11)
H10 H 0.7695 -0.0900 0.9151
C10 C 0.7068(2) 0.0992(2) 0.95340(11)
C11 C 0.5135(3) 0.2187(2) 0.88645(11)
H11 H 0.4468 0.2966 0.8799
C12 C 0.6135(3) 0.2146(2) 0.94470(11)
H12 H 0.6179 0.2891 0.9778
C13 C 0.1706(2) 0.0275(2) 0.62583(11)
C14 C 0.3261(2) 0.04497(19) 0.64949(11)
C15 C 0.4386(2) 0.0988(2) 0.60262(11)
H13 H 0.5437 0.1109 0.6189
C16 C 0.4008(3) 0.1348(2) 0.53315(12)
H14 H 0.4790 0.1719 0.5022
C17 C 0.2484(3) 0.1164(2) 0.50902(12)
H15 H 0.2212 0.1400 0.4612
C18 C 0.1356(3) 0.0634(2) 0.55493(12)
H16 H 0.0312 0.0511 0.5378
C19 C 0.0011(3) -0.1797(2) 0.64570(13)
H17 H -0.0268 -0.1748 0.5948
H18 H -0.0881 -0.2167 0.6729
H19 H 0.0926 -0.2404 0.6518
loop_
_geom_bond_atom_site_label_1
_geom_bond_atom_site_label_2
_geom_bond_site_symmetry_1
_geom_bond_site_symmetry_2
F1 C10 1_555 1_555
O1 C6 1_555 1_555
C1 H1 1_555 1_555
H2 C1 1_555 1_555
H3 C1 1_555 1_555
C2 C1 1_555 1_555
C3 C2 1_555 1_555
H4 C3 1_555 1_555
H5 C3 1_555 1_555
C4 C3 1_555 1_555
H6 C4 1_555 1_555
H7 C4 1_555 1_555
C5 C4 1_555 1_555
H8 C5 1_555 1_555
C6 C5 1_555 1_555
C7 C6 1_555 1_555
C8 C7 1_555 1_555
H9 C8 1_555 1_555
C9 C8 1_555 1_555
H10 C9 1_555 1_555
C10 C9 1_555 1_555
C11 C7 1_555 1_555
H11 C11 1_555 1_555
C12 C10 1_555 1_555
H12 C12 1_555 1_555
C13 C2 1_555 1_555
C14 C5 1_555 1_555
C15 C14 1_555 1_555
H13 C15 1_555 1_555
C16 C15 1_555 1_555
H14 C16 1_555 1_555
C17 C16 1_555 1_555
H15 C17 1_555 1_555
C18 C13 1_555 1_555
H16 C18 1_555 1_555
C19 C2 1_555 1_555
H17 C19 1_555 1_555
H18 C19 1_555 1_555
H19 C19 1_555 1_555
C11 C12 1_555 1_555
C13 C14 1_555 1_555
C17 C18 1_555 1_555

#END
