
#######################################################################
#
#                 Cambridge Crystallographic Data Centre
#                                CCDC 
#
#######################################################################
#
# If this CIF has been generated from an entry in the Cambridge 
# Structural Database, then it will include bibliographic, chemical, 
# crystal, experimental, refinement or atomic coordinate data resulting 
# from the CCDC's data processing and validation procedures.
#
#######################################################################

data_OHOYAN02
_chemical_formula_moiety         'C8 H18 N2 2+,2(Cl1 O4 1-)'
_chemical_name_systematic        
'1,4-dimethyl-1,4-diazoniabicyclo[2.2.2]octane diperchlorate'
_symmetry_cell_setting           monoclinic
_symmetry_space_group_name_H-M   'P 21/n'
_symmetry_Int_Tables_number      14
_space_group_name_Hall           '-P 2yn'
loop_
_symmetry_equiv_pos_site_id
_symmetry_equiv_pos_as_xyz
1 x,y,z
2 1/2-x,1/2+y,1/2-z
3 -x,-y,-z
4 1/2+x,1/2-y,1/2+z
_cell_length_a                   13.365(3)
_cell_length_b                   15.240(3)
_cell_length_c                   20.431(4)
_cell_angle_alpha                90
_cell_angle_beta                 90.719(2)
_cell_angle_gamma                90
_cell_volume                     4161.11
_cell_formula_units_Z            12
loop_
_atom_site_label
_atom_site_type_symbol
_atom_site_fract_x
_atom_site_fract_y
_atom_site_fract_z
C1 C 0.0428(4) 0.7499(4) 0.2497(3)
H1 H 0.0060 0.7490 0.2091
H2 H 0.0289 0.8035 0.2726
H3 H 0.0233 0.7008 0.2761
C2 C 0.4491(4) 0.7357(4) 0.2023(4)
H4 H 0.4811 0.7867 0.2206
H5 H 0.4603 0.7338 0.1560
H6 H 0.4766 0.6839 0.2224
C3 C 0.1851(4) 0.8258(3) 0.2002(3)
H7 H 0.1404 0.8368 0.1634
H8 H 0.1828 0.8761 0.2292
C4 C 0.2905(4) 0.8128(3) 0.1761(3)
H9 H 0.2891 0.7981 0.1299
H10 H 0.3285 0.8666 0.1817
C5 C 0.2112(4) 0.7381(3) 0.2995(3)
H11 H 0.2027 0.6803 0.3186
H12 H 0.1874 0.7814 0.3304
C6 C 0.3210(4) 0.7540(3) 0.2855(3)
H13 H 0.3389 0.8136 0.2975
H14 H 0.3620 0.7141 0.3113
C7 C 0.1767(4) 0.6655(3) 0.1955(2)
H15 H 0.1495 0.6727 0.1516
H16 H 0.1473 0.6134 0.2146
C8 C 0.2897(4) 0.6555(3) 0.1929(3)
H17 H 0.3110 0.6078 0.2212
H18 H 0.3095 0.6415 0.1485
N1 N 0.1519(3) 0.7444(2) 0.2363(2)
N2 N 0.3394(3) 0.7398(3) 0.2146(2)
C9 C 0.5514(4) 0.5124(4) 0.1133(3)
H19 H 0.5280 0.5085 0.0688
H20 H 0.5321 0.5680 0.1314
H21 H 0.5223 0.4659 0.1385
C10 C 0.9631(4) 0.4829(5) 0.1193(3)
H22 H 0.9861 0.4669 0.0766
H23 H 0.9822 0.4384 0.1502
H24 H 0.9924 0.5379 0.1320
C11 C 0.7092(4) 0.5786(4) 0.0784(3)
H25 H 0.6789 0.5830 0.0352
H26 H 0.6977 0.6335 0.1013
C12 C 0.8196(4) 0.5628(5) 0.0726(3)
H27 H 0.8349 0.5467 0.0279
H28 H 0.8557 0.6162 0.0831
C13 C 0.6943(4) 0.4193(3) 0.0849(3)
H29 H 0.6585 0.3709 0.1048
H30 H 0.6782 0.4198 0.0385
C14 C 0.8042(4) 0.4066(4) 0.0946(4)
H31 H 0.8340 0.3884 0.0537
H32 H 0.8162 0.3609 0.1268
C15 C 0.7022(4) 0.5064(3) 0.1842(2)
H33 H 0.6803 0.4544 0.2074
H34 H 0.6762 0.5574 0.2067
C16 C 0.8146(4) 0.5099(3) 0.1845(2)
H35 H 0.8369 0.5675 0.1986
H36 H 0.8412 0.4668 0.2151
N3 N 0.6621(3) 0.5044(2) 0.11542(19)
N4 N 0.8521(3) 0.4914(3) 0.1177(2)
C17 C 0.7656(5) 0.8087(3) -0.0216(3)
H37 H 0.8185 0.7757 -0.0012
H38 H 0.7784 0.8145 -0.0676
H39 H 0.7031 0.7788 -0.0157
C18 C 0.7518(4) 1.1416(3) 0.0892(2)
H40 H 0.8073 1.1483 0.1191
H41 H 0.6903 1.1489 0.1124
H42 H 0.7559 1.1851 0.0554
C19 C 0.8602(6) 0.9442(4) 0.0012(4)
H43 H 0.8827 0.9386 -0.0435
H44 H 0.9100 0.9176 0.0300
C20 C 0.8466(4) 1.0412(3) 0.0188(3)
H45 H 0.9047 1.0620 0.0431
H46 H 0.8402 1.0758 -0.0209
C21 C 0.7484(6) 0.8923(3) 0.0799(2)
H47 H 0.7994 0.8537 0.0980
H48 H 0.6835 0.8672 0.0894
C22 C 0.7571(4) 0.9823(3) 0.1115(2)
H49 H 0.7022 0.9912 0.1414
H50 H 0.8194 0.9863 0.1363
C23 C 0.6827(6) 0.9518(4) -0.0236(4)
H51 H 0.6211 0.9183 -0.0271
H52 H 0.7038 0.9669 -0.0674
C24 C 0.6643(4) 1.0365(3) 0.0162(3)
H53 H 0.6543 1.0859 -0.0131
H54 H 0.6050 1.0301 0.0427
N5 N 0.7546(3) 1.0518(2) 0.05925(17)
N6 N 0.7603(3) 0.8988(2) 0.00911(18)
Cl1 Cl 0.47529(8) 0.00312(7) 0.17245(6)
O1 O 0.4810(4) -0.0543(3) 0.2276(2)
O2 O 0.4859(3) -0.0463(3) 0.1135(2)
O3 O 0.5534(3) 0.0675(3) 0.1786(2)
O4 O 0.3800(3) 0.0443(3) 0.1717(3)
Cl2 Cl 0.04182(9) 0.02154(8) 0.17063(6)
O5 O 0.1468(3) 0.0369(3) 0.1715(3)
O6 O 0.0194(3) -0.0419(3) 0.1212(2)
O7 O 0.0142(5) -0.0093(4) 0.2324(3)
O8 O -0.0099(4) 0.1011(3) 0.1552(3)
Cl3 Cl 0.04131(9) 0.73068(8) 0.02914(6)
O9 O 0.0359(5) 0.6398(3) 0.0177(4)
O10 O 0.1419(3) 0.7543(3) 0.0462(2)
O11 O 0.0146(4) 0.7740(5) -0.0294(3)
O12 O -0.0247(3) 0.7498(3) 0.0811(2)
Cl4 Cl 0.51510(10) 0.26702(8) 0.99454(7)
O13 O 0.4946(4) 0.3518(3) 1.0190(3)
O14 O 0.6152(3) 0.2653(3) 0.9717(3)
O15 O 0.5035(4) 0.2012(4) 1.0418(3)
O16 O 0.4459(4) 0.2513(3) 0.9403(2)
Cl5 Cl 0.25532(11) 0.45195(7) 0.10968(6)
O17 O 0.2255(4) 0.3734(2) 0.07706(19)
O18 O 0.3446(5) 0.4289(5) 0.1517(4)
O19 O 0.1857(7) 0.4728(6) 0.1579(5)
O20 O 0.2906(9) 0.5185(5) 0.0688(3)
Cl6 Cl 0.75088(9) 0.76363(7) 0.23791(5)
O24 O 0.8095(4) 0.7322(3) 0.1833(2)
O25 O 0.8184(4) 0.7774(3) 0.2932(2)
O26 O 0.6792(4) 0.6991(3) 0.2548(3)
O27 O 0.7048(4) 0.8445(3) 0.2200(2)
O21? O 0.2430(17) 0.4572(9) 0.1734(7)
O22? O 0.1834(11) 0.5203(8) 0.0770(6)
O23? O 0.3411(13) 0.4764(15) 0.0865(11)
O28? O 0.6811(15) 0.7389(15) 0.1822(10)
O29? O 0.6759(18) 0.7792(14) 0.2924(11)
O30? O 0.7936(17) 0.8469(14) 0.2243(10)
O31? O 0.8079(17) 0.6966(16) 0.2552(13)
loop_
_geom_bond_atom_site_label_1
_geom_bond_atom_site_label_2
_geom_bond_site_symmetry_1
_geom_bond_site_symmetry_2
C1 H1 1_555 1_555
H2 C1 1_555 1_555
H3 C1 1_555 1_555
C2 H4 1_555 1_555
H5 C2 1_555 1_555
H6 C2 1_555 1_555
C3 H7 1_555 1_555
H8 C3 1_555 1_555
C4 C3 1_555 1_555
H9 C4 1_555 1_555
H10 C4 1_555 1_555
C5 H11 1_555 1_555
H12 C5 1_555 1_555
C6 C5 1_555 1_555
H13 C6 1_555 1_555
H14 C6 1_555 1_555
C7 H15 1_555 1_555
H16 C7 1_555 1_555
C8 C7 1_555 1_555
H17 C8 1_555 1_555
H18 C8 1_555 1_555
N1 C1 1_555 1_555
N2 C2 1_555 1_555
C9 H19 1_555 1_555
H20 C9 1_555 1_555
H21 C9 1_555 1_555
C10 H22 1_555 1_555
H23 C10 1_555 1_555
H24 C10 1_555 1_555
C11 H25 1_555 1_555
H26 C11 1_555 1_555
C12 C11 1_555 1_555
H27 C12 1_555 1_555
H28 C12 1_555 1_555
C13 H29 1_555 1_555
H30 C13 1_555 1_555
C14 C13 1_555 1_555
H31 C14 1_555 1_555
H32 C14 1_555 1_555
C15 H33 1_555 1_555
H34 C15 1_555 1_555
C16 C15 1_555 1_555
H35 C16 1_555 1_555
H36 C16 1_555 1_555
N3 C9 1_555 1_555
N4 C10 1_555 1_555
C17 H37 1_555 1_555
H38 C17 1_555 1_555
H39 C17 1_555 1_555
C18 H40 1_555 1_555
H41 C18 1_555 1_555
H42 C18 1_555 1_555
C19 H43 1_555 1_555
H44 C19 1_555 1_555
C20 C19 1_555 1_555
H45 C20 1_555 1_555
H46 C20 1_555 1_555
C21 H47 1_555 1_555
H48 C21 1_555 1_555
C22 C21 1_555 1_555
H49 C22 1_555 1_555
H50 C22 1_555 1_555
C23 H51 1_555 1_555
H52 C23 1_555 1_555
C24 C23 1_555 1_555
H53 C24 1_555 1_555
H54 C24 1_555 1_555
N5 C18 1_555 1_555
N6 C17 1_555 1_555
Cl1 O1 1_555 1_555
O2 Cl1 1_555 1_555
O3 Cl1 1_555 1_555
O4 Cl1 1_555 1_555
Cl2 O5 1_555 1_555
O6 Cl2 1_555 1_555
O7 Cl2 1_555 1_555
O8 Cl2 1_555 1_555
Cl3 O9 1_555 1_555
O10 Cl3 1_555 1_555
O11 Cl3 1_555 1_555
O12 Cl3 1_555 1_555
Cl4 O13 1_555 1_555
O14 Cl4 1_555 1_555
O15 Cl4 1_555 1_555
O16 Cl4 1_555 1_555
Cl5 O17 1_555 1_555
O18 Cl5 1_555 1_555
O19 Cl5 1_555 1_555
O20 Cl5 1_555 1_555
Cl6 O24 1_555 1_555
O25 Cl6 1_555 1_555
O26 Cl6 1_555 1_555
O27 Cl6 1_555 1_555
C3 N1 1_555 1_555
C4 N2 1_555 1_555
C5 N1 1_555 1_555
C6 N2 1_555 1_555
C7 N1 1_555 1_555
C8 N2 1_555 1_555
C11 N3 1_555 1_555
C12 N4 1_555 1_555
C13 N3 1_555 1_555
C14 N4 1_555 1_555
C15 N3 1_555 1_555
C16 N4 1_555 1_555
C19 N6 1_555 1_555
C20 N5 1_555 1_555
C21 N6 1_555 1_555
C22 N5 1_555 1_555
C23 N6 1_555 1_555
C24 N5 1_555 1_555

#END
