
#######################################################################
#
#                 Cambridge Crystallographic Data Centre
#                                CCDC 
#
#######################################################################
#
# If this CIF has been generated from an entry in the Cambridge 
# Structural Database, then it will include bibliographic, chemical, 
# crystal, experimental, refinement or atomic coordinate data resulting 
# from the CCDC's data processing and validation procedures.
#
#######################################################################

data_OHUBUQ
_chemical_formula_moiety         'C15 H18 O2'
_chemical_name_systematic        '(2-ethylcyclopentylidene)(phenyl)acetic acid'
_symmetry_cell_setting           monoclinic
_symmetry_space_group_name_H-M   'P 21/n'
_symmetry_Int_Tables_number      14
_space_group_name_Hall           '-P 2yn'
loop_
_symmetry_equiv_pos_site_id
_symmetry_equiv_pos_as_xyz
1 x,y,z
2 1/2-x,1/2+y,1/2-z
3 -x,-y,-z
4 1/2+x,1/2-y,1/2+z
_cell_length_a                   14.6838(19)
_cell_length_b                   5.5897(7)
_cell_length_c                   16.502(2)
_cell_angle_alpha                90
_cell_angle_beta                 106.256(3)
_cell_angle_gamma                90
_cell_volume                     1300.3
_exptl_crystal_colour            colorless
_exptl_crystal_description       plate
_cell_formula_units_Z            4
loop_
_atom_site_label
_atom_site_type_symbol
_atom_site_fract_x
_atom_site_fract_y
_atom_site_fract_z
C1 C 0.09034(5) 0.24750(14) 1.00031(5)
C2 C 0.16719(5) 0.41877(13) 1.00124(5)
C3 C 0.16698(5) 0.54729(13) 0.93187(5)
C4 C 0.09159(5) 0.55314(16) 0.84746(5)
H1 H 0.0308 0.6143 0.8542
H2 H 0.0810 0.3911 0.8223
C5 C 0.13067(6) 0.72234(17) 0.79170(6)
H3 H 0.1643 0.6317 0.7573
H4 H 0.0790 0.8163 0.7536
C6 C 0.19919(7) 0.88550(16) 0.85505(6)
H5 H 0.1646 1.0157 0.8744
H6 H 0.2468 0.9566 0.8299
C7 C 0.24661(6) 0.71628(15) 0.92833(5)
H7 H 0.2682 0.8086 0.9822
C8 C 0.33043(6) 0.5762(2) 0.91260(7)
H8 H 0.3461 0.4397 0.9523
H9 H 0.3115 0.5110 0.8545
C9 C 0.41799(9) 0.7327(4) 0.92394(13)
H10 H 0.4033 0.8651 0.8834
H11 H 0.4698 0.6368 0.9142
H12 H 0.4372 0.7968 0.9815
C10 C 0.24508(5) 0.43496(13) 1.08183(5)
C11 C 0.24912(6) 0.62359(15) 1.13807(5)
H13 H 0.2027 0.7467 1.1244
C12 C 0.32076(7) 0.63294(16) 1.21421(5)
H14 H 0.3229 0.7619 1.2522
C13 C 0.38884(6) 0.45427(17) 1.23448(5)
H15 H 0.4379 0.4614 1.2861
C14 C 0.38525(6) 0.26503(16) 1.17924(6)
H16 H 0.4316 0.1418 1.1933
C15 C 0.31389(6) 0.25581(15) 1.10340(5)
H17 H 0.3119 0.1260 1.0658
O1 O 0.02091(5) 0.21702(15) 0.93792(4)
O2 O 0.10107(4) 0.12825(13) 1.07014(4)
H18 H 0.0574 0.0269 1.0636
loop_
_geom_bond_atom_site_label_1
_geom_bond_atom_site_label_2
_geom_bond_site_symmetry_1
_geom_bond_site_symmetry_2
C1 C2 1_555 1_555
C2 C3 1_555 1_555
C3 C4 1_555 1_555
C4 H1 1_555 1_555
H2 C4 1_555 1_555
C5 C4 1_555 1_555
H3 C5 1_555 1_555
H4 C5 1_555 1_555
C6 C5 1_555 1_555
H5 C6 1_555 1_555
H6 C6 1_555 1_555
C7 C3 1_555 1_555
H7 C7 1_555 1_555
C8 C7 1_555 1_555
H8 C8 1_555 1_555
H9 C8 1_555 1_555
C9 C8 1_555 1_555
H10 C9 1_555 1_555
H11 C9 1_555 1_555
H12 C9 1_555 1_555
C10 C2 1_555 1_555
C11 C10 1_555 1_555
H13 C11 1_555 1_555
C12 C11 1_555 1_555
H14 C12 1_555 1_555
C13 C12 1_555 1_555
H15 C13 1_555 1_555
C14 C13 1_555 1_555
H16 C14 1_555 1_555
C15 C10 1_555 1_555
H17 C15 1_555 1_555
O1 C1 1_555 1_555
O2 C1 1_555 1_555
H18 O2 1_555 1_555
C6 C7 1_555 1_555
C14 C15 1_555 1_555

#END
