
#######################################################################
#
#                 Cambridge Crystallographic Data Centre
#                                CCDC 
#
#######################################################################
#
# If this CIF has been generated from an entry in the Cambridge 
# Structural Database, then it will include bibliographic, chemical, 
# crystal, experimental, refinement or atomic coordinate data resulting 
# from the CCDC's data processing and validation procedures.
#
#######################################################################

data_OHUHIK
_chemical_formula_moiety         'C31 H30 N4 O3 S1'
_chemical_name_systematic        
3-Amino-N,3-bis(4-methylphenyl)-2-(N'-((4-methylphenyl)sulfonyl)-N-phenylcarbamimidoyl)acrylamide
_symmetry_cell_setting           triclinic
_symmetry_space_group_name_H-M   'P -1'
_symmetry_Int_Tables_number      2
_space_group_name_Hall           '-P 1'
loop_
_symmetry_equiv_pos_site_id
_symmetry_equiv_pos_as_xyz
1 x,y,z
2 -x,-y,-z
_cell_length_a                   10.0980(8)
_cell_length_b                   10.4098(8)
_cell_length_c                   14.2493(13)
_cell_angle_alpha                81.816(7)
_cell_angle_beta                 71.450(7)
_cell_angle_gamma                80.408(6)
_cell_volume                     1393.78
_exptl_crystal_colour            colorless
_exptl_crystal_description       block
_cell_formula_units_Z            2
loop_
_atom_site_label
_atom_site_type_symbol
_atom_site_fract_x
_atom_site_fract_y
_atom_site_fract_z
S1 S 0.19640(6) -0.01347(6) 0.08918(4)
O1 O -0.0865(2) 0.22567(19) 0.45500(13)
O2 O 0.32948(16) -0.08742(17) 0.08631(12)
O3 O 0.11111(17) -0.06385(17) 0.04210(11)
N1 N 0.0668(2) 0.24375(19) 0.30131(14)
H1 H 0.0990 0.2096 0.2456
N2 N -0.2302(3) 0.0284(2) 0.51297(14)
H2 H -0.2123 0.0986 0.5293
H3 H -0.2873 -0.0193 0.5560
N3 N 0.11532(19) 0.00962(18) 0.20517(13)
N4 N -0.11565(19) 0.02646(19) 0.19494(13)
H4 H -0.0794 -0.0019 0.1372
C1 C 0.1818(3) 0.4301(3) 0.21759(18)
H5 H 0.1785 0.4055 0.1582
C2 C 0.2439(3) 0.5381(3) 0.21617(18)
H6 H 0.2822 0.5852 0.1556
C3 C 0.2511(3) 0.5789(2) 0.30233(19)
C4 C 0.1916(3) 0.5060(2) 0.39035(18)
H7 H 0.1932 0.5320 0.4497
C5 C 0.1302(3) 0.3962(2) 0.39349(18)
H8 H 0.0930 0.3484 0.4540
C6 C 0.1239(2) 0.3571(2) 0.30611(16)
C7 C 0.3190(3) 0.6980(3) 0.3012(2)
H9 H 0.4110 0.6921 0.2534
H10 H 0.3271 0.7023 0.3660
H11 H 0.2621 0.7753 0.2836
C8 C -0.0323(3) 0.1821(2) 0.37341(17)
C9 C -0.0764(2) 0.0669(2) 0.34819(15)
C10 C -0.1692(2) -0.0065(2) 0.42053(16)
C11 C -0.2083(3) -0.1304(2) 0.40318(15)
C12 C -0.1075(3) -0.2251(2) 0.35215(17)
H12 H -0.0138 -0.2104 0.3263
C13 C -0.1465(3) -0.3407(3) 0.33994(19)
H13 H -0.0780 -0.4027 0.3052
C14 C -0.2842(3) -0.3675(3) 0.37754(19)
C15 C -0.3836(3) -0.2729(3) 0.4285(2)
H14 H -0.4771 -0.2881 0.4546
C16 C -0.3465(3) -0.1571(2) 0.44112(17)
H15 H -0.4153 -0.0952 0.4758
C17 C -0.3242(4) -0.4960(3) 0.3653(3)
H16 H -0.3431 -0.5492 0.4278
H17 H -0.2481 -0.5406 0.3166
H18 H -0.4069 -0.4799 0.3438
C18 C -0.0241(2) 0.0322(2) 0.24407(15)
C19 C 0.2258(2) 0.1456(2) 0.03322(15)
C20 C 0.3536(3) 0.1870(3) 0.01982(17)
H19 H 0.4244 0.1310 0.0390
C21 C 0.3758(4) 0.3125(3) -0.0224(2)
H20 H 0.4624 0.3401 -0.0315
C22 C 0.2728(4) 0.3981(3) -0.05134(19)
C23 C 0.1473(4) 0.3526(3) -0.0402(2)
H21 H 0.0783 0.4076 -0.0620
C24 C 0.1209(3) 0.2272(3) 0.00258(19)
H22 H 0.0351 0.1987 0.0104
C25 C 0.2960(5) 0.5382(4) -0.0924(3)
H23 H 0.2900 0.5880 -0.0391
H24 H 0.2251 0.5762 -0.1234
H25 H 0.3875 0.5388 -0.1405
C26 C -0.2649(2) 0.0608(2) 0.22476(14)
C27 C -0.3449(3) -0.0219(3) 0.20546(16)
H26 H -0.3019 -0.1001 0.1783
C28 C -0.4891(3) 0.0119(3) 0.22663(18)
H27 H -0.5430 -0.0430 0.2128
C29 C -0.5527(3) 0.1265(3) 0.26805(19)
H28 H -0.6496 0.1494 0.2822
C30 C -0.4726(3) 0.2074(3) 0.2885(2)
H29 H -0.5160 0.2843 0.3175
C31 C -0.3286(3) 0.1754(2) 0.26645(18)
H30 H -0.2749 0.2310 0.2797
loop_
_geom_bond_atom_site_label_1
_geom_bond_atom_site_label_2
_geom_bond_site_symmetry_1
_geom_bond_site_symmetry_2
S1 O2 1_555 1_555
O1 C8 1_555 1_555
O3 S1 1_555 1_555
N1 H1 1_555 1_555
N2 H2 1_555 1_555
H3 N2 1_555 1_555
N3 S1 1_555 1_555
N4 H4 1_555 1_555
C1 H5 1_555 1_555
C2 C1 1_555 1_555
H6 C2 1_555 1_555
C3 C2 1_555 1_555
C4 C3 1_555 1_555
H7 C4 1_555 1_555
C5 C4 1_555 1_555
H8 C5 1_555 1_555
C6 N1 1_555 1_555
C7 C3 1_555 1_555
H9 C7 1_555 1_555
H10 C7 1_555 1_555
H11 C7 1_555 1_555
C8 N1 1_555 1_555
C9 C8 1_555 1_555
C10 N2 1_555 1_555
C11 C10 1_555 1_555
C12 C11 1_555 1_555
H12 C12 1_555 1_555
C13 C12 1_555 1_555
H13 C13 1_555 1_555
C14 C13 1_555 1_555
C15 C14 1_555 1_555
H14 C15 1_555 1_555
C16 C11 1_555 1_555
H15 C16 1_555 1_555
C17 C14 1_555 1_555
H16 C17 1_555 1_555
H17 C17 1_555 1_555
H18 C17 1_555 1_555
C18 N3 1_555 1_555
C19 S1 1_555 1_555
C20 C19 1_555 1_555
H19 C20 1_555 1_555
C21 C20 1_555 1_555
H20 C21 1_555 1_555
C22 C21 1_555 1_555
C23 C22 1_555 1_555
H21 C23 1_555 1_555
C24 C19 1_555 1_555
H22 C24 1_555 1_555
C25 C22 1_555 1_555
H23 C25 1_555 1_555
H24 C25 1_555 1_555
H25 C25 1_555 1_555
C26 N4 1_555 1_555
C27 C26 1_555 1_555
H26 C27 1_555 1_555
C28 C27 1_555 1_555
H27 C28 1_555 1_555
C29 C28 1_555 1_555
H28 C29 1_555 1_555
C30 C29 1_555 1_555
H29 C30 1_555 1_555
C31 C26 1_555 1_555
H30 C31 1_555 1_555
N4 C18 1_555 1_555
C1 C6 1_555 1_555
C5 C6 1_555 1_555
C9 C10 1_555 1_555
C9 C18 1_555 1_555
C15 C16 1_555 1_555
C23 C24 1_555 1_555
C30 C31 1_555 1_555

#END
