
#######################################################################
#
#                 Cambridge Crystallographic Data Centre
#                                CCDC 
#
#######################################################################
#
# If this CIF has been generated from an entry in the Cambridge 
# Structural Database, then it will include bibliographic, chemical, 
# crystal, experimental, refinement or atomic coordinate data resulting 
# from the CCDC's data processing and validation procedures.
#
#######################################################################

data_OHUHEG
_chemical_formula_moiety         'C30 H27 Br1 N4 O3 S1'
_chemical_name_systematic        
3-Amino-2-(N-(2-bromophenyl)-N'-((4-methylphenyl)sulfonyl)carbamimidoyl)-N-(4-methylphenyl)-3-phenylacrylamide
_symmetry_cell_setting           triclinic
_symmetry_space_group_name_H-M   'P -1'
_symmetry_Int_Tables_number      2
_space_group_name_Hall           '-P 1'
loop_
_symmetry_equiv_pos_site_id
_symmetry_equiv_pos_as_xyz
1 x,y,z
2 -x,-y,-z
_cell_length_a                   9.6424(6)
_cell_length_b                   10.3792(9)
_cell_length_c                   15.5817(10)
_cell_angle_alpha                101.835(6)
_cell_angle_beta                 99.157(6)
_cell_angle_gamma                110.433(7)
_cell_volume                     1384.24
_exptl_crystal_colour            colorless
_exptl_crystal_description       block
_cell_formula_units_Z            2
loop_
_atom_site_label
_atom_site_type_symbol
_atom_site_fract_x
_atom_site_fract_y
_atom_site_fract_z
Br1 Br 0.81664(5) 1.11508(5) 1.03999(2)
S1 S 0.67808(8) 0.64278(7) 0.81613(4)
O1 O 0.8113(2) 0.6121(2) 0.81852(15)
O2 O 0.6481(3) 0.6931(2) 0.90192(13)
O3 O 0.4743(3) 0.8941(2) 0.55185(14)
N1 N 0.6795(3) 0.7463(2) 0.75078(14)
N2 N 0.6339(3) 0.9213(2) 0.84970(14)
H1 H 0.6525 0.8832 0.8919
N3 N 0.7093(4) 1.1296(3) 0.63569(18)
H2 H 0.772(3) 1.212(3) 0.6405(19)
H3 H 0.628(4) 1.087(4) 0.587(3)
N4 N 0.4340(3) 0.6988(3) 0.60053(16)
H4 H 0.471(3) 0.660(3) 0.6313(19)
C1 C 0.1299(6) 0.1121(5) 0.5951(3)
H5 H 0.1640 0.0476 0.5595
H6 H 0.0633 0.1377 0.5556
H7 H 0.0757 0.0662 0.6343
C2 C 0.2658(4) 0.2448(4) 0.6511(3)
C3 C 0.4095(4) 0.2663(4) 0.6361(2)
H8 H 0.4206 0.1980 0.5919
C4 C 0.5358(4) 0.3876(3) 0.6861(2)
H9 H 0.6314 0.4020 0.6753
C5 C 0.5186(3) 0.4870(3) 0.75222(18)
C6 C 0.3757(3) 0.4673(3) 0.7675(2)
H10 H 0.3642 0.5351 0.8119
C7 C 0.2516(4) 0.3462(4) 0.7163(3)
H11 H 0.1556 0.3329 0.7262
C8 C 0.6500(3) 0.8623(3) 0.76908(16)
C9 C 0.5905(3) 1.0379(3) 0.87521(18)
C10 C 0.4748(4) 1.0549(4) 0.8205(2)
H12 H 0.4224 0.9885 0.7643
C11 C 0.4364(5) 1.1696(5) 0.8484(3)
H13 H 0.3602 1.1819 0.8103
C12 C 0.5096(6) 1.2653(5) 0.9316(4)
H14 H 0.4836 1.3431 0.9497
C13 C 0.6195(5) 1.2483(4) 0.9882(3)
H15 H 0.6667 1.3126 1.0456
C14 C 0.6618(4) 1.1342(3) 0.9603(2)
C15 C 0.6336(3) 0.9262(3) 0.69304(16)
C16 C 0.7266(3) 1.0655(3) 0.70070(17)
C17 C 0.8563(3) 1.1582(3) 0.78073(17)
C18 C 0.8770(3) 1.2997(3) 0.81567(19)
H16 H 0.8086 1.3342 0.7898
C19 C 0.9983(4) 1.3900(3) 0.8886(2)
H17 H 1.0108 1.4845 0.9116
C20 C 1.0997(4) 1.3407(4) 0.9268(2)
H18 H 1.1812 1.4016 0.9759
C21 C 1.0816(3) 1.2013(4) 0.8929(2)
H19 H 1.1506 1.1678 0.9193
C22 C 0.9611(3) 1.1101(3) 0.8195(2)
H20 H 0.9506 1.0163 0.7962
C23 C 0.5111(3) 0.8404(3) 0.61031(17)
C24 C 0.3101(3) 0.6032(3) 0.52659(17)
C25 C 0.2974(4) 0.4648(3) 0.4945(2)
H21 H 0.3704 0.4357 0.5209
C26 C 0.1767(4) 0.3692(4) 0.4233(2)
H22 H 0.1706 0.2763 0.4023
C27 C 0.0653(4) 0.4065(4) 0.3825(2)
C28 C 0.0792(4) 0.5447(4) 0.4160(2)
H23 H 0.0058 0.5733 0.3896
C29 C 0.1983(3) 0.6429(3) 0.4877(2)
H24 H 0.2030 0.7351 0.5095
C30 C -0.0672(4) 0.3007(5) 0.3042(3)
H25 H -0.0680 0.3379 0.2526
H26 H -0.1616 0.2862 0.3214
H27 H -0.0560 0.2111 0.2889
loop_
_geom_bond_atom_site_label_1
_geom_bond_atom_site_label_2
_geom_bond_site_symmetry_1
_geom_bond_site_symmetry_2
Br1 C14 1_555 1_555
S1 O1 1_555 1_555
O2 S1 1_555 1_555
O3 C23 1_555 1_555
N1 S1 1_555 1_555
N2 H1 1_555 1_555
N3 H2 1_555 1_555
H3 N3 1_555 1_555
N4 H4 1_555 1_555
C1 H5 1_555 1_555
H6 C1 1_555 1_555
H7 C1 1_555 1_555
C2 C1 1_555 1_555
C3 C2 1_555 1_555
H8 C3 1_555 1_555
C4 C3 1_555 1_555
H9 C4 1_555 1_555
C5 S1 1_555 1_555
C6 C5 1_555 1_555
H10 C6 1_555 1_555
C7 C2 1_555 1_555
H11 C7 1_555 1_555
C8 N1 1_555 1_555
C9 N2 1_555 1_555
C10 C9 1_555 1_555
H12 C10 1_555 1_555
C11 C10 1_555 1_555
H13 C11 1_555 1_555
C12 C11 1_555 1_555
H14 C12 1_555 1_555
C13 C12 1_555 1_555
H15 C13 1_555 1_555
C14 C9 1_555 1_555
C15 C8 1_555 1_555
C16 N3 1_555 1_555
C17 C16 1_555 1_555
C18 C17 1_555 1_555
H16 C18 1_555 1_555
C19 C18 1_555 1_555
H17 C19 1_555 1_555
C20 C19 1_555 1_555
H18 C20 1_555 1_555
C21 C20 1_555 1_555
H19 C21 1_555 1_555
C22 C17 1_555 1_555
H20 C22 1_555 1_555
C23 N4 1_555 1_555
C24 N4 1_555 1_555
C25 C24 1_555 1_555
H21 C25 1_555 1_555
C26 C25 1_555 1_555
H22 C26 1_555 1_555
C27 C26 1_555 1_555
C28 C27 1_555 1_555
H23 C28 1_555 1_555
C29 C24 1_555 1_555
H24 C29 1_555 1_555
C30 C27 1_555 1_555
H25 C30 1_555 1_555
H26 C30 1_555 1_555
H27 C30 1_555 1_555
N2 C8 1_555 1_555
C4 C5 1_555 1_555
C6 C7 1_555 1_555
C13 C14 1_555 1_555
C15 C16 1_555 1_555
C15 C23 1_555 1_555
C21 C22 1_555 1_555
C28 C29 1_555 1_555

#END
