
#######################################################################
#
#                 Cambridge Crystallographic Data Centre
#                                CCDC 
#
#######################################################################
#
# If this CIF has been generated from an entry in the Cambridge 
# Structural Database, then it will include bibliographic, chemical, 
# crystal, experimental, refinement or atomic coordinate data resulting 
# from the CCDC's data processing and validation procedures.
#
#######################################################################

data_OHUJEI
_chemical_formula_moiety         'C20 H17 N1 O3'
_chemical_name_systematic        
'Ethyl 2-benzoyl-6-methylquinoline-4-carboxylate'
_symmetry_cell_setting           monoclinic
_symmetry_space_group_name_H-M   'C 2/c'
_symmetry_Int_Tables_number      15
_space_group_name_Hall           '-C 2yn'
loop_
_symmetry_equiv_pos_site_id
_symmetry_equiv_pos_as_xyz
1 x,y,z
2 -x,y,1/2-z
3 1/2+x,1/2+y,z
4 1/2-x,1/2+y,1/2-z
5 -x,-y,-z
6 x,-y,1/2+z
7 1/2-x,1/2-y,-z
8 1/2+x,1/2-y,1/2+z
_cell_length_a                   24.205(16)
_cell_length_b                   10.180(6)
_cell_length_c                   14.216(8)
_cell_angle_alpha                90
_cell_angle_beta                 107.461(14)
_cell_angle_gamma                90
_cell_volume                     3341.51
_exptl_crystal_colour            colorless
_exptl_crystal_description       block
_cell_formula_units_Z            8
loop_
_atom_site_label
_atom_site_type_symbol
_atom_site_fract_x
_atom_site_fract_y
_atom_site_fract_z
C1 C -0.0507(3) 1.4048(5) 0.0998(5)
H1 H -0.0453 1.4520 0.0447
H2 H -0.0385 1.4587 0.1578
H3 H -0.0908 1.3827 0.0866
C2 C -0.0152(2) 1.2816(4) 0.1160(3)
C3 C -0.0412(2) 1.1596(4) 0.1065(3)
H4 H -0.0814 1.1554 0.0898
C4 C -0.00961(16) 1.0415(4) 0.1212(3)
C5 C 0.05183(17) 1.0520(4) 0.1477(3)
C6 C 0.0775(2) 1.1763(4) 0.1564(3)
H5 H 0.1176 1.1830 0.1730
C7 C 0.0449(2) 1.2876(4) 0.1411(3)
H6 H 0.0631 1.3690 0.1475
C8 C 0.06411(17) 0.8270(4) 0.1555(3)
C9 C 0.00430(17) 0.8080(4) 0.1288(3)
H7 H -0.0105 0.7231 0.1227
C10 C -0.03300(16) 0.9128(4) 0.1114(3)
C11 C 0.10365(19) 0.7110(5) 0.1767(3)
C12 C 0.16407(18) 0.7141(4) 0.1716(3)
C13 C 0.2019(2) 0.6142(5) 0.2158(4)
H8 H 0.1896 0.5494 0.2511
C14 C 0.2574(3) 0.6090(7) 0.2087(4)
H9 H 0.2825 0.5425 0.2404
C15 C 0.2754(2) 0.7001(7) 0.1559(4)
H10 H 0.3127 0.6955 0.1506
C16 C 0.2391(2) 0.8000(6) 0.1097(4)
H11 H 0.2518 0.8622 0.0729
C17 C 0.18264(19) 0.8082(5) 0.1178(3)
C18 C -0.0968(2) 0.8875(6) 0.0810(3)
C19 C -0.1708(2) 0.7351(8) 0.0389(7)
H12 H -0.1848 0.7349 0.0961
H13 H -0.1914 0.8030 -0.0058
C20 C -0.1818(3) 0.6118(9) -0.0085(8)
H14 H -0.1722 0.6155 -0.0693
H15 H -0.2220 0.5902 -0.0220
H16 H -0.1586 0.5459 0.0336
O1 O -0.10933(13) 0.7631(4) 0.0694(3)
N1 N 0.08801(14) 0.9452(3) 0.1645(2)
O2 O 0.08427(15) 0.6085(4) 0.2005(3)
O3 O -0.13365(15) 0.9699(4) 0.0696(3)
loop_
_geom_bond_atom_site_label_1
_geom_bond_atom_site_label_2
_geom_bond_site_symmetry_1
_geom_bond_site_symmetry_2
C1 H1 1_555 1_555
H2 C1 1_555 1_555
H3 C1 1_555 1_555
C2 C1 1_555 1_555
C3 C2 1_555 1_555
H4 C3 1_555 1_555
C4 C3 1_555 1_555
C5 C4 1_555 1_555
C6 C5 1_555 1_555
H5 C6 1_555 1_555
C7 C2 1_555 1_555
H6 C7 1_555 1_555
C8 C9 1_555 1_555
C9 H7 1_555 1_555
C10 C4 1_555 1_555
C11 C8 1_555 1_555
C12 C11 1_555 1_555
C13 C12 1_555 1_555
H8 C13 1_555 1_555
C14 C13 1_555 1_555
H9 C14 1_555 1_555
C15 C14 1_555 1_555
H10 C15 1_555 1_555
C16 C15 1_555 1_555
H11 C16 1_555 1_555
C17 C12 1_555 1_555
C18 C10 1_555 1_555
C19 H12 1_555 1_555
H13 C19 1_555 1_555
C20 C19 1_555 1_555
H14 C20 1_555 1_555
H15 C20 1_555 1_555
H16 C20 1_555 1_555
O1 C18 1_555 1_555
N1 C5 1_555 1_555
O2 C11 1_555 1_555
O3 C18 1_555 1_555
C6 C7 1_555 1_555
C8 N1 1_555 1_555
C9 C10 1_555 1_555
C16 C17 1_555 1_555
C19 O1 1_555 1_555

#END
