
#######################################################################
#
#                 Cambridge Crystallographic Data Centre
#                                CCDC 
#
#######################################################################
#
# If this CIF has been generated from an entry in the Cambridge 
# Structural Database, then it will include bibliographic, chemical, 
# crystal, experimental, refinement or atomic coordinate data resulting 
# from the CCDC's data processing and validation procedures.
#
#######################################################################

data_OHUJAE
_chemical_formula_moiety         'C30 H27 Cl1 N4 O3 S1'
_chemical_name_systematic        
3-Amino-3-(2-chlorophenyl)-N-(4-methylphenyl)-2-(N'-((4-methylphenyl)sulfonyl)-N-phenylcarbamimidoyl)acrylamide
_symmetry_cell_setting           monoclinic
_symmetry_space_group_name_H-M   'P 21/c'
_symmetry_Int_Tables_number      14
_space_group_name_Hall           '-P 2ybc'
loop_
_symmetry_equiv_pos_site_id
_symmetry_equiv_pos_as_xyz
1 x,y,z
2 -x,1/2+y,1/2-z
3 -x,-y,-z
4 x,1/2-y,1/2+z
_cell_length_a                   12.6036(5)
_cell_length_b                   24.3794(8)
_cell_length_c                   10.3073(3)
_cell_angle_alpha                90
_cell_angle_beta                 100.851(3)
_cell_angle_gamma                90
_cell_volume                     3110.48
_exptl_crystal_colour            colorless
_exptl_crystal_description       block
_cell_formula_units_Z            4
loop_
_atom_site_label
_atom_site_type_symbol
_atom_site_fract_x
_atom_site_fract_y
_atom_site_fract_z
Cl1 Cl -0.02703(8) 0.16747(4) 1.16467(8)
S1 S -0.01334(5) 0.11667(2) 0.53852(6)
O1 O 0.06537(15) 0.08845(9) 0.47878(18)
O2 O 0.00241(15) 0.17468(7) 0.55875(17)
O3 O 0.26342(15) 0.17574(8) 0.8857(2)
N1 N -0.02630(17) 0.08312(8) 0.66909(18)
N2 N -0.02140(15) 0.07096(7) 0.88909(18)
H1 H 0.0090 0.0803 0.9678
N3 N 0.10333(18) 0.23142(9) 0.9562(2)
H2 H 0.1536 0.2377 0.9118
H3 H 0.0639 0.2604 0.9555
N4 N 0.22656(15) 0.10509(8) 0.7441(2)
H4 H 0.1770 0.0836 0.7041
C1 C -0.4509(3) 0.0810(2) 0.1917(4)
H5 H -0.4927 0.0573 0.2370
H6 H -0.4422 0.0642 0.1101
H7 H -0.4875 0.1155 0.1736
C2 C -0.3404(3) 0.09049(14) 0.2779(3)
C3 C -0.2670(3) 0.04823(13) 0.3036(3)
H8 H -0.2850 0.0140 0.2660
C4 C -0.1677(2) 0.05545(11) 0.3836(3)
H9 H -0.1191 0.0265 0.4001
C5 C -0.14097(19) 0.10660(9) 0.4392(2)
C6 C -0.2130(2) 0.14933(11) 0.4145(3)
H10 H -0.1946 0.1836 0.4516
C7 C -0.3125(3) 0.14136(13) 0.3347(3)
H11 H -0.3613 0.1703 0.3188
C8 C 0.00875(17) 0.09981(8) 0.7907(2)
C9 C -0.09706(17) 0.02700(9) 0.8802(2)
C10 C -0.09941(19) -0.01545(9) 0.7912(2)
H12 H -0.0533 -0.0152 0.7305
C11 C -0.1713(2) -0.05847(10) 0.7930(3)
H13 H -0.1734 -0.0871 0.7330
C12 C -0.2392(2) -0.05913(11) 0.8827(3)
H14 H -0.2870 -0.0882 0.8836
C13 C -0.2365(2) -0.01695(12) 0.9706(3)
H15 H -0.2831 -0.0174 1.0306
C14 C -0.1656(2) 0.02641(10) 0.9717(2)
H16 H -0.1636 0.0547 1.0325
C15 C 0.08254(18) 0.14610(9) 0.8367(2)
C16 C 0.04322(19) 0.18930(10) 0.9000(2)
C17 C -0.07424(19) 0.19306(9) 0.9045(2)
C18 C -0.1477(2) 0.20425(10) 0.7901(3)
H17 H -0.1232 0.2093 0.7113
C19 C -0.2575(2) 0.20806(12) 0.7906(3)
H18 H -0.3059 0.2156 0.7128
C20 C -0.2947(2) 0.20062(12) 0.9068(4)
H19 H -0.3682 0.2033 0.9076
C21 C -0.2237(3) 0.18934(12) 1.0204(3)
H20 H -0.2489 0.1843 1.0988
C22 C -0.1141(2) 0.18534(11) 1.0200(3)
C23 C 0.1960(2) 0.14388(9) 0.8238(2)
C24 C 0.33254(19) 0.09674(10) 0.7208(2)
C25 C 0.3459(2) 0.08238(13) 0.5954(3)
H21 H 0.2861 0.0802 0.5273
C26 C 0.4475(2) 0.07124(14) 0.5707(3)
H22 H 0.4548 0.0615 0.4855
C27 C 0.5382(2) 0.07406(11) 0.6681(3)
C28 C 0.5234(2) 0.08782(12) 0.7932(3)
H23 H 0.5830 0.0896 0.8617
C29 C 0.4222(2) 0.09897(12) 0.8193(3)
H24 H 0.4147 0.1081 0.9047
C30 C 0.6503(2) 0.06171(16) 0.6419(3)
H25 H 0.6953 0.0935 0.6619
H26 H 0.6454 0.0521 0.5506
H27 H 0.6810 0.0317 0.6965
loop_
_geom_bond_atom_site_label_1
_geom_bond_atom_site_label_2
_geom_bond_site_symmetry_1
_geom_bond_site_symmetry_2
Cl1 C22 1_555 1_555
S1 O1 1_555 1_555
O2 S1 1_555 1_555
O3 C23 1_555 1_555
N1 S1 1_555 1_555
N2 H1 1_555 1_555
N3 H2 1_555 1_555
H3 N3 1_555 1_555
N4 H4 1_555 1_555
C1 H5 1_555 1_555
H6 C1 1_555 1_555
H7 C1 1_555 1_555
C2 C1 1_555 1_555
C3 C2 1_555 1_555
H8 C3 1_555 1_555
C4 C3 1_555 1_555
H9 C4 1_555 1_555
C5 S1 1_555 1_555
C6 C5 1_555 1_555
H10 C6 1_555 1_555
C7 C2 1_555 1_555
H11 C7 1_555 1_555
C8 N1 1_555 1_555
C9 N2 1_555 1_555
C10 C9 1_555 1_555
H12 C10 1_555 1_555
C11 C10 1_555 1_555
H13 C11 1_555 1_555
C12 C11 1_555 1_555
H14 C12 1_555 1_555
C13 C12 1_555 1_555
H15 C13 1_555 1_555
C14 C9 1_555 1_555
H16 C14 1_555 1_555
C15 C8 1_555 1_555
C16 N3 1_555 1_555
C17 C16 1_555 1_555
C18 C17 1_555 1_555
H17 C18 1_555 1_555
C19 C18 1_555 1_555
H18 C19 1_555 1_555
C20 C19 1_555 1_555
H19 C20 1_555 1_555
C21 C20 1_555 1_555
H20 C21 1_555 1_555
C22 C17 1_555 1_555
C23 N4 1_555 1_555
C24 N4 1_555 1_555
C25 C24 1_555 1_555
H21 C25 1_555 1_555
C26 C25 1_555 1_555
H22 C26 1_555 1_555
C27 C26 1_555 1_555
C28 C27 1_555 1_555
H23 C28 1_555 1_555
C29 C24 1_555 1_555
H24 C29 1_555 1_555
C30 C27 1_555 1_555
H25 C30 1_555 1_555
H26 C30 1_555 1_555
H27 C30 1_555 1_555
N2 C8 1_555 1_555
C4 C5 1_555 1_555
C6 C7 1_555 1_555
C13 C14 1_555 1_555
C15 C16 1_555 1_555
C15 C23 1_555 1_555
C21 C22 1_555 1_555
C28 C29 1_555 1_555

#END
