
#######################################################################
#
#                 Cambridge Crystallographic Data Centre
#                                CCDC 
#
#######################################################################
#
# If this CIF has been generated from an entry in the Cambridge 
# Structural Database, then it will include bibliographic, chemical, 
# crystal, experimental, refinement or atomic coordinate data resulting 
# from the CCDC's data processing and validation procedures.
#
#######################################################################

data_OHUKOR
_chemical_formula_moiety         'C19 H20 O4'
_chemical_name_systematic        
'(3SR,3aSR,6RS,7RS,7aSR,8SR)-8-allyl-octahydro-2-oxo-3,6-methanobenzofuran-7-yl benzoate'
_symmetry_cell_setting           monoclinic
_symmetry_space_group_name_H-M   'P 21/n'
_symmetry_Int_Tables_number      14
_space_group_name_Hall           '-P 2yn'
loop_
_symmetry_equiv_pos_site_id
_symmetry_equiv_pos_as_xyz
1 x,y,z
2 1/2+x,1/2-y,1/2+z
3 -x,-y,-z
4 1/2-x,1/2+y,1/2-z
_cell_length_a                   7.5647(2)
_cell_length_b                   17.5350(4)
_cell_length_c                   12.0827(3)
_cell_angle_alpha                90
_cell_angle_beta                 99.2113(9)
_cell_angle_gamma                90
_cell_volume                     1582.07
_exptl_crystal_colour            colorless
_exptl_crystal_description       prism
_chemical_melting_point          141-142deg.C
_cell_formula_units_Z            4
loop_
_atom_site_label
_atom_site_type_symbol
_atom_site_fract_x
_atom_site_fract_y
_atom_site_fract_z
O1 O 0.6790(2) 0.40620(8) 0.52779(13)
O2 O 0.9513(2) 0.3229(1) 0.61980(12)
O3 O 0.8568(2) 0.2104(1) 0.67233(14)
O4 O 0.8537(2) 0.5003(1) 0.61022(16)
C1 C 0.7218(3) 0.33815(13) 0.36106(17)
C2 C 0.8074(3) 0.39235(12) 0.45223(18)
C3 C 0.9823(3) 0.35688(13) 0.51440(19)
C4 C 0.7219(3) 0.46105(12) 0.60538(19)
C5 C 0.8931(3) 0.25040(13) 0.59851(19)
C6 C 0.8882(3) 0.23315(12) 0.47581(18)
C7 C 1.0326(3) 0.28838(14) 0.4480(2)
C8 C 1.0280(3) 0.30342(15) 0.3238(2)
C9 C 0.8455(3) 0.33692(15) 0.2725(2)
C10 C 0.7064(3) 0.25565(12) 0.40372(18)
C11 C 0.5887(3) 0.46646(12) 0.68332(18)
C12 C 0.6201(3) 0.51884(13) 0.77101(19)
C13 C 0.5023(4) 0.52455(14) 0.8464(2)
C14 C 0.3517(4) 0.47916(14) 0.8358(2)
C15 C 0.3173(3) 0.42784(14) 0.7480(2)
C16 C 0.4364(3) 0.42102(13) 0.67221(19)
C17 C 0.5407(3) 0.24123(13) 0.4595(2)
C18 C 0.5194(5) 0.15697(19) 0.4892(3)
C19 C 0.3954(5) 0.1132(2) 0.4313(3)
H1 H 0.5976(3) 0.35626(13) 0.33241(17)
H2 H 0.8394(3) 0.44184(12) 0.41938(18)
H3 H 1.0739(3) 0.39850(13) 0.52461(19)
H4 H 0.9047(3) 0.17778(12) 0.46049(18)
H5 H 1.1587(3) 0.26989(14) 0.4680(2)
H6 H 1.1244(3) 0.34065(15) 0.3139(2)
H7 H 1.0484(3) 0.25455(15) 0.2851(2)
H8 H 0.8619(3) 0.39002(15) 0.2457(2)
H9 H 0.7911(3) 0.30451(15) 0.2078(2)
H10 H 0.6851(3) 0.22070(12) 0.33753(18)
H11 H 0.7283(3) 0.55239(13) 0.77885(19)
H12 H 0.5268(4) 0.56156(14) 0.9100(2)
H13 H 0.2673(4) 0.48375(14) 0.8912(2)
H14 H 0.2067(3) 0.39574(14) 0.7392(2)
H15 H 0.4135(3) 0.38323(13) 0.60956(19)
H16 H 0.5514(3) 0.27218(13) 0.5297(2)
H17 H 0.4317(3) 0.25750(13) 0.4066(2)
H20 H 0.6020(5) 0.13447(19) 0.5538(3)
H22 H 0.3849(5) 0.0583(2) 0.4520(3)
H24 H 0.3121(5) 0.1351(2) 0.3665(3)
C20? C 0.4652(15) 0.1642(5) 0.4242(8)
C21? C 0.460(2) 0.1100(6) 0.4993(13)
H18? H 0.5752(3) 0.24310(13) 0.5428(2)
H19? H 0.4487(3) 0.28130(13) 0.4349(2)
H21? H 0.4154(15) 0.1540(5) 0.3438(8)
H23? H 0.510(2) 0.1201(6) 0.5797(13)
H25? H 0.410(2) 0.0586(6) 0.4760(13)
loop_
_geom_bond_atom_site_label_1
_geom_bond_atom_site_label_2
_geom_bond_site_symmetry_1
_geom_bond_site_symmetry_2
O1 C2 1_555 1_555
O2 C3 1_555 1_555
O3 C5 1_555 1_555
O4 C4 1_555 1_555
C1 C2 1_555 1_555
C2 C3 1_555 1_555
C3 C7 1_555 1_555
C4 O1 1_555 1_555
C5 O2 1_555 1_555
C6 C5 1_555 1_555
C7 C6 1_555 1_555
C8 C7 1_555 1_555
C9 C1 1_555 1_555
C10 C1 1_555 1_555
C11 C4 1_555 1_555
C12 C11 1_555 1_555
C13 C12 1_555 1_555
C14 C13 1_555 1_555
C15 C14 1_555 1_555
C16 C11 1_555 1_555
C17 C10 1_555 1_555
C18 C17 1_555 1_555
C19 C18 1_555 1_555
H1 C1 1_555 1_555
H2 C2 1_555 1_555
H3 C3 1_555 1_555
H4 C6 1_555 1_555
H5 C7 1_555 1_555
H6 C8 1_555 1_555
H7 C8 1_555 1_555
H8 C9 1_555 1_555
H9 C9 1_555 1_555
H10 C10 1_555 1_555
H11 C12 1_555 1_555
H12 C13 1_555 1_555
H13 C14 1_555 1_555
H14 C15 1_555 1_555
H15 C16 1_555 1_555
H16 C17 1_555 1_555
H17 C17 1_555 1_555
H20 C18 1_555 1_555
H22 C19 1_555 1_555
H24 C19 1_555 1_555
C6 C10 1_555 1_555
C8 C9 1_555 1_555
C15 C16 1_555 1_555

#END
