
#######################################################################
#
#                 Cambridge Crystallographic Data Centre
#                                CCDC 
#
#######################################################################
#
# If this CIF has been generated from an entry in the Cambridge 
# Structural Database, then it will include bibliographic, chemical, 
# crystal, experimental, refinement or atomic coordinate data resulting 
# from the CCDC's data processing and validation procedures.
#
#######################################################################

data_OHUKUX
_chemical_formula_moiety         'C19 H20 O4'
_chemical_name_systematic        
'(3SR,3aSR,6RS,7RS,7aSR,8RS)-8-allyl-octahydro-2-oxo-3,6-methanobenzofuran-7-yl benzoate'
_symmetry_cell_setting           triclinic
_symmetry_space_group_name_H-M   'P -1'
_symmetry_Int_Tables_number      2
_space_group_name_Hall           '-P 1'
loop_
_symmetry_equiv_pos_site_id
_symmetry_equiv_pos_as_xyz
1 x,y,z
2 -x,-y,-z
_cell_length_a                   7.4045(2)
_cell_length_b                   9.5189(2)
_cell_length_c                   12.5328(3)
_cell_angle_alpha                111.9582(11)
_cell_angle_beta                 94.1540(11)
_cell_angle_gamma                93.3407(11)
_cell_volume                     813.626
_exptl_crystal_colour            colorless
_exptl_crystal_description       prism
_chemical_melting_point          107-109deg.C
_cell_formula_units_Z            2
loop_
_atom_site_label
_atom_site_type_symbol
_atom_site_fract_x
_atom_site_fract_y
_atom_site_fract_z
O1 O 0.82082(15) 0.52681(13) 0.3842(1)
O2 O 0.58052(17) 0.63186(13) 0.2782(1)
O3 O 0.7084(2) 0.67420(16) 0.13593(12)
O4 O 0.67827(18) 0.66222(16) 0.53668(11)
C1 C 0.7076(3) 0.2849(2) 0.23825(15)
C2 C 0.6576(2) 0.42252(19) 0.33858(15)
C3 C 0.5051(2) 0.4977(2) 0.29513(16)
C4 C 0.8095(2) 0.6473(2) 0.48308(14)
C5 C 0.6362(3) 0.5853(2) 0.17019(16)
C6 C 0.5909(2) 0.41596(19) 0.11035(15)
C7 C 0.4283(3) 0.3921(2) 0.17262(16)
C8 C 0.3796(3) 0.2281(2) 0.15858(18)
C9 C 0.5432(3) 0.1660(2) 0.20342(17)
C10 C 0.7518(3) 0.3316(2) 0.13698(15)
C11 C 0.9734(2) 0.75679(19) 0.51649(14)
C12 C 0.9716(3) 0.8936(2) 0.61038(15)
C13 C 1.1203(3) 1.0000(2) 0.64373(17)
C14 C 1.2715(3) 0.9704(2) 0.58373(18)
C15 C 1.2758(3) 0.8348(2) 0.49059(18)
C16 C 1.1263(2) 0.7284(2) 0.45662(16)
C17 C 0.7889(3) 0.1957(2) 0.02915(17)
C18 C 0.8682(3) 0.2438(3) -0.0593(2)
C19 C 0.7851(4) 0.2212(3) -0.1610(2)
H1 H 0.8187(3) 0.2423(2) 0.25944(15)
H2 H 0.6099(2) 0.39201(19) 0.40018(15)
H3 H 0.4143(2) 0.5202(2) 0.35325(16)
H4 H 0.5666(2) 0.37739(19) 0.02423(15)
H5 H 0.3091(3) 0.4162(2) 0.14394(16)
H6 H 0.2743(3) 0.2235(2) 0.20322(18)
H7 H 0.3459(3) 0.1642(2) 0.07487(18)
H8 H 0.5125(3) 0.1447(2) 0.27262(17)
H9 H 0.5723(3) 0.0699(2) 0.14162(17)
H10 H 0.8652(3) 0.4029(2) 0.16076(15)
H11 H 0.8614(3) 0.9141(2) 0.65357(15)
H12 H 1.1187(3) 1.0977(2) 0.71160(17)
H13 H 1.3788(3) 1.0481(2) 0.60709(18)
H14 H 1.3865(3) 0.8141(2) 0.44795(18)
H15 H 1.1280(2) 0.6303(2) 0.38911(16)
H16 H 0.8745(3) 0.1330(2) 0.05326(17)
H17 H 0.6712(3) 0.1330(2) -0.00674(17)
H18 H 0.9938(3) 0.2969(3) -0.0398(2)
H19 H 0.8441(4) 0.2568(3) -0.2168(2)
H20 H 0.6594(4) 0.1682(3) -0.1820(2)
loop_
_geom_bond_atom_site_label_1
_geom_bond_atom_site_label_2
_geom_bond_site_symmetry_1
_geom_bond_site_symmetry_2
O1 C2 1_555 1_555
O2 C3 1_555 1_555
O3 C5 1_555 1_555
O4 C4 1_555 1_555
C1 C2 1_555 1_555
C2 C3 1_555 1_555
C3 C7 1_555 1_555
C4 O1 1_555 1_555
C5 O2 1_555 1_555
C6 C5 1_555 1_555
C7 C6 1_555 1_555
C8 C7 1_555 1_555
C9 C1 1_555 1_555
C10 C1 1_555 1_555
C11 C4 1_555 1_555
C12 C11 1_555 1_555
C13 C12 1_555 1_555
C14 C13 1_555 1_555
C15 C14 1_555 1_555
C16 C11 1_555 1_555
C17 C10 1_555 1_555
C18 C17 1_555 1_555
C19 C18 1_555 1_555
H1 C1 1_555 1_555
H2 C2 1_555 1_555
H3 C3 1_555 1_555
H4 C6 1_555 1_555
H5 C7 1_555 1_555
H6 C8 1_555 1_555
H7 C8 1_555 1_555
H8 C9 1_555 1_555
H9 C9 1_555 1_555
H10 C10 1_555 1_555
H11 C12 1_555 1_555
H12 C13 1_555 1_555
H13 C14 1_555 1_555
H14 C15 1_555 1_555
H15 C16 1_555 1_555
H16 C17 1_555 1_555
H17 C17 1_555 1_555
H18 C18 1_555 1_555
H19 C19 1_555 1_555
H20 C19 1_555 1_555
C6 C10 1_555 1_555
C8 C9 1_555 1_555
C15 C16 1_555 1_555

#END
