
#######################################################################
#
#                 Cambridge Crystallographic Data Centre
#                                CCDC 
#
#######################################################################
#
# If this CIF has been generated from an entry in the Cambridge 
# Structural Database, then it will include bibliographic, chemical, 
# crystal, experimental, refinement or atomic coordinate data resulting 
# from the CCDC's data processing and validation procedures.
#
#######################################################################

data_OHULAE
_chemical_formula_moiety         'C9 H10 O3'
_chemical_name_systematic        
(3a\a,4alpha.7a\a)-3a,4,7,7a-tetrahydro-4,7-ethano-1,3-benzodioxol-2-one
_symmetry_cell_setting           orthorhombic
_symmetry_space_group_name_H-M   'P 21 n m'
_symmetry_Int_Tables_number      31
_space_group_name_Hall           'P -2 2ac'
loop_
_symmetry_equiv_pos_site_id
_symmetry_equiv_pos_as_xyz
1 x,y,z
2 1/2+x,-y,1/2-z
3 1/2+x,-y,1/2+z
4 x,y,-z
_cell_length_a                   6.1942(2)
_cell_length_b                   6.2735(2)
_cell_length_c                   9.8585(4)
_cell_angle_alpha                90
_cell_angle_beta                 90
_cell_angle_gamma                90
_cell_volume                     383.095
_exptl_crystal_colour            colorless
_exptl_crystal_description       plate
_chemical_melting_point          143-144deg.C
_cell_formula_units_Z            2
loop_
_atom_site_label
_atom_site_type_symbol
_atom_site_fract_x
_atom_site_fract_y
_atom_site_fract_z
O1 O 0.9566(3) 0.6550(3) 0.0000
O2 O 0.6640(2) 0.54208(19) 0.11268(12)
C1 C 0.7765(4) 0.5842(4) 0.0000
C2 C 0.4539(3) 0.4544(3) 0.07792(14)
C3 C 0.4329(3) 0.2267(3) 0.13045(15)
C4 C 0.6062(3) 0.0938(3) 0.06752(18)
C5 C 0.2110(3) 0.1473(3) 0.07817(17)
H1 H 0.3319(3) 0.5369(3) 0.11866(14)
H2 H 0.4462(3) 0.2172(3) 0.23135(15)
H3 H 0.7136(3) 0.0119(3) 0.12250(18)
H4 H 0.0951(3) 0.2447(3) 0.11214(17)
H5 H 0.1837(3) -0.0005(3) 0.11214(17)
C2C C 0.4539(3) 0.4544(3) -0.07792(14)
O2C O 0.6640(2) 0.54208(19) -0.11268(12)
C3C C 0.4329(3) 0.2267(3) -0.13045(15)
C4C C 0.6062(3) 0.0938(3) -0.06752(18)
C5C C 0.2110(3) 0.1473(3) -0.07817(17)
H2C H 0.4462(3) 0.2172(3) -0.23135(15)
H4C H 0.0951(3) 0.2447(3) -0.11214(17)
H5C H 0.1837(3) -0.0005(3) -0.11214(17)
H3C H 0.7136(3) 0.0119(3) -0.12250(18)
H1C H 0.3319(3) 0.5369(3) -0.11866(14)
loop_
_geom_bond_atom_site_label_1
_geom_bond_atom_site_label_2
_geom_bond_site_symmetry_1
_geom_bond_site_symmetry_2
O1 C1 1_555 1_555
O2 C1 1_555 1_555
C1 O2C 1_555 1_555
C2 O2 1_555 1_555
C3 C2 1_555 1_555
C4 C3 1_555 1_555
C5 C3 1_555 1_555
H1 C2 1_555 1_555
H2 C3 1_555 1_555
H3 C4 1_555 1_555
H4 C5 1_555 1_555
H5 C5 1_555 1_555
C2C C2 1_555 1_555
O2C C2C 1_555 1_555
C3C C2C 1_555 1_555
C4C C4 1_555 1_555
C5C C5 1_555 1_555
H2C C3C 1_555 1_555
H4C C5C 1_555 1_555
H5C C5C 1_555 1_555
H3C C4C 1_555 1_555
H1C C2C 1_555 1_555
C3C C4C 1_555 1_555
C3C C5C 1_555 1_555

#END
