
#######################################################################
#
#                 Cambridge Crystallographic Data Centre
#                                CCDC 
#
#######################################################################
#
# If this CIF has been generated from an entry in the Cambridge 
# Structural Database, then it will include bibliographic, chemical, 
# crystal, experimental, refinement or atomic coordinate data resulting 
# from the CCDC's data processing and validation procedures.
#
#######################################################################

data_OHUNEL
_chemical_formula_moiety         'C18 H22 O2'
_chemical_name_systematic        
3-(1-Hydroxy-3-phenylcyclobutyl)-5,5-dimethylcyclohex-2-en-1-one
_symmetry_cell_setting           orthorhombic
_symmetry_space_group_name_H-M   'P 21 21 21'
_symmetry_Int_Tables_number      19
_space_group_name_Hall           'P 2ac 2ab'
loop_
_symmetry_equiv_pos_site_id
_symmetry_equiv_pos_as_xyz
1 x,y,z
2 1/2-x,-y,1/2+z
3 -x,1/2+y,1/2-z
4 1/2+x,1/2-y,-z
_cell_length_a                   5.6956(8)
_cell_length_b                   11.8505(17)
_cell_length_c                   22.719(3)
_cell_angle_alpha                90
_cell_angle_beta                 90
_cell_angle_gamma                90
_cell_volume                     1533.43
_exptl_crystal_colour            colorless
_exptl_crystal_description       block
_cell_formula_units_Z            4
loop_
_atom_site_label
_atom_site_type_symbol
_atom_site_fract_x
_atom_site_fract_y
_atom_site_fract_z
C1 C 0.8382(3) 0.90349(12) 0.21261(6)
H1 H 0.9142 0.9600 0.2337
C2 C 0.6461(3) 0.93499(12) 0.17372(6)
C3 C 0.5259(3) 0.84201(12) 0.14088(6)
H2 H 0.4627 0.8722 0.1045
H3 H 0.3950 0.8149 0.1643
C4 C 0.6862(3) 0.74257(13) 0.12633(6)
C5 C 0.8066(3) 0.70349(12) 0.18313(6)
H4 H 0.6928 0.6632 0.2070
H5 H 0.9305 0.6508 0.1730
C6 C 0.9104(3) 0.79719(12) 0.21945(6)
C7 C 1.0830(3) 0.76314(12) 0.26700(6)
C8 C 0.9525(3) 0.73848(13) 0.32614(6)
H6 H 0.7851 0.7262 0.3216
H7 H 1.0238 0.6790 0.3494
C9 C 1.0171(3) 0.85879(12) 0.34693(6)
H8 H 0.8910 0.9108 0.3357
C10 C 1.2087(3) 0.86045(12) 0.29893(6)
H9 H 1.2134 0.9300 0.2765
H10 H 1.3637 0.8407 0.3133
C11 C 1.0778(3) 0.87776(12) 0.41081(6)
C12 C 1.2840(3) 0.83669(13) 0.43546(7)
H11 H 1.3897 0.7970 0.4121
C13 C 1.3336(3) 0.85417(14) 0.49426(7)
H12 H 1.4730 0.8267 0.5100
C14 C 1.1795(3) 0.91171(15) 0.52973(7)
H13 H 1.2142 0.9238 0.5692
C15 C 0.9735(3) 0.95113(15) 0.50611(8)
H14 H 0.8662 0.9888 0.5299
C16 C 0.9253(3) 0.93492(13) 0.44711(7)
H15 H 0.7864 0.9634 0.4315
C17 C 0.5373(4) 0.64565(15) 0.10198(9)
H16 H 0.4624 0.6693 0.0662
H17 H 0.4199 0.6251 0.1303
H18 H 0.6362 0.5818 0.0941
C18 C 0.8669(3) 0.77702(18) 0.08042(7)
H19 H 0.9567 0.8397 0.0949
H20 H 0.7882 0.7984 0.0448
H21 H 0.9699 0.7147 0.0726
O1 O 0.5779(2) 1.03322(9) 0.17008(5)
O2 O 1.2266(2) 0.67643(9) 0.24422(4)
H22 H 1.2863 0.6413 0.2715
loop_
_geom_bond_atom_site_label_1
_geom_bond_atom_site_label_2
_geom_bond_site_symmetry_1
_geom_bond_site_symmetry_2
C1 H1 1_555 1_555
C2 C1 1_555 1_555
C3 C2 1_555 1_555
H2 C3 1_555 1_555
H3 C3 1_555 1_555
C4 C3 1_555 1_555
C5 C4 1_555 1_555
H4 C5 1_555 1_555
H5 C5 1_555 1_555
C6 C1 1_555 1_555
C7 C6 1_555 1_555
C8 C7 1_555 1_555
H6 C8 1_555 1_555
H7 C8 1_555 1_555
C9 C8 1_555 1_555
H8 C9 1_555 1_555
C10 C7 1_555 1_555
H9 C10 1_555 1_555
H10 C10 1_555 1_555
C11 C9 1_555 1_555
C12 C11 1_555 1_555
H11 C12 1_555 1_555
C13 C12 1_555 1_555
H12 C13 1_555 1_555
C14 C13 1_555 1_555
H13 C14 1_555 1_555
C15 C14 1_555 1_555
H14 C15 1_555 1_555
C16 C11 1_555 1_555
H15 C16 1_555 1_555
C17 C4 1_555 1_555
H16 C17 1_555 1_555
H17 C17 1_555 1_555
H18 C17 1_555 1_555
C18 C4 1_555 1_555
H19 C18 1_555 1_555
H20 C18 1_555 1_555
H21 C18 1_555 1_555
O1 C2 1_555 1_555
O2 C7 1_555 1_555
H22 O2 1_555 1_555
C5 C6 1_555 1_555
C9 C10 1_555 1_555
C15 C16 1_555 1_555

#END
