
#######################################################################
#
#                 Cambridge Crystallographic Data Centre
#                                CCDC 
#
#######################################################################
#
# If this CIF has been generated from an entry in the Cambridge 
# Structural Database, then it will include bibliographic, chemical, 
# crystal, experimental, refinement or atomic coordinate data resulting 
# from the CCDC's data processing and validation procedures.
#
#######################################################################

data_OHURUG
_chemical_formula_moiety         'C39 H28 Br1 Cl1 N4 O5'
_chemical_name_systematic        
"dimethyl 1-benzyl-1'-(4-bromophenyl)-6'-(2-(3-chlorophenyl)vinyl)-5',5'-dicyano-2-oxo-1,2,5',6'-tetrahydro-1'H-spiro[indole-3,4'-pyridine]-2',3'-dicarboxylate"
_symmetry_cell_setting           triclinic
_symmetry_space_group_name_H-M   'P -1'
_symmetry_Int_Tables_number      2
_space_group_name_Hall           '-P 1'
loop_
_symmetry_equiv_pos_site_id
_symmetry_equiv_pos_as_xyz
1 x,y,z
2 -x,-y,-z
_cell_length_a                   10.573(2)
_cell_length_b                   13.505(3)
_cell_length_c                   25.317(6)
_cell_angle_alpha                92.856(6)
_cell_angle_beta                 93.307(5)
_cell_angle_gamma                94.257(6)
_cell_volume                     3593.68
_exptl_crystal_colour            colorless
_exptl_crystal_description       block
_cell_formula_units_Z            4
loop_
_atom_site_label
_atom_site_type_symbol
_atom_site_fract_x
_atom_site_fract_y
_atom_site_fract_z
Br1 Br 0.34453(7) 0.80607(5) -0.04547(2)
C1 C 0.9775(7) 0.7553(5) 0.0463(4)
C2 C 0.9708(9) 0.8137(9) 0.0048(4)
H1 H 1.0160 0.8011 -0.0249
C3 C 0.8965(9) 0.8913(8) 0.0074(3)
H2 H 0.8916 0.9329 -0.0207
C4 C 0.8288(6) 0.9090(6) 0.0508(3)
H3 H 0.7796 0.9632 0.0520
C5 C 0.8318(5) 0.8491(5) 0.0921(2)
C6 C 0.9091(6) 0.7710(5) 0.0901(3)
H4 H 0.9149 0.7293 0.1181
C7 C 0.7601(5) 0.8627(4) 0.1394(2)
H5 H 0.7627 0.8129 0.1634
C8 C 0.6931(5) 0.9368(4) 0.15151(18)
H6 H 0.6926 0.9896 0.1293
C9 C 0.6175(4) 0.9409(3) 0.19902(18)
H7 H 0.6373 0.8857 0.2210
C10 C 0.4384(4) 0.9016(4) 0.13135(19)
C11 C 0.4309(5) 0.8027(4) 0.1156(2)
H8 H 0.4462 0.7555 0.1402
C12 C 0.4008(5) 0.7733(4) 0.0632(2)
H9 H 0.3970 0.7063 0.0523
C13 C 0.3764(5) 0.8430(5) 0.0274(2)
C14 C 0.3811(5) 0.9426(5) 0.0435(2)
H10 H 0.3636 0.9897 0.0190
C15 C 0.4117(5) 0.9718(4) 0.0955(2)
H11 H 0.4145 1.0387 0.1066
C16 C 0.3982(4) 0.9592(3) 0.2215(2)
C17 C 0.2613(5) 0.9301(5) 0.2031(2)
C18 C 0.0809(5) 0.9826(5) 0.1569(3)
H12 H 0.0852 0.9334 0.1285
H13 H 0.0492 1.0415 0.1431
H14 H 0.0250 0.9570 0.1824
C19 C 0.4341(4) 1.0046(3) 0.26949(19)
C20 C 0.3472(5) 1.0255(4) 0.3109(2)
C21 C 0.1364(5) 1.0043(5) 0.3378(2)
H15 H 0.1697 0.9826 0.3710
H16 H 0.0583 0.9659 0.3271
H17 H 0.1210 1.0734 0.3417
C22 C 0.5714(4) 1.0393(3) 0.28480(17)
C23 C 0.5866(5) 1.1464(4) 0.3114(2)
C24 C 0.7055(5) 1.2353(4) 0.3882(2)
H18 H 0.7067 1.2921 0.3662
H19 H 0.7917 1.2301 0.4025
C25 C 0.6240(6) 1.2548(5) 0.4331(2)
C26 C 0.5421(7) 1.1838(6) 0.4520(3)
H20 H 0.5357 1.1200 0.4359
C27 C 0.4684(7) 1.2028(7) 0.4942(3)
H21 H 0.4137 1.1527 0.5060
C28 C 0.4767(9) 1.2939(10) 0.5177(4)
H22 H 0.4286 1.3069 0.5466
C29 C 0.5562(11) 1.3693(7) 0.4996(4)
H23 H 0.5601 1.4329 0.5158
C30 C 0.6311(7) 1.3500(5) 0.4564(3)
H24 H 0.6844 1.4004 0.4439
C31 C 0.6945(5) 1.0500(4) 0.3660(2)
C32 C 0.7668(5) 1.0194(5) 0.4088(2)
H25 H 0.8060 1.0650 0.4344
C33 C 0.7782(6) 0.9185(6) 0.4118(3)
H26 H 0.8266 0.8959 0.4399
C34 C 0.7199(7) 0.8514(5) 0.3743(3)
H27 H 0.7289 0.7839 0.3774
C35 C 0.6471(5) 0.8827(4) 0.3316(2)
H28 H 0.6062 0.8366 0.3066
C36 C 0.6368(4) 0.9826(4) 0.32685(19)
C37 C 0.6463(4) 1.0415(3) 0.23309(18)
C38 C 0.6144(5) 1.1237(4) 0.1999(2)
C39 C 0.7855(6) 1.0526(4) 0.24699(19)
Cl1 Cl 1.0737(3) 0.65541(17) 0.04541(14)
N1 N 0.5911(5) 1.1834(4) 0.17198(18)
N2 N 0.8910(5) 1.0600(4) 0.25678(19)
N3 N 0.6663(4) 1.1464(3) 0.35503(15)
N4 N 0.4803(4) 0.9335(3) 0.18498(15)
O1 O 0.5419(3) 1.2185(3) 0.29310(13)
O2 O 0.3809(3) 1.0669(3) 0.35299(15)
O3 O 0.2273(3) 0.9908(3) 0.29800(13)
O4 O 0.2129(3) 0.8470(3) 0.20347(14)
O5 O 0.2084(3) 1.0068(3) 0.18251(14)
Br2 Br -0.07612(6) 0.26406(6) 0.14166(3)
C40 C 0.0847(5) 0.3246(5) 0.1677(2)
C41 C 0.1728(6) 0.2670(4) 0.1905(2)
H29 H 0.1529 0.1998 0.1949
C42 C 0.2908(5) 0.3113(4) 0.2066(2)
H30 H 0.3522 0.2734 0.2215
C43 C 0.3190(5) 0.4109(4) 0.20102(19)
C44 C 0.2287(5) 0.4679(4) 0.1799(2)
H31 H 0.2476 0.5357 0.1768
C45 C 0.1094(5) 0.4243(5) 0.1633(2)
H32 H 0.0471 0.4624 0.1493
C46 C 0.4975(4) 0.4558(3) 0.26902(19)
H33 H 0.5424 0.3957 0.2740
C47 C 0.3976(4) 0.4602(4) 0.3080(2)
H34 H 0.3441 0.5117 0.3068
C48 C 0.3819(4) 0.3943(4) 0.3441(2)
H35 H 0.4365 0.3434 0.3443
C49 C 0.2870(5) 0.3930(4) 0.3839(2)
C50 C 0.2436(5) 0.3019(4) 0.4017(2)
H36 H 0.2801 0.2443 0.3908
C51 C 0.1467(6) 0.2971(5) 0.4352(2)
C52 C 0.0941(7) 0.3795(6) 0.4536(3)
H37 H 0.0292 0.3748 0.4768
C53 C 0.1393(7) 0.4703(6) 0.4370(3)
H38 H 0.1040 0.5276 0.4492
C54 C 0.2355(6) 0.4781(4) 0.4028(2)
H39 H 0.2657 0.5402 0.3925
C55 C 0.5957(5) 0.5486(3) 0.27674(19)
C56 C 0.6456(5) 0.5605(4) 0.3327(2)
C57 C 0.5240(5) 0.6369(4) 0.2640(2)
C58 C 0.7056(4) 0.5375(3) 0.23941(18)
C59 C 0.8012(4) 0.4680(4) 0.25941(18)
C60 C 0.7917(5) 0.3669(4) 0.26227(19)
H40 H 0.7168 0.3295 0.2510
C61 C 0.8963(6) 0.3214(4) 0.2824(2)
H41 H 0.8909 0.2530 0.2857
C62 C 1.0074(5) 0.3770(5) 0.2973(2)
H42 H 1.0765 0.3452 0.3107
C63 C 1.0201(5) 0.4779(4) 0.2933(2)
H43 H 1.0965 0.5148 0.3026
C64 C 0.9141(5) 0.5224(4) 0.27455(19)
C65 C 1.0121(5) 0.6987(4) 0.2680(2)
H44 H 0.9819 0.7602 0.2558
H45 H 1.0731 0.6769 0.2435
C66 C 1.0791(5) 0.7193(3) 0.3220(2)
C67 C 1.0160(6) 0.7159(4) 0.3677(3)
H46 H 0.9295 0.6967 0.3662
C68 C 1.0812(8) 0.7411(5) 0.4163(3)
H47 H 1.0379 0.7400 0.4472
C69 C 1.2084(8) 0.7675(5) 0.4187(3)
H48 H 1.2517 0.7848 0.4513
C70 C 1.2713(6) 0.7685(5) 0.3743(3)
H49 H 1.3584 0.7852 0.3763
C71 C 1.2089(5) 0.7451(4) 0.3258(2)
H50 H 1.2538 0.7467 0.2953
C72 C 0.7884(5) 0.6392(4) 0.2437(2)
C73 C 0.6483(5) 0.5116(3) 0.18384(19)
C74 C 0.7366(6) 0.5215(4) 0.1423(2)
C75 C 0.7722(6) 0.4886(5) 0.0522(2)
H51 H 0.7915 0.5571 0.0451
H52 H 0.7305 0.4540 0.0212
H53 H 0.8495 0.4588 0.0615
C76 C 0.5260(5) 0.4761(3) 0.1750(2)
C77 C 0.4629(5) 0.4619(5) 0.1194(2)
C78 C 0.3750(6) 0.3465(5) 0.0532(2)
H54 H 0.2972 0.3789 0.0535
H55 H 0.3561 0.2760 0.0475
H56 H 0.4245 0.3707 0.0253
Cl2 Cl 0.08745(17) 0.18166(13) 0.45562(7)
N5 N 0.4467(4) 0.4546(3) 0.21423(17)
N6 N 0.4623(5) 0.6993(4) 0.2535(2)
N7 N 0.6860(5) 0.5698(4) 0.3751(2)
N8 N 0.9053(4) 0.6241(3) 0.26620(16)
O6 O 0.4272(4) 0.5309(3) 0.09585(15)
O7 O 0.4463(3) 0.3675(3) 0.10351(14)
O8 O 0.8447(4) 0.5588(3) 0.15031(13)
O9 O 0.6907(3) 0.4828(3) 0.09510(16)
O10 O 0.7527(3) 0.7186(3) 0.23187(14)
loop_
_geom_bond_atom_site_label_1
_geom_bond_atom_site_label_2
_geom_bond_site_symmetry_1
_geom_bond_site_symmetry_2
Br1 C13 1_555 1_555
C1 C2 1_555 1_555
C2 H1 1_555 1_555
C3 C2 1_555 1_555
H2 C3 1_555 1_555
C4 C3 1_555 1_555
H3 C4 1_555 1_555
C5 C4 1_555 1_555
C6 C1 1_555 1_555
H4 C6 1_555 1_555
C7 C5 1_555 1_555
H5 C7 1_555 1_555
C8 C7 1_555 1_555
H6 C8 1_555 1_555
C9 C8 1_555 1_555
H7 C9 1_555 1_555
C10 C11 1_555 1_555
C11 H8 1_555 1_555
C12 C11 1_555 1_555
H9 C12 1_555 1_555
C13 C12 1_555 1_555
C14 C13 1_555 1_555
H10 C14 1_555 1_555
C15 C10 1_555 1_555
H11 C15 1_555 1_555
C16 C17 1_555 1_555
C17 O4 1_555 1_555
C18 H12 1_555 1_555
H13 C18 1_555 1_555
H14 C18 1_555 1_555
C19 C16 1_555 1_555
C20 C19 1_555 1_555
C21 H15 1_555 1_555
H16 C21 1_555 1_555
H17 C21 1_555 1_555
C22 C19 1_555 1_555
C23 C22 1_555 1_555
C24 H18 1_555 1_555
H19 C24 1_555 1_555
C25 C24 1_555 1_555
C26 C25 1_555 1_555
H20 C26 1_555 1_555
C27 C26 1_555 1_555
H21 C27 1_555 1_555
C28 C27 1_555 1_555
H22 C28 1_555 1_555
C29 C28 1_555 1_555
H23 C29 1_555 1_555
C30 C25 1_555 1_555
H24 C30 1_555 1_555
C31 C32 1_555 1_555
C32 H25 1_555 1_555
C33 C32 1_555 1_555
H26 C33 1_555 1_555
C34 C33 1_555 1_555
H27 C34 1_555 1_555
C35 C34 1_555 1_555
H28 C35 1_555 1_555
C36 C22 1_555 1_555
C37 C9 1_555 1_555
C38 C37 1_555 1_555
C39 C37 1_555 1_555
Cl1 C1 1_555 1_555
N1 C38 1_555 1_555
N2 C39 1_555 1_555
N3 C23 1_555 1_555
N4 C9 1_555 1_555
O1 C23 1_555 1_555
O2 C20 1_555 1_555
O3 C20 1_555 1_555
O5 C17 1_555 1_555
Br2 C40 1_555 1_555
C40 C41 1_555 1_555
C41 H29 1_555 1_555
C42 C41 1_555 1_555
H30 C42 1_555 1_555
C43 C42 1_555 1_555
C44 C43 1_555 1_555
H31 C44 1_555 1_555
C45 C40 1_555 1_555
H32 C45 1_555 1_555
C46 H33 1_555 1_555
C47 C46 1_555 1_555
H34 C47 1_555 1_555
C48 C47 1_555 1_555
H35 C48 1_555 1_555
C49 C48 1_555 1_555
C50 C49 1_555 1_555
H36 C50 1_555 1_555
C51 C50 1_555 1_555
C52 C51 1_555 1_555
H37 C52 1_555 1_555
C53 C52 1_555 1_555
H38 C53 1_555 1_555
C54 C49 1_555 1_555
H39 C54 1_555 1_555
C55 C46 1_555 1_555
C56 C55 1_555 1_555
C57 C55 1_555 1_555
C58 C55 1_555 1_555
C59 C58 1_555 1_555
C60 C59 1_555 1_555
H40 C60 1_555 1_555
C61 C60 1_555 1_555
H41 C61 1_555 1_555
C62 C61 1_555 1_555
H42 C62 1_555 1_555
C63 C62 1_555 1_555
H43 C63 1_555 1_555
C64 C59 1_555 1_555
C65 H44 1_555 1_555
H45 C65 1_555 1_555
C66 C65 1_555 1_555
C67 C66 1_555 1_555
H46 C67 1_555 1_555
C68 C67 1_555 1_555
H47 C68 1_555 1_555
C69 C68 1_555 1_555
H48 C69 1_555 1_555
C70 C69 1_555 1_555
H49 C70 1_555 1_555
C71 C66 1_555 1_555
H50 C71 1_555 1_555
C72 C58 1_555 1_555
C73 C58 1_555 1_555
C74 C73 1_555 1_555
C75 H51 1_555 1_555
H52 C75 1_555 1_555
H53 C75 1_555 1_555
C76 C73 1_555 1_555
C77 C76 1_555 1_555
C78 H54 1_555 1_555
H55 C78 1_555 1_555
H56 C78 1_555 1_555
Cl2 C51 1_555 1_555
N5 C43 1_555 1_555
N6 C57 1_555 1_555
N7 C56 1_555 1_555
N8 C64 1_555 1_555
O6 C77 1_555 1_555
O7 C77 1_555 1_555
O8 C74 1_555 1_555
O9 C74 1_555 1_555
O10 C72 1_555 1_555
C5 C6 1_555 1_555
C10 N4 1_555 1_555
C14 C15 1_555 1_555
C16 N4 1_555 1_555
C18 O5 1_555 1_555
C21 O3 1_555 1_555
C22 C37 1_555 1_555
C24 N3 1_555 1_555
C29 C30 1_555 1_555
C31 C36 1_555 1_555
C31 N3 1_555 1_555
C35 C36 1_555 1_555
C44 C45 1_555 1_555
C46 N5 1_555 1_555
C53 C54 1_555 1_555
C63 C64 1_555 1_555
C65 N8 1_555 1_555
C70 C71 1_555 1_555
C72 N8 1_555 1_555
C75 O9 1_555 1_555
C76 N5 1_555 1_555
C78 O7 1_555 1_555

#END
