
#######################################################################
#
#                 Cambridge Crystallographic Data Centre
#                                CCDC 
#
#######################################################################
#
# If this CIF has been generated from an entry in the Cambridge 
# Structural Database, then it will include bibliographic, chemical, 
# crystal, experimental, refinement or atomic coordinate data resulting 
# from the CCDC's data processing and validation procedures.
#
#######################################################################

data_OHUZIB
_chemical_formula_moiety         'C13 H20 N2 O1'
_chemical_name_systematic        3-Phenyl-1,1-dipropylurea
_symmetry_cell_setting           monoclinic
_symmetry_space_group_name_H-M   'P 21/c'
_symmetry_Int_Tables_number      14
_space_group_name_Hall           '-P 2ybc'
loop_
_symmetry_equiv_pos_site_id
_symmetry_equiv_pos_as_xyz
1 x,y,z
2 -x,1/2+y,1/2-z
3 -x,-y,-z
4 x,1/2-y,1/2+z
_cell_length_a                   16.865(6)
_cell_length_b                   17.396(6)
_cell_length_c                   9.709(3)
_cell_angle_alpha                90
_cell_angle_beta                 106.670(5)
_cell_angle_gamma                90
_cell_volume                     2728.75
_exptl_crystal_colour            colorless
_exptl_crystal_description       cubic
_cell_formula_units_Z            8
loop_
_atom_site_label
_atom_site_type_symbol
_atom_site_fract_x
_atom_site_fract_y
_atom_site_fract_z
O1 O 0.29627(11) 0.70538(9) -0.22257(18)
N1 N 0.27320(14) 0.75665(12) -0.0228(2)
H1 H 0.2958(15) 0.7591(14) 0.0715(18)
N2 N 0.34915(12) 0.64441(12) -0.0114(2)
C1 C 0.22910(15) 0.82204(15) -0.0897(3)
C2 C 0.17664(17) 0.82102(17) -0.2275(3)
H2 H 0.1693 0.7761 -0.2815
C3 C 0.13458(18) 0.8881(2) -0.2854(3)
H3 H 0.1004 0.8882 -0.3795
C4 C 0.1433(2) 0.95327(19) -0.2048(4)
H4 H 0.1139 0.9974 -0.2427
C5 C 0.1947(2) 0.95347(17) -0.0699(4)
H5 H 0.2010 0.9981 -0.0152
C6 C 0.23765(19) 0.88886(16) -0.0126(3)
H6 H 0.2733 0.8903 0.0804
C7 C 0.30596(15) 0.70235(14) -0.0921(3)
C8 C 0.38317(16) 0.58507(14) -0.0849(3)
H7 H 0.4338 0.5653 -0.0193
H8 H 0.3972 0.6081 -0.1658
C9 C 0.32468(17) 0.51935(15) -0.1382(3)
H9 H 0.2733 0.5391 -0.2014
H10 H 0.3122 0.4950 -0.0570
C10 C 0.3598(2) 0.45985(17) -0.2184(4)
H11 H 0.3204 0.4192 -0.2505
H12 H 0.4101 0.4392 -0.1556
H13 H 0.3714 0.4835 -0.2999
C11 C 0.36286(17) 0.63437(15) 0.1435(3)
H14 H 0.3640 0.5799 0.1652
H15 H 0.3169 0.6570 0.1705
C12 C 0.44221(18) 0.67058(18) 0.2315(3)
H16 H 0.4378 0.7260 0.2222
H17 H 0.4873 0.6540 0.1951
C13 C 0.4614(2) 0.6486(2) 0.3899(3)
H18 H 0.5128 0.6716 0.4429
H19 H 0.4656 0.5937 0.3993
H20 H 0.4178 0.6666 0.4271
O2 O 0.18541(12) 0.29026(11) 0.47463(19)
N3 N 0.21719(14) 0.25116(13) 0.7063(2)
H21 H 0.2038(15) 0.2451(15) 0.784(2)
N4 N 0.10634(14) 0.33220(13) 0.6099(2)
C14 C 0.28364(16) 0.20171(16) 0.7038(3)
C15 C 0.33851(18) 0.21729(18) 0.6262(3)
H22 H 0.3323 0.2615 0.5701
C16 C 0.4020(2) 0.1677(2) 0.6319(4)
H23 H 0.4387 0.1786 0.5790
C17 C 0.4130(2) 0.1025(2) 0.7130(4)
H24 H 0.4562 0.0689 0.7147
C18 C 0.3599(2) 0.08760(18) 0.7914(4)
H25 H 0.3675 0.0439 0.8488
C19 C 0.29477(17) 0.13665(17) 0.7867(3)
H26 H 0.2584 0.1255 0.8400
C20 C 0.17074(17) 0.29122(15) 0.5911(3)
C21 C 0.08728(17) 0.34082(16) 0.7462(3)
H27 H 0.0946 0.2917 0.7955
H28 H 0.0297 0.3557 0.7275
C22 C 0.1408(2) 0.39949(19) 0.8418(4)
H29 H 0.1410 0.4462 0.7873
H30 H 0.1971 0.3804 0.8744
C23 C 0.1106(2) 0.4182(2) 0.9726(4)
H31 H 0.1463 0.4561 1.0308
H32 H 0.1116 0.3723 1.0282
H33 H 0.0551 0.4377 0.9408
C24 C 0.05556(19) 0.37637(16) 0.4889(3)
H34 H 0.0877 0.3866 0.4225
H35 H 0.0422 0.4254 0.5241
C25 C -0.02373(18) 0.33707(17) 0.4083(3)
H36 H -0.0582 0.3304 0.4722
H37 H -0.0110 0.2864 0.3786
C26 C -0.0712(2) 0.3818(2) 0.2777(4)
H38 H -0.1215 0.3550 0.2308
H39 H -0.0382 0.3869 0.2126
H40 H -0.0843 0.4319 0.3066
loop_
_geom_bond_atom_site_label_1
_geom_bond_atom_site_label_2
_geom_bond_site_symmetry_1
_geom_bond_site_symmetry_2
O1 C7 1_555 1_555
N1 H1 1_555 1_555
N2 C7 1_555 1_555
C1 N1 1_555 1_555
C2 C1 1_555 1_555
H2 C2 1_555 1_555
C3 C2 1_555 1_555
H3 C3 1_555 1_555
C4 C3 1_555 1_555
H4 C4 1_555 1_555
C5 C4 1_555 1_555
H5 C5 1_555 1_555
C6 C1 1_555 1_555
H6 C6 1_555 1_555
C7 N1 1_555 1_555
C8 N2 1_555 1_555
H7 C8 1_555 1_555
H8 C8 1_555 1_555
C9 C8 1_555 1_555
H9 C9 1_555 1_555
H10 C9 1_555 1_555
C10 C9 1_555 1_555
H11 C10 1_555 1_555
H12 C10 1_555 1_555
H13 C10 1_555 1_555
C11 N2 1_555 1_555
H14 C11 1_555 1_555
H15 C11 1_555 1_555
C12 C11 1_555 1_555
H16 C12 1_555 1_555
H17 C12 1_555 1_555
C13 C12 1_555 1_555
H18 C13 1_555 1_555
H19 C13 1_555 1_555
H20 C13 1_555 1_555
O2 C20 1_555 1_555
N3 H21 1_555 1_555
N4 C20 1_555 1_555
C14 N3 1_555 1_555
C15 C14 1_555 1_555
H22 C15 1_555 1_555
C16 C15 1_555 1_555
H23 C16 1_555 1_555
C17 C16 1_555 1_555
H24 C17 1_555 1_555
C18 C17 1_555 1_555
H25 C18 1_555 1_555
C19 C14 1_555 1_555
H26 C19 1_555 1_555
C20 N3 1_555 1_555
C21 N4 1_555 1_555
H27 C21 1_555 1_555
H28 C21 1_555 1_555
C22 C21 1_555 1_555
H29 C22 1_555 1_555
H30 C22 1_555 1_555
C23 C22 1_555 1_555
H31 C23 1_555 1_555
H32 C23 1_555 1_555
H33 C23 1_555 1_555
C24 N4 1_555 1_555
H34 C24 1_555 1_555
H35 C24 1_555 1_555
C25 C24 1_555 1_555
H36 C25 1_555 1_555
H37 C25 1_555 1_555
C26 C25 1_555 1_555
H38 C26 1_555 1_555
H39 C26 1_555 1_555
H40 C26 1_555 1_555
C5 C6 1_555 1_555
C18 C19 1_555 1_555

#END
