
#######################################################################
#
#                 Cambridge Crystallographic Data Centre
#                                CCDC 
#
#######################################################################
#
# If this CIF has been generated from an entry in the Cambridge 
# Structural Database, then it will include bibliographic, chemical, 
# crystal, experimental, refinement or atomic coordinate data resulting 
# from the CCDC's data processing and validation procedures.
#
#######################################################################

data_OJAHIS01
_chemical_formula_moiety         'C32 H24 B2 F4 N8'
_chemical_name_systematic        
3,3'-(1,4-phenylene)bis(6,6-difluoro-1,5-diphenyl-5,6-dihydro-1,2,4,5-tetrazin-1-ium-6-borate)
_symmetry_cell_setting           triclinic
_symmetry_space_group_name_H-M   'P -1'
_symmetry_Int_Tables_number      2
_space_group_name_Hall           '-P 1'
loop_
_symmetry_equiv_pos_site_id
_symmetry_equiv_pos_as_xyz
1 x,y,z
2 -x,-y,-z
_cell_length_a                   11.5188(11)
_cell_length_b                   14.1771(10)
_cell_length_c                   15.2919(12)
_cell_angle_alpha                65.001(2)
_cell_angle_beta                 69.085(2)
_cell_angle_gamma                82.791(3)
_cell_volume                     2113.19
_exptl_crystal_colour            red
_exptl_crystal_description       plate
_cell_formula_units_Z            3
loop_
_atom_site_label
_atom_site_type_symbol
_atom_site_fract_x
_atom_site_fract_y
_atom_site_fract_z
F1 F 0.48125(15) 0.82702(13) 0.10120(12)
N1 N 0.5994(2) 0.74615(17) 0.29226(17)
N2 N 0.4753(2) 0.93864(18) 0.78458(18)
N3 N 0.6825(2) 0.91452(18) 0.63496(18)
C1 C 0.7004(3) 0.6931(2) 0.1613(2)
N4 N 0.6987(2) 0.93293(18) 0.70735(19)
N5 N 0.5892(2) 0.72744(17) 0.21869(17)
C2 C 0.5468(3) 0.8604(2) 0.5750(2)
C3 C 0.5149(3) 0.8015(2) 0.4305(2)
N6 N 0.4630(2) 0.91647(18) 0.71239(18)
C4 C 0.4975(3) 0.7737(2) 0.3528(2)
C5 C 0.5652(3) 0.8947(2) 0.6486(2)
N7 N 0.3814(2) 0.77480(17) 0.35265(17)
C6 C 0.6426(3) 0.8167(2) 0.5195(2)
H1 H 0.7202 0.8064 0.5306
C7 C 0.4340(3) 0.8722(2) 0.5586(2)
H2 H 0.3666 0.9009 0.5964
C8 C 0.2361(3) 0.7477(2) 0.2927(2)
C9 C 0.7144(3) 0.7054(2) 0.0629(2)
H3 H 0.6504 0.7352 0.0347
N8 N 0.3641(2) 0.75618(17) 0.28138(17)
C10 C 0.6273(3) 0.7881(2) 0.4486(2)
H4 H 0.6945 0.7586 0.4115
C11 C 0.3673(3) 0.9798(2) 0.8374(2)
C12 C 0.4181(3) 0.8428(2) 0.4877(2)
H5 H 0.3397 0.8510 0.4783
C13 C 0.2718(3) 1.0175(2) 0.7972(2)
H6 H 0.2783 1.0168 0.7337
C14 C 0.1572(3) 1.0565(2) 0.9418(2)
H7 H 0.0852 1.0834 0.9774
C15 C 0.3564(3) 0.9801(2) 0.9313(2)
H8 H 0.4210 0.9542 0.9596
C16 C 0.7939(3) 0.6498(2) 0.2020(2)
H9 H 0.7842 0.6409 0.2694
C17 C 0.8211(3) 0.9696(2) 0.6850(2)
C18 C 0.1684(3) 1.0555(2) 0.8494(2)
H10 H 0.1034 1.0816 0.8216
C19 C 0.9163(3) 0.6314(2) 0.0466(2)
H11 H 0.9905 0.6104 0.0071
C20 C 0.2514(3) 1.0183(2) 0.9822(2)
H12 H 0.2435 1.0184 1.0462
C21 C 0.2063(3) 0.7702(2) 0.2056(2)
H13 H 0.2694 0.7919 0.1401
C22 C 0.1454(3) 0.7157(2) 0.3880(2)
H14 H 0.1663 0.7007 0.4472
C23 C -0.0071(3) 0.7284(2) 0.3105(3)
H15 H -0.0911 0.7218 0.3168
C24 C 0.8693(3) 0.9322(2) 0.7634(2)
H16 H 0.8218 0.8855 0.8302
C25 C 0.8221(3) 0.6740(3) 0.0068(2)
H17 H 0.8317 0.6818 -0.0602
C26 C 0.0233(3) 0.7055(3) 0.3967(3)
H18 H -0.0398 0.6827 0.4623
C27 C 1.0572(3) 1.0326(3) 0.6476(3)
H19 H 1.1387 1.0541 0.6346
C28 C 0.9891(3) 0.9643(3) 0.7426(3)
H20 H 1.0241 0.9381 0.7958
C29 C 0.9011(3) 0.6196(2) 0.1442(2)
H21 H 0.9655 0.5902 0.1721
C30 C 1.0062(3) 1.0709(3) 0.5693(3)
H22 H 1.0532 1.1187 0.5028
C31 C 0.8870(3) 1.0393(2) 0.5880(3)
H23 H 0.8517 1.0653 0.5350
C32 C 0.0840(3) 0.7607(2) 0.2155(3)
H24 H 0.0626 0.7765 0.1563
B1 B 0.4686(3) 0.7410(3) 0.1913(3)
B2 B 0.5960(3) 0.9107(3) 0.8116(3)
F2 F 0.61674(16) 0.97274(16) 0.85374(14)
F3 F 0.59173(16) 0.80661(15) 0.87457(13)
F4 F 0.44343(15) 0.65194(13) 0.18471(13)
F5 F 0.15820(16) 0.80082(14) 0.65566(14)
N9 N 0.3379(2) 0.60323(19) 0.69493(19)
N10 N 0.1061(2) 0.63393(19) 0.67464(18)
F6 F 0.04366(17) 0.68822(17) 0.81387(14)
N11 N 0.2548(2) 0.64928(19) 0.74845(18)
N12 N 0.1933(3) 0.59129(19) 0.62060(18)
C33 C 0.4055(3) 0.5424(2) 0.5607(2)
C34 C 0.3073(3) 0.5872(2) 0.6252(2)
C35 C -0.1124(3) 0.6800(2) 0.7132(2)
H25 H -0.0931 0.7375 0.7228
C36 C -0.2628(3) 0.5756(3) 0.7132(3)
H26 H -0.3466 0.5605 0.7252
C37 C -0.0189(3) 0.6164(2) 0.6839(2)
C38 C 0.2812(3) 0.6458(3) 0.8347(2)
C39 C -0.1694(3) 0.5166(3) 0.6810(3)
H27 H -0.1883 0.4615 0.6680
C40 C 0.3834(3) 0.5149(2) 0.4910(2)
H28 H 0.3037 0.5249 0.4837
C41 C -0.2330(3) 0.6590(3) 0.7283(3)
H29 H -0.2972 0.7019 0.7493
C42 C 0.5239(3) 0.5271(2) 0.5681(2)
H30 H 0.5415 0.5459 0.6148
C43 C 0.2436(3) 0.7261(3) 0.8666(2)
H31 H 0.2039 0.7845 0.8301
C44 C -0.0468(3) 0.5348(2) 0.6666(2)
H32 H 0.0171 0.4919 0.6452
C45 C 0.2645(3) 0.7202(3) 0.9517(3)
H33 H 0.2410 0.7759 0.9729
C46 C 0.3366(4) 0.5598(3) 0.8881(3)
H34 H 0.3624 0.5051 0.8655
C47 C 0.3184(4) 0.6356(3) 1.0062(3)
H35 H 0.3316 0.6322 1.0653
C48 C 0.3541(5) 0.5543(3) 0.9750(3)
H36 H 0.3906 0.4948 1.0135
B3 B 0.1364(4) 0.6978(3) 0.7243(3)
F5A F 0.84180(16) 0.19918(14) 0.34434(14)
N9A N 0.6621(2) 0.39677(19) 0.30507(19)
N10A N 0.8939(2) 0.36607(19) 0.32536(18)
F6A F 0.95634(17) 0.31178(17) 0.18613(14)
N11A N 0.7452(2) 0.35072(19) 0.25155(18)
N12A N 0.8067(3) 0.40871(19) 0.37940(18)
C33A C 0.5945(3) 0.4576(2) 0.4393(2)
C34A C 0.6927(3) 0.4128(2) 0.3748(2)
C35A C 1.1124(3) 0.3200(2) 0.2868(2)
H25A H 1.0931 0.2625 0.2772
C36A C 1.2628(3) 0.4244(3) 0.2868(3)
H26A H 1.3466 0.4395 0.2748
C37A C 1.0189(3) 0.3836(2) 0.3161(2)
C38A C 0.7188(3) 0.3542(3) 0.1653(2)
C39A C 1.1694(3) 0.4834(3) 0.3190(3)
H27A H 1.1883 0.5385 0.3320
C40A C 0.6166(3) 0.4851(2) 0.5090(2)
H28A H 0.6963 0.4751 0.5163
C41A C 1.2330(3) 0.3410(3) 0.2717(3)
H29A H 1.2972 0.2981 0.2507
C42A C 0.4761(3) 0.4729(2) 0.4319(2)
H30A H 0.4585 0.4541 0.3852
C43A C 0.7564(3) 0.2739(3) 0.1334(2)
H31A H 0.7961 0.2155 0.1699
C44A C 1.0468(3) 0.4652(2) 0.3334(2)
H32A H 0.9829 0.5081 0.3548
C45A C 0.7355(3) 0.2798(3) 0.0483(3)
H33A H 0.7590 0.2241 0.0271
C46A C 0.6634(4) 0.4402(3) 0.1119(3)
H34A H 0.6376 0.4949 0.1345
C47A C 0.6816(4) 0.3644(3) -0.0062(3)
H35A H 0.6684 0.3678 -0.0653
C48A C 0.6459(5) 0.4457(3) 0.0250(3)
H36A H 0.6094 0.5052 -0.0135
B3A B 0.8636(4) 0.3022(3) 0.2757(3)
loop_
_geom_bond_atom_site_label_1
_geom_bond_atom_site_label_2
_geom_bond_site_symmetry_1
_geom_bond_site_symmetry_2
F1 B1 1_555 1_555
N1 N5 1_555 1_555
N2 N6 1_555 1_555
N3 N4 1_555 1_555
C1 N5 1_555 1_555
N4 C17 1_555 1_555
N5 B1 1_555 1_555
C2 C5 1_555 1_555
C3 C4 1_555 1_555
N6 C5 1_555 1_555
C4 N1 1_555 1_555
C5 N3 1_555 1_555
N7 C4 1_555 1_555
C6 C2 1_555 1_555
H1 C6 1_555 1_555
C7 C2 1_555 1_555
H2 C7 1_555 1_555
C8 N8 1_555 1_555
C9 C1 1_555 1_555
H3 C9 1_555 1_555
N8 N7 1_555 1_555
C10 C3 1_555 1_555
H4 C10 1_555 1_555
C11 N2 1_555 1_555
C12 C3 1_555 1_555
H5 C12 1_555 1_555
C13 C11 1_555 1_555
H6 C13 1_555 1_555
C14 H7 1_555 1_555
C15 C11 1_555 1_555
H8 C15 1_555 1_555
C16 C1 1_555 1_555
H9 C16 1_555 1_555
C17 C24 1_555 1_555
C18 C13 1_555 1_555
H10 C18 1_555 1_555
C19 H11 1_555 1_555
C20 C14 1_555 1_555
H12 C20 1_555 1_555
C21 C8 1_555 1_555
H13 C21 1_555 1_555
C22 C8 1_555 1_555
H14 C22 1_555 1_555
C23 H15 1_555 1_555
C24 H16 1_555 1_555
C25 C9 1_555 1_555
H17 C25 1_555 1_555
C26 C22 1_555 1_555
H18 C26 1_555 1_555
C27 H19 1_555 1_555
C28 C24 1_555 1_555
H20 C28 1_555 1_555
C29 C16 1_555 1_555
H21 C29 1_555 1_555
C30 C27 1_555 1_555
H22 C30 1_555 1_555
C31 C17 1_555 1_555
H23 C31 1_555 1_555
C32 C21 1_555 1_555
H24 C32 1_555 1_555
B1 N8 1_555 1_555
B2 N2 1_555 1_555
F2 B2 1_555 1_555
F3 B2 1_555 1_555
F4 B1 1_555 1_555
F5 B3 1_555 1_555
N9 N11 1_555 1_555
N10 N12 1_555 1_555
F6 B3 1_555 1_555
N11 C38 1_555 1_555
N12 C34 1_555 1_555
C33 C34 1_555 1_555
C34 N9 1_555 1_555
C35 H25 1_555 1_555
C36 H26 1_555 1_555
C37 N10 1_555 1_555
C38 C43 1_555 1_555
C39 C36 1_555 1_555
H27 C39 1_555 1_555
C40 C33 1_555 1_555
H28 C40 1_555 1_555
C41 C35 1_555 1_555
H29 C41 1_555 1_555
C42 C33 1_555 1_555
H30 C42 1_555 1_555
C43 H31 1_555 1_555
C44 C37 1_555 1_555
H32 C44 1_555 1_555
C45 C43 1_555 1_555
H33 C45 1_555 1_555
C46 C38 1_555 1_555
H34 C46 1_555 1_555
C47 C45 1_555 1_555
H35 C47 1_555 1_555
C48 C46 1_555 1_555
H36 C48 1_555 1_555
B3 N10 1_555 1_555
F5A B3A 1_555 1_555
N9A N11A 1_555 1_555
N10A N12A 1_555 1_555
F6A B3A 1_555 1_555
N11A C38A 1_555 1_555
N12A C34A 1_555 1_555
C33A C34A 1_555 1_555
C34A N9A 1_555 1_555
C35A H25A 1_555 1_555
C36A H26A 1_555 1_555
C37A N10A 1_555 1_555
C38A C43A 1_555 1_555
C39A C36A 1_555 1_555
H27A C39A 1_555 1_555
C40A C42 1_555 1_555
H28A C40A 1_555 1_555
C41A C35A 1_555 1_555
H29A C41A 1_555 1_555
C42A C40 1_555 1_555
H30A C42A 1_555 1_555
C43A H31A 1_555 1_555
C44A C37A 1_555 1_555
H32A C44A 1_555 1_555
C45A C43A 1_555 1_555
H33A C45A 1_555 1_555
C46A C38A 1_555 1_555
H34A C46A 1_555 1_555
C47A C45A 1_555 1_555
H35A C47A 1_555 1_555
C48A C46A 1_555 1_555
H36A C48A 1_555 1_555
B3A N10A 1_555 1_555
N4 B2 1_555 1_555
C6 C10 1_555 1_555
C7 C12 1_555 1_555
C14 C18 1_555 1_555
C15 C20 1_555 1_555
C19 C25 1_555 1_555
C19 C29 1_555 1_555
C23 C26 1_555 1_555
C23 C32 1_555 1_555
C27 C28 1_555 1_555
C30 C31 1_555 1_555
N11 B3 1_555 1_555
C35 C37 1_555 1_555
C36 C41 1_555 1_555
C39 C44 1_555 1_555
C47 C48 1_555 1_555
N11A B3A 1_555 1_555
C33A C40A 1_555 1_555
C33A C42A 1_555 1_555
C35A C37A 1_555 1_555
C36A C41A 1_555 1_555
C39A C44A 1_555 1_555
C47A C48A 1_555 1_555

#END
