
#######################################################################
#
#                 Cambridge Crystallographic Data Centre
#                                CCDC 
#
#######################################################################
#
# If this CIF has been generated from an entry in the Cambridge 
# Structural Database, then it will include bibliographic, chemical, 
# crystal, experimental, refinement or atomic coordinate data resulting 
# from the CCDC's data processing and validation procedures.
#
#######################################################################

data_OJAJOA
_chemical_name_common            
1'-(prop-2-yn-1-yl)-1,4-dihydrospiro[3,1-benzoxazine-2,3'-indol]-2'(1'H)-one
_chemical_formula_moiety         'C18 H14 N2 O2'
_chemical_name_systematic        
1'-(prop-2-yn-1-yl)-1,4-dihydrospiro[benzo[d][1,3]oxazine-2,3'-indolin]-2'-one
_symmetry_cell_setting           triclinic
_symmetry_space_group_name_H-M   'P -1'
_symmetry_Int_Tables_number      2
_space_group_name_Hall           '-P 1'
loop_
_symmetry_equiv_pos_site_id
_symmetry_equiv_pos_as_xyz
1 x,y,z
2 -x,-y,-z
_cell_length_a                   5.5571(3)
_cell_length_b                   8.5404(4)
_cell_length_c                   15.4542(9)
_cell_angle_alpha                85.884(3)
_cell_angle_beta                 86.814(3)
_cell_angle_gamma                74.125(3)
_cell_volume                     703.167
_exptl_crystal_colour            colorless
_exptl_crystal_description       block
_cell_formula_units_Z            2
loop_
_atom_site_label
_atom_site_type_symbol
_atom_site_fract_x
_atom_site_fract_y
_atom_site_fract_z
O1 O 0.44655(19) 0.31187(12) 0.35868(6)
N1 N 0.6584(2) 0.48707(15) 0.28492(8)
H1 H 0.7953 0.4869 0.2560
O2 O 0.14706(18) 0.52580(13) 0.21423(7)
N2 N 0.3795(2) 0.29626(15) 0.15105(8)
C1 C 0.7141(3) 0.21178(17) 0.23854(9)
C2 C 0.3552(3) 0.59601(17) 0.39673(9)
C3 C 0.5492(2) 0.61191(17) 0.33911(9)
C4 C 0.5434(2) 0.35940(17) 0.27729(9)
C5 C 0.6337(3) 0.75102(18) 0.33677(10)
H2 H 0.7673 0.7600 0.2996
C6 C 0.3291(2) 0.40839(17) 0.21203(9)
C7 C 0.2756(3) 0.44185(18) 0.40275(10)
H3 H 0.2598 0.4071 0.4635
H4 H 0.1120 0.4635 0.3782
C8 C 0.2424(3) 0.7231(2) 0.44848(10)
H5 H 0.1106 0.7142 0.4865
C9 C 0.6078(3) 0.17761(17) 0.16557(9)
C10 C 0.5198(3) 0.87512(19) 0.38939(11)
H6 H 0.5767 0.9681 0.3877
C11 C 0.3297(3) 0.31873(19) -0.00454(11)
C12 C 0.2147(3) 0.2998(2) 0.08103(10)
H7 H 0.0651 0.3894 0.0879
H8 H 0.1641 0.1994 0.0851
C13 C 0.9381(3) 0.11227(19) 0.26579(10)
H9 H 1.0113 0.1349 0.3144
C14 C 0.3219(3) 0.8629(2) 0.44470(11)
H10 H 0.2425 0.9483 0.4792
C15 C 0.9441(3) -0.05574(19) 0.14768(12)
H11 H 1.0233 -0.1477 0.1177
C16 C 0.7189(3) 0.04466(19) 0.11901(11)
H12 H 0.6462 0.0227 0.0701
C17 C 1.0533(3) -0.0227(2) 0.21942(12)
H13 H 1.2056 -0.0915 0.2369
C18 C 0.4183(4) 0.3288(2) -0.07400(13)
H14 H 0.4891 0.3368 -0.1295
loop_
_geom_bond_atom_site_label_1
_geom_bond_atom_site_label_2
_geom_bond_site_symmetry_1
_geom_bond_site_symmetry_2
O1 C4 1_555 1_555
N1 H1 1_555 1_555
O2 C6 1_555 1_555
N2 C6 1_555 1_555
C1 C4 1_555 1_555
C2 C3 1_555 1_555
C3 N1 1_555 1_555
C4 N1 1_555 1_555
C5 C3 1_555 1_555
H2 C5 1_555 1_555
C6 C4 1_555 1_555
C7 O1 1_555 1_555
H3 C7 1_555 1_555
H4 C7 1_555 1_555
C8 C2 1_555 1_555
H5 C8 1_555 1_555
C9 N2 1_555 1_555
C10 C5 1_555 1_555
H6 C10 1_555 1_555
C11 C12 1_555 1_555
C12 N2 1_555 1_555
H7 C12 1_555 1_555
H8 C12 1_555 1_555
C13 C1 1_555 1_555
H9 C13 1_555 1_555
C14 C8 1_555 1_555
H10 C14 1_555 1_555
C15 H11 1_555 1_555
C16 C9 1_555 1_555
H12 C16 1_555 1_555
C17 C13 1_555 1_555
H13 C17 1_555 1_555
C18 C11 1_555 1_555
H14 C18 1_555 1_555
C1 C9 1_555 1_555
C2 C7 1_555 1_555
C10 C14 1_555 1_555
C15 C16 1_555 1_555
C15 C17 1_555 1_555

#END
