
#######################################################################
#
#                 Cambridge Crystallographic Data Centre
#                                CCDC 
#
#######################################################################
#
# If this CIF has been generated from an entry in the Cambridge 
# Structural Database, then it will include bibliographic, chemical, 
# crystal, experimental, refinement or atomic coordinate data resulting 
# from the CCDC's data processing and validation procedures.
#
#######################################################################

data_OJANUJ
_chemical_formula_moiety         'C19 H19 F1 N2'
_chemical_name_systematic        
3-(4-t-Butylphenyl)-5-(4-fluorophenyl)-1H-pyrazole
_symmetry_cell_setting           monoclinic
_symmetry_space_group_name_H-M   'C 2/c'
_symmetry_Int_Tables_number      15
_space_group_name_Hall           '-C 2yn'
loop_
_symmetry_equiv_pos_site_id
_symmetry_equiv_pos_as_xyz
1 x,y,z
2 -x,y,1/2-z
3 1/2+x,1/2+y,z
4 1/2-x,1/2+y,1/2-z
5 -x,-y,-z
6 x,-y,1/2+z
7 1/2-x,1/2-y,-z
8 1/2+x,1/2-y,1/2+z
_cell_length_a                   19.9638(7)
_cell_length_b                   17.7081(6)
_cell_length_c                   9.7166(3)
_cell_angle_alpha                90
_cell_angle_beta                 110.4120(10)
_cell_angle_gamma                90
_cell_volume                     3219.33
_exptl_crystal_colour            colorless
_exptl_crystal_description       block
_chemical_melting_point          '209-210 deg.C'
_cell_formula_units_Z            8
loop_
_atom_site_label
_atom_site_type_symbol
_atom_site_fract_x
_atom_site_fract_y
_atom_site_fract_z
C1 C 0.13985(12) 1.28148(11) 0.5965(2)
C2 C 0.15687(10) 1.23278(11) 0.5054(2)
H1 H 0.1749 1.2504 0.4351
C3 C 0.14659(9) 1.15633(10) 0.52041(19)
H2 H 0.1583 1.1222 0.4596
C4 C 0.11931(8) 1.12956(9) 0.62354(17)
C5 C 0.10339(10) 1.18179(11) 0.71441(19)
H3 H 0.0858 1.1650 0.7860
C6 C 0.11317(11) 1.25790(11) 0.7003(2)
H4 H 0.1018 1.2926 0.7606
C7 C 0.10609(8) 1.04860(9) 0.63567(17)
C8 C 0.13632(9) 0.98498(10) 0.59892(19)
H5 H 0.1723 0.9838 0.5588
C9 C 0.10235(8) 0.92309(9) 0.63373(17)
C10 C 0.11152(8) 0.84117(9) 0.62135(16)
C11 C 0.17542(9) 0.81020(10) 0.6247(2)
H6 H 0.2141 0.8418 0.6345
C12 C 0.18310(9) 0.73315(10) 0.6136(2)
H7 H 0.2268 0.7142 0.6150
C13 C 0.12789(9) 0.68342(9) 0.60052(17)
C14 C 0.06442(10) 0.71519(10) 0.5996(2)
H8 H 0.0261 0.6836 0.5921
C15 C 0.05597(9) 0.79182(11) 0.6093(2)
H9 H 0.0123 0.8108 0.6077
C16 C 0.13527(11) 0.59777(10) 0.5920(2)
C17 C 0.20110(11) 0.57478(12) 0.5554(3)
H10 H 0.2435 0.5919 0.6317
H11 H 0.1985 0.5972 0.4637
H12 H 0.2025 0.5208 0.5476
C18 C 0.1410(3) 0.56397(15) 0.7385(3)
H13 H 0.1799 0.5873 0.8149
H14 H 0.1496 0.5107 0.7373
H15 H 0.0973 0.5725 0.7564
C19 C 0.07134(13) 0.56482(14) 0.4699(3)
H16 H 0.0750 0.5108 0.4711
H17 H 0.0707 0.5836 0.3768
H18 H 0.0281 0.5793 0.4849
F1 F 0.14969(8) 1.35682(7) 0.58321(16)
N1 N 0.05615(8) 1.02564(9) 0.68935(17)
H19 H 0.0222(14) 1.0479(18) 0.707(4)
N2 N 0.05385(8) 0.94939(9) 0.68742(17)
H20? H 0.0291(17) 0.9290(18) 0.734(4)
loop_
_geom_bond_atom_site_label_1
_geom_bond_atom_site_label_2
_geom_bond_site_symmetry_1
_geom_bond_site_symmetry_2
C1 C2 1_555 1_555
C2 H1 1_555 1_555
C3 C2 1_555 1_555
H2 C3 1_555 1_555
C4 C3 1_555 1_555
C5 C4 1_555 1_555
H3 C5 1_555 1_555
C6 C1 1_555 1_555
H4 C6 1_555 1_555
C7 C4 1_555 1_555
C8 C7 1_555 1_555
H5 C8 1_555 1_555
C9 C8 1_555 1_555
C10 C9 1_555 1_555
C11 C10 1_555 1_555
H6 C11 1_555 1_555
C12 C11 1_555 1_555
H7 C12 1_555 1_555
C13 C12 1_555 1_555
C14 C13 1_555 1_555
H8 C14 1_555 1_555
C15 C10 1_555 1_555
H9 C15 1_555 1_555
C16 C13 1_555 1_555
C17 C16 1_555 1_555
H10 C17 1_555 1_555
H11 C17 1_555 1_555
H12 C17 1_555 1_555
C18 C16 1_555 1_555
H13 C18 1_555 1_555
H14 C18 1_555 1_555
H15 C18 1_555 1_555
C19 C16 1_555 1_555
H16 C19 1_555 1_555
H17 C19 1_555 1_555
H18 C19 1_555 1_555
F1 C1 1_555 1_555
N1 C7 1_555 1_555
H19 N1 1_555 1_555
N2 C9 1_555 1_555
C5 C6 1_555 1_555
C14 C15 1_555 1_555
N1 N2 1_555 1_555

#END
