
#######################################################################
#
#                 Cambridge Crystallographic Data Centre
#                                CCDC 
#
#######################################################################
#
# If this CIF has been generated from an entry in the Cambridge 
# Structural Database, then it will include bibliographic, chemical, 
# crystal, experimental, refinement or atomic coordinate data resulting 
# from the CCDC's data processing and validation procedures.
#
#######################################################################

data_OJECEN
_chemical_formula_moiety         'C8 H14 N2 O5'
_chemical_name_systematic        
3-hydroxy-2-(((4-hydroxypyrrolidinium-2-yl)carbonyl)amino)propanoate
_symmetry_cell_setting           monoclinic
_symmetry_space_group_name_H-M   'P 21'
_symmetry_Int_Tables_number      4
_space_group_name_Hall           'P 2yb'
loop_
_symmetry_equiv_pos_site_id
_symmetry_equiv_pos_as_xyz
1 x,y,z
2 -x,1/2+y,-z
_cell_length_a                   4.7233(3)
_cell_length_b                   9.3645(5)
_cell_length_c                   10.7436(6)
_cell_angle_alpha                90
_cell_angle_beta                 92.624(4)
_cell_angle_gamma                90
_cell_volume                     474.706
_cell_formula_units_Z            2
loop_
_atom_site_label
_atom_site_type_symbol
_atom_site_fract_x
_atom_site_fract_y
_atom_site_fract_z
N1 N 0.79243(17) 0.77135(10) 0.96267(8)
C1 C 0.9158(2) 0.89307(11) 1.15630(9)
C2 C 0.73671(18) 0.72020(11) 0.74386(8)
H1 H 0.9441 0.7246 0.7516
C3 C 0.70983(19) 0.78858(11) 1.09069(9)
H2 H 0.5198 0.8307 1.0891
C4 C 0.6591(2) 0.77016(12) 0.52649(9)
H3 H 0.5327 0.8158 0.4635
C5 C 0.5764(2) 0.61439(11) 0.54504(9)
H4 H 0.3763 0.6003 0.5244
H5 H 0.6850 0.5523 0.4929
C6 C 0.6988(2) 0.64402(12) 1.15658(10)
H6 H 0.6463 0.6586 1.2419
H7 H 0.5538 0.5853 1.1152
C7 C 0.6221(2) 0.83596(12) 0.65472(9)
H8 H 0.4242 0.8559 0.6679
H9 H 0.7302 0.9236 0.6648
O1 O 0.35838(15) 0.70348(10) 0.88284(7)
O2 O 0.87669(16) 0.91782(8) 1.27225(7)
O3 O 1.10398(16) 0.95009(9) 1.09703(7)
O4 O 0.94666(16) 0.78124(10) 0.49372(7)
H10 H 0.9530 0.8116 0.4223
O5 O 0.9624(2) 0.57106(10) 1.15679(9)
N2 N 0.64266(17) 0.58344(10) 0.68101(7)
H11 H 0.4877 0.5492 0.7165
H12 H 0.7809 0.5175 0.6891
C8 C 0.6125(2) 0.72914(11) 0.87165(9)
H13 H 0.964(3) 0.7754(18) 0.9475(15)
H14 H 0.943(6) 0.534(3) 1.083(3)
loop_
_geom_bond_atom_site_label_1
_geom_bond_atom_site_label_2
_geom_bond_site_symmetry_1
_geom_bond_site_symmetry_2
N1 C3 1_555 1_555
C1 C3 1_555 1_555
C2 H1 1_555 1_555
C3 H2 1_555 1_555
C4 H3 1_555 1_555
C5 C4 1_555 1_555
H4 C5 1_555 1_555
H5 C5 1_555 1_555
C6 C3 1_555 1_555
H6 C6 1_555 1_555
H7 C6 1_555 1_555
C7 C2 1_555 1_555
H8 C7 1_555 1_555
H9 C7 1_555 1_555
O1 C8 1_555 1_555
O2 C1 1_555 1_555
O3 C1 1_555 1_555
O4 C4 1_555 1_555
H10 O4 1_555 1_555
O5 C6 1_555 1_555
N2 C2 1_555 1_555
H11 N2 1_555 1_555
H12 N2 1_555 1_555
C8 N1 1_555 1_555
H13 N1 1_555 1_555
H14 O5 1_555 1_555
C2 C8 1_555 1_555
C4 C7 1_555 1_555
C5 N2 1_555 1_555

#END
