
#######################################################################
#
#                 Cambridge Crystallographic Data Centre
#                                CCDC 
#
#######################################################################
#
# If this CIF has been generated from an entry in the Cambridge 
# Structural Database, then it will include bibliographic, chemical, 
# crystal, experimental, refinement or atomic coordinate data resulting 
# from the CCDC's data processing and validation procedures.
#
#######################################################################

data_OJEFOA
_chemical_formula_moiety         'C24 H24 N2 O2'
_chemical_name_systematic        
'ethyl 4-methyl-6-(4-methylphenyl)-2-(2-(4-methylphenyl)vinyl)pyrimidine-5-carboxylate'
_symmetry_cell_setting           triclinic
_symmetry_space_group_name_H-M   'P -1'
_symmetry_Int_Tables_number      2
_space_group_name_Hall           '-P 1'
loop_
_symmetry_equiv_pos_site_id
_symmetry_equiv_pos_as_xyz
1 x,y,z
2 -x,-y,-z
_cell_length_a                   7.8781(10)
_cell_length_b                   10.506(3)
_cell_length_c                   13.185(3)
_cell_angle_alpha                95.00(2)
_cell_angle_beta                 99.928(14)
_cell_angle_gamma                101.268(16)
_cell_volume                     1045.94
_exptl_crystal_colour            'light colorless'
_exptl_crystal_description       block
_cell_formula_units_Z            2
loop_
_atom_site_label
_atom_site_type_symbol
_atom_site_fract_x
_atom_site_fract_y
_atom_site_fract_z
N1 N 0.4346(4) 0.9378(4) 0.7252(3)
C1 C 0.5915(5) 1.0187(4) 0.7327(3)
N2 N 0.4703(4) 0.8304(4) 0.5649(3)
C2 C 0.3789(5) 0.8481(5) 0.6412(4)
C3 C 0.6972(5) 1.0043(5) 0.6597(4)
C4 C 0.2076(5) 0.7613(5) 0.6303(4)
H1 H 0.1726 0.6952 0.5745
C5 C 0.0985(6) 0.7703(5) 0.6948(4)
H2 H 0.1373 0.8381 0.7492
C6 C 0.6420(5) 1.1249(5) 0.8206(4)
O1 O 0.9726(4) 1.0743(3) 0.7668(3)
C7 C 0.6299(6) 0.9082(5) 0.5745(4)
C8 C -0.1810(6) 0.7229(5) 0.7581(4)
H3 H -0.1383 0.7969 0.8066
C9 C -0.0757(5) 0.6878(5) 0.6922(4)
C10 C -0.1460(6) 0.5768(5) 0.6212(4)
H4 H -0.0782 0.5506 0.5754
C11 C -0.3496(6) 0.6500(5) 0.7535(4)
H5 H -0.4171 0.6755 0.7997
C12 C -0.3157(6) 0.5033(5) 0.6165(4)
H6 H -0.3590 0.4285 0.5688
C13 C 0.7374(6) 1.3532(5) 0.8853(5)
H7 H 0.7703 1.4392 0.8721
C14 C -0.4188(6) 0.5417(5) 0.6828(4)
C15 C -0.6036(5) 0.4624(5) 0.6779(4)
H8 H -0.5990 0.3973 0.7245
H9 H -0.6515 0.4205 0.6084
H10 H -0.6770 0.5193 0.6978
C16 C 0.6355(5) 1.0984(5) 0.9205(4)
H11 H 0.6004 1.0126 0.9334
C17 C 0.7331(6) 0.8850(5) 0.4910(4)
H12 H 0.8255 0.8420 0.5172
H13 H 0.7838 0.9673 0.4706
H14 H 0.6559 0.8310 0.4321
C18 C 0.8801(6) 1.0876(5) 0.6749(5)
C19 C 0.6811(6) 1.1990(6) 1.0018(4)
H15 H 0.6779 1.1792 1.0689
C20 C 0.7313(6) 1.3278(6) 0.9858(5)
O2 O 0.9340(4) 1.1571(4) 0.6148(3)
C21 C 0.6954(5) 1.2533(5) 0.8043(4)
H16 H 0.7033 1.2727 0.7375
C22 C 1.1447(6) 1.1624(6) 0.7998(5)
H17 H 1.1421 1.2467 0.7757
H18 H 1.2336 1.1263 0.7716
C23 C 0.7770(8) 1.4351(6) 1.0738(5)
H19 H 0.8719 1.4203 1.1245
H20 H 0.6759 1.4369 1.1049
H21 H 0.8129 1.5172 1.0486
C24 C 1.1849(7) 1.1766(7) 0.9131(6)
H22 H 1.1951 1.0936 0.9359
H23 H 1.0919 1.2067 0.9399
H24 H 1.2942 1.2389 0.9381
loop_
_geom_bond_atom_site_label_1
_geom_bond_atom_site_label_2
_geom_bond_site_symmetry_1
_geom_bond_site_symmetry_2
N1 C1 1_555 1_555
C1 C3 1_555 1_555
N2 C2 1_555 1_555
C2 N1 1_555 1_555
C3 C7 1_555 1_555
C4 C2 1_555 1_555
H1 C4 1_555 1_555
C5 C4 1_555 1_555
H2 C5 1_555 1_555
C6 C1 1_555 1_555
O1 C18 1_555 1_555
C7 N2 1_555 1_555
C8 H3 1_555 1_555
C9 C5 1_555 1_555
C10 C9 1_555 1_555
H4 C10 1_555 1_555
C11 C8 1_555 1_555
H5 C11 1_555 1_555
C12 C10 1_555 1_555
H6 C12 1_555 1_555
C13 H7 1_555 1_555
C14 C11 1_555 1_555
C15 C14 1_555 1_555
H8 C15 1_555 1_555
H9 C15 1_555 1_555
H10 C15 1_555 1_555
C16 C6 1_555 1_555
H11 C16 1_555 1_555
C17 C7 1_555 1_555
H12 C17 1_555 1_555
H13 C17 1_555 1_555
H14 C17 1_555 1_555
C18 C3 1_555 1_555
C19 C16 1_555 1_555
H15 C19 1_555 1_555
C20 C13 1_555 1_555
O2 C18 1_555 1_555
C21 C6 1_555 1_555
H16 C21 1_555 1_555
C22 O1 1_555 1_555
H17 C22 1_555 1_555
H18 C22 1_555 1_555
C23 C20 1_555 1_555
H19 C23 1_555 1_555
H20 C23 1_555 1_555
H21 C23 1_555 1_555
C24 C22 1_555 1_555
H22 C24 1_555 1_555
H23 C24 1_555 1_555
H24 C24 1_555 1_555
C8 C9 1_555 1_555
C12 C14 1_555 1_555
C13 C21 1_555 1_555
C19 C20 1_555 1_555

#END
