
#######################################################################
#
#                 Cambridge Crystallographic Data Centre
#                                CCDC 
#
#######################################################################
#
# If this CIF has been generated from an entry in the Cambridge 
# Structural Database, then it will include bibliographic, chemical, 
# crystal, experimental, refinement or atomic coordinate data resulting 
# from the CCDC's data processing and validation procedures.
#
#######################################################################

data_OJEGUH
_chemical_formula_moiety         'C44 H24 N4 O4,0.15(H2 O1),1.1(C1 H4 O1)'
_chemical_name_systematic        
'25,30-diphenyl-11,34,35,36-tetraazaoctacyclo[29.2.1.1^21,24^.1^26,29^.0^2,10^.0^3,8^.0^12,20^.0^14,19^]hexatriaconta-1,3,5,7,10,12(20),14,16,18,21,23,25,29(35),30,32-pentadecaene-9,13,27,28-tetrone methanol solvate hydrate'
_symmetry_cell_setting           tetragonal
_symmetry_space_group_name_H-M   'I -4'
_symmetry_Int_Tables_number      82
_space_group_name_Hall           'I -4'
loop_
_symmetry_equiv_pos_site_id
_symmetry_equiv_pos_as_xyz
1 x,y,z
2 -x,-y,z
3 y,-x,-z
4 -y,x,-z
5 1/2+x,1/2+y,1/2+z
6 1/2-x,1/2-y,1/2+z
7 1/2+y,1/2-x,1/2-z
8 1/2-y,1/2+x,1/2-z
_cell_length_a                   29.723(3)
_cell_length_b                   29.723(3)
_cell_length_c                   7.7359(10)
_cell_angle_alpha                90
_cell_angle_beta                 90
_cell_angle_gamma                90
_cell_volume                     6834.33
_exptl_crystal_colour            black
_exptl_crystal_description       needle
_cell_formula_units_Z            8
loop_
_atom_site_label
_atom_site_type_symbol
_atom_site_fract_x
_atom_site_fract_y
_atom_site_fract_z
C1 C 0.8149(3) 0.7074(3) 0.6858(13)
C2 C 0.7675(3) 0.7094(3) 0.6011(12)
C3 C 0.7542(3) 0.6638(3) 0.5772(11)
C4 C 0.7124(3) 0.6498(3) 0.5082(13)
C5 C 0.6993(3) 0.6073(3) 0.4454(15)
H1 H 0.7183 0.5817 0.4343
C6 C 0.6558(3) 0.6092(3) 0.4042(16)
H2 H 0.6385 0.5849 0.3601
C7 C 0.6396(3) 0.6526(3) 0.4360(14)
C8 C 0.5945(3) 0.6672(3) 0.4345(16)
C9 C 0.5781(3) 0.7087(3) 0.4947(16)
C10 C 0.5302(3) 0.7211(3) 0.4927(17)
C11 C 0.5279(3) 0.7640(3) 0.6020(15)
C12 C 0.5762(3) 0.7766(3) 0.6222(13)
C13 C 0.5903(3) 0.8191(3) 0.6832(13)
C14 C 0.6343(3) 0.8350(3) 0.6848(13)
C15 C 0.6488(3) 0.8794(3) 0.7222(15)
H3 H 0.6304 0.9028 0.7667
C16 C 0.6922(3) 0.8830(3) 0.6851(16)
H4 H 0.7097 0.9095 0.6988
C17 C 0.7085(3) 0.8413(3) 0.6217(13)
C18 C 0.7501(3) 0.8284(3) 0.5598(11)
C19 C 0.7670(3) 0.7840(3) 0.5384(12)
C20 C 0.8122(3) 0.7873(3) 0.4540(13)
C21 C 0.7908(3) 0.6331(3) 0.6348(13)
C22 C 0.8263(3) 0.6594(3) 0.6949(12)
C23 C 0.8644(3) 0.6396(4) 0.7673(14)
H5 H 0.8877 0.6576 0.8151
C24 C 0.8675(3) 0.5936(3) 0.7681(16)
H6 H 0.8943 0.5796 0.8076
C25 C 0.8320(4) 0.5673(3) 0.7120(17)
H7 H 0.8342 0.5355 0.7189
C26 C 0.7927(4) 0.5868(3) 0.6448(16)
H8 H 0.7682 0.5688 0.6075
C27 C 0.5612(3) 0.6322(4) 0.3797(18)
C28 C 0.5584(4) 0.6152(5) 0.2203(19)
H9 H 0.5789 0.6261 0.1360
C29 C 0.5272(4) 0.5824(5) 0.169(2)
H10 H 0.5266 0.5715 0.0536
C30 C 0.4987(4) 0.5672(3) 0.286(2)
H11 H 0.4772 0.5452 0.2528
C31 C 0.4990(4) 0.5822(4) 0.4567(19)
H12 H 0.4784 0.5705 0.5391
C32 C 0.5296(3) 0.6141(3) 0.5019(19)
H13 H 0.5301 0.6248 0.6177
C33 C 0.5550(3) 0.8528(3) 0.7369(17)
C34 C 0.5273(3) 0.8711(3) 0.609(2)
H14 H 0.5312 0.8619 0.4920
C35 C 0.4949(4) 0.9021(4) 0.648(3)
H15 H 0.4766 0.9150 0.5603
C36 C 0.4894(4) 0.9142(4) 0.822(3)
H16 H 0.4664 0.9348 0.8538
C37 C 0.5171(5) 0.8964(4) 0.949(3)
H17 H 0.5138 0.9056 1.0658
C38 C 0.5507(4) 0.8643(4) 0.9039(19)
H18 H 0.5695 0.8513 0.9897
C39 C 0.7857(3) 0.8598(3) 0.4990(13)
C40 C 0.7863(4) 0.9072(3) 0.4829(18)
H19 H 0.7615 0.9250 0.5195
C41 C 0.8248(4) 0.9270(4) 0.4112(18)
H20 H 0.8263 0.9588 0.4024
C42 C 0.8604(3) 0.9018(3) 0.3534(15)
H21 H 0.8857 0.9164 0.3038
C43 C 0.8599(3) 0.8560(3) 0.3661(15)
H22 H 0.8846 0.8386 0.3259
C44 C 0.8224(3) 0.8354(3) 0.4395(13)
N1 N 0.7448(2) 0.7463(3) 0.5719(11)
N2 N 0.6760(2) 0.6769(2) 0.4923(10)
H23 H 0.6758 0.7059 0.5149
N3 N 0.6030(2) 0.7429(3) 0.5590(12)
N4 N 0.6725(2) 0.8128(2) 0.6293(9)
H24 H 0.6735 0.7840 0.6024
O1 O 0.8346(2) 0.7386(2) 0.7466(10)
O2 O 0.4980(3) 0.7030(3) 0.4294(16)
O3 O 0.4939(2) 0.7786(2) 0.6594(12)
O4 O 0.8337(2) 0.7566(2) 0.3967(10)
O5 O 0.5518(14) 0.7820(19) 0.226(7)
H25 H 0.5359 0.7848 0.3149
C45 C 0.523(2) 0.764(2) 0.091(8)
H26 H 0.4996 0.7862 0.0645
H27 H 0.5095 0.7361 0.1306
H28 H 0.5413 0.7586 -0.0125
O6 O 0.5089(17) 0.9547(17) 0.335(8)
O7? O 0.5631(19) 0.777(2) 0.229(9)
H29? H 0.5529 0.7919 0.3140
C46? C 0.530(3) 0.760(3) 0.110(10)
H30? H 0.5054 0.7465 0.1746
H31? H 0.5444 0.7370 0.0368
H32? H 0.5189 0.7844 0.0372
O8? O 0.5615(18) 0.7411(18) 0.092(8)
H33? H 0.5650 0.7478 0.1970
C47? C 0.517(2) 0.753(3) 0.042(11)
H34? H 0.5144 0.7857 0.0359
H35? H 0.4956 0.7412 0.1277
H36? H 0.5104 0.7398 -0.0712
O9? O 0.505(3) 0.951(2) 0.417(12)
H37? H 0.5274 0.9358 0.3837
C48? C 0.501(4) 0.988(2) 0.305(11)
H38? H 0.4815 0.9799 0.2065
H39? H 0.5303 0.9972 0.2626
H40? H 0.4868 1.0133 0.3674
O10? O 0.5521(9) 0.7227(7) 0.002(3)
H41? H 0.5337 0.7343 -0.0676
C49? C 0.5745(17) 0.7578(12) 0.093(6)
H42? H 0.6023 0.7658 0.0324
H43? H 0.5818 0.7474 0.2102
H44? H 0.5548 0.7841 0.1002
loop_
_geom_bond_atom_site_label_1
_geom_bond_atom_site_label_2
_geom_bond_site_symmetry_1
_geom_bond_site_symmetry_2
C1 C2 1_555 1_555
C2 C3 1_555 1_555
C3 C4 1_555 1_555
C4 C5 1_555 1_555
C5 H1 1_555 1_555
C6 C5 1_555 1_555
H2 C6 1_555 1_555
C7 C6 1_555 1_555
C8 C7 1_555 1_555
C9 C8 1_555 1_555
C10 C9 1_555 1_555
C11 C10 1_555 1_555
C12 C11 1_555 1_555
C13 C12 1_555 1_555
C14 C13 1_555 1_555
C15 C14 1_555 1_555
H3 C15 1_555 1_555
C16 C15 1_555 1_555
H4 C16 1_555 1_555
C17 C16 1_555 1_555
C18 C17 1_555 1_555
C19 C18 1_555 1_555
C20 C19 1_555 1_555
C21 C3 1_555 1_555
C22 C1 1_555 1_555
C23 C22 1_555 1_555
H5 C23 1_555 1_555
C24 C23 1_555 1_555
H6 C24 1_555 1_555
C25 C24 1_555 1_555
H7 C25 1_555 1_555
C26 C21 1_555 1_555
H8 C26 1_555 1_555
C27 C8 1_555 1_555
C28 C27 1_555 1_555
H9 C28 1_555 1_555
C29 C28 1_555 1_555
H10 C29 1_555 1_555
C30 C29 1_555 1_555
H11 C30 1_555 1_555
C31 C30 1_555 1_555
H12 C31 1_555 1_555
C32 C27 1_555 1_555
H13 C32 1_555 1_555
C33 C13 1_555 1_555
C34 C33 1_555 1_555
H14 C34 1_555 1_555
C35 C34 1_555 1_555
H15 C35 1_555 1_555
C36 C35 1_555 1_555
H16 C36 1_555 1_555
C37 C36 1_555 1_555
H17 C37 1_555 1_555
C38 C33 1_555 1_555
H18 C38 1_555 1_555
C39 C18 1_555 1_555
C40 C39 1_555 1_555
H19 C40 1_555 1_555
C41 C40 1_555 1_555
H20 C41 1_555 1_555
C42 C41 1_555 1_555
H21 C42 1_555 1_555
C43 C42 1_555 1_555
H22 C43 1_555 1_555
C44 C20 1_555 1_555
N1 C2 1_555 1_555
N2 C4 1_555 1_555
H23 N2 1_555 1_555
N3 C9 1_555 1_555
N4 C14 1_555 1_555
H24 N4 1_555 1_555
O1 C1 1_555 1_555
O2 C10 1_555 1_555
O3 C11 1_555 1_555
O4 C20 1_555 1_555
O5 H25 1_555 1_555
C45 O5 1_555 1_555
H26 C45 1_555 1_555
H27 C45 1_555 1_555
H28 C45 1_555 1_555
C7 N2 1_555 1_555
C12 N3 1_555 1_555
C17 N4 1_555 1_555
C19 N1 1_555 1_555
C21 C22 1_555 1_555
C25 C26 1_555 1_555
C31 C32 1_555 1_555
C37 C38 1_555 1_555
C39 C44 1_555 1_555
C43 C44 1_555 1_555

#END
