
#######################################################################
#
#                 Cambridge Crystallographic Data Centre
#                                CCDC 
#
#######################################################################
#
# If this CIF has been generated from an entry in the Cambridge 
# Structural Database, then it will include bibliographic, chemical, 
# crystal, experimental, refinement or atomic coordinate data resulting 
# from the CCDC's data processing and validation procedures.
#
#######################################################################

data_OJEHOC
_chemical_formula_moiety         'C43 H24 N4 O4,C2 H3 N1,0.25(C1 H4 O1)'
_chemical_name_systematic        
'25,30-diphenyl-27-oxa-11,34,35,36-tetraazaoctacyclo[29.2.1.1^21,24^.1^26,29^.0^2,10^.0^3,8^.0^12,20^.0^14,19^]hexatriaconta-1(33),2(10),3,5,7,11,14,16,18,20,22,24,26(35),29,31-pentadecaene-9,13,28-trione acetonitrile methanol solvate'
_symmetry_cell_setting           tetragonal
_symmetry_space_group_name_H-M   'I -4'
_symmetry_Int_Tables_number      82
_space_group_name_Hall           'I -4'
loop_
_symmetry_equiv_pos_site_id
_symmetry_equiv_pos_as_xyz
1 x,y,z
2 -x,-y,z
3 y,-x,-z
4 -y,x,-z
5 1/2+x,1/2+y,1/2+z
6 1/2-x,1/2-y,1/2+z
7 1/2+y,1/2-x,1/2-z
8 1/2-y,1/2+x,1/2-z
_cell_length_a                   29.628(2)
_cell_length_b                   29.628(2)
_cell_length_c                   7.7198(6)
_cell_angle_alpha                90
_cell_angle_beta                 90
_cell_angle_gamma                90
_cell_volume                     6776.58
_exptl_crystal_colour            black
_exptl_crystal_description       rod
_cell_formula_units_Z            8
loop_
_atom_site_label
_atom_site_type_symbol
_atom_site_fract_x
_atom_site_fract_y
_atom_site_fract_z
N5 N 0.4723(2) 0.2143(2) 0.7269(10)
C44 C 0.4544(2) 0.2406(2) 0.6436(11)
C45 C 0.4294(4) 0.2729(4) 0.5389(15)
H25 H 0.4156 0.2573 0.4404
H26 H 0.4500 0.2963 0.4963
H27 H 0.4058 0.2870 0.6096
O5 O 0.4922(5) 0.0485(4) 0.856(2)
H28 H 0.4821 0.0714 0.8048
C46 C 0.4832(10) 0.0091(15) 0.754(7)
H29 H 0.4855 0.0167 0.6311
H30 H 0.4527 -0.0018 0.7794
H31 H 0.5052 -0.0144 0.7828
O5A O 0.5078(5) -0.0485(4) 0.856(2)
H28A H 0.5179 -0.0714 0.8048
C46A C 0.5168(10) -0.0091(15) 0.754(7)
H29A H 0.5145 -0.0167 0.6311
H30A H 0.5473 0.0018 0.7794
H31A H 0.4948 0.0144 0.7828
O5F O 0.5485(4) 0.0078(5) 0.644(2)
H28F H 0.5714 0.0179 0.6952
C46F C 0.5091(15) 0.0168(10) 0.746(7)
H29F H 0.5167 0.0145 0.8689
H30F H 0.4982 0.0473 0.7206
H31F H 0.4856 -0.0052 0.7172
O5G O 0.4515(4) -0.0078(5) 0.644(2)
H28G H 0.4286 -0.0179 0.6952
C46G C 0.4909(15) -0.0168(10) 0.746(7)
H29G H 0.4833 -0.0145 0.8689
H30G H 0.5018 -0.0473 0.7206
H31G H 0.5144 0.0052 0.7172
C1 C 0.18749(12) 0.28734(13) 1.1730(5)
C2 C 0.23366(11) 0.28811(12) 1.0893(5)
C3 C 0.24654(12) 0.33406(12) 1.0683(5)
C4 C 0.28781(12) 0.34974(12) 1.0036(5)
C5 C 0.30052(12) 0.39381(12) 0.9493(5)
H1 H 0.2811 0.4193 0.9434
C6 C 0.34499(12) 0.39339(12) 0.9075(5)
H2 H 0.3619 0.4183 0.8657
C7 C 0.36202(12) 0.34866(12) 0.9373(5)
C8 C 0.40749(12) 0.33529(12) 0.9401(5)
C9 C 0.42116(11) 0.29319(13) 1.0052(5)
O1 O 0.46760(18) 0.28822(15) 1.0341(8)
C10 C 0.4731(3) 0.2461(2) 1.1117(12)
O2 O 0.50958(13) 0.23343(13) 1.1554(7)
C11 C 0.42492(13) 0.22645(13) 1.1169(6)
C12 C 0.41417(13) 0.18375(13) 1.1796(6)
C13 C 0.37027(13) 0.16614(12) 1.1860(5)
C14 C 0.35770(14) 0.12101(13) 1.2304(6)
H3 H 0.3770 0.0987 1.2785
C15 C 0.31340(14) 0.11576(13) 1.1916(6)
H4 H 0.2963 0.0889 1.2066
C16 C 0.29686(14) 0.15719(12) 1.1249(6)
C17 C 0.25415(12) 0.16824(12) 1.0583(5)
C18 C 0.23730(12) 0.21197(12) 1.0293(5)
C19 C 0.19163(12) 0.20770(13) 0.9447(5)
C20 C 0.20846(12) 0.36260(13) 1.1276(5)
C21 C 0.17349(12) 0.33500(13) 1.1872(5)
C22 C 0.13399(13) 0.35178(14) 1.2575(6)
H5 H 0.1107 0.3320 1.2953
C23 C 0.12919(14) 0.39852(15) 1.2716(7)
H6 H 0.1023 0.4112 1.3178
C24 C 0.16417(14) 0.42609(14) 1.2172(7)
H7 H 0.1609 0.4578 1.2285
C25 C 0.20396(13) 0.40923(13) 1.1467(6)
H8 H 0.2275 0.4290 1.1123
C26 C 0.44206(11) 0.36945(12) 0.8860(5)
C27 C 0.44021(13) 0.38842(14) 0.7226(6)
H9 H 0.4175 0.3790 0.6436
C28 C 0.47126(14) 0.42126(14) 0.6722(6)
H10 H 0.4699 0.4339 0.5591
C29 C 0.50416(12) 0.43543(12) 0.7874(6)
H11 H 0.5253 0.4580 0.7541
C30 C 0.50616(12) 0.41672(11) 0.9504(6)
H12 H 0.5288 0.4264 1.0294
C31 C 0.47547(12) 0.38394(11) 1.0003(5)
H13 H 0.4772 0.3712 1.1131
C32 C 0.4519(9) 0.1514(11) 1.2223(18)
C33 C 0.4579(4) 0.1362(6) 1.3909(15)
H14 H 0.4397 0.1481 1.4812
C34 C 0.4903(4) 0.1036(5) 1.4293(14)
H15 H 0.4944 0.0935 1.5451
C35 C 0.5167(4) 0.0858(4) 1.2962(12)
H16 H 0.5388 0.0634 1.3207
C36 C 0.5108(3) 0.1005(3) 1.1328(12)
H17 H 0.5284 0.0875 1.0428
C37 C 0.4794(6) 0.1341(7) 1.0907(12)
H18 H 0.4769 0.1450 0.9753
C38 C 0.21904(13) 0.13531(13) 1.0018(5)
C39 C 0.18209(14) 0.15868(14) 0.9381(6)
C40 C 0.14474(15) 0.13734(16) 0.8677(6)
H19 H 0.1199 0.1540 0.8234
C41 C 0.14521(17) 0.09017(17) 0.8647(7)
H20 H 0.1201 0.0742 0.8193
C42 C 0.18176(18) 0.06673(16) 0.9271(7)
H21 H 0.1814 0.0347 0.9228
C43 C 0.21907(16) 0.08822(14) 0.9957(7)
H22 H 0.2441 0.0714 1.0376
N1 N 0.25857(9) 0.25165(10) 1.0568(4)
N2 N 0.32575(10) 0.32356(10) 0.9882(4)
H23 H 0.3266 0.2943 1.0086
N3 N 0.39604(10) 0.25870(10) 1.0595(4)
N4 N 0.33179(11) 0.18698(10) 1.1299(5)
H24 H 0.3299 0.2157 1.1010
O3 O 0.16832(8) 0.25471(9) 1.2328(4)
O4 O 0.16990(9) 0.23765(10) 0.8797(4)
O6? O 0.4656(5) 0.2322(4) 1.080(2)
C47? C 0.4688(7) 0.2737(6) 1.000(3)
O7? O 0.5032(3) 0.2897(3) 0.9519(17)
C48? C 0.449(3) 0.152(3) 1.251(6)
C49? C 0.4486(17) 0.139(2) 1.423(5)
H32? H 0.4265 0.1501 1.5011
C50? C 0.4814(17) 0.1085(17) 1.479(4)
H33? H 0.4827 0.0999 1.5978
C51? C 0.5123(14) 0.0909(14) 1.361(4)
H34? H 0.5331 0.0683 1.3960
C52? C 0.5127(11) 0.1060(12) 1.197(4)
H35? H 0.5365 0.0972 1.1216
C53? C 0.479(2) 0.134(2) 1.134(5)
H36? H 0.4767 0.1413 1.0140
N6? N 0.4764(11) 0.3104(10) 0.374(3)
C54? C 0.4533(10) 0.2854(8) 0.454(3)
C55? C 0.4333(12) 0.2544(10) 0.569(4)
H37? H 0.4016 0.2499 0.5369
H38? H 0.4494 0.2255 0.5627
H39? H 0.4349 0.2662 0.6876
loop_
_geom_bond_atom_site_label_1
_geom_bond_atom_site_label_2
_geom_bond_site_symmetry_1
_geom_bond_site_symmetry_2
C1 C2 1_555 1_555
C2 C3 1_555 1_555
C3 C4 1_555 1_555
C4 C5 1_555 1_555
C5 H1 1_555 1_555
C6 C5 1_555 1_555
H2 C6 1_555 1_555
C7 C6 1_555 1_555
C8 C7 1_555 1_555
C9 C8 1_555 1_555
O1 C9 1_555 1_555
C10 O1 1_555 1_555
O2 C10 1_555 1_555
C11 C10 1_555 1_555
C12 C11 1_555 1_555
C13 C12 1_555 1_555
C14 C13 1_555 1_555
H3 C14 1_555 1_555
C15 C14 1_555 1_555
H4 C15 1_555 1_555
C16 C15 1_555 1_555
C17 C16 1_555 1_555
C18 C17 1_555 1_555
C19 C18 1_555 1_555
C20 C3 1_555 1_555
C21 C1 1_555 1_555
C22 C21 1_555 1_555
H5 C22 1_555 1_555
C23 C22 1_555 1_555
H6 C23 1_555 1_555
C24 C23 1_555 1_555
H7 C24 1_555 1_555
C25 C20 1_555 1_555
H8 C25 1_555 1_555
C26 C8 1_555 1_555
C27 C26 1_555 1_555
H9 C27 1_555 1_555
C28 C27 1_555 1_555
H10 C28 1_555 1_555
C29 C28 1_555 1_555
H11 C29 1_555 1_555
C30 C29 1_555 1_555
H12 C30 1_555 1_555
C31 C26 1_555 1_555
H13 C31 1_555 1_555
C32 C12 1_555 1_555
C33 C32 1_555 1_555
H14 C33 1_555 1_555
C34 C33 1_555 1_555
H15 C34 1_555 1_555
C35 C34 1_555 1_555
H16 C35 1_555 1_555
C36 C35 1_555 1_555
H17 C36 1_555 1_555
C37 C32 1_555 1_555
H18 C37 1_555 1_555
C38 C17 1_555 1_555
C39 C19 1_555 1_555
C40 C39 1_555 1_555
H19 C40 1_555 1_555
C41 C40 1_555 1_555
H20 C41 1_555 1_555
C42 C41 1_555 1_555
H21 C42 1_555 1_555
C43 C38 1_555 1_555
H22 C43 1_555 1_555
N1 C2 1_555 1_555
N2 C4 1_555 1_555
H23 N2 1_555 1_555
N3 C9 1_555 1_555
N4 C13 1_555 1_555
H24 N4 1_555 1_555
O3 C1 1_555 1_555
O4 C19 1_555 1_555
N5 C44 1_555 1_555
C44 C45 1_555 1_555
C45 H25 1_555 1_555
H26 C45 1_555 1_555
H27 C45 1_555 1_555
O5 H28 1_555 1_555
C46 O5 1_555 1_555
H29 C46 1_555 1_555
H30 C46 1_555 1_555
H31 C46 1_555 1_555
O5A H28A 1_555 1_555
C46A O5A 1_555 1_555
H29A C46A 1_555 1_555
H30A C46A 1_555 1_555
H31A C46A 1_555 1_555
O5F C46A 1_555 1_555
H28F O5F 1_555 1_555
C46F O5 1_555 1_555
H29F C46 1_555 1_555
H30F C46 1_555 1_555
H31F C46A 1_555 1_555
O5G C46 1_555 1_555
H28G O5G 1_555 1_555
C46G H29 1_555 1_555
H29G C46 1_555 1_555
H30G C46A 1_555 1_555
H31G C46 1_555 1_555
C7 N2 1_555 1_555
C11 N3 1_555 1_555
C16 N4 1_555 1_555
C18 N1 1_555 1_555
C20 C21 1_555 1_555
C24 C25 1_555 1_555
C30 C31 1_555 1_555
C36 C37 1_555 1_555
C38 C39 1_555 1_555
C42 C43 1_555 1_555
H29 C46F 1_555 1_555
H30 C46G 1_555 1_555
H31 C46F 1_555 1_555
O5A C46G 1_555 1_555
C46A H29F 1_555 1_555
C46A H29G 1_555 1_555
H29A C46F 1_555 1_555
H29A C46G 1_555 1_555
H30A C46F 1_555 1_555
H31A C46G 1_555 1_555
O5F C46F 1_555 1_555
C46F H29F 1_555 1_555
C46F H30F 1_555 1_555
C46F H31F 1_555 1_555
O5G C46G 1_555 1_555
C46G H29G 1_555 1_555
C46G H30G 1_555 1_555
C46G H31G 1_555 1_555

#END
