
#######################################################################
#
#                 Cambridge Crystallographic Data Centre
#                                CCDC 
#
#######################################################################
#
# If this CIF has been generated from an entry in the Cambridge 
# Structural Database, then it will include bibliographic, chemical, 
# crystal, experimental, refinement or atomic coordinate data resulting 
# from the CCDC's data processing and validation procedures.
#
#######################################################################

data_OJEHES
_chemical_formula_moiety         'C16 H17 I1 O4'
_chemical_name_systematic        
'(S)-4-(3-iodo-4-methyl-5-oxo-2,5-dihydrofuran-2-yl)butyl benzoate'
_symmetry_cell_setting           triclinic
_symmetry_space_group_name_H-M   'P 1'
_symmetry_Int_Tables_number      1
_space_group_name_Hall           'P 1'
loop_
_symmetry_equiv_pos_site_id
_symmetry_equiv_pos_as_xyz
1 x,y,z
_cell_length_a                   5.7362(8)
_cell_length_b                   6.2187(5)
_cell_length_c                   12.0328(16)
_cell_angle_alpha                82.309(9)
_cell_angle_beta                 79.149(11)
_cell_angle_gamma                86.547(9)
_cell_volume                     417.493
_exptl_crystal_colour            'light colorless'
_chemical_melting_point          '430 K'
_cell_formula_units_Z            1
_chemical_properties_physical    Heat-sensitive
_exptl_crystal_recrystallization_method hexane
loop_
_atom_site_label
_atom_site_type_symbol
_atom_site_fract_x
_atom_site_fract_y
_atom_site_fract_z
I1 I -0.30311(2) 0.00833(2) -0.16374(2)
C1 C -0.820(3) 0.534(3) -0.1468(14)
O1 O 0.180(2) 0.8021(15) -0.5867(8)
C2 C -0.153(3) 0.594(2) -0.4931(10)
H1 H -0.0423 0.4699 -0.4916
H2 H -0.2183 0.6028 -0.5623
C3 C -0.021(3) 0.796(3) -0.4953(12)
H3 H -0.1249 0.9234 -0.5069
H4 H 0.0308 0.7969 -0.4232
C4 C 0.516(3) 0.973(2) -0.6969(10)
C5 C -0.498(3) 0.373(3) -0.3940(11)
H5 H -0.3929 0.2492 -0.4122
H6 H -0.5893 0.4080 -0.4546
O2 O 0.241(3) 1.136(3) -0.5552(14)
C6 C -0.670(2) 0.307(3) -0.2817(15)
H7 H -0.7585 0.1815 -0.2900
C7 C 0.301(3) 0.983(3) -0.6052(12)
C8 C -0.351(2) 0.562(2) -0.3911(10)
H8 H -0.2831 0.5399 -0.3221
H9 H -0.4519 0.6929 -0.3886
C9 C 0.565(3) 0.803(3) -0.7611(11)
H10 H 0.4619 0.6889 -0.7491
C10 C 0.671(4) 1.138(3) -0.7125(15)
H11 H 0.6377 1.2514 -0.6682
C11 C 0.877(4) 1.137(4) -0.7938(17)
H12 H 0.9807 1.2504 -0.8056
C12 C 0.926(4) 0.966(4) -0.8568(16)
H13 H 1.0675 0.9602 -0.9087
C13 C 0.768(3) 0.805(4) -0.8440(14)
H14 H 0.7976 0.6955 -0.8911
C14 C -0.571(3) 0.412(3) 0.0083(12)
H15 H -0.6014 0.2794 0.0591
H16 H -0.6625 0.5293 0.0413
H17 H -0.4053 0.4406 -0.0040
O3 O -0.937(3) 0.676(3) -0.1097(14)
C15 C -0.640(2) 0.389(2) -0.1022(11)
O4 O -0.8332(18) 0.483(2) -0.2539(11)
C16 C -0.5572(18) 0.2558(18) -0.1779(10)
loop_
_geom_bond_atom_site_label_1
_geom_bond_atom_site_label_2
_geom_bond_site_symmetry_1
_geom_bond_site_symmetry_2
I1 C16 1_555 1_555
C1 O3 1_555 1_555
O1 C3 1_555 1_555
C2 H1 1_555 1_555
H2 C2 1_555 1_555
C3 C2 1_555 1_555
H3 C3 1_555 1_555
H4 C3 1_555 1_555
C4 C7 1_555 1_555
C5 H5 1_555 1_555
H6 C5 1_555 1_555
O2 C7 1_555 1_555
C6 C5 1_555 1_555
H7 C6 1_555 1_555
C7 O1 1_555 1_555
C8 C2 1_555 1_555
H8 C8 1_555 1_555
H9 C8 1_555 1_555
C9 C4 1_555 1_555
H10 C9 1_555 1_555
C10 C4 1_555 1_555
H11 C10 1_555 1_555
C11 C10 1_555 1_555
H12 C11 1_555 1_555
C12 C11 1_555 1_555
H13 C12 1_555 1_555
C13 C9 1_555 1_555
H14 C13 1_555 1_555
C14 H15 1_555 1_555
H16 C14 1_555 1_555
H17 C14 1_555 1_555
C15 C1 1_555 1_555
O4 C1 1_555 1_555
C16 C6 1_555 1_555
C5 C8 1_555 1_555
C6 O4 1_555 1_555
C12 C13 1_555 1_555
C14 C15 1_555 1_555
C15 C16 1_555 1_555

#END
