
#######################################################################
#
#                 Cambridge Crystallographic Data Centre
#                                CCDC 
#
#######################################################################
#
# If this CIF has been generated from an entry in the Cambridge 
# Structural Database, then it will include bibliographic, chemical, 
# crystal, experimental, refinement or atomic coordinate data resulting 
# from the CCDC's data processing and validation procedures.
#
#######################################################################

data_OJEKEU
_chemical_formula_moiety         'C72 H118 Li4 O8 P2'
_chemical_name_systematic        
bis(\m~3~-2,2'-(t-Butylphosphinediyl)bis(4,6-di-t-butylphenolato))-bis(1,2-dimethoxyethane)-tetra-lithium
_symmetry_cell_setting           monoclinic
_symmetry_space_group_name_H-M   'P 21/n'
_symmetry_Int_Tables_number      14
_space_group_name_Hall           '-P 2yn'
loop_
_symmetry_equiv_pos_site_id
_symmetry_equiv_pos_as_xyz
1 x,y,z
2 1/2-x,1/2+y,1/2-z
3 -x,-y,-z
4 1/2+x,1/2-y,1/2+z
_cell_length_a                   12.1729(7)
_cell_length_b                   16.6959(9)
_cell_length_c                   40.616(2)
_cell_angle_alpha                90
_cell_angle_beta                 92.371(3)
_cell_angle_gamma                90
_cell_volume                     8247.63
_exptl_crystal_colour            colorless
_exptl_crystal_description       prism
_cell_formula_units_Z            4
loop_
_atom_site_label
_atom_site_type_symbol
_atom_site_fract_x
_atom_site_fract_y
_atom_site_fract_z
C1 C 0.8229(3) 0.83832(19) 0.13009(8)
C2 C 0.7436(3) 0.77936(19) 0.12036(7)
C3 C 0.6377(3) 0.80501(19) 0.10954(8)
C4 C 0.5439(3) 0.7452(2) 0.10155(8)
C5 C 0.5708(3) 0.6905(2) 0.07300(9)
H1 H 0.5098 0.6531 0.0687
H2 H 0.6380 0.6603 0.0787
H3 H 0.5820 0.7228 0.0533
C6 C 0.5256(3) 0.6918(3) 0.13234(10)
H4 H 0.4663 0.6535 0.1273
H5 H 0.5056 0.7257 0.1509
H6 H 0.5935 0.6626 0.1382
C7 C 0.4349(3) 0.7866(2) 0.09309(10)
H7 H 0.3781 0.7462 0.0882
H8 H 0.4428 0.8210 0.0738
H9 H 0.4137 0.8193 0.1118
C8 C 0.6186(3) 0.8880(2) 0.10679(8)
H10 H 0.5474 0.9052 0.0993
C9 C 0.6960(3) 0.9455(2) 0.11422(8)
C10 C 0.6759(3) 1.0362(2) 0.10844(10)
C11 C 0.5552(4) 1.0536(2) 0.09939(13)
H11 H 0.5096 1.0362 0.1174
H12 H 0.5332 1.0244 0.0792
H13 H 0.5453 1.1112 0.0958
C12 C 0.7057(5) 1.0825(2) 0.14022(12)
H14 H 0.6606 1.0632 0.1580
H15 H 0.6920 1.1398 0.1366
H16 H 0.7836 1.0742 0.1463
C13 C 0.7456(4) 1.0640(2) 0.08087(13)
H17 H 0.7257 1.0339 0.0608
H18 H 0.8233 1.0551 0.0870
H19 H 0.7329 1.1213 0.0769
C14 C 0.7979(3) 0.9196(2) 0.12636(8)
H20 H 0.8525 0.9582 0.1323
C15 C 1.0237(3) 0.8679(2) 0.17525(9)
C16 C 0.9409(3) 0.8879(3) 0.20159(10)
H21 H 0.9068 0.8384 0.2091
H22 H 0.8839 0.9236 0.1921
H23 H 0.9791 0.9145 0.2203
C17 C 1.0750(4) 0.9461(2) 0.16299(11)
H24 H 1.1272 0.9337 0.1460
H25 H 1.1136 0.9732 0.1815
H26 H 1.0169 0.9810 0.1537
C18 C 1.1173(3) 0.8179(3) 0.19120(11)
H27 H 1.0876 0.7672 0.1992
H28 H 1.1515 0.8476 0.2097
H29 H 1.1723 0.8068 0.1749
C19 C 1.0327(3) 0.78949(19) 0.10866(8)
C20 C 1.0549(3) 0.71223(18) 0.09594(8)
C21 C 1.1278(3) 0.70670(18) 0.06925(8)
C22 C 1.1721(3) 0.62572(19) 0.05740(8)
C23 C 1.0794(3) 0.5707(2) 0.04398(10)
H30 H 1.1108 0.5200 0.0366
H31 H 1.0402 0.5969 0.0254
H32 H 1.0280 0.5601 0.0614
C24 C 1.2533(3) 0.6355(2) 0.02930(9)
H33 H 1.2790 0.5827 0.0225
H34 H 1.3162 0.6679 0.0371
H35 H 1.2159 0.6622 0.0105
C25 C 1.2356(3) 0.5836(2) 0.08579(9)
H36 H 1.2636 0.5322 0.0781
H37 H 1.1864 0.5744 0.1039
H38 H 1.2973 0.6174 0.0935
C26 C 1.1610(3) 0.7777(2) 0.05447(8)
H39 H 1.2071 0.7738 0.0362
C27 C 1.1305(3) 0.8543(2) 0.06487(9)
C28 C 1.1666(3) 0.9314(2) 0.04701(10)
C29 C 1.2338(13) 0.9131(7) 0.0169(3)
H40 H 1.2546 0.9634 0.0064
H41 H 1.1896 0.8807 0.0012
H42 H 1.3003 0.8834 0.0238
C30 C 1.2449(11) 0.9760(8) 0.0732(4)
H43 H 1.2043 0.9877 0.0929
H44 H 1.2707 1.0263 0.0637
H45 H 1.3081 0.9418 0.0791
C31 C 1.072(2) 0.9852(16) 0.0374(5)
H46 H 1.0292 0.9963 0.0567
H47 H 1.0253 0.9589 0.0204
H48 H 1.1003 1.0356 0.0287
C32 C 1.0676(3) 0.85749(19) 0.09231(8)
H49 H 1.0471 0.9085 0.1004
C33 C 1.0423(3) 0.48589(18) 0.20418(8)
C34 C 0.9456(3) 0.53255(19) 0.19980(8)
C35 C 0.8747(3) 0.53825(19) 0.22672(8)
C36 C 0.7804(3) 0.5993(2) 0.22776(9)
C37 C 0.6977(3) 0.5921(3) 0.20046(10)
H50 H 0.6405 0.6327 0.2029
H51 H 0.6645 0.5386 0.2008
H52 H 0.7330 0.6001 0.1795
C38 C 0.8329(5) 0.6833(3) 0.22513(15)
H53 H 0.8880 0.6907 0.2432
H54 H 0.7758 0.7244 0.2266
H55 H 0.8683 0.6882 0.2040
C39 C 0.7234(5) 0.5993(3) 0.26042(12)
H56 H 0.7784 0.6052 0.2786
H57 H 0.6837 0.5487 0.2629
H58 H 0.6713 0.6440 0.2608
C40 C 0.8960(3) 0.48856(19) 0.25372(8)
H59 H 0.8479 0.4920 0.2715
C41 C 0.9828(3) 0.43399(19) 0.25658(8)
C42 C 0.9976(3) 0.3800(2) 0.28699(8)
C43 C 1.0604(4) 0.4263(3) 0.31398(10)
H60 H 1.0713 0.3921 0.3335
H61 H 1.0183 0.4739 0.3198
H62 H 1.1320 0.4426 0.3061
C44 C 0.8868(3) 0.3542(3) 0.29946(11)
H63 H 0.8984 0.3191 0.3186
H64 H 0.8455 0.3252 0.2820
H65 H 0.8451 0.4016 0.3058
C45 C 1.0647(4) 0.3048(2) 0.27971(10)
H66 H 1.0723 0.2718 0.2996
H67 H 1.1377 0.3205 0.2727
H68 H 1.0269 0.2739 0.2621
C46 C 1.0561(3) 0.43535(18) 0.23165(8)
H69 H 1.1181 0.4008 0.2331
C47 C 1.2808(3) 0.5197(2) 0.19637(9)
C48 C 1.3130(3) 0.4780(3) 0.22893(9)
H70 H 1.3203 0.4203 0.2251
H71 H 1.2560 0.4874 0.2448
H72 H 1.3832 0.4995 0.2376
C49 C 1.2678(4) 0.6107(2) 0.20371(11)
H73 H 1.2472 0.6391 0.1832
H74 H 1.3376 0.6320 0.2129
H75 H 1.2104 0.6183 0.2196
C50 C 1.3711(3) 0.5089(3) 0.17185(10)
H76 H 1.3800 0.4518 0.1671
H77 H 1.4404 0.5304 0.1813
H78 H 1.3509 0.5375 0.1514
C51 C 1.1530(3) 0.39277(19) 0.15750(8)
C52 C 1.0743(3) 0.37933(19) 0.13113(9)
C53 C 1.0748(3) 0.3040(2) 0.11455(9)
C54 C 1.0004(4) 0.2885(2) 0.08370(10)
C55 C 0.8788(3) 0.2937(3) 0.09217(11)
H79 H 0.8629 0.2530 0.1087
H80 H 0.8324 0.2844 0.0722
H81 H 0.8634 0.3470 0.1010
C56 C 1.0259(4) 0.3520(2) 0.05752(10)
H82 H 1.1037 0.3487 0.0523
H83 H 1.0101 0.4055 0.0661
H84 H 0.9802 0.3422 0.0375
C57 C 1.0182(5) 0.2066(2) 0.06788(12)
H85 H 1.0021 0.1643 0.0837
H86 H 1.0948 0.2020 0.0616
H87 H 0.9693 0.2011 0.0482
C58 C 1.1465(4) 0.2460(2) 0.12656(12)
H88 H 1.1452 0.1957 0.1156
C59 C 1.2202(4) 0.2549(2) 0.15329(12)
C60 C 1.2925(4) 0.1884(3) 0.16662(14)
C61 C 1.2869(5) 0.1129(3) 0.14413(15)
H89 H 1.3355 0.0713 0.1536
H90 H 1.3104 0.1270 0.1221
H91 H 1.2112 0.0928 0.1426
C62 C 1.4132(6) 0.2125(4) 0.16751(17)
H92 H 1.4582 0.1680 0.1761
H93 H 1.4242 0.2594 0.1818
H94 H 1.4348 0.2257 0.1452
C63 C 1.2559(6) 0.1619(4) 0.19942(17)
H95 H 1.3039 0.1187 0.2078
H96 H 1.1800 0.1424 0.1972
H97 H 1.2598 0.2071 0.2148
C64 C 1.2230(3) 0.3308(2) 0.16845(10)
H98 H 1.2735 0.3401 0.1865
C65 C 0.8306(4) 0.8356(3) 0.04070(11)
H99 H 0.8162 0.8624 0.0616
H100 H 0.7800 0.8562 0.0233
H101 H 0.9066 0.8461 0.0348
C66 C 0.8346(4) 0.7105(3) 0.01545(11)
H102 H 0.9148 0.7068 0.0125
H103 H 0.8007 0.7390 -0.0038
C67 C 0.7868(4) 0.6287(3) 0.01780(9)
H104 H 0.7056 0.6315 0.0158
H105 H 0.8128 0.5946 -0.0002
C68 C 0.8017(4) 0.5115(3) 0.05073(12)
H106 H 0.8270 0.4924 0.0726
H107 H 0.8424 0.4840 0.0338
H108 H 0.7230 0.5004 0.0474
C69 C 0.6539(4) 0.4899(3) 0.12457(13)
H109 H 0.6922 0.5396 0.1194
H110 H 0.5853 0.5026 0.1352
H111 H 0.6372 0.4600 0.1042
C70 C 0.6734(4) 0.3688(3) 0.15577(15)
H112 H 0.6676 0.3318 0.1367
H113 H 0.5985 0.3787 0.1635
C71 C 0.7417(5) 0.3339(3) 0.18193(16)
H114 H 0.7335 0.3647 0.2025
H115 H 0.7183 0.2781 0.1859
C72 C 0.9211(4) 0.2776(3) 0.18995(11)
H116 H 0.9961 0.2825 0.1823
H117 H 0.8933 0.2236 0.1853
H118 H 0.9213 0.2876 0.2137
Li1 Li 0.8567(5) 0.6774(4) 0.08353(16)
Li2 Li 0.8920(5) 0.6581(4) 0.14680(15)
Li3 Li 1.0246(5) 0.5509(3) 0.13055(15)
Li4 Li 0.8865(5) 0.4439(4) 0.15408(18)
O1 O 0.77325(17) 0.70218(12) 0.12050(5)
O2 O 1.00296(18) 0.64799(12) 0.10801(5)
O3 O 0.92233(18) 0.56447(13) 0.16979(5)
O4 O 1.00183(18) 0.43617(13) 0.12342(5)
O5 O 0.8150(2) 0.75242(18) 0.04414(6)
O6 O 0.8201(2) 0.59566(17) 0.04855(6)
O7 O 0.7222(2) 0.44242(18) 0.14625(8)
O8 O 0.8519(3) 0.33501(17) 0.17320(7)
P1 P 0.95268(7) 0.79610(5) 0.14591(2)
P2 P 1.14757(7) 0.49413(5) 0.17342(2)
C73? C 1.1482(12) 0.9186(8) 0.0081(3)
C74? C 1.2817(12) 0.9549(11) 0.0561(5)
C75? C 1.087(2) 0.9994(12) 0.0531(4)
H119? H 1.0714 0.9041 0.0030
H120? H 1.1964 0.8756 0.0008
H121? H 1.1657 0.9683 -0.0034
H122? H 1.3004 1.0037 0.0441
H123? H 1.3316 0.9116 0.0502
H124? H 1.2888 0.9648 0.0798
H125? H 1.0125 0.9830 0.0463
H126? H 1.1081 1.0465 0.0404
H127? H 1.0900 1.0128 0.0767
loop_
_geom_bond_atom_site_label_1
_geom_bond_atom_site_label_2
_geom_bond_site_symmetry_1
_geom_bond_site_symmetry_2
C1 C2 1_555 1_555
C2 C3 1_555 1_555
C3 C4 1_555 1_555
C4 C5 1_555 1_555
C5 H1 1_555 1_555
H2 C5 1_555 1_555
H3 C5 1_555 1_555
C6 C4 1_555 1_555
H4 C6 1_555 1_555
H5 C6 1_555 1_555
H6 C6 1_555 1_555
C7 C4 1_555 1_555
H7 C7 1_555 1_555
H8 C7 1_555 1_555
H9 C7 1_555 1_555
C8 C3 1_555 1_555
H10 C8 1_555 1_555
C9 C8 1_555 1_555
C10 C9 1_555 1_555
C11 C10 1_555 1_555
H11 C11 1_555 1_555
H12 C11 1_555 1_555
H13 C11 1_555 1_555
C12 C10 1_555 1_555
H14 C12 1_555 1_555
H15 C12 1_555 1_555
H16 C12 1_555 1_555
C13 C10 1_555 1_555
H17 C13 1_555 1_555
H18 C13 1_555 1_555
H19 C13 1_555 1_555
C14 C1 1_555 1_555
H20 C14 1_555 1_555
C15 C16 1_555 1_555
C16 H21 1_555 1_555
H22 C16 1_555 1_555
H23 C16 1_555 1_555
C17 C15 1_555 1_555
H24 C17 1_555 1_555
H25 C17 1_555 1_555
H26 C17 1_555 1_555
C18 C15 1_555 1_555
H27 C18 1_555 1_555
H28 C18 1_555 1_555
H29 C18 1_555 1_555
C19 C20 1_555 1_555
C20 C21 1_555 1_555
C21 C22 1_555 1_555
C22 C23 1_555 1_555
C23 H30 1_555 1_555
H31 C23 1_555 1_555
H32 C23 1_555 1_555
C24 C22 1_555 1_555
H33 C24 1_555 1_555
H34 C24 1_555 1_555
H35 C24 1_555 1_555
C25 C22 1_555 1_555
H36 C25 1_555 1_555
H37 C25 1_555 1_555
H38 C25 1_555 1_555
C26 C21 1_555 1_555
H39 C26 1_555 1_555
C27 C26 1_555 1_555
C28 C27 1_555 1_555
C29 C28 1_555 1_555
H40 C29 1_555 1_555
H41 C29 1_555 1_555
H42 C29 1_555 1_555
C30 C28 1_555 1_555
H43 C30 1_555 1_555
H44 C30 1_555 1_555
H45 C30 1_555 1_555
C31 C28 1_555 1_555
H46 C31 1_555 1_555
H47 C31 1_555 1_555
H48 C31 1_555 1_555
C32 C19 1_555 1_555
H49 C32 1_555 1_555
C33 C34 1_555 1_555
C34 C35 1_555 1_555
C35 C36 1_555 1_555
C36 C37 1_555 1_555
C37 H50 1_555 1_555
H51 C37 1_555 1_555
H52 C37 1_555 1_555
C38 C36 1_555 1_555
H53 C38 1_555 1_555
H54 C38 1_555 1_555
H55 C38 1_555 1_555
C39 C36 1_555 1_555
H56 C39 1_555 1_555
H57 C39 1_555 1_555
H58 C39 1_555 1_555
C40 C35 1_555 1_555
H59 C40 1_555 1_555
C41 C40 1_555 1_555
C42 C41 1_555 1_555
C43 C42 1_555 1_555
H60 C43 1_555 1_555
H61 C43 1_555 1_555
H62 C43 1_555 1_555
C44 C42 1_555 1_555
H63 C44 1_555 1_555
H64 C44 1_555 1_555
H65 C44 1_555 1_555
C45 C42 1_555 1_555
H66 C45 1_555 1_555
H67 C45 1_555 1_555
H68 C45 1_555 1_555
C46 C33 1_555 1_555
H69 C46 1_555 1_555
C47 C48 1_555 1_555
C48 H70 1_555 1_555
H71 C48 1_555 1_555
H72 C48 1_555 1_555
C49 C47 1_555 1_555
H73 C49 1_555 1_555
H74 C49 1_555 1_555
H75 C49 1_555 1_555
C50 C47 1_555 1_555
H76 C50 1_555 1_555
H77 C50 1_555 1_555
H78 C50 1_555 1_555
C51 C52 1_555 1_555
C52 C53 1_555 1_555
C53 C54 1_555 1_555
C54 C55 1_555 1_555
C55 H79 1_555 1_555
H80 C55 1_555 1_555
H81 C55 1_555 1_555
C56 C54 1_555 1_555
H82 C56 1_555 1_555
H83 C56 1_555 1_555
H84 C56 1_555 1_555
C57 C54 1_555 1_555
H85 C57 1_555 1_555
H86 C57 1_555 1_555
H87 C57 1_555 1_555
C58 C53 1_555 1_555
H88 C58 1_555 1_555
C59 C58 1_555 1_555
C60 C59 1_555 1_555
C61 C60 1_555 1_555
H89 C61 1_555 1_555
H90 C61 1_555 1_555
H91 C61 1_555 1_555
C62 C60 1_555 1_555
H92 C62 1_555 1_555
H93 C62 1_555 1_555
H94 C62 1_555 1_555
C63 C60 1_555 1_555
H95 C63 1_555 1_555
H96 C63 1_555 1_555
H97 C63 1_555 1_555
C64 C51 1_555 1_555
H98 C64 1_555 1_555
C65 H99 1_555 1_555
H100 C65 1_555 1_555
H101 C65 1_555 1_555
C66 H102 1_555 1_555
H103 C66 1_555 1_555
C67 C66 1_555 1_555
H104 C67 1_555 1_555
H105 C67 1_555 1_555
C68 H106 1_555 1_555
H107 C68 1_555 1_555
H108 C68 1_555 1_555
C69 H109 1_555 1_555
H110 C69 1_555 1_555
H111 C69 1_555 1_555
C70 H112 1_555 1_555
H113 C70 1_555 1_555
C71 C70 1_555 1_555
H114 C71 1_555 1_555
H115 C71 1_555 1_555
C72 H116 1_555 1_555
H117 C72 1_555 1_555
H118 C72 1_555 1_555
Li1 O1 1_555 1_555
Li2 O1 1_555 1_555
Li3 O2 1_555 1_555
Li4 O3 1_555 1_555
O1 C2 1_555 1_555
O2 C20 1_555 1_555
O3 C34 1_555 1_555
O4 C52 1_555 1_555
O5 C65 1_555 1_555
O6 C67 1_555 1_555
O7 C69 1_555 1_555
O8 C71 1_555 1_555
P1 C1 1_555 1_555
P2 C33 1_555 1_555
C9 C14 1_555 1_555
C15 P1 1_555 1_555
C19 P1 1_555 1_555
C27 C32 1_555 1_555
C41 C46 1_555 1_555
C47 P2 1_555 1_555
C51 P2 1_555 1_555
C59 C64 1_555 1_555
C66 O5 1_555 1_555
C68 O6 1_555 1_555
C70 O7 1_555 1_555
C72 O8 1_555 1_555
Li1 O2 1_555 1_555
Li1 O5 1_555 1_555
Li1 O6 1_555 1_555
Li2 O2 1_555 1_555
Li2 O3 1_555 1_555
Li2 P1 1_555 1_555
Li3 O3 1_555 1_555
Li3 O4 1_555 1_555
Li3 P2 1_555 1_555
Li4 O4 1_555 1_555
Li4 O7 1_555 1_555
Li4 O8 1_555 1_555

#END
