
#######################################################################
#
#                 Cambridge Crystallographic Data Centre
#                                CCDC 
#
#######################################################################
#
# If this CIF has been generated from an entry in the Cambridge 
# Structural Database, then it will include bibliographic, chemical, 
# crystal, experimental, refinement or atomic coordinate data resulting 
# from the CCDC's data processing and validation procedures.
#
#######################################################################

data_OJEKIY
_chemical_formula_moiety         'C84 H148 Na4 O14 P2'
_chemical_name_systematic        
bis(\m~2~-2,2'-(t-Butylphosphinediyl)bis(4,6-di-t-butylphenolato))-(\m~2~-1,2-dimethoxyethane)-tetrakis(1,2-dimethoxyethane)-tetra-sodium
_symmetry_cell_setting           monoclinic
_symmetry_space_group_name_H-M   'P 21/c'
_symmetry_Int_Tables_number      14
_space_group_name_Hall           '-P 2ybc'
loop_
_symmetry_equiv_pos_site_id
_symmetry_equiv_pos_as_xyz
1 x,y,z
2 -x,1/2+y,1/2-z
3 -x,-y,-z
4 x,1/2-y,1/2+z
_cell_length_a                   16.5254(18)
_cell_length_b                   14.0526(16)
_cell_length_c                   20.125(2)
_cell_angle_alpha                90
_cell_angle_beta                 96.750(7)
_cell_angle_gamma                90
_cell_volume                     4641.13
_exptl_crystal_colour            colorless
_exptl_crystal_description       prism
_cell_formula_units_Z            2
loop_
_atom_site_label
_atom_site_type_symbol
_atom_site_fract_x
_atom_site_fract_y
_atom_site_fract_z
C1 C 0.23480(19) 0.6132(2) 0.28766(15)
C2 C 0.23096(18) 0.6727(2) 0.23000(15)
C3 C 0.28841(19) 0.7503(2) 0.23187(16)
C4 C 0.2824(2) 0.8253(2) 0.17505(17)
C5 C 0.3003(2) 0.7784(3) 0.10911(18)
H1 H 0.2962 0.8263 0.0735
H2 H 0.2606 0.7276 0.0971
H3 H 0.3554 0.7516 0.1148
C6 C 0.1963(2) 0.8693(3) 0.16544(19)
H4 H 0.1931 0.9166 0.1294
H5 H 0.1852 0.9001 0.2071
H6 H 0.1560 0.8191 0.1537
C7 C 0.3430(2) 0.9079(3) 0.1895(2)
H7 H 0.3365 0.9530 0.1522
H8 H 0.3988 0.8829 0.1948
H9 H 0.3324 0.9403 0.2307
C8 C 0.3507(2) 0.7546(2) 0.28465(18)
H10 H 0.3892 0.8048 0.2847
C9 C 0.3604(2) 0.6896(3) 0.33771(17)
C10 C 0.4337(3) 0.6930(3) 0.3923(2)
C11 C 0.4861(6) 0.7833(7) 0.3883(5)
H11 H 0.5045 0.7876 0.3439
H12 H 0.5335 0.7801 0.4224
H13 H 0.4536 0.8396 0.3962
C12 C 0.4068(7) 0.6862(12) 0.4604(4)
H14 H 0.4545 0.6878 0.4942
H15 H 0.3771 0.6265 0.4643
H16 H 0.3710 0.7400 0.4674
C13 C 0.4900(6) 0.6066(7) 0.3783(6)
H17 H 0.5067 0.6128 0.3334
H18 H 0.4599 0.5469 0.3813
H19 H 0.5384 0.6062 0.4115
C14 C 0.3000(2) 0.6213(2) 0.33827(16)
H20 H 0.3031 0.5780 0.3747
C15 C 0.1257(2) 0.5197(3) 0.37838(16)
C16 C 0.1127(2) 0.6227(3) 0.39973(18)
H21 H 0.0770 0.6554 0.3647
H22 H 0.1654 0.6555 0.4067
H23 H 0.0876 0.6231 0.4415
C17 C 0.1811(3) 0.4701(3) 0.43411(18)
H24 H 0.2348 0.5005 0.4391
H25 H 0.1868 0.4028 0.4227
H26 H 0.1571 0.4752 0.4763
C18 C 0.0423(3) 0.4688(3) 0.3726(2)
H27 H 0.0050 0.4991 0.3374
H28 H 0.0196 0.4735 0.4153
H29 H 0.0493 0.4017 0.3614
C19 C 0.20269(18) 0.4143(2) 0.26894(14)
C20 C 0.18227(18) 0.3764(2) 0.20279(15)
C21 C 0.21977(18) 0.2881(2) 0.18735(15)
C22 C 0.19758(19) 0.2392(2) 0.11887(16)
C23 C 0.2196(2) 0.3034(3) 0.06193(17)
H30 H 0.2050 0.2713 0.0190
H31 H 0.2782 0.3163 0.0680
H32 H 0.1895 0.3634 0.0625
C24 C 0.2423(3) 0.1446(3) 0.1137(2)
H33 H 0.2291 0.1018 0.1493
H34 H 0.3012 0.1561 0.1185
H35 H 0.2253 0.1155 0.0701
C25 C 0.1057(2) 0.2180(3) 0.10811(18)
H36 H 0.0912 0.1768 0.1442
H37 H 0.0921 0.1859 0.0650
H38 H 0.0752 0.2778 0.1083
C26 C 0.27814(18) 0.2479(2) 0.23495(16)
H39 H 0.3029 0.1899 0.2238
C27 C 0.30268(19) 0.2873(2) 0.29815(16)
C28 C 0.3716(2) 0.2437(3) 0.34623(17)
C29 C 0.3851(8) 0.1390(10) 0.3298(5)
H40 H 0.3340 0.1038 0.3305
H41 H 0.4269 0.1120 0.3630
H42 H 0.4030 0.1341 0.2852
C30 C 0.3475(6) 0.2452(8) 0.4180(4)
H43 H 0.2968 0.2095 0.4193
H44 H 0.3396 0.3112 0.4316
H45 H 0.3909 0.2159 0.4486
C31 C 0.4490(6) 0.2970(9) 0.3447(6)
H46 H 0.4919 0.2675 0.3757
H47 H 0.4413 0.3632 0.3581
H48 H 0.4648 0.2956 0.2992
C32 C 0.26382(18) 0.3709(2) 0.31287(15)
H49 H 0.2795 0.4004 0.3549
C33 C -0.0113(2) 0.7344(3) 0.2268(2)
H50 H 0.0463 0.7525 0.2297
H51 H -0.0187 0.6879 0.2619
H52 H -0.0443 0.7910 0.2328
C34 C -0.1190(2) 0.6643(3) 0.1554(2)
H53 H -0.1391 0.6620 0.1071
H54 H -0.1521 0.7114 0.1768
C35 C -0.1291(2) 0.5684(3) 0.1857(2)
H55 H -0.1109 0.5703 0.2344
H56 H -0.1871 0.5491 0.1791
C36 C -0.0836(3) 0.4087(3) 0.1803(2)
H57 H -0.0496 0.3663 0.1567
H58 H -0.1400 0.3857 0.1745
H59 H -0.0633 0.4098 0.2280
C37 C 0.2442(3) 0.5564(4) -0.0439(2)
H60 H 0.1880 0.5757 -0.0398
H61 H 0.2440 0.4956 -0.0678
H62 H 0.2705 0.6050 -0.0689
C38 C 0.3671(3) 0.5195(4) 0.0253(2)
H63 H 0.3966 0.5637 -0.0017
H64 H 0.3703 0.4553 0.0056
C39 C 0.4079(3) 0.5174(4) 0.0905(2)
H65 H 0.4509 0.4681 0.0917
H66 H 0.4357 0.5793 0.0989
C40 C 0.4026(3) 0.4970(4) 0.2070(2)
H67 H 0.3618 0.4825 0.2371
H68 H 0.4279 0.5587 0.2192
H69 H 0.4445 0.4473 0.2110
C41 C 0.0691(3) 0.6931(3) 0.03103(19)
H70 H 0.1146 0.7190 0.0613
H71 H 0.0182 0.7232 0.0404
H72 H 0.0780 0.7060 -0.0154
C42 C -0.0020(2) 0.5524(2) -0.00312(17)
H73 H 0.0027 0.5716 -0.0498
H74 H -0.0548 0.5759 0.0092
O1 O 0.17790(13) 0.65587(15) 0.17718(10)
O2 O 0.13341(13) 0.42348(15) 0.15761(10)
O3 O -0.03586(15) 0.69376(18) 0.16354(13)
O4 O -0.08079(14) 0.50235(18) 0.15360(12)
O5 O 0.28664(16) 0.5465(2) 0.01916(13)
O6 O 0.36502(17) 0.5007(2) 0.14091(15)
O7 O 0.06397(15) 0.59199(16) 0.04102(11)
P1 P 0.15205(5) 0.52593(6) 0.28864(4)
Na1 Na 0.05959(7) 0.56319(9) 0.16116(6)
Na2 Na 0.22299(9) 0.53172(10) 0.11916(8)
C1B C -0.23480(19) 0.3868(2) -0.28766(15)
C2B C -0.23096(18) 0.3273(2) -0.23000(15)
C3B C -0.28841(19) 0.2497(2) -0.23187(16)
C4B C -0.2824(2) 0.1747(2) -0.17505(17)
C5B C -0.3003(2) 0.2216(3) -0.10911(18)
H1B H -0.2962 0.1737 -0.0735
H2B H -0.2606 0.2724 -0.0971
H3B H -0.3554 0.2484 -0.1148
C6B C -0.1963(2) 0.1307(3) -0.16544(19)
H4B H -0.1931 0.0834 -0.1294
H5B H -0.1852 0.0999 -0.2071
H6B H -0.1560 0.1809 -0.1537
C7B C -0.3430(2) 0.0921(3) -0.1895(2)
H7B H -0.3365 0.0470 -0.1522
H8B H -0.3988 0.1171 -0.1948
H9B H -0.3324 0.0597 -0.2307
C8B C -0.3507(2) 0.2454(2) -0.28465(18)
H10B H -0.3892 0.1952 -0.2847
C9B C -0.3604(2) 0.3104(3) -0.33771(17)
C10B C -0.4337(3) 0.3070(3) -0.3923(2)
C11B C -0.4861(6) 0.2167(7) -0.3883(5)
H11B H -0.5045 0.2124 -0.3439
H12B H -0.5335 0.2199 -0.4224
H13B H -0.4536 0.1604 -0.3962
C12B C -0.4068(7) 0.3138(12) -0.4604(4)
H14B H -0.4545 0.3122 -0.4942
H15B H -0.3771 0.3735 -0.4643
H16B H -0.3710 0.2600 -0.4674
C13B C -0.4900(6) 0.3934(7) -0.3783(6)
H17B H -0.5067 0.3872 -0.3334
H18B H -0.4599 0.4531 -0.3813
H19B H -0.5384 0.3938 -0.4115
C14B C -0.3000(2) 0.3787(2) -0.33827(16)
H20B H -0.3031 0.4220 -0.3747
C15B C -0.1257(2) 0.4803(3) -0.37838(16)
C16B C -0.1127(2) 0.3773(3) -0.39973(18)
H21B H -0.0770 0.3446 -0.3647
H22B H -0.1654 0.3445 -0.4067
H23B H -0.0876 0.3769 -0.4415
C17B C -0.1811(3) 0.5299(3) -0.43411(18)
H24B H -0.2348 0.4995 -0.4391
H25B H -0.1868 0.5972 -0.4227
H26B H -0.1571 0.5248 -0.4763
C18B C -0.0423(3) 0.5312(3) -0.3726(2)
H27B H -0.0050 0.5009 -0.3374
H28B H -0.0196 0.5265 -0.4153
H29B H -0.0493 0.5983 -0.3614
C19B C -0.20269(18) 0.5857(2) -0.26894(14)
C20B C -0.18227(18) 0.6236(2) -0.20279(15)
C21B C -0.21977(18) 0.7119(2) -0.18735(15)
C22B C -0.19758(19) 0.7608(2) -0.11887(16)
C23B C -0.2196(2) 0.6966(3) -0.06193(17)
H30B H -0.2050 0.7287 -0.0190
H31B H -0.2782 0.6837 -0.0680
H32B H -0.1895 0.6366 -0.0625
C24B C -0.2423(3) 0.8554(3) -0.1137(2)
H33B H -0.2291 0.8982 -0.1493
H34B H -0.3012 0.8439 -0.1185
H35B H -0.2253 0.8845 -0.0701
C25B C -0.1057(2) 0.7820(3) -0.10811(18)
H36B H -0.0912 0.8232 -0.1442
H37B H -0.0921 0.8141 -0.0650
H38B H -0.0752 0.7222 -0.1083
C26B C -0.27814(18) 0.7521(2) -0.23495(16)
H39B H -0.3029 0.8101 -0.2238
C27B C -0.30268(19) 0.7127(2) -0.29815(16)
C28B C -0.3716(2) 0.7563(3) -0.34623(17)
C29B C -0.3851(8) 0.8610(10) -0.3298(5)
H40B H -0.3340 0.8962 -0.3305
H41B H -0.4269 0.8880 -0.3630
H42B H -0.4030 0.8659 -0.2852
C30B C -0.3475(6) 0.7548(8) -0.4180(4)
H43B H -0.2968 0.7905 -0.4193
H44B H -0.3396 0.6888 -0.4316
H45B H -0.3909 0.7841 -0.4486
C31B C -0.4490(6) 0.7030(9) -0.3447(6)
H46B H -0.4919 0.7325 -0.3757
H47B H -0.4413 0.6368 -0.3581
H48B H -0.4648 0.7044 -0.2992
C32B C -0.26382(18) 0.6291(2) -0.31287(15)
H49B H -0.2795 0.5996 -0.3549
C33B C 0.0113(2) 0.2656(3) -0.2268(2)
H50B H -0.0463 0.2475 -0.2297
H51B H 0.0187 0.3121 -0.2619
H52B H 0.0443 0.2090 -0.2328
C34B C 0.1190(2) 0.3357(3) -0.1554(2)
H53B H 0.1391 0.3380 -0.1071
H54B H 0.1521 0.2886 -0.1768
C35B C 0.1291(2) 0.4316(3) -0.1857(2)
H55B H 0.1109 0.4297 -0.2344
H56B H 0.1871 0.4509 -0.1791
C36B C 0.0836(3) 0.5913(3) -0.1803(2)
H57B H 0.0496 0.6337 -0.1567
H58B H 0.1400 0.6143 -0.1745
H59B H 0.0633 0.5902 -0.2280
C37B C -0.2442(3) 0.4436(4) 0.0439(2)
H60B H -0.1880 0.4243 0.0398
H61B H -0.2440 0.5044 0.0678
H62B H -0.2705 0.3950 0.0689
C38B C -0.3671(3) 0.4805(4) -0.0253(2)
H63B H -0.3966 0.4363 0.0017
H64B H -0.3703 0.5447 -0.0056
C39B C -0.4079(3) 0.4826(4) -0.0905(2)
H65B H -0.4509 0.5319 -0.0917
H66B H -0.4357 0.4207 -0.0989
C40B C -0.4026(3) 0.5030(4) -0.2070(2)
H67B H -0.3618 0.5175 -0.2371
H68B H -0.4279 0.4413 -0.2192
H69B H -0.4445 0.5527 -0.2110
C41B C -0.0691(3) 0.3069(3) -0.03103(19)
H70B H -0.1146 0.2810 -0.0613
H71B H -0.0182 0.2768 -0.0404
H72B H -0.0780 0.2940 0.0154
C42B C 0.0020(2) 0.4476(2) 0.00312(17)
H73B H -0.0027 0.4284 0.0498
H74B H 0.0548 0.4241 -0.0092
O1B O -0.17790(13) 0.34413(15) -0.17718(10)
O2B O -0.13341(13) 0.57652(15) -0.15761(10)
O3B O 0.03586(15) 0.30624(18) -0.16354(13)
O4B O 0.08079(14) 0.49765(18) -0.15360(12)
O5B O -0.28664(16) 0.4535(2) -0.01916(13)
O6B O -0.36502(17) 0.4993(2) -0.14091(15)
O7B O -0.06397(15) 0.40801(16) -0.04102(11)
P1B P -0.15205(5) 0.47407(6) -0.28864(4)
Na1B Na -0.05959(7) 0.43681(9) -0.16116(6)
Na2B Na -0.22299(9) 0.46828(10) -0.11916(8)
C43? C 0.4248(8) 0.7902(10) 0.4347(7)
C44? C 0.4285(10) 0.6138(11) 0.4469(8)
C45? C 0.5104(7) 0.6918(17) 0.3666(7)
C46? C 0.3551(12) 0.1445(15) 0.3639(8)
C47? C 0.3946(14) 0.3052(16) 0.4087(11)
C48? C 0.4501(9) 0.2414(17) 0.3084(9)
H75? H 0.3724 0.7901 0.4530
H76? H 0.4274 0.8454 0.4052
H77? H 0.4693 0.7939 0.4714
H78? H 0.3746 0.6156 0.4626
H79? H 0.4705 0.6252 0.4846
H80? H 0.4371 0.5512 0.4274
H81? H 0.5543 0.6932 0.4039
H82? H 0.5148 0.7477 0.3381
H83? H 0.5149 0.6338 0.3403
H84? H 0.4008 0.1201 0.3945
H85? H 0.3483 0.1056 0.3233
H86? H 0.3051 0.1419 0.3857
H87? H 0.4392 0.2748 0.4374
H88? H 0.3472 0.3119 0.4335
H89? H 0.4119 0.3683 0.3952
H90? H 0.4956 0.2137 0.3377
H91? H 0.4641 0.3063 0.2962
H92? H 0.4393 0.2027 0.2678
loop_
_geom_bond_atom_site_label_1
_geom_bond_atom_site_label_2
_geom_bond_site_symmetry_1
_geom_bond_site_symmetry_2
C1 C2 1_555 1_555
C2 C3 1_555 1_555
C3 C4 1_555 1_555
C4 C5 1_555 1_555
C5 H1 1_555 1_555
H2 C5 1_555 1_555
H3 C5 1_555 1_555
C6 C4 1_555 1_555
H4 C6 1_555 1_555
H5 C6 1_555 1_555
H6 C6 1_555 1_555
C7 C4 1_555 1_555
H7 C7 1_555 1_555
H8 C7 1_555 1_555
H9 C7 1_555 1_555
C8 C3 1_555 1_555
H10 C8 1_555 1_555
C9 C8 1_555 1_555
C10 C9 1_555 1_555
C11 C10 1_555 1_555
H11 C11 1_555 1_555
H12 C11 1_555 1_555
H13 C11 1_555 1_555
C12 C10 1_555 1_555
H14 C12 1_555 1_555
H15 C12 1_555 1_555
H16 C12 1_555 1_555
C13 C10 1_555 1_555
H17 C13 1_555 1_555
H18 C13 1_555 1_555
H19 C13 1_555 1_555
C14 C1 1_555 1_555
H20 C14 1_555 1_555
C15 C16 1_555 1_555
C16 H21 1_555 1_555
H22 C16 1_555 1_555
H23 C16 1_555 1_555
C17 C15 1_555 1_555
H24 C17 1_555 1_555
H25 C17 1_555 1_555
H26 C17 1_555 1_555
C18 C15 1_555 1_555
H27 C18 1_555 1_555
H28 C18 1_555 1_555
H29 C18 1_555 1_555
C19 C20 1_555 1_555
C20 C21 1_555 1_555
C21 C22 1_555 1_555
C22 C23 1_555 1_555
C23 H30 1_555 1_555
H31 C23 1_555 1_555
H32 C23 1_555 1_555
C24 C22 1_555 1_555
H33 C24 1_555 1_555
H34 C24 1_555 1_555
H35 C24 1_555 1_555
C25 C22 1_555 1_555
H36 C25 1_555 1_555
H37 C25 1_555 1_555
H38 C25 1_555 1_555
C26 C21 1_555 1_555
H39 C26 1_555 1_555
C27 C26 1_555 1_555
C28 C27 1_555 1_555
C29 C28 1_555 1_555
H40 C29 1_555 1_555
H41 C29 1_555 1_555
H42 C29 1_555 1_555
C30 C28 1_555 1_555
H43 C30 1_555 1_555
H44 C30 1_555 1_555
H45 C30 1_555 1_555
C31 C28 1_555 1_555
H46 C31 1_555 1_555
H47 C31 1_555 1_555
H48 C31 1_555 1_555
C32 C19 1_555 1_555
H49 C32 1_555 1_555
C33 H50 1_555 1_555
H51 C33 1_555 1_555
H52 C33 1_555 1_555
C34 H53 1_555 1_555
H54 C34 1_555 1_555
C35 C34 1_555 1_555
H55 C35 1_555 1_555
H56 C35 1_555 1_555
C36 H57 1_555 1_555
H58 C36 1_555 1_555
H59 C36 1_555 1_555
C37 H60 1_555 1_555
H61 C37 1_555 1_555
H62 C37 1_555 1_555
C38 H63 1_555 1_555
H64 C38 1_555 1_555
C39 C38 1_555 1_555
H65 C39 1_555 1_555
H66 C39 1_555 1_555
C40 H67 1_555 1_555
H68 C40 1_555 1_555
H69 C40 1_555 1_555
C41 H70 1_555 1_555
H71 C41 1_555 1_555
H72 C41 1_555 1_555
C42 H73 1_555 1_555
H74 C42 1_555 1_555
O1 C2 1_555 1_555
O2 C20 1_555 1_555
O3 C33 1_555 1_555
O4 C35 1_555 1_555
O5 C37 1_555 1_555
O6 C39 1_555 1_555
O7 C41 1_555 1_555
P1 C1 1_555 1_555
Na1 O1 1_555 1_555
Na2 O1 1_555 1_555
C1B C2B 1_555 1_555
C2B C3B 1_555 1_555
C3B C4B 1_555 1_555
C4B C5B 1_555 1_555
C5B H1B 1_555 1_555
H2B C5B 1_555 1_555
H3B C5B 1_555 1_555
C6B C4B 1_555 1_555
H4B C6B 1_555 1_555
H5B C6B 1_555 1_555
H6B C6B 1_555 1_555
C7B C4B 1_555 1_555
H7B C7B 1_555 1_555
H8B C7B 1_555 1_555
H9B C7B 1_555 1_555
C8B C3B 1_555 1_555
H10B C8B 1_555 1_555
C9B C8B 1_555 1_555
C10B C9B 1_555 1_555
C11B C10B 1_555 1_555
H11B C11B 1_555 1_555
H12B C11B 1_555 1_555
H13B C11B 1_555 1_555
C12B C10B 1_555 1_555
H14B C12B 1_555 1_555
H15B C12B 1_555 1_555
H16B C12B 1_555 1_555
C13B C10B 1_555 1_555
H17B C13B 1_555 1_555
H18B C13B 1_555 1_555
H19B C13B 1_555 1_555
C14B C1B 1_555 1_555
H20B C14B 1_555 1_555
C15B C16B 1_555 1_555
C16B H21B 1_555 1_555
H22B C16B 1_555 1_555
H23B C16B 1_555 1_555
C17B C15B 1_555 1_555
H24B C17B 1_555 1_555
H25B C17B 1_555 1_555
H26B C17B 1_555 1_555
C18B C15B 1_555 1_555
H27B C18B 1_555 1_555
H28B C18B 1_555 1_555
H29B C18B 1_555 1_555
C19B C20B 1_555 1_555
C20B C21B 1_555 1_555
C21B C22B 1_555 1_555
C22B C23B 1_555 1_555
C23B H30B 1_555 1_555
H31B C23B 1_555 1_555
H32B C23B 1_555 1_555
C24B C22B 1_555 1_555
H33B C24B 1_555 1_555
H34B C24B 1_555 1_555
H35B C24B 1_555 1_555
C25B C22B 1_555 1_555
H36B C25B 1_555 1_555
H37B C25B 1_555 1_555
H38B C25B 1_555 1_555
C26B C21B 1_555 1_555
H39B C26B 1_555 1_555
C27B C26B 1_555 1_555
C28B C27B 1_555 1_555
C29B C28B 1_555 1_555
H40B C29B 1_555 1_555
H41B C29B 1_555 1_555
H42B C29B 1_555 1_555
C30B C28B 1_555 1_555
H43B C30B 1_555 1_555
H44B C30B 1_555 1_555
H45B C30B 1_555 1_555
C31B C28B 1_555 1_555
H46B C31B 1_555 1_555
H47B C31B 1_555 1_555
H48B C31B 1_555 1_555
C32B C19B 1_555 1_555
H49B C32B 1_555 1_555
C33B H50B 1_555 1_555
H51B C33B 1_555 1_555
H52B C33B 1_555 1_555
C34B H53B 1_555 1_555
H54B C34B 1_555 1_555
C35B C34B 1_555 1_555
H55B C35B 1_555 1_555
H56B C35B 1_555 1_555
C36B H57B 1_555 1_555
H58B C36B 1_555 1_555
H59B C36B 1_555 1_555
C37B H60B 1_555 1_555
H61B C37B 1_555 1_555
H62B C37B 1_555 1_555
C38B H63B 1_555 1_555
H64B C38B 1_555 1_555
C39B C38B 1_555 1_555
H65B C39B 1_555 1_555
H66B C39B 1_555 1_555
C40B H67B 1_555 1_555
H68B C40B 1_555 1_555
H69B C40B 1_555 1_555
C41B H70B 1_555 1_555
H71B C41B 1_555 1_555
H72B C41B 1_555 1_555
C42B C42 1_555 1_555
H73B C42B 1_555 1_555
H74B C42B 1_555 1_555
O1B C2B 1_555 1_555
O2B C20B 1_555 1_555
O3B C33B 1_555 1_555
O4B C35B 1_555 1_555
O5B C37B 1_555 1_555
O6B C39B 1_555 1_555
O7B C41B 1_555 1_555
P1B C1B 1_555 1_555
Na1B O1B 1_555 1_555
Na2B O1B 1_555 1_555
C9 C14 1_555 1_555
C15 P1 1_555 1_555
C19 P1 1_555 1_555
C27 C32 1_555 1_555
C34 O3 1_555 1_555
C36 O4 1_555 1_555
C38 O5 1_555 1_555
C40 O6 1_555 1_555
C42 O7 1_555 1_555
O2 Na1 1_555 1_555
O2 Na2 1_555 1_555
O3 Na1 1_555 1_555
O4 Na1 1_555 1_555
O5 Na2 1_555 1_555
O6 Na2 1_555 1_555
O7 Na1 1_555 1_555
P1 Na1 1_555 1_555
C9B C14B 1_555 1_555
C15B P1B 1_555 1_555
C19B P1B 1_555 1_555
C27B C32B 1_555 1_555
C34B O3B 1_555 1_555
C36B O4B 1_555 1_555
C38B O5B 1_555 1_555
C40B O6B 1_555 1_555
C42B O7B 1_555 1_555
O2B Na1B 1_555 1_555
O2B Na2B 1_555 1_555
O3B Na1B 1_555 1_555
O4B Na1B 1_555 1_555
O5B Na2B 1_555 1_555
O6B Na2B 1_555 1_555
O7B Na1B 1_555 1_555
P1B Na1B 1_555 1_555

#END
