
#######################################################################
#
#                 Cambridge Crystallographic Data Centre
#                                CCDC 
#
#######################################################################
#
# If this CIF has been generated from an entry in the Cambridge 
# Structural Database, then it will include bibliographic, chemical, 
# crystal, experimental, refinement or atomic coordinate data resulting 
# from the CCDC's data processing and validation procedures.
#
#######################################################################

data_OJEMEX
_chemical_formula_moiety         'C25 H24 N2 O1'
_chemical_name_systematic        
4-(2-(4-(1,3-benzoxazol-2-yl)phenyl)vinyl)-N,N-diethylaniline
_symmetry_cell_setting           orthorhombic
_symmetry_space_group_name_H-M   'P 21 21 21'
_symmetry_Int_Tables_number      19
_space_group_name_Hall           'P 2ac 2ab'
loop_
_symmetry_equiv_pos_site_id
_symmetry_equiv_pos_as_xyz
1 x,y,z
2 1/2-x,-y,1/2+z
3 -x,1/2+y,1/2-z
4 1/2+x,1/2-y,-z
_cell_length_a                   7.589(2)
_cell_length_b                   9.368(3)
_cell_length_c                   28.167(8)
_cell_angle_alpha                90
_cell_angle_beta                 90
_cell_angle_gamma                90
_cell_volume                     2002.5
_cell_formula_units_Z            4
loop_
_atom_site_label
_atom_site_type_symbol
_atom_site_fract_x
_atom_site_fract_y
_atom_site_fract_z
N1 N 0.5465(6) 1.4248(5) 1.15580(16)
N2 N 0.4777(7) 0.4065(4) 0.83602(16)
O1 O 0.4112(5) 1.5480(4) 1.09760(13)
C1 C 0.4812(7) 1.3010(5) 1.08002(19)
C2 C 0.4725(8) 0.5128(5) 0.86981(19)
C3 C 0.4293(7) 1.6378(6) 1.1365(2)
C4 C 0.4871(7) 1.4202(5) 1.11287(19)
C5 C 0.5653(8) 1.1745(6) 1.0908(2)
H1 H 0.6272 1.1667 1.1192
C6 C 0.5108(7) 1.5626(5) 1.17176(18)
C7 C 0.5988(8) 0.2845(6) 0.8405(2)
H2 H 0.7021 0.3142 0.8582
H3 H 0.6371 0.2555 0.8091
C8 C 0.3895(8) 0.6445(6) 0.8618(2)
H4 H 0.3316 0.6611 0.8332
C9 C 0.5479(8) 0.4955(6) 0.91482(18)
H5 H 0.6017 0.4090 0.9221
C10 C 0.3928(8) 1.3120(7) 1.03717(19)
H6 H 0.3389 1.3977 1.0289
C11 C 0.4726(10) 0.7328(7) 0.9399(3)
C12 C 0.5001(10) 0.8311(7) 0.9810(3)
H7 H 0.5601 0.8002 1.0079
C13 C 0.4657(9) 1.0709(7) 1.0168(2)
C14 C 0.3935(9) 0.7493(6) 0.8962(3)
H8 H 0.3396 0.8362 0.8894
C15 C 0.5442(9) 1.6295(6) 1.2148(2)
H9 H 0.6019 1.5821 1.2393
C16 C 0.3837(9) 1.1990(7) 1.0071(2)
H10 H 0.3203 1.2083 0.9790
C17 C 0.3653(8) 0.4085(7) 0.7944(2)
H11 H 0.2601 0.4630 0.8018
H12 H 0.3289 0.3114 0.7875
C18 C 0.5593(9) 1.0586(6) 1.0600(2)
H13 H 0.6161 0.9738 1.0678
C19 C 0.5167(10) 0.1597(6) 0.8649(2)
H14 H 0.4924 0.1839 0.8974
H15 H 0.5961 0.0800 0.8639
H16 H 0.4087 0.1349 0.8492
C20 C 0.3760(9) 1.7767(6) 1.1405(3)
H17 H 0.3224 1.8248 1.1155
C21 C 0.4348(10) 0.9689(7) 0.9784(3)
H18 H 0.3704 0.9969 0.9519
C22 C 0.4887(9) 1.7683(7) 1.2199(2)
H19 H 0.5074 1.8148 1.2487
C23 C 0.5457(9) 0.5991(7) 0.9482(2)
H20 H 0.5948 0.5802 0.9778
C24 C 0.4058(10) 1.8408(7) 1.1834(3)
H21 H 0.3697 1.9347 1.1881
C25 C 0.4476(11) 0.4695(10) 0.7514(2)
H22 H 0.4908 0.5636 0.7584
H23 H 0.3617 0.4749 0.7265
H24 H 0.5437 0.4099 0.7416
loop_
_geom_bond_atom_site_label_1
_geom_bond_atom_site_label_2
_geom_bond_site_symmetry_1
_geom_bond_site_symmetry_2
N1 C4 1_555 1_555
N2 C2 1_555 1_555
O1 C3 1_555 1_555
C1 C4 1_555 1_555
C2 C8 1_555 1_555
C3 C6 1_555 1_555
C4 O1 1_555 1_555
C5 C1 1_555 1_555
H1 C5 1_555 1_555
C6 N1 1_555 1_555
C7 N2 1_555 1_555
H2 C7 1_555 1_555
H3 C7 1_555 1_555
C8 H4 1_555 1_555
C9 C2 1_555 1_555
H5 C9 1_555 1_555
C10 C1 1_555 1_555
H6 C10 1_555 1_555
C11 C12 1_555 1_555
C12 H7 1_555 1_555
C13 C16 1_555 1_555
C14 C8 1_555 1_555
H8 C14 1_555 1_555
C15 C6 1_555 1_555
H9 C15 1_555 1_555
C16 C10 1_555 1_555
H10 C16 1_555 1_555
C17 N2 1_555 1_555
H11 C17 1_555 1_555
H12 C17 1_555 1_555
C18 C5 1_555 1_555
H13 C18 1_555 1_555
C19 C7 1_555 1_555
H14 C19 1_555 1_555
H15 C19 1_555 1_555
H16 C19 1_555 1_555
C20 C3 1_555 1_555
H17 C20 1_555 1_555
C21 C12 1_555 1_555
H18 C21 1_555 1_555
C22 C15 1_555 1_555
H19 C22 1_555 1_555
C23 C9 1_555 1_555
H20 C23 1_555 1_555
C24 C20 1_555 1_555
H21 C24 1_555 1_555
C25 C17 1_555 1_555
H22 C25 1_555 1_555
H23 C25 1_555 1_555
H24 C25 1_555 1_555
C11 C14 1_555 1_555
C11 C23 1_555 1_555
C13 C18 1_555 1_555
C13 C21 1_555 1_555
C22 C24 1_555 1_555

#END
