
#######################################################################
#
#                 Cambridge Crystallographic Data Centre
#                                CCDC 
#
#######################################################################
#
# If this CIF has been generated from an entry in the Cambridge 
# Structural Database, then it will include bibliographic, chemical, 
# crystal, experimental, refinement or atomic coordinate data resulting 
# from the CCDC's data processing and validation procedures.
#
#######################################################################

data_OJENUM
_chemical_formula_moiety         'C12 H8 Cl2 N2 O1'
_chemical_name_systematic        'trans-1,2-bis(3-Chlorophenyl)diazine oxide'
_symmetry_cell_setting           monoclinic
_symmetry_space_group_name_H-M   'P 21/n'
_symmetry_Int_Tables_number      14
_space_group_name_Hall           '-P 2yn'
loop_
_symmetry_equiv_pos_site_id
_symmetry_equiv_pos_as_xyz
1 x,y,z
2 1/2+x,1/2-y,1/2+z
3 -x,-y,-z
4 1/2-x,1/2+y,1/2-z
_cell_length_a                   3.911(5)
_cell_length_b                   5.893(5)
_cell_length_c                   25.367(5)
_cell_angle_alpha                90
_cell_angle_beta                 94.155(5)
_cell_angle_gamma                90
_cell_volume                     583.11
_exptl_crystal_colour            'pale yellow'
_exptl_crystal_description       needle
_chemical_melting_point          367-368K
_cell_formula_units_Z            2
_exptl_crystal_recrystallization_method hexane
loop_
_atom_site_label
_atom_site_type_symbol
_atom_site_fract_x
_atom_site_fract_y
_atom_site_fract_z
Cl1 Cl 0.3752(2) 0.3764(2) 0.29551(3)
O1 O 0.7582(14) 0.7545(8) 0.52152(16)
N1 N 0.5810(7) 0.5880(4) 0.49375(9)
C1 C 0.6025(7) 0.6347(5) 0.43800(11)
C2 C 0.4869(7) 0.4899(5) 0.39766(9)
H1 H 0.3863 0.3516 0.4050
C3 C 0.5245(7) 0.5552(5) 0.34645(10)
C4 C 0.6758(8) 0.7591(7) 0.33474(15)
H2 H 0.7005 0.8004 0.2998
C5 C 0.7886(9) 0.8994(6) 0.3753(2)
H3 H 0.8904 1.0372 0.3678
C6 C 0.7538(9) 0.8399(6) 0.42696(16)
H4 H 0.8310 0.9366 0.4543
N1B N 0.4190(7) 0.4120(4) 0.50625(9)
O1B O 0.2418(14) 0.2455(8) 0.47848(16)
C1B C 0.3975(7) 0.3653(5) 0.56200(11)
C2B C 0.5131(7) 0.5101(5) 0.60234(9)
H1B H 0.6137 0.6484 0.5950
C3B C 0.4755(7) 0.4448(5) 0.65355(10)
Cl1B Cl 0.6248(2) 0.6236(2) 0.70449(3)
C4B C 0.3242(8) 0.2409(7) 0.66526(15)
H2B H 0.2995 0.1996 0.7002
C5B C 0.2114(9) 0.1006(6) 0.6247(2)
H3B H 0.1096 -0.0372 0.6322
C6B C 0.2462(9) 0.1601(6) 0.57304(16)
H4B H 0.1690 0.0634 0.5457
loop_
_geom_bond_atom_site_label_1
_geom_bond_atom_site_label_2
_geom_bond_site_symmetry_1
_geom_bond_site_symmetry_2
Cl1 C3 1_555 1_555
O1 N1 1_555 1_555
N1 C1 1_555 1_555
C1 C2 1_555 1_555
C2 H1 1_555 1_555
C3 C2 1_555 1_555
C4 C3 1_555 1_555
H2 C4 1_555 1_555
C5 C4 1_555 1_555
H3 C5 1_555 1_555
C6 C1 1_555 1_555
H4 C6 1_555 1_555
N1B N1 1_555 1_555
O1B N1B 1_555 1_555
C1B N1B 1_555 1_555
C2B C1B 1_555 1_555
H1B C2B 1_555 1_555
C3B C2B 1_555 1_555
Cl1B C3B 1_555 1_555
C4B C3B 1_555 1_555
H2B C4B 1_555 1_555
C5B C4B 1_555 1_555
H3B C5B 1_555 1_555
C6B C1B 1_555 1_555
H4B C6B 1_555 1_555
C5 C6 1_555 1_555
C5B C6B 1_555 1_555

#END
