
#######################################################################
#
#                 Cambridge Crystallographic Data Centre
#                                CCDC 
#
#######################################################################
#
# If this CIF has been generated from an entry in the Cambridge 
# Structural Database, then it will include bibliographic, chemical, 
# crystal, experimental, refinement or atomic coordinate data resulting 
# from the CCDC's data processing and validation procedures.
#
#######################################################################

data_OJERUQ
_chemical_compound_source        
'rhizomes of Astilbe chinensis (Maxim.) Franch. et Savat. (Saxifragaceae)'
_chemical_name_common            
'(4aR,6bR,12aR)-10-Hydroxy-2,2,4a,6b,9,9,12a-heptamethyl-2,3,4,4a,5,6,6b,7,8,8a,9,10,11,12,12a,12b,13,14b-octadecahydro-1H-picene-6a-carboxylic acid methanol solvate'
_chemical_formula_moiety         'C30 H48 O3,C1 H4 O1'
_chemical_name_systematic        
'3\b-Hydroxyolean-12-en-27-oic acid methanol solvate'
_chemical_properties_biological  'cytotoxic and apoptosis-inducing activity'
_symmetry_cell_setting           orthorhombic
_symmetry_space_group_name_H-M   'P 21 21 21'
_symmetry_Int_Tables_number      19
_space_group_name_Hall           'P 2ac 2ab'
loop_
_symmetry_equiv_pos_site_id
_symmetry_equiv_pos_as_xyz
1 x,y,z
2 1/2-x,-y,1/2+z
3 -x,1/2+y,1/2-z
4 1/2+x,1/2-y,-z
_cell_length_a                   7.538(2)
_cell_length_b                   13.710(3)
_cell_length_c                   27.629(8)
_cell_angle_alpha                90
_cell_angle_beta                 90
_cell_angle_gamma                90
_cell_volume                     2855.35
_exptl_crystal_colour            colorless
_exptl_crystal_description       prism
_cell_formula_units_Z            4
_exptl_crystal_recrystallization_method methanol
loop_
_atom_site_label
_atom_site_type_symbol
_atom_site_fract_x
_atom_site_fract_y
_atom_site_fract_z
O1 O 0.4762(4) -0.0208(3) 0.51890(12)
H1 H 0.3817 -0.0143 0.5333
O2 O 0.4050(4) 0.5275(2) 0.37966(11)
H2 H 0.3778 0.5625 0.4026
O3 O 0.6369(4) 0.4965(2) 0.42622(10)
C1 C 0.7680(6) 0.1705(3) 0.46233(16)
H3 H 0.8964 0.1731 0.4603
H4 H 0.7287 0.2264 0.4810
C2 C 0.7130(6) 0.0764(4) 0.48897(18)
H5 H 0.7607 0.0204 0.4719
H6 H 0.7628 0.0768 0.5213
C3 C 0.5152(6) 0.0675(4) 0.49213(16)
H7 H 0.4715 0.1227 0.5112
C4 C 0.4211(6) 0.0704(3) 0.44268(17)
C5 C 0.4858(5) 0.1643(3) 0.41638(15)
H8 H 0.4515 0.2170 0.4384
C6 C 0.3910(6) 0.1891(3) 0.36983(16)
H9 H 0.2652 0.1764 0.3734
H10 H 0.4357 0.1483 0.3439
C7 C 0.4200(6) 0.2978(3) 0.35689(16)
H11 H 0.3531 0.3135 0.3279
H12 H 0.3757 0.3383 0.3830
C8 C 0.6169(5) 0.3207(3) 0.34835(14)
C9 C 0.7282(5) 0.2852(3) 0.39223(15)
H13 H 0.6953 0.3281 0.4191
C10 C 0.6899(5) 0.1774(3) 0.41076(16)
C11 C 0.9246(6) 0.3043(3) 0.38315(17)
H14 H 0.9878 0.3004 0.4137
H15 H 0.9708 0.2536 0.3621
C12 C 0.9599(6) 0.4020(3) 0.36042(16)
H16 H 1.0777 0.4221 0.3591
C13 C 0.8396(6) 0.4630(3) 0.34187(15)
C14 C 0.6421(5) 0.4355(3) 0.34280(15)
C15 C 0.5490(6) 0.4746(4) 0.29624(16)
H17 H 0.5726 0.4296 0.2699
H18 H 0.4218 0.4749 0.3017
C16 C 0.6056(7) 0.5765(4) 0.28055(18)
H19 H 0.5695 0.6232 0.3050
H20 H 0.5456 0.5932 0.2506
C17 C 0.8069(6) 0.5839(4) 0.27293(17)
C18 C 0.8975(6) 0.5597(3) 0.32132(15)
H21 H 1.0243 0.5532 0.3142
C19 C 0.8813(7) 0.6423(3) 0.35877(16)
H22 H 0.7580 0.6480 0.3684
H23 H 0.9490 0.6246 0.3873
C20 C 0.9454(8) 0.7419(4) 0.3410(2)
C21 C 0.8390(8) 0.7660(4) 0.2944(2)
H24 H 0.7146 0.7734 0.3026
H25 H 0.8803 0.8276 0.2813
C22 C 0.8581(8) 0.6870(4) 0.25607(18)
H26 H 0.9804 0.6859 0.2451
H27 H 0.7848 0.7042 0.2285
C23 C 0.4504(7) -0.0255(4) 0.41420(18)
H28 H 0.3728 -0.0751 0.4266
H29 H 0.5714 -0.0462 0.4178
H30 H 0.4250 -0.0148 0.3806
C24 C 0.2222(6) 0.0786(4) 0.45259(19)
H31 H 0.1871 0.0289 0.4751
H32 H 0.1579 0.0706 0.4229
H33 H 0.1965 0.1416 0.4660
C25 C 0.7728(6) 0.0986(3) 0.37885(18)
H34 H 0.8036 0.0432 0.3984
H35 H 0.8776 0.1240 0.3636
H36 H 0.6893 0.0791 0.3545
C26 C 0.6791(7) 0.2719(4) 0.30065(16)
H37 H 0.6879 0.2027 0.3053
H38 H 0.7930 0.2975 0.2917
H39 H 0.5949 0.2854 0.2755
C27 C 0.5642(6) 0.4899(3) 0.38719(16)
C28 C 0.8725(8) 0.5138(4) 0.23351(15)
H40 H 0.8102 0.5266 0.2039
H41 H 0.8510 0.4478 0.2434
H42 H 0.9974 0.5232 0.2285
C29 C 1.1465(7) 0.7437(4) 0.3318(2)
H43 H 1.2082 0.7308 0.3615
H44 H 1.1803 0.8067 0.3197
H45 H 1.1765 0.6947 0.3083
C30 C 0.9068(11) 0.8182(4) 0.3801(2)
H46 H 0.9762 0.8041 0.4084
H47 H 0.7830 0.8165 0.3883
H48 H 0.9370 0.8819 0.3683
O4 O 0.2549(5) 0.6319(3) 0.44767(13)
H49 H 0.1650 0.6089 0.4599
C31 C 0.3446(14) 0.6856(6) 0.4815(3)
H50 H 0.4700 0.6785 0.4765
H51 H 0.3144 0.6628 0.5133
H52 H 0.3124 0.7530 0.4785
loop_
_geom_bond_atom_site_label_1
_geom_bond_atom_site_label_2
_geom_bond_site_symmetry_1
_geom_bond_site_symmetry_2
O1 H1 1_555 1_555
O2 H2 1_555 1_555
O3 C27 1_555 1_555
C1 H3 1_555 1_555
H4 C1 1_555 1_555
C2 C1 1_555 1_555
H5 C2 1_555 1_555
H6 C2 1_555 1_555
C3 O1 1_555 1_555
H7 C3 1_555 1_555
C4 C3 1_555 1_555
C5 C4 1_555 1_555
H8 C5 1_555 1_555
C6 C5 1_555 1_555
H9 C6 1_555 1_555
H10 C6 1_555 1_555
C7 C6 1_555 1_555
H11 C7 1_555 1_555
H12 C7 1_555 1_555
C8 C7 1_555 1_555
C9 C8 1_555 1_555
H13 C9 1_555 1_555
C10 C1 1_555 1_555
C11 C9 1_555 1_555
H14 C11 1_555 1_555
H15 C11 1_555 1_555
C12 C11 1_555 1_555
H16 C12 1_555 1_555
C13 C12 1_555 1_555
C14 C8 1_555 1_555
C15 C14 1_555 1_555
H17 C15 1_555 1_555
H18 C15 1_555 1_555
C16 C15 1_555 1_555
H19 C16 1_555 1_555
H20 C16 1_555 1_555
C17 C16 1_555 1_555
C18 C13 1_555 1_555
H21 C18 1_555 1_555
C19 C18 1_555 1_555
H22 C19 1_555 1_555
H23 C19 1_555 1_555
C20 C19 1_555 1_555
C21 C20 1_555 1_555
H24 C21 1_555 1_555
H25 C21 1_555 1_555
C22 C17 1_555 1_555
H26 C22 1_555 1_555
H27 C22 1_555 1_555
C23 C4 1_555 1_555
H28 C23 1_555 1_555
H29 C23 1_555 1_555
H30 C23 1_555 1_555
C24 C4 1_555 1_555
H31 C24 1_555 1_555
H32 C24 1_555 1_555
H33 C24 1_555 1_555
C25 C10 1_555 1_555
H34 C25 1_555 1_555
H35 C25 1_555 1_555
H36 C25 1_555 1_555
C26 C8 1_555 1_555
H37 C26 1_555 1_555
H38 C26 1_555 1_555
H39 C26 1_555 1_555
C27 O2 1_555 1_555
C28 C17 1_555 1_555
H40 C28 1_555 1_555
H41 C28 1_555 1_555
H42 C28 1_555 1_555
C29 C20 1_555 1_555
H43 C29 1_555 1_555
H44 C29 1_555 1_555
H45 C29 1_555 1_555
C30 C20 1_555 1_555
H46 C30 1_555 1_555
H47 C30 1_555 1_555
H48 C30 1_555 1_555
O4 H49 1_555 1_555
C31 O4 1_555 1_555
H50 C31 1_555 1_555
H51 C31 1_555 1_555
H52 C31 1_555 1_555
C2 C3 1_555 1_555
C5 C10 1_555 1_555
C9 C10 1_555 1_555
C13 C14 1_555 1_555
C14 C27 1_555 1_555
C17 C18 1_555 1_555
C21 C22 1_555 1_555

#END
