
#######################################################################
#
#                 Cambridge Crystallographic Data Centre
#                                CCDC 
#
#######################################################################
#
# If this CIF has been generated from an entry in the Cambridge 
# Structural Database, then it will include bibliographic, chemical, 
# crystal, experimental, refinement or atomic coordinate data resulting 
# from the CCDC's data processing and validation procedures.
#
#######################################################################

data_OJESON
_chemical_formula_moiety         'C24 H22 F1 N1 O5'
_chemical_name_systematic        
9-(4-fluorobenzoyl)-2-hydroxy-8-(4-methoxyphenyl)-7-propyl-1-oxa-7-azaspiro[4.4]nona-3,8-dien-6-one
_symmetry_cell_setting           monoclinic
_symmetry_space_group_name_H-M   'P 21/n'
_symmetry_Int_Tables_number      14
_space_group_name_Hall           '-P 2yn'
loop_
_symmetry_equiv_pos_site_id
_symmetry_equiv_pos_as_xyz
1 x,y,z
2 1/2-x,1/2+y,1/2-z
3 -x,-y,-z
4 1/2+x,1/2-y,1/2+z
_cell_length_a                   10.5930(3)
_cell_length_b                   11.1116(3)
_cell_length_c                   17.5737(5)
_cell_angle_alpha                90
_cell_angle_beta                 95.862(3)
_cell_angle_gamma                90
_cell_volume                     2057.7
_exptl_crystal_colour            colorless
_exptl_crystal_description       plane
_cell_formula_units_Z            4
loop_
_atom_site_label
_atom_site_type_symbol
_atom_site_fract_x
_atom_site_fract_y
_atom_site_fract_z
O1 O 0.4447(2) 0.6901(2) 0.01764(13)
O2 O 0.0776(2) 0.7574(2) 0.20129(13)
O3 O 0.2292(2) 0.60232(18) 0.11157(12)
O4 O 0.84983(19) 1.01403(19) 0.34270(13)
N1 N 0.2850(2) 0.8112(2) 0.23787(13)
F1 F 0.9144(2) 1.0311(2) 0.09786(14)
C1 C 0.8044(3) 0.9672(3) 0.08919(19)
C2 C 0.6933(3) 1.0266(3) 0.09710(19)
H1 H 0.6924 1.1090 0.1063
C3 C 0.5821(3) 0.9598(3) 0.09086(17)
H2 H 0.5053 0.9971 0.0973
C4 C 0.5849(3) 0.8375(3) 0.07509(16)
C5 C 0.6993(3) 0.7818(3) 0.06386(17)
H3 H 0.7006 0.7008 0.0506
C6 C 0.8105(3) 0.8469(3) 0.07234(18)
H4 H 0.8879 0.8101 0.0668
C7 C 0.4671(3) 0.7614(3) 0.07099(17)
C8 C 0.3790(3) 0.7723(3) 0.12914(16)
C9 C 0.3987(3) 0.8143(2) 0.20236(16)
C10 C 0.1868(3) 0.7684(3) 0.18805(17)
C11 C 0.2428(3) 0.7311(3) 0.11406(17)
C12 C 0.1284(3) 0.6816(3) -0.00014(19)
C13 C 0.1703(3) 0.7738(3) 0.04188(17)
H5 H 0.1566 0.8541 0.0286
C14 C 0.5157(3) 0.8598(3) 0.24495(15)
C15 C 0.5191(3) 0.9749(3) 0.27759(16)
H6 H 0.4445 1.0192 0.2771
C16 C 0.6306(3) 1.0233(3) 0.31023(17)
H7 H 0.6315 1.1001 0.3313
C17 C 0.7431(3) 0.9569(3) 0.31175(16)
C18 C 0.7407(3) 0.8411(3) 0.28197(16)
H8 H 0.8147 0.7956 0.2844
C19 C 0.6269(3) 0.7937(3) 0.24857(16)
H9 H 0.6255 0.7164 0.2283
C20 C 0.9678(3) 0.9517(3) 0.3418(2)
H10 H 1.0351 1.0001 0.3665
H11 H 0.9837 0.9365 0.2899
H12 H 0.9638 0.8767 0.3686
C21 C 0.2737(3) 0.8244(3) 0.31979(17)
H13 H 0.1847 0.8264 0.3282
H14 H 0.3117 0.9000 0.3376
C22 C 0.3390(4) 0.7207(4) 0.3659(2)
H15 H 0.4277 0.7184 0.3566
H16 H 0.3357 0.7365 0.4200
C23 C 0.2813(4) 0.6010(4) 0.3473(3)
H17 H 0.3264 0.5404 0.3781
H18 H 0.2862 0.5835 0.2942
H19 H 0.1940 0.6017 0.3575
C24 C 0.1682(3) 0.5662(3) 0.03858(19)
H20 H 0.0924 0.5190 0.0464
O5 O 0.2483(3) 0.4971(2) 0.00138(15)
H21 H 0.3148 0.5337 -0.0017
loop_
_geom_bond_atom_site_label_1
_geom_bond_atom_site_label_2
_geom_bond_site_symmetry_1
_geom_bond_site_symmetry_2
O1 C7 1_555 1_555
O2 C10 1_555 1_555
O3 C11 1_555 1_555
O4 C17 1_555 1_555
N1 C9 1_555 1_555
F1 C1 1_555 1_555
C1 C2 1_555 1_555
C2 H1 1_555 1_555
C3 C2 1_555 1_555
H2 C3 1_555 1_555
C4 C3 1_555 1_555
C5 C4 1_555 1_555
H3 C5 1_555 1_555
C6 C1 1_555 1_555
H4 C6 1_555 1_555
C7 C4 1_555 1_555
C8 C7 1_555 1_555
C9 C8 1_555 1_555
C10 N1 1_555 1_555
C11 C8 1_555 1_555
C12 C13 1_555 1_555
C13 C11 1_555 1_555
H5 C13 1_555 1_555
C14 C9 1_555 1_555
C15 C14 1_555 1_555
H6 C15 1_555 1_555
C16 C15 1_555 1_555
H7 C16 1_555 1_555
C17 C16 1_555 1_555
C18 C17 1_555 1_555
H8 C18 1_555 1_555
C19 C14 1_555 1_555
H9 C19 1_555 1_555
C20 O4 1_555 1_555
H10 C20 1_555 1_555
H11 C20 1_555 1_555
H12 C20 1_555 1_555
C21 N1 1_555 1_555
H13 C21 1_555 1_555
H14 C21 1_555 1_555
C22 C21 1_555 1_555
H15 C22 1_555 1_555
H16 C22 1_555 1_555
C23 C22 1_555 1_555
H17 C23 1_555 1_555
H18 C23 1_555 1_555
H19 C23 1_555 1_555
C24 O3 1_555 1_555
H20 C24 1_555 1_555
O5 C24 1_555 1_555
H21 O5 1_555 1_555
C5 C6 1_555 1_555
C10 C11 1_555 1_555
C12 C24 1_555 1_555
C18 C19 1_555 1_555

#END
