
#######################################################################
#
#                 Cambridge Crystallographic Data Centre
#                                CCDC 
#
#######################################################################
#
# If this CIF has been generated from an entry in the Cambridge 
# Structural Database, then it will include bibliographic, chemical, 
# crystal, experimental, refinement or atomic coordinate data resulting 
# from the CCDC's data processing and validation procedures.
#
#######################################################################

data_OJEVEG
_chemical_formula_moiety         'C14 H12 O3 S1'
_chemical_name_systematic        
'Methyl 5-formyl-4-methyl-2-phenylthiophene-3-carboxylate'
_symmetry_cell_setting           monoclinic
_symmetry_space_group_name_H-M   'P 21/c'
_symmetry_Int_Tables_number      14
_space_group_name_Hall           '-P 2ybc'
loop_
_symmetry_equiv_pos_site_id
_symmetry_equiv_pos_as_xyz
1 x,y,z
2 -x,1/2+y,1/2-z
3 -x,-y,-z
4 x,1/2-y,1/2+z
_cell_length_a                   16.268(3)
_cell_length_b                   7.4469(12)
_cell_length_c                   22.374(4)
_cell_angle_alpha                90
_cell_angle_beta                 110.413(3)
_cell_angle_gamma                90
_cell_volume                     2540.31
_exptl_crystal_colour            colorless
_exptl_crystal_description       block
_cell_formula_units_Z            8
loop_
_atom_site_label
_atom_site_type_symbol
_atom_site_fract_x
_atom_site_fract_y
_atom_site_fract_z
S1 S 0.15549(3) 0.86211(6) 0.50020(2)
O1 O 0.28664(13) 0.8616(2) 0.63462(8)
O2 O 0.22014(11) 1.0106(2) 0.31858(8)
O3 O 0.27798(9) 0.73613(19) 0.33824(7)
C1 C 0.04262(11) 0.7836(2) 0.31364(8)
H1 H 0.0877 0.7205 0.3066
C2 C -0.04035(13) 0.7857(3) 0.26714(9)
H2 H -0.0508 0.7241 0.2290
C3 C -0.10752(12) 0.8798(3) 0.27758(11)
H3 H -0.1630 0.8822 0.2462
C4 C -0.09264(11) 0.9690(3) 0.33379(11)
H4 H -0.1382 1.0309 0.3406
C5 C -0.00970(10) 0.9679(2) 0.38087(9)
H5 H -0.0001 1.0289 0.4190
C6 C 0.05893(10) 0.8757(2) 0.37107(8)
C7 C 0.14634(10) 0.86989(19) 0.42120(8)
C8 C 0.22769(10) 0.8630(2) 0.41485(8)
C9 C 0.29850(11) 0.8516(2) 0.47430(9)
C10 C 0.26862(12) 0.8515(2) 0.52480(9)
C11 C 0.31831(16) 0.8473(3) 0.59360(11)
H6 H 0.3788 0.8325 0.6064
C12 C 0.39321(12) 0.8479(3) 0.47965(12)
H7 H 0.4051 0.9485 0.4571
H8 H 0.4051 0.7384 0.4615
H9 H 0.4299 0.8546 0.5238
C13 C 0.24046(11) 0.8813(2) 0.35200(9)
C14 C 0.29800(18) 0.7412(3) 0.27971(13)
H10 H 0.2472 0.7803 0.2451
H11 H 0.3146 0.6234 0.2707
H12 H 0.3455 0.8233 0.2848
S2 S 0.40189(3) 0.15297(6) 0.04119(2)
O4 O 0.41876(11) 0.1576(3) -0.08887(7)
O5 O 0.09294(8) 0.1912(2) 0.02352(7)
O6 O 0.17034(7) 0.00123(16) 0.09942(6)
C15 C 0.44187(10) 0.0527(2) 0.18245(8)
H13 H 0.4721 -0.0043 0.1594
C16 C 0.47673(11) 0.0533(3) 0.24873(8)
H14 H 0.5301 -0.0028 0.2698
C17 C 0.43220(12) 0.1372(3) 0.28325(8)
H15 H 0.4550 0.1366 0.3276
C18 C 0.35369(11) 0.2218(3) 0.25153(8)
H16 H 0.3239 0.2792 0.2748
C19 C 0.31836(10) 0.2230(2) 0.18553(8)
H17 H 0.2655 0.2815 0.1649
C20 C 0.36202(10) 0.1366(2) 0.15020(7)
C21 C 0.32720(10) 0.1378(2) 0.07959(7)
C22 C 0.24215(10) 0.1336(2) 0.03630(7)
C23 C 0.23779(10) 0.1407(2) -0.02864(7)
C24 C 0.31983(11) 0.1500(2) -0.03260(8)
C25 C 0.34412(13) 0.1536(3) -0.08962(9)
H18 H 0.2992 0.1527 -0.1291
C26 C 0.15442(12) 0.1318(3) -0.08584(8)
H19 H 0.1207 0.2389 -0.0879
H20 H 0.1208 0.0291 -0.0822
H21 H 0.1686 0.1216 -0.1239
C27 C 0.16068(10) 0.1154(2) 0.05211(8)
C28 C 0.09377(14) -0.0277(3) 0.11687(11)
H22 H 0.0695 0.0860 0.1222
H23 H 0.1101 -0.0939 0.1561
H24 H 0.0509 -0.0946 0.0839
loop_
_geom_bond_atom_site_label_1
_geom_bond_atom_site_label_2
_geom_bond_site_symmetry_1
_geom_bond_site_symmetry_2
S1 C7 1_555 1_555
O1 C11 1_555 1_555
O2 C13 1_555 1_555
O3 C13 1_555 1_555
C1 H1 1_555 1_555
C2 C1 1_555 1_555
H2 C2 1_555 1_555
C3 C2 1_555 1_555
H3 C3 1_555 1_555
C4 C3 1_555 1_555
H4 C4 1_555 1_555
C5 C4 1_555 1_555
H5 C5 1_555 1_555
C6 C1 1_555 1_555
C7 C6 1_555 1_555
C8 C7 1_555 1_555
C9 C8 1_555 1_555
C10 S1 1_555 1_555
C11 C10 1_555 1_555
H6 C11 1_555 1_555
C12 C9 1_555 1_555
H7 C12 1_555 1_555
H8 C12 1_555 1_555
H9 C12 1_555 1_555
C13 C8 1_555 1_555
C14 O3 1_555 1_555
H10 C14 1_555 1_555
H11 C14 1_555 1_555
H12 C14 1_555 1_555
S2 C21 1_555 1_555
O4 C25 1_555 1_555
O5 C27 1_555 1_555
O6 C27 1_555 1_555
C15 H13 1_555 1_555
C16 C15 1_555 1_555
H14 C16 1_555 1_555
C17 C16 1_555 1_555
H15 C17 1_555 1_555
C18 C17 1_555 1_555
H16 C18 1_555 1_555
C19 C18 1_555 1_555
H17 C19 1_555 1_555
C20 C15 1_555 1_555
C21 C20 1_555 1_555
C22 C21 1_555 1_555
C23 C22 1_555 1_555
C24 S2 1_555 1_555
C25 C24 1_555 1_555
H18 C25 1_555 1_555
C26 C23 1_555 1_555
H19 C26 1_555 1_555
H20 C26 1_555 1_555
H21 C26 1_555 1_555
C27 C22 1_555 1_555
C28 O6 1_555 1_555
H22 C28 1_555 1_555
H23 C28 1_555 1_555
H24 C28 1_555 1_555
C5 C6 1_555 1_555
C9 C10 1_555 1_555
C19 C20 1_555 1_555
C23 C24 1_555 1_555

#END
