
#######################################################################
#
#                 Cambridge Crystallographic Data Centre
#                                CCDC 
#
#######################################################################
#
# If this CIF has been generated from an entry in the Cambridge 
# Structural Database, then it will include bibliographic, chemical, 
# crystal, experimental, refinement or atomic coordinate data resulting 
# from the CCDC's data processing and validation procedures.
#
#######################################################################

data_OJEWEH
_chemical_formula_moiety         'C34 H41 N3 S1'
_chemical_name_systematic        
1,3-bis(2,6-di-isopropylphenyl)-N-phenyl-1H-imidazol-3-ium-2-carboximidothioate
_symmetry_cell_setting           tetragonal
_symmetry_space_group_name_H-M   'I 41/a'
_symmetry_Int_Tables_number      88
_space_group_name_Hall           '-I 4ad'
loop_
_symmetry_equiv_pos_site_id
_symmetry_equiv_pos_as_xyz
1 x,y,z
2 3/4-y,1/4+x,1/4+z
3 1/2-x,-y,1/2+z
4 3/4+y,3/4-x,3/4+z
5 1/2+x,1/2+y,1/2+z
6 1/4-y,3/4+x,3/4+z
7 -x,1/2-y,z
8 1/4+y,1/4-x,1/4+z
9 -x,-y,-z
10 1/4+y,3/4-x,3/4-z
11 1/2+x,y,1/2-z
12 1/4-y,1/4+x,1/4-z
13 1/2-x,1/2-y,1/2-z
14 3/4+y,1/4-x,1/4-z
15 x,1/2+y,-z
16 3/4-y,3/4+x,3/4-z
_cell_length_a                   23.053(9)
_cell_length_b                   23.053(9)
_cell_length_c                   24.151(5)
_cell_angle_alpha                90
_cell_angle_beta                 90
_cell_angle_gamma                90
_cell_volume                     12834.8
_exptl_crystal_colour            yellow
_exptl_crystal_description       block
_cell_formula_units_Z            16
loop_
_atom_site_label
_atom_site_type_symbol
_atom_site_fract_x
_atom_site_fract_y
_atom_site_fract_z
S1 S 0.36138(4) 0.06875(3) 0.07084(3)
N1 N 0.43433(7) 0.01567(8) 0.17897(7)
N2 N 0.36389(8) 0.05589(8) 0.22388(7)
N3 N 0.38655(10) 0.15304(9) 0.14654(8)
C1 C 0.42786(10) -0.01453(11) 0.22789(10)
H1 H 0.4498 -0.0462 0.2393
C2 C 0.38400(10) 0.01023(11) 0.25597(10)
H2 H 0.3698 -0.0011 0.2904
C3 C 0.39472(9) 0.05831(9) 0.17669(9)
C4 C 0.47967(10) 0.00497(10) 0.13870(9)
C5 C 0.47445(12) -0.04330(11) 0.10475(11)
C6 C 0.51911(16) -0.05282(14) 0.06736(13)
H3 H 0.5176 -0.0848 0.0439
C7 C 0.56529(18) -0.01591(18) 0.06454(17)
H4 H 0.5946 -0.0230 0.0389
C8 C 0.56943(16) 0.03166(16) 0.09901(17)
H5 H 0.6014 0.0560 0.0963
C9 C 0.52638(11) 0.04361(12) 0.13766(12)
C10 C 0.42322(13) -0.08408(12) 0.10764(13)
H6 H 0.3942 -0.0662 0.1318
C11 C 0.44021(17) -0.14202(15) 0.13355(19)
H7 H 0.4677 -0.1614 0.1101
H8 H 0.4063 -0.1658 0.1377
H9 H 0.4573 -0.1354 0.1692
C12 C 0.3948(2) -0.09468(16) 0.05209(18)
H10 H 0.3791 -0.0589 0.0382
H11 H 0.3641 -0.1225 0.0563
H12 H 0.4230 -0.1093 0.0265
C13 C 0.53106(12) 0.09462(12) 0.17749(13)
H13 H 0.4914 0.1070 0.1862
C14 C 0.5591(2) 0.0756(2) 0.2315(2)
H14 H 0.5362 0.0455 0.2481
H15 H 0.5614 0.1081 0.2562
H16 H 0.5974 0.0613 0.2242
C15 C 0.5622(2) 0.14646(19) 0.1534(2)
H17 H 0.6020 0.1366 0.1465
H18 H 0.5604 0.1782 0.1791
H19 H 0.5439 0.1576 0.1193
C16 C 0.31709(10) 0.09445(10) 0.23915(9)
C17 C 0.26084(10) 0.07918(10) 0.22289(10)
C18 C 0.21685(11) 0.11728(12) 0.23797(13)
H20 H 0.1789 0.1093 0.2273
C19 C 0.22821(12) 0.16656(12) 0.26832(14)
H21 H 0.1979 0.1910 0.2784
C20 C 0.28444(12) 0.17994(12) 0.28388(13)
H22 H 0.2914 0.2133 0.3044
C21 C 0.33057(11) 0.14446(11) 0.26935(10)
C22 C 0.24716(11) 0.02327(11) 0.19217(11)
H23 H 0.2838 0.0067 0.1790
C23 C 0.20789(18) 0.03253(17) 0.14234(14)
H24 H 0.1705 0.0455 0.1547
H25 H 0.2037 -0.0033 0.1225
H26 H 0.2247 0.0613 0.1184
C24 C 0.21904(15) -0.02011(12) 0.23090(14)
H27 H 0.2444 -0.0274 0.2617
H28 H 0.2120 -0.0557 0.2114
H29 H 0.1829 -0.0047 0.2442
C25 C 0.39231(12) 0.16027(13) 0.28543(12)
H30 H 0.4185 0.1355 0.2639
C26 C 0.40337(17) 0.1480(2) 0.34675(15)
H31 H 0.3758 0.1690 0.3688
H32 H 0.4419 0.1602 0.3563
H33 H 0.3994 0.1072 0.3537
C27 C 0.40680(15) 0.22318(14) 0.27144(14)
H34 H 0.3992 0.2301 0.2329
H35 H 0.4470 0.2304 0.2791
H36 H 0.3832 0.2486 0.2935
C28 C 0.38284(10) 0.09992(9) 0.13072(9)
C29 C 0.37029(13) 0.19857(10) 0.10996(10)
C30 C 0.31966(14) 0.22889(12) 0.12076(11)
H37 H 0.2955 0.2170 0.1494
C31 C 0.30471(15) 0.27680(12) 0.08920(12)
H38 H 0.2705 0.2967 0.0967
C32 C 0.34005(15) 0.29508(12) 0.04694(12)
H39 H 0.3301 0.3275 0.0261
C33 C 0.38995(16) 0.26535(12) 0.03571(12)
H40 H 0.4137 0.2776 0.0069
C34 C 0.40580(15) 0.21673(12) 0.06698(11)
H41 H 0.4399 0.1968 0.0590
loop_
_geom_bond_atom_site_label_1
_geom_bond_atom_site_label_2
_geom_bond_site_symmetry_1
_geom_bond_site_symmetry_2
S1 C28 1_555 1_555
N1 C1 1_555 1_555
N2 C2 1_555 1_555
N3 C28 1_555 1_555
C1 H1 1_555 1_555
C2 C1 1_555 1_555
H2 C2 1_555 1_555
C3 N1 1_555 1_555
C4 N1 1_555 1_555
C5 C4 1_555 1_555
C6 C5 1_555 1_555
H3 C6 1_555 1_555
C7 C6 1_555 1_555
H4 C7 1_555 1_555
C8 C7 1_555 1_555
H5 C8 1_555 1_555
C9 C4 1_555 1_555
C10 C5 1_555 1_555
H6 C10 1_555 1_555
C11 C10 1_555 1_555
H7 C11 1_555 1_555
H8 C11 1_555 1_555
H9 C11 1_555 1_555
C12 C10 1_555 1_555
H10 C12 1_555 1_555
H11 C12 1_555 1_555
H12 C12 1_555 1_555
C13 C9 1_555 1_555
H13 C13 1_555 1_555
C14 C13 1_555 1_555
H14 C14 1_555 1_555
H15 C14 1_555 1_555
H16 C14 1_555 1_555
C15 C13 1_555 1_555
H17 C15 1_555 1_555
H18 C15 1_555 1_555
H19 C15 1_555 1_555
C16 N2 1_555 1_555
C17 C16 1_555 1_555
C18 C17 1_555 1_555
H20 C18 1_555 1_555
C19 C18 1_555 1_555
H21 C19 1_555 1_555
C20 C19 1_555 1_555
H22 C20 1_555 1_555
C21 C16 1_555 1_555
C22 C17 1_555 1_555
H23 C22 1_555 1_555
C23 C22 1_555 1_555
H24 C23 1_555 1_555
H25 C23 1_555 1_555
H26 C23 1_555 1_555
C24 C22 1_555 1_555
H27 C24 1_555 1_555
H28 C24 1_555 1_555
H29 C24 1_555 1_555
C25 C21 1_555 1_555
H30 C25 1_555 1_555
C26 C25 1_555 1_555
H31 C26 1_555 1_555
H32 C26 1_555 1_555
H33 C26 1_555 1_555
C27 C25 1_555 1_555
H34 C27 1_555 1_555
H35 C27 1_555 1_555
H36 C27 1_555 1_555
C28 C3 1_555 1_555
C29 N3 1_555 1_555
C30 C29 1_555 1_555
H37 C30 1_555 1_555
C31 C30 1_555 1_555
H38 C31 1_555 1_555
C32 C31 1_555 1_555
H39 C32 1_555 1_555
C33 C32 1_555 1_555
H40 C33 1_555 1_555
C34 C29 1_555 1_555
H41 C34 1_555 1_555
N2 C3 1_555 1_555
C8 C9 1_555 1_555
C20 C21 1_555 1_555
C33 C34 1_555 1_555

#END
