
#######################################################################
#
#                 Cambridge Crystallographic Data Centre
#                                CCDC 
#
#######################################################################
#
# If this CIF has been generated from an entry in the Cambridge 
# Structural Database, then it will include bibliographic, chemical, 
# crystal, experimental, refinement or atomic coordinate data resulting 
# from the CCDC's data processing and validation procedures.
#
#######################################################################

data_OJEZEK
_chemical_formula_moiety         'C34 H52 O6'
_chemical_name_systematic        '3,12-diacetoxylanosta-7,24-dien-26-oic acid'
_symmetry_cell_setting           orthorhombic
_symmetry_space_group_name_H-M   'P 21 21 21'
_symmetry_Int_Tables_number      19
_space_group_name_Hall           'P 2ac 2ab'
loop_
_symmetry_equiv_pos_site_id
_symmetry_equiv_pos_as_xyz
1 x,y,z
2 1/2+x,1/2-y,-z
3 -x,1/2+y,1/2-z
4 1/2-x,-y,1/2+z
_cell_length_a                   9.8251(2)
_cell_length_b                   13.4462(2)
_cell_length_c                   48.0954(8)
_cell_angle_alpha                90
_cell_angle_beta                 90
_cell_angle_gamma                90
_cell_volume                     6353.9
_exptl_crystal_colour            colorless
_exptl_crystal_description       prism
_cell_formula_units_Z            8
loop_
_atom_site_label
_atom_site_type_symbol
_atom_site_fract_x
_atom_site_fract_y
_atom_site_fract_z
O1 O 0.15117(14) 1.13386(9) 0.06238(2)
O2 O 0.99435(12) 0.29956(8) 0.15160(2)
H1 H 0.9244 0.2641 0.1533
O3 O -0.04495(13) 1.21712(11) 0.06375(3)
O4 O 0.88084(12) 0.35587(8) 0.11470(2)
O5 O 0.48373(11) 0.69857(7) 0.04425(2)
O6 O 0.32053(16) 0.66226(10) 0.07534(3)
C1 C 0.0289(2) 1.12142(13) 0.10336(3)
H2 H 0.0856 1.1610 0.1160
H3 H 0.0615 1.0526 0.1031
H4 H -0.0657 1.1229 0.1098
C2 C 0.03706(17) 1.16410(11) 0.07452(3)
C3 C 0.18605(16) 1.17277(12) 0.03507(3)
H5 H 0.1215 1.2273 0.0300
C4 C 0.17124(17) 1.08726(12) 0.01470(3)
H6 H 0.1943 1.1103 -0.0043
H7 H 0.0757 1.0638 0.0146
C5 C 0.26525(16) 1.00199(11) 0.02293(3)
H8 H 0.2543 0.9470 0.0094
H9 H 0.2378 0.9768 0.0414
C6 C 0.41516(15) 1.03253(10) 0.02392(3)
C7 C 0.50485(15) 0.94599(10) 0.03617(3)
H10 H 0.5323 0.9055 0.0197
C8 C 0.43886(16) 0.87103(11) 0.05630(3)
H11 H 0.3513 0.8480 0.0484
H12 H 0.4193 0.9046 0.0742
C9 C 0.53207(16) 0.77961(10) 0.06175(3)
H13 H 0.5216 0.7594 0.0816
C10 C 0.68509(16) 0.79574(10) 0.05581(3)
C11 C 0.78908(16) 0.73590(11) 0.07407(3)
H14 H 0.7537 0.7358 0.0936
C12 C 0.82812(17) 0.62783(11) 0.06673(3)
H15 H 0.8759 0.6286 0.0484
C13 C 0.92899(18) 0.59009(11) 0.08877(3)
H16 H 0.9921 0.6449 0.0936
H17 H 0.8775 0.5729 0.1058
C14 C 1.01315(16) 0.49948(11) 0.07997(3)
H18 H 0.9528 0.4413 0.0774
H19 H 1.0597 0.5132 0.0621
C15 C 1.11613(16) 0.47778(11) 0.10208(3)
H20 H 1.2009 0.5110 0.1001
C16 C 1.10539(17) 0.41800(11) 0.12430(3)
C17 C 0.98237(16) 0.35677(10) 0.12925(3)
C18 C 0.33091(17) 1.21452(10) 0.03698(3)
C19 C 0.35803(17) 1.27713(11) 0.01077(3)
H21 H 0.3415 1.2365 -0.0058
H22 H 0.4528 1.2999 0.0108
H23 H 0.2971 1.3348 0.0106
C20 C 0.43328(16) 1.12744(10) 0.04198(3)
H24 H 0.4170 1.1054 0.0616
C21 C 0.58113(17) 1.16124(11) 0.04123(3)
H25 H 0.6043 1.1844 0.0223
H26 H 0.5940 1.2176 0.0542
C22 C 0.67372(17) 1.07717(11) 0.04932(3)
H27 H 0.7633 1.0931 0.0553
C23 C 0.63775(15) 0.98188(10) 0.04866(3)
C24 C 0.70836(18) 0.55623(11) 0.06460(4)
H28 H 0.7422 0.4877 0.0641
H29 H 0.6570 0.5701 0.0476
H30 H 0.6488 0.5648 0.0808
C25 C 1.21867(18) 0.41073(13) 0.14528(3)
H31 H 1.2922 0.4563 0.1401
H32 H 1.2535 0.3425 0.1457
H33 H 1.1840 0.4287 0.1637
C26 C 0.91815(18) 0.80417(11) 0.07350(4)
H34 H 0.9563 0.8112 0.0925
H35 H 0.9888 0.7750 0.0613
C27 C 0.87325(18) 0.90680(11) 0.06221(4)
H36 H 0.9130 0.9614 0.0734
H37 H 0.9009 0.9152 0.0426
C28 C 0.71891(17) 0.90484(11) 0.06497(3)
C29 C 0.6865(2) 0.92321(12) 0.09626(3)
H38 H 0.7434 0.8797 0.1077
H39 H 0.5903 0.9087 0.0998
H40 H 0.7055 0.9928 0.1009
C30 C 0.72408(16) 0.77844(10) 0.02505(3)
H41 H 0.6778 0.7188 0.0181
H42 H 0.8228 0.7694 0.0236
H43 H 0.6964 0.8361 0.0139
C31 C 0.37898(18) 0.64489(11) 0.05400(4)
C32 C 0.3481(2) 0.55964(12) 0.03488(4)
H44 H 0.3864 0.4983 0.0426
H45 H 0.3884 0.5725 0.0166
H46 H 0.2493 0.5525 0.0330
C33 C 0.46806(17) 1.04804(11) -0.00608(3)
H47 H 0.4498 0.9883 -0.0171
H48 H 0.5663 1.0606 -0.0056
H49 H 0.4216 1.1051 -0.0145
C34 C 0.3371(2) 1.28643(12) 0.06172(3)
H50 H 0.2613 1.3337 0.0605
H51 H 0.4235 1.3228 0.0613
H52 H 0.3303 1.2488 0.0791
O7 O -0.22077(12) 1.18365(8) 0.15667(2)
O8 O 0.50274(12) 0.38359(8) 0.20051(2)
O9 O -0.33254(13) 1.23232(8) 0.11872(2)
H53 H -0.2653 1.2705 0.1172
O10 O 0.60226(13) 0.25445(9) 0.22194(3)
O11 O 0.08377(11) 0.76389(8) 0.239981(19)
O12 O -0.05731(14) 0.63617(10) 0.24921(2)
C35 C -0.32125(16) 1.18012(11) 0.14188(3)
C36 C -0.44286(16) 1.11747(11) 0.14775(3)
C37 C -0.44602(17) 1.05527(12) 0.16936(3)
H54 H -0.5288 1.0197 0.1717
C38 C -0.33773(16) 1.03305(11) 0.19063(3)
H55 H -0.3799 1.0035 0.2074
H56 H -0.2917 1.0955 0.1962
C39 C -0.23288(16) 0.96024(11) 0.17838(3)
H57 H -0.2781 0.8953 0.1754
H58 H -0.2042 0.9854 0.1599
C40 C -0.10490(16) 0.94322(10) 0.19615(3)
H59 H -0.0545 1.0077 0.1972
C41 C -0.01514(15) 0.86887(10) 0.17994(3)
H60 H -0.0749 0.8118 0.1746
C42 C 0.11783(15) 0.82368(10) 0.19240(3)
C43 C 0.19078(16) 0.78543(11) 0.16551(3)
C44 C 0.33162(16) 0.74418(10) 0.17184(3)
C45 C 0.35142(15) 0.70458(10) 0.20125(3)
H61 H 0.3608 0.7652 0.2131
C46 C 0.48771(16) 0.64589(10) 0.20546(3)
C47 C 0.52610(16) 0.59158(11) 0.17815(3)
H62 H 0.4428 0.5534 0.1728
C48 C 0.64228(17) 0.51238(12) 0.17992(3)
C49 C 0.62275(17) 0.44569(11) 0.20552(3)
H63 H 0.7045 0.4022 0.2079
C50 C 0.50548(17) 0.29098(12) 0.21084(3)
C51 C 0.37041(19) 0.24120(13) 0.20683(3)
H64 H 0.3769 0.1715 0.2126
H65 H 0.3445 0.2445 0.1872
H66 H 0.3015 0.2751 0.2181
C52 C 0.09844(16) 0.73160(10) 0.21134(3)
H67 H 0.0130 0.6967 0.2056
C53 C 0.21721(16) 0.65581(10) 0.21070(3)
H68 H 0.2296 0.6272 0.2295
H69 H 0.1940 0.6009 0.1978
C54 C 0.78732(18) 0.55498(13) 0.18146(4)
H70 H 0.8012 0.5866 0.1996
H71 H 0.7998 0.6044 0.1667
H72 H 0.8534 0.5011 0.1791
C55 C 0.59786(18) 0.50324(12) 0.23215(3)
H73 H 0.6786 0.5445 0.2365
H74 H 0.5838 0.4562 0.2477
C56 C 0.47285(16) 0.56997(11) 0.22914(3)
H75 H 0.4576 0.6059 0.2468
H76 H 0.3919 0.5280 0.2256
C57 C 0.63693(19) 0.44659(13) 0.15369(4)
H77 H 0.6958 0.3885 0.1563
H78 H 0.6684 0.4850 0.1376
H79 H 0.5432 0.4245 0.1505
C58 C 0.54730(17) 0.66714(12) 0.15469(3)
H80 H 0.6273 0.7093 0.1589
H81 H 0.5649 0.6317 0.1370
C59 C 0.42295(17) 0.73118(12) 0.15174(3)
H82 H 0.4087 0.7643 0.1345
C60 C 0.11059(17) 0.70182(11) 0.15031(3)
H83 H 0.1594 0.6826 0.1334
H84 H 0.0197 0.7262 0.1454
H85 H 0.1021 0.6440 0.1626
C61 C 0.18120(17) 0.87673(12) 0.14647(3)
H86 H 0.1917 0.8577 0.1267
H87 H 0.2515 0.9266 0.1513
C62 C 0.03718(17) 0.91707(12) 0.15223(3)
H88 H -0.0245 0.8998 0.1367
H89 H 0.0397 0.9904 0.1541
C63 C 0.59380(17) 0.72454(11) 0.21377(3)
H90 H 0.5685 0.7538 0.2317
H91 H 0.5970 0.7768 0.1996
H92 H 0.6835 0.6932 0.2153
C64 C 0.00766(17) 0.70693(12) 0.25678(3)
C65 C 0.01470(19) 0.74459(14) 0.28601(3)
H93 H -0.0471 0.7058 0.2978
H94 H -0.0121 0.8148 0.2864
H95 H 0.1080 0.7379 0.2930
C66 C 0.20071(16) 0.90892(11) 0.20599(3)
H96 H 0.1837 0.9097 0.2261
H97 H 0.1729 0.9727 0.1979
H98 H 0.2980 0.8983 0.2026
C67 C -0.14008(17) 0.91188(11) 0.22583(3)
H99 H -0.2068 0.9583 0.2336
H100 H -0.0575 0.9126 0.2372
H101 H -0.1785 0.8446 0.2257
C68 C -0.56060(18) 1.12712(14) 0.12789(4)
H102 H -0.6356 1.0845 0.1341
H103 H -0.5317 1.1067 0.1093
H104 H -0.5912 1.1965 0.1274
loop_
_geom_bond_atom_site_label_1
_geom_bond_atom_site_label_2
_geom_bond_site_symmetry_1
_geom_bond_site_symmetry_2
O1 C2 1_555 1_555
O2 H1 1_555 1_555
O3 C2 1_555 1_555
O4 C17 1_555 1_555
O5 C9 1_555 1_555
O6 C31 1_555 1_555
C1 H2 1_555 1_555
H3 C1 1_555 1_555
H4 C1 1_555 1_555
C2 C1 1_555 1_555
C3 O1 1_555 1_555
H5 C3 1_555 1_555
C4 C3 1_555 1_555
H6 C4 1_555 1_555
H7 C4 1_555 1_555
C5 C4 1_555 1_555
H8 C5 1_555 1_555
H9 C5 1_555 1_555
C6 C5 1_555 1_555
C7 C6 1_555 1_555
H10 C7 1_555 1_555
C8 C7 1_555 1_555
H11 C8 1_555 1_555
H12 C8 1_555 1_555
C9 C8 1_555 1_555
H13 C9 1_555 1_555
C10 C9 1_555 1_555
C11 C10 1_555 1_555
H14 C11 1_555 1_555
C12 C11 1_555 1_555
H15 C12 1_555 1_555
C13 C12 1_555 1_555
H16 C13 1_555 1_555
H17 C13 1_555 1_555
C14 C13 1_555 1_555
H18 C14 1_555 1_555
H19 C14 1_555 1_555
C15 C14 1_555 1_555
H20 C15 1_555 1_555
C16 C15 1_555 1_555
C17 O2 1_555 1_555
C18 C3 1_555 1_555
C19 C18 1_555 1_555
H21 C19 1_555 1_555
H22 C19 1_555 1_555
H23 C19 1_555 1_555
C20 C6 1_555 1_555
H24 C20 1_555 1_555
C21 C20 1_555 1_555
H25 C21 1_555 1_555
H26 C21 1_555 1_555
C22 C21 1_555 1_555
H27 C22 1_555 1_555
C23 C7 1_555 1_555
C24 C12 1_555 1_555
H28 C24 1_555 1_555
H29 C24 1_555 1_555
H30 C24 1_555 1_555
C25 C16 1_555 1_555
H31 C25 1_555 1_555
H32 C25 1_555 1_555
H33 C25 1_555 1_555
C26 C11 1_555 1_555
H34 C26 1_555 1_555
H35 C26 1_555 1_555
C27 C26 1_555 1_555
H36 C27 1_555 1_555
H37 C27 1_555 1_555
C28 C10 1_555 1_555
C29 C28 1_555 1_555
H38 C29 1_555 1_555
H39 C29 1_555 1_555
H40 C29 1_555 1_555
C30 C10 1_555 1_555
H41 C30 1_555 1_555
H42 C30 1_555 1_555
H43 C30 1_555 1_555
C31 O5 1_555 1_555
C32 C31 1_555 1_555
H44 C32 1_555 1_555
H45 C32 1_555 1_555
H46 C32 1_555 1_555
C33 C6 1_555 1_555
H47 C33 1_555 1_555
H48 C33 1_555 1_555
H49 C33 1_555 1_555
C34 C18 1_555 1_555
H50 C34 1_555 1_555
H51 C34 1_555 1_555
H52 C34 1_555 1_555
O7 C35 1_555 1_555
O8 C49 1_555 1_555
O9 H53 1_555 1_555
O10 C50 1_555 1_555
O11 C52 1_555 1_555
O12 C64 1_555 1_555
C35 O9 1_555 1_555
C36 C35 1_555 1_555
C37 C36 1_555 1_555
H54 C37 1_555 1_555
C38 C37 1_555 1_555
H55 C38 1_555 1_555
H56 C38 1_555 1_555
C39 C38 1_555 1_555
H57 C39 1_555 1_555
H58 C39 1_555 1_555
C40 C39 1_555 1_555
H59 C40 1_555 1_555
C41 C40 1_555 1_555
H60 C41 1_555 1_555
C42 C41 1_555 1_555
C43 C42 1_555 1_555
C44 C43 1_555 1_555
C45 C44 1_555 1_555
H61 C45 1_555 1_555
C46 C45 1_555 1_555
C47 C46 1_555 1_555
H62 C47 1_555 1_555
C48 C47 1_555 1_555
C49 C48 1_555 1_555
H63 C49 1_555 1_555
C50 O8 1_555 1_555
C51 C50 1_555 1_555
H64 C51 1_555 1_555
H65 C51 1_555 1_555
H66 C51 1_555 1_555
C52 C42 1_555 1_555
H67 C52 1_555 1_555
C53 C45 1_555 1_555
H68 C53 1_555 1_555
H69 C53 1_555 1_555
C54 C48 1_555 1_555
H70 C54 1_555 1_555
H71 C54 1_555 1_555
H72 C54 1_555 1_555
C55 C49 1_555 1_555
H73 C55 1_555 1_555
H74 C55 1_555 1_555
C56 C46 1_555 1_555
H75 C56 1_555 1_555
H76 C56 1_555 1_555
C57 C48 1_555 1_555
H77 C57 1_555 1_555
H78 C57 1_555 1_555
H79 C57 1_555 1_555
C58 C47 1_555 1_555
H80 C58 1_555 1_555
H81 C58 1_555 1_555
C59 C44 1_555 1_555
H82 C59 1_555 1_555
C60 C43 1_555 1_555
H83 C60 1_555 1_555
H84 C60 1_555 1_555
H85 C60 1_555 1_555
C61 C43 1_555 1_555
H86 C61 1_555 1_555
H87 C61 1_555 1_555
C62 C41 1_555 1_555
H88 C62 1_555 1_555
H89 C62 1_555 1_555
C63 C46 1_555 1_555
H90 C63 1_555 1_555
H91 C63 1_555 1_555
H92 C63 1_555 1_555
C64 O11 1_555 1_555
C65 C64 1_555 1_555
H93 C65 1_555 1_555
H94 C65 1_555 1_555
H95 C65 1_555 1_555
C66 C42 1_555 1_555
H96 C66 1_555 1_555
H97 C66 1_555 1_555
H98 C66 1_555 1_555
C67 C40 1_555 1_555
H99 C67 1_555 1_555
H100 C67 1_555 1_555
H101 C67 1_555 1_555
C68 C36 1_555 1_555
H102 C68 1_555 1_555
H103 C68 1_555 1_555
H104 C68 1_555 1_555
C16 C17 1_555 1_555
C18 C20 1_555 1_555
C22 C23 1_555 1_555
C23 C28 1_555 1_555
C27 C28 1_555 1_555
C52 C53 1_555 1_555
C55 C56 1_555 1_555
C58 C59 1_555 1_555
C61 C62 1_555 1_555

#END
