
#######################################################################
#
#                 Cambridge Crystallographic Data Centre
#                                CCDC 
#
#######################################################################
#
# If this CIF has been generated from an entry in the Cambridge 
# Structural Database, then it will include bibliographic, chemical, 
# crystal, experimental, refinement or atomic coordinate data resulting 
# from the CCDC's data processing and validation procedures.
#
#######################################################################

data_OJIBOA
_chemical_formula_moiety         'C13 H6 B1 Cl1 F2 N4 S1'
_chemical_name_systematic        
3-chloro-5-cyano-12,12-difluoro-12H-pyrimido[1',6':3,4][1,3,2]diazaborinino[6,1-b][1,3]benzothiazol-11-ium-12-ide
_symmetry_cell_setting           triclinic
_symmetry_space_group_name_H-M   'P -1'
_symmetry_Int_Tables_number      2
_space_group_name_Hall           '-P 1'
loop_
_symmetry_equiv_pos_site_id
_symmetry_equiv_pos_as_xyz
1 x,y,z
2 -x,-y,-z
_cell_length_a                   9.628(9)
_cell_length_b                   11.936(12)
_cell_length_c                   12.293(12)
_cell_angle_alpha                100.080(12)
_cell_angle_beta                 93.490(12)
_cell_angle_gamma                103.522(13)
_cell_volume                     1344.68
_exptl_crystal_colour            yellow
_exptl_crystal_description       block
_cell_formula_units_Z            4
loop_
_atom_site_label
_atom_site_type_symbol
_atom_site_fract_x
_atom_site_fract_y
_atom_site_fract_z
Cl1 Cl 0.59475(17) 0.58484(14) 0.23984(13)
S1 S 0.48619(17) -0.08521(14) 0.27893(14)
N1 N 0.3918(5) 0.2730(4) 0.3701(4)
N2 N 0.3540(5) 0.0576(4) 0.3832(4)
F1 F 0.3186(4) 0.2022(3) 0.5353(3)
F2 F 0.1584(3) 0.1523(3) 0.3833(3)
N3 N 0.4265(5) 0.4763(4) 0.3659(4)
C1 C 0.5124(6) 0.1474(5) 0.2597(5)
C2 C 0.4864(5) 0.2575(5) 0.2915(4)
C3 C 0.5513(6) 0.3575(5) 0.2495(5)
H1 H 0.6146 0.3530 0.1957
C4 C 0.3685(6) 0.3804(5) 0.4019(5)
H2 H 0.3046 0.3874 0.4549
C5 C 0.4487(6) 0.0497(5) 0.3075(5)
C6 C 0.3061(6) -0.0473(5) 0.4203(4)
C7 C 0.2402(7) -0.2660(6) 0.4783(6)
H3 H 0.2187 -0.3384 0.5001
C8 C 0.5189(6) 0.4606(5) 0.2899(4)
C9 C 0.3693(6) -0.1358(5) 0.3734(5)
B1 B 0.3003(7) 0.1699(6) 0.4222(5)
C10 C 0.3383(7) -0.2457(6) 0.4022(5)
H4 H 0.3822 -0.3037 0.3713
C11 C 0.1731(7) -0.1798(6) 0.5228(5)
H5 H 0.1051 -0.1963 0.5721
C12 C 0.6063(8) 0.1304(6) 0.1767(6)
C13 C 0.2057(7) -0.0696(6) 0.4950(5)
H6 H 0.1613 -0.0119 0.5258
N4 N 0.6817(8) 0.1197(6) 0.1093(6)
S2 S 0.96793(17) 0.66615(14) 0.75489(13)
Cl2 Cl 1.11445(18) 0.04124(15) 0.75630(15)
N5 N 0.8866(5) 0.3142(4) 0.8629(4)
N6 N 0.8414(5) 0.5154(4) 0.8666(4)
F3 F 0.8321(4) 0.4274(4) 1.0281(3)
F4 F 0.6554(3) 0.3489(3) 0.8884(3)
C14 C 0.7963(6) 0.6176(5) 0.9034(5)
C15 C 0.9313(6) 0.5276(5) 0.7868(4)
C16 C 0.9749(5) 0.3301(5) 0.7790(4)
C17 C 1.0456(6) 0.2433(5) 0.7424(5)
H7 H 1.1058 0.2505 0.6864
C18 C 0.8580(6) 0.7105(6) 0.8531(5)
N7 N 0.9329(6) 0.1289(5) 0.8697(4)
C19 C 0.9922(6) 0.4362(5) 0.7401(4)
C20 C 0.8298(7) 0.8204(6) 0.8800(5)
H8 H 0.8727 0.8821 0.8467
C21 C 1.0786(6) 0.4553(5) 0.6510(5)
N8 N 1.1453(6) 0.4675(5) 0.5788(5)
C22 C 0.6994(7) 0.6330(6) 0.9813(5)
H9 H 0.6558 0.5715 1.0146
B2 B 0.7990(7) 0.4023(6) 0.9156(5)
C23 C 0.8702(6) 0.2137(6) 0.9012(5)
H10 H 0.8081 0.2032 0.9557
C24 C 1.0236(6) 0.1481(5) 0.7913(5)
C25 C 0.7342(7) 0.8340(6) 0.9594(5)
H11 H 0.7133 0.9065 0.9803
C26 C 0.6698(7) 0.7405(6) 1.0076(5)
H12 H 0.6050 0.7514 1.0590
loop_
_geom_bond_atom_site_label_1
_geom_bond_atom_site_label_2
_geom_bond_site_symmetry_1
_geom_bond_site_symmetry_2
Cl1 C8 1_555 1_555
S1 C5 1_555 1_555
N1 C2 1_555 1_555
N2 C5 1_555 1_555
F1 B1 1_555 1_555
F2 B1 1_555 1_555
N3 C4 1_555 1_555
C1 C2 1_555 1_555
C2 C3 1_555 1_555
C3 H1 1_555 1_555
C4 N1 1_555 1_555
H2 C4 1_555 1_555
C5 C1 1_555 1_555
C6 N2 1_555 1_555
C7 H3 1_555 1_555
C8 N3 1_555 1_555
C9 S1 1_555 1_555
B1 N1 1_555 1_555
C10 C7 1_555 1_555
H4 C10 1_555 1_555
C11 C7 1_555 1_555
H5 C11 1_555 1_555
C12 C1 1_555 1_555
C13 C6 1_555 1_555
H6 C13 1_555 1_555
N4 C12 1_555 1_555
S2 C15 1_555 1_555
Cl2 C24 1_555 1_555
N5 C16 1_555 1_555
N6 C14 1_555 1_555
F3 B2 1_555 1_555
F4 B2 1_555 1_555
C14 C18 1_555 1_555
C15 N6 1_555 1_555
C16 C17 1_555 1_555
C17 H7 1_555 1_555
C18 S2 1_555 1_555
N7 C23 1_555 1_555
C19 C15 1_555 1_555
C20 C18 1_555 1_555
H8 C20 1_555 1_555
C21 C19 1_555 1_555
N8 C21 1_555 1_555
C22 C14 1_555 1_555
H9 C22 1_555 1_555
B2 N5 1_555 1_555
C23 N5 1_555 1_555
H10 C23 1_555 1_555
C24 C17 1_555 1_555
C25 C20 1_555 1_555
H11 C25 1_555 1_555
C26 C22 1_555 1_555
H12 C26 1_555 1_555
N2 B1 1_555 1_555
C3 C8 1_555 1_555
C6 C9 1_555 1_555
C9 C10 1_555 1_555
C11 C13 1_555 1_555
N6 B2 1_555 1_555
C16 C19 1_555 1_555
N7 C24 1_555 1_555
C25 C26 1_555 1_555

#END
