
#######################################################################
#
#                 Cambridge Crystallographic Data Centre
#                                CCDC 
#
#######################################################################
#
# If this CIF has been generated from an entry in the Cambridge 
# Structural Database, then it will include bibliographic, chemical, 
# crystal, experimental, refinement or atomic coordinate data resulting 
# from the CCDC's data processing and validation procedures.
#
#######################################################################

data_OJICIV
_chemical_formula_moiety         'C19 H12 B1 F2 N5 S1'
_chemical_name_systematic        
1-anilino-5-cyano-12,12-difluoro-12H-pyrimido[1',6':3,4][1,3,2]diazaborinino[6,1-b][1,3]benzothiazol-11-ium-12-ide
_symmetry_cell_setting           orthorhombic
_symmetry_space_group_name_H-M   'P b c a'
_symmetry_Int_Tables_number      61
_space_group_name_Hall           '-P 2ac 2ab'
loop_
_symmetry_equiv_pos_site_id
_symmetry_equiv_pos_as_xyz
1 x,y,z
2 1/2-x,-y,1/2+z
3 1/2+x,1/2-y,-z
4 -x,1/2+y,1/2-z
5 -x,-y,-z
6 1/2+x,y,1/2-z
7 1/2-x,1/2+y,z
8 x,1/2-y,1/2+z
_cell_length_a                   7.1001(6)
_cell_length_b                   41.434(3)
_cell_length_c                   11.4739(7)
_cell_angle_alpha                90
_cell_angle_beta                 90
_cell_angle_gamma                90
_cell_volume                     3375.46
_exptl_crystal_colour            yellow
_exptl_crystal_description       block
_cell_formula_units_Z            8
loop_
_atom_site_label
_atom_site_type_symbol
_atom_site_fract_x
_atom_site_fract_y
_atom_site_fract_z
S1 S 0.3427(3) 0.53559(4) 0.45699(18)
F1 F 0.1545(6) 0.64770(9) 0.4280(4)
F2 F 0.4707(7) 0.64870(9) 0.4326(4)
N1 N 0.3083(7) 0.63736(11) 0.6110(5)
N2 N 0.3173(8) 0.59748(11) 0.4422(4)
N3 N 0.2819(8) 0.69308(12) 0.5872(5)
H1 H 0.2638 0.6881 0.5153
N4 N 0.2961(9) 0.67354(12) 0.7748(5)
C1 C 0.3317(9) 0.57368(14) 0.5199(6)
C2 C 0.3216(10) 0.58629(14) 0.3258(6)
C3 C 0.2953(9) 0.66769(15) 0.6598(6)
C4 C 0.2929(9) 0.72655(15) 0.6100(6)
C5 C 0.3226(9) 0.61121(15) 0.6866(6)
C6 C 0.3089(11) 0.60456(16) 0.2270(6)
H2 H 0.2957 0.6269 0.2315
C7 C 0.3368(10) 0.55267(14) 0.3184(6)
C8 C 0.3261(11) 0.61681(16) 0.8064(6)
H3 H 0.3373 0.5998 0.8590
C9 C 0.3732(9) 0.74020(16) 0.7094(6)
H4 H 0.4181 0.7270 0.7688
C10 C 0.3859(9) 0.77358(16) 0.7191(6)
H5 H 0.4392 0.7826 0.7856
C11 C 0.3346(10) 0.57960(15) 0.6394(6)
C12 C 0.3213(10) 0.79334(17) 0.6324(7)
H6 H 0.3311 0.8156 0.6395
C13 C 0.2262(9) 0.74671(15) 0.5230(7)
H7 H 0.1710 0.7378 0.4568
N5 N 0.3660(11) 0.53317(14) 0.7877(6)
C14 C 0.3162(11) 0.58917(18) 0.1202(7)
H8 H 0.3073 0.6014 0.0524
B1 B 0.3122(12) 0.63347(18) 0.4740(7)
C15 C 0.2405(10) 0.77958(16) 0.5332(7)
H9 H 0.1962 0.7928 0.4737
C16 C 0.3366(11) 0.55593(18) 0.1119(7)
H10 H 0.3432 0.5461 0.0392
C17 C 0.3128(11) 0.64752(17) 0.8437(7)
H11 H 0.3155 0.6510 0.9238
C18 C 0.3471(10) 0.53745(17) 0.2128(7)
H12 H 0.3609 0.5152 0.2086
C19 C 0.3519(11) 0.55344(17) 0.7207(7)
loop_
_geom_bond_atom_site_label_1
_geom_bond_atom_site_label_2
_geom_bond_site_symmetry_1
_geom_bond_site_symmetry_2
S1 C1 1_555 1_555
F1 B1 1_555 1_555
F2 B1 1_555 1_555
N1 C3 1_555 1_555
N2 C1 1_555 1_555
N3 H1 1_555 1_555
N4 C3 1_555 1_555
C1 C11 1_555 1_555
C2 N2 1_555 1_555
C3 N3 1_555 1_555
C4 N3 1_555 1_555
C5 N1 1_555 1_555
C6 C2 1_555 1_555
H2 C6 1_555 1_555
C7 S1 1_555 1_555
C8 C5 1_555 1_555
H3 C8 1_555 1_555
C9 C4 1_555 1_555
H4 C9 1_555 1_555
C10 C9 1_555 1_555
H5 C10 1_555 1_555
C11 C5 1_555 1_555
C12 C10 1_555 1_555
H6 C12 1_555 1_555
C13 C4 1_555 1_555
H7 C13 1_555 1_555
N5 C19 1_555 1_555
C14 C6 1_555 1_555
H8 C14 1_555 1_555
B1 N1 1_555 1_555
C15 C12 1_555 1_555
H9 C15 1_555 1_555
C16 C14 1_555 1_555
H10 C16 1_555 1_555
C17 N4 1_555 1_555
H11 C17 1_555 1_555
C18 C7 1_555 1_555
H12 C18 1_555 1_555
C19 C11 1_555 1_555
N2 B1 1_555 1_555
C2 C7 1_555 1_555
C8 C17 1_555 1_555
C13 C15 1_555 1_555
C16 C18 1_555 1_555

#END
