
#######################################################################
#
#                 Cambridge Crystallographic Data Centre
#                                CCDC 
#
#######################################################################
#
# If this CIF has been generated from an entry in the Cambridge 
# Structural Database, then it will include bibliographic, chemical, 
# crystal, experimental, refinement or atomic coordinate data resulting 
# from the CCDC's data processing and validation procedures.
#
#######################################################################

data_OJICAN
_chemical_formula_moiety         'C14 H9 B1 F2 N4 O1 S1'
_chemical_name_systematic        
5-cyano-12,12-difluoro-3-methoxy-12H-pyrimido[1',6':3,4][1,3,2]diazaborinino[6,1-b][1,3]benzothiazol-11-ium-12-ide
_symmetry_cell_setting           triclinic
_symmetry_space_group_name_H-M   'P -1'
_symmetry_Int_Tables_number      2
_space_group_name_Hall           '-P 1'
loop_
_symmetry_equiv_pos_site_id
_symmetry_equiv_pos_as_xyz
1 x,y,z
2 -x,-y,-z
_cell_length_a                   4.7955(5)
_cell_length_b                   9.1763(13)
_cell_length_c                   16.9010(17)
_cell_angle_alpha                100.887(10)
_cell_angle_beta                 93.936(9)
_cell_angle_gamma                103.046(11)
_cell_volume                     706.661
_exptl_crystal_colour            yellow
_exptl_crystal_description       block
_cell_formula_units_Z            2
loop_
_atom_site_label
_atom_site_type_symbol
_atom_site_fract_x
_atom_site_fract_y
_atom_site_fract_z
S1 S 0.7331(2) -0.01840(13) 0.58394(6)
F1 F 0.8178(6) 0.0772(3) 0.86927(15)
F2 F 0.4635(5) 0.1972(3) 0.85009(15)
N1 N 0.6467(7) 0.0765(4) 0.7318(2)
O1 O 1.5854(8) 0.6990(4) 0.8751(2)
N2 N 0.9409(7) 0.3151(4) 0.8256(2)
N3 N 1.2053(9) 0.5411(5) 0.9179(2)
C1 C 0.8182(9) 0.1113(5) 0.6756(2)
C2 C 0.4323(9) -0.0598(5) 0.7032(2)
C3 C 1.1058(9) 0.3488(5) 0.7646(2)
C4 C 1.3678(11) 0.5738(5) 0.8581(3)
C5 C 0.4479(9) -0.1272(5) 0.6232(3)
C6 C 1.3229(10) 0.4823(5) 0.7818(3)
H1 H 1.4371 0.5097 0.7421
C7 C 1.0003(10) 0.4151(6) 0.8975(3)
H2 H 0.8823 0.3920 0.9371
N4 N 1.3682(11) 0.2985(6) 0.5782(3)
C8 C 1.0440(9) 0.2439(5) 0.6892(2)
C9 C 0.2170(9) -0.1263(5) 0.7452(3)
H3 H 0.2045 -0.0819 0.7986
B1 B 0.7087(10) 0.1623(6) 0.8211(3)
C10 C 0.0233(10) -0.2584(6) 0.7064(3)
H4 H -0.1240 -0.3029 0.7337
C11 C 0.2554(10) -0.2617(6) 0.5836(3)
H5 H 0.2681 -0.3063 0.5302
C12 C 1.2195(11) 0.2736(5) 0.6265(3)
C13 C 0.0422(11) -0.3278(6) 0.6266(3)
H6 H -0.0891 -0.4190 0.6021
C14 C 1.6377(15) 0.7919(7) 0.9556(3)
H7 H 1.6634 0.7300 0.9941
H8 H 1.4763 0.8352 0.9666
H9 H 1.8084 0.8727 0.9601
loop_
_geom_bond_atom_site_label_1
_geom_bond_atom_site_label_2
_geom_bond_site_symmetry_1
_geom_bond_site_symmetry_2
S1 C1 1_555 1_555
F1 B1 1_555 1_555
F2 B1 1_555 1_555
N1 C1 1_555 1_555
O1 C4 1_555 1_555
N2 C3 1_555 1_555
N3 C4 1_555 1_555
C1 C8 1_555 1_555
C2 N1 1_555 1_555
C3 C6 1_555 1_555
C4 C6 1_555 1_555
C5 S1 1_555 1_555
C6 H1 1_555 1_555
C7 N2 1_555 1_555
H2 C7 1_555 1_555
N4 C12 1_555 1_555
C8 C3 1_555 1_555
C9 C2 1_555 1_555
H3 C9 1_555 1_555
B1 N1 1_555 1_555
C10 C9 1_555 1_555
H4 C10 1_555 1_555
C11 C5 1_555 1_555
H5 C11 1_555 1_555
C12 C8 1_555 1_555
C13 C10 1_555 1_555
H6 C13 1_555 1_555
C14 O1 1_555 1_555
H7 C14 1_555 1_555
H8 C14 1_555 1_555
H9 C14 1_555 1_555
N2 B1 1_555 1_555
N3 C7 1_555 1_555
C2 C5 1_555 1_555
C11 C13 1_555 1_555

#END
