
#######################################################################
#
#                 Cambridge Crystallographic Data Centre
#                                CCDC 
#
#######################################################################
#
# If this CIF has been generated from an entry in the Cambridge 
# Structural Database, then it will include bibliographic, chemical, 
# crystal, experimental, refinement or atomic coordinate data resulting 
# from the CCDC's data processing and validation procedures.
#
#######################################################################

data_OJIDAO03
_chemical_formula_moiety         'C15 H12 B1 F2 N5 S1'
_chemical_name_systematic        
((1,3-benzothiazol-2-yl)(2-(dimethylamino)pyrimidin-4(3H)-ylidene)acetonitrilato)(difluoro)boron
_symmetry_cell_setting           monoclinic
_symmetry_space_group_name_H-M   'P 21/c'
_symmetry_Int_Tables_number      14
_space_group_name_Hall           '-P 2ybc'
loop_
_symmetry_equiv_pos_site_id
_symmetry_equiv_pos_as_xyz
1 x,y,z
2 -x,1/2+y,1/2-z
3 -x,-y,-z
4 x,1/2-y,1/2+z
_cell_length_a                   9.1073(8)
_cell_length_b                   22.539(2)
_cell_length_c                   7.3835(5)
_cell_angle_alpha                90
_cell_angle_beta                 97.260(2)
_cell_angle_gamma                90
_cell_volume                     1503.46
_exptl_crystal_colour            yellow
_exptl_crystal_description       block
_cell_formula_units_Z            4
loop_
_atom_site_label
_atom_site_type_symbol
_atom_site_fract_x
_atom_site_fract_y
_atom_site_fract_z
B1 B 0.2915(6) 0.3855(2) 0.7289(8)
F1 F 0.3305(3) 0.37972(14) 0.5555(4)
F2 F 0.3240(3) 0.44169(12) 0.7919(4)
N1 N 0.1252(4) 0.37012(17) 0.7254(5)
N2 N 0.3799(4) 0.33487(17) 0.8485(5)
N3 N 0.6288(4) 0.30231(18) 0.9311(6)
N4 N 0.0915(6) 0.1599(2) 0.6704(8)
N5 N 0.5565(4) 0.39123(18) 1.0395(6)
S1 S -0.10199(14) 0.30178(6) 0.6605(2)
C1 C -0.1304(5) 0.3785(3) 0.6627(7)
C2 C -0.2650(6) 0.4086(3) 0.6263(7)
H1 H -0.3531 0.3881 0.5952
C3 C -0.2632(6) 0.4689(3) 0.6376(8)
H2 H -0.3513 0.4900 0.6127
C4 C -0.1315(7) 0.4994(3) 0.6860(9)
H3 H -0.1333 0.5406 0.6958
C5 C 0.0010(6) 0.4702(2) 0.7194(8)
H4 H 0.0885 0.4911 0.7521
C6 C 0.0022(5) 0.4083(2) 0.7034(6)
C7 C 0.0849(5) 0.3127(2) 0.7109(6)
C8 C 0.1878(5) 0.2662(2) 0.7339(7)
C9 C 0.1354(6) 0.2073(2) 0.6981(7)
C10 C 0.3386(5) 0.2764(2) 0.8041(6)
C11 C 0.4426(5) 0.2313(2) 0.8252(6)
H5 H 0.4155 0.1917 0.8099
C12 C 0.5868(5) 0.2478(2) 0.8692(7)
H6 H 0.6601 0.2200 0.8560
C13 C 0.5233(5) 0.3418(2) 0.9381(6)
C14 C 0.4504(7) 0.4227(2) 1.1346(8)
H7 H 0.3562 0.4031 1.1134
H8 H 0.4406 0.4627 1.0903
H9 H 0.4842 0.4230 1.2632
C15 C 0.7126(6) 0.4027(3) 1.1063(8)
H10 H 0.7443 0.3763 1.2058
H11 H 0.7239 0.4430 1.1475
H12 H 0.7718 0.3961 1.0094
loop_
_geom_bond_atom_site_label_1
_geom_bond_atom_site_label_2
_geom_bond_site_symmetry_1
_geom_bond_site_symmetry_2
B1 F1 1_555 1_555
F2 B1 1_555 1_555
N1 B1 1_555 1_555
N2 B1 1_555 1_555
N3 C12 1_555 1_555
N4 C9 1_555 1_555
N5 C13 1_555 1_555
S1 C1 1_555 1_555
C1 C2 1_555 1_555
C2 H1 1_555 1_555
C3 C2 1_555 1_555
H2 C3 1_555 1_555
C4 C3 1_555 1_555
H3 C4 1_555 1_555
C5 C4 1_555 1_555
H4 C5 1_555 1_555
C6 N1 1_555 1_555
C7 N1 1_555 1_555
C8 C7 1_555 1_555
C9 C8 1_555 1_555
C10 N2 1_555 1_555
C11 C10 1_555 1_555
H5 C11 1_555 1_555
C12 C11 1_555 1_555
H6 C12 1_555 1_555
C13 N2 1_555 1_555
C14 N5 1_555 1_555
H7 C14 1_555 1_555
H8 C14 1_555 1_555
H9 C14 1_555 1_555
C15 N5 1_555 1_555
H10 C15 1_555 1_555
H11 C15 1_555 1_555
H12 C15 1_555 1_555
N3 C13 1_555 1_555
S1 C7 1_555 1_555
C1 C6 1_555 1_555
C5 C6 1_555 1_555
C8 C10 1_555 1_555

#END
