
#######################################################################
#
#                 Cambridge Crystallographic Data Centre
#                                CCDC 
#
#######################################################################
#
# If this CIF has been generated from an entry in the Cambridge 
# Structural Database, then it will include bibliographic, chemical, 
# crystal, experimental, refinement or atomic coordinate data resulting 
# from the CCDC's data processing and validation procedures.
#
#######################################################################

data_OJIFOC
_chemical_formula_moiety         'C30 H32 Cl1 N1 O2'
_chemical_name_systematic        
9-(4-Chlorophenyl)-3,3,6,6-tetramethyl-10-(p-tolyl)-1,2,3,4,5,6,7,8,9,10-decahydroacridine-1,8-dione
_symmetry_cell_setting           monoclinic
_symmetry_space_group_name_H-M   'P 21/n'
_symmetry_Int_Tables_number      14
_space_group_name_Hall           '-P 2yn'
loop_
_symmetry_equiv_pos_site_id
_symmetry_equiv_pos_as_xyz
1 x,y,z
2 1/2+x,1/2-y,1/2+z
3 -x,-y,-z
4 1/2-x,1/2+y,1/2-z
_cell_length_a                   15.246(2)
_cell_length_b                   11.007(2)
_cell_length_c                   16.244(2)
_cell_angle_alpha                90
_cell_angle_beta                 102.310(10)
_cell_angle_gamma                90
_cell_volume                     2663.28
_exptl_crystal_colour            colorless
_exptl_crystal_description       block
_chemical_melting_point          '546-548 K'
_cell_formula_units_Z            4
_exptl_crystal_recrystallization_method ethanol
_exptl_crystal_preparation       'irradiated product'
loop_
_atom_site_label
_atom_site_type_symbol
_atom_site_fract_x
_atom_site_fract_y
_atom_site_fract_z
Cl1 Cl 0.23972(4) -0.07910(6) 0.68600(5)
O1 O 0.39805(9) 0.31348(13) 0.45861(8)
O2 O 0.64247(10) 0.16749(13) 0.69988(10)
N1 N 0.49549(10) 0.54529(13) 0.70567(9)
C1 C 0.31603(14) 0.03245(18) 0.67100(13)
C2 C 0.38144(13) 0.00377(18) 0.62823(13)
H1 H 0.3862 -0.0748 0.6086
C3 C 0.44025(13) 0.09334(16) 0.61457(12)
H2 H 0.4850 0.0740 0.5858
C4 C 0.43422(12) 0.21086(16) 0.64270(11)
C5 C 0.36799(13) 0.23556(18) 0.68694(13)
H3 H 0.3635 0.3136 0.7077
C6 C 0.30846(14) 0.14732(19) 0.70107(13)
H4 H 0.2641 0.1656 0.7305
C7 C 0.44023(11) 0.52618(16) 0.62607(11)
C8 C 0.38069(13) 0.63041(17) 0.58860(12)
H5 H 0.4156 0.6869 0.5628
H6 H 0.3607 0.6730 0.6335
C9 C 0.29828(12) 0.59086(18) 0.52239(12)
C10 C 0.33009(13) 0.50796(18) 0.45969(12)
H7 H 0.2779 0.4733 0.4223
H8 H 0.3619 0.5566 0.4257
C11 C 0.39060(12) 0.40585(17) 0.49920(12)
C12 C 0.44224(12) 0.41988(16) 0.58523(11)
C13 C 0.49573(11) 0.31119(16) 0.62463(11)
H9 H 0.5288 0.2797 0.5837
C14 C 0.56404(12) 0.35044(16) 0.70189(12)
C15 C 0.63746(13) 0.26624(18) 0.73359(13)
C16 C 0.70995(15) 0.3067(2) 0.80658(15)
H10 H 0.7570 0.3465 0.7847
H11 H 0.7360 0.2355 0.8377
C17 C 0.67782(15) 0.39221(19) 0.86650(14)
C18 C 0.62946(14) 0.49787(18) 0.81610(13)
H12 H 0.5995 0.5453 0.8523
H13 H 0.6735 0.5499 0.7987
C19 C 0.56108(12) 0.45936(16) 0.73897(12)
C20 C 0.49738(12) 0.66324(16) 0.74550(11)
C21 C 0.54892(13) 0.75520(17) 0.72305(12)
H14 H 0.5815 0.7423 0.6815
C22 C 0.55191(13) 0.86680(17) 0.76261(13)
H15 H 0.5867 0.9287 0.7471
C23 C 0.50440(14) 0.88828(18) 0.82464(13)
C24 C 0.45328(14) 0.7950(2) 0.84581(14)
H16 H 0.4207 0.8078 0.8873
C25 C 0.44917(14) 0.68276(18) 0.80692(13)
H17 H 0.4141 0.6210 0.8221
C26 C 0.25253(15) 0.7033(2) 0.47719(15)
H18 H 0.2939 0.7455 0.4503
H19 H 0.2340 0.7561 0.5174
H20 H 0.2009 0.6790 0.4355
C27 C 0.23176(13) 0.5237(2) 0.56408(14)
H21 H 0.1795 0.5024 0.5222
H22 H 0.2146 0.5753 0.6056
H23 H 0.2593 0.4513 0.5907
C28 C 0.6150(2) 0.3269(2) 0.91255(16)
H24 H 0.5640 0.2971 0.8724
H25 H 0.5953 0.3823 0.9505
H26 H 0.6460 0.2600 0.9438
C29 C 0.75754(19) 0.4419(2) 0.93108(18)
H27 H 0.7364 0.4979 0.9678
H28 H 0.7978 0.4831 0.9024
H29 H 0.7885 0.3761 0.9636
C30 C 0.50754(16) 1.0124(2) 0.86466(15)
H30 H 0.5663 1.0467 0.8693
H31 H 0.4946 1.0052 0.9198
H32 H 0.4637 1.0642 0.8304
loop_
_geom_bond_atom_site_label_1
_geom_bond_atom_site_label_2
_geom_bond_site_symmetry_1
_geom_bond_site_symmetry_2
Cl1 C1 1_555 1_555
O1 C11 1_555 1_555
O2 C15 1_555 1_555
N1 C7 1_555 1_555
C1 C2 1_555 1_555
C2 H1 1_555 1_555
C3 C2 1_555 1_555
H2 C3 1_555 1_555
C4 C3 1_555 1_555
C5 C4 1_555 1_555
H3 C5 1_555 1_555
C6 C1 1_555 1_555
H4 C6 1_555 1_555
C7 C8 1_555 1_555
C8 H5 1_555 1_555
H6 C8 1_555 1_555
C9 C8 1_555 1_555
C10 C9 1_555 1_555
H7 C10 1_555 1_555
H8 C10 1_555 1_555
C11 C10 1_555 1_555
C12 C7 1_555 1_555
C13 C4 1_555 1_555
H9 C13 1_555 1_555
C14 C13 1_555 1_555
C15 C14 1_555 1_555
C16 C15 1_555 1_555
H10 C16 1_555 1_555
H11 C16 1_555 1_555
C17 C16 1_555 1_555
C18 C17 1_555 1_555
H12 C18 1_555 1_555
H13 C18 1_555 1_555
C19 N1 1_555 1_555
C20 N1 1_555 1_555
C21 C20 1_555 1_555
H14 C21 1_555 1_555
C22 C21 1_555 1_555
H15 C22 1_555 1_555
C23 C22 1_555 1_555
C24 C23 1_555 1_555
H16 C24 1_555 1_555
C25 C20 1_555 1_555
H17 C25 1_555 1_555
C26 C9 1_555 1_555
H18 C26 1_555 1_555
H19 C26 1_555 1_555
H20 C26 1_555 1_555
C27 C9 1_555 1_555
H21 C27 1_555 1_555
H22 C27 1_555 1_555
H23 C27 1_555 1_555
C28 C17 1_555 1_555
H24 C28 1_555 1_555
H25 C28 1_555 1_555
H26 C28 1_555 1_555
C29 C17 1_555 1_555
H27 C29 1_555 1_555
H28 C29 1_555 1_555
H29 C29 1_555 1_555
C30 C23 1_555 1_555
H30 C30 1_555 1_555
H31 C30 1_555 1_555
H32 C30 1_555 1_555
C5 C6 1_555 1_555
C11 C12 1_555 1_555
C12 C13 1_555 1_555
C14 C19 1_555 1_555
C18 C19 1_555 1_555
C24 C25 1_555 1_555

#END
