
#######################################################################
#
#                 Cambridge Crystallographic Data Centre
#                                CCDC 
#
#######################################################################
#
# If this CIF has been generated from an entry in the Cambridge 
# Structural Database, then it will include bibliographic, chemical, 
# crystal, experimental, refinement or atomic coordinate data resulting 
# from the CCDC's data processing and validation procedures.
#
#######################################################################

data_OJIGUJ
_chemical_name_common            1,4-bis(thiazol-2-ylsulfanyl)butane
_chemical_formula_moiety         'C10 H12 N2 S4'
_chemical_name_systematic        2,2'-((1,4-Butanediyl)dithio)dithiazole
_chemical_properties_biological  'potential biological activity'
_symmetry_cell_setting           monoclinic
_symmetry_space_group_name_H-M   'P 21/n'
_symmetry_Int_Tables_number      14
_space_group_name_Hall           '-P 2yn'
loop_
_symmetry_equiv_pos_site_id
_symmetry_equiv_pos_as_xyz
1 x,y,z
2 1/2+x,1/2-y,1/2+z
3 -x,-y,-z
4 1/2-x,1/2+y,1/2-z
_cell_length_a                   6.067(2)
_cell_length_b                   14.099(5)
_cell_length_c                   7.733(3)
_cell_angle_alpha                90
_cell_angle_beta                 97.101(6)
_cell_angle_gamma                90
_cell_volume                     656.397
_exptl_crystal_colour            colorless
_exptl_crystal_description       needle
_chemical_melting_point          '333-334 K'
_cell_formula_units_Z            2
loop_
_atom_site_label
_atom_site_type_symbol
_atom_site_fract_x
_atom_site_fract_y
_atom_site_fract_z
S1 S 0.16147(9) 0.02272(4) 0.82924(7)
S2 S 0.11393(9) 0.18759(4) 1.06770(7)
N1 N 0.4513(3) 0.16970(13) 0.8982(2)
C1 C 0.3181(4) 0.27241(15) 1.0963(3)
H1 H 0.3168 0.3251 1.1686
C2 C 0.4791(4) 0.25157(16) 0.9995(3)
H2 H 0.6039 0.2899 0.9997
C3 C 0.2654(3) 0.12949(13) 0.9224(2)
C4 C 0.3962(4) -0.01837(14) 0.7242(3)
H3 H 0.5323 -0.0006 0.7960
H4 H 0.3916 -0.0871 0.7182
C5 C 0.4029(3) 0.02053(13) 0.5416(2)
H5 H 0.4164 0.0891 0.5470
H6 H 0.2650 0.0052 0.4697
C5B C 0.5971(3) -0.02053(13) 0.4584(2)
C4B C 0.6038(4) 0.01837(14) 0.2758(3)
S1B S 0.83853(9) -0.02272(4) 0.17076(7)
C3B C 0.7346(3) -0.12949(13) 0.0776(2)
S2B S 0.88607(9) -0.18759(4) -0.06770(7)
C1B C 0.6819(4) -0.27241(15) -0.0963(3)
H1B H 0.6832 -0.3251 -0.1686
C2B C 0.5209(4) -0.25157(16) 0.0005(3)
N1B N 0.5487(3) -0.16970(13) 0.1018(2)
H2B H 0.3961 -0.2899 0.0003
H3B H 0.4677 0.0006 0.2040
H4B H 0.6084 0.0871 0.2818
H5B H 0.5836 -0.0891 0.4530
H6B H 0.7350 -0.0052 0.5303
loop_
_geom_bond_atom_site_label_1
_geom_bond_atom_site_label_2
_geom_bond_site_symmetry_1
_geom_bond_site_symmetry_2
S1 C3 1_555 1_555
S2 C1 1_555 1_555
N1 C2 1_555 1_555
C1 H1 1_555 1_555
C2 C1 1_555 1_555
H2 C2 1_555 1_555
C3 S2 1_555 1_555
C4 S1 1_555 1_555
H3 C4 1_555 1_555
H4 C4 1_555 1_555
C5 C4 1_555 1_555
H5 C5 1_555 1_555
H6 C5 1_555 1_555
C5B C5 1_555 1_555
C4B C5B 1_555 1_555
S1B C4B 1_555 1_555
C3B S1B 1_555 1_555
S2B C3B 1_555 1_555
C1B S2B 1_555 1_555
H1B C1B 1_555 1_555
C2B C1B 1_555 1_555
N1B C3B 1_555 1_555
H2B C2B 1_555 1_555
H3B C4B 1_555 1_555
H4B C4B 1_555 1_555
H5B C5B 1_555 1_555
H6B C5B 1_555 1_555
N1 C3 1_555 1_555
C2B N1B 1_555 1_555

#END
