
#######################################################################
#
#                 Cambridge Crystallographic Data Centre
#                                CCDC 
#
#######################################################################
#
# If this CIF has been generated from an entry in the Cambridge 
# Structural Database, then it will include bibliographic, chemical, 
# crystal, experimental, refinement or atomic coordinate data resulting 
# from the CCDC's data processing and validation procedures.
#
#######################################################################

data_OJINOM
_chemical_formula_moiety         'C21 H16 O3'
_chemical_name_systematic        
1-(4-methoxyphenyl)-4-(2-naphthyl)but-2-ene-1,4-dione
_symmetry_cell_setting           monoclinic
_symmetry_space_group_name_H-M   'P 21/n'
_symmetry_Int_Tables_number      14
_space_group_name_Hall           '-P 2yn'
loop_
_symmetry_equiv_pos_site_id
_symmetry_equiv_pos_as_xyz
1 x,y,z
2 1/2-x,1/2+y,1/2-z
3 -x,-y,-z
4 1/2+x,1/2-y,1/2+z
_cell_length_a                   15.9440(17)
_cell_length_b                   5.7255(6)
_cell_length_c                   18.2554(18)
_cell_angle_alpha                90
_cell_angle_beta                 109.848(6)
_cell_angle_gamma                90
_cell_volume                     1567.49
_exptl_crystal_colour            colorless
_exptl_crystal_description       Acicular
_cell_formula_units_Z            4
loop_
_atom_site_label
_atom_site_type_symbol
_atom_site_fract_x
_atom_site_fract_y
_atom_site_fract_z
O1 O 0.91453(15) 0.4514(3) 0.40698(11)
O2 O 0.88204(15) 0.6571(3) 0.05583(11)
O3 O 0.69556(15) 1.3871(3) 0.02651(11)
C1 C 0.5670(2) 1.3308(5) -0.39966(17)
H1 H 0.5388 1.3639 -0.4535
C2 C 0.5607(2) 1.4880(5) -0.34538(17)
H2 H 0.5291 1.6301 -0.3618
C3 C 0.6011(2) 1.4402(5) -0.26441(16)
C4 C 0.6484(2) 1.2266(5) -0.24168(16)
C5 C 0.6889(2) 1.1770(5) -0.16127(16)
H3 H 0.7211 1.0354 -0.1458
C6 C 0.6825(2) 1.3307(5) -0.10492(16)
C7 C 0.7190(2) 1.2741(5) -0.02045(17)
C8 C 0.7802(2) 1.0723(5) 0.00580(16)
H4 H 0.8169 1.0285 -0.0235
C9 C 0.7851(2) 0.9523(5) 0.06865(17)
H5 H 0.7479 0.9981 0.0972
C10 C 0.8454(2) 0.7499(5) 0.09750(17)
C11 C 0.86263(19) 0.6674(5) 0.17859(16)
C12 C 0.9109(2) 0.4642(5) 0.20432(16)
H6 H 0.9313 0.3773 0.1694
C13 C 0.9298(2) 0.3852(5) 0.27988(16)
H7 H 0.9628 0.2453 0.2966
C14 C 0.9001(2) 0.5131(5) 0.33129(16)
C15 C 0.9640(2) 0.2427(5) 0.43681(17)
H8 H 0.9332 0.1082 0.4061
H9 H 0.9688 0.2212 0.4913
H10 H 1.0238 0.2559 0.4334
C16 C 0.5957(2) 1.5950(5) -0.20573(17)
H11 H 0.5640 1.7377 -0.2203
C17 C 0.6351(2) 1.5429(5) -0.12849(17)
H12 H 0.6308 1.6500 -0.0902
C18 C 0.6145(2) 1.1209(5) -0.37702(17)
H13 H 0.6192 1.0148 -0.4155
C19 C 0.6541(2) 1.0693(5) -0.29974(16)
H14 H 0.6857 0.9267 -0.2848
C20 C 0.8336(2) 0.7940(5) 0.23162(17)
H15 H 0.8010 0.9346 0.2154
C21 C 0.8521(2) 0.7159(5) 0.30683(17)
H16 H 0.8317 0.8021 0.3420
loop_
_geom_bond_atom_site_label_1
_geom_bond_atom_site_label_2
_geom_bond_site_symmetry_1
_geom_bond_site_symmetry_2
O1 C14 1_555 1_555
O2 C10 1_555 1_555
O3 C7 1_555 1_555
C1 H1 1_555 1_555
C2 C1 1_555 1_555
H2 C2 1_555 1_555
C3 C2 1_555 1_555
C4 C3 1_555 1_555
C5 C4 1_555 1_555
H3 C5 1_555 1_555
C6 C5 1_555 1_555
C7 C6 1_555 1_555
C8 C7 1_555 1_555
H4 C8 1_555 1_555
C9 C8 1_555 1_555
H5 C9 1_555 1_555
C10 C9 1_555 1_555
C11 C10 1_555 1_555
C12 C11 1_555 1_555
H6 C12 1_555 1_555
C13 C12 1_555 1_555
H7 C13 1_555 1_555
C14 C13 1_555 1_555
C15 O1 1_555 1_555
H8 C15 1_555 1_555
H9 C15 1_555 1_555
H10 C15 1_555 1_555
C16 C3 1_555 1_555
H11 C16 1_555 1_555
C17 C6 1_555 1_555
H12 C17 1_555 1_555
C18 C1 1_555 1_555
H13 C18 1_555 1_555
C19 C4 1_555 1_555
H14 C19 1_555 1_555
C20 C11 1_555 1_555
H15 C20 1_555 1_555
C21 C14 1_555 1_555
H16 C21 1_555 1_555
C16 C17 1_555 1_555
C18 C19 1_555 1_555
C20 C21 1_555 1_555

#END
