
#######################################################################
#
#                 Cambridge Crystallographic Data Centre
#                                CCDC 
#
#######################################################################
#
# If this CIF has been generated from an entry in the Cambridge 
# Structural Database, then it will include bibliographic, chemical, 
# crystal, experimental, refinement or atomic coordinate data resulting 
# from the CCDC's data processing and validation procedures.
#
#######################################################################

data_OJIRIJ
_chemical_formula_moiety         'C15 H11 N3 O3'
_chemical_name_systematic        2-(4-Methoxy-2-nitrophenyl)quinoxaline
_symmetry_cell_setting           monoclinic
_symmetry_space_group_name_H-M   'P 21/n'
_symmetry_Int_Tables_number      14
_space_group_name_Hall           '-P 2yn'
loop_
_symmetry_equiv_pos_site_id
_symmetry_equiv_pos_as_xyz
1 x,y,z
2 1/2-x,1/2+y,1/2-z
3 -x,-y,-z
4 1/2+x,1/2-y,1/2+z
_cell_length_a                   7.313(4)
_cell_length_b                   13.882(9)
_cell_length_c                   13.112(7)
_cell_angle_alpha                90
_cell_angle_beta                 98.6470(10)
_cell_angle_gamma                90
_cell_volume                     1315.99
_exptl_crystal_colour            yellow
_exptl_crystal_description       chunk
_cell_formula_units_Z            4
loop_
_atom_site_label
_atom_site_type_symbol
_atom_site_fract_x
_atom_site_fract_y
_atom_site_fract_z
N1 N 0.1757(2) 0.15992(11) 0.95418(12)
N2 N 0.0829(2) 0.03744(12) 0.78144(13)
O1 O 0.4449(2) 0.28576(12) 0.86223(13)
O2 O -0.1020(2) 0.58647(10) 0.85061(12)
C1 C 0.0961(2) 0.19281(14) 0.86380(14)
C2 C 0.0536(2) 0.29679(14) 0.85575(14)
C3 C 0.1657(2) 0.00224(14) 0.87473(15)
C4 C 0.2088(2) 0.06350(14) 0.96111(14)
N3 N 0.3779(2) 0.34286(13) 0.91769(15)
C5 C 0.2896(3) 0.02338(15) 1.05639(15)
H1 H 0.3181 0.0628 1.1139
C6 C -0.1750(3) 0.42432(15) 0.82392(16)
H2 H -0.2970 0.4429 0.8027
C7 C -0.0417(3) 0.49361(14) 0.85559(14)
C8 C 0.0482(3) 0.13041(15) 0.77819(15)
H3 H -0.0108 0.1566 0.7167
C9 C 0.1820(2) 0.36889(14) 0.88787(14)
C10 C -0.1280(3) 0.32827(15) 0.82365(15)
H4 H -0.2193 0.2831 0.8016
O3 O 0.4644(2) 0.38043(14) 0.99420(16)
C11 C 0.1402(3) 0.46603(14) 0.88909(15)
H5 H 0.2309 0.5114 0.9116
C12 C 0.2072(3) -0.09674(15) 0.88462(17)
H6 H 0.1808 -0.1373 0.8279
C13 C 0.3260(3) -0.07253(16) 1.06431(17)
H7 H 0.3776 -0.0985 1.1275
C14 C 0.2860(3) -0.13280(16) 0.97748(19)
H8 H 0.3137 -0.1981 0.9836
C15 C 0.0286(3) 0.66069(16) 0.88198(19)
H9 H 0.0917 0.6470 0.9500
H10 H -0.0345 0.7213 0.8823
H11 H 0.1168 0.6639 0.8347
loop_
_geom_bond_atom_site_label_1
_geom_bond_atom_site_label_2
_geom_bond_site_symmetry_1
_geom_bond_site_symmetry_2
N1 C1 1_555 1_555
N2 C3 1_555 1_555
O1 N3 1_555 1_555
O2 C7 1_555 1_555
C1 C2 1_555 1_555
C2 C9 1_555 1_555
C3 C4 1_555 1_555
C4 N1 1_555 1_555
N3 C9 1_555 1_555
C5 C4 1_555 1_555
H1 C5 1_555 1_555
C6 H2 1_555 1_555
C7 C6 1_555 1_555
C8 N2 1_555 1_555
H3 C8 1_555 1_555
C9 C11 1_555 1_555
C10 C2 1_555 1_555
H4 C10 1_555 1_555
O3 N3 1_555 1_555
C11 C7 1_555 1_555
H5 C11 1_555 1_555
C12 C3 1_555 1_555
H6 C12 1_555 1_555
C13 C5 1_555 1_555
H7 C13 1_555 1_555
C14 C12 1_555 1_555
H8 C14 1_555 1_555
C15 O2 1_555 1_555
H9 C15 1_555 1_555
H10 C15 1_555 1_555
H11 C15 1_555 1_555
C1 C8 1_555 1_555
C6 C10 1_555 1_555
C13 C14 1_555 1_555

#END
