
#######################################################################
#
#                 Cambridge Crystallographic Data Centre
#                                CCDC 
#
#######################################################################
#
# If this CIF has been generated from an entry in the Cambridge 
# Structural Database, then it will include bibliographic, chemical, 
# crystal, experimental, refinement or atomic coordinate data resulting 
# from the CCDC's data processing and validation procedures.
#
#######################################################################

data_OJIROQ
_chemical_formula_moiety         'C22 H26 Cl1 N1 O7'
_chemical_name_systematic        
"di-t-butyl 6'-chloro-4-methyl-2',5-dioxo-4,5-dihydro-3H-spiro[furan-2,3'-indole]-1',3(2'H)-dicarboxylate"
_symmetry_cell_setting           triclinic
_symmetry_space_group_name_H-M   'P 1'
_symmetry_Int_Tables_number      1
_space_group_name_Hall           'P 1'
loop_
_symmetry_equiv_pos_site_id
_symmetry_equiv_pos_as_xyz
1 x,y,z
_cell_length_a                   9.748(2)
_cell_length_b                   11.730(3)
_cell_length_c                   12.171(3)
_cell_angle_alpha                63.119(4)
_cell_angle_beta                 72.592(4)
_cell_angle_gamma                75.450(4)
_cell_volume                     1173.41
_exptl_crystal_colour            colorless
_exptl_crystal_description       prismatic
_cell_formula_units_Z            2
loop_
_atom_site_label
_atom_site_type_symbol
_atom_site_fract_x
_atom_site_fract_y
_atom_site_fract_z
Cl1 Cl 0.95094(13) -0.07395(15) 0.15614(14)
N1 N 0.4655(4) 0.2260(3) 0.1920(3)
O1 O 0.2400(4) 0.3361(4) 0.1517(4)
O2 O 0.3889(4) 0.3309(3) -0.0907(3)
O3 O 0.3005(5) 0.3978(4) -0.2602(4)
O4 O 0.3122(3) -0.0784(3) 0.0858(3)
O5 O 0.3050(3) -0.0087(3) 0.2323(3)
O6 O 0.5921(4) 0.2271(5) 0.3189(4)
O7 O 0.3601(3) 0.3130(3) 0.3318(3)
C1 C 0.5779(4) 0.1519(4) 0.1368(4)
C2 C 0.7055(5) 0.0849(5) 0.1737(5)
H1 H 0.7316 0.0871 0.2401
C3 C 0.7929(5) 0.0142(5) 0.1076(5)
C4 C 0.7599(5) 0.0115(5) 0.0081(5)
H2 H 0.8241 -0.0344 -0.0363
C5 C 0.6305(5) 0.0772(5) -0.0264(5)
H3 H 0.6048 0.0741 -0.0925
C6 C 0.5403(5) 0.1473(4) 0.0385(4)
C7 C 0.3912(5) 0.2205(4) 0.0272(4)
C8 C 0.3507(5) 0.2711(4) 0.1310(4)
C9 C 0.3185(5) 0.3142(5) -0.1627(5)
C10 C 0.2750(5) 0.1809(4) -0.0969(4)
H4 H 0.3529 0.1233 -0.1265
C11 C 0.2751(4) 0.1466(4) 0.0370(4)
H5 H 0.1809 0.1828 0.0745
C12 C 0.3000(4) 0.0053(4) 0.1198(4)
C13 C 0.3382(6) -0.1360(5) 0.3317(5)
C14 C 0.2144(6) -0.2106(6) 0.3759(6)
H6 H 0.1264 -0.1615 0.4016
H7 H 0.2318 -0.2908 0.4459
H8 H 0.2055 -0.2276 0.3084
C15 C 0.3546(9) -0.0995(7) 0.4321(6)
H9 H 0.4361 -0.0530 0.4000
H10 H 0.3697 -0.1763 0.5059
H11 H 0.2681 -0.0461 0.4536
C16 C 0.4795(6) -0.2037(6) 0.2858(6)
H12 H 0.4674 -0.2326 0.2275
H13 H 0.5111 -0.2766 0.3561
H14 H 0.5508 -0.1454 0.2444
C17 C 0.1354(6) 0.1742(5) -0.1234(5)
H15 H 0.1276 0.0859 -0.1005
H16 H 0.1362 0.2231 -0.2116
H17 H 0.0541 0.2093 -0.0750
C18 C 0.4806(5) 0.2553(5) 0.2872(4)
C19 C 0.3535(5) 0.3463(5) 0.4384(4)
C20 C 0.1985(6) 0.4064(6) 0.4625(5)
H18 H 0.1822 0.4351 0.5284
H19 H 0.1353 0.3439 0.4877
H20 H 0.1788 0.4788 0.3869
C21 C 0.3882(7) 0.2256(6) 0.5493(5)
H21 H 0.4882 0.1909 0.5299
H22 H 0.3275 0.1635 0.5678
H23 H 0.3713 0.2452 0.6211
C22 C 0.4544(6) 0.4425(6) 0.3942(6)
H24 H 0.5528 0.4016 0.3815
H25 H 0.4386 0.4761 0.4564
H26 H 0.4368 0.5118 0.3161
Cl2 Cl 0.81444(16) 0.59254(14) 0.40458(15)
N2 N 0.6684(4) 0.8974(4) 0.6356(4)
O8 O 0.5415(4) 0.9782(3) 0.7864(3)
O9 O 0.3253(3) 0.8577(3) 0.7695(3)
O10 O 0.0996(4) 0.8391(4) 0.8795(4)
O11 O 0.5438(5) 0.4921(4) 1.0245(5)
O12 O 0.6925(4) 0.6408(4) 0.9132(4)
O13 O 0.8774(5) 0.9491(5) 0.4934(6)
O14 O 0.7626(4) 1.0664(3) 0.6020(4)
C23 C 0.6573(5) 0.7912(4) 0.6138(4)
C24 C 0.7420(5) 0.7513(5) 0.5212(5)
H27 H 0.8182 0.7942 0.4620
C25 C 0.7081(6) 0.6458(5) 0.5210(5)
C26 C 0.5962(6) 0.5820(5) 0.6043(5)
H28 H 0.5777 0.5099 0.6005
C27 C 0.5107(5) 0.6246(5) 0.6940(4)
H29 H 0.4327 0.5826 0.7510
C28 C 0.5413(4) 0.7304(4) 0.6991(4)
C29 C 0.4699(5) 0.7959(4) 0.7857(4)
C30 C 0.5612(5) 0.9034(4) 0.7393(4)
C31 C 0.2242(5) 0.7978(5) 0.8727(5)
C32 C 0.2974(5) 0.6803(5) 0.9639(4)
H30 H 0.3014 0.6066 0.9450
C33 C 0.4487(5) 0.7134(4) 0.9284(4)
H31 H 0.4494 0.7680 0.9698
C34 C 0.5650(5) 0.6004(5) 0.9626(5)
C35 C 0.8301(7) 0.5521(9) 0.9238(10)
C36 C 0.8425(11) 0.4855(14) 1.0562(13)
H32 H 0.8169 0.5468 1.0934
H33 H 0.9405 0.4450 1.0607
H34 H 0.7782 0.4211 1.1011
C37 C 0.9408(8) 0.6432(11) 0.8379(14)
H35 H 0.9219 0.7158 0.8594
H36 H 0.9342 0.6726 0.7519
H37 H 1.0364 0.5988 0.8479
C38 C 0.8346(10) 0.4622(11) 0.8615(13)
H38 H 0.9269 0.4086 0.8599
H39 H 0.8211 0.5130 0.7768
H40 H 0.7587 0.4090 0.9088
C39 C 0.2178(6) 0.6506(5) 1.0987(5)
H41 H 0.2173 0.7204 1.1197
H42 H 0.2657 0.5725 1.1537
H43 H 0.1198 0.6398 1.1087
C40 C 0.7817(6) 0.9737(5) 0.5673(6)
C41 C 0.8764(5) 1.1512(5) 0.5565(5)
C42 C 0.8034(9) 1.2446(7) 0.6173(8)
H44 H 0.7690 1.1974 0.7060
H45 H 0.7231 1.2978 0.5798
H46 H 0.8718 1.2980 0.6046
C43 C 1.0045(8) 1.0714(8) 0.6065(11)
H47 H 1.0446 1.0096 0.5699
H48 H 0.9768 1.0269 0.6964
H49 H 1.0759 1.1254 0.5857
C44 C 0.9023(9) 1.2200(8) 0.4182(7)
H50 H 0.9647 1.2837 0.3905
H51 H 0.8115 1.2614 0.3934
H52 H 0.9475 1.1596 0.3805
loop_
_geom_bond_atom_site_label_1
_geom_bond_atom_site_label_2
_geom_bond_site_symmetry_1
_geom_bond_site_symmetry_2
Cl1 C3 1_555 1_555
N1 C1 1_555 1_555
O1 C8 1_555 1_555
O2 C7 1_555 1_555
O3 C9 1_555 1_555
O4 C12 1_555 1_555
O5 C12 1_555 1_555
O6 C18 1_555 1_555
O7 C18 1_555 1_555
C1 C2 1_555 1_555
C2 H1 1_555 1_555
C3 C2 1_555 1_555
C4 C3 1_555 1_555
H2 C4 1_555 1_555
C5 C4 1_555 1_555
H3 C5 1_555 1_555
C6 C1 1_555 1_555
C7 C6 1_555 1_555
C8 N1 1_555 1_555
C9 O2 1_555 1_555
C10 C9 1_555 1_555
H4 C10 1_555 1_555
C11 C7 1_555 1_555
H5 C11 1_555 1_555
C12 C11 1_555 1_555
C13 O5 1_555 1_555
C14 C13 1_555 1_555
H6 C14 1_555 1_555
H7 C14 1_555 1_555
H8 C14 1_555 1_555
C15 C13 1_555 1_555
H9 C15 1_555 1_555
H10 C15 1_555 1_555
H11 C15 1_555 1_555
C16 C13 1_555 1_555
H12 C16 1_555 1_555
H13 C16 1_555 1_555
H14 C16 1_555 1_555
C17 C10 1_555 1_555
H15 C17 1_555 1_555
H16 C17 1_555 1_555
H17 C17 1_555 1_555
C18 N1 1_555 1_555
C19 O7 1_555 1_555
C20 C19 1_555 1_555
H18 C20 1_555 1_555
H19 C20 1_555 1_555
H20 C20 1_555 1_555
C21 C19 1_555 1_555
H21 C21 1_555 1_555
H22 C21 1_555 1_555
H23 C21 1_555 1_555
C22 C19 1_555 1_555
H24 C22 1_555 1_555
H25 C22 1_555 1_555
H26 C22 1_555 1_555
Cl2 C25 1_555 1_555
N2 C23 1_555 1_555
O8 C30 1_555 1_555
O9 C29 1_555 1_555
O10 C31 1_555 1_555
O11 C34 1_555 1_555
O12 C34 1_555 1_555
O13 C40 1_555 1_555
O14 C40 1_555 1_555
C23 C24 1_555 1_555
C24 H27 1_555 1_555
C25 C24 1_555 1_555
C26 C25 1_555 1_555
H28 C26 1_555 1_555
C27 C26 1_555 1_555
H29 C27 1_555 1_555
C28 C23 1_555 1_555
C29 C28 1_555 1_555
C30 N2 1_555 1_555
C31 O9 1_555 1_555
C32 C31 1_555 1_555
H30 C32 1_555 1_555
C33 C29 1_555 1_555
H31 C33 1_555 1_555
C34 C33 1_555 1_555
C35 O12 1_555 1_555
C36 C35 1_555 1_555
H32 C36 1_555 1_555
H33 C36 1_555 1_555
H34 C36 1_555 1_555
C37 C35 1_555 1_555
H35 C37 1_555 1_555
H36 C37 1_555 1_555
H37 C37 1_555 1_555
C38 C35 1_555 1_555
H38 C38 1_555 1_555
H39 C38 1_555 1_555
H40 C38 1_555 1_555
C39 C32 1_555 1_555
H41 C39 1_555 1_555
H42 C39 1_555 1_555
H43 C39 1_555 1_555
C40 N2 1_555 1_555
C41 O14 1_555 1_555
C42 C41 1_555 1_555
H44 C42 1_555 1_555
H45 C42 1_555 1_555
H46 C42 1_555 1_555
C43 C41 1_555 1_555
H47 C43 1_555 1_555
H48 C43 1_555 1_555
H49 C43 1_555 1_555
C44 C41 1_555 1_555
H50 C44 1_555 1_555
H51 C44 1_555 1_555
H52 C44 1_555 1_555
C5 C6 1_555 1_555
C7 C8 1_555 1_555
C10 C11 1_555 1_555
C27 C28 1_555 1_555
C29 C30 1_555 1_555
C32 C33 1_555 1_555

#END
