
#######################################################################
#
#                 Cambridge Crystallographic Data Centre
#                                CCDC 
#
#######################################################################
#
# If this CIF has been generated from an entry in the Cambridge 
# Structural Database, then it will include bibliographic, chemical, 
# crystal, experimental, refinement or atomic coordinate data resulting 
# from the CCDC's data processing and validation procedures.
#
#######################################################################

data_OJISUV
_chemical_formula_moiety         'C51 H35 N5 O1'
_chemical_name_systematic        N-Benzamido-5,10,15,20-tetraphenylporphyrin
_symmetry_cell_setting           triclinic
_symmetry_space_group_name_H-M   'P -1'
_symmetry_Int_Tables_number      2
_space_group_name_Hall           '-P 1'
loop_
_symmetry_equiv_pos_site_id
_symmetry_equiv_pos_as_xyz
1 x,y,z
2 -x,-y,-z
_cell_length_a                   10.8813(18)
_cell_length_b                   13.003(2)
_cell_length_c                   14.094(2)
_cell_angle_alpha                95.976(4)
_cell_angle_beta                 95.902(4)
_cell_angle_gamma                90.611(3)
_cell_volume                     1972.34
_exptl_crystal_colour            purple
_cell_formula_units_Z            2
_exptl_crystal_recrystallization_method chloroform/methanol
loop_
_atom_site_label
_atom_site_type_symbol
_atom_site_fract_x
_atom_site_fract_y
_atom_site_fract_z
O1 O 0.2124(2) 0.79169(19) 0.31387(18)
N1 N 0.3500(3) 0.62249(19) 0.08023(18)
N2 N 0.4639(2) 0.44372(19) 0.15601(17)
H1 H 0.4733 0.5096 0.1693
N3 N 0.5663(2) 0.57482(19) 0.32977(18)
N4 N 0.4419(2) 0.76372(18) 0.26152(17)
N5 N 0.3655(3) 0.68236(19) 0.27766(17)
H2 H 0.3902 0.6196 0.2713
C1 C 0.3301(3) 0.8124(2) 0.1099(2)
C2 C 0.3011(3) 0.7139(2) 0.0580(2)
C3 C 0.2152(3) 0.6985(3) -0.0268(2)
H3 H 0.1702 0.7491 -0.0561
C4 C 0.2127(3) 0.5968(3) -0.0553(2)
H4 H 0.1661 0.5635 -0.1090
C5 C 0.2946(3) 0.5489(2) 0.0118(2)
C6 C 0.3131(3) 0.4422(2) 0.0117(2)
C7 C 0.3912(3) 0.3954(2) 0.0783(2)
C8 C 0.4029(4) 0.2864(3) 0.0840(3)
H5 H 0.3631 0.2342 0.0413
C9 C 0.4808(4) 0.2726(3) 0.1614(2)
H6 H 0.5057 0.2092 0.1808
C10 C 0.5189(3) 0.3716(2) 0.2088(2)
C11 C 0.5923(3) 0.3877(2) 0.2970(2)
C12 C 0.6115(3) 0.4835(2) 0.3550(2)
C13 C 0.6852(3) 0.4988(3) 0.4465(2)
H7 H 0.7258 0.4482 0.4789
C14 C 0.6836(3) 0.6008(3) 0.4758(2)
H8 H 0.7226 0.6337 0.5329
C15 C 0.6111(3) 0.6495(2) 0.4031(2)
C16 C 0.6001(3) 0.7570(2) 0.4011(2)
C17 C 0.5321(3) 0.8080(2) 0.3323(2)
C18 C 0.5521(3) 0.9094(2) 0.3071(2)
H9 H 0.6077 0.9582 0.3408
C19 C 0.4780(3) 0.9241(2) 0.2265(3)
H10 H 0.4734 0.9846 0.1966
C20 C 0.4088(3) 0.8317(2) 0.1956(2)
C21 C 0.2768(3) 0.9054(3) 0.0695(3)
C22 C 0.1972(4) 0.9646(3) 0.1199(3)
H11 H 0.1783 0.9469 0.1791
C23 C 0.1448(5) 1.0506(4) 0.0833(4)
H12 H 0.0905 1.0902 0.1179
C24 C 0.1723(5) 1.0776(3) -0.0032(4)
H13 H 0.1365 1.1353 -0.0275
C25 C 0.2515(5) 1.0205(3) -0.0537(3)
H14 H 0.2711 1.0395 -0.1122
C26 C 0.3033(4) 0.9341(3) -0.0182(3)
H15 H 0.3567 0.8946 -0.0537
C27 C 0.2339(3) 0.3718(2) -0.0622(2)
C28 C 0.1077(3) 0.3668(3) -0.0582(2)
H16 H 0.0731 0.4061 -0.0092
C29 C 0.0319(3) 0.3041(3) -0.1261(3)
H17 H -0.0531 0.3020 -0.1233
C30 C 0.0839(4) 0.2451(3) -0.1976(3)
H18 H 0.0337 0.2027 -0.2433
C31 C 0.2090(4) 0.2484(3) -0.2019(2)
H19 H 0.2439 0.2081 -0.2501
C32 C 0.2834(3) 0.3123(3) -0.1339(2)
H20 H 0.3683 0.3146 -0.1371
C33 C 0.6540(3) 0.2953(2) 0.3330(2)
C34 C 0.7379(3) 0.2423(3) 0.2797(3)
H21 H 0.7552 0.2649 0.2219
C35 C 0.7961(4) 0.1564(3) 0.3111(3)
H22 H 0.8522 0.1216 0.2745
C36 C 0.7715(4) 0.1227(3) 0.3958(3)
H23 H 0.8101 0.0644 0.4165
C37 C 0.6894(4) 0.1749(3) 0.4506(3)
H24 H 0.6740 0.1527 0.5090
C38 C 0.6305(4) 0.2600(3) 0.4187(2)
H25 H 0.5741 0.2941 0.4553
C39 C 0.6870(3) 0.8240(2) 0.4722(2)
C40 C 0.8122(3) 0.8121(3) 0.4701(3)
H26 H 0.8413 0.7619 0.4265
C41 C 0.8952(4) 0.8744(3) 0.5326(3)
H27 H 0.9798 0.8658 0.5311
C42 C 0.8524(4) 0.9493(3) 0.5970(3)
H28 H 0.9082 0.9910 0.6390
C43 C 0.7291(4) 0.9622(3) 0.5992(3)
H29 H 0.7006 1.0127 0.6429
C44 C 0.6453(3) 0.9004(2) 0.5366(2)
H30 H 0.5609 0.9104 0.5378
C45 C 0.2528(3) 0.7036(3) 0.3033(2)
C46 C 0.1756(3) 0.6114(3) 0.3158(2)
C47 C 0.1929(4) 0.5146(3) 0.2688(3)
H31 H 0.2564 0.5045 0.2296
C48 C 0.1149(5) 0.4326(4) 0.2804(4)
H32 H 0.1279 0.3672 0.2501
C49 C 0.0210(5) 0.4465(5) 0.3347(5)
H33 H -0.0325 0.3916 0.3398
C50 C 0.0038(5) 0.5435(5) 0.3837(4)
H34 H -0.0587 0.5529 0.4238
C51 C 0.0805(4) 0.6248(4) 0.3716(3)
H35 H 0.0674 0.6901 0.4021
loop_
_geom_bond_atom_site_label_1
_geom_bond_atom_site_label_2
_geom_bond_site_symmetry_1
_geom_bond_site_symmetry_2
O1 C45 1_555 1_555
N1 C2 1_555 1_555
N2 H1 1_555 1_555
N3 C12 1_555 1_555
N4 N5 1_555 1_555
N5 H2 1_555 1_555
C1 C2 1_555 1_555
C2 C3 1_555 1_555
C3 H3 1_555 1_555
C4 C3 1_555 1_555
H4 C4 1_555 1_555
C5 N1 1_555 1_555
C6 C5 1_555 1_555
C7 N2 1_555 1_555
C8 C7 1_555 1_555
H5 C8 1_555 1_555
C9 C8 1_555 1_555
H6 C9 1_555 1_555
C10 N2 1_555 1_555
C11 C10 1_555 1_555
C12 C11 1_555 1_555
C13 C12 1_555 1_555
H7 C13 1_555 1_555
C14 C13 1_555 1_555
H8 C14 1_555 1_555
C15 N3 1_555 1_555
C16 C15 1_555 1_555
C17 N4 1_555 1_555
C18 C17 1_555 1_555
H9 C18 1_555 1_555
C19 C18 1_555 1_555
H10 C19 1_555 1_555
C20 N4 1_555 1_555
C21 C1 1_555 1_555
C22 C21 1_555 1_555
H11 C22 1_555 1_555
C23 C22 1_555 1_555
H12 C23 1_555 1_555
C24 C23 1_555 1_555
H13 C24 1_555 1_555
C25 C24 1_555 1_555
H14 C25 1_555 1_555
C26 C21 1_555 1_555
H15 C26 1_555 1_555
C27 C6 1_555 1_555
C28 C27 1_555 1_555
H16 C28 1_555 1_555
C29 C28 1_555 1_555
H17 C29 1_555 1_555
C30 C29 1_555 1_555
H18 C30 1_555 1_555
C31 C30 1_555 1_555
H19 C31 1_555 1_555
C32 C27 1_555 1_555
H20 C32 1_555 1_555
C33 C11 1_555 1_555
C34 C33 1_555 1_555
H21 C34 1_555 1_555
C35 C34 1_555 1_555
H22 C35 1_555 1_555
C36 C35 1_555 1_555
H23 C36 1_555 1_555
C37 C36 1_555 1_555
H24 C37 1_555 1_555
C38 C33 1_555 1_555
H25 C38 1_555 1_555
C39 C16 1_555 1_555
C40 C39 1_555 1_555
H26 C40 1_555 1_555
C41 C40 1_555 1_555
H27 C41 1_555 1_555
C42 C41 1_555 1_555
H28 C42 1_555 1_555
C43 C42 1_555 1_555
H29 C43 1_555 1_555
C44 C39 1_555 1_555
H30 C44 1_555 1_555
C45 N5 1_555 1_555
C46 C45 1_555 1_555
C47 C46 1_555 1_555
H31 C47 1_555 1_555
C48 C47 1_555 1_555
H32 C48 1_555 1_555
C49 C48 1_555 1_555
H33 C49 1_555 1_555
C50 C49 1_555 1_555
H34 C50 1_555 1_555
C51 C46 1_555 1_555
H35 C51 1_555 1_555
C1 C20 1_555 1_555
C4 C5 1_555 1_555
C6 C7 1_555 1_555
C9 C10 1_555 1_555
C14 C15 1_555 1_555
C16 C17 1_555 1_555
C19 C20 1_555 1_555
C25 C26 1_555 1_555
C31 C32 1_555 1_555
C37 C38 1_555 1_555
C43 C44 1_555 1_555
C50 C51 1_555 1_555

#END
