
#######################################################################
#
#                 Cambridge Crystallographic Data Centre
#                                CCDC 
#
#######################################################################
#
# If this CIF has been generated from an entry in the Cambridge 
# Structural Database, then it will include bibliographic, chemical, 
# crystal, experimental, refinement or atomic coordinate data resulting 
# from the CCDC's data processing and validation procedures.
#
#######################################################################

data_OJIVOU01
_chemical_formula_moiety         '2(C1 H5 N6 1+),O4 S1 2-'
_chemical_name_systematic        'bis(1,5-diamino-1H-tetrazol-4-ium) sulfate'
_symmetry_cell_setting           monoclinic
_symmetry_space_group_name_H-M   'P 21/c'
_symmetry_Int_Tables_number      14
_space_group_name_Hall           '-P 2ybc'
loop_
_symmetry_equiv_pos_site_id
_symmetry_equiv_pos_as_xyz
1 x,y,z
2 -x,1/2+y,1/2-z
3 -x,-y,-z
4 x,1/2-y,1/2+z
_cell_length_a                   14.1094(14)
_cell_length_b                   6.4432(3)
_cell_length_c                   13.8273(13)
_cell_angle_alpha                90
_cell_angle_beta                 119.317(4)
_cell_angle_gamma                90
_cell_volume                     1096.04
_exptl_crystal_colour            colorless
_exptl_crystal_description       Chunk
_cell_formula_units_Z            4
loop_
_atom_site_label
_atom_site_type_symbol
_atom_site_fract_x
_atom_site_fract_y
_atom_site_fract_z
N1 N 0.07611(11) 0.1255(2) 0.16978(11)
N2 N 0.05098(12) 0.2720(2) 0.08857(12)
N3 N 0.07067(12) 0.4494(2) 0.13477(12)
N4 N 0.10913(12) 0.4206(2) 0.24607(12)
N5 N 0.06809(14) -0.0882(2) 0.15294(12)
N6 N 0.14522(12) 0.1273(2) 0.36519(12)
C1 C 0.11354(13) 0.2183(3) 0.26869(14)
H1 H 0.1359(17) 0.523(3) 0.2932(18)
H2 H 0.0044(18) -0.110(3) 0.0961(18)
H3 H 0.117(2) -0.122(4) 0.135(2)
H4 H 0.1583(17) -0.006(4) 0.3722(18)
H5 H 0.1621(18) 0.205(4) 0.4243(19)
N7 N 0.40323(11) 0.8810(2) 0.33190(11)
N8 N 0.32199(12) 1.0271(2) 0.29532(12)
N9 N 0.36650(12) 1.2045(2) 0.31059(12)
N10 N 0.47649(12) 1.1768(2) 0.35600(12)
N11 N 0.38791(12) 0.6666(2) 0.32604(13)
N12 N 0.59534(12) 0.8837(2) 0.40933(13)
C2 C 0.49984(13) 0.9745(3) 0.36871(13)
H6 H 0.521(2) 1.280(4) 0.378(2)
H7 H 0.3609(16) 0.632(3) 0.3711(18)
H8 H 0.3429(17) 0.638(3) 0.2567(18)
H9 H 0.6511(18) 0.960(4) 0.4183(18)
H10 H 0.6006(18) 0.745(4) 0.4159(18)
S1 S 0.25509(3) 0.87180(6) 0.01767(3)
O1 O 0.25764(10) 0.69489(18) 0.08576(10)
O2 O 0.36745(11) 0.9530(2) 0.06131(15)
O3 O 0.18554(10) 1.03965(19) 0.01739(10)
O4 O 0.21633(13) 0.7972(2) -0.09696(10)
loop_
_geom_bond_atom_site_label_1
_geom_bond_atom_site_label_2
_geom_bond_site_symmetry_1
_geom_bond_site_symmetry_2
N1 N2 1_555 1_555
N2 N3 1_555 1_555
N3 N4 1_555 1_555
N4 C1 1_555 1_555
N5 N1 1_555 1_555
N6 C1 1_555 1_555
C1 N1 1_555 1_555
H1 N4 1_555 1_555
H2 N5 1_555 1_555
H3 N5 1_555 1_555
H4 N6 1_555 1_555
H5 N6 1_555 1_555
N7 N8 1_555 1_555
N8 N9 1_555 1_555
N9 N10 1_555 1_555
N10 C2 1_555 1_555
N11 N7 1_555 1_555
N12 C2 1_555 1_555
C2 N7 1_555 1_555
H6 N10 1_555 1_555
H7 N11 1_555 1_555
H8 N11 1_555 1_555
H9 N12 1_555 1_555
H10 N12 1_555 1_555
S1 O1 1_555 1_555
O2 S1 1_555 1_555
O3 S1 1_555 1_555
O4 S1 1_555 1_555

#END
