
#######################################################################
#
#                 Cambridge Crystallographic Data Centre
#                                CCDC 
#
#######################################################################
#
# If this CIF has been generated from an entry in the Cambridge 
# Structural Database, then it will include bibliographic, chemical, 
# crystal, experimental, refinement or atomic coordinate data resulting 
# from the CCDC's data processing and validation procedures.
#
#######################################################################

data_OJIXOV
_chemical_formula_moiety         'C21 H22 N2,0.24(C2 H4 Cl2),0.13(C6 H14)'
_chemical_name_systematic        
"9,9-Dimethyl-5,6,8,9,14,14b-hexahydroindolo[2',3':3,4]pyrido[2,1-a]isoquinoline n-hexane dichloroethane solvate"
_symmetry_cell_setting           monoclinic
_symmetry_space_group_name_H-M   'P 21/c'
_symmetry_Int_Tables_number      14
_space_group_name_Hall           '-P 2ybc'
loop_
_symmetry_equiv_pos_site_id
_symmetry_equiv_pos_as_xyz
1 x,y,z
2 -x,1/2+y,1/2-z
3 -x,-y,-z
4 x,1/2-y,1/2+z
_cell_length_a                   12.3780(7)
_cell_length_b                   11.7627(7)
_cell_length_c                   24.4212(14)
_cell_angle_alpha                90
_cell_angle_beta                 92.430(1)
_cell_angle_gamma                90
_cell_volume                     3552.5
_exptl_crystal_colour            yellow
_exptl_crystal_description       rod
_cell_formula_units_Z            8
loop_
_atom_site_label
_atom_site_type_symbol
_atom_site_fract_x
_atom_site_fract_y
_atom_site_fract_z
N3 N 0.19742(8) 0.29317(8) 0.24003(4)
H23 H 0.1853 0.2872 0.2752
N4 N 0.20856(8) 0.01690(8) 0.17158(4)
C22 C 0.22742(9) 0.20564(10) 0.20596(5)
C23 C 0.23965(9) 0.24495(10) 0.15379(5)
C24 C 0.21436(9) 0.36429(10) 0.15444(5)
C25 C 0.20741(10) 0.45108(11) 0.11477(5)
H24 H 0.2223 0.4353 0.0777
C26 C 0.17854(11) 0.55969(11) 0.13044(6)
H25 H 0.1740 0.6186 0.1038
C27 C 0.15591(11) 0.58425(11) 0.18498(6)
H26 H 0.1365 0.6595 0.1946
C28 C 0.16130(11) 0.50080(10) 0.22510(5)
H27 H 0.1461 0.5175 0.2620
C29 C 0.18988(10) 0.39141(10) 0.20919(5)
C30 C 0.23211(9) 0.08315(10) 0.22241(5)
H28 H 0.1718 0.0692 0.2475
C31 C 0.28621(10) 0.04761(10) 0.12968(5)
H29 H 0.2793 -0.0073 0.0990
H30 H 0.3606 0.0417 0.1459
C32 C 0.26824(10) 0.16877(10) 0.10709(5)
C33 C 0.37430(11) 0.20797(12) 0.08218(6)
H31 H 0.3636 0.2829 0.0653
H32 H 0.3953 0.1532 0.0543
H33 H 0.4314 0.2127 0.1111
C34 C 0.17715(11) 0.17022(11) 0.06249(5)
H34 H 0.1087 0.1496 0.0786
H35 H 0.1935 0.1154 0.0338
H36 H 0.1711 0.2466 0.0466
C35 C 0.21195(10) -0.10522(10) 0.18504(5)
H37 H 0.1913 -0.1492 0.1517
H38 H 0.1576 -0.1211 0.2126
C36 C 0.32265(11) -0.14676(11) 0.20731(5)
H39 H 0.3135 -0.2202 0.2263
H40 H 0.3699 -0.1600 0.1762
C37 C 0.37717(10) -0.06354(10) 0.24650(5)
C38 C 0.47122(10) -0.09585(12) 0.27637(5)
H41 H 0.4987 -0.1707 0.2723
C39 C 0.52499(11) -0.02101(13) 0.31169(6)
H42 H 0.5881 -0.0447 0.3321
C40 C 0.48608(11) 0.08919(13) 0.31719(6)
H43 H 0.5231 0.1413 0.3410
C41 C 0.39330(10) 0.12275(11) 0.28780(5)
H44 H 0.3672 0.1982 0.2916
C42 C 0.33752(9) 0.04704(10) 0.25263(5)
C43 C 0.4903(4) 0.5488(5) 0.01934(19)
H46 H 0.4712 0.5178 0.0554
C44 C 0.4006(4) 0.6272(5) -0.0017(3)
C45 C 0.3882(5) 0.7305(6) 0.0381(3)
Cl1 Cl 0.37400(8) 0.77977(8) 0.05998(4)
Cl2 Cl 0.61438(7) 0.50234(8) 0.05136(4)
C46 C 0.3984(3) 0.6989(3) 0.00054(15)
H52 H 0.3663 0.7378 -0.0322
C47 C 0.3499(3) 0.5834(3) 0.00546(15)
H55 H 0.3766 0.5474 0.0401
C43B C 0.5097(4) 0.4512(5) -0.01934(19)
H46B H 0.5288 0.4822 -0.0554
C44B C 0.5994(4) 0.3728(5) 0.0017(3)
C45B C 0.6118(5) 0.2695(6) -0.0381(3)
Cl1B Cl 0.62600(8) 0.22023(8) -0.05998(4)
Cl2B Cl 0.38562(7) 0.49766(8) -0.05136(4)
C46B C 0.6016(3) 0.3011(3) -0.00054(15)
H52B H 0.6337 0.2622 0.0322
C47B C 0.6501(3) 0.4166(3) -0.00546(15)
H55B H 0.6234 0.4526 -0.0401
N1 N 0.03182(8) 0.54698(8) 0.35110(4)
H1 H -0.0379 0.5380 0.3439
N2 N 0.17505(8) 0.27470(8) 0.36159(4)
C1 C 0.10416(9) 0.46262(10) 0.36693(5)
C2 C 0.20618(9) 0.50592(10) 0.37442(5)
C3 C 0.19858(9) 0.62582(10) 0.36279(5)
C4 C 0.27186(10) 0.71687(11) 0.36258(5)
H2 H 0.3464 0.7046 0.3716
C5 C 0.23448(11) 0.82483(11) 0.34914(5)
H3 H 0.2837 0.8868 0.3495
C6 C 0.12473(11) 0.84391(11) 0.33501(5)
H4 H 0.1011 0.9186 0.3258
C7 C 0.05032(10) 0.75596(10) 0.33427(5)
H5 H -0.0237 0.7687 0.3244
C8 C 0.08828(10) 0.64803(10) 0.34863(5)
C9 C 0.07459(9) 0.33958(10) 0.37053(5)
H6 H 0.0227 0.3225 0.3391
C10 C 0.26294(10) 0.31168(10) 0.40027(5)
H7 H 0.3241 0.2578 0.3984
H8 H 0.2368 0.3091 0.4380
C11 C 0.30377(9) 0.43292(10) 0.38839(5)
C12 C 0.38040(10) 0.43279(11) 0.34040(5)
H9 H 0.3422 0.4028 0.3075
H10 H 0.4433 0.3848 0.3497
H11 H 0.4045 0.5106 0.3334
C13 C 0.36628(11) 0.47676(11) 0.43995(5)
H12 H 0.3957 0.5523 0.4327
H13 H 0.4256 0.4244 0.4497
H14 H 0.3173 0.4814 0.4704
C14 C 0.15128(11) 0.15222(10) 0.36612(5)
H15 H 0.2170 0.1087 0.3576
H16 H 0.0940 0.1322 0.3383
C15 C 0.11477(12) 0.11552(11) 0.42236(6)
H17 H 0.0808 0.0395 0.4192
H18 H 0.1788 0.1092 0.4478
C16 C 0.03525(10) 0.19781(10) 0.44584(5)
C17 C -0.01926(11) 0.16808(11) 0.49273(5)
H19 H -0.0081 0.0948 0.5083
C18 C -0.08910(11) 0.24294(11) 0.51707(5)
H20 H -0.1270 0.2204 0.5483
C19 C -0.10318(11) 0.35128(12) 0.49527(5)
H21 H -0.1496 0.4040 0.5120
C20 C -0.04907(10) 0.38219(11) 0.44881(5)
H22 H -0.0589 0.4564 0.4341
C21 C 0.01959(10) 0.30614(10) 0.42337(5)
H45? H 0.5579 0.5931 0.0248
H47? H 0.3317 0.5846 -0.0049
H48? H 0.4173 0.6554 -0.0386
H49? H 0.3298 0.7802 0.0240
H50? H 0.4561 0.7735 0.0408
H51? H 0.3709 0.7026 0.0745
H53? H 0.4773 0.6921 -0.0039
H54? H 0.2702 0.5897 0.0063
loop_
_geom_bond_atom_site_label_1
_geom_bond_atom_site_label_2
_geom_bond_site_symmetry_1
_geom_bond_site_symmetry_2
N1 H1 1_555 1_555
N2 C9 1_555 1_555
C1 N1 1_555 1_555
C2 C1 1_555 1_555
C3 C2 1_555 1_555
C4 C3 1_555 1_555
H2 C4 1_555 1_555
C5 C4 1_555 1_555
H3 C5 1_555 1_555
C6 C5 1_555 1_555
H4 C6 1_555 1_555
C7 C6 1_555 1_555
H5 C7 1_555 1_555
C8 N1 1_555 1_555
C9 C1 1_555 1_555
H6 C9 1_555 1_555
C10 N2 1_555 1_555
H7 C10 1_555 1_555
H8 C10 1_555 1_555
C11 C2 1_555 1_555
C12 C11 1_555 1_555
H9 C12 1_555 1_555
H10 C12 1_555 1_555
H11 C12 1_555 1_555
C13 C11 1_555 1_555
H12 C13 1_555 1_555
H13 C13 1_555 1_555
H14 C13 1_555 1_555
C14 N2 1_555 1_555
H15 C14 1_555 1_555
H16 C14 1_555 1_555
C15 C14 1_555 1_555
H17 C15 1_555 1_555
H18 C15 1_555 1_555
C16 C15 1_555 1_555
C17 C16 1_555 1_555
H19 C17 1_555 1_555
C18 C17 1_555 1_555
H20 C18 1_555 1_555
C19 C18 1_555 1_555
H21 C19 1_555 1_555
C20 C19 1_555 1_555
H22 C20 1_555 1_555
C21 C9 1_555 1_555
N3 H23 1_555 1_555
N4 C30 1_555 1_555
C22 N3 1_555 1_555
C23 C22 1_555 1_555
C24 C23 1_555 1_555
C25 C24 1_555 1_555
H24 C25 1_555 1_555
C26 C25 1_555 1_555
H25 C26 1_555 1_555
C27 C26 1_555 1_555
H26 C27 1_555 1_555
C28 C27 1_555 1_555
H27 C28 1_555 1_555
C29 N3 1_555 1_555
C30 C22 1_555 1_555
H28 C30 1_555 1_555
C31 N4 1_555 1_555
H29 C31 1_555 1_555
H30 C31 1_555 1_555
C32 C23 1_555 1_555
C33 C32 1_555 1_555
H31 C33 1_555 1_555
H32 C33 1_555 1_555
H33 C33 1_555 1_555
C34 C32 1_555 1_555
H34 C34 1_555 1_555
H35 C34 1_555 1_555
H36 C34 1_555 1_555
C35 N4 1_555 1_555
H37 C35 1_555 1_555
H38 C35 1_555 1_555
C36 C35 1_555 1_555
H39 C36 1_555 1_555
H40 C36 1_555 1_555
C37 C36 1_555 1_555
C38 C37 1_555 1_555
H41 C38 1_555 1_555
C39 C38 1_555 1_555
H42 C39 1_555 1_555
C40 C39 1_555 1_555
H43 C40 1_555 1_555
C41 C40 1_555 1_555
H44 C41 1_555 1_555
C42 C30 1_555 1_555
C43 H46 1_555 1_555
C44 C43 1_555 1_555
C45 C44 1_555 1_555
Cl1 C45 1_555 1_555
Cl2 C43 1_555 1_555
C46 C44 1_555 1_555
H52 C46 1_555 1_555
C47 C44 1_555 1_555
H55 C47 1_555 1_555
C43B C43 1_555 1_555
H46B C43B 1_555 1_555
C44B Cl2 1_555 1_555
C45B C44B 1_555 1_555
Cl1B C45B 1_555 1_555
Cl2B C44 1_555 1_555
C46B C44B 1_555 1_555
H52B C46B 1_555 1_555
C47B Cl2 1_555 1_555
H55B C47B 1_555 1_555
C3 C8 1_555 1_555
C7 C8 1_555 1_555
C10 C11 1_555 1_555
C16 C21 1_555 1_555
C20 C21 1_555 1_555
C24 C29 1_555 1_555
C28 C29 1_555 1_555
C31 C32 1_555 1_555
C37 C42 1_555 1_555
C41 C42 1_555 1_555
C45 C46 1_555 1_555
Cl1 C46 1_555 1_555
C46 C47 1_555 1_555
C47 Cl2B 1_555 1_555
C43B C44B 1_555 1_555
C43B Cl2B 1_555 1_555
C44B C47B 1_555 1_555
C45B C46B 1_555 1_555
Cl1B C46B 1_555 1_555
C46B C47B 1_555 1_555

#END
