
#######################################################################
#
#                 Cambridge Crystallographic Data Centre
#                                CCDC 
#
#######################################################################
#
# If this CIF has been generated from an entry in the Cambridge 
# Structural Database, then it will include bibliographic, chemical, 
# crystal, experimental, refinement or atomic coordinate data resulting 
# from the CCDC's data processing and validation procedures.
#
#######################################################################

data_OJIYOW
_chemical_formula_moiety         'C45 H53 F3 Si2'
_chemical_name_systematic        
((2-(Trifluoromethyl)pentacene-6,13-diyl)diethyne-2,1-diyl)bis(triisopropylsilane)
_symmetry_cell_setting           monoclinic
_symmetry_space_group_name_H-M   'P 21/c'
_symmetry_Int_Tables_number      14
_space_group_name_Hall           '-P 2ybc'
loop_
_symmetry_equiv_pos_site_id
_symmetry_equiv_pos_as_xyz
1 x,y,z
2 -x,1/2+y,1/2-z
3 -x,-y,-z
4 x,1/2-y,1/2+z
_cell_length_a                   9.0009(2)
_cell_length_b                   12.9917(3)
_cell_length_c                   33.9922(10)
_cell_angle_alpha                90
_cell_angle_beta                 96.2183(11)
_cell_angle_gamma                90
_cell_volume                     3951.56
_exptl_crystal_colour            'dark blue'
_exptl_crystal_description       needle
_cell_formula_units_Z            4
loop_
_atom_site_label
_atom_site_type_symbol
_atom_site_fract_x
_atom_site_fract_y
_atom_site_fract_z
Si1 Si 0.85885(11) 0.34931(7) -0.06865(3)
Si2 Si 0.80198(11) -0.08704(8) 0.23318(3)
C1 C 0.8693(4) 0.1902(2) 0.04845(9)
C2 C 0.9927(4) 0.1850(2) 0.07717(9)
C3 C 1.1271(4) 0.2376(2) 0.07292(9)
H1 H 1.1345 0.2766 0.0496
C4 C 1.2479(4) 0.2345(2) 0.10141(10)
C5 C 1.3840(4) 0.2919(3) 0.09798(10)
H2 H 1.3920 0.3327 0.0751
C6 C 1.4997(4) 0.2885(3) 0.12678(10)
C7 C 1.4929(4) 0.2259(3) 0.16101(10)
H3 H 1.5761 0.2230 0.1807
C8 C 1.3691(4) 0.1711(3) 0.16547(9)
H4 H 1.3662 0.1299 0.1885
C9 C 1.2414(4) 0.1732(3) 0.13637(9)
C10 C 1.1111(4) 0.1205(2) 0.14089(9)
H5 H 1.1070 0.0792 0.1638
C11 C 0.9841(4) 0.1256(2) 0.11287(9)
C12 C 0.8483(4) 0.0754(2) 0.11864(9)
C13 C 0.7234(4) 0.0812(2) 0.08982(8)
C14 C 0.5880(4) 0.0312(2) 0.09469(9)
H6 H 0.5814 -0.0087 0.1178
C15 C 0.4643(4) 0.0382(2) 0.06698(9)
C16 C 0.3252(4) -0.0125(3) 0.07157(9)
H7 H 0.3171 -0.0532 0.0945
C17 C 0.2065(4) -0.0038(3) 0.04426(10)
H8 H 0.1164 -0.0387 0.0480
C18 C 0.2139(4) 0.0573(3) 0.00965(9)
H9 H 0.1289 0.0629 -0.0094
C19 C 0.3421(4) 0.1074(3) 0.00379(9)
H10 H 0.3456 0.1480 -0.0193
C20 C 0.4716(4) 0.1001(2) 0.03184(9)
C21 C 0.6052(4) 0.1481(2) 0.02673(9)
H11 H 0.6111 0.1877 0.0035
C22 C 0.7323(4) 0.1410(2) 0.05427(9)
C23 C 0.8769(3) 0.2452(2) 0.01198(10)
C24 C 0.8779(4) 0.2887(3) -0.01956(10)
C25 C 0.6550(4) 0.3832(3) -0.07950(10)
H12 H 0.6451 0.4310 -0.1027
C26 C 0.5966(4) 0.4401(3) -0.04462(9)
H13 H 0.4927 0.4609 -0.0519
H14 H 0.6581 0.5013 -0.0381
H15 H 0.6020 0.3943 -0.0216
C27 C 0.5543(4) 0.2891(3) -0.09050(10)
H16 H 0.5668 0.2385 -0.0690
H17 H 0.5826 0.2578 -0.1149
H18 H 0.4497 0.3111 -0.0946
C28 C 0.9179(4) 0.2481(3) -0.10316(9)
H19 H 0.8567 0.1859 -0.0985
C29 C 0.8842(4) 0.2724(3) -0.14735(9)
H20 H 0.9519 0.3266 -0.1546
H21 H 0.7805 0.2959 -0.1528
H22 H 0.8985 0.2103 -0.1629
C30 C 1.0813(4) 0.2145(3) -0.09365(10)
H23 H 1.0983 0.1509 -0.1080
H24 H 1.1025 0.2025 -0.0651
H25 H 1.1473 0.2687 -0.1018
C31 C 0.9749(4) 0.4700(3) -0.06584(9)
H26 H 0.9201 0.5209 -0.0507
C32 C 0.9874(4) 0.5194(3) -0.10642(9)
H27 H 1.0298 0.5886 -0.1027
H28 H 0.8879 0.5238 -0.1212
H29 H 1.0524 0.4771 -0.1212
C33 C 1.1290(4) 0.4578(3) -0.04276(10)
H30 H 1.1920 0.4152 -0.0580
H31 H 1.1188 0.4247 -0.0173
H32 H 1.1750 0.5257 -0.0382
C34 C 0.8367(4) 0.0215(3) 0.15509(10)
C35 C 0.8258(4) -0.0213(3) 0.18616(9)
C36 C 0.6439(4) -0.1810(3) 0.22198(10)
H33 H 0.6221 -0.2118 0.2477
C37 C 0.6839(5) -0.2695(3) 0.19532(10)
H34 H 0.5996 -0.3174 0.1912
H35 H 0.7719 -0.3058 0.2079
H36 H 0.7058 -0.2419 0.1697
C38 C 0.5009(4) -0.1270(3) 0.20390(10)
H37 H 0.5183 -0.0958 0.1786
H38 H 0.4732 -0.0733 0.2220
H39 H 0.4197 -0.1774 0.1996
C39 C 0.7593(4) 0.0112(3) 0.27123(9)
H40 H 0.8575 0.0311 0.2858
C40 C 0.6879(4) 0.1114(3) 0.25387(10)
H41 H 0.5894 0.0962 0.2399
H42 H 0.7520 0.1415 0.2353
H43 H 0.6770 0.1602 0.2753
C41 C 0.6640(4) -0.0315(3) 0.30232(9)
H44 H 0.6558 0.0204 0.3229
H45 H 0.7113 -0.0936 0.3143
H46 H 0.5641 -0.0486 0.2896
C42 C 0.9817(4) -0.1555(3) 0.24953(10)
H47 H 0.9991 -0.2052 0.2280
C43 C 0.9691(4) -0.2195(3) 0.28696(10)
H48 H 1.0607 -0.2597 0.2932
H49 H 0.8834 -0.2662 0.2824
H50 H 0.9550 -0.1735 0.3091
C44 C 1.1176(4) -0.0849(3) 0.25482(11)
H51 H 1.1042 -0.0338 0.2753
H52 H 1.1286 -0.0498 0.2298
H53 H 1.2073 -0.1259 0.2627
C45 C 1.6344(4) 0.3517(3) 0.12400(10)
F1 F 1.6523(2) 0.37976(17) 0.08672(6)
F2 F 1.7613(2) 0.30512(16) 0.13817(6)
F3 F 1.6312(2) 0.44061(16) 0.14448(7)
loop_
_geom_bond_atom_site_label_1
_geom_bond_atom_site_label_2
_geom_bond_site_symmetry_1
_geom_bond_site_symmetry_2
Si1 C24 1_555 1_555
Si2 C35 1_555 1_555
C1 C2 1_555 1_555
C2 C3 1_555 1_555
C3 H1 1_555 1_555
C4 C3 1_555 1_555
C5 C4 1_555 1_555
H2 C5 1_555 1_555
C6 C5 1_555 1_555
C7 C6 1_555 1_555
H3 C7 1_555 1_555
C8 C7 1_555 1_555
H4 C8 1_555 1_555
C9 C4 1_555 1_555
C10 C9 1_555 1_555
H5 C10 1_555 1_555
C11 C2 1_555 1_555
C12 C11 1_555 1_555
C13 C12 1_555 1_555
C14 C13 1_555 1_555
H6 C14 1_555 1_555
C15 C14 1_555 1_555
C16 C15 1_555 1_555
H7 C16 1_555 1_555
C17 C16 1_555 1_555
H8 C17 1_555 1_555
C18 C17 1_555 1_555
H9 C18 1_555 1_555
C19 C18 1_555 1_555
H10 C19 1_555 1_555
C20 C15 1_555 1_555
C21 C20 1_555 1_555
H11 C21 1_555 1_555
C22 C1 1_555 1_555
C23 C1 1_555 1_555
C24 C23 1_555 1_555
C25 Si1 1_555 1_555
H12 C25 1_555 1_555
C26 C25 1_555 1_555
H13 C26 1_555 1_555
H14 C26 1_555 1_555
H15 C26 1_555 1_555
C27 C25 1_555 1_555
H16 C27 1_555 1_555
H17 C27 1_555 1_555
H18 C27 1_555 1_555
C28 Si1 1_555 1_555
H19 C28 1_555 1_555
C29 C28 1_555 1_555
H20 C29 1_555 1_555
H21 C29 1_555 1_555
H22 C29 1_555 1_555
C30 C28 1_555 1_555
H23 C30 1_555 1_555
H24 C30 1_555 1_555
H25 C30 1_555 1_555
C31 Si1 1_555 1_555
H26 C31 1_555 1_555
C32 C31 1_555 1_555
H27 C32 1_555 1_555
H28 C32 1_555 1_555
H29 C32 1_555 1_555
C33 C31 1_555 1_555
H30 C33 1_555 1_555
H31 C33 1_555 1_555
H32 C33 1_555 1_555
C34 C12 1_555 1_555
C35 C34 1_555 1_555
C36 Si2 1_555 1_555
H33 C36 1_555 1_555
C37 C36 1_555 1_555
H34 C37 1_555 1_555
H35 C37 1_555 1_555
H36 C37 1_555 1_555
C38 C36 1_555 1_555
H37 C38 1_555 1_555
H38 C38 1_555 1_555
H39 C38 1_555 1_555
C39 Si2 1_555 1_555
H40 C39 1_555 1_555
C40 C39 1_555 1_555
H41 C40 1_555 1_555
H42 C40 1_555 1_555
H43 C40 1_555 1_555
C41 C39 1_555 1_555
H44 C41 1_555 1_555
H45 C41 1_555 1_555
H46 C41 1_555 1_555
C42 Si2 1_555 1_555
H47 C42 1_555 1_555
C43 C42 1_555 1_555
H48 C43 1_555 1_555
H49 C43 1_555 1_555
H50 C43 1_555 1_555
C44 C42 1_555 1_555
H51 C44 1_555 1_555
H52 C44 1_555 1_555
H53 C44 1_555 1_555
C45 C6 1_555 1_555
F1 C45 1_555 1_555
F2 C45 1_555 1_555
F3 C45 1_555 1_555
C8 C9 1_555 1_555
C10 C11 1_555 1_555
C13 C22 1_555 1_555
C19 C20 1_555 1_555
C21 C22 1_555 1_555

#END
