
#######################################################################
#
#                 Cambridge Crystallographic Data Centre
#                                CCDC 
#
#######################################################################
#
# If this CIF has been generated from an entry in the Cambridge 
# Structural Database, then it will include bibliographic, chemical, 
# crystal, experimental, refinement or atomic coordinate data resulting 
# from the CCDC's data processing and validation procedures.
#
#######################################################################

data_OJIYAI
_chemical_formula_moiety         'C12 H18 N2 O1'
_chemical_name_systematic        1-(3-Methylbutyl)-3-phenylurea
_symmetry_cell_setting           orthorhombic
_symmetry_space_group_name_H-M   'P c c n'
_symmetry_Int_Tables_number      56
_space_group_name_Hall           '-P 2ab 2ac'
loop_
_symmetry_equiv_pos_site_id
_symmetry_equiv_pos_as_xyz
1 x,y,z
2 1/2-x,1/2-y,z
3 -x,1/2+y,1/2-z
4 1/2+x,-y,1/2-z
5 -x,-y,-z
6 1/2+x,1/2+y,-z
7 x,1/2-y,1/2+z
8 1/2-x,y,1/2+z
_cell_length_a                   21.8777(7)
_cell_length_b                   24.4332(8)
_cell_length_c                   8.9667(2)
_cell_angle_alpha                90
_cell_angle_beta                 90
_cell_angle_gamma                90
_cell_volume                     4793.08
_exptl_crystal_colour            colorless
_exptl_crystal_description       block
_cell_formula_units_Z            16
loop_
_atom_site_label
_atom_site_type_symbol
_atom_site_fract_x
_atom_site_fract_y
_atom_site_fract_z
C1 C -0.08080(19) 0.13096(17) 0.6504(5)
H1 H -0.0953 0.1533 0.7295
C2 C -0.1004(2) 0.07702(17) 0.6400(6)
H2 H -0.1279 0.0627 0.7121
C3 C -0.0801(2) 0.04440(18) 0.5259(5)
H3 H -0.0928 0.0073 0.5192
C4 C -0.0410(2) 0.06607(17) 0.4214(4)
H4 H -0.0275 0.0438 0.3410
C5 C -0.02108(19) 0.11938(16) 0.4307(4)
H5 H 0.0060 0.1335 0.3574
C6 C -0.04058(16) 0.15258(15) 0.5473(4)
C7 C 0.00033(17) 0.24251(15) 0.4668(3)
N1 N 0.02347(14) 0.28941(12) 0.5210(3)
H6 H 0.0176 0.2961 0.6163
C8 C 0.0575(3) 0.3303(2) 0.4360(7)
H7 H 0.0403 0.3326 0.3340
H8 H 0.1006 0.3184 0.4273
C9 C 0.0556(4) 0.3857(2) 0.5059(8)
H9 H 0.0860 0.3865 0.5878
H10 H 0.0148 0.3908 0.5512
C10 C 0.1185(4) 0.4216(4) 0.2895(8)
H11 H 0.1081 0.3882 0.2347
H12 H 0.1574 0.4163 0.3419
H13 H 0.1224 0.4522 0.2194
C11 C 0.0681(3) 0.4343(2) 0.4030(7)
H14 H 0.0297 0.4434 0.3478
C12 C 0.0868(6) 0.4837(3) 0.4967(11)
H15 H 0.0578 0.4883 0.5792
H16 H 0.0866 0.5166 0.4343
H17 H 0.1279 0.4779 0.5368
N2 N -0.01938(14) 0.20632(13) 0.5704(3)
H18 H -0.0189 0.2178 0.6634
O1 O -0.00341(14) 0.23315(11) 0.3311(3)
C13 C 0.1643(2) 0.38188(17) 0.8744(5)
H19 H 0.1556 0.4110 0.9413
C14 C 0.1392(2) 0.33039(19) 0.8988(5)
H20 H 0.1134 0.3246 0.9825
C15 C 0.1512(2) 0.2878(2) 0.8030(6)
H21 H 0.1342 0.2526 0.8206
C16 C 0.1883(2) 0.29674(18) 0.6808(7)
H22 H 0.1961 0.2677 0.6129
C17 C 0.21398(19) 0.34732(18) 0.6567(5)
H23 H 0.2401 0.3526 0.5734
C18 C 0.20228(19) 0.39095(17) 0.7526(4)
C19 C 0.23562(17) 0.48580(16) 0.8099(4)
N3 N 0.25699(15) 0.53111(12) 0.7440(3)
H24 H 0.2616 0.5317 0.6465
C20 C 0.27282(18) 0.57948(14) 0.8311(4)
H25 H 0.3043 0.5696 0.9057
H26 H 0.2362 0.5924 0.8855
C21 C 0.29664(18) 0.62503(14) 0.7343(4)
H27 H 0.2651 0.6345 0.6595
H28 H 0.3331 0.6118 0.6797
C22 C 0.3644(2) 0.66608(18) 0.9339(5)
H29 H 0.3516 0.6371 1.0026
H30 H 0.3725 0.6997 0.9902
H31 H 0.4016 0.6547 0.8815
C23 C 0.31381(18) 0.67661(14) 0.8210(4)
H32 H 0.2768 0.6891 0.8768
C24 C 0.3321(2) 0.72202(16) 0.7130(5)
H33 H 0.2988 0.7285 0.6421
H34 H 0.3690 0.7111 0.6587
H35 H 0.3403 0.7557 0.7690
N4 N 0.22745(16) 0.44215(13) 0.7175(3)
H36 H 0.2394 0.4466 0.6246
O2 O 0.22449(12) 0.48440(11) 0.9462(3)
C25? C 0.0894(5) 0.4336(4) 0.2655(7)
C26? C 0.0935(4) 0.4281(2) 0.4332(7)
C27? C 0.0910(6) 0.4822(3) 0.5154(10)
C28? C 0.0302(4) 0.3365(2) 0.4189(7)
C29? C 0.0542(4) 0.3846(2) 0.5043(8)
H37? H 0.1212 0.4587 0.2303
H38? H 0.0491 0.4480 0.2384
H39? H 0.0951 0.3977 0.2192
H40? H 0.1362 0.4149 0.4505
H41? H 0.0995 0.4761 0.6214
H42? H 0.0503 0.4983 0.5041
H43? H 0.1217 0.5072 0.4737
H44? H 0.0344 0.2920 0.6152
H45? H -0.0099 0.3457 0.3743
H46? H 0.0588 0.3271 0.3372
H47? H 0.0779 0.3696 0.5893
H48? H 0.0184 0.4035 0.5475
N5? N 0.02347(14) 0.28941(12) 0.5210(3)
loop_
_geom_bond_atom_site_label_1
_geom_bond_atom_site_label_2
_geom_bond_site_symmetry_1
_geom_bond_site_symmetry_2
C1 H1 1_555 1_555
C2 C1 1_555 1_555
H2 C2 1_555 1_555
C3 C2 1_555 1_555
H3 C3 1_555 1_555
C4 C3 1_555 1_555
H4 C4 1_555 1_555
C5 C4 1_555 1_555
H5 C5 1_555 1_555
C6 C1 1_555 1_555
C7 N1 1_555 1_555
N1 H6 1_555 1_555
C8 N1 1_555 1_555
H7 C8 1_555 1_555
H8 C8 1_555 1_555
C9 C8 1_555 1_555
H9 C9 1_555 1_555
H10 C9 1_555 1_555
C10 H11 1_555 1_555
H12 C10 1_555 1_555
H13 C10 1_555 1_555
C11 C9 1_555 1_555
H14 C11 1_555 1_555
C12 C11 1_555 1_555
H15 C12 1_555 1_555
H16 C12 1_555 1_555
H17 C12 1_555 1_555
N2 C6 1_555 1_555
H18 N2 1_555 1_555
O1 C7 1_555 1_555
C13 H19 1_555 1_555
C14 C13 1_555 1_555
H20 C14 1_555 1_555
C15 C14 1_555 1_555
H21 C15 1_555 1_555
C16 C15 1_555 1_555
H22 C16 1_555 1_555
C17 C16 1_555 1_555
H23 C17 1_555 1_555
C18 C13 1_555 1_555
C19 N3 1_555 1_555
N3 H24 1_555 1_555
C20 N3 1_555 1_555
H25 C20 1_555 1_555
H26 C20 1_555 1_555
C21 C20 1_555 1_555
H27 C21 1_555 1_555
H28 C21 1_555 1_555
C22 H29 1_555 1_555
H30 C22 1_555 1_555
H31 C22 1_555 1_555
C23 C21 1_555 1_555
H32 C23 1_555 1_555
C24 C23 1_555 1_555
H33 C24 1_555 1_555
H34 C24 1_555 1_555
H35 C24 1_555 1_555
N4 C18 1_555 1_555
H36 N4 1_555 1_555
O2 C19 1_555 1_555
C5 C6 1_555 1_555
C7 N2 1_555 1_555
C10 C11 1_555 1_555
C17 C18 1_555 1_555
C19 N4 1_555 1_555
C22 C23 1_555 1_555

#END
