
#######################################################################
#
#                 Cambridge Crystallographic Data Centre
#                                CCDC 
#
#######################################################################
#
# If this CIF has been generated from an entry in the Cambridge 
# Structural Database, then it will include bibliographic, chemical, 
# crystal, experimental, refinement or atomic coordinate data resulting 
# from the CCDC's data processing and validation procedures.
#
#######################################################################

data_OJIYEM
_chemical_formula_moiety         'C14 H19 N3 S1'
_chemical_name_systematic        
'1-(1H-Indol-7-yl)-3-(3-methylbutyl)thiourea unknown solvate'
_symmetry_cell_setting           tetragonal
_symmetry_space_group_name_H-M   'I 41/a'
_symmetry_Int_Tables_number      88
_space_group_name_Hall           '-I 4ad'
loop_
_symmetry_equiv_pos_site_id
_symmetry_equiv_pos_as_xyz
1 x,y,z
2 1/2-x,-y,1/2+z
3 3/4-y,1/4+x,1/4+z
4 3/4+y,3/4-x,3/4+z
5 1/2+x,1/2+y,1/2+z
6 -x,1/2-y,z
7 1/4-y,3/4+x,3/4+z
8 1/4+y,1/4-x,1/4+z
9 -x,-y,-z
10 1/2+x,y,1/2-z
11 1/4+y,3/4-x,3/4-z
12 1/4-y,1/4+x,1/4-z
13 1/2-x,1/2-y,1/2-z
14 x,1/2+y,-z
15 3/4+y,1/4-x,1/4-z
16 3/4-y,3/4+x,3/4-z
_cell_length_a                   29.2158(5)
_cell_length_b                   29.2158(5)
_cell_length_c                   7.5897(2)
_cell_angle_alpha                90
_cell_angle_beta                 90
_cell_angle_gamma                90
_cell_volume                     6478.29
_exptl_crystal_colour            colorless
_exptl_crystal_description       needle
_cell_formula_units_Z            16
loop_
_atom_site_label
_atom_site_type_symbol
_atom_site_fract_x
_atom_site_fract_y
_atom_site_fract_z
S1 S 0.72845(3) 0.78786(3) 0.00978(11)
N1 N 0.85227(8) 0.70208(9) -0.2097(3)
H1 H 0.8236 0.7068 -0.2408
N2 N 0.80506(8) 0.74646(9) 0.1019(3)
H2 H 0.7873 0.7337 0.1817
N3 N 0.81160(9) 0.79840(10) -0.1240(4)
H3 H 0.8412 0.7932 -0.1200
C1 C 0.87118(10) 0.71272(10) -0.0482(4)
C2 C 0.88544(11) 0.68292(10) -0.3136(4)
H4 H 0.8809 0.6727 -0.4312
C3 C 0.92561(10) 0.68052(10) -0.2251(4)
H5 H 0.9537 0.6688 -0.2692
C4 C 0.91787(10) 0.69906(9) -0.0520(4)
C5 C 0.94444(10) 0.70365(10) 0.1007(4)
H6 H 0.9756 0.6945 0.1017
C6 C 0.92426(10) 0.72172(10) 0.2496(4)
H7 H 0.9416 0.7241 0.3550
C7 C 0.87888(10) 0.73659(10) 0.2485(4)
H8 H 0.8663 0.7497 0.3523
C8 C 0.85203(9) 0.73269(10) 0.1003(4)
C9 C 0.78545(11) 0.77714(11) -0.0073(4)
C10 C 0.79470(13) 0.83011(14) -0.2599(5)
H9 H 0.7789 0.8126 -0.3535
H10 H 0.7724 0.8516 -0.2069
C11 C 0.83291(13) 0.85608(15) -0.3369(6)
H11 H 0.8568 0.8343 -0.3756
H12 H 0.8465 0.8758 -0.2444
C12 C 0.81941(13) 0.88615(14) -0.4936(5)
H13 H 0.7909 0.9032 -0.4619
C13 C 0.81067(17) 0.86012(17) -0.6615(7)
H14 H 0.8034 0.8817 -0.7564
H15 H 0.7849 0.8392 -0.6444
H16 H 0.8380 0.8425 -0.6931
C14 C 0.85758(16) 0.92071(16) -0.5203(7)
H17 H 0.8865 0.9045 -0.5401
H18 H 0.8603 0.9400 -0.4152
H19 H 0.8506 0.9399 -0.6228
loop_
_geom_bond_atom_site_label_1
_geom_bond_atom_site_label_2
_geom_bond_site_symmetry_1
_geom_bond_site_symmetry_2
S1 C9 1_555 1_555
N1 H1 1_555 1_555
N2 H2 1_555 1_555
N3 H3 1_555 1_555
C1 N1 1_555 1_555
C2 N1 1_555 1_555
H4 C2 1_555 1_555
C3 C2 1_555 1_555
H5 C3 1_555 1_555
C4 C1 1_555 1_555
C5 C4 1_555 1_555
H6 C5 1_555 1_555
C6 C5 1_555 1_555
H7 C6 1_555 1_555
C7 C6 1_555 1_555
H8 C7 1_555 1_555
C8 N2 1_555 1_555
C9 N2 1_555 1_555
C10 N3 1_555 1_555
H9 C10 1_555 1_555
H10 C10 1_555 1_555
C11 C10 1_555 1_555
H11 C11 1_555 1_555
H12 C11 1_555 1_555
C12 C11 1_555 1_555
H13 C12 1_555 1_555
C13 C12 1_555 1_555
H14 C13 1_555 1_555
H15 C13 1_555 1_555
H16 C13 1_555 1_555
C14 C12 1_555 1_555
H17 C14 1_555 1_555
H18 C14 1_555 1_555
H19 C14 1_555 1_555
N3 C9 1_555 1_555
C1 C8 1_555 1_555
C3 C4 1_555 1_555
C7 C8 1_555 1_555

#END
