
#######################################################################
#
#                 Cambridge Crystallographic Data Centre
#                                CCDC 
#
#######################################################################
#
# If this CIF has been generated from an entry in the Cambridge 
# Structural Database, then it will include bibliographic, chemical, 
# crystal, experimental, refinement or atomic coordinate data resulting 
# from the CCDC's data processing and validation procedures.
#
#######################################################################

data_OJIZEM
_chemical_formula_moiety         'C27 H21 N3 O1'
_chemical_name_systematic        
5-Methyl-4-((1-naphthylamino)(phenyl)methylene)-2-phenyl-2,4-dihydro-3H-pyrazol-3-one
_symmetry_cell_setting           monoclinic
_symmetry_space_group_name_H-M   'P 21/n'
_symmetry_Int_Tables_number      14
_space_group_name_Hall           '-P 2yn'
loop_
_symmetry_equiv_pos_site_id
_symmetry_equiv_pos_as_xyz
1 x,y,z
2 1/2-x,1/2+y,1/2-z
3 -x,-y,-z
4 1/2+x,1/2-y,1/2+z
_cell_length_a                   10.024(6)
_cell_length_b                   18.171(11)
_cell_length_c                   11.982(7)
_cell_angle_alpha                90
_cell_angle_beta                 106.682(11)
_cell_angle_gamma                90
_cell_volume                     2090.62
_exptl_crystal_colour            yellow
_exptl_crystal_description       block
_chemical_melting_point          '175-176 deg.C'
_cell_formula_units_Z            4
loop_
_atom_site_label
_atom_site_type_symbol
_atom_site_fract_x
_atom_site_fract_y
_atom_site_fract_z
O1 O 0.80455(18) 0.00574(10) 0.10924(15)
N1 N 0.8392(2) 0.10267(10) -0.00696(17)
N2 N 0.9511(2) 0.14640(11) -0.01524(18)
N3 N 1.0415(2) -0.02165(12) 0.27797(19)
H1 H 0.961(3) -0.0323(13) 0.228(2)
C1 C 0.8796(3) 0.05392(14) 0.0840(2)
C2 C 1.0227(2) 0.07139(13) 0.1413(2)
C3 C 1.0578(3) 0.12796(13) 0.0717(2)
C4 C 1.1964(3) 0.1616(2) 0.0792(3)
H2 H 1.232(3) 0.1887(17) 0.157(3)
H3 H 1.188(3) 0.1990(16) 0.019(3)
H4 H 1.265(4) 0.124(2) 0.078(3)
C5 C 1.0979(2) 0.03760(13) 0.2433(2)
C6 C 0.7078(3) 0.11290(13) -0.0889(2)
C7 C 0.6944(3) 0.16251(15) -0.1787(2)
H5 H 0.773(2) 0.1861(12) -0.1876(19)
C8 C 0.5658(3) 0.17391(17) -0.2587(2)
H6 H 0.562(2) 0.2104(13) -0.320(2)
C9 C 0.4508(3) 0.13644(16) -0.2496(2)
H7 H 0.361(3) 0.1456(12) -0.304(2)
C10 C 0.4635(3) 0.08723(16) -0.1609(3)
H8 H 0.381(3) 0.0603(14) -0.154(2)
C11 C 0.5915(3) 0.07511(15) -0.0799(2)
H9 H 0.601(2) 0.0390(13) -0.021(2)
C12 C 1.2358(2) 0.06480(13) 0.31134(19)
C13 C 1.2487(3) 0.13398(15) 0.3609(2)
H10 H 1.164(3) 0.1620(12) 0.352(2)
C14 C 1.3780(3) 0.15998(18) 0.4219(3)
H11 H 1.386(2) 0.2070(14) 0.453(2)
C15 C 1.4936(3) 0.11829(18) 0.4320(3)
H12 H 1.584(3) 0.1361(13) 0.471(2)
C16 C 1.4813(3) 0.05006(19) 0.3827(3)
H13 H 1.562(3) 0.0201(14) 0.387(2)
C17 C 1.3531(3) 0.02292(17) 0.3237(2)
H14 H 1.344(3) -0.0220(14) 0.288(2)
C18 C 1.0776(2) -0.06183(15) 0.3837(2)
C19 C 1.0266(3) -0.13509(15) 0.3759(2)
C20 C 0.9615(3) -0.17036(17) 0.2711(3)
H15 H 0.953(2) -0.1447(12) 0.200(2)
C21 C 0.9129(4) -0.24033(19) 0.2673(3)
H16 H 0.863(3) -0.2629(17) 0.187(3)
C22 C 0.9267(4) -0.2786(2) 0.3703(4)
H17 H 0.899(3) -0.3296(19) 0.369(3)
C23 C 0.9916(4) -0.2475(2) 0.4730(4)
H18 H 1.010(3) -0.2718(14) 0.548(2)
C24 C 1.0448(3) -0.17544(17) 0.4804(3)
C25 C 1.1136(3) -0.1421(2) 0.5871(3)
H19 H 1.127(3) -0.1733(14) 0.663(2)
C26 C 1.1630(3) -0.0731(2) 0.5913(3)
H20 H 1.209(3) -0.0498(14) 0.664(2)
C27 C 1.1437(3) -0.03112(18) 0.4884(2)
H21 H 1.173(2) 0.0204(13) 0.496(2)
loop_
_geom_bond_atom_site_label_1
_geom_bond_atom_site_label_2
_geom_bond_site_symmetry_1
_geom_bond_site_symmetry_2
O1 C1 1_555 1_555
N1 N2 1_555 1_555
N2 C3 1_555 1_555
N3 H1 1_555 1_555
C1 N1 1_555 1_555
C2 C1 1_555 1_555
C3 C2 1_555 1_555
C4 C3 1_555 1_555
H2 C4 1_555 1_555
H3 C4 1_555 1_555
H4 C4 1_555 1_555
C5 N3 1_555 1_555
C6 N1 1_555 1_555
C7 C6 1_555 1_555
H5 C7 1_555 1_555
C8 C7 1_555 1_555
H6 C8 1_555 1_555
C9 C8 1_555 1_555
H7 C9 1_555 1_555
C10 C9 1_555 1_555
H8 C10 1_555 1_555
C11 C6 1_555 1_555
H9 C11 1_555 1_555
C12 C5 1_555 1_555
C13 C12 1_555 1_555
H10 C13 1_555 1_555
C14 C13 1_555 1_555
H11 C14 1_555 1_555
C15 C14 1_555 1_555
H12 C15 1_555 1_555
C16 C15 1_555 1_555
H13 C16 1_555 1_555
C17 C12 1_555 1_555
H14 C17 1_555 1_555
C18 N3 1_555 1_555
C19 C18 1_555 1_555
C20 C19 1_555 1_555
H15 C20 1_555 1_555
C21 C20 1_555 1_555
H16 C21 1_555 1_555
C22 C21 1_555 1_555
H17 C22 1_555 1_555
C23 C22 1_555 1_555
H18 C23 1_555 1_555
C24 C19 1_555 1_555
C25 C24 1_555 1_555
H19 C25 1_555 1_555
C26 C25 1_555 1_555
H20 C26 1_555 1_555
C27 C18 1_555 1_555
H21 C27 1_555 1_555
C2 C5 1_555 1_555
C10 C11 1_555 1_555
C16 C17 1_555 1_555
C23 C24 1_555 1_555
C26 C27 1_555 1_555

#END
