
#######################################################################
#
#                 Cambridge Crystallographic Data Centre
#                                CCDC 
#
#######################################################################
#
# If this CIF has been generated from an entry in the Cambridge 
# Structural Database, then it will include bibliographic, chemical, 
# crystal, experimental, refinement or atomic coordinate data resulting 
# from the CCDC's data processing and validation procedures.
#
#######################################################################

data_OJIZEN
_chemical_formula_moiety         'C45 H53 F3 Si2'
_chemical_name_systematic        
((2-(Trifluoromethyl)pentacene-6,13-diyl)diethyne-2,1-diyl)bis(tripropylsilane)
_symmetry_cell_setting           monoclinic
_symmetry_space_group_name_H-M   'P 21/c'
_symmetry_Int_Tables_number      14
_space_group_name_Hall           '-P 2ybc'
loop_
_symmetry_equiv_pos_site_id
_symmetry_equiv_pos_as_xyz
1 x,y,z
2 -x,1/2+y,1/2-z
3 -x,-y,-z
4 x,1/2-y,1/2+z
_cell_length_a                   13.6256(4)
_cell_length_b                   28.5329(7)
_cell_length_c                   10.5392(3)
_cell_angle_alpha                90
_cell_angle_beta                 101.9740(10)
_cell_angle_gamma                90
_cell_volume                     4008.26
_exptl_crystal_colour            blue
_exptl_crystal_description       lath
_cell_formula_units_Z            4
loop_
_atom_site_label
_atom_site_type_symbol
_atom_site_fract_x
_atom_site_fract_y
_atom_site_fract_z
Si1 Si 0.64782(9) 0.13032(4) 0.08660(10)
C1 C 0.4442(3) 0.22923(13) 0.2400(4)
C2 C 0.3763(3) 0.21288(14) 0.3149(3)
C3 C 0.3630(3) 0.16495(14) 0.3366(4)
H1 H 0.3999 0.1426 0.2986
C4 C 0.2971(3) 0.14925(14) 0.4123(4)
C5 C 0.2848(3) 0.10062(15) 0.4376(4)
H2 H 0.3221 0.0779 0.4015
C6 C 0.2205(3) 0.08651(15) 0.5129(4)
C7 C 0.1637(3) 0.11962(15) 0.5685(4)
H3 H 0.1190 0.1092 0.6207
C8 C 0.1734(3) 0.16605(15) 0.5471(4)
H4 H 0.1349 0.1879 0.5843
C9 C 0.2405(3) 0.18278(14) 0.4697(4)
C10 C 0.2526(3) 0.22996(14) 0.4482(4)
H5 H 0.2151 0.2520 0.4862
C11 C 0.3187(3) 0.24646(14) 0.3719(3)
C12 C 0.3300(3) 0.29487(14) 0.3500(4)
C13 C 0.3986(3) 0.31127(14) 0.2759(3)
C14 C 0.4120(3) 0.35902(14) 0.2543(4)
H6 H 0.3740 0.3812 0.2912
C15 C 0.4784(3) 0.37532(14) 0.1812(4)
C16 C 0.4923(3) 0.42407(15) 0.1602(4)
H7 H 0.4538 0.4464 0.1956
C17 C 0.5593(3) 0.43894(15) 0.0908(4)
H8 H 0.5686 0.4716 0.0797
C18 C 0.6160(3) 0.40596(15) 0.0343(4)
H9 H 0.6627 0.4169 -0.0145
C19 C 0.6043(3) 0.35916(15) 0.0492(4)
H10 H 0.6423 0.3377 0.0100
C20 C 0.5352(3) 0.34184(14) 0.1234(3)
C21 C 0.5222(3) 0.29450(14) 0.1430(3)
H11 H 0.5594 0.2726 0.1041
C22 C 0.4557(3) 0.27765(13) 0.2187(3)
C23 C 0.5049(3) 0.19625(14) 0.1872(4)
C24 C 0.5590(3) 0.16943(14) 0.1454(4)
C25 C 0.6944(4) 0.16276(15) -0.0427(4)
H12 H 0.7490 0.1442 -0.0671
H13 H 0.6391 0.1646 -0.1201
C26 C 0.7327(5) 0.21145(19) -0.0096(5)
H14 H 0.6790 0.2296 0.0184
H15 H 0.7897 0.2094 0.0658
C27 C 0.7667(4) 0.23854(17) -0.1142(5)
H16 H 0.8212 0.2216 -0.1418
H17 H 0.7906 0.2695 -0.0811
H18 H 0.7104 0.2423 -0.1883
C28 C 0.7540(3) 0.11911(17) 0.2280(4)
H19 H 0.7886 0.1492 0.2543
H20 H 0.7258 0.1078 0.3017
C29 C 0.8312(4) 0.0838(2) 0.2024(6)
H21 H 0.8579 0.0942 0.1266
H22 H 0.7980 0.0531 0.1807
C30 C 0.9187(4) 0.0777(3) 0.3192(7)
H23 H 0.9534 0.1077 0.3392
H24 H 0.9657 0.0543 0.2985
H25 H 0.8928 0.0671 0.3944
C31 C 0.5786(8) 0.0752(5) 0.0197(11)
H26 H 0.5611 0.0779 -0.0759
H27 H 0.6253 0.0484 0.0408
C32 C 0.4826(4) 0.06336(18) 0.0672(5)
H28 H 0.4359 0.0903 0.0503
H29 H 0.4494 0.0361 0.0181
C33 C 0.5048(6) 0.0521(3) 0.2119(6)
H30 H 0.5543 0.0267 0.2297
H31 H 0.4429 0.0422 0.2376
H32 H 0.5316 0.0800 0.2613
C34 C 0.2689(3) 0.32717(14) 0.4022(4)
C35 C 0.2121(4) 0.35234(16) 0.4449(4)
Si2 Si 0.1238(2) 0.38423(9) 0.5195(2)
C36 C 0.1834(7) 0.4374(3) 0.6003(9)
H33 H 0.1539 0.4425 0.6774
H34 H 0.2550 0.4296 0.6332
C37 C 0.1813(6) 0.4769(3) 0.5426(7)
H35 H 0.1111 0.4839 0.4996
H36 H 0.2211 0.4744 0.4743
C38 C 0.2225(7) 0.5180(3) 0.6341(9)
H37 H 0.1737 0.5262 0.6869
H38 H 0.2342 0.5452 0.5824
H39 H 0.2858 0.5085 0.6909
C39 C 0.0163(6) 0.3975(3) 0.3828(8)
H40 H -0.0385 0.4112 0.4194
H41 H 0.0381 0.4216 0.3271
C40 C -0.0253(6) 0.3568(3) 0.2992(8)
H42 H -0.0505 0.3333 0.3537
H43 H 0.0299 0.3421 0.2654
C41 C -0.1107(7) 0.3693(4) 0.1836(8)
H44 H -0.1669 0.3829 0.2159
H45 H -0.1332 0.3409 0.1338
H46 H -0.0864 0.3921 0.1278
C42 C 0.0791(7) 0.3478(3) 0.6443(8)
H47 H 0.1209 0.3571 0.7291
H48 H 0.0102 0.3587 0.6447
C43 C 0.0760(8) 0.3077(4) 0.6448(11)
H49 H 0.1466 0.2980 0.6767
H50 H 0.0597 0.2990 0.5519
C44 C 0.0106(8) 0.2708(3) 0.7142(9)
H51 H 0.0501 0.2614 0.7991
H52 H -0.0057 0.2429 0.6593
H53 H -0.0516 0.2859 0.7255
C45 C 0.2096(4) 0.03630(17) 0.5438(5)
F1 F 0.2680(3) 0.00773(10) 0.4925(4)
F2 F 0.2332(3) 0.02832(10) 0.6715(3)
F3 F 0.1156(2) 0.02111(10) 0.5045(4)
C46? C 0.591(5) 0.073(3) 0.033(7)
C47? C 0.5664(19) 0.0395(9) 0.137(3)
C48? C 0.470(2) 0.0526(14) 0.179(4)
C49? C 0.1350(15) 0.4307(5) 0.6023(17)
C50? C 0.1407(14) 0.4764(5) 0.6313(19)
C51? C 0.2054(17) 0.5165(7) 0.693(2)
C52? C 0.0155(15) 0.4096(6) 0.3334(15)
C53? C -0.0413(16) 0.3714(7) 0.2487(19)
C54? C -0.1060(16) 0.3913(8) 0.124(2)
C55? C 0.0210(15) 0.3357(6) 0.549(2)
C56? C 0.0178(19) 0.3004(6) 0.595(2)
C57? C 0.005(3) 0.2852(10) 0.742(2)
H54? H 0.5281 0.0787 -0.0312
H55? H 0.6371 0.0562 -0.0129
H56? H 0.5602 0.0071 0.1020
H57? H 0.6225 0.0399 0.2134
H58? H 0.4595 0.0313 0.2483
H59? H 0.4133 0.0500 0.1051
H60? H 0.4748 0.0849 0.2115
H61? H 0.1063 0.4191 0.6754
H62? H 0.2070 0.4225 0.6274
H63? H 0.0844 0.4791 0.6771
H64? H 0.1139 0.4898 0.5445
H65? H 0.1658 0.5454 0.6826
H66? H 0.2626 0.5201 0.6505
H67? H 0.2298 0.5100 0.7853
H68? H -0.0322 0.4323 0.3581
H69? H 0.0598 0.4266 0.2856
H70? H -0.0848 0.3544 0.2978
H71? H 0.0071 0.3486 0.2260
H72? H -0.1435 0.3658 0.0734
H73? H -0.0627 0.4064 0.0725
H74? H -0.1531 0.4143 0.1460
H75? H -0.0063 0.3551 0.6110
H76? H -0.0363 0.3320 0.4744
H77? H 0.0804 0.2846 0.5851
H78? H -0.0371 0.2838 0.5363
H79? H 0.0128 0.2512 0.7521
H80? H -0.0625 0.2941 0.7532
H81? H 0.0553 0.3011 0.8067
Si3? Si 0.0912(5) 0.3818(3) 0.4806(6)
loop_
_geom_bond_atom_site_label_1
_geom_bond_atom_site_label_2
_geom_bond_site_symmetry_1
_geom_bond_site_symmetry_2
Si1 C24 1_555 1_555
C1 C2 1_555 1_555
C2 C3 1_555 1_555
C3 H1 1_555 1_555
C4 C3 1_555 1_555
C5 C4 1_555 1_555
H2 C5 1_555 1_555
C6 C5 1_555 1_555
C7 C6 1_555 1_555
H3 C7 1_555 1_555
C8 C7 1_555 1_555
H4 C8 1_555 1_555
C9 C4 1_555 1_555
C10 C9 1_555 1_555
H5 C10 1_555 1_555
C11 C2 1_555 1_555
C12 C11 1_555 1_555
C13 C12 1_555 1_555
C14 C13 1_555 1_555
H6 C14 1_555 1_555
C15 C14 1_555 1_555
C16 C15 1_555 1_555
H7 C16 1_555 1_555
C17 C16 1_555 1_555
H8 C17 1_555 1_555
C18 C17 1_555 1_555
H9 C18 1_555 1_555
C19 C18 1_555 1_555
H10 C19 1_555 1_555
C20 C15 1_555 1_555
C21 C20 1_555 1_555
H11 C21 1_555 1_555
C22 C1 1_555 1_555
C23 C1 1_555 1_555
C24 C23 1_555 1_555
C25 Si1 1_555 1_555
H12 C25 1_555 1_555
H13 C25 1_555 1_555
C26 C25 1_555 1_555
H14 C26 1_555 1_555
H15 C26 1_555 1_555
C27 C26 1_555 1_555
H16 C27 1_555 1_555
H17 C27 1_555 1_555
H18 C27 1_555 1_555
C28 Si1 1_555 1_555
H19 C28 1_555 1_555
H20 C28 1_555 1_555
C29 C28 1_555 1_555
H21 C29 1_555 1_555
H22 C29 1_555 1_555
C30 C29 1_555 1_555
H23 C30 1_555 1_555
H24 C30 1_555 1_555
H25 C30 1_555 1_555
C31 Si1 1_555 1_555
H26 C31 1_555 1_555
H27 C31 1_555 1_555
C32 C31 1_555 1_555
H28 C32 1_555 1_555
H29 C32 1_555 1_555
C33 C32 1_555 1_555
H30 C33 1_555 1_555
H31 C33 1_555 1_555
H32 C33 1_555 1_555
C34 C12 1_555 1_555
C35 C34 1_555 1_555
Si2 C35 1_555 1_555
C36 Si2 1_555 1_555
H33 C36 1_555 1_555
H34 C36 1_555 1_555
C37 C36 1_555 1_555
H35 C37 1_555 1_555
H36 C37 1_555 1_555
C38 C37 1_555 1_555
H37 C38 1_555 1_555
H38 C38 1_555 1_555
H39 C38 1_555 1_555
C39 Si2 1_555 1_555
H40 C39 1_555 1_555
H41 C39 1_555 1_555
C40 C39 1_555 1_555
H42 C40 1_555 1_555
H43 C40 1_555 1_555
C41 C40 1_555 1_555
H44 C41 1_555 1_555
H45 C41 1_555 1_555
H46 C41 1_555 1_555
C42 Si2 1_555 1_555
H47 C42 1_555 1_555
H48 C42 1_555 1_555
C43 C42 1_555 1_555
H49 C43 1_555 1_555
H50 C43 1_555 1_555
C44 C43 1_555 1_555
H51 C44 1_555 1_555
H52 C44 1_555 1_555
H53 C44 1_555 1_555
C45 C6 1_555 1_555
F1 C45 1_555 1_555
F2 C45 1_555 1_555
F3 C45 1_555 1_555
C8 C9 1_555 1_555
C10 C11 1_555 1_555
C13 C22 1_555 1_555
C19 C20 1_555 1_555
C21 C22 1_555 1_555

#END
