
#######################################################################
#
#                 Cambridge Crystallographic Data Centre
#                                CCDC 
#
#######################################################################
#
# If this CIF has been generated from an entry in the Cambridge 
# Structural Database, then it will include bibliographic, chemical, 
# crystal, experimental, refinement or atomic coordinate data resulting 
# from the CCDC's data processing and validation procedures.
#
#######################################################################

data_OJOGEB
_chemical_formula_moiety         'C30 H28 N2 O8 S1'
_chemical_name_systematic        
'ethyl 2-acetoxy-9-((4-methylphenyl)sulfonyl)-4a-nitro-4-phenyl-4,4a,9,9a-tetrahydro-3H-carbazole-1-carboxylate'
_symmetry_cell_setting           monoclinic
_symmetry_space_group_name_H-M   'P 21'
_symmetry_Int_Tables_number      4
_space_group_name_Hall           'P 2yb'
loop_
_symmetry_equiv_pos_site_id
_symmetry_equiv_pos_as_xyz
1 x,y,z
2 -x,1/2+y,-z
_cell_length_a                   10.9714(9)
_cell_length_b                   16.4516(14)
_cell_length_c                   15.5080(13)
_cell_angle_alpha                90
_cell_angle_beta                 97.0830(10)
_cell_angle_gamma                90
_cell_volume                     2777.79
_exptl_crystal_colour            colorless
_exptl_crystal_description       block
_cell_formula_units_Z            4
loop_
_atom_site_label
_atom_site_type_symbol
_atom_site_fract_x
_atom_site_fract_y
_atom_site_fract_z
S1 S 0.45564(4) 0.31556(3) 0.24409(3)
O1 O 0.33109(13) 0.29104(10) 0.22025(11)
O2 O 0.43817(12) 0.07193(8) 0.52594(8)
O3 O 0.26712(14) 0.01002(9) 0.46166(9)
O4 O 0.26818(13) 0.19493(9) 0.45017(9)
O5 O 0.24023(11) 0.15529(8) 0.31004(8)
O6 O 0.78244(13) 0.11415(10) 0.22095(10)
O7 O 0.59263(13) 0.10434(8) 0.16243(8)
O8 O 0.48199(15) 0.39496(9) 0.27971(10)
N1 N 0.51318(14) 0.25116(9) 0.32185(10)
C1 C 0.7455(3) 0.2569(3) -0.05626(17)
H1 H 0.7019 0.2177 -0.0965
H2 H 0.8262 0.2349 -0.0336
H3 H 0.7563 0.3080 -0.0870
C2 C 0.5244(2) -0.15505(12) 0.18791(13)
H4 H 0.4974 -0.1987 0.1502
C3 C 0.4393(2) -0.10874(12) 0.22585(13)
H5 H 0.3542 -0.1205 0.2133
C4 C 0.47802(17) -0.04514(11) 0.28226(12)
H6 H 0.4194 -0.0142 0.3084
C5 C 0.60300(16) -0.02697(10) 0.30027(11)
C6 C 0.65317(15) 0.04285(10) 0.35849(11)
H7 H 0.7443 0.0353 0.3686
C7 C 0.63089(15) 0.12728(10) 0.31548(10)
C8 C 0.49803(15) 0.16038(10) 0.30944(10)
H8 H 0.4496 0.1469 0.2523
C9 C 0.53808(16) 0.30120(10) 0.15536(11)
C10 C 0.4861(2) 0.25522(12) 0.08546(13)
H9 H 0.4055 0.2339 0.0842
C11 C 0.5546(2) 0.24105(13) 0.01730(13)
H10 H 0.5203 0.2092 -0.0308
C12 C 0.6720(2) 0.27247(16) 0.01816(14)
C13 C 0.63520(16) 0.26401(10) 0.36423(11)
C14 C 0.70556(15) 0.19409(10) 0.36281(11)
C15 C 0.43324(15) 0.13261(10) 0.38498(11)
C16 C 0.48796(15) 0.08552(10) 0.44861(10)
C17 C 0.32204(17) 0.04023(11) 0.52486(12)
C18 C 0.2807(2) 0.04963(14) 0.61262(14)
H11 H 0.2523 0.1055 0.6196
H12 H 0.3493 0.0379 0.6575
H13 H 0.2132 0.0117 0.6183
C19 C 0.60914(16) 0.04450(10) 0.44867(11)
H14 H 0.6028 -0.0120 0.4697
H15 H 0.6710 0.0731 0.4897
C20 C 0.6490(2) -0.13754(12) 0.20521(13)
H16 H 0.7075 -0.1688 0.1793
C21 C 0.68709(18) -0.07357(11) 0.26102(12)
H17 H 0.7722 -0.0614 0.2726
C22 C 0.30622(15) 0.16500(10) 0.38746(11)
C23 C 0.11573(16) 0.18869(13) 0.30135(12)
H18 H 0.1179 0.2468 0.3182
H19 H 0.0649 0.1588 0.3394
C24 C 0.06305(18) 0.17951(13) 0.20811(13)
H20 H 0.1133 0.2101 0.1713
H21 H -0.0212 0.2005 0.2000
H22 H 0.0625 0.1219 0.1920
N2 N 0.67109(14) 0.11615(9) 0.22385(10)
C25 C 0.82591(17) 0.19204(12) 0.40375(12)
H23 H 0.8736 0.1438 0.4038
C26 C 0.87467(19) 0.26219(13) 0.44451(14)
H24 H 0.9570 0.2624 0.4719
C27 C 0.8033(2) 0.33214(12) 0.44528(14)
H25 H 0.8381 0.3796 0.4731
C28 C 0.68178(19) 0.33411(11) 0.40623(13)
H26 H 0.6328 0.3815 0.4082
C29 C 0.65532(18) 0.33381(13) 0.15836(13)
H27 H 0.6893 0.3656 0.2065
C30 C 0.7218(2) 0.31877(19) 0.08920(14)
H28 H 0.8023 0.3404 0.0904
S2 S -0.08597(4) 0.68715(3) 0.08675(3)
O9 O -0.13869(13) 0.48568(9) 0.23280(10)
O10 O -0.02100(13) 0.38044(8) 0.23148(10)
O11 O 0.32289(11) 0.67004(7) 0.35882(8)
O12 O 0.46899(14) 0.67009(9) 0.26879(10)
O13 O 0.16708(12) 0.79126(8) 0.28301(9)
O14 O 0.00549(13) 0.73808(9) 0.34169(9)
O15 O -0.09896(13) 0.74321(8) 0.15581(10)
O16 O -0.05881(14) 0.71595(8) 0.00404(9)
N3 N 0.03050(13) 0.62714(9) 0.12474(9)
N4 N -0.03897(14) 0.45358(9) 0.22835(10)
C31 C -0.5447(2) 0.48112(14) 0.02457(16)
H29 H -0.5762 0.4695 0.0797
H30 H -0.5271 0.4299 -0.0038
H31 H -0.6064 0.5118 -0.0133
C32 C -0.42882(18) 0.53044(12) 0.04162(14)
C33 C -0.40046(18) 0.57245(13) 0.11944(13)
H32 H -0.4531 0.5677 0.1634
C34 C -0.29644(18) 0.62124(13) 0.13396(13)
H33 H -0.2787 0.6503 0.1870
C35 C -0.21862(16) 0.62698(11) 0.06974(12)
C36 C 0.04056(15) 0.59917(10) 0.21755(11)
H34 H -0.0408 0.6054 0.2396
C37 C 0.07394(15) 0.50710(10) 0.21450(11)
C38 C 0.18136(15) 0.47776(10) 0.28130(11)
H35 H 0.2097 0.4248 0.2593
C39 C 0.15003(16) 0.46219(10) 0.37259(11)
C40 C 0.06976(17) 0.51055(11) 0.41431(12)
H36 H 0.0324 0.5570 0.3858
C41 C 0.04479(18) 0.49040(13) 0.49787(13)
H37 H -0.0102 0.5231 0.5257
C42 C 0.09945(19) 0.42316(14) 0.54062(12)
H38 H 0.0819 0.4099 0.5974
C43 C 0.07043(15) 0.56341(10) 0.07281(11)
C44 C 0.09643(15) 0.49325(10) 0.12163(11)
C45 C 0.13548(15) 0.65028(10) 0.27224(11)
C46 C 0.24755(15) 0.62226(10) 0.29983(11)
C47 C 0.43350(16) 0.69390(11) 0.33418(12)
C48 C 0.49703(19) 0.75253(12) 0.39878(13)
H39 H 0.5379 0.7225 0.4487
H40 H 0.4365 0.7899 0.4183
H41 H 0.5582 0.7836 0.3715
C49 C 0.28956(15) 0.53800(10) 0.28117(11)
H42 H 0.3575 0.5217 0.3259
H43 H 0.3205 0.5369 0.2238
C50 C 0.1800(2) 0.37517(12) 0.50023(13)
H44 H 0.2181 0.3293 0.5294
C51 C 0.20437(17) 0.39477(11) 0.41675(12)
H45 H 0.2591 0.3616 0.3892
C52 C 0.09362(16) 0.73078(10) 0.30266(11)
C53 C 0.1412(2) 0.87176(11) 0.31579(14)
H46 H 0.2191 0.9017 0.3315
H47 H 0.0995 0.8665 0.3686
C54 C 0.0601(2) 0.91818(14) 0.24689(17)
H48 H 0.1021 0.9239 0.1950
H49 H 0.0428 0.9722 0.2691
H50 H -0.0171 0.8886 0.2319
C55 C 0.13603(17) 0.42270(11) 0.08403(12)
H51 H 0.1530 0.3748 0.1176
C56 C 0.15007(18) 0.42420(12) -0.00417(12)
H52 H 0.1748 0.3764 -0.0318
C57 C 0.12795(18) 0.49555(12) -0.05186(12)
H53 H 0.1400 0.4960 -0.1115
C58 C 0.08868(17) 0.56632(11) -0.01445(12)
H54 H 0.0748 0.6149 -0.0473
C59 C -0.24434(18) 0.58469(12) -0.00872(13)
H55 H -0.1908 0.5887 -0.0522
C60 C -0.34927(18) 0.53684(13) -0.02205(13)
H56 H -0.3673 0.5080 -0.0752
loop_
_geom_bond_atom_site_label_1
_geom_bond_atom_site_label_2
_geom_bond_site_symmetry_1
_geom_bond_site_symmetry_2
S1 O1 1_555 1_555
O2 C16 1_555 1_555
O3 C17 1_555 1_555
O4 C22 1_555 1_555
O5 C22 1_555 1_555
O6 N2 1_555 1_555
O7 N2 1_555 1_555
O8 S1 1_555 1_555
N1 S1 1_555 1_555
C1 H1 1_555 1_555
H2 C1 1_555 1_555
H3 C1 1_555 1_555
C2 H4 1_555 1_555
C3 C2 1_555 1_555
H5 C3 1_555 1_555
C4 C3 1_555 1_555
H6 C4 1_555 1_555
C5 C4 1_555 1_555
C6 C5 1_555 1_555
H7 C6 1_555 1_555
C7 C6 1_555 1_555
C8 N1 1_555 1_555
H8 C8 1_555 1_555
C9 S1 1_555 1_555
C10 C9 1_555 1_555
H9 C10 1_555 1_555
C11 C10 1_555 1_555
H10 C11 1_555 1_555
C12 C1 1_555 1_555
C13 N1 1_555 1_555
C14 C7 1_555 1_555
C15 C8 1_555 1_555
C16 C15 1_555 1_555
C17 O2 1_555 1_555
C18 C17 1_555 1_555
H11 C18 1_555 1_555
H12 C18 1_555 1_555
H13 C18 1_555 1_555
C19 C6 1_555 1_555
H14 C19 1_555 1_555
H15 C19 1_555 1_555
C20 C2 1_555 1_555
H16 C20 1_555 1_555
C21 C5 1_555 1_555
H17 C21 1_555 1_555
C22 C15 1_555 1_555
C23 O5 1_555 1_555
H18 C23 1_555 1_555
H19 C23 1_555 1_555
C24 C23 1_555 1_555
H20 C24 1_555 1_555
H21 C24 1_555 1_555
H22 C24 1_555 1_555
N2 C7 1_555 1_555
C25 C14 1_555 1_555
H23 C25 1_555 1_555
C26 C25 1_555 1_555
H24 C26 1_555 1_555
C27 C26 1_555 1_555
H25 C27 1_555 1_555
C28 C13 1_555 1_555
H26 C28 1_555 1_555
C29 C9 1_555 1_555
H27 C29 1_555 1_555
C30 C12 1_555 1_555
H28 C30 1_555 1_555
S2 O15 1_555 1_555
O9 N4 1_555 1_555
O10 N4 1_555 1_555
O11 C46 1_555 1_555
O12 C47 1_555 1_555
O13 C52 1_555 1_555
O14 C52 1_555 1_555
O16 S2 1_555 1_555
N3 S2 1_555 1_555
N4 C37 1_555 1_555
C31 H29 1_555 1_555
H30 C31 1_555 1_555
H31 C31 1_555 1_555
C32 C31 1_555 1_555
C33 C32 1_555 1_555
H32 C33 1_555 1_555
C34 C33 1_555 1_555
H33 C34 1_555 1_555
C35 S2 1_555 1_555
C36 N3 1_555 1_555
H34 C36 1_555 1_555
C37 C36 1_555 1_555
C38 C37 1_555 1_555
H35 C38 1_555 1_555
C39 C38 1_555 1_555
C40 C39 1_555 1_555
H36 C40 1_555 1_555
C41 C40 1_555 1_555
H37 C41 1_555 1_555
C42 C41 1_555 1_555
H38 C42 1_555 1_555
C43 N3 1_555 1_555
C44 C37 1_555 1_555
C45 C36 1_555 1_555
C46 C45 1_555 1_555
C47 O11 1_555 1_555
C48 C47 1_555 1_555
H39 C48 1_555 1_555
H40 C48 1_555 1_555
H41 C48 1_555 1_555
C49 C38 1_555 1_555
H42 C49 1_555 1_555
H43 C49 1_555 1_555
C50 C42 1_555 1_555
H44 C50 1_555 1_555
C51 C39 1_555 1_555
H45 C51 1_555 1_555
C52 C45 1_555 1_555
C53 O13 1_555 1_555
H46 C53 1_555 1_555
H47 C53 1_555 1_555
C54 C53 1_555 1_555
H48 C54 1_555 1_555
H49 C54 1_555 1_555
H50 C54 1_555 1_555
C55 C44 1_555 1_555
H51 C55 1_555 1_555
C56 C55 1_555 1_555
H52 C56 1_555 1_555
C57 C56 1_555 1_555
H53 C57 1_555 1_555
C58 C43 1_555 1_555
H54 C58 1_555 1_555
C59 C35 1_555 1_555
H55 C59 1_555 1_555
C60 C32 1_555 1_555
H56 C60 1_555 1_555
C7 C8 1_555 1_555
C11 C12 1_555 1_555
C13 C14 1_555 1_555
C16 C19 1_555 1_555
C20 C21 1_555 1_555
C27 C28 1_555 1_555
C29 C30 1_555 1_555
C34 C35 1_555 1_555
C43 C44 1_555 1_555
C46 C49 1_555 1_555
C50 C51 1_555 1_555
C57 C58 1_555 1_555
C59 C60 1_555 1_555

#END
