
#######################################################################
#
#                 Cambridge Crystallographic Data Centre
#                                CCDC 
#
#######################################################################
#
# If this CIF has been generated from an entry in the Cambridge 
# Structural Database, then it will include bibliographic, chemical, 
# crystal, experimental, refinement or atomic coordinate data resulting 
# from the CCDC's data processing and validation procedures.
#
#######################################################################

data_OJOLAC
_chemical_formula_moiety         'C6 H10 N2 O5'
_chemical_name_systematic        2,2-dimethyl-5-nitro-5-nitroso-1,3-dioxane
_symmetry_cell_setting           monoclinic
_symmetry_space_group_name_H-M   'C 2/c'
_symmetry_Int_Tables_number      15
_space_group_name_Hall           '-C 2yn'
loop_
_symmetry_equiv_pos_site_id
_symmetry_equiv_pos_as_xyz
1 x,y,z
2 -x,y,1/2-z
3 1/2+x,1/2+y,z
4 1/2-x,1/2+y,1/2-z
5 -x,-y,-z
6 x,-y,1/2+z
7 1/2-x,1/2-y,-z
8 1/2+x,1/2-y,1/2+z
_cell_length_a                   14.515(3)
_cell_length_b                   9.955(2)
_cell_length_c                   11.897(2)
_cell_angle_alpha                90
_cell_angle_beta                 98.600(3)
_cell_angle_gamma                90
_cell_volume                     1699.75
_exptl_crystal_colour            blue
_exptl_crystal_description       block
_cell_formula_units_Z            8
loop_
_atom_site_label
_atom_site_type_symbol
_atom_site_fract_x
_atom_site_fract_y
_atom_site_fract_z
C1 C 0.20210(9) 0.93053(14) -0.01715(11)
H1 H 0.1931 0.8739 -0.0842
H2 H 0.2130 1.0219 -0.0401
C2 C 0.11673(9) 0.92429(13) 0.04441(11)
C3 C 0.30654(10) 0.97908(15) 0.15064(12)
C4 C 0.14470(10) 0.97622(17) 0.16638(12)
H3 H 0.0949 1.0307 0.1883
H4 H 0.1555 0.9011 0.2186
C5 C 0.34693(12) 0.89692(18) 0.25239(14)
H5 H 0.3009 0.8347 0.2708
H6 H 0.3654 0.9554 0.3160
H7 H 0.4003 0.8483 0.2353
C6 C 0.37348(13) 1.07877(19) 0.11403(16)
H8 H 0.3440 1.1259 0.0479
H9 H 0.4276 1.0326 0.0964
H10 H 0.3917 1.1417 0.1744
N1 N 0.03993(7) 1.00096(11) -0.02004(9)
N2 N 0.08253(8) 0.77861(12) 0.03963(11)
O1 O 0.04905(7) 1.06707(11) -0.10768(8)
O2 O 0.27767(6) 0.88413(9) 0.06136(8)
O3 O 0.22641(7) 1.05344(10) 0.17141(9)
O4 O 0.03184(7) 0.74522(11) -0.04599(10)
O5 O 0.11161(9) 0.70616(12) 0.11791(11)
loop_
_geom_bond_atom_site_label_1
_geom_bond_atom_site_label_2
_geom_bond_site_symmetry_1
_geom_bond_site_symmetry_2
C1 H1 1_555 1_555
H2 C1 1_555 1_555
C2 C1 1_555 1_555
C3 C5 1_555 1_555
C4 C2 1_555 1_555
H3 C4 1_555 1_555
H4 C4 1_555 1_555
C5 H5 1_555 1_555
H6 C5 1_555 1_555
H7 C5 1_555 1_555
C6 C3 1_555 1_555
H8 C6 1_555 1_555
H9 C6 1_555 1_555
H10 C6 1_555 1_555
N1 C2 1_555 1_555
N2 C2 1_555 1_555
O1 N1 1_555 1_555
O2 C1 1_555 1_555
O3 C3 1_555 1_555
O4 N2 1_555 1_555
O5 N2 1_555 1_555
C3 O2 1_555 1_555
C4 O3 1_555 1_555

#END
