
#######################################################################
#
#                 Cambridge Crystallographic Data Centre
#                                CCDC 
#
#######################################################################
#
# If this CIF has been generated from an entry in the Cambridge 
# Structural Database, then it will include bibliographic, chemical, 
# crystal, experimental, refinement or atomic coordinate data resulting 
# from the CCDC's data processing and validation procedures.
#
#######################################################################

data_OJOMOP
_chemical_formula_moiety         'C13 H24 B1 N1 O2 S1'
_chemical_name_systematic        
'1-(L-Cysteine methyl ester-N)-1-boraadamantane'
_chemical_properties_biological  
'non-astrocyte selective antiproliferative effect'
_symmetry_cell_setting           orthorhombic
_symmetry_space_group_name_H-M   'P 21 21 21'
_symmetry_Int_Tables_number      19
_space_group_name_Hall           'P 2ac 2ab'
loop_
_symmetry_equiv_pos_site_id
_symmetry_equiv_pos_as_xyz
1 x,y,z
2 1/2-x,-y,1/2+z
3 -x,1/2+y,1/2-z
4 1/2+x,1/2-y,-z
_cell_length_a                   8.053(2)
_cell_length_b                   13.203(4)
_cell_length_c                   13.846(4)
_cell_angle_alpha                90
_cell_angle_beta                 90
_cell_angle_gamma                90
_cell_volume                     1472.16
_exptl_crystal_colour            colorless
_exptl_crystal_description       cube
_chemical_melting_point          '109-111 deg.C'
_cell_formula_units_Z            4
loop_
_atom_site_label
_atom_site_type_symbol
_atom_site_fract_x
_atom_site_fract_y
_atom_site_fract_z
S1 S 0.09066(7) 0.05865(5) 0.90012(6)
O1 O -0.43372(19) 0.18322(11) 1.04222(11)
O2 O -0.42558(19) 0.01421(10) 1.02765(10)
N1 N -0.2378(2) 0.20701(13) 0.88364(14)
B1 B -0.3576(3) 0.22602(16) 0.78911(16)
C1 C -0.3529(3) 0.34580(15) 0.76424(16)
C2 C -0.2845(3) 0.16390(17) 0.69826(17)
C3 C -0.5466(3) 0.19209(17) 0.81049(15)
C4 C -0.4624(3) 0.36268(16) 0.67463(16)
C5 C -0.3944(4) 0.30185(18) 0.58994(16)
C6 C -0.3966(4) 0.18825(17) 0.61133(17)
C7 C -0.5728(4) 0.1554(2) 0.63251(18)
C8 C -0.6464(3) 0.21462(18) 0.71763(18)
C9 C -0.6408(3) 0.32865(19) 0.6958(2)
C10 C -0.2455(2) 0.10608(15) 0.92971(15)
C11 C -0.0836(2) 0.07738(16) 0.98061(16)
C12 C -0.3812(2) 0.10741(15) 1.00511(14)
C13 C -0.5480(3) 0.0043(2) 1.1039(2)
H1 H -0.264(3) 0.2542(17) 0.9330(16)
H2 H -0.136(3) 0.2207(17) 0.8685(16)
H3 H 0.145(3) 0.140(2) 0.897(2)
H4 H -0.397(3) 0.3871(17) 0.8199(16)
H5 H -0.235(3) 0.3699(16) 0.7508(16)
H6 H -0.287(3) 0.093(2) 0.7093(19)
H7 H -0.164(4) 0.184(2) 0.684(2)
H8 H -0.558(3) 0.1145(19) 0.8260(17)
H9 H -0.594(3) 0.2301(18) 0.8620(17)
H10 H -0.465(3) 0.4376(18) 0.6539(16)
H11 H -0.461(3) 0.318(2) 0.5293(18)
H12 H -0.272(4) 0.324(2) 0.5758(18)
H13 H -0.360(3) 0.152(2) 0.553(2)
H14 H -0.579(4) 0.082(2) 0.652(2)
H15 H -0.639(3) 0.164(2) 0.574(2)
H16 H -0.765(3) 0.195(2) 0.7271(18)
H17 H -0.713(3) 0.345(2) 0.6479(18)
H18 H -0.691(3) 0.371(2) 0.752(2)
H19 H -0.268(2) 0.0604(14) 0.8828(15)
H20 H -0.054(3) 0.1297(17) 1.0308(16)
H21 H -0.098(3) 0.0143(19) 1.0152(18)
H22 H -0.556(4) -0.072(2) 1.120(2)
H23 H -0.644(4) 0.028(2) 1.078(2)
H24 H -0.507(3) 0.042(2) 1.164(2)
loop_
_geom_bond_atom_site_label_1
_geom_bond_atom_site_label_2
_geom_bond_site_symmetry_1
_geom_bond_site_symmetry_2
S1 C11 1_555 1_555
O1 C12 1_555 1_555
O2 C12 1_555 1_555
N1 B1 1_555 1_555
B1 C1 1_555 1_555
C1 C4 1_555 1_555
C2 B1 1_555 1_555
C3 B1 1_555 1_555
C4 C5 1_555 1_555
C5 C6 1_555 1_555
C6 C2 1_555 1_555
C7 C6 1_555 1_555
C8 C3 1_555 1_555
C9 C4 1_555 1_555
C10 N1 1_555 1_555
C11 C10 1_555 1_555
C12 C10 1_555 1_555
C13 O2 1_555 1_555
H1 N1 1_555 1_555
H2 N1 1_555 1_555
H3 S1 1_555 1_555
H4 C1 1_555 1_555
H5 C1 1_555 1_555
H6 C2 1_555 1_555
H7 C2 1_555 1_555
H8 C3 1_555 1_555
H9 C3 1_555 1_555
H10 C4 1_555 1_555
H11 C5 1_555 1_555
H12 C5 1_555 1_555
H13 C6 1_555 1_555
H14 C7 1_555 1_555
H15 C7 1_555 1_555
H16 C8 1_555 1_555
H17 C9 1_555 1_555
H18 C9 1_555 1_555
H19 C10 1_555 1_555
H20 C11 1_555 1_555
H21 C11 1_555 1_555
H22 C13 1_555 1_555
H23 C13 1_555 1_555
H24 C13 1_555 1_555
C7 C8 1_555 1_555
C8 C9 1_555 1_555

#END
