
#######################################################################
#
#                 Cambridge Crystallographic Data Centre
#                                CCDC 
#
#######################################################################
#
# If this CIF has been generated from an entry in the Cambridge 
# Structural Database, then it will include bibliographic, chemical, 
# crystal, experimental, refinement or atomic coordinate data resulting 
# from the CCDC's data processing and validation procedures.
#
#######################################################################

data_OJOPOT
_chemical_formula_moiety         'C15 H21 N1 O4'
_chemical_name_systematic        'Methyl N-(1-(benzyloxy)but-3-en-2-yl)serinate'
_symmetry_cell_setting           monoclinic
_symmetry_space_group_name_H-M   'P 21'
_symmetry_Int_Tables_number      4
_space_group_name_Hall           'P 2yb'
loop_
_symmetry_equiv_pos_site_id
_symmetry_equiv_pos_as_xyz
1 x,y,z
2 -x,1/2+y,-z
_cell_length_a                   9.3324(11)
_cell_length_b                   7.5462(9)
_cell_length_c                   11.2797(13)
_cell_angle_alpha                90
_cell_angle_beta                 95.896(6)
_cell_angle_gamma                90
_cell_volume                     790.161
_exptl_crystal_colour            colorless
_cell_formula_units_Z            2
loop_
_atom_site_label
_atom_site_type_symbol
_atom_site_fract_x
_atom_site_fract_y
_atom_site_fract_z
C1 C 0.24903(17) 0.9539(2) 0.35123(14)
H1 H 0.2527 0.8220 0.3433
C2 C 0.26819(18) 1.0400(3) 0.22946(15)
H2 H 0.1953 0.9930 0.1675
H3 H 0.2555 1.1700 0.2342
O1 O 0.41104(13) 0.99924(18) 0.19947(10)
C3 C 0.4411(2) 1.0803(3) 0.08895(15)
H4 H 0.4328 1.2107 0.0953
H5 H 0.3696 1.0396 0.0237
C4 C 0.59253(19) 1.0318(2) 0.06010(15)
C5 C 0.6401(2) 1.0941(3) -0.04805(16)
H6 H 0.5783 1.1661 -0.1001
C6 C 0.7779(2) 1.0500(3) -0.07854(17)
H7 H 0.8092 1.0935 -0.1506
C7 C 0.8700(2) 0.9415(3) -0.00272(17)
H8 H 0.9626 0.9102 -0.0239
C8 C 0.8231(2) 0.8802(3) 0.10461(17)
H9 H 0.8848 0.8076 0.1563
C9 C 0.68568(19) 0.9254(3) 0.13599(15)
H10 H 0.6556 0.8838 0.2090
C10 C 0.10423(18) 1.0077(3) 0.39168(15)
H11 H 0.0878 1.1302 0.4043
C11 C -0.0012(2) 0.8942(4) 0.41058(18)
H12 H 0.0116 0.7708 0.3988
H13 H -0.0889 0.9370 0.4358
N1 N 0.37043(14) 1.0143(2) 0.43983(12)
H14 H 0.458(2) 1.002(3) 0.4097(17)
C12 C 0.38631(17) 0.9050(2) 0.54976(14)
H15 H 0.3737 0.7767 0.5289
C13 C 0.27831(17) 0.9599(2) 0.63737(14)
O2 O 0.24856(15) 1.11282(17) 0.66042(12)
O3 O 0.22691(16) 0.81534(19) 0.69139(12)
C14 C 0.1298(3) 0.8545(3) 0.78243(19)
H16 H 0.1800 0.9288 0.8448
H17 H 0.1000 0.7434 0.8176
H18 H 0.0447 0.9173 0.7457
C15 C 0.53966(17) 0.9374(3) 0.61537(15)
H19 H 0.5473 1.0619 0.6428
H20 H 0.5536 0.8600 0.6865
O4 O 0.65067(13) 0.9019(2) 0.53957(13)
H21 H 0.654(3) 0.786(4) 0.529(2)
loop_
_geom_bond_atom_site_label_1
_geom_bond_atom_site_label_2
_geom_bond_site_symmetry_1
_geom_bond_site_symmetry_2
C1 H1 1_555 1_555
C2 C1 1_555 1_555
H2 C2 1_555 1_555
H3 C2 1_555 1_555
O1 C2 1_555 1_555
C3 O1 1_555 1_555
H4 C3 1_555 1_555
H5 C3 1_555 1_555
C4 C3 1_555 1_555
C5 C4 1_555 1_555
H6 C5 1_555 1_555
C6 C5 1_555 1_555
H7 C6 1_555 1_555
C7 C6 1_555 1_555
H8 C7 1_555 1_555
C8 C7 1_555 1_555
H9 C8 1_555 1_555
C9 C4 1_555 1_555
H10 C9 1_555 1_555
C10 C1 1_555 1_555
H11 C10 1_555 1_555
C11 C10 1_555 1_555
H12 C11 1_555 1_555
H13 C11 1_555 1_555
N1 C1 1_555 1_555
H14 N1 1_555 1_555
C12 N1 1_555 1_555
H15 C12 1_555 1_555
C13 C12 1_555 1_555
O2 C13 1_555 1_555
O3 C13 1_555 1_555
C14 O3 1_555 1_555
H16 C14 1_555 1_555
H17 C14 1_555 1_555
H18 C14 1_555 1_555
C15 C12 1_555 1_555
H19 C15 1_555 1_555
H20 C15 1_555 1_555
O4 C15 1_555 1_555
H21 O4 1_555 1_555
C8 C9 1_555 1_555

#END
