
#######################################################################
#
#                 Cambridge Crystallographic Data Centre
#                                CCDC 
#
#######################################################################
#
# If this CIF has been generated from an entry in the Cambridge 
# Structural Database, then it will include bibliographic, chemical, 
# crystal, experimental, refinement or atomic coordinate data resulting 
# from the CCDC's data processing and validation procedures.
#
#######################################################################

data_OJOQUA
_chemical_formula_moiety         'C41 H32 N2 O7,C1 H1 Cl3'
_chemical_name_systematic        
"Dimethyl 7-methyl-6-(4-nitrophenyl)-1,12-diphenyl-7,12-dihydro-3H-[1]benzofuro[3',4':4,5,6]cyclohepta[1,2-b]indole-4,4(5H)-dicarboxylate chloroform solvate"
_symmetry_cell_setting           monoclinic
_symmetry_space_group_name_H-M   'P 21/c'
_symmetry_Int_Tables_number      14
_space_group_name_Hall           '-P 2ybc'
loop_
_symmetry_equiv_pos_site_id
_symmetry_equiv_pos_as_xyz
1 x,y,z
2 -x,1/2+y,1/2-z
3 -x,-y,-z
4 x,1/2-y,1/2+z
_cell_length_a                   19.4781(9)
_cell_length_b                   9.3269(4)
_cell_length_c                   21.0827(10)
_cell_angle_alpha                90
_cell_angle_beta                 108.300(2)
_cell_angle_gamma                90
_cell_volume                     3636.39
_exptl_crystal_colour            yellow
_exptl_crystal_description       block
_cell_formula_units_Z            4
loop_
_atom_site_label
_atom_site_type_symbol
_atom_site_fract_x
_atom_site_fract_y
_atom_site_fract_z
O1 O 0.41302(13) 0.0426(2) 0.56064(12)
O2 O 0.35384(12) 0.2192(2) 0.59236(11)
O3 O 0.44857(12) 0.5184(2) 0.54319(11)
O4 O 0.50789(11) 0.3359(2) 0.60424(11)
O5 O 0.07970(14) 0.6962(3) 0.56208(13)
O6 O -0.00024(14) 0.7006(3) 0.46528(13)
O7 O 0.42456(10) 0.0830(2) 0.36071(10)
N1 N 0.05585(15) 0.6553(3) 0.50457(15)
N2 N 0.11336(12) 0.0613(3) 0.37755(12)
C1 C 0.19294(15) 0.3783(3) 0.50468(15)
H1 H 0.2323 0.3306 0.5360
C2 C 0.15485(16) 0.4816(3) 0.52683(15)
H2 H 0.1688 0.5080 0.5726
C3 C 0.09628(15) 0.5454(3) 0.48101(15)
C4 C 0.07401(16) 0.5097(3) 0.41441(15)
H3 H 0.0323 0.5526 0.3841
C5 C 0.11414(15) 0.4093(3) 0.39280(15)
H4 H 0.1003 0.3850 0.3467
C6 C 0.17439(15) 0.3431(3) 0.43716(14)
C7 C 0.24091(19) 0.3867(3) 0.25615(16)
H5 H 0.2764 0.3884 0.2990
C8 C 0.2217(2) 0.5134(4) 0.22034(18)
H6 H 0.2439 0.6011 0.2388
C9 C 0.17017(19) 0.5121(4) 0.15793(19)
H7 H 0.1571 0.5987 0.1333
C10 C 0.13823(18) 0.3858(4) 0.13186(18)
H8 H 0.1030 0.3844 0.0889
C11 C 0.15695(16) 0.2593(4) 0.16773(15)
H9 H 0.1338 0.1723 0.1493
C12 C 0.20913(15) 0.2583(3) 0.23020(15)
C13 C 0.33630(17) -0.0220(4) 0.18586(16)
H10 H 0.2967 0.0428 0.1732
C14 C 0.34921(19) -0.1110(4) 0.13859(17)
H11 H 0.3181 -0.1075 0.0938
C15 C 0.4069(2) -0.2052(4) 0.15570(18)
H12 H 0.4144 -0.2693 0.1235
C16 C 0.4531(2) -0.2046(4) 0.21988(18)
H13 H 0.4943 -0.2656 0.2316
C17 C 0.44057(17) -0.1160(4) 0.26788(16)
H14 H 0.4733 -0.1166 0.3121
C18 C 0.38082(15) -0.0266(3) 0.25200(15)
C19 C 0.08337(15) -0.0385(3) 0.32803(15)
C20 C 0.02724(16) -0.1354(3) 0.32188(17)
H15 H 0.0016 -0.1375 0.3535
C21 C 0.01023(17) -0.2279(4) 0.26847(17)
H16 H -0.0275 -0.2958 0.2633
C22 C 0.04748(17) -0.2239(4) 0.22158(16)
H17 H 0.0349 -0.2897 0.1854
C23 C 0.10193(16) -0.1264(3) 0.22693(15)
H18 H 0.1260 -0.1230 0.1942
C24 C 0.12130(15) -0.0324(3) 0.28120(14)
C25 C 0.17567(15) 0.0754(3) 0.30378(14)
C26 C 0.17031(14) 0.1308(3) 0.36287(14)
C27 C 0.21527(15) 0.2385(3) 0.40876(14)
C28 C 0.28721(15) 0.2488(3) 0.41868(14)
C29 C 0.32629(15) 0.1686(3) 0.38148(14)
C30 C 0.30433(15) 0.1098(3) 0.31498(14)
C31 C 0.22841(15) 0.1152(3) 0.26778(14)
H19 H 0.2247 0.0394 0.2333
C32 C 0.40825(15) 0.2778(3) 0.51035(14)
C33 C 0.33802(15) 0.3516(3) 0.46681(14)
H20 H 0.3128 0.3944 0.4963
H21 H 0.3508 0.4304 0.4411
C34 C 0.39930(15) 0.1525(3) 0.40549(14)
C35 C 0.45105(15) 0.2077(3) 0.46776(14)
H22 H 0.4833 0.2794 0.4572
H23 H 0.4812 0.1283 0.4930
C36 C 0.36517(15) 0.0575(3) 0.30452(14)
C37 C 0.39244(15) 0.1640(3) 0.55614(15)
C38 C 0.3395(2) 0.1240(4) 0.64087(19)
H24 H 0.3111 0.1747 0.6648
H25 H 0.3854 0.0922 0.6727
H26 H 0.3123 0.0405 0.6179
C39 C 0.45604(15) 0.3930(3) 0.55399(15)
C40 C 0.55740(18) 0.4355(4) 0.64800(17)
H27 H 0.5933 0.3823 0.6833
H28 H 0.5305 0.5003 0.6682
H29 H 0.5820 0.4914 0.6223
C41 C 0.09318(17) 0.0718(4) 0.43861(15)
H30 H 0.0508 0.0116 0.4344
H31 H 0.0817 0.1717 0.4456
H32 H 0.1336 0.0393 0.4768
C42 C 0.26832(18) 0.8158(4) 0.42245(18)
H33 H 0.2546 0.9053 0.3952
Cl1 Cl 0.24279(7) 0.83601(15) 0.49446(6)
Cl2 Cl 0.22166(6) 0.67231(12) 0.37463(6)
Cl3 Cl 0.36076(5) 0.79125(12) 0.44100(7)
loop_
_geom_bond_atom_site_label_1
_geom_bond_atom_site_label_2
_geom_bond_site_symmetry_1
_geom_bond_site_symmetry_2
O1 C37 1_555 1_555
O2 C37 1_555 1_555
O3 C39 1_555 1_555
O4 C39 1_555 1_555
O5 N1 1_555 1_555
O6 N1 1_555 1_555
O7 C34 1_555 1_555
N1 C3 1_555 1_555
N2 C19 1_555 1_555
C1 H1 1_555 1_555
C2 C1 1_555 1_555
H2 C2 1_555 1_555
C3 C2 1_555 1_555
C4 C3 1_555 1_555
H3 C4 1_555 1_555
C5 C4 1_555 1_555
H4 C5 1_555 1_555
C6 C1 1_555 1_555
C7 H5 1_555 1_555
C8 C7 1_555 1_555
H6 C8 1_555 1_555
C9 C8 1_555 1_555
H7 C9 1_555 1_555
C10 C9 1_555 1_555
H8 C10 1_555 1_555
C11 C10 1_555 1_555
H9 C11 1_555 1_555
C12 C7 1_555 1_555
C13 H10 1_555 1_555
C14 C13 1_555 1_555
H11 C14 1_555 1_555
C15 C14 1_555 1_555
H12 C15 1_555 1_555
C16 C15 1_555 1_555
H13 C16 1_555 1_555
C17 C16 1_555 1_555
H14 C17 1_555 1_555
C18 C13 1_555 1_555
C19 C20 1_555 1_555
C20 H15 1_555 1_555
C21 C20 1_555 1_555
H16 C21 1_555 1_555
C22 C21 1_555 1_555
H17 C22 1_555 1_555
C23 C22 1_555 1_555
H18 C23 1_555 1_555
C24 C19 1_555 1_555
C25 C24 1_555 1_555
C26 N2 1_555 1_555
C27 C6 1_555 1_555
C28 C27 1_555 1_555
C29 C28 1_555 1_555
C30 C29 1_555 1_555
C31 C12 1_555 1_555
H19 C31 1_555 1_555
C32 C33 1_555 1_555
C33 C28 1_555 1_555
H20 C33 1_555 1_555
H21 C33 1_555 1_555
C34 C29 1_555 1_555
C35 C32 1_555 1_555
H22 C35 1_555 1_555
H23 C35 1_555 1_555
C36 O7 1_555 1_555
C37 C32 1_555 1_555
C38 O2 1_555 1_555
H24 C38 1_555 1_555
H25 C38 1_555 1_555
H26 C38 1_555 1_555
C39 C32 1_555 1_555
C40 O4 1_555 1_555
H27 C40 1_555 1_555
H28 C40 1_555 1_555
H29 C40 1_555 1_555
C41 N2 1_555 1_555
H30 C41 1_555 1_555
H31 C41 1_555 1_555
H32 C41 1_555 1_555
C42 H33 1_555 1_555
Cl1 C42 1_555 1_555
Cl2 C42 1_555 1_555
Cl3 C42 1_555 1_555
C5 C6 1_555 1_555
C11 C12 1_555 1_555
C17 C18 1_555 1_555
C18 C36 1_555 1_555
C23 C24 1_555 1_555
C25 C26 1_555 1_555
C25 C31 1_555 1_555
C26 C27 1_555 1_555
C30 C31 1_555 1_555
C30 C36 1_555 1_555
C34 C35 1_555 1_555

#END
