
#######################################################################
#
#                 Cambridge Crystallographic Data Centre
#                                CCDC 
#
#######################################################################
#
# If this CIF has been generated from an entry in the Cambridge 
# Structural Database, then it will include bibliographic, chemical, 
# crystal, experimental, refinement or atomic coordinate data resulting 
# from the CCDC's data processing and validation procedures.
#
#######################################################################

data_OJOSUC01
_chemical_formula_moiety         'C4 H12 N5 1+,C2 H3 O2 1-'
_chemical_name_systematic        'N,N-dimethylbiguanidinium acetate'
_symmetry_cell_setting           monoclinic
_symmetry_space_group_name_H-M   'P 21/n'
_symmetry_Int_Tables_number      14
_space_group_name_Hall           '-P 2yn'
loop_
_symmetry_equiv_pos_site_id
_symmetry_equiv_pos_as_xyz
1 x,y,z
2 1/2-x,1/2+y,1/2-z
3 -x,-y,-z
4 1/2+x,1/2-y,1/2+z
_cell_length_a                   10.0005(8)
_cell_length_b                   8.9060(6)
_cell_length_c                   10.7034(9)
_cell_angle_alpha                90
_cell_angle_beta                 91.3130(10)
_cell_angle_gamma                90
_cell_volume                     953.042
_exptl_crystal_colour            colorless
_exptl_crystal_description       block
_cell_formula_units_Z            4
loop_
_atom_site_label
_atom_site_type_symbol
_atom_site_fract_x
_atom_site_fract_y
_atom_site_fract_z
N1 N 0.51942(17) 0.65518(18) 0.37029(15)
N2 N 0.60921(16) 0.89327(19) 0.37041(15)
N3 N 0.39908(18) 0.8571(2) 0.28273(17)
N4 N 0.45256(19) 0.4108(2) 0.34565(18)
N5 N 0.4576(2) 0.5575(2) 0.17228(16)
C1 C 0.50912(19) 0.8008(2) 0.33757(16)
C2 C 0.47489(18) 0.5449(2) 0.29511(17)
C3 C 0.5983(2) 1.0558(2) 0.3613(2)
H1 H 0.6101 1.0862 0.2762
H2 H 0.6660 1.1016 0.4137
H3 H 0.5116 1.0868 0.3881
C4 C 0.7365(2) 0.8350(3) 0.4165(3)
H4 H 0.7405 0.8417 0.5060
H5 H 0.8079 0.8928 0.3823
H6 H 0.7453 0.7319 0.3917
H7 H 0.428(2) 0.334(3) 0.299(2)
H8 H 0.330(3) 0.797(3) 0.275(2)
H9 H 0.464(2) 0.399(3) 0.427(2)
H10 H 0.390(2) 0.955(3) 0.258(2)
H11 H 0.487(2) 0.633(3) 0.135(2)
H12 H 0.441(2) 0.480(3) 0.130(2)
O1 O 0.34730(14) 0.16403(16) 0.18719(12)
O2 O 0.4122(2) 0.2985(2) 0.02682(15)
C5 C 0.36555(19) 0.1829(2) 0.07237(18)
C6 C 0.3249(3) 0.0601(3) -0.0166(2)
H13 H 0.2301 0.0644 -0.0322
H14 H 0.3481 -0.0355 0.0192
H15 H 0.3705 0.0728 -0.0938
loop_
_geom_bond_atom_site_label_1
_geom_bond_atom_site_label_2
_geom_bond_site_symmetry_1
_geom_bond_site_symmetry_2
N1 C1 1_555 1_555
N2 C1 1_555 1_555
N3 C1 1_555 1_555
N4 C2 1_555 1_555
N5 C2 1_555 1_555
C2 N1 1_555 1_555
C3 N2 1_555 1_555
H1 C3 1_555 1_555
H2 C3 1_555 1_555
H3 C3 1_555 1_555
C4 N2 1_555 1_555
H4 C4 1_555 1_555
H5 C4 1_555 1_555
H6 C4 1_555 1_555
H7 N4 1_555 1_555
H8 N3 1_555 1_555
H9 N4 1_555 1_555
H10 N3 1_555 1_555
H11 N5 1_555 1_555
H12 N5 1_555 1_555
O1 C5 1_555 1_555
O2 C5 1_555 1_555
C5 C6 1_555 1_555
C6 H13 1_555 1_555
H14 C6 1_555 1_555
H15 C6 1_555 1_555

#END
