
#######################################################################
#
#                 Cambridge Crystallographic Data Centre
#                                CCDC 
#
#######################################################################
#
# If this CIF has been generated from an entry in the Cambridge 
# Structural Database, then it will include bibliographic, chemical, 
# crystal, experimental, refinement or atomic coordinate data resulting 
# from the CCDC's data processing and validation procedures.
#
#######################################################################

data_OJOSOX
_chemical_formula_moiety         'C31 H34 N2 O5'
_chemical_name_systematic        
"t-butyl 12-benzyl-3-oxo-1,3b,4,4a,6,7,12,12a,12b,13-decahydrofuro[3',4':5,6]pyrano[3,4-a]pyrrolo[2,3-d]carbazole-5(3H)-carboxylate"
_symmetry_cell_setting           triclinic
_symmetry_space_group_name_H-M   'P -1'
_symmetry_Int_Tables_number      2
_space_group_name_Hall           '-P 1'
loop_
_symmetry_equiv_pos_site_id
_symmetry_equiv_pos_as_xyz
1 x,y,z
2 -x,-y,-z
_cell_length_a                   6.6605(10)
_cell_length_b                   13.893(2)
_cell_length_c                   14.737(2)
_cell_angle_alpha                84.624(4)
_cell_angle_beta                 77.468(3)
_cell_angle_gamma                82.396(4)
_cell_volume                     1316.5
_exptl_crystal_colour            colorless
_exptl_crystal_description       prismatic
_cell_formula_units_Z            2
loop_
_atom_site_label
_atom_site_type_symbol
_atom_site_fract_x
_atom_site_fract_y
_atom_site_fract_z
N1 N 0.5012(3) 0.69652(14) 0.13286(12)
N2 N 0.5468(3) 1.01043(13) 0.21638(12)
O1 O 0.5158(3) 0.57942(12) 0.41225(11)
O2 O 1.0358(3) 0.77242(14) 0.41915(13)
O3 O 0.9131(3) 0.64683(13) 0.51095(12)
O4 O 0.6149(3) 1.16440(12) 0.21395(12)
O5 O 0.6489(3) 1.05704(11) 0.33704(10)
C1 C 0.6619(4) 0.74165(17) 0.07393(15)
C2 C 0.8010(5) 0.7034(2) -0.00148(16)
H1 H 0.7886 0.6430 -0.0208
C3 C 0.9582(5) 0.7563(2) -0.04757(17)
H2 H 1.0516 0.7316 -0.0989
C4 C 0.9787(4) 0.8446(2) -0.01879(17)
H3 H 1.0884 0.8784 -0.0493
C5 C 0.8378(4) 0.88359(18) 0.05512(15)
H4 H 0.8510 0.9441 0.0740
C6 C 0.6765(4) 0.83264(16) 0.10125(14)
C7 C 0.4886(4) 0.85979(16) 0.17727(14)
C8 C 0.4124(4) 0.75954(17) 0.21011(15)
H5 H 0.2609 0.7657 0.2214
C9 C 0.4857(4) 0.72146(16) 0.30082(14)
H6 H 0.3907 0.7546 0.3519
C10 C 0.4720(4) 0.61408(18) 0.32122(16)
H7 H 0.3342 0.6005 0.3189
H8 H 0.5698 0.5788 0.2735
C11 C 0.6707(4) 0.61964(16) 0.43157(15)
C12 C 0.7540(4) 0.58543(18) 0.51559(18)
H9 H 0.6479 0.5939 0.5718
H10 H 0.8106 0.5175 0.5136
C13 C 0.9172(4) 0.71172(17) 0.43412(16)
C14 C 0.7654(4) 0.69266(15) 0.38402(15)
C15 C 0.7033(4) 0.74713(15) 0.29999(14)
H11 H 0.7979 0.7224 0.2442
C16 C 0.7085(4) 0.85786(15) 0.29755(15)
H12 H 0.6994 0.8771 0.3600
H13 H 0.8380 0.8752 0.2591
C17 C 0.5288(4) 0.91053(15) 0.25830(14)
H14 H 0.4043 0.9120 0.3080
C18 C 0.4339(4) 1.03139(18) 0.14010(16)
H15 H 0.5273 1.0450 0.0813
H16 H 0.3280 1.0863 0.1524
C19 C 0.3379(4) 0.93802(18) 0.13925(16)
H17 H 0.3287 0.9261 0.0766
H18 H 0.2008 0.9407 0.1789
C20 C 0.3590(5) 0.65097(18) 0.09109(18)
H19 H 0.4197 0.6434 0.0257
H20 H 0.2306 0.6938 0.0947
C21 C 0.3122(4) 0.55397(17) 0.13748(16)
C22 C 0.4690(5) 0.47867(19) 0.13976(19)
H21 H 0.6038 0.4883 0.1102
C23 C 0.4306(7) 0.3913(2) 0.1840(2)
H22 H 0.5391 0.3418 0.1842
C24 C 0.2383(9) 0.3750(3) 0.2277(3)
H23 H 0.2143 0.3150 0.2591
C25 C 0.0781(7) 0.4467(3) 0.2259(3)
H24 H -0.0557 0.4355 0.2556
C26 C 0.1149(5) 0.5370(2) 0.1794(2)
H25 H 0.0053 0.5855 0.1770
C27 C 0.6054(4) 1.08427(17) 0.25299(15)
C28 C 0.7496(4) 1.11887(18) 0.38451(17)
C29 C 0.9641(6) 1.1283(3) 0.3298(2)
H26 H 0.9570 1.1646 0.2716
H27 H 1.0364 1.0648 0.3181
H28 H 1.0366 1.1617 0.3645
C30 C 0.6223(7) 1.2146(2) 0.4015(3)
H29 H 0.4797 1.2046 0.4241
H30 H 0.6358 1.2548 0.3443
H31 H 0.6694 1.2461 0.4469
C31 C 0.7558(6) 1.0614(2) 0.47577(19)
H32 H 0.8299 0.9982 0.4643
H33 H 0.6170 1.0546 0.5091
H34 H 0.8243 1.0948 0.5122
loop_
_geom_bond_atom_site_label_1
_geom_bond_atom_site_label_2
_geom_bond_site_symmetry_1
_geom_bond_site_symmetry_2
N1 C1 1_555 1_555
N2 C17 1_555 1_555
O1 C10 1_555 1_555
O2 C13 1_555 1_555
O3 C12 1_555 1_555
O4 C27 1_555 1_555
O5 C27 1_555 1_555
C1 C2 1_555 1_555
C2 H1 1_555 1_555
C3 C2 1_555 1_555
H2 C3 1_555 1_555
C4 C3 1_555 1_555
H3 C4 1_555 1_555
C5 C4 1_555 1_555
H4 C5 1_555 1_555
C6 C1 1_555 1_555
C7 C6 1_555 1_555
C8 N1 1_555 1_555
H5 C8 1_555 1_555
C9 C8 1_555 1_555
H6 C9 1_555 1_555
C10 C9 1_555 1_555
H7 C10 1_555 1_555
H8 C10 1_555 1_555
C11 O1 1_555 1_555
C12 C11 1_555 1_555
H9 C12 1_555 1_555
H10 C12 1_555 1_555
C13 O3 1_555 1_555
C14 C11 1_555 1_555
C15 C9 1_555 1_555
H11 C15 1_555 1_555
C16 C15 1_555 1_555
H12 C16 1_555 1_555
H13 C16 1_555 1_555
C17 C7 1_555 1_555
H14 C17 1_555 1_555
C18 N2 1_555 1_555
H15 C18 1_555 1_555
H16 C18 1_555 1_555
C19 C7 1_555 1_555
H17 C19 1_555 1_555
H18 C19 1_555 1_555
C20 N1 1_555 1_555
H19 C20 1_555 1_555
H20 C20 1_555 1_555
C21 C20 1_555 1_555
C22 C21 1_555 1_555
H21 C22 1_555 1_555
C23 C22 1_555 1_555
H22 C23 1_555 1_555
C24 C23 1_555 1_555
H23 C24 1_555 1_555
C25 C24 1_555 1_555
H24 C25 1_555 1_555
C26 C21 1_555 1_555
H25 C26 1_555 1_555
C27 N2 1_555 1_555
C28 O5 1_555 1_555
C29 C28 1_555 1_555
H26 C29 1_555 1_555
H27 C29 1_555 1_555
H28 C29 1_555 1_555
C30 C28 1_555 1_555
H29 C30 1_555 1_555
H30 C30 1_555 1_555
H31 C30 1_555 1_555
C31 C28 1_555 1_555
H32 C31 1_555 1_555
H33 C31 1_555 1_555
H34 C31 1_555 1_555
C5 C6 1_555 1_555
C7 C8 1_555 1_555
C13 C14 1_555 1_555
C14 C15 1_555 1_555
C16 C17 1_555 1_555
C18 C19 1_555 1_555
C25 C26 1_555 1_555

#END
