
#######################################################################
#
#                 Cambridge Crystallographic Data Centre
#                                CCDC 
#
#######################################################################
#
# If this CIF has been generated from an entry in the Cambridge 
# Structural Database, then it will include bibliographic, chemical, 
# crystal, experimental, refinement or atomic coordinate data resulting 
# from the CCDC's data processing and validation procedures.
#
#######################################################################

data_OJOTAJ
_chemical_name_common            
"N-(2'-amino-1',2'-diphenylethyl)-N'-(2',3',4',6'-tetra-O-acetyl-1-deoxyl-alpha-D-glucosyd-1-yl)thiourea dihydrate"
_chemical_formula_moiety         'C29 H35 N3 O9 S1,2(H2 O1)'
_chemical_name_systematic        
'2-(Acetoxymethyl)-6-(((2-amino-1,2-diphenylethyl)carbamothioyl)amino)tetrahydro-2H-pyran-3,4,5-triyl triacetate dihydrate'
_symmetry_cell_setting           hexagonal
_symmetry_space_group_name_H-M   'P 65'
_symmetry_Int_Tables_number      170
_space_group_name_Hall           'P 65'
loop_
_symmetry_equiv_pos_site_id
_symmetry_equiv_pos_as_xyz
1 x,y,z
2 x-y,x,5/6+z
3 -y,x-y,2/3+z
4 -x,-y,1/2+z
5 -x+y,-x,1/3+z
6 y,-x+y,1/6+z
_cell_length_a                   22.7516(9)
_cell_length_b                   22.7516(9)
_cell_length_c                   10.9962(6)
_cell_angle_alpha                90
_cell_angle_beta                 90
_cell_angle_gamma                120
_cell_volume                     4929.44
_exptl_crystal_colour            colorless
_exptl_crystal_description       block
_cell_formula_units_Z            6
loop_
_atom_site_label
_atom_site_type_symbol
_atom_site_fract_x
_atom_site_fract_y
_atom_site_fract_z
S1 S 0.61091(4) 0.70657(4) 1.08965(7)
N1 N 0.71969(13) 0.56286(15) 0.9050(3)
H1 H 0.7052 0.5431 0.8359
H2 H 0.7625 0.5894 0.9164
N2 N 0.66009(12) 0.64781(12) 0.9432(2)
H3 H 0.6678 0.6391 0.8708
N3 N 0.62235(12) 0.70945(12) 0.8461(2)
H4 H 0.6372 0.6990 0.7825
O1 O 0.53425(10) 0.71074(10) 0.7473(2)
O2 O 0.69483(10) 0.85591(10) 0.84199(18)
O3 O 0.76152(12) 0.83310(15) 0.7217(3)
O4 O 0.64414(10) 0.91491(9) 0.67680(18)
O5 O 0.65668(11) 0.98319(11) 0.8341(2)
O6 O 0.49573(11) 0.84613(11) 0.6849(2)
O7 O 0.4882(2) 0.8476(2) 0.4825(3)
O8 O 0.46224(12) 0.69834(12) 0.5300(3)
O9 O 0.35702(16) 0.6356(2) 0.4573(4)
C1 C 0.55065(17) 0.46282(17) 1.0469(3)
H5 H 0.5629 0.4647 1.1281
C2 C 0.4839(2) 0.4202(2) 1.0136(4)
H6 H 0.4516 0.3947 1.0721
C3 C 0.46536(19) 0.4157(2) 0.8918(4)
H7 H 0.4209 0.3859 0.8680
C4 C 0.51327(18) 0.45557(19) 0.8067(3)
H8 H 0.5004 0.4540 0.7260
C5 C 0.58031(16) 0.49799(16) 0.8394(3)
H9 H 0.6122 0.5232 0.7801
C6 C 0.60068(15) 0.50343(14) 0.9616(3)
C7 C 0.67167(14) 0.55123(14) 1.0031(3)
H10 H 0.6821 0.5309 1.0723
C8 C 0.67834(14) 0.61929(14) 1.0440(2)
H11 H 0.6453 0.6094 1.1092
C9 C 0.74814(15) 0.66958(15) 1.0935(3)
C10 C 0.7982(2) 0.7177(2) 1.0218(4)
H12 H 0.7899 0.7196 0.9395
C11 C 0.8613(2) 0.7638(3) 1.0700(4)
H13 H 0.8952 0.7951 1.0193
C12 C 0.8736(2) 0.7632(2) 1.1922(4)
H14 H 0.9153 0.7948 1.2252
C13 C 0.82367(17) 0.71562(19) 1.2644(4)
H15 H 0.8314 0.7147 1.3472
C14 C 0.76190(16) 0.66896(17) 1.2156(3)
H16 H 0.7288 0.6364 1.2659
C15 C 0.63174(14) 0.68718(14) 0.9557(3)
C16 C 0.59000(14) 0.74851(14) 0.8286(3)
H17 H 0.5739 0.7563 0.9063
C17 C 0.63731(13) 0.81577(13) 0.7656(3)
H18 H 0.6521 0.8076 0.6869
C18 C 0.59999(14) 0.85499(13) 0.7485(3)
H19 H 0.5900 0.8681 0.8274
C19 C 0.53532(14) 0.81251(14) 0.6778(3)
H20 H 0.5461 0.8092 0.5927
C20 C 0.49295(15) 0.74148(16) 0.7318(3)
H21 H 0.4751 0.7448 0.8110
C21 C 0.75423(15) 0.85903(18) 0.8119(3)
C22 C 0.8072(2) 0.8977(3) 0.9055(5)
H22 H 0.8482 0.8977 0.8846
H23 H 0.7915 0.8766 0.9835
H24 H 0.8160 0.9435 0.9087
C23 C 0.67172(14) 0.97567(14) 0.7326(3)
C24 C 0.72388(16) 1.03044(15) 0.6551(3)
H25 H 0.7235 1.0719 0.6695
H26 H 0.7140 1.0180 0.5711
H27 H 0.7678 1.0369 0.6747
C25 C 0.47438(18) 0.85975(18) 0.5795(3)
C26 C 0.4309(2) 0.8904(2) 0.6045(4)
H28 H 0.4582 0.9349 0.6382
H29 H 0.3959 0.8624 0.6613
H30 H 0.4105 0.8935 0.5300
C27 C 0.43461(17) 0.69483(18) 0.6498(4)
H31 H 0.4130 0.6487 0.6802
H32 H 0.4010 0.7092 0.6469
C28 C 0.4174(2) 0.6677(2) 0.4376(5)
C29 C 0.4510(3) 0.6802(3) 0.3185(5)
H33 H 0.4303 0.6390 0.2718
H34 H 0.4982 0.6953 0.3300
H35 H 0.4463 0.7145 0.2759
O10 O 0.2451(4) 0.5477(3) 0.3439(6)
O11 O 0.8956(5) 0.9717(4) 0.6458(10)
O12 O -0.0058(8) 0.9625(7) 0.9810(16)
loop_
_geom_bond_atom_site_label_1
_geom_bond_atom_site_label_2
_geom_bond_site_symmetry_1
_geom_bond_site_symmetry_2
S1 C15 1_555 1_555
N1 H1 1_555 1_555
H2 N1 1_555 1_555
N2 H3 1_555 1_555
N3 H4 1_555 1_555
O1 C16 1_555 1_555
O2 C17 1_555 1_555
O3 C21 1_555 1_555
O4 C18 1_555 1_555
O5 C23 1_555 1_555
O6 C19 1_555 1_555
O7 C25 1_555 1_555
O8 C27 1_555 1_555
O9 C28 1_555 1_555
C1 H5 1_555 1_555
C2 C1 1_555 1_555
H6 C2 1_555 1_555
C3 C2 1_555 1_555
H7 C3 1_555 1_555
C4 C3 1_555 1_555
H8 C4 1_555 1_555
C5 C4 1_555 1_555
H9 C5 1_555 1_555
C6 C1 1_555 1_555
C7 N1 1_555 1_555
H10 C7 1_555 1_555
C8 N2 1_555 1_555
H11 C8 1_555 1_555
C9 C8 1_555 1_555
C10 C9 1_555 1_555
H12 C10 1_555 1_555
C11 C10 1_555 1_555
H13 C11 1_555 1_555
C12 C11 1_555 1_555
H14 C12 1_555 1_555
C13 C12 1_555 1_555
H15 C13 1_555 1_555
C14 C9 1_555 1_555
H16 C14 1_555 1_555
C15 N2 1_555 1_555
C16 N3 1_555 1_555
H17 C16 1_555 1_555
C17 C16 1_555 1_555
H18 C17 1_555 1_555
C18 C17 1_555 1_555
H19 C18 1_555 1_555
C19 C18 1_555 1_555
H20 C19 1_555 1_555
C20 O1 1_555 1_555
H21 C20 1_555 1_555
C21 O2 1_555 1_555
C22 C21 1_555 1_555
H22 C22 1_555 1_555
H23 C22 1_555 1_555
H24 C22 1_555 1_555
C23 O4 1_555 1_555
C24 C23 1_555 1_555
H25 C24 1_555 1_555
H26 C24 1_555 1_555
H27 C24 1_555 1_555
C25 O6 1_555 1_555
C26 C25 1_555 1_555
H28 C26 1_555 1_555
H29 C26 1_555 1_555
H30 C26 1_555 1_555
C27 C20 1_555 1_555
H31 C27 1_555 1_555
H32 C27 1_555 1_555
C28 O8 1_555 1_555
C29 C28 1_555 1_555
H33 C29 1_555 1_555
H34 C29 1_555 1_555
H35 C29 1_555 1_555
N3 C15 1_555 1_555
C5 C6 1_555 1_555
C6 C7 1_555 1_555
C7 C8 1_555 1_555
C13 C14 1_555 1_555
C19 C20 1_555 1_555

#END
