
#######################################################################
#
#                 Cambridge Crystallographic Data Centre
#                                CCDC 
#
#######################################################################
#
# If this CIF has been generated from an entry in the Cambridge 
# Structural Database, then it will include bibliographic, chemical, 
# crystal, experimental, refinement or atomic coordinate data resulting 
# from the CCDC's data processing and validation procedures.
#
#######################################################################

data_OJOTIR
_chemical_formula_moiety         'C18 H16 Br1 N1 O3'
_chemical_name_systematic        
(E)-1-(4-bromophenyl)-3-(nitromethyl)-5-phenylpent-4-en-1-one
_symmetry_cell_setting           orthorhombic
_symmetry_space_group_name_H-M   'P 21 21 21'
_symmetry_Int_Tables_number      19
_space_group_name_Hall           'P 2ac 2ab'
loop_
_symmetry_equiv_pos_site_id
_symmetry_equiv_pos_as_xyz
1 x,y,z
2 1/2-x,-y,1/2+z
3 -x,1/2+y,1/2-z
4 1/2+x,1/2-y,-z
_cell_length_a                   5.5520(11)
_cell_length_b                   11.523(2)
_cell_length_c                   25.423(5)
_cell_angle_alpha                90
_cell_angle_beta                 90
_cell_angle_gamma                90
_cell_volume                     1626.45
_exptl_crystal_colour            white
_exptl_crystal_description       prism
_chemical_melting_point          '373-374 K'
_cell_formula_units_Z            4
loop_
_atom_site_label
_atom_site_type_symbol
_atom_site_fract_x
_atom_site_fract_y
_atom_site_fract_z
Br1 Br 0.04935(7) 0.33741(3) 1.104218(13)
O1 O 0.5380(4) 0.51892(16) 0.87287(8)
O2 O 0.6054(4) 0.6504(2) 0.72955(9)
O3 O 0.3236(5) 0.77551(18) 0.71649(9)
N1 N 0.4076(6) 0.6911(2) 0.73942(10)
C1 C 0.0371(6) 0.3889(2) 0.94316(11)
H1 H -0.0647 0.3701 0.9154
C2 C -0.0266(6) 0.3590(2) 0.99399(11)
H2 H -0.1709 0.3206 1.0005
C3 C 0.1265(6) 0.3867(2) 1.03494(11)
C4 C 0.3385(6) 0.4468(2) 1.02724(12)
H3 H 0.4375 0.4667 1.0553
C5 C 0.3989(6) 0.4766(2) 0.97568(11)
H4 H 0.5405 0.5175 0.9695
C6 C 0.2534(6) 0.4470(2) 0.93324(12)
C7 C 0.3368(6) 0.4791(2) 0.87946(12)
C8 C 0.1676(6) 0.4588(2) 0.83365(11)
H5 H 0.0145 0.4960 0.8410
H6 H 0.1385 0.3761 0.8301
C9 C 0.2673(6) 0.5060(2) 0.78122(11)
H7 H 0.4341 0.4798 0.7769
C10 C 0.2620(6) 0.6395(2) 0.78272(11)
H8 H 0.0967 0.6659 0.7797
H9 H 0.3244 0.6660 0.8163
C11 C 0.1197(6) 0.4636(2) 0.73552(11)
H10 H -0.0433 0.4823 0.7351
C12 C 0.2043(6) 0.4017(2) 0.69587(11)
H11 H 0.3677 0.3838 0.6966
C13 C 0.0649(6) 0.3582(2) 0.65049(10)
C14 C -0.1534(6) 0.4074(2) 0.63555(11)
H12 H -0.2134 0.4703 0.6543
C15 C -0.2837(6) 0.3645(2) 0.59314(11)
H13 H -0.4289 0.3988 0.5836
C16 C -0.1956(6) 0.2699(3) 0.56499(12)
H14 H -0.2818 0.2405 0.5366
C17 C 0.0212(6) 0.2199(2) 0.57954(11)
H15 H 0.0810 0.1569 0.5608
C18 C 0.1491(6) 0.2635(2) 0.62178(11)
H16 H 0.2942 0.2290 0.6312
loop_
_geom_bond_atom_site_label_1
_geom_bond_atom_site_label_2
_geom_bond_site_symmetry_1
_geom_bond_site_symmetry_2
Br1 C3 1_555 1_555
O1 C7 1_555 1_555
O2 N1 1_555 1_555
O3 N1 1_555 1_555
N1 C10 1_555 1_555
C1 H1 1_555 1_555
C2 C1 1_555 1_555
H2 C2 1_555 1_555
C3 C2 1_555 1_555
C4 C3 1_555 1_555
H3 C4 1_555 1_555
C5 C4 1_555 1_555
H4 C5 1_555 1_555
C6 C1 1_555 1_555
C7 C6 1_555 1_555
C8 C7 1_555 1_555
H5 C8 1_555 1_555
H6 C8 1_555 1_555
C9 C8 1_555 1_555
H7 C9 1_555 1_555
C10 C9 1_555 1_555
H8 C10 1_555 1_555
H9 C10 1_555 1_555
C11 C9 1_555 1_555
H10 C11 1_555 1_555
C12 C11 1_555 1_555
H11 C12 1_555 1_555
C13 C12 1_555 1_555
C14 C13 1_555 1_555
H12 C14 1_555 1_555
C15 C14 1_555 1_555
H13 C15 1_555 1_555
C16 C15 1_555 1_555
H14 C16 1_555 1_555
C17 C16 1_555 1_555
H15 C17 1_555 1_555
C18 C13 1_555 1_555
H16 C18 1_555 1_555
C5 C6 1_555 1_555
C17 C18 1_555 1_555

#END
