
#######################################################################
#
#                 Cambridge Crystallographic Data Centre
#                                CCDC 
#
#######################################################################
#
# If this CIF has been generated from an entry in the Cambridge 
# Structural Database, then it will include bibliographic, chemical, 
# crystal, experimental, refinement or atomic coordinate data resulting 
# from the CCDC's data processing and validation procedures.
#
#######################################################################

data_OJOVEO
_chemical_formula_moiety         
'2(C8 H20 N1 1+),C4 H2 O4 2-,2(C1 H4 N2 O1),2(H2 O1)'
_chemical_name_systematic        
'bis(Tetraethylammonium) fumarate bis(urea) dihydrate'
_symmetry_cell_setting           monoclinic
_symmetry_space_group_name_H-M   'C 2/c'
_symmetry_Int_Tables_number      15
_space_group_name_Hall           '-C 2yn'
loop_
_symmetry_equiv_pos_site_id
_symmetry_equiv_pos_as_xyz
1 x,y,z
2 1/2+x,1/2+y,z
3 x,-y,1/2+z
4 1/2+x,1/2-y,1/2+z
5 -x,-y,-z
6 1/2-x,1/2-y,-z
7 -x,y,1/2-z
8 1/2-x,1/2+y,1/2-z
_cell_length_a                   17.909(5)
_cell_length_b                   14.431(4)
_cell_length_c                   14.443(3)
_cell_angle_alpha                90
_cell_angle_beta                 126.76(2)
_cell_angle_gamma                90
_cell_volume                     2990.46
_exptl_crystal_colour            colorless
_exptl_crystal_description       needle
_cell_formula_units_Z            4
loop_
_atom_site_label
_atom_site_type_symbol
_atom_site_fract_x
_atom_site_fract_y
_atom_site_fract_z
O1 O -0.01332(18) 0.4872(2) -0.1311(2)
C1 C 0.0742(3) 0.4832(3) -0.0700(3)
N1 N 0.1249(2) 0.4719(2) 0.0450(3)
H1 H 0.0976 0.4673 0.0776
H2 H 0.1847 0.4693 0.0861
N2 N 0.1194(2) 0.4899(3) -0.1165(3)
H3 H 0.0889 0.4972 -0.1899
H4 H 0.1793 0.4870 -0.0731
O2 O 0.32072(19) 0.4934(2) 0.0174(2)
O3 O 0.32977(18) 0.5017(2) 0.1777(2)
C2 C 0.3657(2) 0.5002(3) 0.1249(3)
C3 C 0.4702(3) 0.5025(3) 0.1935(3)
H5 H 0.4959 0.5044 0.1513
C3F C 0.5298(3) 0.5025(3) 0.3065(3)
C2F C 0.6343(2) 0.5002(3) 0.3751(3)
O2F O 0.67928(19) 0.4934(2) 0.4826(2)
O3F O 0.67023(18) 0.5017(2) 0.3223(2)
H5F H 0.5041 0.5044 0.3487
O4 O 0.3859(2) 0.4207(2) -0.1099(3)
H6 H 0.3674 0.4421 -0.0718
H7 H 0.3691 0.4441 -0.1736
N3 N 0.1408(2) 0.2370(2) 0.6416(3)
C4 C 0.1789(3) 0.3058(3) 0.7391(4)
H8 H 0.2291 0.3401 0.7470
H9 H 0.1301 0.3498 0.7178
C5 C 0.2150(3) 0.2650(4) 0.8545(4)
H10 H 0.2376 0.3138 0.9106
H11 H 0.2649 0.2228 0.8781
H12 H 0.1656 0.2324 0.8487
C6 C 0.0614(3) 0.1818(3) 0.6237(4)
H13 H 0.0852 0.1459 0.6930
H14 H 0.0392 0.1384 0.5609
C7 C -0.0206(3) 0.2386(3) 0.5964(4)
H15 H -0.0673 0.1981 0.5868
H16 H -0.0463 0.2729 0.5264
H17 H -0.0001 0.2808 0.6588
C8 C 0.1072(3) 0.2922(3) 0.5347(4)
H18 H 0.1597 0.3265 0.5488
H19 H 0.0620 0.3372 0.5229
C9 C 0.0635(4) 0.2373(4) 0.4244(4)
H20 H 0.0447 0.2788 0.3619
H21 H 0.0100 0.2046 0.4076
H22 H 0.1080 0.1938 0.4336
C10 C 0.2147(3) 0.1676(3) 0.6689(4)
H23 H 0.2313 0.1316 0.7355
H24 H 0.1879 0.1253 0.6042
C11 C 0.3023(3) 0.2075(4) 0.6935(5)
H25 H 0.3446 0.1582 0.7098
H26 H 0.3309 0.2481 0.7591
H27 H 0.2874 0.2417 0.6274
loop_
_geom_bond_atom_site_label_1
_geom_bond_atom_site_label_2
_geom_bond_site_symmetry_1
_geom_bond_site_symmetry_2
O1 C1 1_555 1_555
C1 N1 1_555 1_555
N1 H1 1_555 1_555
H2 N1 1_555 1_555
N2 C1 1_555 1_555
H3 N2 1_555 1_555
H4 N2 1_555 1_555
O2 C2 1_555 1_555
O3 C2 1_555 1_555
C2 C3 1_555 1_555
C3 H5 1_555 1_555
O4 H6 1_555 1_555
H7 O4 1_555 1_555
N3 C4 1_555 1_555
C4 H8 1_555 1_555
H9 C4 1_555 1_555
C5 C4 1_555 1_555
H10 C5 1_555 1_555
H11 C5 1_555 1_555
H12 C5 1_555 1_555
C6 N3 1_555 1_555
H13 C6 1_555 1_555
H14 C6 1_555 1_555
C7 C6 1_555 1_555
H15 C7 1_555 1_555
H16 C7 1_555 1_555
H17 C7 1_555 1_555
C8 N3 1_555 1_555
H18 C8 1_555 1_555
H19 C8 1_555 1_555
C9 C8 1_555 1_555
H20 C9 1_555 1_555
H21 C9 1_555 1_555
H22 C9 1_555 1_555
C10 N3 1_555 1_555
H23 C10 1_555 1_555
H24 C10 1_555 1_555
C11 C10 1_555 1_555
H25 C11 1_555 1_555
H26 C11 1_555 1_555
H27 C11 1_555 1_555
C3F C3 1_555 1_555
C2F C3F 1_555 1_555
O2F C2F 1_555 1_555
O3F C2F 1_555 1_555
H5F C3F 1_555 1_555

#END
