
#######################################################################
#
#                 Cambridge Crystallographic Data Centre
#                                CCDC 
#
#######################################################################
#
# If this CIF has been generated from an entry in the Cambridge 
# Structural Database, then it will include bibliographic, chemical, 
# crystal, experimental, refinement or atomic coordinate data resulting 
# from the CCDC's data processing and validation procedures.
#
#######################################################################

data_OJOVEP
_chemical_formula_moiety         'C12 H8 Br2 S1'
_chemical_name_systematic        2,5-Dibromo-3-(2-phenylvinyl)thiophene
_symmetry_cell_setting           monoclinic
_symmetry_space_group_name_H-M   'P c'
_symmetry_Int_Tables_number      7
_space_group_name_Hall           'P -2yc'
loop_
_symmetry_equiv_pos_site_id
_symmetry_equiv_pos_as_xyz
1 x,y,z
2 x,-y,1/2+z
_cell_length_a                   3.9416(5)
_cell_length_b                   14.6497(18)
_cell_length_c                   9.9791(13)
_cell_angle_alpha                90
_cell_angle_beta                 97.043(2)
_cell_angle_gamma                90
_cell_volume                     571.878
_exptl_crystal_colour            colorless
_exptl_crystal_description       plate
_cell_formula_units_Z            2
loop_
_atom_site_label
_atom_site_type_symbol
_atom_site_fract_x
_atom_site_fract_y
_atom_site_fract_z
C1 C -0.0118(14) 0.9210(4) 0.0010(5)
H1 H -0.1445 0.9171 -0.0825
C2 C 0.0532(12) 0.8433(3) 0.0808(5)
H2 H -0.0397 0.7876 0.0504
Br1 Br 0.46787(10) 0.39010(3) 0.49682(6)
Br2 Br 0.96557(10) 0.75891(3) 0.71055(5)
S1 S 0.8028(3) 0.55330(8) 0.66355(12)
C3 C 0.4687(13) 0.5818(3) 0.4277(5)
H3 H 0.3408 0.5722 0.3442
C4 C 0.7678(12) 0.6631(3) 0.6035(5)
C5 C 0.3257(12) 1.0093(3) 0.1703(5)
H4 H 0.4168 1.0652 0.2007
C6 C 0.5681(11) 0.5136(3) 0.5168(5)
C7 C 0.5838(11) 0.6708(3) 0.4771(5)
C8 C 0.5196(12) 0.7561(3) 0.4040(5)
H5 H 0.6242 0.8086 0.4417
C9 C 0.3186(12) 0.7641(3) 0.2854(5)
H6 H 0.2090 0.7114 0.2507
C10 C 0.3937(12) 0.9327(3) 0.2481(5)
H7 H 0.5332 0.9372 0.3301
C11 C 0.2560(11) 0.8479(3) 0.2059(5)
C12 C 0.1231(13) 1.0042(3) 0.0473(5)
H8 H 0.0773 1.0566 -0.0045
loop_
_geom_bond_atom_site_label_1
_geom_bond_atom_site_label_2
_geom_bond_site_symmetry_1
_geom_bond_site_symmetry_2
C1 H1 1_555 1_555
C2 C1 1_555 1_555
H2 C2 1_555 1_555
Br1 C6 1_555 1_555
Br2 C4 1_555 1_555
S1 C4 1_555 1_555
C3 H3 1_555 1_555
C4 C7 1_555 1_555
C5 H4 1_555 1_555
C6 S1 1_555 1_555
C7 C3 1_555 1_555
C8 C7 1_555 1_555
H5 C8 1_555 1_555
C9 C8 1_555 1_555
H6 C9 1_555 1_555
C10 C5 1_555 1_555
H7 C10 1_555 1_555
C11 C2 1_555 1_555
C12 C1 1_555 1_555
H8 C12 1_555 1_555
C3 C6 1_555 1_555
C5 C12 1_555 1_555
C9 C11 1_555 1_555
C10 C11 1_555 1_555

#END
