
#######################################################################
#
#                 Cambridge Crystallographic Data Centre
#                                CCDC 
#
#######################################################################
#
# If this CIF has been generated from an entry in the Cambridge 
# Structural Database, then it will include bibliographic, chemical, 
# crystal, experimental, refinement or atomic coordinate data resulting 
# from the CCDC's data processing and validation procedures.
#
#######################################################################

data_OJOYOD
_chemical_formula_moiety         'C25 H24 O3'
_chemical_name_systematic        
1,3,5-trimethoxy-2,4-bis(1-phenylvinyl)benzene
_symmetry_cell_setting           orthorhombic
_symmetry_space_group_name_H-M   'P n a 21'
_symmetry_Int_Tables_number      33
_space_group_name_Hall           'P 2c -2n'
loop_
_symmetry_equiv_pos_site_id
_symmetry_equiv_pos_as_xyz
1 x,y,z
2 -x,-y,1/2+z
3 1/2-x,1/2+y,1/2+z
4 1/2+x,1/2-y,z
_cell_length_a                   20.8499(13)
_cell_length_b                   12.3895(7)
_cell_length_c                   7.9367(4)
_cell_angle_alpha                90
_cell_angle_beta                 90
_cell_angle_gamma                90
_cell_volume                     2050.21
_exptl_crystal_colour            colorless
_exptl_crystal_description       Acicular
_cell_formula_units_Z            4
loop_
_atom_site_label
_atom_site_type_symbol
_atom_site_fract_x
_atom_site_fract_y
_atom_site_fract_z
O1 O 0.81040(19) 1.0436(3) 1.2343(4)
O2 O 0.91338(18) 0.6932(3) 1.2383(4)
O3 O 0.82996(16) 0.8396(3) 0.7357(4)
C1 C 0.9054(5) 1.2766(7) 0.6762(9)
H1 H 0.9312 1.3286 0.6255
C2 C 0.9305(3) 1.1802(6) 0.7254(9)
H2 H 0.9740 1.1671 0.7092
C3 C 0.8923(3) 1.0999(5) 0.8000(7)
H3 H 0.9107 1.0350 0.8338
C4 C 0.8271(3) 1.1174(5) 0.8235(6)
C5 C 0.7853(2) 1.0296(4) 0.8928(6)
C6 C 0.8175(2) 0.9401(5) 0.9888(6)
C7 C 0.8378(2) 0.8468(4) 0.9087(6)
C8 C 0.8705(2) 0.7636(4) 0.9907(6)
C9 C 0.8955(3) 0.6669(5) 0.9012(6)
C10 C 0.9614(3) 0.6742(5) 0.8281(7)
C11 C 0.9962(3) 0.5814(6) 0.7917(8)
H4 H 0.9785 0.5149 0.8200
C12 C 1.0538(4) 0.5831(8) 0.7181(10)
H5 H 1.0753 0.5191 0.6942
C13 C 1.0803(3) 0.6801(9) 0.6788(9)
H6 H 1.1204 0.6820 0.6272
C14 C 0.8307(2) 0.9490(5) 1.1605(6)
C15 C 0.8241(4) 1.0583(6) 1.4077(7)
H7 H 0.8696 1.0546 1.4252
H8 H 0.8034 1.0027 1.4719
H9 H 0.8085 1.1276 1.4434
C16 C 0.8615(2) 0.8673(4) 1.2478(6)
H10 H 0.8682 0.8737 1.3632
C17 C 0.8822(2) 0.7763(5) 1.1628(6)
C18 C 0.9258(3) 0.6980(6) 1.4140(7)
H11 H 0.8859 0.6982 1.4745
H12 H 0.9492 0.7627 1.4394
H13 H 0.9506 0.6363 1.4471
C19 C 0.7715(3) 0.7878(6) 0.6860(7)
H14 H 0.7376 0.8090 0.7608
H15 H 0.7769 0.7109 0.6908
H16 H 0.7608 0.8088 0.5730
C20 C 0.9888(3) 0.7714(5) 0.7927(8)
H17 H 0.9672 0.8345 0.8212
C21 C 1.0485(3) 0.7778(7) 0.7146(9)
H18 H 1.0667 0.8441 0.6872
C22 C 0.8610(3) 0.5796(6) 0.8857(10)
H19 H 0.8199 0.5770 0.9310
H20 H 0.8775 0.5200 0.8292
C23 C 0.7223(3) 1.0291(6) 0.8706(8)
H21 H 0.7027 1.0844 0.8103
H22 H 0.6977 0.9735 0.9152
C24 C 0.8020(4) 1.2161(5) 0.7738(7)
H23 H 0.7584 1.2302 0.7875
C25 C 0.8425(5) 1.2951(6) 0.7026(9)
H24 H 0.8253 1.3617 0.6730
loop_
_geom_bond_atom_site_label_1
_geom_bond_atom_site_label_2
_geom_bond_site_symmetry_1
_geom_bond_site_symmetry_2
O1 C14 1_555 1_555
O2 C17 1_555 1_555
O3 C7 1_555 1_555
C1 H1 1_555 1_555
C2 C1 1_555 1_555
H2 C2 1_555 1_555
C3 C2 1_555 1_555
H3 C3 1_555 1_555
C4 C3 1_555 1_555
C5 C4 1_555 1_555
C6 C5 1_555 1_555
C7 C6 1_555 1_555
C8 C7 1_555 1_555
C9 C8 1_555 1_555
C10 C9 1_555 1_555
C11 C10 1_555 1_555
H4 C11 1_555 1_555
C12 C11 1_555 1_555
H5 C12 1_555 1_555
C13 C12 1_555 1_555
H6 C13 1_555 1_555
C14 C6 1_555 1_555
C15 O1 1_555 1_555
H7 C15 1_555 1_555
H8 C15 1_555 1_555
H9 C15 1_555 1_555
C16 C14 1_555 1_555
H10 C16 1_555 1_555
C17 C8 1_555 1_555
C18 O2 1_555 1_555
H11 C18 1_555 1_555
H12 C18 1_555 1_555
H13 C18 1_555 1_555
C19 O3 1_555 1_555
H14 C19 1_555 1_555
H15 C19 1_555 1_555
H16 C19 1_555 1_555
C20 C10 1_555 1_555
H17 C20 1_555 1_555
C21 C13 1_555 1_555
H18 C21 1_555 1_555
C22 C9 1_555 1_555
H19 C22 1_555 1_555
H20 C22 1_555 1_555
C23 C5 1_555 1_555
H21 C23 1_555 1_555
H22 C23 1_555 1_555
C24 C4 1_555 1_555
H23 C24 1_555 1_555
C25 C1 1_555 1_555
H24 C25 1_555 1_555
C16 C17 1_555 1_555
C20 C21 1_555 1_555
C24 C25 1_555 1_555

#END
