
#######################################################################
#
#                 Cambridge Crystallographic Data Centre
#                                CCDC 
#
#######################################################################
#
# If this CIF has been generated from an entry in the Cambridge 
# Structural Database, then it will include bibliographic, chemical, 
# crystal, experimental, refinement or atomic coordinate data resulting 
# from the CCDC's data processing and validation procedures.
#
#######################################################################

data_OJUMIP
_chemical_formula_moiety         'C15 H8 F6 N2'
_chemical_name_systematic        
(2Z,4Z)-5-(2-Trifluoromethylphenyl)-4-cyano-3-trifluoromethyl-2-methyl-pentadienenitrile
_symmetry_cell_setting           orthorhombic
_symmetry_space_group_name_H-M   'P 21 21 21'
_symmetry_Int_Tables_number      19
_space_group_name_Hall           'P 2ac 2ab'
loop_
_symmetry_equiv_pos_site_id
_symmetry_equiv_pos_as_xyz
1 x,y,z
2 1/2-x,-y,1/2+z
3 1/2+x,1/2-y,-z
4 -x,1/2+y,1/2-z
_cell_length_a                   8.928(2)
_cell_length_b                   21.325(2)
_cell_length_c                   7.766(2)
_cell_angle_alpha                90
_cell_angle_beta                 90
_cell_angle_gamma                90
_cell_volume                     1478.57
_exptl_crystal_colour            colorless
_exptl_crystal_description       prismatic
_chemical_melting_point          '120-122 deg.C'
_cell_formula_units_Z            4
loop_
_atom_site_label
_atom_site_type_symbol
_atom_site_fract_x
_atom_site_fract_y
_atom_site_fract_z
F1 F 0.2023(4) 0.3555(2) 0.3535(5)
F2 F -0.0047(4) 0.4014(2) 0.3140(7)
F3 F 0.1228(4) 0.3691(2) 0.0996(5)
F4 F 0.8061(8) 0.2915(5) 0.473(1)
F5 F 0.653(2) 0.2381(2) 0.3665(9)
F6 F 0.5965(8) 0.3053(2) 0.5263(6)
N1 N 0.7055(6) 0.4687(2) 0.5143(7)
N2 N 0.8969(7) 0.2248(2) 0.0448(10)
C1 C 0.2097(5) 0.4591(2) 0.2417(6)
C2 C 0.1258(6) 0.5140(3) 0.2523(8)
C3 C 0.1933(7) 0.5709(3) 0.2427(8)
C4 C 0.3454(7) 0.5751(2) 0.2253(7)
C5 C 0.4324(5) 0.5218(2) 0.2134(7)
C6 C 0.3663(5) 0.4628(2) 0.2235(6)
C7 C 0.4592(5) 0.4065(2) 0.2072(7)
C8 C 0.5903(5) 0.3957(2) 0.2832(6)
C9 C 0.6782(5) 0.3366(2) 0.2523(7)
C10 C 0.7411(5) 0.3247(2) 0.1027(7)
C11 C 0.1334(6) 0.3968(3) 0.2527(8)
C12 C 0.6509(5) 0.4372(2) 0.4106(8)
C13 C 0.8235(7) 0.2666(3) 0.0760(9)
C14 C 0.7404(7) 0.3669(3) -0.0526(8)
C15 C 0.6861(8) 0.2936(3) 0.3993(9)
H1 H 0.0208 0.5108 0.2716
H2 H 0.1346 0.6089 0.2449
H3 H 0.3915 0.6158 0.2187
H4 H 0.5390 0.5243 0.2019
H5 H 0.4230 0.3746 0.1332
H6 H 0.6602 0.3563 -0.1281
H7 H 0.7271 0.4098 -0.0167
H8 H 0.8325 0.3639 -0.1133
loop_
_geom_bond_atom_site_label_1
_geom_bond_atom_site_label_2
_geom_bond_site_symmetry_1
_geom_bond_site_symmetry_2
F1 C11 1_555 1_555
F2 C11 1_555 1_555
F3 C11 1_555 1_555
F4 C15 1_555 1_555
F5 C15 1_555 1_555
F6 C15 1_555 1_555
N1 C12 1_555 1_555
N2 C13 1_555 1_555
C1 C2 1_555 1_555
C2 C3 1_555 1_555
C3 C4 1_555 1_555
C4 C5 1_555 1_555
C5 C6 1_555 1_555
C6 C1 1_555 1_555
C7 C6 1_555 1_555
C8 C7 1_555 1_555
C9 C8 1_555 1_555
C10 C9 1_555 1_555
C11 C1 1_555 1_555
C12 C8 1_555 1_555
C13 C10 1_555 1_555
C14 C10 1_555 1_555
C15 C9 1_555 1_555
H1 C2 1_555 1_555
H2 C3 1_555 1_555
H3 C4 1_555 1_555
H4 C5 1_555 1_555
H5 C7 1_555 1_555
H6 C14 1_555 1_555
H7 C14 1_555 1_555
H8 C14 1_555 1_555

#END
