
#######################################################################
#
#                 Cambridge Crystallographic Data Centre
#                                CCDC 
#
#######################################################################
#
# If this CIF has been generated from an entry in the Cambridge 
# Structural Database, then it will include bibliographic, chemical, 
# crystal, experimental, refinement or atomic coordinate data resulting 
# from the CCDC's data processing and validation procedures.
#
#######################################################################

data_OJUPOA
_chemical_formula_moiety         'C114 H60 O48'
_chemical_name_systematic        
hexakis(3,6,8,11-tetraoxo-2,5,9,12-tetraoxatridecan-7-ylidene)C60fullerene
_symmetry_cell_setting           rhombohedral
_symmetry_space_group_name_H-M   'R -3'
_symmetry_Int_Tables_number      148
_space_group_name_Hall           '-R 3'
loop_
_symmetry_equiv_pos_site_id
_symmetry_equiv_pos_as_xyz
1 x,y,z
2 -y,x-y,z
3 -x+y,-x,z
4 2/3+x,1/3+y,1/3+z
5 2/3-y,1/3+x-y,1/3+z
6 2/3-x+y,1/3-x,1/3+z
7 1/3+x,2/3+y,2/3+z
8 1/3-y,2/3+x-y,2/3+z
9 1/3-x+y,2/3-x,2/3+z
10 -x,-y,-z
11 y,-x+y,-z
12 x-y,x,-z
13 1/3-x,2/3-y,2/3-z
14 1/3+y,2/3-x+y,2/3-z
15 1/3+x-y,2/3+x,2/3-z
16 2/3-x,1/3-y,1/3-z
17 2/3+y,1/3-x+y,1/3-z
18 2/3+x-y,1/3+x,1/3-z
_cell_length_a                   20.6300(6)
_cell_length_b                   20.6300(6)
_cell_length_c                   17.5728(10)
_cell_angle_alpha                90
_cell_angle_beta                 90
_cell_angle_gamma                120
_cell_volume                     6476.94
_exptl_crystal_colour            yellow
_exptl_crystal_description       block
_cell_formula_units_Z            3
loop_
_atom_site_label
_atom_site_type_symbol
_atom_site_fract_x
_atom_site_fract_y
_atom_site_fract_z
C1 C 0.58838(13) 0.28664(14) 1.01892(13)
C2 C 0.61931(14) 0.36391(14) 1.01747(13)
C3 C 0.58711(14) 0.39919(14) 0.96927(13)
C4 C 0.52549(14) 0.35608(14) 0.92361(14)
C5 C 0.52346(14) 0.37861(14) 0.84753(14)
C6 C 0.58141(14) 0.44627(14) 0.82027(14)
C7 C 0.64510(14) 0.49013(14) 0.86721(14)
C8 C 0.64703(14) 0.46853(14) 0.94180(14)
C9 C 0.71773(14) 0.48290(14) 0.97954(14)
C10 C 0.60633(14) 0.45677(14) 0.73933(14)
C11 C 0.56168(14) 0.45278(14) 0.66899(14)
C12 C 0.60447(15) 0.49867(15) 0.59982(15)
C13 C 0.6822(2) 0.61990(18) 0.55297(19)
H1 H 0.6974 0.5934 0.5165
H2 H 0.7280 0.6645 0.5717
C14 C 0.6331(3) 0.6439(2) 0.5135(2)
C15 C 0.6337(3) 0.7273(3) 0.4211(3)
H3 H 0.5856 0.6895 0.3997
H4 H 0.6654 0.7606 0.3804
H5 H 0.6252 0.7567 0.4595
C16 C 0.48662(15) 0.44696(15) 0.68044(15)
C17 C 0.41103(18) 0.4946(2) 0.63966(18)
H6 H 0.3666 0.4438 0.6428
H7 H 0.4045 0.5209 0.5957
O1 O 0.4730(4) 0.5632(5) 0.7523(5)
C18 C 0.4189(10) 0.5374(15) 0.7123(10)
O2 O 0.3580(3) 0.5434(3) 0.7239(4)
C19 C 0.3561(5) 0.5732(5) 0.7969(6)
H8 H 0.3158 0.5853 0.7978
H9 H 0.4041 0.6187 0.8065
H10 H 0.3471 0.5360 0.8363
O3 O 0.60351(14) 0.47165(12) 0.53948(12)
O4 O 0.64290(12) 0.57113(11) 0.61604(12)
O5 O 0.57002(18) 0.62607(18) 0.5317(2)
O6 O 0.6711(2) 0.69018(17) 0.45657(16)
O7 O 0.44169(12) 0.40815(12) 0.72653(13)
O8 O 0.47759(13) 0.48969(14) 0.63000(12)
C1A C 0.71336(14) 0.30174(19) 1.01892(13)
C2A C 0.63609(14) 0.25540(20) 1.01747(13)
C3A C 0.60081(14) 0.18792(20) 0.96927(13)
C4A C 0.64392(14) 0.16941(20) 0.92361(14)
C5A C 0.62139(14) 0.14485(20) 0.84753(14)
C6A C 0.55373(14) 0.13514(20) 0.82027(14)
C7A C 0.50987(14) 0.15497(20) 0.86721(14)
C8A C 0.53147(14) 0.17850(20) 0.94180(14)
C9A C 0.51710(14) 0.23483(20) 0.97954(14)
C10A C 0.54323(14) 0.14956(20) 0.73933(14)
C11A C 0.54722(14) 0.10890(20) 0.66899(14)
C12A C 0.50133(15) 0.10580(21) 0.59982(15)
C13A C 0.38010(18) 0.06230(27) 0.55297(19)
H1A H 0.4066 0.1040 0.5165
H2A H 0.3355 0.0635 0.5717
C14A C 0.3561(2) -0.0108(4) 0.5135(2)
C15A C 0.2727(3) -0.0936(4) 0.4211(3)
H3A H 0.3105 -0.1039 0.3997
H4A H 0.2394 -0.0952 0.3804
H5A H 0.2433 -0.1315 0.4595
C16A C 0.55304(15) 0.03966(21) 0.68044(15)
C17A C 0.5054(2) -0.08357(27) 0.63966(18)
H6A H 0.5562 -0.0772 0.6428
H7A H 0.4791 -0.1164 0.5957
O1A O 0.4368(5) -0.0902(6) 0.7523(5)
C18A C 0.4626(15) -0.1185(18) 0.7123(10)
O2A O 0.4566(3) -0.1854(4) 0.7239(4)
C19A C 0.4268(5) -0.2171(7) 0.7969(6)
H8A H 0.4147 -0.2695 0.7978
H9A H 0.3813 -0.2146 0.8065
H10A H 0.4640 -0.1889 0.8363
O3A O 0.52835(12) 0.13186(18) 0.53948(12)
O4A O 0.42887(11) 0.07177(16) 0.61604(12)
O5A O 0.37393(18) -0.05605(25) 0.5317(2)
O6A O 0.30982(17) -0.01908(26) 0.45657(16)
O7A O 0.59185(12) 0.03354(17) 0.72653(13)
O8A O 0.51031(14) -0.01210(19) 0.63000(12)
C1B C 0.69826(19) 0.41162(13) 1.01892(13)
C2B C 0.74460(20) 0.38069(14) 1.01747(13)
C3B C 0.81208(20) 0.41289(14) 0.96927(13)
C4B C 0.83059(20) 0.47451(14) 0.92361(14)
C5B C 0.85515(20) 0.47654(14) 0.84753(14)
C6B C 0.86486(20) 0.41859(14) 0.82027(14)
C7B C 0.84503(20) 0.35490(14) 0.86721(14)
C8B C 0.82150(20) 0.35297(14) 0.94180(14)
C9B C 0.76517(20) 0.28227(14) 0.97954(14)
C10B C 0.85044(20) 0.39367(14) 0.73933(14)
C11B C 0.89110(20) 0.43832(14) 0.66899(14)
C12B C 0.89420(21) 0.39553(15) 0.59982(15)
C13B C 0.93770(27) 0.3178(2) 0.55297(19)
H1B H 0.8960 0.3026 0.5165
H2B H 0.9365 0.2720 0.5717
C14B C 1.0108(4) 0.3669(3) 0.5135(2)
C15B C 1.0936(4) 0.3663(3) 0.4211(3)
H3B H 1.1039 0.4144 0.3997
H4B H 1.0952 0.3346 0.3804
H5B H 1.1315 0.3748 0.4595
C16B C 0.96034(21) 0.51338(15) 0.68044(15)
C17B C 1.08357(27) 0.58897(18) 0.63966(18)
H6B H 1.0772 0.6334 0.6428
H7B H 1.1164 0.5955 0.5957
O1B O 1.0902(6) 0.5270(4) 0.7523(5)
C18B C 1.1185(18) 0.5811(10) 0.7123(10)
O2B O 1.1854(4) 0.6420(3) 0.7239(4)
C19B C 1.2171(7) 0.6439(5) 0.7969(6)
H8B H 1.2695 0.6842 0.7978
H9B H 1.2146 0.5959 0.8065
H10B H 1.1889 0.6529 0.8363
O3B O 0.86814(18) 0.39649(14) 0.53948(12)
O4B O 0.92823(16) 0.35710(12) 0.61604(12)
O5B O 1.05605(25) 0.42998(18) 0.5317(2)
O6B O 1.01908(26) 0.3289(2) 0.45657(16)
O7B O 0.96646(17) 0.55831(12) 0.72653(13)
O8B O 1.01210(19) 0.52241(13) 0.63000(12)
C1L C 0.74495(13) 0.38003(14) 0.64775(13)
C2L C 0.71402(14) 0.30276(14) 0.64920(13)
C3L C 0.74622(14) 0.26748(14) 0.69740(13)
C4L C 0.80784(14) 0.31059(14) 0.74306(14)
C5L C 0.80987(14) 0.28806(14) 0.81914(14)
C6L C 0.75192(14) 0.22040(14) 0.84640(14)
C7L C 0.68823(14) 0.17654(14) 0.79946(14)
C8L C 0.68630(14) 0.19814(14) 0.72487(14)
C9L C 0.61560(14) 0.18377(14) 0.68713(14)
C10L C 0.72700(14) 0.20990(14) 0.92734(14)
C11L C 0.77165(14) 0.21389(14) 0.99768(14)
C12L C 0.72886(15) 0.16800(15) 1.06685(15)
C13L C 0.6511(2) 0.04677(18) 1.11370(19)
H1L H 0.6359 0.0733 1.1502
H2L H 0.6053 0.0022 1.0950
C14L C 0.7002(3) 0.0228(2) 1.1532(2)
C15L C 0.6996(3) -0.0606(3) 1.2456(3)
H3L H 0.7477 -0.0228 1.2670
H4L H 0.6679 -0.0939 1.2863
H5L H 0.7081 -0.0900 1.2072
C16L C 0.84671(15) 0.21971(15) 0.98623(15)
C17L C 0.92230(18) 0.1721(2) 1.02701(18)
H6L H 0.9667 0.2229 1.0239
H7L H 0.9288 0.1458 1.0710
O1L O 0.8603(4) 0.1035(5) 0.9144(5)
C18L C 0.9144(10) 0.1293(15) 0.9544(10)
O2L O 0.9753(3) 0.1233(3) 0.9428(4)
C19L C 0.9772(5) 0.0935(5) 0.8698(6)
H8L H 1.0175 0.0814 0.8689
H9L H 0.9292 0.0480 0.8602
H10L H 0.9862 0.1307 0.8304
O3L O 0.72982(14) 0.19502(12) 1.12719(12)
O4L O 0.69043(12) 0.09554(11) 1.05063(12)
O5L O 0.76331(18) 0.04060(18) 1.1350(2)
O6L O 0.6622(2) -0.02351(17) 1.21010(16)
O7L O 0.89164(12) 0.25852(12) 0.94014(13)
O8L O 0.85574(13) 0.17698(14) 1.03667(12)
C1M C 0.61997(14) 0.36493(19) 0.64775(13)
C2M C 0.69724(14) 0.41127(20) 0.64920(13)
C3M C 0.73252(14) 0.47875(20) 0.69740(13)
C4M C 0.68941(14) 0.49726(20) 0.74306(14)
C5M C 0.71194(14) 0.52182(20) 0.81914(14)
C6M C 0.77960(14) 0.53153(20) 0.84640(14)
C7M C 0.82346(14) 0.51170(20) 0.79946(14)
C8M C 0.80186(14) 0.48817(20) 0.72487(14)
C9M C 0.81623(14) 0.43184(20) 0.68713(14)
C10M C 0.79010(14) 0.51711(20) 0.92734(14)
C11M C 0.78611(14) 0.55777(20) 0.99768(14)
C12M C 0.83200(15) 0.56087(21) 1.06685(15)
C13M C 0.95323(18) 0.60437(27) 1.11370(19)
H1M H 0.9267 0.5627 1.1502
H2M H 0.9978 0.6032 1.0950
C14M C 0.9772(2) 0.6775(4) 1.1532(2)
C15M C 1.0606(3) 0.7603(4) 1.2456(3)
H3M H 1.0228 0.7706 1.2670
H4M H 1.0939 0.7619 1.2863
H5M H 1.0900 0.7982 1.2072
C16M C 0.78029(15) 0.62701(21) 0.98623(15)
C17M C 0.8279(2) 0.75024(27) 1.02701(18)
H6M H 0.7771 0.7439 1.0239
H7M H 0.8542 0.7831 1.0710
O1M O 0.8965(5) 0.7569(6) 0.9144(5)
C18M C 0.8707(15) 0.7852(18) 0.9544(10)
O2M O 0.8767(3) 0.8521(4) 0.9428(4)
C19M C 0.9065(5) 0.8838(7) 0.8698(6)
H8M H 0.9186 0.9362 0.8689
H9M H 0.9520 0.8813 0.8602
H10M H 0.8693 0.8556 0.8304
O3M O 0.80498(12) 0.53481(18) 1.12719(12)
O4M O 0.90446(11) 0.59490(16) 1.05063(12)
O5M O 0.95940(18) 0.72272(25) 1.1350(2)
O6M O 1.02351(17) 0.68575(26) 1.21010(16)
O7M O 0.74148(12) 0.63313(17) 0.94014(13)
O8M O 0.82302(14) 0.67877(19) 1.03667(12)
C1N C 0.63507(19) 0.25505(13) 0.64775(13)
C2N C 0.58873(20) 0.28598(14) 0.64920(13)
C3N C 0.52125(20) 0.25378(14) 0.69740(13)
C4N C 0.50274(20) 0.19216(14) 0.74306(14)
C5N C 0.47818(20) 0.19013(14) 0.81914(14)
C6N C 0.46847(20) 0.24808(14) 0.84640(14)
C7N C 0.48830(20) 0.31177(14) 0.79946(14)
C8N C 0.51183(20) 0.31370(14) 0.72487(14)
C9N C 0.56816(20) 0.38440(14) 0.68713(14)
C10N C 0.48289(20) 0.27300(14) 0.92734(14)
C11N C 0.44223(20) 0.22835(14) 0.99768(14)
C12N C 0.43913(21) 0.27114(15) 1.06685(15)
C13N C 0.39563(27) 0.3489(2) 1.11370(19)
H1N H 0.4373 0.3641 1.1502
H2N H 0.3968 0.3947 1.0950
C14N C 0.3225(4) 0.2998(3) 1.1532(2)
C15N C 0.2397(4) 0.3004(3) 1.2456(3)
H3N H 0.2294 0.2523 1.2670
H4N H 0.2381 0.3321 1.2863
H5N H 0.2018 0.2919 1.2072
C16N C 0.37299(21) 0.15329(15) 0.98623(15)
C17N C 0.24976(27) 0.07770(18) 1.02701(18)
H6N H 0.2561 0.0333 1.0239
H7N H 0.2169 0.0712 1.0710
O1N O 0.2431(6) 0.1397(4) 0.9144(5)
C18N C 0.2148(18) 0.0856(10) 0.9544(10)
O2N O 0.1479(4) 0.0247(3) 0.9428(4)
C19N C 0.1162(7) 0.0228(5) 0.8698(6)
H8N H 0.0638 -0.0175 0.8689
H9N H 0.1187 0.0708 0.8602
H10N H 0.1444 0.0138 0.8304
O3N O 0.46519(18) 0.27018(14) 1.12719(12)
O4N O 0.40510(16) 0.30957(12) 1.05063(12)
O5N O 0.27728(25) 0.23669(18) 1.1350(2)
O6N O 0.31425(26) 0.3378(2) 1.21010(16)
O7N O 0.36687(17) 0.10836(12) 0.94014(13)
O8N O 0.32123(19) 0.14426(13) 1.03667(12)
H11? H 0.3680 0.4434 0.6467
H12? H 0.4022 0.5151 0.5923
O9? O 0.4557(13) 0.5657(19) 0.7567(17)
C20? C 0.413(3) 0.541(5) 0.704(3)
O10? O 0.3530(10) 0.5494(10) 0.6935(10)
C21? C 0.3506(14) 0.5980(13) 0.7503(17)
H13? H 0.3689 0.6479 0.7285
H14? H 0.3824 0.6014 0.7933
H15? H 0.2990 0.5779 0.7678
loop_
_geom_bond_atom_site_label_1
_geom_bond_atom_site_label_2
_geom_bond_site_symmetry_1
_geom_bond_site_symmetry_2
C1 C2 1_555 1_555
C2 C3 1_555 1_555
C3 C4 1_555 1_555
C4 C5 1_555 1_555
C5 C6 1_555 1_555
C6 C7 1_555 1_555
C7 C8 1_555 1_555
C8 C3 1_555 1_555
C9 C8 1_555 1_555
C10 C6 1_555 1_555
C11 C10 1_555 1_555
C12 C11 1_555 1_555
C13 H1 1_555 1_555
H2 C13 1_555 1_555
C14 C13 1_555 1_555
C15 H3 1_555 1_555
H4 C15 1_555 1_555
H5 C15 1_555 1_555
C16 C11 1_555 1_555
C17 H6 1_555 1_555
H7 C17 1_555 1_555
O1 C18 1_555 1_555
C18 C17 1_555 1_555
O2 C18 1_555 1_555
C19 O2 1_555 1_555
H8 C19 1_555 1_555
H9 C19 1_555 1_555
H10 C19 1_555 1_555
O3 C12 1_555 1_555
O4 C12 1_555 1_555
O5 C14 1_555 1_555
O6 C14 1_555 1_555
O7 C16 1_555 1_555
O8 C16 1_555 1_555
C1A C2A 1_555 1_555
C2A C1 1_555 1_555
C3A C2A 1_555 1_555
C4A C3A 1_555 1_555
C5A C4A 1_555 1_555
C6A C5A 1_555 1_555
C7A C6A 1_555 1_555
C8A C3A 1_555 1_555
C9A C1 1_555 1_555
C10A C6A 1_555 1_555
C11A C10A 1_555 1_555
C12A C11A 1_555 1_555
C13A H1A 1_555 1_555
H2A C13A 1_555 1_555
C14A C13A 1_555 1_555
C15A H3A 1_555 1_555
H4A C15A 1_555 1_555
H5A C15A 1_555 1_555
C16A C11A 1_555 1_555
C17A H6A 1_555 1_555
H7A C17A 1_555 1_555
O1A C18A 1_555 1_555
C18A C17A 1_555 1_555
O2A C18A 1_555 1_555
C19A O2A 1_555 1_555
H8A C19A 1_555 1_555
H9A C19A 1_555 1_555
H10A C19A 1_555 1_555
O3A C12A 1_555 1_555
O4A C12A 1_555 1_555
O5A C14A 1_555 1_555
O6A C14A 1_555 1_555
O7A C16A 1_555 1_555
O8A C16A 1_555 1_555
C1B C2 1_555 1_555
C2B C1A 1_555 1_555
C3B C2B 1_555 1_555
C4B C3B 1_555 1_555
C5B C4B 1_555 1_555
C6B C5B 1_555 1_555
C7B C6B 1_555 1_555
C8B C3B 1_555 1_555
C9B C1A 1_555 1_555
C10B C6B 1_555 1_555
C11B C10B 1_555 1_555
C12B C11B 1_555 1_555
C13B H1B 1_555 1_555
H2B C13B 1_555 1_555
C14B C13B 1_555 1_555
C15B H3B 1_555 1_555
H4B C15B 1_555 1_555
H5B C15B 1_555 1_555
C16B C11B 1_555 1_555
C17B H6B 1_555 1_555
H7B C17B 1_555 1_555
O1B C18B 1_555 1_555
C18B C17B 1_555 1_555
O2B C18B 1_555 1_555
C19B O2B 1_555 1_555
H8B C19B 1_555 1_555
H9B C19B 1_555 1_555
H10B C19B 1_555 1_555
O3B C12B 1_555 1_555
O4B C12B 1_555 1_555
O5B C14B 1_555 1_555
O6B C14B 1_555 1_555
O7B C16B 1_555 1_555
O8B C16B 1_555 1_555
C1L C2L 1_555 1_555
C2L C3L 1_555 1_555
C3L C4L 1_555 1_555
C4L C10B 1_555 1_555
C5L C7B 1_555 1_555
C6L C5L 1_555 1_555
C7L C5A 1_555 1_555
C8L C3L 1_555 1_555
C9L C10A 1_555 1_555
C10L C4A 1_555 1_555
C11L C9B 1_555 1_555
C12L C11L 1_555 1_555
C13L H1L 1_555 1_555
H2L C13L 1_555 1_555
C14L C13L 1_555 1_555
C15L H3L 1_555 1_555
H4L C15L 1_555 1_555
H5L C15L 1_555 1_555
C16L C11L 1_555 1_555
C17L H6L 1_555 1_555
H7L C17L 1_555 1_555
O1L C18L 1_555 1_555
C18L C17L 1_555 1_555
O2L C18L 1_555 1_555
C19L O2L 1_555 1_555
H8L C19L 1_555 1_555
H9L C19L 1_555 1_555
H10L C19L 1_555 1_555
O3L C12L 1_555 1_555
O4L C12L 1_555 1_555
O5L C14L 1_555 1_555
O6L C14L 1_555 1_555
O7L C16L 1_555 1_555
O8L C16L 1_555 1_555
C1M C2M 1_555 1_555
C2M C1L 1_555 1_555
C3M C2M 1_555 1_555
C4M C10 1_555 1_555
C5M C7 1_555 1_555
C6M C5M 1_555 1_555
C7M C5B 1_555 1_555
C8M C3M 1_555 1_555
C9M C10B 1_555 1_555
C10M C9 1_555 1_555
C11M C9 1_555 1_555
C12M C11M 1_555 1_555
C13M H1M 1_555 1_555
H2M C13M 1_555 1_555
C14M C13M 1_555 1_555
C15M H3M 1_555 1_555
H4M C15M 1_555 1_555
H5M C15M 1_555 1_555
C16M C11M 1_555 1_555
C17M H6M 1_555 1_555
H7M C17M 1_555 1_555
O1M C18M 1_555 1_555
C18M C17M 1_555 1_555
O2M C18M 1_555 1_555
C19M O2M 1_555 1_555
H8M C19M 1_555 1_555
H9M C19M 1_555 1_555
H10M C19M 1_555 1_555
O3M C12M 1_555 1_555
O4M C12M 1_555 1_555
O5M C14M 1_555 1_555
O6M C14M 1_555 1_555
O7M C16M 1_555 1_555
O8M C16M 1_555 1_555
C1N C2L 1_555 1_555
C2N C1M 1_555 1_555
C3N C2N 1_555 1_555
C4N C10A 1_555 1_555
C5N C7A 1_555 1_555
C6N C5N 1_555 1_555
C7N C5 1_555 1_555
C8N C3N 1_555 1_555
C9N C10 1_555 1_555
C10N C4 1_555 1_555
C11N C9A 1_555 1_555
C12N C11N 1_555 1_555
C13N H1N 1_555 1_555
H2N C13N 1_555 1_555
C14N C13N 1_555 1_555
C15N H3N 1_555 1_555
H4N C15N 1_555 1_555
H5N C15N 1_555 1_555
C16N C11N 1_555 1_555
C17N H6N 1_555 1_555
H7N C17N 1_555 1_555
O1N C18N 1_555 1_555
C18N C17N 1_555 1_555
O2N C18N 1_555 1_555
C19N O2N 1_555 1_555
H8N C19N 1_555 1_555
H9N C19N 1_555 1_555
H10N C19N 1_555 1_555
O3N C12N 1_555 1_555
O4N C12N 1_555 1_555
O5N C14N 1_555 1_555
O6N C14N 1_555 1_555
O7N C16N 1_555 1_555
O8N C16N 1_555 1_555
C9 C1B 1_555 1_555
C11 C9N 1_555 1_555
C13 O4 1_555 1_555
C15 O6 1_555 1_555
C17 O8 1_555 1_555
C7A C8A 1_555 1_555
C8A C9A 1_555 1_555
C9A C10N 1_555 1_555
C11A C9L 1_555 1_555
C13A O4A 1_555 1_555
C15A O6A 1_555 1_555
C17A O8A 1_555 1_555
C1B C2B 1_555 1_555
C4B C10M 1_555 1_555
C7B C8B 1_555 1_555
C8B C9B 1_555 1_555
C9B C10L 1_555 1_555
C11B C9M 1_555 1_555
C13B O4B 1_555 1_555
C15B O6B 1_555 1_555
C17B O8B 1_555 1_555
C1L C9M 1_555 1_555
C4L C5L 1_555 1_555
C6L C7L 1_555 1_555
C6L C10L 1_555 1_555
C7L C8L 1_555 1_555
C8L C9L 1_555 1_555
C9L C1N 1_555 1_555
C10L C11L 1_555 1_555
C13L O4L 1_555 1_555
C15L O6L 1_555 1_555
C17L O8L 1_555 1_555
C1M C9N 1_555 1_555
C3M C4M 1_555 1_555
C4M C5M 1_555 1_555
C6M C7M 1_555 1_555
C6M C10M 1_555 1_555
C7M C8M 1_555 1_555
C8M C9M 1_555 1_555
C10M C11M 1_555 1_555
C13M O4M 1_555 1_555
C15M O6M 1_555 1_555
C17M O8M 1_555 1_555
C1N C2N 1_555 1_555
C3N C4N 1_555 1_555
C4N C5N 1_555 1_555
C6N C7N 1_555 1_555
C6N C10N 1_555 1_555
C7N C8N 1_555 1_555
C8N C9N 1_555 1_555
C10N C11N 1_555 1_555
C13N O4N 1_555 1_555
C15N O6N 1_555 1_555
C17N O8N 1_555 1_555

#END
