
#######################################################################
#
#                 Cambridge Crystallographic Data Centre
#                                CCDC 
#
#######################################################################
#
# If this CIF has been generated from an entry in the Cambridge 
# Structural Database, then it will include bibliographic, chemical, 
# crystal, experimental, refinement or atomic coordinate data resulting 
# from the CCDC's data processing and validation procedures.
#
#######################################################################

data_OJUSIV
_chemical_formula_moiety         'C18 H14 S14'
_chemical_name_systematic        
1,2-bis((4',5'-(Ethylenedithio)tetrathiafulvalen-4-yl)sulfanyl)ethane
_symmetry_cell_setting           triclinic
_symmetry_space_group_name_H-M   'P -1'
_symmetry_Int_Tables_number      2
_space_group_name_Hall           '-P 1'
loop_
_symmetry_equiv_pos_site_id
_symmetry_equiv_pos_as_xyz
1 x,y,z
2 -x,-y,-z
_cell_length_a                   5.3620(11)
_cell_length_b                   6.1450(12)
_cell_length_c                   20.668(4)
_cell_angle_alpha                86.23(3)
_cell_angle_beta                 88.20(3)
_cell_angle_gamma                68.40(3)
_cell_volume                     631.789
_exptl_crystal_colour            orange
_exptl_crystal_description       plate
_cell_formula_units_Z            1
_exptl_crystal_recrystallization_method chlorobenzene
loop_
_atom_site_label
_atom_site_type_symbol
_atom_site_fract_x
_atom_site_fract_y
_atom_site_fract_z
S1 S 0.72313(16) 0.65855(14) 0.43154(4)
S2 S 0.33977(15) 0.63945(12) 0.32993(4)
S3 S -0.01565(16) 1.13497(13) 0.34332(4)
S4 S -0.39995(17) 1.10569(13) 0.23310(4)
S5 S -0.06995(16) 0.60929(12) 0.21627(4)
S6 S -0.29978(16) 0.61798(14) 0.08393(4)
S7 S -0.65064(19) 1.17997(13) 0.10297(4)
C1 C 0.6234(6) 0.4443(5) 0.47960(14)
H1 H 0.5894 0.3402 0.4507
H2 H 0.7702 0.3503 0.5077
C2 C 0.4316(6) 0.8005(5) 0.38624(13)
C3 C 0.2677(7) 1.0222(5) 0.39176(14)
H3 H 0.3043 1.1151 0.4210
C4 C 0.0516(6) 0.8741(5) 0.30335(13)
C5 C -0.1130(6) 0.8633(5) 0.25666(14)
C6 C -0.4246(6) 0.9935(5) 0.15850(13)
C7 C -0.2761(6) 0.7675(5) 0.15097(13)
C8 C -0.6544(7) 0.7484(6) 0.0697(2)
H4 H -0.6850 0.7027 0.0275
H5 H -0.7396 0.6742 0.1014
C9 C -0.7962(8) 0.9923(6) 0.0710(3)
H6 H -0.9611 1.0143 0.0950
H7 H -0.8470 1.0502 0.0266
C1A C 0.3766(6) 0.5557(5) 0.52040(14)
S1A S 0.27687(16) 0.34145(14) 0.56846(4)
C2A C 0.5684(6) 0.1995(5) 0.61376(13)
S2A S 0.66023(15) 0.36055(12) 0.67007(4)
C4A C 0.9484(6) 0.1259(5) 0.69665(13)
S3A S 1.01565(16) -0.13497(13) 0.65668(4)
C3A C 0.7323(7) -0.0222(5) 0.60824(14)
H3A H 0.6957 -0.1151 0.5790
C5A C 1.1130(6) 0.1367(5) 0.74334(14)
S4A S 1.39995(17) -0.10569(13) 0.76690(4)
C6A C 1.4246(6) 0.0065(5) 0.84150(13)
S7A S 1.65064(19) -0.17997(13) 0.89703(4)
C9A C 1.7962(8) 0.0077(6) 0.9290(3)
C8A C 1.6544(7) 0.2516(6) 0.9303(2)
S6A S 1.29978(16) 0.38202(14) 0.91607(4)
C7A C 1.2761(6) 0.2325(5) 0.84903(13)
S5A S 1.06995(16) 0.39071(12) 0.78373(4)
H4A H 1.6850 0.2973 0.9725
H5A H 1.7396 0.3258 0.8986
H6A H 1.9611 -0.0143 0.9050
H7A H 1.8470 -0.0502 0.9734
H1A H 0.4106 0.6598 0.5493
H2A H 0.2298 0.6497 0.4923
loop_
_geom_bond_atom_site_label_1
_geom_bond_atom_site_label_2
_geom_bond_site_symmetry_1
_geom_bond_site_symmetry_2
S1 C1 1_555 1_555
S2 C2 1_555 1_555
S3 C3 1_555 1_555
S4 C5 1_555 1_555
S5 C5 1_555 1_555
S6 C7 1_555 1_555
S7 C6 1_555 1_555
C1 H1 1_555 1_555
H2 C1 1_555 1_555
C2 S1 1_555 1_555
C3 C2 1_555 1_555
H3 C3 1_555 1_555
C4 S2 1_555 1_555
C5 C4 1_555 1_555
C6 S4 1_555 1_555
C7 S5 1_555 1_555
C8 S6 1_555 1_555
H4 C8 1_555 1_555
H5 C8 1_555 1_555
C9 S7 1_555 1_555
H6 C9 1_555 1_555
H7 C9 1_555 1_555
C1A C1 1_555 1_555
S1A C1A 1_555 1_555
C2A S1A 1_555 1_555
S2A C2A 1_555 1_555
C4A S2A 1_555 1_555
S3A C4A 1_555 1_555
C3A C2A 1_555 1_555
H3A C3A 1_555 1_555
C5A C4A 1_555 1_555
S4A C5A 1_555 1_555
C6A S4A 1_555 1_555
S7A C6A 1_555 1_555
C9A S7A 1_555 1_555
C8A C9A 1_555 1_555
S6A C8A 1_555 1_555
C7A C6A 1_555 1_555
S5A C5A 1_555 1_555
H4A C8A 1_555 1_555
H5A C8A 1_555 1_555
H6A C9A 1_555 1_555
H7A C9A 1_555 1_555
H1A C1A 1_555 1_555
H2A C1A 1_555 1_555
S3 C4 1_555 1_555
C6 C7 1_555 1_555
C8 C9 1_555 1_555
S3A C3A 1_555 1_555
S6A C7A 1_555 1_555
C7A S5A 1_555 1_555

#END
