
#######################################################################
#
#                 Cambridge Crystallographic Data Centre
#                                CCDC 
#
#######################################################################
#
# If this CIF has been generated from an entry in the Cambridge 
# Structural Database, then it will include bibliographic, chemical, 
# crystal, experimental, refinement or atomic coordinate data resulting 
# from the CCDC's data processing and validation procedures.
#
#######################################################################

data_OJUTES
_chemical_formula_moiety         'C18 H14 S14 1+,B1 F4 1-'
_chemical_name_systematic        
"1,2-bis((4',5'-(Ethylenedithio)tetrathiafulvalen-4-yl)sulfanyl)ethane tetrafluoroborate"
_symmetry_cell_setting           monoclinic
_symmetry_space_group_name_H-M   'P 21/n'
_symmetry_Int_Tables_number      14
_space_group_name_Hall           '-P 2yn'
loop_
_symmetry_equiv_pos_site_id
_symmetry_equiv_pos_as_xyz
1 x,y,z
2 1/2+x,1/2-y,1/2+z
3 -x,-y,-z
4 1/2-x,1/2+y,1/2-z
_cell_length_a                   7.5666(15)
_cell_length_b                   28.340(6)
_cell_length_c                   13.239(3)
_cell_angle_alpha                90
_cell_angle_beta                 104.09(3)
_cell_angle_gamma                90
_cell_volume                     2753.53
_exptl_crystal_colour            black
_exptl_crystal_description       plate
_cell_formula_units_Z            4
loop_
_atom_site_label
_atom_site_type_symbol
_atom_site_fract_x
_atom_site_fract_y
_atom_site_fract_z
S1 S 0.00729(13) 0.12894(3) -0.08526(7)
S2 S 0.12635(13) 0.12503(3) 0.18679(7)
S3 S 0.27217(13) 0.03178(3) 0.15827(7)
S4 S 0.16956(12) 0.03304(3) -0.07052(7)
S5 S 0.34006(12) -0.07244(3) -0.07260(7)
S6 S 0.44439(12) -0.07162(3) 0.15626(7)
S7 S 0.60829(13) -0.16922(3) 0.17059(7)
S8 S 0.53742(12) -0.12820(3) 0.40116(7)
S9 S 0.33230(12) -0.04180(3) 0.40840(7)
S10 S -0.03189(11) -0.08363(3) 0.33206(7)
S11 S 0.15445(12) 0.05916(3) 0.42211(7)
S12 S -0.21292(12) 0.02008(3) 0.34068(6)
S13 S -0.40509(13) 0.11046(3) 0.32465(7)
S14 S 0.03644(13) 0.15785(3) 0.42767(7)
C1 C 0.0847(5) 0.17756(12) 0.0017(3)
H1 H 0.2167 0.1790 0.0171
H2 H 0.0375 0.2067 -0.0329
C2 C 0.0260(5) 0.17376(13) 0.1034(2)
H3 H -0.1055 0.1706 0.0873
H4 H 0.0573 0.2030 0.1418
C3 C 0.1574(4) 0.08197(12) 0.0987(2)
C4 C 0.1113(4) 0.08246(12) -0.0063(3)
C5 C 0.2642(4) 0.00147(13) 0.0420(3)
C6 C 0.3368(4) -0.04242(13) 0.0416(3)
C7 C 0.4438(4) -0.12267(12) -0.0104(3)
H5 H 0.4661 -0.1486 -0.0486
C8 C 0.4912(4) -0.12332(12) 0.0940(3)
C9 C 0.4331(5) -0.19072(13) 0.2327(2)
H6 H 0.3225 -0.1726 0.2070
H7 H 0.4064 -0.2234 0.2131
C10 C 0.4885(5) -0.18725(12) 0.3513(3)
H8 H 0.5956 -0.2067 0.3769
H9 H 0.3911 -0.2001 0.3789
C11 C 0.3212(4) -0.10222(12) 0.3809(2)
C12 C 0.1546(4) -0.12097(12) 0.3471(2)
H10 H 0.1393 -0.1530 0.3323
C13 C 0.0971(5) -0.03332(12) 0.3740(2)
C14 C 0.0212(4) 0.00992(12) 0.3788(2)
C15 C -0.0279(5) 0.09930(12) 0.3979(2)
C16 C -0.1949(5) 0.08104(12) 0.3607(2)
C17 C -0.3419(5) 0.16750(12) 0.3827(3)
H11 H -0.4416 0.1894 0.3578
H12 H -0.3230 0.1649 0.4576
C18 C -0.1697(5) 0.18754(12) 0.3584(3)
H13 H -0.1604 0.2208 0.3763
H14 H -0.1799 0.1850 0.2841
B1 B 0.0052(6) -0.25234(17) 0.3430(4)
F1 F -0.1614(3) -0.24569(12) 0.3557(3)
F2 F 0.0244(4) -0.22997(9) 0.25271(19)
F3 F 0.1374(3) -0.23384(7) 0.42623(15)
F4 F 0.0363(3) -0.29977(7) 0.33503(15)
loop_
_geom_bond_atom_site_label_1
_geom_bond_atom_site_label_2
_geom_bond_site_symmetry_1
_geom_bond_site_symmetry_2
S1 C1 1_555 1_555
S2 C2 1_555 1_555
S3 C3 1_555 1_555
S4 C4 1_555 1_555
S5 C6 1_555 1_555
S6 C6 1_555 1_555
S7 C8 1_555 1_555
S8 C10 1_555 1_555
S9 C11 1_555 1_555
S10 C12 1_555 1_555
S11 C14 1_555 1_555
S12 C14 1_555 1_555
S13 C16 1_555 1_555
S14 C15 1_555 1_555
C1 H1 1_555 1_555
H2 C1 1_555 1_555
C2 C1 1_555 1_555
H3 C2 1_555 1_555
H4 C2 1_555 1_555
C3 S2 1_555 1_555
C4 S1 1_555 1_555
C5 S3 1_555 1_555
C6 C5 1_555 1_555
C7 S5 1_555 1_555
H5 C7 1_555 1_555
C8 S6 1_555 1_555
C9 S7 1_555 1_555
H6 C9 1_555 1_555
H7 C9 1_555 1_555
C10 C9 1_555 1_555
H8 C10 1_555 1_555
H9 C10 1_555 1_555
C11 S8 1_555 1_555
C12 C11 1_555 1_555
H10 C12 1_555 1_555
C13 S9 1_555 1_555
C14 C13 1_555 1_555
C15 S11 1_555 1_555
C16 S12 1_555 1_555
C17 S13 1_555 1_555
H11 C17 1_555 1_555
H12 C17 1_555 1_555
C18 S14 1_555 1_555
H13 C18 1_555 1_555
H14 C18 1_555 1_555
B1 F1 1_555 1_555
F2 B1 1_555 1_555
F3 B1 1_555 1_555
F4 B1 1_555 1_555
S4 C5 1_555 1_555
S10 C13 1_555 1_555
C3 C4 1_555 1_555
C7 C8 1_555 1_555
C15 C16 1_555 1_555
C17 C18 1_555 1_555

#END
