
#######################################################################
#
#                 Cambridge Crystallographic Data Centre
#                                CCDC 
#
#######################################################################
#
# If this CIF has been generated from an entry in the Cambridge 
# Structural Database, then it will include bibliographic, chemical, 
# crystal, experimental, refinement or atomic coordinate data resulting 
# from the CCDC's data processing and validation procedures.
#
#######################################################################

data_OJUXOG
_chemical_formula_moiety         'C52 H48 P2 S2,2(C6 H6)'
_chemical_name_systematic        
"4,4'-Di-t-butyl-4,4',5,5'-tetrahydro-3H,3'H-3,3'-bi(dinaphtho(2,1-c:1',2'-e)phosphepine) 4,4'-disulfide benzene solvate"
_symmetry_cell_setting           monoclinic
_symmetry_space_group_name_H-M   'P 21'
_symmetry_Int_Tables_number      4
_space_group_name_Hall           'P 2yb'
loop_
_symmetry_equiv_pos_site_id
_symmetry_equiv_pos_as_xyz
1 x,y,z
2 -x,1/2+y,-z
_cell_length_a                   12.7131(17)
_cell_length_b                   10.8181(14)
_cell_length_c                   18.607(2)
_cell_angle_alpha                90
_cell_angle_beta                 98.755(3)
_cell_angle_gamma                90
_cell_volume                     2529.23
_exptl_crystal_description       brick
_cell_formula_units_Z            2
loop_
_atom_site_label
_atom_site_type_symbol
_atom_site_fract_x
_atom_site_fract_y
_atom_site_fract_z
P1 P 0.57604(4) 0.80093(5) 0.34701(3)
S1 S 0.62518(4) 0.51845(5) 0.17407(3)
P2 P 0.60402(4) 0.68691(5) 0.13451(3)
S2 S 0.44732(4) 0.88809(5) 0.30151(3)
C1 C 0.69839(16) 0.92240(18) 0.17813(11)
C2 C 0.84981(17) 0.8000(2) 0.13783(11)
C3 C 0.90074(18) 1.0272(2) 0.06415(11)
H1 H 0.9361 0.9521 0.0564
C4 C 0.80056(17) 0.7025(2) 0.09867(11)
C5 C 0.78172(17) 1.00181(19) 0.36011(11)
C6 C 0.83754(17) 0.8794(2) 0.35867(11)
C7 C 0.46536(17) 0.7141(2) 0.08864(12)
C8 C 0.95883(18) 0.7870(2) 0.17122(11)
C9 C 0.79159(17) 0.77907(19) 0.31859(11)
C10 C 0.94169(17) 0.8650(2) 0.40146(11)
C11 C 0.85484(17) 0.67125(19) 0.31239(11)
H2 H 0.8251 0.6050 0.2824
C12 C 0.63806(16) 0.81326(19) 0.20447(10)
H3 H 0.5668 0.8500 0.2079
C13 C 0.68736(18) 1.0084(2) 0.38787(11)
C14 C 0.64540(17) 0.8949(2) 0.42039(11)
H4 H 0.5960 0.9187 0.4543
H5 H 0.7049 0.8474 0.4479
C15 C 0.77098(18) 1.1434(2) 0.12091(11)
C16 C 0.78873(17) 0.91777(19) 0.14426(11)
C17 C 1.01095(18) 0.6709(2) 0.16744(12)
C18 C 0.76403(19) 1.2231(2) 0.32934(12)
C19 C 0.67472(16) 0.76391(19) 0.28363(10)
H6 H 0.6674 0.6723 0.2775
C20 C 0.80258(18) 1.2520(2) 0.08691(12)
H7 H 0.7711 1.3291 0.0958
C21 C 1.10314(19) 0.7421(2) 0.43943(12)
H8 H 1.1443 0.6702 0.4345
C22 C 0.68681(17) 0.7135(2) 0.06431(11)
H9 H 0.6704 0.6517 0.0250
H10 H 0.6731 0.7970 0.0431
C23 C 1.00132(18) 0.7551(2) 0.39581(12)
C24 C 1.11784(19) 0.6571(2) 0.20267(13)
H11 H 1.1526 0.5798 0.2004
C25 C 0.92485(18) 1.1158(2) 0.30770(11)
H12 H 0.9676 1.0434 0.3107
C26 C 0.9614(2) 1.2225(2) 0.27940(12)
H13 H 1.0285 1.2229 0.2629
C27 C 0.95579(19) 0.5725(2) 0.12840(13)
H14 H 0.9899 0.4948 0.1260
C28 C 0.82217(17) 1.0284(2) 0.11098(11)
C29 C 0.95685(18) 0.6605(2) 0.34826(12)
H15 H 0.9978 0.5893 0.3411
C30 C 0.68584(17) 1.1462(2) 0.16148(11)
H16 H 0.6537 1.2227 0.1706
C31 C 0.82490(18) 1.1119(2) 0.33233(11)
C32 C 1.12063(19) 0.8688(2) 0.24235(13)
H17 H 1.1581 0.9358 0.2675
C33 C 0.64981(17) 1.0389(2) 0.18749(11)
H18 H 0.5903 1.0419 0.2127
C34 C 0.8047(2) 1.3315(2) 0.29977(12)
H19 H 0.7645 1.4058 0.2974
C35 C 0.66406(19) 1.2238(2) 0.35336(12)
H20 H 0.6221 1.2968 0.3490
C36 C 0.44540(19) 0.6255(2) 0.02355(13)
H21 H 0.3699 0.6277 0.0025
H22 H 0.4649 0.5412 0.0398
H23 H 0.4886 0.6508 -0.0132
C37 C 1.08233(19) 0.9383(2) 0.49524(12)
H24 H 1.1091 0.9990 0.5302
C38 C 1.01776(18) 0.8852(2) 0.20877(12)
H25 H 0.9852 0.9640 0.2107
C39 C 0.98534(18) 0.9563(2) 0.45230(11)
H26 H 0.9472 1.0307 0.4567
C40 C 0.62714(19) 1.1194(2) 0.38299(12)
H27 H 0.5607 1.1214 0.4004
C41 C 1.1714(2) 0.7527(3) 0.23968(13)
H28 H 1.2422 0.7413 0.2635
C43 C 0.92628(19) 1.1336(2) 0.02982(12)
H30 H 0.9775 1.1303 -0.0023
C44 C 0.38631(18) 0.6837(2) 0.14068(12)
H31 H 0.3977 0.7403 0.1823
H32 H 0.3973 0.5984 0.1579
H33 H 0.3134 0.6931 0.1151
C46 C 0.4743(2) 0.5729(2) 0.33466(14)
H35 H 0.4578 0.4951 0.3575
H36 H 0.5111 0.5552 0.2932
H37 H 0.4081 0.6176 0.3178
C47 C 0.8995(2) 1.3308(2) 0.27499(13)
H38 H 0.9243 1.4037 0.2545
C48 C 1.14222(19) 0.8307(2) 0.48792(13)
H39 H 1.2099 0.8202 0.5169
C49 C 0.6487(2) 0.5819(2) 0.41839(13)
H40 H 0.6318 0.5088 0.4456
H41 H 0.6966 0.6361 0.4505
H42 H 0.6835 0.5560 0.3773
C50 C 0.87734(19) 1.2470(2) 0.04183(12)
H43 H 0.8965 1.3199 0.0185
C51 C 0.5457(2) 0.6519(2) 0.38983(12)
C53 C 0.85361(19) 0.5884(2) 0.09411(13)
H45 H 0.8179 0.5223 0.0670
C54 C 0.4507(2) 0.8485(2) 0.06244(15)
H46 H 0.5011 0.8668 0.0289
H47 H 0.4638 0.9044 0.1043
H48 H 0.3778 0.8602 0.0373
C57 C 0.4865(2) 0.6827(3) 0.45387(15)
H51 H 0.4282 0.7403 0.4375
H52 H 0.5360 0.7208 0.4931
H53 H 0.4575 0.6066 0.4717
C42 C 0.2627(2) 0.3559(2) 0.10180(15)
H29 H 0.2522 0.4388 0.0855
C45 C 0.2933(2) 0.1135(3) 0.14947(15)
H34 H 0.3041 0.0304 0.1655
C52 C 0.1774(2) 0.2767(3) 0.09854(15)
H44 H 0.1081 0.3050 0.0794
C55 C 0.3641(2) 0.3143(3) 0.12887(14)
H49 H 0.4233 0.3685 0.1313
C56 C 0.1920(2) 0.1554(3) 0.12311(16)
H50 H 0.1326 0.1016 0.1218
C58 C 0.3787(2) 0.1934(3) 0.15237(15)
H54 H 0.4482 0.1648 0.1708
C59 C 0.2199(2) 0.4012(3) 0.35072(14)
H55 H 0.2201 0.4856 0.3365
C60 C 0.1607(2) 0.3642(2) 0.40340(13)
H56 H 0.1201 0.4232 0.4252
C61 C 0.1605(2) 0.2413(2) 0.42443(13)
H57 H 0.1193 0.2158 0.4603
C62 C 0.2208(2) 0.1557(2) 0.39299(14)
H58 H 0.2215 0.0716 0.4077
C63 C 0.2788(2) 0.3155(3) 0.31868(15)
H59 H 0.3185 0.3406 0.2819
C64 C 0.2799(2) 0.1924(3) 0.34034(15)
H60 H 0.3212 0.1336 0.3189
loop_
_geom_bond_atom_site_label_1
_geom_bond_atom_site_label_2
_geom_bond_site_symmetry_1
_geom_bond_site_symmetry_2
P1 S2 1_555 1_555
S1 P2 1_555 1_555
P2 C7 1_555 1_555
C1 C12 1_555 1_555
C2 C4 1_555 1_555
C3 H1 1_555 1_555
C4 C22 1_555 1_555
C5 C6 1_555 1_555
C6 C9 1_555 1_555
C7 C36 1_555 1_555
C8 C2 1_555 1_555
C9 C11 1_555 1_555
C10 C6 1_555 1_555
C11 H2 1_555 1_555
C12 P2 1_555 1_555
H3 C12 1_555 1_555
C13 C5 1_555 1_555
C14 P1 1_555 1_555
H4 C14 1_555 1_555
H5 C14 1_555 1_555
C15 C20 1_555 1_555
C16 C1 1_555 1_555
C17 C8 1_555 1_555
C18 C31 1_555 1_555
C19 P1 1_555 1_555
H6 C19 1_555 1_555
C20 H7 1_555 1_555
C21 H8 1_555 1_555
C22 P2 1_555 1_555
H9 C22 1_555 1_555
H10 C22 1_555 1_555
C23 C10 1_555 1_555
C24 C17 1_555 1_555
H11 C24 1_555 1_555
C25 H12 1_555 1_555
C26 C25 1_555 1_555
H13 C26 1_555 1_555
C27 C17 1_555 1_555
H14 C27 1_555 1_555
C28 C3 1_555 1_555
C29 C11 1_555 1_555
H15 C29 1_555 1_555
C30 C15 1_555 1_555
H16 C30 1_555 1_555
C31 C5 1_555 1_555
C32 H17 1_555 1_555
C33 C1 1_555 1_555
H18 C33 1_555 1_555
C34 C18 1_555 1_555
H19 C34 1_555 1_555
C35 C18 1_555 1_555
H20 C35 1_555 1_555
C36 H21 1_555 1_555
H22 C36 1_555 1_555
H23 C36 1_555 1_555
C37 H24 1_555 1_555
C38 C8 1_555 1_555
H25 C38 1_555 1_555
C39 C10 1_555 1_555
H26 C39 1_555 1_555
C40 C13 1_555 1_555
H27 C40 1_555 1_555
C41 C24 1_555 1_555
H28 C41 1_555 1_555
C42 H29 1_555 1_555
C43 C3 1_555 1_555
H30 C43 1_555 1_555
C44 C7 1_555 1_555
H31 C44 1_555 1_555
H32 C44 1_555 1_555
H33 C44 1_555 1_555
C45 H34 1_555 1_555
C46 H35 1_555 1_555
H36 C46 1_555 1_555
H37 C46 1_555 1_555
C47 C26 1_555 1_555
H38 C47 1_555 1_555
C48 C21 1_555 1_555
H39 C48 1_555 1_555
C49 H40 1_555 1_555
H41 C49 1_555 1_555
H42 C49 1_555 1_555
C50 C20 1_555 1_555
H43 C50 1_555 1_555
C51 P1 1_555 1_555
C52 C42 1_555 1_555
H44 C52 1_555 1_555
C53 C4 1_555 1_555
H45 C53 1_555 1_555
C54 C7 1_555 1_555
H46 C54 1_555 1_555
H47 C54 1_555 1_555
H48 C54 1_555 1_555
C55 C42 1_555 1_555
H49 C55 1_555 1_555
C56 C45 1_555 1_555
H50 C56 1_555 1_555
C57 C51 1_555 1_555
H51 C57 1_555 1_555
H52 C57 1_555 1_555
H53 C57 1_555 1_555
C58 C45 1_555 1_555
H54 C58 1_555 1_555
C59 H55 1_555 1_555
C60 C59 1_555 1_555
H56 C60 1_555 1_555
C61 C60 1_555 1_555
H57 C61 1_555 1_555
C62 C61 1_555 1_555
H58 C62 1_555 1_555
C63 C59 1_555 1_555
H59 C63 1_555 1_555
C64 C62 1_555 1_555
H60 C64 1_555 1_555
C2 C16 1_555 1_555
C9 C19 1_555 1_555
C12 C19 1_555 1_555
C13 C14 1_555 1_555
C15 C28 1_555 1_555
C16 C28 1_555 1_555
C21 C23 1_555 1_555
C23 C29 1_555 1_555
C25 C31 1_555 1_555
C27 C53 1_555 1_555
C30 C33 1_555 1_555
C32 C41 1_555 1_555
C32 C38 1_555 1_555
C34 C47 1_555 1_555
C35 C40 1_555 1_555
C37 C39 1_555 1_555
C37 C48 1_555 1_555
C43 C50 1_555 1_555
C46 C51 1_555 1_555
C49 C51 1_555 1_555
C52 C56 1_555 1_555
C55 C58 1_555 1_555
C63 C64 1_555 1_555

#END
