
#######################################################################
#
#                 Cambridge Crystallographic Data Centre
#                                CCDC 
#
#######################################################################
#
# If this CIF has been generated from an entry in the Cambridge 
# Structural Database, then it will include bibliographic, chemical, 
# crystal, experimental, refinement or atomic coordinate data resulting 
# from the CCDC's data processing and validation procedures.
#
#######################################################################

data_OJUZOJ
_chemical_formula_moiety         'C21 H30 O10,C14 H16 N1 1+,F6 P1 1-'
_chemical_name_systematic        
'N-Benzyl(phenyl)methanaminium hexafluorophosphate 2,3,5,6,8,9,15,16,18,19,21,22-dodecahydro-11H-1,4,7,10,14,17,20,23-benzooctaoxacyclopentacosine-11,13(12H)-dione'
_symmetry_cell_setting           monoclinic
_symmetry_space_group_name_H-M   'P 21/c'
_symmetry_Int_Tables_number      14
_space_group_name_Hall           '-P 2ybc'
loop_
_symmetry_equiv_pos_site_id
_symmetry_equiv_pos_as_xyz
1 x,y,z
2 -x,1/2+y,1/2-z
3 -x,-y,-z
4 x,1/2-y,1/2+z
_cell_length_a                   15.7752(6)
_cell_length_b                   13.5842(5)
_cell_length_c                   17.3986(7)
_cell_angle_alpha                90
_cell_angle_beta                 102.141(3)
_cell_angle_gamma                90
_cell_volume                     3645.01
_exptl_crystal_colour            colorless
_exptl_crystal_description       needle
_cell_formula_units_Z            4
loop_
_atom_site_label
_atom_site_type_symbol
_atom_site_fract_x
_atom_site_fract_y
_atom_site_fract_z
P1 P 0.25391(4) 0.22722(4) 0.10723(4)
F1 F 0.34933(9) 0.23060(10) 0.16118(8)
F2 F 0.27686(10) 0.31723(12) 0.05734(10)
F3 F 0.28618(10) 0.15095(12) 0.04991(9)
F4 F 0.15802(9) 0.22329(11) 0.05409(9)
F5 F 0.22959(9) 0.13752(10) 0.15866(8)
F6 F 0.22100(10) 0.30140(11) 0.16643(10)
O1 O 1.03685(12) 0.55102(13) 0.08406(11)
O2 O 0.95127(10) 0.44261(11) 0.12765(10)
O3 O 0.95531(10) 0.23854(11) 0.17785(10)
O4 O 0.88941(9) 0.04984(11) 0.14221(9)
O5 O 0.70866(9) 0.00100(10) 0.11634(9)
O6 O 0.57621(9) 0.11728(10) 0.06704(9)
O7 O 0.56932(10) 0.33425(10) 0.05456(9)
O8 O 0.60052(10) 0.52861(11) 0.11916(9)
O9 O 0.76679(11) 0.58569(12) 0.10559(10)
O10 O 0.86939(11) 0.70279(12) 0.12418(10)
C1 C 0.88249(16) 0.56436(17) 0.04096(14)
H1 H 0.8427 0.5109 0.0177
H2 H 0.8942 0.6059 -0.0024
C2 C 0.96553(16) 0.52108(17) 0.08548(15)
C3 C 1.02841(15) 0.39547(18) 0.17356(15)
H3 H 1.0653 0.4446 0.2070
H4 H 1.0626 0.3648 0.1383
C4 C 0.99832(16) 0.31871(17) 0.22349(15)
H5 H 1.0489 0.2931 0.2619
H6 H 0.9582 0.3492 0.2533
C5 C 1.01145(15) 0.15661(17) 0.17631(16)
H7 H 1.0273 0.1266 0.2292
H8 H 1.0653 0.1787 0.1609
C6 C 0.96590(15) 0.08245(18) 0.11844(15)
H9 H 0.9504 0.1124 0.0655
H10 H 1.0047 0.0258 0.1160
C7 C 0.85136(15) -0.03447(16) 0.09863(14)
H11 H 0.8953 -0.0871 0.1015
H12 H 0.8304 -0.0165 0.0427
C8 C 0.77772(14) -0.07049(16) 0.13219(14)
H13 H 0.7569 -0.1345 0.1082
H14 H 0.7969 -0.0801 0.1896
C9 C 0.63185(14) -0.02704(16) 0.13493(13)
C10 C 0.62212(15) -0.11005(16) 0.17868(13)
H15 H 0.6712 -0.1491 0.2006
C11 C 0.54083(15) -0.13613(17) 0.19043(13)
H16 H 0.5344 -0.1931 0.2204
C12 C 0.46921(15) -0.07979(17) 0.15877(14)
H17 H 0.4133 -0.0994 0.1652
C13 C 0.47881(15) 0.00577(16) 0.11735(13)
H18 H 0.4297 0.0454 0.0967
C14 C 0.55961(14) 0.03312(15) 0.10626(13)
C15 C 0.50047(14) 0.17355(16) 0.03046(14)
H19 H 0.4662 0.1912 0.0700
H20 H 0.4633 0.1341 -0.0113
C16 C 0.53078(15) 0.26510(16) -0.00403(14)
H21 H 0.5736 0.2468 -0.0358
H22 H 0.4808 0.2965 -0.0395
C17 C 0.50554(15) 0.39221(16) 0.08207(15)
H23 H 0.4636 0.3486 0.1005
H24 H 0.4734 0.4337 0.0389
C18 C 0.55103(16) 0.45561(16) 0.14807(14)
H25 H 0.5079 0.4875 0.1739
H26 H 0.5897 0.4146 0.1877
C19 C 0.65878(16) 0.57560(19) 0.18191(15)
H27 H 0.6947 0.5256 0.2152
H28 H 0.6257 0.6125 0.2150
C20 C 0.71538(16) 0.64405(18) 0.14913(16)
H29 H 0.6797 0.6924 0.1138
H30 H 0.7538 0.6804 0.1921
C21 C 0.84007(15) 0.62616(17) 0.09501(14)
N1 N 0.75674(15) 0.20900(14) 0.11851(12)
H31 H 0.8000(18) 0.169(2) 0.1291(15)
H32 H 0.7104(17) 0.1811(17) 0.1038(14)
C22 C 0.77249(15) 0.27766(16) 0.05587(13)
H33 H 0.8194 0.3242 0.0786
H34 H 0.7193 0.3163 0.0356
C23 C 0.79764(14) 0.22217(16) -0.01101(13)
C24 C 0.74890(15) 0.14225(16) -0.04574(14)
H35 H 0.6976 0.1241 -0.0289
C25 C 0.77499(16) 0.08921(17) -0.10467(14)
H36 H 0.7419 0.0343 -0.1278
C26 C 0.84922(16) 0.11606(18) -0.12981(14)
H37 H 0.8673 0.0792 -0.1699
C27 C 0.89728(17) 0.19656(19) -0.09664(15)
H38 H 0.9477 0.2157 -0.1145
C28 C 0.87134(16) 0.24895(17) -0.03717(14)
H39 H 0.9045 0.3038 -0.0141
C29 C 0.74762(15) 0.26070(16) 0.19220(14)
H40 H 0.7041 0.3139 0.1789
H41 H 0.8037 0.2912 0.2169
C30 C 0.72006(15) 0.19109(16) 0.24999(13)
C31 C 0.77755(15) 0.12029(17) 0.28909(14)
H42 H 0.8346 0.1161 0.2795
C32 C 0.75199(16) 0.05632(18) 0.34160(14)
H43 H 0.7909 0.0072 0.3669
C33 C 0.67008(17) 0.06367(17) 0.35742(15)
H44 H 0.6530 0.0204 0.3943
C34 C 0.61296(16) 0.13418(17) 0.31958(15)
H45 H 0.5568 0.1399 0.3308
C35 C 0.63789(15) 0.19654(17) 0.26521(14)
H46 H 0.5979 0.2435 0.2382
loop_
_geom_bond_atom_site_label_1
_geom_bond_atom_site_label_2
_geom_bond_site_symmetry_1
_geom_bond_site_symmetry_2
P1 F1 1_555 1_555
F2 P1 1_555 1_555
F3 P1 1_555 1_555
F4 P1 1_555 1_555
F5 P1 1_555 1_555
F6 P1 1_555 1_555
O1 C2 1_555 1_555
O2 C2 1_555 1_555
O3 C4 1_555 1_555
O4 C6 1_555 1_555
O5 C8 1_555 1_555
O6 C14 1_555 1_555
O7 C16 1_555 1_555
O8 C18 1_555 1_555
O9 C20 1_555 1_555
O10 C21 1_555 1_555
C1 H1 1_555 1_555
H2 C1 1_555 1_555
C2 C1 1_555 1_555
C3 O2 1_555 1_555
H3 C3 1_555 1_555
H4 C3 1_555 1_555
C4 C3 1_555 1_555
H5 C4 1_555 1_555
H6 C4 1_555 1_555
C5 O3 1_555 1_555
H7 C5 1_555 1_555
H8 C5 1_555 1_555
C6 C5 1_555 1_555
H9 C6 1_555 1_555
H10 C6 1_555 1_555
C7 O4 1_555 1_555
H11 C7 1_555 1_555
H12 C7 1_555 1_555
C8 C7 1_555 1_555
H13 C8 1_555 1_555
H14 C8 1_555 1_555
C9 O5 1_555 1_555
C10 C9 1_555 1_555
H15 C10 1_555 1_555
C11 C10 1_555 1_555
H16 C11 1_555 1_555
C12 C11 1_555 1_555
H17 C12 1_555 1_555
C13 C12 1_555 1_555
H18 C13 1_555 1_555
C14 C9 1_555 1_555
C15 O6 1_555 1_555
H19 C15 1_555 1_555
H20 C15 1_555 1_555
C16 C15 1_555 1_555
H21 C16 1_555 1_555
H22 C16 1_555 1_555
C17 O7 1_555 1_555
H23 C17 1_555 1_555
H24 C17 1_555 1_555
C18 C17 1_555 1_555
H25 C18 1_555 1_555
H26 C18 1_555 1_555
C19 O8 1_555 1_555
H27 C19 1_555 1_555
H28 C19 1_555 1_555
C20 C19 1_555 1_555
H29 C20 1_555 1_555
H30 C20 1_555 1_555
C21 O9 1_555 1_555
N1 H31 1_555 1_555
H32 N1 1_555 1_555
C22 N1 1_555 1_555
H33 C22 1_555 1_555
H34 C22 1_555 1_555
C23 C22 1_555 1_555
C24 C23 1_555 1_555
H35 C24 1_555 1_555
C25 C24 1_555 1_555
H36 C25 1_555 1_555
C26 C25 1_555 1_555
H37 C26 1_555 1_555
C27 C26 1_555 1_555
H38 C27 1_555 1_555
C28 C23 1_555 1_555
H39 C28 1_555 1_555
C29 N1 1_555 1_555
H40 C29 1_555 1_555
H41 C29 1_555 1_555
C30 C29 1_555 1_555
C31 C30 1_555 1_555
H42 C31 1_555 1_555
C32 C31 1_555 1_555
H43 C32 1_555 1_555
C33 C32 1_555 1_555
H44 C33 1_555 1_555
C34 C33 1_555 1_555
H45 C34 1_555 1_555
C35 C30 1_555 1_555
H46 C35 1_555 1_555
C1 C21 1_555 1_555
C13 C14 1_555 1_555
C27 C28 1_555 1_555
C34 C35 1_555 1_555

#END
