
#######################################################################
#
#                 Cambridge Crystallographic Data Centre
#                                CCDC 
#
#######################################################################
#
# If this CIF has been generated from an entry in the Cambridge 
# Structural Database, then it will include bibliographic, chemical, 
# crystal, experimental, refinement or atomic coordinate data resulting 
# from the CCDC's data processing and validation procedures.
#
#######################################################################

data_OKAHUD
_chemical_formula_moiety         'C17 H27 N1 O1'
_chemical_name_systematic        
(2Z)-1-(Adamantyl)-3-(isopropylamino)but-2-en-1-one
_symmetry_cell_setting           tetragonal
_symmetry_space_group_name_H-M   'P 42'
_symmetry_Int_Tables_number      77
_space_group_name_Hall           'P 4c'
loop_
_symmetry_equiv_pos_site_id
_symmetry_equiv_pos_as_xyz
1 x,y,z
2 -x,-y,z
3 -y,x,1/2+z
4 y,-x,1/2+z
_cell_length_a                   15.4202(6)
_cell_length_b                   15.4202(6)
_cell_length_c                   6.5428(5)
_cell_angle_alpha                90
_cell_angle_beta                 90
_cell_angle_gamma                90
_cell_volume                     1555.76
_exptl_crystal_colour            colorless
_exptl_crystal_description       'hexagonal prism'
_cell_formula_units_Z            4
loop_
_atom_site_label
_atom_site_type_symbol
_atom_site_fract_x
_atom_site_fract_y
_atom_site_fract_z
C1 C 0.92164(16) 0.64710(15) 0.2278(4)
O1 O 0.93926(15) 0.70093(15) 0.0891(3)
C2 C 0.96883(16) 0.64362(16) 0.4121(4)
H1 H 0.9555(17) 0.6038(18) 0.518(4)
C3 C 1.03694(14) 0.69816(15) 0.4604(4)
N1 N 1.06447(14) 0.75795(15) 0.3277(4)
H2 H 1.036(2) 0.757(2) 0.216(5)
C4 C 1.0811(2) 0.6903(2) 0.6624(5)
H3 H 1.0773 0.7445 0.7340
H4 H 1.1410 0.6757 0.6417
H5 H 1.0536 0.6457 0.7416
C5 C 1.13050(17) 0.82504(17) 0.3589(5)
H6 H 1.1698 0.8065 0.4682
C6 C 1.1812(3) 0.8354(3) 0.1658(8)
H7 H 1.2107 0.7821 0.1351
H8 H 1.2230 0.8810 0.1824
H9 H 1.1426 0.8497 0.0558
C7 C 1.0894(3) 0.9086(2) 0.4187(8)
H10 H 1.0631 0.9026 0.5510
H11 H 1.0458 0.9239 0.3203
H12 H 1.1327 0.9533 0.4236
C8 C 0.84383(14) 0.58730(13) 0.1896(3)
C9 C 0.83188(18) 0.51597(17) 0.3508(4)
H13 H 0.8239 0.5422 0.4842
H14 H 0.8835 0.4801 0.3560
C10 C 0.75248(18) 0.45904(17) 0.2992(4)
H15 H 0.7460 0.4134 0.4024
C11 C 0.67226(19) 0.5169(2) 0.2990(5)
H16 H 0.6211 0.4822 0.2713
H17 H 0.6653 0.5436 0.4322
C12 C 0.68151(18) 0.58664(18) 0.1368(4)
H18 H 0.6293 0.6228 0.1343
C13 C 0.69505(19) 0.54549(19) -0.0704(4)
H19 H 0.6443 0.5116 -0.1063
H20 H 0.7020 0.5906 -0.1725
C14 C 0.77364(19) 0.48787(18) -0.0714(4)
H21 H 0.7806 0.4610 -0.2061
C15 C 0.85406(17) 0.54428(18) -0.0206(4)
H22 H 0.9056 0.5083 -0.0211
H23 H 0.8610 0.5886 -0.1244
C16 C 0.76116(17) 0.64297(15) 0.1852(4)
H24 H 0.7670 0.6879 0.0823
H25 H 0.7533 0.6709 0.3168
C17 C 0.7656(2) 0.41848(18) 0.0909(6)
H26 H 0.8177 0.3833 0.0922
H27 H 0.7169 0.3810 0.0592
loop_
_geom_bond_atom_site_label_1
_geom_bond_atom_site_label_2
_geom_bond_site_symmetry_1
_geom_bond_site_symmetry_2
C1 O1 1_555 1_555
C2 C1 1_555 1_555
H1 C2 1_555 1_555
C3 C2 1_555 1_555
N1 C3 1_555 1_555
H2 N1 1_555 1_555
C4 C3 1_555 1_555
H3 C4 1_555 1_555
H4 C4 1_555 1_555
H5 C4 1_555 1_555
C5 N1 1_555 1_555
H6 C5 1_555 1_555
C6 C5 1_555 1_555
H7 C6 1_555 1_555
H8 C6 1_555 1_555
H9 C6 1_555 1_555
C7 C5 1_555 1_555
H10 C7 1_555 1_555
H11 C7 1_555 1_555
H12 C7 1_555 1_555
C8 C1 1_555 1_555
C9 C8 1_555 1_555
H13 C9 1_555 1_555
H14 C9 1_555 1_555
C10 C9 1_555 1_555
H15 C10 1_555 1_555
C11 C10 1_555 1_555
H16 C11 1_555 1_555
H17 C11 1_555 1_555
C12 C11 1_555 1_555
H18 C12 1_555 1_555
C13 C12 1_555 1_555
H19 C13 1_555 1_555
H20 C13 1_555 1_555
C14 C13 1_555 1_555
H21 C14 1_555 1_555
C15 C8 1_555 1_555
H22 C15 1_555 1_555
H23 C15 1_555 1_555
C16 C8 1_555 1_555
H24 C16 1_555 1_555
H25 C16 1_555 1_555
C17 C10 1_555 1_555
H26 C17 1_555 1_555
H27 C17 1_555 1_555
C12 C16 1_555 1_555
C14 C15 1_555 1_555
C14 C17 1_555 1_555

#END
