
#######################################################################
#
#                 Cambridge Crystallographic Data Centre
#                                CCDC 
#
#######################################################################
#
# If this CIF has been generated from an entry in the Cambridge 
# Structural Database, then it will include bibliographic, chemical, 
# crystal, experimental, refinement or atomic coordinate data resulting 
# from the CCDC's data processing and validation procedures.
#
#######################################################################

data_OKAHUE
_chemical_formula_moiety         'C17 H18 O5'
_chemical_name_systematic        
'Dimethyl 3-benzylidene-5-methylenetetrahydro-4H-pyran-4,4-dicarboxylate'
_symmetry_cell_setting           monoclinic
_symmetry_space_group_name_H-M   'P 21/c'
_symmetry_Int_Tables_number      14
_space_group_name_Hall           '-P 2ybc'
loop_
_symmetry_equiv_pos_site_id
_symmetry_equiv_pos_as_xyz
1 x,y,z
2 -x,1/2+y,1/2-z
3 -x,-y,-z
4 x,1/2-y,1/2+z
_cell_length_a                   10.562(2)
_cell_length_b                   11.096(2)
_cell_length_c                   13.778(3)
_cell_angle_alpha                90
_cell_angle_beta                 106.69(3)
_cell_angle_gamma                90
_cell_volume                     1546.7
_cell_formula_units_Z            4
loop_
_atom_site_label
_atom_site_type_symbol
_atom_site_fract_x
_atom_site_fract_y
_atom_site_fract_z
O1 O 0.7907(2) 0.07255(19) 0.08188(16)
O2 O 0.6443(3) 0.3473(2) -0.13850(16)
O3 O 0.8503(2) 0.1617(2) -0.04397(17)
C1 C 0.7882(3) 0.1613(3) 0.0164(2)
C2 C 0.6916(3) 0.2603(3) 0.0259(2)
O4 O 0.4817(3) 0.2960(3) 0.1231(2)
C3 C 0.7175(3) 0.3066(3) 0.1351(2)
O5 O 0.7688(3) 0.4561(2) -0.01219(19)
C4 C 0.7085(3) 0.3668(3) -0.0425(2)
C5 C 0.9635(3) 0.2625(3) 0.2109(2)
C6 C 0.5508(3) 0.2107(3) -0.0131(2)
C7 C 0.8300(4) 0.3028(3) 0.2085(2)
H1 H 0.8235 0.3310 0.2705
C8 C 1.0296(4) 0.3061(3) 0.1446(3)
H2 H 0.9867 0.3598 0.0940
C9 C 0.6002(4) 0.3661(4) 0.1562(3)
C10 C 0.6553(6) 0.4387(4) -0.2104(3)
C11 C 1.0303(4) 0.1826(3) 0.2860(3)
H3 H 0.9886 0.1531 0.3321
C12 C 0.8798(5) -0.0255(4) 0.0819(4)
C13 C 0.5189(5) 0.1140(4) -0.0699(3)
C14 C 1.1565(4) 0.2720(4) 0.1520(4)
H4 H 1.1992 0.3030 0.1071
C15 C 1.1573(4) 0.1466(4) 0.2928(4)
H5 H 1.2000 0.0918 0.3426
C16 C 1.2216(5) 0.1911(4) 0.2265(4)
H6 H 1.3077 0.1672 0.2316
C17 C 0.4475(4) 0.2823(5) 0.0158(3)
H7 H 0.973(6) 0.004(5) 0.105(4)
H8 H 0.884(4) -0.072(4) 0.145(4)
H9 H 0.847(4) -0.070(4) 0.022(4)
H10 H 0.619(5) 0.511(4) -0.199(3)
H11 H 0.743(5) 0.449(4) -0.205(3)
H12 H 0.430(5) 0.082(4) -0.099(3)
H13 H 0.579(4) 0.064(4) -0.084(3)
H14 H 0.359(5) 0.240(4) -0.005(3)
H15 H 0.615(3) 0.385(3) 0.223(3)
H16 H 0.530(3) 0.421(2) 0.077(2)
H17 H 0.445(4) 0.366(3) -0.019(3)
H18 H 0.592(5) 0.414(4) -0.280(4)
loop_
_geom_bond_atom_site_label_1
_geom_bond_atom_site_label_2
_geom_bond_site_symmetry_1
_geom_bond_site_symmetry_2
O1 C1 1_555 1_555
O2 C4 1_555 1_555
O3 C1 1_555 1_555
C1 C2 1_555 1_555
C2 C3 1_555 1_555
O4 C9 1_555 1_555
C3 C7 1_555 1_555
O5 C4 1_555 1_555
C4 C2 1_555 1_555
C5 C7 1_555 1_555
C6 C2 1_555 1_555
C7 H1 1_555 1_555
C8 C5 1_555 1_555
H2 C8 1_555 1_555
C9 C3 1_555 1_555
C10 O2 1_555 1_555
C11 C5 1_555 1_555
H3 C11 1_555 1_555
C12 O1 1_555 1_555
C13 C6 1_555 1_555
C14 C8 1_555 1_555
H4 C14 1_555 1_555
C15 C11 1_555 1_555
H5 C15 1_555 1_555
C16 C14 1_555 1_555
H6 C16 1_555 1_555
C17 O4 1_555 1_555
H7 C12 1_555 1_555
H8 C12 1_555 1_555
H9 C12 1_555 1_555
H10 C10 1_555 1_555
H11 C10 1_555 1_555
H12 C13 1_555 1_555
H13 C13 1_555 1_555
H14 C17 1_555 1_555
H15 C9 1_555 1_555
H16 C9 1_555 1_555
H17 C17 1_555 1_555
H18 C10 1_555 1_555
C6 C17 1_555 1_555
C15 C16 1_555 1_555

#END
