
#######################################################################
#
#                 Cambridge Crystallographic Data Centre
#                                CCDC 
#
#######################################################################
#
# If this CIF has been generated from an entry in the Cambridge 
# Structural Database, then it will include bibliographic, chemical, 
# crystal, experimental, refinement or atomic coordinate data resulting 
# from the CCDC's data processing and validation procedures.
#
#######################################################################

data_OKAJIV
_chemical_formula_moiety         'C17 H10 Cl2 F3 N3'
_chemical_name_systematic        
4-(4-chlorophenyl)-1-(1-(4-chlorophenyl)-3,3,3-trifluoroprop-1-en-1-yl)-1H-1,2,3-triazole
_symmetry_cell_setting           triclinic
_symmetry_space_group_name_H-M   'P -1'
_symmetry_Int_Tables_number      2
_space_group_name_Hall           '-P 1'
loop_
_symmetry_equiv_pos_site_id
_symmetry_equiv_pos_as_xyz
1 x,y,z
2 -x,-y,-z
_cell_length_a                   6.8362(8)
_cell_length_b                   10.3590(12)
_cell_length_c                   12.5609(15)
_cell_angle_alpha                69.754(2)
_cell_angle_beta                 88.608(3)
_cell_angle_gamma                79.347(3)
_cell_volume                     819.413
_exptl_crystal_colour            colorless
_exptl_crystal_description       prismatic
_cell_formula_units_Z            2
loop_
_atom_site_label
_atom_site_type_symbol
_atom_site_fract_x
_atom_site_fract_y
_atom_site_fract_z
Cl1 Cl 1.38192(10) 0.33198(7) 1.10113(5)
Cl2 Cl 0.74001(10) 1.29608(7) 0.30814(6)
F1 F 0.7284(4) 0.01059(19) 0.77306(16)
F2 F 0.6149(4) 0.0880(2) 0.9024(2)
F3 F 0.9228(3) 0.05445(17) 0.87686(15)
N1 N 0.7899(2) 0.46988(19) 0.64492(14)
N2 N 0.7502(3) 0.4702(2) 0.53947(15)
N3 N 0.7339(3) 0.5986(2) 0.47104(15)
C1 C 0.9000(3) 0.3089(2) 0.94269(18)
H1 H 0.7741 0.2886 0.9617
C2 C 1.0301(3) 0.3067(2) 1.02587(17)
H2 H 0.9926 0.2850 1.1008
C3 C 1.2147(3) 0.3367(2) 0.99681(17)
C4 C 1.2726(3) 0.3715(2) 0.88643(17)
H3 H 1.3981 0.3930 0.8679
C5 C 1.1419(3) 0.3741(2) 0.80372(17)
H4 H 1.1790 0.3981 0.7287
C6 C 0.9555(3) 0.3412(2) 0.83136(16)
C7 C 0.8171(3) 0.3442(2) 0.74086(17)
C8 C 0.7190(3) 0.2452(3) 0.73977(19)
H5 H 0.6249 0.2687 0.6806
C9 C 0.7447(4) 0.1022(3) 0.8231(2)
C10 C 0.7998(3) 0.5996(2) 0.64083(17)
H6 H 0.8262 0.6269 0.7014
C11 C 0.7633(3) 0.6831(2) 0.53010(16)
C12 C 0.7553(3) 0.8335(2) 0.47593(17)
C13 C 0.7493(3) 0.8952(3) 0.35799(18)
H7 H 0.7499 0.8399 0.3134
C14 C 0.7426(4) 1.0365(3) 0.30668(19)
H8 H 0.7376 1.0769 0.2279
C15 C 0.7435(3) 1.1172(2) 0.37300(19)
C16 C 0.7495(3) 1.0600(3) 0.48949(19)
H9 H 0.7501 1.1161 0.5334
C17 C 0.7545(3) 0.9188(2) 0.53992(18)
H10 H 0.7575 0.8796 0.6187
loop_
_geom_bond_atom_site_label_1
_geom_bond_atom_site_label_2
_geom_bond_site_symmetry_1
_geom_bond_site_symmetry_2
Cl1 C3 1_555 1_555
Cl2 C15 1_555 1_555
F1 C9 1_555 1_555
F2 C9 1_555 1_555
F3 C9 1_555 1_555
N1 N2 1_555 1_555
N2 N3 1_555 1_555
N3 C11 1_555 1_555
C1 H1 1_555 1_555
C2 C1 1_555 1_555
H2 C2 1_555 1_555
C3 C2 1_555 1_555
C4 C3 1_555 1_555
H3 C4 1_555 1_555
C5 C4 1_555 1_555
H4 C5 1_555 1_555
C6 C1 1_555 1_555
C7 N1 1_555 1_555
C8 C7 1_555 1_555
H5 C8 1_555 1_555
C9 C8 1_555 1_555
C10 N1 1_555 1_555
H6 C10 1_555 1_555
C11 C10 1_555 1_555
C12 C11 1_555 1_555
C13 C12 1_555 1_555
H7 C13 1_555 1_555
C14 C13 1_555 1_555
H8 C14 1_555 1_555
C15 C14 1_555 1_555
C16 C15 1_555 1_555
H9 C16 1_555 1_555
C17 C12 1_555 1_555
H10 C17 1_555 1_555
C5 C6 1_555 1_555
C6 C7 1_555 1_555
C16 C17 1_555 1_555

#END
