
#######################################################################
#
#                 Cambridge Crystallographic Data Centre
#                                CCDC 
#
#######################################################################
#
# If this CIF has been generated from an entry in the Cambridge 
# Structural Database, then it will include bibliographic, chemical, 
# crystal, experimental, refinement or atomic coordinate data resulting 
# from the CCDC's data processing and validation procedures.
#
#######################################################################

data_OKAQAT
_chemical_name_common            
'beta-Cyclodextrin 4-(2-naphthyl)pyridine hydrate'
_chemical_formula_moiety         'C42 H70 O35,C15 H11 N1,9.13(H2 O1)'
_chemical_name_systematic        
'5,10,15,20,25,30,35-heptakis(hydroxymethyl)-2,4,7,9,12,14,17,19,22,24,27,29,32,34-tetradecaoxaoctacyclo[31.2.2.2^3,6^.2^8,11^.2^13,16^.2^18,21^.2^23,26^.2^28,31^]nonatetracontane-36,37,38,39,40,41,42,43,44,45,46,47,48,49-tetradecol 4-(2-naphthyl)pyridine hydrate'
_symmetry_cell_setting           monoclinic
_symmetry_space_group_name_H-M   'P 21'
_symmetry_Int_Tables_number      4
_space_group_name_Hall           'P 2yb'
loop_
_symmetry_equiv_pos_site_id
_symmetry_equiv_pos_as_xyz
1 x,y,z
2 -x,1/2+y,-z
_cell_length_a                   15.3332(19)
_cell_length_b                   31.700(4)
_cell_length_c                   15.540(2)
_cell_angle_alpha                90
_cell_angle_beta                 102.459(5)
_cell_angle_gamma                90
_cell_volume                     7375.53
_exptl_crystal_colour            colorless
_exptl_crystal_description       prism
_cell_formula_units_Z            4
_exptl_crystal_recrystallization_method acetonitrile/water
loop_
_atom_site_label
_atom_site_type_symbol
_atom_site_fract_x
_atom_site_fract_y
_atom_site_fract_z
O1 O -0.3354(6) 0.4601(3) 0.0727(6)
O2 O -0.3281(6) 0.5756(3) 0.0522(6)
O3 O -0.2417(6) 0.5639(3) 0.2305(5)
O4 O -0.1595(5) 0.4826(3) 0.2717(5)
O5 O -0.3482(7) 0.4094(3) 0.2198(7)
O6 O -0.2484(6) 0.4668(4) -0.2327(6)
O7 O -0.2109(6) 0.5823(3) -0.2613(6)
O8 O -0.2783(6) 0.5818(3) -0.1042(6)
O9 O -0.2576(5) 0.5023(3) -0.0097(6)
O10 O -0.3804(7) 0.4287(4) -0.1566(8)
O11 O 0.0623(6) 0.4590(3) -0.3220(6)
O12 O 0.1448(6) 0.5679(3) -0.2990(6)
O13 O -0.0411(6) 0.5778(3) -0.2914(7)
O14 O -0.1157(6) 0.5051(3) -0.2277(6)
O15 O -0.1127(6) 0.4276(3) -0.4024(6)
O16 O 0.3696(6) 0.4291(3) -0.1081(6)
O17 O 0.4590(6) 0.5354(3) -0.0442(6)
O18 O 0.3045(5) 0.5539(3) -0.1816(6)
O19 O 0.1684(6) 0.4902(3) -0.2110(5)
O20 O 0.2672(7) 0.4001(4) -0.2801(7)
O21 O 0.4359(6) 0.4083(3) 0.2313(7)
O22 O 0.4812(6) 0.5143(3) 0.3244(6)
O23 O 0.4695(5) 0.5293(3) 0.1438(6)
O24 O 0.3775(6) 0.4676(3) 0.0239(6)
O25 O 0.4958(10) 0.3733(5) 0.0809(11)
O26 O 0.2177(5) 0.4063(3) 0.4532(6)
O27 O 0.2267(5) 0.5148(3) 0.5315(6)
O28 O 0.3691(6) 0.5150(3) 0.4385(6)
O29 O 0.3498(6) 0.4508(3) 0.3031(6)
O30 O 0.2085(6) 0.3391(3) 0.3257(6)
O31 O -0.1266(5) 0.4338(3) 0.3871(6)
O32 O -0.1430(6) 0.5478(3) 0.3982(6)
O33 O 0.0429(6) 0.5361(3) 0.4621(6)
O34 O 0.1154(6) 0.4597(3) 0.4173(6)
O35 O -0.0157(7) 0.3806(3) 0.5088(6)
C1 C -0.3335(9) 0.4980(4) 0.0337(8)
H1 H -0.3899 0.5011 -0.0123
C2 C -0.3267(8) 0.5355(4) 0.0965(8)
H2 H -0.3803 0.5346 0.1234
C3 C -0.2442(9) 0.5304(4) 0.1716(8)
H3 H -0.1899 0.5322 0.1459
C4 C -0.2452(8) 0.4878(4) 0.2129(8)
H4 H -0.2937 0.4864 0.2468
C5 C -0.2583(9) 0.4540(4) 0.1447(9)
H5 H -0.2037 0.4528 0.1193
C6 C -0.2710(9) 0.4114(5) 0.1837(9)
H6 H -0.2755 0.3896 0.1373
H7 H -0.2179 0.4048 0.2306
C7 C -0.2123(10) 0.5029(6) -0.2623(11)
H8 H -0.2239 0.5021 -0.3282
C8 C -0.2480(9) 0.5451(5) -0.2338(8)
H9 H -0.3134 0.5458 -0.2605
C9 C -0.2388(9) 0.5441(4) -0.1352(9)
H10 H -0.1735 0.5443 -0.1076
C10 C -0.2772(10) 0.5047(4) -0.1057(10)
H11 H -0.3435 0.5050 -0.1280
C11 C -0.2388(9) 0.4647(4) -0.1408(9)
H12 H -0.1740 0.4621 -0.1124
C12 C -0.2827(11) 0.4276(5) -0.1264(11)
H13 H -0.2682 0.4213 -0.0625
H14 H -0.2592 0.4041 -0.1568
C13 C 0.1226(9) 0.4932(4) -0.3012(9)
H15 H 0.1683 0.4900 -0.3379
C14 C 0.0834(9) 0.5332(4) -0.3198(8)
H16 H 0.0564 0.5344 -0.3843
C15 C 0.0039(9) 0.5375(5) -0.2678(10)
H17 H 0.0303 0.5375 -0.2031
C16 C -0.0537(9) 0.5024(5) -0.2876(9)
H18 H -0.0886 0.5052 -0.3496
C17 C -0.0134(9) 0.4602(4) -0.2765(9)
H19 H 0.0111 0.4555 -0.2121
C18 C -0.0692(10) 0.4230(4) -0.3114(9)
H20 H -0.0309 0.3975 -0.3046
H21 H -0.1150 0.4188 -0.2760
C19 C 0.4127(10) 0.4606(4) -0.0512(10)
H22 H 0.4765 0.4519 -0.0305
C20 C 0.4117(9) 0.5022(5) -0.1031(10)
H23 H 0.4406 0.4980 -0.1544
C21 C 0.3100(8) 0.5161(4) -0.1367(8)
H24 H 0.2829 0.5200 -0.0842
C22 C 0.2633(9) 0.4803(4) -0.1905(10)
H25 H 0.2850 0.4782 -0.2466
C23 C 0.2769(9) 0.4393(5) -0.1441(10)
H26 H 0.2460 0.4408 -0.0937
C24 C 0.2414(11) 0.4012(4) -0.1983(11)
H27 H 0.2634 0.3754 -0.1645
H28 H 0.1754 0.4012 -0.2088
C25 C 0.4399(10) 0.4411(4) 0.2926(9)
H29 H 0.4773 0.4321 0.3506
C26 C 0.4778(9) 0.4800(4) 0.2629(10)
H30 H 0.5408 0.4735 0.2595
C27 C 0.4300(9) 0.4932(5) 0.1732(10)
H31 H 0.3673 0.5006 0.1761
C28 C 0.4264(9) 0.4561(4) 0.1106(9)
H32 H 0.4891 0.4501 0.1057
C29 C 0.3922(9) 0.4177(5) 0.1439(9)
H33 H 0.3271 0.4216 0.1421
C30 C 0.4036(11) 0.3782(4) 0.0889(10)
H34 H 0.3848 0.3529 0.1173
H35 H 0.3646 0.3808 0.0294
C31 C 0.1858(9) 0.4434(4) 0.4814(9)
H36 H 0.1630 0.4373 0.5357
C32 C 0.2537(9) 0.4768(4) 0.5020(9)
H37 H 0.3027 0.4657 0.5498
C33 C 0.2951(10) 0.4847(4) 0.4198(10)
H38 H 0.2475 0.4962 0.3712
C34 C 0.3293(10) 0.4426(4) 0.3882(9)
H39 H 0.3830 0.4320 0.4312
C35 C 0.2536(10) 0.4105(4) 0.3747(9)
H40 H 0.2048 0.4201 0.3249
C36 C 0.2840(11) 0.3684(5) 0.3538(11)
H41 H 0.3251 0.3568 0.4065
H42 H 0.3175 0.3710 0.3062
C37 C -0.1574(9) 0.4736(4) 0.3634(8)
H43 H -0.2204 0.4749 0.3712
C38 C -0.1081(8) 0.5064(4) 0.4183(9)
H44 H -0.1097 0.5002 0.4810
C39 C -0.0076(9) 0.5064(4) 0.4099(9)
H45 H -0.0049 0.5116 0.3471
C40 C 0.0267(9) 0.4622(4) 0.4361(11)
H46 H 0.0314 0.4583 0.5008
C41 C -0.0322(8) 0.4268(4) 0.3858(10)
H47 H -0.0261 0.4276 0.3230
C42 C -0.0082(10) 0.3827(4) 0.4207(9)
H48 H -0.0488 0.3619 0.3852
H49 H 0.0537 0.3759 0.4163
O36 O 0.4582(6) 0.7076(3) 0.4599(7)
O37 O 0.4798(6) 0.5935(3) 0.4231(6)
O38 O 0.3226(6) 0.5968(3) 0.4969(6)
O39 O 0.2325(5) 0.6768(3) 0.4751(5)
O40 O 0.3822(7) 0.7526(4) 0.5856(8)
O41 O 0.5245(6) 0.7198(3) 0.1442(7)
O42 O 0.5120(6) 0.6124(3) 0.0626(7)
O43 O 0.5085(6) 0.5995(3) 0.2484(7)
O44 O 0.4449(5) 0.6706(3) 0.3263(6)
O45 O 0.6012(8) 0.7578(3) 0.3091(7)
O46 O 0.3041(7) 0.7497(3) -0.1466(7)
O47 O 0.2487(6) 0.6450(3) -0.2462(6)
O48 O 0.3877(6) 0.6257(3) -0.0925(6)
O49 O 0.4150(6) 0.6872(3) 0.0425(6)
O50 O 0.449(2) 0.7881(9) -0.0492(19)
O51 O -0.0368(7) 0.7712(3) -0.2443(6)
O52 O -0.1309(6) 0.6637(3) -0.2857(6)
O53 O 0.0592(6) 0.6495(3) -0.2668(6)
O54 O 0.1715(6) 0.7109(3) -0.1690(6)
O55 O 0.1188(7) 0.8027(3) -0.3013(6)
O56 O -0.2423(7) 0.7718(3) -0.0128(6)
O57 O -0.3173(6) 0.6616(3) -0.0087(6)
O58 O -0.2247(6) 0.6614(3) -0.1546(6)
O59 O -0.0992(6) 0.7266(3) -0.1531(6)
O60 O -0.2256(11) 0.8207(4) -0.1650(9)
O61 O -0.1492(7) 0.7520(3) 0.3258(6)
O62 O -0.1812(6) 0.6395(3) 0.3606(6)
O63 O -0.2506(6) 0.6477(3) 0.1721(6)
O64 O -0.1941(5) 0.7194(3) 0.0924(6)
O65 O -0.0813(7) 0.8235(3) 0.2519(7)
O66 O 0.1506(6) 0.7212(3) 0.5510(6)
O67 O 0.1646(5) 0.6047(3) 0.5506(6)
O68 O -0.0151(6) 0.6179(3) 0.4531(7)
O69 O -0.0449(6) 0.6994(3) 0.3719(6)
O70 O -0.0031(6) 0.7707(3) 0.5573(6)
C43 C 0.4814(9) 0.6708(5) 0.4178(10)
H50 H 0.5479 0.6703 0.4262
C44 C 0.4539(9) 0.6318(6) 0.4617(11)
H51 H 0.4826 0.6323 0.5259
C45 C 0.3521(8) 0.6332(4) 0.4507(8)
H52 H 0.3223 0.6326 0.3868
C46 C 0.3304(9) 0.6740(5) 0.4920(9)
H53 H 0.3564 0.6739 0.5568
C47 C 0.3622(10) 0.7117(4) 0.4497(9)
H54 H 0.3325 0.7128 0.3858
C48 C 0.3469(10) 0.7521(5) 0.4943(11)
H55 H 0.3740 0.7755 0.4670
H56 H 0.2818 0.7574 0.4838
C49 C 0.5063(9) 0.6862(4) 0.0872(9)
H57 H 0.5426 0.6903 0.0416
C50 C 0.5278(9) 0.6445(5) 0.1252(9)
H58 H 0.5934 0.6444 0.1513
C51 C 0.4819(9) 0.6381(5) 0.1991(9)
H59 H 0.4161 0.6369 0.1744
C52 C 0.5012(9) 0.6748(4) 0.2653(8)
H60 H 0.5651 0.6735 0.2976
C53 C 0.4837(10) 0.7163(5) 0.2209(10)
H61 H 0.4177 0.7173 0.1969
C54 C 0.5049(12) 0.7543(5) 0.2761(12)
H62 H 0.4827 0.7797 0.2409
H63 H 0.4748 0.7528 0.3263
C55 C 0.2538(11) 0.7187(5) -0.1997(9)
H64 H 0.2391 0.7283 -0.2625
C56 C 0.3003(10) 0.6773(4) -0.1930(9)
H65 H 0.3540 0.6818 -0.2187
C57 C 0.3356(10) 0.6630(5) -0.0999(9)
H66 H 0.2830 0.6570 -0.0734
C58 C 0.3872(9) 0.6994(4) -0.0482(8)
H67 H 0.4419 0.7046 -0.0719
C59 C 0.3334(11) 0.7391(5) -0.0581(12)
H68 H 0.2799 0.7345 -0.0320
C60 C 0.3865(14) 0.7752(7) -0.0106(13)
H69 H 0.3457 0.7990 -0.0069
H70 H 0.4139 0.7663 0.0503
C61 C -0.0940(10) 0.7362(5) -0.2390(9)
H71 H -0.1554 0.7439 -0.2719
C62 C -0.0668(11) 0.6963(5) -0.2797(10)
H72 H -0.0613 0.7033 -0.3411
C63 C 0.0280(10) 0.6846(4) -0.2262(10)
H73 H 0.0260 0.6778 -0.1638
C64 C 0.0890(10) 0.7223(4) -0.2296(10)
H74 H 0.0989 0.7266 -0.2905
C65 C 0.0587(10) 0.7626(4) -0.1938(9)
H75 H 0.0602 0.7595 -0.1294
C66 C 0.1114(12) 0.7998(5) -0.2092(10)
H76 H 0.0825 0.8257 -0.1931
H77 H 0.1719 0.7980 -0.1710
C67 C -0.2640(11) 0.7343(5) 0.0234(10)
H78 H -0.3174 0.7397 0.0491
C68 C -0.2889(10) 0.6992(4) -0.0463(9)
H79 H -0.3389 0.7094 -0.0941
C69 C -0.2058(10) 0.6910(5) -0.0864(10)
H80 H -0.1551 0.6807 -0.0394
C70 C -0.1812(11) 0.7319(5) -0.1217(11)
H81 H -0.2299 0.7403 -0.1726
C71 C -0.1679(10) 0.7669(5) -0.0543(9)
H82 H -0.1134 0.7605 -0.0079
C72 C -0.1571(12) 0.8097(6) -0.0922(12)
H83 H -0.1550 0.8311 -0.0454
H84 H -0.0992 0.8106 -0.1105
C73 C -0.1364(11) 0.7126(4) 0.3649(10)
H85 H -0.1475 0.7150 0.4258
C74 C -0.1969(9) 0.6774(4) 0.3164(9)
H86 H -0.2594 0.6856 0.3184
C75 C -0.1928(9) 0.6773(4) 0.2213(9)
H87 H -0.1310 0.6679 0.2193
C76 C -0.2033(9) 0.7216(4) 0.1802(9)
H88 H -0.2657 0.7311 0.1793
C77 C -0.1414(10) 0.7523(4) 0.2352(9)
H89 H -0.0792 0.7432 0.2343
C78 C -0.1510(11) 0.7957(5) 0.2027(11)
H90 H -0.2102 0.8067 0.2074
H91 H -0.1482 0.7960 0.1396
C79 C 0.1918(9) 0.6807(4) 0.5545(9)
H92 H 0.2389 0.6778 0.6098
C80 C 0.1232(9) 0.6438(4) 0.5467(8)
H93 H 0.0926 0.6459 0.5973
C81 C 0.0538(9) 0.6519(4) 0.4616(8)
H94 H 0.0841 0.6495 0.4109
C82 C 0.0129(8) 0.6941(4) 0.4592(8)
H95 H -0.0232 0.6962 0.5054
C83 C 0.0800(9) 0.7289(4) 0.4706(9)
H96 H 0.1077 0.7300 0.4180
C84 C 0.0429(9) 0.7712(5) 0.4851(10)
H97 H 0.0921 0.7920 0.4979
H98 H 0.0008 0.7802 0.4306
N1 N 0.272(2) 0.8299(8) 0.2944(18)
C85 C 0.191(2) 0.8195(9) 0.3142(17)
H99 H 0.1662 0.8371 0.3522
C86 C 0.1449(13) 0.7826(6) 0.2781(12)
H100 H 0.0960 0.7724 0.3006
C87 C 0.1724(11) 0.7605(6) 0.2076(12)
C88 C 0.2484(16) 0.7779(8) 0.1785(16)
H101 H 0.2657 0.7665 0.1282
C89 C 0.299(2) 0.8130(9) 0.227(2)
H102 H 0.3502 0.8235 0.2093
C90 C 0.1257(12) 0.7218(6) 0.1661(12)
C91 C 0.1043(14) 0.7207(7) 0.0742(13)
H103 H 0.1207 0.7435 0.0414
C92 C 0.0599(17) 0.6868(9) 0.0310(16)
H104 H 0.0480 0.6863 -0.0316
C93 C 0.0322(14) 0.6540(7) 0.0737(13)
C94 C -0.0191(14) 0.6189(7) 0.0304(14)
H105 H -0.0348 0.6181 -0.0321
C95 C -0.0470(12) 0.5854(7) 0.0796(14)
H106 H -0.0766 0.5617 0.0490
C96 C -0.0322(12) 0.5865(6) 0.1693(14)
H107 H -0.0523 0.5642 0.2012
C97 C 0.0140(13) 0.6216(7) 0.2137(13)
H108 H 0.0221 0.6229 0.2760
C98 C 0.0500(11) 0.6560(6) 0.1688(12)
C99 C 0.0955(12) 0.6920(6) 0.2081(13)
H109 H 0.1047 0.6946 0.2703
N2 N -0.0865(15) 0.3425(5) -0.0663(13)
C100 C -0.0196(18) 0.3612(7) -0.1008(14)
H110 H -0.0045 0.3501 -0.1524
C101 C 0.0254(17) 0.3963(7) -0.0596(15)
H111 H 0.0711 0.4092 -0.0832
C102 C 0.0034(14) 0.4127(6) 0.0159(13)
C103 C -0.0635(13) 0.3939(6) 0.0504(12)
H112 H -0.0786 0.4051 0.1021
C104 C -0.1085(12) 0.3588(6) 0.0093(13)
H113 H -0.1543 0.3460 0.0328
C105 C 0.1135(13) 0.4865(5) 0.1969(8)
H114 H 0.1233 0.4880 0.2593
C106 C 0.0638(12) 0.4536(4) 0.1517(11)
H115 H 0.0396 0.4326 0.1833
C107 C 0.0494(10) 0.4515(4) 0.0604(11)
C108 C 0.0848(11) 0.4823(5) 0.0142(8)
H116 H 0.0750 0.4809 -0.0482
C109 C 0.1345(10) 0.5153(4) 0.0594(7)
C110 C 0.1489(10) 0.5174(4) 0.1507(7)
C111 C 0.1986(14) 0.5503(5) 0.1958(10)
H117 H 0.2084 0.5517 0.2582
C112 C 0.2340(16) 0.5811(5) 0.1496(13)
H118 H 0.2680 0.6036 0.1805
C113 C 0.2197(17) 0.5790(6) 0.0583(13)
H119 H 0.2438 0.6001 0.0267
C114 C 0.1699(15) 0.5461(6) 0.0132(10)
H120 H 0.1601 0.5446 -0.0492
O71 O 0.1774(6) 0.2991(3) 0.4734(6)
O72 O 0.1431(6) 0.3547(3) 0.6026(6)
O73 O 0.6784(7) 0.7436(3) 0.4882(7)
O74 O -0.3321(7) 0.5996(3) 0.3830(7)
O75 O 0.2847(8) 0.8065(4) -0.3332(7)
O76 O -0.1738(8) 0.5813(4) 0.5458(7)
O77 O -0.2872(8) 0.4473(5) -0.4663(9)
O78 O -0.3424(8) 0.3924(5) 0.3957(10)
O79 O -0.4662(8) 0.3622(4) -0.0926(10)
O80 O 0.5090(9) 0.3555(5) 0.4490(10)
O81 O 0.6508(9) 0.5138(5) 0.4145(11)
O82 O 0.5320(9) 0.5760(6) -0.1662(11)
O83 O -0.2328(13) 0.6701(5) -0.4555(10)
O84 O 0.5631(12) 0.7765(7) 0.5836(13)
O85 O 0.5134(11) 0.5224(6) 0.5937(11)
O86 O 0.4153(10) 0.3484(5) -0.2561(12)
O87 O 0.6376(12) 0.5827(6) 0.5704(12)
O88 O 0.3943(15) 0.6169(7) 0.6838(14)
O89 O 0.5761(14) 0.4441(6) 0.6543(14)
O90 O 0.5640(14) 0.3131(7) 0.1972(12)
O91 O 0.3649(13) 0.5381(8) 0.6632(12)
O92 O 0.6305(13) 0.6458(8) 0.6845(13)
O93 O -0.4022(13) 0.7850(8) -0.2436(14)
O94 O 0.539(2) 0.3673(9) 0.6275(19)
C115? C 0.237(2) 0.5721(10) 0.1906(18)
C116? C -0.0808(13) 0.3791(6) 0.0398(15)
C117? C -0.0829(18) 0.3523(6) -0.0315(18)
C118? C -0.028(2) 0.3603(7) -0.0904(17)
C119? C 0.0285(18) 0.3950(7) -0.0780(14)
C120? C 0.0306(11) 0.4217(5) -0.0067(10)
C121? C 0.0874(12) 0.4564(5) 0.0057(12)
C122? C 0.182(2) 0.5366(9) 0.1775(13)
C123? C 0.144(2) 0.5232(8) 0.0925(13)
C124? C 0.161(3) 0.5455(10) 0.0205(14)
C125? C 0.215(3) 0.5811(10) 0.034(2)
C126? C 0.0895(13) 0.4832(5) 0.0770(13)
C127? C 0.0349(15) 0.4752(6) 0.1359(12)
C128? C -0.0219(14) 0.4405(6) 0.1235(11)
C129? C -0.0240(10) 0.4138(5) 0.0522(10)
H121? H 0.2625 0.5813 0.2487
H122? H -0.1181 0.3737 0.0800
H123? H -0.1217 0.3286 -0.0400
H124? H -0.0298 0.3420 -0.1391
H125? H 0.0658 0.4004 -0.1182
H126? H 0.1247 0.4618 -0.0345
H127? H 0.1712 0.5214 0.2267
H128? H 0.1346 0.5364 -0.0376
H129? H 0.2259 0.5963 -0.0157
H130? H 0.0364 0.4935 0.1846
H131? H -0.0592 0.4351 0.1637
N3? N 0.253(2) 0.5944(9) 0.119(2)
O95? O 0.3357(16) 0.8122(7) -0.0092(15)
O96? O 0.361(2) 0.3370(11) 0.120(2)
loop_
_geom_bond_atom_site_label_1
_geom_bond_atom_site_label_2
_geom_bond_site_symmetry_1
_geom_bond_site_symmetry_2
O1 C1 1_555 1_555
O2 C2 1_555 1_555
O3 C3 1_555 1_555
O4 C4 1_555 1_555
O5 C6 1_555 1_555
O6 C7 1_555 1_555
O7 C8 1_555 1_555
O8 C9 1_555 1_555
O9 C1 1_555 1_555
O10 C12 1_555 1_555
O11 C13 1_555 1_555
O12 C14 1_555 1_555
O13 C15 1_555 1_555
O14 C7 1_555 1_555
O15 C18 1_555 1_555
O16 C19 1_555 1_555
O17 C20 1_555 1_555
O18 C21 1_555 1_555
O19 C13 1_555 1_555
O20 C24 1_555 1_555
O21 C25 1_555 1_555
O22 C26 1_555 1_555
O23 C27 1_555 1_555
O24 C19 1_555 1_555
O25 C30 1_555 1_555
O26 C31 1_555 1_555
O27 C32 1_555 1_555
O28 C33 1_555 1_555
O29 C25 1_555 1_555
O30 C36 1_555 1_555
O31 C37 1_555 1_555
O32 C38 1_555 1_555
O33 C39 1_555 1_555
O34 C31 1_555 1_555
O35 C42 1_555 1_555
C1 H1 1_555 1_555
C2 C1 1_555 1_555
H2 C2 1_555 1_555
C3 C2 1_555 1_555
H3 C3 1_555 1_555
C4 C3 1_555 1_555
H4 C4 1_555 1_555
C5 O1 1_555 1_555
H5 C5 1_555 1_555
C6 C5 1_555 1_555
H6 C6 1_555 1_555
H7 C6 1_555 1_555
C7 H8 1_555 1_555
C8 C7 1_555 1_555
H9 C8 1_555 1_555
C9 C8 1_555 1_555
H10 C9 1_555 1_555
C10 O9 1_555 1_555
H11 C10 1_555 1_555
C11 O6 1_555 1_555
H12 C11 1_555 1_555
C12 C11 1_555 1_555
H13 C12 1_555 1_555
H14 C12 1_555 1_555
C13 H15 1_555 1_555
C14 C13 1_555 1_555
H16 C14 1_555 1_555
C15 C14 1_555 1_555
H17 C15 1_555 1_555
C16 O14 1_555 1_555
H18 C16 1_555 1_555
C17 O11 1_555 1_555
H19 C17 1_555 1_555
C18 C17 1_555 1_555
H20 C18 1_555 1_555
H21 C18 1_555 1_555
C19 H22 1_555 1_555
C20 C19 1_555 1_555
H23 C20 1_555 1_555
C21 C20 1_555 1_555
H24 C21 1_555 1_555
C22 O19 1_555 1_555
H25 C22 1_555 1_555
C23 O16 1_555 1_555
H26 C23 1_555 1_555
C24 C23 1_555 1_555
H27 C24 1_555 1_555
H28 C24 1_555 1_555
C25 H29 1_555 1_555
C26 C25 1_555 1_555
H30 C26 1_555 1_555
C27 C26 1_555 1_555
H31 C27 1_555 1_555
C28 O24 1_555 1_555
H32 C28 1_555 1_555
C29 O21 1_555 1_555
H33 C29 1_555 1_555
C30 C29 1_555 1_555
H34 C30 1_555 1_555
H35 C30 1_555 1_555
C31 H36 1_555 1_555
C32 C31 1_555 1_555
H37 C32 1_555 1_555
C33 C32 1_555 1_555
H38 C33 1_555 1_555
C34 O29 1_555 1_555
H39 C34 1_555 1_555
C35 O26 1_555 1_555
H40 C35 1_555 1_555
C36 C35 1_555 1_555
H41 C36 1_555 1_555
H42 C36 1_555 1_555
C37 O4 1_555 1_555
H43 C37 1_555 1_555
C38 C37 1_555 1_555
H44 C38 1_555 1_555
C39 C38 1_555 1_555
H45 C39 1_555 1_555
C40 O34 1_555 1_555
H46 C40 1_555 1_555
C41 O31 1_555 1_555
H47 C41 1_555 1_555
C42 C41 1_555 1_555
H48 C42 1_555 1_555
H49 C42 1_555 1_555
O36 C43 1_555 1_555
O37 C44 1_555 1_555
O38 C45 1_555 1_555
O39 C46 1_555 1_555
O40 C48 1_555 1_555
O41 C49 1_555 1_555
O42 C50 1_555 1_555
O43 C51 1_555 1_555
O44 C43 1_555 1_555
O45 C54 1_555 1_555
O46 C55 1_555 1_555
O47 C56 1_555 1_555
O48 C57 1_555 1_555
O49 C49 1_555 1_555
O50 C60 1_555 1_555
O51 C61 1_555 1_555
O52 C62 1_555 1_555
O53 C63 1_555 1_555
O54 C55 1_555 1_555
O55 C66 1_555 1_555
O56 C67 1_555 1_555
O57 C68 1_555 1_555
O58 C69 1_555 1_555
O59 C61 1_555 1_555
O60 C72 1_555 1_555
O61 C73 1_555 1_555
O62 C74 1_555 1_555
O63 C75 1_555 1_555
O64 C67 1_555 1_555
O65 C78 1_555 1_555
O66 C79 1_555 1_555
O67 C80 1_555 1_555
O68 C81 1_555 1_555
O69 C73 1_555 1_555
O70 C84 1_555 1_555
C43 H50 1_555 1_555
C44 C43 1_555 1_555
H51 C44 1_555 1_555
C45 C44 1_555 1_555
H52 C45 1_555 1_555
C46 C45 1_555 1_555
H53 C46 1_555 1_555
C47 O36 1_555 1_555
H54 C47 1_555 1_555
C48 C47 1_555 1_555
H55 C48 1_555 1_555
H56 C48 1_555 1_555
C49 H57 1_555 1_555
C50 C49 1_555 1_555
H58 C50 1_555 1_555
C51 C50 1_555 1_555
H59 C51 1_555 1_555
C52 O44 1_555 1_555
H60 C52 1_555 1_555
C53 O41 1_555 1_555
H61 C53 1_555 1_555
C54 C53 1_555 1_555
H62 C54 1_555 1_555
H63 C54 1_555 1_555
C55 H64 1_555 1_555
C56 C55 1_555 1_555
H65 C56 1_555 1_555
C57 C56 1_555 1_555
H66 C57 1_555 1_555
C58 O49 1_555 1_555
H67 C58 1_555 1_555
C59 O46 1_555 1_555
H68 C59 1_555 1_555
C60 C59 1_555 1_555
H69 C60 1_555 1_555
H70 C60 1_555 1_555
C61 H71 1_555 1_555
C62 C61 1_555 1_555
H72 C62 1_555 1_555
C63 C62 1_555 1_555
H73 C63 1_555 1_555
C64 O54 1_555 1_555
H74 C64 1_555 1_555
C65 O51 1_555 1_555
H75 C65 1_555 1_555
C66 C65 1_555 1_555
H76 C66 1_555 1_555
H77 C66 1_555 1_555
C67 H78 1_555 1_555
C68 C67 1_555 1_555
H79 C68 1_555 1_555
C69 C68 1_555 1_555
H80 C69 1_555 1_555
C70 O59 1_555 1_555
H81 C70 1_555 1_555
C71 O56 1_555 1_555
H82 C71 1_555 1_555
C72 C71 1_555 1_555
H83 C72 1_555 1_555
H84 C72 1_555 1_555
C73 H85 1_555 1_555
C74 C73 1_555 1_555
H86 C74 1_555 1_555
C75 C74 1_555 1_555
H87 C75 1_555 1_555
C76 O64 1_555 1_555
H88 C76 1_555 1_555
C77 O61 1_555 1_555
H89 C77 1_555 1_555
C78 C77 1_555 1_555
H90 C78 1_555 1_555
H91 C78 1_555 1_555
C79 O39 1_555 1_555
H92 C79 1_555 1_555
C80 C79 1_555 1_555
H93 C80 1_555 1_555
C81 C80 1_555 1_555
H94 C81 1_555 1_555
C82 O69 1_555 1_555
H95 C82 1_555 1_555
C83 O66 1_555 1_555
H96 C83 1_555 1_555
C84 C83 1_555 1_555
H97 C84 1_555 1_555
H98 C84 1_555 1_555
N1 C85 1_555 1_555
C85 H99 1_555 1_555
C86 C85 1_555 1_555
H100 C86 1_555 1_555
C87 C86 1_555 1_555
C88 C87 1_555 1_555
H101 C88 1_555 1_555
C89 N1 1_555 1_555
H102 C89 1_555 1_555
C90 C87 1_555 1_555
C91 C90 1_555 1_555
H103 C91 1_555 1_555
C92 C91 1_555 1_555
H104 C92 1_555 1_555
C93 C92 1_555 1_555
C94 C93 1_555 1_555
H105 C94 1_555 1_555
C95 C94 1_555 1_555
H106 C95 1_555 1_555
C96 C95 1_555 1_555
H107 C96 1_555 1_555
C97 C96 1_555 1_555
H108 C97 1_555 1_555
C98 C93 1_555 1_555
C99 C90 1_555 1_555
H109 C99 1_555 1_555
N2 C100 1_555 1_555
C100 H110 1_555 1_555
C101 C100 1_555 1_555
H111 C101 1_555 1_555
C102 C101 1_555 1_555
C103 C102 1_555 1_555
H112 C103 1_555 1_555
C104 N2 1_555 1_555
H113 C104 1_555 1_555
C105 H114 1_555 1_555
C106 C105 1_555 1_555
H115 C106 1_555 1_555
C107 C102 1_555 1_555
C108 C107 1_555 1_555
H116 C108 1_555 1_555
C109 C108 1_555 1_555
C110 C105 1_555 1_555
C111 C110 1_555 1_555
H117 C111 1_555 1_555
C112 C111 1_555 1_555
H118 C112 1_555 1_555
C113 C112 1_555 1_555
H119 C113 1_555 1_555
C114 C109 1_555 1_555
H120 C114 1_555 1_555
C4 C5 1_555 1_555
C9 C10 1_555 1_555
C10 C11 1_555 1_555
C15 C16 1_555 1_555
C16 C17 1_555 1_555
C21 C22 1_555 1_555
C22 C23 1_555 1_555
C27 C28 1_555 1_555
C28 C29 1_555 1_555
C33 C34 1_555 1_555
C34 C35 1_555 1_555
C39 C40 1_555 1_555
C40 C41 1_555 1_555
C46 C47 1_555 1_555
C51 C52 1_555 1_555
C52 C53 1_555 1_555
C57 C58 1_555 1_555
C58 C59 1_555 1_555
C63 C64 1_555 1_555
C64 C65 1_555 1_555
C69 C70 1_555 1_555
C70 C71 1_555 1_555
C75 C76 1_555 1_555
C76 C77 1_555 1_555
C81 C82 1_555 1_555
C82 C83 1_555 1_555
C88 C89 1_555 1_555
C97 C98 1_555 1_555
C98 C99 1_555 1_555
C103 C104 1_555 1_555
C106 C107 1_555 1_555
C109 C110 1_555 1_555
C113 C114 1_555 1_555

#END
