
#######################################################################
#
#                 Cambridge Crystallographic Data Centre
#                                CCDC 
#
#######################################################################
#
# If this CIF has been generated from an entry in the Cambridge 
# Structural Database, then it will include bibliographic, chemical, 
# crystal, experimental, refinement or atomic coordinate data resulting 
# from the CCDC's data processing and validation procedures.
#
#######################################################################

data_OKAQEX
_chemical_formula_moiety         'C16 H14 N1 1+,Cl1 O4 1-'
_chemical_name_systematic        '1-Methyl-4-(2-naphthyl)pyridinium perchlorate'
_symmetry_cell_setting           monoclinic
_symmetry_space_group_name_H-M   'P 21/n'
_symmetry_Int_Tables_number      14
_space_group_name_Hall           '-P 2yn'
loop_
_symmetry_equiv_pos_site_id
_symmetry_equiv_pos_as_xyz
1 x,y,z
2 1/2-x,1/2+y,1/2-z
3 -x,-y,-z
4 1/2+x,1/2-y,1/2+z
_cell_length_a                   7.2307(3)
_cell_length_b                   10.6633(4)
_cell_length_c                   19.3911(7)
_cell_angle_alpha                90
_cell_angle_beta                 97.973(2)
_cell_angle_gamma                90
_cell_volume                     1480.66
_exptl_crystal_colour            colorless
_exptl_crystal_description       block
_chemical_melting_point          199-201deg.C
_cell_formula_units_Z            4
_exptl_crystal_recrystallization_method acetonitrile
loop_
_atom_site_label
_atom_site_type_symbol
_atom_site_fract_x
_atom_site_fract_y
_atom_site_fract_z
Cl1 Cl 0.69853(7) 0.32534(4) 0.14544(2)
O1 O 0.6310(2) 0.40233(14) 0.08612(7)
O2 O 0.5717(2) 0.22207(14) 0.14967(8)
O3 O 0.7099(3) 0.39955(14) 0.20806(7)
O4 O 0.8796(2) 0.27677(16) 0.13745(10)
N1 N 0.36091(19) 0.23424(14) -0.11594(8)
C1 C 0.3488(3) 0.27864(19) -0.05174(11)
C2 C 0.3059(3) 0.20118(18) 0.00032(11)
C3 C 0.2712(2) 0.07313(16) -0.01190(9)
C4 C 0.2853(3) 0.03096(18) -0.07941(10)
C5 C 0.3298(3) 0.11140(17) -0.12971(10)
C6 C 0.2255(2) -0.01475(18) 0.04270(9)
C7 C 0.2055(2) -0.14110(18) 0.02879(10)
C8 C 0.1646(2) -0.22876(19) 0.07963(10)
C9 C 0.1441(3) -0.3587(2) 0.06510(12)
C10 C 0.1020(3) -0.4414(2) 0.11483(13)
C11 C 0.0801(3) -0.3968(3) 0.18162(13)
C12 C 0.0998(3) -0.2730(3) 0.19801(12)
C13 C 0.1414(2) -0.1842(2) 0.14724(10)
C14 C 0.1597(3) -0.0532(2) 0.16044(11)
C15 C 0.2003(3) 0.0287(2) 0.11043(10)
C16 C 0.4058(3) 0.3194(2) -0.17177(12)
H1 H 0.379(3) 0.364(2) -0.0450(11)
H2 H 0.302(3) 0.238(2) 0.0459(13)
H3 H 0.266(3) -0.046(2) -0.0937(11)
H4 H 0.340(3) 0.084(2) -0.1784(11)
H5 H 0.221(3) -0.174(2) -0.0140(12)
H6 H 0.165(3) -0.386(2) 0.0183(12)
H7 H 0.091(4) -0.531(3) 0.1055(14)
H8 H 0.050(4) -0.453(3) 0.2137(13)
H9 H 0.086(3) -0.239(2) 0.2413(14)
H10 H 0.144(3) -0.021(2) 0.2054(12)
H11 H 0.211(3) 0.117(2) 0.1212(11)
H12 H 0.495(4) 0.382(3) -0.1546(15)
H13 H 0.294(4) 0.345(3) -0.1997(14)
H14 H 0.475(4) 0.276(3) -0.2014(15)
loop_
_geom_bond_atom_site_label_1
_geom_bond_atom_site_label_2
_geom_bond_site_symmetry_1
_geom_bond_site_symmetry_2
Cl1 O1 1_555 1_555
O2 Cl1 1_555 1_555
O3 Cl1 1_555 1_555
O4 Cl1 1_555 1_555
N1 C1 1_555 1_555
C1 C2 1_555 1_555
C2 C3 1_555 1_555
C3 C4 1_555 1_555
C4 C5 1_555 1_555
C5 N1 1_555 1_555
C6 C3 1_555 1_555
C7 C6 1_555 1_555
C8 C7 1_555 1_555
C9 C8 1_555 1_555
C10 C9 1_555 1_555
C11 C10 1_555 1_555
C12 C11 1_555 1_555
C13 C8 1_555 1_555
C14 C13 1_555 1_555
C15 C6 1_555 1_555
C16 N1 1_555 1_555
H1 C1 1_555 1_555
H2 C2 1_555 1_555
H3 C4 1_555 1_555
H4 C5 1_555 1_555
H5 C7 1_555 1_555
H6 C9 1_555 1_555
H7 C10 1_555 1_555
H8 C11 1_555 1_555
H9 C12 1_555 1_555
H10 C14 1_555 1_555
H11 C15 1_555 1_555
H12 C16 1_555 1_555
H13 C16 1_555 1_555
H14 C16 1_555 1_555
C12 C13 1_555 1_555
C14 C15 1_555 1_555

#END
