
#######################################################################
#
#                 Cambridge Crystallographic Data Centre
#                                CCDC 
#
#######################################################################
#
# If this CIF has been generated from an entry in the Cambridge 
# Structural Database, then it will include bibliographic, chemical, 
# crystal, experimental, refinement or atomic coordinate data resulting 
# from the CCDC's data processing and validation procedures.
#
#######################################################################

data_OKATOK01
_chemical_formula_moiety         'C11 H13 N1 S3'
_chemical_name_systematic        2-(t-butyldisulfanyl)-1,3-benzothiazole
_symmetry_cell_setting           triclinic
_symmetry_space_group_name_H-M   'P -1'
_symmetry_Int_Tables_number      2
_space_group_name_Hall           '-P 1'
loop_
_symmetry_equiv_pos_site_id
_symmetry_equiv_pos_as_xyz
1 x,y,z
2 -x,-y,-z
_cell_length_a                   5.9542(6)
_cell_length_b                   9.4840(7)
_cell_length_c                   11.3878(9)
_cell_angle_alpha                83.287(6)
_cell_angle_beta                 79.471(8)
_cell_angle_gamma                77.465(7)
_cell_volume                     615.165
_exptl_crystal_colour            white
_chemical_melting_point          '351-353 K'
_cell_formula_units_Z            2
loop_
_atom_site_label
_atom_site_type_symbol
_atom_site_fract_x
_atom_site_fract_y
_atom_site_fract_z
C1 C 0.2439(4) 0.1355(2) 0.32626(18)
C2 C 0.1242(4) 0.0861(2) 0.2509(2)
H1 H -0.0074 0.0473 0.2811
C3 C 0.2072(5) 0.0965(2) 0.1301(2)
H2 H 0.1310 0.0635 0.0776
C4 C 0.4027(5) 0.1554(2) 0.0850(2)
H3 H 0.4545 0.1619 0.0028
C5 C 0.5206(5) 0.2040(2) 0.1595(2)
H4 H 0.6515 0.2432 0.1285
C6 C 0.4411(4) 0.1938(2) 0.2827(2)
C7 C 0.4236(4) 0.2163(2) 0.4723(2)
C8 C 0.0733(4) 0.3819(2) 0.77104(19)
C9 C -0.0147(5) 0.4585(2) 0.6592(2)
H5 H 0.1125 0.4873 0.6037
H6 H -0.1317 0.5427 0.6800
H7 H -0.0808 0.3942 0.6228
C10 C 0.1933(5) 0.4770(2) 0.8259(2)
H8 H 0.2505 0.4258 0.8957
H9 H 0.0842 0.5639 0.8481
H10 H 0.3213 0.5017 0.7686
C11 C -0.1219(5) 0.3330(3) 0.8605(2)
H11 H -0.1903 0.2697 0.8242
H12 H -0.2387 0.4160 0.8846
H13 H -0.0606 0.2822 0.9295
N1 N 0.5416(3) 0.23898(19) 0.36840(17)
S1 S 0.18179(11) 0.13828(6) 0.48115(5)
S2 S 0.51897(11) 0.25824(7) 0.59953(6)
S3 S 0.27788(12) 0.20863(6) 0.73801(5)
loop_
_geom_bond_atom_site_label_1
_geom_bond_atom_site_label_2
_geom_bond_site_symmetry_1
_geom_bond_site_symmetry_2
C1 C2 1_555 1_555
C2 H1 1_555 1_555
C3 C2 1_555 1_555
H2 C3 1_555 1_555
C4 C3 1_555 1_555
H3 C4 1_555 1_555
C5 C4 1_555 1_555
H4 C5 1_555 1_555
C6 C1 1_555 1_555
C7 N1 1_555 1_555
C8 C9 1_555 1_555
C9 H5 1_555 1_555
H6 C9 1_555 1_555
H7 C9 1_555 1_555
C10 C8 1_555 1_555
H8 C10 1_555 1_555
H9 C10 1_555 1_555
H10 C10 1_555 1_555
C11 C8 1_555 1_555
H11 C11 1_555 1_555
H12 C11 1_555 1_555
H13 C11 1_555 1_555
N1 C6 1_555 1_555
S1 C1 1_555 1_555
S2 C7 1_555 1_555
S3 C8 1_555 1_555
C5 C6 1_555 1_555
C7 S1 1_555 1_555
S2 S3 1_555 1_555

#END
