
#######################################################################
#
#                 Cambridge Crystallographic Data Centre
#                                CCDC 
#
#######################################################################
#
# If this CIF has been generated from an entry in the Cambridge 
# Structural Database, then it will include bibliographic, chemical, 
# crystal, experimental, refinement or atomic coordinate data resulting 
# from the CCDC's data processing and validation procedures.
#
#######################################################################

data_OKATAW
_chemical_formula_moiety         'C13 H13 N3 O2'
_chemical_name_systematic        
4a-Acetyl-4-methylene-1,3,4,4a,5,9b-hexahydro-2H-pyrimido[5,4-b]indol-2-one
_symmetry_cell_setting           orthorhombic
_symmetry_space_group_name_H-M   'P 21 21 21'
_symmetry_Int_Tables_number      19
_space_group_name_Hall           'P 2ac 2ab'
loop_
_symmetry_equiv_pos_site_id
_symmetry_equiv_pos_as_xyz
1 x,y,z
2 1/2-x,-y,1/2+z
3 1/2+x,1/2-y,-z
4 -x,1/2+y,1/2-z
_cell_length_a                   7.3985(16)
_cell_length_b                   11.859(3)
_cell_length_c                   26.749(6)
_cell_angle_alpha                90
_cell_angle_beta                 90
_cell_angle_gamma                90
_cell_volume                     2346.93
_exptl_crystal_colour            yellow
_exptl_crystal_description       block
_cell_formula_units_Z            8
loop_
_atom_site_label
_atom_site_type_symbol
_atom_site_fract_x
_atom_site_fract_y
_atom_site_fract_z
O1 O 0.5295(7) -0.0211(3) 0.29298(14)
O2 O 0.4880(4) 0.48112(19) 0.35649(11)
N1 N 0.4773(5) 0.0383(2) 0.38819(12)
H1 H 0.5177 -0.0294 0.3852
N2 N 0.6400(4) 0.3174(3) 0.36113(13)
H2 H 0.7359 0.3558 0.3675
N3 N 0.3342(4) 0.3166(3) 0.34812(13)
H3 H 0.2425 0.3498 0.3350
C1 C 0.3866(5) 0.0824(3) 0.42948(15)
C2 C 0.2901(5) 0.1780(3) 0.41652(15)
C3 C 0.1916(6) 0.2354(4) 0.45118(16)
H4 H 0.1281 0.3000 0.4422
C4 C 0.1870(7) 0.1964(4) 0.50001(17)
H5 H 0.1202 0.2352 0.5239
C5 C 0.2803(7) 0.1009(4) 0.51336(17)
H6 H 0.2755 0.0756 0.5462
C6 C 0.3823(6) 0.0411(4) 0.47829(17)
H7 H 0.4450 -0.0239 0.4872
C7 C 0.4917(6) 0.1292(3) 0.35034(13)
C8 C 0.3173(5) 0.1997(3) 0.36118(15)
H8 H 0.2158 0.1670 0.3426
C9 C 0.4864(5) 0.3770(3) 0.35534(14)
C10 C 0.6620(5) 0.2005(3) 0.35799(14)
C11 C 0.5012(7) 0.0777(3) 0.29786(15)
C12 C 0.4911(9) 0.1552(4) 0.25476(16)
H9 H 0.5340 0.1174 0.2253
H10 H 0.5648 0.2203 0.2611
H11 H 0.3681 0.1783 0.2498
C13 C 0.8210(6) 0.1569(4) 0.3606(2)
H12 H 0.9215 0.2031 0.3645
H13 H 0.8354 0.0791 0.3585
O3 O 0.9661(7) 0.7137(3) 0.26133(12)
O4 O 0.9838(4) 0.43687(18) 0.36148(10)
N4 N 1.0041(5) 0.8929(2) 0.36878(11)
H14 H 1.0458 0.9557 0.3575
N5 N 1.1480(4) 0.5974(3) 0.36050(13)
H15 H 1.2437 0.5563 0.3615
N6 N 0.8383(4) 0.6037(3) 0.36062(14)
H16 H 0.7366 0.5687 0.3590
C14 C 0.8342(5) 0.7255(3) 0.36272(14)
H17 H 0.7329 0.7517 0.3422
C15 C 1.1741(5) 0.7137(3) 0.35856(14)
C16 C 0.9874(5) 0.5423(3) 0.36099(14)
C17 C 1.0099(6) 0.7833(3) 0.34331(13)
C18 C 0.8163(5) 0.7778(3) 0.41403(14)
C19 C 0.9186(5) 0.8764(3) 0.41469(15)
C20 C 0.9206(6) 0.9451(4) 0.45635(17)
H18 H 0.9859 1.0121 0.4568
C21 C 1.0084(6) 0.7936(4) 0.28592(15)
C22 C 0.8209(7) 0.9101(4) 0.49782(17)
H19 H 0.8185 0.9556 0.5261
C23 C 0.7257(7) 0.8102(4) 0.49818(17)
H20 H 0.6642 0.7874 0.5268
C24 C 0.7228(6) 0.7443(4) 0.45561(16)
H21 H 0.6574 0.6773 0.4552
C25 C 1.0641(12) 0.8994(5) 0.2634(2)
H22 H 1.0851 0.8885 0.2284
H23 H 1.1732 0.9252 0.2791
H24 H 0.9706 0.9547 0.2680
C26 C 1.3342(5) 0.7563(3) 0.36714(16)
H25 H 1.4307 0.7089 0.3745
H26 H 1.3515 0.8339 0.3658
loop_
_geom_bond_atom_site_label_1
_geom_bond_atom_site_label_2
_geom_bond_site_symmetry_1
_geom_bond_site_symmetry_2
O1 C11 1_555 1_555
O2 C9 1_555 1_555
N1 H1 1_555 1_555
N2 H2 1_555 1_555
N3 H3 1_555 1_555
C1 N1 1_555 1_555
C2 C1 1_555 1_555
C3 C2 1_555 1_555
H4 C3 1_555 1_555
C4 C3 1_555 1_555
H5 C4 1_555 1_555
C5 C4 1_555 1_555
H6 C5 1_555 1_555
C6 C1 1_555 1_555
H7 C6 1_555 1_555
C7 N1 1_555 1_555
C8 N3 1_555 1_555
H8 C8 1_555 1_555
C9 N2 1_555 1_555
C10 N2 1_555 1_555
C11 C7 1_555 1_555
C12 C11 1_555 1_555
H9 C12 1_555 1_555
H10 C12 1_555 1_555
H11 C12 1_555 1_555
C13 C10 1_555 1_555
H12 C13 1_555 1_555
H13 C13 1_555 1_555
O3 C21 1_555 1_555
O4 C16 1_555 1_555
N4 H14 1_555 1_555
N5 H15 1_555 1_555
N6 H16 1_555 1_555
C14 N6 1_555 1_555
H17 C14 1_555 1_555
C15 N5 1_555 1_555
C16 N5 1_555 1_555
C17 N4 1_555 1_555
C18 C14 1_555 1_555
C19 N4 1_555 1_555
C20 C19 1_555 1_555
H18 C20 1_555 1_555
C21 C17 1_555 1_555
C22 C20 1_555 1_555
H19 C22 1_555 1_555
C23 C22 1_555 1_555
H20 C23 1_555 1_555
C24 C18 1_555 1_555
H21 C24 1_555 1_555
C25 C21 1_555 1_555
H22 C25 1_555 1_555
H23 C25 1_555 1_555
H24 C25 1_555 1_555
C26 C15 1_555 1_555
H25 C26 1_555 1_555
H26 C26 1_555 1_555
N3 C9 1_555 1_555
C2 C8 1_555 1_555
C5 C6 1_555 1_555
C7 C8 1_555 1_555
C7 C10 1_555 1_555
N6 C16 1_555 1_555
C14 C17 1_555 1_555
C15 C17 1_555 1_555
C18 C19 1_555 1_555
C23 C24 1_555 1_555

#END
