
#######################################################################
#
#                 Cambridge Crystallographic Data Centre
#                                CCDC 
#
#######################################################################
#
# If this CIF has been generated from an entry in the Cambridge 
# Structural Database, then it will include bibliographic, chemical, 
# crystal, experimental, refinement or atomic coordinate data resulting 
# from the CCDC's data processing and validation procedures.
#
#######################################################################

data_OKATUQ
_chemical_formula_moiety         'C10 H7 N1 O4 S1'
_chemical_name_systematic        2-(Methylsulfanyl)-3-nitro-4H-chromen-4-one
_symmetry_cell_setting           monoclinic
_symmetry_space_group_name_H-M   'P 21/c'
_symmetry_Int_Tables_number      14
_space_group_name_Hall           '-P 2ybc'
loop_
_symmetry_equiv_pos_site_id
_symmetry_equiv_pos_as_xyz
1 x,y,z
2 -x,1/2+y,1/2-z
3 -x,-y,-z
4 x,1/2-y,1/2+z
_cell_length_a                   7.7940(8)
_cell_length_b                   17.3990(16)
_cell_length_c                   8.1600(7)
_cell_angle_alpha                90
_cell_angle_beta                 117.998(6)
_cell_angle_gamma                90
_cell_volume                     977.052
_cell_formula_units_Z            4
loop_
_atom_site_label
_atom_site_type_symbol
_atom_site_fract_x
_atom_site_fract_y
_atom_site_fract_z
O1 O 0.2126(2) 0.53666(7) 0.30809(19)
C1 C 0.1982(3) 0.57671(10) 0.1622(3)
C2 C 0.2395(3) 0.54347(10) 0.0319(3)
C3 C 0.3097(3) 0.46417(11) 0.0473(3)
C4 C 0.3291(3) 0.42510(10) 0.2152(3)
C5 C 0.3984(3) 0.34936(12) 0.2565(3)
H1 H 0.4354 0.3235 0.1783
C6 C 0.4119(3) 0.31335(12) 0.4116(4)
H2 H 0.4570 0.2630 0.4375
C7 C 0.3586(3) 0.35170(14) 0.5304(3)
H3 H 0.3677 0.3267 0.6349
C8 C 0.2923(3) 0.42649(12) 0.4947(3)
H4 H 0.2577 0.4526 0.5743
C9 C 0.2789(3) 0.46137(10) 0.3371(3)
S1 S 0.12064(8) 0.67035(3) 0.15942(8)
C10 C 0.0475(4) 0.66722(12) 0.3379(4)
H5 H -0.0454 0.6267 0.3116
H6 H -0.0103 0.7154 0.3419
H7 H 0.1591 0.6579 0.4557
N1 N 0.2147(3) 0.58917(10) -0.1251(3)
O2 O 0.2283(3) 0.65958(9) -0.1058(3)
O3 O 0.1811(3) 0.55709(10) -0.2701(2)
O4 O 0.3500(2) 0.43228(8) -0.0631(2)
loop_
_geom_bond_atom_site_label_1
_geom_bond_atom_site_label_2
_geom_bond_site_symmetry_1
_geom_bond_site_symmetry_2
O1 C1 1_555 1_555
C1 C2 1_555 1_555
C2 C3 1_555 1_555
C3 C4 1_555 1_555
C4 C5 1_555 1_555
C5 H1 1_555 1_555
C6 C5 1_555 1_555
H2 C6 1_555 1_555
C7 C6 1_555 1_555
H3 C7 1_555 1_555
C8 C7 1_555 1_555
H4 C8 1_555 1_555
C9 O1 1_555 1_555
S1 C1 1_555 1_555
C10 S1 1_555 1_555
H5 C10 1_555 1_555
H6 C10 1_555 1_555
H7 C10 1_555 1_555
N1 C2 1_555 1_555
O2 N1 1_555 1_555
O3 N1 1_555 1_555
O4 C3 1_555 1_555
C4 C9 1_555 1_555
C8 C9 1_555 1_555

#END
