
#######################################################################
#
#                 Cambridge Crystallographic Data Centre
#                                CCDC 
#
#######################################################################
#
# If this CIF has been generated from an entry in the Cambridge 
# Structural Database, then it will include bibliographic, chemical, 
# crystal, experimental, refinement or atomic coordinate data resulting 
# from the CCDC's data processing and validation procedures.
#
#######################################################################

data_OKAVIG
_chemical_formula_moiety         'C10 H13 F3 N2 O3'
_chemical_name_systematic        
'Methyl (1-oxo-3-(trifluoromethyl)hexahydro-1H-pyrrolo[1,2-c]imidazol-3-yl)acetate'
_symmetry_cell_setting           monoclinic
_symmetry_space_group_name_H-M   'P 21'
_symmetry_Int_Tables_number      4
_space_group_name_Hall           'P 2yb'
loop_
_symmetry_equiv_pos_site_id
_symmetry_equiv_pos_as_xyz
1 x,y,z
2 -x,1/2+y,-z
_cell_length_a                   9.9504(11)
_cell_length_b                   19.288(2)
_cell_length_c                   12.4970(14)
_cell_angle_alpha                90
_cell_angle_beta                 91.564(2)
_cell_angle_gamma                90
_cell_volume                     2397.57
_exptl_crystal_colour            colorless
_exptl_crystal_description       prismatic
_cell_formula_units_Z            8
loop_
_atom_site_label
_atom_site_type_symbol
_atom_site_fract_x
_atom_site_fract_y
_atom_site_fract_z
F1 F 0.5594(3) 0.69278(18) 0.0015(3)
F2 F 0.5520(3) 0.6089(2) -0.1107(2)
F3 F 0.4573(3) 0.59928(19) 0.0392(3)
N1 N 0.7011(4) 0.6095(2) 0.1538(3)
N2 N 0.6805(4) 0.5187(2) 0.0356(3)
O1 O 0.6394(4) 0.5589(2) 0.3089(3)
O2 O 0.8412(4) 0.7321(2) 0.0599(3)
O3 O 0.8465(4) 0.7229(2) -0.1169(3)
C1 C 0.6578(5) 0.5576(3) 0.2152(4)
C2 C 0.6365(5) 0.4959(3) 0.1425(4)
H1 H 0.5411 0.4832 0.1390
C3 C 0.7216(7) 0.4333(3) 0.1728(6)
H2 H 0.7908 0.4455 0.2257
H3 H 0.6666 0.3965 0.2013
C4 C 0.7816(10) 0.4119(5) 0.0713(9)
H4 H 0.8678 0.3895 0.0845
H5 H 0.7227 0.3800 0.0325
C5 C 0.7982(7) 0.4767(3) 0.0105(7)
H6 H 0.8805 0.5002 0.0327
H7 H 0.8006 0.4674 -0.0657
C6 C 0.6955(4) 0.5936(2) 0.0413(3)
C7 C 0.5643(5) 0.6239(3) -0.0075(4)
C8 C 0.8141(5) 0.6201(3) -0.0224(4)
H8 H 0.8956 0.5980 0.0051
H9 H 0.8012 0.6059 -0.0965
C9 C 0.8339(5) 0.6978(3) -0.0193(4)
C10 C 0.8682(9) 0.7966(4) -0.1231(6)
H10 H 0.7981 0.8203 -0.0866
H11 H 0.8673 0.8107 -0.1968
H12 H 0.9536 0.8079 -0.0900
H49 H 0.714(4) 0.6490(13) 0.181(3)
F4 F 0.0170(3) 0.56182(18) 0.7875(2)
F5 F 0.0581(3) 0.49319(19) 0.6584(2)
F6 F 0.0104(3) 0.45198(19) 0.8101(3)
N3 N 0.2327(4) 0.5183(2) 0.9102(3)
N4 N 0.2766(4) 0.4326(2) 0.7872(3)
O4 O 0.2513(5) 0.4583(2) 1.0672(3)
O5 O 0.2066(5) 0.6594(2) 0.6530(4)
O6 O 0.2681(4) 0.65666(19) 0.8245(3)
C11 C 0.2507(5) 0.4615(3) 0.9698(4)
C12 C 0.2748(5) 0.4020(2) 0.8962(4)
H13 H 0.2030 0.3675 0.9011
C13 C 0.4108(7) 0.3688(3) 0.9146(5)
H14 H 0.4078 0.3195 0.8990
H15 H 0.4435 0.3755 0.9877
C14 C 0.4979(9) 0.4074(5) 0.8356(6)
H16 H 0.5318 0.4502 0.8666
H17 H 0.5733 0.3790 0.8149
C15 C 0.4107(6) 0.4209(3) 0.7465(5)
H18 H 0.4097 0.3818 0.6978
H19 H 0.4409 0.4616 0.7083
C16 C 0.2256(4) 0.5037(2) 0.7967(3)
C17 C 0.0783(4) 0.5022(3) 0.7637(4)
C18 C 0.2998(5) 0.5561(3) 0.7286(4)
H20 H 0.3933 0.5563 0.7524
H21 H 0.2969 0.5395 0.6553
C19 C 0.2511(5) 0.6284(3) 0.7283(4)
C20 C 0.2301(9) 0.7270(4) 0.8377(6)
H22 H 0.2709 0.7548 0.7838
H23 H 0.2594 0.7428 0.9073
H24 H 0.1340 0.7309 0.8308
H50 H 0.205(5) 0.5572(16) 0.930(4)
F7 F -0.0453(3) 0.5821(2) 0.3035(3)
F8 F 0.0674(3) 0.4915(2) 0.3379(3)
F9 F 0.0489(3) 0.5688(3) 0.4574(3)
N5 N 0.2028(4) 0.5813(2) 0.2017(3)
N6 N 0.1652(4) 0.6698(2) 0.3199(3)
O7 O 0.1419(4) 0.6324(2) 0.0422(3)
O8 O 0.3471(5) 0.4651(3) 0.4775(3)
O9 O 0.3544(4) 0.4663(2) 0.3001(3)
C21 C 0.1562(5) 0.6321(3) 0.1403(4)
C22 C 0.1193(6) 0.6920(3) 0.2129(4)
H25 H 0.0219 0.6998 0.2106
C23 C 0.1934(10) 0.7582(4) 0.1927(6)
H26 H 0.2684 0.7503 0.1462
H27 H 0.1341 0.7926 0.1599
C24 C 0.2404(11) 0.7807(5) 0.2979(7)
H28 H 0.1702 0.8054 0.3345
H29 H 0.3182 0.8107 0.2927
C25 C 0.2760(8) 0.7157(4) 0.3549(6)
H30 H 0.3623 0.6980 0.3331
H31 H 0.2779 0.7222 0.4319
C26 C 0.1912(4) 0.5954(3) 0.3143(3)
C27 C 0.0657(5) 0.5593(4) 0.3543(4)
C28 C 0.3112(5) 0.5725(3) 0.3832(4)
H32 H 0.3909 0.5937 0.3543
H33 H 0.3004 0.5915 0.4543
C29 C 0.3381(5) 0.4963(4) 0.3950(4)
C30 C 0.3823(7) 0.3938(4) 0.3001(5)
H34 H 0.4683 0.3855 0.3345
H35 H 0.3834 0.3772 0.2277
H36 H 0.3140 0.3697 0.3382
H52 H 0.226(6) 0.5423(17) 0.179(4)
F10 F 0.4818(3) 0.24462(19) 0.4487(3)
F11 F 0.4109(3) 0.2096(2) 0.2951(3)
F12 F 0.4809(3) 0.13655(19) 0.4129(3)
N7 N 0.2783(5) 0.1721(2) 0.5546(3)
N8 N 0.2077(4) 0.2564(2) 0.4366(3)
O10 O 0.2784(6) 0.2315(2) 0.7115(3)
O11 O 0.2858(5) 0.0342(2) 0.2911(3)
O12 O 0.2480(4) 0.03303(18) 0.4651(3)
C31 C 0.2662(6) 0.2294(3) 0.6144(4)
C32 C 0.2363(6) 0.2885(3) 0.5422(4)
H37 H 0.3141 0.3195 0.5389
C33 C 0.1095(8) 0.3297(4) 0.5676(6)
H38 H 0.0651 0.3098 0.6286
H39 H 0.1315 0.3777 0.5834
C34 C 0.0230(8) 0.3247(4) 0.4705(6)
H40 H -0.0712 0.3251 0.4884
H41 H 0.0400 0.3629 0.4222
C35 C 0.0602(6) 0.2582(3) 0.4221(5)
H42 H 0.0338 0.2567 0.3468
H43 H 0.0186 0.2197 0.4586
C36 C 0.2684(4) 0.1878(3) 0.4413(4)
C37 C 0.4112(5) 0.1948(3) 0.3991(4)
C38 C 0.1917(5) 0.1336(3) 0.3736(4)
H44 H 0.1016 0.1297 0.4009
H45 H 0.1831 0.1511 0.3010
C39 C 0.2514(5) 0.0624(3) 0.3696(4)
C40 C 0.2935(8) -0.0367(3) 0.4724(6)
H46 H 0.2477 -0.0642 0.4188
H47 H 0.2750 -0.0547 0.5421
H48 H 0.3886 -0.0382 0.4614
H51 H 0.308(5) 0.1326(16) 0.572(4)
loop_
_geom_bond_atom_site_label_1
_geom_bond_atom_site_label_2
_geom_bond_site_symmetry_1
_geom_bond_site_symmetry_2
F1 C7 1_555 1_555
F2 C7 1_555 1_555
F3 C7 1_555 1_555
F4 C17 1_555 1_555
F5 C17 1_555 1_555
F6 C17 1_555 1_555
F7 C27 1_555 1_555
F8 C27 1_555 1_555
F9 C27 1_555 1_555
F10 C37 1_555 1_555
F11 C37 1_555 1_555
F12 C37 1_555 1_555
N1 C1 1_555 1_555
N2 C2 1_555 1_555
N3 C11 1_555 1_555
N4 C12 1_555 1_555
N5 C21 1_555 1_555
N6 C22 1_555 1_555
N7 C31 1_555 1_555
N8 C32 1_555 1_555
O1 C1 1_555 1_555
O2 C9 1_555 1_555
O3 C9 1_555 1_555
O4 C11 1_555 1_555
O5 C19 1_555 1_555
O6 C19 1_555 1_555
O7 C21 1_555 1_555
O8 C29 1_555 1_555
O9 C29 1_555 1_555
O10 C31 1_555 1_555
O11 C39 1_555 1_555
O12 C39 1_555 1_555
C1 C2 1_555 1_555
C2 H1 1_555 1_555
C3 C2 1_555 1_555
H2 C3 1_555 1_555
H3 C3 1_555 1_555
C4 C3 1_555 1_555
H4 C4 1_555 1_555
H5 C4 1_555 1_555
C5 N2 1_555 1_555
H6 C5 1_555 1_555
H7 C5 1_555 1_555
C6 N1 1_555 1_555
C7 C6 1_555 1_555
C8 C6 1_555 1_555
H8 C8 1_555 1_555
H9 C8 1_555 1_555
C9 C8 1_555 1_555
C10 O3 1_555 1_555
H10 C10 1_555 1_555
H11 C10 1_555 1_555
H12 C10 1_555 1_555
C11 C12 1_555 1_555
C12 H13 1_555 1_555
C13 C12 1_555 1_555
H14 C13 1_555 1_555
H15 C13 1_555 1_555
C14 C13 1_555 1_555
H16 C14 1_555 1_555
H17 C14 1_555 1_555
C15 N4 1_555 1_555
H18 C15 1_555 1_555
H19 C15 1_555 1_555
C16 N3 1_555 1_555
C17 C16 1_555 1_555
C18 C16 1_555 1_555
H20 C18 1_555 1_555
H21 C18 1_555 1_555
C19 C18 1_555 1_555
C20 O6 1_555 1_555
H22 C20 1_555 1_555
H23 C20 1_555 1_555
H24 C20 1_555 1_555
C21 C22 1_555 1_555
C22 H25 1_555 1_555
C23 C22 1_555 1_555
H26 C23 1_555 1_555
H27 C23 1_555 1_555
C24 C23 1_555 1_555
H28 C24 1_555 1_555
H29 C24 1_555 1_555
C25 N6 1_555 1_555
H30 C25 1_555 1_555
H31 C25 1_555 1_555
C26 N5 1_555 1_555
C27 C26 1_555 1_555
C28 C26 1_555 1_555
H32 C28 1_555 1_555
H33 C28 1_555 1_555
C29 C28 1_555 1_555
C30 O9 1_555 1_555
H34 C30 1_555 1_555
H35 C30 1_555 1_555
H36 C30 1_555 1_555
C31 C32 1_555 1_555
C32 H37 1_555 1_555
C33 C32 1_555 1_555
H38 C33 1_555 1_555
H39 C33 1_555 1_555
C34 C33 1_555 1_555
H40 C34 1_555 1_555
H41 C34 1_555 1_555
C35 N8 1_555 1_555
H42 C35 1_555 1_555
H43 C35 1_555 1_555
C36 N7 1_555 1_555
C37 C36 1_555 1_555
C38 C36 1_555 1_555
H44 C38 1_555 1_555
H45 C38 1_555 1_555
C39 C38 1_555 1_555
C40 O12 1_555 1_555
H46 C40 1_555 1_555
H47 C40 1_555 1_555
H48 C40 1_555 1_555
H49 N1 1_555 1_555
H50 N3 1_555 1_555
H51 N7 1_555 1_555
H52 N5 1_555 1_555
N2 C6 1_555 1_555
N4 C16 1_555 1_555
N6 C26 1_555 1_555
N8 C36 1_555 1_555
C4 C5 1_555 1_555
C14 C15 1_555 1_555
C24 C25 1_555 1_555
C34 C35 1_555 1_555

#END
