
#######################################################################
#
#                 Cambridge Crystallographic Data Centre
#                                CCDC 
#
#######################################################################
#
# If this CIF has been generated from an entry in the Cambridge 
# Structural Database, then it will include bibliographic, chemical, 
# crystal, experimental, refinement or atomic coordinate data resulting 
# from the CCDC's data processing and validation procedures.
#
#######################################################################

data_OKAWUS
_chemical_formula_moiety         'C24 H19 Br1 N2 O2'
_chemical_name_systematic        
3-(5-Bromo-1H-indol-3-yl)-5,6-diphenylmorpholin-2-one
_symmetry_cell_setting           monoclinic
_symmetry_space_group_name_H-M   'C 2'
_symmetry_Int_Tables_number      5
_space_group_name_Hall           'C 2y'
loop_
_symmetry_equiv_pos_site_id
_symmetry_equiv_pos_as_xyz
1 x,y,z
2 -x,y,-z
3 1/2+x,1/2+y,z
4 1/2-x,1/2+y,-z
_cell_length_a                   26.817(5)
_cell_length_b                   7.9070(9)
_cell_length_c                   9.8754(14)
_cell_angle_alpha                90
_cell_angle_beta                 95.851(2)
_cell_angle_gamma                90
_cell_volume                     2083.09
_exptl_crystal_colour            colorless
_chemical_melting_point          190-192deg.C
_cell_formula_units_Z            4
loop_
_atom_site_label
_atom_site_type_symbol
_atom_site_fract_x
_atom_site_fract_y
_atom_site_fract_z
Br1 Br 0.26320(2) 0.05011(14) 0.67297(7)
N1 N 0.4592(2) 0.4029(6) 0.6384(6)
H1 H 0.4676 0.5008 0.6103
N2 N 0.54202(16) -0.0037(5) 0.8399(4)
H2 H 0.5528 0.0217 0.9224
O1 O 0.51527(15) -0.2571(5) 0.6497(4)
O2 O 0.43614(19) -0.2134(5) 0.6585(6)
C1 C 0.4103(2) 0.3440(8) 0.6397(6)
C2 C 0.3662(3) 0.4245(9) 0.6055(6)
H3 H 0.3654 0.5356 0.5743
C3 C 0.3226(3) 0.3373(10) 0.6184(7)
H4 H 0.2918 0.3893 0.5954
C4 C 0.3244(2) 0.1695(9) 0.6663(6)
C5 C 0.36898(18) 0.0915(8) 0.7039(5)
H5 H 0.3695 -0.0187 0.7370
C6 C 0.4137(2) 0.1771(7) 0.6927(6)
C7 C 0.4668(2) 0.1416(7) 0.7218(6)
C8 C 0.4915(2) 0.2807(8) 0.6887(8)
H6 H 0.5262 0.2920 0.6989
C9 C 0.4885(2) -0.0160(7) 0.7900(6)
H7 H 0.4704 -0.0350 0.8699
C10 C 0.4778(3) -0.1683(8) 0.6964(8)
C11 C 0.5684(2) -0.2270(7) 0.6944(6)
H8 H 0.5871 -0.2473 0.6158
C12 C 0.5855(2) -0.3542(7) 0.7996(6)
C13 C 0.5596(2) -0.3961(8) 0.9077(7)
H9 H 0.5286 -0.3454 0.9140
C14 C 0.5769(3) -0.5086(8) 1.0065(7)
H10 H 0.5582 -0.5326 1.0784
C15 C 0.6225(3) -0.5859(8) 0.9978(7)
H11 H 0.6345 -0.6639 1.0637
C16 C 0.6500(3) -0.5487(8) 0.8934(8)
H12 H 0.6811 -0.5994 0.8892
C17 C 0.63163(18) -0.4348(9) 0.7923(6)
H13 H 0.6502 -0.4123 0.7198
C18 C 0.5753(2) -0.0399(6) 0.7328(6)
H14 H 0.5645 0.0292 0.6527
C19 C 0.6290(2) 0.0005(7) 0.7789(5)
C20 C 0.6595(2) 0.0596(10) 0.6812(6)
H15 H 0.6458 0.0763 0.5919
C21 C 0.7091(2) 0.0927(9) 0.7162(8)
H16 H 0.7283 0.1375 0.6516
C22 C 0.7313(2) 0.0606(12) 0.8467(7)
H17 H 0.7654 0.0789 0.8692
C23 C 0.7014(2) 0.0005(8) 0.9427(7)
H18 H 0.7154 -0.0208 1.0312
C24 C 0.6504(2) -0.0281(7) 0.9066(6)
H19 H 0.6307 -0.0678 0.9721
loop_
_geom_bond_atom_site_label_1
_geom_bond_atom_site_label_2
_geom_bond_site_symmetry_1
_geom_bond_site_symmetry_2
Br1 C4 1_555 1_555
N1 H1 1_555 1_555
N2 H2 1_555 1_555
O1 C10 1_555 1_555
O2 C10 1_555 1_555
C1 N1 1_555 1_555
C2 C1 1_555 1_555
H3 C2 1_555 1_555
C3 C2 1_555 1_555
H4 C3 1_555 1_555
C4 C3 1_555 1_555
C5 C4 1_555 1_555
H5 C5 1_555 1_555
C6 C1 1_555 1_555
C7 C6 1_555 1_555
C8 N1 1_555 1_555
H6 C8 1_555 1_555
C9 N2 1_555 1_555
H7 C9 1_555 1_555
C10 C9 1_555 1_555
C11 O1 1_555 1_555
H8 C11 1_555 1_555
C12 C11 1_555 1_555
C13 C12 1_555 1_555
H9 C13 1_555 1_555
C14 C13 1_555 1_555
H10 C14 1_555 1_555
C15 C14 1_555 1_555
H11 C15 1_555 1_555
C16 C15 1_555 1_555
H12 C16 1_555 1_555
C17 C12 1_555 1_555
H13 C17 1_555 1_555
C18 N2 1_555 1_555
H14 C18 1_555 1_555
C19 C18 1_555 1_555
C20 C19 1_555 1_555
H15 C20 1_555 1_555
C21 C20 1_555 1_555
H16 C21 1_555 1_555
C22 C21 1_555 1_555
H17 C22 1_555 1_555
C23 C22 1_555 1_555
H18 C23 1_555 1_555
C24 C19 1_555 1_555
H19 C24 1_555 1_555
C5 C6 1_555 1_555
C7 C8 1_555 1_555
C7 C9 1_555 1_555
C11 C18 1_555 1_555
C16 C17 1_555 1_555
C23 C24 1_555 1_555

#END
