
#######################################################################
#
#                 Cambridge Crystallographic Data Centre
#                                CCDC 
#
#######################################################################
#
# If this CIF has been generated from an entry in the Cambridge 
# Structural Database, then it will include bibliographic, chemical, 
# crystal, experimental, refinement or atomic coordinate data resulting 
# from the CCDC's data processing and validation procedures.
#
#######################################################################

data_OKAXAZ
_chemical_name_common            5,6-Diphenyl-5,6-dihydro-(1,4)oxazin-2-one
_chemical_formula_moiety         'C16 H13 N1 O2'
_chemical_name_systematic        
(5S,6R)-5,6-Diphenyl-5,6-dihydro-(1,4)oxazin-2-one
_symmetry_cell_setting           orthorhombic
_symmetry_space_group_name_H-M   'P 21 21 21'
_symmetry_Int_Tables_number      19
_space_group_name_Hall           'P 2ac 2ab'
loop_
_symmetry_equiv_pos_site_id
_symmetry_equiv_pos_as_xyz
1 x,y,z
2 1/2-x,-y,1/2+z
3 -x,1/2+y,1/2-z
4 1/2+x,1/2-y,-z
_cell_length_a                   5.9439(3)
_cell_length_b                   8.4943(3)
_cell_length_c                   25.5719(13)
_cell_angle_alpha                90
_cell_angle_beta                 90
_cell_angle_gamma                90
_cell_volume                     1291.11
_exptl_crystal_colour            'pale yellow'
_chemical_melting_point          159-161deg.C
_cell_formula_units_Z            4
loop_
_atom_site_label
_atom_site_type_symbol
_atom_site_fract_x
_atom_site_fract_y
_atom_site_fract_z
O1 O 0.5245(3) 0.5873(3) 0.76256(7)
O2 O 0.7826(2) 0.6071(2) 0.82404(7)
N1 N 1.0143(4) 0.8189(3) 0.75721(9)
C1 C 0.7074(5) 0.6336(3) 0.77554(11)
C2 C 0.8500(5) 0.7375(4) 0.74222(11)
H1 H 0.8138 0.7426 0.7069
C3 C 1.0893(4) 0.7954(3) 0.81113(9)
H2 H 1.2541 0.7959 0.8099
C4 C 1.0229(3) 0.6327(3) 0.83130(9)
H3 H 1.1037 0.5538 0.8106
C5 C 1.0236(4) 0.9342(3) 0.84439(9)
C6 C 0.8228(4) 1.0137(3) 0.83789(10)
H4 H 0.7200 0.9791 0.8130
C7 C 0.7733(5) 1.1448(3) 0.86814(12)
H5 H 0.6382 1.1980 0.8632
C8 C 0.9220(5) 1.1961(3) 0.90514(12)
H6 H 0.8883 1.2840 0.9253
C9 C 1.1218(5) 1.1171(3) 0.91249(11)
H7 H 1.2228 1.1511 0.9379
C10 C 1.1719(4) 0.9879(3) 0.88220(10)
H8 H 1.3077 0.9357 0.8872
C11 C 1.0716(4) 0.6026(2) 0.88777(10)
C12 C 1.2789(4) 0.5376(3) 0.90177(11)
H9 H 1.3846 0.5142 0.8761
C13 C 1.3273(5) 0.5078(3) 0.95386(12)
H10 H 1.4655 0.4644 0.9630
C14 C 1.1730(6) 0.5418(3) 0.99188(12)
H11 H 1.2054 0.5209 1.0268
C15 C 0.9699(5) 0.6071(3) 0.97825(11)
H12 H 0.8644 0.6305 1.0040
C16 C 0.9224(4) 0.6380(3) 0.92678(10)
H13 H 0.7854 0.6840 0.9182
loop_
_geom_bond_atom_site_label_1
_geom_bond_atom_site_label_2
_geom_bond_site_symmetry_1
_geom_bond_site_symmetry_2
O1 C1 1_555 1_555
O2 C1 1_555 1_555
N1 C2 1_555 1_555
C1 C2 1_555 1_555
C2 H1 1_555 1_555
C3 N1 1_555 1_555
H2 C3 1_555 1_555
C4 O2 1_555 1_555
H3 C4 1_555 1_555
C5 C3 1_555 1_555
C6 C5 1_555 1_555
H4 C6 1_555 1_555
C7 C6 1_555 1_555
H5 C7 1_555 1_555
C8 C7 1_555 1_555
H6 C8 1_555 1_555
C9 C8 1_555 1_555
H7 C9 1_555 1_555
C10 C5 1_555 1_555
H8 C10 1_555 1_555
C11 C4 1_555 1_555
C12 C11 1_555 1_555
H9 C12 1_555 1_555
C13 C12 1_555 1_555
H10 C13 1_555 1_555
C14 C13 1_555 1_555
H11 C14 1_555 1_555
C15 C14 1_555 1_555
H12 C15 1_555 1_555
C16 C11 1_555 1_555
H13 C16 1_555 1_555
C3 C4 1_555 1_555
C9 C10 1_555 1_555
C15 C16 1_555 1_555

#END
