
#######################################################################
#
#                 Cambridge Crystallographic Data Centre
#                                CCDC 
#
#######################################################################
#
# If this CIF has been generated from an entry in the Cambridge 
# Structural Database, then it will include bibliographic, chemical, 
# crystal, experimental, refinement or atomic coordinate data resulting 
# from the CCDC's data processing and validation procedures.
#
#######################################################################

data_OKAYEE
_chemical_formula_moiety         'C44 H44 Li1 N1 O2 P2'
_chemical_name_systematic        
bis(Tetrahydrofuran)-(bis(2-(diphenylphosphino)phenyl)amido)-lithium
_symmetry_cell_setting           monoclinic
_symmetry_space_group_name_H-M   'C 2/c'
_symmetry_Int_Tables_number      15
_space_group_name_Hall           '-C 2yn'
loop_
_symmetry_equiv_pos_site_id
_symmetry_equiv_pos_as_xyz
1 x,y,z
2 1/2+x,1/2+y,z
3 x,-y,1/2+z
4 1/2+x,1/2-y,1/2+z
5 -x,-y,-z
6 1/2-x,1/2-y,-z
7 -x,y,1/2-z
8 1/2-x,1/2+y,1/2-z
_cell_length_a                   33.992(2)
_cell_length_b                   14.5275(10)
_cell_length_c                   15.6653(11)
_cell_angle_alpha                90
_cell_angle_beta                 106.189(2)
_cell_angle_gamma                90
_cell_volume                     7429.07
_exptl_crystal_colour            'light yellow'
_exptl_crystal_description       block
_cell_formula_units_Z            8
loop_
_atom_site_label
_atom_site_type_symbol
_atom_site_fract_x
_atom_site_fract_y
_atom_site_fract_z
Li1 Li 0.14309(14) 0.2214(3) 0.4243(3)
N1 N 0.11832(7) 0.22883(14) 0.52857(14)
O1 O 0.19705(5) 0.22455(12) 0.40082(12)
O2 O 0.10609(6) 0.20047(14) 0.30568(12)
P1 P 0.11906(2) 0.40609(5) 0.43537(5)
P2 P 0.15422(2) 0.04972(5) 0.50566(5)
C1 C 0.09639(8) 0.50928(19) 0.37322(18)
C2 C 0.07608(9) 0.4997(2) 0.28305(19)
H1 H 0.0759 0.4426 0.2561
C3 C 0.05635(10) 0.5729(2) 0.2330(2)
H2 H 0.0424 0.5647 0.1733
C4 C 0.05738(10) 0.6576(2) 0.2717(2)
H3 H 0.0443 0.7073 0.2381
C5 C 0.07772(9) 0.6695(2) 0.3601(2)
H4 H 0.0786 0.7274 0.3859
C6 C 0.09688(9) 0.5957(2) 0.41078(19)
H5 H 0.1102 0.6043 0.4707
C7 C 0.15112(8) 0.45811(18) 0.53711(17)
C8 C 0.14125(9) 0.4629(2) 0.61721(18)
H6 H 0.1164 0.4389 0.6211
C9 C 0.16786(10) 0.5028(2) 0.6913(2)
H7 H 0.1611 0.5046 0.7449
C10 C 0.20436(10) 0.5398(2) 0.6854(2)
H8 H 0.2221 0.5669 0.7352
C11 C 0.21474(9) 0.5369(2) 0.6066(2)
H9 H 0.2393 0.5625 0.6028
C12 C 0.18835(9) 0.49570(18) 0.5331(2)
H10 H 0.1955 0.4930 0.4800
C13 C 0.07559(8) 0.36200(17) 0.46982(16)
C14 C 0.03795(8) 0.40686(18) 0.45344(17)
H11 H 0.0341 0.4618 0.4218
C15 C 0.00642(8) 0.37200(19) 0.48286(18)
H12 H -0.0185 0.4029 0.4712
C16 C 0.01233(8) 0.29035(19) 0.52995(17)
H13 H -0.0086 0.2665 0.5508
C17 C 0.04902(8) 0.24391(18) 0.54627(17)
H14 H 0.0522 0.1888 0.5777
C18 C 0.08190(8) 0.27720(18) 0.51688(16)
C19 C 0.13389(8) 0.18400(18) 0.60935(17)
C20 C 0.13326(8) 0.22336(19) 0.69145(17)
H15 H 0.1200 0.2793 0.6917
C21 C 0.15185(9) 0.1809(2) 0.77122(18)
H16 H 0.1512 0.2091 0.8241
C22 C 0.17142(8) 0.09669(19) 0.77402(18)
H17 H 0.1840 0.0686 0.8281
C23 C 0.17182(8) 0.05550(19) 0.69458(17)
H18 H 0.1846 -0.0013 0.6958
C24 C 0.15354(8) 0.09696(18) 0.61253(16)
C25 C 0.10295(8) 0.00046(17) 0.46125(18)
C26 C 0.07608(9) -0.01880(19) 0.5115(2)
H19 H 0.0831 -0.0029 0.5713
C27 C 0.03903(10) -0.0615(2) 0.4728(2)
H20 H 0.0214 -0.0746 0.5071
C28 C 0.02808(11) -0.0846(2) 0.3844(2)
H21 H 0.0031 -0.1135 0.3591
C29 C 0.05388(11) -0.0651(2) 0.3337(2)
H22 H 0.0465 -0.0807 0.2737
C30 C 0.09102(10) -0.0222(2) 0.3715(2)
H23 H 0.1082 -0.0083 0.3364
C31 C 0.18500(8) -0.05516(18) 0.53748(16)
C32 C 0.16911(9) -0.14411(19) 0.52828(18)
H24 H 0.1410 -0.1526 0.5054
C33 C 0.19444(10) -0.2204(2) 0.5527(2)
H25 H 0.1833 -0.2793 0.5456
C34 C 0.23595(10) -0.2087(2) 0.58723(19)
H26 H 0.2528 -0.2598 0.6039
C35 C 0.25272(9) -0.1216(2) 0.59738(19)
H27 H 0.2808 -0.1138 0.6213
C36 C 0.22743(8) -0.0460(2) 0.57174(18)
H28 H 0.2390 0.0125 0.5775
C37 C 0.21357(9) 0.14550(19) 0.3666(2)
H29 H 0.1919 0.1110 0.3257
H30 H 0.2277 0.1051 0.4147
C38 C 0.24239(16) 0.1830(3) 0.3201(3)
H31 H 0.2667 0.1447 0.3316
H32 H 0.2296 0.1844 0.2565
C39 C 0.25278(13) 0.2703(3) 0.3512(3)
H33 H 0.2552 0.3100 0.3031
H34 H 0.2789 0.2697 0.3966
C40 C 0.22009(9) 0.3049(2) 0.3891(2)
H35 H 0.2319 0.3352 0.4456
H36 H 0.2026 0.3483 0.3488
C41 C 0.06173(9) 0.2014(2) 0.2863(2)
H37 H 0.0524 0.2596 0.3040
H38 H 0.0524 0.1520 0.3174
C42 C 0.04607(11) 0.1886(3) 0.1887(2)
H39 H 0.0195 0.2175 0.1655
H40 H 0.0439 0.1238 0.1731
C43 C 0.07824(10) 0.2358(2) 0.1537(2)
H41 H 0.0791 0.2098 0.0972
H42 H 0.0731 0.3014 0.1465
C44 C 0.11697(10) 0.2165(3) 0.2248(2)
H43 H 0.1305 0.1628 0.2095
H44 H 0.1355 0.2686 0.2318
loop_
_geom_bond_atom_site_label_1
_geom_bond_atom_site_label_2
_geom_bond_site_symmetry_1
_geom_bond_site_symmetry_2
Li1 N1 1_555 1_555
N1 C18 1_555 1_555
O1 Li1 1_555 1_555
O2 Li1 1_555 1_555
P1 Li1 1_555 1_555
P2 Li1 1_555 1_555
C1 P1 1_555 1_555
C2 C1 1_555 1_555
H1 C2 1_555 1_555
C3 C2 1_555 1_555
H2 C3 1_555 1_555
C4 C3 1_555 1_555
H3 C4 1_555 1_555
C5 C4 1_555 1_555
H4 C5 1_555 1_555
C6 C1 1_555 1_555
H5 C6 1_555 1_555
C7 P1 1_555 1_555
C8 C7 1_555 1_555
H6 C8 1_555 1_555
C9 C8 1_555 1_555
H7 C9 1_555 1_555
C10 C9 1_555 1_555
H8 C10 1_555 1_555
C11 C10 1_555 1_555
H9 C11 1_555 1_555
C12 C7 1_555 1_555
H10 C12 1_555 1_555
C13 P1 1_555 1_555
C14 C13 1_555 1_555
H11 C14 1_555 1_555
C15 C14 1_555 1_555
H12 C15 1_555 1_555
C16 C15 1_555 1_555
H13 C16 1_555 1_555
C17 C16 1_555 1_555
H14 C17 1_555 1_555
C18 C13 1_555 1_555
C19 N1 1_555 1_555
C20 C19 1_555 1_555
H15 C20 1_555 1_555
C21 C20 1_555 1_555
H16 C21 1_555 1_555
C22 C21 1_555 1_555
H17 C22 1_555 1_555
C23 C22 1_555 1_555
H18 C23 1_555 1_555
C24 P2 1_555 1_555
C25 P2 1_555 1_555
C26 C25 1_555 1_555
H19 C26 1_555 1_555
C27 C26 1_555 1_555
H20 C27 1_555 1_555
C28 C27 1_555 1_555
H21 C28 1_555 1_555
C29 C28 1_555 1_555
H22 C29 1_555 1_555
C30 C25 1_555 1_555
H23 C30 1_555 1_555
C31 P2 1_555 1_555
C32 C31 1_555 1_555
H24 C32 1_555 1_555
C33 C32 1_555 1_555
H25 C33 1_555 1_555
C34 C33 1_555 1_555
H26 C34 1_555 1_555
C35 C34 1_555 1_555
H27 C35 1_555 1_555
C36 C31 1_555 1_555
H28 C36 1_555 1_555
C37 O1 1_555 1_555
H29 C37 1_555 1_555
H30 C37 1_555 1_555
C38 C37 1_555 1_555
H31 C38 1_555 1_555
H32 C38 1_555 1_555
C39 C38 1_555 1_555
H33 C39 1_555 1_555
H34 C39 1_555 1_555
C40 O1 1_555 1_555
H35 C40 1_555 1_555
H36 C40 1_555 1_555
C41 O2 1_555 1_555
H37 C41 1_555 1_555
H38 C41 1_555 1_555
C42 C41 1_555 1_555
H39 C42 1_555 1_555
H40 C42 1_555 1_555
C43 C42 1_555 1_555
H41 C43 1_555 1_555
H42 C43 1_555 1_555
C44 O2 1_555 1_555
H43 C44 1_555 1_555
H44 C44 1_555 1_555
C5 C6 1_555 1_555
C11 C12 1_555 1_555
C17 C18 1_555 1_555
C19 C24 1_555 1_555
C23 C24 1_555 1_555
C29 C30 1_555 1_555
C35 C36 1_555 1_555
C39 C40 1_555 1_555
C43 C44 1_555 1_555

#END
