
#######################################################################
#
#                 Cambridge Crystallographic Data Centre
#                                CCDC 
#
#######################################################################
#
# If this CIF has been generated from an entry in the Cambridge 
# Structural Database, then it will include bibliographic, chemical, 
# crystal, experimental, refinement or atomic coordinate data resulting 
# from the CCDC's data processing and validation procedures.
#
#######################################################################

data_OKAYII
_chemical_formula_moiety         'C36 H29 N1 P2'
_chemical_name_systematic        bis(2-(Diphenylphosphino)phenyl)amine
_symmetry_cell_setting           monoclinic
_symmetry_space_group_name_H-M   'P 21/c'
_symmetry_Int_Tables_number      14
_space_group_name_Hall           '-P 2ybc'
loop_
_symmetry_equiv_pos_site_id
_symmetry_equiv_pos_as_xyz
1 x,y,z
2 x,1/2-y,1/2+z
3 -x,-y,-z
4 -x,1/2+y,1/2-z
_cell_length_a                   14.0268(15)
_cell_length_b                   11.9806(13)
_cell_length_c                   17.748(2)
_cell_angle_alpha                90
_cell_angle_beta                 106.234(2)
_cell_angle_gamma                90
_cell_volume                     2863.62
_exptl_crystal_colour            colorless
_exptl_crystal_description       plate
_cell_formula_units_Z            4
loop_
_atom_site_label
_atom_site_type_symbol
_atom_site_fract_x
_atom_site_fract_y
_atom_site_fract_z
C1 C 0.2780(2) 0.4777(3) 0.37371(19)
C2 C 0.2956(2) 0.4940(3) 0.4537(2)
H1 H 0.3469 0.4553 0.4883
C3 C 0.2384(3) 0.5663(3) 0.4827(2)
H2 H 0.2516 0.5765 0.5366
C4 C 0.1617(3) 0.6236(3) 0.4321(3)
H3 H 0.1228 0.6721 0.4519
C5 C 0.1426(3) 0.6092(3) 0.3520(3)
H4 H 0.0911 0.6478 0.3174
C6 C 0.2014(3) 0.5363(3) 0.3238(2)
H5 H 0.1889 0.5268 0.2699
C7 C 0.4437(2) 0.4748(3) 0.31211(19)
C8 C 0.4781(3) 0.4518(4) 0.2489(2)
H6 H 0.4533 0.3904 0.2175
C9 C 0.5490(3) 0.5181(4) 0.2311(3)
H7 H 0.5713 0.5014 0.1877
C10 C 0.5865(3) 0.6078(4) 0.2765(2)
H8 H 0.6355 0.6514 0.2651
C11 C 0.5522(3) 0.6335(3) 0.3383(2)
H9 H 0.5765 0.6957 0.3690
C12 C 0.4810(3) 0.5672(3) 0.3556(2)
H10 H 0.4577 0.5858 0.3981
C13 C 0.4142(2) 0.2980(3) 0.41081(17)
C14 C 0.5161(2) 0.3001(3) 0.44295(19)
H11 H 0.5536 0.3528 0.4252
C15 C 0.5634(2) 0.2260(3) 0.50064(19)
H12 H 0.6321 0.2283 0.5205
C16 C 0.5102(3) 0.1491(3) 0.5290(2)
H13 H 0.5428 0.0996 0.5681
C17 C 0.4096(3) 0.1451(3) 0.5001(2)
H14 H 0.3733 0.0939 0.5202
C18 C 0.3612(2) 0.2174(3) 0.44064(19)
C19 C 0.1998(2) 0.1175(3) 0.39145(17)
C20 C 0.2424(2) 0.0170(3) 0.37910(18)
H15 H 0.3102 0.0136 0.3843
C21 C 0.1854(2) -0.0780(3) 0.35920(18)
H16 H 0.2151 -0.1451 0.3520
C22 C 0.0842(3) -0.0737(3) 0.34993(19)
H17 H 0.0457 -0.1376 0.3357
C23 C 0.0406(2) 0.0256(3) 0.36186(18)
H18 H -0.0276 0.0276 0.3549
C24 C 0.0958(2) 0.1230(3) 0.38403(17)
C25 C -0.0900(2) 0.2246(3) 0.38582(18)
C26 C -0.1276(3) 0.1537(3) 0.43297(19)
H19 H -0.0843 0.1192 0.4761
C27 C -0.2298(3) 0.1341(3) 0.4161(2)
H20 H -0.2538 0.0867 0.4480
C28 C -0.2942(3) 0.1836(4) 0.3534(2)
H21 H -0.3618 0.1688 0.3420
C29 C -0.2602(3) 0.2547(4) 0.3072(2)
H22 H -0.3047 0.2897 0.2651
C30 C -0.1592(3) 0.2751(3) 0.32285(18)
H23 H -0.1370 0.3238 0.2906
C31 C 0.0889(2) 0.2666(3) 0.50833(18)
C32 C 0.1266(3) 0.1785(3) 0.5581(2)
H24 H 0.1304 0.1081 0.5371
C33 C 0.1589(3) 0.1929(4) 0.6386(2)
H25 H 0.1856 0.1328 0.6708
C34 C 0.1517(3) 0.2954(4) 0.6711(2)
H26 H 0.1708 0.3042 0.7253
C35 C 0.1166(3) 0.3840(4) 0.6236(3)
H27 H 0.1128 0.4538 0.6455
C36 C 0.0858(2) 0.3709(3) 0.5417(2)
H28 H 0.0632 0.4324 0.5097
N1 N 0.25741(19) 0.2142(2) 0.41036(15)
H29 H 0.2266 0.2771 0.4028
P1 P 0.34657(6) 0.38335(8) 0.32796(5)
P2 P 0.04305(6) 0.25723(8) 0.40093(5)
loop_
_geom_bond_atom_site_label_1
_geom_bond_atom_site_label_2
_geom_bond_site_symmetry_1
_geom_bond_site_symmetry_2
C1 C2 1_555 1_555
C2 H1 1_555 1_555
C3 C2 1_555 1_555
H2 C3 1_555 1_555
C4 C3 1_555 1_555
H3 C4 1_555 1_555
C5 C4 1_555 1_555
H4 C5 1_555 1_555
C6 C1 1_555 1_555
H5 C6 1_555 1_555
C7 C8 1_555 1_555
C8 H6 1_555 1_555
C9 C8 1_555 1_555
H7 C9 1_555 1_555
C10 C9 1_555 1_555
H8 C10 1_555 1_555
C11 C10 1_555 1_555
H9 C11 1_555 1_555
C12 C7 1_555 1_555
H10 C12 1_555 1_555
C13 C14 1_555 1_555
C14 H11 1_555 1_555
C15 C14 1_555 1_555
H12 C15 1_555 1_555
C16 C15 1_555 1_555
H13 C16 1_555 1_555
C17 C16 1_555 1_555
H14 C17 1_555 1_555
C18 C13 1_555 1_555
C19 C20 1_555 1_555
C20 H15 1_555 1_555
C21 C20 1_555 1_555
H16 C21 1_555 1_555
C22 C21 1_555 1_555
H17 C22 1_555 1_555
C23 C22 1_555 1_555
H18 C23 1_555 1_555
C24 C19 1_555 1_555
C25 C26 1_555 1_555
C26 H19 1_555 1_555
C27 C26 1_555 1_555
H20 C27 1_555 1_555
C28 C27 1_555 1_555
H21 C28 1_555 1_555
C29 C28 1_555 1_555
H22 C29 1_555 1_555
C30 C25 1_555 1_555
H23 C30 1_555 1_555
C31 C32 1_555 1_555
C32 H24 1_555 1_555
C33 C32 1_555 1_555
H25 C33 1_555 1_555
C34 C33 1_555 1_555
H26 C34 1_555 1_555
C35 C34 1_555 1_555
H27 C35 1_555 1_555
C36 C31 1_555 1_555
H28 C36 1_555 1_555
N1 C18 1_555 1_555
H29 N1 1_555 1_555
P1 C1 1_555 1_555
P2 C24 1_555 1_555
C5 C6 1_555 1_555
C7 P1 1_555 1_555
C11 C12 1_555 1_555
C13 P1 1_555 1_555
C17 C18 1_555 1_555
C19 N1 1_555 1_555
C23 C24 1_555 1_555
C25 P2 1_555 1_555
C29 C30 1_555 1_555
C31 P2 1_555 1_555
C35 C36 1_555 1_555

#END
