
#######################################################################
#
#                 Cambridge Crystallographic Data Centre
#                                CCDC 
#
#######################################################################
#
# If this CIF has been generated from an entry in the Cambridge 
# Structural Database, then it will include bibliographic, chemical, 
# crystal, experimental, refinement or atomic coordinate data resulting 
# from the CCDC's data processing and validation procedures.
#
#######################################################################

data_OKAYAB
_chemical_formula_moiety         'C14 H13 Cl1 O2'
_chemical_name_systematic        
3-(3-Chlorophenyl)-2,3,6,7-tetrahydro-1-benzofuran-4(5H)-one
_symmetry_cell_setting           orthorhombic
_symmetry_space_group_name_H-M   'P c a 21'
_symmetry_Int_Tables_number      29
_space_group_name_Hall           'P 2c -2ac'
loop_
_symmetry_equiv_pos_site_id
_symmetry_equiv_pos_as_xyz
1 x,y,z
2 -x,-y,1/2+z
3 1/2+x,-y,z
4 1/2-x,y,1/2+z
_cell_length_a                   19.741(6)
_cell_length_b                   11.726(4)
_cell_length_c                   10.651(3)
_cell_angle_alpha                90
_cell_angle_beta                 90
_cell_angle_gamma                90
_cell_volume                     2465.53
_cell_formula_units_Z            8
loop_
_atom_site_label
_atom_site_type_symbol
_atom_site_fract_x
_atom_site_fract_y
_atom_site_fract_z
C1 C 0.0762(2) 0.4838(4) 0.5941(4)
C2 C 0.0623(2) 0.4343(4) 0.7070(5)
H1 H 0.0180 0.4282 0.7358
C3 C 0.1153(2) 0.3938(4) 0.7767(5)
H2 H 0.1067 0.3594 0.8538
C4 C 0.1810(2) 0.4030(4) 0.7351(4)
H3 H 0.2161 0.3740 0.7838
C5 C 0.1956(2) 0.4551(3) 0.6209(4)
C6 C 0.1415(2) 0.4955(4) 0.5502(4)
H4 H 0.1493 0.5306 0.4733
C7 C 0.2677(2) 0.4681(4) 0.5753(4)
H5 H 0.2682 0.4824 0.4846
C8 C 0.3112(2) 0.3654(4) 0.6061(4)
C9 C 0.3540(3) 0.3930(4) 0.6995(4)
C10 C 0.3987(3) 0.3132(5) 0.7680(6)
H6 H 0.4218 0.3310 0.8415
C11 C 0.4017(6) 0.2055(8) 0.7063(9)
H7 H 0.4405 0.1612 0.7154
C12 C 0.3457(3) 0.1621(5) 0.6289(7)
H8 H 0.3360 0.0847 0.6234
C13 C 0.3049(2) 0.2505(4) 0.5589(5)
C14 C 0.3074(3) 0.5614(4) 0.6440(5)
H9 H 0.3338 0.6058 0.5848
H10 H 0.2766 0.6123 0.6876
Cl2 Cl 0.00912(8) 0.53359(18) 0.50440(17)
O1 O 0.35201(19) 0.5042(3) 0.7337(3)
O2 O 0.26810(18) 0.2263(3) 0.4706(4)
C15 C 0.3018(2) -0.1729(5) 0.3665(5)
C16 C 0.3391(3) -0.2601(5) 0.3150(6)
H11 H 0.3293 -0.3354 0.3352
C17 C 0.3905(3) -0.2355(5) 0.2345(6)
H12 H 0.4161 -0.2945 0.2004
C18 C 0.4051(3) -0.1240(4) 0.2026(5)
H13 H 0.4404 -0.1082 0.1473
C19 C 0.3669(2) -0.0348(4) 0.2537(4)
C20 C 0.3152(2) -0.0607(4) 0.3362(5)
H14 H 0.2893 -0.0025 0.3712
C21 C 0.3819(2) 0.0885(4) 0.2195(5)
H15 H 0.3554 0.1403 0.2724
C22 C 0.3696(3) 0.1153(6) 0.0788(6)
H16 H 0.3485 0.0506 0.0379
H17 H 0.3399 0.1807 0.0705
C23 C 0.4563(2) 0.1175(3) 0.2278(5)
C24 C 0.4801(3) 0.1422(5) 0.1139(6)
C25 C 0.5522(4) 0.1725(6) 0.0840(8)
H18 H 0.5672 0.1967 0.0056
C26 C 0.5953(4) 0.1592(10) 0.1928(10)
H19 H 0.6418 0.1530 0.1797
C27 C 0.5719(3) 0.1551(9) 0.3157(8)
H20 H 0.6004 0.1715 0.3828
C28 C 0.4985(3) 0.1230(5) 0.3370(6)
Cl1 Cl 0.23701(7) -0.20330(16) 0.47147(19)
O3 O 0.4344(2) 0.1393(4) 0.0217(4)
O4 O 0.4768(2) 0.1041(5) 0.4426(4)
loop_
_geom_bond_atom_site_label_1
_geom_bond_atom_site_label_2
_geom_bond_site_symmetry_1
_geom_bond_site_symmetry_2
C1 C2 1_555 1_555
C2 H1 1_555 1_555
C3 C2 1_555 1_555
H2 C3 1_555 1_555
C4 C3 1_555 1_555
H3 C4 1_555 1_555
C5 C4 1_555 1_555
C6 C1 1_555 1_555
H4 C6 1_555 1_555
C7 C5 1_555 1_555
H5 C7 1_555 1_555
C8 C7 1_555 1_555
C9 C8 1_555 1_555
C10 C9 1_555 1_555
H6 C10 1_555 1_555
C11 C10 1_555 1_555
H7 C11 1_555 1_555
C12 C11 1_555 1_555
H8 C12 1_555 1_555
C13 C8 1_555 1_555
C14 C7 1_555 1_555
H9 C14 1_555 1_555
H10 C14 1_555 1_555
C15 C16 1_555 1_555
C16 H11 1_555 1_555
C17 C16 1_555 1_555
H12 C17 1_555 1_555
C18 C17 1_555 1_555
H13 C18 1_555 1_555
C19 C18 1_555 1_555
C20 C15 1_555 1_555
H14 C20 1_555 1_555
C21 C19 1_555 1_555
H15 C21 1_555 1_555
C22 C21 1_555 1_555
H16 C22 1_555 1_555
H17 C22 1_555 1_555
C23 C21 1_555 1_555
C24 C23 1_555 1_555
C25 C24 1_555 1_555
H18 C25 1_555 1_555
C26 C25 1_555 1_555
H19 C26 1_555 1_555
C27 C26 1_555 1_555
H20 C27 1_555 1_555
C28 C23 1_555 1_555
Cl1 C15 1_555 1_555
Cl2 C1 1_555 1_555
O1 C9 1_555 1_555
O2 C13 1_555 1_555
O3 C22 1_555 1_555
O4 C28 1_555 1_555
C5 C6 1_555 1_555
C12 C13 1_555 1_555
C14 O1 1_555 1_555
C19 C20 1_555 1_555
C24 O3 1_555 1_555
C27 C28 1_555 1_555

#END
