
#######################################################################
#
#                 Cambridge Crystallographic Data Centre
#                                CCDC 
#
#######################################################################
#
# If this CIF has been generated from an entry in the Cambridge 
# Structural Database, then it will include bibliographic, chemical, 
# crystal, experimental, refinement or atomic coordinate data resulting 
# from the CCDC's data processing and validation procedures.
#
#######################################################################

data_OKAZAC
_chemical_formula_moiety         'C21 H17 Cl1 N2 O2'
_chemical_name_systematic        
3-(3-Chlorobenzyl)-3-(hydroxy(phenyl)amino)-1,3-dihydro-2H-indol-2-one
_symmetry_cell_setting           orthorhombic
_symmetry_space_group_name_H-M   'P 21 21 21'
_symmetry_Int_Tables_number      19
_space_group_name_Hall           'P 2ac 2ab'
loop_
_symmetry_equiv_pos_site_id
_symmetry_equiv_pos_as_xyz
1 x,y,z
2 1/2-x,-y,1/2+z
3 -x,1/2+y,1/2-z
4 1/2+x,1/2-y,-z
_cell_length_a                   9.1346(5)
_cell_length_b                   11.7010(8)
_cell_length_c                   16.4605(14)
_cell_angle_alpha                90
_cell_angle_beta                 90
_cell_angle_gamma                90
_cell_volume                     1759.36
_exptl_crystal_colour            colorless
_exptl_crystal_description       block
_cell_formula_units_Z            4
loop_
_atom_site_label
_atom_site_type_symbol
_atom_site_fract_x
_atom_site_fract_y
_atom_site_fract_z
Cl1 Cl 0.29639(7) 0.82736(6) 0.81471(4)
O1 O 0.05513(18) 0.80691(13) 0.52453(11)
O2 O -0.23844(17) 0.53363(14) 0.50147(11)
H1 H -0.3178 0.5694 0.4971
N1 N 0.22889(19) 0.66478(16) 0.53813(12)
H2 H 0.3084 0.7064 0.5322
N2 N -0.11902(19) 0.60784(17) 0.48067(12)
C1 C -0.0161(2) 0.60889(18) 0.55194(14)
C2 C 0.0926(2) 0.70622(19) 0.53620(14)
C3 C 0.2286(2) 0.54457(19) 0.55111(13)
C4 C 0.3471(3) 0.4720(2) 0.55598(13)
H3 H 0.4446 0.4992 0.5503
C5 C 0.3168(3) 0.3561(2) 0.56967(15)
H4 H 0.3954 0.3032 0.5737
C6 C 0.1747(3) 0.3175(2) 0.57741(16)
H5 H 0.1573 0.2385 0.5864
C7 C 0.0566(3) 0.3923(2) 0.57226(15)
H6 H -0.0410 0.3652 0.5775
C8 C 0.0848(2) 0.50712(18) 0.55930(13)
C9 C -0.1029(3) 0.6380(2) 0.62967(15)
H7 H -0.1483 0.7142 0.6227
H8 H -0.1830 0.5817 0.6358
C10 C -0.0135(3) 0.6390(2) 0.70721(15)
C11 C -0.0315(3) 0.5517(2) 0.76379(16)
H9 H -0.0997 0.4923 0.7531
C12 C 0.0480(3) 0.5497(2) 0.83520(16)
H10 H 0.0326 0.4900 0.8734
C13 C 0.1501(3) 0.6345(2) 0.85149(16)
H11 H 0.2062 0.6329 0.9001
C14 C 0.1682(3) 0.7210(2) 0.79551(15)
C15 C 0.0871(3) 0.7255(2) 0.72436(15)
H12 H 0.0999 0.7871 0.6875
C16 C -0.0532(3) 0.5665(2) 0.40601(15)
C17 C 0.0425(3) 0.6380(3) 0.36415(16)
H13 H 0.0637 0.7125 0.3840
C18 C 0.1066(4) 0.5987(3) 0.29280(17)
H14 H 0.1740 0.6463 0.2647
C19 C 0.0747(4) 0.4936(3) 0.26246(19)
H15 H 0.1207 0.4676 0.2141
C20 C -0.0243(5) 0.4250(3) 0.3021(2)
H16 H -0.0494 0.3527 0.2800
C21 C -0.0876(3) 0.4607(2) 0.37408(17)
H17 H -0.1549 0.4124 0.4016
loop_
_geom_bond_atom_site_label_1
_geom_bond_atom_site_label_2
_geom_bond_site_symmetry_1
_geom_bond_site_symmetry_2
Cl1 C14 1_555 1_555
O1 C2 1_555 1_555
O2 H1 1_555 1_555
N1 H2 1_555 1_555
N2 O2 1_555 1_555
C1 N2 1_555 1_555
C2 N1 1_555 1_555
C3 N1 1_555 1_555
C4 C3 1_555 1_555
H3 C4 1_555 1_555
C5 C4 1_555 1_555
H4 C5 1_555 1_555
C6 C5 1_555 1_555
H5 C6 1_555 1_555
C7 C6 1_555 1_555
H6 C7 1_555 1_555
C8 C1 1_555 1_555
C9 C1 1_555 1_555
H7 C9 1_555 1_555
H8 C9 1_555 1_555
C10 C9 1_555 1_555
C11 C10 1_555 1_555
H9 C11 1_555 1_555
C12 C11 1_555 1_555
H10 C12 1_555 1_555
C13 C12 1_555 1_555
H11 C13 1_555 1_555
C14 C13 1_555 1_555
C15 C10 1_555 1_555
H12 C15 1_555 1_555
C16 N2 1_555 1_555
C17 C16 1_555 1_555
H13 C17 1_555 1_555
C18 C17 1_555 1_555
H14 C18 1_555 1_555
C19 C18 1_555 1_555
H15 C19 1_555 1_555
C20 C19 1_555 1_555
H16 C20 1_555 1_555
C21 C16 1_555 1_555
H17 C21 1_555 1_555
C1 C2 1_555 1_555
C3 C8 1_555 1_555
C7 C8 1_555 1_555
C14 C15 1_555 1_555
C20 C21 1_555 1_555

#END
