
#######################################################################
#
#                 Cambridge Crystallographic Data Centre
#                                CCDC 
#
#######################################################################
#
# If this CIF has been generated from an entry in the Cambridge 
# Structural Database, then it will include bibliographic, chemical, 
# crystal, experimental, refinement or atomic coordinate data resulting 
# from the CCDC's data processing and validation procedures.
#
#######################################################################

data_OKEFAM
_chemical_formula_moiety         'C22 H22 N2 O4 S1'
_chemical_name_systematic        
'Ethyl (2-cyano-4-phenyl-1-(phenylsulfonyl)-1,2,5,6-tetrahydropyridin-3-yl)acetate'
_symmetry_cell_setting           monoclinic
_symmetry_space_group_name_H-M   'P 21/c'
_symmetry_Int_Tables_number      14
_space_group_name_Hall           '-P 2ybc'
loop_
_symmetry_equiv_pos_site_id
_symmetry_equiv_pos_as_xyz
1 x,y,z
2 -x,1/2+y,1/2-z
3 -x,-y,-z
4 x,1/2-y,1/2+z
_cell_length_a                   11.8573(6)
_cell_length_b                   9.3233(4)
_cell_length_c                   19.1535(9)
_cell_angle_alpha                90
_cell_angle_beta                 97.1870(10)
_cell_angle_gamma                90
_cell_volume                     2100.77
_exptl_crystal_colour            colorless
_cell_formula_units_Z            4
loop_
_atom_site_label
_atom_site_type_symbol
_atom_site_fract_x
_atom_site_fract_y
_atom_site_fract_z
C1 C 0.47549(19) 0.4404(2) 0.12055(11)
H1 H 0.4632 0.4482 0.0691
C2 C 0.38484(19) 0.3417(2) 0.14310(11)
C3 C 0.32128(19) 0.3805(3) 0.19231(11)
C4 C 0.3415(2) 0.5179(3) 0.23342(12)
H2 H 0.2802 0.5844 0.2186
H3 H 0.3400 0.4978 0.2830
C5 C 0.4530(2) 0.5875(3) 0.22388(11)
H4 H 0.4527 0.6860 0.2401
H5 H 0.5141 0.5374 0.2523
C6 C 0.5903(2) 0.3791(3) 0.14088(14)
C7 C 0.2865(2) 0.7237(3) 0.08195(14)
C8 C 0.2337(2) 0.6384(3) 0.02851(15)
H6 H 0.2767 0.5832 0.0012
C9 C 0.1176(3) 0.6360(4) 0.0163(2)
H7 H 0.0813 0.5796 -0.0197
C10 C 0.0546(3) 0.7163(5) 0.0571(3)
H8 H -0.0244 0.7136 0.0487
C11 C 0.1071(3) 0.8009(5) 0.1102(3)
H9 H 0.0634 0.8551 0.1375
C12 C 0.2243(3) 0.8060(3) 0.12342(19)
H10 H 0.2603 0.8633 0.1592
C13 C 0.2220(2) 0.2944(3) 0.20865(13)
C14 C 0.1177(3) 0.3141(4) 0.17062(19)
H11 H 0.1097 0.3787 0.1333
C15 C 0.0237(3) 0.2392(5) 0.1871(2)
H12 H -0.0468 0.2539 0.1609
C16 C 0.0341(3) 0.1447(4) 0.2411(2)
H13 H -0.0293 0.0946 0.2520
C17 C 0.1364(3) 0.1230(4) 0.27915(19)
H14 H 0.1437 0.0562 0.3155
C18 C 0.2304(3) 0.1995(3) 0.26434(16)
H15 H 0.2998 0.1870 0.2921
C19 C 0.3752(2) 0.1996(3) 0.10584(12)
H16 H 0.4512 0.1634 0.1030
H17 H 0.3377 0.1325 0.1340
C20 C 0.3118(3) 0.2030(3) 0.03345(14)
C21 C 0.2782(5) 0.0645(6) -0.07203(19)
H18 H 0.2625 0.1593 -0.0917
H19 H 0.3346 0.0197 -0.0976
C22 C 0.1863(5) -0.0107(6) -0.0804(3)
H20 H 0.2052 -0.1107 -0.0765
H21 H 0.1457 0.0081 -0.1260
H22 H 0.1395 0.0146 -0.0448
N1 N 0.47405(16) 0.5853(2) 0.14982(9)
N2 N 0.6766(2) 0.3313(3) 0.15851(17)
O1 O 0.47071(16) 0.84604(19) 0.13871(10)
O2 O 0.47890(16) 0.6924(2) 0.03381(9)
O3 O 0.3243(2) 0.0778(2) 0.00234(11)
O4 O 0.2613(2) 0.3014(3) 0.00656(12)
S1 S 0.43593(5) 0.72157(6) 0.09854(3)
loop_
_geom_bond_atom_site_label_1
_geom_bond_atom_site_label_2
_geom_bond_site_symmetry_1
_geom_bond_site_symmetry_2
C1 H1 1_555 1_555
C2 C1 1_555 1_555
C3 C2 1_555 1_555
C4 C3 1_555 1_555
H2 C4 1_555 1_555
H3 C4 1_555 1_555
C5 C4 1_555 1_555
H4 C5 1_555 1_555
H5 C5 1_555 1_555
C6 C1 1_555 1_555
C7 C8 1_555 1_555
C8 H6 1_555 1_555
C9 C8 1_555 1_555
H7 C9 1_555 1_555
C10 C9 1_555 1_555
H8 C10 1_555 1_555
C11 C10 1_555 1_555
H9 C11 1_555 1_555
C12 C7 1_555 1_555
H10 C12 1_555 1_555
C13 C3 1_555 1_555
C14 C13 1_555 1_555
H11 C14 1_555 1_555
C15 C14 1_555 1_555
H12 C15 1_555 1_555
C16 C15 1_555 1_555
H13 C16 1_555 1_555
C17 C16 1_555 1_555
H14 C17 1_555 1_555
C18 C13 1_555 1_555
H15 C18 1_555 1_555
C19 C2 1_555 1_555
H16 C19 1_555 1_555
H17 C19 1_555 1_555
C20 C19 1_555 1_555
C21 H18 1_555 1_555
H19 C21 1_555 1_555
C22 C21 1_555 1_555
H20 C22 1_555 1_555
H21 C22 1_555 1_555
H22 C22 1_555 1_555
N1 C1 1_555 1_555
N2 C6 1_555 1_555
O1 S1 1_555 1_555
O2 S1 1_555 1_555
O3 C20 1_555 1_555
O4 C20 1_555 1_555
S1 C7 1_555 1_555
C5 N1 1_555 1_555
C11 C12 1_555 1_555
C17 C18 1_555 1_555
C21 O3 1_555 1_555
N1 S1 1_555 1_555

#END
