
#######################################################################
#
#                 Cambridge Crystallographic Data Centre
#                                CCDC 
#
#######################################################################
#
# If this CIF has been generated from an entry in the Cambridge 
# Structural Database, then it will include bibliographic, chemical, 
# crystal, experimental, refinement or atomic coordinate data resulting 
# from the CCDC's data processing and validation procedures.
#
#######################################################################

data_OKEFUG
_chemical_formula_moiety         'C26 H24 Br3 N1 O4 S1'
_chemical_name_systematic        
4-(bis(5-bromo-2-methoxyphenyl)methyl)-3-bromo-1-(phenylsulfonyl)-1,2,3,6-tetrahydropyridine
_symmetry_cell_setting           monoclinic
_symmetry_space_group_name_H-M   'P 21/n'
_symmetry_Int_Tables_number      14
_space_group_name_Hall           '-P 2yn'
loop_
_symmetry_equiv_pos_site_id
_symmetry_equiv_pos_as_xyz
1 x,y,z
2 1/2-x,1/2+y,1/2-z
3 -x,-y,-z
4 1/2+x,1/2-y,1/2+z
_cell_length_a                   12.9138(2)
_cell_length_b                   9.7707(2)
_cell_length_c                   21.3425(4)
_cell_angle_alpha                90
_cell_angle_beta                 93.4630(10)
_cell_angle_gamma                90
_cell_volume                     2688.01
_exptl_crystal_colour            colorless
_cell_formula_units_Z            4
loop_
_atom_site_label
_atom_site_type_symbol
_atom_site_fract_x
_atom_site_fract_y
_atom_site_fract_z
Br1 Br 0.42228(9) 0.15867(10) 0.43694(5)
Br2 Br 0.05043(7) 0.33533(8) 0.15417(4)
Br3 Br 0.12300(8) 0.92978(10) 0.37262(5)
C1 C 0.4897(4) 0.4477(6) 0.2994(3)
H1 H 0.5399 0.5152 0.3151
H2 H 0.4791 0.4595 0.2544
C2 C 0.3914(4) 0.4678(6) 0.3291(3)
H3 H 0.3660 0.5568 0.3306
C3 C 0.3346(4) 0.3687(6) 0.3543(3)
C4 C 0.3686(5) 0.2231(7) 0.3514(3)
H4 H 0.3079 0.1675 0.3384
C5 C 0.4508(5) 0.2024(7) 0.3030(4)
H5 H 0.4823 0.1126 0.3081
H6 H 0.4190 0.2091 0.2607
C6 C 0.2341(4) 0.3953(7) 0.3858(3)
H7 H 0.2338 0.3316 0.4213
C7 C 0.2340(4) 0.5381(7) 0.4139(3)
C8 C 0.2940(5) 0.5642(8) 0.4700(3)
C9 C 0.3025(6) 0.6933(9) 0.4954(3)
H8 H 0.3426 0.7070 0.5325
C10 C 0.2526(6) 0.8019(9) 0.4665(4)
H9 H 0.2591 0.8897 0.4831
C11 C 0.1930(5) 0.7774(8) 0.4125(4)
C12 C 0.1821(5) 0.6490(7) 0.3863(3)
H10 H 0.1398 0.6366 0.3499
C13 C 0.1388(4) 0.3619(6) 0.3440(3)
C14 C 0.0484(5) 0.3195(8) 0.3724(4)
C15 C -0.0386(5) 0.2812(9) 0.3351(4)
H11 H -0.0975 0.2518 0.3542
C16 C -0.0394(5) 0.2859(8) 0.2706(5)
H12 H -0.0987 0.2620 0.2462
C17 C 0.0499(6) 0.3271(7) 0.2426(3)
C18 C 0.1384(5) 0.3644(6) 0.2787(3)
H13 H 0.1976 0.3913 0.2593
C19 C 0.6547(5) 0.2687(8) 0.2146(4)
C20 C 0.6298(8) 0.1519(9) 0.1834(5)
H14 H 0.6095 0.0748 0.2051
C21 C 0.6347(12) 0.1486(13) 0.1206(7)
H15 H 0.6138 0.0698 0.0989
C22 C 0.6707(9) 0.2608(14) 0.0870(5)
H16 H 0.6767 0.2564 0.0438
C23 C 0.6970(9) 0.3793(13) 0.1209(6)
H17 H 0.7198 0.4566 0.1003
C24 C 0.6891(6) 0.3813(10) 0.1844(4)
H18 H 0.7073 0.4598 0.2071
C25 C 0.4019(7) 0.4636(12) 0.5538(4)
H19 H 0.4522 0.5353 0.5507
H20 H 0.4368 0.3791 0.5643
H21 H 0.3557 0.4860 0.5858
C26 C -0.0372(8) 0.2668(16) 0.4650(5)
H22 H -0.0873 0.3387 0.4679
H23 H -0.0163 0.2346 0.5064
H24 H -0.0673 0.1928 0.4406
N1 N 0.5295(4) 0.3091(5) 0.3135(3)
O1 O 0.3438(4) 0.4490(6) 0.4947(2)
O2 O 0.0536(4) 0.3193(8) 0.4347(3)
O3 O 0.6716(5) 0.1410(7) 0.3220(3)
O4 O 0.7104(4) 0.3880(7) 0.3209(3)
S1 S 0.64908(13) 0.2745(2) 0.29764(10)
loop_
_geom_bond_atom_site_label_1
_geom_bond_atom_site_label_2
_geom_bond_site_symmetry_1
_geom_bond_site_symmetry_2
Br1 C4 1_555 1_555
Br2 C17 1_555 1_555
Br3 C11 1_555 1_555
C1 H1 1_555 1_555
H2 C1 1_555 1_555
C2 C1 1_555 1_555
H3 C2 1_555 1_555
C3 C2 1_555 1_555
C4 C3 1_555 1_555
H4 C4 1_555 1_555
C5 C4 1_555 1_555
H5 C5 1_555 1_555
H6 C5 1_555 1_555
C6 C3 1_555 1_555
H7 C6 1_555 1_555
C7 C6 1_555 1_555
C8 C7 1_555 1_555
C9 C8 1_555 1_555
H8 C9 1_555 1_555
C10 C9 1_555 1_555
H9 C10 1_555 1_555
C11 C10 1_555 1_555
C12 C7 1_555 1_555
H10 C12 1_555 1_555
C13 C6 1_555 1_555
C14 C13 1_555 1_555
C15 C14 1_555 1_555
H11 C15 1_555 1_555
C16 C15 1_555 1_555
H12 C16 1_555 1_555
C17 C16 1_555 1_555
C18 C13 1_555 1_555
H13 C18 1_555 1_555
C19 C20 1_555 1_555
C20 H14 1_555 1_555
C21 C20 1_555 1_555
H15 C21 1_555 1_555
C22 C21 1_555 1_555
H16 C22 1_555 1_555
C23 C22 1_555 1_555
H17 C23 1_555 1_555
C24 C19 1_555 1_555
H18 C24 1_555 1_555
C25 H19 1_555 1_555
H20 C25 1_555 1_555
H21 C25 1_555 1_555
C26 H22 1_555 1_555
H23 C26 1_555 1_555
H24 C26 1_555 1_555
N1 C1 1_555 1_555
O1 C8 1_555 1_555
O2 C14 1_555 1_555
O3 S1 1_555 1_555
O4 S1 1_555 1_555
S1 C19 1_555 1_555
C5 N1 1_555 1_555
C11 C12 1_555 1_555
C17 C18 1_555 1_555
C23 C24 1_555 1_555
C25 O1 1_555 1_555
C26 O2 1_555 1_555
N1 S1 1_555 1_555

#END
