
#######################################################################
#
#                 Cambridge Crystallographic Data Centre
#                                CCDC 
#
#######################################################################
#
# If this CIF has been generated from an entry in the Cambridge 
# Structural Database, then it will include bibliographic, chemical, 
# crystal, experimental, refinement or atomic coordinate data resulting 
# from the CCDC's data processing and validation procedures.
#
#######################################################################

data_OKEGOC
_chemical_formula_moiety         'C18 H22 O2 S2,C17 H20 O2 S1'
_chemical_name_systematic        
"2,2'-(disulfanediyldi-2,1-phenylene)dipropan-2-ol 2-(2-((2-hydroxy-2-phenylethyl)sulfanyl)phenyl)propan-2-ol"
_symmetry_cell_setting           monoclinic
_symmetry_space_group_name_H-M   'C c'
_symmetry_Int_Tables_number      9
_space_group_name_Hall           'C -2yc'
loop_
_symmetry_equiv_pos_site_id
_symmetry_equiv_pos_as_xyz
1 x,y,z
2 x,-y,1/2+z
3 1/2+x,1/2+y,z
4 1/2+x,1/2-y,1/2+z
_cell_length_a                   8.5603(3)
_cell_length_b                   22.8130(7)
_cell_length_c                   17.3998(6)
_cell_angle_alpha                90
_cell_angle_beta                 94.2688(17)
_cell_angle_gamma                90
_cell_volume                     3388.51
_exptl_crystal_colour            colorless
_exptl_crystal_description       Prism
_cell_formula_units_Z            4
loop_
_atom_site_label
_atom_site_type_symbol
_atom_site_fract_x
_atom_site_fract_y
_atom_site_fract_z
S1 S -0.27835(8) -0.40850(3) -0.55329(4)
S2 S -0.04721(8) -0.38495(3) -0.54243(5)
O1 O 0.2572(2) -0.35516(8) -0.54205(12)
H1 H 0.2457 -0.3370 -0.5827
O2 O -0.5741(2) -0.45402(8) -0.57203(11)
H2 H -0.6172 -0.4265 -0.5519
C1 C -0.3193(3) -0.43191(11) -0.45793(16)
C2 C -0.2345(3) -0.40867(13) -0.39442(17)
H3 H -0.1570 -0.3810 -0.4015
C3 C -0.2629(4) -0.42576(15) -0.32077(19)
H4 H -0.2050 -0.4096 -0.2786
C4 C -0.3760(4) -0.46653(16) -0.30973(19)
H5 H -0.3941 -0.4788 -0.2602
C5 C -0.4631(3) -0.48925(13) -0.37258(19)
H6 H -0.5407 -0.5166 -0.3643
C6 C -0.4395(3) -0.47295(11) -0.44779(16)
C7 C -0.5393(3) -0.49905(11) -0.51580(17)
C8 C -0.6934(3) -0.52493(15) -0.4931(2)
H7 H -0.7511 -0.4955 -0.4678
H8 H -0.6723 -0.5574 -0.4588
H9 H -0.7539 -0.5382 -0.5385
C9 C -0.4469(4) -0.54568(13) -0.5568(2)
H10 H -0.5112 -0.5615 -0.5994
H11 H -0.4167 -0.5766 -0.5213
H12 H -0.3549 -0.5282 -0.5754
C10 C -0.0441(3) -0.30949(11) -0.51124(15)
C11 C -0.1818(3) -0.27705(13) -0.51553(17)
H13 H -0.2743 -0.2941 -0.5361
C12 C -0.1836(3) -0.22009(13) -0.48988(18)
H14 H -0.2764 -0.1988 -0.4938
C13 C -0.0497(4) -0.19490(13) -0.45872(19)
H15 H -0.0512 -0.1569 -0.4394
C14 C 0.0885(3) -0.22618(13) -0.45594(18)
H16 H 0.1798 -0.2084 -0.4350
C15 C 0.0964(3) -0.28313(11) -0.48316(15)
C16 C 0.2543(3) -0.31499(13) -0.47852(17)
C17 C 0.3927(3) -0.27339(17) -0.4825(2)
H17 H 0.4877 -0.2957 -0.4834
H18 H 0.3990 -0.2482 -0.4381
H19 H 0.3787 -0.2500 -0.5284
C18 C 0.2706(4) -0.35210(17) -0.4059(2)
H20 H 0.1871 -0.3802 -0.4070
H21 H 0.2658 -0.3273 -0.3616
H22 H 0.3694 -0.3722 -0.4032
S3 S 0.08246(10) -0.61807(4) -0.34519(5)
O3 O 0.2280(2) -0.68781(9) -0.19493(12)
H23 H 0.2394 -0.6603 -0.2244
O4 O 0.2958(3) -0.55268(11) -0.22378(13)
H24 H 0.3367 -0.5475 -0.1802
C19 C 0.0705(4) -0.54388(12) -0.30889(17)
H25 H 0.1281 -0.5180 -0.3408
H26 H -0.0382 -0.5315 -0.3132
C20 C 0.1347(4) -0.53742(12) -0.22574(17)
H27 H 0.0808 -0.5652 -0.1938
C21 C 0.1066(3) -0.47605(12) -0.19785(16)
C22 C 0.1927(4) -0.42968(14) -0.2228(2)
H28 H 0.2703 -0.4364 -0.2564
C23 C 0.1650(5) -0.37381(15) -0.1986(3)
H29 H 0.2238 -0.3430 -0.2161
C24 C 0.0514(4) -0.36275(16) -0.1487(2)
H30 H 0.0337 -0.3247 -0.1321
C25 C -0.0347(4) -0.40810(15) -0.1240(2)
H31 H -0.1122 -0.4011 -0.0904
C26 C -0.0077(3) -0.46446(13) -0.14841(18)
H32 H -0.0677 -0.4951 -0.1312
C27 C -0.0685(3) -0.65250(12) -0.29538(17)
C28 C -0.2187(4) -0.62823(14) -0.3060(2)
H33 H -0.2355 -0.5966 -0.3393
C29 C -0.3414(4) -0.64977(17) -0.2687(2)
H34 H -0.4394 -0.6320 -0.2749
C30 C -0.3184(4) -0.69766(16) -0.2222(2)
H35 H -0.4012 -0.7135 -0.1974
C31 C -0.1709(4) -0.72249(14) -0.21228(19)
H36 H -0.1573 -0.7550 -0.1803
C32 C -0.0418(3) -0.70133(11) -0.24765(16)
C33 C 0.1198(3) -0.73011(12) -0.23178(17)
C34 C 0.1193(4) -0.78043(14) -0.1739(2)
H37 H 0.2244 -0.7943 -0.1626
H38 H 0.0553 -0.8118 -0.1953
H39 H 0.0778 -0.7668 -0.1273
C35 C 0.1851(4) -0.75357(16) -0.3051(2)
H40 H 0.1889 -0.7224 -0.3421
H41 H 0.1186 -0.7844 -0.3263
H42 H 0.2887 -0.7686 -0.2931
loop_
_geom_bond_atom_site_label_1
_geom_bond_atom_site_label_2
_geom_bond_site_symmetry_1
_geom_bond_site_symmetry_2
S1 S2 1_555 1_555
S2 C10 1_555 1_555
O1 H1 1_555 1_555
O2 H2 1_555 1_555
C1 S1 1_555 1_555
C2 C1 1_555 1_555
H3 C2 1_555 1_555
C3 C2 1_555 1_555
H4 C3 1_555 1_555
C4 C3 1_555 1_555
H5 C4 1_555 1_555
C5 C4 1_555 1_555
H6 C5 1_555 1_555
C6 C1 1_555 1_555
C7 O2 1_555 1_555
C8 C7 1_555 1_555
H7 C8 1_555 1_555
H8 C8 1_555 1_555
H9 C8 1_555 1_555
C9 C7 1_555 1_555
H10 C9 1_555 1_555
H11 C9 1_555 1_555
H12 C9 1_555 1_555
C10 C11 1_555 1_555
C11 H13 1_555 1_555
C12 C11 1_555 1_555
H14 C12 1_555 1_555
C13 C12 1_555 1_555
H15 C13 1_555 1_555
C14 C13 1_555 1_555
H16 C14 1_555 1_555
C15 C10 1_555 1_555
C16 O1 1_555 1_555
C17 C16 1_555 1_555
H17 C17 1_555 1_555
H18 C17 1_555 1_555
H19 C17 1_555 1_555
C18 C16 1_555 1_555
H20 C18 1_555 1_555
H21 C18 1_555 1_555
H22 C18 1_555 1_555
S3 C19 1_555 1_555
O3 H23 1_555 1_555
O4 H24 1_555 1_555
C19 H25 1_555 1_555
H26 C19 1_555 1_555
C20 O4 1_555 1_555
H27 C20 1_555 1_555
C21 C20 1_555 1_555
C22 C21 1_555 1_555
H28 C22 1_555 1_555
C23 C22 1_555 1_555
H29 C23 1_555 1_555
C24 C23 1_555 1_555
H30 C24 1_555 1_555
C25 C24 1_555 1_555
H31 C25 1_555 1_555
C26 C21 1_555 1_555
H32 C26 1_555 1_555
C27 S3 1_555 1_555
C28 C27 1_555 1_555
H33 C28 1_555 1_555
C29 C28 1_555 1_555
H34 C29 1_555 1_555
C30 C29 1_555 1_555
H35 C30 1_555 1_555
C31 C30 1_555 1_555
H36 C31 1_555 1_555
C32 C27 1_555 1_555
C33 O3 1_555 1_555
C34 C33 1_555 1_555
H37 C34 1_555 1_555
H38 C34 1_555 1_555
H39 C34 1_555 1_555
C35 C33 1_555 1_555
H40 C35 1_555 1_555
H41 C35 1_555 1_555
H42 C35 1_555 1_555
C5 C6 1_555 1_555
C6 C7 1_555 1_555
C14 C15 1_555 1_555
C15 C16 1_555 1_555
C19 C20 1_555 1_555
C25 C26 1_555 1_555
C31 C32 1_555 1_555
C32 C33 1_555 1_555

#END
