
#######################################################################
#
#                 Cambridge Crystallographic Data Centre
#                                CCDC 
#
#######################################################################
#
# If this CIF has been generated from an entry in the Cambridge 
# Structural Database, then it will include bibliographic, chemical, 
# crystal, experimental, refinement or atomic coordinate data resulting 
# from the CCDC's data processing and validation procedures.
#
#######################################################################

data_OKEGER
_chemical_formula_moiety         'C18 H17 F1 O2'
_chemical_name_systematic        
3-Fluoro-7-methoxy-4-(4-methoxyphenyl)-1,2-dihydronaphthalene
_symmetry_cell_setting           monoclinic
_symmetry_space_group_name_H-M   'C c'
_symmetry_Int_Tables_number      9
_space_group_name_Hall           'C -2yc'
loop_
_symmetry_equiv_pos_site_id
_symmetry_equiv_pos_as_xyz
1 x,y,z
2 x,-y,1/2+z
3 1/2+x,1/2+y,z
4 1/2+x,1/2-y,1/2+z
_cell_length_a                   8.4393(3)
_cell_length_b                   22.1014(7)
_cell_length_c                   8.4355(3)
_cell_angle_alpha                90
_cell_angle_beta                 109.6180(10)
_cell_angle_gamma                90
_cell_volume                     1482.06
_exptl_crystal_colour            colorless
_cell_formula_units_Z            4
loop_
_atom_site_label
_atom_site_type_symbol
_atom_site_fract_x
_atom_site_fract_y
_atom_site_fract_z
C1 C 0.0060(2) 0.75546(7) 0.7527(3)
C2 C -0.0806(3) 0.81143(8) 0.7783(3)
H1 H -0.1471 0.8027 0.8497
H2 H -0.1556 0.8261 0.6709
C3 C 0.0508(3) 0.85936(8) 0.8605(3)
H3 H -0.0045 0.8980 0.8574
H4 H 0.1076 0.8488 0.9774
C4 C 0.17928(19) 0.86519(6) 0.77237(19)
C5 C 0.24836(19) 0.92093(6) 0.75712(19)
H5 H 0.2138 0.9554 0.7996
C6 C 0.36884(19) 0.92551(7) 0.67883(18)
C7 C 0.41949(19) 0.87394(7) 0.61582(19)
H6 H 0.4999 0.8767 0.5631
C8 C 0.35112(18) 0.81869(6) 0.63107(18)
H7 H 0.3863 0.7844 0.5880
C9 C 0.22998(17) 0.81269(6) 0.70972(17)
C10 C 0.15089(19) 0.75388(6) 0.72249(19)
C11 C 0.3911(3) 1.03269(7) 0.7195(3)
H8 H 0.4101 1.0293 0.8379
H9 H 0.2734 1.0389 0.6605
H10 H 0.4538 1.0664 0.6997
C12 C 0.22857(18) 0.69589(6) 0.69555(18)
C13 C 0.39427(19) 0.68105(7) 0.79099(19)
H11 H 0.4589 0.7086 0.8694
C14 C 0.46349(19) 0.62649(7) 0.77114(19)
H12 H 0.5735 0.6173 0.8367
C15 C 0.36913(18) 0.58515(6) 0.65331(18)
C16 C 0.20751(18) 0.59953(7) 0.55404(19)
H13 H 0.1449 0.5725 0.4724
C17 C 0.13860(19) 0.65462(7) 0.5766(2)
H14 H 0.0290 0.6639 0.5099
C18 C 0.3497(3) 0.48750(8) 0.5281(3)
H15 H 0.3120 0.5040 0.4163
H16 H 0.2541 0.4764 0.5592
H17 H 0.4176 0.4523 0.5314
F1 F -0.07864(17) 0.70365(5) 0.7590(2)
O1 O 0.44462(15) 0.97864(5) 0.66091(15)
O2 O 0.44685(14) 0.53167(5) 0.64300(15)
loop_
_geom_bond_atom_site_label_1
_geom_bond_atom_site_label_2
_geom_bond_site_symmetry_1
_geom_bond_site_symmetry_2
C1 C2 1_555 1_555
C2 H1 1_555 1_555
H2 C2 1_555 1_555
C3 C2 1_555 1_555
H3 C3 1_555 1_555
H4 C3 1_555 1_555
C4 C3 1_555 1_555
C5 C4 1_555 1_555
H5 C5 1_555 1_555
C6 C5 1_555 1_555
C7 C6 1_555 1_555
H6 C7 1_555 1_555
C8 C7 1_555 1_555
H7 C8 1_555 1_555
C9 C4 1_555 1_555
C10 C1 1_555 1_555
C11 H8 1_555 1_555
H9 C11 1_555 1_555
H10 C11 1_555 1_555
C12 C10 1_555 1_555
C13 C12 1_555 1_555
H11 C13 1_555 1_555
C14 C13 1_555 1_555
H12 C14 1_555 1_555
C15 C14 1_555 1_555
C16 C15 1_555 1_555
H13 C16 1_555 1_555
C17 C12 1_555 1_555
H14 C17 1_555 1_555
C18 H15 1_555 1_555
H16 C18 1_555 1_555
H17 C18 1_555 1_555
F1 C1 1_555 1_555
O1 C6 1_555 1_555
O2 C15 1_555 1_555
C8 C9 1_555 1_555
C9 C10 1_555 1_555
C11 O1 1_555 1_555
C16 C17 1_555 1_555
C18 O2 1_555 1_555

#END
