
#######################################################################
#
#                 Cambridge Crystallographic Data Centre
#                                CCDC 
#
#######################################################################
#
# If this CIF has been generated from an entry in the Cambridge 
# Structural Database, then it will include bibliographic, chemical, 
# crystal, experimental, refinement or atomic coordinate data resulting 
# from the CCDC's data processing and validation procedures.
#
#######################################################################

data_OKEGIW
_chemical_formula_moiety         'C26 H25 N1 O1 S1'
_chemical_name_systematic        
2-(5,5-dimethyl-2-phenyl-2,3-dihydro-5H-4,1-benzoxathiepin-3-yl)-3-methyl-1H-indole
_symmetry_cell_setting           triclinic
_symmetry_space_group_name_H-M   'P -1'
_symmetry_Int_Tables_number      2
_space_group_name_Hall           '-P 1'
loop_
_symmetry_equiv_pos_site_id
_symmetry_equiv_pos_as_xyz
1 x,y,z
2 -x,-y,-z
_cell_length_a                   8.280(7)
_cell_length_b                   11.804(10)
_cell_length_c                   12.324(10)
_cell_angle_alpha                64.811(14)
_cell_angle_beta                 88.065(15)
_cell_angle_gamma                80.753(17)
_cell_volume                     1075
_exptl_crystal_colour            colorless
_exptl_crystal_description       block
_cell_formula_units_Z            2
loop_
_atom_site_label
_atom_site_type_symbol
_atom_site_fract_x
_atom_site_fract_y
_atom_site_fract_z
S1 S 0.51129(6) 0.75968(5) 0.47471(4)
O1 O 0.26661(16) 0.60982(11) 0.48854(10)
N1 N 0.3442(2) 0.37659(15) 0.70769(14)
H1 H 0.4186 0.3698 0.6594
C1 C 0.3287(2) 0.87033(18) 0.41669(15)
C2 C 0.3436(3) 0.9943(2) 0.39030(19)
H2 H 0.4425 1.0114 0.4086
C3 C 0.2174(3) 1.0927(2) 0.3381(2)
H3 H 0.2313 1.1757 0.3190
C4 C 0.0706(3) 1.0669(2) 0.3147(2)
H4 H -0.0173 1.1323 0.2811
C5 C 0.0532(3) 0.9442(2) 0.3408(2)
H5 H -0.0476 0.9285 0.3243
C6 C 0.1803(2) 0.84231(17) 0.39098(15)
C7 C 0.1515(2) 0.71275(18) 0.40368(17)
C8 C -0.0207(3) 0.6879(2) 0.4428(2)
H6 H -0.0294 0.6021 0.4588
H7 H -0.0987 0.7453 0.3801
H8 H -0.0425 0.7006 0.5142
C9 C 0.1864(3) 0.7032(2) 0.28548(19)
H9 H 0.2973 0.7147 0.2650
H10 H 0.1130 0.7677 0.2234
H11 H 0.1708 0.6212 0.2935
C10 C 0.2828(2) 0.61160(17) 0.60295(15)
H12 H 0.2004 0.6795 0.6064
C11 C 0.4535(2) 0.64061(18) 0.61568(16)
H13 H 0.5310 0.5624 0.6332
C12 C 0.4666(2) 0.67339(19) 0.72058(16)
C13 C 0.3723(3) 0.7804(2) 0.72219(18)
H14 H 0.2998 0.8331 0.6581
C14 C 0.3852(3) 0.8096(3) 0.8189(2)
H15 H 0.3208 0.8816 0.8193
C15 C 0.4916(4) 0.7339(3) 0.9133(2)
H16 H 0.5001 0.7541 0.9778
C16 C 0.5853(3) 0.6283(3) 0.9125(2)
H17 H 0.6583 0.5767 0.9766
C17 C 0.5728(3) 0.5969(2) 0.81681(19)
H18 H 0.6363 0.5240 0.8177
C18 C 0.2547(2) 0.48907(17) 0.70032(16)
C19 C 0.1523(2) 0.46417(19) 0.79320(17)
C20 C 0.0374(3) 0.5585(2) 0.8224(2)
H19 H 0.0953 0.5876 0.8693
H20 H -0.0510 0.5191 0.8672
H21 H -0.0056 0.6294 0.7493
C21 C 0.1757(2) 0.32941(19) 0.86055(17)
C22 C 0.1057(3) 0.2475(2) 0.96207(19)
H22 H 0.0266 0.2791 1.0019
C23 C 0.1554(4) 0.1192(2) 1.0023(2)
H23 H 0.1087 0.0638 1.0697
C24 C 0.2738(4) 0.0707(2) 0.9445(2)
H24 H 0.3051 -0.0167 0.9742
C25 C 0.3456(3) 0.1476(2) 0.8452(2)
H25 H 0.4248 0.1143 0.8067
C26 C 0.2960(2) 0.27791(19) 0.80363(16)
loop_
_geom_bond_atom_site_label_1
_geom_bond_atom_site_label_2
_geom_bond_site_symmetry_1
_geom_bond_site_symmetry_2
S1 C1 1_555 1_555
O1 C7 1_555 1_555
N1 H1 1_555 1_555
C1 C2 1_555 1_555
C2 H2 1_555 1_555
C3 C2 1_555 1_555
H3 C3 1_555 1_555
C4 C3 1_555 1_555
H4 C4 1_555 1_555
C5 C4 1_555 1_555
H5 C5 1_555 1_555
C6 C1 1_555 1_555
C7 C6 1_555 1_555
C8 C7 1_555 1_555
H6 C8 1_555 1_555
H7 C8 1_555 1_555
H8 C8 1_555 1_555
C9 C7 1_555 1_555
H9 C9 1_555 1_555
H10 C9 1_555 1_555
H11 C9 1_555 1_555
C10 O1 1_555 1_555
H12 C10 1_555 1_555
C11 S1 1_555 1_555
H13 C11 1_555 1_555
C12 C11 1_555 1_555
C13 C12 1_555 1_555
H14 C13 1_555 1_555
C14 C13 1_555 1_555
H15 C14 1_555 1_555
C15 C14 1_555 1_555
H16 C15 1_555 1_555
C16 C15 1_555 1_555
H17 C16 1_555 1_555
C17 C12 1_555 1_555
H18 C17 1_555 1_555
C18 N1 1_555 1_555
C19 C18 1_555 1_555
C20 C19 1_555 1_555
H19 C20 1_555 1_555
H20 C20 1_555 1_555
H21 C20 1_555 1_555
C21 C19 1_555 1_555
C22 C21 1_555 1_555
H22 C22 1_555 1_555
C23 C22 1_555 1_555
H23 C23 1_555 1_555
C24 C23 1_555 1_555
H24 C24 1_555 1_555
C25 C24 1_555 1_555
H25 C25 1_555 1_555
C26 N1 1_555 1_555
C5 C6 1_555 1_555
C10 C11 1_555 1_555
C10 C18 1_555 1_555
C16 C17 1_555 1_555
C21 C26 1_555 1_555
C25 C26 1_555 1_555

#END
