
#######################################################################
#
#                 Cambridge Crystallographic Data Centre
#                                CCDC 
#
#######################################################################
#
# If this CIF has been generated from an entry in the Cambridge 
# Structural Database, then it will include bibliographic, chemical, 
# crystal, experimental, refinement or atomic coordinate data resulting 
# from the CCDC's data processing and validation procedures.
#
#######################################################################

data_OKEHOD
_chemical_formula_moiety         'C14 H9 F4 N1 O1'
_chemical_name_systematic        
N-(3-fluorophenyl)-3-(trifluoromethyl)benzamide
_symmetry_cell_setting           orthorhombic
_symmetry_space_group_name_H-M   'P b c n'
_symmetry_Int_Tables_number      60
_space_group_name_Hall           '-P 2n 2ab'
loop_
_symmetry_equiv_pos_site_id
_symmetry_equiv_pos_as_xyz
1 x,y,z
2 1/2+x,1/2-y,-z
3 -x,y,1/2-z
4 1/2-x,1/2-y,1/2+z
5 -x,-y,-z
6 1/2-x,1/2+y,z
7 x,-y,1/2+z
8 1/2+x,1/2+y,1/2-z
_cell_length_a                   26.9156(8)
_cell_length_b                   9.6838(3)
_cell_length_c                   9.6832(3)
_cell_angle_alpha                90
_cell_angle_beta                 90
_cell_angle_gamma                90
_cell_volume                     2523.88
_exptl_crystal_colour            colorless
_exptl_crystal_description       rod
_cell_formula_units_Z            8
loop_
_atom_site_label
_atom_site_type_symbol
_atom_site_fract_x
_atom_site_fract_y
_atom_site_fract_z
N1 N 0.14654(5) 0.42524(17) 0.26926(16)
H1 H 0.1359 0.4330 0.3549
O1 O 0.14720(5) 0.52793(15) 0.05814(14)
C1 C 0.10892(7) 0.6490(2) 0.2437(2)
C2 C 0.11897(8) 0.7801(2) 0.1923(3)
H2 H 0.1417 0.7910 0.1180
C3 C 0.09605(9) 0.8944(2) 0.2485(3)
H3 H 0.1034 0.9840 0.2140
C4 C 0.06234(9) 0.8785(2) 0.3556(3)
H4 H 0.0463 0.9571 0.3937
C5 C 0.05206(7) 0.7478(2) 0.4070(3)
C6 C 0.07507(7) 0.6328(2) 0.3505(2)
H5 H 0.0677 0.5432 0.3849
F1 F 0.26699(7) 0.0905(2) 0.38363(19)
C7 C 0.17391(6) 0.30451(19) 0.23445(18)
C8 C 0.16673(7) 0.2368(2) 0.11020(19)
H6 H 0.1432 0.2700 0.0451
C9 C 0.19438(7) 0.1206(2) 0.0829(2)
H7 H 0.1895 0.0741 -0.0024
C10 C 0.22898(7) 0.0690(2) 0.1744(2)
H8 H 0.2479 -0.0113 0.1536
C11 C 0.23490(6) 0.1384(2) 0.2965(2)
C12 C 0.20797(7) 0.2553(2) 0.32973(19)
H9 H 0.2127 0.3006 0.4157
C13 C 0.13557(6) 0.5290(2) 0.1808(2)
C14 C 0.01758(8) 0.7298(3) 0.5278(3)
F2 F 0.0215(5) 0.8392(7) 0.6142(6)
F3 F 0.0299(4) 0.6279(12) 0.6140(10)
F4 F -0.02830(18) 0.7168(17) 0.5007(7)
F5? F 0.18579(10) 0.0504(3) -0.0232(3)
H10? H 0.2585 0.1048 0.3611
F6? F -0.0075(5) 0.8403(6) 0.5584(19)
F7? F 0.0360(3) 0.6611(14) 0.6223(8)
F8? F -0.0206(3) 0.6444(10) 0.4844(8)
loop_
_geom_bond_atom_site_label_1
_geom_bond_atom_site_label_2
_geom_bond_site_symmetry_1
_geom_bond_site_symmetry_2
N1 H1 1_555 1_555
O1 C13 1_555 1_555
C1 C2 1_555 1_555
C2 H2 1_555 1_555
C3 C2 1_555 1_555
H3 C3 1_555 1_555
C4 C3 1_555 1_555
H4 C4 1_555 1_555
C5 C4 1_555 1_555
C6 C1 1_555 1_555
H5 C6 1_555 1_555
F1 C11 1_555 1_555
C7 N1 1_555 1_555
C8 C7 1_555 1_555
H6 C8 1_555 1_555
C9 C8 1_555 1_555
H7 C9 1_555 1_555
C10 C9 1_555 1_555
H8 C10 1_555 1_555
C11 C10 1_555 1_555
C12 C7 1_555 1_555
H9 C12 1_555 1_555
C13 N1 1_555 1_555
C14 C5 1_555 1_555
F2 C14 1_555 1_555
F3 C14 1_555 1_555
F4 C14 1_555 1_555
C1 C13 1_555 1_555
C5 C6 1_555 1_555
C11 C12 1_555 1_555

#END
