
#######################################################################
#
#                 Cambridge Crystallographic Data Centre
#                                CCDC 
#
#######################################################################
#
# If this CIF has been generated from an entry in the Cambridge 
# Structural Database, then it will include bibliographic, chemical, 
# crystal, experimental, refinement or atomic coordinate data resulting 
# from the CCDC's data processing and validation procedures.
#
#######################################################################

data_OKEHIX
_chemical_formula_moiety         'C14 H9 F4 N1 O1'
_chemical_name_systematic        
N-(2-fluorophenyl)-3-(trifluoromethyl)benzamide
_symmetry_cell_setting           monoclinic
_symmetry_space_group_name_H-M   'P 21/c'
_symmetry_Int_Tables_number      14
_space_group_name_Hall           '-P 2ybc'
loop_
_symmetry_equiv_pos_site_id
_symmetry_equiv_pos_as_xyz
1 x,y,z
2 -x,1/2+y,1/2-z
3 -x,-y,-z
4 x,1/2-y,1/2+z
_cell_length_a                   4.8913(3)
_cell_length_b                   25.8497(15)
_cell_length_c                   9.6013(7)
_cell_angle_alpha                90
_cell_angle_beta                 90.165(7)
_cell_angle_gamma                90
_cell_volume                     1213.97
_exptl_crystal_colour            colorless
_exptl_crystal_description       needle
_cell_formula_units_Z            4
loop_
_atom_site_label
_atom_site_type_symbol
_atom_site_fract_x
_atom_site_fract_y
_atom_site_fract_z
F1 F -0.2236(2) 0.33170(4) 0.37955(13)
F2 F 0.2259(3) 0.03076(4) 0.55849(15)
F3 F 0.5772(3) 0.03118(4) 0.69036(14)
F4 F 0.2022(3) 0.06399(4) 0.76275(14)
N1 N 0.1977(3) 0.28774(5) 0.52845(16)
H1 H 0.2296 0.2798 0.4409
O1 O 0.1749(3) 0.25640(5) 0.74979(13)
C1 C 0.3848(4) 0.20340(7) 0.57708(19)
C2 C 0.3127(4) 0.15595(6) 0.6357(2)
H2 H 0.1740 0.1543 0.7046
C3 C 0.4448(4) 0.11125(7) 0.5927(2)
C4 C 0.6523(4) 0.11323(7) 0.4940(2)
H3 H 0.7421 0.0824 0.4654
C5 C 0.7270(4) 0.16062(7) 0.4378(2)
H4 H 0.8705 0.1624 0.3715
C6 C 0.5926(4) 0.20557(7) 0.4782(2)
H5 H 0.6426 0.2378 0.4383
C7 C 0.1011(4) 0.33840(6) 0.5598(2)
C8 C 0.2195(4) 0.36803(7) 0.6643(2)
H6 H 0.3651 0.3542 0.7183
C9 C 0.1261(5) 0.41799(7) 0.6903(2)
H7 H 0.2071 0.4379 0.7626
C10 C -0.0841(5) 0.43873(7) 0.6114(2)
H8 H -0.1463 0.4729 0.6293
C11 C -0.2036(4) 0.40982(7) 0.5067(2)
H9 H -0.3480 0.4237 0.4519
C12 C -0.1084(4) 0.36018(7) 0.4835(2)
C13 C 0.2427(4) 0.25120(6) 0.6269(2)
C14 C 0.3625(4) 0.05974(7) 0.6507(2)
loop_
_geom_bond_atom_site_label_1
_geom_bond_atom_site_label_2
_geom_bond_site_symmetry_1
_geom_bond_site_symmetry_2
F1 C12 1_555 1_555
F2 C14 1_555 1_555
F3 C14 1_555 1_555
F4 C14 1_555 1_555
N1 H1 1_555 1_555
O1 C13 1_555 1_555
C1 C2 1_555 1_555
C2 H2 1_555 1_555
C3 C2 1_555 1_555
C4 C3 1_555 1_555
H3 C4 1_555 1_555
C5 C4 1_555 1_555
H4 C5 1_555 1_555
C6 C1 1_555 1_555
H5 C6 1_555 1_555
C7 N1 1_555 1_555
C8 C7 1_555 1_555
H6 C8 1_555 1_555
C9 C8 1_555 1_555
H7 C9 1_555 1_555
C10 C9 1_555 1_555
H8 C10 1_555 1_555
C11 C10 1_555 1_555
H9 C11 1_555 1_555
C12 C7 1_555 1_555
C13 N1 1_555 1_555
C14 C3 1_555 1_555
C1 C13 1_555 1_555
C5 C6 1_555 1_555
C11 C12 1_555 1_555

#END
