
#######################################################################
#
#                 Cambridge Crystallographic Data Centre
#                                CCDC 
#
#######################################################################
#
# If this CIF has been generated from an entry in the Cambridge 
# Structural Database, then it will include bibliographic, chemical, 
# crystal, experimental, refinement or atomic coordinate data resulting 
# from the CCDC's data processing and validation procedures.
#
#######################################################################

data_OKEHUJ
_chemical_formula_moiety         'C14 H9 F4 N1 O1'
_chemical_name_systematic        
N-(3-fluorophenyl)-4-(trifluoromethyl)benzamide
_symmetry_cell_setting           monoclinic
_symmetry_space_group_name_H-M   'C 2/c'
_symmetry_Int_Tables_number      15
_space_group_name_Hall           '-C 2yn'
loop_
_symmetry_equiv_pos_site_id
_symmetry_equiv_pos_as_xyz
1 x,y,z
2 -x,y,1/2-z
3 1/2+x,1/2+y,z
4 1/2-x,1/2+y,1/2-z
5 -x,-y,-z
6 x,-y,1/2+z
7 1/2-x,1/2-y,-z
8 1/2+x,1/2-y,1/2+z
_cell_length_a                   28.214(7)
_cell_length_b                   5.1860(12)
_cell_length_c                   16.020(4)
_cell_angle_alpha                90
_cell_angle_beta                 98.70(2)
_cell_angle_gamma                90
_cell_volume                     2317.04
_exptl_crystal_colour            colorless
_exptl_crystal_description       rod
_cell_formula_units_Z            8
loop_
_atom_site_label
_atom_site_type_symbol
_atom_site_fract_x
_atom_site_fract_y
_atom_site_fract_z
F1 F 1.12692(3) 1.10512(16) 0.79693(5)
F2 F 0.73225(3) 0.85494(19) 0.87700(7)
F3 F 0.73991(3) 0.5275(2) 0.79904(6)
F4 F 0.75326(3) 0.4907(2) 0.93373(6)
O1 O 0.97197(3) 1.11862(18) 0.88689(6)
N1 N 0.98985(4) 0.6914(2) 0.88013(7)
H1 H 0.9777 0.5349 0.8786
C1 C 1.10811(5) 0.9146(3) 0.83955(8)
C2 C 1.05916(5) 0.9136(3) 0.83841(8)
H2 H 1.0394 1.0449 0.8102
C3 C 1.03972(4) 0.7132(2) 0.88015(8)
C4 C 0.95916(4) 0.8920(2) 0.88230(8)
C5 C 0.90765(4) 0.8190(2) 0.87905(8)
C6 C 0.88780(5) 0.6041(2) 0.83453(8)
H3 H 0.9075 0.4930 0.8075
C7 C 0.83937(5) 0.5526(3) 0.82975(8)
H4 H 0.8256 0.4081 0.7986
C8 C 0.81107(4) 0.7137(3) 0.87072(8)
C9 C 0.75932(5) 0.6480(3) 0.86960(9)
C10 C 0.87886(5) 0.9804(2) 0.91924(8)
H5 H 0.8924 1.1276 0.9491
C11 C 0.83057(5) 0.9270(3) 0.91579(8)
H6 H 0.8109 1.0354 0.9440
C12 C 1.06925(5) 0.5220(3) 0.92079(8)
H7 H 1.0558 0.3847 0.9487
C13 C 1.11837(5) 0.5326(3) 0.92041(8)
H8 H 1.1384 0.4020 0.9483
C14 C 1.13845(5) 0.7308(3) 0.87991(8)
H9 H 1.1721 0.7398 0.8799
loop_
_geom_bond_atom_site_label_1
_geom_bond_atom_site_label_2
_geom_bond_site_symmetry_1
_geom_bond_site_symmetry_2
F1 C1 1_555 1_555
F2 C9 1_555 1_555
F3 C9 1_555 1_555
F4 C9 1_555 1_555
O1 C4 1_555 1_555
N1 H1 1_555 1_555
C1 C2 1_555 1_555
C2 H2 1_555 1_555
C3 N1 1_555 1_555
C4 N1 1_555 1_555
C5 C4 1_555 1_555
C6 C5 1_555 1_555
H3 C6 1_555 1_555
C7 C6 1_555 1_555
H4 C7 1_555 1_555
C8 C7 1_555 1_555
C9 C8 1_555 1_555
C10 C5 1_555 1_555
H5 C10 1_555 1_555
C11 C8 1_555 1_555
H6 C11 1_555 1_555
C12 C3 1_555 1_555
H7 C12 1_555 1_555
C13 C12 1_555 1_555
H8 C13 1_555 1_555
C14 C1 1_555 1_555
H9 C14 1_555 1_555
C2 C3 1_555 1_555
C10 C11 1_555 1_555
C13 C14 1_555 1_555

#END
