
#######################################################################
#
#                 Cambridge Crystallographic Data Centre
#                                CCDC 
#
#######################################################################
#
# If this CIF has been generated from an entry in the Cambridge 
# Structural Database, then it will include bibliographic, chemical, 
# crystal, experimental, refinement or atomic coordinate data resulting 
# from the CCDC's data processing and validation procedures.
#
#######################################################################

data_OKEJUL
_chemical_formula_moiety         'C14 H9 F4 N1 O1'
_chemical_name_systematic        
3-fluoro-N-(2-(trifluoromethyl)phenyl)benzamide
_symmetry_cell_setting           monoclinic
_symmetry_space_group_name_H-M   'P 21/c'
_symmetry_Int_Tables_number      14
_space_group_name_Hall           '-P 2ybc'
loop_
_symmetry_equiv_pos_site_id
_symmetry_equiv_pos_as_xyz
1 x,y,z
2 -x,1/2+y,1/2-z
3 -x,-y,-z
4 x,1/2-y,1/2+z
_cell_length_a                   8.02180(10)
_cell_length_b                   39.7347(6)
_cell_length_c                   7.88660(10)
_cell_angle_alpha                90
_cell_angle_beta                 103.9420(10)
_cell_angle_gamma                90
_cell_volume                     2439.75
_exptl_crystal_colour            colorless
_exptl_crystal_description       rod
_cell_formula_units_Z            8
loop_
_atom_site_label
_atom_site_type_symbol
_atom_site_fract_x
_atom_site_fract_y
_atom_site_fract_z
F1 F 0.04122(17) 0.24815(3) 0.20359(15)
F2 F -0.07837(14) 0.04689(2) 0.34609(12)
F3 F 0.14902(15) 0.01932(2) 0.47157(13)
F4 F 0.16916(14) 0.07083(2) 0.39628(12)
O1 O 0.14648(15) 0.15185(3) 0.61479(14)
N1 N -0.06565(19) 0.11450(3) 0.51269(16)
H1 H -0.1543 0.1090 0.4274
C1 C -0.0466(2) 0.16486(4) 0.34325(19)
C2 C 0.0225(2) 0.19715(4) 0.3473(2)
H2 H 0.1009 0.2054 0.4491
C3 C -0.0258(3) 0.21682(4) 0.1999(2)
C4 C -0.1385(3) 0.20608(4) 0.0492(2)
H3 H -0.1673 0.2201 -0.0511
C5 C -0.2086(2) 0.17423(4) 0.0481(2)
H4 H -0.2884 0.1665 -0.0538
C6 C -0.1642(2) 0.15351(4) 0.1935(2)
H5 H -0.2134 0.1317 0.1913
C7 C -0.0142(2) 0.09246(4) 0.65962(19)
C8 C -0.0349(2) 0.10263(4) 0.8217(2)
H6 H -0.0780 0.1245 0.8356
C9 C 0.0075(2) 0.08094(4) 0.9631(2)
H7 H -0.0076 0.0879 1.0737
C10 C 0.0715(2) 0.04924(4) 0.9437(2)
H8 H 0.1000 0.0344 1.0409
C11 C 0.0941(2) 0.03912(4) 0.7828(2)
H9 H 0.1391 0.0174 0.7700
C12 C 0.0512(2) 0.06062(4) 0.64011(19)
C13 C 0.0188(2) 0.14343(4) 0.50223(19)
C14 C 0.0734(2) 0.04937(4) 0.4654(2)
F5 F 0.63810(19) -0.00093(3) 0.78716(16)
F6 F 0.48205(14) 0.19820(2) 0.65902(12)
F7 F 0.64616(16) 0.22917(2) 0.54666(14)
F8 F 0.71068(14) 0.17735(3) 0.60490(12)
O2 O 0.58855(16) 0.09577(3) 0.37207(14)
N2 N 0.42488(19) 0.13356(3) 0.47317(17)
H10 H 0.3733 0.1385 0.5567
C15 C 0.5272(2) 0.08431(4) 0.6473(2)
C16 C 0.5756(2) 0.05078(4) 0.6425(2)
H11 H 0.5954 0.0412 0.5388
C17 C 0.5942(3) 0.03197(4) 0.7924(2)
C18 C 0.5718(3) 0.04490(5) 0.9474(2)
H12 H 0.5889 0.0313 1.0491
C19 C 0.5237(2) 0.07832(5) 0.9509(2)
H13 H 0.5067 0.0878 1.0560
C20 C 0.5002(2) 0.09803(4) 0.8015(2)
H14 H 0.4657 0.1209 0.8043
C21 C 0.4095(2) 0.15642(4) 0.33092(19)
C22 C 0.3201(2) 0.14753(4) 0.1640(2)
H15 H 0.2741 0.1255 0.1420
C23 C 0.2975(3) 0.17067(5) 0.0288(2)
H16 H 0.2365 0.1645 -0.0857
C24 C 0.3636(3) 0.20281(5) 0.0607(2)
H17 H 0.3464 0.2187 -0.0318
C25 C 0.4546(3) 0.21193(4) 0.2263(2)
H18 H 0.5006 0.2340 0.2474
C26 C 0.4786(2) 0.18867(4) 0.3620(2)
C27 C 0.5152(2) 0.10468(4) 0.48500(19)
C28 C 0.5787(2) 0.19824(4) 0.5413(2)
loop_
_geom_bond_atom_site_label_1
_geom_bond_atom_site_label_2
_geom_bond_site_symmetry_1
_geom_bond_site_symmetry_2
F1 C3 1_555 1_555
F2 C14 1_555 1_555
F3 C14 1_555 1_555
F4 C14 1_555 1_555
O1 C13 1_555 1_555
N1 H1 1_555 1_555
C1 C2 1_555 1_555
C2 H2 1_555 1_555
C3 C2 1_555 1_555
C4 C3 1_555 1_555
H3 C4 1_555 1_555
C5 C4 1_555 1_555
H4 C5 1_555 1_555
C6 C1 1_555 1_555
H5 C6 1_555 1_555
C7 N1 1_555 1_555
C8 C7 1_555 1_555
H6 C8 1_555 1_555
C9 C8 1_555 1_555
H7 C9 1_555 1_555
C10 C9 1_555 1_555
H8 C10 1_555 1_555
C11 C10 1_555 1_555
H9 C11 1_555 1_555
C12 C7 1_555 1_555
C13 N1 1_555 1_555
C14 C12 1_555 1_555
F5 C17 1_555 1_555
F6 C28 1_555 1_555
F7 C28 1_555 1_555
F8 C28 1_555 1_555
O2 C27 1_555 1_555
N2 H10 1_555 1_555
C15 C16 1_555 1_555
C16 H11 1_555 1_555
C17 C16 1_555 1_555
C18 C17 1_555 1_555
H12 C18 1_555 1_555
C19 C18 1_555 1_555
H13 C19 1_555 1_555
C20 C15 1_555 1_555
H14 C20 1_555 1_555
C21 N2 1_555 1_555
C22 C21 1_555 1_555
H15 C22 1_555 1_555
C23 C22 1_555 1_555
H16 C23 1_555 1_555
C24 C23 1_555 1_555
H17 C24 1_555 1_555
C25 C24 1_555 1_555
H18 C25 1_555 1_555
C26 C21 1_555 1_555
C27 N2 1_555 1_555
C28 C26 1_555 1_555
C1 C13 1_555 1_555
C5 C6 1_555 1_555
C11 C12 1_555 1_555
C15 C27 1_555 1_555
C19 C20 1_555 1_555
C25 C26 1_555 1_555

#END
