
#######################################################################
#
#                 Cambridge Crystallographic Data Centre
#                                CCDC 
#
#######################################################################
#
# If this CIF has been generated from an entry in the Cambridge 
# Structural Database, then it will include bibliographic, chemical, 
# crystal, experimental, refinement or atomic coordinate data resulting 
# from the CCDC's data processing and validation procedures.
#
#######################################################################

data_OKEJAR
_chemical_formula_moiety         'C14 H9 F4 N1 O1'
_chemical_name_systematic        
N-(4-fluorophenyl)-4-(trifluoromethyl)benzamide
_symmetry_cell_setting           triclinic
_symmetry_space_group_name_H-M   'P -1'
_symmetry_Int_Tables_number      2
_space_group_name_Hall           '-P 1'
loop_
_symmetry_equiv_pos_site_id
_symmetry_equiv_pos_as_xyz
1 x,y,z
2 -x,-y,-z
_cell_length_a                   5.353(2)
_cell_length_b                   6.963(3)
_cell_length_c                   16.666(6)
_cell_angle_alpha                80.519(6)
_cell_angle_beta                 88.584(6)
_cell_angle_gamma                71.932(6)
_cell_volume                     582.262
_exptl_crystal_colour            colorless
_exptl_crystal_description       plate
_cell_formula_units_Z            2
loop_
_atom_site_label
_atom_site_type_symbol
_atom_site_fract_x
_atom_site_fract_y
_atom_site_fract_z
F1 F 1.22864(19) -0.44732(15) 0.98109(7)
F2 F 0.7263(2) 1.31935(16) 0.59924(7)
F3 F 0.3220(2) 1.36265(16) 0.56995(7)
F4 F 0.6279(2) 1.21053(15) 0.49552(6)
N1 N 0.9038(2) 0.3299(2) 0.79897(8)
H1 H 1.0319 0.3825 0.7860
O1 O 0.4594(2) 0.39538(17) 0.78588(7)
C1 C 0.6428(3) 0.6492(2) 0.71986(10)
C2 C 0.4099(3) 0.8111(2) 0.72088(10)
H2 H 0.2703 0.7913 0.7541
C3 C 0.3823(3) 1.0003(2) 0.67354(10)
H3 H 0.2251 1.1108 0.6747
C4 C 0.5858(3) 1.0272(2) 0.62442(10)
C5 C 0.8182(3) 0.8660(2) 0.62272(10)
H4 H 0.9563 0.8851 0.5886
C6 C 0.8465(3) 0.6783(2) 0.67091(10)
H5 H 1.0054 0.5690 0.6706
C7 C 0.9743(3) 0.1313(2) 0.84695(9)
C8 C 0.8386(3) -0.0072(2) 0.84067(10)
H6 H 0.6885 0.0316 0.8053
C9 C 0.9247(3) -0.2030(2) 0.88666(10)
H7 H 0.8329 -0.2985 0.8835
C10 C 1.1446(3) -0.2561(2) 0.93682(10)
C11 C 1.2815(3) -0.1215(3) 0.94407(10)
H8 H 1.4322 -0.1616 0.9793
C12 C 1.1946(3) 0.0737(2) 0.89888(10)
H9 H 1.2857 0.1691 0.9033
C13 C 0.6569(3) 0.4472(2) 0.77104(10)
C14 C 0.5632(3) 1.2296(2) 0.57252(10)
loop_
_geom_bond_atom_site_label_1
_geom_bond_atom_site_label_2
_geom_bond_site_symmetry_1
_geom_bond_site_symmetry_2
F1 C10 1_555 1_555
F2 C14 1_555 1_555
F3 C14 1_555 1_555
F4 C14 1_555 1_555
N1 H1 1_555 1_555
O1 C13 1_555 1_555
C1 C2 1_555 1_555
C2 H2 1_555 1_555
C3 C2 1_555 1_555
H3 C3 1_555 1_555
C4 C3 1_555 1_555
C5 C4 1_555 1_555
H4 C5 1_555 1_555
C6 C1 1_555 1_555
H5 C6 1_555 1_555
C7 N1 1_555 1_555
C8 C7 1_555 1_555
H6 C8 1_555 1_555
C9 C8 1_555 1_555
H7 C9 1_555 1_555
C10 C9 1_555 1_555
C11 C10 1_555 1_555
H8 C11 1_555 1_555
C12 C7 1_555 1_555
H9 C12 1_555 1_555
C13 N1 1_555 1_555
C14 C4 1_555 1_555
C1 C13 1_555 1_555
C5 C6 1_555 1_555
C11 C12 1_555 1_555

#END
