
#######################################################################
#
#                 Cambridge Crystallographic Data Centre
#                                CCDC 
#
#######################################################################
#
# If this CIF has been generated from an entry in the Cambridge 
# Structural Database, then it will include bibliographic, chemical, 
# crystal, experimental, refinement or atomic coordinate data resulting 
# from the CCDC's data processing and validation procedures.
#
#######################################################################

data_OKEKEW
_chemical_formula_moiety         'C14 H9 F4 N1 O1'
_chemical_name_systematic        
4-fluoro-N-(2-(trifluoromethyl)phenyl)benzamide
_symmetry_cell_setting           monoclinic
_symmetry_space_group_name_H-M   'P 21/n'
_symmetry_Int_Tables_number      14
_space_group_name_Hall           '-P 2yn'
loop_
_symmetry_equiv_pos_site_id
_symmetry_equiv_pos_as_xyz
1 x,y,z
2 1/2-x,1/2+y,1/2-z
3 -x,-y,-z
4 1/2+x,1/2-y,1/2+z
_cell_length_a                   15.4221(4)
_cell_length_b                   7.9238(2)
_cell_length_c                   19.9518(5)
_cell_angle_alpha                90
_cell_angle_beta                 90.9210(10)
_cell_angle_gamma                90
_cell_volume                     2437.83
_exptl_crystal_colour            colorless
_exptl_crystal_description       ROD
_cell_formula_units_Z            8
loop_
_atom_site_label
_atom_site_type_symbol
_atom_site_fract_x
_atom_site_fract_y
_atom_site_fract_z
F1 F 0.45910(7) 0.09476(16) 0.44441(6)
F2 F 0.72677(7) 0.29374(15) 0.03870(5)
F3 F 0.67125(7) 0.09570(14) 0.09811(5)
F4 F 0.69409(7) 0.34074(14) 0.14121(5)
N1 N 0.75943(10) 0.08124(19) 0.22933(7)
H1 H 0.7175 0.0112 0.2178
O1 O 0.81114(8) 0.26463(16) 0.30658(6)
C1 C 0.67442(12) 0.1378(2) 0.32795(9)
C2 C 0.67758(12) 0.1876(2) 0.39503(10)
H2 H 0.7297 0.2332 0.4135
C3 C 0.60524(13) 0.1712(3) 0.43508(10)
H3 H 0.6075 0.2020 0.4811
C4 C 0.53019(12) 0.1089(3) 0.40627(10)
C5 C 0.52437(12) 0.0598(2) 0.33996(10)
H4 H 0.4715 0.0179 0.3214
C6 C 0.59758(12) 0.0733(2) 0.30128(10)
H5 H 0.5953 0.0379 0.2558
C7 C 0.83052(11) 0.1015(2) 0.18546(9)
C8 C 0.91271(12) 0.0479(2) 0.20498(10)
H6 H 0.9224 0.0026 0.2486
C9 C 0.98057(12) 0.0604(2) 0.16077(10)
H7 H 1.0368 0.0233 0.1741
C10 C 0.96730(13) 0.1267(3) 0.09717(10)
H8 H 1.0141 0.1339 0.0670
C11 C 0.88564(12) 0.1825(3) 0.07776(10)
H9 H 0.8766 0.2296 0.0344
C12 C 0.81711(12) 0.1695(2) 0.12152(9)
C13 C 0.75385(11) 0.1649(2) 0.28773(9)
C14 C 0.72818(12) 0.2255(2) 0.10004(9)
F5 F -0.02348(7) -0.15998(16) 0.44974(6)
F6 F 0.22601(7) 0.05195(15) 0.03318(6)
F7 F 0.17174(7) -0.14386(14) 0.09399(6)
F8 F 0.19578(6) 0.10092(14) 0.13607(6)
N2 N 0.26380(10) -0.15628(19) 0.22423(7)
H10 H 0.2213 -0.2258 0.2136
O2 O 0.31768(7) 0.02907(16) 0.30012(6)
C15 C 0.18341(11) -0.1002(2) 0.32534(9)
C16 C 0.18798(12) -0.0449(2) 0.39152(9)
H11 H 0.2397 0.0069 0.4079
C17 C 0.11856(13) -0.0642(2) 0.43378(10)
H12 H 0.1219 -0.0267 0.4790
C18 C 0.04460(12) -0.1389(2) 0.40867(10)
C19 C 0.03659(12) -0.1947(2) 0.34353(10)
H13 H -0.0158 -0.2449 0.3276
C20 C 0.10684(12) -0.1756(2) 0.30177(9)
H14 H 0.1029 -0.2141 0.2567
C21 C 0.33366(11) -0.1371(2) 0.17906(9)
C22 C 0.41659(12) -0.1875(2) 0.19756(10)
H15 H 0.4272 -0.2314 0.2412
C23 C 0.48395(12) -0.1748(3) 0.15331(10)
H16 H 0.5407 -0.2089 0.1665
C24 C 0.46853(12) -0.1119(3) 0.08941(10)
H17 H 0.5147 -0.1042 0.0586
C25 C 0.38600(12) -0.0602(2) 0.07044(9)
H18 H 0.3757 -0.0163 0.0267
C26 C 0.31849(11) -0.0722(2) 0.11489(9)
C27 C 0.26044(11) -0.0714(2) 0.28289(9)
C28 C 0.22873(12) -0.0155(2) 0.09480(9)
loop_
_geom_bond_atom_site_label_1
_geom_bond_atom_site_label_2
_geom_bond_site_symmetry_1
_geom_bond_site_symmetry_2
F1 C4 1_555 1_555
F2 C14 1_555 1_555
F3 C14 1_555 1_555
F4 C14 1_555 1_555
N1 H1 1_555 1_555
O1 C13 1_555 1_555
C1 C2 1_555 1_555
C2 H2 1_555 1_555
C3 C2 1_555 1_555
H3 C3 1_555 1_555
C4 C3 1_555 1_555
C5 C4 1_555 1_555
H4 C5 1_555 1_555
C6 C1 1_555 1_555
H5 C6 1_555 1_555
C7 N1 1_555 1_555
C8 C7 1_555 1_555
H6 C8 1_555 1_555
C9 C8 1_555 1_555
H7 C9 1_555 1_555
C10 C9 1_555 1_555
H8 C10 1_555 1_555
C11 C10 1_555 1_555
H9 C11 1_555 1_555
C12 C7 1_555 1_555
C13 N1 1_555 1_555
C14 C12 1_555 1_555
F5 C18 1_555 1_555
F6 C28 1_555 1_555
F7 C28 1_555 1_555
F8 C28 1_555 1_555
N2 H10 1_555 1_555
O2 C27 1_555 1_555
C15 C16 1_555 1_555
C16 H11 1_555 1_555
C17 C16 1_555 1_555
H12 C17 1_555 1_555
C18 C17 1_555 1_555
C19 C18 1_555 1_555
H13 C19 1_555 1_555
C20 C15 1_555 1_555
H14 C20 1_555 1_555
C21 N2 1_555 1_555
C22 C21 1_555 1_555
H15 C22 1_555 1_555
C23 C22 1_555 1_555
H16 C23 1_555 1_555
C24 C23 1_555 1_555
H17 C24 1_555 1_555
C25 C24 1_555 1_555
H18 C25 1_555 1_555
C26 C21 1_555 1_555
C27 N2 1_555 1_555
C28 C26 1_555 1_555
C1 C13 1_555 1_555
C5 C6 1_555 1_555
C11 C12 1_555 1_555
C15 C27 1_555 1_555
C19 C20 1_555 1_555
C25 C26 1_555 1_555

#END
