
#######################################################################
#
#                 Cambridge Crystallographic Data Centre
#                                CCDC 
#
#######################################################################
#
# If this CIF has been generated from an entry in the Cambridge 
# Structural Database, then it will include bibliographic, chemical, 
# crystal, experimental, refinement or atomic coordinate data resulting 
# from the CCDC's data processing and validation procedures.
#
#######################################################################

data_OKEKIA
_chemical_formula_moiety         'C14 H9 F4 N1 O1'
_chemical_name_systematic        
4-fluoro-N-(4-(trifluoromethyl)phenyl)benzamide
_symmetry_cell_setting           monoclinic
_symmetry_space_group_name_H-M   'P 21/c'
_symmetry_Int_Tables_number      14
_space_group_name_Hall           '-P 2ybc'
loop_
_symmetry_equiv_pos_site_id
_symmetry_equiv_pos_as_xyz
1 x,y,z
2 -x,1/2+y,1/2-z
3 -x,-y,-z
4 x,1/2-y,1/2+z
_cell_length_a                   12.9475(16)
_cell_length_b                   9.5928(11)
_cell_length_c                   10.0791(12)
_cell_angle_alpha                90
_cell_angle_beta                 106.428(7)
_cell_angle_gamma                90
_cell_volume                     1200.75
_exptl_crystal_colour            colorless
_exptl_crystal_description       plate
_cell_formula_units_Z            4
loop_
_atom_site_label
_atom_site_type_symbol
_atom_site_fract_x
_atom_site_fract_y
_atom_site_fract_z
C1 C 0.34440(15) 0.5576(2) 0.1032(2)
C2 C 0.40766(15) 0.4743(2) 0.2079(2)
H1 H 0.4189 0.5000 0.3020
C3 C 0.45454(17) 0.3533(2) 0.1754(2)
H2 H 0.4981 0.2960 0.2462
C4 C 0.43635(16) 0.3188(2) 0.0389(2)
C5 C 0.37416(17) 0.3977(2) -0.0671(2)
H3 H 0.3628 0.3702 -0.1607
C6 C 0.32805(16) 0.5192(2) -0.0340(2)
H4 H 0.2851 0.5762 -0.1057
C7 C 0.21094(15) 0.9128(2) 0.0597(2)
C8 C 0.14216(15) 0.9266(2) 0.1435(2)
H5 H 0.1290 0.8491 0.1952
C9 C 0.09300(16) 1.0542(2) 0.1511(2)
H6 H 0.0464 1.0641 0.2083
C10 C 0.11187(16) 1.1667(2) 0.0754(2)
C11 C 0.17849(17) 1.1530(2) -0.0106(2)
H7 H 0.1900 1.2300 -0.0640
C12 C 0.22801(17) 1.0258(2) -0.0175(2)
H8 H 0.2739 1.0161 -0.0757
C13 C 0.29361(15) 0.6855(2) 0.1446(2)
C14 C 0.06072(17) 1.3063(2) 0.0806(2)
N1 N 0.26217(13) 0.78558(17) 0.04603(18)
H9 H 0.2749 0.7697 -0.0339
O1 O 0.28447(11) 0.69758(15) 0.26225(15)
F1 F 0.48210(10) 0.20013(13) 0.00688(14)
F2 F 0.01548(13) 1.35795(15) -0.04518(15)
F3 F -0.01698(12) 1.30185(15) 0.14422(17)
F4 F 0.13184(11) 1.40126(14) 0.14828(17)
loop_
_geom_bond_atom_site_label_1
_geom_bond_atom_site_label_2
_geom_bond_site_symmetry_1
_geom_bond_site_symmetry_2
C1 C2 1_555 1_555
C2 H1 1_555 1_555
C3 C2 1_555 1_555
H2 C3 1_555 1_555
C4 C3 1_555 1_555
C5 C4 1_555 1_555
H3 C5 1_555 1_555
C6 C1 1_555 1_555
H4 C6 1_555 1_555
C7 C8 1_555 1_555
C8 H5 1_555 1_555
C9 C8 1_555 1_555
H6 C9 1_555 1_555
C10 C9 1_555 1_555
C11 C10 1_555 1_555
H7 C11 1_555 1_555
C12 C7 1_555 1_555
H8 C12 1_555 1_555
C13 C1 1_555 1_555
C14 C10 1_555 1_555
N1 C7 1_555 1_555
H9 N1 1_555 1_555
O1 C13 1_555 1_555
F1 C4 1_555 1_555
F2 C14 1_555 1_555
F3 C14 1_555 1_555
F4 C14 1_555 1_555
C5 C6 1_555 1_555
C11 C12 1_555 1_555
C13 N1 1_555 1_555

#END
