
#######################################################################
#
#                 Cambridge Crystallographic Data Centre
#                                CCDC 
#
#######################################################################
#
# If this CIF has been generated from an entry in the Cambridge 
# Structural Database, then it will include bibliographic, chemical, 
# crystal, experimental, refinement or atomic coordinate data resulting 
# from the CCDC's data processing and validation procedures.
#
#######################################################################

data_OKENOI
_chemical_formula_moiety         'C24 H19 N1 O1'
_chemical_name_systematic        
'3-Benzylidene-2,4-diphenyl-3,4-dihydropyridine 1-oxide'
_symmetry_cell_setting           monoclinic
_symmetry_space_group_name_H-M   'P 21/a'
_symmetry_Int_Tables_number      14
_space_group_name_Hall           '-P 2yab'
loop_
_symmetry_equiv_pos_site_id
_symmetry_equiv_pos_as_xyz
1 x,y,z
2 1/2-x,1/2+y,-z
3 -x,-y,-z
4 1/2+x,1/2-y,z
_cell_length_a                   13.331(4)
_cell_length_b                   13.030(4)
_cell_length_c                   22.476(7)
_cell_angle_alpha                90
_cell_angle_beta                 105.846(3)
_cell_angle_gamma                90
_cell_volume                     3755.79
_exptl_crystal_colour            colorless
_exptl_crystal_description       prism
_cell_formula_units_Z            8
loop_
_atom_site_label
_atom_site_type_symbol
_atom_site_fract_x
_atom_site_fract_y
_atom_site_fract_z
O1 O 0.63330(6) 0.03181(6) 0.04170(4)
N1 N 0.64240(7) 0.12258(7) 0.01977(4)
C1 C 0.54968(9) 0.16067(9) -0.02347(5)
C2 C 0.55439(9) 0.23644(10) -0.06122(6)
C3 C 0.65435(9) 0.29105(9) -0.05911(5)
C4 C 0.72718(9) 0.27859(9) 0.00540(5)
C5 C 0.73028(9) 0.17614(8) 0.03293(5)
C6 C 0.70248(9) 0.25610(9) -0.11016(5)
C7 C 0.68698(10) 0.15879(9) -0.13572(6)
C8 C 0.73103(11) 0.13081(10) -0.18252(6)
C9 C 0.79042(10) 0.19929(11) -0.20475(6)
C10 C 0.80808(11) 0.29566(11) -0.17873(6)
C11 C 0.76524(10) 0.32380(10) -0.13164(6)
C12 C 0.78246(9) 0.35851(9) 0.03413(5)
C13 C 0.84616(9) 0.36718(8) 0.09864(5)
C14 C 0.80877(10) 0.33539(9) 0.14779(6)
C15 C 0.86634(11) 0.35155(10) 0.20813(6)
C16 C 0.96253(11) 0.39788(11) 0.22052(6)
C17 C 1.00114(10) 0.42940(10) 0.17232(6)
C18 C 0.94314(10) 0.41539(9) 0.11198(6)
C19 C 0.82849(9) 0.12867(9) 0.06909(5)
C20 C 0.83714(10) 0.07450(9) 0.12341(6)
C21 C 0.93139(12) 0.03155(11) 0.15469(7)
C22 C 1.01654(12) 0.04049(13) 0.13195(8)
C23 C 1.00901(11) 0.09326(13) 0.07815(8)
C24 C 0.91567(10) 0.13806(11) 0.04685(7)
H1 H 0.4843 0.1305 -0.0248
H2 H 0.4925 0.2570 -0.0911
H3 H 0.6390 0.3621 -0.0652
H4 H 0.6460 0.1109 -0.1206
H5 H 0.8190 0.1804 -0.2375
H6 H 0.7786 0.3900 -0.1135
H7 H 0.7806 0.4180 0.0094
H8 H 0.7429 0.3023 0.1394
H9 H 1.0024 0.4084 0.2621
H10 H 1.0679 0.4607 0.1808
H11 H 0.9693 0.4385 0.0790
H12 H 0.7778 0.0670 0.1387
H13 H 0.9376 -0.0040 0.1924
H26 H 0.7198 0.0637 -0.1995
H27 H 0.8500 0.3432 -0.1933
H28 H 0.8393 0.3307 0.2412
H29 H 1.0808 0.0098 0.1535
H30 H 1.0679 0.0988 0.0623
H31 H 0.9104 0.1759 0.0100
O2 O 0.59608(6) 0.47218(6) 0.45973(4)
N2 N 0.62393(7) 0.37936(7) 0.47830(4)
C25 C 0.56734(9) 0.33533(10) 0.51821(6)
C26 C 0.60588(9) 0.25723(10) 0.55443(6)
C27 C 0.70728(9) 0.20853(9) 0.55370(5)
C28 C 0.72390(8) 0.22479(9) 0.49006(5)
C29 C 0.70112(9) 0.32888(9) 0.46476(5)
C30 C 0.79800(9) 0.24836(9) 0.60593(5)
C31 C 0.79528(11) 0.34395(10) 0.63254(6)
C32 C 0.87796(12) 0.37802(11) 0.67983(6)
C33 C 0.96413(11) 0.31734(13) 0.70168(6)
C34 C 0.96848(10) 0.22219(12) 0.67530(6)
C35 C 0.88625(10) 0.18794(10) 0.62764(6)
C36 C 0.75581(9) 0.14684(9) 0.46099(5)
C37 C 0.76902(9) 0.14236(9) 0.39821(5)
C38 C 0.85230(11) 0.08689(10) 0.38831(6)
C39 C 0.86851(13) 0.08121(12) 0.33047(8)
C40 C 0.80109(15) 0.12877(13) 0.28150(7)
C41 C 0.71578(13) 0.18171(11) 0.28961(6)
C42 C 0.69918(11) 0.18806(10) 0.34775(6)
C43 C 0.76612(9) 0.38126(9) 0.43027(5)
C44 C 0.87365(10) 0.37463(10) 0.45309(7)
C45 C 0.93824(13) 0.42309(12) 0.42298(9)
C46 C 0.89665(15) 0.47702(12) 0.36994(9)
C47 C 0.79067(15) 0.48308(11) 0.34656(7)
C48 C 0.72495(11) 0.43618(9) 0.37631(6)
H14 H 0.5015 0.3632 0.5182
H15 H 0.5686 0.2315 0.5817
H16 H 0.7016 0.1368 0.5594
H17 H 0.7355 0.3861 0.6178
H18 H 0.8749 0.4438 0.6975
H19 H 0.8895 0.1226 0.6095
H20 H 0.7724 0.0854 0.4844
H21 H 0.8985 0.0528 0.4223
H22 H 0.9266 0.0444 0.3247
H23 H 0.6403 0.2238 0.3534
H24 H 0.7625 0.5197 0.3092
H25 H 0.6515 0.4415 0.3599
H32 H 1.0207 0.3407 0.7346
H33 H 1.0285 0.1803 0.6899
H34 H 0.8126 0.1251 0.2417
H35 H 0.6686 0.2139 0.2552
H36 H 0.9030 0.3365 0.4897
H37 H 1.0118 0.4183 0.4393
H38 H 0.9414 0.5105 0.3497
loop_
_geom_bond_atom_site_label_1
_geom_bond_atom_site_label_2
_geom_bond_site_symmetry_1
_geom_bond_site_symmetry_2
O1 N1 1_555 1_555
O2 N2 1_555 1_555
N1 C1 1_555 1_555
N2 C25 1_555 1_555
C1 C2 1_555 1_555
C2 C3 1_555 1_555
C3 C4 1_555 1_555
C4 C5 1_555 1_555
C5 N1 1_555 1_555
C6 C3 1_555 1_555
C7 C6 1_555 1_555
C8 C7 1_555 1_555
C9 C8 1_555 1_555
C10 C9 1_555 1_555
C11 C6 1_555 1_555
C12 C4 1_555 1_555
C13 C12 1_555 1_555
C14 C13 1_555 1_555
C15 C14 1_555 1_555
C16 C15 1_555 1_555
C17 C16 1_555 1_555
C18 C13 1_555 1_555
C19 C5 1_555 1_555
C20 C19 1_555 1_555
C21 C20 1_555 1_555
C22 C21 1_555 1_555
C23 C22 1_555 1_555
C24 C19 1_555 1_555
C25 C26 1_555 1_555
C26 C27 1_555 1_555
C27 C28 1_555 1_555
C28 C29 1_555 1_555
C29 N2 1_555 1_555
C30 C27 1_555 1_555
C31 C30 1_555 1_555
C32 C31 1_555 1_555
C33 C32 1_555 1_555
C34 C33 1_555 1_555
C35 C30 1_555 1_555
C36 C28 1_555 1_555
C37 C36 1_555 1_555
C38 C37 1_555 1_555
C39 C38 1_555 1_555
C40 C39 1_555 1_555
C41 C40 1_555 1_555
C42 C37 1_555 1_555
C43 C29 1_555 1_555
C44 C43 1_555 1_555
C45 C44 1_555 1_555
C46 C45 1_555 1_555
C47 C46 1_555 1_555
C48 C43 1_555 1_555
H1 C1 1_555 1_555
H2 C2 1_555 1_555
H3 C3 1_555 1_555
H4 C7 1_555 1_555
H5 C9 1_555 1_555
H6 C11 1_555 1_555
H7 C12 1_555 1_555
H8 C14 1_555 1_555
H9 C16 1_555 1_555
H10 C17 1_555 1_555
H11 C18 1_555 1_555
H12 C20 1_555 1_555
H13 C21 1_555 1_555
H14 C25 1_555 1_555
H15 C26 1_555 1_555
H16 C27 1_555 1_555
H17 C31 1_555 1_555
H18 C32 1_555 1_555
H19 C35 1_555 1_555
H20 C36 1_555 1_555
H21 C38 1_555 1_555
H22 C39 1_555 1_555
H23 C42 1_555 1_555
H24 C47 1_555 1_555
H25 C48 1_555 1_555
H26 C8 1_555 1_555
H27 C10 1_555 1_555
H28 C15 1_555 1_555
H29 C22 1_555 1_555
H30 C23 1_555 1_555
H31 C24 1_555 1_555
H32 C33 1_555 1_555
H33 C34 1_555 1_555
H34 C40 1_555 1_555
H35 C41 1_555 1_555
H36 C44 1_555 1_555
H37 C45 1_555 1_555
H38 C46 1_555 1_555
C10 C11 1_555 1_555
C17 C18 1_555 1_555
C23 C24 1_555 1_555
C34 C35 1_555 1_555
C41 C42 1_555 1_555
C47 C48 1_555 1_555

#END
