
#######################################################################
#
#                 Cambridge Crystallographic Data Centre
#                                CCDC 
#
#######################################################################
#
# If this CIF has been generated from an entry in the Cambridge 
# Structural Database, then it will include bibliographic, chemical, 
# crystal, experimental, refinement or atomic coordinate data resulting 
# from the CCDC's data processing and validation procedures.
#
#######################################################################

data_OKERUR
_chemical_formula_moiety         'C8 H12 N4 2+,2(C2 F3 O2 1-)'
_chemical_name_systematic        
"2,2'-Dimethyl-4,4'-biimidazolinium bis(trifluoroacetate)"
_symmetry_cell_setting           tetragonal
_symmetry_space_group_name_H-M   'I -4 2 d'
_symmetry_Int_Tables_number      122
_space_group_name_Hall           'I -4 2bw'
loop_
_symmetry_equiv_pos_site_id
_symmetry_equiv_pos_as_xyz
1 x,y,z
2 -x,-y,z
3 y,-x,-z
4 -y,x,-z
5 1/2-x,y,3/4-z
6 1/2+x,-y,3/4-z
7 1/2-y,-x,3/4+z
8 1/2+y,x,3/4+z
9 1/2+x,1/2+y,1/2+z
10 1/2-x,1/2-y,1/2+z
11 1/2+y,1/2-x,1/2-z
12 1/2-y,1/2+x,1/2-z
13 -x,1/2+y,1/4-z
14 x,1/2-y,1/4-z
15 -y,1/2-x,1/4+z
16 y,1/2+x,1/4+z
_cell_length_a                   21.824(4)
_cell_length_b                   21.824(4)
_cell_length_c                   13.676(3)
_cell_angle_alpha                90
_cell_angle_beta                 90
_cell_angle_gamma                90
_cell_volume                     6513.7
_exptl_crystal_colour            'very pale yellow'
_exptl_crystal_description       block
_cell_formula_units_Z            16
loop_
_atom_site_label
_atom_site_type_symbol
_atom_site_fract_x
_atom_site_fract_y
_atom_site_fract_z
N1 N 0.20504(10) 0.82215(9) 1.0056(3)
H1 H 0.2332(11) 0.8566(11) 1.003(3)
C1 C 0.14440(12) 0.83025(12) 1.0082(4)
N2 N 0.11810(9) 0.77470(10) 1.0035(4)
H2 H 0.0811(11) 0.7703(11) 1.002(4)
C2 C 0.16315(10) 0.73029(11) 1.0009(4)
H3 H 0.1570 0.6872 0.9994
C3 C 0.21789(10) 0.75999(10) 1.0009(4)
C4 C 0.28018(10) 0.73659(10) 0.9979(4)
N3 N 0.29350(9) 0.67445(9) 0.9931(3)
H4 H 0.2640(11) 0.6437(11) 0.985(2)
C5 C 0.35378(12) 0.66634(12) 0.9908(4)
N4 N 0.38044(9) 0.72157(10) 0.9948(4)
H5 H 0.4180(11) 0.7265(11) 0.999(4)
C6 C 0.33531(10) 0.76613(10) 1.0014(4)
H6 H 0.3416 0.8091 1.0073
C7 C 0.11252(13) 0.88999(13) 1.0148(4)
H7 H 0.1074 0.9071 0.9490
H8 H 0.1368 0.9182 1.0547
H9 H 0.0722 0.8842 1.0449
C8 C 0.38614(12) 0.60605(13) 0.9832(4)
H10 H 0.3905 0.5948 0.9142
H11 H 0.3623 0.5745 1.0173
H12 H 0.4268 0.6094 1.0131
O1 O 0.29359(8) 0.90427(8) 1.0057(4)
O2 O 0.24081(7) 0.99236(7) 0.9996(3)
C9 C 0.28764(12) 0.96116(10) 1.0028(5)
C10 C 0.34975(13) 0.99518(12) 0.9987(4)
F1 F 0.3472(4) 1.0554(3) 1.0098(15)
F2 F 0.3877(4) 0.9755(6) 1.0736(7)
F3 F 0.3801(7) 0.9828(7) 0.9173(7)
O3 O 0.20407(8) 0.59090(7) 0.9911(3)
O4 O 0.26188(7) 0.50533(7) 1.0027(3)
C11 C 0.21282(11) 0.53420(11) 0.9978(5)
C12 C 0.15429(12) 0.49452(11) 0.9985(4)
F4 F 0.1569(4) 0.4528(4) 1.0737(6)
F5 F 0.1020(4) 0.5253(4) 1.0094(11)
F6 F 0.1508(6) 0.4624(6) 0.9175(7)
F7? F 0.3516(12) 1.0250(13) 0.9150(11)
F8? F 0.3451(10) 1.0438(8) 1.0680(13)
F9? F 0.3979(7) 0.9661(8) 1.018(3)
F10? F 0.3403(7) 1.0501(6) 0.9557(16)
F11? F 0.3742(9) 1.0046(12) 1.0838(8)
F12? F 0.3920(8) 0.9669(7) 0.9435(15)
F13? F 0.1590(9) 0.4457(6) 0.9415(13)
F14? F 0.1399(11) 0.4746(13) 1.0883(9)
F15? F 0.1041(8) 0.5258(9) 0.965(2)
F16? F 0.1557(15) 0.4382(9) 1.033(3)
F17? F 0.1103(11) 0.5224(13) 1.059(2)
F18? F 0.1272(17) 0.496(2) 0.9117(14)
loop_
_geom_bond_atom_site_label_1
_geom_bond_atom_site_label_2
_geom_bond_site_symmetry_1
_geom_bond_site_symmetry_2
N1 H1 1_555 1_555
C1 N1 1_555 1_555
N2 C1 1_555 1_555
H2 N2 1_555 1_555
C2 N2 1_555 1_555
H3 C2 1_555 1_555
C3 N1 1_555 1_555
C4 C3 1_555 1_555
N3 C4 1_555 1_555
H4 N3 1_555 1_555
C5 N3 1_555 1_555
N4 C5 1_555 1_555
H5 N4 1_555 1_555
C6 C4 1_555 1_555
H6 C6 1_555 1_555
C7 C1 1_555 1_555
H7 C7 1_555 1_555
H8 C7 1_555 1_555
H9 C7 1_555 1_555
C8 C5 1_555 1_555
H10 C8 1_555 1_555
H11 C8 1_555 1_555
H12 C8 1_555 1_555
O1 C9 1_555 1_555
O2 C9 1_555 1_555
C9 C10 1_555 1_555
C10 F1 1_555 1_555
F2 C10 1_555 1_555
F3 C10 1_555 1_555
O3 C11 1_555 1_555
O4 C11 1_555 1_555
C11 C12 1_555 1_555
C12 F4 1_555 1_555
F5 C12 1_555 1_555
F6 C12 1_555 1_555
C2 C3 1_555 1_555
N4 C6 1_555 1_555

#END
