
#######################################################################
#
#                 Cambridge Crystallographic Data Centre
#                                CCDC 
#
#######################################################################
#
# If this CIF has been generated from an entry in the Cambridge 
# Structural Database, then it will include bibliographic, chemical, 
# crystal, experimental, refinement or atomic coordinate data resulting 
# from the CCDC's data processing and validation procedures.
#
#######################################################################

data_OKERAX
_chemical_formula_moiety         'C29 H25 N1 O2'
_chemical_name_systematic        
'Methyl 2-(9-phenylfluoren-9-ylamino)-3-phenylpropanoate'
_symmetry_cell_setting           orthorhombic
_symmetry_space_group_name_H-M   'P 21 21 21'
_symmetry_Int_Tables_number      19
_space_group_name_Hall           'P 2ac 2ab'
loop_
_symmetry_equiv_pos_site_id
_symmetry_equiv_pos_as_xyz
1 x,y,z
2 1/2-x,-y,1/2+z
3 -x,1/2+y,1/2-z
4 1/2+x,1/2-y,-z
_cell_length_a                   7.9757(6)
_cell_length_b                   15.4702(12)
_cell_length_c                   18.4058(14)
_cell_angle_alpha                90
_cell_angle_beta                 90
_cell_angle_gamma                90
_cell_volume                     2271.01
_exptl_crystal_colour            colorless
_exptl_crystal_description       block
_cell_formula_units_Z            4
loop_
_atom_site_label
_atom_site_type_symbol
_atom_site_fract_x
_atom_site_fract_y
_atom_site_fract_z
O1 O -0.35578(16) -0.25293(7) -0.37426(6)
O2 O -0.39849(16) -0.39479(8) -0.36171(6)
N1 N -0.13385(15) -0.25901(7) -0.25474(6)
H1 H -0.1595 -0.2074 -0.2746
C1 C 0.03646(17) -0.28928(8) -0.27416(7)
C2 C 0.08907(17) -0.36360(8) -0.22382(8)
C3 C 0.0952(2) -0.36507(10) -0.14874(8)
H2 H 0.0664 -0.3147 -0.1209
C4 C 0.1441(2) -0.44123(11) -0.11451(9)
H3 H 0.1482 -0.4434 -0.0624
C5 C 0.1867(2) -0.51375(11) -0.15406(11)
H4 H 0.2219 -0.5653 -0.1293
C6 C 0.1789(2) -0.51260(10) -0.22882(10)
H5 H 0.2081 -0.5631 -0.2564
C7 C 0.12850(18) -0.43756(8) -0.26373(8)
C8 C 0.09915(19) -0.41988(9) -0.34087(8)
C9 C 0.1087(2) -0.47362(11) -0.40158(10)
H6 H 0.1408 -0.5331 -0.3964
C10 C 0.0719(3) -0.44045(12) -0.46860(10)
H7 H 0.0791 -0.4770 -0.5106
C11 C 0.0242(3) -0.35455(12) -0.47677(9)
H8 H 0.0004 -0.3322 -0.5243
C12 C 0.0109(2) -0.30109(11) -0.41662(8)
H9 H -0.0239 -0.2420 -0.4221
C13 C 0.04823(18) -0.33390(9) -0.34880(8)
C14 C 0.15253(18) -0.21067(8) -0.26671(7)
C15 C 0.1406(2) -0.15870(9) -0.20543(8)
H10 H 0.0595 -0.1722 -0.1686
C16 C 0.2441(2) -0.08765(10) -0.19671(9)
H11 H 0.2341 -0.0525 -0.1540
C17 C 0.3609(2) -0.06709(9) -0.24878(10)
H12 H 0.4326 -0.0178 -0.2427
C18 C 0.3738(2) -0.11792(10) -0.30951(10)
H13 H 0.4548 -0.1038 -0.3462
C19 C 0.2715(2) -0.18924(9) -0.31850(8)
H14 H 0.2831 -0.2244 -0.3612
C20 C -0.34903(19) -0.30394(10) -0.13081(8)
C21 C -0.3422(2) -0.38087(13) -0.09257(10)
H15 H -0.3832 -0.4331 -0.1144
C22 C -0.2761(3) -0.38286(16) -0.02268(11)
H16 H -0.2715 -0.4364 0.0035
C23 C -0.2177(3) -0.30863(18) 0.00881(11)
H17 H -0.1731 -0.3100 0.0572
C24 C -0.2229(3) -0.23333(17) -0.02832(12)
H18 H -0.1796 -0.1815 -0.0066
C25 C -0.2900(3) -0.23049(12) -0.09718(10)
H19 H -0.2957 -0.1762 -0.1223
C26 C -0.41098(19) -0.30167(11) -0.20800(8)
H20 H -0.4571 -0.2456 -0.2180
H21 H -0.4989 -0.3435 -0.2138
C27 C -0.26957(18) -0.32112(9) -0.26323(7)
H22 H -0.2269 -0.3782 -0.2544
C28 C -0.34387(19) -0.31789(10) -0.33916(8)
C29 C -0.4704(3) -0.39676(15) -0.43368(11)
H23 H -0.5050 -0.4546 -0.4450
H24 H -0.3883 -0.3780 -0.4684
H25 H -0.5658 -0.3589 -0.4355
loop_
_geom_bond_atom_site_label_1
_geom_bond_atom_site_label_2
_geom_bond_site_symmetry_1
_geom_bond_site_symmetry_2
O1 C28 1_555 1_555
O2 C28 1_555 1_555
N1 H1 1_555 1_555
C1 N1 1_555 1_555
C2 C1 1_555 1_555
C3 C2 1_555 1_555
H2 C3 1_555 1_555
C4 C3 1_555 1_555
H3 C4 1_555 1_555
C5 C4 1_555 1_555
H4 C5 1_555 1_555
C6 C5 1_555 1_555
H5 C6 1_555 1_555
C7 C2 1_555 1_555
C8 C7 1_555 1_555
C9 C8 1_555 1_555
H6 C9 1_555 1_555
C10 C9 1_555 1_555
H7 C10 1_555 1_555
C11 C10 1_555 1_555
H8 C11 1_555 1_555
C12 C11 1_555 1_555
H9 C12 1_555 1_555
C13 C1 1_555 1_555
C14 C1 1_555 1_555
C15 C14 1_555 1_555
H10 C15 1_555 1_555
C16 C15 1_555 1_555
H11 C16 1_555 1_555
C17 C16 1_555 1_555
H12 C17 1_555 1_555
C18 C17 1_555 1_555
H13 C18 1_555 1_555
C19 C14 1_555 1_555
H14 C19 1_555 1_555
C20 C21 1_555 1_555
C21 H15 1_555 1_555
C22 C21 1_555 1_555
H16 C22 1_555 1_555
C23 C22 1_555 1_555
H17 C23 1_555 1_555
C24 C23 1_555 1_555
H18 C24 1_555 1_555
C25 C20 1_555 1_555
H19 C25 1_555 1_555
C26 C20 1_555 1_555
H20 C26 1_555 1_555
H21 C26 1_555 1_555
C27 N1 1_555 1_555
H22 C27 1_555 1_555
C28 C27 1_555 1_555
C29 O2 1_555 1_555
H23 C29 1_555 1_555
H24 C29 1_555 1_555
H25 C29 1_555 1_555
C6 C7 1_555 1_555
C8 C13 1_555 1_555
C12 C13 1_555 1_555
C18 C19 1_555 1_555
C24 C25 1_555 1_555
C26 C27 1_555 1_555

#END
