
#######################################################################
#
#                 Cambridge Crystallographic Data Centre
#                                CCDC 
#
#######################################################################
#
# If this CIF has been generated from an entry in the Cambridge 
# Structural Database, then it will include bibliographic, chemical, 
# crystal, experimental, refinement or atomic coordinate data resulting 
# from the CCDC's data processing and validation procedures.
#
#######################################################################

data_OKESAY
_chemical_formula_moiety         'C8 H10 N4,2(H2 O1)'
_chemical_name_systematic        "2,2'-Dimethyl-4,4'-biimidazole dihydrate"
_symmetry_cell_setting           monoclinic
_symmetry_space_group_name_H-M   'C c'
_symmetry_Int_Tables_number      9
_space_group_name_Hall           'C -2yc'
loop_
_symmetry_equiv_pos_site_id
_symmetry_equiv_pos_as_xyz
1 x,y,z
2 x,-y,1/2+z
3 1/2+x,1/2+y,z
4 1/2+x,1/2-y,1/2+z
_cell_length_a                   7.291(3)
_cell_length_b                   12.269(7)
_cell_length_c                   11.525(6)
_cell_angle_alpha                90
_cell_angle_beta                 95.336(14)
_cell_angle_gamma                90
_cell_volume                     1026.48
_exptl_crystal_colour            colorless
_exptl_crystal_description       block
_cell_formula_units_Z            4
loop_
_atom_site_label
_atom_site_type_symbol
_atom_site_fract_x
_atom_site_fract_y
_atom_site_fract_z
N1 N -0.0817(7) 0.8120(3) 0.7862(3)
H1 H -0.150(9) 0.853(5) 0.764(5)
C1 C -0.1121(7) 0.7063(4) 0.7836(4)
N2 N 0.0279(6) 0.6504(3) 0.8364(3)
C2 C 0.1556(7) 0.7289(4) 0.8756(4)
C3 C 0.0905(8) 0.8304(4) 0.8455(4)
H2 H 0.1497 0.8984 0.8617
C4 C -0.2843(8) 0.6558(4) 0.7255(4)
H3 H -0.3051 0.6826 0.6453
H4 H -0.2697 0.5764 0.7248
H5 H -0.3899 0.6750 0.7682
N3 N 0.5805(6) 0.6141(3) 1.0091(3)
H6 H 0.678(9) 0.565(4) 1.014(5)
C5 C 0.6058(7) 0.7217(3) 1.0223(4)
N4 N 0.4581(7) 0.7776(3) 0.9783(4)
C6 C 0.3340(7) 0.6993(4) 0.9361(4)
C7 C 0.4078(7) 0.5992(4) 0.9542(4)
H7 H 0.3501 0.5318 0.9331
C8 C 0.7799(9) 0.7714(4) 1.0783(5)
H8 H 0.8861 0.7430 1.0417
H9 H 0.7739 0.8507 1.0685
H10 H 0.7930 0.7536 1.1616
O1 O 0.4200(5) 0.9984(3) 1.0074(3)
H11 H 0.431(9) 0.931(5) 1.001(5)
H12 H 0.460(9) 1.021(4) 0.950(5)
O2 O 0.1444(7) 0.4597(3) 0.7145(4)
H13 H 0.070(10) 0.461(5) 0.649(6)
H14 H 0.080(11) 0.500(6) 0.748(6)
loop_
_geom_bond_atom_site_label_1
_geom_bond_atom_site_label_2
_geom_bond_site_symmetry_1
_geom_bond_site_symmetry_2
N1 H1 1_555 1_555
C1 N1 1_555 1_555
N2 C1 1_555 1_555
C2 N2 1_555 1_555
C3 N1 1_555 1_555
H2 C3 1_555 1_555
C4 C1 1_555 1_555
H3 C4 1_555 1_555
H4 C4 1_555 1_555
H5 C4 1_555 1_555
N3 H6 1_555 1_555
C5 N3 1_555 1_555
N4 C5 1_555 1_555
C6 C2 1_555 1_555
C7 N3 1_555 1_555
H7 C7 1_555 1_555
C8 C5 1_555 1_555
H8 C8 1_555 1_555
H9 C8 1_555 1_555
H10 C8 1_555 1_555
O1 H11 1_555 1_555
H12 O1 1_555 1_555
O2 H13 1_555 1_555
H14 O2 1_555 1_555
C2 C3 1_555 1_555
N4 C6 1_555 1_555
C6 C7 1_555 1_555

#END
