
#######################################################################
#
#                 Cambridge Crystallographic Data Centre
#                                CCDC 
#
#######################################################################
#
# If this CIF has been generated from an entry in the Cambridge 
# Structural Database, then it will include bibliographic, chemical, 
# crystal, experimental, refinement or atomic coordinate data resulting 
# from the CCDC's data processing and validation procedures.
#
#######################################################################

data_OKESEE
_chemical_formula_moiety         'C20 H14 F4 N2 O2'
_chemical_name_systematic        
3-(fluoro(1-methyl-2-oxo-1,2-dihydro-3H-indol-3-ylidene)methyl)-1-methyl-3-(trifluoromethyl)-1,3-dihydro-2H-indol-2-one
_symmetry_cell_setting           triclinic
_symmetry_space_group_name_H-M   'P -1'
_symmetry_Int_Tables_number      2
_space_group_name_Hall           '-P 1'
loop_
_symmetry_equiv_pos_site_id
_symmetry_equiv_pos_as_xyz
1 x,y,z
2 -x,-y,-z
_cell_length_a                   11.228(2)
_cell_length_b                   12.460(3)
_cell_length_c                   12.943(3)
_cell_angle_alpha                77.35(3)
_cell_angle_beta                 89.67(3)
_cell_angle_gamma                86.39(3)
_cell_volume                     1763.22
_exptl_crystal_colour            colorless
_exptl_crystal_description       block
_cell_formula_units_Z            4
loop_
_atom_site_label
_atom_site_type_symbol
_atom_site_fract_x
_atom_site_fract_y
_atom_site_fract_z
F1 F 0.09501(9) 0.38676(9) 0.97798(9)
F2 F -0.01400(10) 0.25503(11) 0.88500(12)
F3 F 0.08376(13) 0.21662(13) 0.75394(12)
F4 F 0.06504(12) 0.38326(11) 0.77195(10)
O1 O 0.33157(14) 0.35452(13) 0.75424(11)
O2 O 0.45763(11) 0.24241(11) 0.97015(11)
N1 N 0.48560(12) 0.36105(12) 1.07859(11)
N2 N 0.35010(14) 0.16485(14) 0.81086(13)
C1 C 0.20930(18) 0.50058(17) 1.13016(15)
H1 H 0.1299 0.5027 1.1092
C2 C 0.2439(2) 0.56305(19) 1.20028(18)
H2 H 0.1868 0.6071 1.2268
C3 C 0.3606(2) 0.56089(19) 1.23103(17)
H3 H 0.3812 0.6041 1.2775
C4 C 0.44903(19) 0.49578(17) 1.19456(15)
H4 H 0.5282 0.4944 1.2157
C5 C 0.41423(15) 0.43344(14) 1.12575(13)
C6 C 0.41952(15) 0.31246(14) 1.01631(13)
C7 C 0.29373(14) 0.36042(13) 1.01906(13)
C8 C 0.29557(15) 0.43504(14) 1.09209(13)
C9 C 0.20292(14) 0.33685(13) 0.96437(13)
C10 C 0.19811(15) 0.25776(14) 0.89091(14)
C11 C 0.30336(16) 0.26919(16) 0.80954(14)
C12 C 0.30457(16) 0.08832(16) 0.89478(16)
C13 C 0.3401(2) -0.02179(19) 0.9296(2)
H5 H 0.4011 -0.0548 0.8961
C14 C 0.2822(2) -0.08132(19) 1.0157(2)
H6 H 0.3055 -0.1554 1.0410
C15 C 0.1901(2) -0.03349(19) 1.0655(2)
H7 H 0.1517 -0.0757 1.1227
C16 C 0.15490(18) 0.07775(17) 1.02981(17)
H8 H 0.0932 0.1107 1.0625
C17 C 0.21345(15) 0.13731(14) 0.94552(14)
C18 C 0.61240(16) 0.33726(18) 1.09583(16)
H9 H 0.6408 0.2853 1.0550
H10 H 0.6278 0.3066 1.1696
H11 H 0.6529 0.4040 1.0743
C19 C 0.4583(2) 0.1455(2) 0.7536(2)
H12 H 0.4713 0.2097 0.6993
H13 H 0.4502 0.0835 0.7220
H14 H 0.5250 0.1306 0.8018
C20 C 0.08229(17) 0.27957(17) 0.82476(17)
F5 F 0.18154(12) 0.67261(13) 0.44497(11)
F6 F 0.10765(12) 0.83574(14) 0.43583(11)
F7 F 0.26414(14) 0.80957(15) 0.34725(9)
F8 F 0.41511(11) 0.66008(12) 0.46737(10)
O3 O 0.44275(13) 0.86874(12) 0.69439(10)
O4 O 0.34303(16) 0.97663(14) 0.46278(13)
N3 N 0.63892(14) 0.80603(14) 0.68699(12)
N4 N 0.21290(15) 0.93915(14) 0.60209(13)
C21 C 0.6781(2) 0.6321(2) 0.50050(17)
H15 H 0.6290 0.6041 0.4565
C22 C 0.8007(2) 0.6076(2) 0.5031(2)
H16 H 0.8339 0.5630 0.4601
C23 C 0.8735(2) 0.6482(3) 0.5683(2)
H17 H 0.9552 0.6305 0.5688
C24 C 0.8275(2) 0.7154(2) 0.63352(19)
H18 H 0.8770 0.7430 0.6775
C25 C 0.70621(17) 0.73972(17) 0.63070(14)
C26 C 0.52176(17) 0.81618(15) 0.65849(13)
C27 C 0.51034(16) 0.74581(16) 0.57884(13)
C28 C 0.63061(16) 0.69910(16) 0.56489(14)
C29 C 0.40928(16) 0.73235(16) 0.53149(14)
C30 C 0.28609(16) 0.78707(16) 0.53483(14)
C31 C 0.28855(18) 0.91447(17) 0.52714(15)
C32 C 0.17679(16) 0.84478(16) 0.67052(14)
C33 C 0.11240(18) 0.8376(2) 0.76287(17)
H19 H 0.0863 0.9004 0.7863
C34 C 0.08826(19) 0.7341(2) 0.81885(18)
H20 H 0.0452 0.7274 0.8813
C35 C 0.12572(18) 0.6411(2) 0.78535(17)
H21 H 0.1070 0.5724 0.8246
C36 C 0.19210(17) 0.64819(17) 0.69250(16)
H22 H 0.2186 0.5851 0.6696
C37 C 0.21681(15) 0.75087(15) 0.63633(13)
C38 C 0.6884(2) 0.8670(2) 0.75793(17)
H23 H 0.6249 0.9059 0.7874
H24 H 0.7413 0.9189 0.7195
H25 H 0.7318 0.8169 0.8140
C39 C 0.1952(3) 1.05006(19) 0.6205(2)
H26 H 0.2280 1.1014 0.5627
H27 H 0.2345 1.0536 0.6852
H28 H 0.1113 1.0684 0.6257
C40 C 0.20997(19) 0.7756(2) 0.43970(16)
loop_
_geom_bond_atom_site_label_1
_geom_bond_atom_site_label_2
_geom_bond_site_symmetry_1
_geom_bond_site_symmetry_2
F1 C9 1_555 1_555
F2 C20 1_555 1_555
F3 C20 1_555 1_555
F4 C20 1_555 1_555
O1 C11 1_555 1_555
O2 C6 1_555 1_555
N1 C5 1_555 1_555
N2 C11 1_555 1_555
C1 H1 1_555 1_555
C2 C1 1_555 1_555
H2 C2 1_555 1_555
C3 C2 1_555 1_555
H3 C3 1_555 1_555
C4 C3 1_555 1_555
H4 C4 1_555 1_555
C5 C4 1_555 1_555
C6 N1 1_555 1_555
C7 C6 1_555 1_555
C8 C1 1_555 1_555
C9 C7 1_555 1_555
C10 C9 1_555 1_555
C11 C10 1_555 1_555
C12 N2 1_555 1_555
C13 C12 1_555 1_555
H5 C13 1_555 1_555
C14 C13 1_555 1_555
H6 C14 1_555 1_555
C15 C14 1_555 1_555
H7 C15 1_555 1_555
C16 C15 1_555 1_555
H8 C16 1_555 1_555
C17 C10 1_555 1_555
C18 N1 1_555 1_555
H9 C18 1_555 1_555
H10 C18 1_555 1_555
H11 C18 1_555 1_555
C19 N2 1_555 1_555
H12 C19 1_555 1_555
H13 C19 1_555 1_555
H14 C19 1_555 1_555
C20 C10 1_555 1_555
F5 C40 1_555 1_555
F6 C40 1_555 1_555
F7 C40 1_555 1_555
F8 C29 1_555 1_555
O3 C26 1_555 1_555
O4 C31 1_555 1_555
N3 C25 1_555 1_555
N4 C31 1_555 1_555
C21 H15 1_555 1_555
C22 C21 1_555 1_555
H16 C22 1_555 1_555
C23 C22 1_555 1_555
H17 C23 1_555 1_555
C24 C23 1_555 1_555
H18 C24 1_555 1_555
C25 C24 1_555 1_555
C26 N3 1_555 1_555
C27 C26 1_555 1_555
C28 C21 1_555 1_555
C29 C27 1_555 1_555
C30 C29 1_555 1_555
C31 C30 1_555 1_555
C32 N4 1_555 1_555
C33 C32 1_555 1_555
H19 C33 1_555 1_555
C34 C33 1_555 1_555
H20 C34 1_555 1_555
C35 C34 1_555 1_555
H21 C35 1_555 1_555
C36 C35 1_555 1_555
H22 C36 1_555 1_555
C37 C30 1_555 1_555
C38 N3 1_555 1_555
H23 C38 1_555 1_555
H24 C38 1_555 1_555
H25 C38 1_555 1_555
C39 N4 1_555 1_555
H26 C39 1_555 1_555
H27 C39 1_555 1_555
H28 C39 1_555 1_555
C40 C30 1_555 1_555
C5 C8 1_555 1_555
C7 C8 1_555 1_555
C12 C17 1_555 1_555
C16 C17 1_555 1_555
C25 C28 1_555 1_555
C27 C28 1_555 1_555
C32 C37 1_555 1_555
C36 C37 1_555 1_555

#END
