
#######################################################################
#
#                 Cambridge Crystallographic Data Centre
#                                CCDC 
#
#######################################################################
#
# If this CIF has been generated from an entry in the Cambridge 
# Structural Database, then it will include bibliographic, chemical, 
# crystal, experimental, refinement or atomic coordinate data resulting 
# from the CCDC's data processing and validation procedures.
#
#######################################################################

data_OKEWAC
_chemical_formula_moiety         'C30 H42 O5 S2'
_chemical_name_systematic        
16,22,23,29,30,31-Hexamethyl-2,5,8,11,14-pentaoxa-19,26-dithia-tricyclo[13.7.7.1^7,28^.1^21,24^]untriaconta-1(23),15,17(31),21,24(30),28-hexaene
_symmetry_cell_setting           triclinic
_symmetry_space_group_name_H-M   'P -1'
_symmetry_Int_Tables_number      2
_space_group_name_Hall           '-P 1'
loop_
_symmetry_equiv_pos_site_id
_symmetry_equiv_pos_as_xyz
1 x,y,z
2 -x,-y,-z
_cell_length_a                   10.1162(1)
_cell_length_b                   11.0901(1)
_cell_length_c                   13.6419(1)
_cell_angle_alpha                96.557(1)
_cell_angle_beta                 99.129(1)
_cell_angle_gamma                105.923(1)
_cell_volume                     1432.93
_exptl_crystal_colour            colorless
_exptl_crystal_description       'irregular hexagonal blocks'
_chemical_melting_point          221-223deg.C
_cell_formula_units_Z            2
loop_
_atom_site_label
_atom_site_type_symbol
_atom_site_fract_x
_atom_site_fract_y
_atom_site_fract_z
S1 S 0.32526(7) 0.55431(6) 0.41672(5)
S2 S 0.16616(5) 0.65238(5) -0.03357(3)
O1 O 0.73497(12) 0.74671(12) 0.14253(10)
O2 O 0.98344(19) 0.93032(17) 0.26432(19)
O3 O 1.03257(19) 1.19460(17) 0.34713(13)
O4 O 0.77126(14) 1.24954(13) 0.35533(11)
O5 O 0.55114(13) 1.05327(11) 0.22653(10)
C1 C 0.0990(2) 0.6517(2) 0.27830(19)
H1 H 0.1054 0.6561 0.3497
H2 H 0.0884 0.5662 0.2481
H3 H 0.0194 0.6767 0.2501
C2 C 0.23155(18) 0.74052(16) 0.25773(14)
C3 C 0.35378(19) 0.78630(17) 0.33283(13)
C4 C 0.46364(18) 0.89030(16) 0.32219(13)
C5 C 0.5986(2) 0.9456(2) 0.40031(15)
H4 H 0.6469 0.8826 0.4065
H5 H 0.5771 0.9710 0.4641
H6 H 0.6573 1.0182 0.3797
C6 C 0.44642(17) 0.94593(15) 0.23599(13)
C7 C 0.33310(18) 0.89372(16) 0.15576(13)
C8 C 0.3225(2) 0.95827(19) 0.06432(15)
H7 H 0.3246 0.9018 0.0061
H8 H 0.4001 1.0343 0.0745
H9 H 0.2362 0.9797 0.0543
C9 C 0.22797(17) 0.78561(16) 0.16570(13)
C10 C 0.2256(2) 0.3958(2) 0.17826(18)
H10 H 0.2365 0.3710 0.2435
H11 H 0.2164 0.3247 0.1276
H12 H 0.1433 0.4233 0.1664
C11 C 0.35357(18) 0.50416(16) 0.17384(14)
C12 C 0.46820(19) 0.54485(17) 0.25550(13)
C13 C 0.59670(18) 0.62576(17) 0.24534(13)
C14 C 0.7281(2) 0.6619(2) 0.32713(17)
H13 H 0.8014 0.7245 0.3080
H14 H 0.7573 0.5878 0.3359
H15 H 0.7085 0.6961 0.3892
C15 C 0.60554(17) 0.67100(16) 0.15433(13)
C16 C 0.49035(17) 0.64096(15) 0.07487(12)
C17 C 0.5068(2) 0.69288(18) -0.02116(14)
H16 H 0.4592 0.6270 -0.0777
H17 H 0.6046 0.7227 -0.0234
H18 H 0.4671 0.7620 -0.0236
C18 C 0.36227(17) 0.55807(15) 0.08610(13)
C19 C 0.3668(3) 0.7268(2) 0.42700(15)
H19 H 0.3071 0.7537 0.4684
H20 H 0.4626 0.7634 0.4639
C20 C 0.4524(2) 0.5053(2) 0.35726(16)
H21 H 0.5430 0.5391 0.4026
H22 H 0.4279 0.4133 0.3488
C21 C 0.11081(19) 0.7167(2) 0.07700(16)
H23 H 0.0594 0.7751 0.0573
H24 H 0.0466 0.6473 0.0987
C22 C 0.2344(2) 0.52443(17) 0.00198(15)
H25 H 0.1596 0.4616 0.0211
H26 H 0.2568 0.4839 -0.0574
C23 C 0.7528(2) 0.88059(17) 0.16914(17)
H27 H 0.7224 0.8961 0.2321
H28 H 0.6952 0.9077 0.1175
C24 C 0.9021(2) 0.9552(2) 0.1798(2)
H29 H 0.9358 0.9324 0.1197
H30 H 0.9106 1.0452 0.1875
C25 C 1.1164(3) 1.0218(3) 0.3010(3)
H31 H 1.1472 1.0632 0.2462
H32 H 1.1838 0.9788 0.3248
C26 C 1.1143(3) 1.1199(3) 0.3841(2)
H33 H 1.0757 1.0790 0.4368
H34 H 1.2092 1.1733 0.4127
C27 C 1.0109(2) 1.2820(2) 0.42251(19)
H35 H 1.0982 1.3477 0.4522
H36 H 0.9758 1.2388 0.4753
C28 C 0.9056(2) 1.3391(2) 0.3721(2)
H37 H 0.9074 1.4162 0.4145
H38 H 0.9281 1.3608 0.3086
C29 C 0.6714(2) 1.27282(17) 0.28153(16)
H39 H 0.7027 1.2725 0.2179
H40 H 0.6595 1.3554 0.3015
C30 C 0.5353(2) 1.17064(16) 0.27035(16)
H41 H 0.5103 1.1634 0.3357
H42 H 0.4613 1.1913 0.2275
S3? S 0.4829(5) 0.6442(4) 0.4520(2)
loop_
_geom_bond_atom_site_label_1
_geom_bond_atom_site_label_2
_geom_bond_site_symmetry_1
_geom_bond_site_symmetry_2
S1 C19 1_555 1_555
S2 C21 1_555 1_555
O1 C15 1_555 1_555
O2 C24 1_555 1_555
O3 C26 1_555 1_555
O4 C28 1_555 1_555
O5 C6 1_555 1_555
C1 H1 1_555 1_555
H2 C1 1_555 1_555
H3 C1 1_555 1_555
C2 C1 1_555 1_555
C3 C2 1_555 1_555
C4 C3 1_555 1_555
C5 C4 1_555 1_555
H4 C5 1_555 1_555
H5 C5 1_555 1_555
H6 C5 1_555 1_555
C6 C4 1_555 1_555
C7 C6 1_555 1_555
C8 C7 1_555 1_555
H7 C8 1_555 1_555
H8 C8 1_555 1_555
H9 C8 1_555 1_555
C9 C2 1_555 1_555
C10 H10 1_555 1_555
H11 C10 1_555 1_555
H12 C10 1_555 1_555
C11 C10 1_555 1_555
C12 C11 1_555 1_555
C13 C12 1_555 1_555
C14 C13 1_555 1_555
H13 C14 1_555 1_555
H14 C14 1_555 1_555
H15 C14 1_555 1_555
C15 C13 1_555 1_555
C16 C15 1_555 1_555
C17 C16 1_555 1_555
H16 C17 1_555 1_555
H17 C17 1_555 1_555
H18 C17 1_555 1_555
C18 C11 1_555 1_555
C19 C3 1_555 1_555
H19 C19 1_555 1_555
H20 C19 1_555 1_555
C20 S1 1_555 1_555
H21 C20 1_555 1_555
H22 C20 1_555 1_555
C21 C9 1_555 1_555
H23 C21 1_555 1_555
H24 C21 1_555 1_555
C22 S2 1_555 1_555
H25 C22 1_555 1_555
H26 C22 1_555 1_555
C23 O1 1_555 1_555
H27 C23 1_555 1_555
H28 C23 1_555 1_555
C24 C23 1_555 1_555
H29 C24 1_555 1_555
H30 C24 1_555 1_555
C25 O2 1_555 1_555
H31 C25 1_555 1_555
H32 C25 1_555 1_555
C26 C25 1_555 1_555
H33 C26 1_555 1_555
H34 C26 1_555 1_555
C27 O3 1_555 1_555
H35 C27 1_555 1_555
H36 C27 1_555 1_555
C28 C27 1_555 1_555
H37 C28 1_555 1_555
H38 C28 1_555 1_555
C29 O4 1_555 1_555
H39 C29 1_555 1_555
H40 C29 1_555 1_555
C30 O5 1_555 1_555
H41 C30 1_555 1_555
H42 C30 1_555 1_555
C7 C9 1_555 1_555
C12 C20 1_555 1_555
C16 C18 1_555 1_555
C18 C22 1_555 1_555
C29 C30 1_555 1_555

#END
