
#######################################################################
#
#                 Cambridge Crystallographic Data Centre
#                                CCDC 
#
#######################################################################
#
# If this CIF has been generated from an entry in the Cambridge 
# Structural Database, then it will include bibliographic, chemical, 
# crystal, experimental, refinement or atomic coordinate data resulting 
# from the CCDC's data processing and validation procedures.
#
#######################################################################

data_OKEYAG
_chemical_formula_moiety         'C46 H36 N2'
_chemical_name_systematic        
8,8'-dimethyl-2,2'-bis(4-methylphenyl)-4,4'-diphenyl-6,6'-biquinoline
_symmetry_cell_setting           monoclinic
_symmetry_space_group_name_H-M   'P 21/c'
_symmetry_Int_Tables_number      14
_space_group_name_Hall           '-P 2ybc'
loop_
_symmetry_equiv_pos_site_id
_symmetry_equiv_pos_as_xyz
1 x,y,z
2 -x,1/2+y,1/2-z
3 -x,-y,-z
4 x,1/2-y,1/2+z
_cell_length_a                   19.825(3)
_cell_length_b                   7.4082(10)
_cell_length_c                   22.347(3)
_cell_angle_alpha                90
_cell_angle_beta                 95.552(2)
_cell_angle_gamma                90
_cell_volume                     3266.65
_exptl_crystal_colour            colorless
_exptl_crystal_description       prism
_cell_formula_units_Z            4
loop_
_atom_site_label
_atom_site_type_symbol
_atom_site_fract_x
_atom_site_fract_y
_atom_site_fract_z
N1 N -0.13119(8) 0.3376(2) 0.34610(7)
N2 N 0.31392(8) 0.2669(2) 0.18306(7)
C1 C 0.05770(10) 0.3111(3) 0.27635(9)
C2 C 0.05091(10) 0.3508(3) 0.33764(9)
H1 H 0.0908 0.3718 0.3638
C3 C -0.01044(10) 0.3600(3) 0.36071(9)
C4 C -0.07100(10) 0.3324(3) 0.32148(9)
C5 C -0.18774(10) 0.3160(3) 0.31026(9)
C6 C -0.18723(10) 0.2952(3) 0.24739(9)
H2 H -0.2291 0.2856 0.2230
C7 C -0.12790(10) 0.2884(3) 0.22089(9)
C8 C -0.06563(10) 0.3014(3) 0.25912(9)
C9 C -0.00072(10) 0.2853(3) 0.23862(9)
H3 H 0.0028 0.2559 0.1977
C10 C -0.01484(11) 0.4011(4) 0.42605(9)
H4 H 0.0297 0.4394 0.4445
H5 H -0.0293 0.2928 0.4465
H6 H -0.0478 0.4981 0.4298
C11 C -0.25229(10) 0.3195(3) 0.33894(9)
C12 C -0.31293(10) 0.2542(3) 0.30998(9)
H7 H -0.3136 0.2081 0.2703
C13 C -0.37201(10) 0.2557(3) 0.33821(9)
H8 H -0.4127 0.2113 0.3174
C14 C -0.37296(10) 0.3212(3) 0.39651(9)
C15 C -0.31262(10) 0.3864(3) 0.42533(9)
H9 H -0.3120 0.4320 0.4651
C16 C -0.25359(10) 0.3862(3) 0.39721(9)
H10 H -0.2131 0.4323 0.4179
C17 C -0.43779(10) 0.3239(3) 0.42683(10)
H11 H -0.4273 0.3057 0.4702
H12 H -0.4678 0.2270 0.4104
H13 H -0.4604 0.4406 0.4196
C18 C -0.12971(10) 0.2762(3) 0.15426(9)
C19 C -0.08993(10) 0.3886(3) 0.12168(9)
H14 H -0.0593 0.4713 0.1424
C20 C -0.09479(11) 0.3805(3) 0.05923(10)
H15 H -0.0679 0.4587 0.0376
C21 C -0.13833(11) 0.2598(3) 0.02862(10)
H16 H -0.1408 0.2527 -0.0140
C22 C -0.17849(11) 0.1487(3) 0.06023(10)
H17 H -0.2088 0.0660 0.0392
C23 C -0.17480(10) 0.1575(3) 0.12260(9)
H18 H -0.2031 0.0823 0.1438
C24 C 0.12570(10) 0.3004(3) 0.25374(9)
C25 C 0.13365(10) 0.3367(3) 0.19247(9)
H19 H 0.0948 0.3686 0.1664
C26 C 0.19490(10) 0.3275(3) 0.16947(9)
C27 C 0.25375(10) 0.2772(3) 0.20815(9)
C28 C 0.36797(10) 0.2152(3) 0.21767(9)
C29 C 0.36631(10) 0.1772(3) 0.27966(9)
H20 H 0.4065 0.1377 0.3025
C30 C 0.30793(10) 0.1962(3) 0.30738(9)
C31 C 0.24730(9) 0.2431(3) 0.27026(9)
C32 C 0.18254(9) 0.2587(3) 0.29169(9)
H21 H 0.1782 0.2400 0.3332
C33 C 0.20166(10) 0.3722(3) 0.10471(9)
H22 H 0.1571 0.4039 0.0846
H23 H 0.2196 0.2673 0.0848
H24 H 0.2326 0.4745 0.1025
C34 C 0.43381(10) 0.2102(3) 0.19077(9)
C35 C 0.48728(10) 0.1011(3) 0.21426(9)
H25 H 0.4812 0.0226 0.2469
C36 C 0.54912(10) 0.1060(3) 0.19048(9)
H26 H 0.5848 0.0305 0.2073
C37 C 0.56042(10) 0.2186(3) 0.14268(10)
C38 C 0.50669(10) 0.3249(3) 0.11879(9)
H27 H 0.5127 0.4018 0.0857
C39 C 0.44462(10) 0.3213(3) 0.14212(9)
H28 H 0.4088 0.3954 0.1248
C40 C 0.62853(11) 0.2270(3) 0.11816(12)
H29 H 0.6238 0.2868 0.0789
H30 H 0.6458 0.1043 0.1137
H31 H 0.6602 0.2953 0.1459
C41 C 0.31245(10) 0.1788(3) 0.37412(8)
C42 C 0.26608(10) 0.0851(3) 0.40530(9)
H32 H 0.2281 0.0290 0.3837
C43 C 0.27456(11) 0.0726(3) 0.46771(9)
H33 H 0.2422 0.0088 0.4882
C44 C 0.32951(11) 0.1519(3) 0.50008(10)
H34 H 0.3344 0.1452 0.5427
C45 C 0.37719(11) 0.2408(3) 0.47013(9)
H35 H 0.4159 0.2924 0.4920
C46 C 0.36857(10) 0.2550(3) 0.40791(9)
H36 H 0.4015 0.3178 0.3878
loop_
_geom_bond_atom_site_label_1
_geom_bond_atom_site_label_2
_geom_bond_site_symmetry_1
_geom_bond_site_symmetry_2
N1 C4 1_555 1_555
N2 C27 1_555 1_555
C1 C2 1_555 1_555
C2 H1 1_555 1_555
C3 C2 1_555 1_555
C4 C3 1_555 1_555
C5 N1 1_555 1_555
C6 C5 1_555 1_555
H2 C6 1_555 1_555
C7 C6 1_555 1_555
C8 C4 1_555 1_555
C9 C1 1_555 1_555
H3 C9 1_555 1_555
C10 C3 1_555 1_555
H4 C10 1_555 1_555
H5 C10 1_555 1_555
H6 C10 1_555 1_555
C11 C5 1_555 1_555
C12 C11 1_555 1_555
H7 C12 1_555 1_555
C13 C12 1_555 1_555
H8 C13 1_555 1_555
C14 C13 1_555 1_555
C15 C14 1_555 1_555
H9 C15 1_555 1_555
C16 C11 1_555 1_555
H10 C16 1_555 1_555
C17 C14 1_555 1_555
H11 C17 1_555 1_555
H12 C17 1_555 1_555
H13 C17 1_555 1_555
C18 C7 1_555 1_555
C19 C18 1_555 1_555
H14 C19 1_555 1_555
C20 C19 1_555 1_555
H15 C20 1_555 1_555
C21 C20 1_555 1_555
H16 C21 1_555 1_555
C22 C21 1_555 1_555
H17 C22 1_555 1_555
C23 C18 1_555 1_555
H18 C23 1_555 1_555
C24 C1 1_555 1_555
C25 C24 1_555 1_555
H19 C25 1_555 1_555
C26 C25 1_555 1_555
C27 C26 1_555 1_555
C28 N2 1_555 1_555
C29 C28 1_555 1_555
H20 C29 1_555 1_555
C30 C29 1_555 1_555
C31 C27 1_555 1_555
C32 C24 1_555 1_555
H21 C32 1_555 1_555
C33 C26 1_555 1_555
H22 C33 1_555 1_555
H23 C33 1_555 1_555
H24 C33 1_555 1_555
C34 C28 1_555 1_555
C35 C34 1_555 1_555
H25 C35 1_555 1_555
C36 C35 1_555 1_555
H26 C36 1_555 1_555
C37 C36 1_555 1_555
C38 C37 1_555 1_555
H27 C38 1_555 1_555
C39 C34 1_555 1_555
H28 C39 1_555 1_555
C40 C37 1_555 1_555
H29 C40 1_555 1_555
H30 C40 1_555 1_555
H31 C40 1_555 1_555
C41 C30 1_555 1_555
C42 C41 1_555 1_555
H32 C42 1_555 1_555
C43 C42 1_555 1_555
H33 C43 1_555 1_555
C44 C43 1_555 1_555
H34 C44 1_555 1_555
C45 C44 1_555 1_555
H35 C45 1_555 1_555
C46 C41 1_555 1_555
H36 C46 1_555 1_555
C7 C8 1_555 1_555
C8 C9 1_555 1_555
C15 C16 1_555 1_555
C22 C23 1_555 1_555
C30 C31 1_555 1_555
C31 C32 1_555 1_555
C38 C39 1_555 1_555
C45 C46 1_555 1_555

#END
