
#######################################################################
#
#                 Cambridge Crystallographic Data Centre
#                                CCDC 
#
#######################################################################
#
# If this CIF has been generated from an entry in the Cambridge 
# Structural Database, then it will include bibliographic, chemical, 
# crystal, experimental, refinement or atomic coordinate data resulting 
# from the CCDC's data processing and validation procedures.
#
#######################################################################

data_OKEZEJ
_chemical_formula_moiety         'C16 H20 N1 O7 P1'
_chemical_name_systematic        
'(+-)-(rel-1R,2R,5S)-3-Acetyl-1,2,3,4,5,6-hexahydro-8-O-phosphoryl-1,5-methano-3-benzazocine-2-carboxylic acid methyl ester'
_symmetry_cell_setting           monoclinic
_symmetry_space_group_name_H-M   'P 21/c'
_symmetry_Int_Tables_number      14
_space_group_name_Hall           '-P 2ybc'
loop_
_symmetry_equiv_pos_site_id
_symmetry_equiv_pos_as_xyz
1 x,y,z
2 x,1/2-y,1/2+z
3 -x,-y,-z
4 -x,1/2+y,1/2-z
_cell_length_a                   7.614(1)
_cell_length_b                   23.416(1)
_cell_length_c                   9.785(1)
_cell_angle_alpha                90
_cell_angle_beta                 98.122(1)
_cell_angle_gamma                90
_cell_volume                     1727.06
_exptl_crystal_colour            colorless
_exptl_crystal_description       plate
_cell_formula_units_Z            4
loop_
_atom_site_label
_atom_site_type_symbol
_atom_site_fract_x
_atom_site_fract_y
_atom_site_fract_z
P1 P 0.03421(18) 0.57645(5) 0.90159(13)
O1 O -0.1273(4) 0.54036(14) 0.8784(3)
O2 O 0.1653(5) 0.55748(14) 1.0222(3)
H1 H 0.144(7) 0.5235(10) 1.049(6)
O3 O -0.0022(5) 0.63968(14) 0.9102(4)
H2 H -0.075(6) 0.654(2) 0.961(5)
O4 O 0.1337(4) 0.57768(12) 0.7703(3)
C1 C 0.4843(5) 0.38411(18) 0.5873(4)
H3 H 0.5951 0.3956 0.5549
C2 C 0.3895(6) 0.43678(18) 0.6277(4)
C3 C 0.4829(6) 0.4835(2) 0.6828(5)
H4 H 0.6057 0.4837 0.6876
C4 C 0.4003(7) 0.5300(2) 0.7309(5)
H5 H 0.4655 0.5615 0.7670
C5 C 0.2189(7) 0.52884(19) 0.7244(4)
C6 C 0.1204(6) 0.4837(2) 0.6672(5)
H6 H -0.0026 0.4846 0.6605
C7 C 0.2042(6) 0.43621(19) 0.6186(4)
C8 C 0.0947(6) 0.3869(2) 0.5560(6)
H7 H 0.0261 0.3996 0.4703
H8 H 0.0116 0.3762 0.6180
C9 C 0.2016(6) 0.33336(19) 0.5258(5)
H9 H 0.1304 0.3111 0.4533
C10 C 0.2450(5) 0.29601(19) 0.6520(4)
H10 H 0.1362 0.2855 0.6866
H11 H 0.3018 0.2612 0.6269
N1 N 0.3629(4) 0.32575(14) 0.7606(3)
C11 C 0.5292(5) 0.34670(18) 0.7191(4)
H12 H 0.5856 0.3716 0.7931
C12 C 0.3728(6) 0.3513(2) 0.4742(5)
H13 H 0.4368 0.3178 0.4499
H14 H 0.3463 0.3750 0.3926
O5 O 0.1632(4) 0.31971(14) 0.9070(3)
C13 C 0.3114(6) 0.33677(19) 0.8832(4)
C14 C 0.4310(7) 0.3679(3) 0.9899(5)
H15 H 0.3754 0.3716 1.0716
H16 H 0.4553 0.4051 0.9560
H17 H 0.5401 0.3471 1.0115
O6 O 0.7632(4) 0.30038(16) 0.6243(4)
C15 C 0.6558(5) 0.2988(2) 0.7033(5)
O7 O 0.6432(4) 0.25632(14) 0.7886(3)
C16 C 0.7711(7) 0.2109(2) 0.7910(6)
H18 H 0.7488 0.1828 0.8578
H19 H 0.8884 0.2261 0.8153
H20 H 0.7614 0.1936 0.7013
loop_
_geom_bond_atom_site_label_1
_geom_bond_atom_site_label_2
_geom_bond_site_symmetry_1
_geom_bond_site_symmetry_2
P1 O1 1_555 1_555
O2 P1 1_555 1_555
H1 O2 1_555 1_555
O3 P1 1_555 1_555
H2 O3 1_555 1_555
O4 P1 1_555 1_555
C1 H3 1_555 1_555
C2 C1 1_555 1_555
C3 C2 1_555 1_555
H4 C3 1_555 1_555
C4 C3 1_555 1_555
H5 C4 1_555 1_555
C5 O4 1_555 1_555
C6 C5 1_555 1_555
H6 C6 1_555 1_555
C7 C2 1_555 1_555
C8 C7 1_555 1_555
H7 C8 1_555 1_555
H8 C8 1_555 1_555
C9 C8 1_555 1_555
H9 C9 1_555 1_555
C10 C9 1_555 1_555
H10 C10 1_555 1_555
H11 C10 1_555 1_555
N1 C10 1_555 1_555
C11 C1 1_555 1_555
H12 C11 1_555 1_555
C12 C1 1_555 1_555
H13 C12 1_555 1_555
H14 C12 1_555 1_555
O5 C13 1_555 1_555
C13 N1 1_555 1_555
C14 C13 1_555 1_555
H15 C14 1_555 1_555
H16 C14 1_555 1_555
H17 C14 1_555 1_555
O6 C15 1_555 1_555
C15 C11 1_555 1_555
O7 C15 1_555 1_555
C16 O7 1_555 1_555
H18 C16 1_555 1_555
H19 C16 1_555 1_555
H20 C16 1_555 1_555
C4 C5 1_555 1_555
C6 C7 1_555 1_555
C9 C12 1_555 1_555
N1 C11 1_555 1_555

#END
