
#######################################################################
#
#                 Cambridge Crystallographic Data Centre
#                                CCDC 
#
#######################################################################
#
# If this CIF has been generated from an entry in the Cambridge 
# Structural Database, then it will include bibliographic, chemical, 
# crystal, experimental, refinement or atomic coordinate data resulting 
# from the CCDC's data processing and validation procedures.
#
#######################################################################

data_OKIDET02
_chemical_formula_moiety         'C26 H20'
_chemical_name_systematic        
1,1',1'',1'''-(ethene-1,1,2,2-tetrayl)tetrabenzene
_symmetry_cell_setting           monoclinic
_symmetry_space_group_name_H-M   'P 21'
_symmetry_Int_Tables_number      4
_space_group_name_Hall           'P 2yb'
loop_
_symmetry_equiv_pos_site_id
_symmetry_equiv_pos_as_xyz
1 x,y,z
2 -x,1/2+y,-z
_cell_length_a                   9.8250(2)
_cell_length_b                   9.4992(2)
_cell_length_c                   10.7097(2)
_cell_angle_alpha                90
_cell_angle_beta                 107.106(2)
_cell_angle_gamma                90
_cell_volume                     955.315
_exptl_crystal_colour            colorless
_exptl_crystal_description       rod-like
_cell_formula_units_Z            2
loop_
_atom_site_label
_atom_site_type_symbol
_atom_site_fract_x
_atom_site_fract_y
_atom_site_fract_z
C1 C 0.4880(3) 0.5644(4) 0.2237(3)
C2 C 0.3866(3) 0.5323(3) 0.3000(3)
C3 C 0.2494(3) 0.4974(3) 0.2409(3)
C4 C 0.5634(4) 0.6895(4) 0.2420(3)
H1 H 0.552211 0.753755 0.303802
C5 C 0.1828(3) 0.5105(4) 0.0969(3)
C6 C 0.1543(3) 0.4406(3) 0.3151(3)
C7 C 0.1990(4) 0.3316(4) 0.4040(4)
H2 H 0.289577 0.293653 0.418920
C8 C 0.5098(4) 0.4680(4) 0.1337(3)
H3 H 0.461487 0.382550 0.121358
C9 C 0.4514(4) 0.5391(4) 0.4448(3)
C10 C 0.0983(4) 0.4035(4) 0.0270(4)
H4 H 0.082144 0.323527 0.070671
C11 C -0.0721(4) 0.4411(5) 0.3609(4)
H5 H -0.163158 0.477950 0.346200
C12 C 0.6555(4) 0.7203(5) 0.1692(4)
H6 H 0.703845 0.805727 0.180873
C13 C 0.2009(4) 0.6309(5) 0.0285(4)
H7 H 0.254627 0.705480 0.073775
C14 C 0.0170(3) 0.4931(4) 0.2940(3)
H8 H -0.015088 0.564859 0.233326
C15 C 0.6753(4) 0.6253(6) 0.0804(4)
H9 H 0.737356 0.645979 0.032028
C16 C 0.5851(5) 0.4807(6) 0.5013(4)
H10 H 0.632082 0.436563 0.448292
C17 C -0.0254(5) 0.3348(6) 0.4493(4)
H11 H -0.084749 0.299624 0.495400
C18 C 0.0593(5) 0.5316(6) -0.1727(4)
H12 H 0.019359 0.537516 -0.262791
C19 C 0.6033(4) 0.4985(5) 0.0625(4)
H13 H 0.617519 0.433587 0.002515
C20 C 0.1088(5) 0.2798(5) 0.4702(4)
H14 H 0.139180 0.206724 0.529750
C21 C 0.3841(6) 0.6055(6) 0.5248(4)
H15 H 0.294958 0.646386 0.489813
C22 C 0.1408(5) 0.6413(6) -0.1049(4)
H16 H 0.154949 0.721781 -0.148975
C23 C 0.0377(4) 0.4134(5) -0.1064(4)
H17 H -0.018046 0.340021 -0.151747
C24 C 0.4525(7) 0.6107(7) 0.6608(5)
H18 H 0.408157 0.654041 0.716318
C25 C 0.6496(5) 0.4870(6) 0.6343(4)
H19 H 0.738555 0.446713 0.671856
C26 C 0.5791(7) 0.5537(7) 0.7082(6)
H20 H 0.622800 0.559574 0.797786
loop_
_geom_bond_atom_site_label_1
_geom_bond_atom_site_label_2
_geom_bond_site_symmetry_1
_geom_bond_site_symmetry_2
C1 C2 1_555 1_555
C2 C3 1_555 1_555
C3 C5 1_555 1_555
C4 C1 1_555 1_555
H1 C4 1_555 1_555
C5 C10 1_555 1_555
C6 C3 1_555 1_555
C7 C6 1_555 1_555
H2 C7 1_555 1_555
C8 C1 1_555 1_555
H3 C8 1_555 1_555
C9 C2 1_555 1_555
C10 H4 1_555 1_555
C11 H5 1_555 1_555
C12 C4 1_555 1_555
H6 C12 1_555 1_555
C13 C5 1_555 1_555
H7 C13 1_555 1_555
C14 C6 1_555 1_555
H8 C14 1_555 1_555
C15 C12 1_555 1_555
H9 C15 1_555 1_555
C16 C9 1_555 1_555
H10 C16 1_555 1_555
C17 C11 1_555 1_555
H11 C17 1_555 1_555
C18 H12 1_555 1_555
C19 C8 1_555 1_555
H13 C19 1_555 1_555
C20 C7 1_555 1_555
H14 C20 1_555 1_555
C21 C9 1_555 1_555
H15 C21 1_555 1_555
C22 C13 1_555 1_555
H16 C22 1_555 1_555
C23 C10 1_555 1_555
H17 C23 1_555 1_555
C24 C21 1_555 1_555
H18 C24 1_555 1_555
C25 C16 1_555 1_555
H19 C25 1_555 1_555
C26 C24 1_555 1_555
H20 C26 1_555 1_555
C11 C14 1_555 1_555
C15 C19 1_555 1_555
C17 C20 1_555 1_555
C18 C22 1_555 1_555
C18 C23 1_555 1_555
C25 C26 1_555 1_555

#END
