
#######################################################################
#
#                 Cambridge Crystallographic Data Centre
#                                CCDC 
#
#######################################################################
#
# If this CIF has been generated from an entry in the Cambridge 
# Structural Database, then it will include bibliographic, chemical, 
# crystal, experimental, refinement or atomic coordinate data resulting 
# from the CCDC's data processing and validation procedures.
#
#######################################################################

data_OKIFET
_chemical_formula_moiety         'C18 H24 O1 S1'
_chemical_name_systematic        
(1R,2R,4R,4'R)-4'-Phenyl-1,7,7-trimethylspiro(bicyclo(2.2.1)heptane-2,2'-(1,3)oxathiolane)
_symmetry_cell_setting           orthorhombic
_symmetry_space_group_name_H-M   'P 21 21 21'
_symmetry_Int_Tables_number      19
_space_group_name_Hall           'P 2ac 2ab'
loop_
_symmetry_equiv_pos_site_id
_symmetry_equiv_pos_as_xyz
1 x,y,z
2 1/2-x,-y,1/2+z
3 1/2+x,1/2-y,-z
4 -x,1/2+y,1/2-z
_cell_length_a                   11.1418(1)
_cell_length_b                   15.8380(2)
_cell_length_c                   27.0675(3)
_cell_angle_alpha                90
_cell_angle_beta                 90
_cell_angle_gamma                90
_cell_volume                     4776.43
_exptl_crystal_colour            colorless
_exptl_crystal_description       prism
_chemical_melting_point          '317 K'
_cell_formula_units_Z            12
_exptl_crystal_recrystallization_method ethanol
loop_
_atom_site_label
_atom_site_type_symbol
_atom_site_fract_x
_atom_site_fract_y
_atom_site_fract_z
S1 S 0.75209(5) 0.09127(3) 0.42440(2)
O1 O 0.89654(12) 0.18070(9) 0.37011(6)
C1 C 0.87941(18) 0.09322(14) 0.37926(8)
C2 C 0.71397(18) 0.20194(13) 0.41371(9)
H1 H 0.7480 0.2366 0.4412
C3 C 0.78297(19) 0.22159(14) 0.36663(9)
H2 H 0.7384 0.2006 0.3375
H3 H 0.7939 0.2833 0.3631
C4 C 0.9983(2) 0.05448(13) 0.39843(8)
C5 C 0.85302(19) 0.04216(15) 0.33210(9)
H4 H 0.7760 0.0114 0.3349
H5 H 0.8501 0.0793 0.3027
C6 C 0.9593(2) -0.01942(16) 0.32903(9)
H6 H 0.9446 -0.0701 0.3078
C7 C 1.0681(2) 0.03242(19) 0.31432(10)
H7 H 1.0495 0.0701 0.2862
H8 H 1.1365 -0.0044 0.3054
C8 C 1.09544(19) 0.08394(16) 0.36180(9)
H9 H 1.1768 0.0712 0.3744
H10 H 1.0891 0.1453 0.3555
C9 C 0.9844(2) -0.03964(14) 0.38352(9)
C10 C 1.0291(2) 0.07474(16) 0.45124(9)
H11 H 1.1100 0.0540 0.4587
H12 H 0.9711 0.0474 0.4733
H13 H 1.0263 0.1360 0.4562
C11 C 0.8817(2) -0.08730(15) 0.40876(10)
H14 H 0.8051 -0.0606 0.4003
H15 H 0.8931 -0.0857 0.4447
H16 H 0.8813 -0.1461 0.3975
C12 C 1.0984(2) -0.09173(16) 0.39229(11)
H17 H 1.0910 -0.1463 0.3755
H18 H 1.1092 -0.1009 0.4278
H19 H 1.1679 -0.0612 0.3791
C13 C 0.5812(2) 0.21806(13) 0.41063(9)
C14 C 0.51045(19) 0.18235(13) 0.37358(8)
H20 H 0.5461 0.1452 0.3502
C15 C 0.3892(2) 0.20023(14) 0.37038(9)
H21 H 0.3420 0.1752 0.3451
C16 C 0.3366(2) 0.25452(15) 0.40408(10)
H22 H 0.2535 0.2672 0.4018
C17 C 0.4052(2) 0.29009(15) 0.44093(10)
H23 H 0.3691 0.3270 0.4643
C18 C 0.5271(2) 0.27216(13) 0.44408(9)
H24 H 0.5739 0.2973 0.4695
S2 S 0.01568(6) 0.16404(4) 0.10967(2)
O2 O -0.09147(13) 0.02627(9) 0.13831(5)
C19 C -0.0018(2) 0.04710(12) 0.10266(8)
C20 C -0.0711(2) 0.16743(15) 0.16649(8)
H25 H -0.1549 0.1852 0.1584
C21 C -0.0725(2) 0.07462(14) 0.18181(8)
H26 H 0.0048 0.0590 0.1973
H27 H -0.1378 0.0642 0.2059
C22 C -0.04143(18) 0.01667(13) 0.05071(8)
C23 C 0.11653(19) -0.00183(15) 0.11184(8)
H28 H 0.1856 0.0372 0.1148
H29 H 0.1113 -0.0367 0.1421
C24 C 0.12734(19) -0.05714(14) 0.06563(9)
H30 H 0.2100 -0.0796 0.0596
C25 C 0.0301(2) -0.12535(13) 0.06832(9)
H31 H 0.0275 -0.1519 0.1014
H32 H 0.0431 -0.1696 0.0431
C26 C -0.08591(19) -0.07474(13) 0.05780(9)
H33 H -0.1263 -0.0957 0.0276
H34 H -0.1424 -0.0786 0.0859
C27 C 0.08129(19) 0.00217(14) 0.02492(8)
C28 C -0.1331(2) 0.07200(15) 0.02477(9)
H35 H -0.1550 0.0464 -0.0069
H36 H -0.0987 0.1281 0.0190
H37 H -0.2049 0.0772 0.0455
C29 C 0.0709(2) -0.04050(15) -0.02620(9)
H38 H 0.1509 -0.0569 -0.0378
H39 H 0.0350 -0.0009 -0.0498
H40 H 0.0201 -0.0908 -0.0235
C30 C 0.1584(2) 0.08121(15) 0.01716(9)
H41 H 0.1710 0.1095 0.0490
H42 H 0.1173 0.1198 -0.0055
H43 H 0.2361 0.0649 0.0031
C31 C -0.0226(2) 0.22476(13) 0.20596(8)
C32 C 0.0982(2) 0.22605(14) 0.21820(9)
H44 H 0.1532 0.1924 0.2000
C33 C 0.1398(2) 0.27570(15) 0.25662(10)
H45 H 0.2227 0.2754 0.2648
C34 C 0.0616(2) 0.32559(15) 0.28307(9)
H46 H 0.0901 0.3598 0.3094
C35 C -0.0583(2) 0.32546(15) 0.27099(9)
H47 H -0.1129 0.3600 0.2888
C36 C -0.0992(2) 0.27513(14) 0.23287(9)
H48 H -0.1823 0.2753 0.2250
S3 S 0.49431(5) -0.15381(3) 0.27576(2)
O3 O 0.55405(12) -0.00124(9) 0.30468(5)
C37 C 0.49115(19) -0.03740(12) 0.26372(8)
C38 C 0.55653(19) -0.13993(13) 0.33763(8)
H49 H 0.6456 -0.1470 0.3360
C39 C 0.5280(2) -0.04769(13) 0.34807(8)
H50 H 0.4422 -0.0413 0.3569
H51 H 0.5773 -0.0269 0.3759
C40 C 0.55239(17) -0.00844(13) 0.21510(8)
C41 C 0.36230(17) -0.00267(14) 0.25840(9)
H52 H 0.3030 -0.0492 0.2573
H53 H 0.3421 0.0355 0.2862
C42 C 0.36523(19) 0.04522(14) 0.20971(9)
H54 H 0.2843 0.0565 0.1952
C43 C 0.44194(19) 0.12459(13) 0.21758(9)
H55 H 0.4197 0.1539 0.2486
H56 H 0.4338 0.1643 0.1895
C44 C 0.57111(19) 0.08779(13) 0.22060(9)
H57 H 0.6220 0.1101 0.1936
H58 H 0.6089 0.1015 0.2527
C45 C 0.44700(19) -0.01134(13) 0.17721(8)
C46 C 0.66541(18) -0.05637(14) 0.20146(9)
H59 H 0.6453 -0.1156 0.1950
H60 H 0.7229 -0.0532 0.2288
H61 H 0.7010 -0.0313 0.1718
C47 C 0.4781(2) 0.02615(14) 0.12676(8)
H62 H 0.5085 0.0837 0.1311
H63 H 0.4060 0.0274 0.1060
H64 H 0.5397 -0.0086 0.1108
C48 C 0.39568(19) -0.09987(13) 0.16777(8)
H65 H 0.4581 -0.1359 0.1534
H66 H 0.3278 -0.0958 0.1448
H67 H 0.3684 -0.1244 0.1991
C49 C 0.5075(2) -0.19818(13) 0.37661(8)
C50 C 0.3856(2) -0.21206(14) 0.38139(9)
H68 H 0.3318 -0.1885 0.3579
C51 C 0.3409(2) -0.26032(14) 0.42029(9)
H69 H 0.2569 -0.2698 0.4230
C52 C 0.4175(2) -0.29422(14) 0.45478(9)
H70 H 0.3868 -0.3265 0.4815
C53 C 0.5390(2) -0.28096(15) 0.45027(9)
H71 H 0.5925 -0.3042 0.4740
C54 C 0.5838(2) -0.23363(15) 0.41120(9)
H72 H 0.6680 -0.2255 0.4082
loop_
_geom_bond_atom_site_label_1
_geom_bond_atom_site_label_2
_geom_bond_site_symmetry_1
_geom_bond_site_symmetry_2
S1 C1 1_555 1_555
O1 C1 1_555 1_555
C1 C4 1_555 1_555
C2 S1 1_555 1_555
H1 C2 1_555 1_555
C3 O1 1_555 1_555
H2 C3 1_555 1_555
H3 C3 1_555 1_555
C4 C8 1_555 1_555
C5 C1 1_555 1_555
H4 C5 1_555 1_555
H5 C5 1_555 1_555
C6 C5 1_555 1_555
H6 C6 1_555 1_555
C7 C6 1_555 1_555
H7 C7 1_555 1_555
H8 C7 1_555 1_555
C8 C7 1_555 1_555
H9 C8 1_555 1_555
H10 C8 1_555 1_555
C9 C4 1_555 1_555
C10 C4 1_555 1_555
H11 C10 1_555 1_555
H12 C10 1_555 1_555
H13 C10 1_555 1_555
C11 C9 1_555 1_555
H14 C11 1_555 1_555
H15 C11 1_555 1_555
H16 C11 1_555 1_555
C12 C9 1_555 1_555
H17 C12 1_555 1_555
H18 C12 1_555 1_555
H19 C12 1_555 1_555
C13 C2 1_555 1_555
C14 C13 1_555 1_555
H20 C14 1_555 1_555
C15 C14 1_555 1_555
H21 C15 1_555 1_555
C16 C15 1_555 1_555
H22 C16 1_555 1_555
C17 C16 1_555 1_555
H23 C17 1_555 1_555
C18 C13 1_555 1_555
H24 C18 1_555 1_555
S2 C19 1_555 1_555
O2 C19 1_555 1_555
C19 C22 1_555 1_555
C20 S2 1_555 1_555
H25 C20 1_555 1_555
C21 O2 1_555 1_555
H26 C21 1_555 1_555
H27 C21 1_555 1_555
C22 C26 1_555 1_555
C23 C19 1_555 1_555
H28 C23 1_555 1_555
H29 C23 1_555 1_555
C24 C23 1_555 1_555
H30 C24 1_555 1_555
C25 C24 1_555 1_555
H31 C25 1_555 1_555
H32 C25 1_555 1_555
C26 C25 1_555 1_555
H33 C26 1_555 1_555
H34 C26 1_555 1_555
C27 C22 1_555 1_555
C28 C22 1_555 1_555
H35 C28 1_555 1_555
H36 C28 1_555 1_555
H37 C28 1_555 1_555
C29 C27 1_555 1_555
H38 C29 1_555 1_555
H39 C29 1_555 1_555
H40 C29 1_555 1_555
C30 C27 1_555 1_555
H41 C30 1_555 1_555
H42 C30 1_555 1_555
H43 C30 1_555 1_555
C31 C20 1_555 1_555
C32 C31 1_555 1_555
H44 C32 1_555 1_555
C33 C32 1_555 1_555
H45 C33 1_555 1_555
C34 C33 1_555 1_555
H46 C34 1_555 1_555
C35 C34 1_555 1_555
H47 C35 1_555 1_555
C36 C31 1_555 1_555
H48 C36 1_555 1_555
S3 C37 1_555 1_555
O3 C37 1_555 1_555
C37 C40 1_555 1_555
C38 S3 1_555 1_555
H49 C38 1_555 1_555
C39 O3 1_555 1_555
H50 C39 1_555 1_555
H51 C39 1_555 1_555
C40 C44 1_555 1_555
C41 C37 1_555 1_555
H52 C41 1_555 1_555
H53 C41 1_555 1_555
C42 C41 1_555 1_555
H54 C42 1_555 1_555
C43 C42 1_555 1_555
H55 C43 1_555 1_555
H56 C43 1_555 1_555
C44 C43 1_555 1_555
H57 C44 1_555 1_555
H58 C44 1_555 1_555
C45 C40 1_555 1_555
C46 C40 1_555 1_555
H59 C46 1_555 1_555
H60 C46 1_555 1_555
H61 C46 1_555 1_555
C47 C45 1_555 1_555
H62 C47 1_555 1_555
H63 C47 1_555 1_555
H64 C47 1_555 1_555
C48 C45 1_555 1_555
H65 C48 1_555 1_555
H66 C48 1_555 1_555
H67 C48 1_555 1_555
C49 C38 1_555 1_555
C50 C49 1_555 1_555
H68 C50 1_555 1_555
C51 C50 1_555 1_555
H69 C51 1_555 1_555
C52 C51 1_555 1_555
H70 C52 1_555 1_555
C53 C52 1_555 1_555
H71 C53 1_555 1_555
C54 C49 1_555 1_555
H72 C54 1_555 1_555
C2 C3 1_555 1_555
C6 C9 1_555 1_555
C17 C18 1_555 1_555
C20 C21 1_555 1_555
C24 C27 1_555 1_555
C35 C36 1_555 1_555
C38 C39 1_555 1_555
C42 C45 1_555 1_555
C53 C54 1_555 1_555

#END
