
#######################################################################
#
#                 Cambridge Crystallographic Data Centre
#                                CCDC 
#
#######################################################################
#
# If this CIF has been generated from an entry in the Cambridge 
# Structural Database, then it will include bibliographic, chemical, 
# crystal, experimental, refinement or atomic coordinate data resulting 
# from the CCDC's data processing and validation procedures.
#
#######################################################################

data_OKIFUL
_chemical_formula_moiety         'C26 H16 N2 O1'
_chemical_name_systematic        (E)-2-((pyren-1-ylimino)methyl)quinolin-8-ol
_symmetry_cell_setting           monoclinic
_symmetry_space_group_name_H-M   'P 21/c'
_symmetry_Int_Tables_number      14
_space_group_name_Hall           '-P 2ybc'
loop_
_symmetry_equiv_pos_site_id
_symmetry_equiv_pos_as_xyz
1 x,y,z
2 -x,1/2+y,1/2-z
3 -x,-y,-z
4 x,1/2-y,1/2+z
_cell_length_a                   15.9840(19)
_cell_length_b                   4.8453(3)
_cell_length_c                   23.071(3)
_cell_angle_alpha                90
_cell_angle_beta                 93.835(9)
_cell_angle_gamma                90
_cell_volume                     1782.79
_exptl_crystal_colour            brown
_exptl_crystal_description       rod
_cell_formula_units_Z            4
loop_
_atom_site_label
_atom_site_type_symbol
_atom_site_fract_x
_atom_site_fract_y
_atom_site_fract_z
O1 O -0.00534(9) -0.8729(3) 0.43353(6)
H1 H 0.0175(14) -0.737(4) 0.4572(9)
N1 N 0.24740(9) 0.0215(3) 0.50451(6)
N2 N 0.11816(9) -0.5020(3) 0.43966(6)
C1 C 0.25103(11) 0.1993(3) 0.55347(7)
C2 C 0.18087(11) 0.2776(4) 0.58217(7)
H2 H 0.1284 0.1990 0.5712
C3 C 0.18745(11) 0.4697(4) 0.62665(7)
H3 H 0.1393 0.5183 0.6456
C4 C 0.26386(11) 0.5926(3) 0.64404(7)
C5 C 0.27221(12) 0.8001(4) 0.68850(7)
H4 H 0.2248 0.8528 0.7078
C6 C 0.34677(13) 0.9210(4) 0.70319(7)
H5 H 0.3500 1.0570 0.7323
C7 C 0.42106(12) 0.8468(3) 0.67542(7)
C8 C 0.49893(13) 0.9696(4) 0.68975(8)
H6 H 0.5034 1.1074 0.7185
C9 C 0.56911(13) 0.8912(4) 0.66230(8)
H7 H 0.6210 0.9755 0.6726
C10 C 0.56414(12) 0.6905(4) 0.61980(8)
H8 H 0.6126 0.6407 0.6014
C11 C 0.48832(11) 0.5606(3) 0.60381(7)
C12 C 0.47988(12) 0.3507(4) 0.56009(7)
H9 H 0.5279 0.2912 0.5423
C13 C 0.40516(11) 0.2356(4) 0.54364(7)
H10 H 0.4022 0.1014 0.5141
C14 C 0.33014(11) 0.3141(3) 0.57034(7)
C15 C 0.33661(11) 0.5137(3) 0.61542(7)
C16 C 0.41497(11) 0.6392(3) 0.63201(7)
C17 C 0.18879(11) -0.1557(3) 0.49708(7)
H11 H 0.1504 -0.1802 0.5258
C18 C 0.18104(11) -0.3225(3) 0.44361(7)
C19 C 0.23649(11) -0.2867(4) 0.39939(7)
H12 H 0.2809 -0.1599 0.4043
C20 C 0.22571(12) -0.4362(4) 0.34949(7)
H13 H 0.2624 -0.4121 0.3197
C21 C 0.15907(11) -0.6278(3) 0.34257(7)
C22 C 0.14091(12) -0.7905(4) 0.29233(7)
H14 H 0.1744 -0.7761 0.2605
C23 C 0.07445(12) -0.9689(4) 0.29029(8)
H15 H 0.0625 -1.0744 0.2566
C24 C 0.02363(12) -0.9985(4) 0.33712(8)
H16 H -0.0217 -1.1227 0.3348
C25 C 0.04069(11) -0.8446(4) 0.38630(8)
C26 C 0.10779(11) -0.6530(3) 0.38955(7)
loop_
_geom_bond_atom_site_label_1
_geom_bond_atom_site_label_2
_geom_bond_site_symmetry_1
_geom_bond_site_symmetry_2
O1 H1 1_555 1_555
N1 C1 1_555 1_555
N2 C18 1_555 1_555
C1 C2 1_555 1_555
C2 H2 1_555 1_555
C3 C2 1_555 1_555
H3 C3 1_555 1_555
C4 C3 1_555 1_555
C5 C4 1_555 1_555
H4 C5 1_555 1_555
C6 C5 1_555 1_555
H5 C6 1_555 1_555
C7 C6 1_555 1_555
C8 C7 1_555 1_555
H6 C8 1_555 1_555
C9 C8 1_555 1_555
H7 C9 1_555 1_555
C10 C9 1_555 1_555
H8 C10 1_555 1_555
C11 C10 1_555 1_555
C12 C11 1_555 1_555
H9 C12 1_555 1_555
C13 C12 1_555 1_555
H10 C13 1_555 1_555
C14 C1 1_555 1_555
C15 C4 1_555 1_555
C16 C7 1_555 1_555
C17 N1 1_555 1_555
H11 C17 1_555 1_555
C18 C17 1_555 1_555
C19 C18 1_555 1_555
H12 C19 1_555 1_555
C20 C19 1_555 1_555
H13 C20 1_555 1_555
C21 C20 1_555 1_555
C22 C21 1_555 1_555
H14 C22 1_555 1_555
C23 C22 1_555 1_555
H15 C23 1_555 1_555
C24 C23 1_555 1_555
H16 C24 1_555 1_555
C25 O1 1_555 1_555
C26 N2 1_555 1_555
C11 C16 1_555 1_555
C13 C14 1_555 1_555
C14 C15 1_555 1_555
C15 C16 1_555 1_555
C21 C26 1_555 1_555
C24 C25 1_555 1_555
C25 C26 1_555 1_555

#END
