
#######################################################################
#
#                 Cambridge Crystallographic Data Centre
#                                CCDC 
#
#######################################################################
#
# If this CIF has been generated from an entry in the Cambridge 
# Structural Database, then it will include bibliographic, chemical, 
# crystal, experimental, refinement or atomic coordinate data resulting 
# from the CCDC's data processing and validation procedures.
#
#######################################################################

data_OKIKUQ
_chemical_formula_moiety         'C24 H16 N2'
_chemical_name_systematic        2-(6-(pyridin-2-yl)-2-anthryl)pyridine
_symmetry_cell_setting           monoclinic
_symmetry_space_group_name_H-M   'P 21/c'
_symmetry_Int_Tables_number      14
_space_group_name_Hall           '-P 2ybc'
loop_
_symmetry_equiv_pos_site_id
_symmetry_equiv_pos_as_xyz
1 x,y,z
2 -x,1/2+y,1/2-z
3 -x,-y,-z
4 x,1/2-y,1/2+z
_cell_length_a                   17.318(4)
_cell_length_b                   6.2349(12)
_cell_length_c                   7.3422(15)
_cell_angle_alpha                90
_cell_angle_beta                 96.81(3)
_cell_angle_gamma                90
_cell_volume                     787.188
_cell_formula_units_Z            2
loop_
_atom_site_label
_atom_site_type_symbol
_atom_site_fract_x
_atom_site_fract_y
_atom_site_fract_z
N1 N 0.15627(5) 0.50136(15) 0.74732(12)
C1 C 0.08734(6) 0.43064(18) 0.67019(15)
H1 H 0.0489 0.5344 0.6298
C2 C 0.06811(6) 0.21696(19) 0.64515(15)
H2 H 0.0181 0.1759 0.5888
C3 C 0.12335(6) 0.06411(18) 0.70395(15)
H3 H 0.1121 -0.0845 0.6900
C4 C 0.19520(6) 0.13319(18) 0.78345(14)
H4 H 0.2344 0.0320 0.8252
C5 C 0.21001(6) 0.35160(17) 0.80218(14)
C6 C 0.28673(6) 0.43386(16) 0.88277(13)
C7 C 0.35363(6) 0.32307(16) 0.86468(14)
H5 H 0.3506 0.1873 0.8055
C8 C 0.42764(6) 0.40833(16) 0.93334(13)
C9 C 0.43154(6) 0.61343(17) 1.02276(13)
C10 C 0.36056(6) 0.72185(17) 1.04296(14)
H6 H 0.3620 0.8562 1.1042
C11 C 0.29106(6) 0.63578(17) 0.97590(14)
H7 H 0.2445 0.7108 0.9910
C12 C 0.50351(6) 0.70061(17) 1.08786(14)
H8 H 0.5059 0.8360 1.1475
N1B N 0.84373(5) 0.49864(15) 1.25268(12)
C1B C 0.91266(6) 0.56936(18) 1.32981(15)
H1B H 0.9511 0.4656 1.3702
C2B C 0.93189(6) 0.78304(19) 1.35485(15)
H2B H 0.9819 0.8241 1.4112
C3B C 0.87665(6) 0.93589(18) 1.29605(15)
H3B H 0.8879 1.0845 1.3100
C4B C 0.80480(6) 0.86681(18) 1.21655(14)
H4B H 0.7656 0.9680 1.1748
C5B C 0.78999(6) 0.64840(17) 1.19782(14)
C6B C 0.71327(6) 0.56614(16) 1.11723(13)
C7B C 0.64637(6) 0.67693(16) 1.13532(14)
H5B H 0.6494 0.8127 1.1945
C8B C 0.57236(6) 0.59167(16) 1.06666(13)
C9B C 0.56846(6) 0.38657(17) 0.97724(13)
C10B C 0.63944(6) 0.27815(17) 0.95704(14)
H6B H 0.6380 0.1438 0.8958
C11B C 0.70894(6) 0.36422(17) 1.02410(14)
H7B H 0.7555 0.2892 1.0090
C12B C 0.49649(6) 0.29939(17) 0.91214(14)
H8B H 0.4941 0.1640 0.8525
loop_
_geom_bond_atom_site_label_1
_geom_bond_atom_site_label_2
_geom_bond_site_symmetry_1
_geom_bond_site_symmetry_2
N1 C1 1_555 1_555
C1 H1 1_555 1_555
C2 C1 1_555 1_555
H2 C2 1_555 1_555
C3 C2 1_555 1_555
H3 C3 1_555 1_555
C4 C3 1_555 1_555
H4 C4 1_555 1_555
C5 N1 1_555 1_555
C6 C5 1_555 1_555
C7 C6 1_555 1_555
H5 C7 1_555 1_555
C8 C7 1_555 1_555
C9 C8 1_555 1_555
C10 C9 1_555 1_555
H6 C10 1_555 1_555
C11 C6 1_555 1_555
H7 C11 1_555 1_555
C12 C9 1_555 1_555
H8 C12 1_555 1_555
N1B C1B 1_555 1_555
C1B H1B 1_555 1_555
C2B C1B 1_555 1_555
H2B C2B 1_555 1_555
C3B C2B 1_555 1_555
H3B C3B 1_555 1_555
C4B C3B 1_555 1_555
H4B C4B 1_555 1_555
C5B N1B 1_555 1_555
C6B C5B 1_555 1_555
C7B C6B 1_555 1_555
H5B C7B 1_555 1_555
C8B C12 1_555 1_555
C9B C8B 1_555 1_555
C10B C9B 1_555 1_555
H6B C10B 1_555 1_555
C11B C6B 1_555 1_555
H7B C11B 1_555 1_555
C12B C8 1_555 1_555
H8B C12B 1_555 1_555
C4 C5 1_555 1_555
C10 C11 1_555 1_555
C4B C5B 1_555 1_555
C7B C8B 1_555 1_555
C9B C12B 1_555 1_555
C10B C11B 1_555 1_555

#END
