
#######################################################################
#
#                 Cambridge Crystallographic Data Centre
#                                CCDC 
#
#######################################################################
#
# If this CIF has been generated from an entry in the Cambridge 
# Structural Database, then it will include bibliographic, chemical, 
# crystal, experimental, refinement or atomic coordinate data resulting 
# from the CCDC's data processing and validation procedures.
#
#######################################################################

data_OKILAX
_chemical_formula_moiety         'C24 H16 N2'
_chemical_name_systematic        3-(6-(pyridin-3-yl)-2-anthryl)pyridine
_symmetry_cell_setting           orthorhombic
_symmetry_space_group_name_H-M   'P c a 21'
_symmetry_Int_Tables_number      29
_space_group_name_Hall           'P 2c -2ac'
loop_
_symmetry_equiv_pos_site_id
_symmetry_equiv_pos_as_xyz
1 x,y,z
2 -x,-y,1/2+z
3 1/2+x,-y,z
4 1/2-x,y,1/2+z
_cell_length_a                   7.4367(15)
_cell_length_b                   6.2803(13)
_cell_length_c                   35.030(7)
_cell_angle_alpha                90
_cell_angle_beta                 90
_cell_angle_gamma                90
_cell_volume                     1636.07
_exptl_crystal_colour            colorless
_exptl_crystal_description       Prism
_cell_formula_units_Z            4
loop_
_atom_site_label
_atom_site_type_symbol
_atom_site_fract_x
_atom_site_fract_y
_atom_site_fract_z
N1 N 0.6826(5) -0.2178(8) 0.41033(14)
N2 N 1.0584(6) 0.7118(8) 0.04532(14)
C1 C 0.7395(6) -0.1243(9) 0.37812(16)
H1 H 0.7758 -0.2159 0.3580
C2 C 0.7503(6) 0.0874(8) 0.37144(14)
C3 C 0.6988(6) 0.2245(8) 0.40077(15)
H2 H 0.7054 0.3746 0.3977
C4 C 0.6379(7) 0.1352(10) 0.43442(15)
H3 H 0.6007 0.2243 0.4549
C5 C 0.6310(7) -0.0814(11) 0.43832(17)
H4 H 0.5882 -0.1390 0.4617
C6 C 0.8100(6) 0.1765(7) 0.33339(13)
C7 C 0.9057(6) 0.3752(7) 0.33172(13)
H5 H 0.9343 0.4469 0.3548
C8 C 0.9561(7) 0.4630(7) 0.29794(14)
H6 H 1.0206 0.5935 0.2978
C9 C 0.9124(6) 0.3589(7) 0.26172(13)
C10 C 0.9603(7) 0.4485(7) 0.22672(14)
H7 H 1.0225 0.5805 0.2260
C11 C 0.9162(5) 0.3429(6) 0.19246(12)
C12 C 0.9664(6) 0.4305(8) 0.15606(13)
H8 H 1.0261 0.5642 0.1551
C13 C 0.9293(6) 0.3235(7) 0.12254(13)
C14 C 0.8338(6) 0.1261(7) 0.12450(12)
H9 H 0.8025 0.0548 0.1015
C15 C 0.7866(7) 0.0376(8) 0.15880(18)
H10 H 0.7260 -0.0955 0.1592
C16 C 0.8262(6) 0.1403(6) 0.19358(12)
C17 C 0.7814(7) 0.0530(8) 0.22906(14)
H11 H 0.7226 -0.0812 0.2298
C18 C 0.8201(5) 0.1570(7) 0.26351(13)
C19 C 0.7692(6) 0.0711(7) 0.29976(13)
H12 H 0.7063 -0.0604 0.3008
C20 C 0.9988(8) 0.6275(9) 0.07861(18)
H13 H 0.9618 0.7203 0.0985
C21 C 0.9901(6) 0.4011(8) 0.08454(14)
C22 C 1.0461(6) 0.2694(9) 0.05507(15)
H14 H 1.0413 0.1191 0.0579
C23 C 1.1087(7) 0.3584(11) 0.02172(16)
H15 H 1.1481 0.2705 0.0013
C24 C 1.1135(7) 0.5807(11) 0.01835(16)
H16 H 1.1589 0.6402 -0.0046
loop_
_geom_bond_atom_site_label_1
_geom_bond_atom_site_label_2
_geom_bond_site_symmetry_1
_geom_bond_site_symmetry_2
N1 C1 1_555 1_555
N2 C20 1_555 1_555
C1 H1 1_555 1_555
C2 C1 1_555 1_555
C3 C2 1_555 1_555
H2 C3 1_555 1_555
C4 C3 1_555 1_555
H3 C4 1_555 1_555
C5 N1 1_555 1_555
H4 C5 1_555 1_555
C6 C2 1_555 1_555
C7 C6 1_555 1_555
H5 C7 1_555 1_555
C8 C7 1_555 1_555
H6 C8 1_555 1_555
C9 C8 1_555 1_555
C10 C9 1_555 1_555
H7 C10 1_555 1_555
C11 C10 1_555 1_555
C12 C11 1_555 1_555
H8 C12 1_555 1_555
C13 C12 1_555 1_555
C14 C13 1_555 1_555
H9 C14 1_555 1_555
C15 C14 1_555 1_555
H10 C15 1_555 1_555
C16 C11 1_555 1_555
C17 C16 1_555 1_555
H11 C17 1_555 1_555
C18 C9 1_555 1_555
C19 C6 1_555 1_555
H12 C19 1_555 1_555
C20 H13 1_555 1_555
C21 C13 1_555 1_555
C22 C21 1_555 1_555
H14 C22 1_555 1_555
C23 C22 1_555 1_555
H15 C23 1_555 1_555
C24 N2 1_555 1_555
H16 C24 1_555 1_555
C4 C5 1_555 1_555
C15 C16 1_555 1_555
C17 C18 1_555 1_555
C18 C19 1_555 1_555
C20 C21 1_555 1_555
C23 C24 1_555 1_555

#END
