
#######################################################################
#
#                 Cambridge Crystallographic Data Centre
#                                CCDC 
#
#######################################################################
#
# If this CIF has been generated from an entry in the Cambridge 
# Structural Database, then it will include bibliographic, chemical, 
# crystal, experimental, refinement or atomic coordinate data resulting 
# from the CCDC's data processing and validation procedures.
#
#######################################################################

data_OKIROQ
_chemical_formula_moiety         'C28 H16 O2 S1'
_chemical_name_systematic        
'3,7-bis(phenylethynyl)dibenzo[b,d]thiophene 5,5-dioxide'
_symmetry_cell_setting           triclinic
_symmetry_space_group_name_H-M   'P -1'
_symmetry_Int_Tables_number      2
_space_group_name_Hall           '-P 1'
loop_
_symmetry_equiv_pos_site_id
_symmetry_equiv_pos_as_xyz
1 x,y,z
2 -x,-y,-z
_cell_length_a                   10.031(2)
_cell_length_b                   10.146(2)
_cell_length_c                   11.316(2)
_cell_angle_alpha                100.63(3)
_cell_angle_beta                 100.92(3)
_cell_angle_gamma                109.63(3)
_cell_volume                     1026.06
_exptl_crystal_colour            colorless
_exptl_crystal_description       plate
_cell_formula_units_Z            2
loop_
_atom_site_label
_atom_site_type_symbol
_atom_site_fract_x
_atom_site_fract_y
_atom_site_fract_z
S1 S 0.38154(6) 0.26709(6) 0.09927(5)
O1 O 0.49086(17) 0.31291(18) 0.21685(15)
O2 O 0.31354(18) 0.36547(17) 0.07084(16)
C1 C 1.0420(2) 0.4842(3) -0.2906(2)
H1 H 1.0706 0.4159 -0.2564
C2 C 1.1368(2) 0.5797(2) -0.3383(2)
H2 H 1.2308 0.5770 -0.3367
C3 C 1.0959(3) 0.6794(2) -0.3883(2)
H3 H 1.1611 0.7437 -0.4223
C4 C 0.9601(3) 0.6855(3) -0.3887(2)
H4 H 0.9325 0.7549 -0.4219
C5 C 0.8651(2) 0.5911(3) -0.3410(2)
H5 H 0.7722 0.5960 -0.3410
C6 C 0.9041(2) 0.4883(2) -0.2927(2)
C7 C 0.8004(3) 0.3871(3) -0.2471(2)
C8 C 0.7093(2) 0.3069(3) -0.2135(2)
C9 C 0.5954(2) 0.2205(3) -0.1664(2)
C10 C 0.5582(2) 0.2890(2) -0.0661(2)
H6 H 0.6080 0.3903 -0.0276
C11 C 0.4471(2) 0.2047(2) -0.0250(2)
C12 C 0.2496(2) 0.0926(2) 0.0801(2)
C13 C 0.1536(2) 0.0576(2) 0.1513(2)
H7 H 0.1522 0.1299 0.2172
C14 C 0.0573(2) -0.0876(2) 0.1246(2)
C15 C 0.0611(2) -0.1901(2) 0.0259(2)
H8 H -0.0051 -0.2884 0.0070
C16 C 0.1589(2) -0.1523(2) -0.0452(2)
H9 H 0.1596 -0.2238 -0.1121
C17 C 0.2557(2) -0.0096(2) -0.0180(2)
C18 C 0.3703(2) 0.0559(2) -0.0783(2)
C19 C 0.4093(2) -0.0114(2) -0.1766(2)
H10 H 0.3604 -0.1130 -0.2140
C20 C 0.5206(2) 0.0713(3) -0.2197(2)
H11 H 0.5467 0.0252 -0.2875
C21 C -0.0426(2) -0.1257(2) 0.1999(2)
C22 C -0.1224(2) -0.1497(2) 0.2655(2)
C23 C -0.2164(2) -0.1773(2) 0.3463(2)
C24 C -0.2007(2) -0.0657(3) 0.4473(2)
H12 H -0.1279 0.0285 0.4618
C25 C -0.2901(3) -0.0914(3) 0.5260(2)
H13 H -0.2793 -0.0146 0.5941
C26 C -0.3954(3) -0.2284(3) 0.5064(2)
H14 H -0.4565 -0.2460 0.5612
C27 C -0.4117(3) -0.3396(3) 0.4070(2)
H15 H -0.4838 -0.4339 0.3938
C28 C -0.3239(2) -0.3148(3) 0.3267(2)
H16 H -0.3367 -0.3917 0.2579
loop_
_geom_bond_atom_site_label_1
_geom_bond_atom_site_label_2
_geom_bond_site_symmetry_1
_geom_bond_site_symmetry_2
S1 O1 1_555 1_555
O2 S1 1_555 1_555
C1 H1 1_555 1_555
C2 C1 1_555 1_555
H2 C2 1_555 1_555
C3 C2 1_555 1_555
H3 C3 1_555 1_555
C4 C3 1_555 1_555
H4 C4 1_555 1_555
C5 C4 1_555 1_555
H5 C5 1_555 1_555
C6 C1 1_555 1_555
C7 C6 1_555 1_555
C8 C7 1_555 1_555
C9 C8 1_555 1_555
C10 C9 1_555 1_555
H6 C10 1_555 1_555
C11 S1 1_555 1_555
C12 S1 1_555 1_555
C13 C12 1_555 1_555
H7 C13 1_555 1_555
C14 C13 1_555 1_555
C15 C14 1_555 1_555
H8 C15 1_555 1_555
C16 C15 1_555 1_555
H9 C16 1_555 1_555
C17 C12 1_555 1_555
C18 C11 1_555 1_555
C19 C18 1_555 1_555
H10 C19 1_555 1_555
C20 C9 1_555 1_555
H11 C20 1_555 1_555
C21 C14 1_555 1_555
C22 C21 1_555 1_555
C23 C22 1_555 1_555
C24 C23 1_555 1_555
H12 C24 1_555 1_555
C25 C24 1_555 1_555
H13 C25 1_555 1_555
C26 C25 1_555 1_555
H14 C26 1_555 1_555
C27 C26 1_555 1_555
H15 C27 1_555 1_555
C28 C23 1_555 1_555
H16 C28 1_555 1_555
C5 C6 1_555 1_555
C10 C11 1_555 1_555
C16 C17 1_555 1_555
C17 C18 1_555 1_555
C19 C20 1_555 1_555
C27 C28 1_555 1_555

#END
