
#######################################################################
#
#                 Cambridge Crystallographic Data Centre
#                                CCDC 
#
#######################################################################
#
# If this CIF has been generated from an entry in the Cambridge 
# Structural Database, then it will include bibliographic, chemical, 
# crystal, experimental, refinement or atomic coordinate data resulting 
# from the CCDC's data processing and validation procedures.
#
#######################################################################

data_OKIXUD
_chemical_formula_moiety         'C10 H8 N2,C9 H7 N3,C6 H6 O3,H2 O1'
_chemical_name_systematic        
"4,4'-bipyridine 5-(pyridin-4-yl)pyrimidine benzene-1,3,5-triol monohydrate"
_symmetry_cell_setting           triclinic
_symmetry_space_group_name_H-M   'P -1'
_symmetry_Int_Tables_number      2
_space_group_name_Hall           '-P 1'
loop_
_symmetry_equiv_pos_site_id
_symmetry_equiv_pos_as_xyz
1 x,y,z
2 -x,-y,-z
_cell_length_a                   8.157(2)
_cell_length_b                   9.262(2)
_cell_length_c                   15.465(4)
_cell_angle_alpha                87.887(4)
_cell_angle_beta                 89.803(4)
_cell_angle_gamma                72.727(4)
_cell_volume                     1114.9
_exptl_crystal_colour            colorless
_exptl_crystal_description       plan
_cell_formula_units_Z            2
loop_
_atom_site_label
_atom_site_type_symbol
_atom_site_fract_x
_atom_site_fract_y
_atom_site_fract_z
O1 O 0.0799(4) 0.6427(4) 0.10908(18)
H1 H 0.1234 0.6989 0.0776
H2 H 0.1045 0.5524 0.0882
C1 C 1.1497(5) 0.1962(7) 0.0888(2)
H3 H 1.2067 0.1957 0.0366
C2 C 1.0065(5) 0.3257(5) 0.1981(2)
H4 H 0.9613 0.4169 0.2252
C3 C 0.9845(4) 0.1975(4) 0.2377(2)
C4 C 1.0563(6) 0.0676(5) 0.1934(2)
H5 H 1.0456 -0.0232 0.2165
C5 C 0.8976(4) 0.1988(4) 0.3214(2)
C6 C 0.8101(5) 0.3335(4) 0.3594(2)
H6 H 0.7999 0.4258 0.3307
C7 C 0.7391(5) 0.3292(5) 0.4396(2)
H7 H 0.6836 0.4210 0.4641
C8 C 0.9001(5) 0.0687(4) 0.3676(2)
H8 H 0.9549 -0.0249 0.3450
C9 C 0.8228(5) 0.0754(5) 0.4467(3)
H9 H 0.8255 -0.0152 0.4755
N1 N 1.0878(4) 0.3287(4) 0.12386(19)
N2 N 1.1402(5) 0.0654(5) 0.1191(2)
N3 N 0.7440(4) 0.2038(4) 0.48464(19)
C10 C 0.3526(5) 0.1815(5) 0.3797(2)
H10 H 0.3607 0.0932 0.4123
C11 C 0.4435(5) 0.1705(4) 0.3052(2)
H11 H 0.5127 0.0768 0.2883
C12 C 0.4326(4) 0.2995(4) 0.25480(19)
C13 C 0.3280(5) 0.4338(4) 0.2853(2)
H12 H 0.3173 0.5237 0.2540
C14 C 0.5278(4) 0.2946(4) 0.1732(2)
C15 C 0.2405(5) 0.4365(5) 0.3604(2)
H13 H 0.1696 0.5282 0.3791
C16 C 0.5708(5) 0.4209(5) 0.1410(2)
H14 H 0.5379 0.5105 0.1705
C17 C 0.6607(5) 0.4131(6) 0.0666(3)
H15 H 0.6869 0.4994 0.0463
C18 C 0.6707(6) 0.1708(6) 0.0492(3)
H16 H 0.7039 0.0852 0.0162
C19 C 0.5781(5) 0.1673(5) 0.1265(2)
H17 H 0.5523 0.0799 0.1450
N4 N 0.7112(5) 0.2949(5) 0.0230(2)
N5 N 0.2544(4) 0.3090(5) 0.40813(19)
C20 C 0.3961(5) 0.2500(4) 0.6165(2)
H18 H 0.4284 0.2523 0.5589
C21 C 0.5190(5) 0.2211(4) 0.6811(2)
C22 C 0.4717(5) 0.2166(4) 0.7670(2)
H19 H 0.5543 0.1959 0.8108
C23 C 0.2999(5) 0.2434(4) 0.7870(2)
C24 C 0.1767(5) 0.2719(4) 0.7222(2)
H20 H 0.0617 0.2886 0.7361
C25 C 0.2258(5) 0.2755(4) 0.6371(2)
O2 O 0.6876(3) 0.1958(3) 0.66328(15)
H21 H 0.6991 0.2104 0.6113
O3 O 0.1019(3) 0.3037(3) 0.57521(15)
H22 H 0.1445 0.3097 0.5276
O4 O 0.2587(4) 0.2395(4) 0.87244(14)
H23 H 0.1541 0.2698 0.8776
loop_
_geom_bond_atom_site_label_1
_geom_bond_atom_site_label_2
_geom_bond_site_symmetry_1
_geom_bond_site_symmetry_2
O1 H1 1_555 1_555
H2 O1 1_555 1_555
C1 H3 1_555 1_555
C2 H4 1_555 1_555
C3 C2 1_555 1_555
C4 C3 1_555 1_555
H5 C4 1_555 1_555
C5 C3 1_555 1_555
C6 C5 1_555 1_555
H6 C6 1_555 1_555
C7 C6 1_555 1_555
H7 C7 1_555 1_555
C8 C5 1_555 1_555
H8 C8 1_555 1_555
C9 C8 1_555 1_555
H9 C9 1_555 1_555
N1 C1 1_555 1_555
N2 C1 1_555 1_555
N3 C7 1_555 1_555
C10 H10 1_555 1_555
C11 C10 1_555 1_555
H11 C11 1_555 1_555
C12 C11 1_555 1_555
C13 C12 1_555 1_555
H12 C13 1_555 1_555
C14 C12 1_555 1_555
C15 C13 1_555 1_555
H13 C15 1_555 1_555
C16 C14 1_555 1_555
H14 C16 1_555 1_555
C17 C16 1_555 1_555
H15 C17 1_555 1_555
C18 H16 1_555 1_555
C19 C14 1_555 1_555
H17 C19 1_555 1_555
N4 C17 1_555 1_555
N5 C10 1_555 1_555
C20 H18 1_555 1_555
C21 C20 1_555 1_555
C22 C21 1_555 1_555
H19 C22 1_555 1_555
C23 C22 1_555 1_555
C24 C23 1_555 1_555
H20 C24 1_555 1_555
C25 C20 1_555 1_555
O2 C21 1_555 1_555
H21 O2 1_555 1_555
O3 C25 1_555 1_555
H22 O3 1_555 1_555
O4 C23 1_555 1_555
H23 O4 1_555 1_555
C2 N1 1_555 1_555
C4 N2 1_555 1_555
C9 N3 1_555 1_555
C15 N5 1_555 1_555
C18 C19 1_555 1_555
C18 N4 1_555 1_555
C24 C25 1_555 1_555

#END
