
#######################################################################
#
#                 Cambridge Crystallographic Data Centre
#                                CCDC 
#
#######################################################################
#
# If this CIF has been generated from an entry in the Cambridge 
# Structural Database, then it will include bibliographic, chemical, 
# crystal, experimental, refinement or atomic coordinate data resulting 
# from the CCDC's data processing and validation procedures.
#
#######################################################################

data_OKOGUR
_chemical_formula_moiety         'C8 H11 B1 Br1 N1 O4'
_chemical_name_systematic        
1-Methyl-3,7-dioxo-5-(1-bromoprop-1-en-2-yl)-1-aza-5-bora-4,6-dioxabicyclo[3.3.0]octane
_symmetry_cell_setting           monoclinic
_symmetry_space_group_name_H-M   'P 21/c'
_symmetry_Int_Tables_number      14
_space_group_name_Hall           '-P 2ybc'
loop_
_symmetry_equiv_pos_site_id
_symmetry_equiv_pos_as_xyz
1 x,y,z
2 -x,1/2+y,1/2-z
3 -x,-y,-z
4 x,1/2-y,1/2+z
_cell_length_a                   9.350(3)
_cell_length_b                   9.005(3)
_cell_length_c                   14.078(4)
_cell_angle_alpha                90
_cell_angle_beta                 115.103(5)
_cell_angle_gamma                90
_cell_volume                     1073.36
_exptl_crystal_colour            colorless
_exptl_crystal_description       plate
_cell_formula_units_Z            4
loop_
_atom_site_label
_atom_site_type_symbol
_atom_site_fract_x
_atom_site_fract_y
_atom_site_fract_z
Br1 Br -0.38109(3) 0.34888(4) 0.07782(3)
B1 B 0.1058(3) 0.1988(3) 0.2123(2)
O1 O 0.1704(2) 0.07408(18) 0.17571(14)
O2 O 0.3996(2) -0.0007(2) 0.17707(16)
O3 O 0.2315(3) 0.2591(3) 0.48234(15)
O4 O 0.1180(2) 0.16938(19) 0.31890(15)
N1 N 0.2431(2) 0.3285(2) 0.23794(16)
C1 C 0.3216(3) 0.0912(3) 0.1941(2)
C2 C 0.3819(3) 0.2414(3) 0.2416(2)
H1 H 0.4616 0.2302 0.3151
H2 H 0.4318 0.2931 0.2014
C3 C 0.2026(3) 0.4529(3) 0.1604(2)
H3 H 0.2887 0.5256 0.1843
H4 H 0.1050 0.5009 0.1541
H5 H 0.1877 0.4135 0.0919
C4 C 0.2681(3) 0.3854(3) 0.3436(2)
H6 H 0.2090 0.4790 0.3369
H7 H 0.3816 0.4041 0.3874
C5 C 0.2069(3) 0.2649(3) 0.3914(2)
C6 C -0.1146(3) 0.2134(4) 0.0143(2)
H8 H -0.2112 0.2687 -0.0276
H9 H -0.1331 0.1071 -0.0006
H10 H -0.0292 0.2467 -0.0036
C7 C -0.0687(3) 0.2408(3) 0.1290(2)
C8 C -0.1679(3) 0.2956(3) 0.1651(2)
H11 H -0.1305 0.3090 0.2386
loop_
_geom_bond_atom_site_label_1
_geom_bond_atom_site_label_2
_geom_bond_site_symmetry_1
_geom_bond_site_symmetry_2
Br1 C8 1_555 1_555
B1 O1 1_555 1_555
O1 C1 1_555 1_555
O2 C1 1_555 1_555
O3 C5 1_555 1_555
O4 B1 1_555 1_555
N1 B1 1_555 1_555
C1 C2 1_555 1_555
C2 N1 1_555 1_555
H1 C2 1_555 1_555
H2 C2 1_555 1_555
C3 N1 1_555 1_555
H3 C3 1_555 1_555
H4 C3 1_555 1_555
H5 C3 1_555 1_555
C4 N1 1_555 1_555
H6 C4 1_555 1_555
H7 C4 1_555 1_555
C5 O4 1_555 1_555
C6 H8 1_555 1_555
H9 C6 1_555 1_555
H10 C6 1_555 1_555
C7 B1 1_555 1_555
C8 C7 1_555 1_555
H11 C8 1_555 1_555
C4 C5 1_555 1_555
C6 C7 1_555 1_555

#END
