
#######################################################################
#
#                 Cambridge Crystallographic Data Centre
#                                CCDC 
#
#######################################################################
#
# If this CIF has been generated from an entry in the Cambridge 
# Structural Database, then it will include bibliographic, chemical, 
# crystal, experimental, refinement or atomic coordinate data resulting 
# from the CCDC's data processing and validation procedures.
#
#######################################################################

data_OKOGIF
_chemical_formula_moiety         'C13 H13 B1 Br1 N1 O6,0.25(C3 H6 O1)'
_chemical_name_systematic        
'1-Methyl-3,7-dioxo-5-(2-(4-bromo-5-oxofuran-2-ylidene)prop-1-enyl)-1-aza-5-bora-4,6-dioxabicyclo[3.3.0]octane acetone solvate'
_symmetry_cell_setting           monoclinic
_symmetry_space_group_name_H-M   'P 21/c'
_symmetry_Int_Tables_number      14
_space_group_name_Hall           '-P 2ybc'
loop_
_symmetry_equiv_pos_site_id
_symmetry_equiv_pos_as_xyz
1 x,y,z
2 -x,1/2+y,1/2-z
3 -x,-y,-z
4 x,1/2-y,1/2+z
_cell_length_a                   7.3530(6)
_cell_length_b                   17.5538(13)
_cell_length_c                   24.6460(18)
_cell_angle_alpha                90
_cell_angle_beta                 92.247(5)
_cell_angle_gamma                90
_cell_volume                     3178.69
_exptl_crystal_colour            colorless
_exptl_crystal_description       platy
_cell_formula_units_Z            8
loop_
_atom_site_label
_atom_site_type_symbol
_atom_site_fract_x
_atom_site_fract_y
_atom_site_fract_z
Br2 Br 1.31386(9) 0.20578(4) 0.50540(3)
O7 O 0.886(6) 0.153(4) 0.5175(9)
O8 O 0.8262(5) 0.1688(2) 0.42728(14)
O9 O 0.2971(4) 0.1672(2) 0.23944(13)
O10 O 0.0652(4) 0.0927(2) 0.21098(15)
O11 O 0.4289(4) 0.27457(19) 0.19307(13)
O12 O 0.5090(4) 0.3390(2) 0.11967(14)
N2 N 0.4951(4) 0.1476(2) 0.16431(15)
B2 B 0.4652(7) 0.1983(4) 0.2192(2)
C14 C 0.9442(9) 0.1660(4) 0.4732(3)
C15 C 1.1145(7) 0.1990(3) 0.4566(2)
C16 C 1.1001(6) 0.2190(3) 0.4051(2)
H14 H 1.1910 0.2416 0.3854
C17 C 0.9211(6) 0.2002(3) 0.3845(2)
C18 C 0.8495(6) 0.2079(3) 0.3345(2)
H15 H 0.9289 0.2275 0.3096
C19 C 0.6680(6) 0.1908(3) 0.3119(2)
C20 C 0.5264(6) 0.1605(3) 0.3484(2)
H16 H 0.4118 0.1570 0.3285
H17 H 0.5148 0.1943 0.3787
H18 H 0.5620 0.1109 0.3613
C21 C 0.6375(6) 0.2033(3) 0.2587(2)
H19 H 0.7417 0.2181 0.2413
C22 C 0.2070(6) 0.1241(3) 0.2032(2)
C23 C 0.3056(6) 0.1204(3) 0.15113(19)
H20 H 0.3072 0.0686 0.1375
H21 H 0.2468 0.1528 0.1238
C24 C 0.5626(6) 0.2047(3) 0.12529(19)
H22 H 0.5136 0.1944 0.0889
H23 H 0.6944 0.2035 0.1249
C25 C 0.4988(6) 0.2806(3) 0.1445(2)
C26 C 0.6211(6) 0.0816(3) 0.1716(2)
H24 H 0.6275 0.0544 0.1379
H25 H 0.5769 0.0481 0.1989
H26 H 0.7402 0.0996 0.1826
Br1 Br 0.14157(8) 0.62706(5) 0.48409(3)
O1 O 0.5689(5) 0.5752(2) 0.46753(15)
O2 O 0.6385(4) 0.59119(19) 0.55682(14)
O3 O 1.1789(4) 0.5876(2) 0.74261(14)
O4 O 1.4253(5) 0.5189(2) 0.76711(16)
O5 O 1.0416(4) 0.68951(19) 0.79280(16)
O6 O 0.9908(5) 0.7489(2) 0.87105(16)
N1 N 0.9921(5) 0.5604(2) 0.81970(15)
B1 B 1.0096(7) 0.6149(4) 0.7655(2)
C1 C 0.5209(8) 0.5921(3) 0.5119(3)
C2 C 0.3432(6) 0.6178(3) 0.5312(2)
C3 C 0.3623(6) 0.6315(3) 0.5837(2)
H1 H 0.2709 0.6493 0.6055
C4 C 0.5437(6) 0.6151(3) 0.6020(2)
C5 C 0.6162(6) 0.6194(3) 0.6528(2)
H2 H 0.5357 0.6355 0.6787
C6 C 0.8002(6) 0.6030(3) 0.6743(2)
C7 C 0.9384(6) 0.5730(3) 0.6366(2)
H3 H 1.0516 0.5646 0.6564
H4 H 0.9561 0.6094 0.6082
H5 H 0.8959 0.5258 0.6210
C8 C 0.8327(6) 0.6176(3) 0.7274(2)
H6 H 0.7293 0.6323 0.7453
C9 C 1.2791(7) 0.5447(3) 0.7765(2)
C10 C 1.1857(6) 0.5344(3) 0.8290(2)
H7 H 1.2458 0.5645 0.8574
H8 H 1.1889 0.4813 0.8399
C11 C 0.9326(6) 0.6141(3) 0.8622(2)
H9 H 0.9903 0.6016 0.8971
H10 H 0.8016 0.6118 0.8653
C12 C 0.9900(6) 0.6919(3) 0.8440(3)
C13 C 0.8668(6) 0.4944(3) 0.8130(2)
H11 H 0.8642 0.4667 0.8465
H12 H 0.9086 0.4616 0.7850
H13 H 0.7466 0.5123 0.8032
O13? O 0.7965(14) 0.5320(6) 1.0577(4)
C27? C 0.488(2) 0.5047(8) 1.0433(5)
H27? H 0.4921 0.4919 1.0812
H28? H 0.4213 0.5512 1.0378
H29? H 0.4297 0.4645 1.0229
C28? C 0.675(2) 0.5148(7) 1.0250(6)
C29? C 0.710(2) 0.5046(8) 0.9666(5)
H30? H 0.8380 0.5086 0.9611
H31? H 0.6672 0.4554 0.9549
H32? H 0.6464 0.5434 0.9459
O14? O 0.906(9) 0.123(4) 0.5103(12)
loop_
_geom_bond_atom_site_label_1
_geom_bond_atom_site_label_2
_geom_bond_site_symmetry_1
_geom_bond_site_symmetry_2
Br1 C2 1_555 1_555
O1 C1 1_555 1_555
O2 C1 1_555 1_555
O3 B1 1_555 1_555
O4 C9 1_555 1_555
O5 B1 1_555 1_555
O6 C12 1_555 1_555
N1 B1 1_555 1_555
B1 C8 1_555 1_555
C1 C2 1_555 1_555
C2 C3 1_555 1_555
C3 H1 1_555 1_555
C4 O2 1_555 1_555
C5 C4 1_555 1_555
H2 C5 1_555 1_555
C6 C5 1_555 1_555
C7 C6 1_555 1_555
H3 C7 1_555 1_555
H4 C7 1_555 1_555
H5 C7 1_555 1_555
C8 C6 1_555 1_555
H6 C8 1_555 1_555
C9 O3 1_555 1_555
C10 N1 1_555 1_555
H7 C10 1_555 1_555
H8 C10 1_555 1_555
C11 N1 1_555 1_555
H9 C11 1_555 1_555
H10 C11 1_555 1_555
C12 O5 1_555 1_555
C13 N1 1_555 1_555
H11 C13 1_555 1_555
H12 C13 1_555 1_555
H13 C13 1_555 1_555
Br2 C15 1_555 1_555
O7 C14 1_555 1_555
O8 C14 1_555 1_555
O9 B2 1_555 1_555
O10 C22 1_555 1_555
O11 B2 1_555 1_555
O12 C25 1_555 1_555
N2 B2 1_555 1_555
B2 C21 1_555 1_555
C14 C15 1_555 1_555
C15 C16 1_555 1_555
C16 H14 1_555 1_555
C17 O8 1_555 1_555
C18 C17 1_555 1_555
H15 C18 1_555 1_555
C19 C18 1_555 1_555
C20 C19 1_555 1_555
H16 C20 1_555 1_555
H17 C20 1_555 1_555
H18 C20 1_555 1_555
C21 C19 1_555 1_555
H19 C21 1_555 1_555
C22 O9 1_555 1_555
C23 N2 1_555 1_555
H20 C23 1_555 1_555
H21 C23 1_555 1_555
C24 N2 1_555 1_555
H22 C24 1_555 1_555
H23 C24 1_555 1_555
C25 O11 1_555 1_555
C26 N2 1_555 1_555
H24 C26 1_555 1_555
H25 C26 1_555 1_555
H26 C26 1_555 1_555
C3 C4 1_555 1_555
C9 C10 1_555 1_555
C11 C12 1_555 1_555
C16 C17 1_555 1_555
C22 C23 1_555 1_555
C24 C25 1_555 1_555

#END
