
#######################################################################
#
#                 Cambridge Crystallographic Data Centre
#                                CCDC 
#
#######################################################################
#
# If this CIF has been generated from an entry in the Cambridge 
# Structural Database, then it will include bibliographic, chemical, 
# crystal, experimental, refinement or atomic coordinate data resulting 
# from the CCDC's data processing and validation procedures.
#
#######################################################################

data_OKOKEF
_chemical_formula_moiety         'C29 H52 O4 Si1'
_chemical_name_systematic        
(+-)-2',2',4',4'-Tetramethyl-4-(((triisopropylsilyl)oxy)methyl)-7-vinyltetrahydro-4'H-spiro[bicyclo[2.2.1]heptane-2,7'-cyclopenta[d][1,3]dioxin]-3-ol
_symmetry_cell_setting           orthorhombic
_symmetry_space_group_name_H-M   'P 21 21 21'
_symmetry_Int_Tables_number      19
_space_group_name_Hall           'P 2ac 2ab'
loop_
_symmetry_equiv_pos_site_id
_symmetry_equiv_pos_as_xyz
1 x,y,z
2 1/2-x,-y,1/2+z
3 -x,1/2+y,1/2-z
4 1/2+x,1/2-y,-z
_cell_length_a                   8.6041(17)
_cell_length_b                   18.186(4)
_cell_length_c                   19.188(4)
_cell_angle_alpha                90
_cell_angle_beta                 90
_cell_angle_gamma                90
_cell_volume                     3002.43
_exptl_crystal_colour            colorless
_exptl_crystal_description       parallelepiped
_cell_formula_units_Z            4
loop_
_atom_site_label
_atom_site_type_symbol
_atom_site_fract_x
_atom_site_fract_y
_atom_site_fract_z
Si1 Si 0.42390(15) 0.26294(6) 0.17829(6)
O1 O 0.5876(3) 0.42941(15) 0.04144(16)
H1 H 0.5919 0.3936 0.0673
O2 O 0.5317(3) 0.63037(14) -0.05245(14)
O3 O 0.7289(3) 0.63225(14) -0.13679(15)
O4 O 0.4223(3) 0.34793(14) 0.14542(15)
C1 C 0.4278(5) 0.44740(19) 0.0279(2)
H2 H 0.3813 0.4071 0.0012
C2 C 0.3311(5) 0.45924(19) 0.0932(2)
C3 C 0.1962(4) 0.5052(2) 0.0636(2)
H3 H 0.1480 0.4779 0.0252
C4 C 0.3017(4) 0.5652(2) 0.0329(2)
H4 H 0.2461 0.6051 0.0094
C5 C 0.4099(5) 0.5198(2) -0.01511(19)
C6 C 0.4161(5) 0.5174(2) 0.1385(2)
H5 H 0.3696 0.5207 0.1844
H6 H 0.5254 0.5054 0.1434
C7 C 0.3944(6) 0.5894(2) 0.0978(2)
H7 H 0.4939 0.6104 0.0847
H8 H 0.3367 0.6251 0.1250
C8 C 0.3374(5) 0.5066(3) -0.0882(2)
H9 H 0.2858 0.4592 -0.0897
H10 H 0.2619 0.5445 -0.0988
C9 C 0.4711(5) 0.5087(3) -0.1407(2)
H11 H 0.4725 0.4640 -0.1683
H12 H 0.4596 0.5504 -0.1718
C10 C 0.6198(5) 0.5156(2) -0.0989(2)
H13 H 0.6537 0.4661 -0.0854
C11 C 0.5652(4) 0.5556(2) -0.03388(19)
H14 H 0.6407 0.5522 0.0042
C12 C 0.6604(5) 0.6702(2) -0.0797(2)
C13 C 0.7585(5) 0.5555(2) -0.1334(2)
C14 C 0.0724(6) 0.5290(3) 0.1130(3)
H15 H 0.1011 0.5618 0.1479
C15 C -0.0713(6) 0.5083(3) 0.1117(3)
H16 H -0.1053 0.4756 0.0778
H17 H -0.1407 0.5261 0.1448
C16 C 0.7776(6) 0.6896(3) -0.0240(3)
H18 H 0.8095 0.6458 -0.0001
H19 H 0.7314 0.7231 0.0086
H20 H 0.8665 0.7124 -0.0452
C17 C 0.5900(6) 0.7387(2) -0.1116(3)
H21 H 0.6715 0.7703 -0.1279
H22 H 0.5294 0.7640 -0.0771
H23 H 0.5244 0.7251 -0.1500
C18 C 0.9078(5) 0.5384(3) -0.0918(3)
H24 H 0.9882 0.5722 -0.1051
H25 H 0.9408 0.4890 -0.1017
H26 H 0.8872 0.5432 -0.0429
C19 C 0.7834(6) 0.5316(3) -0.2082(3)
H27 H 0.6931 0.5436 -0.2353
H28 H 0.8007 0.4795 -0.2097
H29 H 0.8722 0.5567 -0.2270
C20 C 0.2857(5) 0.3903(2) 0.1299(2)
H30 H 0.2314 0.4022 0.1727
H31 H 0.2162 0.3618 0.1007
C21 C 0.2963(6) 0.2600(2) 0.2576(2)
H32 H 0.1926 0.2750 0.2421
C22 C 0.3438(7) 0.3145(3) 0.3130(3)
H33 H 0.2715 0.3123 0.3511
H34 H 0.3439 0.3632 0.2937
H35 H 0.4461 0.3026 0.3296
C23 C 0.2776(8) 0.1836(3) 0.2888(3)
H36 H 0.3780 0.1641 0.3003
H37 H 0.2277 0.1520 0.2556
H38 H 0.2152 0.1866 0.3302
C24 C 0.3478(8) 0.1948(3) 0.1123(2)
H39 H 0.3696 0.1458 0.1311
C25 C 0.1708(9) 0.1993(3) 0.1024(4)
H40 H 0.1426 0.2483 0.0887
H41 H 0.1199 0.1871 0.1454
H42 H 0.1393 0.1653 0.0668
C26 C 0.4340(12) 0.2000(4) 0.0434(3)
H43 H 0.4118 0.1572 0.0157
H44 H 0.5438 0.2027 0.0520
H45 H 0.4010 0.2432 0.0188
C27 C 0.6345(6) 0.2478(3) 0.2033(3)
H46 H 0.6421 0.2666 0.2510
C28 C 0.6760(8) 0.1663(3) 0.2096(4)
H47 H 0.6824 0.1450 0.1639
H48 H 0.5972 0.1415 0.2361
H49 H 0.7743 0.1614 0.2327
C29 C 0.7505(8) 0.2914(4) 0.1633(4)
H50 H 0.8532 0.2799 0.1796
H51 H 0.7308 0.3429 0.1700
H52 H 0.7424 0.2797 0.1147
loop_
_geom_bond_atom_site_label_1
_geom_bond_atom_site_label_2
_geom_bond_site_symmetry_1
_geom_bond_site_symmetry_2
Si1 O4 1_555 1_555
O1 H1 1_555 1_555
O2 C11 1_555 1_555
O3 C12 1_555 1_555
O4 C20 1_555 1_555
C1 O1 1_555 1_555
H2 C1 1_555 1_555
C2 C1 1_555 1_555
C3 C2 1_555 1_555
H3 C3 1_555 1_555
C4 C3 1_555 1_555
H4 C4 1_555 1_555
C5 C1 1_555 1_555
C6 C2 1_555 1_555
H5 C6 1_555 1_555
H6 C6 1_555 1_555
C7 C4 1_555 1_555
H7 C7 1_555 1_555
H8 C7 1_555 1_555
C8 C5 1_555 1_555
H9 C8 1_555 1_555
H10 C8 1_555 1_555
C9 C8 1_555 1_555
H11 C9 1_555 1_555
H12 C9 1_555 1_555
C10 C9 1_555 1_555
H13 C10 1_555 1_555
C11 C5 1_555 1_555
H14 C11 1_555 1_555
C12 O2 1_555 1_555
C13 O3 1_555 1_555
C14 C3 1_555 1_555
H15 C14 1_555 1_555
C15 C14 1_555 1_555
H16 C15 1_555 1_555
H17 C15 1_555 1_555
C16 C12 1_555 1_555
H18 C16 1_555 1_555
H19 C16 1_555 1_555
H20 C16 1_555 1_555
C17 C12 1_555 1_555
H21 C17 1_555 1_555
H22 C17 1_555 1_555
H23 C17 1_555 1_555
C18 C13 1_555 1_555
H24 C18 1_555 1_555
H25 C18 1_555 1_555
H26 C18 1_555 1_555
C19 C13 1_555 1_555
H27 C19 1_555 1_555
H28 C19 1_555 1_555
H29 C19 1_555 1_555
C20 C2 1_555 1_555
H30 C20 1_555 1_555
H31 C20 1_555 1_555
C21 Si1 1_555 1_555
H32 C21 1_555 1_555
C22 C21 1_555 1_555
H33 C22 1_555 1_555
H34 C22 1_555 1_555
H35 C22 1_555 1_555
C23 C21 1_555 1_555
H36 C23 1_555 1_555
H37 C23 1_555 1_555
H38 C23 1_555 1_555
C24 Si1 1_555 1_555
H39 C24 1_555 1_555
C25 C24 1_555 1_555
H40 C25 1_555 1_555
H41 C25 1_555 1_555
H42 C25 1_555 1_555
C26 C24 1_555 1_555
H43 C26 1_555 1_555
H44 C26 1_555 1_555
H45 C26 1_555 1_555
C27 Si1 1_555 1_555
H46 C27 1_555 1_555
C28 C27 1_555 1_555
H47 C28 1_555 1_555
H48 C28 1_555 1_555
H49 C28 1_555 1_555
C29 C27 1_555 1_555
H50 C29 1_555 1_555
H51 C29 1_555 1_555
H52 C29 1_555 1_555
C4 C5 1_555 1_555
C6 C7 1_555 1_555
C10 C11 1_555 1_555
C10 C13 1_555 1_555

#END
