
#######################################################################
#
#                 Cambridge Crystallographic Data Centre
#                                CCDC 
#
#######################################################################
#
# If this CIF has been generated from an entry in the Cambridge 
# Structural Database, then it will include bibliographic, chemical, 
# crystal, experimental, refinement or atomic coordinate data resulting 
# from the CCDC's data processing and validation procedures.
#
#######################################################################

data_OKOLOQ
_chemical_formula_moiety         'C19 H14 N2 O2'
_chemical_name_systematic        
1-Methyl-3-(2-naphthyl)-1,4-diazaspiro[4.5]deca-3,6,9-triene-2,8-dione
_symmetry_cell_setting           triclinic
_symmetry_space_group_name_H-M   'P -1'
_symmetry_Int_Tables_number      2
_space_group_name_Hall           '-P 1'
loop_
_symmetry_equiv_pos_site_id
_symmetry_equiv_pos_as_xyz
1 x,y,z
2 -x,-y,-z
_cell_length_a                   7.0717(9)
_cell_length_b                   10.4575(14)
_cell_length_c                   11.1343(15)
_cell_angle_alpha                79.445(8)
_cell_angle_beta                 73.634(7)
_cell_angle_gamma                76.889(7)
_cell_volume                     763.157
_exptl_crystal_colour            brown
_exptl_crystal_description       plate
_cell_formula_units_Z            2
loop_
_atom_site_label
_atom_site_type_symbol
_atom_site_fract_x
_atom_site_fract_y
_atom_site_fract_z
C1 C 0.33337(12) 0.88269(8) 1.03586(8)
H1 H 0.4637 0.9037 1.0035
C2 C 0.19291(12) 0.95591(8) 1.12136(8)
H2 H 0.2263 1.0277 1.1474
C3 C -0.00240(11) 0.92577(8) 1.17174(7)
C4 C -0.15225(13) 1.00013(8) 1.25976(8)
H3 H -0.1235 1.0737 1.2857
C5 C -0.33850(13) 0.96698(9) 1.30792(8)
H4 H -0.4373 1.0175 1.3671
C6 C -0.38432(12) 0.85840(9) 1.27018(9)
H5 H -0.5134 0.8359 1.3045
C7 C -0.24362(12) 0.78510(9) 1.18432(8)
H6 H -0.2760 0.7124 1.1592
C8 C -0.04963(11) 0.81716(8) 1.13268(7)
C9 C 0.09824(11) 0.74322(8) 1.04322(7)
H7 H 0.0677 0.6709 1.0163
C10 C 0.28623(11) 0.77555(7) 0.99491(7)
C11 C 0.43945(11) 0.70438(8) 0.89944(7)
C12 C 0.44054(11) 0.56847(8) 0.87123(7)
C13 C 0.66788(13) 0.42979(9) 0.71044(9)
H8 H 0.6014 0.3586 0.7628
H9 H 0.8136 0.4014 0.6957
H10 H 0.6315 0.4502 0.6295
C14 C 0.71418(11) 0.65542(8) 0.74395(7)
C15 C 0.91368(12) 0.61057(8) 0.77684(8)
H11 H 0.9180 0.5612 0.8569
C16 C 1.08410(12) 0.63768(10) 0.69762(8)
H12 H 1.2060 0.6067 0.7227
C17 C 1.08861(13) 0.71397(9) 0.57277(8)
C18 C 0.90101(13) 0.74515(9) 0.53143(8)
H13 H 0.9024 0.7855 0.4476
C19 C 0.72931(12) 0.71797(9) 0.60923(8)
H14 H 0.6120 0.7388 0.5785
N1 N 0.59186(10) 0.75303(7) 0.82833(7)
N2 N 0.60468(10) 0.54670(7) 0.77453(7)
O1 O 0.32207(9) 0.49334(6) 0.92214(6)
O2 O 1.24284(11) 0.74958(9) 0.50634(7)
loop_
_geom_bond_atom_site_label_1
_geom_bond_atom_site_label_2
_geom_bond_site_symmetry_1
_geom_bond_site_symmetry_2
C1 H1 1_555 1_555
C2 C1 1_555 1_555
H2 C2 1_555 1_555
C3 C2 1_555 1_555
C4 C3 1_555 1_555
H3 C4 1_555 1_555
C5 C4 1_555 1_555
H4 C5 1_555 1_555
C6 C5 1_555 1_555
H5 C6 1_555 1_555
C7 C6 1_555 1_555
H6 C7 1_555 1_555
C8 C3 1_555 1_555
C9 C8 1_555 1_555
H7 C9 1_555 1_555
C10 C1 1_555 1_555
C11 C10 1_555 1_555
C12 C11 1_555 1_555
C13 H8 1_555 1_555
H9 C13 1_555 1_555
H10 C13 1_555 1_555
C14 C15 1_555 1_555
C15 H11 1_555 1_555
C16 C15 1_555 1_555
H12 C16 1_555 1_555
C17 C16 1_555 1_555
C18 C17 1_555 1_555
H13 C18 1_555 1_555
C19 C14 1_555 1_555
H14 C19 1_555 1_555
N1 C11 1_555 1_555
N2 C12 1_555 1_555
O1 C12 1_555 1_555
O2 C17 1_555 1_555
C7 C8 1_555 1_555
C9 C10 1_555 1_555
C13 N2 1_555 1_555
C14 N1 1_555 1_555
C14 N2 1_555 1_555
C18 C19 1_555 1_555

#END
