
#######################################################################
#
#                 Cambridge Crystallographic Data Centre
#                                CCDC 
#
#######################################################################
#
# If this CIF has been generated from an entry in the Cambridge 
# Structural Database, then it will include bibliographic, chemical, 
# crystal, experimental, refinement or atomic coordinate data resulting 
# from the CCDC's data processing and validation procedures.
#
#######################################################################

data_OKOMIM
_chemical_formula_moiety         'C18 H21 Cl1 N2 O3 S1'
_chemical_name_systematic        
'ethyl (2-((2-(4-chlorophenyl)-3-methylbutanoyl)amino)-1,3-thiazol-4-yl)acetate'
_symmetry_cell_setting           monoclinic
_symmetry_space_group_name_H-M   'P 21/c'
_symmetry_Int_Tables_number      14
_space_group_name_Hall           '-P 2ybc'
loop_
_symmetry_equiv_pos_site_id
_symmetry_equiv_pos_as_xyz
1 x,y,z
2 -x,1/2+y,1/2-z
3 -x,-y,-z
4 x,1/2-y,1/2+z
_cell_length_a                   12.582(4)
_cell_length_b                   14.790(5)
_cell_length_c                   21.406(8)
_cell_angle_alpha                90
_cell_angle_beta                 92.572(13)
_cell_angle_gamma                90
_cell_volume                     3979.38
_exptl_crystal_colour            colorless
_exptl_crystal_description       platelet
_cell_formula_units_Z            8
loop_
_atom_site_label
_atom_site_type_symbol
_atom_site_fract_x
_atom_site_fract_y
_atom_site_fract_z
Cl1 Cl -0.36313(9) 0.00994(8) 0.12764(6)
S1 S 0.31824(6) 0.11693(6) 0.16868(5)
O1 O 0.14374(16) 0.16218(16) 0.09708(11)
O2 O 0.5599(2) 0.3064(2) 0.26793(12)
O3 O 0.5813(2) 0.30533(17) 0.37054(12)
N1 N 0.30522(19) 0.23001(17) 0.25892(12)
N2 N 0.16270(17) 0.24141(14) 0.18601(11)
C1 C 0.2582(2) 0.20330(19) 0.20724(14)
C2 C 0.4144(2) 0.1166(2) 0.22750(18)
C3 C 0.3974(2) 0.1791(2) 0.27060(18)
C4 C 0.4648(2) 0.1998(2) 0.32710(16)
C5 C 0.5389(2) 0.2763(2) 0.3169(2)
C6 C 0.6571(4) 0.3787(3) 0.3651(2)
C7 C 0.7134(5) 0.3935(4) 0.4268(2)
C8 C 0.1095(2) 0.2190(2) 0.13154(16)
C9 C 0.0041(2) 0.2685(2) 0.11717(14)
C10 C 0.0102(2) 0.3171(2) 0.05462(14)
C11 C 0.0902(2) 0.3945(2) 0.05967(19)
C12 C -0.0964(2) 0.3526(2) 0.03130(17)
C13 C -0.0864(2) 0.2022(2) 0.12001(16)
C14 C -0.0964(2) 0.1308(2) 0.07931(16)
C15 C -0.1811(2) 0.0708(2) 0.08177(18)
C16 C -0.2558(2) 0.0853(2) 0.1257(2)
C17 C -0.2478(2) 0.1554(2) 0.1663(2)
C18 C -0.1632(2) 0.2133(2) 0.16346(17)
H1 H 0.4721 0.0773 0.2292
H2 H -0.0046 0.3142 0.1497
H3 H 0.0350 0.2737 0.0239
H4 H -0.0456 0.1223 0.0496
H5 H -0.1872 0.0221 0.0544
H6 H -0.2990 0.1642 0.1957
H7 H -0.1573 0.2613 0.1915
H8 H 0.4192 0.2155 0.3608
H9 H 0.5061 0.1465 0.3386
H10 H 0.7083 0.3631 0.3343
H11 H 0.6197 0.4334 0.3522
H12 H 0.7463 0.3381 0.4408
H13 H 0.7669 0.4392 0.4228
H14 H 0.6633 0.4128 0.4566
H15 H 0.1351 0.2822 0.2089
H16 H 0.0942 0.4235 0.0197
H17 H 0.1590 0.3711 0.0725
H18 H 0.0679 0.4375 0.0900
H19 H -0.1433 0.3028 0.0218
H20 H -0.0878 0.3879 -0.0057
H21 H -0.1260 0.3896 0.0630
Cl2 Cl 0.83729(8) 0.16068(8) 0.33565(6)
S2 S 0.19997(6) 0.04430(6) 0.35827(5)
O4 O 0.37488(16) -0.01705(17) 0.42048(11)
O5 O -0.0491(2) -0.1365(2) 0.23821(14)
O6 O -0.0422(2) -0.1205(2) 0.13751(16)
N3 N 0.1973(2) -0.05690(17) 0.26061(12)
N4 N 0.34535(17) -0.08343(16) 0.32734(11)
C19 C 0.2511(2) -0.03862(19) 0.31210(14)
C20 C 0.1080(2) -0.0012(2) 0.25584(18)
C21 C 0.0989(2) 0.0557(2) 0.3030(2)
C22 C 0.0369(2) -0.0083(2) 0.19849(17)
C23 C -0.0223(2) -0.0958(2) 0.1952(2)
C24 C -0.0949(5) -0.2060(3) 0.1284(3)
C25 C -0.1774(4) -0.1987(3) 0.0771(2)
C26 C 0.4040(2) -0.0696(2) 0.38133(16)
C27 C 0.5087(2) -0.1211(2) 0.38795(13)
C28 C 0.5157(2) -0.1674(2) 0.45223(16)
C29 C 0.4275(3) -0.2370(2) 0.45721(19)
C30 C 0.6223(2) -0.2105(2) 0.46590(18)
C31 C 0.5959(2) -0.0542(2) 0.37663(14)
C32 C 0.6237(2) 0.0115(2) 0.42009(14)
C33 C 0.6982(2) 0.0765(2) 0.40789(18)
C34 C 0.7461(2) 0.0763(2) 0.3519(2)
C35 C 0.7231(2) 0.0106(2) 0.30794(18)
C36 C 0.6471(2) -0.0540(2) 0.32088(16)
H22 H 0.0437 0.0971 0.3058
H23 H 0.5093 -0.1678 0.3555
H24 H 0.5054 -0.1209 0.4840
H25 H 0.5915 0.0119 0.4584
H26 H 0.7158 0.1204 0.4377
H27 H 0.7576 0.0094 0.2704
H28 H 0.6303 -0.0984 0.2912
H29 H 0.3681 -0.1222 0.3011
H30 H 0.0798 -0.0034 0.1621
H31 H -0.0141 0.0409 0.1984
H32 H -0.0432 -0.2515 0.1178
H33 H -0.1280 -0.2234 0.1666
H34 H -0.1438 -0.1911 0.0380
H35 H -0.2221 -0.1475 0.0844
H36 H -0.2197 -0.2527 0.0756
H37 H 0.4373 -0.2845 0.4275
H38 H 0.3598 -0.2085 0.4486
H39 H 0.4297 -0.2619 0.4987
H40 H 0.6760 -0.1644 0.4692
H41 H 0.6379 -0.2512 0.4326
H42 H 0.6210 -0.2433 0.5045
loop_
_geom_bond_atom_site_label_1
_geom_bond_atom_site_label_2
_geom_bond_site_symmetry_1
_geom_bond_site_symmetry_2
Cl1 C16 1_555 1_555
S1 C1 1_555 1_555
O1 C8 1_555 1_555
O2 C5 1_555 1_555
O3 C5 1_555 1_555
N1 C1 1_555 1_555
N2 C1 1_555 1_555
C2 S1 1_555 1_555
C3 N1 1_555 1_555
C4 C3 1_555 1_555
C5 C4 1_555 1_555
C6 O3 1_555 1_555
C7 C6 1_555 1_555
C8 N2 1_555 1_555
C9 C8 1_555 1_555
C10 C9 1_555 1_555
C11 C10 1_555 1_555
C12 C10 1_555 1_555
C13 C9 1_555 1_555
C14 C13 1_555 1_555
C15 C14 1_555 1_555
C16 C15 1_555 1_555
C17 C16 1_555 1_555
C18 C13 1_555 1_555
H1 C2 1_555 1_555
H2 C9 1_555 1_555
H3 C10 1_555 1_555
H4 C14 1_555 1_555
H5 C15 1_555 1_555
H6 C17 1_555 1_555
H7 C18 1_555 1_555
H8 C4 1_555 1_555
H9 C4 1_555 1_555
H10 C6 1_555 1_555
H11 C6 1_555 1_555
H12 C7 1_555 1_555
H13 C7 1_555 1_555
H14 C7 1_555 1_555
H15 N2 1_555 1_555
H16 C11 1_555 1_555
H17 C11 1_555 1_555
H18 C11 1_555 1_555
H19 C12 1_555 1_555
H20 C12 1_555 1_555
H21 C12 1_555 1_555
Cl2 C34 1_555 1_555
S2 C19 1_555 1_555
O4 C26 1_555 1_555
O5 C23 1_555 1_555
O6 C23 1_555 1_555
N3 C19 1_555 1_555
N4 C19 1_555 1_555
C20 N3 1_555 1_555
C21 S2 1_555 1_555
C22 C20 1_555 1_555
C23 C22 1_555 1_555
C24 O6 1_555 1_555
C25 C24 1_555 1_555
C26 N4 1_555 1_555
C27 C26 1_555 1_555
C28 C27 1_555 1_555
C29 C28 1_555 1_555
C30 C28 1_555 1_555
C31 C27 1_555 1_555
C32 C31 1_555 1_555
C33 C32 1_555 1_555
C34 C33 1_555 1_555
C35 C34 1_555 1_555
C36 C31 1_555 1_555
H22 C21 1_555 1_555
H23 C27 1_555 1_555
H24 C28 1_555 1_555
H25 C32 1_555 1_555
H26 C33 1_555 1_555
H27 C35 1_555 1_555
H28 C36 1_555 1_555
H29 N4 1_555 1_555
H30 C22 1_555 1_555
H31 C22 1_555 1_555
H32 C24 1_555 1_555
H33 C24 1_555 1_555
H34 C25 1_555 1_555
H35 C25 1_555 1_555
H36 C25 1_555 1_555
H37 C29 1_555 1_555
H38 C29 1_555 1_555
H39 C29 1_555 1_555
H40 C30 1_555 1_555
H41 C30 1_555 1_555
H42 C30 1_555 1_555
C2 C3 1_555 1_555
C17 C18 1_555 1_555
C20 C21 1_555 1_555
C35 C36 1_555 1_555

#END
