
#######################################################################
#
#                 Cambridge Crystallographic Data Centre
#                                CCDC 
#
#######################################################################
#
# If this CIF has been generated from an entry in the Cambridge 
# Structural Database, then it will include bibliographic, chemical, 
# crystal, experimental, refinement or atomic coordinate data resulting 
# from the CCDC's data processing and validation procedures.
#
#######################################################################

data_OKONUZ
_chemical_formula_moiety         'C23 H21 N3 O2'
_chemical_name_systematic        
4-(2-furyl((4-methylphenyl)amino)methylene)-5-methyl-2-(4-methylphenyl)-2,4-dihydro-3H-pyrazol-3-one
_symmetry_cell_setting           triclinic
_symmetry_space_group_name_H-M   'P -1'
_symmetry_Int_Tables_number      2
_space_group_name_Hall           '-P 1'
loop_
_symmetry_equiv_pos_site_id
_symmetry_equiv_pos_as_xyz
1 x,y,z
2 -x,-y,-z
_cell_length_a                   10.305(3)
_cell_length_b                   10.4528(16)
_cell_length_c                   10.6351(17)
_cell_angle_alpha                113.368(3)
_cell_angle_beta                 101.139(4)
_cell_angle_gamma                101.310(4)
_cell_volume                     983.352
_exptl_crystal_colour            yellow
_exptl_crystal_description       block
_cell_formula_units_Z            2
loop_
_atom_site_label
_atom_site_type_symbol
_atom_site_fract_x
_atom_site_fract_y
_atom_site_fract_z
C1 C 0.1161(2) 0.2541(2) -0.1854(2)
C2 C 0.0298(2) 0.3146(2) -0.1105(2)
H1 H 0.0593 0.3614 -0.0106
C3 C -0.1008(2) 0.3051(2) -0.1852(3)
H2 H -0.1580 0.3462 -0.1341
C4 C -0.1483(2) 0.2361(2) -0.3337(2)
C5 C -0.2924(3) 0.2244(3) -0.4135(3)
H3 H -0.3562 0.1332 -0.4345
H4 H -0.2909 0.2291 -0.5016
H5 H -0.3212 0.3037 -0.3549
C6 C -0.0611(3) 0.1741(2) -0.4056(2)
H6 H -0.0915 0.1252 -0.5054
C7 C 0.0684(2) 0.1823(2) -0.3347(2)
H7 H 0.1245 0.1398 -0.3864
C8 C 0.3378(2) 0.3769(2) 0.0192(2)
C9 C 0.4617(2) 0.3343(2) 0.0423(2)
C10 C 0.4413(2) 0.2054(2) -0.0859(2)
C11 C 0.5384(3) 0.1193(3) -0.1306(3)
H8 H 0.5460 0.0617 -0.0797
H9 H 0.6281 0.1849 -0.1087
H10 H 0.5033 0.0560 -0.2320
C12 C 0.5697(2) 0.4136(2) 0.1720(2)
C13 C 0.6875(2) 0.3637(2) 0.2077(2)
C14 C 0.8255(3) 0.4271(3) 0.2570(3)
H11 H 0.8725 0.5223 0.2785
C15 C 0.8854(3) 0.3202(4) 0.2700(3)
H12 H 0.9797 0.3320 0.3008
C16 C 0.7837(3) 0.2018(3) 0.2308(3)
H13 H 0.7949 0.1153 0.2296
C17 C 0.6313(2) 0.6241(2) 0.4163(2)
C18 C 0.6545(2) 0.7733(2) 0.4769(2)
H14 H 0.6297 0.8172 0.4191
C19 C 0.7147(3) 0.8577(3) 0.6233(3)
H15 H 0.7297 0.9582 0.6628
C20 C 0.7530(2) 0.7957(3) 0.7122(2)
C21 C 0.8181(4) 0.8897(3) 0.8716(3)
H16 H 0.7466 0.8994 0.9176
H17 H 0.8717 0.9846 0.8893
H18 H 0.8775 0.8449 0.9094
C22 C 0.7271(3) 0.6464(3) 0.6507(3)
H19 H 0.7513 0.6025 0.7088
C23 C 0.6659(2) 0.5601(3) 0.5046(3)
H20 H 0.6480 0.4592 0.4657
H21 H 0.480(3) 0.561(3) 0.222(3)
N1 N 0.25096(19) 0.26655(19) -0.11167(18)
N2 N 0.3180(2) 0.16476(19) -0.17702(19)
N3 N 0.5637(2) 0.5422(2) 0.2661(2)
O1 O 0.31007(17) 0.48708(16) 0.09622(16)
O2 O 0.65852(18) 0.22381(17) 0.19167(18)
loop_
_geom_bond_atom_site_label_1
_geom_bond_atom_site_label_2
_geom_bond_site_symmetry_1
_geom_bond_site_symmetry_2
C1 C2 1_555 1_555
C2 H1 1_555 1_555
C3 C2 1_555 1_555
H2 C3 1_555 1_555
C4 C3 1_555 1_555
C5 C4 1_555 1_555
H3 C5 1_555 1_555
H4 C5 1_555 1_555
H5 C5 1_555 1_555
C6 C4 1_555 1_555
H6 C6 1_555 1_555
C7 C1 1_555 1_555
H7 C7 1_555 1_555
C8 C9 1_555 1_555
C9 C10 1_555 1_555
C10 C11 1_555 1_555
C11 H8 1_555 1_555
H9 C11 1_555 1_555
H10 C11 1_555 1_555
C12 C9 1_555 1_555
C13 C12 1_555 1_555
C14 C13 1_555 1_555
H11 C14 1_555 1_555
C15 C14 1_555 1_555
H12 C15 1_555 1_555
C16 C15 1_555 1_555
H13 C16 1_555 1_555
C17 C18 1_555 1_555
C18 H14 1_555 1_555
C19 C18 1_555 1_555
H15 C19 1_555 1_555
C20 C19 1_555 1_555
C21 C20 1_555 1_555
H16 C21 1_555 1_555
H17 C21 1_555 1_555
H18 C21 1_555 1_555
C22 C20 1_555 1_555
H19 C22 1_555 1_555
C23 C17 1_555 1_555
H20 C23 1_555 1_555
H21 N3 1_555 1_555
N1 C1 1_555 1_555
N2 C10 1_555 1_555
N3 C12 1_555 1_555
O1 C8 1_555 1_555
O2 C13 1_555 1_555
C6 C7 1_555 1_555
C8 N1 1_555 1_555
C16 O2 1_555 1_555
C17 N3 1_555 1_555
C22 C23 1_555 1_555
N1 N2 1_555 1_555

#END
