
#######################################################################
#
#                 Cambridge Crystallographic Data Centre
#                                CCDC 
#
#######################################################################
#
# If this CIF has been generated from an entry in the Cambridge 
# Structural Database, then it will include bibliographic, chemical, 
# crystal, experimental, refinement or atomic coordinate data resulting 
# from the CCDC's data processing and validation procedures.
#
#######################################################################

data_OKONEJ
_chemical_formula_moiety         'C16 H16 N3 1+,F6 P1 1-'
_chemical_name_systematic        
'3-benzyl-1-(6-methylpyridin-2-yl)-1H-imidazol-3-ium hexafluorophosphate'
_symmetry_cell_setting           monoclinic
_symmetry_space_group_name_H-M   'P 21/n'
_symmetry_Int_Tables_number      14
_space_group_name_Hall           '-P 2yn'
loop_
_symmetry_equiv_pos_site_id
_symmetry_equiv_pos_as_xyz
1 x,y,z
2 1/2-x,1/2+y,1/2-z
3 -x,-y,-z
4 1/2+x,1/2-y,1/2+z
_cell_length_a                   8.6414(8)
_cell_length_b                   20.755(2)
_cell_length_c                   10.1157(8)
_cell_angle_alpha                90
_cell_angle_beta                 104.686(9)
_cell_angle_gamma                90
_cell_volume                     1755
_cell_formula_units_Z            4
loop_
_atom_site_label
_atom_site_type_symbol
_atom_site_fract_x
_atom_site_fract_y
_atom_site_fract_z
C1 C 0.2040(5) 0.82814(17) 0.3001(4)
H1 H 0.2556 0.7912 0.2813
C2 C 0.0909(6) 0.8573(3) 0.1978(4)
H2 H 0.0665 0.8399 0.1102
C3 C 0.0161(6) 0.9096(3) 0.2223(6)
H3 H -0.0612 0.9285 0.1518
C4 C 0.0502(7) 0.9364(2) 0.3488(7)
H4 H -0.0013 0.9739 0.3644
C5 C 0.1624(5) 0.90745(18) 0.4544(4)
H5 H 0.1840 0.9249 0.5419
C6 C 0.2419(4) 0.85298(14) 0.4303(3)
C7 C 0.3723(4) 0.8219(2) 0.5371(4)
H6 H 0.4377 0.7960 0.4927
H7 H 0.4399 0.8552 0.5893
C8 C 0.3476(4) 0.78609(17) 0.7720(3)
H8 H 0.4108 0.8180 0.8237
C9 C 0.2766(4) 0.73753(17) 0.8196(3)
H9 H 0.2813 0.7293 0.9109
C10 C 0.2192(4) 0.72914(16) 0.5971(3)
H10 H 0.1783 0.7145 0.5082
C11 C 0.1049(3) 0.64397(14) 0.7108(3)
C12 C 0.1318(4) 0.60845(17) 0.8296(3)
H11 H 0.2076 0.6207 0.9084
C13 C 0.0407(5) 0.55416(18) 0.8252(4)
H12 H 0.0529 0.5284 0.9025
C14 C -0.0677(5) 0.53812(17) 0.7072(4)
H13 H -0.1303 0.5014 0.7039
C15 C -0.0857(4) 0.57628(15) 0.5914(4)
C16 C -0.2023(5) 0.5601(2) 0.4590(4)
H14 H -0.2805 0.5938 0.4351
H15 H -0.2549 0.5202 0.4683
H16 H -0.1465 0.5559 0.3887
N1 N 0.3103(3) 0.78027(14) 0.6324(3)
N2 N 0.1949(3) 0.70182(12) 0.7093(2)
N3 N 0.0020(3) 0.63001(12) 0.5938(2)
F1 F 0.1954(3) 0.65609(15) 0.3122(3)
F2 F 0.4490(3) 0.68487(11) 0.3512(2)
F3 F 0.2853(4) 0.69004(11) 0.1399(2)
F4 F 0.4795(4) 0.61601(17) 0.1904(4)
F5 F 0.2233(3) 0.58670(10) 0.1512(2)
F6 F 0.3857(3) 0.58059(11) 0.3610(2)
P1 P 0.33791(9) 0.63520(4) 0.25089(7)
loop_
_geom_bond_atom_site_label_1
_geom_bond_atom_site_label_2
_geom_bond_site_symmetry_1
_geom_bond_site_symmetry_2
C1 H1 1_555 1_555
C2 C1 1_555 1_555
H2 C2 1_555 1_555
C3 C2 1_555 1_555
H3 C3 1_555 1_555
C4 C3 1_555 1_555
H4 C4 1_555 1_555
C5 C4 1_555 1_555
H5 C5 1_555 1_555
C6 C1 1_555 1_555
C7 C6 1_555 1_555
H6 C7 1_555 1_555
H7 C7 1_555 1_555
C8 H8 1_555 1_555
C9 C8 1_555 1_555
H9 C9 1_555 1_555
C10 H10 1_555 1_555
C11 C12 1_555 1_555
C12 H11 1_555 1_555
C13 C12 1_555 1_555
H12 C13 1_555 1_555
C14 C13 1_555 1_555
H13 C14 1_555 1_555
C15 C14 1_555 1_555
C16 C15 1_555 1_555
H14 C16 1_555 1_555
H15 C16 1_555 1_555
H16 C16 1_555 1_555
N1 C7 1_555 1_555
N2 C9 1_555 1_555
N3 C11 1_555 1_555
F1 P1 1_555 1_555
F2 P1 1_555 1_555
F3 P1 1_555 1_555
F4 P1 1_555 1_555
F5 P1 1_555 1_555
F6 P1 1_555 1_555
C5 C6 1_555 1_555
C8 N1 1_555 1_555
C10 N1 1_555 1_555
C10 N2 1_555 1_555
C11 N2 1_555 1_555
C15 N3 1_555 1_555

#END
