
#######################################################################
#
#                 Cambridge Crystallographic Data Centre
#                                CCDC 
#
#######################################################################
#
# If this CIF has been generated from an entry in the Cambridge 
# Structural Database, then it will include bibliographic, chemical, 
# crystal, experimental, refinement or atomic coordinate data resulting 
# from the CCDC's data processing and validation procedures.
#
#######################################################################

data_OKONIN
_chemical_formula_moiety         'C36 H42 N8 O3'
_chemical_name_systematic        
1,4,12,15,18,26,31,39-octaazapentacyclo[13.13.13.1^6,10^.1^20,24^.1^33,37^]tetratetraconta-4,6(44),7,9,11,18,20(43),21,23,25,31,33(42),34,36,38-pentadecaene-7,21,34-triol
_symmetry_cell_setting           rhombohedral
_symmetry_space_group_name_H-M   'R -3'
_symmetry_Int_Tables_number      148
_space_group_name_Hall           '-R 3'
loop_
_symmetry_equiv_pos_site_id
_symmetry_equiv_pos_as_xyz
1 x,y,z
2 -y,x-y,z
3 -x+y,-x,z
4 2/3+x,1/3+y,1/3+z
5 2/3-y,1/3+x-y,1/3+z
6 2/3-x+y,1/3-x,1/3+z
7 1/3+x,2/3+y,2/3+z
8 1/3-y,2/3+x-y,2/3+z
9 1/3-x+y,2/3-x,2/3+z
10 -x,-y,-z
11 y,-x+y,-z
12 x-y,x,-z
13 1/3-x,2/3-y,2/3-z
14 1/3+y,2/3-x+y,2/3-z
15 1/3+x-y,2/3+x,2/3-z
16 2/3-x,1/3-y,1/3-z
17 2/3+y,1/3-x+y,1/3-z
18 2/3+x-y,1/3+x,1/3-z
_cell_length_a                   30.732(2)
_cell_length_b                   30.732(2)
_cell_length_c                   18.6315(15)
_cell_angle_alpha                90
_cell_angle_beta                 90
_cell_angle_gamma                120
_cell_volume                     15239.1
_exptl_crystal_colour            orange
_exptl_crystal_description       plate
_cell_formula_units_Z            18
loop_
_atom_site_label
_atom_site_type_symbol
_atom_site_fract_x
_atom_site_fract_y
_atom_site_fract_z
N1 N 0.26186(9) -0.03164(9) 0.97750(11)
N2 N 0.21299(9) 0.02853(9) 1.02623(13)
N3 N 0.14003(9) 0.16327(9) 0.78488(12)
N4 N 0.14914(7) 0.16594(8) 0.62298(10)
N5 N 0.10959(8) 0.05302(8) 0.62279(14)
N6 N 0.18394(9) -0.08283(9) 0.85898(12)
N7 N 0.33275(8) 0.05433(8) 0.87732(11)
N8 N 0.25542(7) 0.18421(8) 0.63343(11)
O1 O 0.07110(7) 0.08300(7) 0.84664(10)
H1 H 0.0834 0.1076 0.8201
O2 O 0.21196(10) -0.07041(12) 0.72738(17)
H2 H 0.2050 -0.0834 0.7672
O3 O 0.31183(9) 0.23069(9) 0.74044(13)
H3 H 0.2941 0.2253 0.7050
C1 C 0.24973(11) -0.02381(11) 1.05036(14)
H4 H 0.2714 -0.0278 1.0834
H5 H 0.2157 -0.0488 1.0611
C2 C 0.25545(11) 0.02750(12) 1.05992(14)
H6 H 0.2572 0.0359 1.1099
H7 H 0.2860 0.0520 1.0372
C3 C 0.22208(10) 0.05933(10) 0.97603(15)
H8 H 0.2552 0.0796 0.9614
C4 C 0.18262(10) 0.06449(10) 0.93973(14)
C5 C 0.13165(11) 0.03130(10) 0.95453(14)
H9 H 0.1227 0.0051 0.9867
C6 C 0.09465(11) 0.03724(10) 0.92175(15)
H10 H 0.0610 0.0146 0.9311
C7 C 0.10769(10) 0.07699(11) 0.87495(15)
C8 C 0.15847(10) 0.11074(10) 0.85860(13)
C9 C 0.19458(10) 0.10308(10) 0.89088(13)
H11 H 0.2282 0.1246 0.8795
C10 C 0.17228(10) 0.15300(10) 0.81120(14)
H12 H 0.2060 0.1735 0.7994
C11 C 0.15648(10) 0.20704(11) 0.73939(16)
H13 H 0.1921 0.2234 0.7318
H14 H 0.1490 0.2304 0.7627
C12 C 0.13031(10) 0.19210(10) 0.66774(15)
H15 H 0.0949 0.1707 0.6758
H16 H 0.1351 0.2214 0.6426
C13 C 0.11006(10) 0.12773(10) 0.57704(14)
H17 H 0.1255 0.1226 0.5357
H18 H 0.0881 0.1395 0.5609
C14 C 0.07991(9) 0.07786(10) 0.61514(15)
H19 H 0.0708 0.0842 0.6617
H20 H 0.0496 0.0563 0.5893
C15 C 0.11357(9) 0.03794(10) 0.68427(16)
H21 H 0.0982 0.0438 0.7231
C16 C 0.14151(9) 0.01158(9) 0.69637(14)
C17 C 0.16637(9) 0.00302(10) 0.63935(15)
C18 C 0.19097(9) -0.02373(10) 0.65131(14)
H22 H 0.2079 -0.0287 0.6137
C19 C 0.19062(10) -0.04316(10) 0.71862(15)
C20 C 0.16601(9) -0.03483(9) 0.77629(13)
C21 C 0.14214(9) -0.00721(9) 0.76377(14)
H23 H 0.1262 -0.0012 0.8017
C22 C 0.16475(10) -0.05504(10) 0.84757(14)
H24 H 0.1497 -0.0476 0.8853
C23 C 0.18221(12) -0.10197(11) 0.93143(15)
H25 H 0.1630 -0.1380 0.9308
H26 H 0.1659 -0.0900 0.9632
C24 C 0.23478(12) -0.08445(12) 0.95855(15)
H27 H 0.2330 -0.1038 1.0000
H28 H 0.2530 -0.0906 0.9219
C25 C 0.31581(11) -0.00954(11) 0.96812(13)
H29 H 0.3260 -0.0331 0.9825
H30 H 0.3324 0.0195 0.9986
C26 C 0.33208(11) 0.00753(11) 0.89142(14)
H31 H 0.3648 0.0118 0.8828
H32 H 0.3086 -0.0181 0.8596
C27 C 0.30571(9) 0.05568(10) 0.82707(14)
H33 H 0.2852 0.0262 0.8020
C28 C 0.30531(8) 0.10129(9) 0.80682(12)
C29 C 0.33257(9) 0.14616(10) 0.84576(14)
C30 C 0.33410(9) 0.18946(10) 0.82281(14)
H34 H 0.3524 0.2189 0.8490
C31 C 0.30877(9) 0.19016(10) 0.76110(13)
C32 C 0.28067(8) 0.14505(9) 0.72216(12)
C33 C 0.27961(8) 0.10182(9) 0.74606(12)
H35 H 0.2610 0.0722 0.7204
C34 C 0.25414(8) 0.14488(10) 0.65711(12)
H36 H 0.2356 0.1149 0.6321
C35 C 0.22873(9) 0.18205(10) 0.56728(12)
H37 H 0.2100 0.1479 0.5508
H38 H 0.2524 0.2018 0.5307
C36 C 0.19308(9) 0.20138(10) 0.58130(13)
H39 H 0.2108 0.2324 0.6073
H40 H 0.1820 0.2081 0.5367
O4? O 0.16453(18) 0.01968(18) 0.5799(2)
H41? H 0.1931 0.0392 0.5660
O5? O 0.35391(17) 0.1491(2) 0.9058(3)
H42? H 0.3679 0.1782 0.9201
loop_
_geom_bond_atom_site_label_1
_geom_bond_atom_site_label_2
_geom_bond_site_symmetry_1
_geom_bond_site_symmetry_2
N1 C1 1_555 1_555
N2 C2 1_555 1_555
N3 C10 1_555 1_555
N4 C12 1_555 1_555
N5 C14 1_555 1_555
N6 C22 1_555 1_555
N7 C26 1_555 1_555
N8 C34 1_555 1_555
O1 H1 1_555 1_555
O2 H2 1_555 1_555
O3 H3 1_555 1_555
C1 H4 1_555 1_555
H5 C1 1_555 1_555
C2 C1 1_555 1_555
H6 C2 1_555 1_555
H7 C2 1_555 1_555
C3 N2 1_555 1_555
H8 C3 1_555 1_555
C4 C3 1_555 1_555
C5 C4 1_555 1_555
H9 C5 1_555 1_555
C6 C5 1_555 1_555
H10 C6 1_555 1_555
C7 O1 1_555 1_555
C8 C7 1_555 1_555
C9 C4 1_555 1_555
H11 C9 1_555 1_555
C10 C8 1_555 1_555
H12 C10 1_555 1_555
C11 N3 1_555 1_555
H13 C11 1_555 1_555
H14 C11 1_555 1_555
C12 C11 1_555 1_555
H15 C12 1_555 1_555
H16 C12 1_555 1_555
C13 N4 1_555 1_555
H17 C13 1_555 1_555
H18 C13 1_555 1_555
C14 C13 1_555 1_555
H19 C14 1_555 1_555
H20 C14 1_555 1_555
C15 N5 1_555 1_555
H21 C15 1_555 1_555
C16 C15 1_555 1_555
C17 C16 1_555 1_555
C18 C17 1_555 1_555
H22 C18 1_555 1_555
C19 O2 1_555 1_555
C20 C19 1_555 1_555
C21 C16 1_555 1_555
H23 C21 1_555 1_555
C22 C20 1_555 1_555
H24 C22 1_555 1_555
C23 N6 1_555 1_555
H25 C23 1_555 1_555
H26 C23 1_555 1_555
C24 N1 1_555 1_555
H27 C24 1_555 1_555
H28 C24 1_555 1_555
C25 N1 1_555 1_555
H29 C25 1_555 1_555
H30 C25 1_555 1_555
C26 C25 1_555 1_555
H31 C26 1_555 1_555
H32 C26 1_555 1_555
C27 N7 1_555 1_555
H33 C27 1_555 1_555
C28 C27 1_555 1_555
C29 C28 1_555 1_555
C30 C29 1_555 1_555
H34 C30 1_555 1_555
C31 O3 1_555 1_555
C32 C31 1_555 1_555
C33 C28 1_555 1_555
H35 C33 1_555 1_555
C34 C32 1_555 1_555
H36 C34 1_555 1_555
C35 N8 1_555 1_555
H37 C35 1_555 1_555
H38 C35 1_555 1_555
C36 N4 1_555 1_555
H39 C36 1_555 1_555
H40 C36 1_555 1_555
C6 C7 1_555 1_555
C8 C9 1_555 1_555
C18 C19 1_555 1_555
C20 C21 1_555 1_555
C23 C24 1_555 1_555
C30 C31 1_555 1_555
C32 C33 1_555 1_555
C35 C36 1_555 1_555

#END
