
#######################################################################
#
#                 Cambridge Crystallographic Data Centre
#                                CCDC 
#
#######################################################################
#
# If this CIF has been generated from an entry in the Cambridge 
# Structural Database, then it will include bibliographic, chemical, 
# crystal, experimental, refinement or atomic coordinate data resulting 
# from the CCDC's data processing and validation procedures.
#
#######################################################################

data_OKOREN
_chemical_formula_moiety         'C46 H32 N2 O2 S1'
_chemical_name_systematic        
4,4'-Thieno[3,4-b][1,4]benzodioxine-1,3-diylbis(N,N-diphenylaniline)
_symmetry_cell_setting           triclinic
_symmetry_space_group_name_H-M   'P -1'
_symmetry_Int_Tables_number      2
_space_group_name_Hall           '-P 1'
loop_
_symmetry_equiv_pos_site_id
_symmetry_equiv_pos_as_xyz
1 x,y,z
2 -x,-y,-z
_cell_length_a                   9.4695(4)
_cell_length_b                   12.3613(5)
_cell_length_c                   15.2132(8)
_cell_angle_alpha                94.517(4)
_cell_angle_beta                 107.831(4)
_cell_angle_gamma                97.947(3)
_cell_volume                     1665.06
_exptl_crystal_description       block
_cell_formula_units_Z            2
_chemical_properties_physical    Oxygen-sensitive
_exptl_crystal_recrystallization_method dichloromethane
loop_
_atom_site_label
_atom_site_type_symbol
_atom_site_fract_x
_atom_site_fract_y
_atom_site_fract_z
S1 S 0.28466(4) 0.05606(3) 0.05065(3)
O1 O 0.02629(13) 0.27411(9) -0.01207(8)
O2 O -0.04301(12) 0.14768(9) 0.12558(8)
N1 N 0.18241(16) -0.24120(11) 0.38779(10)
N2 N 0.42073(15) 0.35581(11) -0.28474(9)
C1 C 0.17585(18) -0.16971(13) 0.31800(11)
C2 C -0.09676(17) 0.28337(13) 0.01725(11)
C3 C 0.38363(17) 0.30270(13) -0.37696(11)
C4 C 0.06915(17) 0.12882(13) 0.08844(11)
C5 C 0.24852(18) -0.10948(13) 0.18930(12)
H1 H 0.3020 -0.1178 0.1479
C6 C 0.08178(19) -0.01660(14) 0.24524(12)
H2 H 0.0226 0.0380 0.2420
C7 C 0.32155(17) 0.36929(13) -0.15474(12)
H3 H 0.3175 0.4432 -0.1607
C8 C 0.46241(18) 0.47370(13) -0.27191(11)
C9 C 0.27453(18) 0.32231(13) -0.08703(11)
H4 H 0.2403 0.3655 -0.0477
C10 C -0.13208(17) 0.22185(13) 0.08245(11)
C11 C 0.25616(18) -0.18022(13) 0.25603(12)
H5 H 0.3152 -0.2349 0.2594
C12 C 0.27711(17) 0.21143(13) -0.07619(11)
C13 C 0.13245(17) -0.35554(13) 0.36239(12)
C14 C 0.37508(17) 0.30743(13) -0.21442(11)
C15 C -0.18577(19) 0.35845(14) -0.02147(12)
H6 H -0.1615 0.4002 -0.0647
C16 C 0.16215(17) -0.02579(13) 0.18285(11)
C17 C 0.3561(2) 0.53924(14) -0.30715(12)
H7 H 0.2569 0.5074 -0.3397
C18 C -0.25684(18) 0.23452(14) 0.10826(12)
H8 H -0.2807 0.1931 0.1518
C19 C 0.04889(18) -0.39851(14) 0.27065(12)
H9 H 0.0227 -0.3514 0.2258
C20 C 0.38600(18) 0.19807(13) -0.20053(12)
H10 H 0.4266 0.1563 -0.2372
C21 C 0.10255(17) 0.19069(13) 0.02106(11)
C22 C 0.15804(17) 0.05092(13) 0.11356(11)
C23 C 0.08865(19) -0.08735(14) 0.31176(12)
H11 H 0.0343 -0.0797 0.3528
C24 C 0.21397(19) -0.18978(13) 0.48060(12)
C25 C 0.21619(17) 0.16260(13) -0.00793(11)
C26 C 0.16736(19) -0.42796(14) 0.42882(13)
H12 H 0.2219 -0.4006 0.4904
C27 C 0.33747(18) 0.15111(13) -0.13320(12)
H13 H 0.3451 0.0780 -0.1256
C28 C -0.31085(19) 0.37114(15) 0.00444(12)
H14 H -0.3711 0.4213 -0.0215
C29 C 0.2778(2) 0.20732(15) -0.41130(13)
H15 H 0.2286 0.1751 -0.3731
C30 C 0.2452(2) 0.15982(16) -0.50260(14)
H16 H 0.1763 0.0946 -0.5243
C31 C 0.00505(19) -0.51123(15) 0.24641(14)
H17 H -0.0493 -0.5393 0.1849
C32 C -0.34659(19) 0.30906(15) 0.06914(12)
H18 H -0.4310 0.3175 0.0863
C33 C 0.4174(2) 0.30250(17) -0.52771(14)
H19 H 0.4638 0.3356 -0.5669
C34 C 0.1211(2) -0.54001(14) 0.40326(14)
H20 H 0.1444 -0.5875 0.4481
C35 C 0.0408(2) -0.58258(15) 0.31200(15)
H21 H 0.0112 -0.6582 0.2951
C36 C 0.4540(2) 0.34926(15) -0.43635(12)
H22 H 0.5266 0.4125 -0.4143
C37 C 0.3474(2) -0.11670(14) 0.52208(13)
H23 H 0.4166 -0.1037 0.4904
C38 C 0.3125(2) 0.20726(17) -0.56148(14)
H24 H 0.2880 0.1758 -0.6230
C39 C 0.6101(2) 0.52131(16) -0.22479(13)
H25 H 0.6814 0.4772 -0.2013
C40 C 0.3993(3) 0.65275(16) -0.29330(14)
H26 H 0.3283 0.6973 -0.3162
C41 C 0.1113(2) -0.20866(15) 0.52838(14)
H27 H 0.0218 -0.2581 0.5012
C42 C 0.1432(3) -0.15325(17) 0.61706(15)
H28 H 0.0741 -0.1654 0.6490
C43 C 0.3774(3) -0.06291(16) 0.61114(14)
H29 H 0.4674 -0.0143 0.6392
C44 C 0.2749(3) -0.08101(16) 0.65799(15)
H30 H 0.2951 -0.0442 0.7174
C45 C 0.6516(3) 0.63399(18) -0.21270(15)
H31 H 0.7514 0.6659 -0.1818
C46 C 0.5460(3) 0.70002(16) -0.24607(15)
H32 H 0.5741 0.7762 -0.2366
loop_
_geom_bond_atom_site_label_1
_geom_bond_atom_site_label_2
_geom_bond_site_symmetry_1
_geom_bond_site_symmetry_2
S1 C22 1_555 1_555
O1 C2 1_555 1_555
O2 C4 1_555 1_555
N1 C1 1_555 1_555
N2 C3 1_555 1_555
C1 C11 1_555 1_555
C2 C10 1_555 1_555
C3 C29 1_555 1_555
C4 C21 1_555 1_555
C5 H1 1_555 1_555
C6 H2 1_555 1_555
C7 H3 1_555 1_555
C8 N2 1_555 1_555
C9 C7 1_555 1_555
H4 C9 1_555 1_555
C10 O2 1_555 1_555
C11 C5 1_555 1_555
H5 C11 1_555 1_555
C12 C9 1_555 1_555
C13 N1 1_555 1_555
C14 N2 1_555 1_555
C15 C2 1_555 1_555
H6 C15 1_555 1_555
C16 C5 1_555 1_555
C17 C8 1_555 1_555
H7 C17 1_555 1_555
C18 C10 1_555 1_555
H8 C18 1_555 1_555
C19 C13 1_555 1_555
H9 C19 1_555 1_555
C20 C14 1_555 1_555
H10 C20 1_555 1_555
C21 O1 1_555 1_555
C22 C4 1_555 1_555
C23 C1 1_555 1_555
H11 C23 1_555 1_555
C24 N1 1_555 1_555
C25 S1 1_555 1_555
C26 C13 1_555 1_555
H12 C26 1_555 1_555
C27 C12 1_555 1_555
H13 C27 1_555 1_555
C28 C15 1_555 1_555
H14 C28 1_555 1_555
C29 H15 1_555 1_555
C30 C29 1_555 1_555
H16 C30 1_555 1_555
C31 C19 1_555 1_555
H17 C31 1_555 1_555
C32 C18 1_555 1_555
H18 C32 1_555 1_555
C33 H19 1_555 1_555
C34 C26 1_555 1_555
H20 C34 1_555 1_555
C35 C31 1_555 1_555
H21 C35 1_555 1_555
C36 C3 1_555 1_555
H22 C36 1_555 1_555
C37 C24 1_555 1_555
H23 C37 1_555 1_555
C38 C30 1_555 1_555
H24 C38 1_555 1_555
C39 C8 1_555 1_555
H25 C39 1_555 1_555
C40 C17 1_555 1_555
H26 C40 1_555 1_555
C41 C24 1_555 1_555
H27 C41 1_555 1_555
C42 C41 1_555 1_555
H28 C42 1_555 1_555
C43 C37 1_555 1_555
H29 C43 1_555 1_555
C44 C42 1_555 1_555
H30 C44 1_555 1_555
C45 C39 1_555 1_555
H31 C45 1_555 1_555
C46 C40 1_555 1_555
H32 C46 1_555 1_555
C6 C16 1_555 1_555
C6 C23 1_555 1_555
C7 C14 1_555 1_555
C12 C25 1_555 1_555
C16 C22 1_555 1_555
C20 C27 1_555 1_555
C21 C25 1_555 1_555
C28 C32 1_555 1_555
C33 C36 1_555 1_555
C33 C38 1_555 1_555
C34 C35 1_555 1_555
C43 C44 1_555 1_555
C45 C46 1_555 1_555

#END
