
#######################################################################
#
#                 Cambridge Crystallographic Data Centre
#                                CCDC 
#
#######################################################################
#
# If this CIF has been generated from an entry in the Cambridge 
# Structural Database, then it will include bibliographic, chemical, 
# crystal, experimental, refinement or atomic coordinate data resulting 
# from the CCDC's data processing and validation procedures.
#
#######################################################################

data_OKOXIV
_chemical_formula_moiety         'C13 H13 Cl1 N2 O3'
_chemical_name_systematic        
4-(4-Chlorophenyl)-6-methyl-5-(methoxycarbonyl)-3,4-dihydropyrimidin-2(H)-one
_symmetry_cell_setting           triclinic
_symmetry_space_group_name_H-M   'P -1'
_symmetry_Int_Tables_number      2
_space_group_name_Hall           '-P 1'
loop_
_symmetry_equiv_pos_site_id
_symmetry_equiv_pos_as_xyz
1 x,y,z
2 -x,-y,-z
_cell_length_a                   5.4513(4)
_cell_length_b                   7.619(1)
_cell_length_c                   16.118(4)
_cell_angle_alpha                80.42(1)
_cell_angle_beta                 83.43(1)
_cell_angle_gamma                79.29(1)
_cell_volume                     646.189
_exptl_crystal_colour            colorless
_exptl_crystal_description       block
_chemical_melting_point          479-481K
_cell_formula_units_Z            2
_exptl_crystal_recrystallization_method '95% EtOH'
loop_
_atom_site_label
_atom_site_type_symbol
_atom_site_fract_x
_atom_site_fract_y
_atom_site_fract_z
Cl1 Cl 0.27536(18) 0.22524(11) 0.53470(5)
O1 O 0.3091(4) 0.3329(2) 0.04389(11)
O2 O -0.4109(3) 0.8487(2) 0.24982(11)
O3 O -0.1840(3) 1.0542(2) 0.18453(12)
N1 N 0.2798(4) 0.6121(2) 0.07827(12)
H1 H 0.4272 0.6200 0.0541
N2 N -0.0113(4) 0.4346(2) 0.13568(11)
H2 H -0.0889 0.3481 0.1320
C1 C 0.1608(5) 0.3230(3) 0.43793(15)
C2 C -0.0274(5) 0.2584(3) 0.40950(17)
H3 H -0.0957 0.1634 0.4419
C3 C -0.1147(5) 0.3353(3) 0.33252(15)
H4 H -0.2414 0.2903 0.3132
C4 C -0.0178(4) 0.4784(3) 0.28318(13)
C5 C 0.1723(4) 0.5399(3) 0.31372(15)
H5 H 0.2419 0.6347 0.2817
C6 C 0.2614(5) 0.4633(3) 0.39110(17)
H6 H 0.3885 0.5070 0.4110
C7 C -0.1161(4) 0.5556(3) 0.19758(13)
H7 H -0.2984 0.5625 0.2038
C8 C -0.0602(4) 0.7442(3) 0.16429(13)
C9 C 0.1404(4) 0.7628(3) 0.10833(13)
C10 C 0.1969(5) 0.4504(3) 0.08474(14)
C11 C -0.2157(4) 0.8987(3) 0.19812(14)
C12 C -0.5807(5) 0.9918(3) 0.28566(18)
H8 H -0.4934 1.0433 0.3215
H9 H -0.7183 0.9435 0.3183
H10 H -0.6432 1.0835 0.2411
C13 C 0.2406(5) 0.9313(3) 0.07237(15)
H11 H 0.1240 1.0341 0.0878
H12 H 0.2640 0.9405 0.0120
H13 H 0.3982 0.9279 0.0943
loop_
_geom_bond_atom_site_label_1
_geom_bond_atom_site_label_2
_geom_bond_site_symmetry_1
_geom_bond_site_symmetry_2
Cl1 C1 1_555 1_555
O1 C10 1_555 1_555
O2 C11 1_555 1_555
O3 C11 1_555 1_555
N1 H1 1_555 1_555
N2 H2 1_555 1_555
C1 C2 1_555 1_555
C2 H3 1_555 1_555
C3 C2 1_555 1_555
H4 C3 1_555 1_555
C4 C3 1_555 1_555
C5 C4 1_555 1_555
H5 C5 1_555 1_555
C6 C1 1_555 1_555
H6 C6 1_555 1_555
C7 N2 1_555 1_555
H7 C7 1_555 1_555
C8 C7 1_555 1_555
C9 N1 1_555 1_555
C10 N1 1_555 1_555
C11 C8 1_555 1_555
C12 O2 1_555 1_555
H8 C12 1_555 1_555
H9 C12 1_555 1_555
H10 C12 1_555 1_555
C13 C9 1_555 1_555
H11 C13 1_555 1_555
H12 C13 1_555 1_555
H13 C13 1_555 1_555
N2 C10 1_555 1_555
C4 C7 1_555 1_555
C5 C6 1_555 1_555
C8 C9 1_555 1_555

#END
