
#######################################################################
#
#                 Cambridge Crystallographic Data Centre
#                                CCDC 
#
#######################################################################
#
# If this CIF has been generated from an entry in the Cambridge 
# Structural Database, then it will include bibliographic, chemical, 
# crystal, experimental, refinement or atomic coordinate data resulting 
# from the CCDC's data processing and validation procedures.
#
#######################################################################

data_OKOYEU
_chemical_compound_source        
'Bromobenzoyl derivative from the marine-derived actinomycete strain Pseudonocardia sp. YIM M13669.'
_chemical_formula_moiety         'C28 H30 Br2 O6'
_chemical_name_systematic        
'1-(5-Oxotetrahydrofuran-2-yl)dec-3-ene-1,2-diyl bis(4-bromobenzoate)'
_symmetry_cell_setting           orthorhombic
_symmetry_space_group_name_H-M   'P 21 21 21'
_symmetry_Int_Tables_number      19
_space_group_name_Hall           'P 2ac 2ab'
loop_
_symmetry_equiv_pos_site_id
_symmetry_equiv_pos_as_xyz
1 x,y,z
2 1/2-x,-y,1/2+z
3 -x,1/2+y,1/2-z
4 1/2+x,1/2-y,-z
_cell_length_a                   7.7693(5)
_cell_length_b                   9.6529(6)
_cell_length_c                   34.705(3)
_cell_angle_alpha                90
_cell_angle_beta                 90
_cell_angle_gamma                90
_cell_volume                     2602.75
_cell_formula_units_Z            4
_exptl_crystal_recrystallization_method dichloromethane/methanol
loop_
_atom_site_label
_atom_site_type_symbol
_atom_site_fract_x
_atom_site_fract_y
_atom_site_fract_z
Br1 Br 0.9791(2) -0.20617(18) 0.31551(7)
Br2 Br 0.1102(3) 1.34012(19) 0.39992(6)
O1 O 0.5268(17) 0.5723(12) 0.2636(3)
O2 O 0.547(2) 0.4216(17) 0.2169(4)
O3 O 0.6423(14) 0.4189(11) 0.3295(3)
O4 O 0.8766(18) 0.4775(12) 0.2995(4)
O5 O 0.4542(15) 0.7211(10) 0.3703(3)
O6 O 0.260(2) 0.6565(13) 0.4126(4)
C1 C 0.480(3) 0.4594(19) 0.2459(6)
C2 C 0.356(3) 0.3738(19) 0.2680(5)
H1 H 0.4097 0.2903 0.2778
H2 H 0.2572 0.3486 0.2524
C3 C 0.304(3) 0.470(2) 0.3006(5)
H3 H 0.3008 0.4207 0.3250
H4 H 0.1919 0.5107 0.2959
C4 C 0.445(2) 0.5807(18) 0.3007(5)
H5 H 0.3937 0.6726 0.3042
C5 C 0.578(2) 0.5576(17) 0.3293(5)
H6 H 0.6744 0.6199 0.3235
C6 C 0.521(3) 0.5848(17) 0.3693(5)
H7 H 0.4383 0.5158 0.3785
C7 C 0.670(3) 0.593(2) 0.3932(6)
H8 H 0.7544 0.6537 0.3844
C8 C 0.704(3) 0.534(2) 0.4233(7)
H9 H 0.8152 0.5450 0.4329
C9 C 0.584(4) 0.445(3) 0.4464(7)
H10 H 0.4687 0.4507 0.4356
H11 H 0.5793 0.4779 0.4727
C10 C 0.644(4) 0.296(3) 0.4457(8)
H12 H 0.7645 0.2933 0.4533
H13 H 0.6370 0.2615 0.4195
C11 C 0.544(4) 0.198(3) 0.4719(8)
H14 H 0.4296 0.1815 0.4615
H15 H 0.5320 0.2378 0.4975
C12 C 0.647(5) 0.063(4) 0.4735(9)
H16 H 0.6928 0.0437 0.4481
H17 H 0.7437 0.0754 0.4908
C13 C 0.542(5) -0.060(4) 0.4868(9)
H18 H 0.4395 -0.0696 0.4710
H19 H 0.5061 -0.0471 0.5134
C14 C 0.656(5) -0.188(4) 0.4831(10)
H20 H 0.6770 -0.2071 0.4563
H21 H 0.5995 -0.2663 0.4946
H22 H 0.7637 -0.1720 0.4959
C15 C 0.795(2) 0.3974(18) 0.3137(5)
C16 C 0.8291(19) 0.2476(16) 0.3150(5)
C17 C 0.958(2) 0.1977(18) 0.2920(5)
H23 H 1.0176 0.2583 0.2760
C18 C 0.999(3) 0.0628(17) 0.2921(5)
H24 H 1.0805 0.0279 0.2750
C19 C 0.923(2) -0.0175(16) 0.3164(5)
C20 C 0.796(2) 0.0277(17) 0.3398(5)
H25 H 0.7415 -0.0326 0.3567
C21 C 0.752(2) 0.1564(18) 0.3381(5)
H26 H 0.6631 0.1870 0.3538
C22 C 0.324(2) 0.7487(19) 0.3927(5)
C23 C 0.270(2) 0.8850(17) 0.3933(5)
C24 C 0.337(2) 0.9826(16) 0.3681(4)
H27 H 0.4189 0.9556 0.3501
C25 C 0.287(2) 1.1146(17) 0.3694(5)
H28 H 0.3288 1.1790 0.3519
C26 C 0.1720(19) 1.1524(16) 0.3970(5)
C27 C 0.095(3) 1.0607(17) 0.4211(5)
H29 H 0.0073 1.0867 0.4378
C28 C 0.155(2) 0.9272(17) 0.4193(5)
H30 H 0.1145 0.8633 0.4372
loop_
_geom_bond_atom_site_label_1
_geom_bond_atom_site_label_2
_geom_bond_site_symmetry_1
_geom_bond_site_symmetry_2
Br1 C19 1_555 1_555
Br2 C26 1_555 1_555
O1 C1 1_555 1_555
O2 C1 1_555 1_555
O3 C5 1_555 1_555
O4 C15 1_555 1_555
O5 C6 1_555 1_555
O6 C22 1_555 1_555
C1 C2 1_555 1_555
C2 H1 1_555 1_555
H2 C2 1_555 1_555
C3 C2 1_555 1_555
H3 C3 1_555 1_555
H4 C3 1_555 1_555
C4 O1 1_555 1_555
H5 C4 1_555 1_555
C5 C4 1_555 1_555
H6 C5 1_555 1_555
C6 C5 1_555 1_555
H7 C6 1_555 1_555
C7 C6 1_555 1_555
H8 C7 1_555 1_555
C8 C7 1_555 1_555
H9 C8 1_555 1_555
C9 C8 1_555 1_555
H10 C9 1_555 1_555
H11 C9 1_555 1_555
C10 C9 1_555 1_555
H12 C10 1_555 1_555
H13 C10 1_555 1_555
C11 C10 1_555 1_555
H14 C11 1_555 1_555
H15 C11 1_555 1_555
C12 C11 1_555 1_555
H16 C12 1_555 1_555
H17 C12 1_555 1_555
C13 C12 1_555 1_555
H18 C13 1_555 1_555
H19 C13 1_555 1_555
C14 C13 1_555 1_555
H20 C14 1_555 1_555
H21 C14 1_555 1_555
H22 C14 1_555 1_555
C15 O3 1_555 1_555
C16 C15 1_555 1_555
C17 C16 1_555 1_555
H23 C17 1_555 1_555
C18 C17 1_555 1_555
H24 C18 1_555 1_555
C19 C18 1_555 1_555
C20 C19 1_555 1_555
H25 C20 1_555 1_555
C21 C16 1_555 1_555
H26 C21 1_555 1_555
C22 O5 1_555 1_555
C23 C22 1_555 1_555
C24 C23 1_555 1_555
H27 C24 1_555 1_555
C25 C24 1_555 1_555
H28 C25 1_555 1_555
C26 C25 1_555 1_555
C27 C26 1_555 1_555
H29 C27 1_555 1_555
C28 C23 1_555 1_555
H30 C28 1_555 1_555
C3 C4 1_555 1_555
C20 C21 1_555 1_555
C27 C28 1_555 1_555

#END
