
#######################################################################
#
#                 Cambridge Crystallographic Data Centre
#                                CCDC 
#
#######################################################################
#
# If this CIF has been generated from an entry in the Cambridge 
# Structural Database, then it will include bibliographic, chemical, 
# crystal, experimental, refinement or atomic coordinate data resulting 
# from the CCDC's data processing and validation procedures.
#
#######################################################################

data_OKUCEC
_chemical_formula_moiety         'C19 H17 N1 O2'
_chemical_name_systematic        
5-Methoxy-7-phenyl-7-(2-pyridyl)tricyclo(2.2.1.0^2,6^)heptan-3-one
_symmetry_cell_setting           orthorhombic
_symmetry_space_group_name_H-M   'P 21 21 21'
_symmetry_Int_Tables_number      19
_space_group_name_Hall           'P 2ac 2ab'
loop_
_symmetry_equiv_pos_site_id
_symmetry_equiv_pos_as_xyz
1 x,y,z
2 1/2-x,-y,1/2+z
3 -x,1/2+y,1/2-z
4 1/2+x,1/2-y,-z
_cell_length_a                   6.1964(14)
_cell_length_b                   13.703(3)
_cell_length_c                   16.864(4)
_cell_angle_alpha                90
_cell_angle_beta                 90
_cell_angle_gamma                90
_cell_volume                     1431.91
_exptl_crystal_colour            colorless
_cell_formula_units_Z            4
loop_
_atom_site_label
_atom_site_type_symbol
_atom_site_fract_x
_atom_site_fract_y
_atom_site_fract_z
O1 O 1.2320(3) 0.21751(13) 0.63859(9)
O2 O 1.2798(3) 0.42391(12) 0.51642(10)
N1 N 0.6168(3) 0.41229(15) 0.75588(11)
C1 C 1.3826(5) 0.1942(2) 0.69943(16)
C2 C 0.9028(4) 0.44257(17) 0.65982(13)
C3 C 0.7779(4) 0.37400(18) 0.60405(13)
C4 C 1.0680(4) 0.28236(19) 0.66271(14)
C5 C 0.9315(4) 0.34561(18) 0.53700(14)
C6 C 0.8603(5) 0.48184(18) 0.88202(14)
C7 C 0.8980(4) 0.54819(18) 0.63132(13)
C8 C 0.8199(4) 0.44198(17) 0.74505(13)
C9 C 1.0762(4) 0.60910(19) 0.63961(15)
C10 C 0.9457(4) 0.47764(18) 0.80677(15)
C11 C 1.0647(5) 0.7062(2) 0.61754(17)
C12 C 0.7083(4) 0.58646(19) 0.60043(13)
C13 C 1.1385(4) 0.39167(17) 0.55810(13)
C14 C 0.8760(5) 0.7434(2) 0.58745(15)
C15 C 0.6971(5) 0.68423(19) 0.57904(14)
C16 C 0.5385(4) 0.41635(19) 0.82994(15)
C17 C 0.6523(5) 0.45011(18) 0.89448(14)
C18 C 1.1257(4) 0.39140(17) 0.64952(13)
C19 C 0.8817(4) 0.27662(18) 0.60575(13)
H1 H 0.624(5) 0.3834(19) 0.5943(15)
H2 H 1.252(4) 0.4165(16) 0.6762(13)
H3 H 1.025(4) 0.2691(19) 0.7171(15)
H4 H 0.391(4) 0.3967(17) 0.8341(14)
H5 H 1.215(6) 0.582(2) 0.6591(18)
H6 H 1.179(5) 0.746(2) 0.6195(18)
H7 H 0.585(5) 0.544(2) 0.5935(17)
H8 H 0.881(4) 0.3318(16) 0.4864(15)
H9 H 0.874(5) 0.809(2) 0.5717(16)
H10 H 0.800(4) 0.214(2) 0.5951(14)
H11 H 0.587(4) 0.4521(17) 0.9439(15)
H12 H 1.467(5) 0.250(2) 0.7136(16)
H13 H 1.095(4) 0.4992(18) 0.7973(14)
H14 H 1.482(5) 0.143(2) 0.6789(19)
H15 H 0.946(5) 0.507(2) 0.9223(17)
H16 H 1.305(6) 0.174(2) 0.744(2)
H17 H 0.568(6) 0.709(3) 0.558(2)
loop_
_geom_bond_atom_site_label_1
_geom_bond_atom_site_label_2
_geom_bond_site_symmetry_1
_geom_bond_site_symmetry_2
O1 C1 1_555 1_555
O2 C13 1_555 1_555
N1 C8 1_555 1_555
C1 H12 1_555 1_555
C2 C3 1_555 1_555
C3 C5 1_555 1_555
C4 O1 1_555 1_555
C5 C13 1_555 1_555
C6 C10 1_555 1_555
C7 C2 1_555 1_555
C8 C2 1_555 1_555
C9 C7 1_555 1_555
C10 C8 1_555 1_555
C11 C9 1_555 1_555
C12 C7 1_555 1_555
C13 C18 1_555 1_555
C14 C11 1_555 1_555
C15 C12 1_555 1_555
C16 N1 1_555 1_555
C17 C6 1_555 1_555
C18 C2 1_555 1_555
C19 C3 1_555 1_555
H1 C3 1_555 1_555
H2 C18 1_555 1_555
H3 C4 1_555 1_555
H4 C16 1_555 1_555
H5 C9 1_555 1_555
H6 C11 1_555 1_555
H7 C12 1_555 1_555
H8 C5 1_555 1_555
H9 C14 1_555 1_555
H10 C19 1_555 1_555
H11 C17 1_555 1_555
H13 C10 1_555 1_555
H14 C1 1_555 1_555
H15 C6 1_555 1_555
H16 C1 1_555 1_555
H17 C15 1_555 1_555
C4 C18 1_555 1_555
C4 C19 1_555 1_555
C5 C19 1_555 1_555
C14 C15 1_555 1_555
C16 C17 1_555 1_555

#END
