
#######################################################################
#
#                 Cambridge Crystallographic Data Centre
#                                CCDC 
#
#######################################################################
#
# If this CIF has been generated from an entry in the Cambridge 
# Structural Database, then it will include bibliographic, chemical, 
# crystal, experimental, refinement or atomic coordinate data resulting 
# from the CCDC's data processing and validation procedures.
#
#######################################################################

data_OKUCIH
_chemical_formula_moiety         'C32 H44 N12'
_chemical_name_systematic        
2,4,6,8-tetrabutyl-2,4,6,8-tetraaza-1,3,5,7(4,6)-tetrapyrimidinacyclooctaphane
_symmetry_cell_setting           monoclinic
_symmetry_space_group_name_H-M   'P 21/c'
_symmetry_Int_Tables_number      14
_space_group_name_Hall           '-P 2ybc'
loop_
_symmetry_equiv_pos_site_id
_symmetry_equiv_pos_as_xyz
1 x,y,z
2 -x,1/2+y,1/2-z
3 -x,-y,-z
4 x,1/2-y,1/2+z
_cell_length_a                   14.393(3)
_cell_length_b                   9.2214(18)
_cell_length_c                   23.961(5)
_cell_angle_alpha                90
_cell_angle_beta                 93.52(3)
_cell_angle_gamma                90
_cell_volume                     3174.19
_exptl_crystal_colour            colorless
_exptl_crystal_description       block
_cell_formula_units_Z            4
loop_
_atom_site_label
_atom_site_type_symbol
_atom_site_fract_x
_atom_site_fract_y
_atom_site_fract_z
N1 N 0.50049(16) 0.5835(2) 0.40608(10)
N2 N 0.57951(15) 0.6800(3) 0.48882(10)
N3 N 0.34261(15) 0.6207(3) 0.38496(9)
N4 N 0.18537(16) 0.6125(3) 0.36001(10)
N5 N 0.07591(15) 0.5001(3) 0.41762(10)
N6 N 0.12016(14) 0.4041(2) 0.50511(9)
N7 N 0.14151(16) 0.3412(3) 0.59846(10)
N8 N 0.18813(17) 0.5144(3) 0.66921(10)
N9 N 0.22215(15) 0.7538(2) 0.64764(9)
N10 N 0.28853(17) 0.9791(3) 0.63890(11)
N11 N 0.42841(17) 1.0162(3) 0.59153(11)
N12 N 0.50519(14) 0.8264(3) 0.55022(10)
C1 C 0.57431(19) 0.6098(3) 0.44065(13)
H1 H 0.6316 0.5729 0.4290
C2 C 0.41994(18) 0.6370(3) 0.42343(11)
C3 C 0.41505(18) 0.7124(3) 0.47258(11)
H2 H 0.3572 0.7465 0.4845
C4 C 0.49846(18) 0.7370(3) 0.50453(12)
C5 C 0.25382(18) 0.5873(3) 0.39982(11)
C6 C 0.1018(2) 0.5656(3) 0.37189(13)
H3 H 0.0537 0.5812 0.3436
C7 C 0.14529(17) 0.4798(3) 0.45743(11)
C8 C 0.23573(17) 0.5227(3) 0.45047(11)
H4 H 0.2836 0.5086 0.4791
C9 C 0.15121(17) 0.4419(3) 0.55872(11)
C10 C 0.1606(2) 0.3845(3) 0.65037(13)
H5 H 0.1539 0.3127 0.6783
C11 C 0.19998(17) 0.6121(3) 0.62869(11)
C12 C 0.18494(17) 0.5808(3) 0.57272(11)
H6 H 0.1969 0.6503 0.5448
C13 C 0.28935(18) 0.8380(3) 0.62504(11)
C14 C 0.3580(2) 1.0578(3) 0.62087(15)
H7 H 0.3571 1.1578 0.6303
C15 C 0.42784(18) 0.8751(3) 0.57812(12)
C16 C 0.35969(17) 0.7810(3) 0.59373(11)
H8 H 0.3604 0.6814 0.5836
C17 C 0.3612(2) 0.6423(3) 0.32556(12)
H9 H 0.3074 0.6052 0.3021
H10 H 0.4163 0.5838 0.3170
C18 C 0.3783(9) 0.7963(6) 0.3098(3)
H11 H 0.4247 0.8405 0.3368
H12 H 0.3197 0.8525 0.3104
C19 C 0.4142(4) 0.7995(6) 0.2512(2)
H13 H 0.4751 0.7496 0.2516
H14 H 0.3702 0.7469 0.2251
C20 C 0.4249(5) 0.9539(6) 0.2311(2)
H15 H 0.4462 0.9533 0.1931
H16 H 0.4706 1.0048 0.2561
H17 H 0.3648 1.0038 0.2313
C24 C 0.04768(17) 0.2908(3) 0.49687(12)
H24 H -0.0057 0.3315 0.4740
H25 H 0.0252 0.2640 0.5337
C25 C 0.08120(19) 0.1558(3) 0.46872(12)
H26 H 0.1047 0.1831 0.4322
H27 H 0.0277 0.0896 0.4614
C26 C 0.1575(2) 0.0751(3) 0.50263(13)
H28 H 0.2136 0.1374 0.5069
H29 H 0.1365 0.0552 0.5404
C27 C 0.1830(2) -0.0671(3) 0.47544(16)
H30 H 0.2319 -0.1156 0.4988
H31 H 0.2057 -0.0477 0.4384
H32 H 0.1280 -0.1296 0.4716
C28 C 0.1662(2) 0.8149(3) 0.69134(12)
H33 H 0.2041 0.8863 0.7136
H34 H 0.1487 0.7363 0.7168
C29 C 0.0787(2) 0.8882(4) 0.66690(14)
H35 H 0.0402 0.8159 0.6455
H36 H 0.0964 0.9645 0.6405
C30 C 0.0210(3) 0.9562(5) 0.71110(16)
H37 H -0.0037 0.8782 0.7344
H38 H 0.0617 1.0185 0.7357
C31 C -0.0580(3) 1.0444(6) 0.6870(2)
H39 H -0.0906(18) 1.103(3) 0.7207(9)
H40 H -0.1098(18) 0.9728(19) 0.6654(14)
H41 H -0.0323(8) 1.123(3) 0.6570(14)
C32 C 0.5976(2) 0.8744(4) 0.57364(15)
H42 H 0.5958 0.9793 0.5823
H43 H 0.6447 0.8586 0.5458
C33 C 0.6255(2) 0.7853(4) 0.62912(19)
H44 H 0.5830 0.8116 0.6584
H45 H 0.6182 0.6803 0.6214
C34 C 0.7228(3) 0.8151(5) 0.64977(19)
H46 H 0.7318 0.9211 0.6540
H47 H 0.7658 0.7798 0.6221
C35 C 0.7459(4) 0.7414(5) 0.70561(19)
H48 H 0.807(2) 0.786(3) 0.7242(9)
H49 H 0.755(2) 0.631(3) 0.6993(3)
H50 H 0.6915(18) 0.757(3) 0.7316(9)
C21? C 0.359(2) 0.8057(13) 0.3132(10)
H18? H 0.3400 0.8719 0.3407
C22? C 0.3864(9) 0.8617(17) 0.2560(7)
H19? H 0.3582 0.7996 0.2258
H20? H 0.3633 0.9619 0.2500
C23? C 0.4921(9) 0.8587(17) 0.2549(7)
H21? H 0.5104 0.8913 0.2182
H22? H 0.5146 0.7596 0.2618
H23? H 0.5194 0.9232 0.2840
loop_
_geom_bond_atom_site_label_1
_geom_bond_atom_site_label_2
_geom_bond_site_symmetry_1
_geom_bond_site_symmetry_2
N1 C1 1_555 1_555
N2 C1 1_555 1_555
N3 C2 1_555 1_555
N4 C5 1_555 1_555
N5 C6 1_555 1_555
N6 C7 1_555 1_555
N7 C9 1_555 1_555
N8 C10 1_555 1_555
N9 C11 1_555 1_555
N10 C13 1_555 1_555
N11 C14 1_555 1_555
N12 C4 1_555 1_555
C1 H1 1_555 1_555
C2 N1 1_555 1_555
C3 C2 1_555 1_555
H2 C3 1_555 1_555
C4 N2 1_555 1_555
C5 N3 1_555 1_555
C6 N4 1_555 1_555
H3 C6 1_555 1_555
C7 N5 1_555 1_555
C8 C5 1_555 1_555
H4 C8 1_555 1_555
C9 N6 1_555 1_555
C10 N7 1_555 1_555
H5 C10 1_555 1_555
C11 N8 1_555 1_555
C12 C9 1_555 1_555
H6 C12 1_555 1_555
C13 N9 1_555 1_555
C14 N10 1_555 1_555
H7 C14 1_555 1_555
C15 N11 1_555 1_555
C16 C13 1_555 1_555
H8 C16 1_555 1_555
C17 N3 1_555 1_555
H9 C17 1_555 1_555
H10 C17 1_555 1_555
C18 C17 1_555 1_555
H11 C18 1_555 1_555
H12 C18 1_555 1_555
C19 C18 1_555 1_555
H13 C19 1_555 1_555
H14 C19 1_555 1_555
C20 C19 1_555 1_555
H15 C20 1_555 1_555
H16 C20 1_555 1_555
H17 C20 1_555 1_555
C24 N6 1_555 1_555
H24 C24 1_555 1_555
H25 C24 1_555 1_555
C25 C24 1_555 1_555
H26 C25 1_555 1_555
H27 C25 1_555 1_555
C26 C25 1_555 1_555
H28 C26 1_555 1_555
H29 C26 1_555 1_555
C27 C26 1_555 1_555
H30 C27 1_555 1_555
H31 C27 1_555 1_555
H32 C27 1_555 1_555
C28 N9 1_555 1_555
H33 C28 1_555 1_555
H34 C28 1_555 1_555
C29 C28 1_555 1_555
H35 C29 1_555 1_555
H36 C29 1_555 1_555
C30 C29 1_555 1_555
H37 C30 1_555 1_555
H38 C30 1_555 1_555
C31 C30 1_555 1_555
H39 C31 1_555 1_555
H40 C31 1_555 1_555
H41 C31 1_555 1_555
C32 N12 1_555 1_555
H42 C32 1_555 1_555
H43 C32 1_555 1_555
C33 C32 1_555 1_555
H44 C33 1_555 1_555
H45 C33 1_555 1_555
C34 C33 1_555 1_555
H46 C34 1_555 1_555
H47 C34 1_555 1_555
C35 C34 1_555 1_555
H48 C35 1_555 1_555
H49 C35 1_555 1_555
H50 C35 1_555 1_555
N12 C15 1_555 1_555
C3 C4 1_555 1_555
C7 C8 1_555 1_555
C11 C12 1_555 1_555
C15 C16 1_555 1_555

#END
