
#######################################################################
#
#                 Cambridge Crystallographic Data Centre
#                                CCDC 
#
#######################################################################
#
# If this CIF has been generated from an entry in the Cambridge 
# Structural Database, then it will include bibliographic, chemical, 
# crystal, experimental, refinement or atomic coordinate data resulting 
# from the CCDC's data processing and validation procedures.
#
#######################################################################

data_OKUDAA
_chemical_formula_moiety         'C20 H18 Br2 N12,C4 H5 N1 O2'
_chemical_name_systematic        
'1^5^,5^5^-dibromo-2,4,6,8-tetramethyl-2,4,6,8-tetraaza-1,3,5,7(4,6)-tetrapyrimidinacyclooctaphane pyrrolidine-2,5-dione'
_symmetry_cell_setting           triclinic
_symmetry_space_group_name_H-M   'P -1'
_symmetry_Int_Tables_number      2
_space_group_name_Hall           '-P 1'
loop_
_symmetry_equiv_pos_site_id
_symmetry_equiv_pos_as_xyz
1 x,y,z
2 -x,-y,-z
_cell_length_a                   9.774(2)
_cell_length_b                   11.296(2)
_cell_length_c                   12.970(3)
_cell_angle_alpha                84.32(3)
_cell_angle_beta                 74.96(3)
_cell_angle_gamma                72.97(3)
_cell_volume                     1321.88
_exptl_crystal_colour            colorless
_exptl_crystal_description       plate
_cell_formula_units_Z            2
loop_
_atom_site_label
_atom_site_type_symbol
_atom_site_fract_x
_atom_site_fract_y
_atom_site_fract_z
Br1 Br -0.29748(3) -0.00431(2) 0.458707(19)
Br2 Br 0.08429(3) 0.03488(2) 0.359370(19)
N1 N -0.5185(2) 0.1115(2) 0.22183(17)
N2 N -0.5864(2) 0.2818(2) 0.33760(18)
N3 N -0.3523(2) -0.07626(19) 0.24893(17)
N4 N -0.1476(3) -0.24431(19) 0.20772(17)
N5 N 0.0953(2) -0.21940(19) 0.14110(17)
N6 N 0.1400(2) -0.02661(19) 0.11995(17)
N7 N 0.1125(2) 0.1767(2) 0.05350(17)
N8 N 0.0388(2) 0.3499(2) 0.16748(17)
N9 N -0.0021(2) 0.32686(19) 0.35278(17)
N10 N -0.1215(3) 0.3440(2) 0.53241(18)
N11 N -0.3667(3) 0.3227(2) 0.59798(17)
N12 N -0.4909(2) 0.2722(2) 0.48625(17)
C1 C -0.5953(3) 0.2255(3) 0.2547(2)
H2 H -0.6636 0.2715 0.2150
C2 C -0.4245(3) 0.0469(2) 0.2778(2)
C3 C -0.4083(3) 0.0953(2) 0.36765(19)
C4 C -0.4916(3) 0.2170(2) 0.39383(19)
C5 C -0.4429(3) -0.1430(3) 0.2169(3)
H3 H -0.4169 -0.2294 0.2424
H4 H -0.4247 -0.1404 0.1389
H5 H -0.5475 -0.1037 0.2481
C6 C -0.2009(3) -0.1202(2) 0.21873(19)
C7 C -0.0032(3) -0.2840(2) 0.1702(2)
H6 H 0.0359 -0.3712 0.1631
C8 C 0.0403(3) -0.0958(2) 0.15468(18)
C9 C -0.1093(3) -0.0422(2) 0.19601(19)
H7 H -0.1475 0.0441 0.2083
C10 C 0.2778(3) -0.0780(3) 0.0399(2)
H8 H 0.3381 -0.1515 0.0703
H9 H 0.3324 -0.0157 0.0193
H10 H 0.2548 -0.1011 -0.0231
C11 C 0.1000(3) 0.1011(2) 0.13971(19)
C12 C 0.0829(3) 0.2959(3) 0.0730(2)
H11 H 0.0946 0.3494 0.0120
C13 C 0.0295(3) 0.2738(2) 0.2536(2)
C14 C 0.0636(3) 0.1453(2) 0.24260(18)
C15 C 0.0483(3) 0.4363(2) 0.3572(2)
H12 H 0.0767 0.4343 0.4246
H13 H -0.0317 0.5115 0.3528
H14 H 0.1334 0.4361 0.2972
C16 C -0.1211(3) 0.3127(2) 0.4353(2)
C17 C -0.2444(4) 0.3449(3) 0.6077(2)
H15 H -0.2445 0.3639 0.6774
C18 C -0.3617(3) 0.2890(2) 0.5001(2)
C19 C -0.2383(3) 0.2800(2) 0.41533(19)
H16 H -0.2342 0.2530 0.3473
C20 C -0.6339(3) 0.3482(3) 0.5470(2)
H17 H -0.6283 0.3564 0.6202
H18 H -0.7109 0.3082 0.5484
H19 H -0.6576 0.4304 0.5127
O1 O 0.7446(2) 0.25764(17) 0.16922(15)
O2 O 0.6532(3) 0.5485(2) -0.0899(2)
N13 N 0.7145(2) 0.38523(19) 0.02446(18)
H1 H 0.7552 0.3280 -0.0242
C21 C 0.6311(4) 0.4801(3) 0.1896(3)
H20 H 0.6974 0.4978 0.2284
H21 H 0.5375 0.4773 0.2411
C22 C 0.7028(3) 0.3596(2) 0.1317(2)
C23 C 0.6570(3) 0.5082(3) -0.0001(3)
C24 C 0.6028(4) 0.5773(3) 0.1024(3)
H22 H 0.4962 0.6204 0.1145
H23 H 0.6570 0.6393 0.1006
loop_
_geom_bond_atom_site_label_1
_geom_bond_atom_site_label_2
_geom_bond_site_symmetry_1
_geom_bond_site_symmetry_2
Br1 C3 1_555 1_555
Br2 C14 1_555 1_555
O1 C22 1_555 1_555
O2 C23 1_555 1_555
N1 C1 1_555 1_555
N2 C1 1_555 1_555
N3 C2 1_555 1_555
N4 C6 1_555 1_555
N5 C7 1_555 1_555
N6 C8 1_555 1_555
N7 C11 1_555 1_555
N8 C12 1_555 1_555
N9 C13 1_555 1_555
N10 C16 1_555 1_555
N11 C17 1_555 1_555
N12 C4 1_555 1_555
N13 H1 1_555 1_555
C1 H2 1_555 1_555
C2 N1 1_555 1_555
C3 C2 1_555 1_555
C4 N2 1_555 1_555
C5 N3 1_555 1_555
H3 C5 1_555 1_555
H4 C5 1_555 1_555
H5 C5 1_555 1_555
C6 N3 1_555 1_555
C7 N4 1_555 1_555
H6 C7 1_555 1_555
C8 N5 1_555 1_555
C9 C6 1_555 1_555
H7 C9 1_555 1_555
C10 N6 1_555 1_555
H8 C10 1_555 1_555
H9 C10 1_555 1_555
H10 C10 1_555 1_555
C11 N6 1_555 1_555
C12 N7 1_555 1_555
H11 C12 1_555 1_555
C13 N8 1_555 1_555
C14 C11 1_555 1_555
C15 N9 1_555 1_555
H12 C15 1_555 1_555
H13 C15 1_555 1_555
H14 C15 1_555 1_555
C16 N9 1_555 1_555
C17 N10 1_555 1_555
H15 C17 1_555 1_555
C18 N11 1_555 1_555
C19 C16 1_555 1_555
H16 C19 1_555 1_555
C20 N12 1_555 1_555
H17 C20 1_555 1_555
H18 C20 1_555 1_555
H19 C20 1_555 1_555
C21 H20 1_555 1_555
H21 C21 1_555 1_555
C22 N13 1_555 1_555
C23 N13 1_555 1_555
C24 C21 1_555 1_555
H22 C24 1_555 1_555
H23 C24 1_555 1_555
N12 C18 1_555 1_555
C3 C4 1_555 1_555
C8 C9 1_555 1_555
C13 C14 1_555 1_555
C18 C19 1_555 1_555
C21 C22 1_555 1_555
C23 C24 1_555 1_555

#END
