
#######################################################################
#
#                 Cambridge Crystallographic Data Centre
#                                CCDC 
#
#######################################################################
#
# If this CIF has been generated from an entry in the Cambridge 
# Structural Database, then it will include bibliographic, chemical, 
# crystal, experimental, refinement or atomic coordinate data resulting 
# from the CCDC's data processing and validation procedures.
#
#######################################################################

data_OKUDAB
_chemical_name_common            
'methyl (5R,9R)-9-phenyl-1-tosyl-6-oxa-1-azaspiro[4.5]dec-7-ene-7-carboxylate'
_chemical_formula_moiety         'C23 H25 N1 O5 S1'
_chemical_name_systematic        
'methyl (5R,9R)-1-((4-methylphenyl)sulfonyl)-9-phenyl-6-oxa-1-azaspiro[4.5]dec-7-ene-7-carboxylate'
_symmetry_cell_setting           orthorhombic
_symmetry_space_group_name_H-M   'P 21 21 21'
_symmetry_Int_Tables_number      19
_space_group_name_Hall           'P 2ac 2ab'
loop_
_symmetry_equiv_pos_site_id
_symmetry_equiv_pos_as_xyz
1 x,y,z
2 1/2-x,-y,1/2+z
3 -x,1/2+y,1/2-z
4 1/2+x,1/2-y,-z
_cell_length_a                   10.9466(4)
_cell_length_b                   11.0078(3)
_cell_length_c                   18.1665(5)
_cell_angle_alpha                90
_cell_angle_beta                 90
_cell_angle_gamma                90
_cell_volume                     2189.03
_exptl_crystal_colour            colorless
_cell_formula_units_Z            4
loop_
_atom_site_label
_atom_site_type_symbol
_atom_site_fract_x
_atom_site_fract_y
_atom_site_fract_z
S1 S 0.46911(9) 0.13905(7) 0.59025(4)
O1 O 0.5565(2) 0.3743(2) 0.67124(12)
O2 O 0.3854(3) 0.0425(2) 0.57567(15)
O3 O 0.6650(3) 0.5455(3) 0.60430(16)
O4 O 0.5924(3) 0.1109(3) 0.60901(15)
N1 N 0.4123(3) 0.2200(3) 0.65724(15)
O5 O 0.7927(3) 0.5870(3) 0.69619(18)
C1 C 0.5592(3) 0.2131(3) 0.76262(17)
H1 H 0.6208 0.1703 0.7343
H2 H 0.5091 0.1532 0.7876
C2 C 0.6463(3) 0.4288(3) 0.71130(19)
C3 C 0.2837(4) 0.2619(4) 0.6488(2)
H3 H 0.2266 0.2030 0.6687
H4 H 0.2639 0.2769 0.5975
C4 C 0.7112(4) 0.2237(3) 0.86603(19)
C5 C 0.6709(5) 0.1607(3) 0.9273(2)
H5 H 0.5894 0.1658 0.9412
C6 C 0.4803(3) 0.2885(3) 0.71152(17)
C7 C 0.6785(3) 0.4001(3) 0.77925(19)
H6 H 0.7382 0.4460 0.8027
C8 C 0.4669(3) 0.2314(3) 0.51051(18)
C9 C 0.6213(3) 0.2957(3) 0.81962(17)
H7 H 0.5580 0.3282 0.8523
C10 C 0.3871(5) 0.2063(5) 0.4557(3)
H8 H 0.3364 0.1388 0.4587
C11 C 0.3779(3) 0.3579(3) 0.75135(19)
H9 H 0.3450 0.3102 0.7916
H10 H 0.4078 0.4345 0.7706
C12 C 0.7100(3) 0.5287(3) 0.6709(2)
C13 C 0.2827(4) 0.3786(4) 0.6930(2)
H11 H 0.3039 0.4476 0.6624
H12 H 0.2031 0.3926 0.7149
C14 C 0.5462(5) 0.3286(5) 0.5045(2)
H13 H 0.6029 0.3443 0.5414
C15 C 0.7509(6) 0.0902(4) 0.9681(3)
H14 H 0.7227 0.0468 1.0086
C16 C 0.3819(5) 0.2828(6) 0.3948(3)
H15 H 0.3255 0.2666 0.3578
C17 C 0.7237(5) 0.6382(4) 0.5600(3)
H16 H 0.6957 0.6321 0.5101
H17 H 0.8107 0.6268 0.5614
H18 H 0.7038 0.7170 0.5792
C18 C 0.8317(4) 0.2148(4) 0.8473(3)
H19 H 0.8609 0.2563 0.8063
C19 C 0.8715(6) 0.0845(5) 0.9487(3)
H20 H 0.9260 0.0393 0.9768
C20 C 0.4471(7) 0.4648(7) 0.3224(3)
H21 H 0.4134 0.4212 0.2814
H22 H 0.5266 0.4949 0.3097
H23 H 0.3946 0.5317 0.3346
C21 C 0.5402(6) 0.4019(5) 0.4431(2)
H24 H 0.5936 0.4673 0.4391
C22 C 0.9106(6) 0.1444(6) 0.8889(4)
H25 H 0.9922 0.1386 0.8751
C23 C 0.4574(4) 0.3809(5) 0.3878(2)
loop_
_geom_bond_atom_site_label_1
_geom_bond_atom_site_label_2
_geom_bond_site_symmetry_1
_geom_bond_site_symmetry_2
S1 O2 1_555 1_555
O1 C2 1_555 1_555
O3 C12 1_555 1_555
O4 S1 1_555 1_555
N1 S1 1_555 1_555
O5 C12 1_555 1_555
C1 H1 1_555 1_555
H2 C1 1_555 1_555
C2 C7 1_555 1_555
C3 N1 1_555 1_555
H3 C3 1_555 1_555
H4 C3 1_555 1_555
C4 C5 1_555 1_555
C5 H5 1_555 1_555
C6 O1 1_555 1_555
C7 H6 1_555 1_555
C8 S1 1_555 1_555
C9 C1 1_555 1_555
H7 C9 1_555 1_555
C10 C8 1_555 1_555
H8 C10 1_555 1_555
C11 C6 1_555 1_555
H9 C11 1_555 1_555
H10 C11 1_555 1_555
C12 C2 1_555 1_555
C13 C3 1_555 1_555
H11 C13 1_555 1_555
H12 C13 1_555 1_555
C14 C8 1_555 1_555
H13 C14 1_555 1_555
C15 C5 1_555 1_555
H14 C15 1_555 1_555
C16 C10 1_555 1_555
H15 C16 1_555 1_555
C17 O3 1_555 1_555
H16 C17 1_555 1_555
H17 C17 1_555 1_555
H18 C17 1_555 1_555
C18 C4 1_555 1_555
H19 C18 1_555 1_555
C19 C15 1_555 1_555
H20 C19 1_555 1_555
C20 H21 1_555 1_555
H22 C20 1_555 1_555
H23 C20 1_555 1_555
C21 C14 1_555 1_555
H24 C21 1_555 1_555
C22 C18 1_555 1_555
H25 C22 1_555 1_555
C23 C16 1_555 1_555
N1 C6 1_555 1_555
C1 C6 1_555 1_555
C4 C9 1_555 1_555
C7 C9 1_555 1_555
C11 C13 1_555 1_555
C19 C22 1_555 1_555
C20 C23 1_555 1_555
C21 C23 1_555 1_555

#END
