
#######################################################################
#
#                 Cambridge Crystallographic Data Centre
#                                CCDC 
#
#######################################################################
#
# If this CIF has been generated from an entry in the Cambridge 
# Structural Database, then it will include bibliographic, chemical, 
# crystal, experimental, refinement or atomic coordinate data resulting 
# from the CCDC's data processing and validation procedures.
#
#######################################################################

data_OKUJAG
_chemical_formula_moiety         'C14 H12 N2 O3'
_chemical_name_systematic        
3-(((2-Hydroxy-1-naphthyl)methylene)amino)-1,3-oxazolidin-2-one
_symmetry_cell_setting           monoclinic
_symmetry_space_group_name_H-M   'P 21/c'
_symmetry_Int_Tables_number      14
_space_group_name_Hall           '-P 2ybc'
loop_
_symmetry_equiv_pos_site_id
_symmetry_equiv_pos_as_xyz
1 x,y,z
2 -x,1/2+y,1/2-z
3 -x,-y,-z
4 x,1/2-y,1/2+z
_cell_length_a                   14.3488(5)
_cell_length_b                   7.0816(3)
_cell_length_c                   24.3706(8)
_cell_angle_alpha                90
_cell_angle_beta                 93.382(3)
_cell_angle_gamma                90
_cell_volume                     2472.04
_exptl_crystal_colour            white
_exptl_crystal_description       block
_cell_formula_units_Z            8
loop_
_atom_site_label
_atom_site_type_symbol
_atom_site_fract_x
_atom_site_fract_y
_atom_site_fract_z
O1 O 0.60605(7) 0.83576(17) 0.81047(4)
H1 H 0.5547 0.8114 0.8218
O4 O 0.25252(7) 0.67204(17) 0.86926(4)
O6 O 0.34849(7) 0.72950(19) 0.80207(4)
C1 C 0.64674(9) 0.82868(18) 0.90785(5)
N3 N 0.48815(8) 0.76934(17) 0.88169(4)
N4 N 0.39859(8) 0.72802(18) 0.89312(4)
C3 C 0.71945(9) 0.84656(18) 0.95061(6)
C4 C 0.81199(10) 0.8838(2) 0.93641(6)
C6 C 0.25903(10) 0.6626(2) 0.92852(6)
H5 H 0.2390 0.5398 0.9409
H6 H 0.2201 0.7587 0.9440
C7 C 0.36143(9) 0.6960(2) 0.94596(5)
H7 H 0.3696 0.8054 0.9697
H8 H 0.3894 0.5864 0.9642
C9 C 0.55178(9) 0.78504(19) 0.92077(6)
H9 H 0.5370 0.7685 0.9571
C11 C 0.70429(9) 0.8290(2) 1.00699(6)
H10 H 0.6441 0.8065 1.0177
C13 C 0.66980(11) 0.8512(2) 0.85358(6)
C14 C 0.77562(10) 0.8442(2) 1.04640(6)
H11 H 0.7632 0.8319 1.0833
C17 C 0.33529(11) 0.7121(2) 0.84997(6)
C20 C 0.86679(11) 0.8778(3) 1.03214(8)
H16 H 0.9152 0.8873 1.0591
C24 C 0.88375(11) 0.8967(3) 0.97805(8)
H20 H 0.9445 0.9187 0.9684
C25 C 0.83021(11) 0.9065(2) 0.88052(7)
H21 H 0.8908 0.9322 0.8711
C28 C 0.76169(12) 0.8918(2) 0.84036(7)
H24 H 0.7753 0.9086 0.8038
N1 N 0.64204(8) 0.33047(16) 0.87290(4)
O2 O 0.40410(7) 0.24118(17) 0.87044(4)
O3 O 0.77027(8) 0.35305(17) 0.94994(4)
H2 H 0.7173 0.3344 0.9365
N2 N 0.55162(7) 0.28986(16) 0.85625(4)
O5 O 0.50495(7) 0.26727(18) 0.94407(4)
C2 C 0.79787(9) 0.40511(19) 0.85455(5)
C5 C 0.50868(9) 0.2992(2) 0.80100(5)
H3 H 0.5379 0.2126 0.7764
H4 H 0.5104 0.4261 0.7862
C8 C 0.86431(9) 0.4557(2) 0.81520(6)
C10 C 0.48988(10) 0.2661(2) 0.89528(6)
C12 C 0.82745(11) 0.3951(2) 0.90961(6)
C15 C 0.95815(10) 0.4924(2) 0.83353(7)
C16 C 0.40996(10) 0.2387(2) 0.81169(5)
H12 H 0.3650 0.3254 0.7943
H13 H 0.3976 0.1129 0.7973
C18 C 1.02308(12) 0.5447(3) 0.79528(9)
H14 H 1.0846 0.5681 0.8075
C19 C 0.70155(9) 0.36500(19) 0.83713(6)
H15 H 0.6830 0.3644 0.7999
C21 C 0.84085(10) 0.4735(2) 0.75829(6)
H17 H 0.7800 0.4494 0.7449
C22 C 0.90597(12) 0.5255(3) 0.72267(7)
H18 H 0.8887 0.5370 0.6854
C23 C 0.99789(13) 0.5617(3) 0.74111(9)
H19 H 1.0417 0.5973 0.7164
C26 C 0.92105(12) 0.4276(3) 0.92673(7)
H22 H 0.9401 0.4162 0.9637
C27 C 0.98349(12) 0.4752(3) 0.89014(8)
H23 H 1.0451 0.4974 0.9025
loop_
_geom_bond_atom_site_label_1
_geom_bond_atom_site_label_2
_geom_bond_site_symmetry_1
_geom_bond_site_symmetry_2
O1 H1 1_555 1_555
N1 N2 1_555 1_555
O2 C10 1_555 1_555
O3 H2 1_555 1_555
O4 C6 1_555 1_555
N2 C5 1_555 1_555
O5 C10 1_555 1_555
O6 C17 1_555 1_555
C1 C3 1_555 1_555
N3 N4 1_555 1_555
C2 C8 1_555 1_555
N4 C7 1_555 1_555
C3 C4 1_555 1_555
C4 C24 1_555 1_555
C5 H3 1_555 1_555
H4 C5 1_555 1_555
C6 H5 1_555 1_555
H6 C6 1_555 1_555
C7 C6 1_555 1_555
H7 C7 1_555 1_555
H8 C7 1_555 1_555
C8 C15 1_555 1_555
C9 C1 1_555 1_555
H9 C9 1_555 1_555
C10 N2 1_555 1_555
C11 C3 1_555 1_555
H10 C11 1_555 1_555
C12 O3 1_555 1_555
C13 O1 1_555 1_555
C14 C11 1_555 1_555
H11 C14 1_555 1_555
C15 C18 1_555 1_555
C16 O2 1_555 1_555
H12 C16 1_555 1_555
H13 C16 1_555 1_555
C17 O4 1_555 1_555
C18 H14 1_555 1_555
C19 N1 1_555 1_555
H15 C19 1_555 1_555
C20 C14 1_555 1_555
H16 C20 1_555 1_555
C21 C8 1_555 1_555
H17 C21 1_555 1_555
C22 C21 1_555 1_555
H18 C22 1_555 1_555
C23 C18 1_555 1_555
H19 C23 1_555 1_555
C24 C20 1_555 1_555
H20 C24 1_555 1_555
C25 C4 1_555 1_555
H21 C25 1_555 1_555
C26 C12 1_555 1_555
H22 C26 1_555 1_555
C27 C15 1_555 1_555
H23 C27 1_555 1_555
C28 C13 1_555 1_555
H24 C28 1_555 1_555
C1 C13 1_555 1_555
N3 C9 1_555 1_555
C2 C12 1_555 1_555
C2 C19 1_555 1_555
N4 C17 1_555 1_555
C5 C16 1_555 1_555
C22 C23 1_555 1_555
C25 C28 1_555 1_555
C26 C27 1_555 1_555

#END
