
#######################################################################
#
#                 Cambridge Crystallographic Data Centre
#                                CCDC 
#
#######################################################################
#
# If this CIF has been generated from an entry in the Cambridge 
# Structural Database, then it will include bibliographic, chemical, 
# crystal, experimental, refinement or atomic coordinate data resulting 
# from the CCDC's data processing and validation procedures.
#
#######################################################################

data_OKULEN
_chemical_formula_moiety         'C14 H15 F3 N2 O3 S1'
_chemical_name_systematic        
2-(phenylsulfonyl)-3-(trifluoromethyl)-3,3a,4,5,6,7-hexahydro-2H-indazol-3-ol
_symmetry_cell_setting           monoclinic
_symmetry_space_group_name_H-M   'P 21/n'
_symmetry_Int_Tables_number      14
_space_group_name_Hall           '-P 2yn'
loop_
_symmetry_equiv_pos_site_id
_symmetry_equiv_pos_as_xyz
1 x,y,z
2 1/2-x,1/2+y,1/2-z
3 -x,-y,-z
4 1/2+x,1/2-y,1/2+z
_cell_length_a                   13.0433(10)
_cell_length_b                   8.2753(6)
_cell_length_c                   15.2962(12)
_cell_angle_alpha                90
_cell_angle_beta                 109.9890(10)
_cell_angle_gamma                90
_cell_volume                     1551.57
_chemical_melting_point          '432 K'
_cell_formula_units_Z            4
loop_
_atom_site_label
_atom_site_type_symbol
_atom_site_fract_x
_atom_site_fract_y
_atom_site_fract_z
S1 S 0.96128(3) 0.17016(4) 0.14182(2)
C1 C 1.16956(12) 0.05869(19) 0.22107(11)
C2 C 1.26736(14) 0.0440(2) 0.29423(14)
C3 C 1.28144(14) 0.1168(2) 0.37834(13)
C4 C 1.19810(14) 0.2059(2) 0.39028(12)
C5 C 1.09945(13) 0.22170(19) 0.31828(10)
C6 C 1.08661(11) 0.14763(15) 0.23366(9)
C7 C 0.86341(9) -0.09476(17) 0.27819(9)
C8 C 0.85870(13) -0.1283(3) 0.37244(11)
C9 C 0.95887(14) -0.2284(2) 0.42614(10)
C10 C 0.97427(16) -0.3734(2) 0.37109(11)
C11 C 0.98521(13) -0.32289(17) 0.27899(10)
C12 C 0.88179(10) -0.23180(16) 0.22144(8)
C13 C 0.88629(10) -0.14585(14) 0.13390(8)
C14 C 0.78410(13) -0.18292(18) 0.05049(9)
F1 F 0.69375(7) -0.14692(13) 0.06834(6)
F2 F 0.77783(9) -0.33817(11) 0.02861(7)
F3 F 0.78164(8) -0.10074(14) -0.02489(6)
N1 N 0.87715(9) 0.03004(13) 0.15603(7)
N2 N 0.86500(9) 0.04601(14) 0.24570(7)
O1 O 0.97473(9) 0.13145(12) 0.05551(7)
O2 O 0.91585(10) 0.32217(12) 0.15254(8)
O3 O 0.97876(8) -0.18952(11) 0.11476(7)
H1 H 1.1584(14) 0.010(2) 0.1689(12)
H2 H 1.3178(18) -0.015(2) 0.2865(13)
H3 H 1.3507(16) 0.102(2) 0.4277(12)
H4 H 1.2070(14) 0.264(2) 0.4453(13)
H5 H 1.0425(13) 0.285(2) 0.3258(11)
H6 H 0.8566(14) -0.032(2) 0.3994(11)
H7 H 0.7921(15) -0.192(2) 0.3678(12)
H8 H 1.0275(17) -0.161(2) 0.4344(12)
H9 H 0.9530(15) -0.261(2) 0.4836(13)
H10 H 1.0387(14) -0.434(2) 0.4038(11)
H11 H 0.9090(15) -0.445(2) 0.3543(11)
H12 H 1.0488(12) -0.2460(18) 0.2903(10)
H13 H 0.9988(16) -0.414(2) 0.2429(12)
H14 H 0.8185(12) -0.3015(18) 0.2051(10)
H15 H 0.9800(17) -0.147(2) 0.0687(14)
loop_
_geom_bond_atom_site_label_1
_geom_bond_atom_site_label_2
_geom_bond_site_symmetry_1
_geom_bond_site_symmetry_2
S1 C6 1_555 1_555
C1 C2 1_555 1_555
C2 C3 1_555 1_555
C3 C4 1_555 1_555
C4 C5 1_555 1_555
C5 C6 1_555 1_555
C6 C1 1_555 1_555
C7 C8 1_555 1_555
C8 C9 1_555 1_555
C9 C10 1_555 1_555
C10 C11 1_555 1_555
C11 C12 1_555 1_555
C12 C7 1_555 1_555
C13 C12 1_555 1_555
C14 C13 1_555 1_555
F1 C14 1_555 1_555
F2 C14 1_555 1_555
F3 C14 1_555 1_555
N1 S1 1_555 1_555
N2 C7 1_555 1_555
O1 S1 1_555 1_555
O2 S1 1_555 1_555
O3 C13 1_555 1_555
H1 C1 1_555 1_555
H2 C2 1_555 1_555
H3 C3 1_555 1_555
H4 C4 1_555 1_555
H5 C5 1_555 1_555
H6 C8 1_555 1_555
H7 C8 1_555 1_555
H8 C9 1_555 1_555
H9 C9 1_555 1_555
H10 C10 1_555 1_555
H11 C10 1_555 1_555
H12 C11 1_555 1_555
H13 C11 1_555 1_555
H14 C12 1_555 1_555
H15 O3 1_555 1_555
C13 N1 1_555 1_555
N1 N2 1_555 1_555

#END
