
#######################################################################
#
#                 Cambridge Crystallographic Data Centre
#                                CCDC 
#
#######################################################################
#
# If this CIF has been generated from an entry in the Cambridge 
# Structural Database, then it will include bibliographic, chemical, 
# crystal, experimental, refinement or atomic coordinate data resulting 
# from the CCDC's data processing and validation procedures.
#
#######################################################################

data_OKUPOA
_chemical_formula_moiety         'C30 H40 S2'
_chemical_name_systematic        
2,7-Dioctylthieno[2',3':5,6]naphtho[1,2-b]thiophene
_symmetry_cell_setting           triclinic
_symmetry_space_group_name_H-M   'P -1'
_symmetry_Int_Tables_number      2
_space_group_name_Hall           '-P 1'
loop_
_symmetry_equiv_pos_site_id
_symmetry_equiv_pos_as_xyz
1 x,y,z
2 -x,-y,-z
_cell_length_a                   5.369(9)
_cell_length_b                   11.119(19)
_cell_length_c                   12.03(2)
_cell_angle_alpha                109.24(2)
_cell_angle_beta                 98.78(2)
_cell_angle_gamma                93.683(19)
_cell_volume                     665.041
_exptl_crystal_colour            colorless
_exptl_crystal_description       block
_cell_formula_units_Z            1
loop_
_atom_site_label
_atom_site_type_symbol
_atom_site_fract_x
_atom_site_fract_y
_atom_site_fract_z
S1 S 0.30205(11) 0.78796(6) 1.01441(6)
C1 C 0.0878(4) 0.5379(2) 0.98239(19)
C2 C 0.1070(4) 0.6733(2) 1.0398(2)
C3 C -0.0363(4) 0.7316(2) 1.1258(2)
C4 C -0.2099(4) 0.6514(2) 1.1579(2)
C5 C -0.2336(4) 0.5212(2) 1.1047(2)
C6 C 0.0159(4) 0.8691(2) 1.1683(2)
C7 C 0.1910(4) 0.9134(2) 1.1167(2)
C8 C 0.2955(5) 1.0490(2) 1.1346(2)
C9 C 0.1918(4) 1.1534(2) 1.2258(2)
C10 C 0.3054(4) 1.2872(2) 1.2374(2)
C11 C 0.2035(5) 1.3956(2) 1.3254(2)
C12 C 0.3234(4) 1.5289(2) 1.3391(2)
C13 C 0.2249(5) 1.6376(2) 1.4281(2)
C14 C 0.3459(5) 1.7707(2) 1.4427(2)
C15 C 0.2374(6) 1.8782(3) 1.5303(3)
H1 H -0.3100 0.6894 1.2173
H2 H -0.3458 0.4676 1.1296
H3 H -0.0665 0.9238 1.2295
H4 H 0.4756 1.0597 1.1588
H5 H 0.2579 1.0631 1.0594
H6 H 0.0116 1.1447 1.2023
H7 H 0.2304 1.1420 1.3015
H8 H 0.4850 1.2957 1.2619
H9 H 0.2704 1.2968 1.1602
H10 H 0.0244 1.3885 1.2990
H11 H 0.2343 1.3846 1.4014
H12 H 0.5027 1.5358 1.3637
H13 H 0.2912 1.5403 1.2623
H14 H 0.0446 1.6326 1.4022
H15 H 0.2537 1.6267 1.5039
H16 H 0.5237 1.7769 1.4692
H17 H 0.3171 1.7818 1.3660
H18 H 0.2687 1.8691 1.6077
H19 H 0.3190 1.9593 1.5368
H20 H 0.0609 1.8733 1.5047
S1A S -0.30205(11) 0.21204(6) 0.98559(6)
C1A C -0.0878(4) 0.4621(2) 1.01761(19)
C2A C -0.1070(4) 0.3267(2) 0.9602(2)
C3A C 0.0363(4) 0.2684(2) 0.8742(2)
C4A C 0.2099(4) 0.3486(2) 0.8421(2)
C5A C 0.2336(4) 0.4788(2) 0.8953(2)
C6A C -0.0159(4) 0.1309(2) 0.8317(2)
C7A C -0.1910(4) 0.0866(2) 0.8833(2)
C8A C -0.2955(5) -0.0490(2) 0.8654(2)
C9A C -0.1918(4) -0.1534(2) 0.7742(2)
C10A C -0.3054(4) -0.2872(2) 0.7626(2)
C11A C -0.2035(5) -0.3956(2) 0.6746(2)
C12A C -0.3234(4) -0.5289(2) 0.6609(2)
C13A C -0.2249(5) -0.6376(2) 0.5719(2)
C14A C -0.3459(5) -0.7707(2) 0.5573(2)
C15A C -0.2374(6) -0.8782(3) 0.4697(3)
H1A H 0.3100 0.3106 0.7827
H2A H 0.3458 0.5324 0.8704
H3A H 0.0665 0.0762 0.7705
H4A H -0.4756 -0.0597 0.8412
H5A H -0.2579 -0.0631 0.9406
H6A H -0.0116 -0.1447 0.7977
H7A H -0.2304 -0.1420 0.6985
H8A H -0.4850 -0.2957 0.7381
H9A H -0.2704 -0.2968 0.8398
H10A H -0.0244 -0.3885 0.7010
H11A H -0.2343 -0.3846 0.5986
H12A H -0.5027 -0.5358 0.6363
H13A H -0.2912 -0.5403 0.7377
H14A H -0.0446 -0.6326 0.5978
H15A H -0.2537 -0.6267 0.4961
H16A H -0.5237 -0.7769 0.5308
H17A H -0.3171 -0.7818 0.6340
H18A H -0.2687 -0.8691 0.3923
H19A H -0.3190 -0.9593 0.4632
H20A H -0.0609 -0.8733 0.4953
loop_
_geom_bond_atom_site_label_1
_geom_bond_atom_site_label_2
_geom_bond_site_symmetry_1
_geom_bond_site_symmetry_2
S1 C2 1_555 1_555
C1 C2 1_555 1_555
C2 C3 1_555 1_555
C3 C4 1_555 1_555
C4 C5 1_555 1_555
C5 H2 1_555 1_555
C6 C3 1_555 1_555
C7 S1 1_555 1_555
C8 C7 1_555 1_555
C9 C8 1_555 1_555
C10 C9 1_555 1_555
C11 C10 1_555 1_555
C12 C11 1_555 1_555
C13 C12 1_555 1_555
C14 C13 1_555 1_555
C15 C14 1_555 1_555
H1 C4 1_555 1_555
H3 C6 1_555 1_555
H4 C8 1_555 1_555
H5 C8 1_555 1_555
H6 C9 1_555 1_555
H7 C9 1_555 1_555
H8 C10 1_555 1_555
H9 C10 1_555 1_555
H10 C11 1_555 1_555
H11 C11 1_555 1_555
H12 C12 1_555 1_555
H13 C12 1_555 1_555
H14 C13 1_555 1_555
H15 C13 1_555 1_555
H16 C14 1_555 1_555
H17 C14 1_555 1_555
H18 C15 1_555 1_555
H19 C15 1_555 1_555
H20 C15 1_555 1_555
S1A C2A 1_555 1_555
C1A C1 1_555 1_555
C2A C1A 1_555 1_555
C3A C2A 1_555 1_555
C4A C3A 1_555 1_555
C5A C1 1_555 1_555
C6A C3A 1_555 1_555
C7A S1A 1_555 1_555
C8A C7A 1_555 1_555
C9A C8A 1_555 1_555
C10A C9A 1_555 1_555
C11A C10A 1_555 1_555
C12A C11A 1_555 1_555
C13A C12A 1_555 1_555
C14A C13A 1_555 1_555
C15A C14A 1_555 1_555
H1A C4A 1_555 1_555
H2A C5A 1_555 1_555
H3A C6A 1_555 1_555
H4A C8A 1_555 1_555
H5A C8A 1_555 1_555
H6A C9A 1_555 1_555
H7A C9A 1_555 1_555
H8A C10A 1_555 1_555
H9A C10A 1_555 1_555
H10A C11A 1_555 1_555
H11A C11A 1_555 1_555
H12A C12A 1_555 1_555
H13A C12A 1_555 1_555
H14A C13A 1_555 1_555
H15A C13A 1_555 1_555
H16A C14A 1_555 1_555
H17A C14A 1_555 1_555
H18A C15A 1_555 1_555
H19A C15A 1_555 1_555
H20A C15A 1_555 1_555
C5 C1A 1_555 1_555
C6 C7 1_555 1_555
C4A C5A 1_555 1_555
C6A C7A 1_555 1_555

#END
