
#######################################################################
#
#                 Cambridge Crystallographic Data Centre
#                                CCDC 
#
#######################################################################
#
# If this CIF has been generated from an entry in the Cambridge 
# Structural Database, then it will include bibliographic, chemical, 
# crystal, experimental, refinement or atomic coordinate data resulting 
# from the CCDC's data processing and validation procedures.
#
#######################################################################

data_OKUPIU
_chemical_formula_moiety         'C14 H8 Se2'
_chemical_name_systematic        
Selenopheno[2',3':5,6]naphtho[1,2-b]selenophene
_symmetry_cell_setting           orthorhombic
_symmetry_space_group_name_H-M   'P b c a'
_symmetry_Int_Tables_number      61
_space_group_name_Hall           '-P 2ac 2ab'
loop_
_symmetry_equiv_pos_site_id
_symmetry_equiv_pos_as_xyz
1 x,y,z
2 1/2+x,1/2-y,-z
3 -x,1/2+y,1/2-z
4 1/2-x,-y,1/2+z
5 -x,-y,-z
6 1/2-x,1/2+y,z
7 x,1/2-y,1/2+z
8 1/2+x,y,1/2-z
_cell_length_a                   6.542(4)
_cell_length_b                   9.100(6)
_cell_length_c                   19.268(12)
_cell_angle_alpha                90
_cell_angle_beta                 90
_cell_angle_gamma                90
_cell_volume                     1147.07
_exptl_crystal_colour            colorless
_exptl_crystal_description       platelet
_cell_formula_units_Z            4
loop_
_atom_site_label
_atom_site_type_symbol
_atom_site_fract_x
_atom_site_fract_y
_atom_site_fract_z
Se1 Se 0.31658(6) -0.12683(5) 0.16429(2)
C1 C 0.7604(5) -0.0763(4) -0.0228(2)
C2 C 0.8031(5) -0.1591(4) 0.0342(2)
C3 C 0.4270(5) -0.0034(4) 0.02864(19)
C4 C 0.6606(5) -0.1734(4) 0.0880(2)
C5 C 0.4811(5) -0.0939(4) 0.0849(2)
C6 C 0.6773(6) -0.2648(5) 0.1488(2)
C7 C 0.5206(7) -0.2586(5) 0.1925(2)
H1 H 0.8575 -0.0693 -0.0600
H2 H 0.9340 -0.2112 0.0368
H3 H 0.7951 -0.3272 0.1565
H4 H 0.5129 -0.3163 0.2357
Se1D Se 0.68342(6) 0.12683(5) -0.16429(2)
C1D C 0.2396(5) 0.0763(4) 0.0228(2)
C2D C 0.1969(5) 0.1591(4) -0.0342(2)
C3D C 0.5730(5) 0.0034(4) -0.02864(19)
C4D C 0.3394(5) 0.1734(4) -0.0880(2)
C5D C 0.5189(5) 0.0939(4) -0.0849(2)
C6D C 0.3227(6) 0.2648(5) -0.1488(2)
C7D C 0.4794(7) 0.2586(5) -0.1925(2)
H1D H 0.1425 0.0693 0.0600
H2D H 0.0660 0.2112 -0.0368
H3D H 0.2049 0.3272 -0.1565
H4D H 0.4871 0.3163 -0.2357
loop_
_geom_bond_atom_site_label_1
_geom_bond_atom_site_label_2
_geom_bond_site_symmetry_1
_geom_bond_site_symmetry_2
Se1 C5 1_555 1_555
C1 C2 1_555 1_555
C2 C4 1_555 1_555
C3 C5 1_555 1_555
C4 C5 1_555 1_555
C6 C4 1_555 1_555
C7 Se1 1_555 1_555
H1 C1 1_555 1_555
H2 C2 1_555 1_555
H3 C6 1_555 1_555
H4 C7 1_555 1_555
Se1D C5D 1_555 1_555
C1D C3 1_555 1_555
C2D C1D 1_555 1_555
C3D C1 1_555 1_555
C4D C2D 1_555 1_555
C5D C3D 1_555 1_555
C6D C4D 1_555 1_555
C7D Se1D 1_555 1_555
H1D C1D 1_555 1_555
H2D C2D 1_555 1_555
H3D C6D 1_555 1_555
H4D C7D 1_555 1_555
C3 C3D 1_555 1_555
C6 C7 1_555 1_555
C4D C5D 1_555 1_555
C6D C7D 1_555 1_555

#END
