
#######################################################################
#
#                 Cambridge Crystallographic Data Centre
#                                CCDC 
#
#######################################################################
#
# If this CIF has been generated from an entry in the Cambridge 
# Structural Database, then it will include bibliographic, chemical, 
# crystal, experimental, refinement or atomic coordinate data resulting 
# from the CCDC's data processing and validation procedures.
#
#######################################################################

data_OKUQER
_chemical_formula_moiety         'C21 H23 N1 O2 S1'
_chemical_name_systematic        
3-Benzylidene-1-((4-methylphenyl)sulfonyl)-4-(prop-1-en-2-yl)pyrrolidine
_symmetry_cell_setting           monoclinic
_symmetry_space_group_name_H-M   'P 21/c'
_symmetry_Int_Tables_number      14
_space_group_name_Hall           '-P 2ybc'
loop_
_symmetry_equiv_pos_site_id
_symmetry_equiv_pos_as_xyz
1 x,y,z
2 -x,1/2+y,1/2-z
3 -x,-y,-z
4 x,1/2-y,1/2+z
_cell_length_a                   16.0988(3)
_cell_length_b                   22.0048(7)
_cell_length_c                   17.5308(5)
_cell_angle_alpha                90
_cell_angle_beta                 113.0340(10)
_cell_angle_gamma                90
_cell_volume                     5715.17
_exptl_crystal_colour            colorless
_exptl_crystal_description       prism
_cell_formula_units_Z            12
loop_
_atom_site_label
_atom_site_type_symbol
_atom_site_fract_x
_atom_site_fract_y
_atom_site_fract_z
S1 S 0.02971(5) 0.64656(4) 0.05154(4)
O1 O 0.12571(14) 0.64963(12) 0.07906(14)
O2 O -0.01048(17) 0.63123(12) 0.10857(14)
N1 N -0.00895(16) 0.71351(12) 0.01490(16)
C1 C -0.01117(17) 0.59580(13) -0.03204(17)
C2 C -0.08585(19) 0.55981(15) -0.0434(2)
H1 H -0.1131 0.5612 -0.0055
C4 C -0.1080(2) 0.72233(15) -0.0197(2)
H2 H -0.1296 0.7294 0.0240
H3 H -0.1389 0.6873 -0.0519
C5 C -0.1217(2) 0.77763(16) -0.0739(2)
C6 C -0.1194(2) 0.52205(16) -0.1113(2)
H4 H -0.1687 0.4975 -0.1181
C7 C -0.0815(2) 0.51980(15) -0.1693(2)
C8 C -0.2925(2) 0.79157(16) -0.1297(2)
C9 C 0.02891(19) 0.59340(16) -0.0893(2)
H5 H 0.0794 0.6170 -0.0819
C13 C -0.1991(2) 0.80484(17) -0.1191(2)
H11 H -0.1932 0.8381 -0.1494
C17 C -0.4098(2) 0.73440(19) -0.1076(3)
H13 H -0.4271 0.7006 -0.0854
C18 C -0.0284(2) 0.80137(17) -0.0647(2)
H14 H -0.0082 0.8309 -0.0192
C19 C 0.0295(2) 0.74606(17) -0.0370(2)
H15 H 0.0262 0.7215 -0.0840
H16 H 0.0919 0.7570 -0.0052
C20 C -0.3203(2) 0.74129(16) -0.0971(2)
H17 H -0.2782 0.7120 -0.0679
C21 C -0.0284(2) 0.8324(2) -0.1412(2)
C27 C -0.0070(2) 0.55576(17) -0.1570(2)
H22 H 0.0195 0.5545 -0.1955
C31 C -0.3581(3) 0.8332(2) -0.1739(3)
H25 H -0.3423 0.8666 -0.1979
C33 C -0.4465(3) 0.8258(3) -0.1829(3)
H27 H -0.4894 0.8546 -0.2119
C34 C -0.1205(3) 0.4790(2) -0.2455(3)
H28 H -0.1713 0.4571 -0.2438
H29 H -0.0752 0.4508 -0.2458
H30 H -0.1395 0.5035 -0.2947
C38 C -0.0152(3) 0.8923(2) -0.1356(4)
H36 H -0.0161 0.9142 -0.1814
H37 H -0.0051 0.9123 -0.0860
C39 C -0.0444(4) 0.8001(3) -0.2177(3)
H38 H -0.0508 0.7575 -0.2097
H39 H 0.0057 0.8063 -0.2336
H40 H -0.0986 0.8151 -0.2606
C41 C -0.4716(3) 0.7763(2) -0.1495(3)
H43 H -0.5314 0.7717 -0.1558
S2 S -0.68137(6) 0.68372(5) -0.04848(6)
O3 O -0.77718(17) 0.67831(14) -0.08155(17)
C3 C -0.6484(2) 0.73730(15) 0.0318(2)
O4 O -0.6358(2) 0.69804(15) -0.10185(18)
N2 N -0.64151(18) 0.61828(14) -0.0071(2)
C10 C -0.6947(2) 0.74126(17) 0.0841(3)
H6 H -0.7442 0.7164 0.0758
C11 C -0.6838(2) 0.58389(17) 0.0393(2)
H7 H -0.7461 0.5743 0.0051
H8 H -0.6813 0.6059 0.0881
C12 C -0.5427(2) 0.61146(17) 0.0335(3)
H9 H -0.5157 0.6457 0.0696
H10 H -0.5159 0.6080 -0.0071
C14 C -0.3611(2) 0.54060(18) 0.1376(2)
C15 C -0.6272(2) 0.52831(19) 0.0623(3)
H12 H -0.6439 0.5021 0.0133
C16 C -0.6329(2) 0.49142(19) 0.1333(2)
C22 C -0.5745(2) 0.77499(19) 0.0455(3)
H18 H -0.5426 0.7728 0.0113
C23 C -0.5312(2) 0.55478(19) 0.0816(3)
C24 C -0.4548(2) 0.5261(2) 0.1253(3)
H19 H -0.4615 0.4913 0.1525
C25 C -0.6664(3) 0.78244(19) 0.1482(3)
H20 H -0.6975 0.7847 0.1830
C26 C -0.5492(3) 0.81550(19) 0.1103(3)
H21 H -0.4999 0.8407 0.1191
C28 C -0.5942(3) 0.82034(18) 0.1630(3)
C29 C -0.2125(3) 0.5006(3) 0.1680(3)
H23 H -0.1724 0.4680 0.1842
C30 C -0.2433(3) 0.6024(2) 0.1273(3)
H24 H -0.2241 0.6400 0.1161
C32 C -0.2995(2) 0.4936(2) 0.1634(3)
H26 H -0.3170 0.4565 0.1779
C35 C -0.3312(2) 0.59564(19) 0.1214(3)
H31 H -0.3703 0.6287 0.1063
C36 C -0.1850(2) 0.5552(2) 0.1490(3)
H32 H -0.1268 0.5598 0.1511
C37 C -0.6158(3) 0.5151(3) 0.2137(3)
H33 H -0.6012 0.5575 0.2153
H34 H -0.5661 0.4936 0.2542
H35 H -0.6686 0.5101 0.2259
C40 C -0.6561(3) 0.4343(2) 0.1128(3)
H41 H -0.6619 0.4077 0.1515
H42 H -0.6666 0.4208 0.0595
C42 C -0.5660(4) 0.8654(2) 0.2342(3)
H44 H -0.5149 0.8883 0.2349
H45 H -0.5500 0.8438 0.2856
H46 H -0.6151 0.8925 0.2271
S3 S 0.35701(5) 0.50327(5) 0.56154(5)
C43 C 0.32555(19) 0.55988(15) 0.48599(19)
N3 N 0.31207(17) 0.44033(13) 0.51402(16)
C44 C 0.2134(2) 0.43583(15) 0.4793(2)
H47 H 0.1859 0.4722 0.4483
H48 H 0.1909 0.4296 0.5226
O5 O 0.31470(18) 0.51517(13) 0.61769(15)
C45 C 0.2501(2) 0.59553(16) 0.4726(2)
H49 H 0.2181 0.5910 0.5065
C46 C 0.2225(2) 0.63748(18) 0.4095(2)
H50 H 0.1723 0.6616 0.4015
O6 O 0.45246(16) 0.49499(15) 0.59150(17)
C47 C 0.0238(2) 0.37532(16) 0.3680(2)
C48 C 0.2864(2) 0.35586(16) 0.4301(2)
H51 H 0.3058 0.3258 0.4749
C49 C 0.1947(2) 0.38138(15) 0.4231(2)
C50 C 0.3734(2) 0.5676(2) 0.4356(3)
H52 H 0.4248 0.5445 0.4445
C51 C 0.3478(2) 0.40991(17) 0.4588(2)
H53 H 0.4101 0.3976 0.4884
H54 H 0.3437 0.4358 0.4127
C52 C 0.2683(3) 0.6444(2) 0.3576(2)
C53 C 0.2855(2) 0.32467(17) 0.3523(2)
C54 C 0.1153(2) 0.35747(16) 0.3778(2)
H55 H 0.1178 0.3236 0.3470
C55 C -0.0462(3) 0.3374(2) 0.3233(3)
H56 H -0.0340 0.3025 0.2998
C56 C -0.0870(3) 0.4396(2) 0.3887(3)
H57 H -0.1006 0.4748 0.4109
C57 C -0.1340(3) 0.3498(3) 0.3123(3)
H58 H -0.1798 0.3232 0.2817
C58 C 0.2363(5) 0.6882(3) 0.2859(3)
H59 H 0.1829 0.7086 0.2843
H60 H 0.2230 0.6663 0.2351
H61 H 0.2827 0.7176 0.2926
C59 C 0.0010(2) 0.42734(18) 0.3996(3)
H62 H 0.0462 0.4548 0.4289
C60 C 0.3442(3) 0.6094(2) 0.3729(3)
H63 H 0.3766 0.6143 0.3394
C61 C 0.3130(3) 0.2680(2) 0.3600(3)
H64 H 0.3138 0.2471 0.3142
H65 H 0.3316 0.2487 0.4112
C62 C -0.1539(3) 0.4001(2) 0.3456(3)
H66 H -0.2131 0.4077 0.3391
C63 C 0.2554(3) 0.3574(2) 0.2733(3)
H67 H 0.2375 0.3978 0.2806
H68 H 0.2051 0.3364 0.2328
H69 H 0.3040 0.3593 0.2545
loop_
_geom_bond_atom_site_label_1
_geom_bond_atom_site_label_2
_geom_bond_site_symmetry_1
_geom_bond_site_symmetry_2
S1 O1 1_555 1_555
S2 O3 1_555 1_555
O2 S1 1_555 1_555
N1 S1 1_555 1_555
C1 S1 1_555 1_555
C2 C1 1_555 1_555
H1 C2 1_555 1_555
C3 S2 1_555 1_555
C4 N1 1_555 1_555
H2 C4 1_555 1_555
H3 C4 1_555 1_555
C5 C4 1_555 1_555
C6 C2 1_555 1_555
H4 C6 1_555 1_555
C7 C6 1_555 1_555
C8 C13 1_555 1_555
O4 S2 1_555 1_555
C9 C1 1_555 1_555
H5 C9 1_555 1_555
N2 S2 1_555 1_555
C10 C3 1_555 1_555
H6 C10 1_555 1_555
C11 N2 1_555 1_555
H7 C11 1_555 1_555
H8 C11 1_555 1_555
C12 N2 1_555 1_555
H9 C12 1_555 1_555
H10 C12 1_555 1_555
C13 C5 1_555 1_555
H11 C13 1_555 1_555
C14 C24 1_555 1_555
C15 C11 1_555 1_555
H12 C15 1_555 1_555
C16 C15 1_555 1_555
C17 H13 1_555 1_555
C18 C5 1_555 1_555
H14 C18 1_555 1_555
C19 N1 1_555 1_555
H15 C19 1_555 1_555
H16 C19 1_555 1_555
C20 C8 1_555 1_555
H17 C20 1_555 1_555
C21 C18 1_555 1_555
C22 C3 1_555 1_555
H18 C22 1_555 1_555
C23 C12 1_555 1_555
C24 C23 1_555 1_555
H19 C24 1_555 1_555
C25 C10 1_555 1_555
H20 C25 1_555 1_555
C26 C22 1_555 1_555
H21 C26 1_555 1_555
C27 C7 1_555 1_555
H22 C27 1_555 1_555
C28 C25 1_555 1_555
C29 H23 1_555 1_555
C30 H24 1_555 1_555
C31 C8 1_555 1_555
H25 C31 1_555 1_555
C32 C14 1_555 1_555
H26 C32 1_555 1_555
C33 C31 1_555 1_555
H27 C33 1_555 1_555
C34 C7 1_555 1_555
H28 C34 1_555 1_555
H29 C34 1_555 1_555
H30 C34 1_555 1_555
C35 C14 1_555 1_555
H31 C35 1_555 1_555
C36 C29 1_555 1_555
H32 C36 1_555 1_555
C37 C16 1_555 1_555
H33 C37 1_555 1_555
H34 C37 1_555 1_555
H35 C37 1_555 1_555
C38 C21 1_555 1_555
H36 C38 1_555 1_555
H37 C38 1_555 1_555
C39 C21 1_555 1_555
H38 C39 1_555 1_555
H39 C39 1_555 1_555
H40 C39 1_555 1_555
C40 C16 1_555 1_555
H41 C40 1_555 1_555
H42 C40 1_555 1_555
C41 C17 1_555 1_555
H43 C41 1_555 1_555
C42 C28 1_555 1_555
H44 C42 1_555 1_555
H45 C42 1_555 1_555
H46 C42 1_555 1_555
S3 C43 1_555 1_555
C43 C45 1_555 1_555
N3 S3 1_555 1_555
C44 N3 1_555 1_555
H47 C44 1_555 1_555
H48 C44 1_555 1_555
O5 S3 1_555 1_555
C45 H49 1_555 1_555
C46 C45 1_555 1_555
H50 C46 1_555 1_555
O6 S3 1_555 1_555
C47 C54 1_555 1_555
C48 H51 1_555 1_555
C49 C44 1_555 1_555
C50 C43 1_555 1_555
H52 C50 1_555 1_555
C51 N3 1_555 1_555
H53 C51 1_555 1_555
H54 C51 1_555 1_555
C52 C46 1_555 1_555
C53 C48 1_555 1_555
C54 C49 1_555 1_555
H55 C54 1_555 1_555
C55 C47 1_555 1_555
H56 C55 1_555 1_555
C56 H57 1_555 1_555
C57 C55 1_555 1_555
H58 C57 1_555 1_555
C58 C52 1_555 1_555
H59 C58 1_555 1_555
H60 C58 1_555 1_555
H61 C58 1_555 1_555
C59 C47 1_555 1_555
H62 C59 1_555 1_555
C60 C50 1_555 1_555
H63 C60 1_555 1_555
C61 C53 1_555 1_555
H64 C61 1_555 1_555
H65 C61 1_555 1_555
C62 C56 1_555 1_555
H66 C62 1_555 1_555
C63 C53 1_555 1_555
H67 C63 1_555 1_555
H68 C63 1_555 1_555
H69 C63 1_555 1_555
C9 C27 1_555 1_555
C15 C23 1_555 1_555
C17 C20 1_555 1_555
C18 C19 1_555 1_555
C26 C28 1_555 1_555
C29 C32 1_555 1_555
C30 C35 1_555 1_555
C30 C36 1_555 1_555
C33 C41 1_555 1_555
C48 C49 1_555 1_555
C48 C51 1_555 1_555
C52 C60 1_555 1_555
C56 C59 1_555 1_555
C57 C62 1_555 1_555

#END
