
#######################################################################
#
#                 Cambridge Crystallographic Data Centre
#                                CCDC 
#
#######################################################################
#
# If this CIF has been generated from an entry in the Cambridge 
# Structural Database, then it will include bibliographic, chemical, 
# crystal, experimental, refinement or atomic coordinate data resulting 
# from the CCDC's data processing and validation procedures.
#
#######################################################################

data_OKURAO
_chemical_formula_moiety         'C28 H24 O3,0.5(C1 H2 Cl2)'
_chemical_name_systematic        
'1,3-bis(2-methoxyphenyl)-1-methyl-1H-benzo[f]chromene dichloromethane solvate'
_symmetry_cell_setting           monoclinic
_symmetry_space_group_name_H-M   'C 2/c'
_symmetry_Int_Tables_number      15
_space_group_name_Hall           '-C 2yn'
loop_
_symmetry_equiv_pos_site_id
_symmetry_equiv_pos_as_xyz
1 x,y,z
2 -x,y,1/2-z
3 1/2+x,1/2+y,z
4 1/2-x,1/2+y,1/2-z
5 -x,-y,-z
6 x,-y,1/2+z
7 1/2-x,1/2-y,-z
8 1/2+x,1/2-y,1/2+z
_cell_length_a                   25.8992(11)
_cell_length_b                   10.2927(5)
_cell_length_c                   18.4191(9)
_cell_angle_alpha                90
_cell_angle_beta                 115.0950(11)
_cell_angle_gamma                90
_cell_volume                     4446.55
_exptl_crystal_colour            colorless
_exptl_crystal_description       chunk
_cell_formula_units_Z            8
loop_
_atom_site_label
_atom_site_type_symbol
_atom_site_fract_x
_atom_site_fract_y
_atom_site_fract_z
Cl1 Cl 0.5557(2) 0.6029(7) 0.2584(5)
C29 C 0.5000 0.661(2) 0.2500
H25 H 0.5109 0.7182 0.2960
Cl1A Cl 0.4443(2) 0.6029(7) 0.2416(5)
H25A H 0.4891 0.7182 0.2040
O1 O 0.67249(6) 0.69546(12) 0.56592(9)
O2 O 0.67787(6) 0.42015(12) 0.48676(8)
O3 O 0.52733(6) 0.6142(2) 0.59600(11)
C1 C 0.68673(8) 0.44052(19) 0.64263(11)
C2 C 0.63119(8) 0.5129(2) 0.59806(12)
C3 C 0.62559(8) 0.6288(2) 0.56528(12)
C4 C 0.72584(8) 0.64076(19) 0.60550(11)
C5 C 0.76900(9) 0.7209(2) 0.60316(12)
C6 C 0.82413(9) 0.6818(2) 0.63963(12)
C7 C 0.83856(9) 0.5608(2) 0.67914(12)
C8 C 0.89618(9) 0.5200(2) 0.71794(14)
C9 C 0.91059(10) 0.4034(2) 0.75635(14)
C10 C 0.86774(10) 0.3214(2) 0.75686(12)
C11 C 0.81179(9) 0.3572(2) 0.71985(12)
C12 C 0.79455(8) 0.4790(2) 0.68015(11)
C13 C 0.73624(8) 0.52163(19) 0.64230(11)
C14 C 0.68199(8) 0.30851(19) 0.60086(11)
C15 C 0.67976(8) 0.1911(2) 0.63617(12)
C16 C 0.67397(9) 0.0735(2) 0.59733(14)
C17 C 0.67087(10) 0.0713(2) 0.52130(14)
C18 C 0.67254(9) 0.1855(2) 0.48321(12)
C19 C 0.67761(8) 0.30322(18) 0.52202(11)
C20 C 0.67270(10) 0.4204(2) 0.40700(12)
C21 C 0.57312(8) 0.7053(2) 0.52178(12)
C22 C 0.57148(11) 0.7926(2) 0.46406(16)
C23 C 0.52407(12) 0.8681(3) 0.4212(2)
C24 C 0.47687(12) 0.8567(3) 0.4359(2)
C25 C 0.47697(10) 0.7736(2) 0.49312(17)
C26 C 0.52458(9) 0.6981(2) 0.53662(13)
C27 C 0.47959(12) 0.6022(3) 0.61531(19)
C28 C 0.69262(10) 0.4270(2) 0.72929(12)
H1 H 0.5980 0.4716 0.5934
H2 H 0.7598 0.8004 0.5767
H3 H 0.8527 0.7353 0.6386
H4 H 0.9247 0.5739 0.7171
H5 H 0.9486 0.3787 0.7820
H6 H 0.8775 0.2414 0.7827
H7 H 0.7841 0.3004 0.7206
H8 H 0.6823 0.1915 0.6880
H9 H 0.6722 -0.0035 0.6226
H10 H 0.6676 -0.0077 0.4952
H11 H 0.6703 0.1835 0.4315
H12 H 0.6034 0.8010 0.4536
H13 H 0.5244 0.9261 0.3827
H14 H 0.4446 0.9060 0.4066
H15 H 0.4448 0.7672 0.5033
H16 H 0.6745 0.5082 0.3905
H17 H 0.6368 0.3825 0.3721
H18 H 0.7032 0.3708 0.4044
H19 H 0.4870 0.5350 0.6546
H20 H 0.4462 0.5804 0.5678
H21 H 0.4735 0.6831 0.6364
H22 H 0.7256 0.3753 0.7600
H23 H 0.6592 0.3856 0.7286
H24 H 0.6968 0.5115 0.7531
loop_
_geom_bond_atom_site_label_1
_geom_bond_atom_site_label_2
_geom_bond_site_symmetry_1
_geom_bond_site_symmetry_2
Cl1 C29 1_555 1_555
O1 C3 1_555 1_555
O2 C19 1_555 1_555
O3 C26 1_555 1_555
C1 C2 1_555 1_555
C2 C3 1_555 1_555
C3 C21 1_555 1_555
C4 O1 1_555 1_555
C5 C4 1_555 1_555
C6 C5 1_555 1_555
C7 C6 1_555 1_555
C8 C7 1_555 1_555
C9 C8 1_555 1_555
C10 C9 1_555 1_555
C11 C10 1_555 1_555
C12 C7 1_555 1_555
C13 C1 1_555 1_555
C14 C1 1_555 1_555
C15 C14 1_555 1_555
C16 C15 1_555 1_555
C17 C16 1_555 1_555
C18 C17 1_555 1_555
C19 C14 1_555 1_555
C20 O2 1_555 1_555
C21 C22 1_555 1_555
C22 C23 1_555 1_555
C23 C24 1_555 1_555
C24 C25 1_555 1_555
C25 C26 1_555 1_555
C26 C21 1_555 1_555
C27 O3 1_555 1_555
C28 C1 1_555 1_555
C29 H25 1_555 1_555
H1 C2 1_555 1_555
H2 C5 1_555 1_555
H3 C6 1_555 1_555
H4 C8 1_555 1_555
H5 C9 1_555 1_555
H6 C10 1_555 1_555
H7 C11 1_555 1_555
H8 C15 1_555 1_555
H9 C16 1_555 1_555
H10 C17 1_555 1_555
H11 C18 1_555 1_555
H12 C22 1_555 1_555
H13 C23 1_555 1_555
H14 C24 1_555 1_555
H15 C25 1_555 1_555
H16 C20 1_555 1_555
H17 C20 1_555 1_555
H18 C20 1_555 1_555
H19 C27 1_555 1_555
H20 C27 1_555 1_555
H21 C27 1_555 1_555
H22 C28 1_555 1_555
H23 C28 1_555 1_555
H24 C28 1_555 1_555
Cl1A C29 1_555 1_555
H25A C29 1_555 1_555
C4 C13 1_555 1_555
C11 C12 1_555 1_555
C12 C13 1_555 1_555
C18 C19 1_555 1_555

#END
