
#######################################################################
#
#                 Cambridge Crystallographic Data Centre
#                                CCDC 
#
#######################################################################
#
# If this CIF has been generated from an entry in the Cambridge 
# Structural Database, then it will include bibliographic, chemical, 
# crystal, experimental, refinement or atomic coordinate data resulting 
# from the CCDC's data processing and validation procedures.
#
#######################################################################

data_OKURIW
_chemical_formula_moiety         'C21 H18 O10'
_chemical_name_systematic        
'1,2,3,4-Tetramethyl 5-phenyl benzene-1,2,3,4,5-pentacarboxylate'
_symmetry_cell_setting           monoclinic
_symmetry_space_group_name_H-M   'P 21/c'
_symmetry_Int_Tables_number      14
_space_group_name_Hall           '-P 2ybc'
loop_
_symmetry_equiv_pos_site_id
_symmetry_equiv_pos_as_xyz
1 x,y,z
2 -x,1/2+y,1/2-z
3 -x,-y,-z
4 x,1/2-y,1/2+z
_cell_length_a                   13.620(3)
_cell_length_b                   19.411(4)
_cell_length_c                   8.0165(16)
_cell_angle_alpha                90
_cell_angle_beta                 104.32(3)
_cell_angle_gamma                90
_cell_volume                     2053.53
_cell_formula_units_Z            4
loop_
_atom_site_label
_atom_site_type_symbol
_atom_site_fract_x
_atom_site_fract_y
_atom_site_fract_z
C1 C 0.36168(15) 0.41977(10) 0.2182(2)
O1 O 0.37814(12) 0.30132(7) 0.2724(2)
C2 C 0.46479(16) 0.43427(10) 0.2446(2)
O2 O 0.24573(15) 0.33685(9) 0.0686(2)
C3 C 0.49827(16) 0.50302(10) 0.2682(3)
O3 O 0.53411(12) 0.34966(8) 0.10079(19)
C4 C 0.42842(16) 0.55478(11) 0.2704(3)
H1 H 0.4506 0.6002 0.2865
O4 O 0.59683(12) 0.35889(8) 0.3858(2)
C5 C 0.32730(16) 0.54062(10) 0.2493(3)
O5 O 0.65967(13) 0.48048(9) 0.2274(2)
C6 C 0.29216(16) 0.47287(10) 0.2198(2)
O6 O 0.63775(14) 0.57777(9) 0.3584(3)
C7 C 0.32132(17) 0.34876(11) 0.1774(3)
O7 O 0.26607(14) 0.65533(8) 0.2017(2)
C8 C 0.54011(16) 0.37703(10) 0.2545(3)
O8 O 0.18988(11) 0.58205(7) 0.34623(19)
C9 C 0.60529(17) 0.52492(11) 0.2901(3)
O9 O 0.12311(12) 0.48360(9) 0.0549(2)
C10 C 0.25880(16) 0.59960(11) 0.2587(3)
O10 O 0.15374(12) 0.42167(8) 0.2973(2)
C11 C 0.18054(17) 0.45979(11) 0.1796(3)
C12 C 0.3500(2) 0.23001(12) 0.2296(4)
H2 H 0.2818 0.2224 0.2384
H3 H 0.3952 0.2000 0.3080
H4 H 0.3543 0.2206 0.1141
C13 C 0.6034(2) 0.29361(14) 0.0957(4)
H5 H 0.6716 0.3108 0.1230
H6 H 0.5876 0.2737 -0.0174
H7 H 0.5970 0.2591 0.1783
C14 C 0.76628(19) 0.49562(16) 0.2551(4)
H8 H 0.7746 0.5375 0.1965
H9 H 0.7991 0.4585 0.2109
H10 H 0.7960 0.5008 0.3761
C15 C 0.11673(16) 0.63174(10) 0.3616(3)
C16 C 0.14427(18) 0.68578(12) 0.4731(3)
H11 H 0.2112 0.6917 0.5346
C17 C 0.0697(2) 0.73134(13) 0.4917(3)
H12 H 0.0865 0.7684 0.5668
C18 C -0.02867(19) 0.72231(13) 0.4003(3)
H13 H -0.0784 0.7531 0.4137
C19 C -0.05361(18) 0.66800(13) 0.2895(3)
H14 H -0.1204 0.6621 0.2274
C20 C 0.01970(18) 0.62176(12) 0.2688(3)
H15 H 0.0031 0.5848 0.1933
C21 C 0.0458(2) 0.40815(16) 0.2673(4)
H16 H 0.0095 0.4510 0.2523
H17 H 0.0330 0.3840 0.3642
H18 H 0.0237 0.3806 0.1655
loop_
_geom_bond_atom_site_label_1
_geom_bond_atom_site_label_2
_geom_bond_site_symmetry_1
_geom_bond_site_symmetry_2
C1 C2 1_555 1_555
O1 C7 1_555 1_555
C2 C3 1_555 1_555
O2 C7 1_555 1_555
C3 C4 1_555 1_555
O3 C8 1_555 1_555
C4 H1 1_555 1_555
O4 C8 1_555 1_555
C5 C4 1_555 1_555
O5 C9 1_555 1_555
C6 C1 1_555 1_555
O6 C9 1_555 1_555
C7 C1 1_555 1_555
O7 C10 1_555 1_555
C8 C2 1_555 1_555
O8 C10 1_555 1_555
C9 C3 1_555 1_555
O9 C11 1_555 1_555
C10 C5 1_555 1_555
O10 C11 1_555 1_555
C11 C6 1_555 1_555
C12 O1 1_555 1_555
H2 C12 1_555 1_555
H3 C12 1_555 1_555
H4 C12 1_555 1_555
C13 O3 1_555 1_555
H5 C13 1_555 1_555
H6 C13 1_555 1_555
H7 C13 1_555 1_555
C14 O5 1_555 1_555
H8 C14 1_555 1_555
H9 C14 1_555 1_555
H10 C14 1_555 1_555
C15 O8 1_555 1_555
C16 C15 1_555 1_555
H11 C16 1_555 1_555
C17 C16 1_555 1_555
H12 C17 1_555 1_555
C18 C17 1_555 1_555
H13 C18 1_555 1_555
C19 C18 1_555 1_555
H14 C19 1_555 1_555
C20 C15 1_555 1_555
H15 C20 1_555 1_555
C21 O10 1_555 1_555
H16 C21 1_555 1_555
H17 C21 1_555 1_555
H18 C21 1_555 1_555
C5 C6 1_555 1_555
C19 C20 1_555 1_555

#END
