
#######################################################################
#
#                 Cambridge Crystallographic Data Centre
#                                CCDC 
#
#######################################################################
#
# If this CIF has been generated from an entry in the Cambridge 
# Structural Database, then it will include bibliographic, chemical, 
# crystal, experimental, refinement or atomic coordinate data resulting 
# from the CCDC's data processing and validation procedures.
#
#######################################################################

data_OKUXOJ
_chemical_formula_moiety         'C14 H10 Cl2 O2'
_chemical_name_systematic        
1-(4-chloro-2-(4-chlorophenoxy)phenyl)ethanone
_symmetry_cell_setting           monoclinic
_symmetry_space_group_name_H-M   'P 21/c'
_symmetry_Int_Tables_number      14
_space_group_name_Hall           '-P 2ybc'
loop_
_symmetry_equiv_pos_site_id
_symmetry_equiv_pos_as_xyz
1 x,y,z
2 -x,1/2+y,1/2-z
3 -x,-y,-z
4 x,1/2-y,1/2+z
_cell_length_a                   13.448(7)
_cell_length_b                   7.6635(5)
_cell_length_c                   13.638(6)
_cell_angle_alpha                90
_cell_angle_beta                 117.14(6)
_cell_angle_gamma                90
_cell_volume                     1250.76
_exptl_crystal_colour            colorless
_exptl_crystal_description       block
_chemical_melting_point          '381.15 K'
_cell_formula_units_Z            4
loop_
_atom_site_label
_atom_site_type_symbol
_atom_site_fract_x
_atom_site_fract_y
_atom_site_fract_z
Cl1 Cl 0.36616(4) 0.36565(6) 0.33156(3)
Cl2 Cl -0.13584(4) -0.25297(6) -0.06849(4)
O1 O 0.39848(10) -0.18768(16) 0.72094(9)
O2 O 0.19190(10) -0.18779(17) 0.39716(9)
C1 C 0.35971(14) 0.1983(2) 0.41511(14)
C2 C 0.43105(14) 0.0622(2) 0.58990(14)
H1 H 0.4812 0.0601 0.6645
C3 C -0.06845(15) -0.1488(2) 0.14145(14)
H2 H -0.1413 -0.1099 0.1176
C4 C 0.43624(15) 0.1978(2) 0.52568(14)
H3 H 0.4893 0.2858 0.5557
C5 C 0.36088(14) -0.2173(2) 0.62273(14)
C6 C 0.00967(15) -0.1321(2) 0.25106(14)
H4 H -0.0101 -0.0807 0.3015
C7 C 0.27806(14) 0.0721(2) 0.36853(14)
H5 H 0.2265 0.0774 0.2944
C8 C 0.32677(16) -0.3991(2) 0.57921(15)
H6 H 0.3678 -0.4818 0.6363
H7 H 0.3425 -0.4178 0.5181
H8 H 0.2482 -0.4138 0.5554
C9 C 0.35293(14) -0.0715(2) 0.54625(13)
C10 C 0.11705(14) -0.1923(2) 0.28469(14)
C11 C 0.27473(14) -0.0626(2) 0.43501(13)
C12 C -0.03641(15) -0.2244(2) 0.06805(14)
C13 C 0.14947(15) -0.2668(2) 0.21163(15)
H9 H 0.2224 -0.3059 0.2358
C14 C 0.07203(15) -0.2825(2) 0.10195(15)
H10 H 0.0925 -0.3315 0.0514
loop_
_geom_bond_atom_site_label_1
_geom_bond_atom_site_label_2
_geom_bond_site_symmetry_1
_geom_bond_site_symmetry_2
Cl1 C1 1_555 1_555
Cl2 C12 1_555 1_555
O1 C5 1_555 1_555
O2 C10 1_555 1_555
C1 C4 1_555 1_555
C2 H1 1_555 1_555
C3 H2 1_555 1_555
C4 C2 1_555 1_555
H3 C4 1_555 1_555
C5 C8 1_555 1_555
C6 C3 1_555 1_555
H4 C6 1_555 1_555
C7 C1 1_555 1_555
H5 C7 1_555 1_555
C8 H6 1_555 1_555
H7 C8 1_555 1_555
H8 C8 1_555 1_555
C9 C2 1_555 1_555
C10 C6 1_555 1_555
C11 O2 1_555 1_555
C12 C3 1_555 1_555
C13 C10 1_555 1_555
H9 C13 1_555 1_555
C14 C12 1_555 1_555
H10 C14 1_555 1_555
C5 C9 1_555 1_555
C7 C11 1_555 1_555
C9 C11 1_555 1_555
C13 C14 1_555 1_555

#END
