
#######################################################################
#
#                 Cambridge Crystallographic Data Centre
#                                CCDC 
#
#######################################################################
#
# If this CIF has been generated from an entry in the Cambridge 
# Structural Database, then it will include bibliographic, chemical, 
# crystal, experimental, refinement or atomic coordinate data resulting 
# from the CCDC's data processing and validation procedures.
#
#######################################################################

data_OKUZIF
_chemical_formula_moiety         'H12 Mg1 O6 2+,C2 N8 O2 2-'
_chemical_name_systematic        
"hexaaqua-magnesium 1H,1'H-5,5'-bitetrazole-1,1'-diolate"
_symmetry_cell_setting           orthorhombic
_symmetry_space_group_name_H-M   'P b c n'
_symmetry_Int_Tables_number      60
_space_group_name_Hall           '-P 2n 2ab'
loop_
_symmetry_equiv_pos_site_id
_symmetry_equiv_pos_as_xyz
1 x,y,z
2 1/2-x,1/2-y,1/2+z
3 1/2+x,1/2-y,-z
4 -x,y,1/2-z
5 -x,-y,-z
6 1/2+x,1/2+y,1/2-z
7 1/2-x,1/2+y,z
8 x,-y,1/2+z
_cell_length_a                   9.856(8)
_cell_length_b                   6.582(5)
_cell_length_c                   18.276(13)
_cell_angle_alpha                90
_cell_angle_beta                 90
_cell_angle_gamma                90
_cell_volume                     1185.6
_exptl_crystal_colour            yellow
_exptl_crystal_description       block
_cell_formula_units_Z            4
loop_
_atom_site_label
_atom_site_type_symbol
_atom_site_fract_x
_atom_site_fract_y
_atom_site_fract_z
Mg1 Mg 0.5000 0.5000 0.0000
O1 O 0.36979(10) 0.28679(18) -0.04222(5)
H1 H 0.375(2) 0.228(3) -0.0866(7)
H2 H 0.2943(15) 0.240(3) -0.0185(11)
O2 O 0.66033(9) 0.35242(15) -0.05152(5)
H3 H 0.638(2) 0.235(2) -0.0751(10)
H4 H 0.7182(16) 0.420(3) -0.0812(9)
O3 O 0.53225(10) 0.31806(16) 0.09056(5)
H5 H 0.4847 0.2164 0.1055
H6 H 0.5749 0.3453 0.1302
O1D O 0.63021(10) 0.71321(18) 0.04222(5)
H1D H 0.625(2) 0.772(3) 0.0866(7)
H2D H 0.7057(15) 0.760(3) 0.0185(11)
O2D O 0.33967(9) 0.64758(15) 0.05152(5)
H3D H 0.362(2) 0.765(2) 0.0751(10)
H4D H 0.2818(16) 0.580(3) 0.0812(9)
O3D O 0.46775(10) 0.68194(16) -0.09056(5)
H5D H 0.5153 0.7836 -0.1055
H6D H 0.4251 0.6547 -0.1302
O4 O 0.13342(9) 0.48896(15) 0.12961(5)
N1 N 0.15960(11) 0.44689(17) 0.19903(6)
C1 C 0.07278(13) 0.4107(2) 0.25399(6)
N2 N 0.28618(11) 0.43594(19) 0.22467(7)
N3 N 0.27472(11) 0.3933(2) 0.29442(6)
N4 N 0.14412(12) 0.37738(19) 0.31440(6)
O4C O -0.13342(9) 0.48896(15) 0.37039(5)
N1C N -0.15960(11) 0.44689(17) 0.30097(6)
C1C C -0.07278(13) 0.4107(2) 0.24601(6)
N2C N -0.28618(11) 0.43594(19) 0.27533(7)
N3C N -0.27472(11) 0.3933(2) 0.20558(6)
N4C N -0.14412(12) 0.37738(19) 0.18560(6)
loop_
_geom_bond_atom_site_label_1
_geom_bond_atom_site_label_2
_geom_bond_site_symmetry_1
_geom_bond_site_symmetry_2
Mg1 O1 1_555 1_555
O1 H1 1_555 1_555
H2 O1 1_555 1_555
O2 Mg1 1_555 1_555
H3 O2 1_555 1_555
H4 O2 1_555 1_555
O3 Mg1 1_555 1_555
H5 O3 1_555 1_555
H6 O3 1_555 1_555
O4 N1 1_555 1_555
N1 C1 1_555 1_555
C1 N4 1_555 1_555
N2 N1 1_555 1_555
N3 N2 1_555 1_555
N4 N3 1_555 1_555
O1D Mg1 1_555 1_555
H1D O1D 1_555 1_555
H2D O1D 1_555 1_555
O2D Mg1 1_555 1_555
H3D O2D 1_555 1_555
H4D O2D 1_555 1_555
O3D Mg1 1_555 1_555
H5D O3D 1_555 1_555
H6D O3D 1_555 1_555
O4C N1C 1_555 1_555
N1C C1C 1_555 1_555
C1C C1 1_555 1_555
N2C N1C 1_555 1_555
N3C N2C 1_555 1_555
N4C C1C 1_555 1_555
N3C N4C 1_555 1_555

#END
