
#######################################################################
#
#                 Cambridge Crystallographic Data Centre
#                                CCDC 
#
#######################################################################
#
# If this CIF has been generated from an entry in the Cambridge 
# Structural Database, then it will include bibliographic, chemical, 
# crystal, experimental, refinement or atomic coordinate data resulting 
# from the CCDC's data processing and validation procedures.
#
#######################################################################

data_OLAJAO
_chemical_formula_moiety         'C5 H3 N1 O4 S1'
_chemical_name_systematic        '4-Nitrothiophene-2-carboxylic acid'
_symmetry_cell_setting           monoclinic
_symmetry_space_group_name_H-M   'P 21/c'
_symmetry_Int_Tables_number      14
_space_group_name_Hall           '-P 2ybc'
loop_
_symmetry_equiv_pos_site_id
_symmetry_equiv_pos_as_xyz
1 x,y,z
2 -x,1/2+y,1/2-z
3 -x,-y,-z
4 x,1/2-y,1/2+z
_cell_length_a                   11.7169(18)
_cell_length_b                   8.2671(12)
_cell_length_c                   28.478(4)
_cell_angle_alpha                90
_cell_angle_beta                 93.396(2)
_cell_angle_gamma                90
_cell_volume                     2753.67
_exptl_crystal_colour            yellow
_exptl_crystal_description       block
_cell_formula_units_Z            16
loop_
_atom_site_label
_atom_site_type_symbol
_atom_site_fract_x
_atom_site_fract_y
_atom_site_fract_z
C1 C 0.00312(14) 0.8721(2) 0.12542(6)
C2 C -0.04078(16) 0.7989(2) 0.08095(6)
C3 C -0.03737(15) 0.8478(2) 0.16857(6)
H1 H -0.0995 0.7825 0.1745
C4 C 0.02797(15) 0.9352(2) 0.20299(6)
C5 C 0.11559(16) 1.0219(2) 0.18634(7)
H2 H 0.1666 1.0844 0.2048
N1 N 0.00374(16) 0.93506(19) 0.25236(5)
O1 O 0.00967(15) 0.8423(2) 0.04411(5)
H3 H -0.0171 0.7917 0.0212
O2 O -0.12138(14) 0.7015(2) 0.08112(5)
O3 O 0.06758(16) 1.00951(19) 0.27993(5)
O4 O -0.08053(16) 0.8610(2) 0.26360(5)
S1 S 0.11894(4) 1.00047(6) 0.127287(17)
C6 C 0.67785(17) -0.0133(3) 0.03527(6)
C7 C 0.72077(15) 0.0666(2) 0.07885(6)
C8 C 0.69332(15) 0.0286(2) 0.12303(6)
H4 H 0.6419 -0.0517 0.1305
C9 C 0.75366(14) 0.1279(2) 0.15597(6)
C10 C 0.82381(16) 0.2381(2) 0.13718(7)
H5 H 0.8689 0.3118 0.1545
N2 N 0.74341(14) 0.1137(2) 0.20635(5)
O5 O 0.71928(16) 0.0397(2) -0.00281(5)
H6 H 0.6975 -0.0180 -0.0250
O6 O 0.60772(15) -0.1241(2) 0.03677(5)
O7 O 0.80840(16) 0.1938(2) 0.23219(5)
O8 O 0.67162(15) 0.0221(2) 0.22025(5)
S2 S 0.81781(5) 0.22263(7) 0.077947(18)
C11 C 0.42966(16) 0.2322(2) 0.07617(6)
C12 C 0.47418(15) 0.3074(2) 0.12015(6)
C13 C 0.55366(14) 0.4271(2) 0.12662(6)
H7 H 0.5912 0.4772 0.1027
C14 C 0.57052(15) 0.4636(2) 0.17494(6)
C15 C 0.50548(16) 0.3751(2) 0.20369(6)
H8 H 0.5067 0.3864 0.2362
N3 N 0.65064(13) 0.5860(2) 0.19275(6)
O9 O 0.65514(14) 0.6158(2) 0.23474(5)
O10 O 0.47795(14) 0.2769(2) 0.03889(5)
H9 H 0.4488 0.2289 0.0160
O11 O 0.35026(13) 0.1335(2) 0.07683(5)
O12 O 0.70981(14) 0.6509(2) 0.16446(6)
S3 S 0.42252(5) 0.24222(7) 0.172252(17)
C16 C 0.15110(16) 0.4100(2) 0.03233(6)
C17 C 0.19283(15) 0.4928(2) 0.07542(6)
C18 C 0.28019(15) 0.6009(2) 0.08107(6)
H10 H 0.3241 0.6375 0.0571
C19 C 0.29445(15) 0.6492(2) 0.12837(6)
C20 C 0.22003(17) 0.5810(2) 0.15757(6)
H11 H 0.2190 0.6018 0.1896
N4 N 0.38302(15) 0.7612(2) 0.14546(7)
O13 O 0.20750(14) 0.4379(2) -0.00403(5)
H12 H 0.1808 0.3841 -0.0262
O14 O 0.06677(13) 0.3184(2) 0.03309(5)
O15 O 0.44943(16) 0.8078(2) 0.11759(7)
O16 O 0.38636(17) 0.8003(2) 0.18654(6)
S4 S 0.12991(4) 0.45368(6) 0.127455(16)
loop_
_geom_bond_atom_site_label_1
_geom_bond_atom_site_label_2
_geom_bond_site_symmetry_1
_geom_bond_site_symmetry_2
C1 C2 1_555 1_555
C2 O1 1_555 1_555
C3 C1 1_555 1_555
H1 C3 1_555 1_555
C4 C3 1_555 1_555
C5 C4 1_555 1_555
H2 C5 1_555 1_555
N1 C4 1_555 1_555
O1 H3 1_555 1_555
O2 C2 1_555 1_555
O3 N1 1_555 1_555
O4 N1 1_555 1_555
S1 C1 1_555 1_555
C6 C7 1_555 1_555
C7 C8 1_555 1_555
C8 H4 1_555 1_555
C9 C8 1_555 1_555
C10 C9 1_555 1_555
H5 C10 1_555 1_555
N2 C9 1_555 1_555
O5 C6 1_555 1_555
H6 O5 1_555 1_555
O6 C6 1_555 1_555
O7 N2 1_555 1_555
O8 N2 1_555 1_555
S2 C7 1_555 1_555
C11 C12 1_555 1_555
C12 C13 1_555 1_555
C13 H7 1_555 1_555
C14 C13 1_555 1_555
C15 C14 1_555 1_555
H8 C15 1_555 1_555
N3 C14 1_555 1_555
O9 N3 1_555 1_555
O10 C11 1_555 1_555
H9 O10 1_555 1_555
O11 C11 1_555 1_555
O12 N3 1_555 1_555
S3 C12 1_555 1_555
C16 C17 1_555 1_555
C17 C18 1_555 1_555
C18 H10 1_555 1_555
C19 C18 1_555 1_555
C20 C19 1_555 1_555
H11 C20 1_555 1_555
N4 C19 1_555 1_555
O13 C16 1_555 1_555
H12 O13 1_555 1_555
O14 C16 1_555 1_555
O15 N4 1_555 1_555
O16 N4 1_555 1_555
S4 C17 1_555 1_555
C5 S1 1_555 1_555
C10 S2 1_555 1_555
C15 S3 1_555 1_555
C20 S4 1_555 1_555

#END
