
#######################################################################
#
#                 Cambridge Crystallographic Data Centre
#                                CCDC 
#
#######################################################################
#
# If this CIF has been generated from an entry in the Cambridge 
# Structural Database, then it will include bibliographic, chemical, 
# crystal, experimental, refinement or atomic coordinate data resulting 
# from the CCDC's data processing and validation procedures.
#
#######################################################################

data_OLAKIX
_chemical_formula_moiety         'C7 H9 N2 O4 1+,C7 H8 N2 O4,C2 F6 N1 O4 S2 1-'
_chemical_name_systematic        
'1,3-bis(Carboxymethyl)-1H-imidazol-3-ium (1-(carboxymethyl)-1H-imidazol-3-ium-3-yl)acetate bis((trifluoromethyl)sulfonyl)amide'
_symmetry_cell_setting           triclinic
_symmetry_space_group_name_H-M   'P -1'
_symmetry_Int_Tables_number      2
_space_group_name_Hall           '-P 1'
loop_
_symmetry_equiv_pos_site_id
_symmetry_equiv_pos_as_xyz
1 x,y,z
2 -x,-y,-z
_cell_length_a                   6.896(6)
_cell_length_b                   8.867(5)
_cell_length_c                   12.153(6)
_cell_angle_alpha                99.735(17)
_cell_angle_beta                 103.082(19)
_cell_angle_gamma                111.980(12)
_cell_volume                     644.175
_exptl_crystal_colour            yellow
_exptl_crystal_description       block
_cell_formula_units_Z            1
loop_
_atom_site_label
_atom_site_type_symbol
_atom_site_fract_x
_atom_site_fract_y
_atom_site_fract_z
O3 O 0.1337(4) 0.2761(3) 0.5195(2)
N2 N 0.3091(5) 0.2461(4) 0.7388(3)
O4 O 0.0483(5) 0.4787(3) 0.5983(2)
N3 N 0.4049(5) 0.0407(4) 0.7107(3)
O5 O 0.7149(5) 0.0091(4) 0.6048(3)
C2 C 0.1217(6) 0.3671(4) 0.6032(3)
C3 C 0.2481(6) 0.0902(4) 0.6733(3)
H1 H 0.1174 0.0262 0.6115
O6 O 0.5441(6) -0.2740(4) 0.5642(4)
H2 H 0.6434 -0.2713 0.5369
C4 C 0.5711(6) -0.1186(5) 0.6071(3)
C5 C 0.3937(6) -0.1264(5) 0.6634(4)
H3 H 0.2502 -0.1968 0.6052
H4 H 0.4084 -0.1793 0.7265
C6 C 0.1850(7) 0.3484(5) 0.7262(3)
H5 H 0.2732 0.4602 0.7814
H6 H 0.0520 0.2966 0.7468
C7 C 0.5099(7) 0.2957(5) 0.8214(4)
H7 H 0.5897 0.3988 0.8794
C8 C 0.5704(7) 0.1689(6) 0.8036(4)
H8 H 0.7001 0.1680 0.8461
S1 S 0.13177(18) 0.17420(15) 0.04100(10)
C1 C 0.0012(11) 0.2507(8) 0.1398(6)
F1 F 0.0012(9) 0.1916(8) 0.2242(4)
O1 O 0.3349(7) 0.2154(9) 0.1073(4)
F2 F -0.2179(11) 0.1720(14) 0.0923(5)
N1 N -0.0637(12) 0.0280(9) -0.0495(6)
F3 F 0.1669(16) 0.4030(8) 0.2244(7)
O2 O 0.1829(16) 0.3240(9) -0.0173(6)
S1A S -0.13177(18) -0.17420(15) -0.04100(10)
C1A C -0.0012(11) -0.2507(8) -0.1398(6)
F1A F -0.0012(9) -0.1916(8) -0.2242(4)
O1A O -0.3349(7) -0.2154(9) -0.1073(4)
F2A F 0.2179(11) -0.1720(14) -0.0923(5)
N1A N 0.0637(12) -0.0280(9) 0.0495(6)
F3A F -0.1669(16) -0.4030(8) -0.2244(7)
O2A O -0.1829(16) -0.3240(9) 0.0173(6)
F4? F -0.0272(15) 0.3715(9) 0.1137(7)
H9? H 0.0000 0.5000 0.5000
O7? O 0.0505(12) 0.1779(10) -0.0723(6)
loop_
_geom_bond_atom_site_label_1
_geom_bond_atom_site_label_2
_geom_bond_site_symmetry_1
_geom_bond_site_symmetry_2
S1 C1 1_555 1_555
C1 F1 1_555 1_555
O1 S1 1_555 1_555
F2 C1 1_555 1_555
N1 S1 1_555 1_555
F3 C1 1_555 1_555
O2 S1 1_555 1_555
O3 C2 1_555 1_555
N2 C3 1_555 1_555
O4 C2 1_555 1_555
N3 C3 1_555 1_555
O5 C4 1_555 1_555
C2 C6 1_555 1_555
C3 H1 1_555 1_555
O6 H2 1_555 1_555
C4 O6 1_555 1_555
C5 N3 1_555 1_555
H3 C5 1_555 1_555
H4 C5 1_555 1_555
C6 N2 1_555 1_555
H5 C6 1_555 1_555
H6 C6 1_555 1_555
C7 N2 1_555 1_555
H7 C7 1_555 1_555
C8 N3 1_555 1_555
H8 C8 1_555 1_555
S1A N1 1_555 1_555
C1A S1A 1_555 1_555
F1A C1A 1_555 1_555
O1A S1A 1_555 1_555
F2A C1A 1_555 1_555
N1A S1 1_555 1_555
F3A C1A 1_555 1_555
O2A S1A 1_555 1_555
N1 N1A 1_555 1_555
C4 C5 1_555 1_555
C7 C8 1_555 1_555
S1A N1A 1_555 1_555

#END
