
#######################################################################
#
#                 Cambridge Crystallographic Data Centre
#                                CCDC 
#
#######################################################################
#
# If this CIF has been generated from an entry in the Cambridge 
# Structural Database, then it will include bibliographic, chemical, 
# crystal, experimental, refinement or atomic coordinate data resulting 
# from the CCDC's data processing and validation procedures.
#
#######################################################################

data_OLAKUJ
_chemical_name_common            
(1S)-1-C-Benzyl-2,3-di-O-benzyl-1,5-dideoxy-1,5-iminoxylitol
_chemical_formula_moiety         'C26 H29 N1 O3'
_chemical_name_systematic        6-Benzyl-4,5-bis(benzyloxy)piperidin-3-ol
_chemical_properties_biological  '-glucosidase inhibition activity'
_symmetry_cell_setting           monoclinic
_symmetry_space_group_name_H-M   'P 21'
_symmetry_Int_Tables_number      4
_space_group_name_Hall           'P 2yb'
loop_
_symmetry_equiv_pos_site_id
_symmetry_equiv_pos_as_xyz
1 x,y,z
2 -x,1/2+y,-z
_cell_length_a                   10.0891(2)
_cell_length_b                   8.9420(2)
_cell_length_c                   12.0039(3)
_cell_angle_alpha                90
_cell_angle_beta                 95.2010(10)
_cell_angle_gamma                90
_cell_volume                     1078.49
_exptl_crystal_colour            colorless
_exptl_crystal_description       block
_cell_formula_units_Z            2
loop_
_atom_site_label
_atom_site_type_symbol
_atom_site_fract_x
_atom_site_fract_y
_atom_site_fract_z
C1 C 0.94712(15) 0.39794(18) 0.76081(13)
H1 H 0.9812 0.4517 0.6962
C2 C 0.83703(15) 0.49083(18) 0.80731(13)
H2 H 0.8039 0.4366 0.8722
C3 C 0.89120(16) 0.64302(18) 0.84685(13)
H3 H 0.9201 0.6994 0.7813
C4 C 1.01005(16) 0.62428(18) 0.93399(13)
H4 H 0.9799 0.5744 1.0019
C5 C 1.11503(16) 0.52767(19) 0.88598(14)
H5 H 1.1485 0.5782 0.8207
H6 H 1.1909 0.5119 0.9430
C6 C 0.89661(16) 0.24331(18) 0.72303(14)
H7 H 0.8686 0.1885 0.7886
H8 H 0.8173 0.2554 0.6689
C7 C 0.99914(16) 0.15103(19) 0.66940(13)
C8 C 1.04437(18) 0.19606(19) 0.56802(14)
H9 H 1.0101 0.2849 0.5328
C9 C 1.13859(18) 0.1127(2) 0.51826(15)
H10 H 1.1687 0.1449 0.4495
C10 C 1.18921(18) -0.0175(2) 0.56848(16)
H11 H 1.2538 -0.0748 0.5343
C11 C 1.14481(18) -0.0634(2) 0.66888(15)
H12 H 1.1789 -0.1526 0.7036
C12 C 1.05082(17) 0.0203(2) 0.71911(14)
H13 H 1.0214 -0.0120 0.7881
C13 C 0.60300(16) 0.4673(2) 0.75974(13)
H14 H 0.5790 0.5372 0.8186
H15 H 0.6092 0.3654 0.7920
C14 C 0.49782(16) 0.47089(19) 0.66287(13)
C15 C 0.50023(16) 0.3672(2) 0.57616(14)
H16 H 0.5703 0.2961 0.5776
C16 C 0.40194(17) 0.3668(2) 0.48835(15)
H17 H 0.4058 0.2968 0.4292
C17 C 0.29731(17) 0.4683(2) 0.48624(14)
H18 H 0.2289 0.4670 0.4264
C18 C 0.29383(17) 0.5714(2) 0.57210(15)
H19 H 0.2227 0.6411 0.5710
C19 C 0.39370(17) 0.5734(2) 0.65973(15)
H20 H 0.3909 0.6452 0.7178
C20 C 0.73990(18) 0.8476(2) 0.82807(16)
H21 H 0.7348 0.8186 0.7482
H22 H 0.8022 0.9329 0.8392
C21 C 0.60407(16) 0.89490(19) 0.85745(14)
C22 C 0.54621(18) 1.0215(2) 0.80552(15)
H23 H 0.5943 1.0783 0.7558
C23 C 0.41893(19) 1.0649(2) 0.82622(17)
H24 H 0.3801 1.1513 0.7906
C24 C 0.34820(18) 0.9828(2) 0.89846(15)
H25 H 0.2610 1.0128 0.9126
C25 C 0.40490(18) 0.8568(2) 0.95009(14)
H26 H 0.3560 0.7996 0.9990
C26 C 0.53325(18) 0.8138(2) 0.93050(14)
H27 H 0.5725 0.7285 0.9674
N1 N 1.05515(13) 0.38293(16) 0.85167(11)
O1 O 0.72933(10) 0.50954(13) 0.72231(9)
O2 O 0.78915(11) 0.72586(12) 0.89469(9)
O3 O 1.06710(11) 0.76479(13) 0.96479(10)
H28 H 1.0262 0.8027 1.0157
H29 H 1.117(2) 0.320(3) 0.8315(18)
loop_
_geom_bond_atom_site_label_1
_geom_bond_atom_site_label_2
_geom_bond_site_symmetry_1
_geom_bond_site_symmetry_2
C1 H1 1_555 1_555
C2 C1 1_555 1_555
H2 C2 1_555 1_555
C3 C2 1_555 1_555
H3 C3 1_555 1_555
C4 C3 1_555 1_555
H4 C4 1_555 1_555
C5 C4 1_555 1_555
H5 C5 1_555 1_555
H6 C5 1_555 1_555
C6 C1 1_555 1_555
H7 C6 1_555 1_555
H8 C6 1_555 1_555
C7 C6 1_555 1_555
C8 C7 1_555 1_555
H9 C8 1_555 1_555
C9 C8 1_555 1_555
H10 C9 1_555 1_555
C10 C9 1_555 1_555
H11 C10 1_555 1_555
C11 C10 1_555 1_555
H12 C11 1_555 1_555
C12 C7 1_555 1_555
H13 C12 1_555 1_555
C13 H14 1_555 1_555
H15 C13 1_555 1_555
C14 C13 1_555 1_555
C15 C14 1_555 1_555
H16 C15 1_555 1_555
C16 C15 1_555 1_555
H17 C16 1_555 1_555
C17 C16 1_555 1_555
H18 C17 1_555 1_555
C18 C17 1_555 1_555
H19 C18 1_555 1_555
C19 C14 1_555 1_555
H20 C19 1_555 1_555
C20 H21 1_555 1_555
H22 C20 1_555 1_555
C21 C20 1_555 1_555
C22 C21 1_555 1_555
H23 C22 1_555 1_555
C23 C22 1_555 1_555
H24 C23 1_555 1_555
C24 C23 1_555 1_555
H25 C24 1_555 1_555
C25 C24 1_555 1_555
H26 C25 1_555 1_555
C26 C21 1_555 1_555
H27 C26 1_555 1_555
N1 C1 1_555 1_555
O1 C2 1_555 1_555
O2 C3 1_555 1_555
O3 C4 1_555 1_555
H28 O3 1_555 1_555
H29 N1 1_555 1_555
C5 N1 1_555 1_555
C11 C12 1_555 1_555
C13 O1 1_555 1_555
C18 C19 1_555 1_555
C20 O2 1_555 1_555
C25 C26 1_555 1_555

#END
