
#######################################################################
#
#                 Cambridge Crystallographic Data Centre
#                                CCDC 
#
#######################################################################
#
# If this CIF has been generated from an entry in the Cambridge 
# Structural Database, then it will include bibliographic, chemical, 
# crystal, experimental, refinement or atomic coordinate data resulting 
# from the CCDC's data processing and validation procedures.
#
#######################################################################

data_OLANUK
_chemical_formula_moiety         'C13 H18 N3 1+,C6 H2 N3 O7 1-'
_chemical_name_systematic        
'N-Methyl-N-(8-dimethylaminonaphthyl)hydrazinium picrate'
_symmetry_cell_setting           monoclinic
_symmetry_space_group_name_H-M   'P 21/n'
_symmetry_Int_Tables_number      14
_space_group_name_Hall           '-P 2yn'
loop_
_symmetry_equiv_pos_site_id
_symmetry_equiv_pos_as_xyz
1 x,y,z
2 1/2+x,1/2-y,1/2+z
3 -x,-y,-z
4 1/2-x,1/2+y,1/2-z
_cell_length_a                   9.8060(13)
_cell_length_b                   9.5011(13)
_cell_length_c                   21.769(3)
_cell_angle_alpha                90
_cell_angle_beta                 101.093(3)
_cell_angle_gamma                90
_cell_volume                     1990.28
_exptl_crystal_colour            'light brown'
_exptl_crystal_description       prism
_chemical_melting_point          133-134deg.C
_cell_formula_units_Z            4
loop_
_atom_site_label
_atom_site_type_symbol
_atom_site_fract_x
_atom_site_fract_y
_atom_site_fract_z
N1 N 0.03951(14) -0.21742(14) -0.27680(6)
N2 N -0.09872(14) -0.01164(14) -0.33483(6)
N3 N -0.0232(2) 0.12168(17) -0.33016(9)
C1 C -0.09374(15) -0.08156(17) -0.39419(7)
C2 C -0.16404(17) -0.02684(19) -0.44941(8)
C3 C -0.15319(18) -0.0902(2) -0.50664(8)
C4 C -0.06997(19) -0.2047(2) -0.50718(8)
C5 C 0.00547(18) -0.26298(19) -0.45105(8)
C6 C 0.0961(2) -0.3789(2) -0.45197(10)
C7 C 0.1664(2) -0.4365(2) -0.39768(11)
C8 C 0.1470(2) -0.3844(2) -0.33972(9)
C9 C 0.06166(17) -0.27142(17) -0.33672(8)
C10 C -0.00983(15) -0.20454(17) -0.39230(7)
C11 C 0.1683(3) -0.1975(4) -0.22999(11)
C12 C -0.0602(3) -0.3034(3) -0.25127(15)
C13 C -0.2403(2) 0.0030(3) -0.32273(9)
H2 H -0.011(2) 0.155(2) -0.2896(10)
H3 H -0.086(3) 0.189(3) -0.3604(13)
H4 H 0.076(7) 0.065(7) -0.352(3)
H5 H -0.224(2) 0.055(2) -0.4497(10)
H6 H -0.206(2) -0.050(2) -0.5433(10)
H7 H -0.054(2) -0.244(2) -0.5464(11)
H8 H 0.107(2) -0.416(2) -0.4932(9)
H9 H 0.232(3) -0.499(3) -0.3993(12)
H10 H 0.199(2) -0.429(2) -0.2982(11)
H11 H 0.242(4) -0.140(4) -0.2530(17)
H12 H 0.181(4) -0.283(4) -0.2151(18)
H13 H 0.144(3) -0.148(3) -0.1910(12)
H14 H -0.016(4) -0.409(4) -0.2422(16)
H15 H -0.085(2) -0.256(3) -0.2181(11)
H16 H -0.1215(18) -0.2905(17) -0.2805(8)
H17 H -0.296(2) 0.056(3) -0.3524(11)
H18 H -0.234(2) 0.032(2) -0.2835(11)
H19 H -0.287(2) -0.090(3) -0.3336(11)
N4 N 0.07875(15) 0.33353(15) -0.15852(7)
N5 N -0.04573(15) 0.26264(14) 0.04387(6)
N6 N -0.21938(14) -0.07185(15) -0.12049(6)
O1 O -0.03893(13) 0.06060(12) -0.19401(5)
O2 O 0.17848(15) 0.40706(14) -0.13376(6)
O3 O 0.03113(14) 0.33481(13) -0.21466(6)
O4 O 0.01031(13) 0.37654(12) 0.05984(5)
O5 O -0.09565(13) 0.18638(13) 0.07983(5)
O6 O -0.24583(14) -0.15224(13) -0.07966(6)
O7 O -0.26351(16) -0.09024(15) -0.17605(6)
C14 C -0.05442(16) 0.11380(16) -0.14392(7)
C15 C 0.01213(17) 0.24477(16) -0.11822(7)
C16 C 0.01677(17) 0.29126(16) -0.05852(7)
C17 C -0.05247(17) 0.21520(16) -0.01936(7)
C18 C -0.12847(16) 0.09592(16) -0.04050(7)
C19 C -0.13351(16) 0.05098(16) -0.10075(7)
H20 H 0.0669(17) 0.3760(19) -0.0437(8)
H21 H -0.1821(17) 0.0465(17) -0.0120(7)
H1? H -0.033(3) -0.083(3) -0.2964(12)
loop_
_geom_bond_atom_site_label_1
_geom_bond_atom_site_label_2
_geom_bond_site_symmetry_1
_geom_bond_site_symmetry_2
N1 C9 1_555 1_555
N2 N3 1_555 1_555
N3 H2 1_555 1_555
C1 N2 1_555 1_555
C2 C1 1_555 1_555
C3 C2 1_555 1_555
C4 C3 1_555 1_555
C5 C4 1_555 1_555
C6 C5 1_555 1_555
C7 C6 1_555 1_555
C8 C7 1_555 1_555
C9 C8 1_555 1_555
C10 C1 1_555 1_555
C11 N1 1_555 1_555
C12 N1 1_555 1_555
C13 N2 1_555 1_555
N4 O2 1_555 1_555
N5 O4 1_555 1_555
N6 O6 1_555 1_555
O1 C14 1_555 1_555
O3 N4 1_555 1_555
O5 N5 1_555 1_555
O7 N6 1_555 1_555
C14 C15 1_555 1_555
C15 N4 1_555 1_555
C16 C15 1_555 1_555
C17 N5 1_555 1_555
C18 C17 1_555 1_555
C19 N6 1_555 1_555
H3 N3 1_555 1_555
H4 N3 1_555 1_555
H5 C2 1_555 1_555
H6 C3 1_555 1_555
H7 C4 1_555 1_555
H8 C6 1_555 1_555
H9 C7 1_555 1_555
H10 C8 1_555 1_555
H11 C11 1_555 1_555
H12 C11 1_555 1_555
H13 C11 1_555 1_555
H14 C12 1_555 1_555
H15 C12 1_555 1_555
H16 C12 1_555 1_555
H17 C13 1_555 1_555
H18 C13 1_555 1_555
H19 C13 1_555 1_555
H20 C16 1_555 1_555
H21 C18 1_555 1_555
C5 C10 1_555 1_555
C9 C10 1_555 1_555
C14 C19 1_555 1_555
C16 C17 1_555 1_555
C18 C19 1_555 1_555

#END
