
#######################################################################
#
#                 Cambridge Crystallographic Data Centre
#                                CCDC 
#
#######################################################################
#
# If this CIF has been generated from an entry in the Cambridge 
# Structural Database, then it will include bibliographic, chemical, 
# crystal, experimental, refinement or atomic coordinate data resulting 
# from the CCDC's data processing and validation procedures.
#
#######################################################################

data_OLEBEO
_chemical_formula_moiety         'C28 H20 O2'
_chemical_name_systematic        1,1-bis(4-Formylphenyl)-2,2-diphenylethene
_symmetry_cell_setting           orthorhombic
_symmetry_space_group_name_H-M   'P n a 21'
_symmetry_Int_Tables_number      33
_space_group_name_Hall           'P 2c -2n'
loop_
_symmetry_equiv_pos_site_id
_symmetry_equiv_pos_as_xyz
1 x,y,z
2 -x,-y,1/2+z
3 1/2+x,1/2-y,z
4 1/2-x,1/2+y,1/2+z
_cell_length_a                   20.259
_cell_length_b                   10.585
_cell_length_c                   9.940
_cell_angle_alpha                90
_cell_angle_beta                 90
_cell_angle_gamma                90
_cell_volume                     2131.55
_exptl_crystal_description       block
_cell_formula_units_Z            4
loop_
_atom_site_label
_atom_site_type_symbol
_atom_site_fract_x
_atom_site_fract_y
_atom_site_fract_z
C1 C 0.11251(11) 0.0960(2) 0.1433(2)
H1 H 0.0787 0.1342 0.0948
C2 C 0.18195(11) 0.0873(2) 0.3386(2)
H2 H 0.1951 0.1199 0.4212
C3 C 0.12846(10) 0.1414(2) 0.2709(2)
C4 C 0.10863(11) 0.4310(2) 0.4890(2)
H3 H 0.0735 0.4053 0.5427
C5 C 0.08862(10) 0.24465(19) 0.33379(19)
C6 C -0.01394(10) 0.1136(2) 0.3106(2)
C7 C 0.18090(10) 0.3968(2) 0.3018(2)
H4 H 0.1948 0.3480 0.2293
C8 C 0.19695(11) -0.0620(2) 0.1593(2)
C9 C 0.19611(11) 0.5782(2) 0.4439(3)
C10 C 0.21529(12) -0.0138(2) 0.2839(3)
H5 H 0.2503 -0.0501 0.3306
C11 C -0.02208(10) 0.3356(2) 0.3926(2)
C12 C 0.02203(10) 0.23169(19) 0.3467(2)
C13 C 0.12590(10) 0.3592(2) 0.3756(2)
C14 C 0.14298(12) 0.5389(2) 0.5216(3)
H6 H 0.1305 0.5860 0.5964
C15 C 0.00657(13) -0.0047(2) 0.3563(3)
H7 H 0.0430 -0.0113 0.4128
C16 C 0.23013(13) -0.1727(2) 0.0993(3)
H8 H 0.2167 -0.1976 0.0138
C17 C 0.21530(12) 0.5055(2) 0.3346(3)
H9 H 0.2514 0.5299 0.2831
O1 O 0.27307(11) -0.23312(18) 0.1523(3)
C18 C -0.06993(11) 0.1198(2) 0.2308(2)
H10 H -0.0853 0.1984 0.2029
C19 C 0.14599(11) -0.0043(2) 0.0883(2)
H11 H 0.1346 -0.0338 0.0032
C20 C -0.10115(15) 0.4140(3) 0.5530(4)
H12 H -0.1248 0.4033 0.6324
C21 C -0.08169(13) -0.1045(3) 0.2356(3)
H13 H -0.1037 -0.1777 0.2099
C22 C -0.10380(13) 0.0113(2) 0.1915(3)
H14 H -0.1407 0.0171 0.1362
O2 O 0.21953(13) 0.7662(2) 0.5660(3)
C23 C 0.23361(14) 0.6933(3) 0.4774(3)
H15 H 0.2709 0.7109 0.4263
C24 C -0.02724(14) -0.1124(2) 0.3176(3)
H16 H -0.0129 -0.1910 0.3474
C25 C -0.05936(13) 0.3199(2) 0.5092(3)
H17 H -0.0560 0.2452 0.5580
C26 C -0.02884(14) 0.4462(2) 0.3196(3)
H18 H -0.0045 0.4583 0.2414
C27 C -0.07237(17) 0.5394(3) 0.3639(4)
H19 H -0.0773 0.6133 0.3143
C28 C -0.10817(17) 0.5230(3) 0.4804(4)
H20 H -0.1370 0.5857 0.5096
loop_
_geom_bond_atom_site_label_1
_geom_bond_atom_site_label_2
_geom_bond_site_symmetry_1
_geom_bond_site_symmetry_2
C1 H1 1_555 1_555
C2 H2 1_555 1_555
C3 C1 1_555 1_555
C4 H3 1_555 1_555
C5 C3 1_555 1_555
C6 C12 1_555 1_555
C7 H4 1_555 1_555
C8 C10 1_555 1_555
C9 C14 1_555 1_555
C10 C2 1_555 1_555
H5 C10 1_555 1_555
C11 C12 1_555 1_555
C12 C5 1_555 1_555
C13 C4 1_555 1_555
C14 C4 1_555 1_555
H6 C14 1_555 1_555
C15 C6 1_555 1_555
H7 C15 1_555 1_555
C16 C8 1_555 1_555
H8 C16 1_555 1_555
C17 C7 1_555 1_555
H9 C17 1_555 1_555
O1 C16 1_555 1_555
C18 C6 1_555 1_555
H10 C18 1_555 1_555
C19 C1 1_555 1_555
H11 C19 1_555 1_555
C20 H12 1_555 1_555
C21 H13 1_555 1_555
C22 C18 1_555 1_555
H14 C22 1_555 1_555
O2 C23 1_555 1_555
C23 C9 1_555 1_555
H15 C23 1_555 1_555
C24 C15 1_555 1_555
H16 C24 1_555 1_555
C25 C11 1_555 1_555
H17 C25 1_555 1_555
C26 C11 1_555 1_555
H18 C26 1_555 1_555
C27 C26 1_555 1_555
H19 C27 1_555 1_555
C28 C20 1_555 1_555
H20 C28 1_555 1_555
C2 C3 1_555 1_555
C5 C13 1_555 1_555
C7 C13 1_555 1_555
C8 C19 1_555 1_555
C9 C17 1_555 1_555
C20 C25 1_555 1_555
C21 C22 1_555 1_555
C21 C24 1_555 1_555
C27 C28 1_555 1_555

#END
