
#######################################################################
#
#                 Cambridge Crystallographic Data Centre
#                                CCDC 
#
#######################################################################
#
# If this CIF has been generated from an entry in the Cambridge 
# Structural Database, then it will include bibliographic, chemical, 
# crystal, experimental, refinement or atomic coordinate data resulting 
# from the CCDC's data processing and validation procedures.
#
#######################################################################

data_OLECAL
_chemical_formula_moiety         'C11 H13 Cl1 N2 O4'
_chemical_name_systematic        
N-(5-Chloro-2-hydroxyphenyl)-N'-(3-hydroxypropyl)ethanediamide
_symmetry_cell_setting           monoclinic
_symmetry_space_group_name_H-M   'P 21/n'
_symmetry_Int_Tables_number      14
_space_group_name_Hall           '-P 2yn'
loop_
_symmetry_equiv_pos_site_id
_symmetry_equiv_pos_as_xyz
1 x,y,z
2 1/2-x,1/2+y,1/2-z
3 -x,-y,-z
4 1/2+x,1/2-y,1/2+z
_cell_length_a                   6.1422(14)
_cell_length_b                   18.117(4)
_cell_length_c                   11.061(2)
_cell_angle_alpha                90
_cell_angle_beta                 98.896(8)
_cell_angle_gamma                90
_cell_volume                     1216.04
_exptl_crystal_colour            colorless
_exptl_crystal_description       prism
_cell_formula_units_Z            4
loop_
_atom_site_label
_atom_site_type_symbol
_atom_site_fract_x
_atom_site_fract_y
_atom_site_fract_z
Cl1 Cl 0.54932(13) 0.33941(3) 0.39890(7)
O1 O 0.2065(3) 0.63169(9) 0.24549(16)
O2 O 0.7936(3) 0.50435(8) 0.08106(16)
O3 O 0.6905(2) 0.69246(8) 0.03286(14)
O4 O 1.4561(3) 0.80399(10) -0.10518(19)
N1 N 0.5547(3) 0.58139(10) 0.15803(17)
N2 N 0.8959(3) 0.61585(10) -0.06633(18)
C1 C 0.4604(3) 0.53575(11) 0.23849(19)
C2 C 0.2779(4) 0.56333(12) 0.2848(2)
C3 C 0.1802(4) 0.52106(14) 0.3647(2)
C4 C 0.2617(4) 0.45182(13) 0.4005(2)
C5 C 0.4420(4) 0.42605(12) 0.3552(2)
C6 C 0.5429(4) 0.46656(12) 0.2747(2)
C7 C 0.7077(3) 0.56439(11) 0.0884(2)
C8 C 0.7663(3) 0.63118(11) 0.0148(2)
C9 C 0.9727(4) 0.67265(14) -0.1426(2)
C10 C 1.1919(4) 0.70438(13) -0.0862(2)
C11 C 1.2472(4) 0.77284(13) -0.1527(2)
H1 H 0.507(4) 0.6260(14) 0.150(2)
H2 H 0.122(4) 0.6487(14) 0.288(2)
H3 H 0.946(4) 0.5705(14) -0.068(2)
H4 H 0.060(4) 0.5401(13) 0.394(2)
H5 H 0.191(4) 0.4237(12) 0.453(2)
H6 H 1.527(5) 0.7724(14) -0.065(3)
H7 H 0.663(4) 0.4498(12) 0.2439(19)
H8 H 0.863(4) 0.7103(13) -0.158(2)
H9 H 0.985(4) 0.6512(13) -0.223(2)
H10 H 1.300(4) 0.6690(13) -0.089(2)
H11 H 1.191(4) 0.7173(12) 0.001(2)
H12 H 1.134(4) 0.8107(13) -0.142(2)
H13 H 1.244(4) 0.7627(13) -0.239(2)
loop_
_geom_bond_atom_site_label_1
_geom_bond_atom_site_label_2
_geom_bond_site_symmetry_1
_geom_bond_site_symmetry_2
Cl1 C5 1_555 1_555
O1 C2 1_555 1_555
O2 C7 1_555 1_555
O3 C8 1_555 1_555
O4 C11 1_555 1_555
N1 C1 1_555 1_555
N2 C8 1_555 1_555
C1 C2 1_555 1_555
C2 C3 1_555 1_555
C3 C4 1_555 1_555
C4 C5 1_555 1_555
C5 C6 1_555 1_555
C6 C1 1_555 1_555
C7 N1 1_555 1_555
C8 C7 1_555 1_555
C9 N2 1_555 1_555
C10 C9 1_555 1_555
C11 C10 1_555 1_555
H1 N1 1_555 1_555
H2 O1 1_555 1_555
H3 N2 1_555 1_555
H4 C3 1_555 1_555
H5 C4 1_555 1_555
H6 O4 1_555 1_555
H7 C6 1_555 1_555
H8 C9 1_555 1_555
H9 C9 1_555 1_555
H10 C10 1_555 1_555
H11 C10 1_555 1_555
H12 C11 1_555 1_555
H13 C11 1_555 1_555

#END
