
#######################################################################
#
#                 Cambridge Crystallographic Data Centre
#                                CCDC 
#
#######################################################################
#
# If this CIF has been generated from an entry in the Cambridge 
# Structural Database, then it will include bibliographic, chemical, 
# crystal, experimental, refinement or atomic coordinate data resulting 
# from the CCDC's data processing and validation procedures.
#
#######################################################################

data_OLECAJ
_chemical_formula_moiety         
'2(Ba1 2+),16(C19 H31 N5 O5 Si1),4(C7 H5 N2 O5 1-),11(C2 H3 N1),2(C1 H1 Cl3),9(H2 O1)'
_chemical_name_systematic        
"Di-barium hexadecakis(5'-((t-butyl)dimethylsilyl)-2',3'-O-isopropylideneguanosine) tetrakis(4-methyl-2,6-dinitrophenolato) acetonitrile chloroform solvate nonahydrate"
_symmetry_cell_setting           tetragonal
_symmetry_space_group_name_H-M   'I 4'
_symmetry_Int_Tables_number      79
_space_group_name_Hall           'I 4'
loop_
_symmetry_equiv_pos_site_id
_symmetry_equiv_pos_as_xyz
1 x,y,z
2 -x,-y,z
3 -y,x,z
4 y,-x,z
5 1/2+x,1/2+y,1/2+z
6 1/2-x,1/2-y,1/2+z
7 1/2-y,1/2+x,1/2+z
8 1/2+y,1/2-x,1/2+z
_cell_length_a                   30.7970(8)
_cell_length_b                   30.7970(8)
_cell_length_c                   25.8915(13)
_cell_angle_alpha                90
_cell_angle_beta                 90
_cell_angle_gamma                90
_cell_volume                     24556.9
_exptl_crystal_colour            orange
_exptl_crystal_description       block
_cell_formula_units_Z            2
loop_
_atom_site_label
_atom_site_type_symbol
_atom_site_fract_x
_atom_site_fract_y
_atom_site_fract_z
Ba1 Ba 0.5000 0.5000 0.257234(14)
C1 C 0.33739(12) 0.51199(12) 0.31970(14)
N1 N 0.38268(11) 0.51480(11) 0.31944(13)
H1 H 0.3973 0.4903 0.3202
O1 O 0.44669(8) 0.55199(8) 0.31669(11)
C2 C 0.33461(13) 0.58416(14) 0.31995(15)
N2 N 0.32007(11) 0.47271(12) 0.32006(16)
H2 H 0.2917 0.4696 0.3209
H3 H 0.3369 0.4497 0.3195
O2 O 0.26215(11) 0.65503(11) 0.37295(14)
C3 C 0.37925(12) 0.58997(12) 0.31893(16)
N3 N 0.31240(11) 0.54689(11) 0.32060(15)
O3 O 0.20449(11) 0.63053(14) 0.27886(16)
C4 C 0.40638(11) 0.55274(12) 0.31816(13)
N4 N 0.39026(11) 0.63368(12) 0.31747(15)
O4 O 0.17251(11) 0.61145(15) 0.35247(17)
C5 C 0.35241(14) 0.65316(13) 0.31746(19)
H4 H 0.3493 0.6838 0.3169
N5 N 0.31771(11) 0.62537(11) 0.31833(15)
O5 O 0.29056(17) 0.62033(16) 0.47044(15)
C6 C 0.27216(14) 0.64146(14) 0.32174(18)
H5 H 0.2692 0.6671 0.2983
C7 C 0.23775(13) 0.60872(15) 0.30718(18)
H6 H 0.2499 0.5833 0.2881
C8 C 0.21692(15) 0.59593(17) 0.3579(2)
H7 H 0.2183 0.5639 0.3641
C9 C 0.16371(16) 0.61659(18) 0.3000(2)
C10 C 0.1488(2) 0.5751(2) 0.2751(3)
H8 H 0.1425 0.5803 0.2385
H9 H 0.1224 0.5647 0.2924
H10 H 0.1716 0.5531 0.2781
C11 C 0.13182(19) 0.6535(2) 0.2934(3)
H11 H 0.1248 0.6569 0.2567
H12 H 0.1447 0.6804 0.3065
H13 H 0.1052 0.6470 0.3127
C12 C 0.23978(17) 0.62121(17) 0.3992(2)
H14 H 0.2173 0.6347 0.4220
C13 C 0.2696(2) 0.59374(19) 0.4326(2)
H15 H 0.2525 0.5708 0.4501
H16 H 0.2917 0.5795 0.4107
Si1 Si 0.28860(10) 0.60961(10) 0.53186(11)
C14 C 0.3297(8) 0.5692(8) 0.5453(10)
H17 H 0.3575 0.5786 0.5307
H18 H 0.3212 0.5415 0.5296
H19 H 0.3327 0.5655 0.5827
C15 C 0.2395(4) 0.5888(5) 0.5515(5)
H20 H 0.2346 0.5606 0.5349
H21 H 0.2162 0.6089 0.5418
H22 H 0.2397 0.5851 0.5891
C16 C 0.2978(4) 0.6636(4) 0.5618(5)
C17 C 0.2602(7) 0.6931(7) 0.5494(8)
H23 H 0.2329 0.6788 0.5588
H24 H 0.2602 0.6997 0.5124
H25 H 0.2631 0.7202 0.5690
C18 C 0.3018(5) 0.6599(5) 0.6257(7)
H26 H 0.3247 0.6391 0.6346
H27 H 0.2741 0.6499 0.6400
H28 H 0.3090 0.6884 0.6401
C19 C 0.3410(5) 0.6862(5) 0.5435(6)
H29 H 0.3655 0.6667 0.5496
H30 H 0.3452 0.7131 0.5631
H31 H 0.3390 0.6929 0.5066
Si3 Si 0.19244(5) 0.42471(5) 0.36328(6)
O6 O 0.42860(9) 0.52272(9) 0.20131(12)
N6 N 0.38804(10) 0.46105(10) 0.19392(12)
H47 H 0.4121 0.4457 0.1958
C26 C 0.34904(12) 0.43840(13) 0.18882(14)
C27 C 0.31440(12) 0.50177(13) 0.18873(14)
N7 N 0.35155(12) 0.39560(12) 0.18625(15)
H48 H 0.3278 0.3800 0.1827
H49 H 0.3770 0.3827 0.1880
O7 O 0.22440(10) 0.50603(10) 0.24023(11)
C28 C 0.35163(12) 0.52746(12) 0.19253(14)
N8 N 0.31111(10) 0.45826(11) 0.18619(12)
O8 O 0.19522(13) 0.50596(16) 0.10977(15)
N9 N 0.34131(11) 0.57114(12) 0.19442(13)
C29 C 0.39188(11) 0.50560(12) 0.19617(13)
O9 O 0.14677(12) 0.48158(19) 0.16839(18)
C30 C 0.29857(14) 0.57174(13) 0.19222(16)
H50 H 0.2819 0.5977 0.1932
N10 N 0.28059(11) 0.53097(12) 0.18841(14)
O10 O 0.22685(11) 0.43951(12) 0.31665(13)
C31 C 0.23453(13) 0.52188(14) 0.18976(16)
H51 H 0.2181 0.5494 0.1835
C32 C 0.21928(15) 0.48722(17) 0.15066(18)
H52 H 0.2440 0.4692 0.1376
C33 C 0.18717(16) 0.46042(17) 0.18132(19)
H53 H 0.1876 0.4290 0.1717
C34 C 0.15011(17) 0.4959(2) 0.1176(2)
C35 C 0.1363(2) 0.4646(3) 0.0777(3)
H54 H 0.1402 0.4775 0.0434
H55 H 0.1056 0.4573 0.0827
H56 H 0.1538 0.4381 0.0804
C36 C 0.1266(4) 0.5405(4) 0.1125(5)
H57 H 0.1287 0.5508 0.0768
H58 H 0.1403 0.5616 0.1356
H59 H 0.0960 0.5372 0.1220
C37 C 0.19744(14) 0.46803(14) 0.23759(17)
H60 H 0.1697 0.4741 0.2563
C38 C 0.21948(17) 0.43076(15) 0.26327(19)
H61 H 0.2013 0.4044 0.2598
H62 H 0.2476 0.4251 0.2460
C39 C 0.1677(3) 0.3722(3) 0.3459(3)
H63 H 0.1904 0.3500 0.3431
H64 H 0.1527 0.3750 0.3127
H65 H 0.1469 0.3637 0.3726
C40 C 0.1482(3) 0.4643(3) 0.3703(4)
H66 H 0.1311 0.4652 0.3383
H67 H 0.1605 0.4931 0.3770
H68 H 0.1295 0.4558 0.3991
C41 C 0.2265(2) 0.4219(2) 0.4231(2)
C42 C 0.2001(3) 0.4008(4) 0.4668(3)
H69 H 0.1740 0.4182 0.4734
H70 H 0.2178 0.3995 0.4982
H71 H 0.1916 0.3714 0.4566
C43 C 0.2422(3) 0.4680(3) 0.4387(3)
H72 H 0.2170 0.4867 0.4451
H73 H 0.2596 0.4804 0.4106
H74 H 0.2598 0.4662 0.4701
C44 C 0.2664(2) 0.3938(3) 0.4130(3)
H75 H 0.2826 0.4056 0.3837
H76 H 0.2572 0.3640 0.4052
H77 H 0.2850 0.3937 0.4438
Ba2 Ba 0.5000 0.5000 0.000398(14)
Si4 Si 0.71875(5) 0.71200(4) -0.11052(6)
C45 C 0.62467(12) 0.60431(11) 0.06451(14)
N11 N 0.58595(9) 0.58018(9) 0.06208(12)
H78 H 0.5882 0.5517 0.0619
O11 O 0.51264(9) 0.57325(9) 0.05651(11)
C46 C 0.58436(12) 0.66439(12) 0.06234(13)
N12 N 0.66134(11) 0.58300(12) 0.06709(15)
H79 H 0.6861 0.5972 0.0687
H80 H 0.6613 0.5544 0.0673
O12 O 0.62669(9) 0.74091(10) 0.00662(12)
C47 C 0.54468(13) 0.64369(12) 0.06136(14)
N13 N 0.62443(10) 0.64741(10) 0.06421(13)
O13 O 0.63755(11) 0.77719(13) 0.1316(2)
C48 C 0.54494(11) 0.59742(11) 0.06000(12)
N14 N 0.51091(10) 0.67307(11) 0.05876(12)
O14 O 0.69168(13) 0.79543(12) 0.07760(16)
C49 C 0.53047(13) 0.71140(13) 0.05802(16)
H81 H 0.5154 0.7383 0.0564
N15 N 0.57554(11) 0.70785(11) 0.05993(13)
O15 O 0.68370(10) 0.69790(10) -0.06447(13)
C50 C 0.60657(13) 0.74317(13) 0.05580(16)
H82 H 0.5906 0.7714 0.0586
C51 C 0.64218(14) 0.74205(13) 0.09699(17)
H83 H 0.6429 0.7136 0.1155
C52 C 0.68369(14) 0.75032(15) 0.06807(18)
H84 H 0.7080 0.7314 0.0801
C53 C 0.67483(15) 0.80482(14) 0.1269(3)
C54 C 0.7064(2) 0.7949(3) 0.1692(3)
H85 H 0.6931 0.8016 0.2027
H86 H 0.7326 0.8126 0.1647
H87 H 0.7142 0.7641 0.1680
C55 C 0.6604(3) 0.8518(2) 0.1259(4)
H88 H 0.6485 0.8597 0.1597
H89 H 0.6379 0.8555 0.0994
H90 H 0.6852 0.8704 0.1179
C56 C 0.67310(13) 0.74366(13) 0.01075(17)
H91 H 0.6835 0.7694 -0.0092
C57 C 0.69406(15) 0.70289(15) -0.01117(18)
H92 H 0.7260 0.7047 -0.0070
H93 H 0.6837 0.6772 0.0082
C58 C 0.73527(19) 0.76941(16) -0.1017(2)
H94 H 0.7097 0.7882 -0.1043
H95 H 0.7562 0.7774 -0.1286
H96 H 0.7486 0.7730 -0.0677
C59 C 0.76787(19) 0.67753(19) -0.1058(3)
H97 H 0.7597 0.6470 -0.1099
H98 H 0.7815 0.6817 -0.0720
H99 H 0.7884 0.6857 -0.1330
C60 C 0.6893(2) 0.70319(19) -0.1732(2)
C61 C 0.6733(3) 0.6566(2) -0.1780(3)
H100 H 0.6534 0.6501 -0.1495
H101 H 0.6982 0.6367 -0.1765
H102 H 0.6582 0.6529 -0.2110
C62 C 0.6500(3) 0.7342(3) -0.1763(3)
H103 H 0.6307 0.7290 -0.1468
H104 H 0.6341 0.7290 -0.2085
H105 H 0.6602 0.7643 -0.1756
C63 C 0.7204(3) 0.7123(3) -0.2190(3)
H106 H 0.7459 0.6935 -0.2162
H107 H 0.7295 0.7427 -0.2182
H108 H 0.7053 0.7063 -0.2516
O16 O 0.47360(9) 0.56884(8) -0.05980(11)
N16 N 0.53375(11) 0.61246(10) -0.06521(13)
H109 H 0.5502 0.5891 -0.0663
C64 C 0.55447(14) 0.65248(12) -0.06608(15)
N17 N 0.59728(13) 0.65213(12) -0.06656(17)
H110 H 0.6118 0.6768 -0.0671
H111 H 0.6114 0.6273 -0.0663
O17 O 0.4466(3) 0.77846(15) -0.1115(3)
C65 C 0.49002(14) 0.68441(12) -0.06440(16)
O18 O 0.50648(11) 0.82380(10) -0.03977(16)
C66 C 0.46619(13) 0.64575(12) -0.06277(15)
N18 N 0.53333(12) 0.68942(11) -0.06640(14)
N19 N 0.42228(12) 0.65378(11) -0.05992(16)
C67 C 0.48964(13) 0.60641(12) -0.06278(14)
O19 O 0.5430(2) 0.83003(17) -0.1147(2)
N20 N 0.45886(12) 0.71679(11) -0.06169(16)
C68 C 0.41911(15) 0.69590(14) -0.0592(2)
H112 H 0.3922 0.7108 -0.0571
C69 C 0.46226(19) 0.76454(15) -0.0654(3)
H113 H 0.4441 0.7776 -0.0373
C70 C 0.50873(15) 0.78094(14) -0.05897(18)
H114 H 0.5279 0.7612 -0.0385
C71 C 0.5231(3) 0.7871(2) -0.1157(3)
H115 H 0.5442 0.7643 -0.1267
C72 C 0.54196(19) 0.84659(19) -0.0642(3)
C73 C 0.5831(2) 0.8375(3) -0.0380(5)
H116 H 0.5821 0.8490 -0.0027
H117 H 0.6070 0.8514 -0.0569
H118 H 0.5879 0.8061 -0.0368
C74 C 0.5297(3) 0.8941(2) -0.0653(5)
H119 H 0.5294 0.9055 -0.0300
H120 H 0.5007 0.8973 -0.0805
H121 H 0.5509 0.9102 -0.0860
C75 C 0.4821(5) 0.7845(3) -0.1453(4)
H122 H 0.4780 0.8111 -0.1668
C76 C 0.5153(8) 0.7482(9) -0.1763(9)
H123 H 0.5440 0.7609 -0.1845
H124 H 0.5192 0.7211 -0.1562
O20 O 0.4900(3) 0.7415(3) -0.2210(4)
Si5 Si 0.48986(12) 0.70423(14) -0.26224(13)
C77 C 0.5478(6) 0.7058(9) -0.2884(10)
H125 H 0.5540 0.7347 -0.3023
H126 H 0.5510 0.6841 -0.3158
H127 H 0.5683 0.6993 -0.2604
C78 C 0.4438(8) 0.7065(12) -0.2992(12)
H128 H 0.4401 0.7360 -0.3127
H129 H 0.4186 0.6988 -0.2780
H130 H 0.4463 0.6860 -0.3280
C79 C 0.4936(8) 0.6494(8) -0.2427(10)
C80 C 0.4543(9) 0.6325(9) -0.2110(11)
H131 H 0.4496 0.6515 -0.1811
H132 H 0.4603 0.6029 -0.1990
H133 H 0.4283 0.6324 -0.2328
C81 C 0.5359(7) 0.6445(8) -0.2070(9)
H134 H 0.5614 0.6546 -0.2261
H135 H 0.5397 0.6139 -0.1976
H136 H 0.5323 0.6619 -0.1757
C82 C 0.4978(11) 0.6187(9) -0.2908(11)
H137 H 0.5222 0.6281 -0.3123
H138 H 0.4709 0.6198 -0.3110
H139 H 0.5029 0.5888 -0.2791
O22 O 0.71681(9) 0.64345(10) 0.12441(16)
C91 C 0.75469(14) 0.65137(13) 0.13723(19)
N21 N 0.78574(15) 0.6246(2) 0.05431(19)
C92 C 0.79220(15) 0.64347(18) 0.10516(19)
O23 O 0.75635(15) 0.6001(2) 0.0476(2)
C93 C 0.83516(16) 0.65238(18) 0.1194(2)
H158 H 0.8578 0.6470 0.0953
O24 O 0.8102(2) 0.6347(3) 0.0198(2)
C94 C 0.84565(17) 0.6689(2) 0.1679(2)
O25 O 0.74594(15) 0.67833(16) 0.27028(16)
C95 C 0.81106(18) 0.67657(18) 0.2005(2)
H159 H 0.8168 0.6873 0.2342
O26 O 0.69856(14) 0.68979(14) 0.21107(18)
N22 N 0.73550(15) 0.67964(14) 0.22406(18)
C96 C 0.76836(16) 0.66941(15) 0.1862(2)
C97 C 0.8917(2) 0.6770(3) 0.1845(3)
H160 H 0.8919 0.6884 0.2198
H161 H 0.9051 0.6982 0.1612
H162 H 0.9081 0.6498 0.1833
N23 N 0.0989(3) 0.6253(3) 0.4348(4)
C98 C 0.1156(10) 0.6014(10) 0.4560(11)
C99 C 0.1388(13) 0.5771(13) 0.4796(16)
H163 H 0.1359 0.5477 0.4656
H164 H 0.1303 0.5771 0.5161
H165 H 0.1690 0.5867 0.4764
N27 N -0.0479(3) 0.3934(4) 0.0448(5)
C106 C -0.0057(9) 0.3860(16) 0.0617(19)
C107 C 0.0375(5) 0.3887(5) 0.0874(6)
H175 H 0.0561 0.3651 0.0748
H176 H 0.0338 0.3859 0.1249
H177 H 0.0509 0.4167 0.0795
C116 C 0.0905(8) 0.5193(8) 0.7298(10)
Cl1 Cl 0.1059(16) 0.4915(17) 0.774(2)
Cl4 Cl 0.0629(6) 0.4723(3) 0.7274(6)
Cl6 Cl 0.0573(2) 0.56427(19) 0.7121(3)
O27 O 0.5000 0.5000 0.4180(8)
O28 O 0.2098(15) 0.4814(14) 0.5848(17)
O30 O 0.4619(8) 0.6547(8) 0.5312(10)
O31 O 0.5878(11) 0.5317(11) 0.5318(14)
O32 O 0.575(4) 0.586(4) 0.648(4)
Si2? Si 0.27425(19) 0.63747(19) 0.5294(2)
C20? C 0.2423(8) 0.6871(7) 0.5267(9)
H32? H 0.2615 0.7117 0.5193
H33? H 0.2278 0.6917 0.5599
H34? H 0.2205 0.6846 0.4993
C21? C 0.2395(4) 0.5888(5) 0.5515(5)
H35? H 0.2578 0.5629 0.5543
H36? H 0.2164 0.5836 0.5263
H37? H 0.2266 0.5952 0.5853
C22? C 0.3205(8) 0.6502(8) 0.5680(9)
C23? C 0.3534(9) 0.6061(9) 0.5768(11)
H38? H 0.3363 0.5820 0.5911
H39? H 0.3768 0.6136 0.6008
H40? H 0.3658 0.5973 0.5436
C24? C 0.3018(5) 0.6599(5) 0.6257(7)
H41? H 0.2857 0.6345 0.6381
H42? H 0.2824 0.6851 0.6246
H43? H 0.3261 0.6659 0.6491
C25? C 0.3410(5) 0.6862(5) 0.5435(6)
H44? H 0.3582 0.6760 0.5142
H45? H 0.3600 0.7009 0.5683
H46? H 0.3188 0.7066 0.5313
C83? C 0.4821(5) 0.7845(3) -0.1453(4)
H140? H 0.4782 0.8164 -0.1504
O21? O 0.4754(6) 0.7258(6) -0.1872(8)
C84? C 0.4745(9) 0.7719(8) -0.1987(10)
H141? H 0.4461 0.7819 -0.2121
H142? H 0.4982 0.7811 -0.2222
Si6? Si 0.4728(5) 0.6805(5) -0.2295(6)
C85? C 0.455(2) 0.6362(13) -0.189(3)
H143? H 0.4253 0.6420 -0.1768
H144? H 0.4744 0.6335 -0.1593
H145? H 0.4552 0.6092 -0.2089
C86? C 0.5283(13) 0.6745(17) -0.252(2)
H146? H 0.5364 0.6999 -0.2730
H147? H 0.5306 0.6483 -0.2738
H148? H 0.5480 0.6719 -0.2228
C87? C 0.4577(13) 0.7015(14) -0.2911(11)
C88? C 0.4129(9) 0.7249(9) -0.2952(11)
H149? H 0.4111 0.7478 -0.2690
H150? H 0.3895 0.7038 -0.2896
H151? H 0.4098 0.7378 -0.3296
C89? C 0.4905(14) 0.737(2) -0.313(2)
H152? H 0.5201 0.7256 -0.3133
H153? H 0.4895 0.7632 -0.2910
H154? H 0.4821 0.7453 -0.3483
C90? C 0.457(3) 0.666(2) -0.3347(16)
H155? H 0.4846 0.6495 -0.3341
H156? H 0.4536 0.6796 -0.3685
H157? H 0.4330 0.6457 -0.3286
N24? N 0.5459(9) 0.5679(9) 0.8118(12)
C100? C 0.5151(11) 0.5471(13) 0.8117(17)
C101? C 0.4683(9) 0.5355(11) 0.8092(13)
H166? H 0.4650 0.5040 0.8130
H167? H 0.4563 0.5446 0.7759
H168? H 0.4526 0.5502 0.8371
N25? N 0.5000 0.5000 0.7434(3)
C102? C 0.5000 0.5000 0.7928(10)
C103? C 0.5000 0.5000 0.8412(10)
H169? H 0.4945 0.5295 0.8538
H170? H 0.5283 0.4901 0.8538
H171? H 0.4772 0.4805 0.8538
N26? N 0.6169(6) 0.5607(7) 0.4377(7)
C104? C 0.5358(10) 0.6143(10) 0.4466(11)
C105? C 0.5242(7) 0.6358(8) 0.4519(8)
H172? H 0.5190 0.6388 0.4891
H173? H 0.4963 0.6362 0.4335
H174? H 0.5422 0.6599 0.4398
N28? N 0.1505(10) 0.4672(12) 0.5936(12)
C108? C 0.1219(5) 0.4501(5) 0.5685(7)
C109? C 0.0949(5) 0.4580(5) 0.5255(6)
H178? H 0.0738 0.4343 0.5222
H179? H 0.1127 0.4595 0.4941
H180? H 0.0795 0.4855 0.5303
N29? N 0.0124(12) 0.4267(11) 0.1250(12)
C110? C 0.0033(11) 0.4517(10) 0.0896(11)
C111? C 0.0024(12) 0.4501(11) 0.0334(10)
H181? H -0.0060 0.4786 0.0198
H182? H -0.0186 0.4282 0.0222
H183? H 0.0313 0.4424 0.0205
N30? N 0.5049(11) 0.6069(14) 0.4486(16)
C112? C 0.4667(11) 0.6193(12) 0.4450(16)
C113? C 0.4220(9) 0.6094(10) 0.4425(12)
H184? H 0.4104 0.6187 0.4090
H185? H 0.4067 0.6247 0.4703
H186? H 0.4179 0.5780 0.4465
N31? N 0.5374(17) 1.0355(16) 0.8429(18)
C114? C 0.5296(14) 1.0101(14) 0.8782(15)
C115? C 0.5000 1.0000 0.920(2)
H187? H 0.5144 1.0052 0.9530
H188? H 0.4913 0.9695 0.9175
H189? H 0.4742 1.0185 0.9171
H190? H 0.0738 0.5045 0.7018
Cl2? Cl 0.0682(9) 0.5704(9) 0.7549(11)
Cl3? Cl 0.1373(11) 0.5016(11) 0.7413(12)
Cl5? Cl 0.1131(3) 0.5312(3) 0.7884(3)
O29? O 0.4836(9) 0.8251(10) 0.6021(11)
O33? O 0.538(2) 0.5661(19) 0.615(2)
O34? O 0.124(3) 0.474(3) 0.722(3)
loop_
_geom_bond_atom_site_label_1
_geom_bond_atom_site_label_2
_geom_bond_site_symmetry_1
_geom_bond_site_symmetry_2
C1 N1 1_555 1_555
N1 H1 1_555 1_555
O1 C4 1_555 1_555
C2 C3 1_555 1_555
N2 C1 1_555 1_555
H2 N2 1_555 1_555
H3 N2 1_555 1_555
O2 C6 1_555 1_555
C3 C4 1_555 1_555
N3 C1 1_555 1_555
O3 C7 1_555 1_555
C4 N1 1_555 1_555
N4 C3 1_555 1_555
O4 C8 1_555 1_555
C5 N4 1_555 1_555
H4 C5 1_555 1_555
N5 C2 1_555 1_555
O5 C13 1_555 1_555
C6 N5 1_555 1_555
H5 C6 1_555 1_555
C7 C6 1_555 1_555
H6 C7 1_555 1_555
C8 C7 1_555 1_555
H7 C8 1_555 1_555
C9 O3 1_555 1_555
C10 C9 1_555 1_555
H8 C10 1_555 1_555
H9 C10 1_555 1_555
H10 C10 1_555 1_555
C11 C9 1_555 1_555
H11 C11 1_555 1_555
H12 C11 1_555 1_555
H13 C11 1_555 1_555
C12 O2 1_555 1_555
H14 C12 1_555 1_555
C13 C12 1_555 1_555
H15 C13 1_555 1_555
H16 C13 1_555 1_555
Si1 O5 1_555 1_555
C14 Si1 1_555 1_555
H17 C14 1_555 1_555
H18 C14 1_555 1_555
H19 C14 1_555 1_555
C15 Si1 1_555 1_555
H20 C15 1_555 1_555
H21 C15 1_555 1_555
H22 C15 1_555 1_555
C16 Si1 1_555 1_555
C17 C16 1_555 1_555
H23 C17 1_555 1_555
H24 C17 1_555 1_555
H25 C17 1_555 1_555
C18 C16 1_555 1_555
H26 C18 1_555 1_555
H27 C18 1_555 1_555
H28 C18 1_555 1_555
C19 C16 1_555 1_555
H29 C19 1_555 1_555
H30 C19 1_555 1_555
H31 C19 1_555 1_555
Si3 O10 1_555 1_555
O6 C29 1_555 1_555
N6 H47 1_555 1_555
C26 N6 1_555 1_555
C27 C28 1_555 1_555
N7 C26 1_555 1_555
H48 N7 1_555 1_555
H49 N7 1_555 1_555
O7 C31 1_555 1_555
C28 N9 1_555 1_555
N8 C26 1_555 1_555
O8 C32 1_555 1_555
N9 C30 1_555 1_555
C29 N6 1_555 1_555
O9 C33 1_555 1_555
C30 H50 1_555 1_555
N10 C27 1_555 1_555
O10 C38 1_555 1_555
C31 N10 1_555 1_555
H51 C31 1_555 1_555
C32 C31 1_555 1_555
H52 C32 1_555 1_555
C33 C32 1_555 1_555
H53 C33 1_555 1_555
C34 O8 1_555 1_555
C35 C34 1_555 1_555
H54 C35 1_555 1_555
H55 C35 1_555 1_555
H56 C35 1_555 1_555
C36 C34 1_555 1_555
H57 C36 1_555 1_555
H58 C36 1_555 1_555
H59 C36 1_555 1_555
C37 O7 1_555 1_555
H60 C37 1_555 1_555
C38 C37 1_555 1_555
H61 C38 1_555 1_555
H62 C38 1_555 1_555
C39 Si3 1_555 1_555
H63 C39 1_555 1_555
H64 C39 1_555 1_555
H65 C39 1_555 1_555
C40 Si3 1_555 1_555
H66 C40 1_555 1_555
H67 C40 1_555 1_555
H68 C40 1_555 1_555
C41 Si3 1_555 1_555
C42 C41 1_555 1_555
H69 C42 1_555 1_555
H70 C42 1_555 1_555
H71 C42 1_555 1_555
C43 C41 1_555 1_555
H72 C43 1_555 1_555
H73 C43 1_555 1_555
H74 C43 1_555 1_555
C44 C41 1_555 1_555
H75 C44 1_555 1_555
H76 C44 1_555 1_555
H77 C44 1_555 1_555
Si4 O15 1_555 1_555
C45 N11 1_555 1_555
N11 H78 1_555 1_555
O11 C48 1_555 1_555
C46 C47 1_555 1_555
N12 C45 1_555 1_555
H79 N12 1_555 1_555
H80 N12 1_555 1_555
O12 C50 1_555 1_555
C47 C48 1_555 1_555
N13 C45 1_555 1_555
O13 C51 1_555 1_555
C48 N11 1_555 1_555
N14 C47 1_555 1_555
O14 C52 1_555 1_555
C49 N14 1_555 1_555
H81 C49 1_555 1_555
N15 C46 1_555 1_555
O15 C57 1_555 1_555
C50 N15 1_555 1_555
H82 C50 1_555 1_555
C51 C50 1_555 1_555
H83 C51 1_555 1_555
C52 C51 1_555 1_555
H84 C52 1_555 1_555
C53 O13 1_555 1_555
C54 C53 1_555 1_555
H85 C54 1_555 1_555
H86 C54 1_555 1_555
H87 C54 1_555 1_555
C55 C53 1_555 1_555
H88 C55 1_555 1_555
H89 C55 1_555 1_555
H90 C55 1_555 1_555
C56 O12 1_555 1_555
H91 C56 1_555 1_555
C57 C56 1_555 1_555
H92 C57 1_555 1_555
H93 C57 1_555 1_555
C58 Si4 1_555 1_555
H94 C58 1_555 1_555
H95 C58 1_555 1_555
H96 C58 1_555 1_555
C59 Si4 1_555 1_555
H97 C59 1_555 1_555
H98 C59 1_555 1_555
H99 C59 1_555 1_555
C60 Si4 1_555 1_555
C61 C60 1_555 1_555
H100 C61 1_555 1_555
H101 C61 1_555 1_555
H102 C61 1_555 1_555
C62 C60 1_555 1_555
H103 C62 1_555 1_555
H104 C62 1_555 1_555
H105 C62 1_555 1_555
C63 C60 1_555 1_555
H106 C63 1_555 1_555
H107 C63 1_555 1_555
H108 C63 1_555 1_555
O16 C67 1_555 1_555
N16 H109 1_555 1_555
C64 N16 1_555 1_555
N17 C64 1_555 1_555
H110 N17 1_555 1_555
H111 N17 1_555 1_555
O17 C69 1_555 1_555
C65 C66 1_555 1_555
O18 C70 1_555 1_555
C66 N19 1_555 1_555
N18 C64 1_555 1_555
N19 C68 1_555 1_555
C67 N16 1_555 1_555
O19 C71 1_555 1_555
N20 C65 1_555 1_555
C68 N20 1_555 1_555
H112 C68 1_555 1_555
C69 N20 1_555 1_555
H113 C69 1_555 1_555
C70 C69 1_555 1_555
H114 C70 1_555 1_555
C71 C70 1_555 1_555
H115 C71 1_555 1_555
C72 O18 1_555 1_555
C73 C72 1_555 1_555
H116 C73 1_555 1_555
H117 C73 1_555 1_555
H118 C73 1_555 1_555
C74 C72 1_555 1_555
H119 C74 1_555 1_555
H120 C74 1_555 1_555
H121 C74 1_555 1_555
C75 O17 1_555 1_555
H122 C75 1_555 1_555
C76 C75 1_555 1_555
H123 C76 1_555 1_555
H124 C76 1_555 1_555
O20 C76 1_555 1_555
Si5 O20 1_555 1_555
C77 Si5 1_555 1_555
H125 C77 1_555 1_555
H126 C77 1_555 1_555
H127 C77 1_555 1_555
C78 Si5 1_555 1_555
H128 C78 1_555 1_555
H129 C78 1_555 1_555
H130 C78 1_555 1_555
C79 Si5 1_555 1_555
C80 C79 1_555 1_555
H131 C80 1_555 1_555
H132 C80 1_555 1_555
H133 C80 1_555 1_555
C81 C79 1_555 1_555
H134 C81 1_555 1_555
H135 C81 1_555 1_555
H136 C81 1_555 1_555
C82 C79 1_555 1_555
H137 C82 1_555 1_555
H138 C82 1_555 1_555
H139 C82 1_555 1_555
O22 C91 1_555 1_555
C91 C92 1_555 1_555
N21 C92 1_555 1_555
C92 C93 1_555 1_555
O23 N21 1_555 1_555
C93 H158 1_555 1_555
O24 N21 1_555 1_555
C94 C93 1_555 1_555
O25 N22 1_555 1_555
C95 C94 1_555 1_555
H159 C95 1_555 1_555
O26 N22 1_555 1_555
N22 C96 1_555 1_555
C96 C91 1_555 1_555
C97 C94 1_555 1_555
H160 C97 1_555 1_555
H161 C97 1_555 1_555
H162 C97 1_555 1_555
N23 C98 1_555 1_555
C98 C99 1_555 1_555
C99 H163 1_555 1_555
H164 C99 1_555 1_555
H165 C99 1_555 1_555
N27 C106 1_555 1_555
C106 C107 1_555 1_555
C107 H175 1_555 1_555
H176 C107 1_555 1_555
H177 C107 1_555 1_555
C116 Cl1 1_555 1_555
Cl4 C116 1_555 1_555
Cl6 C116 1_555 1_555
C2 N3 1_555 1_555
O4 C9 1_555 1_555
C5 N5 1_555 1_555
C8 C12 1_555 1_555
C27 N8 1_555 1_555
C28 C29 1_555 1_555
O9 C34 1_555 1_555
C30 N10 1_555 1_555
C33 C37 1_555 1_555
C46 N13 1_555 1_555
O14 C53 1_555 1_555
C49 N15 1_555 1_555
C52 C56 1_555 1_555
C65 N18 1_555 1_555
C66 C67 1_555 1_555
O19 C72 1_555 1_555
C71 C75 1_555 1_555
C95 C96 1_555 1_555

#END
