
#######################################################################
#
#                 Cambridge Crystallographic Data Centre
#                                CCDC 
#
#######################################################################
#
# If this CIF has been generated from an entry in the Cambridge 
# Structural Database, then it will include bibliographic, chemical, 
# crystal, experimental, refinement or atomic coordinate data resulting 
# from the CCDC's data processing and validation procedures.
#
#######################################################################

data_OLEDUG
_chemical_formula_moiety         'C20 H17 N1 O4 S1'
_chemical_name_systematic        
3-(2-Furyl)-N-((4-methylphenyl)sulfonyl)-2-phenylacrylamide
_symmetry_cell_setting           triclinic
_symmetry_space_group_name_H-M   'P -1'
_symmetry_Int_Tables_number      2
_space_group_name_Hall           '-P 1'
loop_
_symmetry_equiv_pos_site_id
_symmetry_equiv_pos_as_xyz
1 x,y,z
2 -x,-y,-z
_cell_length_a                   10.309(2)
_cell_length_b                   10.391(2)
_cell_length_c                   10.566(2)
_cell_angle_alpha                69.598(2)
_cell_angle_beta                 75.790(2)
_cell_angle_gamma                61.445(2)
_cell_volume                     927.513
_exptl_crystal_colour            colorless
_exptl_crystal_description       block
_cell_formula_units_Z            2
loop_
_atom_site_label
_atom_site_type_symbol
_atom_site_fract_x
_atom_site_fract_y
_atom_site_fract_z
S1 S 0.31262(4) -0.04942(4) 0.99847(4)
O1 O 0.44114(12) -0.12030(13) 1.07038(11)
O2 O 0.25505(13) -0.14223(13) 0.98347(12)
O3 O 0.14722(12) 0.13779(14) 0.75876(12)
O4 O 0.14941(14) 0.51936(14) 0.33592(12)
N1 N 0.36504(13) 0.03957(14) 0.84691(12)
C1 C -0.1644(3) 0.4486(3) 1.2413(3)
C2 C -0.0458(2) 0.3231(2) 1.1810(2)
C3 C 0.0932(3) 0.3215(3) 1.1313(2)
C4 C 0.2016(2) 0.2091(2) 1.0754(2)
C5 C 0.17206(17) 0.09570(18) 1.06750(15)
C6 C 0.03613(18) 0.0933(2) 1.11682(17)
C7 C -0.0712(2) 0.2073(3) 1.1735(2)
C8 C 0.27179(16) 0.12761(16) 0.74414(15)
C9 C 0.33631(16) 0.20731(16) 0.61840(14)
C10 C 0.49564(16) 0.17520(16) 0.60270(14)
C11 C 0.53485(19) 0.28623(19) 0.60036(17)
C12 C 0.6822(2) 0.2583(2) 0.58483(19)
C13 C 0.7919(2) 0.1204(2) 0.5697(2)
C14 C 0.7551(2) 0.0091(2) 0.5724(2)
C15 C 0.60774(18) 0.03538(19) 0.59019(17)
C16 C 0.24031(17) 0.31073(16) 0.52654(15)
C17 C 0.27222(18) 0.39778(17) 0.39410(16)
C18 C 0.3932(2) 0.3905(2) 0.30719(18)
C19 C 0.3424(3) 0.5141(2) 0.18957(19)
C20 C 0.1978(3) 0.5878(2) 0.2122(2)
H1 H 0.45440 0.03080 0.83110
H2 H -0.13250 0.44460 1.32120
H3 H -0.25440 0.43580 1.26480
H4 H -0.18190 0.54530 1.17620
H5 H 0.11260 0.39830 1.13610
H6 H 0.29410 0.20900 1.04310
H7 H 0.01720 0.01620 1.11200
H8 H -0.16290 0.20600 1.20750
H9 H 0.46120 0.38060 0.60930
H10 H 0.70710 0.33340 0.58460
H11 H 0.89090 0.10250 0.55770
H12 H 0.82930 -0.08450 0.56220
H13 H 0.58380 -0.04160 0.59380
H14 H 0.14160 0.32800 0.55170
H15 H 0.49070 0.31910 0.32090
H16 H 0.40080 0.53830 0.11130
H17 H 0.13730 0.67450 0.15190
loop_
_geom_bond_atom_site_label_1
_geom_bond_atom_site_label_2
_geom_bond_site_symmetry_1
_geom_bond_site_symmetry_2
S1 O1 1_555 1_555
O2 S1 1_555 1_555
O3 C8 1_555 1_555
O4 C17 1_555 1_555
N1 S1 1_555 1_555
C1 C2 1_555 1_555
C2 C3 1_555 1_555
C3 C4 1_555 1_555
C4 C5 1_555 1_555
C5 S1 1_555 1_555
C6 C5 1_555 1_555
C7 C2 1_555 1_555
C8 N1 1_555 1_555
C9 C8 1_555 1_555
C10 C9 1_555 1_555
C11 C10 1_555 1_555
C12 C11 1_555 1_555
C13 C12 1_555 1_555
C14 C13 1_555 1_555
C15 C10 1_555 1_555
C16 C9 1_555 1_555
C17 C16 1_555 1_555
C18 C17 1_555 1_555
C19 C18 1_555 1_555
C20 O4 1_555 1_555
H1 N1 1_555 1_555
H2 C1 1_555 1_555
H3 C1 1_555 1_555
H4 C1 1_555 1_555
H5 C3 1_555 1_555
H6 C4 1_555 1_555
H7 C6 1_555 1_555
H8 C7 1_555 1_555
H9 C11 1_555 1_555
H10 C12 1_555 1_555
H11 C13 1_555 1_555
H12 C14 1_555 1_555
H13 C15 1_555 1_555
H14 C16 1_555 1_555
H15 C18 1_555 1_555
H16 C19 1_555 1_555
H17 C20 1_555 1_555
C6 C7 1_555 1_555
C14 C15 1_555 1_555
C19 C20 1_555 1_555

#END
