
#######################################################################
#
#                 Cambridge Crystallographic Data Centre
#                                CCDC 
#
#######################################################################
#
# If this CIF has been generated from an entry in the Cambridge 
# Structural Database, then it will include bibliographic, chemical, 
# crystal, experimental, refinement or atomic coordinate data resulting 
# from the CCDC's data processing and validation procedures.
#
#######################################################################

data_OLEGUH
_chemical_name_common            
'rctt-2,8,14,20-tetrakis(4-Methylphenyl)calix[4]resorcinarene dimethylformamide toluene solvate'
_chemical_formula_moiety         'C56 H48 O8,6(C3 H7 N1 O1),C7 H8'
_chemical_name_systematic        
'rcct-2,8,14,20-tetrakis(4-Methylphenyl)-4,6,10,12,16,18,22,24-octahydroxycalix[4]arene dimethylformamide toluene solvate'
_symmetry_cell_setting           monoclinic
_symmetry_space_group_name_H-M   'P 21/c'
_symmetry_Int_Tables_number      14
_space_group_name_Hall           '-P 2ybc'
loop_
_symmetry_equiv_pos_site_id
_symmetry_equiv_pos_as_xyz
1 x,y,z
2 x,1/2-y,1/2+z
3 -x,-y,-z
4 -x,1/2+y,1/2-z
_cell_length_a                   16.027(4)
_cell_length_b                   20.083(5)
_cell_length_c                   23.921(8)
_cell_angle_alpha                90
_cell_angle_beta                 101.064(6)
_cell_angle_gamma                90
_cell_volume                     7556.35
_exptl_crystal_colour            colorless
_exptl_crystal_description       block
_chemical_melting_point          'above 304deg.C'
_cell_formula_units_Z            4
loop_
_atom_site_label
_atom_site_type_symbol
_atom_site_fract_x
_atom_site_fract_y
_atom_site_fract_z
O1 O 1.0690(3) 0.7904(2) 0.16916(16)
H1 H 1.1203 0.7971 0.1736
O2 O 1.0975(3) 0.8109(2) -0.02658(16)
H2 H 1.1472 0.8170 -0.0112
O3 O 0.5716(3) 0.6472(2) 0.05967(19)
H3 H 0.5761 0.6066 0.0585
O4 O 0.8719(3) 0.6259(2) 0.12619(19)
H4 H 0.8594 0.5863 0.1223
O5 O 0.4312(3) 0.7902(2) -0.16875(16)
H5 H 0.3801 0.7980 -0.1737
O6 O 0.4021(3) 0.8108(2) 0.02696(16)
H6 H 0.3528 0.8181 0.0113
O7 O 0.9286(3) 0.6473(2) -0.05945(19)
H7 H 0.9246 0.6066 -0.0589
O8 O 0.6278(3) 0.6262(2) -0.1261(2)
H8 H 0.6399 0.5866 -0.1219
C1 C 1.0846(4) 0.8041(3) 0.0728(2)
H9 H 1.1420 0.8135 0.0848
C2 C 1.0340(4) 0.7921(3) 0.1124(3)
C3 C 0.9476(4) 0.7803(3) 0.0955(2)
C4 C 0.9139(4) 0.7790(3) 0.0374(2)
H10 H 0.8561 0.7706 0.0258
C5 C 0.9630(4) 0.7896(3) -0.0046(2)
C6 C 1.0491(4) 0.8020(3) 0.0142(2)
C7 C 0.7217(4) 0.6353(3) 0.0902(3)
H11 H 0.7173 0.5894 0.0860
C8 C 0.6488(4) 0.6744(3) 0.0766(2)
C9 C 0.6555(4) 0.7439(3) 0.0814(2)
C10 C 0.7352(4) 0.7709(3) 0.0999(2)
H12 H 0.7402 0.8170 0.1020
C11 C 0.8090(4) 0.7326(3) 0.1156(2)
C12 C 0.8006(4) 0.6637(3) 0.1100(3)
C13 C 0.4150(4) 0.8039(3) -0.0710(3)
H13 H 0.3573 0.8127 -0.0826
C14 C 0.4657(4) 0.7922(3) -0.1109(2)
C15 C 0.5520(4) 0.7801(3) -0.0949(2)
C16 C 0.5861(4) 0.7793(3) -0.0364(2)
H14 H 0.6441 0.7718 -0.0246
C17 C 0.5364(4) 0.7893(3) 0.0046(2)
C18 C 0.4514(4) 0.8024(3) -0.0137(2)
C19 C 0.7776(4) 0.6348(3) -0.0898(3)
H15 H 0.7819 0.5889 -0.0851
C20 C 0.8500(4) 0.6744(3) -0.0765(3)
C21 C 0.8455(4) 0.7432(3) -0.0813(2)
C22 C 0.7648(4) 0.7703(3) -0.1001(2)
H16 H 0.7601 0.8164 -0.1022
C23 C 0.6909(4) 0.7327(3) -0.1158(2)
C24 C 0.6993(4) 0.6636(3) -0.1098(2)
C25 C 0.8936(4) 0.7644(3) 0.1401(2)
H17 H 0.9256 0.7309 0.1653
C26 C 0.8817(4) 0.8228(3) 0.1782(2)
C27 C 0.8988(4) 0.8873(3) 0.1669(3)
H18 H 0.9213 0.8975 0.1349
C28 C 0.8829(5) 0.9383(4) 0.2032(3)
H19 H 0.8953 0.9820 0.1947
C29 C 0.8490(5) 0.9258(4) 0.2517(4)
C30 C 0.8317(5) 0.8609(4) 0.2618(3)
H20 H 0.8082 0.8508 0.2934
C31 C 0.8476(4) 0.8100(4) 0.2270(3)
H21 H 0.8357 0.7664 0.2359
C32 C 0.8309(6) 0.9814(4) 0.2905(3)
H22 H 0.8462 1.0234 0.2761
H23 H 0.8637 0.9745 0.3281
H24 H 0.7715 0.9816 0.2920
C33 C 0.5745(4) 0.7852(3) 0.0681(2)
H25 H 0.5326 0.7610 0.0852
C34 C 0.5839(4) 0.8529(3) 0.0974(3)
C35 C 0.6121(4) 0.8565(3) 0.1566(3)
H26 H 0.6241 0.8173 0.1773
C36 C 0.6224(5) 0.9166(4) 0.1847(3)
H27 H 0.6405 0.9173 0.2240
C37 C 0.6064(5) 0.9757(4) 0.1556(4)
C38 C 0.5762(5) 0.9724(4) 0.0975(4)
H28 H 0.5625 1.0115 0.0770
C39 C 0.5660(5) 0.9120(4) 0.0695(3)
H29 H 0.5463 0.9116 0.0303
C40 C 0.6220(6) 1.0412(4) 0.1878(4)
H30 H 0.6416 1.0324 0.2276
H31 H 0.5700 1.0662 0.1827
H32 H 0.6642 1.0664 0.1734
C41 C 0.6056(4) 0.7645(3) -0.1394(2)
H33 H 0.5734 0.7308 -0.1643
C42 C 0.6176(4) 0.8223(3) -0.1787(3)
C43 C 0.6017(5) 0.8870(4) -0.1670(3)
H34 H 0.5805 0.8972 -0.1345
C44 C 0.6170(5) 0.9384(4) -0.2035(3)
H35 H 0.6040 0.9822 -0.1958
C45 C 0.6512(5) 0.9242(5) -0.2509(3)
C46 C 0.6677(5) 0.8592(4) -0.2629(3)
H36 H 0.6894 0.8491 -0.2952
C47 C 0.6518(5) 0.8092(4) -0.2271(3)
H37 H 0.6642 0.7655 -0.2353
C48 C 0.6688(6) 0.9809(4) -0.2900(3)
H38 H 0.6909 0.9627 -0.3214
H39 H 0.7096 1.0110 -0.2690
H40 H 0.6169 1.0044 -0.3043
C49 C 0.9257(4) 0.7853(3) -0.0682(2)
H41 H 0.9680 0.7612 -0.0850
C50 C 0.9164(4) 0.8532(3) -0.0976(3)
C51 C 0.9342(4) 0.9128(3) -0.0698(3)
H42 H 0.9545 0.9130 -0.0307
C52 C 0.9224(5) 0.9729(4) -0.0991(4)
H43 H 0.9343 1.0124 -0.0789
C53 C 0.8937(5) 0.9756(4) -0.1569(4)
C54 C 0.8768(5) 0.9154(4) -0.1846(3)
H44 H 0.8570 0.9152 -0.2238
C55 C 0.8884(4) 0.8561(3) -0.1562(3)
H45 H 0.8772 0.8166 -0.1766
C56 C 0.8786(6) 1.0414(4) -0.1882(4)
H46 H 0.8593 1.0333 -0.2281
H47 H 0.9307 1.0663 -0.1825
H48 H 0.8362 1.0663 -0.1737
O9 O 0.5669(4) 0.5157(3) 0.0642(3)
N1 N 0.5946(4) 0.4113(3) 0.0379(3)
C57 C 0.5999(5) 0.4763(4) 0.0357(4)
H49 H 0.6312 0.4941 0.0103
C58 C 0.6301(5) 0.3668(4) 0.0017(3)
H50 H 0.6608 0.3920 -0.0218
H51 H 0.5852 0.3425 -0.0219
H52 H 0.6681 0.3363 0.0247
C59 C 0.5461(6) 0.3811(4) 0.0753(3)
H53 H 0.5243 0.4150 0.0969
H54 H 0.5818 0.3513 0.1008
H55 H 0.4997 0.3566 0.0533
O10 O 0.3409(4) 0.5081(3) 0.1192(3)
N2 N 0.3813(5) 0.6087(3) 0.1549(3)
C60 C 0.3960(6) 0.5495(5) 0.1392(4)
H56 H 0.4525 0.5365 0.1430
C61 C 0.2959(6) 0.6301(5) 0.1533(4)
H57 H 0.2573 0.5954 0.1375
H58 H 0.2848 0.6693 0.1301
H59 H 0.2882 0.6401 0.1913
C62 C 0.4482(6) 0.6545(5) 0.1764(4)
H60 H 0.5020 0.6345 0.1746
H61 H 0.4463 0.6655 0.2152
H62 H 0.4412 0.6942 0.1537
O11 O 0.9329(4) 0.5154(3) 0.9354(3)
N3 N 0.9056(4) 0.4111(3) 0.9619(3)
C63 C 0.9006(5) 0.4756(5) 0.9650(4)
H63 H 0.8708 0.4933 0.9913
C64 C 0.9544(6) 0.3807(4) 0.9235(4)
H64 H 0.9753 0.4147 0.9016
H65 H 0.9188 0.3506 0.8984
H66 H 1.0015 0.3566 0.9452
C65 C 0.8689(5) 0.3671(4) 0.9985(3)
H67 H 0.8375 0.3927 1.0213
H68 H 0.9134 0.3431 1.0229
H69 H 0.8313 0.3361 0.9756
O12 O 0.2412(3) 0.6959(3) 0.6882(2)
N4 N 0.3749(4) 0.6588(3) 0.7094(2)
C66 C 0.3061(5) 0.6858(4) 0.7233(3)
H70 H 0.3070 0.6970 0.7596
C67 C 0.4527(5) 0.6501(4) 0.7517(3)
H71 H 0.4438 0.6655 0.7881
H72 H 0.4978 0.6752 0.7405
H73 H 0.4679 0.6038 0.7543
C68 C 0.3783(5) 0.6400(5) 0.6514(3)
H74 H 0.3244 0.6489 0.6272
H75 H 0.3909 0.5933 0.6500
H76 H 0.4218 0.6652 0.6385
O13 O 0.2595(3) 0.8042(3) 0.8128(2)
N5 N 0.1245(4) 0.8414(3) 0.7906(2)
C69 C 0.1935(5) 0.8153(4) 0.7791(3)
H77 H 0.1925 0.8040 0.7413
C70 C 0.1218(5) 0.8599(5) 0.8482(3)
H78 H 0.1761 0.8512 0.8720
H79 H 0.0787 0.8344 0.8613
H80 H 0.1089 0.9065 0.8496
C71 C 0.0483(5) 0.8501(4) 0.7471(3)
H81 H 0.0589 0.8348 0.7111
H82 H 0.0330 0.8963 0.7443
H83 H 0.0025 0.8248 0.7573
O14 O 0.1600(4) 0.5077(3) 0.8807(3)
N6 N 0.1192(5) 0.6085(3) 0.8451(3)
C72 C 0.1047(6) 0.5481(4) 0.8623(4)
H84 H 0.0484 0.5353 0.8603
C73 C 0.0514(6) 0.6546(5) 0.8227(4)
H85 H -0.0025 0.6342 0.8236
H86 H 0.0544 0.6659 0.7841
H87 H 0.0573 0.6942 0.8455
C74 C 0.2044(6) 0.6300(5) 0.8479(4)
H88 H 0.2427 0.5950 0.8635
H89 H 0.2151 0.6687 0.8718
H90 H 0.2129 0.6408 0.8103
C75 C 0.7370(10) -0.0604(7) -0.0159(8)
C76 C 0.7911(14) -0.0477(9) 0.0352(9)
C77 C 0.8390(10) 0.0099(6) 0.0388(7)
C78 C 0.7763(9) 0.0538(9) 0.0140(6)
C79 C 0.6980(12) 0.0508(16) -0.0221(10)
C80 C 0.679(2) -0.0133(12) -0.0416(15)
C83 C 0.7512(8) 0.1208(3) -0.0006(7)
C81? C 0.7496(8) 0.0049(2) -0.0008(4)
C82? C 0.7387(13) 0.1039(15) -0.0012(10)
loop_
_geom_bond_atom_site_label_1
_geom_bond_atom_site_label_2
_geom_bond_site_symmetry_1
_geom_bond_site_symmetry_2
O1 H1 1_555 1_555
O2 H2 1_555 1_555
O3 H3 1_555 1_555
O4 H4 1_555 1_555
O5 H5 1_555 1_555
O6 H6 1_555 1_555
O7 H7 1_555 1_555
O8 H8 1_555 1_555
O9 C57 1_555 1_555
O10 C60 1_555 1_555
O11 C63 1_555 1_555
O12 C66 1_555 1_555
O13 C69 1_555 1_555
O14 C72 1_555 1_555
N1 C57 1_555 1_555
N2 C60 1_555 1_555
N3 C63 1_555 1_555
N4 C66 1_555 1_555
N5 C69 1_555 1_555
N6 C72 1_555 1_555
C1 H9 1_555 1_555
C2 O1 1_555 1_555
C3 C2 1_555 1_555
C4 C3 1_555 1_555
H10 C4 1_555 1_555
C5 C4 1_555 1_555
C6 O2 1_555 1_555
C7 H11 1_555 1_555
C8 O3 1_555 1_555
C9 C8 1_555 1_555
C10 C9 1_555 1_555
H12 C10 1_555 1_555
C11 C10 1_555 1_555
C12 O4 1_555 1_555
C13 H13 1_555 1_555
C14 O5 1_555 1_555
C15 C14 1_555 1_555
C16 C15 1_555 1_555
H14 C16 1_555 1_555
C17 C16 1_555 1_555
C18 O6 1_555 1_555
C19 H15 1_555 1_555
C20 O7 1_555 1_555
C21 C20 1_555 1_555
C22 C21 1_555 1_555
H16 C22 1_555 1_555
C23 C22 1_555 1_555
C24 O8 1_555 1_555
C25 C3 1_555 1_555
H17 C25 1_555 1_555
C26 C25 1_555 1_555
C27 C26 1_555 1_555
H18 C27 1_555 1_555
C28 C27 1_555 1_555
H19 C28 1_555 1_555
C29 C28 1_555 1_555
C30 C29 1_555 1_555
H20 C30 1_555 1_555
C31 C26 1_555 1_555
H21 C31 1_555 1_555
C32 C29 1_555 1_555
H22 C32 1_555 1_555
H23 C32 1_555 1_555
H24 C32 1_555 1_555
C33 C9 1_555 1_555
H25 C33 1_555 1_555
C34 C33 1_555 1_555
C35 C34 1_555 1_555
H26 C35 1_555 1_555
C36 C35 1_555 1_555
H27 C36 1_555 1_555
C37 C36 1_555 1_555
C38 C37 1_555 1_555
H28 C38 1_555 1_555
C39 C34 1_555 1_555
H29 C39 1_555 1_555
C40 C37 1_555 1_555
H30 C40 1_555 1_555
H31 C40 1_555 1_555
H32 C40 1_555 1_555
C41 C15 1_555 1_555
H33 C41 1_555 1_555
C42 C41 1_555 1_555
C43 C42 1_555 1_555
H34 C43 1_555 1_555
C44 C43 1_555 1_555
H35 C44 1_555 1_555
C45 C44 1_555 1_555
C46 C45 1_555 1_555
H36 C46 1_555 1_555
C47 C42 1_555 1_555
H37 C47 1_555 1_555
C48 C45 1_555 1_555
H38 C48 1_555 1_555
H39 C48 1_555 1_555
H40 C48 1_555 1_555
C49 C5 1_555 1_555
H41 C49 1_555 1_555
C50 C49 1_555 1_555
C51 C50 1_555 1_555
H42 C51 1_555 1_555
C52 C51 1_555 1_555
H43 C52 1_555 1_555
C53 C52 1_555 1_555
C54 C53 1_555 1_555
H44 C54 1_555 1_555
C55 C50 1_555 1_555
H45 C55 1_555 1_555
C56 C53 1_555 1_555
H46 C56 1_555 1_555
H47 C56 1_555 1_555
H48 C56 1_555 1_555
C57 H49 1_555 1_555
C58 N1 1_555 1_555
H50 C58 1_555 1_555
H51 C58 1_555 1_555
H52 C58 1_555 1_555
C59 N1 1_555 1_555
H53 C59 1_555 1_555
H54 C59 1_555 1_555
H55 C59 1_555 1_555
C60 H56 1_555 1_555
C61 N2 1_555 1_555
H57 C61 1_555 1_555
H58 C61 1_555 1_555
H59 C61 1_555 1_555
C62 N2 1_555 1_555
H60 C62 1_555 1_555
H61 C62 1_555 1_555
H62 C62 1_555 1_555
C63 H63 1_555 1_555
C64 N3 1_555 1_555
H64 C64 1_555 1_555
H65 C64 1_555 1_555
H66 C64 1_555 1_555
C65 N3 1_555 1_555
H67 C65 1_555 1_555
H68 C65 1_555 1_555
H69 C65 1_555 1_555
C66 H70 1_555 1_555
C67 N4 1_555 1_555
H71 C67 1_555 1_555
H72 C67 1_555 1_555
H73 C67 1_555 1_555
C68 N4 1_555 1_555
H74 C68 1_555 1_555
H75 C68 1_555 1_555
H76 C68 1_555 1_555
C69 H77 1_555 1_555
C70 N5 1_555 1_555
H78 C70 1_555 1_555
H79 C70 1_555 1_555
H80 C70 1_555 1_555
C71 N5 1_555 1_555
H81 C71 1_555 1_555
H82 C71 1_555 1_555
H83 C71 1_555 1_555
C72 H84 1_555 1_555
C73 N6 1_555 1_555
H85 C73 1_555 1_555
H86 C73 1_555 1_555
H87 C73 1_555 1_555
C74 N6 1_555 1_555
H88 C74 1_555 1_555
H89 C74 1_555 1_555
H90 C74 1_555 1_555
C75 C76 1_555 1_555
C76 C77 1_555 1_555
C77 C78 1_555 1_555
C78 C79 1_555 1_555
C79 C80 1_555 1_555
C80 C75 1_555 1_555
C83 C78 1_555 1_555
C1 C2 1_555 1_555
C1 C6 1_555 1_555
C5 C6 1_555 1_555
C7 C8 1_555 1_555
C7 C12 1_555 1_555
C11 C25 1_555 1_555
C11 C12 1_555 1_555
C13 C14 1_555 1_555
C13 C18 1_555 1_555
C17 C33 1_555 1_555
C17 C18 1_555 1_555
C19 C20 1_555 1_555
C19 C24 1_555 1_555
C21 C49 1_555 1_555
C23 C41 1_555 1_555
C23 C24 1_555 1_555
C30 C31 1_555 1_555
C38 C39 1_555 1_555
C46 C47 1_555 1_555
C54 C55 1_555 1_555

#END
