
#######################################################################
#
#                 Cambridge Crystallographic Data Centre
#                                CCDC 
#
#######################################################################
#
# If this CIF has been generated from an entry in the Cambridge 
# Structural Database, then it will include bibliographic, chemical, 
# crystal, experimental, refinement or atomic coordinate data resulting 
# from the CCDC's data processing and validation procedures.
#
#######################################################################

data_OLEHES
_chemical_name_common            
'rccc-C-isobutyl-5,11,17,23-tetramethylresorcin[4]arene dimethylformamide solvate'
_chemical_formula_moiety         'C48 H64 O8,2(C3 H7 N1 O1)'
_chemical_name_systematic        
'rccc-2,8,14,20-tetrakis(isobutyl)-4,6,10,12,16,18,22,24-octahydroxy 5,11,17,23-tetramethylcalix[4]arene dimethylformamide solvate'
_symmetry_cell_setting           triclinic
_symmetry_space_group_name_H-M   'P -1'
_symmetry_Int_Tables_number      2
_space_group_name_Hall           '-P 1'
loop_
_symmetry_equiv_pos_site_id
_symmetry_equiv_pos_as_xyz
1 x,y,z
2 -x,-y,-z
_cell_length_a                   12.3180(7)
_cell_length_b                   12.4399(7)
_cell_length_c                   18.6562(11)
_cell_angle_alpha                81.4130(10)
_cell_angle_beta                 71.210(2)
_cell_angle_gamma                88.9250(10)
_cell_volume                     2674.77
_exptl_crystal_colour            colorless
_exptl_crystal_description       block
_chemical_melting_point          'above 300deg.C'
_cell_formula_units_Z            2
loop_
_atom_site_label
_atom_site_type_symbol
_atom_site_fract_x
_atom_site_fract_y
_atom_site_fract_z
O1 O 0.2932(4) -0.1239(4) 0.3757(3)
H1 H 0.2316 -0.1010 0.3730
O2 O 0.6400(5) 0.0318(5) 0.3698(4)
H2 H 0.6676 0.0933 0.3637
O3 O 0.7348(5) 0.2345(4) 0.3514(4)
H3 H 0.7038 0.1749 0.3562
O4 O 0.5646(5) 0.5787(5) 0.3583(4)
H4 H 0.5059 0.6054 0.3528
O5 O 0.3707(4) 0.6762(4) 0.3442(3)
H5 H 0.3376 0.7333 0.3514
O6 O 0.0112(4) 0.5061(4) 0.3683(3)
H6 H -0.0051 0.4428 0.3677
O7 O -0.0722(4) 0.2990(4) 0.3761(3)
H7 H -0.0469 0.3604 0.3736
O8 O 0.0862(4) -0.0511(4) 0.3682(3)
H8 H 0.1497 -0.0700 0.3696
C1 C 0.3800(6) -0.0443(6) 0.3376(5)
C2 C 0.4694(7) -0.0443(6) 0.3704(5)
C3 C 0.5574(6) 0.0339(6) 0.3350(5)
C4 C 0.5616(6) 0.1053(6) 0.2700(5)
C5 C 0.4711(6) 0.0989(6) 0.2417(4)
H9 H 0.4724 0.1473 0.1983
C6 C 0.3798(6) 0.0261(5) 0.2732(4)
C7 C 0.4669(8) -0.1223(8) 0.4392(6)
H10 H 0.5335 -0.1098 0.4533
H11 H 0.4667 -0.1953 0.4282
H12 H 0.3990 -0.1126 0.4807
C8 C 0.6748(6) 0.3140(6) 0.3222(5)
C9 C 0.6484(6) 0.4083(7) 0.3550(5)
C10 C 0.5882(6) 0.4870(6) 0.3230(5)
C11 C 0.5552(6) 0.4766(6) 0.2608(5)
C12 C 0.5800(6) 0.3773(5) 0.2315(4)
H13 H 0.5563 0.3663 0.1905
C13 C 0.6390(6) 0.2944(6) 0.2620(5)
C14 C 0.6762(8) 0.4258(8) 0.4266(6)
H14 H 0.7169 0.3647 0.4418
H15 H 0.6063 0.4327 0.4672
H16 H 0.7230 0.4908 0.4156
C15 C 0.3063(6) 0.6087(6) 0.3197(4)
C16 C 0.1881(6) 0.5930(5) 0.3589(4)
C17 C 0.1265(6) 0.5253(6) 0.3332(4)
C18 C 0.1820(6) 0.4683(5) 0.2708(4)
C19 C 0.2985(6) 0.4821(5) 0.2389(4)
H17 H 0.3359 0.4427 0.1998
C20 C 0.3642(6) 0.5515(6) 0.2615(4)
C21 C 0.1296(6) 0.6511(7) 0.4253(5)
H18 H 0.0494 0.6310 0.4445
H19 H 0.1389 0.7282 0.4088
H20 H 0.1631 0.6312 0.4651
C22 C 0.0148(6) 0.2362(6) 0.3411(4)
C23 C 0.0047(6) 0.1246(6) 0.3713(4)
C24 C 0.0915(6) 0.0582(6) 0.3383(5)
C25 C 0.1876(6) 0.0985(6) 0.2750(4)
C26 C 0.1917(6) 0.2059(6) 0.2466(4)
H21 H 0.2546 0.2328 0.2048
C27 C 0.1071(6) 0.2786(6) 0.2764(4)
C28 C -0.0961(7) 0.0848(7) 0.4410(5)
H22 H -0.1456 0.1441 0.4549
H23 H -0.0690 0.0563 0.4827
H24 H -0.1378 0.0286 0.4299
C29 C 0.2830(6) 0.0226(6) 0.2393(4)
H25 H 0.2490 -0.0511 0.2566
C30 C 0.3189(9) 0.0383(9) 0.1523(5)
H26 H 0.3847 -0.0057 0.1329
H27 H 0.3421 0.1139 0.1322
C31 C 0.2147(15) 0.0046(13) 0.1211(10)
H28 H 0.1461 0.0440 0.1451
C32 C 0.252(2) 0.040(2) 0.0348(10)
H29 H 0.1920 0.0204 0.0159
H30 H 0.3205 0.0038 0.0108
H31 H 0.2655 0.1170 0.0233
C33 C 0.187(2) -0.1172(14) 0.1443(13)
H32 H 0.1260 -0.1364 0.1268
H33 H 0.1645 -0.1352 0.1990
H34 H 0.2541 -0.1568 0.1215
C34 C 0.6602(6) 0.1876(6) 0.2295(5)
H35 H 0.7245 0.1569 0.2450
C35 C 0.7026(10) 0.1983(9) 0.1442(7)
H36 H 0.6411 0.2095 0.1214
C36 C 0.8093(13) 0.2699(14) 0.1003(10)
C38 C 0.839(3) 0.289(3) 0.0138(18)
H37 H 0.7817 0.3319 -0.0002
H38 H 0.8420 0.2197 -0.0041
H39 H 0.9125 0.3257 -0.0089
C40 C 0.902(3) 0.203(3) 0.113(2)
C42 C 0.4949(6) 0.5632(6) 0.2229(5)
H43 H 0.5171 0.6321 0.2345
C43 C 0.5304(8) 0.5766(7) 0.1373(5)
H44 H 0.5015 0.5140 0.1228
H45 H 0.6135 0.5770 0.1171
C44 C 0.4887(12) 0.6795(10) 0.0999(7)
H46 H 0.4052 0.6798 0.1232
C45 C 0.5142(15) 0.6803(14) 0.0143(7)
H47 H 0.4859 0.7455 -0.0072
H48 H 0.4773 0.6181 0.0062
H49 H 0.5956 0.6780 -0.0102
C46 C 0.5379(16) 0.7818(13) 0.1158(11)
H50 H 0.5088 0.8450 0.0925
H51 H 0.6200 0.7832 0.0948
H52 H 0.5156 0.7816 0.1701
C47 C 0.1120(6) 0.3952(6) 0.2408(5)
H53 H 0.0330 0.4199 0.2576
C48 C 0.1502(9) 0.4124(7) 0.1548(6)
H54 H 0.2264 0.3831 0.1338
C50 C 0.0612(15) 0.3618(16) 0.1251(10)
C52 C -0.0527(18) 0.420(2) 0.1426(15)
C54 C 0.118(2) 0.366(2) 0.0389(10)
H60 H 0.0656 0.3357 0.0180
H61 H 0.1865 0.3257 0.0291
H62 H 0.1361 0.4407 0.0153
N1 N 0.8364(16) 0.7842(16) 0.2799(10)
O9 O 0.9310(15) 0.8371(14) 0.3444(10)
C55 C 0.744(3) 0.828(3) 0.2455(19)
H63 H 0.7259 0.9003 0.2562
H64 H 0.6759 0.7817 0.2676
H65 H 0.7714 0.8285 0.1911
C56 C 0.886(3) 0.6704(18) 0.2818(18)
H66 H 0.9403 0.6658 0.3094
H67 H 0.9243 0.6572 0.2303
H68 H 0.8254 0.6170 0.3068
C57 C 0.890(4) 0.864(5) 0.289(2)
H69 H 0.8991 0.9327 0.2604
N2 N 0.7368(5) 0.7203(7) 0.5384(4)
O10 O 0.8583(8) 0.5998(8) 0.4668(5)
C58 C 0.6409(16) 0.6580(15) 0.5340(10)
H70 H 0.6689 0.6089 0.4975
H71 H 0.5887 0.7068 0.5183
H72 H 0.6017 0.6174 0.5834
C59 C 0.7156(19) 0.8048(13) 0.5923(10)
H73 H 0.7872 0.8391 0.5875
H74 H 0.6807 0.7698 0.6441
H75 H 0.6654 0.8585 0.5793
C60 C 0.8536(8) 0.6724(10) 0.5090(7)
H76 H 0.9169 0.6942 0.5208
C37? C 0.772(3) 0.0977(18) 0.1235(18)
C39? C 0.816(5) 0.112(5) 0.0363(18)
H40? H 0.8597 0.0499 0.0202
H41? H 0.8641 0.1765 0.0168
H42? H 0.7524 0.1178 0.0170
C41? C 0.884(4) 0.048(6) 0.128(4)
C49? C 0.141(2) 0.5234(14) 0.1103(13)
H55? H 0.1775 0.5754 0.1306
H56? H 0.0464 0.2854 0.1487
C51? C 0.014(2) 0.549(5) 0.136(3)
C53? C 0.207(3) 0.536(3) 0.0247(13)
H57? H 0.2864 0.5222 0.0174
H58? H 0.1998 0.6090 0.0013
H59? H 0.1761 0.4855 0.0017
loop_
_geom_bond_atom_site_label_1
_geom_bond_atom_site_label_2
_geom_bond_site_symmetry_1
_geom_bond_site_symmetry_2
O1 H1 1_555 1_555
O2 H2 1_555 1_555
O3 H3 1_555 1_555
O4 H4 1_555 1_555
O5 H5 1_555 1_555
O6 H6 1_555 1_555
O7 H7 1_555 1_555
O8 H8 1_555 1_555
C1 O1 1_555 1_555
C2 C1 1_555 1_555
C3 O2 1_555 1_555
C4 C3 1_555 1_555
C5 C4 1_555 1_555
H9 C5 1_555 1_555
C6 C1 1_555 1_555
C7 C2 1_555 1_555
H10 C7 1_555 1_555
H11 C7 1_555 1_555
H12 C7 1_555 1_555
C8 O3 1_555 1_555
C9 C8 1_555 1_555
C10 O4 1_555 1_555
C11 C10 1_555 1_555
C12 C11 1_555 1_555
H13 C12 1_555 1_555
C13 C8 1_555 1_555
C14 C9 1_555 1_555
H14 C14 1_555 1_555
H15 C14 1_555 1_555
H16 C14 1_555 1_555
C15 O5 1_555 1_555
C16 C15 1_555 1_555
C17 O6 1_555 1_555
C18 C17 1_555 1_555
C19 C18 1_555 1_555
H17 C19 1_555 1_555
C20 C15 1_555 1_555
C21 C16 1_555 1_555
H18 C21 1_555 1_555
H19 C21 1_555 1_555
H20 C21 1_555 1_555
C22 O7 1_555 1_555
C23 C22 1_555 1_555
C24 O8 1_555 1_555
C25 C24 1_555 1_555
C26 C25 1_555 1_555
H21 C26 1_555 1_555
C27 C22 1_555 1_555
C28 C23 1_555 1_555
H22 C28 1_555 1_555
H23 C28 1_555 1_555
H24 C28 1_555 1_555
C29 C6 1_555 1_555
H25 C29 1_555 1_555
C30 C29 1_555 1_555
H26 C30 1_555 1_555
H27 C30 1_555 1_555
C31 C30 1_555 1_555
H28 C31 1_555 1_555
C32 C31 1_555 1_555
H29 C32 1_555 1_555
H30 C32 1_555 1_555
H31 C32 1_555 1_555
C33 C31 1_555 1_555
H32 C33 1_555 1_555
H33 C33 1_555 1_555
H34 C33 1_555 1_555
C34 C4 1_555 1_555
H35 C34 1_555 1_555
C35 C34 1_555 1_555
H36 C35 1_555 1_555
C36 C35 1_555 1_555
C38 C36 1_555 1_555
H37 C38 1_555 1_555
H38 C38 1_555 1_555
H39 C38 1_555 1_555
C40 C36 1_555 1_555
C42 C11 1_555 1_555
H43 C42 1_555 1_555
C43 C42 1_555 1_555
H44 C43 1_555 1_555
H45 C43 1_555 1_555
C44 C43 1_555 1_555
H46 C44 1_555 1_555
C45 C44 1_555 1_555
H47 C45 1_555 1_555
H48 C45 1_555 1_555
H49 C45 1_555 1_555
C46 C44 1_555 1_555
H50 C46 1_555 1_555
H51 C46 1_555 1_555
H52 C46 1_555 1_555
C47 C18 1_555 1_555
H53 C47 1_555 1_555
C48 C47 1_555 1_555
H54 C48 1_555 1_555
C50 C48 1_555 1_555
C52 C50 1_555 1_555
C54 C50 1_555 1_555
H60 C54 1_555 1_555
H61 C54 1_555 1_555
H62 C54 1_555 1_555
N1 C55 1_555 1_555
O9 C57 1_555 1_555
C55 H63 1_555 1_555
H64 C55 1_555 1_555
H65 C55 1_555 1_555
C56 N1 1_555 1_555
H66 C56 1_555 1_555
H67 C56 1_555 1_555
H68 C56 1_555 1_555
C57 N1 1_555 1_555
H69 C57 1_555 1_555
N2 C58 1_555 1_555
O10 C60 1_555 1_555
C58 H70 1_555 1_555
H71 C58 1_555 1_555
H72 C58 1_555 1_555
C59 N2 1_555 1_555
H73 C59 1_555 1_555
H74 C59 1_555 1_555
H75 C59 1_555 1_555
C60 N2 1_555 1_555
H76 C60 1_555 1_555
C2 C3 1_555 1_555
C5 C6 1_555 1_555
C9 C10 1_555 1_555
C12 C13 1_555 1_555
C13 C34 1_555 1_555
C16 C17 1_555 1_555
C19 C20 1_555 1_555
C20 C42 1_555 1_555
C23 C24 1_555 1_555
C25 C29 1_555 1_555
C26 C27 1_555 1_555
C27 C47 1_555 1_555

#END
