
#######################################################################
#
#                 Cambridge Crystallographic Data Centre
#                                CCDC 
#
#######################################################################
#
# If this CIF has been generated from an entry in the Cambridge 
# Structural Database, then it will include bibliographic, chemical, 
# crystal, experimental, refinement or atomic coordinate data resulting 
# from the CCDC's data processing and validation procedures.
#
#######################################################################

data_OLELIC
_chemical_formula_moiety         'C66 H45 O1 P1,2(C1 H2 Cl2)'
_chemical_name_systematic        
'tris(16-phenyltetracyclo[6.6.2.0^2,7^.0^9,14^]hexadeca-2,4,6,9,11,13,15-heptaen-15-yl)phosphine oxide dichloromethane solvate'
_symmetry_cell_setting           monoclinic
_symmetry_space_group_name_H-M   'P 21/n'
_symmetry_Int_Tables_number      14
_space_group_name_Hall           '-P 2yn'
loop_
_symmetry_equiv_pos_site_id
_symmetry_equiv_pos_as_xyz
1 x,y,z
2 1/2-x,1/2+y,1/2-z
3 -x,-y,-z
4 1/2+x,1/2-y,1/2+z
_cell_length_a                   13.1207(11)
_cell_length_b                   21.9524(17)
_cell_length_c                   18.5508(15)
_cell_angle_alpha                90
_cell_angle_beta                 94.508(9)
_cell_angle_gamma                90
_cell_volume                     5326.67
_exptl_crystal_colour            colorless
_cell_formula_units_Z            4
loop_
_atom_site_label
_atom_site_type_symbol
_atom_site_fract_x
_atom_site_fract_y
_atom_site_fract_z
Cl3 Cl 0.46482(14) 0.35396(6) 0.75133(10)
Cl4 Cl 0.38124(9) 0.43760(7) 0.63785(7)
C2 C 0.4479(3) 0.43007(13) 0.72422(19)
H3 H 0.5157 0.4497 0.7234
H4 H 0.4096 0.4518 0.7603
Cl7 Cl 0.80267(14) 0.74233(5) 0.37379(7)
Cl8 Cl 0.79823(19) 0.73351(7) 0.21369(9)
C4 C 0.7669(4) 0.77396(18) 0.2881(2)
H7 H 0.6918 0.7798 0.2842
H8 H 0.7985 0.8148 0.2860
P1 P 0.71056(3) 0.56488(2) 0.74532(2)
O1 O 0.63553(10) 0.51503(6) 0.73510(7)
C5 C 0.73177(13) 0.60572(8) 0.66318(9)
C6 C 0.74835(14) 0.67544(8) 0.66447(10)
H9 H 0.7510 0.6928 0.7144
C7 C 0.84595(14) 0.68722(8) 0.62725(10)
C8 C 0.93214(15) 0.71806(8) 0.65539(10)
H10 H 0.9337 0.7359 0.7021
C9 C 1.01681(15) 0.72271(9) 0.61448(12)
H11 H 1.0763 0.7437 0.6335
C10 C 1.01429(16) 0.69681(9) 0.54623(11)
H12 H 1.0723 0.7000 0.5188
C11 C 0.92729(15) 0.66616(9) 0.51750(10)
H13 H 0.9258 0.6484 0.4708
C12 C 0.84308(14) 0.66196(8) 0.55790(10)
C13 C 0.74195(14) 0.63054(8) 0.53664(10)
H14 H 0.7392 0.6125 0.4870
C14 C 0.65683(14) 0.67671(8) 0.54535(10)
C15 C 0.57992(16) 0.69354(9) 0.49355(12)
H15 H 0.5782 0.6777 0.4458
C16 C 0.50524(17) 0.73413(10) 0.51309(14)
H16 H 0.4520 0.7460 0.4783
C17 C 0.50755(17) 0.75731(10) 0.58242(15)
H17 H 0.4558 0.7848 0.5948
C18 C 0.58528(16) 0.74077(9) 0.63438(13)
H18 H 0.5869 0.7567 0.6821
C19 C 0.65996(14) 0.70069(8) 0.61524(11)
C20 C 0.72886(13) 0.58207(8) 0.59629(9)
C21 C 0.71480(15) 0.51863(8) 0.57053(9)
C22 C 0.62027(18) 0.49010(10) 0.56714(13)
H19 H 0.5639 0.5096 0.5867
C23 C 0.6079(2) 0.43317(11) 0.53526(14)
H20 H 0.5427 0.4141 0.5326
C24 C 0.6890(2) 0.40413(10) 0.50749(12)
H21 H 0.6798 0.3651 0.4858
C25 C 0.7836(2) 0.43169(10) 0.51124(13)
H22 H 0.8399 0.4116 0.4925
C26 C 0.79624(17) 0.48883(9) 0.54235(12)
H23 H 0.8614 0.5079 0.5444
C27 C 0.67721(13) 0.62339(8) 0.80817(9)
C28 C 0.76165(13) 0.66034(8) 0.85236(10)
H24 H 0.8317 0.6519 0.8370
C29 C 0.73256(14) 0.72719(8) 0.84554(10)
C30 C 0.79347(16) 0.77457(9) 0.82514(10)
H25 H 0.8619 0.7671 0.8142
C31 C 0.75345(18) 0.83323(9) 0.82078(11)
H26 H 0.7948 0.8662 0.8072
C32 C 0.65325(18) 0.84372(9) 0.83619(11)
H27 H 0.6259 0.8837 0.8317
C33 C 0.59242(16) 0.79647(9) 0.85812(11)
H28 H 0.5240 0.8040 0.8691
C34 C 0.63285(14) 0.73831(8) 0.86381(10)
C35 C 0.58148(14) 0.68141(8) 0.89035(10)
H29 H 0.5110 0.6895 0.9050
C36 C 0.65267(14) 0.65634(8) 0.95230(10)
C37 C 0.62933(15) 0.64521(9) 1.02231(11)
H30 H 0.5625 0.6531 1.0364
C38 C 0.70476(17) 0.62229(10) 1.07232(11)
H31 H 0.6892 0.6144 1.1206
C39 C 0.80222(17) 0.61109(10) 1.05176(11)
H32 H 0.8531 0.5955 1.0861
C40 C 0.82655(15) 0.62245(9) 0.98110(11)
H33 H 0.8936 0.6150 0.9672
C41 C 0.75130(13) 0.64471(8) 0.93156(10)
C42 C 0.58262(13) 0.63452(8) 0.82825(9)
C43 C 0.48333(13) 0.60720(8) 0.80156(10)
C44 C 0.41890(16) 0.58480(10) 0.85144(12)
H34 H 0.4401 0.5859 0.9016
C45 C 0.32373(17) 0.56073(11) 0.82855(15)
H35 H 0.2809 0.5449 0.8630
C46 C 0.29125(17) 0.55973(12) 0.75583(16)
H36 H 0.2261 0.5434 0.7403
C47 C 0.35399(18) 0.58262(11) 0.70584(14)
H37 H 0.3314 0.5825 0.6559
C48 C 0.44996(15) 0.60590(10) 0.72815(11)
H38 H 0.4930 0.6210 0.6933
C49 C 0.83619(13) 0.53999(8) 0.78079(9)
C50 C 0.93547(13) 0.56952(8) 0.75722(10)
H39 H 0.9221 0.6055 0.7248
C51 C 1.00066(13) 0.58508(8) 0.82650(10)
C52 C 1.04248(14) 0.64101(8) 0.84574(11)
H40 H 1.0318 0.6751 0.8145
C53 C 1.10087(15) 0.64697(9) 0.91180(12)
H41 H 1.1296 0.6854 0.9256
C54 C 1.11708(15) 0.59741(10) 0.95715(11)
H42 H 1.1566 0.6020 1.0020
C55 C 1.07609(14) 0.54080(9) 0.93775(10)
H43 H 1.0878 0.5066 0.9687
C56 C 1.01780(13) 0.53503(8) 0.87242(10)
C57 C 0.96824(13) 0.47725(8) 0.84057(10)
H44 H 0.9802 0.4411 0.8730
C58 C 1.01269(13) 0.46902(8) 0.76783(10)
C59 C 1.06950(15) 0.42029(9) 0.74642(12)
H45 H 1.0819 0.3862 0.7774
C60 C 1.10845(16) 0.42187(10) 0.67878(13)
H46 H 1.1476 0.3886 0.6635
C61 C 1.09061(17) 0.47146(11) 0.63375(12)
H47 H 1.1178 0.4720 0.5878
C62 C 1.03323(15) 0.52069(10) 0.65502(11)
H48 H 1.0210 0.5548 0.6240
C63 C 0.99437(13) 0.51907(8) 0.72228(10)
C64 C 0.85360(13) 0.49211(8) 0.82490(9)
C65 C 0.77888(13) 0.45317(8) 0.85881(9)
C66 C 0.78763(15) 0.39025(8) 0.85380(11)
H49 H 0.8399 0.3731 0.8275
C67 C 0.72110(17) 0.35240(9) 0.88661(13)
H50 H 0.7270 0.3095 0.8820
C68 C 0.64602(17) 0.37678(11) 0.92604(15)
H51 H 0.6010 0.3506 0.9492
C69 C 0.63621(17) 0.43899(11) 0.93189(14)
H52 H 0.5843 0.4557 0.9589
C70 C 0.70222(15) 0.47739(9) 0.89838(11)
H53 H 0.6951 0.5203 0.9024
Cl1? Cl 0.4995(14) 0.3694(7) 0.7692(10)
Cl2? Cl 0.3569(9) 0.4161(7) 0.6578(8)
C1? C 0.4833(18) 0.4207(16) 0.6968(18)
H1? H 0.5317 0.4108 0.6602
H2? H 0.4978 0.4627 0.7143
Cl5? Cl 0.7605(9) 0.7320(4) 0.3608(5)
Cl6? Cl 0.8484(12) 0.7402(6) 0.2299(7)
C3? C 0.815(3) 0.7777(10) 0.3013(12)
H5? H 0.7666 0.8104 0.2854
H6? H 0.8767 0.7971 0.3258
loop_
_geom_bond_atom_site_label_1
_geom_bond_atom_site_label_2
_geom_bond_site_symmetry_1
_geom_bond_site_symmetry_2
Cl3 C2 1_555 1_555
Cl4 C2 1_555 1_555
C2 H3 1_555 1_555
H4 C2 1_555 1_555
Cl7 C4 1_555 1_555
Cl8 C4 1_555 1_555
C4 H7 1_555 1_555
H8 C4 1_555 1_555
P1 O1 1_555 1_555
C5 P1 1_555 1_555
C6 C5 1_555 1_555
H9 C6 1_555 1_555
C7 C6 1_555 1_555
C8 C7 1_555 1_555
H10 C8 1_555 1_555
C9 C8 1_555 1_555
H11 C9 1_555 1_555
C10 C9 1_555 1_555
H12 C10 1_555 1_555
C11 C10 1_555 1_555
H13 C11 1_555 1_555
C12 C7 1_555 1_555
C13 C12 1_555 1_555
H14 C13 1_555 1_555
C14 C13 1_555 1_555
C15 C14 1_555 1_555
H15 C15 1_555 1_555
C16 C15 1_555 1_555
H16 C16 1_555 1_555
C17 C16 1_555 1_555
H17 C17 1_555 1_555
C18 C17 1_555 1_555
H18 C18 1_555 1_555
C19 C6 1_555 1_555
C20 C5 1_555 1_555
C21 C20 1_555 1_555
C22 C21 1_555 1_555
H19 C22 1_555 1_555
C23 C22 1_555 1_555
H20 C23 1_555 1_555
C24 C23 1_555 1_555
H21 C24 1_555 1_555
C25 C24 1_555 1_555
H22 C25 1_555 1_555
C26 C21 1_555 1_555
H23 C26 1_555 1_555
C27 P1 1_555 1_555
C28 C27 1_555 1_555
H24 C28 1_555 1_555
C29 C28 1_555 1_555
C30 C29 1_555 1_555
H25 C30 1_555 1_555
C31 C30 1_555 1_555
H26 C31 1_555 1_555
C32 C31 1_555 1_555
H27 C32 1_555 1_555
C33 C32 1_555 1_555
H28 C33 1_555 1_555
C34 C29 1_555 1_555
C35 C34 1_555 1_555
H29 C35 1_555 1_555
C36 C35 1_555 1_555
C37 C36 1_555 1_555
H30 C37 1_555 1_555
C38 C37 1_555 1_555
H31 C38 1_555 1_555
C39 C38 1_555 1_555
H32 C39 1_555 1_555
C40 C39 1_555 1_555
H33 C40 1_555 1_555
C41 C28 1_555 1_555
C42 C27 1_555 1_555
C43 C42 1_555 1_555
C44 C43 1_555 1_555
H34 C44 1_555 1_555
C45 C44 1_555 1_555
H35 C45 1_555 1_555
C46 C45 1_555 1_555
H36 C46 1_555 1_555
C47 C46 1_555 1_555
H37 C47 1_555 1_555
C48 C43 1_555 1_555
H38 C48 1_555 1_555
C49 P1 1_555 1_555
C50 C49 1_555 1_555
H39 C50 1_555 1_555
C51 C50 1_555 1_555
C52 C51 1_555 1_555
H40 C52 1_555 1_555
C53 C52 1_555 1_555
H41 C53 1_555 1_555
C54 C53 1_555 1_555
H42 C54 1_555 1_555
C55 C54 1_555 1_555
H43 C55 1_555 1_555
C56 C51 1_555 1_555
C57 C56 1_555 1_555
H44 C57 1_555 1_555
C58 C57 1_555 1_555
C59 C58 1_555 1_555
H45 C59 1_555 1_555
C60 C59 1_555 1_555
H46 C60 1_555 1_555
C61 C60 1_555 1_555
H47 C61 1_555 1_555
C62 C61 1_555 1_555
H48 C62 1_555 1_555
C63 C50 1_555 1_555
C64 C49 1_555 1_555
C65 C64 1_555 1_555
C66 C65 1_555 1_555
H49 C66 1_555 1_555
C67 C66 1_555 1_555
H50 C67 1_555 1_555
C68 C67 1_555 1_555
H51 C68 1_555 1_555
C69 C68 1_555 1_555
H52 C69 1_555 1_555
C70 C65 1_555 1_555
H53 C70 1_555 1_555
C11 C12 1_555 1_555
C13 C20 1_555 1_555
C14 C19 1_555 1_555
C18 C19 1_555 1_555
C25 C26 1_555 1_555
C33 C34 1_555 1_555
C35 C42 1_555 1_555
C36 C41 1_555 1_555
C40 C41 1_555 1_555
C47 C48 1_555 1_555
C55 C56 1_555 1_555
C57 C64 1_555 1_555
C58 C63 1_555 1_555
C62 C63 1_555 1_555
C69 C70 1_555 1_555

#END
