
#######################################################################
#
#                 Cambridge Crystallographic Data Centre
#                                CCDC 
#
#######################################################################
#
# If this CIF has been generated from an entry in the Cambridge 
# Structural Database, then it will include bibliographic, chemical, 
# crystal, experimental, refinement or atomic coordinate data resulting 
# from the CCDC's data processing and validation procedures.
#
#######################################################################

data_OLEQUS
_chemical_name_common            alpha,alpha-bis(N-Phenylamido)-gamma-lactam
_chemical_formula_moiety         'C19 H19 N3 O3'
_chemical_name_systematic        
1-Methyl-2-oxo-N,N'-diphenylpyrrolidine-3,3-dicarboxamide
_symmetry_cell_setting           triclinic
_symmetry_space_group_name_H-M   'P -1'
_symmetry_Int_Tables_number      2
_space_group_name_Hall           '-P 1'
loop_
_symmetry_equiv_pos_site_id
_symmetry_equiv_pos_as_xyz
1 x,y,z
2 -x,-y,-z
_cell_length_a                   8.5431(4)
_cell_length_b                   10.0760(5)
_cell_length_c                   11.7239(6)
_cell_angle_alpha                114.713(2)
_cell_angle_beta                 91.037(3)
_cell_angle_gamma                111.331(2)
_cell_volume                     836.517
_cell_formula_units_Z            2
loop_
_atom_site_label
_atom_site_type_symbol
_atom_site_fract_x
_atom_site_fract_y
_atom_site_fract_z
O1 O -0.05878(12) 0.75664(13) 0.92393(10)
O2 O 0.43711(11) 1.09815(11) 0.96135(9)
O3 O 0.16996(15) 0.69912(13) 0.61857(9)
N1 N 0.21609(14) 0.88564(13) 1.03787(10)
H1 H 0.3174 0.9497 1.0411
N2 N 0.31884(14) 0.70649(13) 0.78487(10)
H2 H 0.3469 0.7506 0.8671
N3 N 0.27972(15) 1.11751(14) 0.81372(11)
C1 C 0.16602(19) 0.76635(17) 1.34301(14)
H3 H 0.1567 0.7404 1.4107
C2 C 0.05542(19) 0.66159(17) 1.22518(14)
H4 H -0.0282 0.5646 1.2141
C3 C 0.06747(18) 0.69910(16) 1.12377(13)
H5 H -0.0085 0.6283 1.0456
C4 C 0.19406(17) 0.84358(16) 1.13950(13)
C5 C 0.09366(16) 0.83514(15) 0.93610(12)
C6 C 0.15827(16) 0.87905(15) 0.82951(12)
C7 C 0.21634(17) 0.75128(15) 0.73297(12)
C8 C 0.38358(17) 0.59069(16) 0.71206(12)
C9 C 0.28144(17) 0.45147(16) 0.60246(13)
H6 H 0.1692 0.4323 0.5744
C10 C 0.34918(18) 0.34178(16) 0.53570(13)
H7 H 0.2814 0.2485 0.4627
C11 C 0.51603(18) 0.36918(16) 0.57623(13)
H8 H 0.5607 0.2959 0.5297
C12 C 0.02055(17) 0.89427(16) 0.75661(13)
H9 H -0.0468 0.7933 0.6822
H10 H -0.0556 0.9273 0.8114
C13 C 0.12135(18) 1.02228(17) 0.71641(13)
H11 H 0.1446 0.9744 0.6314
H12 H 0.0598 1.0868 0.7177
C14 C 0.30926(16) 1.04460(16) 0.87782(12)
C15 C 0.3987(2) 1.27577(19) 0.83470(16)
H13 H 0.4832 1.3243 0.9114
H14 H 0.3368 1.3411 0.8435
H15 H 0.4543 1.2662 0.7630
C16 C 0.55052(17) 0.61728(16) 0.75487(13)
H16 H 0.6177 0.7091 0.8291
C17 C 0.61638(17) 0.50666(16) 0.68665(13)
H17 H 0.7280 0.5247 0.7150
C18 C 0.30599(17) 0.94945(16) 1.25734(13)
H18 H 0.3906 1.0459 1.2683
C19 C 0.29099(18) 0.91072(17) 1.35833(14)
H19 H 0.3654 0.9821 1.4371
loop_
_geom_bond_atom_site_label_1
_geom_bond_atom_site_label_2
_geom_bond_site_symmetry_1
_geom_bond_site_symmetry_2
O1 C5 1_555 1_555
O2 C14 1_555 1_555
O3 C7 1_555 1_555
N1 H1 1_555 1_555
N2 H2 1_555 1_555
N3 C13 1_555 1_555
C1 H3 1_555 1_555
C2 C1 1_555 1_555
H4 C2 1_555 1_555
C3 C2 1_555 1_555
H5 C3 1_555 1_555
C4 N1 1_555 1_555
C5 N1 1_555 1_555
C6 C5 1_555 1_555
C7 N2 1_555 1_555
C8 N2 1_555 1_555
C9 C8 1_555 1_555
H6 C9 1_555 1_555
C10 C9 1_555 1_555
H7 C10 1_555 1_555
C11 C10 1_555 1_555
H8 C11 1_555 1_555
C12 C6 1_555 1_555
H9 C12 1_555 1_555
H10 C12 1_555 1_555
C13 C12 1_555 1_555
H11 C13 1_555 1_555
H12 C13 1_555 1_555
C14 N3 1_555 1_555
C15 N3 1_555 1_555
H13 C15 1_555 1_555
H14 C15 1_555 1_555
H15 C15 1_555 1_555
C16 C8 1_555 1_555
H16 C16 1_555 1_555
C17 C11 1_555 1_555
H17 C17 1_555 1_555
C18 C4 1_555 1_555
H18 C18 1_555 1_555
C19 C1 1_555 1_555
H19 C19 1_555 1_555
C3 C4 1_555 1_555
C6 C7 1_555 1_555
C6 C14 1_555 1_555
C16 C17 1_555 1_555
C18 C19 1_555 1_555

#END
