
#######################################################################
#
#                 Cambridge Crystallographic Data Centre
#                                CCDC 
#
#######################################################################
#
# If this CIF has been generated from an entry in the Cambridge 
# Structural Database, then it will include bibliographic, chemical, 
# crystal, experimental, refinement or atomic coordinate data resulting 
# from the CCDC's data processing and validation procedures.
#
#######################################################################

data_OLESOP
_chemical_formula_moiety         'C32 H54 O3'
_chemical_name_systematic        '22-hydroxyhopan-2-yl acetate'
_symmetry_cell_setting           monoclinic
_symmetry_space_group_name_H-M   'P 21'
_symmetry_Int_Tables_number      4
_space_group_name_Hall           'P 2yb'
loop_
_symmetry_equiv_pos_site_id
_symmetry_equiv_pos_as_xyz
1 x,y,z
2 -x,1/2+y,-z
_cell_length_a                   7.7498(2)
_cell_length_b                   11.6599(4)
_cell_length_c                   31.7531(9)
_cell_angle_alpha                90
_cell_angle_beta                 92.388(2)
_cell_angle_gamma                90
_cell_volume                     2866.78
_exptl_crystal_colour            colorless
_exptl_crystal_description       block
_cell_formula_units_Z            4
loop_
_atom_site_label
_atom_site_type_symbol
_atom_site_fract_x
_atom_site_fract_y
_atom_site_fract_z
O1 O 0.1710(6) 0.1114(4) 0.67904(13)
O2 O 0.0643(6) 0.2906(5) 0.67649(15)
O3 O -0.1583(6) 0.0133(4) 0.29294(13)
H1 H -0.1077 -0.0406 0.3059
C1 C 0.1974(7) 0.1357(5) 0.60247(17)
H2 H 0.1042 0.1938 0.6009
H3 H 0.1437 0.0593 0.5984
C2 C 0.2886(7) 0.1405(6) 0.64577(18)
H4 H 0.3359 0.2193 0.6508
C3 C 0.4344(8) 0.0535(6) 0.64993(18)
H5 H 0.3850 -0.0247 0.6478
H6 H 0.4921 0.0612 0.6782
C4 C 0.5688(8) 0.0679(6) 0.61645(18)
C5 C 0.4730(7) 0.0706(5) 0.57220(16)
H7 H 0.4168 -0.0063 0.5691
C6 C 0.5943(7) 0.0786(5) 0.53559(18)
H8 H 0.6425 0.1570 0.5342
H9 H 0.6915 0.0243 0.5403
C7 C 0.4982(8) 0.0503(5) 0.49406(18)
H10 H 0.4593 -0.0305 0.4949
H11 H 0.5793 0.0574 0.4709
C8 C 0.3408(7) 0.1272(5) 0.48403(17)
C9 C 0.2270(7) 0.1296(5) 0.52354(17)
H12 H 0.1821 0.0497 0.5265
C10 C 0.3236(7) 0.1580(5) 0.56682(16)
C11 C 0.0655(8) 0.2057(6) 0.51449(18)
H13 H -0.0107 0.2003 0.5387
H14 H 0.1028 0.2866 0.5122
C12 C -0.0380(7) 0.1724(6) 0.47415(17)
H15 H -0.0954 0.0977 0.4785
H16 H -0.1289 0.2305 0.4682
C13 C 0.0763(7) 0.1633(5) 0.43610(17)
H17 H 0.1337 0.2399 0.4343
C14 C 0.2271(7) 0.0766(5) 0.44512(17)
C15 C 0.3374(7) 0.0617(5) 0.40579(17)
H18 H 0.4136 0.1294 0.4036
H19 H 0.4124 -0.0064 0.4102
C16 C 0.2339(7) 0.0474(5) 0.36361(17)
H20 H 0.3131 0.0467 0.3399
H21 H 0.1694 -0.0259 0.3634
C17 C 0.1087(7) 0.1479(5) 0.35889(17)
H22 H 0.1829 0.2159 0.3661
C18 C -0.0247(7) 0.1489(5) 0.39344(17)
C19 C -0.1289(8) 0.2564(5) 0.38034(18)
H23 H -0.0664 0.3271 0.3891
H24 H -0.2434 0.2561 0.3930
C20 C -0.1478(9) 0.2482(6) 0.33181(19)
H25 H -0.1546 0.3259 0.3193
H26 H -0.2543 0.2059 0.3233
C21 C 0.0130(8) 0.1841(5) 0.31650(17)
H27 H 0.0874 0.2439 0.3038
C22 C -0.0323(8) 0.0974(6) 0.28064(19)
C23 C 0.6865(10) -0.0395(7) 0.6199(2)
H28 H 0.7791 -0.0327 0.6000
H29 H 0.6179 -0.1082 0.6133
H30 H 0.7369 -0.0453 0.6487
C24 C 0.6833(8) 0.1720(7) 0.6266(2)
H31 H 0.6113 0.2409 0.6278
H32 H 0.7671 0.1813 0.6045
H33 H 0.7448 0.1605 0.6538
C25 C 0.3795(8) 0.2849(5) 0.56985(18)
H34 H 0.3900 0.3078 0.5995
H35 H 0.2929 0.3329 0.5550
H36 H 0.4913 0.2944 0.5569
C26 C 0.4102(7) 0.2467(5) 0.47337(18)
H37 H 0.5058 0.2664 0.4932
H38 H 0.3176 0.3035 0.4755
H39 H 0.4512 0.2466 0.4446
C27 C 0.1583(8) -0.0445(5) 0.45520(18)
H40 H 0.1176 -0.0820 0.4290
H41 H 0.0626 -0.0380 0.4743
H42 H 0.2513 -0.0902 0.4687
C28 C -0.1481(7) 0.0459(6) 0.39183(18)
H43 H -0.2242 0.0509 0.3665
H44 H -0.2179 0.0463 0.4169
H45 H -0.0810 -0.0253 0.3911
C29 C -0.1214(10) 0.1624(7) 0.24405(19)
H46 H -0.1415 0.1102 0.2201
H47 H -0.0477 0.2260 0.2356
H48 H -0.2321 0.1927 0.2529
C30 C 0.1244(9) 0.0362(7) 0.2646(2)
H49 H 0.1720 -0.0153 0.2866
H50 H 0.2119 0.0927 0.2575
H51 H 0.0905 -0.0086 0.2395
C31 C 0.0724(8) 0.1972(7) 0.69235(19)
C32 C -0.0245(10) 0.1593(10) 0.7303(2)
H52 H 0.0367 0.1861 0.7561
H53 H -0.0317 0.0754 0.7307
H54 H -0.1412 0.1918 0.7287
O4 O 0.4094(6) 0.3823(5) 1.17627(13)
O5 O 0.3038(9) 0.3098(7) 1.23452(18)
O6 O 0.2329(6) 0.3624(5) 0.77418(14)
H55 H 0.2196 0.4048 0.7529
C33 C 0.3338(7) 0.3279(6) 1.10609(17)
H56 H 0.4293 0.2715 1.1062
H57 H 0.3815 0.4034 1.0983
C34 C 0.2661(8) 0.3359(6) 1.15013(18)
H58 H 0.2348 0.2578 1.1604
C35 C 0.1124(8) 0.4155(6) 1.15233(19)
H59 H 0.1507 0.4949 1.1469
H60 H 0.0689 0.4130 1.1812
C36 C -0.0371(8) 0.3852(6) 1.12057(18)
C37 C 0.0387(7) 0.3749(5) 1.07654(17)
H61 H 0.0861 0.4527 1.0706
C38 C -0.0967(7) 0.3529(5) 1.04053(18)
H62 H -0.1350 0.2719 1.0414
H63 H -0.1986 0.4023 1.0444
C39 C -0.0218(7) 0.3780(5) 0.99781(18)
H64 H 0.0058 0.4608 0.9963
H65 H -0.1111 0.3614 0.9754
C40 C 0.1424(7) 0.3087(5) 0.98862(17)
C41 C 0.2716(7) 0.3142(5) 1.02806(17)
H66 H 0.3134 0.3953 1.0291
C42 C 0.1943(7) 0.2920(5) 1.07234(17)
C43 C 0.4321(7) 0.2422(6) 1.01999(18)
H67 H 0.5160 0.2508 1.0441
H68 H 0.3987 0.1604 1.0181
C44 C 0.5186(7) 0.2770(6) 0.97956(17)
H69 H 0.6116 0.2215 0.9740
H70 H 0.5725 0.3534 0.9837
C45 C 0.3929(6) 0.2816(5) 0.94119(17)
H71 H 0.3424 0.2028 0.9388
C46 C 0.2378(7) 0.3617(5) 0.94975(17)
C47 C 0.1108(7) 0.3696(5) 0.91044(18)
H72 H 0.0417 0.2982 0.9087
H73 H 0.0300 0.4339 0.9147
C48 C 0.1971(7) 0.3873(5) 0.86822(18)
H74 H 0.1098 0.3821 0.8447
H75 H 0.2514 0.4641 0.8675
C49 C 0.3333(7) 0.2948(5) 0.86381(18)
H76 H 0.2709 0.2229 0.8711
C50 C 0.4796(7) 0.3026(5) 0.89860(17)
C51 C 0.5962(8) 0.2043(6) 0.88426(18)
H77 H 0.5475 0.1288 0.8917
H78 H 0.7138 0.2112 0.8974
C52 C 0.5998(8) 0.2185(6) 0.83607(19)
H79 H 0.6237 0.1441 0.8225
H80 H 0.6903 0.2740 0.8286
C53 C 0.4178(8) 0.2637(6) 0.82161(19)
H81 H 0.3534 0.1948 0.8107
C54 C 0.4129(9) 0.3497(6) 0.78462(19)
C55 C -0.1640(10) 0.4863(6) 1.1208(2)
H82 H -0.1061 0.5560 1.1114
H83 H -0.2034 0.4978 1.1494
H84 H -0.2635 0.4698 1.1017
C56 C -0.1362(8) 0.2786(6) 1.1353(2)
H85 H -0.1952 0.2969 1.1612
H86 H -0.0548 0.2155 1.1408
H87 H -0.2216 0.2556 1.1133
C57 C 0.1492(8) 0.1645(5) 1.07948(19)
H88 H 0.2317 0.1159 1.0652
H89 H 0.0322 0.1491 1.0680
H90 H 0.1552 0.1478 1.1098
C58 C 0.0814(8) 0.1849(5) 0.97984(18)
H91 H -0.0056 0.1636 1.0000
H92 H 0.1801 0.1325 0.9829
H93 H 0.0309 0.1798 0.9511
C59 C 0.2970(8) 0.4860(5) 0.95907(19)
H94 H 0.4113 0.4849 0.9735
H95 H 0.2142 0.5234 0.9771
H96 H 0.3031 0.5284 0.9325
C60 C 0.5858(8) 0.4138(6) 0.89783(19)
H97 H 0.6550 0.4210 0.9242
H98 H 0.5076 0.4796 0.8947
H99 H 0.6625 0.4117 0.8741
C61 C 0.5013(10) 0.2961(8) 0.7471(2)
H100 H 0.4509 0.2205 0.7410
H101 H 0.6251 0.2878 0.7540
H102 H 0.4844 0.3457 0.7224
C62 C 0.4939(9) 0.4668(6) 0.7945(2)
H103 H 0.4819 0.5161 0.7696
H104 H 0.6166 0.4569 0.8024
H105 H 0.4350 0.5023 0.8179
C63 C 0.4109(10) 0.3634(7) 1.2179(2)
C64 C 0.5637(11) 0.4222(8) 1.2390(2)
H106 H 0.5737 0.3990 1.2687
H107 H 0.5482 0.5055 1.2372
H108 H 0.6690 0.4004 1.2249
loop_
_geom_bond_atom_site_label_1
_geom_bond_atom_site_label_2
_geom_bond_site_symmetry_1
_geom_bond_site_symmetry_2
O1 C2 1_555 1_555
O2 C31 1_555 1_555
O3 H1 1_555 1_555
C1 H2 1_555 1_555
H3 C1 1_555 1_555
C2 C1 1_555 1_555
H4 C2 1_555 1_555
C3 C2 1_555 1_555
H5 C3 1_555 1_555
H6 C3 1_555 1_555
C4 C3 1_555 1_555
C5 C4 1_555 1_555
H7 C5 1_555 1_555
C6 C5 1_555 1_555
H8 C6 1_555 1_555
H9 C6 1_555 1_555
C7 C6 1_555 1_555
H10 C7 1_555 1_555
H11 C7 1_555 1_555
C8 C7 1_555 1_555
C9 C8 1_555 1_555
H12 C9 1_555 1_555
C10 C1 1_555 1_555
C11 C9 1_555 1_555
H13 C11 1_555 1_555
H14 C11 1_555 1_555
C12 C11 1_555 1_555
H15 C12 1_555 1_555
H16 C12 1_555 1_555
C13 C12 1_555 1_555
H17 C13 1_555 1_555
C14 C8 1_555 1_555
C15 C14 1_555 1_555
H18 C15 1_555 1_555
H19 C15 1_555 1_555
C16 C15 1_555 1_555
H20 C16 1_555 1_555
H21 C16 1_555 1_555
C17 C16 1_555 1_555
H22 C17 1_555 1_555
C18 C13 1_555 1_555
C19 C18 1_555 1_555
H23 C19 1_555 1_555
H24 C19 1_555 1_555
C20 C19 1_555 1_555
H25 C20 1_555 1_555
H26 C20 1_555 1_555
C21 C17 1_555 1_555
H27 C21 1_555 1_555
C22 O3 1_555 1_555
C23 C4 1_555 1_555
H28 C23 1_555 1_555
H29 C23 1_555 1_555
H30 C23 1_555 1_555
C24 C4 1_555 1_555
H31 C24 1_555 1_555
H32 C24 1_555 1_555
H33 C24 1_555 1_555
C25 C10 1_555 1_555
H34 C25 1_555 1_555
H35 C25 1_555 1_555
H36 C25 1_555 1_555
C26 C8 1_555 1_555
H37 C26 1_555 1_555
H38 C26 1_555 1_555
H39 C26 1_555 1_555
C27 C14 1_555 1_555
H40 C27 1_555 1_555
H41 C27 1_555 1_555
H42 C27 1_555 1_555
C28 C18 1_555 1_555
H43 C28 1_555 1_555
H44 C28 1_555 1_555
H45 C28 1_555 1_555
C29 C22 1_555 1_555
H46 C29 1_555 1_555
H47 C29 1_555 1_555
H48 C29 1_555 1_555
C30 C22 1_555 1_555
H49 C30 1_555 1_555
H50 C30 1_555 1_555
H51 C30 1_555 1_555
C31 O1 1_555 1_555
C32 C31 1_555 1_555
H52 C32 1_555 1_555
H53 C32 1_555 1_555
H54 C32 1_555 1_555
O4 C34 1_555 1_555
O5 C63 1_555 1_555
O6 H55 1_555 1_555
C33 H56 1_555 1_555
H57 C33 1_555 1_555
C34 C33 1_555 1_555
H58 C34 1_555 1_555
C35 C34 1_555 1_555
H59 C35 1_555 1_555
H60 C35 1_555 1_555
C36 C35 1_555 1_555
C37 C36 1_555 1_555
H61 C37 1_555 1_555
C38 C37 1_555 1_555
H62 C38 1_555 1_555
H63 C38 1_555 1_555
C39 C38 1_555 1_555
H64 C39 1_555 1_555
H65 C39 1_555 1_555
C40 C39 1_555 1_555
C41 C40 1_555 1_555
H66 C41 1_555 1_555
C42 C33 1_555 1_555
C43 C41 1_555 1_555
H67 C43 1_555 1_555
H68 C43 1_555 1_555
C44 C43 1_555 1_555
H69 C44 1_555 1_555
H70 C44 1_555 1_555
C45 C44 1_555 1_555
H71 C45 1_555 1_555
C46 C40 1_555 1_555
C47 C46 1_555 1_555
H72 C47 1_555 1_555
H73 C47 1_555 1_555
C48 C47 1_555 1_555
H74 C48 1_555 1_555
H75 C48 1_555 1_555
C49 C48 1_555 1_555
H76 C49 1_555 1_555
C50 C45 1_555 1_555
C51 C50 1_555 1_555
H77 C51 1_555 1_555
H78 C51 1_555 1_555
C52 C51 1_555 1_555
H79 C52 1_555 1_555
H80 C52 1_555 1_555
C53 C49 1_555 1_555
H81 C53 1_555 1_555
C54 O6 1_555 1_555
C55 C36 1_555 1_555
H82 C55 1_555 1_555
H83 C55 1_555 1_555
H84 C55 1_555 1_555
C56 C36 1_555 1_555
H85 C56 1_555 1_555
H86 C56 1_555 1_555
H87 C56 1_555 1_555
C57 C42 1_555 1_555
H88 C57 1_555 1_555
H89 C57 1_555 1_555
H90 C57 1_555 1_555
C58 C40 1_555 1_555
H91 C58 1_555 1_555
H92 C58 1_555 1_555
H93 C58 1_555 1_555
C59 C46 1_555 1_555
H94 C59 1_555 1_555
H95 C59 1_555 1_555
H96 C59 1_555 1_555
C60 C50 1_555 1_555
H97 C60 1_555 1_555
H98 C60 1_555 1_555
H99 C60 1_555 1_555
C61 C54 1_555 1_555
H100 C61 1_555 1_555
H101 C61 1_555 1_555
H102 C61 1_555 1_555
C62 C54 1_555 1_555
H103 C62 1_555 1_555
H104 C62 1_555 1_555
H105 C62 1_555 1_555
C63 O4 1_555 1_555
C64 C63 1_555 1_555
H106 C64 1_555 1_555
H107 C64 1_555 1_555
H108 C64 1_555 1_555
C5 C10 1_555 1_555
C9 C10 1_555 1_555
C13 C14 1_555 1_555
C17 C18 1_555 1_555
C20 C21 1_555 1_555
C21 C22 1_555 1_555
C37 C42 1_555 1_555
C41 C42 1_555 1_555
C45 C46 1_555 1_555
C49 C50 1_555 1_555
C52 C53 1_555 1_555
C53 C54 1_555 1_555

#END
