
#######################################################################
#
#                 Cambridge Crystallographic Data Centre
#                                CCDC 
#
#######################################################################
#
# If this CIF has been generated from an entry in the Cambridge 
# Structural Database, then it will include bibliographic, chemical, 
# crystal, experimental, refinement or atomic coordinate data resulting 
# from the CCDC's data processing and validation procedures.
#
#######################################################################

data_OLEWOS
_chemical_formula_moiety         'C22 H19 Br2 N1 O3'
_chemical_name_systematic        
'Ethyl 2,6-bis(4-bromophenyl)-1-(isocyano)-4-oxocyclohexanecarboxylate'
_symmetry_cell_setting           monoclinic
_symmetry_space_group_name_H-M   'C 2/c'
_symmetry_Int_Tables_number      15
_space_group_name_Hall           '-C 2yn'
loop_
_symmetry_equiv_pos_site_id
_symmetry_equiv_pos_as_xyz
1 x,y,z
2 -x,y,1/2-z
3 1/2+x,1/2+y,z
4 1/2-x,1/2+y,1/2-z
5 -x,-y,-z
6 x,-y,1/2+z
7 1/2-x,1/2-y,-z
8 1/2+x,1/2-y,1/2+z
_cell_length_a                   21.992(5)
_cell_length_b                   11.075(5)
_cell_length_c                   17.648(5)
_cell_angle_alpha                90
_cell_angle_beta                 103.560(5)
_cell_angle_gamma                90
_cell_volume                     4178.55
_cell_formula_units_Z            8
loop_
_atom_site_label
_atom_site_type_symbol
_atom_site_fract_x
_atom_site_fract_y
_atom_site_fract_z
Br1 Br 0.48258(2) 0.07808(5) 0.62001(3)
Br2 Br 1.09543(3) 0.06712(6) 0.99860(4)
O1 O 0.80729(13) 0.2232(2) 0.84697(15)
C1 C 0.75739(17) 0.2509(3) 0.6820(2)
H1 H 0.7589 0.3178 0.7188
C2 C 0.69181(17) 0.1993(3) 0.6673(2)
N1 N 0.80418(15) 0.0508(3) 0.6771(2)
O2 O 0.78936(17) 0.0273(3) 0.82118(19)
C3 C 0.80965(17) 0.1605(3) 0.7217(2)
C4 C 0.77364(18) 0.3048(4) 0.6094(2)
H2 H 0.7798 0.2401 0.5749
H3 H 0.7391 0.3544 0.5818
C5 C 0.80092(17) 0.1266(4) 0.8028(2)
C6 C 0.87673(17) 0.2152(3) 0.7243(2)
H4 H 0.8893 0.1799 0.6794
C7 C 0.8317(2) 0.3799(4) 0.6308(2)
O3 O 0.84440(16) 0.4555(3) 0.58779(19)
C8 C 0.92739(17) 0.1781(4) 0.7946(2)
C9 C 0.65556(19) 0.2240(4) 0.7200(2)
H5 H 0.6732 0.2665 0.7653
C10 C 0.66494(18) 0.1330(4) 0.6019(2)
H6 H 0.6885 0.1140 0.5661
C11 C 1.0261(2) 0.1100(5) 0.9171(3)
C12 C 0.56842(18) 0.1235(4) 0.6403(2)
C13 C 0.60324(19) 0.0942(4) 0.5883(2)
H7 H 0.5859 0.0487 0.5443
C14 C 0.9465(2) 0.0596(4) 0.8050(3)
H8 H 0.9261 0.0013 0.7703
C15 C 0.7992(2) 0.2071(5) 0.9265(2)
H9 H 0.7574 0.2319 0.9291
H10 H 0.8043 0.1227 0.9412
C16 C 0.87385(19) 0.3521(4) 0.7093(2)
H11 H 0.8582 0.3924 0.7497
H12 H 0.9156 0.3824 0.7112
C17 C 0.59396(19) 0.1871(4) 0.7071(3)
H13 H 0.5702 0.2051 0.7428
C18 C 0.9580(2) 0.2599(4) 0.8488(3)
H14 H 0.9453 0.3402 0.8446
C19 C 0.9956(2) 0.0251(5) 0.8664(3)
H15 H 1.0076 -0.0556 0.8727
C20 C 0.8003(3) -0.0352(5) 0.6399(3)
C21 C 1.0071(2) 0.2263(5) 0.9093(3)
H16 H 1.0272 0.2839 0.9449
C22 C 0.8452(3) 0.2793(6) 0.9799(3)
H17 H 0.8400 0.2688 1.0320
H18 H 0.8397 0.3629 0.9655
H19 H 0.8865 0.2540 0.9775
loop_
_geom_bond_atom_site_label_1
_geom_bond_atom_site_label_2
_geom_bond_site_symmetry_1
_geom_bond_site_symmetry_2
Br1 C12 1_555 1_555
Br2 C11 1_555 1_555
O1 C5 1_555 1_555
C1 H1 1_555 1_555
C2 C1 1_555 1_555
N1 C3 1_555 1_555
O2 C5 1_555 1_555
C3 C1 1_555 1_555
C4 C1 1_555 1_555
H2 C4 1_555 1_555
H3 C4 1_555 1_555
C5 C3 1_555 1_555
C6 C3 1_555 1_555
H4 C6 1_555 1_555
C7 C4 1_555 1_555
O3 C7 1_555 1_555
C8 C6 1_555 1_555
C9 C2 1_555 1_555
H5 C9 1_555 1_555
C10 C2 1_555 1_555
H6 C10 1_555 1_555
C11 C19 1_555 1_555
C12 C13 1_555 1_555
C13 C10 1_555 1_555
H7 C13 1_555 1_555
C14 C8 1_555 1_555
H8 C14 1_555 1_555
C15 O1 1_555 1_555
H9 C15 1_555 1_555
H10 C15 1_555 1_555
C16 C6 1_555 1_555
H11 C16 1_555 1_555
H12 C16 1_555 1_555
C17 C9 1_555 1_555
H13 C17 1_555 1_555
C18 C8 1_555 1_555
H14 C18 1_555 1_555
C19 C14 1_555 1_555
H15 C19 1_555 1_555
C20 N1 1_555 1_555
C21 C11 1_555 1_555
H16 C21 1_555 1_555
C22 C15 1_555 1_555
H17 C22 1_555 1_555
H18 C22 1_555 1_555
H19 C22 1_555 1_555
C7 C16 1_555 1_555
C12 C17 1_555 1_555
C18 C21 1_555 1_555

#END
