
#######################################################################
#
#                 Cambridge Crystallographic Data Centre
#                                CCDC 
#
#######################################################################
#
# If this CIF has been generated from an entry in the Cambridge 
# Structural Database, then it will include bibliographic, chemical, 
# crystal, experimental, refinement or atomic coordinate data resulting 
# from the CCDC's data processing and validation procedures.
#
#######################################################################

data_OLEXAF
_chemical_formula_moiety         'C7 H8 B1 Br1 O3'
_chemical_name_systematic        '(5-Bromo-2-methoxyphenyl)boronic acid'
_symmetry_cell_setting           triclinic
_symmetry_space_group_name_H-M   'P -1'
_symmetry_Int_Tables_number      2
_space_group_name_Hall           '-P 1'
loop_
_symmetry_equiv_pos_site_id
_symmetry_equiv_pos_as_xyz
1 x,y,z
2 -x,-y,-z
_cell_length_a                   7.6062(15)
_cell_length_b                   8.0825(16)
_cell_length_c                   8.2497(16)
_cell_angle_alpha                68.67(3)
_cell_angle_beta                 69.49(3)
_cell_angle_gamma                85.84(3)
_cell_volume                     441.604
_cell_formula_units_Z            2
loop_
_atom_site_label
_atom_site_type_symbol
_atom_site_fract_x
_atom_site_fract_y
_atom_site_fract_z
B1 B 0.7380(11) 0.8604(12) 0.0142(12)
Br1 Br 1.39439(10) 0.63296(12) -0.33710(11)
C1 C 0.9291(9) 0.7802(10) 0.0266(9)
C2 C 1.0531(10) 0.7424(10) -0.1246(10)
H1 H 1.0188 0.7597 -0.2270
C3 C 1.2269(10) 0.6792(11) -0.1226(10)
C4 C 1.2829(10) 0.6515(11) 0.0219(11)
H2 H 1.4006 0.6094 0.0195
C5 C 1.1612(11) 0.6871(11) 0.1771(11)
H3 H 1.1983 0.6700 0.2778
C6 C 0.9860(10) 0.7475(11) 0.1791(10)
C7 C 0.9206(12) 0.7845(12) 0.4711(10)
H4 H 0.9567 0.6673 0.5279
H5 H 0.8191 0.8150 0.5622
H6 H 1.0259 0.8688 0.4223
O1 O 0.6069(7) 0.8996(8) 0.1609(7)
H7 H 0.5154 0.9404 0.1326
O2 O 0.7015(7) 0.8927(8) -0.1424(7)
H8 H 0.5981 0.9341 -0.1315
O3 O 0.8609(7) 0.7881(8) 0.3239(7)
loop_
_geom_bond_atom_site_label_1
_geom_bond_atom_site_label_2
_geom_bond_site_symmetry_1
_geom_bond_site_symmetry_2
B1 C1 1_555 1_555
Br1 C3 1_555 1_555
C1 C2 1_555 1_555
C2 H1 1_555 1_555
C3 C2 1_555 1_555
C4 C3 1_555 1_555
H2 C4 1_555 1_555
C5 C4 1_555 1_555
H3 C5 1_555 1_555
C6 C1 1_555 1_555
C7 H4 1_555 1_555
H5 C7 1_555 1_555
H6 C7 1_555 1_555
O1 B1 1_555 1_555
H7 O1 1_555 1_555
O2 B1 1_555 1_555
H8 O2 1_555 1_555
O3 C6 1_555 1_555
C5 C6 1_555 1_555
C7 O3 1_555 1_555

#END
