
#######################################################################
#
#                 Cambridge Crystallographic Data Centre
#                                CCDC 
#
#######################################################################
#
# If this CIF has been generated from an entry in the Cambridge 
# Structural Database, then it will include bibliographic, chemical, 
# crystal, experimental, refinement or atomic coordinate data resulting 
# from the CCDC's data processing and validation procedures.
#
#######################################################################

data_OLEXEJ
_chemical_formula_moiety         'C13 H18 B1 Br1 O3'
_chemical_name_systematic        
2-(2-Bromo-5-methoxyphenyl)-4,4,5,5-tetramethyl-1,3,2-dioxaborolane
_symmetry_cell_setting           monoclinic
_symmetry_space_group_name_H-M   'P 21/c'
_symmetry_Int_Tables_number      14
_space_group_name_Hall           '-P 2ybc'
loop_
_symmetry_equiv_pos_site_id
_symmetry_equiv_pos_as_xyz
1 x,y,z
2 -x,1/2+y,1/2-z
3 -x,-y,-z
4 x,1/2-y,1/2+z
_cell_length_a                   11.061(2)
_cell_length_b                   9.6443(19)
_cell_length_c                   13.449(3)
_cell_angle_alpha                90
_cell_angle_beta                 93.93(3)
_cell_angle_gamma                90
_cell_volume                     1431.31
_cell_formula_units_Z            4
loop_
_atom_site_label
_atom_site_type_symbol
_atom_site_fract_x
_atom_site_fract_y
_atom_site_fract_z
B1 B 0.7662(5) 0.0093(7) 0.2569(5)
Br1 Br 0.85141(6) 0.08989(6) 0.49561(4)
C1 C 0.7222(4) 0.1455(5) 0.3063(4)
C2 C 0.7455(5) 0.1919(6) 0.4024(4)
C3 C 0.6977(6) 0.3125(6) 0.4394(4)
H1 H 0.7161 0.3391 0.5051
C4 C 0.6228(6) 0.3920(6) 0.3772(5)
H2 H 0.5893 0.4728 0.4011
C5 C 0.5964(5) 0.3524(6) 0.2778(4)
C6 C 0.6458(5) 0.2306(5) 0.2430(4)
H3 H 0.6285 0.2045 0.1771
C7 C 0.5004(6) 0.4065(7) 0.1187(5)
H4 H 0.5762 0.4061 0.0880
H5 H 0.4476 0.4746 0.0868
H6 H 0.4635 0.3166 0.1119
C8 C 0.8481(6) -0.2028(6) 0.2317(4)
C9 C 0.8009(5) -0.1415(6) 0.1305(4)
C10 C 0.9770(8) -0.2311(15) 0.2457(7)
H7 H 1.0216 -0.1501 0.2287
H8 H 0.9972 -0.3068 0.2035
H9 H 0.9973 -0.2552 0.3140
C11 C 0.7764(13) -0.3352(10) 0.2560(7)
H10 H 0.7889 -0.3556 0.3258
H11 H 0.8042 -0.4117 0.2180
H12 H 0.6916 -0.3203 0.2392
C12 C 0.6999(10) -0.2109(9) 0.0744(9)
H13 H 0.6393 -0.2360 0.1189
H14 H 0.7290 -0.2929 0.0433
H15 H 0.6652 -0.1493 0.0241
C13 C 0.8963(10) -0.1189(12) 0.0584(7)
H16 H 0.9257 -0.2069 0.0370
H17 H 0.9621 -0.0669 0.0902
H18 H 0.8623 -0.0683 0.0017
O1 O 0.8184(5) -0.0989(4) 0.3028(3)
O2 O 0.7550(4) -0.0073(4) 0.1567(3)
O3 O 0.5209(4) 0.4397(4) 0.2217(3)
loop_
_geom_bond_atom_site_label_1
_geom_bond_atom_site_label_2
_geom_bond_site_symmetry_1
_geom_bond_site_symmetry_2
B1 C1 1_555 1_555
Br1 C2 1_555 1_555
C1 C2 1_555 1_555
C2 C3 1_555 1_555
C3 H1 1_555 1_555
C4 C3 1_555 1_555
H2 C4 1_555 1_555
C5 C4 1_555 1_555
C6 C1 1_555 1_555
H3 C6 1_555 1_555
C7 H4 1_555 1_555
H5 C7 1_555 1_555
H6 C7 1_555 1_555
C8 C9 1_555 1_555
C9 C12 1_555 1_555
C10 C8 1_555 1_555
H7 C10 1_555 1_555
H8 C10 1_555 1_555
H9 C10 1_555 1_555
C11 C8 1_555 1_555
H10 C11 1_555 1_555
H11 C11 1_555 1_555
H12 C11 1_555 1_555
C12 H13 1_555 1_555
H14 C12 1_555 1_555
H15 C12 1_555 1_555
C13 C9 1_555 1_555
H16 C13 1_555 1_555
H17 C13 1_555 1_555
H18 C13 1_555 1_555
O1 B1 1_555 1_555
O2 B1 1_555 1_555
O3 C5 1_555 1_555
C5 C6 1_555 1_555
C7 O3 1_555 1_555
C8 O1 1_555 1_555
C9 O2 1_555 1_555

#END
