
#######################################################################
#
#                 Cambridge Crystallographic Data Centre
#                                CCDC 
#
#######################################################################
#
# If this CIF has been generated from an entry in the Cambridge 
# Structural Database, then it will include bibliographic, chemical, 
# crystal, experimental, refinement or atomic coordinate data resulting 
# from the CCDC's data processing and validation procedures.
#
#######################################################################

data_OLEYEK01
_chemical_name_common            Imino-phenyl-fluorenone
_chemical_formula_moiety         'C19 H13 N1'
_chemical_name_systematic        N-(9H-Fluoren-9-ylidene)aniline
_symmetry_cell_setting           monoclinic
_symmetry_space_group_name_H-M   'P 21/n'
_symmetry_Int_Tables_number      14
_space_group_name_Hall           '-P 2yn'
loop_
_symmetry_equiv_pos_site_id
_symmetry_equiv_pos_as_xyz
1 x,y,z
2 1/2-x,1/2+y,1/2-z
3 -x,-y,-z
4 1/2+x,1/2-y,1/2+z
_cell_length_a                   13.5000(16)
_cell_length_b                   5.3098(6)
_cell_length_c                   18.785(2)
_cell_angle_alpha                90
_cell_angle_beta                 103.793(2)
_cell_angle_gamma                90
_cell_volume                     1307.72
_exptl_crystal_colour            yellow
_exptl_crystal_description       prism
_cell_formula_units_Z            4
loop_
_atom_site_label
_atom_site_type_symbol
_atom_site_fract_x
_atom_site_fract_y
_atom_site_fract_z
C1 C 0.45263(11) 0.2394(3) 0.13404(8)
C2 C 0.53032(11) 0.0424(3) 0.16240(8)
C3 C 0.57707(11) -0.1271(3) 0.12474(8)
C4 C 0.64270(12) -0.3059(3) 0.16530(9)
C5 C 0.65972(12) -0.3153(3) 0.24154(9)
C6 C 0.61227(11) -0.1459(3) 0.27905(9)
C7 C 0.54763(11) 0.0329(3) 0.23903(8)
C8 C 0.48512(11) 0.2281(3) 0.26268(8)
C9 C 0.47887(12) 0.2957(3) 0.33286(9)
C10 C 0.41553(13) 0.4948(3) 0.34066(9)
C11 C 0.36101(12) 0.6265(3) 0.28010(9)
C12 C 0.36705(11) 0.5589(3) 0.20945(9)
C13 C 0.42801(11) 0.3557(3) 0.20070(8)
C14 C 0.33249(11) 0.4363(3) 0.04033(8)
C15 C 0.23819(12) 0.3682(3) 0.05249(9)
C16 C 0.15297(12) 0.5158(3) 0.02528(9)
C17 C 0.16038(13) 0.7319(3) -0.01464(9)
C18 C 0.25423(13) 0.7979(3) -0.02780(9)
C19 C 0.33972(12) 0.6498(3) -0.00144(8)
H1 H 0.5634(12) -0.121(3) 0.0697(9)
H2 H 0.6765(12) -0.434(3) 0.1392(9)
H3 H 0.7049(13) -0.445(3) 0.2700(9)
H4 H 0.6244(12) -0.154(3) 0.3340(10)
H5 H 0.5194(14) 0.202(4) 0.3760(10)
H6 H 0.4106(14) 0.544(4) 0.3908(11)
H7 H 0.3171(13) 0.772(4) 0.2863(10)
H8 H 0.3271(13) 0.652(4) 0.1672(10)
H9 H 0.2328(13) 0.213(4) 0.0816(10)
H10 H 0.0872(14) 0.471(4) 0.0338(10)
H11 H 0.0931(12) 0.850(3) -0.0347(9)
H12 H 0.2615(14) 0.950(4) -0.0568(11)
H13 H 0.4070(13) 0.693(3) -0.0105(9)
N1 N 0.41813(9) 0.2780(3) 0.06526(7)
loop_
_geom_bond_atom_site_label_1
_geom_bond_atom_site_label_2
_geom_bond_site_symmetry_1
_geom_bond_site_symmetry_2
C1 C2 1_555 1_555
C2 C3 1_555 1_555
C3 C4 1_555 1_555
C4 C5 1_555 1_555
C5 C6 1_555 1_555
C6 C7 1_555 1_555
C7 C2 1_555 1_555
C8 C7 1_555 1_555
C9 C8 1_555 1_555
C10 C9 1_555 1_555
C11 C10 1_555 1_555
C12 C11 1_555 1_555
C13 C1 1_555 1_555
C14 C15 1_555 1_555
C15 C16 1_555 1_555
C16 C17 1_555 1_555
C17 C18 1_555 1_555
C18 C19 1_555 1_555
C19 C14 1_555 1_555
H1 C3 1_555 1_555
H2 C4 1_555 1_555
H3 C5 1_555 1_555
H4 C6 1_555 1_555
H5 C9 1_555 1_555
H6 C10 1_555 1_555
H7 C11 1_555 1_555
H8 C12 1_555 1_555
H9 C15 1_555 1_555
H10 C16 1_555 1_555
H11 C17 1_555 1_555
H12 C18 1_555 1_555
H13 C19 1_555 1_555
N1 C1 1_555 1_555
C8 C13 1_555 1_555
C12 C13 1_555 1_555
C14 N1 1_555 1_555

#END
