
#######################################################################
#
#                 Cambridge Crystallographic Data Centre
#                                CCDC 
#
#######################################################################
#
# If this CIF has been generated from an entry in the Cambridge 
# Structural Database, then it will include bibliographic, chemical, 
# crystal, experimental, refinement or atomic coordinate data resulting 
# from the CCDC's data processing and validation procedures.
#
#######################################################################

data_OLEYOU
_chemical_compound_source        'Briareum violacea'
_chemical_name_common            'Briaviodiol A monohydrate'
_chemical_formula_moiety         'C21 H32 O6,H2 O1'
_chemical_name_systematic        
'2,3-Dihydroxy-8-methoxy-1,5,10,14-tetramethyl-7,18-dioxatricyclo[13.2.1.0^4,8^]octadeca-4,10-dien-6-one monohydrate'
_chemical_properties_biological  'no anticancer activity'
_symmetry_cell_setting           orthorhombic
_symmetry_space_group_name_H-M   'P 21 21 21'
_symmetry_Int_Tables_number      19
_space_group_name_Hall           'P 2ac 2ab'
loop_
_symmetry_equiv_pos_site_id
_symmetry_equiv_pos_as_xyz
1 x,y,z
2 1/2-x,-y,1/2+z
3 1/2+x,1/2-y,-z
4 -x,1/2+y,1/2-z
_cell_length_a                   7.3813(19)
_cell_length_b                   9.700(3)
_cell_length_c                   31.818(11)
_cell_angle_alpha                90
_cell_angle_beta                 90
_cell_angle_gamma                90
_cell_volume                     2278.12
_exptl_crystal_colour            colorless
_exptl_crystal_description       plate
_cell_formula_units_Z            4
loop_
_atom_site_label
_atom_site_type_symbol
_atom_site_fract_x
_atom_site_fract_y
_atom_site_fract_z
O1 O 0.0797(4) 0.1652(3) 0.38409(9)
O2 O 0.1890(4) 0.2735(3) 0.44417(9)
O3 O 0.1827(5) -0.2596(3) 0.34997(9)
O4 O -0.0516(4) -0.2184(3) 0.45068(9)
H1 H 0.0076 -0.1981 0.4716
O5 O 0.3166(4) -0.1997(3) 0.45311(10)
H2 H 0.3408 -0.1583 0.4749
O6 O 0.1417(5) 0.3001(4) 0.51304(11)
C1 C 0.1991(6) 0.0330(4) 0.44357(12)
C2 C 0.2149(6) 0.1577(4) 0.41496(13)
C3 C 0.3991(6) 0.1798(5) 0.39370(13)
H3 H 0.4366 0.2742 0.3987
H4 H 0.4868 0.1202 0.4073
C4 C 0.4070(7) 0.1532(5) 0.34698(13)
C5 C 0.4787(7) 0.0399(6) 0.33130(16)
H5 H 0.5331 -0.0190 0.3506
C6 C 0.4839(8) -0.0061(6) 0.28669(15)
H6 H 0.6087 -0.0194 0.2780
H7 H 0.4305 0.0641 0.2689
C7 C 0.3792(9) -0.1412(6) 0.28182(16)
H8 H 0.4022 -0.1785 0.2541
H9 H 0.4242 -0.2071 0.3022
C8 C 0.1751(7) -0.1249(6) 0.28773(15)
H10 H 0.1546 -0.0425 0.3049
C9 C 0.0904(8) -0.2463(5) 0.31032(14)
H11 H 0.1094 -0.3301 0.2937
C10 C -0.1068(7) -0.2344(6) 0.32163(15)
H12 H -0.1833 -0.2687 0.2992
H13 H -0.1394 -0.1396 0.3277
C11 C -0.1227(7) -0.3245(5) 0.36087(15)
H14 H -0.2230 -0.2952 0.3784
H15 H -0.1388 -0.4207 0.3535
C12 C 0.0587(7) -0.3012(5) 0.38290(14)
C13 C 0.0455(6) -0.1775(4) 0.41369(13)
H16 H -0.0279 -0.1068 0.3997
C14 C 0.2256(7) -0.1100(4) 0.42515(13)
H17 H 0.2984 -0.1015 0.3995
C15 C 0.1698(7) 0.0723(4) 0.48267(13)
C16 C 0.1440(8) -0.0049(5) 0.52335(13)
H18 H 0.1983 0.0461 0.5459
H19 H 0.2002 -0.0939 0.5213
H20 H 0.0168 -0.0161 0.5287
C17 C 0.1638(6) 0.2242(5) 0.48332(16)
C18 C 0.3299(9) 0.2690(6) 0.32009(15)
H21 H 0.2037 0.2809 0.3264
H22 H 0.3437 0.2461 0.2909
H23 H 0.3937 0.3531 0.3260
C19 C 0.0814(11) -0.1023(8) 0.24522(18)
H24 H 0.1518 -0.0395 0.2286
H25 H -0.0372 -0.0644 0.2497
H26 H 0.0710 -0.1888 0.2308
C20 C 0.1324(10) -0.4318(5) 0.40333(16)
H27 H 0.1313 -0.5057 0.3833
H28 H 0.0580 -0.4560 0.4270
H29 H 0.2543 -0.4159 0.4127
C21 C -0.1019(7) 0.1795(6) 0.39874(17)
H30 H -0.1227 0.1161 0.4214
H31 H -0.1845 0.1599 0.3762
H32 H -0.1209 0.2720 0.4085
O7 O 0.6287(6) -0.0939(4) 0.48127(14)
H33 H 0.638(10) -0.007(6) 0.4857(18)
H34 H 0.722(9) -0.102(7) 0.4610(17)
loop_
_geom_bond_atom_site_label_1
_geom_bond_atom_site_label_2
_geom_bond_site_symmetry_1
_geom_bond_site_symmetry_2
O1 C2 1_555 1_555
O2 C2 1_555 1_555
O3 C9 1_555 1_555
O4 H1 1_555 1_555
O5 H2 1_555 1_555
O6 C17 1_555 1_555
C1 C2 1_555 1_555
C2 C3 1_555 1_555
C3 H3 1_555 1_555
H4 C3 1_555 1_555
C4 C3 1_555 1_555
C5 C4 1_555 1_555
H5 C5 1_555 1_555
C6 C5 1_555 1_555
H6 C6 1_555 1_555
H7 C6 1_555 1_555
C7 C6 1_555 1_555
H8 C7 1_555 1_555
H9 C7 1_555 1_555
C8 C7 1_555 1_555
H10 C8 1_555 1_555
C9 C8 1_555 1_555
H11 C9 1_555 1_555
C10 C9 1_555 1_555
H12 C10 1_555 1_555
H13 C10 1_555 1_555
C11 C10 1_555 1_555
H14 C11 1_555 1_555
H15 C11 1_555 1_555
C12 O3 1_555 1_555
C13 O4 1_555 1_555
H16 C13 1_555 1_555
C14 O5 1_555 1_555
H17 C14 1_555 1_555
C15 C1 1_555 1_555
C16 C15 1_555 1_555
H18 C16 1_555 1_555
H19 C16 1_555 1_555
H20 C16 1_555 1_555
C17 O2 1_555 1_555
C18 C4 1_555 1_555
H21 C18 1_555 1_555
H22 C18 1_555 1_555
H23 C18 1_555 1_555
C19 C8 1_555 1_555
H24 C19 1_555 1_555
H25 C19 1_555 1_555
H26 C19 1_555 1_555
C20 C12 1_555 1_555
H27 C20 1_555 1_555
H28 C20 1_555 1_555
H29 C20 1_555 1_555
C21 O1 1_555 1_555
H30 C21 1_555 1_555
H31 C21 1_555 1_555
H32 C21 1_555 1_555
O7 H33 1_555 1_555
H34 O7 1_555 1_555
C1 C14 1_555 1_555
C11 C12 1_555 1_555
C12 C13 1_555 1_555
C13 C14 1_555 1_555
C15 C17 1_555 1_555

#END
