
#######################################################################
#
#                 Cambridge Crystallographic Data Centre
#                                CCDC 
#
#######################################################################
#
# If this CIF has been generated from an entry in the Cambridge 
# Structural Database, then it will include bibliographic, chemical, 
# crystal, experimental, refinement or atomic coordinate data resulting 
# from the CCDC's data processing and validation procedures.
#
#######################################################################

data_OLIBUH
_chemical_formula_moiety         'C45 H46 N2 O8'
_chemical_name_systematic        
'Ethyl 3-(benzylamino)-2-(4,5-bis(benzyloxy)-6-((benzyloxy)methyl)-3-nitrotetrahydro-2H-pyran-2-yl)-3-phenylacrylate'
_symmetry_cell_setting           monoclinic
_symmetry_space_group_name_H-M   'P 21'
_symmetry_Int_Tables_number      4
_space_group_name_Hall           'P 2yb'
loop_
_symmetry_equiv_pos_site_id
_symmetry_equiv_pos_as_xyz
1 x,y,z
2 -x,1/2+y,-z
_cell_length_a                   11.817(4)
_cell_length_b                   10.179(3)
_cell_length_c                   16.642(5)
_cell_angle_alpha                90
_cell_angle_beta                 94.296(5)
_cell_angle_gamma                90
_cell_volume                     1996.16
_exptl_crystal_colour            yellow
_exptl_crystal_description       block
_cell_formula_units_Z            2
loop_
_atom_site_label
_atom_site_type_symbol
_atom_site_fract_x
_atom_site_fract_y
_atom_site_fract_z
O1 O -0.0681(3) -0.0148(3) 0.18725(18)
O2 O 0.1591(3) 0.0337(4) 0.26171(18)
O3 O 0.2228(3) 0.3391(4) 0.2057(2)
O4 O 0.0094(2) 0.3366(3) 0.29479(17)
O5 O -0.3241(4) 0.1452(5) 0.2300(3)
O6 O -0.2400(4) 0.0501(5) 0.3336(3)
O7 O -0.2858(3) 0.5636(4) 0.2963(2)
O8 O -0.2159(3) 0.4324(3) 0.20606(19)
N1 N -0.2548(3) 0.4969(4) 0.4481(2)
H1 H -0.2827 0.5525 0.4131
N2 N -0.2395(4) 0.1172(5) 0.2735(3)
C1 C -0.061(2) -0.1497(9) 0.2111(7)
H2 H -0.1265 -0.1739 0.2396
H3 H 0.0068 -0.1644 0.2465
C2 C -0.0568(5) -0.2301(5) 0.1360(3)
C3 C 0.0080(6) -0.3410(7) 0.1466(4)
H4 H 0.0373 -0.3644 0.1981
C4 C 0.0303(6) -0.4184(8) 0.0816(5)
H5 H 0.0750 -0.4932 0.0895
C5 C -0.0125(8) -0.3861(8) 0.0067(5)
H6 H 0.0007 -0.4395 -0.0370
C6 C -0.0749(7) -0.2749(7) -0.0040(4)
H7 H -0.1024 -0.2501 -0.0556
C7 C -0.0974(5) -0.1997(5) 0.0599(3)
H8 H -0.1420 -0.1250 0.0515
C8 C 0.2169(5) -0.0145(6) 0.1966(3)
H9 H 0.2475 0.0577 0.1670
H10 H 0.1654 -0.0643 0.1601
C9 C 0.3103(4) -0.1004(5) 0.2309(3)
C10 C 0.2880(5) -0.1997(6) 0.2836(4)
H11 H 0.2141 -0.2122 0.2978
C11 C 0.3719(6) -0.2799(7) 0.3152(4)
H12 H 0.3542 -0.3481 0.3492
C12 C 0.4795(6) -0.2619(9) 0.2979(4)
H13 H 0.5367 -0.3162 0.3206
C13 C 0.5045(6) -0.1645(10) 0.2474(5)
H14 H 0.5790 -0.1527 0.2344
C14 C 0.4203(6) -0.0818(8) 0.2145(4)
H15 H 0.4390 -0.0132 0.1811
C15 C 0.2097(4) 0.3132(6) 0.2869(3)
H16 H 0.2122 0.3954 0.3165
H17 H 0.2726 0.2594 0.3084
C16 C 0.3413(9) 0.366(2) 0.1968(6)
H18 H 0.3862 0.2877 0.2077
H19 H 0.3683 0.4339 0.2347
C17 C 0.3529(4) 0.4115(6) 0.1129(2)
C18 C 0.3900(4) 0.3128(5) 0.0635(4)
H20 H 0.4029 0.2286 0.0839
C19 C 0.4078(4) 0.3398(7) -0.0165(3)
H21 H 0.4326 0.2737 -0.0496
C20 C 0.3884(5) 0.4655(8) -0.0471(2)
H22 H 0.4003 0.4836 -0.1006
C21 C 0.3514(5) 0.5643(6) 0.0023(4)
H23 H 0.3384 0.6484 -0.0181
C22 C 0.3336(4) 0.5373(5) 0.0823(4)
H24 H 0.3088 0.6033 0.1154
C23 C 0.1003(4) 0.2440(5) 0.2999(3)
H25 H 0.1064 0.2080 0.3547
C24 C 0.0751(4) 0.1318(5) 0.2424(3)
H26 H 0.0800 0.1618 0.1868
C25 C -0.0398(4) 0.0722(4) 0.2518(3)
H27 H -0.0369 0.0227 0.3024
C26 C -0.1297(4) 0.1786(4) 0.2542(3)
H28 H -0.1393 0.2227 0.2018
C27 C -0.0920(4) 0.2784(4) 0.3198(3)
H29 H -0.0710 0.2285 0.3690
C28 C -0.1741(3) 0.3824(4) 0.3415(3)
C29 C -0.2308(4) 0.4664(5) 0.2817(3)
C30 C -0.2785(5) 0.5042(6) 0.1428(3)
H30 H -0.2461 0.5911 0.1379
H31 H -0.3568 0.5141 0.1555
C31 C -0.2738(7) 0.4328(9) 0.0669(4)
H32 H -0.1962 0.4240 0.0543
H33 H -0.3155 0.4804 0.0245
H34 H -0.3066 0.3472 0.0719
C32 C -0.1893(3) 0.4013(4) 0.4219(3)
C33 C -0.1341(4) 0.3149(4) 0.4855(3)
C34 C -0.1862(5) 0.2031(5) 0.5083(3)
H35 H -0.2578 0.1816 0.4849
C35 C -0.1344(6) 0.1219(6) 0.5655(3)
H36 H -0.1699 0.0444 0.5793
C36 C -0.0317(6) 0.1535(7) 0.6021(3)
H37 H 0.0028 0.0990 0.6416
C37 C 0.0206(5) 0.2668(6) 0.5804(3)
H38 H 0.0911 0.2890 0.6054
C38 C -0.0294(4) 0.3478(6) 0.5224(3)
H39 H 0.0068 0.4244 0.5080
C39 C -0.2829(5) 0.5144(5) 0.5316(3)
H40 H -0.2135 0.5189 0.5665
H41 H -0.3263 0.4394 0.5480
C40 C -0.3500(4) 0.6368(5) 0.5404(3)
C41 C -0.3257(4) 0.7545(6) 0.5042(3)
H42 H -0.2666 0.7574 0.4704
C42 C -0.3852(5) 0.8661(6) 0.5164(4)
H43 H -0.3675 0.9434 0.4903
C43 C -0.4690(6) 0.8647(7) 0.5659(4)
H44 H -0.5078 0.9419 0.5757
C44 C -0.4980(5) 0.7511(8) 0.6020(4)
H45 H -0.5581 0.7506 0.6349
C45 C -0.4385(5) 0.6358(6) 0.5901(3)
H46 H -0.4582 0.5585 0.6154
C46? C -0.109(3) -0.1437(14) 0.1974(15)
C47? C 0.313(3) 0.434(4) 0.1943(14)
H47? H -0.1914 -0.1452 0.1887
H48? H -0.0882 -0.1748 0.2515
H49? H 0.3754 0.4216 0.2351
H50? H 0.2849 0.5229 0.1985
loop_
_geom_bond_atom_site_label_1
_geom_bond_atom_site_label_2
_geom_bond_site_symmetry_1
_geom_bond_site_symmetry_2
O1 C1 1_555 1_555
O2 C8 1_555 1_555
O3 C15 1_555 1_555
O4 C23 1_555 1_555
O5 N2 1_555 1_555
O6 N2 1_555 1_555
O7 C29 1_555 1_555
O8 C29 1_555 1_555
N1 H1 1_555 1_555
N2 C26 1_555 1_555
C1 H2 1_555 1_555
H3 C1 1_555 1_555
C2 C1 1_555 1_555
C3 C2 1_555 1_555
H4 C3 1_555 1_555
C4 C3 1_555 1_555
H5 C4 1_555 1_555
C5 C4 1_555 1_555
H6 C5 1_555 1_555
C6 C5 1_555 1_555
H7 C6 1_555 1_555
C7 C2 1_555 1_555
H8 C7 1_555 1_555
C8 H9 1_555 1_555
H10 C8 1_555 1_555
C9 C8 1_555 1_555
C10 C9 1_555 1_555
H11 C10 1_555 1_555
C11 C10 1_555 1_555
H12 C11 1_555 1_555
C12 C11 1_555 1_555
H13 C12 1_555 1_555
C13 C12 1_555 1_555
H14 C13 1_555 1_555
C14 C9 1_555 1_555
H15 C14 1_555 1_555
C15 H16 1_555 1_555
H17 C15 1_555 1_555
C16 O3 1_555 1_555
H18 C16 1_555 1_555
H19 C16 1_555 1_555
C17 C16 1_555 1_555
C18 C17 1_555 1_555
H20 C18 1_555 1_555
C19 C18 1_555 1_555
H21 C19 1_555 1_555
C20 C19 1_555 1_555
H22 C20 1_555 1_555
C21 C20 1_555 1_555
H23 C21 1_555 1_555
C22 C17 1_555 1_555
H24 C22 1_555 1_555
C23 C15 1_555 1_555
H25 C23 1_555 1_555
C24 O2 1_555 1_555
H26 C24 1_555 1_555
C25 O1 1_555 1_555
H27 C25 1_555 1_555
C26 C25 1_555 1_555
H28 C26 1_555 1_555
C27 O4 1_555 1_555
H29 C27 1_555 1_555
C28 C27 1_555 1_555
C29 C28 1_555 1_555
C30 O8 1_555 1_555
H30 C30 1_555 1_555
H31 C30 1_555 1_555
C31 C30 1_555 1_555
H32 C31 1_555 1_555
H33 C31 1_555 1_555
H34 C31 1_555 1_555
C32 N1 1_555 1_555
C33 C32 1_555 1_555
C34 C33 1_555 1_555
H35 C34 1_555 1_555
C35 C34 1_555 1_555
H36 C35 1_555 1_555
C36 C35 1_555 1_555
H37 C36 1_555 1_555
C37 C36 1_555 1_555
H38 C37 1_555 1_555
C38 C33 1_555 1_555
H39 C38 1_555 1_555
C39 N1 1_555 1_555
H40 C39 1_555 1_555
H41 C39 1_555 1_555
C40 C39 1_555 1_555
C41 C40 1_555 1_555
H42 C41 1_555 1_555
C42 C41 1_555 1_555
H43 C42 1_555 1_555
C43 C42 1_555 1_555
H44 C43 1_555 1_555
C44 C43 1_555 1_555
H45 C44 1_555 1_555
C45 C40 1_555 1_555
H46 C45 1_555 1_555
C6 C7 1_555 1_555
C13 C14 1_555 1_555
C21 C22 1_555 1_555
C23 C24 1_555 1_555
C24 C25 1_555 1_555
C26 C27 1_555 1_555
C28 C32 1_555 1_555
C37 C38 1_555 1_555
C44 C45 1_555 1_555

#END
