
#######################################################################
#
#                 Cambridge Crystallographic Data Centre
#                                CCDC 
#
#######################################################################
#
# If this CIF has been generated from an entry in the Cambridge 
# Structural Database, then it will include bibliographic, chemical, 
# crystal, experimental, refinement or atomic coordinate data resulting 
# from the CCDC's data processing and validation procedures.
#
#######################################################################

data_OLIRAE
_chemical_formula_moiety         'C15 H9 F1 O1 S1'
_chemical_name_systematic        2-(4-Fluorophenyl)-4H-thiochromen-4-one
_symmetry_cell_setting           monoclinic
_symmetry_space_group_name_H-M   'P 21/c'
_symmetry_Int_Tables_number      14
_space_group_name_Hall           '-P 2ybc'
loop_
_symmetry_equiv_pos_site_id
_symmetry_equiv_pos_as_xyz
1 x,y,z
2 -x,1/2+y,1/2-z
3 -x,-y,-z
4 x,1/2-y,1/2+z
_cell_length_a                   9.3310(2)
_cell_length_b                   10.8863(2)
_cell_length_c                   11.6780(2)
_cell_angle_alpha                90
_cell_angle_beta                 105.7065(7)
_cell_angle_gamma                90
_cell_volume                     1141.96
_exptl_crystal_colour            colorless
_exptl_crystal_description       prism
_cell_formula_units_Z            4
loop_
_atom_site_label
_atom_site_type_symbol
_atom_site_fract_x
_atom_site_fract_y
_atom_site_fract_z
C1 C 0.81669(12) 0.94207(10) -0.13107(9)
C2 C 0.83320(14) 0.86395(11) -0.22232(10)
H1 H 0.8111 0.7789 -0.2202
C3 C 0.88157(14) 0.91078(12) -0.31511(10)
H2 H 0.8916 0.8580 -0.3773
C4 C 0.91589(14) 1.03559(11) -0.31805(10)
H3 H 0.9476 1.0679 -0.3827
C5 C 0.90345(13) 1.11130(11) -0.22700(10)
H4 H 0.9290 1.1956 -0.2286
C6 C 0.85379(12) 1.06644(10) -0.13157(9)
C7 C 0.83920(13) 1.15350(10) -0.03806(10)
C8 C 0.77677(13) 1.11028(10) 0.05559(10)
H5 H 0.7655 1.1693 0.1124
C9 C 0.73293(12) 0.99423(10) 0.07011(9)
C10 C 0.66720(12) 0.95876(10) 0.16758(9)
C11 C 0.70927(13) 1.02080(11) 0.27690(10)
H6 H 0.7807 1.0850 0.2883
C12 C 0.64772(14) 0.98943(12) 0.36841(10)
H7 H 0.6756 1.0316 0.4423
C13 C 0.54515(14) 0.89560(12) 0.34950(11)
C14 C 0.50172(14) 0.83140(12) 0.24449(12)
H8 H 0.4314 0.7665 0.2348
C15 C 0.56319(13) 0.86384(11) 0.15291(11)
H9 H 0.5341 0.8209 0.0794
F1 F 0.48490(10) 0.86380(8) 0.43876(8)
O1 O 0.87565(11) 1.26216(8) -0.04196(8)
S1 S 0.74740(3) 0.87350(2) -0.02246(2)
loop_
_geom_bond_atom_site_label_1
_geom_bond_atom_site_label_2
_geom_bond_site_symmetry_1
_geom_bond_site_symmetry_2
C1 C2 1_555 1_555
C2 H1 1_555 1_555
C3 C2 1_555 1_555
H2 C3 1_555 1_555
C4 C3 1_555 1_555
H3 C4 1_555 1_555
C5 C4 1_555 1_555
H4 C5 1_555 1_555
C6 C1 1_555 1_555
C7 C6 1_555 1_555
C8 C7 1_555 1_555
H5 C8 1_555 1_555
C9 C8 1_555 1_555
C10 C9 1_555 1_555
C11 C10 1_555 1_555
H6 C11 1_555 1_555
C12 C11 1_555 1_555
H7 C12 1_555 1_555
C13 C12 1_555 1_555
C14 C13 1_555 1_555
H8 C14 1_555 1_555
C15 C10 1_555 1_555
H9 C15 1_555 1_555
F1 C13 1_555 1_555
O1 C7 1_555 1_555
S1 C1 1_555 1_555
C5 C6 1_555 1_555
C9 S1 1_555 1_555
C14 C15 1_555 1_555

#END
