
#######################################################################
#
#                 Cambridge Crystallographic Data Centre
#                                CCDC 
#
#######################################################################
#
# If this CIF has been generated from an entry in the Cambridge 
# Structural Database, then it will include bibliographic, chemical, 
# crystal, experimental, refinement or atomic coordinate data resulting 
# from the CCDC's data processing and validation procedures.
#
#######################################################################

data_OLITUY
_chemical_formula_moiety         '4(C23 H31 B1 N4 O2),C4 H10 O1'
_chemical_name_systematic        
'N-(2-Pyridylmethylene)-2-(2-(2-(4,4,5,5-tetramethyl-1,3,2-dioxaborolan-2-yl)phenyl-B)imidazolidinyl)ethylamine diethyl ether solvate'
_symmetry_cell_setting           monoclinic
_symmetry_space_group_name_H-M   'P 21/n'
_symmetry_Int_Tables_number      14
_space_group_name_Hall           '-P 2yn'
loop_
_symmetry_equiv_pos_site_id
_symmetry_equiv_pos_as_xyz
1 x,y,z
2 1/2-x,1/2+y,1/2-z
3 -x,-y,-z
4 1/2+x,1/2-y,1/2+z
_cell_length_a                   19.5646(9)
_cell_length_b                   16.3302(8)
_cell_length_c                   31.1144(16)
_cell_angle_alpha                90
_cell_angle_beta                 107.5480(10)
_cell_angle_gamma                90
_cell_volume                     9478.26
_exptl_crystal_colour            colorless
_exptl_crystal_description       parallelepiped
_cell_formula_units_Z            4
loop_
_atom_site_label
_atom_site_type_symbol
_atom_site_fract_x
_atom_site_fract_y
_atom_site_fract_z
B1 B 0.64765(12) 0.75025(15) 0.11165(8)
O1 O 0.70236(8) 0.81091(9) 0.11040(5)
C1 C 0.73293(13) 0.78524(17) 0.07583(8)
C2 C 0.72706(12) 0.69099(16) 0.07767(8)
O2 O 0.65830(7) 0.68161(9) 0.08519(5)
C3 C 0.68754(18) 0.8197(2) 0.03062(9)
C4 C 0.80838(18) 0.8197(3) 0.08685(13)
C5 C 0.78456(15) 0.6521(3) 0.11687(11)
C6 C 0.72577(17) 0.6466(2) 0.03446(10)
C7 C 0.56706(10) 0.78272(12) 0.10158(7)
C8 C 0.51869(12) 0.80847(14) 0.06112(8)
C9 C 0.45025(13) 0.83377(15) 0.05930(9)
C10 C 0.42901(13) 0.83347(15) 0.09802(9)
C11 C 0.47617(11) 0.80920(13) 0.13883(8)
C12 C 0.54460(10) 0.78443(12) 0.13992(7)
C13 C 0.60148(10) 0.75983(12) 0.18248(7)
N1 N 0.57889(9) 0.69711(10) 0.20823(6)
C14 C 0.58967(12) 0.62147(13) 0.18541(8)
C15 C 0.66064(13) 0.63355(14) 0.17547(9)
N2 N 0.66200(9) 0.72399(11) 0.16621(6)
C16 C 0.62167(11) 0.69575(14) 0.25607(7)
C17 C 0.60006(13) 0.76307(15) 0.28285(8)
N3 N 0.63954(10) 0.75234(13) 0.33039(6)
C18 C 0.60527(16) 0.73576(16) 0.35652(9)
C19 C 0.6475(3) 0.7191(4) 0.4059(2)
C20 C 0.7193(2) 0.7327(3) 0.42385(13)
C21 C 0.7516(3) 0.7168(3) 0.46887(14)
C22 C 0.7088(3) 0.6872(2) 0.49284(18)
C23 C 0.6364(3) 0.6798(4) 0.4769(2)
N4 N 0.6058(2) 0.6926(2) 0.43028(12)
H1 H 0.6376(13) 0.7905(15) 0.0185(8)
H2 H 0.6783(18) 0.882(2) 0.0292(11)
H3 H 0.7118(15) 0.8113(17) 0.0060(11)
H4 H 0.8350(15) 0.8008(18) 0.1168(11)
H5 H 0.8323(16) 0.7971(18) 0.0649(11)
H6 H 0.813(3) 0.886(3) 0.0923(17)
H7 H 0.7923(14) 0.6835(18) 0.1457(10)
H8 H 0.7700(18) 0.587(2) 0.1242(12)
H9 H 0.8302(16) 0.6545(17) 0.1115(9)
H10 H 0.6846(13) 0.6647(14) 0.0088(9)
H11 H 0.7687(15) 0.6601(17) 0.0257(9)
H12 H 0.7248(16) 0.578(2) 0.0371(10)
H13 H 0.5335(12) 0.8105(15) 0.0342(9)
H14 H 0.4185(12) 0.8485(14) 0.0297(8)
H15 H 0.3835(12) 0.8457(13) 0.0963(7)
H16 H 0.4624(12) 0.8073(13) 0.1670(8)
H17 H 0.6185(9) 0.8076(11) 0.2007(6)
H18 H 0.7028(13) 0.7485(15) 0.1846(8)
H19 H 0.7028(12) 0.6165(14) 0.2034(8)
H20 H 0.6629(11) 0.6045(14) 0.1499(8)
H21 H 0.5470(11) 0.6157(12) 0.1543(7)
H22 H 0.5911(11) 0.5737(14) 0.2041(7)
H23 H 0.6126(11) 0.6410(14) 0.2703(7)
H24 H 0.6764(11) 0.6977(12) 0.2611(7)
H25 H 0.5449(12) 0.7606(13) 0.2769(7)
H26 H 0.6128(12) 0.8155(15) 0.2732(8)
H27 H 0.5535(15) 0.7369(16) 0.3481(9)
H28 H 0.7445(15) 0.7549(18) 0.4053(10)
H29 H 0.797(3) 0.736(3) 0.4774(16)
H30 H 0.7228(19) 0.667(2) 0.5322(13)
H31 H 0.6111(19) 0.670(2) 0.4928(12)
B2 B 0.76276(11) -0.08280(14) 0.23102(8)
O3 O 0.76449(6) -0.17241(8) 0.23274(5)
C24 C 0.83071(10) -0.19580(12) 0.26608(7)
C25 C 0.88144(10) -0.12428(12) 0.26254(7)
O4 O 0.83389(6) -0.05496(8) 0.25459(4)
C26 C 0.81858(13) -0.19910(16) 0.31222(8)
C27 C 0.85367(13) -0.27917(14) 0.25406(10)
C28 C 0.94287(12) -0.10968(16) 0.30535(8)
C29 C 0.91062(12) -0.13434(16) 0.22257(9)
C30 C 0.69772(10) -0.03806(12) 0.24306(7)
C31 C 0.68709(11) -0.02482(13) 0.28494(8)
C32 C 0.62445(11) 0.01150(14) 0.28783(9)
C33 C 0.57136(11) 0.03458(13) 0.24916(9)
C34 C 0.58071(11) 0.02265(13) 0.20752(9)
C35 C 0.64388(10) -0.01301(12) 0.20489(7)
C36 C 0.66029(10) -0.02690(13) 0.16128(7)
N5 N 0.65832(9) 0.04768(11) 0.13533(6)
C37 C 0.72985(13) 0.08241(15) 0.15642(9)
C38 C 0.78036(12) 0.00979(14) 0.16297(8)
N6 N 0.73819(8) -0.05803(11) 0.17530(6)
C39 C 0.64308(15) 0.03226(19) 0.08680(8)
C40 C 0.56342(16) 0.03745(18) 0.06262(10)
N7 N 0.53988(12) 0.12276(14) 0.05956(7)
C41 C 0.50003(14) 0.14430(17) 0.08292(9)
C42 C 0.47280(12) 0.22839(16) 0.08249(8)
C43 C 0.49186(17) 0.29039(19) 0.05820(11)
C44 C 0.46232(19) 0.3664(2) 0.05839(13)
C45 C 0.41456(15) 0.37888(19) 0.08233(11)
C46 C 0.39893(16) 0.31469(19) 0.10545(10)
N8 N 0.42686(11) 0.23950(14) 0.10587(8)
H32 H 0.8623(13) -0.2244(15) 0.3369(8)
H33 H 0.8102(11) -0.1445(14) 0.3234(7)
H34 H 0.7752(12) -0.2347(14) 0.3117(7)
H35 H 0.9018(15) -0.2960(17) 0.2758(10)
H36 H 0.8160(12) -0.3204(14) 0.2555(7)
H37 H 0.8568(13) -0.2804(16) 0.2224(9)
H38 H 0.9729(11) -0.0651(14) 0.3000(7)
H39 H 0.9712(13) -0.1644(16) 0.3136(8)
H40 H 0.9228(11) -0.0918(13) 0.3312(7)
H41 H 0.9497(12) -0.1807(14) 0.2291(7)
H42 H 0.8727(12) -0.1482(13) 0.1932(8)
H43 H 0.9302(13) -0.0840(17) 0.2164(8)
H44 H 0.7234(11) -0.0420(12) 0.3140(7)
H45 H 0.6181(11) 0.0213(14) 0.3172(8)
H46 H 0.5269(12) 0.0647(14) 0.2529(7)
H47 H 0.5440(13) 0.0387(14) 0.1794(9)
H48 H 0.6301(10) -0.0721(12) 0.1429(6)
H49 H 0.7393(11) -0.1016(14) 0.1586(7)
H50 H 0.7939(12) -0.0054(15) 0.1355(9)
H51 H 0.8231(13) 0.0164(14) 0.1863(8)
H52 H 0.7411(11) 0.1244(14) 0.1380(8)
H53 H 0.7309(11) 0.1048(13) 0.1866(8)
H54 H 0.6705(12) 0.0716(16) 0.0743(8)
H55 H 0.6623(12) -0.0203(15) 0.0818(8)
H56 H 0.5546(15) 0.0110(18) 0.0301(11)
H57 H 0.5365(13) 0.0051(16) 0.0774(9)
H58 H 0.4831(13) 0.1075(16) 0.0992(9)
H59 H 0.5254(15) 0.2797(17) 0.0429(9)
H60 H 0.4765(19) 0.408(2) 0.0400(12)
H61 H 0.3876(15) 0.4339(18) 0.0799(9)
H62 H 0.3598(17) 0.3204(19) 0.1197(10)
B3 B 0.14539(11) 0.92929(13) 0.11538(7)
O5 O 0.09548(6) 0.98510(8) 0.12744(4)
C47 C 0.02380(9) 0.96337(12) 0.10107(6)
C48 C 0.03106(10) 0.87021(13) 0.09247(7)
O6 O 0.10314(6) 0.86317(8) 0.09023(4)
C49 C 0.00543(12) 1.01449(16) 0.05834(8)
C50 C -0.02812(11) 0.98385(17) 0.12703(8)
C51 C -0.01917(12) 0.83943(18) 0.04806(8)
C52 C 0.02343(13) 0.81672(15) 0.13094(8)
C53 C 0.20317(9) 0.96617(11) 0.09323(6)
C54 C 0.19260(10) 0.99660(12) 0.04983(7)
C55 C 0.24915(12) 1.02975(14) 0.03747(8)
C56 C 0.31704(12) 1.03278(15) 0.06829(8)
C57 C 0.32913(11) 1.00238(13) 0.11125(7)
C58 C 0.27220(9) 0.96853(11) 0.12312(6)
C59 C 0.27809(9) 0.93515(12) 0.16902(6)
N9 N 0.32839(8) 0.86726(10) 0.18295(5)
C60 C 0.28448(11) 0.79576(13) 0.16383(8)
C61 C 0.21387(11) 0.81057(12) 0.17281(8)
N10 N 0.20314(8) 0.90100(9) 0.16537(5)
C62 C 0.35877(11) 0.86050(14) 0.23209(7)
C63 C 0.42250(12) 0.91638(16) 0.24878(7)
N11 N 0.45567(9) 0.90575(12) 0.29754(6)
C64 C 0.47217(11) 0.97055(17) 0.31989(8)
C65 C 0.50940(12) 0.97171(19) 0.36867(8)
C66 C 0.52285(15) 0.9008(3) 0.39479(10)
C67 C 0.5571(2) 0.9101(6) 0.43979(15)
C68 C 0.5777(3) 0.9855(7) 0.45759(17)
C69 C 0.5635(3) 1.0505(5) 0.42966(18)
N12 N 0.52870(14) 1.04723(19) 0.38507(8)
H63 H -0.0436(14) 1.0065(16) 0.0394(9)
H64 H 0.0383(11) 0.9975(12) 0.0395(7)
H65 H 0.0092(11) 1.0749(15) 0.0671(7)
H66 H -0.0792(13) 0.9660(14) 0.1094(8)
H67 H -0.0148(12) 0.9581(14) 0.1567(9)
H68 H -0.0294(12) 1.0452(16) 0.1320(8)
H69 H -0.0139(13) 0.7779(17) 0.0475(8)
H70 H -0.0693(13) 0.8498(14) 0.0467(8)
H71 H -0.0109(12) 0.8640(15) 0.0208(9)
H72 H 0.0539(10) 0.8377(12) 0.1618(7)
H73 H 0.0361(11) 0.7535(15) 0.1256(7)
H74 H -0.0269(14) 0.8166(15) 0.1346(9)
H75 H 0.1412(11) 0.9928(13) 0.0260(7)
H76 H 0.2417(11) 1.0514(13) 0.0069(8)
H77 H 0.3545(13) 1.0538(15) 0.0585(8)
H78 H 0.3750(13) 1.0029(14) 0.1323(8)
H79 H 0.2884(10) 0.9792(12) 0.1919(7)
H80 H 0.2798(10) 0.7968(12) 0.1322(8)
H81 H 0.3089(13) 0.7449(16) 0.1789(8)
H82 H 0.1745(11) 0.7806(13) 0.1516(7)
H83 H 0.2189(11) 0.7990(13) 0.2045(8)
H84 H 0.1885(10) 0.9277(12) 0.1890(7)
H85 H 0.3230(11) 0.8734(13) 0.2495(7)
H86 H 0.3781(11) 0.8012(13) 0.2389(7)
H87 H 0.4048(11) 0.9798(14) 0.2407(7)
H88 H 0.4609(13) 0.9025(15) 0.2336(8)
H89 H 0.4644(15) 1.0282(19) 0.3075(10)
H90 H 0.5049(17) 0.845(2) 0.3815(11)
H91 H 0.564(3) 0.860(3) 0.4548(18)
H92 H 0.605(3) 1.000(3) 0.4886(18)
H93 H 0.569(2) 1.112(3) 0.4365(14)
B4 B 0.20024(11) 0.10335(13) 0.23406(7)
O7 O 0.19295(7) 0.01374(8) 0.23532(4)
C70 C 0.16635(10) -0.00624(12) 0.27258(6)
C71 C 0.12299(10) 0.07200(12) 0.27640(7)
O8 O 0.16572(7) 0.13586(8) 0.26510(4)
C72 C 0.12244(14) -0.08427(14) 0.26136(8)
C73 C 0.23037(13) -0.01931(16) 0.31430(8)
C74 C 0.04871(11) 0.07371(15) 0.24214(8)
C75 C 0.11673(14) 0.08839(16) 0.32297(8)
C76 C 0.27830(10) 0.13792(11) 0.23686(7)
C77 C 0.33959(10) 0.14530(13) 0.27414(8)
C78 C 0.40389(11) 0.17287(13) 0.26857(9)
C79 C 0.40815(11) 0.19088(14) 0.22593(9)
C80 C 0.34824(11) 0.18390(13) 0.18849(9)
C81 C 0.28403(10) 0.15886(11) 0.19493(7)
C82 C 0.21565(10) 0.15004(12) 0.15672(7)
N13 N 0.19347(9) 0.22446(10) 0.13083(5)
C83 C 0.15577(12) 0.26950(13) 0.15771(8)
C84 C 0.11138(11) 0.20418(13) 0.17203(8)
N14 N 0.15829(8) 0.12986(10) 0.17956(6)
C85 C 0.14894(12) 0.21150(14) 0.08373(7)
C86 C 0.17042(13) 0.26957(14) 0.05215(8)
N15 N 0.15338(9) 0.35405(11) 0.05953(6)
C87 C 0.20174(12) 0.40682(14) 0.06344(7)
C88 C 0.18931(12) 0.49506(14) 0.06933(7)
C89 C 0.12997(16) 0.52314(17) 0.07978(9)
C90 C 0.1207(2) 0.60679(18) 0.08302(10)
C91 C 0.16984(19) 0.65882(18) 0.07514(9)
C92 C 0.22853(19) 0.62605(18) 0.06623(11)
N16 N 0.23974(11) 0.54484(13) 0.06333(7)
H94 H 0.0986(12) -0.0979(14) 0.2869(8)
H95 H 0.1543(11) -0.1296(14) 0.2586(7)
H96 H 0.0818(12) -0.0752(13) 0.2292(8)
H97 H 0.2129(12) -0.0377(15) 0.3382(9)
H98 H 0.2600(11) 0.0329(13) 0.3256(7)
H99 H 0.2634(14) -0.0606(16) 0.3083(8)
H100 H 0.0548(11) 0.0624(13) 0.2109(8)
H101 H 0.0278(12) 0.1330(16) 0.2408(8)
H102 H 0.0164(12) 0.0357(14) 0.2487(7)
H103 H 0.0876(12) 0.1392(15) 0.3226(7)
H104 H 0.0953(12) 0.0455(15) 0.3324(8)
H105 H 0.1631(12) 0.0955(13) 0.3438(7)
H106 H 0.3377(11) 0.1316(13) 0.3052(8)
H107 H 0.4469(12) 0.1765(13) 0.2970(8)
H108 H 0.4539(13) 0.2107(14) 0.2220(8)
H109 H 0.3515(12) 0.1975(14) 0.1573(9)
H110 H 0.2174(9) 0.1042(12) 0.1359(6)
H111 H 0.1340(10) 0.0874(13) 0.1652(7)
H112 H 0.1024(11) 0.2169(13) 0.2009(8)
H113 H 0.1935(11) 0.2905(12) 0.1848(7)
H114 H 0.1602(11) 0.1535(14) 0.0754(7)
H115 H 0.2240(13) 0.2633(14) 0.0547(8)
H116 H 0.2498(13) 0.3914(14) 0.0625(8)
H117 H 0.0964(14) 0.4846(18) 0.0814(9)
H118 H 0.0818(18) 0.626(2) 0.0913(11)
H119 H 0.1604(15) 0.7213(19) 0.0760(9)
H120 H 0.2638(17) 0.658(2) 0.0589(11)
H121 H 0.0686(11) 0.1917(12) 0.1465(7)
H122 H 0.1270(11) 0.3119(14) 0.1400(7)
H123 H 0.0975(13) 0.2186(15) 0.0801(8)
H124 H 0.1405(11) 0.2517(13) 0.0197(8)
C93 C 0.5410(4) 0.3989(3) -0.0601(2)
H125 H 0.5480 0.3707 -0.0863
H126 H 0.5307 0.4568 -0.0673
H127 H 0.5008 0.3739 -0.0523
C94 C 0.5974(4) 0.3927(4) -0.0269(2)
H128 H 0.6361 0.4222 -0.0349
H129 H 0.6110 0.3341 -0.0238
O9 O 0.5968(3) 0.4188(4) 0.01235(15)
C95 C 0.6535(3) 0.4119(4) 0.0449(3)
H130 H 0.6952 0.4309 0.0358
H131 H 0.6615 0.3538 0.0543
C96 C 0.6453(7) 0.4648(7) 0.0845(2)
H132 H 0.6870 0.4565 0.1111
H133 H 0.6016 0.4487 0.0915
H134 H 0.6422 0.5228 0.0759
C97? C 0.6115(8) 0.7239(10) 0.4013(5)
C98? C 0.6757(10) 0.6894(11) 0.4236(5)
C99? C 0.6746(15) 0.6649(10) 0.4675(5)
C100? C 0.5748(8) 0.7154(8) 0.4653(4)
N17? N 0.5584(5) 0.7337(6) 0.4207(3)
loop_
_geom_bond_atom_site_label_1
_geom_bond_atom_site_label_2
_geom_bond_site_symmetry_1
_geom_bond_site_symmetry_2
B1 O1 1_555 1_555
O1 C1 1_555 1_555
C1 C2 1_555 1_555
C2 O2 1_555 1_555
O2 B1 1_555 1_555
C3 C1 1_555 1_555
C4 C1 1_555 1_555
C5 C2 1_555 1_555
C6 C2 1_555 1_555
C7 B1 1_555 1_555
C8 C7 1_555 1_555
C9 C8 1_555 1_555
C10 C9 1_555 1_555
C11 C10 1_555 1_555
C12 C7 1_555 1_555
C13 C12 1_555 1_555
N1 C13 1_555 1_555
C14 N1 1_555 1_555
C15 C14 1_555 1_555
N2 B1 1_555 1_555
C16 N1 1_555 1_555
C17 C16 1_555 1_555
N3 C17 1_555 1_555
C18 N3 1_555 1_555
C19 C18 1_555 1_555
C20 C19 1_555 1_555
C21 C20 1_555 1_555
C22 C21 1_555 1_555
C23 C22 1_555 1_555
N4 C19 1_555 1_555
H1 C3 1_555 1_555
H2 C3 1_555 1_555
H3 C3 1_555 1_555
H4 C4 1_555 1_555
H5 C4 1_555 1_555
H6 C4 1_555 1_555
H7 C5 1_555 1_555
H8 C5 1_555 1_555
H9 C5 1_555 1_555
H10 C6 1_555 1_555
H11 C6 1_555 1_555
H12 C6 1_555 1_555
H13 C8 1_555 1_555
H14 C9 1_555 1_555
H15 C10 1_555 1_555
H16 C11 1_555 1_555
H17 C13 1_555 1_555
H18 N2 1_555 1_555
H19 C15 1_555 1_555
H20 C15 1_555 1_555
H21 C14 1_555 1_555
H22 C14 1_555 1_555
H23 C16 1_555 1_555
H24 C16 1_555 1_555
H25 C17 1_555 1_555
H26 C17 1_555 1_555
H27 C18 1_555 1_555
H28 C20 1_555 1_555
H29 C21 1_555 1_555
H30 C22 1_555 1_555
H31 C23 1_555 1_555
B2 O3 1_555 1_555
O3 C24 1_555 1_555
C24 C25 1_555 1_555
C25 O4 1_555 1_555
O4 B2 1_555 1_555
C26 C24 1_555 1_555
C27 C24 1_555 1_555
C28 C25 1_555 1_555
C29 C25 1_555 1_555
C30 B2 1_555 1_555
C31 C30 1_555 1_555
C32 C31 1_555 1_555
C33 C32 1_555 1_555
C34 C33 1_555 1_555
C35 C30 1_555 1_555
C36 C35 1_555 1_555
N5 C36 1_555 1_555
C37 N5 1_555 1_555
C38 C37 1_555 1_555
N6 B2 1_555 1_555
C39 N5 1_555 1_555
C40 C39 1_555 1_555
N7 C40 1_555 1_555
C41 N7 1_555 1_555
C42 C41 1_555 1_555
C43 C42 1_555 1_555
C44 C43 1_555 1_555
C45 C44 1_555 1_555
C46 C45 1_555 1_555
N8 C42 1_555 1_555
H32 C26 1_555 1_555
H33 C26 1_555 1_555
H34 C26 1_555 1_555
H35 C27 1_555 1_555
H36 C27 1_555 1_555
H37 C27 1_555 1_555
H38 C28 1_555 1_555
H39 C28 1_555 1_555
H40 C28 1_555 1_555
H41 C29 1_555 1_555
H42 C29 1_555 1_555
H43 C29 1_555 1_555
H44 C31 1_555 1_555
H45 C32 1_555 1_555
H46 C33 1_555 1_555
H47 C34 1_555 1_555
H48 C36 1_555 1_555
H49 N6 1_555 1_555
H50 C38 1_555 1_555
H51 C38 1_555 1_555
H52 C37 1_555 1_555
H53 C37 1_555 1_555
H54 C39 1_555 1_555
H55 C39 1_555 1_555
H56 C40 1_555 1_555
H57 C40 1_555 1_555
H58 C41 1_555 1_555
H59 C43 1_555 1_555
H60 C44 1_555 1_555
H61 C45 1_555 1_555
H62 C46 1_555 1_555
B3 O5 1_555 1_555
O5 C47 1_555 1_555
C47 C48 1_555 1_555
C48 O6 1_555 1_555
O6 B3 1_555 1_555
C49 C47 1_555 1_555
C50 C47 1_555 1_555
C51 C48 1_555 1_555
C52 C48 1_555 1_555
C53 B3 1_555 1_555
C54 C53 1_555 1_555
C55 C54 1_555 1_555
C56 C55 1_555 1_555
C57 C56 1_555 1_555
C58 C53 1_555 1_555
C59 C58 1_555 1_555
N9 C59 1_555 1_555
C60 N9 1_555 1_555
C61 C60 1_555 1_555
N10 B3 1_555 1_555
C62 N9 1_555 1_555
C63 C62 1_555 1_555
N11 C63 1_555 1_555
C64 N11 1_555 1_555
C65 C64 1_555 1_555
C66 C65 1_555 1_555
C67 C66 1_555 1_555
C68 C67 1_555 1_555
C69 C68 1_555 1_555
N12 C65 1_555 1_555
H63 C49 1_555 1_555
H64 C49 1_555 1_555
H65 C49 1_555 1_555
H66 C50 1_555 1_555
H67 C50 1_555 1_555
H68 C50 1_555 1_555
H69 C51 1_555 1_555
H70 C51 1_555 1_555
H71 C51 1_555 1_555
H72 C52 1_555 1_555
H73 C52 1_555 1_555
H74 C52 1_555 1_555
H75 C54 1_555 1_555
H76 C55 1_555 1_555
H77 C56 1_555 1_555
H78 C57 1_555 1_555
H79 C59 1_555 1_555
H80 C60 1_555 1_555
H81 C60 1_555 1_555
H82 C61 1_555 1_555
H83 C61 1_555 1_555
H84 N10 1_555 1_555
H85 C62 1_555 1_555
H86 C62 1_555 1_555
H87 C63 1_555 1_555
H88 C63 1_555 1_555
H89 C64 1_555 1_555
H90 C66 1_555 1_555
H91 C67 1_555 1_555
H92 C68 1_555 1_555
H93 C69 1_555 1_555
B4 O7 1_555 1_555
O7 C70 1_555 1_555
C70 C71 1_555 1_555
C71 O8 1_555 1_555
O8 B4 1_555 1_555
C72 C70 1_555 1_555
C73 C70 1_555 1_555
C74 C71 1_555 1_555
C75 C71 1_555 1_555
C76 B4 1_555 1_555
C77 C76 1_555 1_555
C78 C77 1_555 1_555
C79 C78 1_555 1_555
C80 C79 1_555 1_555
C81 C76 1_555 1_555
C82 C81 1_555 1_555
N13 C82 1_555 1_555
C83 N13 1_555 1_555
C84 C83 1_555 1_555
N14 B4 1_555 1_555
C85 N13 1_555 1_555
C86 C85 1_555 1_555
N15 C86 1_555 1_555
C87 N15 1_555 1_555
C88 C87 1_555 1_555
C89 C88 1_555 1_555
C90 C89 1_555 1_555
C91 C90 1_555 1_555
C92 C91 1_555 1_555
N16 C88 1_555 1_555
H94 C72 1_555 1_555
H95 C72 1_555 1_555
H96 C72 1_555 1_555
H97 C73 1_555 1_555
H98 C73 1_555 1_555
H99 C73 1_555 1_555
H100 C74 1_555 1_555
H101 C74 1_555 1_555
H102 C74 1_555 1_555
H103 C75 1_555 1_555
H104 C75 1_555 1_555
H105 C75 1_555 1_555
H106 C77 1_555 1_555
H107 C78 1_555 1_555
H108 C79 1_555 1_555
H109 C80 1_555 1_555
H110 C82 1_555 1_555
H111 N14 1_555 1_555
H112 C84 1_555 1_555
H113 C83 1_555 1_555
H114 C85 1_555 1_555
H115 C86 1_555 1_555
H116 C87 1_555 1_555
H117 C89 1_555 1_555
H118 C90 1_555 1_555
H119 C91 1_555 1_555
H120 C92 1_555 1_555
H121 C84 1_555 1_555
H122 C83 1_555 1_555
H123 C85 1_555 1_555
H124 C86 1_555 1_555
C93 H125 1_555 1_555
H126 C93 1_555 1_555
H127 C93 1_555 1_555
C94 C93 1_555 1_555
H128 C94 1_555 1_555
H129 C94 1_555 1_555
O9 C94 1_555 1_555
C95 O9 1_555 1_555
H130 C95 1_555 1_555
H131 C95 1_555 1_555
C96 C95 1_555 1_555
H132 C96 1_555 1_555
H133 C96 1_555 1_555
H134 C96 1_555 1_555
C11 C12 1_555 1_555
C13 N2 1_555 1_555
C15 N2 1_555 1_555
C23 N4 1_555 1_555
C34 C35 1_555 1_555
C36 N6 1_555 1_555
C38 N6 1_555 1_555
C46 N8 1_555 1_555
C57 C58 1_555 1_555
C59 N10 1_555 1_555
C61 N10 1_555 1_555
C69 N12 1_555 1_555
C80 C81 1_555 1_555
C82 N14 1_555 1_555
C84 N14 1_555 1_555
C92 N16 1_555 1_555

#END
