
#######################################################################
#
#                 Cambridge Crystallographic Data Centre
#                                CCDC 
#
#######################################################################
#
# If this CIF has been generated from an entry in the Cambridge 
# Structural Database, then it will include bibliographic, chemical, 
# crystal, experimental, refinement or atomic coordinate data resulting 
# from the CCDC's data processing and validation procedures.
#
#######################################################################

data_OLIVAG
_chemical_formula_moiety         'C17 H27 B1 N2 O2'
_chemical_name_systematic        
'rac-4,4-Dimethyl- 2-(2-(4,4,5,5-tetramethyl-1,3,2-dioxaborolan-2-yl)phenyl-B)imidazolidine'
_chemical_properties_biological  
'potent antifungal and moderate antibacterial activity'
_symmetry_cell_setting           tetragonal
_symmetry_space_group_name_H-M   'P -4 21 c'
_symmetry_Int_Tables_number      114
_space_group_name_Hall           'P -4 2n'
loop_
_symmetry_equiv_pos_site_id
_symmetry_equiv_pos_as_xyz
1 x,y,z
2 -x,-y,z
3 y,-x,-z
4 -y,x,-z
5 1/2-x,1/2+y,1/2-z
6 1/2+x,1/2-y,1/2-z
7 1/2-y,1/2-x,1/2+z
8 1/2+y,1/2+x,1/2+z
_cell_length_a                   12.5263(6)
_cell_length_b                   12.5263(6)
_cell_length_c                   21.7284(16)
_cell_angle_alpha                90
_cell_angle_beta                 90
_cell_angle_gamma                90
_cell_volume                     3409.36
_exptl_crystal_colour            colorless
_exptl_crystal_description       irregular
_chemical_melting_point          160-162deg.C
_cell_formula_units_Z            8
_exptl_crystal_recrystallization_method tetrahydrofuran
loop_
_atom_site_label
_atom_site_type_symbol
_atom_site_fract_x
_atom_site_fract_y
_atom_site_fract_z
B1 B 0.18280(10) 0.51203(10) 0.10597(7)
O1 O 0.12153(7) 0.42568(7) 0.13546(5)
C1 C 0.18864(10) 0.37934(11) 0.18200(6)
C2 C 0.25629(11) 0.47699(11) 0.20245(6)
O2 O 0.27114(7) 0.53460(7) 0.14589(4)
C3 C 0.11983(14) 0.32993(14) 0.23201(8)
C4 C 0.25877(12) 0.29356(12) 0.15303(8)
C5 C 0.19450(15) 0.54910(14) 0.24748(8)
C6 C 0.36474(13) 0.45079(15) 0.22919(9)
C7 C 0.20849(10) 0.49793(9) 0.03391(6)
C8 C 0.14348(10) 0.56166(9) -0.00311(6)
C9 C 0.14647(13) 0.55622(11) -0.06751(7)
C10 C 0.22071(15) 0.48834(12) -0.09504(7)
C11 C 0.29050(15) 0.42930(12) -0.05947(8)
C12 C 0.28367(12) 0.43220(11) 0.00460(7)
C13 C 0.08027(10) 0.64271(9) 0.03199(6)
N1 N 0.11989(10) 0.75067(8) 0.02157(5)
C14 C 0.10995(11) 0.80739(9) 0.08097(6)
C15 C 0.13655(11) 0.72004(10) 0.12813(6)
N2 N 0.09813(8) 0.61785(8) 0.10014(5)
C16 C 0.18887(14) 0.89979(11) 0.08404(8)
C17 C -0.00445(13) 0.84631(12) 0.08857(8)
H1 H 0.0615(17) 0.3759(17) 0.2459(10)
H2 H 0.1658(18) 0.3064(18) 0.2664(10)
H3 H 0.0821(19) 0.264(2) 0.2200(11)
H4 H 0.3078(19) 0.3291(18) 0.1221(10)
H5 H 0.2108(17) 0.2338(17) 0.1318(10)
H6 H 0.3004(15) 0.2578(15) 0.1858(9)
H7 H 0.2325(19) 0.6162(19) 0.2495(11)
H8 H 0.1853(16) 0.5121(17) 0.2882(10)
H9 H 0.1162(19) 0.5386(18) 0.2391(10)
H10 H 0.4122(18) 0.4201(17) 0.1964(10)
H11 H 0.3583(16) 0.4008(16) 0.2697(9)
H12 H 0.3757(19) 0.521(2) 0.2499(11)
H13 H 0.0969(14) 0.6020(14) -0.0909(8)
H14 H 0.2144(18) 0.4867(18) -0.1391(11)
H15 H 0.3456(17) 0.3807(18) -0.0768(10)
H16 H 0.3394(12) 0.3863(13) 0.0258(8)
H17 H 0.0049(15) 0.6403(14) 0.0244(8)
H18 H 0.1908(12) 0.7437(12) 0.0118(7)
H19 H 0.1003(14) 0.7296(14) 0.1648(8)
H20 H 0.2172(15) 0.7112(15) 0.1339(9)
H21 H 0.0390(19) 0.6050(18) 0.1163(10)
H22 H 0.1810(17) 0.9365(17) 0.1232(10)
H23 H 0.1814(19) 0.9474(18) 0.0503(12)
H24 H 0.262(2) 0.871(2) 0.0847(12)
H25 H -0.0257(17) 0.8996(17) 0.0564(10)
H26 H -0.0154(19) 0.8826(19) 0.1298(11)
H27 H -0.0533(15) 0.7933(16) 0.0895(9)
loop_
_geom_bond_atom_site_label_1
_geom_bond_atom_site_label_2
_geom_bond_site_symmetry_1
_geom_bond_site_symmetry_2
B1 O1 1_555 1_555
O1 C1 1_555 1_555
C1 C2 1_555 1_555
C2 O2 1_555 1_555
O2 B1 1_555 1_555
C3 C1 1_555 1_555
C4 C1 1_555 1_555
C5 C2 1_555 1_555
C6 C2 1_555 1_555
C7 B1 1_555 1_555
C8 C7 1_555 1_555
C9 C8 1_555 1_555
C10 C9 1_555 1_555
C11 C10 1_555 1_555
C12 C7 1_555 1_555
C13 C8 1_555 1_555
N1 C13 1_555 1_555
C14 N1 1_555 1_555
C15 C14 1_555 1_555
N2 B1 1_555 1_555
C16 C14 1_555 1_555
C17 C14 1_555 1_555
H1 C3 1_555 1_555
H2 C3 1_555 1_555
H3 C3 1_555 1_555
H4 C4 1_555 1_555
H5 C4 1_555 1_555
H6 C4 1_555 1_555
H7 C5 1_555 1_555
H8 C5 1_555 1_555
H9 C5 1_555 1_555
H10 C6 1_555 1_555
H11 C6 1_555 1_555
H12 C6 1_555 1_555
H13 C9 1_555 1_555
H14 C10 1_555 1_555
H15 C11 1_555 1_555
H16 C12 1_555 1_555
H17 C13 1_555 1_555
H18 N1 1_555 1_555
H19 C15 1_555 1_555
H20 C15 1_555 1_555
H21 N2 1_555 1_555
H22 C16 1_555 1_555
H23 C16 1_555 1_555
H24 C16 1_555 1_555
H25 C17 1_555 1_555
H26 C17 1_555 1_555
H27 C17 1_555 1_555
C11 C12 1_555 1_555
C13 N2 1_555 1_555
C15 N2 1_555 1_555

#END
