
#######################################################################
#
#                 Cambridge Crystallographic Data Centre
#                                CCDC 
#
#######################################################################
#
# If this CIF has been generated from an entry in the Cambridge 
# Structural Database, then it will include bibliographic, chemical, 
# crystal, experimental, refinement or atomic coordinate data resulting 
# from the CCDC's data processing and validation procedures.
#
#######################################################################

data_OLIVIP
_chemical_formula_moiety         'C15 H13 N1 O2'
_chemical_name_systematic        5-Methoxy-3-methylphenanthridin-6(5H)-one
_symmetry_cell_setting           monoclinic
_symmetry_space_group_name_H-M   'P 21/n'
_symmetry_Int_Tables_number      14
_space_group_name_Hall           '-P 2yn'
loop_
_symmetry_equiv_pos_site_id
_symmetry_equiv_pos_as_xyz
1 x,y,z
2 1/2-x,1/2+y,1/2-z
3 -x,-y,-z
4 1/2+x,1/2-y,1/2+z
_cell_length_a                   5.9671(2)
_cell_length_b                   15.9172(7)
_cell_length_c                   13.0085(5)
_cell_angle_alpha                90
_cell_angle_beta                 95.201(4)
_cell_angle_gamma                90
_cell_volume                     1230.45
_exptl_crystal_colour            yellow
_exptl_crystal_description       block
_cell_formula_units_Z            4
loop_
_atom_site_label
_atom_site_type_symbol
_atom_site_fract_x
_atom_site_fract_y
_atom_site_fract_z
O1 O 0.26201(16) 0.38133(6) 0.10199(7)
O2 O 0.62546(16) 0.46726(6) 0.16254(7)
N1 N 0.5820(2) 0.39097(7) 0.20927(8)
C1 C 0.3873(3) 0.35082(9) 0.17282(10)
C2 C 0.7343(2) 0.36563(9) 0.29178(10)
C3 C 0.5007(2) 0.23900(9) 0.30218(10)
C4 C 0.9176(2) 0.41612(9) 0.32457(10)
H1 H 0.9394 0.4667 0.2910
C5 C 0.3496(2) 0.26987(9) 0.22233(10)
C6 C 1.0670(3) 0.39200(11) 0.40620(11)
C7 C 0.1590(3) 0.22393(11) 0.18693(12)
H2 H 0.0582 0.2457 0.1349
C8 C 0.6949(2) 0.28936(9) 0.33921(10)
C9 C 0.4546(3) 0.15963(11) 0.34219(12)
H3 H 0.5528 0.1371 0.3946
C10 C 0.1198(3) 0.14685(12) 0.22862(13)
H4 H -0.0071 0.1162 0.2048
C11 C 0.8489(3) 0.26609(10) 0.42199(11)
H5 H 0.8286 0.2157 0.4561
C12 C 0.7357(3) 0.45192(10) 0.07027(12)
H6 H 0.8784 0.4254 0.0883
H7 H 0.7588 0.5043 0.0362
H8 H 0.6434 0.4159 0.0249
C13 C 0.2692(3) 0.11466(10) 0.30613(13)
H9 H 0.2432 0.0621 0.3338
C14 C 1.0285(3) 0.31600(12) 0.45368(12)
H10 H 1.1277 0.2985 0.5087
C15 C 1.2651(3) 0.44634(12) 0.44232(12)
H11 H 1.2518 0.4640 0.5121
H12 H 1.2681 0.4948 0.3986
H13 H 1.4017 0.4149 0.4393
loop_
_geom_bond_atom_site_label_1
_geom_bond_atom_site_label_2
_geom_bond_site_symmetry_1
_geom_bond_site_symmetry_2
O1 C1 1_555 1_555
O2 N1 1_555 1_555
N1 C1 1_555 1_555
C1 C5 1_555 1_555
C2 N1 1_555 1_555
C3 C5 1_555 1_555
C4 C2 1_555 1_555
H1 C4 1_555 1_555
C5 C7 1_555 1_555
C6 C4 1_555 1_555
C7 H2 1_555 1_555
C8 C2 1_555 1_555
C9 C3 1_555 1_555
H3 C9 1_555 1_555
C10 C7 1_555 1_555
H4 C10 1_555 1_555
C11 C8 1_555 1_555
H5 C11 1_555 1_555
C12 O2 1_555 1_555
H6 C12 1_555 1_555
H7 C12 1_555 1_555
H8 C12 1_555 1_555
C13 C9 1_555 1_555
H9 C13 1_555 1_555
C14 C6 1_555 1_555
H10 C14 1_555 1_555
C15 C6 1_555 1_555
H11 C15 1_555 1_555
H12 C15 1_555 1_555
H13 C15 1_555 1_555
C3 C8 1_555 1_555
C10 C13 1_555 1_555
C11 C14 1_555 1_555

#END
