
#######################################################################
#
#                 Cambridge Crystallographic Data Centre
#                                CCDC 
#
#######################################################################
#
# If this CIF has been generated from an entry in the Cambridge 
# Structural Database, then it will include bibliographic, chemical, 
# crystal, experimental, refinement or atomic coordinate data resulting 
# from the CCDC's data processing and validation procedures.
#
#######################################################################

data_OLIZUG
_chemical_formula_moiety         'C40 H25 N3'
_chemical_name_systematic        
4-((3,5-bis(pyridin-4-ylethynyl)phenyl)ethynyl)-N,N-diphenylaniline
_symmetry_cell_setting           triclinic
_symmetry_space_group_name_H-M   'P -1'
_symmetry_Int_Tables_number      2
_space_group_name_Hall           '-P 1'
loop_
_symmetry_equiv_pos_site_id
_symmetry_equiv_pos_as_xyz
1 x,y,z
2 -x,-y,-z
_cell_length_a                   9.5795(13)
_cell_length_b                   9.9620(14)
_cell_length_c                   15.947(2)
_cell_angle_alpha                75.335(4)
_cell_angle_beta                 82.681(4)
_cell_angle_gamma                78.616(4)
_cell_volume                     1438.48
_exptl_crystal_colour            colorless
_exptl_crystal_description       block
_cell_formula_units_Z            2
loop_
_atom_site_label
_atom_site_type_symbol
_atom_site_fract_x
_atom_site_fract_y
_atom_site_fract_z
N1 N 0.47417(16) 0.16730(15) 0.27112(10)
N2 N 1.0768(2) 1.53013(17) 0.20139(12)
N3 N 0.7571(3) 1.4477(3) -0.56392(14)
C1 C 0.36075(19) 0.15788(17) 0.33922(11)
C2 C 0.3883(2) 0.1272(2) 0.42492(13)
H1 H 0.4821 0.1110 0.4396
C3 C 0.2779(3) 0.1203(2) 0.48947(14)
H2 H 0.2976 0.0991 0.5475
C4 C 0.1401(3) 0.1444(2) 0.46880(15)
H3 H 0.0657 0.1398 0.5124
C5 C 0.1120(2) 0.1754(3) 0.38376(16)
H4 H 0.0180 0.1919 0.3695
C6 C 0.2217(2) 0.1824(2) 0.31862(13)
H5 H 0.2015 0.2038 0.2607
C7 C 0.59316(19) 0.05463(18) 0.27759(11)
C8 C 0.7314(2) 0.0773(2) 0.27278(13)
H6 H 0.7485 0.1682 0.2665
C9 C 0.8450(2) -0.0328(2) 0.27714(13)
H7 H 0.9377 -0.0150 0.2728
C10 C 0.8232(2) -0.1666(2) 0.28775(13)
H8 H 0.9001 -0.2405 0.2906
C11 C 0.6855(3) -0.1917(2) 0.29424(14)
H9 H 0.6693 -0.2833 0.3026
C12 C 0.5712(2) -0.0813(2) 0.28843(13)
H10 H 0.4787 -0.0993 0.2919
C13 C 0.49532(18) 0.30373(17) 0.22302(11)
C14 C 0.4599(2) 0.42072(19) 0.25805(12)
H11 H 0.4168 0.4119 0.3144
C15 C 0.4878(2) 0.55020(19) 0.21047(12)
H12 H 0.4632 0.6276 0.2352
C16 C 0.55179(18) 0.56685(17) 0.12625(11)
C17 C 0.58405(19) 0.44917(17) 0.09082(11)
H13 H 0.6262 0.4578 0.0343
C18 C 0.55473(19) 0.32052(18) 0.13779(11)
H14 H 0.5749 0.2439 0.1122
C19 C 0.59182(19) 0.69841(19) 0.07848(12)
C20 C 0.63411(19) 0.80340(18) 0.03915(12)
C21 C 0.69692(18) 0.92412(17) -0.00614(11)
C22 C 0.75868(19) 0.99417(17) 0.04055(11)
H15 H 0.7545 0.9656 0.1009
C23 C 0.82685(19) 1.10685(17) -0.00233(11)
C24 C 0.83276(19) 1.14823(18) -0.09248(11)
H16 H 0.8806 1.2215 -0.1216
C25 C 0.76812(18) 1.08149(17) -0.13955(11)
C26 C 0.70050(19) 0.96912(17) -0.09639(11)
H17 H 0.6575 0.9238 -0.1278
C27 C 0.8880(2) 1.18428(19) 0.04406(11)
C28 C 0.9333(2) 1.25856(19) 0.07831(12)
C29 C 0.98271(19) 1.35035(17) 0.12002(11)
C30 C 0.9014(2) 1.39876(19) 0.18826(12)
H18 H 0.8130 1.3722 0.2080
C31 C 0.9528(2) 1.4863(2) 0.22641(13)
H19 H 0.8972 1.5166 0.2725
C32 C 1.1530(2) 1.4850(2) 0.13490(13)
H20 H 1.2400 1.5151 0.1157
C33 C 1.1113(2) 1.39680(19) 0.09283(12)
H21 H 1.1689 1.3687 0.0466
C34 C 0.77052(19) 1.13768(18) -0.23206(12)
C35 C 0.7737(2) 1.19901(19) -0.30653(12)
C36 C 0.7698(2) 1.2813(2) -0.39426(12)
C37 C 0.8129(3) 1.4113(2) -0.41696(14)
H22 H 0.8471 1.4457 -0.3760
C38 C 0.8039(3) 1.4887(3) -0.50132(18)
H23 H 0.8329 1.5760 -0.5155
C39 C 0.7182(3) 1.3224(3) -0.54111(16)
H24 H 0.6856 1.2901 -0.5836
C40 C 0.7226(3) 1.2365(3) -0.45844(14)
H25 H 0.6940 1.1491 -0.4464
loop_
_geom_bond_atom_site_label_1
_geom_bond_atom_site_label_2
_geom_bond_site_symmetry_1
_geom_bond_site_symmetry_2
N1 C1 1_555 1_555
N2 C31 1_555 1_555
N3 C38 1_555 1_555
C1 C2 1_555 1_555
C2 H1 1_555 1_555
C3 C2 1_555 1_555
H2 C3 1_555 1_555
C4 C3 1_555 1_555
H3 C4 1_555 1_555
C5 C4 1_555 1_555
H4 C5 1_555 1_555
C6 C1 1_555 1_555
H5 C6 1_555 1_555
C7 N1 1_555 1_555
C8 C7 1_555 1_555
H6 C8 1_555 1_555
C9 C8 1_555 1_555
H7 C9 1_555 1_555
C10 C9 1_555 1_555
H8 C10 1_555 1_555
C11 C10 1_555 1_555
H9 C11 1_555 1_555
C12 C7 1_555 1_555
H10 C12 1_555 1_555
C13 N1 1_555 1_555
C14 C13 1_555 1_555
H11 C14 1_555 1_555
C15 C14 1_555 1_555
H12 C15 1_555 1_555
C16 C15 1_555 1_555
C17 C16 1_555 1_555
H13 C17 1_555 1_555
C18 C13 1_555 1_555
H14 C18 1_555 1_555
C19 C16 1_555 1_555
C20 C19 1_555 1_555
C21 C20 1_555 1_555
C22 C21 1_555 1_555
H15 C22 1_555 1_555
C23 C22 1_555 1_555
C24 C23 1_555 1_555
H16 C24 1_555 1_555
C25 C24 1_555 1_555
C26 C21 1_555 1_555
H17 C26 1_555 1_555
C27 C23 1_555 1_555
C28 C27 1_555 1_555
C29 C28 1_555 1_555
C30 C29 1_555 1_555
H18 C30 1_555 1_555
C31 C30 1_555 1_555
H19 C31 1_555 1_555
C32 N2 1_555 1_555
H20 C32 1_555 1_555
C33 C29 1_555 1_555
H21 C33 1_555 1_555
C34 C25 1_555 1_555
C35 C34 1_555 1_555
C36 C35 1_555 1_555
C37 C36 1_555 1_555
H22 C37 1_555 1_555
C38 C37 1_555 1_555
H23 C38 1_555 1_555
C39 N3 1_555 1_555
H24 C39 1_555 1_555
C40 C36 1_555 1_555
H25 C40 1_555 1_555
C5 C6 1_555 1_555
C11 C12 1_555 1_555
C17 C18 1_555 1_555
C25 C26 1_555 1_555
C32 C33 1_555 1_555
C39 C40 1_555 1_555

#END
