
#######################################################################
#
#                 Cambridge Crystallographic Data Centre
#                                CCDC 
#
#######################################################################
#
# If this CIF has been generated from an entry in the Cambridge 
# Structural Database, then it will include bibliographic, chemical, 
# crystal, experimental, refinement or atomic coordinate data resulting 
# from the CCDC's data processing and validation procedures.
#
#######################################################################

data_OLODAV
_chemical_name_common            
'4,10,14,20,24-pentaethoxy-26,29,30,33,34-pentamethoxypillar[5]arene 4,9,15,19,24-pentaethoxy-26,29,31,32,35-pentamethoxypillar[5]arene acetonitrile solvate'
_chemical_formula_moiety         'C50 H60 O10,3(C2 H3 N1),C50 H60 O10'
_chemical_name_systematic        
'4,9,14,19,26-Pentaethoxy-24,28,30,32,34-pentamethoxyhexacyclo[21.2.2.2^3,6^.2^8,11^.2^13,16^.2^18,21^]pentatriaconta-1(25),3,5,8,10,13,15,18,20,23,26,28,30,32,34-pentadecaene 4,9,19,26,30-pentaethoxy-14,24,28,32,34-pentamethoxyhexacyclo[21.2.2.2^3,6^.2^8,11^.2^13,16^.2^18,21^]pentatriaconta-1(25),3,5,8,10,13,15,18,20,23,26,28,30,32,34-pentadecaene acetonitrile solvate'
_symmetry_cell_setting           triclinic
_symmetry_space_group_name_H-M   'P -1'
_symmetry_Int_Tables_number      2
_space_group_name_Hall           '-P 1'
loop_
_symmetry_equiv_pos_site_id
_symmetry_equiv_pos_as_xyz
1 x,y,z
2 -x,-y,-z
_cell_length_a                   12.2072(4)
_cell_length_b                   20.6545(12)
_cell_length_c                   21.4041(11)
_cell_angle_alpha                68.825(5)
_cell_angle_beta                 88.866(4)
_cell_angle_gamma                80.174(4)
_cell_volume                     4953.35
_exptl_crystal_colour            colorless
_exptl_crystal_description       block
_cell_formula_units_Z            2
loop_
_atom_site_label
_atom_site_type_symbol
_atom_site_fract_x
_atom_site_fract_y
_atom_site_fract_z
O1 O 0.4547(4) 0.6343(3) 0.5593(3)
O2 O 0.7098(4) 0.7776(2) 0.6566(3)
O3 O 0.8176(4) 0.6201(2) 0.8897(2)
O4 O 1.0588(4) 0.3832(2) 0.9162(2)
O5 O 1.0905(3) 0.39517(19) 0.67743(18)
O6 O 0.6859(3) 0.3954(2) 0.60027(19)
O7 O 0.3937(3) 0.6402(2) 0.7936(2)
O8 O 0.8921(3) 0.6302(2) 0.5213(2)
O9 O 0.6070(4) 0.40450(19) 0.9526(2)
O10 O 0.7988(3) 0.23997(17) 0.84097(16)
C1 C 0.9315(4) 0.3422(2) 0.6897(2)
C2 C 1.0195(4) 0.3564(2) 0.7202(2)
C3 C 0.8579(4) 0.3033(2) 0.7293(2)
H1 H 0.7996 0.2930 0.7093
C4 C 0.3316(6) 0.5856(3) 0.8247(4)
H2 H 0.2594 0.5978 0.8025
H3 H 0.3235 0.5800 0.8710
H4 H 0.3699 0.5423 0.8218
C5 C 0.9562(4) 0.2939(2) 0.8302(2)
C6 C 0.8419(4) 0.5705(3) 0.5403(2)
C7 C 0.8694(4) 0.2792(2) 0.7987(2)
C8 C 1.2511(7) 0.4405(7) 0.6446(5)
H5 H 1.2005 0.4782 0.6128
H6 H 1.2837 0.4078 0.6242
H7 H 1.3087 0.4594 0.6586
C9 C 1.0313(4) 0.3321(2) 0.7900(2)
H8 H 1.0904 0.3418 0.8100
C10 C 0.4436(9) 0.3707(4) 0.9535(5)
H9 H 0.4135 0.4151 0.9195
H10 H 0.4352 0.3743 0.9969
H11 H 0.4046 0.3350 0.9510
C11 C 0.8572(14) 0.8228(9) 0.6514(9)
H12 H 0.9355 0.8160 0.6440
H13 H 0.8461 0.8072 0.6987
H14 H 0.8260 0.8720 0.6309
C12 C 1.0300(9) 0.6945(7) 0.5373(6)
H15 H 1.0724 0.7090 0.4979
H16 H 1.0735 0.6914 0.5755
H17 H 0.9631 0.7285 0.5318
C13 C 0.7697(6) 0.4516(3) 0.9483(2)
C14 C 0.8101(7) 0.7878(5) 0.6259(5)
H18 H 0.8572 0.7427 0.6328
H19 H 0.7967 0.8133 0.5780
C15 C 1.1125(7) 0.4390(5) 0.9177(4)
H20 H 1.0726 0.4833 0.8877
H21 H 1.1874 0.4320 0.9038
H22 H 1.1135 0.4392 0.9624
C16 C 0.8860(6) 0.6682(4) 0.8506(4)
H23 H 0.8514 0.7162 0.8442
H24 H 0.8948 0.6643 0.8069
C17 C 0.3434(7) 0.6260(6) 0.5803(7)
H25 H 0.3151 0.5973 0.5599
H26 H 0.2964 0.6714 0.5668
H27 H 0.3446 0.6036 0.6282
C18 C 0.9935(8) 0.6517(4) 0.8852(5)
H28 H 1.0389 0.6850 0.8601
H29 H 1.0290 0.6050 0.8893
H30 H 0.9840 0.6539 0.9290
C19 C 0.5125(5) 0.7462(3) 0.7208(4)
H31 H 0.4319 0.7554 0.7208
H32 H 0.5393 0.7886 0.7182
C20 C 0.7025(6) 0.5130(3) 0.9635(3)
H33 H 0.7508 0.5306 0.9866
H34 H 0.6443 0.4960 0.9934
C21 C 1.0000(5) 0.6222(4) 0.5481(3)
H35 H 1.0532 0.5975 0.5264
H36 H 1.0039 0.5943 0.5956
C22 C 0.6591(5) 0.6553(3) 0.5036(3)
H37 H 0.7036 0.6869 0.4736
H38 H 0.5951 0.6547 0.4777
C23 C 1.1894(5) 0.4033(4) 0.7044(3)
H39 H 1.2326 0.3578 0.7309
H40 H 1.1730 0.4312 0.7325
C24 C 0.4826(5) 0.6921(3) 0.6372(4)
H41 H 0.4149 0.6834 0.6562
C25 C 0.5481(5) 0.7275(3) 0.6614(3)
C26 C 0.5673(5) 0.4050(4) 0.5989(3)
H42 H 0.5385 0.4268 0.5532
H43 H 0.5391 0.4347 0.6234
H44 H 0.5443 0.3601 0.6191
C27 C 0.5162(5) 0.6699(3) 0.5856(4)
C28 C 0.5539(5) 0.3529(3) 0.9439(3)
H45 H 0.5641 0.3521 0.8991
H46 H 0.5843 0.3066 0.9762
C29 C 0.8832(6) 0.4462(3) 0.9401(3)
H47 H 0.9186 0.4812 0.9439
C30 C 0.9622(5) 0.2755(3) 0.9056(2)
H48 H 0.9319 0.2328 0.9278
H49 H 1.0392 0.2669 0.9213
C31 C 0.6837(5) 0.7189(3) 0.5804(3)
H50 H 0.7508 0.7284 0.5611
C32 C 0.9462(5) 0.3908(3) 0.9265(3)
C33 C 0.7114(5) 0.6275(3) 0.8640(3)
C34 C 0.6488(5) 0.7411(3) 0.6317(3)
C35 C 0.6200(5) 0.6824(3) 0.5572(3)
C36 C 0.5466(5) 0.5793(3) 0.8764(3)
H51 H 0.5061 0.5443 0.8994
C37 C 0.7276(4) 0.5816(3) 0.5315(2)
C38 C 0.6763(4) 0.5235(3) 0.5510(2)
H52 H 0.5993 0.5301 0.5451
C39 C 0.9173(4) 0.3698(3) 0.6138(2)
H53 H 0.8800 0.3385 0.6005
H54 H 0.9901 0.3694 0.5948
C40 C 0.7041(4) 0.2279(3) 0.8123(3)
H55 H 0.7277 0.2010 0.7845
H56 H 0.6601 0.2723 0.7856
H57 H 0.6604 0.2023 0.8473
C41 C 0.6625(6) 0.6819(3) 0.8086(3)
H58 H 0.7027 0.7174 0.7864
C42 C 0.8503(4) 0.4443(3) 0.5855(2)
C43 C 0.7179(6) 0.3972(3) 0.9447(2)
C44 C 0.7828(5) 0.3410(3) 0.9314(2)
H59 H 0.7477 0.3057 0.9281
C45 C 0.5580(5) 0.6869(3) 0.7842(3)
C46 C 0.6495(5) 0.5734(3) 0.9007(3)
C47 C 0.9022(4) 0.5021(3) 0.5659(2)
H60 H 0.9794 0.4954 0.5700
C48 C 0.7353(4) 0.4552(3) 0.5790(2)
C49 C 0.8965(5) 0.3356(3) 0.9230(2)
C50 C 0.4951(5) 0.6337(2) 0.8193(3)
O11 O 0.3758(3) 0.11900(19) 1.1025(3)
O12 O 0.5124(3) -0.16316(17) 1.1846(2)
O13 O 0.7596(3) -0.0017(2) 1.4835(2)
O14 O 0.9430(3) 0.1650(2) 1.28013(19)
O15 O 0.4306(3) -0.01468(18) 1.35504(19)
O16 O 1.1245(2) -0.11877(18) 1.38377(16)
O17 O 0.7588(3) -0.00940(16) 1.02148(18)
O18 O 1.0979(3) 0.01663(17) 1.13392(16)
O19 O 0.7549(3) -0.20947(16) 1.37928(18)
O20 O 0.7217(2) 0.22348(15) 1.07084(14)
C51 C 0.8585(4) -0.0898(3) 1.44823(19)
C52 C 0.7597(3) -0.1595(2) 1.4072(2)
C53 C 1.0043(3) 0.0692(2) 1.1157(2)
C54 C 0.6511(4) 0.0927(2) 1.0310(2)
C55 C 0.6623(4) 0.0206(2) 1.0422(2)
C56 C 1.0814(3) -0.0482(2) 1.3568(2)
C57 C 0.9244(4) 0.0752(2) 1.0676(2)
H61 H 0.9337 0.0433 1.0456
C58 C 1.0593(3) 0.0670(2) 1.2680(2)
C59 C 0.8191(3) 0.1746(2) 1.0856(2)
C60 C 0.9011(3) 0.1710(2) 1.1306(2)
H62 H 0.8933 0.2044 1.1508
C61 C 0.8314(4) 0.1276(2) 1.05188(19)
C62 C 0.5783(4) -0.0154(2) 1.0718(2)
H63 H 0.5859 -0.0631 1.0785
C63 C 0.2688(17) 0.2285(6) 1.0582(8)
H64 H 0.2867 0.2670 1.0205
H65 H 0.2198 0.2465 1.0860
H66 H 0.2328 0.1989 1.0425
C64 C 0.9963(3) 0.1180(2) 1.1467(2)
C65 C 1.2579(8) -0.2136(4) 1.3984(5)
H67 H 1.3106 -0.2379 1.3769
H68 H 1.1998 -0.2405 1.4154
H69 H 1.2950 -0.2079 1.4347
C66 C 0.8627(7) 0.1930(4) 1.3174(4)
H70 H 0.8498 0.2436 1.2980
H71 H 0.8902 0.1779 1.3631
H72 H 0.7943 0.1764 1.3162
C67 C 0.6953(6) 0.1137(5) 1.4823(4)
H73 H 0.7567 0.1284 1.4554
H74 H 0.7168 0.0997 1.5289
H75 H 0.6334 0.1520 1.4707
C68 C 0.8493(5) -0.2317(4) 1.3497(4)
H76 H 0.8680 -0.1922 1.3133
H77 H 0.8346 -0.2668 1.3329
H78 H 0.9102 -0.2514 1.3824
C69 C 0.6116(7) -0.2438(4) 1.1413(4)
H79 H 0.6189 -0.2039 1.1019
H80 H 0.5478 -0.2629 1.1353
H81 H 0.6772 -0.2792 1.1488
C70 C 0.3624(7) 0.1907(5) 1.0938(10)
H82 H 0.3610 0.1950 1.1375
H83 H 0.4257 0.2098 1.0711
C71 C 0.5973(6) -0.2214(3) 1.2005(3)
H84 H 0.5787 -0.2596 1.2392
H85 H 0.6660 -0.2094 1.2114
C72 C 1.0085(5) -0.0876(3) 1.1684(3)
H86 H 0.9349 -0.0609 1.1545
H87 H 1.0235 -0.0947 1.2145
H88 H 1.0136 -0.1325 1.1636
C73 C 0.3782(5) 0.0573(3) 1.3292(3)
H89 H 0.4224 0.0839 1.2951
H90 H 0.3711 0.0755 1.3648
H91 H 0.3057 0.0611 1.3102
C74 C 1.2115(4) -0.1466(3) 1.3514(3)
H92 H 1.2671 -0.1163 1.3388
H93 H 1.1830 -0.1510 1.3114
C75 C 0.6630(5) 0.0535(4) 1.4700(4)
H94 H 0.6040 0.0363 1.4991
H95 H 0.6359 0.0681 1.4238
C76 C 0.7738(6) -0.0822(3) 1.0317(3)
H96 H 0.8356 -0.0939 1.0070
H97 H 0.7076 -0.0924 1.0165
H98 H 0.7884 -0.1095 1.0786
C77 C 1.0921(4) -0.0479(3) 1.1255(3)
H99 H 1.1650 -0.0777 1.1362
H100 H 1.0731 -0.0380 1.0788
C78 C 0.5496(4) -0.1498(2) 1.4098(2)
H101 H 0.5613 -0.2008 1.4242
H102 H 0.4928 -0.1357 1.4369
C79 C 0.9596(4) 0.0493(3) 1.3690(2)
H103 H 0.9101 0.0675 1.3946
C80 C 0.7021(4) 0.2679(3) 1.1089(3)
H104 H 0.6299 0.2970 1.0963
H105 H 0.7580 0.2972 1.1004
H106 H 0.7050 0.2394 1.1558
C81 C 0.4725(4) 0.0889(2) 1.0804(3)
C82 C 0.9849(4) 0.0940(3) 1.3069(2)
C83 C 0.3964(4) -0.0252(2) 1.1284(3)
H107 H 0.3246 0.0054 1.1228
H108 H 0.3896 -0.0610 1.1101
C84 C 0.5085(3) -0.1185(2) 1.3377(2)
C85 C 0.9667(4) -0.0694(3) 1.4598(2)
H109 H 1.0226 -0.1115 1.4790
H110 H 0.9570 -0.0451 1.4912
C86 C 0.5286(4) -0.1564(2) 1.2956(3)
H111 H 0.5675 -0.2025 1.3128
C87 C 0.7437(4) 0.1327(2) 1.00000(19)
H112 H 0.7121 0.1819 0.9763
H113 H 0.7789 0.1141 0.9675
C88 C 0.7560(4) -0.0554(3) 1.4601(2)
C89 C 0.4101(3) -0.0214(2) 1.2449(3)
H114 H 0.3690 0.0241 1.2283
C90 C 0.4920(4) -0.1276(2) 1.2283(3)
C91 C 1.0057(3) -0.0220(3) 1.3945(2)
C92 C 0.5558(4) 0.1258(2) 1.0502(2)
H115 H 0.5474 0.1736 1.0428
C93 C 0.4828(4) 0.0174(2) 1.0918(2)
C94 C 0.8574(3) -0.1417(2) 1.4216(2)
H116 H 0.9247 -0.1653 1.4131
C95 C 0.4487(3) -0.0498(2) 1.3114(3)
C96 C 0.6584(4) -0.0757(3) 1.4483(2)
H117 H 0.5911 -0.0536 1.4583
C97 C 1.0830(4) 0.1133(2) 1.1981(2)
H118 H 1.0854 0.1603 1.1973
H119 H 1.1555 0.0945 1.1863
C98 C 1.1078(3) -0.0040(2) 1.2939(2)
H120 H 1.1585 -0.0222 1.2689
C99 C 0.4313(3) -0.0595(2) 1.2018(3)
C100 C 0.6582(3) -0.1275(2) 1.4223(2)
C101 C 0.6894(7) 0.0623(5) 1.2517(5)
C102 C 0.6522(10) 0.1118(6) 1.2687(6)
H121 H 0.5867 0.1386 1.2414
H122 H 0.7071 0.1414 1.2633
H123 H 0.6335 0.0943 1.3150
N1 N 0.7393(7) 0.0059(5) 1.2360(5)
C103 C 0.5404(10) 0.4539(6) 0.7549(6)
C104 C 0.6302(10) 0.4880(7) 0.7483(7)
H124 H 0.6118 0.5346 0.7150
H125 H 0.6930 0.4621 0.7348
H126 H 0.6481 0.4911 0.7905
N2 N 0.4703(10) 0.4230(6) 0.7643(6)
C105 C 0.9852(11) 0.5609(7) 0.7392(6)
C106 C 0.8843(10) 0.5385(7) 0.7405(7)
H127 H 0.8833 0.5154 0.7088
H128 H 0.8250 0.5784 0.7289
H129 H 0.8747 0.5061 0.7847
N3 N 1.0671(11) 0.5822(7) 0.7343(6)
loop_
_geom_bond_atom_site_label_1
_geom_bond_atom_site_label_2
_geom_bond_site_symmetry_1
_geom_bond_site_symmetry_2
O1 C17 1_555 1_555
O2 C14 1_555 1_555
O3 C16 1_555 1_555
O4 C15 1_555 1_555
O5 C2 1_555 1_555
O6 C26 1_555 1_555
O7 C4 1_555 1_555
O8 C6 1_555 1_555
O9 C28 1_555 1_555
O10 C7 1_555 1_555
O11 C70 1_555 1_555
O12 C71 1_555 1_555
O13 C75 1_555 1_555
O14 C66 1_555 1_555
O15 C73 1_555 1_555
O16 C56 1_555 1_555
O17 C55 1_555 1_555
O18 C53 1_555 1_555
O19 C52 1_555 1_555
O20 C59 1_555 1_555
C1 C2 1_555 1_555
C2 C9 1_555 1_555
C3 C1 1_555 1_555
H1 C3 1_555 1_555
C4 H2 1_555 1_555
H3 C4 1_555 1_555
H4 C4 1_555 1_555
C5 C7 1_555 1_555
C6 C37 1_555 1_555
C7 C3 1_555 1_555
C8 H5 1_555 1_555
H6 C8 1_555 1_555
H7 C8 1_555 1_555
C9 C5 1_555 1_555
H8 C9 1_555 1_555
C10 H9 1_555 1_555
H10 C10 1_555 1_555
H11 C10 1_555 1_555
C11 H12 1_555 1_555
H13 C11 1_555 1_555
H14 C11 1_555 1_555
C12 H15 1_555 1_555
H16 C12 1_555 1_555
H17 C12 1_555 1_555
C13 C20 1_555 1_555
C14 C11 1_555 1_555
H18 C14 1_555 1_555
H19 C14 1_555 1_555
C15 H20 1_555 1_555
H21 C15 1_555 1_555
H22 C15 1_555 1_555
C16 H23 1_555 1_555
H24 C16 1_555 1_555
C17 H25 1_555 1_555
H26 C17 1_555 1_555
H27 C17 1_555 1_555
C18 C16 1_555 1_555
H28 C18 1_555 1_555
H29 C18 1_555 1_555
H30 C18 1_555 1_555
C19 H31 1_555 1_555
H32 C19 1_555 1_555
C20 H33 1_555 1_555
H34 C20 1_555 1_555
C21 O8 1_555 1_555
H35 C21 1_555 1_555
H36 C21 1_555 1_555
C22 H37 1_555 1_555
H38 C22 1_555 1_555
C23 O5 1_555 1_555
H39 C23 1_555 1_555
H40 C23 1_555 1_555
C24 H41 1_555 1_555
C25 C19 1_555 1_555
C26 H42 1_555 1_555
H43 C26 1_555 1_555
H44 C26 1_555 1_555
C27 O1 1_555 1_555
C28 C10 1_555 1_555
H45 C28 1_555 1_555
H46 C28 1_555 1_555
C29 C13 1_555 1_555
H47 C29 1_555 1_555
C30 C5 1_555 1_555
H48 C30 1_555 1_555
H49 C30 1_555 1_555
C31 H50 1_555 1_555
C32 O4 1_555 1_555
C33 O3 1_555 1_555
C34 O2 1_555 1_555
C35 C22 1_555 1_555
C36 H51 1_555 1_555
C37 C22 1_555 1_555
C38 C37 1_555 1_555
H52 C38 1_555 1_555
C39 C1 1_555 1_555
H53 C39 1_555 1_555
H54 C39 1_555 1_555
C40 O10 1_555 1_555
H55 C40 1_555 1_555
H56 C40 1_555 1_555
H57 C40 1_555 1_555
C41 C33 1_555 1_555
H58 C41 1_555 1_555
C42 C39 1_555 1_555
C43 O9 1_555 1_555
C44 C43 1_555 1_555
H59 C44 1_555 1_555
C45 C19 1_555 1_555
C46 C20 1_555 1_555
C47 C6 1_555 1_555
H60 C47 1_555 1_555
C48 O6 1_555 1_555
C49 C30 1_555 1_555
C50 O7 1_555 1_555
C51 C85 1_555 1_555
C52 C94 1_555 1_555
C53 C57 1_555 1_555
C54 C55 1_555 1_555
C55 C62 1_555 1_555
C56 C91 1_555 1_555
C57 H61 1_555 1_555
C58 C82 1_555 1_555
C59 C60 1_555 1_555
C60 H62 1_555 1_555
C61 C57 1_555 1_555
C62 H63 1_555 1_555
C63 H64 1_555 1_555
H65 C63 1_555 1_555
H66 C63 1_555 1_555
C64 C53 1_555 1_555
C65 H67 1_555 1_555
H68 C65 1_555 1_555
H69 C65 1_555 1_555
C66 H70 1_555 1_555
H71 C66 1_555 1_555
H72 C66 1_555 1_555
C67 H73 1_555 1_555
H74 C67 1_555 1_555
H75 C67 1_555 1_555
C68 O19 1_555 1_555
H76 C68 1_555 1_555
H77 C68 1_555 1_555
H78 C68 1_555 1_555
C69 H79 1_555 1_555
H80 C69 1_555 1_555
H81 C69 1_555 1_555
C70 C63 1_555 1_555
H82 C70 1_555 1_555
H83 C70 1_555 1_555
C71 C69 1_555 1_555
H84 C71 1_555 1_555
H85 C71 1_555 1_555
C72 H86 1_555 1_555
H87 C72 1_555 1_555
H88 C72 1_555 1_555
C73 H89 1_555 1_555
H90 C73 1_555 1_555
H91 C73 1_555 1_555
C74 O16 1_555 1_555
H92 C74 1_555 1_555
H93 C74 1_555 1_555
C75 C67 1_555 1_555
H94 C75 1_555 1_555
H95 C75 1_555 1_555
C76 O17 1_555 1_555
H96 C76 1_555 1_555
H97 C76 1_555 1_555
H98 C76 1_555 1_555
C77 O18 1_555 1_555
H99 C77 1_555 1_555
H100 C77 1_555 1_555
C78 H101 1_555 1_555
H102 C78 1_555 1_555
C79 H103 1_555 1_555
C80 O20 1_555 1_555
H104 C80 1_555 1_555
H105 C80 1_555 1_555
H106 C80 1_555 1_555
C81 O11 1_555 1_555
C82 O14 1_555 1_555
C83 H107 1_555 1_555
H108 C83 1_555 1_555
C84 C78 1_555 1_555
C85 H109 1_555 1_555
H110 C85 1_555 1_555
C86 C84 1_555 1_555
H111 C86 1_555 1_555
C87 C54 1_555 1_555
H112 C87 1_555 1_555
H113 C87 1_555 1_555
C88 O13 1_555 1_555
C89 H114 1_555 1_555
C90 O12 1_555 1_555
C91 C79 1_555 1_555
C92 C54 1_555 1_555
H115 C92 1_555 1_555
C93 C62 1_555 1_555
C94 C51 1_555 1_555
H116 C94 1_555 1_555
C95 O15 1_555 1_555
C96 C88 1_555 1_555
H117 C96 1_555 1_555
C97 C58 1_555 1_555
H118 C97 1_555 1_555
H119 C97 1_555 1_555
C98 C56 1_555 1_555
H120 C98 1_555 1_555
C99 C83 1_555 1_555
C100 C52 1_555 1_555
C101 C102 1_555 1_555
C102 H121 1_555 1_555
H122 C102 1_555 1_555
H123 C102 1_555 1_555
C103 C104 1_555 1_555
C104 H124 1_555 1_555
H125 C104 1_555 1_555
H126 C104 1_555 1_555
C105 C106 1_555 1_555
C106 H127 1_555 1_555
H128 C106 1_555 1_555
H129 C106 1_555 1_555
N1 C101 1_555 1_555
N2 C103 1_555 1_555
N3 C105 1_555 1_555
C8 C23 1_555 1_555
C12 C21 1_555 1_555
C13 C43 1_555 1_555
C24 C25 1_555 1_555
C24 C27 1_555 1_555
C25 C34 1_555 1_555
C27 C35 1_555 1_555
C29 C32 1_555 1_555
C31 C34 1_555 1_555
C31 C35 1_555 1_555
C32 C49 1_555 1_555
C33 C46 1_555 1_555
C36 C46 1_555 1_555
C36 C50 1_555 1_555
C38 C48 1_555 1_555
C41 C45 1_555 1_555
C42 C47 1_555 1_555
C42 C48 1_555 1_555
C44 C49 1_555 1_555
C45 C50 1_555 1_555
C51 C88 1_555 1_555
C58 C98 1_555 1_555
C59 C61 1_555 1_555
C60 C64 1_555 1_555
C61 C87 1_555 1_555
C64 C97 1_555 1_555
C65 C74 1_555 1_555
C72 C77 1_555 1_555
C78 C100 1_555 1_555
C79 C82 1_555 1_555
C81 C92 1_555 1_555
C81 C93 1_555 1_555
C83 C93 1_555 1_555
C84 C95 1_555 1_555
C85 C91 1_555 1_555
C86 C90 1_555 1_555
C89 C95 1_555 1_555
C89 C99 1_555 1_555
C90 C99 1_555 1_555
C96 C100 1_555 1_555

#END
