
#######################################################################
#
#                 Cambridge Crystallographic Data Centre
#                                CCDC 
#
#######################################################################
#
# If this CIF has been generated from an entry in the Cambridge 
# Structural Database, then it will include bibliographic, chemical, 
# crystal, experimental, refinement or atomic coordinate data resulting 
# from the CCDC's data processing and validation procedures.
#
#######################################################################

data_OLODEZ
_chemical_name_common            
5,9,14,20,24-pentabutoxy-26,28,31,33,34-pentamethoxypillar[5]arene
_chemical_formula_moiety         'C60 H80 O10'
_chemical_name_systematic        
4,9,19,26,30-Pentabutoxy-14,24,28,32,34-pentamethoxyhexacyclo[21.2.2.2^3,6^.2^8,11^.2^13,16^.2^18,21^]pentatriaconta-1(25),3,5,8,10,13,15,18,20,23,26,28,30,32,34-pentadecaene
_symmetry_cell_setting           triclinic
_symmetry_space_group_name_H-M   'P -1'
_symmetry_Int_Tables_number      2
_space_group_name_Hall           '-P 1'
loop_
_symmetry_equiv_pos_site_id
_symmetry_equiv_pos_as_xyz
1 x,y,z
2 -x,-y,-z
_cell_length_a                   12.0537(5)
_cell_length_b                   14.0506(9)
_cell_length_c                   18.5235(12)
_cell_angle_alpha                88.658(5)
_cell_angle_beta                 80.286(4)
_cell_angle_gamma                64.905(5)
_cell_volume                     2796.23
_exptl_crystal_colour            colorless
_exptl_crystal_description       block
_cell_formula_units_Z            2
loop_
_atom_site_label
_atom_site_type_symbol
_atom_site_fract_x
_atom_site_fract_y
_atom_site_fract_z
O1 O 0.5298(5) 0.4890(4) 0.7414(2)
O2 O 0.6830(4) 0.0727(4) 0.6625(3)
O3 O 0.8974(3) 0.3101(3) 0.5267(2)
O4 O 1.1532(3) -0.0887(3) 0.61801(17)
O5 O 1.2728(4) 0.2236(4) 0.6324(2)
O6 O 1.3533(3) -0.0805(3) 0.83700(16)
O7 O 1.1690(3) 0.3371(3) 0.88393(19)
O8 O 0.9552(2) 0.1182(3) 1.06436(16)
O9 O 0.7075(3) 0.5069(3) 0.96561(17)
O10 O 0.5482(3) 0.1990(3) 0.9295(2)
C1 C 0.5498(14) 0.5552(12) 0.6892(9)
H1 H 0.5540 0.5281 0.6412
H2 H 0.6266 0.5589 0.6920
H3 H 0.4825 0.6242 0.6983
C2 C 0.5703(5) 0.3865(5) 0.7204(3)
C3 C 0.5340(4) 0.3273(5) 0.7702(3)
C4 C 0.5701(4) 0.2230(5) 0.7511(3)
H4 H 0.5458 0.1820 0.7844
C5 C 0.6418(4) 0.1772(5) 0.6833(3)
C6 C 0.6806(4) 0.2371(5) 0.6331(2)
C7 C 0.6417(5) 0.3412(5) 0.6514(3)
H5 H 0.6630 0.3832 0.6175
C8 C 0.6424(6) 0.0104(6) 0.7087(6)
H6 H 0.5522 0.0404 0.7171
H7 H 0.6684 0.0092 0.7556
C9 C 0.6915(13) -0.0945(10) 0.6778(8)
H8 H 0.7815 -0.1234 0.6659
H9 H 0.6692 -0.1386 0.7129
C10 C 0.645(2) -0.0925(16) 0.6172(11)
H10 H 0.6890 -0.0693 0.5774
H11 H 0.5580 -0.0418 0.6254
C11 C 0.653(3) -0.2009(19) 0.5944(16)
H12 H 0.6427 -0.2013 0.5442
H13 H 0.5892 -0.2139 0.6253
H14 H 0.7332 -0.2548 0.5997
C12 C 0.7608(4) 0.1888(5) 0.5605(2)
H15 H 0.7401 0.2409 0.5237
H16 H 0.7445 0.1309 0.5456
C13 C 0.9523(10) 0.3783(8) 0.5195(6)
H17 H 1.0224 0.3526 0.4802
H18 H 0.9797 0.3835 0.5644
H19 H 0.8932 0.4464 0.5090
C14 C 0.9634(4) 0.2111(5) 0.5488(2)
C15 C 0.9004(4) 0.1481(4) 0.5652(2)
C16 C 0.9620(4) 0.0481(4) 0.5874(2)
H20 H 0.9197 0.0060 0.5980
C17 C 1.0875(4) 0.0085(4) 0.5944(2)
C18 C 1.1523(4) 0.0705(4) 0.5766(2)
C19 C 1.0886(4) 0.1711(4) 0.5534(2)
H21 H 1.1311 0.2126 0.5406
C20 C 1.0918(6) -0.1517(5) 0.6390(3)
H22 H 1.0633 -0.1685 0.5972
H23 H 1.0198 -0.1143 0.6766
C21 C 1.1776(9) -0.2501(6) 0.6677(5)
H24 H 1.2083 -0.2304 0.7074
H25 H 1.2486 -0.2853 0.6290
C22 C 1.1271(9) -0.3328(8) 0.6969(6)
H26 H 1.0921 -0.3517 0.6592
H27 H 1.0619 -0.3023 0.7393
C23 C 1.2381(10) -0.4353(9) 0.7189(7)
H28 H 1.2272 -0.4967 0.7071
H29 H 1.2376 -0.4306 0.7706
H30 H 1.3160 -0.4404 0.6922
C24 C 1.2883(4) 0.0294(5) 0.5847(2)
H31 H 1.3294 -0.0460 0.5733
H32 H 1.3291 0.0622 0.5499
C25 C 1.3782(5) -0.1823(4) 0.8131(3)
H33 H 1.4447 -0.2054 0.7716
H34 H 1.3050 -0.1824 0.7992
H35 H 1.4020 -0.2291 0.8520
C26 C 1.3012(3) 0.0520(4) 0.6615(2)
C27 C 1.3213(3) -0.0244(4) 0.7123(2)
H36 H 1.3299 -0.0906 0.6981
C28 C 1.3290(3) -0.0049(4) 0.7849(2)
C29 C 1.3126(3) 0.0949(4) 0.8072(2)
C30 C 1.2948(3) 0.1701(4) 0.7560(2)
H37 H 1.2859 0.2365 0.7698
C31 C 1.2899(4) 0.1487(4) 0.6834(3)
C32 C 1.2991(15) 0.3110(12) 0.6437(9)
H38 H 1.3840 0.2856 0.6521
H39 H 1.2443 0.3522 0.6873
C33 C 1.4007(15) 0.3799(14) 0.5298(11)
H40 H 1.4707 0.3514 0.5555
H41 H 1.4211 0.3363 0.4853
C34 C 1.373(2) 0.4931(16) 0.5109(15)
H42 H 1.4236 0.4931 0.4648
H43 H 1.3924 0.5266 0.5486
H44 H 1.2870 0.5307 0.5075
C35 C 1.2825(13) 0.3808(12) 0.5792(8)
H45 H 1.2301 0.4526 0.5980
H46 H 1.2372 0.3614 0.5482
C36 C 1.3125(3) 0.1212(4) 0.8866(2)
H47 H 1.3543 0.1668 0.8875
H48 H 1.3588 0.0569 0.9094
C37 C 1.1030(5) 0.4461(5) 0.8803(4)
H49 H 1.1543 0.4730 0.8494
H50 H 1.0803 0.4792 0.9287
H51 H 1.0292 0.4609 0.8604
C38 C 1.1104(3) 0.2833(4) 0.9265(2)
C39 C 1.1805(3) 0.1757(4) 0.9308(2)
C40 C 1.1282(3) 0.1207(4) 0.9753(2)
H52 H 1.1737 0.0487 0.9781
C41 C 1.0078(3) 0.1703(4) 1.0168(2)
C42 C 0.9362(3) 0.2763(4) 1.0093(2)
C43 C 0.9887(4) 0.3315(4) 0.9647(2)
H53 H 0.9417 0.4029 0.9599
C44 C 1.0373(4) 0.0240(5) 1.0923(3)
H54 H 1.1043 0.0347 1.1077
H55 H 1.0733 -0.0323 1.0543
C45 C 0.9666(6) -0.0055(5) 1.1558(3)
H56 H 0.9456 0.0450 1.1964
H57 H 0.8890 0.0017 1.1425
C46 C 1.0273(8) -0.1095(7) 1.1814(4)
H58 H 1.0483 -0.1607 1.1413
H59 H 0.9695 -0.1209 1.2199
C47 C 1.1398(6) -0.1278(7) 1.2096(4)
H60 H 1.2036 -0.1305 1.1698
H61 H 1.1673 -0.1933 1.2332
H62 H 1.1227 -0.0716 1.2443
C48 C 0.8016(3) 0.3300(4) 1.0488(2)
H63 H 0.7853 0.3985 1.0692
H64 H 0.7885 0.2883 1.0889
C49 C 0.7112(3) 0.3431(4) 0.9963(2)
C50 C 0.6735(3) 0.2638(4) 0.9883(2)
H65 H 0.7030 0.2038 1.0149
C51 C 0.5906(3) 0.2739(5) 0.9399(2)
C52 C 0.5459(3) 0.3619(5) 0.9001(2)
C53 C 0.5846(4) 0.4390(5) 0.9084(2)
H66 H 0.5556 0.4987 0.8814
C54 C 0.6656(3) 0.4311(4) 0.9557(2)
C55 C 0.5916(5) 0.1087(6) 0.9686(4)
H67 H 0.6800 0.0709 0.9537
H68 H 0.5520 0.0648 0.9590
H69 H 0.5727 0.1279 1.0201
C56 C 0.6723(5) 0.5934(5) 0.9203(3)
H70 H 0.5823 0.6305 0.9277
H71 H 0.7024 0.5687 0.8692
C57 C 0.7258(6) 0.6653(6) 0.9388(5)
H72 H 0.8147 0.6279 0.9379
H73 H 0.6858 0.7011 0.9866
C58 C 0.6964(12) 0.7436(9) 0.8762(7)
H74 H 0.7440 0.7090 0.8291
H75 H 0.6084 0.7741 0.8735
C59 C 0.7339(16) 0.8238(12) 0.8978(10)
H76 H 0.6809 0.8909 0.8821
H77 H 0.8186 0.8055 0.8753
H78 H 0.7267 0.8274 0.9502
C60 C 0.4599(4) 0.3730(5) 0.8462(3)
H79 H 0.4053 0.4467 0.8434
H80 H 0.4085 0.3365 0.8634
C61? C 0.6691(18) -0.1896(12) 0.6926(11)
C62? C 0.761(2) -0.2935(17) 0.6520(15)
C63? C 1.060(2) -0.362(2) 0.6428(12)
C64? C 1.033(2) -0.301(2) 0.7722(11)
C65? C 1.3412(14) 0.2700(12) 0.6201(8)
C66? C 1.4499(19) 0.2578(16) 0.5128(12)
C67? C 1.499(3) 0.299(2) 0.4494(15)
C68? C 1.3335(14) 0.3425(11) 0.5616(8)
C69? C 1.0408(17) -0.1823(16) 1.2366(9)
H81? H 0.5875 -0.1746 0.6819
H82? H 0.6656 -0.2000 0.7448
H83? H 0.7511 -0.2913 0.6015
H84? H 0.7450 -0.3500 0.6741
H85? H 0.8442 -0.3046 0.6549
H86? H 1.0698 -0.3046 0.7427
H87? H 1.1963 -0.3962 0.7071
H88? H 1.0864 -0.3461 0.6600
H89? H 1.1976 -0.3983 0.7024
H90? H 0.9956 -0.2994 0.6289
H91? H 1.1186 -0.3993 0.5999
H92? H 1.0232 -0.4065 0.6662
H93? H 0.9742 -0.3303 0.7725
H94? H 0.9890 -0.2252 0.7779
H95? H 1.0777 -0.3265 0.8119
H96? H 1.4261 0.2160 0.6120
H97? H 1.3300 0.3090 0.6654
H98? H 1.4283 0.2039 0.4962
H99? H 1.5142 0.2247 0.5423
H100? H 1.4470 0.3131 0.4130
H101? H 1.5820 0.2488 0.4293
H102? H 1.5018 0.3635 0.4638
H103? H 1.2582 0.3641 0.5409
H104? H 1.3453 0.4032 0.5754
H105? H 1.0199 -0.1497 1.1422
H106? H 1.1127 -0.1182 1.1698
H107? H 0.9933 -0.2209 1.2307
H108? H 1.1270 -0.2302 1.2328
H109? H 1.0113 -0.1454 1.2839
H110? H 0.6830 -0.0839 0.6268
H111? H 0.7800 -0.1202 0.6779
loop_
_geom_bond_atom_site_label_1
_geom_bond_atom_site_label_2
_geom_bond_site_symmetry_1
_geom_bond_site_symmetry_2
O1 C1 1_555 1_555
O2 C5 1_555 1_555
O3 C13 1_555 1_555
O4 C17 1_555 1_555
O5 C31 1_555 1_555
O6 C25 1_555 1_555
O7 C37 1_555 1_555
O8 C41 1_555 1_555
O9 C54 1_555 1_555
O10 C51 1_555 1_555
C1 H1 1_555 1_555
H2 C1 1_555 1_555
H3 C1 1_555 1_555
C2 O1 1_555 1_555
C3 C2 1_555 1_555
C4 C3 1_555 1_555
H4 C4 1_555 1_555
C5 C4 1_555 1_555
C6 C5 1_555 1_555
C7 C2 1_555 1_555
H5 C7 1_555 1_555
C8 O2 1_555 1_555
H6 C8 1_555 1_555
H7 C8 1_555 1_555
C9 C8 1_555 1_555
H8 C9 1_555 1_555
H9 C9 1_555 1_555
C10 C9 1_555 1_555
H10 C10 1_555 1_555
H11 C10 1_555 1_555
C11 C10 1_555 1_555
H12 C11 1_555 1_555
H13 C11 1_555 1_555
H14 C11 1_555 1_555
C12 C6 1_555 1_555
H15 C12 1_555 1_555
H16 C12 1_555 1_555
C13 H17 1_555 1_555
H18 C13 1_555 1_555
H19 C13 1_555 1_555
C14 O3 1_555 1_555
C15 C12 1_555 1_555
C16 C15 1_555 1_555
H20 C16 1_555 1_555
C17 C16 1_555 1_555
C18 C17 1_555 1_555
C19 C14 1_555 1_555
H21 C19 1_555 1_555
C20 O4 1_555 1_555
H22 C20 1_555 1_555
H23 C20 1_555 1_555
C21 C20 1_555 1_555
H24 C21 1_555 1_555
H25 C21 1_555 1_555
C22 C21 1_555 1_555
H26 C22 1_555 1_555
H27 C22 1_555 1_555
C23 C22 1_555 1_555
H28 C23 1_555 1_555
H29 C23 1_555 1_555
H30 C23 1_555 1_555
C24 C18 1_555 1_555
H31 C24 1_555 1_555
H32 C24 1_555 1_555
C25 H33 1_555 1_555
H34 C25 1_555 1_555
H35 C25 1_555 1_555
C26 C24 1_555 1_555
C27 C26 1_555 1_555
H36 C27 1_555 1_555
C28 O6 1_555 1_555
C29 C28 1_555 1_555
C30 C29 1_555 1_555
H37 C30 1_555 1_555
C31 C26 1_555 1_555
C32 O5 1_555 1_555
H38 C32 1_555 1_555
H39 C32 1_555 1_555
C33 H40 1_555 1_555
H41 C33 1_555 1_555
C34 C33 1_555 1_555
H42 C34 1_555 1_555
H43 C34 1_555 1_555
H44 C34 1_555 1_555
C35 C32 1_555 1_555
H45 C35 1_555 1_555
H46 C35 1_555 1_555
C36 C29 1_555 1_555
H47 C36 1_555 1_555
H48 C36 1_555 1_555
C37 H49 1_555 1_555
H50 C37 1_555 1_555
H51 C37 1_555 1_555
C38 O7 1_555 1_555
C39 C36 1_555 1_555
C40 C39 1_555 1_555
H52 C40 1_555 1_555
C41 C40 1_555 1_555
C42 C41 1_555 1_555
C43 C38 1_555 1_555
H53 C43 1_555 1_555
C44 O8 1_555 1_555
H54 C44 1_555 1_555
H55 C44 1_555 1_555
C45 C44 1_555 1_555
H56 C45 1_555 1_555
H57 C45 1_555 1_555
C46 C45 1_555 1_555
H58 C46 1_555 1_555
H59 C46 1_555 1_555
C47 C46 1_555 1_555
H60 C47 1_555 1_555
H61 C47 1_555 1_555
H62 C47 1_555 1_555
C48 C42 1_555 1_555
H63 C48 1_555 1_555
H64 C48 1_555 1_555
C49 C48 1_555 1_555
C50 C49 1_555 1_555
H65 C50 1_555 1_555
C51 C50 1_555 1_555
C52 C51 1_555 1_555
C53 C52 1_555 1_555
H66 C53 1_555 1_555
C54 C49 1_555 1_555
C55 O10 1_555 1_555
H67 C55 1_555 1_555
H68 C55 1_555 1_555
H69 C55 1_555 1_555
C56 O9 1_555 1_555
H70 C56 1_555 1_555
H71 C56 1_555 1_555
C57 C56 1_555 1_555
H72 C57 1_555 1_555
H73 C57 1_555 1_555
C58 C57 1_555 1_555
H74 C58 1_555 1_555
H75 C58 1_555 1_555
C59 C58 1_555 1_555
H76 C59 1_555 1_555
H77 C59 1_555 1_555
H78 C59 1_555 1_555
C60 C3 1_555 1_555
H79 C60 1_555 1_555
H80 C60 1_555 1_555
C6 C7 1_555 1_555
C14 C15 1_555 1_555
C18 C19 1_555 1_555
C27 C28 1_555 1_555
C30 C31 1_555 1_555
C33 C35 1_555 1_555
C38 C39 1_555 1_555
C42 C43 1_555 1_555
C52 C60 1_555 1_555
C53 C54 1_555 1_555

#END
