
#######################################################################
#
#                 Cambridge Crystallographic Data Centre
#                                CCDC 
#
#######################################################################
#
# If this CIF has been generated from an entry in the Cambridge 
# Structural Database, then it will include bibliographic, chemical, 
# crystal, experimental, refinement or atomic coordinate data resulting 
# from the CCDC's data processing and validation procedures.
#
#######################################################################

data_OLODOJ
_chemical_name_common            
5,10,15,20,24-pentabutoxy-26,28,30,32,34-pentamethoxypillar[5]arene
_chemical_formula_moiety         'C60 H80 O10'
_chemical_name_systematic        
4,9,14,19,26-Pentabutoxy-24,28,30,32,34-pentamethoxyhexacyclo[21.2.2.2^3,6^.2^8,11^.2^13,16^.2^18,21^]pentatriaconta-1(25),3,5,8,10,13,15,18,20,23,26,28,30,32,34-pentadecaene
_symmetry_cell_setting           monoclinic
_symmetry_space_group_name_H-M   'P 21/c'
_symmetry_Int_Tables_number      14
_space_group_name_Hall           '-P 2ybc'
loop_
_symmetry_equiv_pos_site_id
_symmetry_equiv_pos_as_xyz
1 x,y,z
2 -x,1/2+y,1/2-z
3 -x,-y,-z
4 x,1/2-y,1/2+z
_cell_length_a                   11.96204(12)
_cell_length_b                   12.44483(17)
_cell_length_c                   40.2960(6)
_cell_angle_alpha                90
_cell_angle_beta                 92.4743(12)
_cell_angle_gamma                90
_cell_volume                     5993.09
_exptl_crystal_colour            colorless
_exptl_crystal_description       block
_cell_formula_units_Z            4
loop_
_atom_site_label
_atom_site_type_symbol
_atom_site_fract_x
_atom_site_fract_y
_atom_site_fract_z
O1 O -0.0359(2) -0.1805(2) 0.10800(7)
O2 O 0.31164(19) 0.2100(2) 0.25013(7)
O3 O 0.2836(2) 0.3992(2) 0.05316(8)
O4 O -0.10180(19) 0.23358(18) 0.08823(6)
O5 O 0.19507(18) -0.2081(2) 0.21779(7)
O6 O 0.5528(2) 0.04000(19) 0.07145(6)
O7 O 0.5304(2) 0.35926(19) 0.15637(6)
O8 O 0.58231(19) -0.06596(19) 0.19365(6)
O9 O -0.08479(19) 0.1271(2) 0.20536(6)
O10 O 0.18357(18) -0.00567(19) 0.01270(6)
C1 C 0.0851(10) -0.5135(6) 0.1825(2)
H1 H 0.0503 -0.5169 0.1606
H2 H 0.0284 -0.5095 0.1986
H3 H 0.1297 -0.5766 0.1864
C2 C 0.6182(6) -0.3481(5) 0.0568(2)
H4 H 0.5887 -0.4096 0.0450
H5 H 0.6168 -0.3609 0.0802
H6 H 0.6940 -0.3358 0.0507
C3 C 0.5447(7) 0.5459(4) 0.16534(14)
H7 H 0.4825 0.5618 0.1499
H8 H 0.5458 0.6007 0.1825
C4 C -0.0600(8) -0.3529(7) 0.06146(18)
H9 H -0.0893 -0.2837 0.0542
H10 H -0.1170 -0.3879 0.0741
C5 C 0.6498(9) 0.5545(5) 0.14727(16)
H11 H 0.6463 0.5060 0.1284
H12 H 0.6572 0.6271 0.1389
C6 C 0.7492(7) 0.5281(7) 0.16888(18)
H13 H 0.8155 0.5352 0.1565
H14 H 0.7432 0.4556 0.1767
H15 H 0.7533 0.5764 0.1875
C7 C 0.1599(7) -0.4133(5) 0.1853(2)
H16 H 0.2141 -0.4169 0.1681
H17 H 0.1137 -0.3505 0.1809
C8 C 0.0364(7) -0.3362(6) 0.0826(2)
H18 H 0.0904 -0.2954 0.0704
H19 H 0.0697 -0.4055 0.0878
C9 C 0.5494(4) -0.2526(4) 0.04804(14)
H20 H 0.4728 -0.2667 0.0538
H21 H 0.5495 -0.2420 0.0242
C10 C -0.0385(6) -0.4192(4) 0.03176(13)
H22 H -0.1006 -0.4130 0.0160
H23 H -0.0293 -0.4930 0.0382
H24 H 0.0284 -0.3944 0.0219
C11 C 0.2206(4) -0.3984(4) 0.21742(14)
H25 H 0.2759 -0.4549 0.2205
H26 H 0.1684 -0.4046 0.2351
C12 C 0.3128(6) 0.4937(4) 0.0707(2)
H27 H 0.2586 0.5486 0.0654
H28 H 0.3854 0.5173 0.0645
H29 H 0.3144 0.4794 0.0941
C13 C 0.0165(6) -0.2785(4) 0.11452(14)
H30 H -0.0300 -0.3224 0.1283
H31 H 0.0873 -0.2665 0.1266
C14 C -0.0807(4) 0.3436(3) 0.09339(13)
H32 H -0.1377 0.3735 0.1067
H33 H -0.0812 0.3798 0.0724
H34 H -0.0089 0.3525 0.1046
C15 C 0.5229(4) 0.4393(3) 0.18135(10)
H35 H 0.5778 0.4259 0.1993
H36 H 0.4490 0.4386 0.1904
C16 C 0.2254(4) 0.2876(3) 0.25234(13)
H37 H 0.2577 0.3560 0.2582
H38 H 0.1751 0.2660 0.2690
H39 H 0.1852 0.2933 0.2313
C17 C 0.2469(4) -0.2933(3) -0.00469(13)
H40 H 0.2554 -0.3141 0.0185
H41 H 0.1719 -0.3131 -0.0125
C18 C 0.5881(4) -0.1494(3) 0.06506(12)
H42 H 0.5853 -0.1581 0.0889
H43 H 0.6652 -0.1352 0.0599
C19 C 0.2779(3) -0.2913(3) 0.21993(12)
H44 H 0.3205 -0.2861 0.2409
H45 H 0.3291 -0.2836 0.2021
C20 C 0.3298(4) -0.3555(4) -0.02416(14)
H46 H 0.3170 -0.4310 -0.0215
H47 H 0.4044 -0.3381 -0.0162
H48 H 0.3209 -0.3369 -0.0472
C21 C 0.5175(3) -0.0565(3) 0.05442(10)
H49 H 0.5222 -0.0462 0.0307
H50 H 0.4401 -0.0714 0.0590
C22 C 0.6383(4) -0.1378(3) 0.17219(11)
H51 H 0.6418 -0.2081 0.1820
H52 H 0.7129 -0.1122 0.1691
H53 H 0.5980 -0.1414 0.1511
C23 C 0.2238(3) 0.2154(3) 0.01591(8)
H54 H 0.2026 0.2875 0.0090
H55 H 0.2404 0.1744 -0.0037
C24 C 0.4868(2) 0.0693(3) 0.23945(8)
H56 H 0.4956 0.1260 0.2559
H57 H 0.5336 0.0094 0.2468
C25 C -0.1360(4) 0.2262(3) 0.19663(10)
H58 H -0.1377 0.2714 0.2159
H59 H -0.2110 0.2135 0.1881
H60 H -0.0940 0.2610 0.1799
C26 C 0.0196(2) -0.0647(3) 0.22518(9)
H61 H 0.0123 -0.1404 0.2304
H62 H -0.0251 -0.0244 0.2404
C27 C 0.6127(2) 0.2215(3) 0.10908(8)
H63 H 0.6713 0.1762 0.1008
H64 H 0.6417 0.2942 0.1109
C28 C 0.0260(2) 0.0046(3) 0.04906(8)
H65 H 0.0158 -0.0695 0.0480
C29 C -0.0133(2) -0.1236(3) 0.16574(9)
H66 H 0.0187 -0.1893 0.1717
C30 C 0.2588(3) -0.1714(3) -0.00708(9)
H67 H 0.3329 -0.1497 0.0011
H68 H 0.2492 -0.1487 -0.0301
C31 C -0.1114(2) 0.0686(2) 0.14769(8)
H69 H -0.1453 0.1336 0.1419
C32 C -0.1346(2) 0.0122(3) 0.08740(8)
H70 H -0.1542 -0.0555 0.0767
H71 H -0.2009 0.0571 0.0867
C33 C 0.3946(3) 0.1301(3) 0.04341(8)
H72 H 0.3780 0.0690 0.0309
C34 C 0.3543(3) 0.3114(3) 0.05795(9)
C35 C 0.5122(2) 0.2165(3) 0.19754(8)
H73 H 0.4837 0.2646 0.2127
C36 C 0.1683(2) 0.0737(3) 0.23813(8)
H74 H 0.1114 0.1233 0.2411
C37 C 0.3379(2) -0.0719(3) 0.22945(8)
H75 H 0.3948 -0.1216 0.2268
C38 C 0.1718(3) -0.1199(3) 0.01323(9)
H76 H 0.0980 -0.1396 0.0044
H77 H 0.1796 -0.1455 0.0360
C39 C 0.1113(2) 0.0522(3) 0.03150(8)
C40 C 0.2269(2) -0.1053(3) 0.22580(8)
C41 C -0.0277(2) 0.1763(3) 0.06936(8)
C42 C 0.4461(3) 0.3112(3) 0.07992(8)
H78 H 0.4637 0.3730 0.0920
C43 C 0.5128(2) 0.2201(2) 0.08443(7)
C44 C -0.0485(3) -0.1061(3) 0.13283(9)
C45 C 0.4858(3) 0.1288(3) 0.06594(8)
C46 C 0.5966(2) 0.0756(2) 0.15219(8)
H79 H 0.6245 0.0273 0.1370
C47 C -0.0251(2) -0.0452(3) 0.18999(8)
C48 C 0.0572(3) 0.2242(3) 0.05191(8)
H80 H 0.0668 0.2983 0.0529
C49 C 0.1410(2) -0.0318(3) 0.23016(8)
C50 C -0.0754(2) 0.0517(3) 0.18035(8)
C51 C 0.3655(2) 0.0336(3) 0.23700(7)
C52 C 0.5694(2) 0.0390(2) 0.18342(8)
C53 C 0.3277(2) 0.2207(3) 0.03914(8)
C54 C 0.2794(3) 0.1067(3) 0.24179(8)
C55 C -0.0984(2) -0.0088(2) 0.12333(8)
C56 C 0.5249(2) 0.1097(3) 0.20630(8)
C57 C 0.5414(2) 0.2535(3) 0.16642(8)
C58 C 0.1272(2) 0.1630(3) 0.03313(8)
C59 C -0.0443(2) 0.0667(3) 0.06819(7)
C60 C 0.5831(2) 0.1824(3) 0.14323(7)
loop_
_geom_bond_atom_site_label_1
_geom_bond_atom_site_label_2
_geom_bond_site_symmetry_1
_geom_bond_site_symmetry_2
O1 C13 1_555 1_555
O2 C16 1_555 1_555
O3 C12 1_555 1_555
O4 C14 1_555 1_555
O5 C19 1_555 1_555
O6 C21 1_555 1_555
O7 C15 1_555 1_555
O8 C22 1_555 1_555
O9 C25 1_555 1_555
O10 C38 1_555 1_555
C1 H1 1_555 1_555
H2 C1 1_555 1_555
H3 C1 1_555 1_555
C2 H4 1_555 1_555
H5 C2 1_555 1_555
H6 C2 1_555 1_555
C3 H7 1_555 1_555
H8 C3 1_555 1_555
C4 H9 1_555 1_555
H10 C4 1_555 1_555
C5 C3 1_555 1_555
H11 C5 1_555 1_555
H12 C5 1_555 1_555
C6 C5 1_555 1_555
H13 C6 1_555 1_555
H14 C6 1_555 1_555
H15 C6 1_555 1_555
C7 C1 1_555 1_555
H16 C7 1_555 1_555
H17 C7 1_555 1_555
C8 C4 1_555 1_555
H18 C8 1_555 1_555
H19 C8 1_555 1_555
C9 C2 1_555 1_555
H20 C9 1_555 1_555
H21 C9 1_555 1_555
C10 C4 1_555 1_555
H22 C10 1_555 1_555
H23 C10 1_555 1_555
H24 C10 1_555 1_555
C11 C7 1_555 1_555
H25 C11 1_555 1_555
H26 C11 1_555 1_555
C12 H27 1_555 1_555
H28 C12 1_555 1_555
H29 C12 1_555 1_555
C13 C8 1_555 1_555
H30 C13 1_555 1_555
H31 C13 1_555 1_555
C14 H32 1_555 1_555
H33 C14 1_555 1_555
H34 C14 1_555 1_555
C15 C3 1_555 1_555
H35 C15 1_555 1_555
H36 C15 1_555 1_555
C16 H37 1_555 1_555
H38 C16 1_555 1_555
H39 C16 1_555 1_555
C17 H40 1_555 1_555
H41 C17 1_555 1_555
C18 C9 1_555 1_555
H42 C18 1_555 1_555
H43 C18 1_555 1_555
C19 C11 1_555 1_555
H44 C19 1_555 1_555
H45 C19 1_555 1_555
C20 C17 1_555 1_555
H46 C20 1_555 1_555
H47 C20 1_555 1_555
H48 C20 1_555 1_555
C21 C18 1_555 1_555
H49 C21 1_555 1_555
H50 C21 1_555 1_555
C22 H51 1_555 1_555
H52 C22 1_555 1_555
H53 C22 1_555 1_555
C23 H54 1_555 1_555
H55 C23 1_555 1_555
C24 H56 1_555 1_555
H57 C24 1_555 1_555
C25 H58 1_555 1_555
H59 C25 1_555 1_555
H60 C25 1_555 1_555
C26 H61 1_555 1_555
H62 C26 1_555 1_555
C27 H63 1_555 1_555
H64 C27 1_555 1_555
C28 H65 1_555 1_555
C29 H66 1_555 1_555
C30 C17 1_555 1_555
H67 C30 1_555 1_555
H68 C30 1_555 1_555
C31 H69 1_555 1_555
C32 H70 1_555 1_555
H71 C32 1_555 1_555
C33 H72 1_555 1_555
C34 O3 1_555 1_555
C35 H73 1_555 1_555
C36 H74 1_555 1_555
C37 H75 1_555 1_555
C38 C30 1_555 1_555
H76 C38 1_555 1_555
H77 C38 1_555 1_555
C39 O10 1_555 1_555
C40 O5 1_555 1_555
C41 O4 1_555 1_555
C42 C34 1_555 1_555
H78 C42 1_555 1_555
C43 C27 1_555 1_555
C44 O1 1_555 1_555
C45 O6 1_555 1_555
C46 H79 1_555 1_555
C47 C26 1_555 1_555
C48 C41 1_555 1_555
H80 C48 1_555 1_555
C49 C26 1_555 1_555
C50 O9 1_555 1_555
C51 C24 1_555 1_555
C52 O8 1_555 1_555
C53 C23 1_555 1_555
C54 O2 1_555 1_555
C55 C31 1_555 1_555
C56 C24 1_555 1_555
C57 O7 1_555 1_555
C58 C23 1_555 1_555
C59 C28 1_555 1_555
C60 C27 1_555 1_555
C28 C39 1_555 1_555
C29 C44 1_555 1_555
C29 C47 1_555 1_555
C31 C50 1_555 1_555
C32 C55 1_555 1_555
C32 C59 1_555 1_555
C33 C45 1_555 1_555
C33 C53 1_555 1_555
C34 C53 1_555 1_555
C35 C56 1_555 1_555
C35 C57 1_555 1_555
C36 C49 1_555 1_555
C36 C54 1_555 1_555
C37 C40 1_555 1_555
C37 C51 1_555 1_555
C39 C58 1_555 1_555
C40 C49 1_555 1_555
C41 C59 1_555 1_555
C42 C43 1_555 1_555
C43 C45 1_555 1_555
C44 C55 1_555 1_555
C46 C52 1_555 1_555
C46 C60 1_555 1_555
C47 C50 1_555 1_555
C48 C58 1_555 1_555
C51 C54 1_555 1_555
C52 C56 1_555 1_555
C57 C60 1_555 1_555

#END
