
#######################################################################
#
#                 Cambridge Crystallographic Data Centre
#                                CCDC 
#
#######################################################################
#
# If this CIF has been generated from an entry in the Cambridge 
# Structural Database, then it will include bibliographic, chemical, 
# crystal, experimental, refinement or atomic coordinate data resulting 
# from the CCDC's data processing and validation procedures.
#
#######################################################################

data_OLOGUS
_chemical_formula_moiety         'C17 H20 Cl1 N1 O4'
_chemical_name_systematic        
'7-Ethyl 4-methyl 6-(4-chlorophenyl)-5-azaspiro[2.4]heptane-4,7-dicarboxylate'
_symmetry_cell_setting           monoclinic
_symmetry_space_group_name_H-M   'P 21'
_symmetry_Int_Tables_number      4
_space_group_name_Hall           'P 2yb'
loop_
_symmetry_equiv_pos_site_id
_symmetry_equiv_pos_as_xyz
1 x,y,z
2 -x,1/2+y,-z
_cell_length_a                   9.479(2)
_cell_length_b                   27.837(6)
_cell_length_c                   13.143(3)
_cell_angle_alpha                90
_cell_angle_beta                 90.399(3)
_cell_angle_gamma                90
_cell_volume                     3467.92
_exptl_crystal_colour            'pale yellow'
_exptl_crystal_description       block
_cell_formula_units_Z            8
loop_
_atom_site_label
_atom_site_type_symbol
_atom_site_fract_x
_atom_site_fract_y
_atom_site_fract_z
Cl1 Cl 0.34305(14) 0.96020(5) 0.37934(13)
O1 O 0.8306(5) 0.79921(14) 0.2150(3)
O2 O 0.7762(4) 0.82339(13) 0.0619(3)
O3 O 1.1489(4) 0.78874(14) 0.3622(2)
O4 O 1.3461(4) 0.82469(13) 0.3113(3)
N1 N 1.0060(4) 0.87569(13) 0.3237(2)
H1 H 0.9845 0.8699 0.3860
C1 C 0.5078(5) 0.93978(18) 0.3377(4)
C2 C 0.5576(5) 0.95565(18) 0.2463(4)
H2 H 0.5039 0.9758 0.2049
C3 C 0.6900(5) 0.94075(18) 0.2178(3)
H3 H 0.7252 0.9511 0.1557
C4 C 0.7728(5) 0.91114(14) 0.2773(3)
C5 C 0.7171(6) 0.89581(19) 0.3672(4)
H4 H 0.7696 0.8754 0.4088
C6 C 0.5824(6) 0.91024(18) 0.3977(4)
H5 H 0.5452 0.8994 0.4589
C7 C 0.9212(4) 0.90012(15) 0.2470(3)
H6 H 0.9670 0.9311 0.2346
C8 C 0.9414(5) 0.86979(14) 0.1489(3)
H7 H 0.9270 0.8895 0.0879
C9 C 0.8436(5) 0.82699(16) 0.1482(3)
C10 C 0.6905(9) 0.7788(3) 0.0470(6)
H8 H 0.7125 0.7646 -0.0184
H9 H 0.7145 0.7556 0.0995
C11 C 0.5603(9) 0.7880(4) 0.0507(10)
H10 H 0.5393 0.8034 0.1142
H11 H 0.5076 0.7586 0.0452
H12 H 0.5351 0.8089 -0.0045
C12 C 1.0949(5) 0.85453(14) 0.1591(3)
C13 C 1.1982(6) 0.86412(18) 0.0759(4)
H13 H 1.1629 0.8788 0.0138
H14 H 1.2931 0.8736 0.0954
C14 C 1.1534(6) 0.8138(2) 0.0988(4)
H15 H 1.0912 0.7980 0.0504
H16 H 1.2213 0.7928 0.1320
C15 C 1.1356(5) 0.86324(15) 0.2711(3)
H17 H 1.1996 0.8909 0.2743
C16 C 1.2071(6) 0.82117(19) 0.3208(3)
C17 C 1.4301(6) 0.7859(2) 0.3542(6)
H18 H 1.4117 0.7833 0.4257
H19 H 1.5284 0.7925 0.3440
H20 H 1.4056 0.7563 0.3211
Cl2 Cl 0.32467(15) 0.96237(5) 0.84946(12)
O5 O 0.8025(6) 0.82369(16) 0.5507(3)
O6 O 0.7967(4) 0.81009(11) 0.7143(2)
O7 O 1.0322(4) 0.77461(11) 0.8660(2)
O8 O 1.2585(4) 0.78305(12) 0.8284(2)
N2 N 0.9847(4) 0.87098(12) 0.8384(2)
H21 H 0.9547 0.8674 0.8995
C18 C 0.4958(5) 0.94310(15) 0.8221(4)
C19 C 0.5565(6) 0.95537(17) 0.7333(4)
H22 H 0.5068 0.9738 0.6862
C20 C 0.6924(6) 0.94058(18) 0.7124(3)
H23 H 0.7335 0.9488 0.6508
C21 C 0.7672(5) 0.91388(13) 0.7818(3)
C22 C 0.7036(6) 0.90218(18) 0.8717(3)
H24 H 0.7527 0.8841 0.9198
C23 C 0.5677(6) 0.91685(17) 0.8917(4)
H25 H 0.5256 0.9087 0.9530
C24 C 0.9197(5) 0.90002(14) 0.7592(3)
H26 H 0.9739 0.9299 0.7548
C25 C 0.9446(5) 0.87190(15) 0.6584(3)
H27 H 0.9489 0.8947 0.6017
C26 C 0.8404(6) 0.83360(17) 0.6338(3)
C27 C 0.7039(7) 0.7698(2) 0.6991(4)
H28 H 0.7327 0.7523 0.6388
H29 H 0.7118 0.7482 0.7568
C28 C 0.5601(7) 0.7846(4) 0.6874(8)
H30 H 0.5348 0.8052 0.7431
H31 H 0.5000 0.7569 0.6868
H32 H 0.5492 0.8018 0.6245
C29 C 1.0909(5) 0.85139(15) 0.6781(3)
C30 C 1.1581(6) 0.8160(2) 0.6067(4)
H33 H 1.2160 0.7908 0.6362
H34 H 1.1048 0.8065 0.5467
C31 C 1.2124(7) 0.86516(19) 0.6107(4)
H35 H 1.1925 0.8860 0.5532
H36 H 1.3037 0.8702 0.6428
C32 C 1.1100(5) 0.84903(14) 0.7953(3)
H37 H 1.1933 0.8677 0.8153
C33 C 1.1251(6) 0.79871(16) 0.8334(3)
C34 C 1.2825(6) 0.73407(18) 0.8624(5)
H38 H 1.2493 0.7305 0.9309
H39 H 1.3817 0.7271 0.8603
H40 H 1.2326 0.7123 0.8186
Cl3 Cl 1.16724(14) -0.00483(5) 1.13111(13)
O9 O 0.6813(5) 0.15541(14) 0.9702(3)
O10 O 0.7257(4) 0.13354(14) 0.8148(3)
O11 O 0.3583(4) 0.16673(14) 1.1124(2)
O12 O 0.1596(4) 0.13021(13) 1.0613(3)
N3 N 0.4994(4) 0.07917(12) 1.0751(2)
H41 H 0.5208 0.0844 1.1379
C35 C 1.0019(5) 0.01521(17) 1.0900(4)
C36 C 0.9237(6) 0.0436(2) 1.1528(4)
H42 H 0.9601 0.0532 1.2155
C37 C 0.7899(5) 0.05797(18) 1.1228(4)
H43 H 0.7371 0.0775 1.1656
C38 C 0.7334(5) 0.04373(15) 1.0300(3)
C39 C 0.8179(5) 0.01550(17) 0.9686(4)
H44 H 0.7838 0.0061 0.9052
C40 C 0.9506(5) 0.00094(18) 0.9983(4)
H45 H 1.0045 -0.0185 0.9561
C41 C 0.5849(5) 0.05525(15) 0.9978(3)
H46 H 0.5388 0.0244 0.9837
C42 C 0.5653(5) 0.08627(15) 0.9007(3)
H47 H 0.5797 0.0670 0.8393
C43 C 0.6625(5) 0.12849(16) 0.9025(3)
C44 C 0.8132(10) 0.1786(3) 0.8021(7)
H48 H 0.7924 0.1932 0.7368
H49 H 0.7901 0.2014 0.8551
C45 C 0.9421(10) 0.1680(4) 0.8073(11)
H50 H 0.9593 0.1490 0.8670
H51 H 0.9970 0.1969 0.8109
H52 H 0.9682 0.1501 0.7480
C46 C 0.4120(5) 0.10194(14) 0.9092(3)
C47 C 0.3076(6) 0.09306(19) 0.8254(3)
H53 H 0.2129 0.0835 0.8443
H54 H 0.3419 0.0788 0.7630
C48 C 0.3530(6) 0.14332(18) 0.8500(3)
H55 H 0.4148 0.1594 0.8024
H56 H 0.2857 0.1641 0.8837
C49 C 0.3706(5) 0.09208(16) 1.0217(3)
H57 H 0.3058 0.0647 1.0234
C50 C 0.3007(6) 0.13449(19) 1.0721(3)
C51 C 0.0789(7) 0.1695(2) 1.1064(5)
H58 H 0.1056 0.1732 1.1765
H59 H -0.0201 0.1624 1.1018
H60 H 0.0981 0.1988 1.0704
Cl4 Cl 1.16257(13) -0.00392(5) 0.60006(11)
O13 O 0.6745(5) 0.13273(16) 0.2977(3)
O14 O 0.6856(3) 0.14819(10) 0.4611(2)
O15 O 0.4541(3) 0.18369(11) 0.6145(2)
O16 O 0.2258(3) 0.17393(11) 0.5800(2)
N4 N 0.5037(3) 0.08755(12) 0.5890(2)
H61 H 0.5358 0.0916 0.6498
C52 C 0.9927(5) 0.01512(15) 0.5712(4)
C53 C 0.9224(5) 0.04276(16) 0.6410(3)
H62 H 0.9667 0.0516 0.7016
C54 C 0.7857(5) 0.05746(17) 0.6210(3)
H63 H 0.7387 0.0762 0.6685
C55 C 0.7178(4) 0.04479(13) 0.5319(3)
C56 C 0.7906(5) 0.01671(16) 0.4632(3)
H64 H 0.7468 0.0075 0.4027
C57 C 0.9279(5) 0.00206(17) 0.4830(3)
H65 H 0.9756 -0.0167 0.4359
C58 C 0.5675(4) 0.05815(14) 0.5090(3)
H66 H 0.5137 0.0281 0.5058
C59 C 0.5378(5) 0.08534(14) 0.4084(3)
H67 H 0.5322 0.0623 0.3521
C60 C 0.6408(5) 0.12352(16) 0.3832(3)
C61 C 0.7811(6) 0.18736(18) 0.4439(4)
H68 H 0.7764 0.2095 0.5009
H69 H 0.7519 0.2046 0.3832
C62 C 0.9260(7) 0.1713(3) 0.4320(6)
H70 H 0.9470 0.1471 0.4818
H71 H 0.9887 0.1981 0.4412
H72 H 0.9379 0.1583 0.3650
C63 C 0.3908(5) 0.10595(14) 0.4288(3)
C64 C 0.2666(6) 0.0912(2) 0.3635(4)
H73 H 0.2844 0.0701 0.3064
H74 H 0.1766 0.0864 0.3967
C65 C 0.3230(6) 0.14095(19) 0.3585(4)
H75 H 0.2669 0.1664 0.3882
H76 H 0.3745 0.1501 0.2980
C66 C 0.3756(4) 0.10856(14) 0.5460(3)
H77 H 0.2937 0.0896 0.5670
C67 C 0.3606(5) 0.15939(16) 0.5838(3)
C68 C 0.2017(6) 0.22322(18) 0.6116(4)
H78 H 0.2369 0.2277 0.6796
H79 H 0.1023 0.2299 0.6097
H80 H 0.2498 0.2446 0.5663
loop_
_geom_bond_atom_site_label_1
_geom_bond_atom_site_label_2
_geom_bond_site_symmetry_1
_geom_bond_site_symmetry_2
Cl1 C1 1_555 1_555
O1 C9 1_555 1_555
O2 C9 1_555 1_555
O3 C16 1_555 1_555
O4 C16 1_555 1_555
N1 H1 1_555 1_555
C1 C2 1_555 1_555
C2 H2 1_555 1_555
C3 C2 1_555 1_555
H3 C3 1_555 1_555
C4 C3 1_555 1_555
C5 C4 1_555 1_555
H4 C5 1_555 1_555
C6 C1 1_555 1_555
H5 C6 1_555 1_555
C7 N1 1_555 1_555
H6 C7 1_555 1_555
C8 C7 1_555 1_555
H7 C8 1_555 1_555
C9 C8 1_555 1_555
C10 O2 1_555 1_555
H8 C10 1_555 1_555
H9 C10 1_555 1_555
C11 C10 1_555 1_555
H10 C11 1_555 1_555
H11 C11 1_555 1_555
H12 C11 1_555 1_555
C12 C8 1_555 1_555
C13 C12 1_555 1_555
H13 C13 1_555 1_555
H14 C13 1_555 1_555
C14 C12 1_555 1_555
H15 C14 1_555 1_555
H16 C14 1_555 1_555
C15 N1 1_555 1_555
H17 C15 1_555 1_555
C16 C15 1_555 1_555
C17 O4 1_555 1_555
H18 C17 1_555 1_555
H19 C17 1_555 1_555
H20 C17 1_555 1_555
Cl2 C18 1_555 1_555
O5 C26 1_555 1_555
O6 C26 1_555 1_555
O7 C33 1_555 1_555
O8 C33 1_555 1_555
N2 H21 1_555 1_555
C18 C19 1_555 1_555
C19 H22 1_555 1_555
C20 C19 1_555 1_555
H23 C20 1_555 1_555
C21 C20 1_555 1_555
C22 C21 1_555 1_555
H24 C22 1_555 1_555
C23 C18 1_555 1_555
H25 C23 1_555 1_555
C24 N2 1_555 1_555
H26 C24 1_555 1_555
C25 C24 1_555 1_555
H27 C25 1_555 1_555
C26 C25 1_555 1_555
C27 O6 1_555 1_555
H28 C27 1_555 1_555
H29 C27 1_555 1_555
C28 C27 1_555 1_555
H30 C28 1_555 1_555
H31 C28 1_555 1_555
H32 C28 1_555 1_555
C29 C25 1_555 1_555
C30 C29 1_555 1_555
H33 C30 1_555 1_555
H34 C30 1_555 1_555
C31 C29 1_555 1_555
H35 C31 1_555 1_555
H36 C31 1_555 1_555
C32 N2 1_555 1_555
H37 C32 1_555 1_555
C33 C32 1_555 1_555
C34 O8 1_555 1_555
H38 C34 1_555 1_555
H39 C34 1_555 1_555
H40 C34 1_555 1_555
Cl3 C35 1_555 1_555
O9 C43 1_555 1_555
O10 C43 1_555 1_555
O11 C50 1_555 1_555
O12 C50 1_555 1_555
N3 H41 1_555 1_555
C35 C36 1_555 1_555
C36 H42 1_555 1_555
C37 C36 1_555 1_555
H43 C37 1_555 1_555
C38 C37 1_555 1_555
C39 C38 1_555 1_555
H44 C39 1_555 1_555
C40 C35 1_555 1_555
H45 C40 1_555 1_555
C41 N3 1_555 1_555
H46 C41 1_555 1_555
C42 C41 1_555 1_555
H47 C42 1_555 1_555
C43 C42 1_555 1_555
C44 O10 1_555 1_555
H48 C44 1_555 1_555
H49 C44 1_555 1_555
C45 C44 1_555 1_555
H50 C45 1_555 1_555
H51 C45 1_555 1_555
H52 C45 1_555 1_555
C46 C42 1_555 1_555
C47 C46 1_555 1_555
H53 C47 1_555 1_555
H54 C47 1_555 1_555
C48 C46 1_555 1_555
H55 C48 1_555 1_555
H56 C48 1_555 1_555
C49 N3 1_555 1_555
H57 C49 1_555 1_555
C50 C49 1_555 1_555
C51 O12 1_555 1_555
H58 C51 1_555 1_555
H59 C51 1_555 1_555
H60 C51 1_555 1_555
Cl4 C52 1_555 1_555
O13 C60 1_555 1_555
O14 C60 1_555 1_555
O15 C67 1_555 1_555
O16 C67 1_555 1_555
N4 H61 1_555 1_555
C52 C53 1_555 1_555
C53 H62 1_555 1_555
C54 C53 1_555 1_555
H63 C54 1_555 1_555
C55 C54 1_555 1_555
C56 C55 1_555 1_555
H64 C56 1_555 1_555
C57 C52 1_555 1_555
H65 C57 1_555 1_555
C58 N4 1_555 1_555
H66 C58 1_555 1_555
C59 C58 1_555 1_555
H67 C59 1_555 1_555
C60 C59 1_555 1_555
C61 O14 1_555 1_555
H68 C61 1_555 1_555
H69 C61 1_555 1_555
C62 C61 1_555 1_555
H70 C62 1_555 1_555
H71 C62 1_555 1_555
H72 C62 1_555 1_555
C63 C59 1_555 1_555
C64 C63 1_555 1_555
H73 C64 1_555 1_555
H74 C64 1_555 1_555
C65 C63 1_555 1_555
H75 C65 1_555 1_555
H76 C65 1_555 1_555
C66 N4 1_555 1_555
H77 C66 1_555 1_555
C67 C66 1_555 1_555
C68 O16 1_555 1_555
H78 C68 1_555 1_555
H79 C68 1_555 1_555
H80 C68 1_555 1_555
C4 C7 1_555 1_555
C5 C6 1_555 1_555
C12 C15 1_555 1_555
C13 C14 1_555 1_555
C21 C24 1_555 1_555
C22 C23 1_555 1_555
C29 C32 1_555 1_555
C30 C31 1_555 1_555
C38 C41 1_555 1_555
C39 C40 1_555 1_555
C46 C49 1_555 1_555
C47 C48 1_555 1_555
C55 C58 1_555 1_555
C56 C57 1_555 1_555
C63 C66 1_555 1_555
C64 C65 1_555 1_555

#END
