
#######################################################################
#
#                 Cambridge Crystallographic Data Centre
#                                CCDC 
#
#######################################################################
#
# If this CIF has been generated from an entry in the Cambridge 
# Structural Database, then it will include bibliographic, chemical, 
# crystal, experimental, refinement or atomic coordinate data resulting 
# from the CCDC's data processing and validation procedures.
#
#######################################################################

data_OLOMAF
_chemical_formula_moiety         'C16 H16 O4'
_chemical_name_systematic        
3-(3-furyl)-3a-methyl-3a,4,5,5a,6,8b-hexahydro-1H-indeno[4,5-c]furan-1,7(3H)-dione
_symmetry_cell_setting           monoclinic
_symmetry_space_group_name_H-M   'P 21'
_symmetry_Int_Tables_number      4
_space_group_name_Hall           'P 2yb'
loop_
_symmetry_equiv_pos_site_id
_symmetry_equiv_pos_as_xyz
1 x,y,z
2 -x,1/2+y,-z
_cell_length_a                   6.6975(3)
_cell_length_b                   10.8025(4)
_cell_length_c                   9.5075(7)
_cell_angle_alpha                90
_cell_angle_beta                 97.412(7)
_cell_angle_gamma                90
_cell_volume                     682.118
_exptl_crystal_colour            colorless
_exptl_crystal_description       prism
_cell_formula_units_Z            2
loop_
_atom_site_label
_atom_site_type_symbol
_atom_site_fract_x
_atom_site_fract_y
_atom_site_fract_z
O1 O 0.5676(6) 1.3666(3) 0.2583(4)
O2 O 1.0956(6) 0.6014(4) 0.0125(4)
O3 O 0.7424(4) 1.0382(2) 0.4649(2)
O4 O 1.0523(4) 0.9668(3) 0.4542(3)
C1 C 0.6550(8) 1.2613(4) 0.3149(5)
H1 H 0.7912 1.2530 0.3481
C2 C 0.5173(6) 1.1702(3) 0.3166(4)
C3 C 0.5495(6) 1.0414(3) 0.3752(4)
H2 H 0.4428 1.0226 0.4334
C4 C 0.5600(5) 0.9355(3) 0.2674(3)
C5 C 0.7892(5) 0.9360(3) 0.2538(3)
H3 H 0.8156 0.9984 0.1836
C6 C 0.8650(5) 0.8137(3) 0.2110(3)
C7 C 0.9676(5) 0.7890(3) 0.1035(4)
H4 H 1.0101 0.8475 0.0420
C8 C 1.0031(6) 0.6558(4) 0.0968(4)
C9 C 0.8049(6) 0.6984(3) 0.2846(4)
H5 H 0.8636 0.7007 0.3844
C10 C 0.9022(8) 0.5942(4) 0.2091(5)
H6 H 0.9997 0.5500 0.2750
H7 H 0.8012 0.5361 0.1674
C11 C 0.5766(7) 0.6968(3) 0.2753(5)
H8 H 0.5344 0.6257 0.3264
H9 H 0.5179 0.6896 0.1769
C12 C 0.5025(6) 0.8152(4) 0.3386(4)
H10 H 0.5561 0.8184 0.4383
H11 H 0.3570 0.8114 0.3326
C13 C 0.4341(6) 0.9568(4) 0.1253(4)
H12 H 0.2967 0.9714 0.1394
H13 H 0.4410 0.8851 0.0665
H14 H 0.4847 1.0275 0.0799
C14 C 0.8815(6) 0.9785(3) 0.3991(4)
C15 C 0.3313(7) 1.2252(4) 0.2574(5)
H15 H 0.2059 1.1869 0.2449
C16 C 0.3708(8) 1.3403(4) 0.2240(5)
H16 H 0.2752 1.3961 0.1822
loop_
_geom_bond_atom_site_label_1
_geom_bond_atom_site_label_2
_geom_bond_site_symmetry_1
_geom_bond_site_symmetry_2
O1 C1 1_555 1_555
O2 C8 1_555 1_555
O3 C3 1_555 1_555
O4 C14 1_555 1_555
C1 H1 1_555 1_555
C2 C1 1_555 1_555
C3 C2 1_555 1_555
H2 C3 1_555 1_555
C4 C3 1_555 1_555
C5 C4 1_555 1_555
H3 C5 1_555 1_555
C6 C5 1_555 1_555
C7 C6 1_555 1_555
H4 C7 1_555 1_555
C8 C7 1_555 1_555
C9 C6 1_555 1_555
H5 C9 1_555 1_555
C10 C8 1_555 1_555
H6 C10 1_555 1_555
H7 C10 1_555 1_555
C11 C9 1_555 1_555
H8 C11 1_555 1_555
H9 C11 1_555 1_555
C12 C4 1_555 1_555
H10 C12 1_555 1_555
H11 C12 1_555 1_555
C13 C4 1_555 1_555
H12 C13 1_555 1_555
H13 C13 1_555 1_555
H14 C13 1_555 1_555
C14 O3 1_555 1_555
C15 C2 1_555 1_555
H15 C15 1_555 1_555
C16 O1 1_555 1_555
H16 C16 1_555 1_555
C5 C14 1_555 1_555
C9 C10 1_555 1_555
C11 C12 1_555 1_555
C15 C16 1_555 1_555

#END
