
#######################################################################
#
#                 Cambridge Crystallographic Data Centre
#                                CCDC 
#
#######################################################################
#
# If this CIF has been generated from an entry in the Cambridge 
# Structural Database, then it will include bibliographic, chemical, 
# crystal, experimental, refinement or atomic coordinate data resulting 
# from the CCDC's data processing and validation procedures.
#
#######################################################################

data_OLONUY
_chemical_formula_moiety         'C30 H41 Br1 O4'
_chemical_name_systematic        
8-Bromo-12-hydroxy-14-isopropyl-5,5,17-trimethyl-15-(2-methylprop-1-en-1-yl)-21-oxahexacyclo(12.5.1.1^9,12^.0^1,11^.0^4,9^.0^11,16^)henicos-17-ene-13,20-dione
_symmetry_cell_setting           monoclinic
_symmetry_space_group_name_H-M   'P 21/c'
_symmetry_Int_Tables_number      14
_space_group_name_Hall           '-P 2ybc'
loop_
_symmetry_equiv_pos_site_id
_symmetry_equiv_pos_as_xyz
1 x,y,z
2 x,1/2-y,1/2+z
3 -x,-y,-z
4 -x,1/2+y,1/2-z
_cell_length_a                   13.308(4)
_cell_length_b                   15.807(5)
_cell_length_c                   13.969(4)
_cell_angle_alpha                90
_cell_angle_beta                 110.223(5)
_cell_angle_gamma                90
_cell_volume                     2757.37
_exptl_crystal_colour            colorless
_exptl_crystal_description       cubic
_cell_formula_units_Z            4
loop_
_atom_site_label
_atom_site_type_symbol
_atom_site_fract_x
_atom_site_fract_y
_atom_site_fract_z
Br1 Br 0.35839(7) -0.10932(6) 0.83185(7)
O1 O 0.5815(4) -0.0707(3) 0.6399(3)
H1 H 0.5451 -0.0678 0.5792
O2 O 0.5030(3) 0.0493(3) 0.6813(3)
C1 C 0.4800(5) 0.0182(5) 0.7709(5)
C2 C 0.5998(5) 0.0133(4) 0.6826(4)
C3 C 0.3865(5) -0.0440(5) 0.7248(6)
H2 H 0.4073 -0.0837 0.6812
C4 C 0.6683(5) 0.0059(4) 0.7943(5)
C5 C 0.4502(6) 0.0928(4) 0.8242(6)
H3 H 0.4346 0.0678 0.8817
C6 C 0.2874(6) 0.0017(5) 0.6594(6)
H4 H 0.2291 -0.0386 0.6348
H5 H 0.3003 0.0253 0.6006
C7 C 0.5848(5) -0.0259(4) 0.8370(5)
H6 H 0.6034 -0.0102 0.9082
H7 H 0.5778 -0.0869 0.8311
C8 C 0.3443(6) 0.1391(5) 0.7603(7)
C9 C 0.2541(6) 0.0725(6) 0.7160(7)
H8 H 0.2351 0.0484 0.7713
H9 H 0.1911 0.1004 0.6697
O3 O 0.6120(4) 0.0820(3) 0.5351(4)
O4 O 0.8447(4) 0.1854(3) 0.8103(4)
C10 C 0.8334(5) 0.1177(4) 0.6159(5)
H10 H 0.8167 0.0824 0.5547
C11 C 0.9558(6) 0.1187(5) 0.6647(6)
H11 H 0.9760 0.1458 0.7302
H12 H 0.9857 0.1492 0.6215
H13 H 0.9822 0.0616 0.6731
C12 C 0.9170(6) -0.1148(5) 0.6517(6)
C13 C 0.7126(5) 0.0941(4) 0.8380(5)
C14 C 0.8327(6) -0.0744(4) 0.6548(5)
H14 H 0.7690 -0.0860 0.6019
C15 C 0.8431(5) -0.0553(5) 0.9117(5)
C16 C 0.6552(5) 0.0619(4) 0.6231(6)
C17 C 0.8251(5) -0.0126(4) 0.7315(5)
H15 H 0.8988 -0.0011 0.7759
C18 C 0.7809(6) 0.0857(4) 0.9520(5)
H16 H 0.8286 0.1340 0.9722
H17 H 0.7341 0.0868 0.9919
C19 C 0.8455(6) 0.0070(5) 0.9757(6)
H18 H 0.8925 0.0008 1.0423
C20 C 0.7656(5) -0.0494(4) 0.8031(4)
H19 H 0.7402 -0.1065 0.7795
C21 C 0.7757(5) 0.0767(4) 0.6831(5)
C22 C 0.9107(6) -0.1322(5) 0.9379(6)
H20 H 0.9661 -0.1245 1.0030
H21 H 0.9424 -0.1419 0.8867
H22 H 0.8673 -0.1799 0.9410
C23 C 0.3565(7) 0.1953(5) 0.6772(7)
H23 H 0.2910 0.2255 0.6447
H24 H 0.3727 0.1611 0.6276
H25 H 0.4136 0.2348 0.7065
C24 C 0.3050(7) 0.1967(6) 0.8321(7)
H26 H 0.3525 0.2441 0.8546
H27 H 0.3046 0.1645 0.8903
H28 H 0.2340 0.2167 0.7955
C25 C 0.6298(5) 0.1663(4) 0.8250(5)
H29 H 0.6689 0.2175 0.8533
H30 H 0.5942 0.1758 0.7525
C26 C 0.5432(6) 0.1536(5) 0.8732(5)
H31 H 0.5790 0.1349 0.9429
H32 H 0.5126 0.2087 0.8768
C27 C 0.7827(5) 0.1261(5) 0.7803(5)
C28 C 1.0301(6) -0.1058(5) 0.7256(7)
H33 H 1.0346 -0.0573 0.7682
H34 H 1.0781 -0.0987 0.6883
H35 H 1.0495 -0.1556 0.7672
C29 C 0.7924(6) 0.2053(5) 0.5793(6)
H36 H 0.8189 0.2447 0.6346
H37 H 0.7156 0.2052 0.5551
H38 H 0.8169 0.2216 0.5248
C30 C 0.9085(8) -0.1817(6) 0.5713(7)
H39 H 0.9337 -0.2349 0.6040
H40 H 0.9513 -0.1653 0.5314
H41 H 0.8351 -0.1872 0.5276
loop_
_geom_bond_atom_site_label_1
_geom_bond_atom_site_label_2
_geom_bond_site_symmetry_1
_geom_bond_site_symmetry_2
Br1 C3 1_555 1_555
O1 H1 1_555 1_555
O2 C1 1_555 1_555
C1 C3 1_555 1_555
C2 O1 1_555 1_555
C3 H2 1_555 1_555
C4 C2 1_555 1_555
C5 C1 1_555 1_555
H3 C5 1_555 1_555
C6 C3 1_555 1_555
H4 C6 1_555 1_555
H5 C6 1_555 1_555
C7 C1 1_555 1_555
H6 C7 1_555 1_555
H7 C7 1_555 1_555
C8 C5 1_555 1_555
C9 C6 1_555 1_555
H8 C9 1_555 1_555
H9 C9 1_555 1_555
O3 C16 1_555 1_555
O4 C27 1_555 1_555
C10 H10 1_555 1_555
C11 C10 1_555 1_555
H11 C11 1_555 1_555
H12 C11 1_555 1_555
H13 C11 1_555 1_555
C12 C14 1_555 1_555
C13 C4 1_555 1_555
C14 H14 1_555 1_555
C15 C19 1_555 1_555
C16 C2 1_555 1_555
C17 C14 1_555 1_555
H15 C17 1_555 1_555
C18 C13 1_555 1_555
H16 C18 1_555 1_555
H17 C18 1_555 1_555
C19 C18 1_555 1_555
H18 C19 1_555 1_555
C20 C4 1_555 1_555
H19 C20 1_555 1_555
C21 C10 1_555 1_555
C22 C15 1_555 1_555
H20 C22 1_555 1_555
H21 C22 1_555 1_555
H22 C22 1_555 1_555
C23 C8 1_555 1_555
H23 C23 1_555 1_555
H24 C23 1_555 1_555
H25 C23 1_555 1_555
C24 C8 1_555 1_555
H26 C24 1_555 1_555
H27 C24 1_555 1_555
H28 C24 1_555 1_555
C25 C13 1_555 1_555
H29 C25 1_555 1_555
H30 C25 1_555 1_555
C26 C5 1_555 1_555
H31 C26 1_555 1_555
H32 C26 1_555 1_555
C27 C13 1_555 1_555
C28 C12 1_555 1_555
H33 C28 1_555 1_555
H34 C28 1_555 1_555
H35 C28 1_555 1_555
C29 C10 1_555 1_555
H36 C29 1_555 1_555
H37 C29 1_555 1_555
H38 C29 1_555 1_555
C30 C12 1_555 1_555
H39 C30 1_555 1_555
H40 C30 1_555 1_555
H41 C30 1_555 1_555
O2 C2 1_555 1_555
C4 C7 1_555 1_555
C8 C9 1_555 1_555
C15 C20 1_555 1_555
C16 C21 1_555 1_555
C17 C21 1_555 1_555
C17 C20 1_555 1_555
C21 C27 1_555 1_555
C25 C26 1_555 1_555

#END
