
#######################################################################
#
#                 Cambridge Crystallographic Data Centre
#                                CCDC 
#
#######################################################################
#
# If this CIF has been generated from an entry in the Cambridge 
# Structural Database, then it will include bibliographic, chemical, 
# crystal, experimental, refinement or atomic coordinate data resulting 
# from the CCDC's data processing and validation procedures.
#
#######################################################################

data_OLONOS
_chemical_formula_moiety         'C31 H44 O4'
_chemical_name_systematic        
3-Hydroxy-2-isopropyl-15-(3-methoxy-3-methylbut-1-en-1-yl)-9,9,14-trimethyl-7,8,9,9a,10,11-hexahydro-5H-4a,11a-but(2)enodibenzo(a,d)cycloheptene-1,4-dione
_symmetry_cell_setting           orthorhombic
_symmetry_space_group_name_H-M   'P b c a'
_symmetry_Int_Tables_number      61
_space_group_name_Hall           '-P 2ac 2ab'
loop_
_symmetry_equiv_pos_site_id
_symmetry_equiv_pos_as_xyz
1 x,y,z
2 1/2+x,y,1/2-z
3 x,1/2-y,1/2+z
4 1/2-x,1/2+y,z
5 -x,-y,-z
6 1/2-x,-y,1/2+z
7 -x,1/2+y,1/2-z
8 1/2+x,1/2-y,-z
_cell_length_a                   12.679(5)
_cell_length_b                   20.791(10)
_cell_length_c                   21.054(10)
_cell_angle_alpha                90
_cell_angle_beta                 90
_cell_angle_gamma                90
_cell_volume                     5550.03
_exptl_crystal_colour            colorless
_exptl_crystal_description       prism
_cell_formula_units_Z            8
loop_
_atom_site_label
_atom_site_type_symbol
_atom_site_fract_x
_atom_site_fract_y
_atom_site_fract_z
H1 H 0.545(8) 0.250(4) 0.477(5)
O1 O 0.3334(4) 0.2429(2) 0.29585(19)
C1 C 0.3523(9) 0.3608(3) 0.6306(3)
C2 C 0.4733(3) 0.05132(18) 0.60905(18)
C3 C 0.5788(3) 0.04809(19) 0.60232(19)
H2 H 0.6062 0.0554 0.5620
C4 C 0.6556(4) 0.0337(2) 0.6544(2)
H3 H 0.7103 0.0663 0.6544
H4 H 0.6888 -0.0075 0.6461
C5 C 0.6038(4) 0.0317(2) 0.7198(2)
H5 H 0.5980 0.0753 0.7361
H6 H 0.6486 0.0077 0.7486
C6 C 0.4934(4) 0.0008(2) 0.71883(19)
C7 C 0.4226(3) 0.0413(2) 0.67354(17)
H7 H 0.3588 0.0158 0.6661
C8 C 0.3855(3) 0.1060(2) 0.70213(18)
H8 H 0.3203 0.0981 0.7250
H9 H 0.4376 0.1195 0.7331
C9 C 0.3666(3) 0.1622(2) 0.65658(18)
H10 H 0.4348 0.1752 0.6401
H11 H 0.3398 0.1978 0.6815
C10 C 0.2910(3) 0.15297(19) 0.59859(17)
C11 C 0.3489(3) 0.12476(18) 0.53947(17)
C12 C 0.4023(3) 0.05833(19) 0.55237(18)
H12 H 0.3467 0.0265 0.5563
H13 H 0.4431 0.0471 0.5150
C13 C 0.2555(4) 0.2217(2) 0.5832(2)
C14 C 0.3348(4) 0.2678(2) 0.5591(2)
C15 C 0.4173(4) 0.2423(2) 0.5270(2)
C16 C 0.4310(4) 0.1722(2) 0.51622(19)
C17 C 0.1949(3) 0.1114(2) 0.61705(19)
H14 H 0.2188 0.0761 0.6436
H15 H 0.1469 0.1373 0.6422
C18 C 0.1360(3) 0.0844(2) 0.5618(2)
H16 H 0.0696 0.0672 0.5699
C19 C 0.1693(3) 0.0826(2) 0.50227(19)
C20 C 0.2719(3) 0.11369(19) 0.48157(17)
H17 H 0.3069 0.0825 0.4537
C21 C 0.2468(3) 0.1713(2) 0.44063(18)
H18 H 0.2102 0.2054 0.4589
C22 C 0.2741(4) 0.1760(2) 0.3804(2)
H19 H 0.3169 0.1432 0.3650
C23 C 0.2450(4) 0.2278(3) 0.3331(2)
C24 C 0.1740(6) 0.1959(4) 0.2797(3)
H20 H 0.1596 0.2269 0.2471
H21 H 0.1089 0.1815 0.2981
H22 H 0.2106 0.1598 0.2616
C25 C 0.1894(6) 0.2835(3) 0.3608(3)
H23 H 0.2335 0.3035 0.3922
H24 H 0.1250 0.2693 0.3803
H25 H 0.1736 0.3140 0.3279
C26 C 0.4199(6) 0.2684(4) 0.3352(4)
H26 H 0.3939 0.3028 0.3611
H27 H 0.4751 0.2841 0.3082
H28 H 0.4470 0.2348 0.3618
C27 C 0.1071(4) 0.0510(2) 0.4495(2)
H29 H 0.1452 0.0143 0.4339
H30 H 0.0967 0.0812 0.4156
H31 H 0.0398 0.0373 0.4656
C28 C 0.3217(7) 0.3397(3) 0.5707(3)
H32 H 0.2479 0.3347 0.5837
C29 C 0.2937(6) 0.3786(3) 0.5170(3)
H33 H 0.3565 0.3925 0.4957
H34 H 0.2546 0.4155 0.5312
H35 H 0.2511 0.3539 0.4883
H36 H 0.3830 0.3364 0.6546
H37 H 0.2693 0.3528 0.6561
H38 H 0.3559 0.4044 0.6333
C30 C 0.4990(4) -0.0684(2) 0.6942(2)
H39 H 0.5262 -0.0684 0.6517
H40 H 0.4297 -0.0869 0.6945
H41 H 0.5447 -0.0932 0.7211
C31 C 0.4489(4) -0.0004(3) 0.7869(2)
H42 H 0.3798 -0.0192 0.7866
H43 H 0.4448 0.0427 0.8030
H44 H 0.4945 -0.0255 0.8136
O2 O 0.1640(3) 0.23992(17) 0.59305(17)
O3 O 0.4930(3) 0.27987(17) 0.50091(19)
O4 O 0.5081(2) 0.15512(15) 0.48483(15)
loop_
_geom_bond_atom_site_label_1
_geom_bond_atom_site_label_2
_geom_bond_site_symmetry_1
_geom_bond_site_symmetry_2
H1 O3 1_555 1_555
O1 C23 1_555 1_555
C1 C28 1_555 1_555
C2 C3 1_555 1_555
C3 H2 1_555 1_555
C4 C3 1_555 1_555
H3 C4 1_555 1_555
H4 C4 1_555 1_555
C5 C4 1_555 1_555
H5 C5 1_555 1_555
H6 C5 1_555 1_555
C6 C5 1_555 1_555
C7 C2 1_555 1_555
H7 C7 1_555 1_555
C8 C7 1_555 1_555
H8 C8 1_555 1_555
H9 C8 1_555 1_555
C9 C8 1_555 1_555
H10 C9 1_555 1_555
H11 C9 1_555 1_555
C10 C9 1_555 1_555
C11 C10 1_555 1_555
C12 C2 1_555 1_555
H12 C12 1_555 1_555
H13 C12 1_555 1_555
C13 C10 1_555 1_555
C14 C13 1_555 1_555
C15 C14 1_555 1_555
C16 C11 1_555 1_555
C17 C10 1_555 1_555
H14 C17 1_555 1_555
H15 C17 1_555 1_555
C18 C17 1_555 1_555
H16 C18 1_555 1_555
C19 C18 1_555 1_555
C20 C11 1_555 1_555
H17 C20 1_555 1_555
C21 C20 1_555 1_555
H18 C21 1_555 1_555
C22 C21 1_555 1_555
H19 C22 1_555 1_555
C23 C22 1_555 1_555
C24 C23 1_555 1_555
H20 C24 1_555 1_555
H21 C24 1_555 1_555
H22 C24 1_555 1_555
C25 C23 1_555 1_555
H23 C25 1_555 1_555
H24 C25 1_555 1_555
H25 C25 1_555 1_555
C26 O1 1_555 1_555
H26 C26 1_555 1_555
H27 C26 1_555 1_555
H28 C26 1_555 1_555
C27 C19 1_555 1_555
H29 C27 1_555 1_555
H30 C27 1_555 1_555
H31 C27 1_555 1_555
C28 C14 1_555 1_555
H32 C28 1_555 1_555
C29 C28 1_555 1_555
H33 C29 1_555 1_555
H34 C29 1_555 1_555
H35 C29 1_555 1_555
H36 C1 1_555 1_555
H37 C1 1_555 1_555
H38 C1 1_555 1_555
C30 C6 1_555 1_555
H39 C30 1_555 1_555
H40 C30 1_555 1_555
H41 C30 1_555 1_555
C31 C6 1_555 1_555
H42 C31 1_555 1_555
H43 C31 1_555 1_555
H44 C31 1_555 1_555
O2 C13 1_555 1_555
O3 C15 1_555 1_555
O4 C16 1_555 1_555
C6 C7 1_555 1_555
C11 C12 1_555 1_555
C15 C16 1_555 1_555
C19 C20 1_555 1_555

#END
