
#######################################################################
#
#                 Cambridge Crystallographic Data Centre
#                                CCDC 
#
#######################################################################
#
# If this CIF has been generated from an entry in the Cambridge 
# Structural Database, then it will include bibliographic, chemical, 
# crystal, experimental, refinement or atomic coordinate data resulting 
# from the CCDC's data processing and validation procedures.
#
#######################################################################

data_OLOPEK
_chemical_formula_moiety         'C14 H8 N6,0.5(C1 H2 Cl2)'
_chemical_name_systematic        
'5,6-bis(1H-Pyrrol-2-yl)pyrazine-2,3-dicarbonitrile dichloromethane solvate'
_symmetry_cell_setting           triclinic
_symmetry_space_group_name_H-M   'P -1'
_symmetry_Int_Tables_number      2
_space_group_name_Hall           '-P 1'
loop_
_symmetry_equiv_pos_site_id
_symmetry_equiv_pos_as_xyz
1 x,y,z
2 -x,-y,-z
_cell_length_a                   7.3374(1)
_cell_length_b                   12.8235(2)
_cell_length_c                   15.6794(3)
_cell_angle_alpha                79.514(1)
_cell_angle_beta                 80.208(1)
_cell_angle_gamma                84.107(1)
_cell_volume                     1425.6
_exptl_crystal_colour            yellow
_exptl_crystal_description       laths
_chemical_melting_point          '186 deg.C(dec.)'
_cell_formula_units_Z            4
loop_
_atom_site_label
_atom_site_type_symbol
_atom_site_fract_x
_atom_site_fract_y
_atom_site_fract_z
Cl1 Cl -0.17752(12) 1.08186(6) 0.90300(4)
Cl2 Cl -0.21560(11) 1.14127(5) 0.71859(4)
H1 H -0.159(4) 0.978(2) 0.7975(16)
H2 H 0.018(4) 1.053(2) 0.7805(19)
C1 C -0.1114(4) 1.0506(2) 0.79724(18)
N1 N 0.7498(2) 0.46326(12) 0.75310(11)
C2 C 0.6621(2) 0.56208(14) 0.76313(12)
C3 C 0.5562(3) 0.54928(15) 0.84624(12)
C4 C 0.5841(3) 0.44311(16) 0.88559(14)
C5 C 0.7044(3) 0.39214(16) 0.82675(14)
C6 C 0.6882(2) 0.64828(14) 0.68907(12)
N2 N 0.7849(2) 0.61767(11) 0.61607(10)
C7 C 0.7946(3) 0.68670(14) 0.54047(12)
C8 C 0.6966(3) 0.78540(14) 0.53625(12)
N3 N 0.6133(2) 0.82153(11) 0.60896(10)
C9 C 0.6181(2) 0.75829(13) 0.68661(12)
C10 C 0.5551(2) 0.81090(14) 0.76175(12)
N4 N 0.4597(2) 0.90964(12) 0.75013(11)
C11 C 0.4340(3) 0.95053(16) 0.82541(13)
C12 C 0.5152(3) 0.87932(15) 0.88657(14)
C13 C 0.5916(3) 0.79186(15) 0.84724(12)
C14 C 0.9053(3) 0.65192(15) 0.46382(13)
N5 N 0.9902(2) 0.62559(13) 0.40195(11)
C15 C 0.6812(3) 0.85453(15) 0.45333(13)
N6 N 0.6679(3) 0.90889(14) 0.38788(12)
H3 H 0.820(3) 0.4510(17) 0.7060(15)
H4 H 0.472(3) 0.6032(15) 0.8719(12)
H5 H 0.530(3) 0.4089(16) 0.9447(14)
H6 H 0.759(3) 0.3197(17) 0.8330(13)
H7 H 0.432(3) 0.9407(15) 0.7024(13)
H8 H 0.368(3) 1.0178(16) 0.8284(12)
H9 H 0.520(3) 0.8853(16) 0.9434(14)
H10 H 0.666(3) 0.7289(15) 0.8730(12)
N7 N 0.2343(2) 0.76500(12) 0.56192(10)
C16 C 0.1603(2) 0.73809(13) 0.64934(11)
C17 C 0.0482(3) 0.82622(14) 0.67176(13)
C18 C 0.0586(3) 0.90559(15) 0.59774(13)
C19 C 0.1745(3) 0.86565(15) 0.53107(14)
C20 C 0.2023(2) 0.63164(13) 0.69345(11)
N8 N 0.3108(2) 0.56900(11) 0.64239(9)
C21 C 0.3329(2) 0.46537(14) 0.67388(12)
C22 C 0.2386(3) 0.42096(14) 0.75434(12)
N9 N 0.1432(2) 0.48263(11) 0.80929(9)
C23 C 0.1345(2) 0.58832(14) 0.78304(11)
C24 C 0.0570(2) 0.64851(14) 0.85236(11)
N10 N -0.0537(2) 0.59992(14) 0.92550(10)
C25 C -0.0906(3) 0.66457(17) 0.98674(13)
C26 C -0.0009(3) 0.75450(17) 0.95492(13)
C27 C 0.0930(3) 0.74535(16) 0.87063(13)
C28 C 0.4543(3) 0.40017(14) 0.61869(12)
N11 N 0.5470(2) 0.34634(13) 0.57577(11)
C29 C 0.2390(3) 0.30713(16) 0.78316(13)
N12 N 0.2399(3) 0.21731(14) 0.80548(13)
H11 H 0.306(3) 0.7222(18) 0.5319(15)
H12 H -0.025(3) 0.8314(15) 0.7277(14)
H13 H -0.002(3) 0.9764(16) 0.5941(13)
H14 H 0.217(3) 0.8959(17) 0.4709(15)
H15 H -0.091(3) 0.5370(18) 0.9291(14)
H16 H -0.169(3) 0.6416(16) 1.0400(15)
H17 H -0.002(3) 0.8102(17) 0.9860(13)
H18 H 0.167(3) 0.7913(16) 0.8350(13)
loop_
_geom_bond_atom_site_label_1
_geom_bond_atom_site_label_2
_geom_bond_site_symmetry_1
_geom_bond_site_symmetry_2
Cl1 C1 1_555 1_555
Cl2 C1 1_555 1_555
H1 C1 1_555 1_555
H2 C1 1_555 1_555
N1 C2 1_555 1_555
C2 C3 1_555 1_555
C3 C4 1_555 1_555
C4 C5 1_555 1_555
C5 N1 1_555 1_555
C6 C2 1_555 1_555
N2 C6 1_555 1_555
C7 N2 1_555 1_555
C8 C7 1_555 1_555
N3 C8 1_555 1_555
C9 C6 1_555 1_555
C10 C9 1_555 1_555
N4 C10 1_555 1_555
C11 N4 1_555 1_555
C12 C11 1_555 1_555
C13 C10 1_555 1_555
C14 C7 1_555 1_555
N5 C14 1_555 1_555
C15 C8 1_555 1_555
N6 C15 1_555 1_555
H3 N1 1_555 1_555
H4 C3 1_555 1_555
H5 C4 1_555 1_555
H6 C5 1_555 1_555
H7 N4 1_555 1_555
H8 C11 1_555 1_555
H9 C12 1_555 1_555
H10 C13 1_555 1_555
N7 C16 1_555 1_555
C16 C17 1_555 1_555
C17 C18 1_555 1_555
C18 C19 1_555 1_555
C19 N7 1_555 1_555
C20 C16 1_555 1_555
N8 C20 1_555 1_555
C21 N8 1_555 1_555
C22 C21 1_555 1_555
N9 C22 1_555 1_555
C23 C20 1_555 1_555
C24 C23 1_555 1_555
N10 C24 1_555 1_555
C25 N10 1_555 1_555
C26 C25 1_555 1_555
C27 C24 1_555 1_555
C28 C21 1_555 1_555
N11 C28 1_555 1_555
C29 C22 1_555 1_555
N12 C29 1_555 1_555
H11 N7 1_555 1_555
H12 C17 1_555 1_555
H13 C18 1_555 1_555
H14 C19 1_555 1_555
H15 N10 1_555 1_555
H16 C25 1_555 1_555
H17 C26 1_555 1_555
H18 C27 1_555 1_555
N3 C9 1_555 1_555
C12 C13 1_555 1_555
N9 C23 1_555 1_555
C26 C27 1_555 1_555

#END
