
#######################################################################
#
#                 Cambridge Crystallographic Data Centre
#                                CCDC 
#
#######################################################################
#
# If this CIF has been generated from an entry in the Cambridge 
# Structural Database, then it will include bibliographic, chemical, 
# crystal, experimental, refinement or atomic coordinate data resulting 
# from the CCDC's data processing and validation procedures.
#
#######################################################################

data_OLOXAP
_chemical_name_common            
'1$1!,2$1!,3$1!,4$1!,5$1!,2$4!,3$4!,4$4!,5$4!-Nonamethoxy-1$4!-n-octyloxypillar[5]arene unknown solvate'
_chemical_formula_moiety         'C52 H64 O10'
_chemical_name_systematic        
'4,9,14,19,24,26,28,30,32-Nonamethoxy-34-(octyloxy)hexacyclo[21.2.2.2^3,6^.2^8,11^.2^13,16^.2^18,21^]pentatriaconta-1(25),3,5,8,10,13,15,18,20,23,26,28,30,32,34-pentadecaene unknown solvate'
_symmetry_cell_setting           monoclinic
_symmetry_space_group_name_H-M   'C 2/c'
_symmetry_Int_Tables_number      15
_space_group_name_Hall           '-C 2yn'
loop_
_symmetry_equiv_pos_site_id
_symmetry_equiv_pos_as_xyz
1 x,y,z
2 -x,y,1/2-z
3 1/2+x,1/2+y,z
4 1/2-x,1/2+y,1/2-z
5 -x,-y,-z
6 x,-y,1/2+z
7 1/2-x,1/2-y,-z
8 1/2+x,1/2-y,1/2+z
_cell_length_a                   43.3483(16)
_cell_length_b                   11.9628(5)
_cell_length_c                   18.8246(8)
_cell_angle_alpha                90
_cell_angle_beta                 98.792(4)
_cell_angle_gamma                90
_cell_volume                     9647.11
_exptl_crystal_colour            colorless
_exptl_crystal_description       block
_chemical_melting_point          '127.5-128.8 deg.C'
_cell_formula_units_Z            8
_exptl_crystal_recrystallization_method chloroform/methanol
loop_
_atom_site_label
_atom_site_type_symbol
_atom_site_fract_x
_atom_site_fract_y
_atom_site_fract_z
O1 O 0.03990(5) 0.1091(2) 0.38646(14)
O2 O 0.04244(5) 0.1702(2) 0.09626(15)
O3 O 0.07413(6) 0.4702(2) 0.3025(2)
O4 O 0.13917(6) 0.4331(2) 0.07340(17)
O5 O 0.18977(5) 0.49010(19) 0.34626(15)
O6 O 0.23452(5) 0.19259(18) 0.16128(12)
O7 O 0.23324(5) 0.12296(18) 0.44526(11)
O8 O 0.18853(5) -0.19159(17) 0.23996(11)
O9 O 0.13938(5) -0.1253(2) 0.47710(11)
O10 O 0.07271(5) -0.1937(2) 0.20629(13)
C1 C 0.04140(7) -0.0828(3) 0.3039(2)
H1 H 0.0314 -0.0816 0.3466
H2 H 0.0298 -0.1340 0.2697
C2 C 0.03721(9) 0.2040(4) 0.4307(2)
H3 H 0.0196 0.2480 0.4101
H4 H 0.0558 0.2483 0.4338
H5 H 0.0344 0.1798 0.4779
C3 C 0.04042(7) 0.1280(3) 0.3137(2)
C4 C 0.04034(7) 0.0338(3) 0.2713(2)
C5 C 0.04075(7) 0.0487(3) 0.1991(2)
H6 H 0.0405 -0.0139 0.1697
C6 C 0.04160(7) 0.1529(4) 0.1688(2)
C7 C 0.04168(7) 0.2482(4) 0.2108(2)
C8 C 0.04076(7) 0.2337(3) 0.2838(2)
H7 H 0.0404 0.2962 0.3131
C9 C 0.03769(9) 0.0763(4) 0.0514(2)
H8 H 0.0369 0.0990 0.0023
H9 H 0.0183 0.0410 0.0573
H10 H 0.0545 0.0244 0.0640
C10 C 0.04279(8) 0.3643(3) 0.1795(3)
H11 H 0.0329 0.3629 0.1297
H12 H 0.0309 0.4146 0.2053
C11 C 0.08804(17) 0.5194(6) 0.3566(4)
H13 H 0.1077 0.4834 0.3723
H14 H 0.0755 0.5168 0.3945
H15 H 0.0916 0.5959 0.3447
C12 C 0.09079(8) 0.4608(3) 0.2459(3)
C13 C 0.07557(8) 0.4093(3) 0.1832(3)
C14 C 0.09170(8) 0.4009(3) 0.1267(2)
H16 H 0.0820 0.3678 0.0844
C15 C 0.12225(8) 0.4402(3) 0.1300(2)
C16 C 0.13736(8) 0.4882(3) 0.1921(2)
C17 C 0.12109(8) 0.4988(3) 0.2505(2)
H17 H 0.1308 0.5317 0.2929
C18 C 0.12257(10) 0.4082(4) 0.0050(3)
H18 H 0.1362 0.4161 -0.0305
H19 H 0.1053 0.4588 -0.0058
H20 H 0.1149 0.3329 0.0046
C19 C 0.17124(7) 0.5254(3) 0.1994(2)
H21 H 0.1758 0.5490 0.1529
H22 H 0.1745 0.5888 0.2318
C20 C 0.19974(9) 0.4765(3) 0.4222(2)
H23 H 0.2221 0.4764 0.4320
H24 H 0.1919 0.4070 0.4377
H25 H 0.1918 0.5371 0.4476
C21 C 0.20138(7) 0.4140(3) 0.3017(2)
C22 C 0.19300(7) 0.4323(3) 0.2277(2)
C23 C 0.20455(7) 0.3588(3) 0.18095(19)
H26 H 0.1997 0.3704 0.1317
C24 C 0.22312(7) 0.2688(2) 0.20610(18)
C25 C 0.23136(6) 0.2496(2) 0.28000(18)
C26 C 0.22026(7) 0.3244(2) 0.32698(18)
H27 H 0.2256 0.3141 0.3763
C27 C 0.23215(9) 0.2218(3) 0.08725(19)
H28 H 0.2432 0.1677 0.0630
H29 H 0.2411 0.2944 0.0830
H30 H 0.2106 0.2229 0.0659
C28 C 0.25048(7) 0.1499(2) 0.30827(18)
H31 H 0.2647 0.1716 0.3509
H32 H 0.2628 0.1253 0.2724
C29 C 0.21807(8) 0.1314(3) 0.50725(17)
H33 H 0.1959 0.1363 0.4925
H34 H 0.2253 0.1970 0.5341
H35 H 0.2228 0.0664 0.5369
C30 C 0.22203(6) 0.0422(2) 0.39481(17)
C31 C 0.23038(6) 0.0536(2) 0.32693(17)
C32 C 0.21920(6) -0.0251(2) 0.27518(17)
H36 H 0.2246 -0.0191 0.2294
C33 C 0.20036(7) -0.1117(2) 0.28994(16)
C34 C 0.19227(6) -0.1251(2) 0.35860(15)
C35 C 0.20339(6) -0.0467(2) 0.41018(16)
H37 H 0.1983 -0.0535 0.4562
C36 C 0.18764(8) -0.1635(3) 0.16669(16)
H38 H 0.1773 -0.2218 0.1371
H39 H 0.2086 -0.1551 0.1565
H40 H 0.1765 -0.0946 0.1567
C37 C 0.17162(7) -0.2200(2) 0.37603(16)
H41 H 0.1766 -0.2382 0.4267
H42 H 0.1757 -0.2857 0.3487
C38 C 0.08879(9) -0.2340(4) 0.1508(2)
H43 H 0.0746 -0.2372 0.1063
H44 H 0.0968 -0.3074 0.1630
H45 H 0.1057 -0.1845 0.1456
C39 C 0.09013(7) -0.1755(3) 0.27278(18)
C40 C 0.07476(7) -0.1249(3) 0.32364(19)
C41 C 0.09109(7) -0.1075(3) 0.39199(18)
H46 H 0.0811 -0.0736 0.4267
C42 C 0.12186(7) -0.1393(3) 0.40949(17)
C43 C 0.13741(7) -0.1894(2) 0.35845(17)
C44 C 0.12089(7) -0.2065(3) 0.29050(17)
H47 H 0.1309 -0.2400 0.2557
C45 C 0.12316(8) -0.0977(3) 0.53585(17)
H48 H 0.1035 -0.1380 0.5313
H49 H 0.1187 -0.0182 0.5357
C46 C 0.14355(8) -0.1296(3) 0.60447(18)
H50 H 0.1632 -0.0895 0.6079
H51 H 0.1481 -0.2089 0.6034
C47 C 0.12832(8) -0.1037(3) 0.67149(19)
H52 H 0.1289 -0.0236 0.6795
H53 H 0.1066 -0.1260 0.6620
C48 C 0.14336(8) -0.1602(3) 0.73806(18)
H54 H 0.1651 -0.1374 0.7475
H55 H 0.1429 -0.2402 0.7297
C49 C 0.12891(9) -0.1373(4) 0.8031(2)
H56 H 0.1065 -0.1450 0.7903
H57 H 0.1331 -0.0600 0.8170
C50 C 0.13925(9) -0.2094(3) 0.86735(19)
H58 H 0.1339 -0.2860 0.8540
H59 H 0.1618 -0.2055 0.8779
C51 C 0.12686(11) -0.1847(5) 0.9341(2)
H60 H 0.1045 -0.1734 0.9218
H61 H 0.1358 -0.1144 0.9528
C52 C 0.13215(10) -0.2686(4) 0.9931(2)
H62 H 0.1199 -0.3342 0.9793
H63 H 0.1261 -0.2374 1.0358
H64 H 0.1539 -0.2882 1.0022
C53? C 0.0669(3) 0.5751(9) 0.3322(6)
H65? H 0.0553 0.6202 0.2952
H66? H 0.0546 0.5628 0.3698
H67? H 0.0859 0.6129 0.3514
loop_
_geom_bond_atom_site_label_1
_geom_bond_atom_site_label_2
_geom_bond_site_symmetry_1
_geom_bond_site_symmetry_2
O1 C2 1_555 1_555
O2 C6 1_555 1_555
O3 C11 1_555 1_555
O4 C15 1_555 1_555
O5 C20 1_555 1_555
O6 C24 1_555 1_555
O7 C29 1_555 1_555
O8 C33 1_555 1_555
O9 C42 1_555 1_555
O10 C38 1_555 1_555
C1 H1 1_555 1_555
H2 C1 1_555 1_555
C2 H3 1_555 1_555
H4 C2 1_555 1_555
H5 C2 1_555 1_555
C3 O1 1_555 1_555
C4 C1 1_555 1_555
C5 C4 1_555 1_555
H6 C5 1_555 1_555
C6 C5 1_555 1_555
C7 C6 1_555 1_555
C8 C3 1_555 1_555
H7 C8 1_555 1_555
C9 O2 1_555 1_555
H8 C9 1_555 1_555
H9 C9 1_555 1_555
H10 C9 1_555 1_555
C10 C7 1_555 1_555
H11 C10 1_555 1_555
H12 C10 1_555 1_555
C11 H13 1_555 1_555
H14 C11 1_555 1_555
H15 C11 1_555 1_555
C12 O3 1_555 1_555
C13 C10 1_555 1_555
C14 C13 1_555 1_555
H16 C14 1_555 1_555
C15 C14 1_555 1_555
C16 C15 1_555 1_555
C17 C12 1_555 1_555
H17 C17 1_555 1_555
C18 O4 1_555 1_555
H18 C18 1_555 1_555
H19 C18 1_555 1_555
H20 C18 1_555 1_555
C19 C16 1_555 1_555
H21 C19 1_555 1_555
H22 C19 1_555 1_555
C20 H23 1_555 1_555
H24 C20 1_555 1_555
H25 C20 1_555 1_555
C21 O5 1_555 1_555
C22 C19 1_555 1_555
C23 C22 1_555 1_555
H26 C23 1_555 1_555
C24 C23 1_555 1_555
C25 C24 1_555 1_555
C26 C21 1_555 1_555
H27 C26 1_555 1_555
C27 O6 1_555 1_555
H28 C27 1_555 1_555
H29 C27 1_555 1_555
H30 C27 1_555 1_555
C28 C25 1_555 1_555
H31 C28 1_555 1_555
H32 C28 1_555 1_555
C29 H33 1_555 1_555
H34 C29 1_555 1_555
H35 C29 1_555 1_555
C30 O7 1_555 1_555
C31 C28 1_555 1_555
C32 C31 1_555 1_555
H36 C32 1_555 1_555
C33 C32 1_555 1_555
C34 C33 1_555 1_555
C35 C30 1_555 1_555
H37 C35 1_555 1_555
C36 O8 1_555 1_555
H38 C36 1_555 1_555
H39 C36 1_555 1_555
H40 C36 1_555 1_555
C37 C34 1_555 1_555
H41 C37 1_555 1_555
H42 C37 1_555 1_555
C38 H43 1_555 1_555
H44 C38 1_555 1_555
H45 C38 1_555 1_555
C39 O10 1_555 1_555
C40 C1 1_555 1_555
C41 C40 1_555 1_555
H46 C41 1_555 1_555
C42 C41 1_555 1_555
C43 C37 1_555 1_555
C44 C39 1_555 1_555
H47 C44 1_555 1_555
C45 O9 1_555 1_555
H48 C45 1_555 1_555
H49 C45 1_555 1_555
C46 C45 1_555 1_555
H50 C46 1_555 1_555
H51 C46 1_555 1_555
C47 C46 1_555 1_555
H52 C47 1_555 1_555
H53 C47 1_555 1_555
C48 C47 1_555 1_555
H54 C48 1_555 1_555
H55 C48 1_555 1_555
C49 C48 1_555 1_555
H56 C49 1_555 1_555
H57 C49 1_555 1_555
C50 C49 1_555 1_555
H58 C50 1_555 1_555
H59 C50 1_555 1_555
C51 C50 1_555 1_555
H60 C51 1_555 1_555
H61 C51 1_555 1_555
C52 C51 1_555 1_555
H62 C52 1_555 1_555
H63 C52 1_555 1_555
H64 C52 1_555 1_555
C3 C4 1_555 1_555
C7 C8 1_555 1_555
C12 C13 1_555 1_555
C16 C17 1_555 1_555
C21 C22 1_555 1_555
C25 C26 1_555 1_555
C30 C31 1_555 1_555
C34 C35 1_555 1_555
C39 C40 1_555 1_555
C42 C43 1_555 1_555
C43 C44 1_555 1_555

#END
