
#######################################################################
#
#                 Cambridge Crystallographic Data Centre
#                                CCDC 
#
#######################################################################
#
# If this CIF has been generated from an entry in the Cambridge 
# Structural Database, then it will include bibliographic, chemical, 
# crystal, experimental, refinement or atomic coordinate data resulting 
# from the CCDC's data processing and validation procedures.
#
#######################################################################

data_OLOZIA
_chemical_formula_moiety         'C21 H20 N2 O3'
_chemical_name_systematic        
5-(3-(2,3-dihydro-1H-pyrrolo[2,3-b]pyridin-1-yl)-3-oxo-1-phenylpropyl)-4-methylfuran-2(5H)-one
_symmetry_cell_setting           orthorhombic
_symmetry_space_group_name_H-M   'P 21 21 21'
_symmetry_Int_Tables_number      19
_space_group_name_Hall           'P 2ac 2ab'
loop_
_symmetry_equiv_pos_site_id
_symmetry_equiv_pos_as_xyz
1 x,y,z
2 1/2-x,-y,1/2+z
3 1/2+x,1/2-y,-z
4 -x,1/2+y,1/2-z
_cell_length_a                   10.16527(18)
_cell_length_b                   10.48677(19)
_cell_length_c                   16.3091(3)
_cell_angle_alpha                90
_cell_angle_beta                 90
_cell_angle_gamma                90
_cell_volume                     1738.56
_exptl_crystal_colour            colorless
_exptl_crystal_description       block
_cell_formula_units_Z            4
loop_
_atom_site_label
_atom_site_type_symbol
_atom_site_fract_x
_atom_site_fract_y
_atom_site_fract_z
O1 O 0.54420(16) 0.18863(15) 0.75149(10)
O2 O 0.60271(18) 0.49298(17) 0.51580(10)
O3 O 0.6230(2) 0.19869(18) 0.87921(11)
N1 N 0.7554(2) 0.5779(2) 0.59907(12)
N2 N 0.8063(2) 0.5475(2) 0.74290(13)
C1 C 0.6512(2) 0.4974(2) 0.58428(14)
C2 C 0.4425(2) 0.2516(2) 0.70409(15)
H1 H 0.3764 0.1870 0.6858
C3 C 0.8289(3) 0.6014(2) 0.67053(15)
C4 C 0.3791(2) 0.3413(2) 0.76372(14)
C5 C 0.5997(2) 0.4199(2) 0.65509(14)
H2 H 0.5543 0.4773 0.6940
H3 H 0.6748 0.3805 0.6843
C6 C 0.5044(2) 0.3151(2) 0.62828(14)
H4 H 0.4321 0.3561 0.5962
C7 C 0.5680(2) 0.2149(2) 0.57391(14)
C8 C 0.6935(3) 0.1687(2) 0.59028(15)
H5 H 0.7408 0.2006 0.6361
C9 C 0.5450(3) 0.2369(2) 0.82909(15)
C10 C 0.5006(3) 0.1659(2) 0.50671(15)
H6 H 0.4144 0.1954 0.4947
C11 C 0.4412(2) 0.3326(2) 0.83552(15)
H7 H 0.4211 0.3809 0.8832
C12 C 0.8876(3) 0.5834(3) 0.80360(15)
H8 H 0.8746 0.5470 0.8563
C13 C 0.2671(2) 0.4244(2) 0.73913(15)
H9 H 0.2443 0.4076 0.6817
H10 H 0.1910 0.4062 0.7741
H11 H 0.2924 0.5140 0.7454
C14 C 0.6835(3) 0.0291(2) 0.47378(16)
H12 H 0.7225 -0.0338 0.4396
C15 C 0.5584(3) 0.0744(2) 0.45708(16)
H13 H 0.5116 0.0424 0.4111
C16 C 0.9278(3) 0.6899(2) 0.65423(16)
C17 C 0.7507(3) 0.0762(2) 0.54041(16)
H14 H 0.8365 0.0456 0.5525
C18 C 0.8049(3) 0.6581(3) 0.53091(16)
H15 H 0.7361 0.7183 0.5123
H16 H 0.8320 0.6044 0.4839
C19 C 0.9887(3) 0.6695(3) 0.79409(17)
H17 H 1.0427 0.6918 0.8394
C20 C 0.9233(3) 0.7305(3) 0.56613(16)
H18 H 1.0054 0.7066 0.5373
H19 H 0.9105 0.8238 0.5615
C21 C 1.0109(3) 0.7239(3) 0.71696(17)
H20 H 1.0810 0.7823 0.7083
loop_
_geom_bond_atom_site_label_1
_geom_bond_atom_site_label_2
_geom_bond_site_symmetry_1
_geom_bond_site_symmetry_2
O1 C2 1_555 1_555
O2 C1 1_555 1_555
O3 C9 1_555 1_555
N1 C1 1_555 1_555
N2 C3 1_555 1_555
C1 C5 1_555 1_555
C2 H1 1_555 1_555
C3 N1 1_555 1_555
C4 C2 1_555 1_555
C5 H2 1_555 1_555
H3 C5 1_555 1_555
C6 C2 1_555 1_555
H4 C6 1_555 1_555
C7 C6 1_555 1_555
C8 C7 1_555 1_555
H5 C8 1_555 1_555
C9 O1 1_555 1_555
C10 C7 1_555 1_555
H6 C10 1_555 1_555
C11 C4 1_555 1_555
H7 C11 1_555 1_555
C12 N2 1_555 1_555
H8 C12 1_555 1_555
C13 C4 1_555 1_555
H9 C13 1_555 1_555
H10 C13 1_555 1_555
H11 C13 1_555 1_555
C14 H12 1_555 1_555
C15 C10 1_555 1_555
H13 C15 1_555 1_555
C16 C3 1_555 1_555
C17 C8 1_555 1_555
H14 C17 1_555 1_555
C18 N1 1_555 1_555
H15 C18 1_555 1_555
H16 C18 1_555 1_555
C19 C12 1_555 1_555
H17 C19 1_555 1_555
C20 C16 1_555 1_555
H18 C20 1_555 1_555
H19 C20 1_555 1_555
C21 C16 1_555 1_555
H20 C21 1_555 1_555
C5 C6 1_555 1_555
C9 C11 1_555 1_555
C14 C15 1_555 1_555
C14 C17 1_555 1_555
C18 C20 1_555 1_555
C19 C21 1_555 1_555

#END
