
#######################################################################
#
#                 Cambridge Crystallographic Data Centre
#                                CCDC 
#
#######################################################################
#
# If this CIF has been generated from an entry in the Cambridge 
# Structural Database, then it will include bibliographic, chemical, 
# crystal, experimental, refinement or atomic coordinate data resulting 
# from the CCDC's data processing and validation procedures.
#
#######################################################################

data_OLOZAS
_chemical_formula_moiety         'C16 H14 N2 O1'
_chemical_name_systematic        
1-(2,3-dihydro-1H-pyrrolo[2,3-b]pyridin-1-yl)-3-phenylprop-2-en-1-one
_symmetry_cell_setting           orthorhombic
_symmetry_space_group_name_H-M   'P 21 21 21'
_symmetry_Int_Tables_number      19
_space_group_name_Hall           'P 2ac 2ab'
loop_
_symmetry_equiv_pos_site_id
_symmetry_equiv_pos_as_xyz
1 x,y,z
2 1/2+x,1/2-y,-z
3 -x,1/2+y,1/2-z
4 1/2-x,-y,1/2+z
_cell_length_a                   5.4460(2)
_cell_length_b                   11.4436(3)
_cell_length_c                   19.7919(6)
_cell_angle_alpha                90
_cell_angle_beta                 90
_cell_angle_gamma                90
_cell_volume                     1233.47
_exptl_crystal_colour            colorless
_exptl_crystal_description       platelet
_cell_formula_units_Z            4
loop_
_atom_site_label
_atom_site_type_symbol
_atom_site_fract_x
_atom_site_fract_y
_atom_site_fract_z
O1 O 1.0092(4) 0.58746(17) 0.25415(10)
N1 N 0.5062(5) 0.7131(2) 0.40602(12)
N2 N 0.6880(5) 0.6878(2) 0.29502(12)
C1 C 1.4267(6) 0.3933(3) 0.45502(17)
C2 C 0.5133(6) 0.7359(3) 0.34030(15)
C3 C 0.9268(6) 0.5635(3) 0.37132(15)
C4 C 1.5076(6) 0.3534(3) 0.51710(17)
C5 C 1.2075(6) 0.4555(3) 0.44929(15)
C6 C 1.1282(5) 0.5002(3) 0.38351(15)
C7 C 0.1525(6) 0.8405(3) 0.41004(15)
C8 C 1.1564(6) 0.4374(3) 0.57004(16)
C9 C 0.8809(6) 0.6115(3) 0.30344(15)
C10 C 0.3201(6) 0.7664(3) 0.43912(15)
C11 C 1.3744(6) 0.3759(3) 0.57516(16)
C12 C 0.3538(6) 0.8095(3) 0.30599(15)
C13 C 0.1696(6) 0.8639(3) 0.34125(15)
C14 C 1.0743(6) 0.4759(2) 0.50800(15)
C15 C 0.6504(7) 0.7386(3) 0.22727(16)
C16 C 0.4191(6) 0.8130(3) 0.23225(16)
H1 H 1.52167 0.37813 0.41573
H2 H 0.81261 0.57772 0.40667
H3 H 1.65618 0.31013 0.51989
H4 H 1.22971 0.48249 0.34584
H5 H 0.02673 0.87531 0.43652
H6 H 1.06266 0.45307 0.60949
H7 H 0.30406 0.75133 0.48612
H8 H 1.43168 0.34957 0.61787
H9 H 0.05809 0.91553 0.31954
H10 H 0.9234 0.51729 0.50535
H11 H 0.62894 0.67603 0.19321
H12 H 0.79296 0.78721 0.21416
H13 H 0.45154 0.89415 0.21732
H14 H 0.28531 0.77983 0.20435
loop_
_geom_bond_atom_site_label_1
_geom_bond_atom_site_label_2
_geom_bond_site_symmetry_1
_geom_bond_site_symmetry_2
O1 C9 1_555 1_555
N1 C2 1_555 1_555
N2 C2 1_555 1_555
C1 C4 1_555 1_555
C2 C12 1_555 1_555
C3 C6 1_555 1_555
C4 C11 1_555 1_555
C5 C1 1_555 1_555
C6 C5 1_555 1_555
C7 C10 1_555 1_555
C8 C11 1_555 1_555
C9 N2 1_555 1_555
C10 N1 1_555 1_555
C11 H8 1_555 1_555
C12 C13 1_555 1_555
C13 C7 1_555 1_555
C14 C5 1_555 1_555
C15 N2 1_555 1_555
C16 C12 1_555 1_555
H1 C1 1_555 1_555
H2 C3 1_555 1_555
H3 C4 1_555 1_555
H4 C6 1_555 1_555
H5 C7 1_555 1_555
H6 C8 1_555 1_555
H7 C10 1_555 1_555
H9 C13 1_555 1_555
H10 C14 1_555 1_555
H11 C15 1_555 1_555
H12 C15 1_555 1_555
H13 C16 1_555 1_555
H14 C16 1_555 1_555
C3 C9 1_555 1_555
C8 C14 1_555 1_555
C15 C16 1_555 1_555

#END
