
#######################################################################
#
#                 Cambridge Crystallographic Data Centre
#                                CCDC 
#
#######################################################################
#
# If this CIF has been generated from an entry in the Cambridge 
# Structural Database, then it will include bibliographic, chemical, 
# crystal, experimental, refinement or atomic coordinate data resulting 
# from the CCDC's data processing and validation procedures.
#
#######################################################################

data_OLOZEW
_chemical_formula_moiety         'C21 H20 N2 O3'
_chemical_name_systematic        
5-(3-(2,3-dihydro-1H-pyrrolo[2,3-b]pyridin-1-yl)-3-oxo-1-phenylpropyl)-5-methylfuran-2(5H)-one
_symmetry_cell_setting           orthorhombic
_symmetry_space_group_name_H-M   'P 21 21 21'
_symmetry_Int_Tables_number      19
_space_group_name_Hall           'P 2ac 2ab'
loop_
_symmetry_equiv_pos_site_id
_symmetry_equiv_pos_as_xyz
1 x,y,z
2 1/2+x,1/2-y,-z
3 -x,1/2+y,1/2-z
4 1/2-x,-y,1/2+z
_cell_length_a                   10.1016(2)
_cell_length_b                   10.4447(2)
_cell_length_c                   16.7080(4)
_cell_angle_alpha                90
_cell_angle_beta                 90
_cell_angle_gamma                90
_cell_volume                     1762.83
_exptl_crystal_colour            colorless
_exptl_crystal_description       prism
_cell_formula_units_Z            4
loop_
_atom_site_label
_atom_site_type_symbol
_atom_site_fract_x
_atom_site_fract_y
_atom_site_fract_z
O1 O 0.74328(13) 0.63971(13) 0.75131(8)
O2 O 1.07274(13) 0.69701(12) 0.52759(7)
O3 O 1.06123(16) 0.64461(15) 0.39817(8)
N1 N 0.67041(16) 0.47413(15) 0.67862(9)
N2 N 0.69758(16) 0.41051(16) 0.54024(9)
C1 C 0.58324(19) 0.43539(19) 0.74556(12)
C2 C 0.53786(19) 0.29987(19) 0.72364(12)
C3 C 0.56421(19) 0.29263(18) 0.63598(12)
C4 C 0.5279(2) 0.2045(2) 0.57876(13)
C5 C 0.5775(3) 0.2208(2) 0.50189(13)
C6 C 0.6609(2) 0.3218(2) 0.48574(12)
C7 C 0.64746(18) 0.39270(18) 0.61268(11)
C8 C 0.74832(18) 0.58085(18) 0.68816(12)
C9 C 0.83673(18) 0.62241(18) 0.62005(11)
C10 C 0.94067(19) 0.71758(17) 0.65014(10)
C11 C 1.03876(18) 0.65383(17) 0.70584(11)
C12 C 1.05556(18) 0.69858(18) 0.78370(11)
C13 C 1.14733(19) 0.6429(2) 0.83454(12)
C14 C 1.22383(19) 0.5409(2) 0.80864(13)
C15 C 1.20721(19) 0.4942(2) 0.73153(13)
C16 C 1.11557(18) 0.55041(18) 0.68066(12)
C17 C 1.01058(19) 0.78994(18) 0.58159(11)
C18 C 0.9162(2) 0.85853(19) 0.52722(11)
C19 C 0.9252(2) 0.8146(2) 0.45350(12)
C20 C 1.02350(19) 0.7115(2) 0.45237(12)
C21 C 1.1187(2) 0.87827(19) 0.61278(12)
H1 H 0.5066 0.49398 0.75024
H2 H 0.63235 0.43531 0.79683
H3 H 0.58942 0.23453 0.75314
H4 H 0.44256 0.28792 0.73528
H5 H 0.47089 0.13503 0.59141
H6 H 0.55403 0.16242 0.46064
H7 H 0.6948 0.32965 0.43292
H8 H 0.78264 0.66296 0.57764
H9 H 0.88133 0.54668 0.59674
H10 H 0.89241 0.78322 0.6825
H11 H 1.00338 0.76823 0.8022
H12 H 1.15784 0.67479 0.8874
H13 H 1.28721 0.50325 0.84341
H14 H 1.25865 0.42373 0.71357
H15 H 1.10495 0.518 0.62793
H16 H 0.85776 0.92473 0.54371
H17 H 0.87635 0.84474 0.40872
H18 H 1.07985 0.94156 0.64914
H19 H 1.18518 0.82774 0.64158
H20 H 1.16084 0.92238 0.5677
loop_
_geom_bond_atom_site_label_1
_geom_bond_atom_site_label_2
_geom_bond_site_symmetry_1
_geom_bond_site_symmetry_2
O1 C8 1_555 1_555
O2 C17 1_555 1_555
O3 C20 1_555 1_555
N1 C1 1_555 1_555
N2 C6 1_555 1_555
C1 C2 1_555 1_555
C2 C3 1_555 1_555
C3 C4 1_555 1_555
C4 C5 1_555 1_555
C5 C6 1_555 1_555
C6 H7 1_555 1_555
C7 N1 1_555 1_555
C8 N1 1_555 1_555
C9 C8 1_555 1_555
C10 C9 1_555 1_555
C11 C10 1_555 1_555
C12 C11 1_555 1_555
C13 C12 1_555 1_555
C14 C13 1_555 1_555
C15 C14 1_555 1_555
C16 C11 1_555 1_555
C17 C10 1_555 1_555
C18 C17 1_555 1_555
C19 C18 1_555 1_555
C20 O2 1_555 1_555
C21 C17 1_555 1_555
H1 C1 1_555 1_555
H2 C1 1_555 1_555
H3 C2 1_555 1_555
H4 C2 1_555 1_555
H5 C4 1_555 1_555
H6 C5 1_555 1_555
H8 C9 1_555 1_555
H9 C9 1_555 1_555
H10 C10 1_555 1_555
H11 C12 1_555 1_555
H12 C13 1_555 1_555
H13 C14 1_555 1_555
H14 C15 1_555 1_555
H15 C16 1_555 1_555
H16 C18 1_555 1_555
H17 C19 1_555 1_555
H18 C21 1_555 1_555
H19 C21 1_555 1_555
H20 C21 1_555 1_555
N2 C7 1_555 1_555
C3 C7 1_555 1_555
C15 C16 1_555 1_555
C19 C20 1_555 1_555

#END
