
#######################################################################
#
#                 Cambridge Crystallographic Data Centre
#                                CCDC 
#
#######################################################################
#
# If this CIF has been generated from an entry in the Cambridge 
# Structural Database, then it will include bibliographic, chemical, 
# crystal, experimental, refinement or atomic coordinate data resulting 
# from the CCDC's data processing and validation procedures.
#
#######################################################################

data_OLUHOU
_chemical_formula_moiety         'C36 H42 N4 O1 Si1,C1 H2 Cl2'
_chemical_name_systematic        
"2'-(2-aminophenyl)-3,7-bis(diethylamino)-5,5-dimethyl-5H-spiro[dibenzo[b,e]siline-10,1'-isoindol]-3'(2'H)-one dichloromethane unknown solvate"
_symmetry_cell_setting           monoclinic
_symmetry_space_group_name_H-M   'P 21/c'
_symmetry_Int_Tables_number      14
_space_group_name_Hall           '-P 2ybc'
loop_
_symmetry_equiv_pos_site_id
_symmetry_equiv_pos_as_xyz
1 x,y,z
2 -x,1/2+y,1/2-z
3 -x,-y,-z
4 x,1/2-y,1/2+z
_cell_length_a                   18.643(9)
_cell_length_b                   12.071(6)
_cell_length_c                   16.512(7)
_cell_angle_alpha                90
_cell_angle_beta                 94.041(9)
_cell_angle_gamma                90
_cell_volume                     3706.62
_exptl_crystal_colour            colorless
_exptl_crystal_description       block
_cell_formula_units_Z            4
loop_
_atom_site_label
_atom_site_type_symbol
_atom_site_fract_x
_atom_site_fract_y
_atom_site_fract_z
Si1 Si 0.22571(7) 1.08302(10) 0.43747(7)
O1 O 0.1588(2) 0.5913(3) 0.5263(2)
N1 N 0.1934(2) 0.7636(3) 0.4840(2)
N2 N 0.4558(4) 1.0338(5) 0.6313(5)
N3 N 0.0386(2) 1.0231(3) 0.1912(2)
C1 C 0.1933(3) 0.6514(4) 0.4840(3)
C2 C 0.2420(2) 0.6169(4) 0.4221(3)
C3 C 0.2597(3) 0.5111(4) 0.3989(3)
H1 H 0.2406 0.4486 0.4238
C4 C 0.3063(3) 0.4999(4) 0.3380(4)
H2 H 0.3186 0.4289 0.3202
C5 C 0.3349(3) 0.5927(5) 0.3031(3)
H3 H 0.3672 0.5835 0.2624
C6 C 0.3170(3) 0.6990(4) 0.3268(3)
H4 H 0.3362 0.7616 0.3022
C7 C 0.2700(2) 0.7100(4) 0.3880(3)
C8 C 0.2412(2) 0.8147(3) 0.4235(3)
C9 C 0.3009(2) 0.8802(4) 0.4698(3)
C10 C 0.2967(2) 0.9932(4) 0.4866(3)
C11 C 0.3492(3) 1.0419(4) 0.5395(3)
H5 H 0.3461 1.1182 0.5497
C12 C 0.4062(3) 0.9827(5) 0.5778(4)
C13 C 0.4105(3) 0.8717(5) 0.5565(4)
H6 H 0.4501 0.8297 0.5773
C14 C 0.3588(3) 0.8216(4) 0.5060(3)
H7 H 0.3625 0.7454 0.4956
C15 C 0.1921(2) 0.8772(4) 0.3594(3)
C16 C 0.1767(2) 0.9893(4) 0.3636(3)
C17 C 0.1259(2) 1.0367(4) 0.3075(3)
H8 H 0.1158 1.1127 0.3117
C18 C 0.0891(2) 0.9751(4) 0.2450(3)
C19 C 0.1060(3) 0.8618(4) 0.2425(3)
H9 H 0.0829 0.8171 0.2020
C20 C 0.1550(3) 0.8154(4) 0.2974(3)
H10 H 0.1644 0.7391 0.2938
C21 C 0.1660(3) 1.1447(5) 0.5109(3)
H11 H 0.1417 1.0861 0.5383
H12 H 0.1307 1.1919 0.4821
H13 H 0.1946 1.1883 0.5506
C22 C 0.2676(3) 1.1983(4) 0.3822(3)
H14 H 0.2967 1.2433 0.4205
H15 H 0.2302 1.2438 0.3554
H16 H 0.2977 1.1679 0.3421
C23 C 0.5297(7) 0.9824(10) 0.6407(7)
H17 H 0.5382 0.9375 0.5928
H18 H 0.5665 1.0404 0.6460
C24 C 0.5337(7) 0.9115(12) 0.7148(7)
H19 H 0.5367 0.9581 0.7627
H20 H 0.5760 0.8646 0.7152
H21 H 0.4910 0.8656 0.7147
C25 C 0.1576(12) 0.829(4) 0.5434(14)
C26 C 0.0834(8) 0.8518(13) 0.5302(6)
C27 C 0.0488(6) 0.9119(9) 0.5884(8)
H22 H -0.0006 0.9274 0.5805
C28 C 0.0876(8) 0.9483(8) 0.6573(6)
H23 H 0.0641 0.9882 0.6966
C29 C 0.1593(7) 0.9276(10) 0.6698(6)
H24 H 0.1849 0.9546 0.7168
C30 C 0.1948(8) 0.8666(13) 0.6131(10)
H25 H 0.2442 0.8514 0.6224
N4 N 0.0449(4) 0.8134(6) 0.4597(4)
H26 H -0.0009 0.8269 0.4520
H27 H 0.0668 0.7760 0.4238
C31 C 0.4443(5) 1.1464(6) 0.6635(6)
H28 H 0.3929 1.1579 0.6694
H29 H 0.4697 1.1537 0.7172
C32 C 0.4702(5) 1.2295(10) 0.6092(7)
H30 H 0.5166 1.2068 0.5917
H31 H 0.4752 1.2998 0.6375
H32 H 0.4363 1.2373 0.5623
C33 C 0.0238(3) 1.1411(4) 0.1954(3)
H33 H 0.0209 1.1624 0.2523
H34 H -0.0231 1.1562 0.1668
C34 C 0.0808(4) 1.2118(6) 0.1583(4)
H35 H 0.1277 1.1942 0.1843
H36 H 0.0704 1.2895 0.1665
H37 H 0.0806 1.1965 0.1006
C35 C 0.0099(3) 0.9650(5) 0.1184(3)
H38 H 0.0459 0.9120 0.1017
H39 H 0.0010 1.0186 0.0743
C36 C -0.0587(4) 0.9041(6) 0.1316(4)
H40 H -0.0495 0.8479 0.1730
H41 H -0.0767 0.8693 0.0813
H42 H -0.0942 0.9560 0.1491
C45 C 0.2656(4) -0.0025(6) 0.1672(4)
H54 H 0.2558 -0.0056 0.2247
H55 H 0.2221 -0.0259 0.1351
Cl1 Cl 0.33559(16) -0.0925(2) 0.14959(15)
Cl2 Cl 0.28682(14) 0.1330(2) 0.14156(18)
C37? C 0.5005(9) 0.9654(16) 0.6925(10)
H43? H 0.5104 1.0048 0.7439
H44? H 0.4781 0.8937 0.7027
C38? C 0.5668(14) 0.953(2) 0.6463(18)
H45? H 0.5529 0.9350 0.5901
H46? H 0.5966 0.8942 0.6703
H47? H 0.5936 1.0220 0.6487
C39? C 0.149(3) 0.828(9) 0.532(4)
C40? C 0.1734(12) 0.856(3) 0.611(2)
C41? C 0.1305(16) 0.913(2) 0.6535(16)
H48? H 0.1475 0.9393 0.7051
C42? C 0.0604(14) 0.937(2) 0.625(2)
H49? H 0.0308 0.9780 0.6583
C43? C 0.0341(17) 0.904(2) 0.552(2)
H50? H -0.0143 0.9172 0.5350
C44? C 0.0791(17) 0.850(3) 0.5005(16)
H51? H 0.0628 0.8289 0.4476
N5? N 0.2409(9) 0.8213(15) 0.6394(10)
H52? H 0.2571 0.8371 0.6887
H53? H 0.2672 0.7832 0.6080
loop_
_geom_bond_atom_site_label_1
_geom_bond_atom_site_label_2
_geom_bond_site_symmetry_1
_geom_bond_site_symmetry_2
Si1 C10 1_555 1_555
O1 C1 1_555 1_555
N1 C1 1_555 1_555
N2 C12 1_555 1_555
N3 C18 1_555 1_555
C1 C2 1_555 1_555
C2 C3 1_555 1_555
C3 H1 1_555 1_555
C4 C3 1_555 1_555
H2 C4 1_555 1_555
C5 C4 1_555 1_555
H3 C5 1_555 1_555
C6 C5 1_555 1_555
H4 C6 1_555 1_555
C7 C2 1_555 1_555
C8 N1 1_555 1_555
C9 C8 1_555 1_555
C10 C9 1_555 1_555
C11 C10 1_555 1_555
H5 C11 1_555 1_555
C12 C11 1_555 1_555
C13 C12 1_555 1_555
H6 C13 1_555 1_555
C14 C9 1_555 1_555
H7 C14 1_555 1_555
C15 C8 1_555 1_555
C16 Si1 1_555 1_555
C17 C16 1_555 1_555
H8 C17 1_555 1_555
C18 C17 1_555 1_555
C19 C18 1_555 1_555
H9 C19 1_555 1_555
C20 C15 1_555 1_555
H10 C20 1_555 1_555
C21 Si1 1_555 1_555
H11 C21 1_555 1_555
H12 C21 1_555 1_555
H13 C21 1_555 1_555
C22 Si1 1_555 1_555
H14 C22 1_555 1_555
H15 C22 1_555 1_555
H16 C22 1_555 1_555
C23 N2 1_555 1_555
H17 C23 1_555 1_555
H18 C23 1_555 1_555
C24 C23 1_555 1_555
H19 C24 1_555 1_555
H20 C24 1_555 1_555
H21 C24 1_555 1_555
C25 N1 1_555 1_555
C26 C25 1_555 1_555
C27 C26 1_555 1_555
H22 C27 1_555 1_555
C28 C27 1_555 1_555
H23 C28 1_555 1_555
C29 C28 1_555 1_555
H24 C29 1_555 1_555
C30 C25 1_555 1_555
H25 C30 1_555 1_555
N4 C26 1_555 1_555
H26 N4 1_555 1_555
H27 N4 1_555 1_555
C31 N2 1_555 1_555
H28 C31 1_555 1_555
H29 C31 1_555 1_555
C32 C31 1_555 1_555
H30 C32 1_555 1_555
H31 C32 1_555 1_555
H32 C32 1_555 1_555
C33 N3 1_555 1_555
H33 C33 1_555 1_555
H34 C33 1_555 1_555
C34 C33 1_555 1_555
H35 C34 1_555 1_555
H36 C34 1_555 1_555
H37 C34 1_555 1_555
C35 N3 1_555 1_555
H38 C35 1_555 1_555
H39 C35 1_555 1_555
C36 C35 1_555 1_555
H40 C36 1_555 1_555
H41 C36 1_555 1_555
H42 C36 1_555 1_555
C45 H54 1_555 1_555
H55 C45 1_555 1_555
Cl1 C45 1_555 1_555
Cl2 C45 1_555 1_555
C6 C7 1_555 1_555
C7 C8 1_555 1_555
C13 C14 1_555 1_555
C15 C16 1_555 1_555
C19 C20 1_555 1_555
C29 C30 1_555 1_555

#END
