
#######################################################################
#
#                 Cambridge Crystallographic Data Centre
#                                CCDC 
#
#######################################################################
#
# If this CIF has been generated from an entry in the Cambridge 
# Structural Database, then it will include bibliographic, chemical, 
# crystal, experimental, refinement or atomic coordinate data resulting 
# from the CCDC's data processing and validation procedures.
#
#######################################################################

data_OLUHEK
_chemical_formula_moiety         'C20 H21 F3 O5'
_chemical_name_systematic        
'methyl 2-hydroxy-7,7-dimethyl-5-oxo-4-phenyl-2-(trifluoromethyl)-3,4,5,6,7,8-hexahydro-2H-chromene-3-carboxylate'
_symmetry_cell_setting           monoclinic
_symmetry_space_group_name_H-M   'P 21/n'
_symmetry_Int_Tables_number      14
_space_group_name_Hall           '-P 2yn'
loop_
_symmetry_equiv_pos_site_id
_symmetry_equiv_pos_as_xyz
1 x,y,z
2 1/2-x,1/2+y,1/2-z
3 -x,-y,-z
4 1/2+x,1/2-y,1/2+z
_cell_length_a                   13.22(3)
_cell_length_b                   12.02(2)
_cell_length_c                   24.49(5)
_cell_angle_alpha                90
_cell_angle_beta                 95.82(3)
_cell_angle_gamma                90
_cell_volume                     3871.51
_cell_formula_units_Z            8
loop_
_atom_site_label
_atom_site_type_symbol
_atom_site_fract_x
_atom_site_fract_y
_atom_site_fract_z
C1 C 0.3752(5) 0.1686(4) 0.19390(19)
C2 C 0.4709(6) 0.1415(4) 0.2283(2)
H1 H 0.5269 0.1442 0.2055
H2 H 0.4666 0.0661 0.2419
C3 C 0.4938(5) 0.2186(4) 0.27618(19)
C4 C 0.4729(6) 0.3371(4) 0.2569(2)
H3 H 0.4805 0.3863 0.2885
H4 H 0.5232 0.3585 0.2327
C5 C 0.3686(6) 0.3526(4) 0.2273(2)
C6 C 0.3318(5) 0.2681(4) 0.18828(19)
C7 C 0.2420(5) 0.2922(4) 0.14723(18)
H5 H 0.1829 0.3061 0.1674
C8 C 0.2173(5) 0.1921(4) 0.10878(19)
H6 H 0.2663 0.1923 0.0813
C9 C 0.2332(5) 0.0850(4) 0.1421(2)
C10 C 0.4262(7) 0.1875(6) 0.3203(2)
H7 H 0.3564 0.2007 0.3070
H8 H 0.4440 0.2320 0.3524
H9 H 0.4354 0.1103 0.3294
C11 C 0.6050(6) 0.2054(6) 0.2995(3)
H10 H 0.6214 0.1278 0.3029
H11 H 0.6152 0.2401 0.3349
H12 H 0.6482 0.2401 0.2752
C12 C 0.2586(5) 0.3938(4) 0.11275(19)
C13 C 0.3501(6) 0.4073(5) 0.0907(2)
H13 H 0.4019 0.3552 0.0975
C14 C 0.3636(7) 0.5003(6) 0.0580(2)
H14 H 0.4247 0.5102 0.0429
C15 C 0.2871(8) 0.5773(6) 0.0482(3)
H15 H 0.2959 0.6390 0.0263
C16 C 0.1990(8) 0.5622(5) 0.0707(3)
H16 H 0.1471 0.6142 0.0644
C17 C 0.1852(7) 0.4718(5) 0.1027(2)
H17 H 0.1240 0.4635 0.1180
C18 C 0.2206(7) -0.0195(4) 0.1070(3)
C19 C 0.1135(6) 0.2021(4) 0.0790(2)
C20 C 0.0188(7) 0.1914(9) -0.0069(3)
H18 H -0.0259 0.1365 0.0060
H19 H 0.0276 0.1773 -0.0447
H20 H -0.0100 0.2640 -0.0034
F1 F 0.2821(4) -0.0196(3) 0.06714(16)
F2 F 0.2434(4) -0.1102(3) 0.13651(15)
F3 F 0.1284(4) -0.0301(3) 0.08299(18)
O1 O 0.3372(4) 0.0775(2) 0.16465(14)
O2 O 0.3155(4) 0.4352(3) 0.23450(14)
O3 O 0.1692(4) 0.0832(3) 0.18162(14)
H21 H 0.1850 0.0321 0.2030
O4 O 0.1162(4) 0.1858(4) 0.02544(15)
O5 O 0.0394(4) 0.2270(4) 0.10019(18)
C21 C 0.5296(8) 0.1849(9) -0.0086(3)
H22 H 0.4852 0.1382 0.0100
H23 H 0.5374 0.1543 -0.0441
H24 H 0.5011 0.2582 -0.0127
C22 C 0.8703(5) 0.1734(4) 0.20221(18)
C23 C 0.9503(5) 0.1400(4) 0.2452(2)
H25 H 1.0060 0.1069 0.2280
H26 H 0.9232 0.0835 0.2680
C24 C 0.9916(5) 0.2355(4) 0.28173(19)
C25 C 0.8999(5) 0.3049(5) 0.2958(2)
H27 H 0.8602 0.2612 0.3192
H28 H 0.9245 0.3702 0.3163
C26 C 0.8322(5) 0.3414(4) 0.24630(19)
C27 C 0.8180(5) 0.2679(4) 0.19901(18)
C28 C 0.7381(5) 0.2956(4) 0.15253(17)
H29 H 0.6726 0.3013 0.1678
C29 C 0.7290(5) 0.2028(4) 0.10866(18)
H30 H 0.7796 0.2160 0.0828
C30 C 0.7509(5) 0.0904(4) 0.13664(18)
C31 C 1.0494(6) 0.1898(5) 0.3336(2)
H31 H 1.0031 0.1520 0.3550
H32 H 1.0813 0.2500 0.3546
H33 H 1.1005 0.1386 0.3240
C32 C 1.0656(6) 0.3062(5) 0.2530(2)
H34 H 1.1238 0.2623 0.2464
H35 H 1.0870 0.3686 0.2758
H36 H 1.0327 0.3325 0.2187
C33 C 0.7569(5) 0.4041(4) 0.12443(19)
C34 C 0.8476(6) 0.4258(5) 0.1047(2)
H37 H 0.9007 0.3751 0.1106
C35 C 0.8613(7) 0.5219(5) 0.0762(3)
H38 H 0.9240 0.5346 0.0631
C36 C 0.7886(8) 0.5973(5) 0.0665(3)
H39 H 0.7999 0.6616 0.0468
C37 C 0.6946(7) 0.5785(5) 0.0863(2)
H40 H 0.6423 0.6302 0.0804
C38 C 0.6809(6) 0.4816(4) 0.1149(2)
H41 H 0.6184 0.4685 0.1280
C39 C 0.7577(6) -0.0058(4) 0.0951(2)
C40 C 0.6232(7) 0.2074(4) 0.0776(2)
F4 F 0.7858(4) -0.0981(2) 0.12034(14)
F5 F 0.6663(4) -0.0244(3) 0.06774(16)
F6 F 0.8202(4) 0.0159(3) 0.05873(14)
O6 O 0.8508(4) 0.0897(2) 0.16447(14)
O7 O 0.7796(4) 0.4259(3) 0.24765(13)
O8 O 0.6797(3) 0.0692(3) 0.17074(13)
H42 H 0.7012 0.0223 0.1933
O9 O 0.6305(4) 0.1910(4) 0.02391(15)
O10 O 0.5465(5) 0.2236(4) 0.09720(19)
loop_
_geom_bond_atom_site_label_1
_geom_bond_atom_site_label_2
_geom_bond_site_symmetry_1
_geom_bond_site_symmetry_2
C1 C2 1_555 1_555
C2 H1 1_555 1_555
H2 C2 1_555 1_555
C3 C2 1_555 1_555
C4 C3 1_555 1_555
H3 C4 1_555 1_555
H4 C4 1_555 1_555
C5 C4 1_555 1_555
C6 C1 1_555 1_555
C7 C6 1_555 1_555
H5 C7 1_555 1_555
C8 C7 1_555 1_555
H6 C8 1_555 1_555
C9 C8 1_555 1_555
C10 C3 1_555 1_555
H7 C10 1_555 1_555
H8 C10 1_555 1_555
H9 C10 1_555 1_555
C11 C3 1_555 1_555
H10 C11 1_555 1_555
H11 C11 1_555 1_555
H12 C11 1_555 1_555
C12 C7 1_555 1_555
C13 C12 1_555 1_555
H13 C13 1_555 1_555
C14 C13 1_555 1_555
H14 C14 1_555 1_555
C15 C14 1_555 1_555
H15 C15 1_555 1_555
C16 C15 1_555 1_555
H16 C16 1_555 1_555
C17 C12 1_555 1_555
H17 C17 1_555 1_555
C18 C9 1_555 1_555
C19 C8 1_555 1_555
C20 H18 1_555 1_555
H19 C20 1_555 1_555
H20 C20 1_555 1_555
F1 C18 1_555 1_555
F2 C18 1_555 1_555
F3 C18 1_555 1_555
O1 C1 1_555 1_555
O2 C5 1_555 1_555
O3 C9 1_555 1_555
H21 O3 1_555 1_555
O4 C19 1_555 1_555
O5 C19 1_555 1_555
C21 H22 1_555 1_555
H23 C21 1_555 1_555
H24 C21 1_555 1_555
C22 C23 1_555 1_555
C23 H25 1_555 1_555
H26 C23 1_555 1_555
C24 C23 1_555 1_555
C25 C24 1_555 1_555
H27 C25 1_555 1_555
H28 C25 1_555 1_555
C26 C25 1_555 1_555
C27 C22 1_555 1_555
C28 C27 1_555 1_555
H29 C28 1_555 1_555
C29 C28 1_555 1_555
H30 C29 1_555 1_555
C30 C29 1_555 1_555
C31 C24 1_555 1_555
H31 C31 1_555 1_555
H32 C31 1_555 1_555
H33 C31 1_555 1_555
C32 C24 1_555 1_555
H34 C32 1_555 1_555
H35 C32 1_555 1_555
H36 C32 1_555 1_555
C33 C28 1_555 1_555
C34 C33 1_555 1_555
H37 C34 1_555 1_555
C35 C34 1_555 1_555
H38 C35 1_555 1_555
C36 C35 1_555 1_555
H39 C36 1_555 1_555
C37 C36 1_555 1_555
H40 C37 1_555 1_555
C38 C33 1_555 1_555
H41 C38 1_555 1_555
C39 C30 1_555 1_555
C40 C29 1_555 1_555
F4 C39 1_555 1_555
F5 C39 1_555 1_555
F6 C39 1_555 1_555
O6 C22 1_555 1_555
O7 C26 1_555 1_555
O8 C30 1_555 1_555
H42 O8 1_555 1_555
O9 C21 1_555 1_555
O10 C40 1_555 1_555
C5 C6 1_555 1_555
C9 O1 1_555 1_555
C16 C17 1_555 1_555
C20 O4 1_555 1_555
C26 C27 1_555 1_555
C30 O6 1_555 1_555
C37 C38 1_555 1_555
C40 O9 1_555 1_555

#END
