
#######################################################################
#
#                 Cambridge Crystallographic Data Centre
#                                CCDC 
#
#######################################################################
#
# If this CIF has been generated from an entry in the Cambridge 
# Structural Database, then it will include bibliographic, chemical, 
# crystal, experimental, refinement or atomic coordinate data resulting 
# from the CCDC's data processing and validation procedures.
#
#######################################################################

data_OLUJIP
_chemical_formula_moiety         'C5 H14 O2 P2'
_chemical_name_systematic        'Methylene-bis(dimethylphosphine) dioxide'
_symmetry_cell_setting           monoclinic
_symmetry_space_group_name_H-M   'C 2/c'
_symmetry_Int_Tables_number      15
_space_group_name_Hall           '-C 2yn'
loop_
_symmetry_equiv_pos_site_id
_symmetry_equiv_pos_as_xyz
1 x,y,z
2 -x,y,1/2-z
3 1/2+x,1/2+y,z
4 1/2-x,1/2+y,1/2-z
5 -x,-y,-z
6 x,-y,1/2+z
7 1/2-x,1/2-y,-z
8 1/2+x,1/2-y,1/2+z
_cell_length_a                   31.360(6)
_cell_length_b                   5.7109(15)
_cell_length_c                   9.488(4)
_cell_angle_alpha                90
_cell_angle_beta                 95.231(15)
_cell_angle_gamma                90
_cell_volume                     1692.17
_exptl_crystal_colour            colorless
_cell_formula_units_Z            8
loop_
_atom_site_label
_atom_site_type_symbol
_atom_site_fract_x
_atom_site_fract_y
_atom_site_fract_z
P1 P 0.42339(3) 0.13406(18) 0.48958(11)
P2 P 0.32502(3) 0.12341(18) 0.45181(11)
O1 O 0.42697(9) -0.1206(4) 0.5223(3)
O2 O 0.32115(9) 0.2212(5) 0.5959(3)
C1 C 0.46514(13) 0.2447(8) 0.3918(5)
H1 H 0.4930 0.2069 0.4419
H2 H 0.4623 0.4149 0.3822
H3 H 0.4630 0.1727 0.2976
C2 C 0.42456(14) 0.3142(8) 0.6431(5)
H4 H 0.3998 0.2781 0.6953
H5 H 0.4235 0.4793 0.6147
H6 H 0.4510 0.2844 0.7038
C3 C 0.37434(13) 0.2079(7) 0.3814(4)
H7 H 0.3738 0.3795 0.3663
H8 H 0.3753 0.1331 0.2876
C4 C 0.28427(13) 0.2180(7) 0.3203(5)
H9 H 0.2562 0.2032 0.3571
H10 H 0.2850 0.1206 0.2355
H11 H 0.2893 0.3819 0.2961
C5 C 0.32338(14) -0.1893(7) 0.4446(5)
H12 H 0.3468 -0.2536 0.5087
H13 H 0.3266 -0.2412 0.3477
H14 H 0.2959 -0.2444 0.4735
loop_
_geom_bond_atom_site_label_1
_geom_bond_atom_site_label_2
_geom_bond_site_symmetry_1
_geom_bond_site_symmetry_2
P1 O1 1_555 1_555
P2 O2 1_555 1_555
C1 P1 1_555 1_555
H1 C1 1_555 1_555
H2 C1 1_555 1_555
H3 C1 1_555 1_555
C2 P1 1_555 1_555
H4 C2 1_555 1_555
H5 C2 1_555 1_555
H6 C2 1_555 1_555
C3 P1 1_555 1_555
H7 C3 1_555 1_555
H8 C3 1_555 1_555
C4 P2 1_555 1_555
H9 C4 1_555 1_555
H10 C4 1_555 1_555
H11 C4 1_555 1_555
C5 P2 1_555 1_555
H12 C5 1_555 1_555
H13 C5 1_555 1_555
H14 C5 1_555 1_555
P2 C3 1_555 1_555

#END
