
#######################################################################
#
#                 Cambridge Crystallographic Data Centre
#                                CCDC 
#
#######################################################################
#
# If this CIF has been generated from an entry in the Cambridge 
# Structural Database, then it will include bibliographic, chemical, 
# crystal, experimental, refinement or atomic coordinate data resulting 
# from the CCDC's data processing and validation procedures.
#
#######################################################################

data_OLUJUB
_chemical_formula_moiety         'C10 H10 F4 N2 O2 Si1'
_chemical_name_systematic        
'cis-tetrafluorobis(pyridine 1-oxide)silicon(iv)'
_symmetry_cell_setting           monoclinic
_symmetry_space_group_name_H-M   'P 21/c'
_symmetry_Int_Tables_number      14
_space_group_name_Hall           '-P 2ybc'
loop_
_symmetry_equiv_pos_site_id
_symmetry_equiv_pos_as_xyz
1 x,y,z
2 -x,1/2+y,1/2-z
3 -x,-y,-z
4 x,1/2-y,1/2+z
_cell_length_a                   7.7086(15)
_cell_length_b                   12.844(3)
_cell_length_c                   12.532(2)
_cell_angle_alpha                90
_cell_angle_beta                 105.119(10)
_cell_angle_gamma                90
_cell_volume                     1197.84
_exptl_crystal_colour            colorless
_exptl_crystal_description       block
_cell_formula_units_Z            4
loop_
_atom_site_label
_atom_site_type_symbol
_atom_site_fract_x
_atom_site_fract_y
_atom_site_fract_z
Si1 Si 0.17307(12) 0.21331(7) 0.20575(8)
F1 F 0.3903(2) 0.21450(15) 0.21114(15)
F2 F 0.2010(3) 0.11814(15) 0.29836(16)
F3 F 0.1218(3) 0.13161(15) 0.09968(15)
F4 F -0.0404(2) 0.23142(15) 0.20248(15)
O1 O 0.2085(3) 0.31213(18) 0.31815(18)
O2 O 0.1634(3) 0.32346(18) 0.10579(18)
N1 N 0.3760(4) 0.3456(2) 0.3694(2)
N2 N -0.0022(4) 0.3500(2) 0.0426(2)
C1 C 0.4439(5) 0.3216(3) 0.4765(3)
H1 H 0.3777 0.2793 0.5140
C2 C 0.6113(5) 0.3592(3) 0.5314(3)
H2 H 0.6608 0.3428 0.6072
C3 C 0.7064(5) 0.4203(3) 0.4764(3)
H3 H 0.8220 0.4458 0.5136
C4 C 0.6320(5) 0.4443(3) 0.3663(3)
H4 H 0.6952 0.4873 0.3274
C5 C 0.4659(5) 0.4054(3) 0.3140(3)
H5 H 0.4142 0.4208 0.2382
C6 C -0.0626(4) 0.3047(3) -0.0567(3)
H6 H 0.0090 0.2551 -0.0821
C7 C -0.2305(4) 0.3315(3) -0.1213(3)
H7 H -0.2758 0.2996 -0.1915
C8 C -0.3330(5) 0.4043(3) -0.0846(3)
H8 H -0.4498 0.4217 -0.1282
C9 C -0.2626(5) 0.4520(3) 0.0173(3)
H9 H -0.3299 0.5038 0.0429
C10 C -0.0953(4) 0.4237(3) 0.0808(3)
H10 H -0.0461 0.4556 0.1506
loop_
_geom_bond_atom_site_label_1
_geom_bond_atom_site_label_2
_geom_bond_site_symmetry_1
_geom_bond_site_symmetry_2
Si1 F1 1_555 1_555
F2 Si1 1_555 1_555
F3 Si1 1_555 1_555
F4 Si1 1_555 1_555
O1 Si1 1_555 1_555
O2 Si1 1_555 1_555
N1 O1 1_555 1_555
N2 O2 1_555 1_555
C1 N1 1_555 1_555
H1 C1 1_555 1_555
C2 C1 1_555 1_555
H2 C2 1_555 1_555
C3 C2 1_555 1_555
H3 C3 1_555 1_555
C4 C3 1_555 1_555
H4 C4 1_555 1_555
C5 N1 1_555 1_555
H5 C5 1_555 1_555
C6 N2 1_555 1_555
H6 C6 1_555 1_555
C7 C6 1_555 1_555
H7 C7 1_555 1_555
C8 C7 1_555 1_555
H8 C8 1_555 1_555
C9 C8 1_555 1_555
H9 C9 1_555 1_555
C10 N2 1_555 1_555
H10 C10 1_555 1_555
C4 C5 1_555 1_555
C9 C10 1_555 1_555

#END
