
#######################################################################
#
#                 Cambridge Crystallographic Data Centre
#                                CCDC 
#
#######################################################################
#
# If this CIF has been generated from an entry in the Cambridge 
# Structural Database, then it will include bibliographic, chemical, 
# crystal, experimental, refinement or atomic coordinate data resulting 
# from the CCDC's data processing and validation procedures.
#
#######################################################################

data_OLUSUL
_chemical_formula_moiety         'C14 H13 N4 O7 1-,C9 H12 N3 O2 1+'
_chemical_name_systematic        
'2,6-diacetamidopyridin-1-ium 1-butyl-5-(2,4-dinitrophenyl)-2,6-dioxo-1,2,3,6-tetrahydropyrimidin-4-olate'
_symmetry_cell_setting           monoclinic
_symmetry_space_group_name_H-M   'P 21/c'
_symmetry_Int_Tables_number      14
_space_group_name_Hall           '-P 2ybc'
loop_
_symmetry_equiv_pos_site_id
_symmetry_equiv_pos_as_xyz
1 x,y,z
2 -x,1/2+y,1/2-z
3 -x,-y,-z
4 x,1/2-y,1/2+z
_cell_length_a                   6.0687(7)
_cell_length_b                   26.472(2)
_cell_length_c                   15.5496(19)
_cell_angle_alpha                90
_cell_angle_beta                 91.229(10)
_cell_angle_gamma                90
_cell_volume                     2497.48
_exptl_crystal_colour            red
_exptl_crystal_description       block
_cell_formula_units_Z            4
loop_
_atom_site_label
_atom_site_type_symbol
_atom_site_fract_x
_atom_site_fract_y
_atom_site_fract_z
C1 C 0.2518(13) 0.75063(19) 0.4299(4)
C2 C 0.4103(12) 0.7242(3) 0.3872(5)
H1 H 0.5357 0.7404 0.3677
C3 C 0.3805(8) 0.6736(2) 0.3739(4)
C4 C 0.1867(7) 0.64845(17) 0.3981(3)
C5 C 0.0408(8) 0.67593(16) 0.4473(3)
H2 H -0.0803 0.6597 0.4704
C6 C 0.0714(10) 0.72707(18) 0.4627(4)
H3 H -0.0293 0.7451 0.4949
C7 C 0.1289(6) 0.59835(15) 0.3659(3)
C8 C 0.1273(7) 0.58889(16) 0.2777(3)
C9 C -0.0343(8) 0.50591(16) 0.3033(3)
C10 C 0.0547(6) 0.56125(15) 0.4243(4)
C11 C 0.0341(15) 0.5333(3) 0.1544(4)
H4 H -0.0128 0.5641 0.1255
H5 H -0.0753 0.5075 0.1419
C12 C 0.2572(16) 0.5166(3) 0.1191(6)
H6 H 0.2505 0.5185 0.0568
H7 H 0.3701 0.5399 0.1393
C13 C 0.3228(16) 0.4638(4) 0.1452(6)
H8 H 0.3130 0.4607 0.2071
H9 H 0.4752 0.4582 0.1302
C14 C 0.1811(19) 0.4233(3) 0.1029(7)
H10 H 0.2307 0.3906 0.1219
H11 H 0.1924 0.4256 0.0416
H12 H 0.0303 0.4280 0.1186
N1 N 0.5630(6) 0.6452(2) 0.3335(3)
N2 N 0.0459(7) 0.54227(13) 0.2479(3)
N3 N -0.0216(6) 0.51642(13) 0.3868(3)
N4 N 0.306(2) 0.8034(4) 0.4286(8)
O1 O 0.1846(16) 0.8271(4) 0.4711(7)
O2 O 0.4607(19) 0.8202(3) 0.3887(7)
O3 O 0.6890(6) 0.6711(2) 0.2904(3)
O4 O 0.5859(6) 0.6006(2) 0.3489(3)
O5 O 0.1925(5) 0.61899(11) 0.2228(2)
O6 O -0.1063(6) 0.46497(12) 0.2765(2)
O7 O 0.0640(5) 0.56493(11) 0.5035(2)
H13 H -0.052(6) 0.4901(16) 0.432(3)
C19 C 0.7700(7) 0.33883(16) 0.3234(3)
C20 C 0.9595(8) 0.33812(18) 0.2778(3)
H23 H 1.0286 0.3680 0.2620
C21 C 1.0454(8) 0.29169(19) 0.2559(4)
H24 H 1.1745 0.2906 0.2248
C22 C 0.9458(8) 0.24684(19) 0.2786(4)
H25 H 1.0063 0.2159 0.2635
C23 C 0.7574(8) 0.24930(16) 0.3235(3)
C24 C 0.5033(7) 0.38824(16) 0.4031(3)
C25 C 0.4427(7) 0.44171(16) 0.4245(4)
H26 H 0.5372 0.4645 0.3945
H27 H 0.4601 0.4470 0.4853
H28 H 0.2922 0.4478 0.4073
C26 C 0.4541(10) 0.20208(17) 0.3911(3)
C27 C 0.3696(12) 0.14964(19) 0.4046(4)
H29 H 0.4649 0.1259 0.3772
H30 H 0.2235 0.1468 0.3803
H31 H 0.3664 0.1426 0.4652
N6 N 0.6727(6) 0.38379(13) 0.3484(3)
N7 N 0.6721(7) 0.29457(12) 0.3461(3)
N8 N 0.6476(8) 0.20565(14) 0.3471(3)
O10 O 0.4084(5) 0.35171(11) 0.4336(2)
O11 O 0.3636(6) 0.23998(12) 0.4184(2)
H32 H 0.739(8) 0.4154(18) 0.324(3)
H33 H 0.710(8) 0.1778(19) 0.323(3)
H34 H 0.528(8) 0.2961(16) 0.381(3)
C15? C 0.095(7) 0.5213(14) 0.1615(16)
H14? H 0.0533 0.5459 0.1180
H15? H 0.0059 0.4913 0.1518
C16? C 0.337(6) 0.5074(11) 0.150(3)
H16? H 0.4017 0.5317 0.1117
H17? H 0.4125 0.5106 0.2056
C17? C 0.380(8) 0.4546(9) 0.115(3)
H18? H 0.5327 0.4506 0.0996
H19? H 0.3430 0.4288 0.1571
C18? C 0.227(10) 0.452(2) 0.037(3)
H20? H 0.2026 0.4178 0.0207
H21? H 0.2923 0.4702 -0.0100
H22? H 0.0883 0.4678 0.0501
N5? N 0.209(4) 0.8084(5) 0.4502(15)
O8? O 0.069(3) 0.8308(5) 0.4877(10)
O9? O 0.362(3) 0.8357(6) 0.4153(12)
loop_
_geom_bond_atom_site_label_1
_geom_bond_atom_site_label_2
_geom_bond_site_symmetry_1
_geom_bond_site_symmetry_2
C1 C2 1_555 1_555
C2 H1 1_555 1_555
C3 C2 1_555 1_555
C4 C3 1_555 1_555
C5 C4 1_555 1_555
H2 C5 1_555 1_555
C6 C1 1_555 1_555
H3 C6 1_555 1_555
C7 C4 1_555 1_555
C8 C7 1_555 1_555
C9 N2 1_555 1_555
C10 C7 1_555 1_555
C11 H4 1_555 1_555
H5 C11 1_555 1_555
C12 C11 1_555 1_555
H6 C12 1_555 1_555
H7 C12 1_555 1_555
C13 C12 1_555 1_555
H8 C13 1_555 1_555
H9 C13 1_555 1_555
C14 C13 1_555 1_555
H10 C14 1_555 1_555
H11 C14 1_555 1_555
H12 C14 1_555 1_555
N1 C3 1_555 1_555
N2 C8 1_555 1_555
N3 C9 1_555 1_555
N4 C1 1_555 1_555
O1 N4 1_555 1_555
O2 N4 1_555 1_555
O3 N1 1_555 1_555
O4 N1 1_555 1_555
O5 C8 1_555 1_555
O6 C9 1_555 1_555
O7 C10 1_555 1_555
H13 N3 1_555 1_555
C19 C20 1_555 1_555
C20 H23 1_555 1_555
C21 C20 1_555 1_555
H24 C21 1_555 1_555
C22 C21 1_555 1_555
H25 C22 1_555 1_555
C23 C22 1_555 1_555
C24 C25 1_555 1_555
C25 H26 1_555 1_555
H27 C25 1_555 1_555
H28 C25 1_555 1_555
C26 C27 1_555 1_555
C27 H29 1_555 1_555
H30 C27 1_555 1_555
H31 C27 1_555 1_555
N6 C19 1_555 1_555
N7 C19 1_555 1_555
N8 C23 1_555 1_555
O10 C24 1_555 1_555
O11 C26 1_555 1_555
H32 N6 1_555 1_555
H33 N8 1_555 1_555
H34 N7 1_555 1_555
C5 C6 1_555 1_555
C10 N3 1_555 1_555
C11 N2 1_555 1_555
C23 N7 1_555 1_555
C24 N6 1_555 1_555
C26 N8 1_555 1_555

#END
