
#######################################################################
#
#                 Cambridge Crystallographic Data Centre
#                                CCDC 
#
#######################################################################
#
# If this CIF has been generated from an entry in the Cambridge 
# Structural Database, then it will include bibliographic, chemical, 
# crystal, experimental, refinement or atomic coordinate data resulting 
# from the CCDC's data processing and validation procedures.
#
#######################################################################

data_OLUTAS
_chemical_formula_moiety         'C14 H13 N4 O7 1-,C7 H10 N5 1+'
_chemical_name_systematic        
'6-amino-9-ethyl-9H-purin-1-ium 1-butyl-5-(2,4-dinitrophenyl)-2,6-dioxo-1,2,3,6-tetrahydropyrimidin-4-olate'
_symmetry_cell_setting           triclinic
_symmetry_space_group_name_H-M   'P -1'
_symmetry_Int_Tables_number      2
_space_group_name_Hall           '-P 1'
loop_
_symmetry_equiv_pos_site_id
_symmetry_equiv_pos_as_xyz
1 x,y,z
2 -x,-y,-z
_cell_length_a                   6.7815(7)
_cell_length_b                   13.4635(15)
_cell_length_c                   13.6973(10)
_cell_angle_alpha                65.862(9)
_cell_angle_beta                 79.945(7)
_cell_angle_gamma                83.299(9)
_cell_volume                     1122.29
_exptl_crystal_colour            red
_exptl_crystal_description       block
_cell_formula_units_Z            2
loop_
_atom_site_label
_atom_site_type_symbol
_atom_site_fract_x
_atom_site_fract_y
_atom_site_fract_z
C1 C 0.5859(3) 0.19960(18) 0.49979(17)
C2 C 0.5732(3) 0.28694(18) 0.52861(17)
H1 H 0.6088 0.3557 0.4780
C3 C 0.5059(3) 0.26901(18) 0.63528(17)
C4 C 0.4548(3) 0.16585(18) 0.71534(17)
C5 C 0.4631(3) 0.08220(18) 0.67932(17)
H2 H 0.4227 0.0138 0.7286
C6 C 0.5288(3) 0.09724(18) 0.57336(17)
H3 H 0.5347 0.0398 0.5517
C7 C 0.5406(3) 0.18092(18) 0.87716(17)
C8 C 0.4094(3) 0.14394(18) 0.83073(17)
C9 C 0.2405(3) 0.08572(18) 0.89472(17)
C10 C 0.3203(3) 0.11215(17) 1.05017(18)
C11 C 0.6226(3) 0.20419(19) 1.03488(18)
H4 H 0.7610 0.1917 1.0077
H5 H 0.6039 0.1639 1.1126
C12 C 0.5814(3) 0.32505(19) 1.00939(18)
H6 H 0.4396 0.3384 1.0296
H7 H 0.6132 0.3657 0.9321
C13 C 0.7014(4) 0.3671(2) 1.0676(2)
H8 H 0.6800 0.4457 1.0408
H9 H 0.6489 0.3374 1.1439
C14 C 0.9251(4) 0.3397(2) 1.0554(2)
H10 H 0.9880 0.3692 1.0946
H11 H 0.9800 0.3705 0.9803
H12 H 0.9489 0.2620 1.0836
N1 N 0.6628(3) 0.21591(16) 0.38766(14)
N2 N 0.4827(3) 0.36691(15) 0.65949(15)
N3 N 0.4905(3) 0.16306(15) 0.98701(14)
N4 N 0.2078(3) 0.07244(15) 1.00210(14)
O1 O 0.6574(2) 0.14103(14) 0.35944(13)
O2 O 0.7316(2) 0.30473(13) 0.32764(12)
O3 O 0.6036(2) 0.43797(13) 0.60923(13)
O4 O 0.3403(2) 0.37459(13) 0.72488(13)
O5 O 0.6995(2) 0.22737(13) 0.82774(12)
O6 O 0.1171(2) 0.04678(13) 0.86291(12)
O7 O 0.2742(2) 0.10137(13) 1.14490(12)
H13 H 0.100(5) 0.037(2) 1.043(2)
C15 C 0.1882(3) 0.21568(18) 0.33494(17)
H14 H 0.2299 0.2111 0.2685
C16 C 0.2441(3) 0.41781(19) 0.26933(18)
H15 H 0.3041 0.4123 0.2020
H16 H 0.3424 0.4457 0.2940
C17 C 0.0623(4) 0.49596(19) 0.2501(2)
H17 H 0.1018 0.5663 0.1974
H18 H 0.0034 0.5020 0.3166
H19 H -0.0339 0.4693 0.2241
C18 C 0.0764(3) 0.17536(18) 0.50042(17)
C19 C 0.0038(3) 0.12633(19) 0.61109(18)
C20 C 0.0138(3) 0.30485(19) 0.60883(18)
H20 H -0.0139 0.3471 0.6494
C21 C 0.1159(3) 0.28411(18) 0.45627(17)
N5 N 0.1902(3) 0.30953(15) 0.35000(14)
N6 N 0.1222(3) 0.13197(15) 0.42278(14)
N7 N -0.0336(3) 0.02311(17) 0.66419(17)
N8 N -0.0249(3) 0.19754(16) 0.66057(16)
N9 N 0.0861(3) 0.35350(15) 0.50773(15)
H21 H -0.031(4) -0.018(2) 0.626(2)
H22 H -0.092(4) -0.004(2) 0.732(2)
H23 H -0.070(5) 0.174(2) 0.728(3)
loop_
_geom_bond_atom_site_label_1
_geom_bond_atom_site_label_2
_geom_bond_site_symmetry_1
_geom_bond_site_symmetry_2
C1 C2 1_555 1_555
C2 H1 1_555 1_555
C3 C2 1_555 1_555
C4 C3 1_555 1_555
C5 C4 1_555 1_555
H2 C5 1_555 1_555
C6 C1 1_555 1_555
H3 C6 1_555 1_555
C7 C8 1_555 1_555
C8 C4 1_555 1_555
C9 C8 1_555 1_555
C10 N3 1_555 1_555
C11 H4 1_555 1_555
H5 C11 1_555 1_555
C12 C11 1_555 1_555
H6 C12 1_555 1_555
H7 C12 1_555 1_555
C13 C12 1_555 1_555
H8 C13 1_555 1_555
H9 C13 1_555 1_555
C14 C13 1_555 1_555
H10 C14 1_555 1_555
H11 C14 1_555 1_555
H12 C14 1_555 1_555
N1 C1 1_555 1_555
N2 C3 1_555 1_555
N3 C7 1_555 1_555
N4 C9 1_555 1_555
O1 N1 1_555 1_555
O2 N1 1_555 1_555
O3 N2 1_555 1_555
O4 N2 1_555 1_555
O5 C7 1_555 1_555
O6 C9 1_555 1_555
O7 C10 1_555 1_555
H13 N4 1_555 1_555
C15 H14 1_555 1_555
C16 H15 1_555 1_555
H16 C16 1_555 1_555
C17 C16 1_555 1_555
H17 C17 1_555 1_555
H18 C17 1_555 1_555
H19 C17 1_555 1_555
C18 C19 1_555 1_555
C19 N7 1_555 1_555
C20 H20 1_555 1_555
C21 C18 1_555 1_555
N5 C15 1_555 1_555
N6 C15 1_555 1_555
N7 H21 1_555 1_555
N8 C19 1_555 1_555
N9 C20 1_555 1_555
H22 N7 1_555 1_555
H23 N8 1_555 1_555
C5 C6 1_555 1_555
C10 N4 1_555 1_555
C11 N3 1_555 1_555
C16 N5 1_555 1_555
C18 N6 1_555 1_555
C20 N8 1_555 1_555
C21 N5 1_555 1_555
C21 N9 1_555 1_555

#END
