
#######################################################################
#
#                 Cambridge Crystallographic Data Centre
#                                CCDC 
#
#######################################################################
#
# If this CIF has been generated from an entry in the Cambridge 
# Structural Database, then it will include bibliographic, chemical, 
# crystal, experimental, refinement or atomic coordinate data resulting 
# from the CCDC's data processing and validation procedures.
#
#######################################################################

data_OLUVEY
_chemical_formula_moiety         'C12 H11 N3 O2'
_chemical_name_systematic        
4-(pyridin-2-ylcarbonohydrazonoyl)benzene-1,3-diol
_symmetry_cell_setting           orthorhombic
_symmetry_space_group_name_H-M   'P n a 21'
_symmetry_Int_Tables_number      33
_space_group_name_Hall           'P 2c -2n'
loop_
_symmetry_equiv_pos_site_id
_symmetry_equiv_pos_as_xyz
1 x,y,z
2 -x,-y,1/2+z
3 1/2+x,1/2-y,z
4 1/2-x,1/2+y,1/2+z
_cell_length_a                   16.8466(12)
_cell_length_b                   11.0159(8)
_cell_length_c                   5.5720(4)
_cell_angle_alpha                90
_cell_angle_beta                 90
_cell_angle_gamma                90
_cell_volume                     1034.05
_exptl_crystal_colour            colorless
_exptl_crystal_description       Block
_cell_formula_units_Z            4
loop_
_atom_site_label
_atom_site_type_symbol
_atom_site_fract_x
_atom_site_fract_y
_atom_site_fract_z
N1 N 0.73440(12) 0.95928(17) 0.9208(4)
O1 O 0.92380(10) 0.78560(15) -0.0103(3)
H1 H 0.9041 0.7163 -0.0305
C1 C 0.82480(14) 0.95186(19) 0.5916(4)
N2 N 0.70184(13) 1.02044(18) 1.1096(4)
H2 H 0.7214(16) 1.095(3) 1.156(5)
C2 C 0.83519(15) 0.7776(2) 0.3246(5)
H3 H 0.8189 0.6980 0.2810
C3 C 0.57005(15) 0.9812(2) 1.5930(5)
H4 H 0.5514 1.0288 1.7237
C4 C 0.78980(14) 1.0117(2) 0.7984(4)
H5 H 0.8078 1.0900 0.8441
O2 O 0.74819(11) 0.76911(14) 0.6539(3)
H6 H 0.7292 0.8137 0.7620
C5 C 0.91600(14) 0.9551(2) 0.2511(5)
H7 H 0.9551 0.9963 0.1592
C6 C 0.64725(14) 0.9649(2) 1.2542(4)
N3 N 0.61964(12) 1.03408(17) 1.4352(4)
C7 C 0.89132(14) 0.8377(2) 0.1878(4)
C8 C 0.88216(14) 1.0097(2) 0.4501(5)
H8 H 0.8985 1.0895 0.4923
C9 C 0.80256(14) 0.8329(2) 0.5246(4)
C10 C 0.57061(14) 0.7940(2) 1.3823(5)
H9 H 0.5531 0.7126 1.3630
C11 C 0.62167(14) 0.84428(19) 1.2182(5)
H10 H 0.6394 0.7989 1.0835
C12 C 0.54446(15) 0.8624(2) 1.5775(5)
H11 H 0.5103 0.8286 1.6954
loop_
_geom_bond_atom_site_label_1
_geom_bond_atom_site_label_2
_geom_bond_site_symmetry_1
_geom_bond_site_symmetry_2
N1 N2 1_555 1_555
O1 H1 1_555 1_555
C1 C4 1_555 1_555
N2 H2 1_555 1_555
C2 H3 1_555 1_555
C3 H4 1_555 1_555
C4 N1 1_555 1_555
H5 C4 1_555 1_555
O2 H6 1_555 1_555
C5 H7 1_555 1_555
C6 N2 1_555 1_555
N3 C3 1_555 1_555
C7 O1 1_555 1_555
C8 C1 1_555 1_555
H8 C8 1_555 1_555
C9 C1 1_555 1_555
C10 H9 1_555 1_555
C11 C6 1_555 1_555
H10 C11 1_555 1_555
C12 C3 1_555 1_555
H11 C12 1_555 1_555
C2 C7 1_555 1_555
C2 C9 1_555 1_555
O2 C9 1_555 1_555
C5 C7 1_555 1_555
C5 C8 1_555 1_555
C6 N3 1_555 1_555
C10 C11 1_555 1_555
C10 C12 1_555 1_555

#END
