
#######################################################################
#
#                 Cambridge Crystallographic Data Centre
#                                CCDC 
#
#######################################################################
#
# If this CIF has been generated from an entry in the Cambridge 
# Structural Database, then it will include bibliographic, chemical, 
# crystal, experimental, refinement or atomic coordinate data resulting 
# from the CCDC's data processing and validation procedures.
#
#######################################################################

data_OLUWIB
_chemical_formula_moiety         'C58 H71 N5 2+,2(Br1 1-),2(C4 H10 O1)'
_chemical_name_systematic        
'10,15-bis(3,5-Di-t-butylphenyl)-3,22-diethyl-2,23-dimethylsapphyrin bis(hydrobromide) diethyl ether solvate'
_symmetry_cell_setting           triclinic
_symmetry_space_group_name_H-M   'P -1'
_symmetry_Int_Tables_number      2
_space_group_name_Hall           '-P 1'
loop_
_symmetry_equiv_pos_site_id
_symmetry_equiv_pos_as_xyz
1 x,y,z
2 -x,-y,-z
_cell_length_a                   13.5011(4)
_cell_length_b                   15.4181(4)
_cell_length_c                   16.1110(5)
_cell_angle_alpha                102.337(2)
_cell_angle_beta                 98.236(1)
_cell_angle_gamma                95.617(1)
_cell_volume                     3213.69
_exptl_crystal_colour            black
_exptl_crystal_description       needles
_cell_formula_units_Z            2
_exptl_crystal_recrystallization_method dichloromethane/hexanes
loop_
_atom_site_label
_atom_site_type_symbol
_atom_site_fract_x
_atom_site_fract_y
_atom_site_fract_z
Br2 Br 0.66493(4) 0.21756(3) 0.52236(3)
N1 N 0.4836(3) 0.3468(3) 0.5696(2)
H1 H 0.4968 0.3213 0.5174
N2 N 0.4120(3) 0.1640(3) 0.5155(2)
H2 H 0.4670 0.1803 0.4940
N3 N 0.5086(3) 0.0608(3) 0.3533(2)
H3 H 0.5087 0.1204 0.3692
N4 N 0.6733(3) 0.2232(3) 0.3146(2)
H4 H 0.6347 0.2286 0.3561
N5 N 0.6567(3) 0.4122(2) 0.4629(2)
H5 H 0.6308 0.3554 0.4600
C1 C 0.5246(4) 0.4305(3) 0.6164(3)
C2 C 0.4856(4) 0.4445(3) 0.6952(3)
C3 C 0.4227(4) 0.3681(3) 0.6946(3)
C4 C 0.4199(4) 0.3069(3) 0.6124(3)
C5 C 0.3715(4) 0.2187(3) 0.5769(3)
C6 C 0.2824(4) 0.1688(3) 0.5900(3)
C7 C 0.2748(4) 0.0832(3) 0.5387(3)
C8 C 0.3567(4) 0.0808(3) 0.4914(3)
C9 C 0.3781(4) 0.0071(3) 0.4346(3)
H6 H 0.3362 -0.0475 0.4327
C10 C 0.4474(4) -0.0029(3) 0.3788(3)
C11 C 0.4695(4) -0.0886(3) 0.3372(3)
H7 H 0.4385 -0.1456 0.3421
C12 C 0.5424(4) -0.0758(3) 0.2896(3)
H8 H 0.5732 -0.1217 0.2563
C13 C 0.5683(4) 0.0180(3) 0.2974(3)
C14 C 0.6389(4) 0.0548(3) 0.2539(3)
C15 C 0.6819(4) 0.1433(3) 0.2590(3)
C16 C 0.7480(5) 0.1654(4) 0.2044(3)
H9 H 0.7683 0.1233 0.1589
C17 C 0.7779(5) 0.2534(4) 0.2267(3)
H10 H 0.8236 0.2854 0.1996
C18 C 0.7315(4) 0.2937(3) 0.2960(3)
C19 C 0.7459(4) 0.3864(3) 0.3342(3)
C20 C 0.7132(4) 0.4383(3) 0.4047(3)
C21 C 0.7353(4) 0.5336(3) 0.4324(3)
H11 H 0.7707 0.5719 0.4034
C22 C 0.6964(4) 0.5617(3) 0.5048(3)
H12 H 0.7015 0.6222 0.5377
C23 C 0.6438(4) 0.4856(3) 0.5243(3)
C24 C 0.5910(4) 0.4917(3) 0.5917(3)
H13 H 0.6015 0.5503 0.6294
C25 C 0.5177(4) 0.5259(4) 0.7677(3)
H14 H 0.4708 0.5272 0.8074
H15 H 0.5153 0.5785 0.7450
C26 C 0.6226(6) 0.5275(5) 0.8159(5)
H16 H 0.6402 0.5804 0.8617
H17 H 0.6248 0.4754 0.8394
H18 H 0.6696 0.5272 0.7765
C27 C 0.3742(5) 0.3497(4) 0.7694(3)
H19 H 0.3548 0.2863 0.7595
H20 H 0.3150 0.3790 0.7740
H21 H 0.4206 0.3693 0.8228
C28 C 0.2047(5) 0.2037(4) 0.6413(4)
H22 H 0.1383 0.1811 0.6094
H23 H 0.2139 0.2680 0.6539
H24 H 0.2127 0.1854 0.6949
C29 C 0.1958(4) 0.0052(4) 0.5309(3)
H25 H 0.1597 0.0176 0.5783
H26 H 0.2287 -0.0466 0.5348
C30 C 0.1205(5) -0.0162(4) 0.4475(4)
H27 H 0.0718 -0.0667 0.4457
H28 H 0.0864 0.0350 0.4438
H29 H 0.1561 -0.0298 0.3999
C31 C 0.6749(4) -0.0149(3) 0.1879(3)
C32 C 0.6080(4) -0.0649(3) 0.1158(3)
H30 H 0.5385 -0.0549 0.1088
C33 C 0.6400(5) -0.1279(4) 0.0550(3)
C34 C 0.7419(5) -0.1377(4) 0.0655(3)
H31 H 0.7658 -0.1799 0.0223
C35 C 0.8109(4) -0.0891(4) 0.1359(4)
C36 C 0.7749(4) -0.0285(3) 0.1976(3)
H32 H 0.8203 0.0036 0.2488
C37 C 0.5649(5) -0.1881(4) -0.0221(3)
C38 C 0.9231(5) -0.0982(3) 0.1428(3)
C39 C 0.4552(6) -0.1637(7) -0.0230(6)
H33 H 0.4479 -0.1389 0.0354
H34 H 0.4424 -0.1207 -0.0571
H35 H 0.4079 -0.2170 -0.0460
C40 C 0.5556(7) -0.2849(5) -0.0082(6)
H36 H 0.5154 -0.2912 0.0353
H37 H 0.5257 -0.3262 -0.0615
H38 H 0.6226 -0.2975 0.0096
C41 C 0.5957(9) -0.1883(9) -0.1075(6)
H39 H 0.5618 -0.1441 -0.1298
H40 H 0.6674 -0.1719 -0.1002
H41 H 0.5767 -0.2456 -0.1470
C45 C 0.9782(8) -0.0591(7) 0.2381(5)
H51 H 0.9683 -0.1018 0.2726
H52 H 1.0491 -0.0439 0.2392
H53 H 0.9498 -0.0061 0.2607
C46 C 0.9404(9) -0.1987(5) 0.1267(7)
H54 H 0.9095 -0.2295 0.0692
H55 H 1.0114 -0.2032 0.1345
H56 H 0.9102 -0.2254 0.1673
C47 C 0.9744(9) -0.0525(8) 0.0851(6)
H57 H 0.9422 -0.0775 0.0266
H58 H 0.9693 0.0104 0.0998
H59 H 1.0443 -0.0613 0.0913
C51 C 0.8121(4) 0.4407(3) 0.2898(3)
C52 C 0.7778(4) 0.4438(3) 0.2042(3)
H69 H 0.7131 0.4120 0.1754
C53 C 0.8373(4) 0.4903(4) 0.1599(3)
C54 C 0.9298(4) 0.5363(4) 0.2046(3)
H70 H 0.9717 0.5683 0.1746
C55 C 0.9648(4) 0.5367(3) 0.2912(3)
C56 C 0.9049(4) 0.4870(3) 0.3309(3)
H71 H 0.9290 0.4832 0.3889
C57 C 0.8062(5) 0.4865(5) 0.0641(4)
C58 C 0.8200(6) 0.5799(5) 0.0465(4)
H72 H 0.8891 0.6068 0.0644
H73 H 0.7997 0.5779 -0.0136
H74 H 0.7779 0.6148 0.0796
C59 C 0.8730(7) 0.4278(6) 0.0148(4)
H75 H 0.9423 0.4538 0.0336
H76 H 0.8639 0.3698 0.0275
H77 H 0.8554 0.4219 -0.0462
C60 C 0.6949(6) 0.4462(7) 0.0318(4)
H78 H 0.6864 0.3863 0.0402
H79 H 0.6535 0.4819 0.0650
H80 H 0.6753 0.4450 -0.0281
C61 C 1.0647(4) 0.5942(4) 0.3375(3)
C62 C 1.1530(4) 0.5671(4) 0.2903(4)
H81 H 1.1392 0.5718 0.2314
H82 H 1.2141 0.6053 0.3190
H83 H 1.1605 0.5062 0.2920
C63 C 1.0556(5) 0.6928(4) 0.3405(4)
H84 H 1.0388 0.7015 0.2832
H85 H 1.0033 0.7102 0.3727
H86 H 1.1185 0.7287 0.3683
C64 C 1.0910(4) 0.5852(4) 0.4314(4)
H87 H 1.0377 0.6026 0.4623
H88 H 1.0992 0.5241 0.4315
H89 H 1.1528 0.6232 0.4586
Br1 Br 0.44196(4) 0.26678(3) 0.35299(3)
C42? C 0.5170(15) -0.1198(11) -0.0659(12)
H42? H 0.4753 -0.0934 -0.0265
H43? H 0.5625 -0.0734 -0.0771
H44? H 0.4752 -0.1520 -0.1189
C43? C 0.4851(16) -0.2586(13) -0.0124(19)
H45? H 0.4447 -0.2338 0.0289
H46? H 0.4418 -0.2921 -0.0642
H47? H 0.5268 -0.2975 0.0111
C44? C 0.6316(12) -0.2343(12) -0.0863(9)
H48? H 0.6982 -0.2363 -0.0571
H49? H 0.6012 -0.2938 -0.1161
H50? H 0.6358 -0.1974 -0.1271
C48? C 0.9798(14) -0.1152(10) 0.2228(7)
H60? H 0.9862 -0.1776 0.2168
H61? H 1.0457 -0.0809 0.2362
H62? H 0.9425 -0.0960 0.2683
C49? C 0.9658(11) -0.0041(6) 0.1312(9)
H63? H 0.9462 -0.0029 0.0719
H64? H 0.9388 0.0426 0.1672
H65? H 1.0381 0.0048 0.1457
C50? C 0.9445(13) -0.1641(8) 0.0624(7)
H66? H 0.8902 -0.1691 0.0154
H67? H 1.0072 -0.1452 0.0458
H68? H 0.9471 -0.2213 0.0766
loop_
_geom_bond_atom_site_label_1
_geom_bond_atom_site_label_2
_geom_bond_site_symmetry_1
_geom_bond_site_symmetry_2
N1 H1 1_555 1_555
N2 H2 1_555 1_555
N3 H3 1_555 1_555
N4 H4 1_555 1_555
N5 H5 1_555 1_555
C1 N1 1_555 1_555
C2 C1 1_555 1_555
C3 C2 1_555 1_555
C4 N1 1_555 1_555
C5 N2 1_555 1_555
C6 C5 1_555 1_555
C7 C6 1_555 1_555
C8 N2 1_555 1_555
C9 C8 1_555 1_555
H6 C9 1_555 1_555
C10 N3 1_555 1_555
C11 C10 1_555 1_555
H7 C11 1_555 1_555
C12 C11 1_555 1_555
H8 C12 1_555 1_555
C13 N3 1_555 1_555
C14 C13 1_555 1_555
C15 N4 1_555 1_555
C16 C15 1_555 1_555
H9 C16 1_555 1_555
C17 C16 1_555 1_555
H10 C17 1_555 1_555
C18 N4 1_555 1_555
C19 C18 1_555 1_555
C20 N5 1_555 1_555
C21 C20 1_555 1_555
H11 C21 1_555 1_555
C22 C21 1_555 1_555
H12 C22 1_555 1_555
C23 N5 1_555 1_555
C24 C1 1_555 1_555
H13 C24 1_555 1_555
C25 C2 1_555 1_555
H14 C25 1_555 1_555
H15 C25 1_555 1_555
C26 C25 1_555 1_555
H16 C26 1_555 1_555
H17 C26 1_555 1_555
H18 C26 1_555 1_555
C27 C3 1_555 1_555
H19 C27 1_555 1_555
H20 C27 1_555 1_555
H21 C27 1_555 1_555
C28 C6 1_555 1_555
H22 C28 1_555 1_555
H23 C28 1_555 1_555
H24 C28 1_555 1_555
C29 C7 1_555 1_555
H25 C29 1_555 1_555
H26 C29 1_555 1_555
C30 C29 1_555 1_555
H27 C30 1_555 1_555
H28 C30 1_555 1_555
H29 C30 1_555 1_555
C31 C14 1_555 1_555
C32 C31 1_555 1_555
H30 C32 1_555 1_555
C33 C32 1_555 1_555
C34 C33 1_555 1_555
H31 C34 1_555 1_555
C35 C34 1_555 1_555
C36 C31 1_555 1_555
H32 C36 1_555 1_555
C37 C33 1_555 1_555
C38 C35 1_555 1_555
C39 C37 1_555 1_555
H33 C39 1_555 1_555
H34 C39 1_555 1_555
H35 C39 1_555 1_555
C40 C37 1_555 1_555
H36 C40 1_555 1_555
H37 C40 1_555 1_555
H38 C40 1_555 1_555
C41 C37 1_555 1_555
H39 C41 1_555 1_555
H40 C41 1_555 1_555
H41 C41 1_555 1_555
C45 C38 1_555 1_555
H51 C45 1_555 1_555
H52 C45 1_555 1_555
H53 C45 1_555 1_555
C46 C38 1_555 1_555
H54 C46 1_555 1_555
H55 C46 1_555 1_555
H56 C46 1_555 1_555
C47 C38 1_555 1_555
H57 C47 1_555 1_555
H58 C47 1_555 1_555
H59 C47 1_555 1_555
C51 C19 1_555 1_555
C52 C51 1_555 1_555
H69 C52 1_555 1_555
C53 C52 1_555 1_555
C54 C53 1_555 1_555
H70 C54 1_555 1_555
C55 C54 1_555 1_555
C56 C51 1_555 1_555
H71 C56 1_555 1_555
C57 C53 1_555 1_555
C58 C57 1_555 1_555
H72 C58 1_555 1_555
H73 C58 1_555 1_555
H74 C58 1_555 1_555
C59 C57 1_555 1_555
H75 C59 1_555 1_555
H76 C59 1_555 1_555
H77 C59 1_555 1_555
C60 C57 1_555 1_555
H78 C60 1_555 1_555
H79 C60 1_555 1_555
H80 C60 1_555 1_555
C61 C55 1_555 1_555
C62 C61 1_555 1_555
H81 C62 1_555 1_555
H82 C62 1_555 1_555
H83 C62 1_555 1_555
C63 C61 1_555 1_555
H84 C63 1_555 1_555
H85 C63 1_555 1_555
H86 C63 1_555 1_555
C64 C61 1_555 1_555
H87 C64 1_555 1_555
H88 C64 1_555 1_555
H89 C64 1_555 1_555
C3 C4 1_555 1_555
C4 C5 1_555 1_555
C7 C8 1_555 1_555
C9 C10 1_555 1_555
C12 C13 1_555 1_555
C14 C15 1_555 1_555
C17 C18 1_555 1_555
C19 C20 1_555 1_555
C22 C23 1_555 1_555
C23 C24 1_555 1_555
C35 C36 1_555 1_555
C55 C56 1_555 1_555

#END
