
#######################################################################
#
#                 Cambridge Crystallographic Data Centre
#                                CCDC 
#
#######################################################################
#
# If this CIF has been generated from an entry in the Cambridge 
# Structural Database, then it will include bibliographic, chemical, 
# crystal, experimental, refinement or atomic coordinate data resulting 
# from the CCDC's data processing and validation procedures.
#
#######################################################################

data_OLUWAU
_chemical_formula_moiety         'C34 H54 Ca2 N2 O14 4+,4(Cl1 O4 1-)'
_chemical_name_systematic        
"(\m~2~-15,15'-Ethene-1,2-diyl-bis(2,3,5,6,8,9,11,12-octahydro-1,4,7,10,13-benzopentaoxacyclopentadecine))-bis(acetonitrile)-tetra-aqua-di-calcium tetraperchlorate"
_symmetry_cell_setting           monoclinic
_symmetry_space_group_name_H-M   'P 21/n'
_symmetry_Int_Tables_number      14
_space_group_name_Hall           '-P 2yn'
loop_
_symmetry_equiv_pos_site_id
_symmetry_equiv_pos_as_xyz
1 x,y,z
2 1/2-x,1/2+y,1/2-z
3 -x,-y,-z
4 1/2+x,1/2-y,1/2+z
_cell_length_a                   8.1196(2)
_cell_length_b                   16.2585(5)
_cell_length_c                   19.1065(5)
_cell_angle_alpha                90
_cell_angle_beta                 97.303(1)
_cell_angle_gamma                90
_cell_volume                     2501.84
_exptl_crystal_colour            colorless
_exptl_crystal_description       block
_chemical_melting_point          'above 330deg.C'
_cell_formula_units_Z            2
loop_
_atom_site_label
_atom_site_type_symbol
_atom_site_fract_x
_atom_site_fract_y
_atom_site_fract_z
Ca1 Ca 0.71424(3) 0.242197(17) 0.122322(14)
O9 O 0.61638(13) 0.20841(6) -0.00519(5)
O10 O 0.85598(13) 0.31563(7) 0.03240(6)
O11 O 1.01188(13) 0.21932(7) 0.13697(6)
O12 O 0.80869(12) 0.12257(6) 0.20158(5)
O13 O 0.58749(12) 0.10421(6) 0.08779(5)
C1 C 0.01902(17) 0.02924(9) -0.02217(8)
C2 C 0.17763(17) 0.07360(9) -0.01930(7)
C3 C 0.19560(18) 0.13250(9) -0.07074(8)
C4 C 0.34042(18) 0.17955(9) -0.06927(8)
C5 C 0.46776(17) 0.16694(8) -0.01521(7)
C6 C 0.45182(16) 0.10769(8) 0.03662(7)
C7 C 0.30995(17) 0.06051(9) 0.03508(7)
C8 C 0.65045(19) 0.26793(9) -0.05768(8)
C9 C 0.83161(19) 0.28865(10) -0.03984(8)
C10 C 1.02842(18) 0.33082(10) 0.05826(8)
C11 C 1.11183(19) 0.25281(10) 0.08715(9)
C12 C 1.08808(19) 0.15142(10) 0.17629(9)
C13 C 0.97820(19) 0.13230(11) 0.23263(8)
C14 C 0.77390(18) 0.04130(9) 0.17437(8)
C15 C 0.59615(18) 0.04019(9) 0.14024(7)
O14 O 0.52523(15) 0.22756(8) 0.20727(7)
O15 O 0.81264(18) 0.35302(9) 0.19470(8)
N1 N 0.50395(16) 0.35302(9) 0.08591(8)
C16 C 0.43508(19) 0.41419(10) 0.08139(9)
C17 C 0.3476(2) 0.49246(11) 0.07636(12)
H1 H -0.062(3) 0.0473(14) -0.0608(12)
H2 H 0.107(2) 0.1429(12) -0.1098(10)
H3 H 0.351(2) 0.2205(13) -0.1043(11)
H4 H 0.300(2) 0.0187(12) 0.0704(10)
H5 H 0.575(2) 0.3146(11) -0.0559(9)
H6 H 0.628(2) 0.2444(12) -0.1047(11)
H7 H 0.898(3) 0.2431(13) -0.0452(11)
H8 H 0.862(2) 0.3305(12) -0.0704(10)
H9 H 1.027(2) 0.3722(12) 0.0971(10)
H10 H 1.082(3) 0.3537(14) 0.0199(12)
H11 H 1.119(2) 0.2161(13) 0.0518(11)
H12 H 1.222(3) 0.2650(13) 0.1106(11)
H13 H 1.200(3) 0.1682(14) 0.2005(12)
H14 H 1.098(3) 0.1061(13) 0.1461(11)
H15 H 1.015(2) 0.0832(13) 0.2589(11)
H16 H 0.977(2) 0.1761(13) 0.2646(11)
H17 H 0.791(2) 0.0027(12) 0.2143(10)
H18 H 0.848(2) 0.0284(12) 0.1430(11)
H19 H 0.569(2) -0.0112(12) 0.1183(10)
H20 H 0.518(2) 0.0532(12) 0.1743(10)
H21 H 0.550(3) 0.1993(18) 0.2385(15)
H22 H 0.485(4) 0.2640(19) 0.2249(16)
H23 H 0.888(4) 0.3537(19) 0.2186(17)
H24 H 0.791(4) 0.400(2) 0.1849(16)
H25 H 0.276(3) 0.4962(18) 0.1129(15)
H26 H 0.422(4) 0.5330(19) 0.0863(15)
H27 H 0.287(4) 0.4987(18) 0.0351(16)
Ca1B Ca -0.71424(3) -0.242197(17) -0.122322(14)
O9B O -0.61638(13) -0.20841(6) 0.00519(5)
O10B O -0.85598(13) -0.31563(7) -0.03240(6)
O11B O -1.01188(13) -0.21932(7) -0.13697(6)
O12B O -0.80869(12) -0.12257(6) -0.20158(5)
O13B O -0.58749(12) -0.10421(6) -0.08779(5)
C1B C -0.01902(17) -0.02924(9) 0.02217(8)
C2B C -0.17763(17) -0.07360(9) 0.01930(7)
C3B C -0.19560(18) -0.13250(9) 0.07074(8)
C4B C -0.34042(18) -0.17955(9) 0.06927(8)
C5B C -0.46776(17) -0.16694(8) 0.01521(7)
C6B C -0.45182(16) -0.10769(8) -0.03662(7)
C7B C -0.30995(17) -0.06051(9) -0.03508(7)
C8B C -0.65045(19) -0.26793(9) 0.05768(8)
C9B C -0.83161(19) -0.28865(10) 0.03984(8)
C10B C -1.02842(18) -0.33082(10) -0.05826(8)
C11B C -1.11183(19) -0.25281(10) -0.08715(9)
C12B C -1.08808(19) -0.15142(10) -0.17629(9)
C13B C -0.97820(19) -0.13230(11) -0.23263(8)
C14B C -0.77390(18) -0.04130(9) -0.17437(8)
C15B C -0.59615(18) -0.04019(9) -0.14024(7)
O14B O -0.52523(15) -0.22756(8) -0.20727(7)
O15B O -0.81264(18) -0.35302(9) -0.19470(8)
N1B N -0.50395(16) -0.35302(9) -0.08591(8)
C16B C -0.43508(19) -0.41419(10) -0.08139(9)
C17B C -0.3476(2) -0.49246(11) -0.07636(12)
H1B H 0.062(3) -0.0473(14) 0.0608(12)
H2B H -0.107(2) -0.1429(12) 0.1098(10)
H3B H -0.351(2) -0.2205(13) 0.1043(11)
H4B H -0.300(2) -0.0187(12) -0.0704(10)
H5B H -0.575(2) -0.3146(11) 0.0559(9)
H6B H -0.628(2) -0.2444(12) 0.1047(11)
H7B H -0.898(3) -0.2431(13) 0.0452(11)
H8B H -0.862(2) -0.3305(12) 0.0704(10)
H9B H -1.027(2) -0.3722(12) -0.0971(10)
H10B H -1.082(3) -0.3537(14) -0.0199(12)
H11B H -1.119(2) -0.2161(13) -0.0518(11)
H12B H -1.222(3) -0.2650(13) -0.1106(11)
H13B H -1.200(3) -0.1682(14) -0.2005(12)
H14B H -1.098(3) -0.1061(13) -0.1461(11)
H15B H -1.015(2) -0.0832(13) -0.2589(11)
H16B H -0.977(2) -0.1761(13) -0.2646(11)
H17B H -0.791(2) -0.0027(12) -0.2143(10)
H18B H -0.848(2) -0.0284(12) -0.1430(11)
H19B H -0.569(2) 0.0112(12) -0.1183(10)
H20B H -0.518(2) -0.0532(12) -0.1743(10)
H21B H -0.550(3) -0.1993(18) -0.2385(15)
H22B H -0.485(4) -0.2640(19) -0.2249(16)
H23B H -0.888(4) -0.3537(19) -0.2186(17)
H24B H -0.791(4) -0.400(2) -0.1849(16)
H25B H -0.276(3) -0.4962(18) -0.1129(15)
H26B H -0.422(4) -0.5330(19) -0.0863(15)
H27B H -0.287(4) -0.4987(18) -0.0351(16)
Cl1 Cl 0.25003(5) 0.38838(3) 0.28023(2)
O1 O 0.2379(4) 0.3881(2) 0.20692(12)
O2 O 0.0796(3) 0.36703(16) 0.29781(12)
O3 O 0.2982(3) 0.46131(15) 0.31228(14)
O4 O 0.3530(3) 0.31918(16) 0.30895(15)
Cl2 Cl 0.83824(5) 0.57315(2) 0.12793(2)
O5 O 0.73743(19) 0.51774(9) 0.16250(8)
O6 O 0.9365(7) 0.5273(4) 0.0802(2)
O7 O 0.9596(6) 0.6086(7) 0.1828(4)
O8 O 0.7393(13) 0.6332(6) 0.0944(6)
O16? O 0.2362(6) 0.4035(3) 0.3506(2)
O17? O 0.1648(6) 0.3245(4) 0.2527(4)
O18? O 0.1902(8) 0.4653(4) 0.2418(4)
O19? O 0.4300(5) 0.3841(3) 0.2684(2)
O20? O 0.932(2) 0.5436(10) 0.0901(9)
O21? O 0.887(3) 0.6458(9) 0.1614(5)
O22? O 0.7081(12) 0.6117(9) 0.0718(7)
loop_
_geom_bond_atom_site_label_1
_geom_bond_atom_site_label_2
_geom_bond_site_symmetry_1
_geom_bond_site_symmetry_2
Ca1 O9 1_555 1_555
Cl1 O1 1_555 1_555
O2 Cl1 1_555 1_555
O3 Cl1 1_555 1_555
O4 Cl1 1_555 1_555
Cl2 O5 1_555 1_555
O6 Cl2 1_555 1_555
O7 Cl2 1_555 1_555
O8 Cl2 1_555 1_555
O9 C5 1_555 1_555
O10 Ca1 1_555 1_555
O11 Ca1 1_555 1_555
O12 Ca1 1_555 1_555
O13 Ca1 1_555 1_555
C1 C2 1_555 1_555
C2 C3 1_555 1_555
C3 C4 1_555 1_555
C4 C5 1_555 1_555
C5 C6 1_555 1_555
C6 O13 1_555 1_555
C7 C2 1_555 1_555
C8 O9 1_555 1_555
C9 O10 1_555 1_555
C10 O10 1_555 1_555
C11 O11 1_555 1_555
C12 O11 1_555 1_555
C13 O12 1_555 1_555
C14 O12 1_555 1_555
C15 O13 1_555 1_555
O14 Ca1 1_555 1_555
O15 Ca1 1_555 1_555
N1 Ca1 1_555 1_555
C16 N1 1_555 1_555
C17 C16 1_555 1_555
H1 C1 1_555 1_555
H2 C3 1_555 1_555
H3 C4 1_555 1_555
H4 C7 1_555 1_555
H5 C8 1_555 1_555
H6 C8 1_555 1_555
H7 C9 1_555 1_555
H8 C9 1_555 1_555
H9 C10 1_555 1_555
H10 C10 1_555 1_555
H11 C11 1_555 1_555
H12 C11 1_555 1_555
H13 C12 1_555 1_555
H14 C12 1_555 1_555
H15 C13 1_555 1_555
H16 C13 1_555 1_555
H17 C14 1_555 1_555
H18 C14 1_555 1_555
H19 C15 1_555 1_555
H20 C15 1_555 1_555
H21 O14 1_555 1_555
H22 O14 1_555 1_555
H23 O15 1_555 1_555
H24 O15 1_555 1_555
H25 C17 1_555 1_555
H26 C17 1_555 1_555
H27 C17 1_555 1_555
Ca1B O9B 1_555 1_555
O9B C5B 1_555 1_555
O10B Ca1B 1_555 1_555
O11B Ca1B 1_555 1_555
O12B Ca1B 1_555 1_555
O13B Ca1B 1_555 1_555
C1B C1 1_555 1_555
C2B C1B 1_555 1_555
C3B C2B 1_555 1_555
C4B C3B 1_555 1_555
C5B C4B 1_555 1_555
C6B O13B 1_555 1_555
C7B C2B 1_555 1_555
C8B O9B 1_555 1_555
C9B O10B 1_555 1_555
C10B O10B 1_555 1_555
C11B O11B 1_555 1_555
C12B O11B 1_555 1_555
C13B O12B 1_555 1_555
C14B O12B 1_555 1_555
C15B O13B 1_555 1_555
O14B Ca1B 1_555 1_555
O15B Ca1B 1_555 1_555
N1B Ca1B 1_555 1_555
C16B N1B 1_555 1_555
C17B C16B 1_555 1_555
H1B C1B 1_555 1_555
H2B C3B 1_555 1_555
H3B C4B 1_555 1_555
H4B C7B 1_555 1_555
H5B C8B 1_555 1_555
H6B C8B 1_555 1_555
H7B C9B 1_555 1_555
H8B C9B 1_555 1_555
H9B C10B 1_555 1_555
H10B C10B 1_555 1_555
H11B C11B 1_555 1_555
H12B C11B 1_555 1_555
H13B C12B 1_555 1_555
H14B C12B 1_555 1_555
H15B C13B 1_555 1_555
H16B C13B 1_555 1_555
H17B C14B 1_555 1_555
H18B C14B 1_555 1_555
H19B C15B 1_555 1_555
H20B C15B 1_555 1_555
H21B O14B 1_555 1_555
H22B O14B 1_555 1_555
H23B O15B 1_555 1_555
H24B O15B 1_555 1_555
H25B C17B 1_555 1_555
H26B C17B 1_555 1_555
H27B C17B 1_555 1_555
C6 C7 1_555 1_555
C8 C9 1_555 1_555
C10 C11 1_555 1_555
C12 C13 1_555 1_555
C14 C15 1_555 1_555
C5B C6B 1_555 1_555
C6B C7B 1_555 1_555
C8B C9B 1_555 1_555
C10B C11B 1_555 1_555
C12B C13B 1_555 1_555
C14B C15B 1_555 1_555

#END
