
#######################################################################
#
#                 Cambridge Crystallographic Data Centre
#                                CCDC 
#
#######################################################################
#
# If this CIF has been generated from an entry in the Cambridge 
# Structural Database, then it will include bibliographic, chemical, 
# crystal, experimental, refinement or atomic coordinate data resulting 
# from the CCDC's data processing and validation procedures.
#
#######################################################################

data_OLUWOJ
_chemical_formula_moiety         'C16 H11 Br1 N2 O3'
_chemical_name_systematic        
(6-bromoquinolin-1(2H)-yl)(4-nitrophenyl)methanone
_symmetry_cell_setting           monoclinic
_symmetry_space_group_name_H-M   'P 21/c'
_symmetry_Int_Tables_number      14
_space_group_name_Hall           '-P 2ybc'
loop_
_symmetry_equiv_pos_site_id
_symmetry_equiv_pos_as_xyz
1 x,y,z
2 -x,1/2+y,1/2-z
3 -x,-y,-z
4 x,1/2-y,1/2+z
_cell_length_a                   7.593(3)
_cell_length_b                   11.744(4)
_cell_length_c                   16.592(5)
_cell_angle_alpha                90
_cell_angle_beta                 99.277(7)
_cell_angle_gamma                90
_cell_volume                     1460.19
_exptl_crystal_colour            colorless
_exptl_crystal_description       Block
_cell_formula_units_Z            4
loop_
_atom_site_label
_atom_site_type_symbol
_atom_site_fract_x
_atom_site_fract_y
_atom_site_fract_z
C1 C 0.9500(5) 0.5709(3) 0.3047(2)
O1 O 0.8505(3) 0.6531(2) 0.29228(16)
C2 C 1.1326(5) 0.5868(3) 0.3544(2)
C3 C 1.1465(5) 0.6570(3) 0.4224(2)
H1 H 1.0419 0.6899 0.4371
C4 C 1.3096(5) 0.6798(3) 0.4687(2)
H2 H 1.3180 0.7268 0.5158
C5 C 1.4600(5) 0.6337(3) 0.4459(2)
C6 C 1.4516(5) 0.5674(3) 0.3774(2)
H3 H 1.5576 0.5378 0.3619
N1 N 1.6350(4) 0.6562(3) 0.4972(2)
O2 O 1.7645(4) 0.6045(3) 0.48122(18)
O3 O 1.6401(4) 0.7224(3) 0.55463(19)
N2 N 0.9030(4) 0.4652(2) 0.27350(17)
C7 C 1.2885(5) 0.5442(3) 0.3316(2)
H4 H 1.2819 0.4986 0.2839
C8 C 0.9914(5) 0.3589(3) 0.3068(2)
H5 H 1.0836 0.3773 0.3543
H6 H 1.0512 0.3225 0.2647
C9 C 0.8605(6) 0.2782(3) 0.3325(2)
H7 H 0.9001 0.2236 0.3737
C10 C 0.6898(6) 0.2806(3) 0.2993(2)
H8 H 0.6088 0.2287 0.3177
C11 C 0.6244(5) 0.3621(3) 0.2348(2)
C12 C 0.4562(5) 0.3533(3) 0.1876(2)
H9 H 0.3782 0.2931 0.1968
C13 C 0.4037(5) 0.4325(3) 0.1277(2)
Br1 Br 0.16572(6) 0.42915(4) 0.06897(3)
C14 C 0.5174(5) 0.5178(3) 0.1100(2)
H10 H 0.4808 0.5692 0.0663
C15 C 0.6848(5) 0.5272(3) 0.1568(2)
H11 H 0.7637 0.5858 0.1456
C16 C 0.7376(5) 0.4512(3) 0.2201(2)
loop_
_geom_bond_atom_site_label_1
_geom_bond_atom_site_label_2
_geom_bond_site_symmetry_1
_geom_bond_site_symmetry_2
C1 O1 1_555 1_555
C2 C1 1_555 1_555
C3 C2 1_555 1_555
H1 C3 1_555 1_555
C4 C3 1_555 1_555
H2 C4 1_555 1_555
C5 C4 1_555 1_555
C6 C5 1_555 1_555
H3 C6 1_555 1_555
N1 C5 1_555 1_555
O2 N1 1_555 1_555
O3 N1 1_555 1_555
N2 C1 1_555 1_555
C7 C2 1_555 1_555
H4 C7 1_555 1_555
C8 N2 1_555 1_555
H5 C8 1_555 1_555
H6 C8 1_555 1_555
C9 C8 1_555 1_555
H7 C9 1_555 1_555
C10 C9 1_555 1_555
H8 C10 1_555 1_555
C11 C10 1_555 1_555
C12 C11 1_555 1_555
H9 C12 1_555 1_555
C13 C12 1_555 1_555
Br1 C13 1_555 1_555
C14 C13 1_555 1_555
H10 C14 1_555 1_555
C15 C14 1_555 1_555
H11 C15 1_555 1_555
C16 N2 1_555 1_555
C6 C7 1_555 1_555
C11 C16 1_555 1_555
C15 C16 1_555 1_555

#END
