
#######################################################################
#
#                 Cambridge Crystallographic Data Centre
#                                CCDC 
#
#######################################################################
#
# If this CIF has been generated from an entry in the Cambridge 
# Structural Database, then it will include bibliographic, chemical, 
# crystal, experimental, refinement or atomic coordinate data resulting 
# from the CCDC's data processing and validation procedures.
#
#######################################################################

data_OLUWEY
_chemical_formula_moiety         'C60 H80 K2 O20 2+,2(C6 H2 N3 O7 1-),2(C6 H6)'
_chemical_name_systematic        
"bis(\m~2~-15,15'-Ethene-1,2-diyl-bis(2,3,5,6,8,9,11,12-octahydro-1,4,7,10,13-benzopentaoxacyclopentadecine))-di-potassium dipicrate benzene solvate"
_symmetry_cell_setting           triclinic
_symmetry_space_group_name_H-M   'P -1'
_symmetry_Int_Tables_number      2
_space_group_name_Hall           '-P 1'
loop_
_symmetry_equiv_pos_site_id
_symmetry_equiv_pos_as_xyz
1 x,y,z
2 -x,-y,-z
_cell_length_a                   12.3927(10)
_cell_length_b                   13.7956(11)
_cell_length_c                   14.7748(12)
_cell_angle_alpha                104.967(4)
_cell_angle_beta                 108.561(4)
_cell_angle_gamma                105.014(4)
_cell_volume                     2146.74
_exptl_crystal_colour            yellow
_exptl_crystal_description       block
_cell_formula_units_Z            1
loop_
_atom_site_label
_atom_site_type_symbol
_atom_site_fract_x
_atom_site_fract_y
_atom_site_fract_z
K1 K 0.80213(11) 0.41312(10) 0.17445(8)
O1 O 0.5507(3) 0.3800(3) 0.1423(3)
O2 O 0.6186(4) 0.2050(3) 0.1013(3)
O3 O 0.7321(4) 0.2748(4) -0.0259(3)
O4 O 0.8302(3) 0.5056(3) 0.0254(3)
O5 O 0.6497(3) 0.5296(3) 0.0919(3)
O6 O 0.1500(4) 0.6810(3) 0.6656(3)
O7 O 0.0712(3) 0.7345(3) 0.8197(3)
O8 O -0.0506(3) 0.5078(3) 0.7799(3)
O9 O 0.0618(3) 0.3615(3) 0.7040(3)
O10 O 0.1561(4) 0.4927(3) 0.6130(3)
C1 C 0.4941(6) 0.2895(5) 0.1617(4)
H1 H 0.4090 0.2819 0.1516
H2 H 0.5403 0.2968 0.2330
C2 C 0.4950(6) 0.1932(5) 0.0851(5)
H3 H 0.4542 0.1261 0.0932
H4 H 0.4492 0.1875 0.0142
C3 C 0.6311(7) 0.1379(5) 0.0170(6)
H5 H 0.5639 0.0661 -0.0130
H6 H 0.7094 0.1272 0.0436
C4 C 0.6288(8) 0.1794(6) -0.0654(5)
H7 H 0.6300 0.1251 -0.1235
H8 H 0.5531 0.1943 -0.0910
C5 C 0.7380(6) 0.3195(6) -0.1005(5)
H9 H 0.6604 0.3295 -0.1325
H10 H 0.7498 0.2701 -0.1551
C6 C 0.8415(6) 0.4245(6) -0.0506(5)
H11 H 0.9176 0.4129 -0.0176
H12 H 0.8502 0.4523 -0.1044
C7 C 0.7492(6) 0.5543(5) -0.0183(5)
H13 H 0.6750 0.4984 -0.0776
H14 H 0.7904 0.6070 -0.0428
C8 C 0.7145(5) 0.6104(5) 0.0628(4)
H15 H 0.7889 0.6645 0.1233
H16 H 0.6615 0.6481 0.0358
C9 C 0.6098(5) 0.5616(5) 0.1656(4)
C10 C 0.6196(5) 0.6676(5) 0.2135(5)
H17 H 0.6579 0.7243 0.1954
C11 C 0.5734(5) 0.6892(5) 0.2870(4)
H18 H 0.5786 0.7608 0.3177
C12 C 0.5204(5) 0.6100(5) 0.3165(4)
C13 C 0.5089(5) 0.5007(5) 0.2677(4)
H19 H 0.4706 0.4443 0.2859
C14 C 0.5544(5) 0.4795(4) 0.1939(4)
C15 C 0.4715(5) 0.6389(5) 0.3943(4)
H20 H 0.4754 0.7113 0.4159
C16 C 0.4243(5) 0.5796(5) 0.4370(4)
H21 H 0.4260 0.5089 0.4225
C17 C 0.3663(5) 0.6158(5) 0.5087(4)
C18 C 0.3706(5) 0.7191(5) 0.5452(4)
H22 H 0.4225 0.7739 0.5335
C19 C 0.3013(5) 0.7478(5) 0.5994(4)
H23 H 0.3048 0.8200 0.6222
C20 C 0.2270(5) 0.6672(4) 0.6190(4)
C21 C 0.2269(5) 0.5633(5) 0.5867(4)
C22 C 0.2968(5) 0.5376(5) 0.5327(4)
H24 H 0.2968 0.4664 0.5124
C23 C 0.1459(6) 0.7862(5) 0.7010(5)
H25 H 0.1295 0.8141 0.6447
H26 H 0.2248 0.8373 0.7585
C24 C 0.0428(5) 0.7726(5) 0.7365(4)
H27 H 0.0332 0.8426 0.7597
H28 H -0.0352 0.7200 0.6788
C25 C -0.0330(6) 0.6903(5) 0.8391(4)
H29 H -0.0807 0.7378 0.8362
H30 H -0.0044 0.6895 0.9095
C26 C -0.1152(5) 0.5783(5) 0.7645(4)
H31 H -0.1908 0.5551 0.7758
H32 H -0.1387 0.5762 0.6932
C27 C -0.1209(5) 0.4011(5) 0.7030(5)
H33 H -0.1386 0.4032 0.6335
H34 H -0.1997 0.3707 0.7077
C28 C -0.0449(5) 0.3320(5) 0.7226(4)
H35 H -0.0205 0.3377 0.7950
H36 H -0.0966 0.2555 0.6781
C29 C 0.0371(5) 0.3211(5) 0.5975(4)
H37 H -0.0378 0.3300 0.5569
H38 H 0.0228 0.2431 0.5742
C30 C 0.1434(5) 0.3811(4) 0.5801(4)
H39 H 0.2191 0.3731 0.6205
H40 H 0.1273 0.3529 0.5063
K1A K 0.19787(11) 0.58688(10) 0.82555(8)
O1A O 0.4493(3) 0.6200(3) 0.8577(3)
O2A O 0.3814(4) 0.7950(3) 0.8987(3)
O3A O 0.2679(4) 0.7252(4) 1.0259(3)
O4A O 0.1698(3) 0.4944(3) 0.9746(3)
O5A O 0.3503(3) 0.4704(3) 0.9081(3)
O6A O 0.8500(4) 0.3190(3) 0.3344(3)
O7A O 0.9288(3) 0.2655(3) 0.1803(3)
O8A O 1.0506(3) 0.4922(3) 0.2201(3)
O9A O 0.9382(3) 0.6385(3) 0.2960(3)
O10A O 0.8439(4) 0.5073(3) 0.3870(3)
C1A C 0.5059(6) 0.7105(5) 0.8383(4)
H1A H 0.5910 0.7181 0.8484
H2A H 0.4597 0.7032 0.7670
C2A C 0.5050(6) 0.8068(5) 0.9149(5)
H3A H 0.5458 0.8739 0.9068
H4A H 0.5508 0.8125 0.9858
C3A C 0.3689(7) 0.8621(5) 0.9830(6)
H5A H 0.4361 0.9339 1.0130
H6A H 0.2906 0.8728 0.9564
C4A C 0.3712(8) 0.8206(6) 1.0654(5)
H7A H 0.3700 0.8749 1.1235
H8A H 0.4469 0.8057 1.0910
C5A C 0.2620(6) 0.6805(6) 1.1005(5)
H9A H 0.3396 0.6705 1.1325
H10A H 0.2502 0.7299 1.1551
C6A C 0.1585(6) 0.5755(6) 1.0506(5)
H11A H 0.0824 0.5871 1.0176
H12A H 0.1498 0.5477 1.1044
C7A C 0.2508(6) 0.4457(5) 1.0183(5)
H13A H 0.3250 0.5016 1.0776
H14A H 0.2096 0.3930 1.0428
C8A C 0.2855(5) 0.3896(5) 0.9372(4)
H15A H 0.2111 0.3355 0.8767
H16A H 0.3385 0.3519 0.9642
C9A C 0.3902(5) 0.4384(5) 0.8344(4)
C10A C 0.3804(5) 0.3324(5) 0.7865(5)
H17A H 0.3421 0.2757 0.8046
C11A C 0.4266(5) 0.3108(5) 0.7130(4)
H18A H 0.4214 0.2392 0.6823
C12A C 0.4796(5) 0.3900(5) 0.6835(4)
C13A C 0.4911(5) 0.4993(5) 0.7323(4)
H19A H 0.5294 0.5557 0.7141
C14A C 0.4456(5) 0.5205(4) 0.8061(4)
C15A C 0.5285(5) 0.3611(5) 0.6057(4)
H20A H 0.5246 0.2887 0.5841
C16A C 0.5757(5) 0.4204(5) 0.5630(4)
H21A H 0.5740 0.4911 0.5775
C17A C 0.6337(5) 0.3842(5) 0.4913(4)
C18A C 0.6294(5) 0.2809(5) 0.4548(4)
H22A H 0.5775 0.2261 0.4665
C19A C 0.6987(5) 0.2522(5) 0.4006(4)
H23A H 0.6952 0.1800 0.3778
C20A C 0.7730(5) 0.3328(4) 0.3810(4)
C21A C 0.7731(5) 0.4367(5) 0.4133(4)
C22A C 0.7032(5) 0.4624(5) 0.4673(4)
H24A H 0.7032 0.5336 0.4876
C23A C 0.8541(6) 0.2138(5) 0.2990(5)
H25A H 0.8705 0.1859 0.3553
H26A H 0.7752 0.1627 0.2415
C24A C 0.9572(5) 0.2274(5) 0.2635(4)
H27A H 0.9668 0.1574 0.2403
H28A H 1.0352 0.2800 0.3212
C25A C 1.0330(6) 0.3097(5) 0.1609(4)
H29A H 1.0807 0.2622 0.1638
H30A H 1.0044 0.3105 0.0905
C26A C 1.1152(5) 0.4217(5) 0.2355(4)
H31A H 1.1908 0.4449 0.2242
H32A H 1.1387 0.4238 0.3068
C27A C 1.1209(5) 0.5989(5) 0.2970(5)
H33A H 1.1386 0.5968 0.3665
H34A H 1.1997 0.6293 0.2923
C28A C 1.0449(5) 0.6680(5) 0.2774(4)
H35A H 1.0205 0.6623 0.2050
H36A H 1.0966 0.7445 0.3219
C29A C 0.9629(5) 0.6789(5) 0.4025(4)
H37A H 1.0378 0.6700 0.4431
H38A H 0.9772 0.7569 0.4258
C30A C 0.8566(5) 0.6189(4) 0.4199(4)
H39A H 0.7809 0.6269 0.3795
H40A H 0.8727 0.6471 0.4937
O11 O 0.3821(5) 0.0644(4) 0.2436(4)
O12 O 0.2609(5) 0.1978(5) 0.2150(5)
O13 O 0.2696(5) 0.3021(4) 0.3573(4)
O14 O 0.1382(5) 0.1072(4) 0.5585(4)
O15 O 0.1841(6) -0.0331(5) 0.5645(5)
O16 O 0.3879(6) -0.1629(4) 0.3617(4)
O17 O 0.5102(5) -0.0422(5) 0.3340(4)
N1 N 0.2718(5) 0.2176(4) 0.3033(5)
N2 N 0.1834(5) 0.0419(5) 0.5333(5)
N3 N 0.4209(6) -0.0757(5) 0.3536(4)
C31 C 0.3437(5) 0.0669(5) 0.3155(5)
C32 C 0.2829(5) 0.1359(4) 0.3488(5)
C33 C 0.2323(6) 0.1307(5) 0.4172(5)
H41 H 0.1922 0.1784 0.4339
C34 C 0.2399(6) 0.0533(5) 0.4633(5)
C35 C 0.2988(6) -0.0148(4) 0.4383(5)
H42 H 0.3018 -0.0688 0.4670
C36 C 0.3538(5) -0.0042(5) 0.3713(4)
C37 C 0.1469(14) 0.0755(9) 0.9514(6)
H43 H 0.1844 0.0658 1.0137
C38 C 0.1938(8) 0.0602(7) 0.8773(8)
H44 H 0.2633 0.0401 0.8888
C39 C 0.1390(10) 0.0743(7) 0.7862(6)
H45 H 0.1710 0.0639 0.7355
C40 C 0.0373(10) 0.1038(9) 0.7693(8)
H46 H -0.0001 0.1135 0.7071
C41 C -0.0095(9) 0.1191(10) 0.8435(13)
H47 H -0.0790 0.1392 0.8320
C42 C 0.0453(15) 0.1049(9) 0.9346(11)
H48 H 0.0132 0.1154 0.9853
C43? C 0.1719(13) 0.0702(16) 0.9323(19)
C44? C 0.170(2) 0.0747(18) 0.839(2)
C45? C 0.077(3) 0.0963(19) 0.7756(13)
C46? C -0.0145(18) 0.1134(16) 0.8057(13)
C47? C -0.0124(13) 0.1089(12) 0.8991(14)
C48? C 0.0807(17) 0.0873(13) 0.9624(9)
H49? H 0.2355 0.0555 0.9756
H50? H 0.2320 0.0630 0.8183
H51? H 0.0751 0.0994 0.7117
H52? H -0.0782 0.1282 0.7624
H53? H -0.0747 0.1206 0.9197
H54? H 0.0822 0.0843 1.0263
loop_
_geom_bond_atom_site_label_1
_geom_bond_atom_site_label_2
_geom_bond_site_symmetry_1
_geom_bond_site_symmetry_2
K1 O1 1_555 1_555
O1 C1 1_555 1_555
O2 K1 1_555 1_555
O3 K1 1_555 1_555
O4 K1 1_555 1_555
O5 K1 1_555 1_555
O6 C20 1_555 1_555
O7 C24 1_555 1_555
O8 C26 1_555 1_555
O9 C28 1_555 1_555
O10 C21 1_555 1_555
C1 H1 1_555 1_555
H2 C1 1_555 1_555
C2 O2 1_555 1_555
H3 C2 1_555 1_555
H4 C2 1_555 1_555
C3 O2 1_555 1_555
H5 C3 1_555 1_555
H6 C3 1_555 1_555
C4 O3 1_555 1_555
H7 C4 1_555 1_555
H8 C4 1_555 1_555
C5 O3 1_555 1_555
H9 C5 1_555 1_555
H10 C5 1_555 1_555
C6 O4 1_555 1_555
H11 C6 1_555 1_555
H12 C6 1_555 1_555
C7 O4 1_555 1_555
H13 C7 1_555 1_555
H14 C7 1_555 1_555
C8 O5 1_555 1_555
H15 C8 1_555 1_555
H16 C8 1_555 1_555
C9 O5 1_555 1_555
C10 C9 1_555 1_555
H17 C10 1_555 1_555
C11 C10 1_555 1_555
H18 C11 1_555 1_555
C12 C11 1_555 1_555
C13 C12 1_555 1_555
H19 C13 1_555 1_555
C14 O1 1_555 1_555
C15 C12 1_555 1_555
H20 C15 1_555 1_555
C16 C15 1_555 1_555
H21 C16 1_555 1_555
C17 C16 1_555 1_555
C18 C17 1_555 1_555
H22 C18 1_555 1_555
C19 C18 1_555 1_555
H23 C19 1_555 1_555
C20 C19 1_555 1_555
C21 C20 1_555 1_555
C22 C17 1_555 1_555
H24 C22 1_555 1_555
C23 O6 1_555 1_555
H25 C23 1_555 1_555
H26 C23 1_555 1_555
C24 C23 1_555 1_555
H27 C24 1_555 1_555
H28 C24 1_555 1_555
C25 O7 1_555 1_555
H29 C25 1_555 1_555
H30 C25 1_555 1_555
C26 C25 1_555 1_555
H31 C26 1_555 1_555
H32 C26 1_555 1_555
C27 O8 1_555 1_555
H33 C27 1_555 1_555
H34 C27 1_555 1_555
C28 C27 1_555 1_555
H35 C28 1_555 1_555
H36 C28 1_555 1_555
C29 O9 1_555 1_555
H37 C29 1_555 1_555
H38 C29 1_555 1_555
C30 O10 1_555 1_555
H39 C30 1_555 1_555
H40 C30 1_555 1_555
O11 C31 1_555 1_555
O12 N1 1_555 1_555
O13 N1 1_555 1_555
O14 N2 1_555 1_555
O15 N2 1_555 1_555
O16 N3 1_555 1_555
O17 N3 1_555 1_555
N1 C32 1_555 1_555
N2 C34 1_555 1_555
N3 C36 1_555 1_555
C31 C32 1_555 1_555
C32 C33 1_555 1_555
C33 H41 1_555 1_555
C34 C33 1_555 1_555
C35 C34 1_555 1_555
H42 C35 1_555 1_555
C36 C31 1_555 1_555
C37 H43 1_555 1_555
C38 C37 1_555 1_555
H44 C38 1_555 1_555
C39 C38 1_555 1_555
H45 C39 1_555 1_555
C40 C39 1_555 1_555
H46 C40 1_555 1_555
C41 C40 1_555 1_555
H47 C41 1_555 1_555
C42 C37 1_555 1_555
H48 C42 1_555 1_555
K1A O6 1_555 1_555
O1A K1A 1_555 1_555
O2A K1A 1_555 1_555
O3A K1A 1_555 1_555
O4A K1A 1_555 1_555
O5A K1A 1_555 1_555
O6A K1 1_555 1_555
O7A K1 1_555 1_555
O8A K1 1_555 1_555
O9A K1 1_555 1_555
O10A K1 1_555 1_555
C1A O1A 1_555 1_555
H1A C1A 1_555 1_555
H2A C1A 1_555 1_555
C2A O2A 1_555 1_555
H3A C2A 1_555 1_555
H4A C2A 1_555 1_555
C3A O2A 1_555 1_555
H5A C3A 1_555 1_555
H6A C3A 1_555 1_555
C4A O3A 1_555 1_555
H7A C4A 1_555 1_555
H8A C4A 1_555 1_555
C5A O3A 1_555 1_555
H9A C5A 1_555 1_555
H10A C5A 1_555 1_555
C6A O4A 1_555 1_555
H11A C6A 1_555 1_555
H12A C6A 1_555 1_555
C7A O4A 1_555 1_555
H13A C7A 1_555 1_555
H14A C7A 1_555 1_555
C8A O5A 1_555 1_555
H15A C8A 1_555 1_555
H16A C8A 1_555 1_555
C9A O5A 1_555 1_555
C10A C9A 1_555 1_555
H17A C10A 1_555 1_555
C11A C10A 1_555 1_555
H18A C11A 1_555 1_555
C12A C11A 1_555 1_555
C13A C12A 1_555 1_555
H19A C13A 1_555 1_555
C14A O1A 1_555 1_555
C15A C12A 1_555 1_555
H20A C15A 1_555 1_555
C16A C15A 1_555 1_555
H21A C16A 1_555 1_555
C17A C16A 1_555 1_555
C18A C17A 1_555 1_555
H22A C18A 1_555 1_555
C19A C18A 1_555 1_555
H23A C19A 1_555 1_555
C20A O6A 1_555 1_555
C21A O10A 1_555 1_555
C22A C17A 1_555 1_555
H24A C22A 1_555 1_555
C23A O6A 1_555 1_555
H25A C23A 1_555 1_555
H26A C23A 1_555 1_555
C24A O7A 1_555 1_555
H27A C24A 1_555 1_555
H28A C24A 1_555 1_555
C25A O7A 1_555 1_555
H29A C25A 1_555 1_555
H30A C25A 1_555 1_555
C26A O8A 1_555 1_555
H31A C26A 1_555 1_555
H32A C26A 1_555 1_555
C27A O8A 1_555 1_555
H33A C27A 1_555 1_555
H34A C27A 1_555 1_555
C28A O9A 1_555 1_555
H35A C28A 1_555 1_555
H36A C28A 1_555 1_555
C29A O9A 1_555 1_555
H37A C29A 1_555 1_555
H38A C29A 1_555 1_555
C30A O10A 1_555 1_555
H39A C30A 1_555 1_555
H40A C30A 1_555 1_555
O7 K1A 1_555 1_555
O8 K1A 1_555 1_555
O9 K1A 1_555 1_555
O10 K1A 1_555 1_555
C1 C2 1_555 1_555
C3 C4 1_555 1_555
C5 C6 1_555 1_555
C7 C8 1_555 1_555
C9 C14 1_555 1_555
C13 C14 1_555 1_555
C21 C22 1_555 1_555
C29 C30 1_555 1_555
C35 C36 1_555 1_555
C41 C42 1_555 1_555
C1A C2A 1_555 1_555
C3A C4A 1_555 1_555
C5A C6A 1_555 1_555
C7A C8A 1_555 1_555
C9A C14A 1_555 1_555
C13A C14A 1_555 1_555
C19A C20A 1_555 1_555
C20A C21A 1_555 1_555
C21A C22A 1_555 1_555
C23A C24A 1_555 1_555
C25A C26A 1_555 1_555
C27A C28A 1_555 1_555
C29A C30A 1_555 1_555

#END
