
#######################################################################
#
#                 Cambridge Crystallographic Data Centre
#                                CCDC 
#
#######################################################################
#
# If this CIF has been generated from an entry in the Cambridge 
# Structural Database, then it will include bibliographic, chemical, 
# crystal, experimental, refinement or atomic coordinate data resulting 
# from the CCDC's data processing and validation procedures.
#
#######################################################################

data_OLUYIE
_chemical_formula_moiety         
'C60 H92 Ca2 O26 2+,2(Cl1 O4 1-),3(C6 H6),11(H2 O1)'
_chemical_name_systematic        
"(\m~2~-15,15',15'',15'''-Cyclobutane-r-1,c-2,t-4-tetrayl-tetrakis(2,3,5,6,8,9,11,12-octahydro-1,4,7,10,13-benzopentaoxoacyclopentadecine))-hexa-aqua-di-calcium tetraperchlorate benzene solvate undecahydrate"
_symmetry_cell_setting           triclinic
_symmetry_space_group_name_H-M   'P -1'
_symmetry_Int_Tables_number      2
_space_group_name_Hall           '-P 1'
loop_
_symmetry_equiv_pos_site_id
_symmetry_equiv_pos_as_xyz
1 x,y,z
2 -x,-y,-z
_cell_length_a                   14.4368(8)
_cell_length_b                   17.9290(11)
_cell_length_c                   18.9170(11)
_cell_angle_alpha                78.740(3)
_cell_angle_beta                 84.002(3)
_cell_angle_gamma                87.880(3)
_cell_volume                     4775.2
_exptl_crystal_colour            colorless
_exptl_crystal_description       plate
_cell_formula_units_Z            2
loop_
_atom_site_label
_atom_site_type_symbol
_atom_site_fract_x
_atom_site_fract_y
_atom_site_fract_z
Cl1 Cl 0.70692(18) 0.35971(15) 0.14617(13)
O1 O 0.6613(6) 0.4320(4) 0.1209(4)
O2 O 0.7497(5) 0.3300(4) 0.0855(3)
O3 O 0.6372(5) 0.3058(5) 0.1873(4)
O4 O 0.7753(5) 0.3719(4) 0.1932(4)
Cl2 Cl 0.58557(18) 0.83784(15) 0.36860(17)
O5 O 0.6267(5) 0.9108(4) 0.3627(4)
O6 O 0.4993(5) 0.8296(4) 0.4171(5)
O7 O 0.5669(5) 0.8278(4) 0.2971(4)
O8 O 0.6489(5) 0.7783(4) 0.3971(4)
Cl3 Cl 0.08587(19) 0.35948(17) 0.33896(16)
O9 O -0.0049(4) 0.3464(4) 0.3745(4)
O10 O 0.0841(7) 0.3911(9) 0.2646(5)
O11 O 0.1399(11) 0.2923(8) 0.3504(11)
O12 O 0.1268(10) 0.4162(12) 0.3712(8)
Cl4 Cl 0.7845(4) 0.7399(4) 0.1241(3)
O13 O 0.8799(6) 0.7297(8) 0.1231(7)
O14 O 0.7559(9) 0.8084(7) 0.0798(7)
O15 O 0.7575(10) 0.6788(8) 0.0869(9)
O16 O 0.7435(11) 0.7305(10) 0.1924(6)
O17 O 0.545(2) 0.9823(17) 0.073(2)
Ca1 Ca 0.45080(12) 0.48840(10) 0.30941(10)
Ca2 Ca 0.12509(13) 0.88235(11) 0.85456(10)
O18 O 0.3953(4) 0.5975(3) 0.2312(3)
O19 O 0.4826(4) 0.4532(3) 0.1946(3)
O20 O 0.2941(4) 0.4624(4) 0.3008(4)
O21 O 0.0251(4) 0.9384(3) 0.7663(3)
O22 O 0.0171(4) 0.9510(3) 0.9233(3)
O23 O 0.1802(4) 1.0103(4) 0.8193(4)
O24 O 0.3810(4) 0.4624(3) 0.4403(3)
O25 O 0.4477(4) 0.3524(3) 0.3737(3)
O26 O 0.6045(4) 0.4278(3) 0.3157(3)
O27 O 0.5810(4) 0.5801(3) 0.2741(3)
O28 O 0.4568(4) 0.5877(3) 0.3870(3)
O29 O 0.2744(4) 0.8618(4) 0.7869(3)
O30 O 0.2677(4) 0.8912(4) 0.9189(3)
O31 O 0.1185(4) 0.8029(4) 0.9781(3)
O32 O 0.0032(4) 0.7829(3) 0.8779(3)
O33 O 0.1375(4) 0.7910(3) 0.7677(3)
O34 O -0.0997(4) 0.9678(3) 0.6524(3)
O35 O -0.1661(4) 0.9573(3) 0.7997(3)
O36 O -0.0579(4) 1.0774(4) 0.8402(4)
O37 O 0.0946(4) 1.1149(3) 0.7216(3)
O38 O 0.0586(4) 1.0284(3) 0.6236(3)
O39 O 0.2129(4) 0.6826(3) 0.2012(3)
O40 O 0.2311(5) 0.5368(4) 0.1737(4)
O41 O 0.4036(5) 0.5461(4) 0.0791(4)
O42 O 0.5099(4) 0.6671(4) 0.1120(3)
O43 O 0.3606(4) 0.7619(3) 0.1574(3)
C1 C 0.1946(6) 0.7320(5) 0.4925(5)
H1 H 0.1416 0.7193 0.5311
C2 C 0.2459(6) 0.8020(5) 0.5072(4)
H2 H 0.3086 0.8056 0.4787
C3 C 0.1746(6) 0.8552(5) 0.4615(5)
H3 H 0.2068 0.8976 0.4263
C4 C 0.1562(6) 0.7880(5) 0.4251(4)
H4 H 0.0882 0.7813 0.4227
C5 C 0.2450(6) 0.6600(5) 0.4832(4)
C6 C 0.2043(6) 0.5907(5) 0.5130(4)
H5 H 0.1469 0.5897 0.5427
C7 C 0.2461(6) 0.5217(5) 0.5001(4)
H6 H 0.2166 0.4746 0.5195
C8 C 0.3308(6) 0.5243(5) 0.4588(5)
C9 C 0.3728(6) 0.5934(5) 0.4300(4)
C10 C 0.3326(6) 0.6604(5) 0.4418(4)
H7 H 0.3632 0.7071 0.4223
C11 C 0.3492(6) 0.3874(5) 0.4690(5)
H8 H 0.2931 0.3773 0.4466
H9 H 0.3337 0.3802 0.5221
C12 C 0.4283(6) 0.3360(5) 0.4507(4)
H10 H 0.4837 0.3456 0.4741
H11 H 0.4109 0.2821 0.4677
C13 C 0.5284(6) 0.3106(5) 0.3507(5)
H12 H 0.5246 0.3038 0.3004
H13 H 0.5298 0.2595 0.3821
C14 C 0.6168(6) 0.3518(5) 0.3544(5)
H14 H 0.6268 0.3518 0.4054
H15 H 0.6712 0.3268 0.3317
C15 C 0.6862(6) 0.4746(5) 0.3065(5)
H16 H 0.7421 0.4466 0.2898
H17 H 0.6968 0.4891 0.3529
C16 C 0.6673(6) 0.5438(5) 0.2509(5)
H18 H 0.7193 0.5797 0.2449
H19 H 0.6624 0.5290 0.2037
C17 C 0.5942(6) 0.6340(5) 0.3196(5)
H20 H 0.6271 0.6791 0.2906
H21 H 0.6325 0.6106 0.3589
C18 C 0.5011(6) 0.6573(5) 0.3510(5)
H22 H 0.5079 0.6909 0.3858
H23 H 0.4643 0.6846 0.3123
C19 C 0.2565(6) 0.8137(5) 0.5816(5)
C20 C 0.3325(6) 0.8530(5) 0.5934(5)
H24 H 0.3793 0.8684 0.5546
C21 C 0.3422(6) 0.8704(5) 0.6611(5)
H25 H 0.3951 0.8973 0.6678
C22 C 0.2763(6) 0.8491(6) 0.7170(5)
C23 C 0.2000(6) 0.8092(5) 0.7062(4)
C24 C 0.1894(6) 0.7916(5) 0.6395(5)
H26 H 0.1365 0.7644 0.6333
C25 C 0.3593(6) 0.8813(6) 0.8109(5)
H27 H 0.3689 0.9369 0.7972
H28 H 0.4128 0.8551 0.7885
C26 C 0.3509(6) 0.8566(6) 0.8915(5)
H29 H 0.3474 0.8005 0.9051
H30 H 0.4056 0.8732 0.9116
C27 C 0.2471(7) 0.8705(6) 0.9962(5)
H31 H 0.2063 0.9102 1.0136
H32 H 0.3057 0.8680 1.0196
C28 C 0.1995(7) 0.7947(6) 1.0182(5)
H33 H 0.2412 0.7533 1.0053
H34 H 0.1809 0.7833 1.0710
C29 C 0.0580(7) 0.7374(6) 0.9976(5)
H35 H 0.0383 0.7270 1.0502
H36 H 0.0903 0.6916 0.9845
C30 C -0.0254(6) 0.7593(6) 0.9545(5)
H37 H -0.0671 0.7152 0.9619
H38 H -0.0607 0.8013 0.9725
C31 C 0.0183(6) 0.7181(5) 0.8416(5)
H39 H -0.0408 0.6911 0.8437
H40 H 0.0642 0.6820 0.8655
C32 C 0.0541(6) 0.7483(5) 0.7643(5)
H41 H 0.0697 0.7061 0.7381
H42 H 0.0068 0.7819 0.7392
C33 C 0.0955(6) 0.8841(5) 0.5079(5)
C34 C 0.0103(6) 0.8491(5) 0.5262(5)
H43 H -0.0029 0.8073 0.5050
C35 C -0.0572(6) 0.8744(5) 0.5759(5)
H44 H -0.1146 0.8487 0.5894
C36 C -0.0394(6) 0.9360(5) 0.6046(4)
C37 C 0.0469(6) 0.9706(5) 0.5873(5)
C38 C 0.1127(6) 0.9445(5) 0.5401(4)
H45 H 0.1716 0.9683 0.5292
C39 C -0.1789(6) 0.9229(6) 0.6855(5)
H46 H -0.1588 0.8709 0.7073
H47 H -0.2222 0.9194 0.6490
C40 C -0.2250(6) 0.9625(6) 0.7423(5)
H48 H -0.2368 1.0166 0.7211
H49 H -0.2856 0.9388 0.7617
C41 C -0.1956(6) 1.0072(5) 0.8484(5)
H50 H -0.1777 0.9848 0.8972
H51 H -0.2643 1.0129 0.8518
C42 C -0.1522(6) 1.0849(5) 0.8231(5)
H52 H -0.1544 1.1019 0.7703
H53 H -0.1863 1.1228 0.8482
C43 C -0.0056(7) 1.1469(5) 0.8205(5)
H54 H 0.0502 1.1414 0.8475
H55 H -0.0445 1.1892 0.8348
C44 C 0.0246(7) 1.1664(6) 0.7404(6)
H56 H -0.0294 1.1641 0.7128
H57 H 0.0487 1.2188 0.7278
C45 C 0.1321(6) 1.1335(6) 0.6472(5)
H58 H 0.1922 1.1595 0.6435
H59 H 0.0886 1.1686 0.6191
C46 C 0.1463(6) 1.0627(5) 0.6167(5)
H60 H 0.1714 1.0752 0.5651
H61 H 0.1909 1.0279 0.6437
C47 C 0.2121(6) 0.7863(5) 0.3541(4)
C48 C 0.2898(5) 0.8283(5) 0.3282(4)
H62 H 0.3094 0.8626 0.3559
C49 C 0.3414(6) 0.8228(5) 0.2629(4)
H63 H 0.3944 0.8537 0.2465
C50 C 0.3155(6) 0.7724(5) 0.2218(5)
C51 C 0.2356(6) 0.7287(5) 0.2466(5)
C52 C 0.1857(6) 0.7363(5) 0.3117(5)
H64 H 0.1318 0.7065 0.3280
C53 C 0.1433(7) 0.6269(6) 0.2290(5)
H65 H 0.0815 0.6518 0.2355
H66 H 0.1580 0.5970 0.2764
C54 C 0.1432(7) 0.5759(6) 0.1741(6)
H67 H 0.0918 0.5393 0.1880
H68 H 0.1351 0.6065 0.1255
C55 C 0.2554(10) 0.4913(8) 0.1222(8)
H69 H 0.1981 0.4738 0.1064
H70 H 0.2906 0.4459 0.1445
C56 C 0.3121(9) 0.5327(7) 0.0593(6)
H71 H 0.3184 0.5028 0.0202
H72 H 0.2812 0.5819 0.0410
C57 C 0.4584(8) 0.5989(6) 0.0252(5)
H73 H 0.4198 0.6438 0.0067
H74 H 0.4819 0.5744 -0.0159
C58 C 0.5386(8) 0.6231(6) 0.0594(5)
H75 H 0.5728 0.5773 0.0822
H76 H 0.5819 0.6531 0.0212
C59 C 0.5004(7) 0.7464(6) 0.0833(5)
H77 H 0.4613 0.7543 0.0424
H78 H 0.5624 0.7681 0.0652
C60 C 0.4554(6) 0.7857(6) 0.1429(5)
H79 H 0.4883 0.7710 0.1870
H80 H 0.4581 0.8416 0.1270
C61 C 0.3639(7) 0.1654(6) 0.3727(6)
H81 H 0.3482 0.2176 0.3579
C62 C 0.4028(7) 0.1244(7) 0.3208(6)
H82 H 0.4118 0.1478 0.2710
C63 C 0.4280(7) 0.0490(6) 0.3435(7)
H83 H 0.4568 0.0208 0.3093
C64 C 0.4117(7) 0.0138(7) 0.4163(7)
H84 H 0.4280 -0.0383 0.4313
C65 C 0.3723(7) 0.0547(7) 0.4657(6)
H85 H 0.3616 0.0302 0.5150
C66 C 0.3473(8) 0.1311(6) 0.4461(7)
H86 H 0.3202 0.1591 0.4811
C67 C 0.1125(8) 0.3353(6) 0.5689(7)
H87 H 0.1357 0.2987 0.5410
C68 C 0.0395(8) 0.3821(7) 0.5485(7)
H88 H 0.0109 0.3780 0.5065
C69 C 0.0084(9) 0.4338(8) 0.5879(7)
H89 H -0.0419 0.4669 0.5731
C70 C 0.0486(9) 0.4402(7) 0.6506(8)
H90 H 0.0261 0.4780 0.6772
C71 C 0.1189(10) 0.3934(8) 0.6734(8)
H91 H 0.1443 0.3960 0.7172
C72 C 0.1530(8) 0.3419(7) 0.6320(7)
H92 H 0.2046 0.3101 0.6460
C73 C 0.3989(9) 0.2087(8) 0.1042(7)
H93 H 0.4469 0.1852 0.0775
C74 C 0.3077(9) 0.1883(7) 0.1058(6)
H94 H 0.2918 0.1515 0.0793
C75 C 0.2404(8) 0.2219(6) 0.1461(7)
H95 H 0.1768 0.2093 0.1471
C76 C 0.2652(9) 0.2740(7) 0.1853(7)
H96 H 0.2183 0.2953 0.2148
C77 C 0.3555(10) 0.2960(7) 0.1828(8)
H97 H 0.3715 0.3329 0.2092
C78 C 0.4205(9) 0.2637(8) 0.1420(7)
H98 H 0.4834 0.2790 0.1388
O44 O -0.1302(5) 0.9295(4) 1.0305(4)
O45 O 0.3430(7) 1.0814(6) 0.8282(5)
O46? O -0.0157(18) 0.5202(13) 0.9629(12)
Cl5? Cl 0.4784(8) 1.0060(6) 0.0286(5)
O47? O 0.877(3) 0.541(2) 0.088(2)
O48? O 0.1125(17) 0.2927(15) 0.309(2)
O49? O 0.1495(13) 0.371(2) 0.3855(11)
O50? O 0.0836(18) 0.4216(19) 0.2795(17)
O51? O 0.3962(12) 1.0303(15) -0.0003(11)
O52? O 0.5496(19) 1.0599(18) -0.0042(13)
O53? O 0.513(2) 0.9374(11) 0.0060(12)
O54? O 0.4737(15) 0.9987(11) 0.1035(8)
loop_
_geom_bond_atom_site_label_1
_geom_bond_atom_site_label_2
_geom_bond_site_symmetry_1
_geom_bond_site_symmetry_2
Cl1 O1 1_555 1_555
O2 Cl1 1_555 1_555
O3 Cl1 1_555 1_555
O4 Cl1 1_555 1_555
Cl2 O5 1_555 1_555
O6 Cl2 1_555 1_555
O7 Cl2 1_555 1_555
O8 Cl2 1_555 1_555
Cl3 O9 1_555 1_555
O10 Cl3 1_555 1_555
O11 Cl3 1_555 1_555
O12 Cl3 1_555 1_555
Cl4 O13 1_555 1_555
O14 Cl4 1_555 1_555
O15 Cl4 1_555 1_555
O16 Cl4 1_555 1_555
Ca1 O18 1_555 1_555
Ca2 O21 1_555 1_555
O19 Ca1 1_555 1_555
O20 Ca1 1_555 1_555
O22 Ca2 1_555 1_555
O23 Ca2 1_555 1_555
O24 Ca1 1_555 1_555
O25 Ca1 1_555 1_555
O26 Ca1 1_555 1_555
O27 Ca1 1_555 1_555
O28 Ca1 1_555 1_555
O29 Ca2 1_555 1_555
O30 Ca2 1_555 1_555
O31 Ca2 1_555 1_555
O32 Ca2 1_555 1_555
O33 Ca2 1_555 1_555
O34 C36 1_555 1_555
O35 C40 1_555 1_555
O36 C42 1_555 1_555
O37 C44 1_555 1_555
O38 C37 1_555 1_555
O39 C51 1_555 1_555
O40 C54 1_555 1_555
O41 C56 1_555 1_555
O42 C58 1_555 1_555
O43 C50 1_555 1_555
C1 H1 1_555 1_555
C2 C1 1_555 1_555
H2 C2 1_555 1_555
C3 C2 1_555 1_555
H3 C3 1_555 1_555
C4 C1 1_555 1_555
H4 C4 1_555 1_555
C5 C1 1_555 1_555
C6 C5 1_555 1_555
H5 C6 1_555 1_555
C7 C6 1_555 1_555
H6 C7 1_555 1_555
C8 O24 1_555 1_555
C9 O28 1_555 1_555
C10 C5 1_555 1_555
H7 C10 1_555 1_555
C11 O24 1_555 1_555
H8 C11 1_555 1_555
H9 C11 1_555 1_555
C12 O25 1_555 1_555
H10 C12 1_555 1_555
H11 C12 1_555 1_555
C13 O25 1_555 1_555
H12 C13 1_555 1_555
H13 C13 1_555 1_555
C14 O26 1_555 1_555
H14 C14 1_555 1_555
H15 C14 1_555 1_555
C15 O26 1_555 1_555
H16 C15 1_555 1_555
H17 C15 1_555 1_555
C16 O27 1_555 1_555
H18 C16 1_555 1_555
H19 C16 1_555 1_555
C17 O27 1_555 1_555
H20 C17 1_555 1_555
H21 C17 1_555 1_555
C18 O28 1_555 1_555
H22 C18 1_555 1_555
H23 C18 1_555 1_555
C19 C2 1_555 1_555
C20 C19 1_555 1_555
H24 C20 1_555 1_555
C21 C20 1_555 1_555
H25 C21 1_555 1_555
C22 O29 1_555 1_555
C23 O33 1_555 1_555
C24 C19 1_555 1_555
H26 C24 1_555 1_555
C25 O29 1_555 1_555
H27 C25 1_555 1_555
H28 C25 1_555 1_555
C26 O30 1_555 1_555
H29 C26 1_555 1_555
H30 C26 1_555 1_555
C27 O30 1_555 1_555
H31 C27 1_555 1_555
H32 C27 1_555 1_555
C28 O31 1_555 1_555
H33 C28 1_555 1_555
H34 C28 1_555 1_555
C29 O31 1_555 1_555
H35 C29 1_555 1_555
H36 C29 1_555 1_555
C30 O32 1_555 1_555
H37 C30 1_555 1_555
H38 C30 1_555 1_555
C31 O32 1_555 1_555
H39 C31 1_555 1_555
H40 C31 1_555 1_555
C32 O33 1_555 1_555
H41 C32 1_555 1_555
H42 C32 1_555 1_555
C33 C3 1_555 1_555
C34 C33 1_555 1_555
H43 C34 1_555 1_555
C35 C34 1_555 1_555
H44 C35 1_555 1_555
C36 C35 1_555 1_555
C37 C36 1_555 1_555
C38 C33 1_555 1_555
H45 C38 1_555 1_555
C39 O34 1_555 1_555
H46 C39 1_555 1_555
H47 C39 1_555 1_555
C40 C39 1_555 1_555
H48 C40 1_555 1_555
H49 C40 1_555 1_555
C41 O35 1_555 1_555
H50 C41 1_555 1_555
H51 C41 1_555 1_555
C42 C41 1_555 1_555
H52 C42 1_555 1_555
H53 C42 1_555 1_555
C43 O36 1_555 1_555
H54 C43 1_555 1_555
H55 C43 1_555 1_555
C44 C43 1_555 1_555
H56 C44 1_555 1_555
H57 C44 1_555 1_555
C45 O37 1_555 1_555
H58 C45 1_555 1_555
H59 C45 1_555 1_555
C46 O38 1_555 1_555
H60 C46 1_555 1_555
H61 C46 1_555 1_555
C47 C4 1_555 1_555
C48 C47 1_555 1_555
H62 C48 1_555 1_555
C49 C48 1_555 1_555
H63 C49 1_555 1_555
C50 C49 1_555 1_555
C51 C50 1_555 1_555
C52 C47 1_555 1_555
H64 C52 1_555 1_555
C53 O39 1_555 1_555
H65 C53 1_555 1_555
H66 C53 1_555 1_555
C54 C53 1_555 1_555
H67 C54 1_555 1_555
H68 C54 1_555 1_555
C55 O40 1_555 1_555
H69 C55 1_555 1_555
H70 C55 1_555 1_555
C56 C55 1_555 1_555
H71 C56 1_555 1_555
H72 C56 1_555 1_555
C57 O41 1_555 1_555
H73 C57 1_555 1_555
H74 C57 1_555 1_555
C58 C57 1_555 1_555
H75 C58 1_555 1_555
H76 C58 1_555 1_555
C59 O42 1_555 1_555
H77 C59 1_555 1_555
H78 C59 1_555 1_555
C60 O43 1_555 1_555
H79 C60 1_555 1_555
H80 C60 1_555 1_555
C61 H81 1_555 1_555
C62 C61 1_555 1_555
H82 C62 1_555 1_555
C63 C62 1_555 1_555
H83 C63 1_555 1_555
C64 C63 1_555 1_555
H84 C64 1_555 1_555
C65 C64 1_555 1_555
H85 C65 1_555 1_555
C66 C61 1_555 1_555
H86 C66 1_555 1_555
C67 H87 1_555 1_555
C68 C67 1_555 1_555
H88 C68 1_555 1_555
C69 C68 1_555 1_555
H89 C69 1_555 1_555
C70 C69 1_555 1_555
H90 C70 1_555 1_555
C71 C70 1_555 1_555
H91 C71 1_555 1_555
C72 C67 1_555 1_555
H92 C72 1_555 1_555
C73 H93 1_555 1_555
C74 C73 1_555 1_555
H94 C74 1_555 1_555
C75 C74 1_555 1_555
H95 C75 1_555 1_555
C76 C75 1_555 1_555
H96 C76 1_555 1_555
C77 C76 1_555 1_555
H97 C77 1_555 1_555
C78 C73 1_555 1_555
H98 C78 1_555 1_555
C3 C4 1_555 1_555
C7 C8 1_555 1_555
C8 C9 1_555 1_555
C9 C10 1_555 1_555
C11 C12 1_555 1_555
C13 C14 1_555 1_555
C15 C16 1_555 1_555
C17 C18 1_555 1_555
C21 C22 1_555 1_555
C22 C23 1_555 1_555
C23 C24 1_555 1_555
C25 C26 1_555 1_555
C27 C28 1_555 1_555
C29 C30 1_555 1_555
C31 C32 1_555 1_555
C37 C38 1_555 1_555
C45 C46 1_555 1_555
C51 C52 1_555 1_555
C59 C60 1_555 1_555
C65 C66 1_555 1_555
C71 C72 1_555 1_555
C77 C78 1_555 1_555

#END
