
#######################################################################
#
#                 Cambridge Crystallographic Data Centre
#                                CCDC 
#
#######################################################################
#
# If this CIF has been generated from an entry in the Cambridge 
# Structural Database, then it will include bibliographic, chemical, 
# crystal, experimental, refinement or atomic coordinate data resulting 
# from the CCDC's data processing and validation procedures.
#
#######################################################################

data_OLUYUQ
_chemical_formula_moiety         'C25 H16 N2 O1 S1'
_chemical_name_systematic        
2-(1,3-Benzothiazol-2-yl)-4-(9H-carbazol-9-yl)phenol
_symmetry_cell_setting           monoclinic
_symmetry_space_group_name_H-M   'P 21/c'
_symmetry_Int_Tables_number      14
_space_group_name_Hall           '-P 2ybc'
loop_
_symmetry_equiv_pos_site_id
_symmetry_equiv_pos_as_xyz
1 x,y,z
2 -x,1/2+y,1/2-z
3 -x,-y,-z
4 x,1/2-y,1/2+z
_cell_length_a                   8.3907(4)
_cell_length_b                   30.6491(14)
_cell_length_c                   7.7677(4)
_cell_angle_alpha                90
_cell_angle_beta                 105.2680(10)
_cell_angle_gamma                90
_cell_volume                     1927.09
_exptl_crystal_colour            yellow
_exptl_crystal_description       block
_cell_formula_units_Z            4
loop_
_atom_site_label
_atom_site_type_symbol
_atom_site_fract_x
_atom_site_fract_y
_atom_site_fract_z
C1 C -0.3249(2) -0.03184(6) 0.1065(3)
C2 C -0.4046(3) -0.06555(7) -0.0038(3)
H1 H -0.3868 -0.0703 -0.1155
C3 C -0.5106(3) -0.09150(7) 0.0592(4)
H2 H -0.5649 -0.1143 -0.0112
C4 C -0.5384(3) -0.08444(7) 0.2252(3)
H3 H -0.6119 -0.1024 0.2631
C5 C -0.4594(3) -0.05140(7) 0.3352(3)
H4 H -0.4788 -0.0468 0.4462
C6 C -0.3493(2) -0.02506(6) 0.2752(3)
C7 C -0.1707(2) 0.02870(6) 0.2755(3)
C8 C -0.0654(2) 0.06651(6) 0.3417(2)
C9 C -0.0381(2) 0.07987(6) 0.5207(3)
C10 C 0.0625(3) 0.11525(7) 0.5821(3)
H5 H 0.0837 0.1233 0.7014
C11 C 0.1316(3) 0.13871(7) 0.4698(3)
H6 H 0.1960 0.1631 0.5122
C12 C 0.1058(2) 0.12610(6) 0.2929(2)
C13 C 0.0109(2) 0.08984(6) 0.2311(2)
H7 H -0.0026 0.0808 0.1139
C14 C 0.3412(2) 0.16388(6) 0.2128(3)
C15 C 0.4745(3) 0.14978(8) 0.3483(3)
H8 H 0.4611 0.1300 0.4342
C16 C 0.6286(3) 0.16645(9) 0.3500(4)
H9 H 0.7206 0.1575 0.4387
C17 C 0.6487(3) 0.19591(9) 0.2233(4)
H10 H 0.7537 0.2066 0.2292
C18 C 0.5178(3) 0.20969(7) 0.0891(4)
H11 H 0.5334 0.2297 0.0049
C19 C 0.3599(3) 0.19333(6) 0.0800(3)
C20 C 0.1980(3) 0.19909(6) -0.0403(3)
C21 C 0.1371(3) 0.22402(7) -0.1937(3)
H12 H 0.2079 0.2412 -0.2390
C22 C -0.0286(4) 0.22287(8) -0.2768(3)
H13 H -0.0698 0.2390 -0.3804
C23 C -0.1360(3) 0.19789(7) -0.2080(3)
H14 H -0.2483 0.1984 -0.2651
C24 C -0.0808(3) 0.17257(6) -0.0583(3)
H15 H -0.1531 0.1557 -0.0139
C25 C 0.0875(2) 0.17322(6) 0.0241(2)
N1 N -0.2596(2) 0.00937(5) 0.3699(2)
N2 N 0.17605(19) 0.15134(5) 0.1765(2)
O1 O -0.1083(2) 0.05961(5) 0.63676(19)
H16 H -0.1699 0.0402 0.5848
S1 S -0.18823(7) 0.006350(17) 0.06517(7)
loop_
_geom_bond_atom_site_label_1
_geom_bond_atom_site_label_2
_geom_bond_site_symmetry_1
_geom_bond_site_symmetry_2
C1 C2 1_555 1_555
C2 H1 1_555 1_555
C3 C2 1_555 1_555
H2 C3 1_555 1_555
C4 C3 1_555 1_555
H3 C4 1_555 1_555
C5 C4 1_555 1_555
H4 C5 1_555 1_555
C6 C1 1_555 1_555
C7 C8 1_555 1_555
C8 C9 1_555 1_555
C9 C10 1_555 1_555
C10 H5 1_555 1_555
C11 C10 1_555 1_555
H6 C11 1_555 1_555
C12 C11 1_555 1_555
C13 C8 1_555 1_555
H7 C13 1_555 1_555
C14 C15 1_555 1_555
C15 H8 1_555 1_555
C16 C15 1_555 1_555
H9 C16 1_555 1_555
C17 C16 1_555 1_555
H10 C17 1_555 1_555
C18 C17 1_555 1_555
H11 C18 1_555 1_555
C19 C14 1_555 1_555
C20 C19 1_555 1_555
C21 C20 1_555 1_555
H12 C21 1_555 1_555
C22 C21 1_555 1_555
H13 C22 1_555 1_555
C23 C22 1_555 1_555
H14 C23 1_555 1_555
C24 C23 1_555 1_555
H15 C24 1_555 1_555
C25 C20 1_555 1_555
N1 C6 1_555 1_555
N2 C12 1_555 1_555
O1 C9 1_555 1_555
H16 O1 1_555 1_555
S1 C1 1_555 1_555
C5 C6 1_555 1_555
C7 N1 1_555 1_555
C7 S1 1_555 1_555
C12 C13 1_555 1_555
C14 N2 1_555 1_555
C18 C19 1_555 1_555
C24 C25 1_555 1_555
C25 N2 1_555 1_555

#END
