
#######################################################################
#
#                 Cambridge Crystallographic Data Centre
#                                CCDC 
#
#######################################################################
#
# If this CIF has been generated from an entry in the Cambridge 
# Structural Database, then it will include bibliographic, chemical, 
# crystal, experimental, refinement or atomic coordinate data resulting 
# from the CCDC's data processing and validation procedures.
#
#######################################################################

data_OLUYAW
_chemical_formula_moiety         
'C34 H48 O12,C3 H12 N2 2+,2(Cl1 O4 1-),2.67(C6 H6)'
_chemical_name_systematic        
"Propane-1,3-diammonium diperchlorate (15,15'-ethene-1,2-diyl-bis(2,3,5,6,8,9,11,12,14,15-decahydro-1,4,7,10,13,16-benzohexaoxacyclo-octadecine)) benzene solvate"
_symmetry_cell_setting           rhombohedral
_symmetry_space_group_name_H-M   'R 3 2'
_symmetry_Int_Tables_number      155
_space_group_name_Hall           'R 3 2"'
loop_
_symmetry_equiv_pos_site_id
_symmetry_equiv_pos_as_xyz
1 x,y,z
2 -y,x-y,z
3 -x+y,-x,z
4 y,x,-z
5 x-y,-y,-z
6 -x,-x+y,-z
7 2/3+x,1/3+y,1/3+z
8 2/3-y,1/3+x-y,1/3+z
9 2/3-x+y,1/3-x,1/3+z
10 2/3+y,1/3+x,1/3-z
11 2/3+x-y,1/3-y,1/3-z
12 2/3-x,1/3-x+y,1/3-z
13 1/3+x,2/3+y,2/3+z
14 1/3-y,2/3+x-y,2/3+z
15 1/3-x+y,2/3-x,2/3+z
16 1/3+y,2/3+x,2/3-z
17 1/3+x-y,2/3-y,2/3-z
18 1/3-x,2/3-x+y,2/3-z
_cell_length_a                   21.0741(3)
_cell_length_b                   21.0741(3)
_cell_length_c                   33.4590(6)
_cell_angle_alpha                90
_cell_angle_beta                 90
_cell_angle_gamma                120
_cell_volume                     12868.9
_exptl_crystal_colour            colorless
_exptl_crystal_description       block
_cell_formula_units_Z            9
loop_
_atom_site_label
_atom_site_type_symbol
_atom_site_fract_x
_atom_site_fract_y
_atom_site_fract_z
Cl2 Cl 0.3333 0.6667 0.14384(10)
O3 O 0.3943(2) 0.7277(2) 0.1667
O4 O 0.3333 0.6667 0.1025(4)
Cl2I Cl 0.3334 0.6666 0.18949(10)
O3A O 0.2723(2) 0.6666(3) 0.1667
O3J O 0.3333(3) 0.6056(2) 0.1666
O4I O 0.3334 0.6666 0.2308(4)
Cl3 Cl 0.0000 0.0000 0.00847(7)
O5 O 0.0000 0.0643(2) 0.0000
O6 O 0.0000 0.0000 0.0509(2)
Cl3C Cl 0.0000 0.0000 -0.00847(7)
O5B O 0.0643(2) 0.0000 0.0000
O5A O -0.0643(2) -0.0643(2) 0.0000
O6C O 0.0000 0.0000 -0.0509(2)
O7 O 0.1199(10) 0.6647(12) 0.0825(7)
O8 O 0.1620(11) 0.8098(9) 0.1080(6)
O9 O 0.0684(5) 0.8636(4) 0.1175(2)
O10 O -0.0488(15) 0.7865(16) 0.0586(10)
O11 O -0.0992(7) 0.6356(6) 0.0420(4)
O12 O -0.0115(7) 0.5756(7) 0.0601(3)
O13 O 0.1049(14) 0.6559(10) 0.0861(7)
O16 O -0.0343(14) 0.8006(14) 0.0553(8)
O17 O -0.1048(7) 0.6525(7) 0.0369(4)
O18 O -0.0231(7) 0.5845(7) 0.0526(3)
C1 C 0.1916(9) 0.7181(9) 0.0983(6)
H1 H 0.1909 0.7150 0.1278
H2 H 0.2292 0.7071 0.0882
C2 C 0.2097(10) 0.7903(11) 0.0864(7)
H3 H 0.2026 0.7918 0.0573
H4 H 0.2616 0.8254 0.0928
C3 C 0.1805(10) 0.8856(9) 0.1027(7)
H5 H 0.2339 0.9183 0.1064
H6 H 0.1677 0.8927 0.0752
C4 C 0.1424(9) 0.9033(10) 0.1301(6)
H7 H 0.1605 0.9567 0.1300
H8 H 0.1478 0.8885 0.1575
C5 C 0.0365(9) 0.8969(9) 0.0933(5)
H9 H 0.0643 0.9147 0.0680
H10 H 0.0397 0.9395 0.1077
C6 C -0.0433(8) 0.8423(8) 0.0840(5)
H11 H -0.0700 0.8203 0.1092
H12 H -0.0663 0.8680 0.0711
C7 C -0.1172(12) 0.7367(9) 0.0420(7)
H13 H -0.1351 0.7639 0.0259
H14 H -0.1527 0.7114 0.0639
C8 C -0.1134(8) 0.6812(8) 0.0164(6)
H15 H -0.1604 0.6516 0.0020
H16 H -0.0738 0.7055 -0.0036
C9 C -0.1046(6) 0.5756(6) 0.0194(4)
H17 H -0.0702 0.5940 -0.0035
H18 H -0.1550 0.5453 0.0089
C10 C -0.0862(7) 0.5313(7) 0.0462(4)
H19 H -0.1201 0.5138 0.0693
H20 H -0.0914 0.4880 0.0317
C11 C 0.0208(8) 0.5455(9) 0.0833(4)
C12 C -0.0150(5) 0.4743(5) 0.0939(3)
H21 H -0.0635 0.4421 0.0850
C13 C 0.0219(8) 0.4494(6) 0.1186(3)
H22 H -0.0022 0.3990 0.1257
C14 C 0.0916(5) 0.4950(4) 0.13290(19)
C15 C 0.1262(5) 0.5676(4) 0.1216(2)
H23 H 0.1745 0.5997 0.1310
C16 C 0.0925(7) 0.5955(9) 0.0967(5)
C17 C 0.1306(6) 0.4707(6) 0.1604(3)
H24 H 0.1812 0.5038 0.1649
C18 C 0.0734(3) 0.4339(3) 0.15419(16)
H25 H 0.0499 0.3737 0.1749
C19 C 0.0500(6) 0.4731(8) 0.1275(3)
C20 C 0.0927(5) 0.5474(5) 0.1183(2)
H26 H 0.1405 0.5745 0.1294
C21 C 0.0682(8) 0.5827(7) 0.0938(4)
C22 C -0.0025(7) 0.5451(6) 0.0766(4)
C23 C -0.0454(5) 0.4673(5) 0.0840(2)
H27 H -0.0922 0.4390 0.0720
C24 C -0.0176(5) 0.4343(6) 0.1088(3)
H28 H -0.0460 0.3829 0.1133
C25 C 0.1799(10) 0.6989(11) 0.1012(7)
H29 H 0.2104 0.6788 0.0910
H30 H 0.1801 0.6974 0.1308
C26 C 0.2097(14) 0.7761(15) 0.0870(9)
H31 H 0.2625 0.8053 0.0935
H32 H 0.2042 0.7763 0.0576
C27 C 0.1965(7) 0.8846(8) 0.0970(5)
H33 H 0.1908 0.8906 0.0681
H34 H 0.2491 0.9148 0.1039
C28 C 0.1520(15) 0.9095(11) 0.1211(6)
H35 H 0.1644 0.9092 0.1497
H36 H 0.1690 0.9610 0.1138
C29 C 0.0574(12) 0.9080(10) 0.0874(6)
H37 H 0.0855 0.9129 0.0628
H38 H 0.0704 0.9575 0.0969
C30 C -0.0224(9) 0.8635(10) 0.0797(5)
H39 H -0.0495 0.8465 0.1052
H40 H -0.0397 0.8930 0.0653
C31 C -0.1095(9) 0.7607(9) 0.0426(5)
H41 H -0.1421 0.7395 0.0661
H42 H -0.1228 0.7937 0.0286
C32 C -0.1175(9) 0.7036(9) 0.0164(6)
H43 H -0.1676 0.6783 0.0051
H44 H -0.0823 0.7251 -0.0060
C33 C -0.1080(7) 0.5983(7) 0.0127(4)
H45 H -0.0691 0.6201 -0.0079
H46 H -0.1560 0.5727 -0.0010
C34 C -0.0980(8) 0.5457(6) 0.0372(4)
H47 H -0.1336 0.5274 0.0595
H48 H -0.1057 0.5035 0.0207
O7I O 0.3314(12) 0.4532(10) 0.2508(7)
O8I O 0.4765(9) 0.4953(11) 0.2253(6)
O9I O 0.5303(4) 0.4017(5) 0.2158(2)
O10I O 0.4532(16) 0.2845(15) 0.2747(10)
O11I O 0.3023(6) 0.2341(7) 0.2913(4)
O12I O 0.2423(7) 0.3218(7) 0.2732(3)
O13I O 0.3226(10) 0.4382(14) 0.2472(7)
O16I O 0.4673(14) 0.2990(14) 0.2780(8)
O17I O 0.3192(7) 0.2285(7) 0.2964(4)
O18I O 0.2512(7) 0.3102(7) 0.2807(3)
C1I C 0.3848(9) 0.5249(9) 0.2350(6)
H1I H 0.3817 0.5242 0.2055
H2I H 0.3738 0.5625 0.2451
C2I C 0.4570(11) 0.5430(10) 0.2469(7)
H3I H 0.4585 0.5359 0.2760
H4I H 0.4921 0.5949 0.2405
C3I C 0.5523(9) 0.5138(10) 0.2306(7)
H5I H 0.5850 0.5672 0.2269
H6I H 0.5594 0.5010 0.2581
C4I C 0.5700(10) 0.4757(9) 0.2032(6)
H7I H 0.6234 0.4938 0.2033
H8I H 0.5552 0.4811 0.1758
C5I C 0.5636(9) 0.3698(9) 0.2400(5)
H9I H 0.5814 0.3976 0.2653
H10I H 0.6062 0.3730 0.2256
C6I C 0.5090(8) 0.2900(8) 0.2493(5)
H11I H 0.4870 0.2633 0.2241
H12I H 0.5347 0.2670 0.2622
C7I C 0.4034(9) 0.2161(12) 0.2913(7)
H13I H 0.4306 0.1982 0.3074
H14I H 0.3781 0.1806 0.2694
C8I C 0.3479(8) 0.2199(8) 0.3169(6)
H15I H 0.3183 0.1729 0.3313
H16I H 0.3722 0.2595 0.3369
C9I C 0.2423(6) 0.2287(6) 0.3139(4)
H17I H 0.2607 0.2631 0.3368
H18I H 0.2120 0.1783 0.3244
C10I C 0.1980(7) 0.2471(7) 0.2871(4)
H19I H 0.1805 0.2132 0.2640
H20I H 0.1547 0.2419 0.3016
C11I C 0.2122(9) 0.3541(8) 0.2500(4)
C12I C 0.1410(5) 0.3183(5) 0.2394(3)
H21I H 0.1088 0.2698 0.2483
C13I C 0.1161(6) 0.3552(8) 0.2147(3)
H22I H 0.0657 0.3311 0.2076
C14I C 0.1617(4) 0.4249(5) 0.20043(19)
C15I C 0.2343(4) 0.4595(5) 0.2117(2)
H23I H 0.2664 0.5078 0.2023
C16I C 0.2622(9) 0.4258(7) 0.2366(5)
C17I C 0.1374(6) 0.4639(6) 0.1729(3)
H24I H 0.1705 0.5145 0.1684
C18I C 0.1006(3) 0.4067(3) 0.17914(16)
H25I H 0.0404 0.3832 0.1584
C19I C 0.1398(8) 0.3833(6) 0.2058(3)
C20I C 0.2141(5) 0.4260(5) 0.2150(2)
H26I H 0.2412 0.4738 0.2039
C21I C 0.2494(7) 0.4015(8) 0.2395(4)
C22I C 0.2118(6) 0.3308(7) 0.2567(4)
C23I C 0.1340(5) 0.2879(5) 0.2493(2)
H27I H 0.1057 0.2411 0.2613
C24I C 0.1010(6) 0.3157(5) 0.2245(3)
H28I H 0.0496 0.2873 0.2200
C25I C 0.3656(11) 0.5132(10) 0.2321(7)
H29I H 0.3455 0.5437 0.2423
H30I H 0.3641 0.5134 0.2025
C26I C 0.4428(15) 0.5430(14) 0.2463(9)
H31I H 0.4720 0.5958 0.2398
H32I H 0.4430 0.5375 0.2757
C27I C 0.5513(8) 0.5298(7) 0.2363(5)
H33I H 0.5573 0.5241 0.2652
H34I H 0.5815 0.5824 0.2294
C28I C 0.5762(11) 0.4853(15) 0.2122(6)
H35I H 0.5759 0.4977 0.1836
H36I H 0.6277 0.5023 0.2195
C29I C 0.5747(10) 0.3907(12) 0.2459(6)
H37I H 0.5796 0.4188 0.2705
H38I H 0.6242 0.4037 0.2364
C30I C 0.5302(10) 0.3109(9) 0.2536(5)
H39I H 0.5132 0.2838 0.2281
H40I H 0.5597 0.2936 0.2680
C31I C 0.4274(9) 0.2238(9) 0.2907(5)
H41I H 0.4062 0.1912 0.2672
H42I H 0.4604 0.2105 0.3047
C32I C 0.3703(9) 0.2158(9) 0.3169(6)
H43I H 0.3450 0.1657 0.3282
H44I H 0.3918 0.2510 0.3393
C33I C 0.2650(7) 0.2253(7) 0.3206(4)
H45I H 0.2868 0.2642 0.3412
H46I H 0.2394 0.1773 0.3343
C34I C 0.2124(6) 0.2353(8) 0.2961(4)
H47I H 0.1941 0.1997 0.2738
H48I H 0.1702 0.2276 0.3126
N1 N 0.01237(16) 0.71409(17) 0.09744(7)
H49 H -0.0072 0.7295 0.0781
H50 H 0.0156 0.6752 0.0882
H51 H 0.0579 0.7512 0.1039
C35 C -0.0345(2) 0.6922(3) 0.13281(9)
H52 H -0.0840 0.6523 0.1253
H53 H -0.0392 0.7343 0.1420
C36 C -0.0066(2) 0.6667 0.1667
H54 H 0.0006 0.6261 0.1575
N1J N -0.03505(23) 0.61924(17) 0.23589(7)
H49J H -0.0700 0.6038 0.2552
H50J H 0.0071 0.6581 0.2451
H51J H -0.0266 0.5821 0.2294
C35J C -0.0600(4) 0.6411(3) 0.20052(9)
H52J H -0.0696 0.6810 0.2080
H53J H -0.1068 0.5990 0.1913
H54J H 0.0412 0.7072 0.1758
C37 C 0.6605(3) 0.4420(3) -0.0001(2)
H55 H 0.6506 0.3963 -0.0110
C38 C 0.6936(4) 0.4639(4) 0.03713(18)
H56 H 0.7064 0.4333 0.0517
C39 C 0.7080(3) 0.5307(4) 0.05308(14)
H57 H 0.7307 0.5457 0.0785
C40 C 0.6893(4) 0.5756(3) 0.0318(2)
H58 H 0.6991 0.6213 0.0427
C41 C 0.6561(4) 0.5537(5) -0.0055(2)
H59 H 0.6433 0.5843 -0.0200
C42 C 0.6417(3) 0.4869(5) -0.02142(13)
H60 H 0.6191 0.4719 -0.0469
C43 C 0.6514(8) 0.4573(7) -0.0088(4)
H61 H 0.6331 0.4202 -0.0287
C44 C 0.6799(12) 0.4473(9) 0.0265(6)
H62 H 0.6811 0.4033 0.0308
C45 C 0.7067(11) 0.5016(13) 0.0557(4)
H63 H 0.7262 0.4948 0.0798
C46 C 0.7050(11) 0.5659(10) 0.0494(5)
H64 H 0.7233 0.6031 0.0693
C47 C 0.6764(12) 0.5760(7) 0.0141(6)
H65 H 0.6752 0.6199 0.0098
C48 C 0.6496(9) 0.5216(9) -0.0151(4)
H66 H 0.6301 0.5285 -0.0392
H67 H 1.0190 0.8870 0.1900
H69 H 0.9814 0.8724 0.1929
H71 H 1.0043 0.9099 0.1911
H68 H 1.1292 0.9988 0.1915
H70 H 1.0917 0.9842 0.1927
H72 H 1.1145 1.0217 0.1898
Cl1 Cl 0.3333 0.10939(5) 0.1667
O1 O 0.39455(19) 0.17863(17) 0.15639(13)
O2 O 0.3161(2) 0.0616(2) 0.13253(14)
O1K O 0.27212(19) 0.11741(25) 0.17694(13)
O2K O 0.3506(2) 0.0788(3) 0.20080(14)
O14? O 0.4751(7) 0.5046(10) 0.2276(5)
O15? O 0.5359(11) 0.4063(11) 0.2156(6)
C49? C 1.0183(11) 0.9318(8) 0.1905(4)
C50? C 1.0838(7) 0.9982(12) 0.1914(4)
C51? C 1.0829(6) 1.0636(8) 0.1922(4)
C52? C 1.0164(8) 1.0627(6) 0.1921(4)
C53? C 0.9510(5) 0.9963(8) 0.1912(4)
C54? C 0.9519(7) 0.9308(6) 0.1904(3)
loop_
_geom_bond_atom_site_label_1
_geom_bond_atom_site_label_2
_geom_bond_site_symmetry_1
_geom_bond_site_symmetry_2
Cl1 O1 1_555 1_555
O2 Cl1 1_555 1_555
Cl2 O3 1_555 1_555
O3 Cl2I 1_555 1_555
O4 Cl2 1_555 1_555
Cl3 O5 1_555 1_555
O5 Cl3C 1_555 1_555
O6 Cl3 1_555 1_555
O7 O13 1_555 1_555
O8 C2 1_555 1_555
O9 C4 1_555 1_555
O10 O16 1_555 1_555
O11 O17 1_555 1_555
O12 O18 1_555 1_555
O13 C1 1_555 1_555
O16 C6 1_555 1_555
O17 C8 1_555 1_555
O18 C10 1_555 1_555
C1 O7 1_555 1_555
H1 C1 1_555 1_555
H2 C1 1_555 1_555
C2 C1 1_555 1_555
H3 C2 1_555 1_555
H4 C2 1_555 1_555
C3 O8 1_555 1_555
H5 C3 1_555 1_555
H6 C3 1_555 1_555
C4 C3 1_555 1_555
H7 C4 1_555 1_555
H8 C4 1_555 1_555
C5 O9 1_555 1_555
H9 C5 1_555 1_555
H10 C5 1_555 1_555
C6 O10 1_555 1_555
H11 C6 1_555 1_555
H12 C6 1_555 1_555
C7 O10 1_555 1_555
H13 C7 1_555 1_555
H14 C7 1_555 1_555
C8 O11 1_555 1_555
H15 C8 1_555 1_555
H16 C8 1_555 1_555
C9 O11 1_555 1_555
H17 C9 1_555 1_555
H18 C9 1_555 1_555
C10 O12 1_555 1_555
H19 C10 1_555 1_555
H20 C10 1_555 1_555
C11 O12 1_555 1_555
C12 C11 1_555 1_555
H21 C12 1_555 1_555
C13 C12 1_555 1_555
H22 C13 1_555 1_555
C14 C13 1_555 1_555
C15 C14 1_555 1_555
H23 C15 1_555 1_555
C16 O7 1_555 1_555
C17 C14 1_555 1_555
H24 C17 1_555 1_555
C18 C13 1_555 1_555
H25 C18 1_555 1_555
C19 C13 1_555 1_555
C20 C14 1_555 1_555
H26 C15 1_555 1_555
C21 O7 1_555 1_555
C22 O12 1_555 1_555
C23 C11 1_555 1_555
H27 H21 1_555 1_555
C24 C12 1_555 1_555
H28 C24 1_555 1_555
C25 O7 1_555 1_555
H29 C1 1_555 1_555
H30 C1 1_555 1_555
C26 O8 1_555 1_555
H31 C2 1_555 1_555
H32 C2 1_555 1_555
C27 O8 1_555 1_555
H33 C3 1_555 1_555
H34 C3 1_555 1_555
C28 O9 1_555 1_555
H35 C4 1_555 1_555
H36 C4 1_555 1_555
C29 O9 1_555 1_555
H37 H9 1_555 1_555
H38 C5 1_555 1_555
C30 O10 1_555 1_555
H39 C6 1_555 1_555
H40 C6 1_555 1_555
C31 O10 1_555 1_555
H41 C7 1_555 1_555
H42 H13 1_555 1_555
C32 O17 1_555 1_555
H43 C8 1_555 1_555
H44 C8 1_555 1_555
C33 O11 1_555 1_555
H45 C9 1_555 1_555
H46 C9 1_555 1_555
C34 O18 1_555 1_555
H47 C10 1_555 1_555
H48 C10 1_555 1_555
N1 H49 1_555 1_555
H50 N1 1_555 1_555
H51 N1 1_555 1_555
C35 N1 1_555 1_555
H52 C35 1_555 1_555
H53 C35 1_555 1_555
C36 C35 1_555 1_555
H54 C36 1_555 1_555
C37 H55 1_555 1_555
H55 C43 1_555 1_555
C38 C37 1_555 1_555
H56 C38 1_555 1_555
C39 C38 1_555 1_555
H57 C39 1_555 1_555
C40 C39 1_555 1_555
H58 C40 1_555 1_555
C41 C40 1_555 1_555
H59 C41 1_555 1_555
C42 C37 1_555 1_555
H60 C42 1_555 1_555
C43 C37 1_555 1_555
H61 C37 1_555 1_555
C44 C37 1_555 1_555
H62 C38 1_555 1_555
C45 C38 1_555 1_555
H63 C45 1_555 1_555
C46 C39 1_555 1_555
H64 C46 1_555 1_555
C47 C40 1_555 1_555
H65 C47 1_555 1_555
C48 C41 1_555 1_555
H66 C41 1_555 1_555
H67 H69 1_555 1_555
H68 H70 1_555 1_555
H69 H71 1_555 1_555
H70 H72 1_555 1_555
H71 H67 1_555 1_555
H72 H68 1_555 1_555
O1K Cl1 1_555 1_555
O2K Cl1 1_555 1_555
Cl2I Cl2 1_555 1_555
O3A Cl2 1_555 1_555
O3J Cl2 1_555 1_555
O4I Cl2I 1_555 1_555
Cl3C Cl3 1_555 1_555
O5B Cl3 1_555 1_555
O5A Cl3 1_555 1_555
O6C Cl3 1_555 1_555
O7I O13I 1_555 1_555
O8I C2I 1_555 1_555
O9I C4I 1_555 1_555
O10I O16I 1_555 1_555
O11I O17I 1_555 1_555
O12I O18I 1_555 1_555
O13I C1I 1_555 1_555
O16I C6I 1_555 1_555
O17I C8I 1_555 1_555
O18I C10I 1_555 1_555
C1I O7I 1_555 1_555
H1I C1I 1_555 1_555
H2I C1I 1_555 1_555
C2I C1I 1_555 1_555
H3I C2I 1_555 1_555
H4I C2I 1_555 1_555
C3I O8I 1_555 1_555
H5I C3I 1_555 1_555
H6I C3I 1_555 1_555
C4I C3I 1_555 1_555
H7I C4I 1_555 1_555
H8I C4I 1_555 1_555
C5I O9I 1_555 1_555
H9I C5I 1_555 1_555
H10I C5I 1_555 1_555
C6I O10I 1_555 1_555
H11I C6I 1_555 1_555
H12I C6I 1_555 1_555
C7I O10I 1_555 1_555
H13I C7I 1_555 1_555
H14I C7I 1_555 1_555
C8I O11I 1_555 1_555
H15I C8I 1_555 1_555
H16I C8I 1_555 1_555
C9I O11I 1_555 1_555
H17I C9I 1_555 1_555
H18I C9I 1_555 1_555
C10I O12I 1_555 1_555
H19I C10I 1_555 1_555
H20I C10I 1_555 1_555
C11I O12I 1_555 1_555
C12I C11I 1_555 1_555
H21I C12I 1_555 1_555
C13I C12I 1_555 1_555
H22I C13I 1_555 1_555
C14I C13I 1_555 1_555
C15I C14I 1_555 1_555
H23I C15I 1_555 1_555
C16I O7I 1_555 1_555
C17I C17 1_555 1_555
H24I C17 1_555 1_555
C18I C17 1_555 1_555
H25I C18 1_555 1_555
C19I C13I 1_555 1_555
C20I C14I 1_555 1_555
H26I C15I 1_555 1_555
C21I O7I 1_555 1_555
C22I O12I 1_555 1_555
C23I C11I 1_555 1_555
H27I H21I 1_555 1_555
C24I C12I 1_555 1_555
H28I C24I 1_555 1_555
C25I O7I 1_555 1_555
H29I C1I 1_555 1_555
H30I C1I 1_555 1_555
C26I O8I 1_555 1_555
H31I C2I 1_555 1_555
H32I C2I 1_555 1_555
C27I O8I 1_555 1_555
H33I C3I 1_555 1_555
H34I C3I 1_555 1_555
C28I O9I 1_555 1_555
H35I C4I 1_555 1_555
H36I C4I 1_555 1_555
C29I O9I 1_555 1_555
H37I H9I 1_555 1_555
H38I C5I 1_555 1_555
C30I O10I 1_555 1_555
H39I C6I 1_555 1_555
H40I C6I 1_555 1_555
C31I O10I 1_555 1_555
H41I C7I 1_555 1_555
H42I H13I 1_555 1_555
C32I O17I 1_555 1_555
H43I C8I 1_555 1_555
H44I C8I 1_555 1_555
C33I O11I 1_555 1_555
H45I C9I 1_555 1_555
H46I C9I 1_555 1_555
C34I O18I 1_555 1_555
H47I C10I 1_555 1_555
H48I C10I 1_555 1_555
N1J H49J 1_555 1_555
H50J N1J 1_555 1_555
H51J N1J 1_555 1_555
C35J C36 1_555 1_555
H52J C35J 1_555 1_555
H53J C35J 1_555 1_555
H54J C36 1_555 1_555
O6 Cl3C 1_555 1_555
O13 C16 1_555 1_555
O13 C21 1_555 1_555
O13 C25 1_555 1_555
O16 C7 1_555 1_555
O16 C30 1_555 1_555
O16 C31 1_555 1_555
O17 C9 1_555 1_555
O17 C33 1_555 1_555
O18 C22 1_555 1_555
C1 C25 1_555 1_555
C1 C26 1_555 1_555
H1 C25 1_555 1_555
H1 H30 1_555 1_555
H2 C25 1_555 1_555
H2 H29 1_555 1_555
C2 C26 1_555 1_555
H3 C26 1_555 1_555
H3 H32 1_555 1_555
H4 C26 1_555 1_555
H4 H31 1_555 1_555
C3 C27 1_555 1_555
C3 C28 1_555 1_555
H5 C27 1_555 1_555
H5 H34 1_555 1_555
H6 C27 1_555 1_555
H6 H33 1_555 1_555
C4 C28 1_555 1_555
H7 C28 1_555 1_555
H7 H36 1_555 1_555
H8 C28 1_555 1_555
H8 H35 1_555 1_555
C5 C6 1_555 1_555
C5 C29 1_555 1_555
C5 C30 1_555 1_555
H9 C29 1_555 1_555
H10 C29 1_555 1_555
H10 H38 1_555 1_555
C6 C30 1_555 1_555
H11 H39 1_555 1_555
H12 C30 1_555 1_555
H12 H40 1_555 1_555
C7 C8 1_555 1_555
C7 C31 1_555 1_555
C7 C32 1_555 1_555
H13 C31 1_555 1_555
H14 C31 1_555 1_555
H14 H41 1_555 1_555
C8 C32 1_555 1_555
H15 C32 1_555 1_555
H15 H43 1_555 1_555
H16 C32 1_555 1_555
H16 H44 1_555 1_555
C9 C10 1_555 1_555
C9 C33 1_555 1_555
C9 C34 1_555 1_555
H17 C33 1_555 1_555
H17 H45 1_555 1_555
H18 C33 1_555 1_555
H18 H46 1_555 1_555
C10 C34 1_555 1_555
H19 C34 1_555 1_555
H19 H47 1_555 1_555
H20 C34 1_555 1_555
H20 H48 1_555 1_555
C11 C16 1_555 1_555
C11 C21 1_555 1_555
C11 C22 1_555 1_555
C12 C22 1_555 1_555
C12 C23 1_555 1_555
H21 C23 1_555 1_555
C13 C24 1_555 1_555
H22 C24 1_555 1_555
C14 C18 1_555 1_555
C14 C19 1_555 1_555
C15 C16 1_555 1_555
C15 C20 1_555 1_555
C15 C21 1_555 1_555
H23 H26 1_555 1_555
C16 C20 1_555 1_555
C16 C21 1_555 1_555
C17 C18 1_555 1_555
H24 C17I 1_555 1_555
H24 H24I 1_555 1_555
C18 C19 1_555 1_555
C18 C17I 1_555 1_555
C18 C18I 1_555 1_555
H25 C18I 1_555 1_555
H25 H25I 1_555 1_555
C19 C20 1_555 1_555
C19 C24 1_555 1_555
C20 H26 1_555 1_555
C20 C21 1_555 1_555
C21 C22 1_555 1_555
C22 C23 1_555 1_555
C23 H27 1_555 1_555
C23 C24 1_555 1_555
C25 H29 1_555 1_555
C25 H30 1_555 1_555
C25 C26 1_555 1_555
C26 H31 1_555 1_555
C26 H32 1_555 1_555
C27 H33 1_555 1_555
C27 H34 1_555 1_555
C27 C28 1_555 1_555
C28 H35 1_555 1_555
C28 H36 1_555 1_555
C29 H37 1_555 1_555
C29 H38 1_555 1_555
C29 C30 1_555 1_555
C30 H39 1_555 1_555
C30 H40 1_555 1_555
C31 H41 1_555 1_555
C31 H42 1_555 1_555
C31 C32 1_555 1_555
C32 H43 1_555 1_555
C32 H44 1_555 1_555
C33 H45 1_555 1_555
C33 H46 1_555 1_555
C33 C34 1_555 1_555
C34 H47 1_555 1_555
C34 H48 1_555 1_555
C38 C43 1_555 1_555
C38 C44 1_555 1_555
H56 C44 1_555 1_555
C39 C45 1_555 1_555
H57 C45 1_555 1_555
H57 C46 1_555 1_555
C40 C46 1_555 1_555
H58 C46 1_555 1_555
H58 C47 1_555 1_555
C41 C42 1_555 1_555
C41 C47 1_555 1_555
C42 C43 1_555 1_555
C42 C48 1_555 1_555
C42 H66 1_555 1_555
C43 H61 1_555 1_555
C43 C44 1_555 1_555
C43 C48 1_555 1_555
C44 H62 1_555 1_555
C44 C45 1_555 1_555
C45 C46 1_555 1_555
C46 C47 1_555 1_555
C47 C48 1_555 1_555
C48 H66 1_555 1_555
Cl2I O3A 1_555 1_555
Cl2I O3J 1_555 1_555
Cl3C O5B 1_555 1_555
Cl3C O5A 1_555 1_555
Cl3C O6C 1_555 1_555
O13I C16I 1_555 1_555
O13I C21I 1_555 1_555
O13I C25I 1_555 1_555
O16I C7I 1_555 1_555
O16I C30I 1_555 1_555
O16I C31I 1_555 1_555
O17I C9I 1_555 1_555
O17I C33I 1_555 1_555
O18I C22I 1_555 1_555
C1I C25I 1_555 1_555
C1I C26I 1_555 1_555
H1I C25I 1_555 1_555
H1I H30I 1_555 1_555
H2I C25I 1_555 1_555
H2I H29I 1_555 1_555
C2I C26I 1_555 1_555
H3I C26I 1_555 1_555
H3I H32I 1_555 1_555
H4I C26I 1_555 1_555
H4I H31I 1_555 1_555
C3I C27I 1_555 1_555
C3I C28I 1_555 1_555
H5I C27I 1_555 1_555
H5I H34I 1_555 1_555
H6I C27I 1_555 1_555
H6I H33I 1_555 1_555
C4I C28I 1_555 1_555
H7I C28I 1_555 1_555
H7I H36I 1_555 1_555
H8I C28I 1_555 1_555
H8I H35I 1_555 1_555
C5I C6I 1_555 1_555
C5I C29I 1_555 1_555
C5I C30I 1_555 1_555
H9I C29I 1_555 1_555
H10I C29I 1_555 1_555
H10I H38I 1_555 1_555
C6I C30I 1_555 1_555
H11I H39I 1_555 1_555
H12I C30I 1_555 1_555
H12I H40I 1_555 1_555
C7I C8I 1_555 1_555
C7I C31I 1_555 1_555
C7I C32I 1_555 1_555
H13I C31I 1_555 1_555
H14I C31I 1_555 1_555
H14I H41I 1_555 1_555
C8I C32I 1_555 1_555
H15I C32I 1_555 1_555
H15I H43I 1_555 1_555
H16I C32I 1_555 1_555
H16I H44I 1_555 1_555
C9I C10I 1_555 1_555
C9I C33I 1_555 1_555
C9I C34I 1_555 1_555
H17I C33I 1_555 1_555
H17I H45I 1_555 1_555
H18I C33I 1_555 1_555
H18I H46I 1_555 1_555
C10I C34I 1_555 1_555
H19I C34I 1_555 1_555
H19I H47I 1_555 1_555
H20I C34I 1_555 1_555
H20I H48I 1_555 1_555
C11I C16I 1_555 1_555
C11I C21I 1_555 1_555
C11I C22I 1_555 1_555
C12I C22I 1_555 1_555
C12I C23I 1_555 1_555
H21I C23I 1_555 1_555
C13I C18I 1_555 1_555
C13I C24I 1_555 1_555
H22I C24I 1_555 1_555
C14I C17I 1_555 1_555
C14I C18I 1_555 1_555
C14I C19I 1_555 1_555
C15I C16I 1_555 1_555
C15I C20I 1_555 1_555
C15I C21I 1_555 1_555
H23I H26I 1_555 1_555
C16I C20I 1_555 1_555
C16I C21I 1_555 1_555
C17I H24I 1_555 1_555
C17I C18I 1_555 1_555
C18I H25I 1_555 1_555
C18I C19I 1_555 1_555
C19I C20I 1_555 1_555
C19I C24I 1_555 1_555
C20I H26I 1_555 1_555
C20I C21I 1_555 1_555
C21I C22I 1_555 1_555
C22I C23I 1_555 1_555
C23I H27I 1_555 1_555
C23I C24I 1_555 1_555
C25I H29I 1_555 1_555
C25I H30I 1_555 1_555
C25I C26I 1_555 1_555
C26I H31I 1_555 1_555
C26I H32I 1_555 1_555
C27I H33I 1_555 1_555
C27I H34I 1_555 1_555
C27I C28I 1_555 1_555
C28I H35I 1_555 1_555
C28I H36I 1_555 1_555
C29I H37I 1_555 1_555
C29I H38I 1_555 1_555
C29I C30I 1_555 1_555
C30I H39I 1_555 1_555
C30I H40I 1_555 1_555
C31I H41I 1_555 1_555
C31I H42I 1_555 1_555
C31I C32I 1_555 1_555
C32I H43I 1_555 1_555
C32I H44I 1_555 1_555
C33I H45I 1_555 1_555
C33I H46I 1_555 1_555
C33I C34I 1_555 1_555
C34I H47I 1_555 1_555
C34I H48I 1_555 1_555
N1J C35J 1_555 1_555

#END
