
#######################################################################
#
#                 Cambridge Crystallographic Data Centre
#                                CCDC 
#
#######################################################################
#
# If this CIF has been generated from an entry in the Cambridge 
# Structural Database, then it will include bibliographic, chemical, 
# crystal, experimental, refinement or atomic coordinate data resulting 
# from the CCDC's data processing and validation procedures.
#
#######################################################################

data_OLUZOL
_chemical_formula_moiety         'C25 H18 N2 O1 S1'
_chemical_name_systematic        
2-(1,3-Benzothiazol-2-yl)-5-(diphenylamino)phenol
_symmetry_cell_setting           monoclinic
_symmetry_space_group_name_H-M   'P 21/c'
_symmetry_Int_Tables_number      14
_space_group_name_Hall           '-P 2ybc'
loop_
_symmetry_equiv_pos_site_id
_symmetry_equiv_pos_as_xyz
1 x,y,z
2 -x,1/2+y,1/2-z
3 -x,-y,-z
4 x,1/2-y,1/2+z
_cell_length_a                   20.542(4)
_cell_length_b                   7.2295(14)
_cell_length_c                   13.494(3)
_cell_angle_alpha                90
_cell_angle_beta                 98.92(3)
_cell_angle_gamma                90
_cell_volume                     1979.74
_exptl_crystal_colour            colorless
_exptl_crystal_description       block
_cell_formula_units_Z            4
loop_
_atom_site_label
_atom_site_type_symbol
_atom_site_fract_x
_atom_site_fract_y
_atom_site_fract_z
C1 C 0.43841(12) 0.8793(3) 0.61744(17)
C2 C 0.37030(13) 0.8863(4) 0.6200(2)
H1 H 0.3442 0.7808 0.6099
C3 C 0.34372(14) 1.0553(4) 0.6380(2)
H2 H 0.2987 1.0633 0.6399
C4 C 0.38128(14) 1.2126(4) 0.65333(19)
H3 H 0.3613 1.3244 0.6644
C5 C 0.44734(13) 1.2072(3) 0.65256(17)
H4 H 0.4725 1.3142 0.6637
C6 C 0.47671(11) 1.0401(3) 0.63488(15)
C7 C 0.55610(11) 0.8386(3) 0.61260(16)
C8 C 0.62172(11) 0.7722(3) 0.60612(16)
C9 C 0.67554(11) 0.8939(3) 0.61547(17)
C10 C 0.73790(12) 0.8326(3) 0.60601(18)
H5 H 0.7724 0.9170 0.6098
C11 C 0.74981(11) 0.6466(3) 0.59086(18)
C12 C 0.69718(12) 0.5217(3) 0.58535(18)
H6 H 0.7044 0.3961 0.5771
C13 C 0.63556(11) 0.5845(3) 0.59211(17)
H7 H 0.6012 0.4997 0.5873
C14 C 0.87182(12) 0.6732(3) 0.6195(2)
C15 C 0.87855(14) 0.7640(4) 0.7110(2)
H8 H 0.8441 0.7616 0.7484
C16 C 0.93549(16) 0.8576(4) 0.7471(3)
H9 H 0.9390 0.9196 0.8081
C17 C 0.98719(17) 0.8605(5) 0.6941(4)
H10 H 1.0255 0.9252 0.7183
C18 C 0.98192(15) 0.7677(5) 0.6055(3)
H11 H 1.0174 0.7666 0.5703
C19 C 0.92457(13) 0.6748(4) 0.5669(2)
H12 H 0.9215 0.6136 0.5057
C20 C 0.81652(11) 0.4338(3) 0.5095(2)
C21 C 0.85041(13) 0.2729(3) 0.5382(2)
H13 H 0.8704 0.2562 0.6043
C22 C 0.85439(16) 0.1354(4) 0.4667(4)
H14 H 0.8770 0.0264 0.4853
C23 C 0.82525(18) 0.1600(5) 0.3695(3)
H15 H 0.8283 0.0678 0.3224
C24 C 0.79214(16) 0.3170(5) 0.3418(3)
H16 H 0.7723 0.3324 0.2755
C25 C 0.78745(13) 0.4552(4) 0.4107(2)
H17 H 0.7646 0.5634 0.3906
N1 N 0.54359(9) 1.0133(2) 0.63219(13)
N2 N 0.81269(9) 0.5793(3) 0.58046(17)
O1 O 0.66834(8) 1.0774(2) 0.63253(15)
H18 H 0.6296 1.0996 0.6362
S1 S 0.48685(3) 0.69469(8) 0.59465(5)
loop_
_geom_bond_atom_site_label_1
_geom_bond_atom_site_label_2
_geom_bond_site_symmetry_1
_geom_bond_site_symmetry_2
C1 C2 1_555 1_555
C2 H1 1_555 1_555
C3 C2 1_555 1_555
H2 C3 1_555 1_555
C4 C3 1_555 1_555
H3 C4 1_555 1_555
C5 C4 1_555 1_555
H4 C5 1_555 1_555
C6 C1 1_555 1_555
C7 C8 1_555 1_555
C8 C9 1_555 1_555
C9 C10 1_555 1_555
C10 H5 1_555 1_555
C11 C10 1_555 1_555
C12 C11 1_555 1_555
H6 C12 1_555 1_555
C13 C8 1_555 1_555
H7 C13 1_555 1_555
C14 C15 1_555 1_555
C15 H8 1_555 1_555
C16 C15 1_555 1_555
H9 C16 1_555 1_555
C17 C16 1_555 1_555
H10 C17 1_555 1_555
C18 C17 1_555 1_555
H11 C18 1_555 1_555
C19 C14 1_555 1_555
H12 C19 1_555 1_555
C20 C21 1_555 1_555
C21 H13 1_555 1_555
C22 C21 1_555 1_555
H14 C22 1_555 1_555
C23 C22 1_555 1_555
H15 C23 1_555 1_555
C24 C23 1_555 1_555
H16 C24 1_555 1_555
C25 C20 1_555 1_555
H17 C25 1_555 1_555
N1 C6 1_555 1_555
N2 C11 1_555 1_555
O1 C9 1_555 1_555
H18 O1 1_555 1_555
S1 C1 1_555 1_555
C5 C6 1_555 1_555
C7 N1 1_555 1_555
C7 S1 1_555 1_555
C12 C13 1_555 1_555
C14 N2 1_555 1_555
C18 C19 1_555 1_555
C20 N2 1_555 1_555
C24 C25 1_555 1_555

#END
