
#######################################################################
#
#                 Cambridge Crystallographic Data Centre
#                                CCDC 
#
#######################################################################
#
# If this CIF has been generated from an entry in the Cambridge 
# Structural Database, then it will include bibliographic, chemical, 
# crystal, experimental, refinement or atomic coordinate data resulting 
# from the CCDC's data processing and validation procedures.
#
#######################################################################

data_OLUZEB
_chemical_formula_moiety         'C25 H18 N2 O1 S1'
_chemical_name_systematic        
2-(1,3-Benzothiazol-2-yl)-4-(diphenylamino)phenol
_symmetry_cell_setting           triclinic
_symmetry_space_group_name_H-M   'P -1'
_symmetry_Int_Tables_number      2
_space_group_name_Hall           '-P 1'
loop_
_symmetry_equiv_pos_site_id
_symmetry_equiv_pos_as_xyz
1 x,y,z
2 -x,-y,-z
_cell_length_a                   8.8320(6)
_cell_length_b                   9.9071(7)
_cell_length_c                   11.6033(8)
_cell_angle_alpha                84.8300(10)
_cell_angle_beta                 84.4180(10)
_cell_angle_gamma                79.0620(10)
_cell_volume                     989.441
_exptl_crystal_colour            yellow
_exptl_crystal_description       block
_cell_formula_units_Z            2
loop_
_atom_site_label
_atom_site_type_symbol
_atom_site_fract_x
_atom_site_fract_y
_atom_site_fract_z
C1 C 1.1950(3) 0.3235(2) -0.01338(19)
C2 C 1.3186(3) 0.3891(2) -0.0518(2)
H1 H 1.4088 0.3718 -0.0135
C3 C 1.3029(3) 0.4809(3) -0.1488(2)
H2 H 1.3837 0.5263 -0.1763
C4 C 1.1690(3) 0.5061(2) -0.2054(2)
H3 H 1.1617 0.5680 -0.2707
C5 C 1.0467(3) 0.4424(2) -0.16831(19)
H4 H 0.9572 0.4605 -0.2075
C6 C 1.0593(3) 0.3497(2) -0.07021(17)
C7 C 0.9934(2) 0.19604(19) 0.06785(16)
C8 C 0.9002(2) 0.10363(19) 0.13302(16)
C9 C 0.7559(2) 0.0924(2) 0.09798(17)
C10 C 0.6769(2) -0.0049(2) 0.15469(18)
H5 H 0.5813 -0.0126 0.1313
C11 C 0.7376(2) -0.0907(2) 0.24556(17)
H6 H 0.6842 -0.1579 0.2808
C12 C 0.8774(2) -0.0784(2) 0.28524(16)
C13 C 0.9552(2) 0.0201(2) 0.22998(16)
H7 H 1.0468 0.0318 0.2577
C14 C 0.8298(2) -0.2006(2) 0.47432(16)
C15 C 0.7278(3) -0.0994(2) 0.52865(18)
H8 H 0.7260 -0.0075 0.5031
C16 C 0.6280(3) -0.1328(3) 0.6208(2)
H9 H 0.5577 -0.0636 0.6563
C17 C 0.6320(3) -0.2676(4) 0.6603(2)
H10 H 0.5666 -0.2898 0.7240
C18 C 0.7322(3) -0.3699(3) 0.6059(2)
H11 H 0.7342 -0.4616 0.6324
C19 C 0.8298(3) -0.3372(2) 0.5121(2)
H12 H 0.8959 -0.4070 0.4741
C20 C 1.0964(2) -0.21248(18) 0.38913(17)
C21 C 1.1541(2) -0.2431(2) 0.49775(18)
H13 H 1.0873 -0.2332 0.5648
C22 C 1.3106(3) -0.2884(2) 0.5058(2)
H14 H 1.3477 -0.3114 0.5787
C23 C 1.4124(3) -0.3001(2) 0.4091(2)
H15 H 1.5179 -0.3287 0.4159
C24 C 1.3558(2) -0.2688(2) 0.3017(2)
H16 H 1.4238 -0.2758 0.2352
C25 C 1.1995(2) -0.2273(2) 0.29157(18)
H17 H 1.1629 -0.2091 0.2182
N1 N 0.9460(2) 0.27621(17) -0.02239(14)
N2 N 0.93599(18) -0.16709(17) 0.38042(14)
O1 O 0.69061(18) 0.17319(18) 0.00813(13)
H18 H 0.7481 0.2260 -0.0193
S1 S 1.17908(7) 0.20323(6) 0.10280(5)
loop_
_geom_bond_atom_site_label_1
_geom_bond_atom_site_label_2
_geom_bond_site_symmetry_1
_geom_bond_site_symmetry_2
C1 C2 1_555 1_555
C2 H1 1_555 1_555
C3 C2 1_555 1_555
H2 C3 1_555 1_555
C4 C3 1_555 1_555
H3 C4 1_555 1_555
C5 C4 1_555 1_555
H4 C5 1_555 1_555
C6 C1 1_555 1_555
C7 C8 1_555 1_555
C8 C9 1_555 1_555
C9 C10 1_555 1_555
C10 H5 1_555 1_555
C11 C10 1_555 1_555
H6 C11 1_555 1_555
C12 C11 1_555 1_555
C13 C8 1_555 1_555
H7 C13 1_555 1_555
C14 C15 1_555 1_555
C15 H8 1_555 1_555
C16 C15 1_555 1_555
H9 C16 1_555 1_555
C17 C16 1_555 1_555
H10 C17 1_555 1_555
C18 C17 1_555 1_555
H11 C18 1_555 1_555
C19 C14 1_555 1_555
H12 C19 1_555 1_555
C20 C21 1_555 1_555
C21 H13 1_555 1_555
C22 C21 1_555 1_555
H14 C22 1_555 1_555
C23 C22 1_555 1_555
H15 C23 1_555 1_555
C24 C23 1_555 1_555
H16 C24 1_555 1_555
C25 C20 1_555 1_555
H17 C25 1_555 1_555
N1 C6 1_555 1_555
N2 C12 1_555 1_555
O1 C9 1_555 1_555
H18 O1 1_555 1_555
S1 C1 1_555 1_555
C5 C6 1_555 1_555
C7 N1 1_555 1_555
C7 S1 1_555 1_555
C12 C13 1_555 1_555
C14 N2 1_555 1_555
C18 C19 1_555 1_555
C20 N2 1_555 1_555
C24 C25 1_555 1_555

#END
