
#######################################################################
#
#                 Cambridge Crystallographic Data Centre
#                                CCDC 
#
#######################################################################
#
# If this CIF has been generated from an entry in the Cambridge 
# Structural Database, then it will include bibliographic, chemical, 
# crystal, experimental, refinement or atomic coordinate data resulting 
# from the CCDC's data processing and validation procedures.
#
#######################################################################

data_OMAFEN
_chemical_formula_moiety         'C21 H19 N2 1+,Cl1 1-,H2 O1'
_chemical_name_systematic        
'1,3-Dibenzylbenzimidazolium chloride monohydrate'
_symmetry_cell_setting           triclinic
_symmetry_space_group_name_H-M   'P -1'
_symmetry_Int_Tables_number      2
_space_group_name_Hall           '-P 1'
loop_
_symmetry_equiv_pos_site_id
_symmetry_equiv_pos_as_xyz
1 x,y,z
2 -x,-y,-z
_cell_length_a                   9.3200(19)
_cell_length_b                   9.850(2)
_cell_length_c                   11.510(2)
_cell_angle_alpha                68.75(3)
_cell_angle_beta                 80.57(3)
_cell_angle_gamma                70.20(3)
_cell_volume                     925.56
_cell_formula_units_Z            2
_exptl_crystal_recrystallization_method ethanol
loop_
_atom_site_label
_atom_site_type_symbol
_atom_site_fract_x
_atom_site_fract_y
_atom_site_fract_z
Cl1 Cl 0.35736(12) 0.31682(11) 0.50528(10)
N1 N -0.0816(3) 0.2827(2) 0.3681(2)
N2 N -0.2004(3) 0.1272(3) 0.3652(2)
C1 C 0.1062(4) 0.5675(4) 0.2234(4)
H1 H 0.1767 0.5303 0.2846
C2 C 0.1321(5) 0.6674(5) 0.1072(5)
H2 H 0.2198 0.6975 0.0909
C3 C 0.0304(7) 0.7215(5) 0.0170(4)
H3 H 0.0489 0.7882 -0.0610
C4 C -0.0979(5) 0.6789(5) 0.0399(4)
H4 H -0.1673 0.7157 -0.0222
C5 C -0.1253(4) 0.5809(4) 0.1558(4)
H5 H -0.2144 0.5532 0.1715
C6 C -0.0236(3) 0.5231(3) 0.2485(3)
C7 C -0.0550(4) 0.4184(3) 0.3748(3)
H6 H 0.0312 0.3861 0.4261
H7 H -0.1440 0.4735 0.4144
C8 C -0.2165(3) 0.2595(3) 0.3810(3)
H8 H -0.3088 0.3258 0.3984
C9 C -0.3293(3) 0.0712(4) 0.3650(3)
H9 H -0.4143 0.1122 0.4162
H10 H -0.2982 -0.0394 0.4011
C10 C -0.4778(4) 0.2611(4) 0.1808(3)
H11 H -0.5138 0.3293 0.2252
C11 C -0.5230(4) 0.3042(4) 0.0617(4)
H12 H -0.5896 0.4014 0.0262
C12 C -0.4710(4) 0.2057(5) -0.0053(4)
H13 H -0.5015 0.2355 -0.0861
C13 C -0.3738(4) 0.0632(5) 0.0479(4)
H14 H -0.3371 -0.0038 0.0024
C14 C -0.3294(4) 0.0177(4) 0.1675(3)
H15 H -0.2654 -0.0807 0.2034
C15 C -0.3797(3) 0.1179(3) 0.2351(3)
C16 C -0.0473(3) 0.0617(3) 0.3402(2)
C17 C 0.0307(4) -0.0740(3) 0.3165(3)
H16 H -0.0196 -0.1400 0.3142
C18 C 0.1871(4) -0.1055(4) 0.2965(3)
H17 H 0.2435 -0.1952 0.2804
C19 C 0.2625(4) -0.0075(4) 0.2996(3)
H18 H 0.3681 -0.0337 0.2863
C20 C 0.1853(3) 0.1273(3) 0.3220(3)
H19 H 0.2357 0.1935 0.3235
C21 C 0.0293(3) 0.1595(3) 0.3419(3)
O1 O 0.4998(3) 0.4256(3) 0.6775(2)
H20 H 0.4149 0.4415 0.6488
H21 H 0.5343 0.4992 0.6340
loop_
_geom_bond_atom_site_label_1
_geom_bond_atom_site_label_2
_geom_bond_site_symmetry_1
_geom_bond_site_symmetry_2
N1 C7 1_555 1_555
N2 C8 1_555 1_555
C1 H1 1_555 1_555
C2 C1 1_555 1_555
H2 C2 1_555 1_555
C3 C2 1_555 1_555
H3 C3 1_555 1_555
C4 C3 1_555 1_555
H4 C4 1_555 1_555
C5 C4 1_555 1_555
H5 C5 1_555 1_555
C6 C1 1_555 1_555
C7 C6 1_555 1_555
H6 C7 1_555 1_555
H7 C7 1_555 1_555
C8 N1 1_555 1_555
H8 C8 1_555 1_555
C9 N2 1_555 1_555
H9 C9 1_555 1_555
H10 C9 1_555 1_555
C10 H11 1_555 1_555
C11 C10 1_555 1_555
H12 C11 1_555 1_555
C12 C11 1_555 1_555
H13 C12 1_555 1_555
C13 C12 1_555 1_555
H14 C13 1_555 1_555
C14 C13 1_555 1_555
H15 C14 1_555 1_555
C15 C9 1_555 1_555
C16 N2 1_555 1_555
C17 C16 1_555 1_555
H16 C17 1_555 1_555
C18 C17 1_555 1_555
H17 C18 1_555 1_555
C19 C18 1_555 1_555
H18 C19 1_555 1_555
C20 C19 1_555 1_555
H19 C20 1_555 1_555
C21 N1 1_555 1_555
O1 H20 1_555 1_555
H21 O1 1_555 1_555
C5 C6 1_555 1_555
C10 C15 1_555 1_555
C14 C15 1_555 1_555
C16 C21 1_555 1_555
C20 C21 1_555 1_555

#END
