
#######################################################################
#
#                 Cambridge Crystallographic Data Centre
#                                CCDC 
#
#######################################################################
#
# If this CIF has been generated from an entry in the Cambridge 
# Structural Database, then it will include bibliographic, chemical, 
# crystal, experimental, refinement or atomic coordinate data resulting 
# from the CCDC's data processing and validation procedures.
#
#######################################################################

data_OMAGOA
_chemical_formula_moiety         'C123 H126 O24 S6'
_chemical_name_systematic        
1^2^,1^6^,3^2^,3^6^,5^2^,5^6^-hexa((7,7-dimethyl-2-oxobicyclo[2.2.1]heptan-1-yl)methanesulfonate)-1,3,5(3,7)-tri(triptycena)cyclohexaphane
_symmetry_cell_setting           tetragonal
_symmetry_space_group_name_H-M   'P 43 21 2'
_symmetry_Int_Tables_number      96
_space_group_name_Hall           'P 4nw 2abw'
loop_
_symmetry_equiv_pos_site_id
_symmetry_equiv_pos_as_xyz
1 x,y,z
2 -x,-y,1/2+z
3 1/2-y,1/2+x,3/4+z
4 1/2+y,1/2-x,1/4+z
5 1/2-x,1/2+y,3/4-z
6 1/2+x,1/2-y,1/4-z
7 y,x,-z
8 -y,-x,1/2-z
_cell_length_a                   25.230(4)
_cell_length_b                   25.230(4)
_cell_length_c                   29.410(6)
_cell_angle_alpha                90
_cell_angle_beta                 90
_cell_angle_gamma                90
_cell_volume                     18721
_exptl_crystal_colour            colorless
_exptl_crystal_description       block
_cell_formula_units_Z            4
loop_
_atom_site_label
_atom_site_type_symbol
_atom_site_fract_x
_atom_site_fract_y
_atom_site_fract_z
S1 S 0.36546(7) 0.46670(6) 0.38610(5)
S2 S 0.08805(7) 0.30352(6) 0.66865(6)
S3 S 0.01024(9) 0.31100(10) 0.42231(9)
O1 O 0.34775(15) 0.41684(14) 0.41717(13)
O2 O 0.4120(2) 0.4885(2) 0.40421(17)
O3 O 0.3210(2) 0.50005(19) 0.38030(15)
O4 O 0.3749(3) 0.3218(2) 0.35421(18)
O5 O 0.11796(17) 0.28555(16) 0.62299(13)
O6 O 0.0351(2) 0.31973(19) 0.65842(17)
O7 O 0.1211(2) 0.34011(19) 0.69253(16)
O8 O 0.1391(2) 0.1692(2) 0.6334(2)
O9 O 0.06517(19) 0.2946(2) 0.44496(16)
O10 O -0.0312(3) 0.3014(3) 0.4526(3)
O11 O 0.0225(3) 0.3656(3) 0.4090(3)
O12 O -0.0910(5) 0.3454(5) 0.3862(4)
C1 C 0.4092(2) 0.4092(2) 0.5000
H1 H 0.435(5) 0.425(5) 0.531(4)
C2 C 0.3515(2) 0.4220(2) 0.4993(2)
C3 C 0.3220(2) 0.4274(2) 0.45911(18)
C4 C 0.2682(2) 0.4394(2) 0.4588(2)
H2 H 0.2506 0.4448 0.4315
C5 C 0.2421(2) 0.4430(2) 0.4985(2)
C6 C 0.2697(3) 0.4358(2) 0.54002(18)
C7 C 0.3228(2) 0.4263(2) 0.54029(19)
H3 H 0.3404 0.4226 0.5679
C8 C 0.1824(2) 0.4542(2) 0.5058(2)
H4 H 0.1631 0.4596 0.4772
C9 C 0.2337(2) 0.4392(2) 0.5819(2)
H5 H 0.2527 0.4338 0.6106
C10 C 0.1615(2) 0.4064(2) 0.5332(2)
C11 C 0.1175(2) 0.3761(2) 0.5229(2)
H6 H 0.0983 0.3822 0.4964
C12 C 0.1020(2) 0.3351(2) 0.5536(2)
C13 C 0.1318(3) 0.3291(2) 0.5935(2)
C14 C 0.1747(3) 0.3583(2) 0.6038(2)
H7 H 0.1941 0.3513 0.6300
C15 C 0.1902(2) 0.3999(2) 0.5745(2)
C16 C 0.1779(3) 0.5014(3) 0.5379(2)
C17 C 0.1479(3) 0.5454(3) 0.5305(3)
H8 H 0.1282 0.5500 0.5040
C18 C 0.1485(4) 0.5848(3) 0.5666(3)
H9 H 0.1288 0.6156 0.5627
C19 C 0.1771(4) 0.5787(4) 0.6064(3)
H10 H 0.1779 0.6050 0.6285
C20 C 0.2034(3) 0.5332(3) 0.6115(3)
H11 H 0.2213 0.5275 0.6387
C21 C 0.2054(2) 0.4947(2) 0.5790(2)
C22 C 0.0537(3) 0.3020(2) 0.5426(2)
H12 H 0.0354 0.2936 0.5707
H13 H 0.0298 0.3229 0.5240
C23 C 0.0660(2) 0.2513(3) 0.5181(2)
C24 C 0.0693(2) 0.2470(3) 0.4707(2)
C25 C 0.0823(3) 0.2000(3) 0.4483(2)
H14 H 0.0848 0.1991 0.4168
C26 C 0.0912(2) 0.1554(3) 0.4735(2)
C27 C 0.0868(3) 0.1574(3) 0.5211(2)
C28 C 0.0751(2) 0.2054(2) 0.5434(2)
H15 H 0.0733 0.2065 0.5750
C29 C 0.1006(3) 0.1053(3) 0.5444(2)
H16 H 0.0985 0.1069 0.5777
C30 C 0.0647(3) 0.0645(2) 0.5234(2)
C31 C 0.0282(3) 0.0310(3) 0.5479(3)
H17 H 0.0262 0.0321 0.5794
C32 C -0.0038(3) -0.0027(3) 0.5228(3)
H18 H -0.0268 -0.0254 0.5381
C33 C 0.3809(3) 0.4337(3) 0.3352(2)
H19 H 0.3908 0.4605 0.3132
H20 H 0.4123 0.4125 0.3409
C34 C 0.3402(3) 0.3975(2) 0.3123(2)
C35 C 0.3458(3) 0.3932(3) 0.2602(2)
C36 C 0.3327(4) 0.4450(3) 0.2339(2)
H21 H 0.3014 0.4609 0.2465
H22 H 0.3268 0.4369 0.2024
H23 H 0.3618 0.4693 0.2366
C37 C 0.3985(3) 0.3742(3) 0.2428(3)
H24 H 0.4212 0.4041 0.2374
H25 H 0.3935 0.3552 0.2149
H26 H 0.4146 0.3513 0.2649
C38 C 0.3000(4) 0.3496(3) 0.2566(3)
H27 H 0.2932 0.3372 0.2255
C39 C 0.2806(3) 0.4106(3) 0.3185(2)
H28 H 0.2747 0.4486 0.3167
H29 H 0.2680 0.3980 0.3477
C40 C 0.2512(3) 0.3816(4) 0.2790(3)
H30 H 0.2356 0.4065 0.2577
H31 H 0.2240 0.3578 0.2903
C41 C 0.3480(3) 0.3378(3) 0.3247(2)
C42 C 0.3200(4) 0.3075(3) 0.2881(3)
H32 H 0.2909 0.2869 0.3006
H33 H 0.3442 0.2838 0.2725
C43 C 0.0834(2) 0.2409(2) 0.69670(19)
H34 H 0.0633 0.2462 0.7244
H35 H 0.0627 0.2176 0.6774
C44 C 0.1341(2) 0.2114(3) 0.70939(19)
C45 C 0.1288(3) 0.1739(3) 0.7497(3)
C46 C 0.0861(4) 0.1308(4) 0.7430(3)
H36 H 0.0518 0.1454 0.7493
H37 H 0.0929 0.1018 0.7633
H38 H 0.0871 0.1183 0.7121
C47 C 0.1180(5) 0.2016(4) 0.7959(3)
H39 H 0.1442 0.2285 0.8010
H40 H 0.1196 0.1759 0.8199
H41 H 0.0834 0.2175 0.7953
C48 C 0.1866(3) 0.1525(4) 0.7447(3)
H42 H 0.1959 0.1266 0.7682
C49 C 0.1518(3) 0.1705(3) 0.6723(3)
C50 C 0.1880(3) 0.1296(4) 0.6980(3)
H43 H 0.1733 0.0941 0.6972
H44 H 0.2237 0.1291 0.6857
C51 C 0.1848(3) 0.2435(4) 0.7201(3)
H45 H 0.1769 0.2747 0.7381
H46 H 0.2031 0.2540 0.6925
C52 C 0.2178(3) 0.2018(4) 0.7480(4)
H47 H 0.2528 0.1972 0.7349
H48 H 0.2216 0.2129 0.7794
C53 C 0.0031(5) 0.2717(5) 0.3777(5)
C54 C -0.0433(5) 0.2730(5) 0.3438(4)
C55 C -0.0352(4) 0.2939(4) 0.2961(3)
C56 C -0.0276(4) 0.3528(4) 0.3065(4)
H49 H -0.0606 0.3711 0.3024
H50 H -0.0014 0.3673 0.2863
H51 H -0.0159 0.3569 0.3374
C57 C 0.0017(4) 0.2593(4) 0.2705(3)
H52 H 0.0031 0.2251 0.2847
H53 H 0.0364 0.2749 0.2705
H54 H -0.0106 0.2557 0.2398
C58 C -0.0898(4) 0.2846(4) 0.2808(3)
H55 H -0.0978 0.2942 0.2493
C59 C -0.0860(4) 0.3130(4) 0.3512(3)
C60 C -0.1268(4) 0.3045(4) 0.3155(3)
H56 H -0.1530 0.2783 0.3243
H57 H -0.1441 0.3371 0.3064
C61 C -0.0738(4) 0.2205(4) 0.3399(3)
H58 H -0.0500 0.1903 0.3397
H59 H -0.0995 0.2165 0.3642
C62 C -0.1006(4) 0.2283(4) 0.2939(3)
H60 H -0.0859 0.2041 0.2716
H61 H -0.1384 0.2219 0.2963
S1F S 0.46670(6) 0.36546(7) 0.61390(5)
S2F S 0.30352(6) 0.08805(7) 0.33135(6)
S3F S 0.31100(10) 0.01024(9) 0.57769(9)
O1F O 0.41684(14) 0.34775(15) 0.58283(13)
O2F O 0.4885(2) 0.4120(2) 0.59579(17)
O3F O 0.50005(19) 0.3210(2) 0.61970(15)
O4F O 0.3218(2) 0.3749(3) 0.64579(18)
O5F O 0.28555(16) 0.11796(17) 0.37701(13)
O6F O 0.31973(19) 0.0351(2) 0.34158(17)
O7F O 0.34011(19) 0.1211(2) 0.30747(16)
O8F O 0.1692(2) 0.1391(2) 0.3666(2)
O9F O 0.2946(2) 0.06517(19) 0.55504(16)
O10F O 0.3014(3) -0.0312(3) 0.5474(3)
O11F O 0.3656(3) 0.0225(3) 0.5910(3)
O12F O 0.3454(5) -0.0910(5) 0.6138(4)
H1F H 0.425(5) 0.435(5) 0.469(4)
C2F C 0.4220(2) 0.3515(2) 0.5007(2)
C3F C 0.4274(2) 0.3220(2) 0.54089(18)
C4F C 0.4394(2) 0.2682(2) 0.5412(2)
H2F H 0.4448 0.2506 0.5685
C5F C 0.4430(2) 0.2421(2) 0.5015(2)
C6F C 0.4358(2) 0.2697(3) 0.45998(18)
C7F C 0.4263(2) 0.3228(2) 0.45971(19)
H3F H 0.4226 0.3404 0.4321
C8F C 0.4542(2) 0.1824(2) 0.4942(2)
H4F H 0.4596 0.1631 0.5228
C9F C 0.4392(2) 0.2337(2) 0.4181(2)
H5F H 0.4338 0.2527 0.3894
C10F C 0.4064(2) 0.1615(2) 0.4668(2)
C11F C 0.3761(2) 0.1175(2) 0.4771(2)
H6F H 0.3822 0.0983 0.5036
C12F C 0.3351(2) 0.1020(2) 0.4464(2)
C13F C 0.3291(2) 0.1318(3) 0.4065(2)
C14F C 0.3583(2) 0.1747(3) 0.3962(2)
H7F H 0.3513 0.1941 0.3700
C15F C 0.3999(2) 0.1902(2) 0.4255(2)
C16F C 0.5014(3) 0.1779(3) 0.4621(2)
C17F C 0.5454(3) 0.1479(3) 0.4695(3)
H8F H 0.5500 0.1282 0.4960
C18F C 0.5848(3) 0.1485(4) 0.4334(3)
H9F H 0.6156 0.1288 0.4373
C19F C 0.5787(4) 0.1771(4) 0.3936(3)
H10F H 0.6050 0.1779 0.3715
C20F C 0.5332(3) 0.2034(3) 0.3885(3)
H11F H 0.5275 0.2213 0.3613
C21F C 0.4947(2) 0.2054(2) 0.4210(2)
C22F C 0.3020(2) 0.0537(3) 0.4574(2)
H12F H 0.2936 0.0354 0.4293
H13F H 0.3229 0.0298 0.4760
C23F C 0.2513(3) 0.0660(2) 0.4819(2)
C24F C 0.2470(3) 0.0693(2) 0.5293(2)
C25F C 0.2000(3) 0.0823(3) 0.5517(2)
H14F H 0.1991 0.0848 0.5832
C26F C 0.1554(3) 0.0912(2) 0.5265(2)
C27F C 0.1574(3) 0.0868(3) 0.4789(2)
C28F C 0.2054(2) 0.0751(2) 0.4566(2)
H15F H 0.2065 0.0733 0.4250
C29F C 0.1053(3) 0.1006(3) 0.4556(2)
H16F H 0.1069 0.0985 0.4223
C30F C 0.0645(2) 0.0647(3) 0.4766(2)
C31F C 0.0310(3) 0.0282(3) 0.4521(3)
H17F H 0.0321 0.0262 0.4206
C32F C -0.0027(3) -0.0038(3) 0.4772(3)
H18F H -0.0254 -0.0268 0.4619
C33F C 0.4337(3) 0.3809(3) 0.6648(2)
H19F H 0.4605 0.3908 0.6868
H20F H 0.4125 0.4123 0.6591
C34F C 0.3975(2) 0.3402(3) 0.6877(2)
C35F C 0.3932(3) 0.3458(3) 0.7398(2)
C36F C 0.4450(3) 0.3327(4) 0.7661(2)
H21F H 0.4609 0.3014 0.7535
H22F H 0.4369 0.3268 0.7976
H23F H 0.4693 0.3618 0.7634
C37F C 0.3742(3) 0.3985(3) 0.7572(3)
H24F H 0.4041 0.4212 0.7626
H25F H 0.3552 0.3935 0.7851
H26F H 0.3513 0.4146 0.7351
C38F C 0.3496(3) 0.3000(4) 0.7434(3)
H27F H 0.3372 0.2932 0.7745
C39F C 0.4106(3) 0.2806(3) 0.6815(2)
H28F H 0.4486 0.2747 0.6833
H29F H 0.3980 0.2680 0.6523
C40F C 0.3816(4) 0.2512(3) 0.7210(3)
H30F H 0.4065 0.2356 0.7423
H31F H 0.3578 0.2240 0.7097
C41F C 0.3378(3) 0.3480(3) 0.6753(2)
C42F C 0.3075(3) 0.3200(4) 0.7119(3)
H32F H 0.2869 0.2909 0.6994
H33F H 0.2838 0.3442 0.7275
C43F C 0.2409(2) 0.0834(2) 0.30330(19)
H34F H 0.2462 0.0633 0.2756
H35F H 0.2176 0.0627 0.3226
C44F C 0.2114(3) 0.1341(2) 0.29061(19)
C45F C 0.1739(3) 0.1288(3) 0.2503(3)
C46F C 0.1308(4) 0.0861(4) 0.2570(3)
H36F H 0.1454 0.0518 0.2507
H37F H 0.1018 0.0929 0.2367
H38F H 0.1183 0.0871 0.2879
C47F C 0.2016(4) 0.1180(5) 0.2041(3)
H39F H 0.2285 0.1442 0.1990
H40F H 0.1759 0.1196 0.1801
H41F H 0.2175 0.0834 0.2047
C48F C 0.1525(4) 0.1866(3) 0.2553(3)
H42F H 0.1266 0.1959 0.2318
C49F C 0.1705(3) 0.1518(3) 0.3277(3)
C50F C 0.1296(4) 0.1880(3) 0.3020(3)
H43F H 0.0941 0.1733 0.3028
H44F H 0.1291 0.2237 0.3143
C51F C 0.2435(4) 0.1848(3) 0.2799(3)
H45F H 0.2747 0.1769 0.2619
H46F H 0.2540 0.2031 0.3075
C52F C 0.2018(4) 0.2178(3) 0.2520(4)
H47F H 0.1972 0.2528 0.2651
H48F H 0.2129 0.2216 0.2206
C53F C 0.2717(5) 0.0031(5) 0.6223(5)
C54F C 0.2730(5) -0.0433(5) 0.6562(4)
C55F C 0.2939(4) -0.0352(4) 0.7039(3)
C56F C 0.3528(4) -0.0276(4) 0.6935(4)
H49F H 0.3711 -0.0606 0.6976
H50F H 0.3673 -0.0014 0.7137
H51F H 0.3569 -0.0159 0.6626
C57F C 0.2593(4) 0.0017(4) 0.7295(3)
H52F H 0.2251 0.0031 0.7153
H53F H 0.2749 0.0364 0.7295
H54F H 0.2557 -0.0106 0.7602
C58F C 0.2846(4) -0.0898(4) 0.7192(3)
H55F H 0.2942 -0.0978 0.7507
C59F C 0.3130(4) -0.0860(4) 0.6488(3)
C60F C 0.3045(4) -0.1268(4) 0.6845(3)
H56F H 0.2783 -0.1530 0.6757
H57F H 0.3371 -0.1441 0.6936
C61F C 0.2205(4) -0.0738(4) 0.6601(3)
H58F H 0.1903 -0.0500 0.6603
H59F H 0.2165 -0.0995 0.6358
C62F C 0.2283(4) -0.1006(4) 0.7061(3)
H60F H 0.2041 -0.0859 0.7284
H61F H 0.2219 -0.1384 0.7037
loop_
_geom_bond_atom_site_label_1
_geom_bond_atom_site_label_2
_geom_bond_site_symmetry_1
_geom_bond_site_symmetry_2
S1 O1 1_555 1_555
S2 O5 1_555 1_555
S3 O9 1_555 1_555
O1 C3 1_555 1_555
O2 S1 1_555 1_555
O3 S1 1_555 1_555
O4 C41 1_555 1_555
O5 C13 1_555 1_555
O6 S2 1_555 1_555
O7 S2 1_555 1_555
O8 C49 1_555 1_555
O9 C24 1_555 1_555
O10 S3 1_555 1_555
O11 S3 1_555 1_555
O12 C59 1_555 1_555
C1 H1 1_555 1_555
C2 C1 1_555 1_555
C3 C2 1_555 1_555
C4 C3 1_555 1_555
H2 C4 1_555 1_555
C5 C4 1_555 1_555
C6 C5 1_555 1_555
C7 C2 1_555 1_555
H3 C7 1_555 1_555
C8 C5 1_555 1_555
H4 C8 1_555 1_555
C9 C6 1_555 1_555
H5 C9 1_555 1_555
C10 C8 1_555 1_555
C11 C10 1_555 1_555
H6 C11 1_555 1_555
C12 C11 1_555 1_555
C13 C12 1_555 1_555
C14 C13 1_555 1_555
H7 C14 1_555 1_555
C15 C9 1_555 1_555
C16 C8 1_555 1_555
C17 C16 1_555 1_555
H8 C17 1_555 1_555
C18 C17 1_555 1_555
H9 C18 1_555 1_555
C19 C18 1_555 1_555
H10 C19 1_555 1_555
C20 C19 1_555 1_555
H11 C20 1_555 1_555
C21 C9 1_555 1_555
C22 C12 1_555 1_555
H12 C22 1_555 1_555
H13 C22 1_555 1_555
C23 C22 1_555 1_555
C24 C23 1_555 1_555
C25 C24 1_555 1_555
H14 C25 1_555 1_555
C26 C25 1_555 1_555
C27 C26 1_555 1_555
C28 C23 1_555 1_555
H15 C28 1_555 1_555
C29 C27 1_555 1_555
H16 C29 1_555 1_555
C30 C29 1_555 1_555
C31 C30 1_555 1_555
H17 C31 1_555 1_555
C32 C31 1_555 1_555
H18 C32 1_555 1_555
C33 S1 1_555 1_555
H19 C33 1_555 1_555
H20 C33 1_555 1_555
C34 C33 1_555 1_555
C35 C34 1_555 1_555
C36 C35 1_555 1_555
H21 C36 1_555 1_555
H22 C36 1_555 1_555
H23 C36 1_555 1_555
C37 C35 1_555 1_555
H24 C37 1_555 1_555
H25 C37 1_555 1_555
H26 C37 1_555 1_555
C38 C35 1_555 1_555
H27 C38 1_555 1_555
C39 C34 1_555 1_555
H28 C39 1_555 1_555
H29 C39 1_555 1_555
C40 C38 1_555 1_555
H30 C40 1_555 1_555
H31 C40 1_555 1_555
C41 C34 1_555 1_555
C42 C38 1_555 1_555
H32 C42 1_555 1_555
H33 C42 1_555 1_555
C43 S2 1_555 1_555
H34 C43 1_555 1_555
H35 C43 1_555 1_555
C44 C43 1_555 1_555
C45 C44 1_555 1_555
C46 C45 1_555 1_555
H36 C46 1_555 1_555
H37 C46 1_555 1_555
H38 C46 1_555 1_555
C47 C45 1_555 1_555
H39 C47 1_555 1_555
H40 C47 1_555 1_555
H41 C47 1_555 1_555
C48 C45 1_555 1_555
H42 C48 1_555 1_555
C49 C44 1_555 1_555
C50 C48 1_555 1_555
H43 C50 1_555 1_555
H44 C50 1_555 1_555
C51 C44 1_555 1_555
H45 C51 1_555 1_555
H46 C51 1_555 1_555
C52 C48 1_555 1_555
H47 C52 1_555 1_555
H48 C52 1_555 1_555
C53 S3 1_555 1_555
C54 C53 1_555 1_555
C55 C54 1_555 1_555
C56 C55 1_555 1_555
H49 C56 1_555 1_555
H50 C56 1_555 1_555
H51 C56 1_555 1_555
C57 C55 1_555 1_555
H52 C57 1_555 1_555
H53 C57 1_555 1_555
H54 C57 1_555 1_555
C58 C55 1_555 1_555
H55 C58 1_555 1_555
C59 C54 1_555 1_555
C60 C58 1_555 1_555
H56 C60 1_555 1_555
H57 C60 1_555 1_555
C61 C54 1_555 1_555
H58 C61 1_555 1_555
H59 C61 1_555 1_555
C62 C58 1_555 1_555
H60 C62 1_555 1_555
H61 C62 1_555 1_555
S1F O1F 1_555 1_555
S2F O5F 1_555 1_555
S3F O9F 1_555 1_555
O1F C3F 1_555 1_555
O2F S1F 1_555 1_555
O3F S1F 1_555 1_555
O4F C41F 1_555 1_555
O5F C13F 1_555 1_555
O6F S2F 1_555 1_555
O7F S2F 1_555 1_555
O8F C49F 1_555 1_555
O9F C24F 1_555 1_555
O10F S3F 1_555 1_555
O11F S3F 1_555 1_555
O12F C59F 1_555 1_555
H1F C1 1_555 1_555
C2F C1 1_555 1_555
C3F C2F 1_555 1_555
C4F C3F 1_555 1_555
H2F C4F 1_555 1_555
C5F C4F 1_555 1_555
C6F C5F 1_555 1_555
C7F C2F 1_555 1_555
H3F C7F 1_555 1_555
C8F C5F 1_555 1_555
H4F C8F 1_555 1_555
C9F C6F 1_555 1_555
H5F C9F 1_555 1_555
C10F C8F 1_555 1_555
C11F C10F 1_555 1_555
H6F C11F 1_555 1_555
C12F C11F 1_555 1_555
C13F C12F 1_555 1_555
C14F C13F 1_555 1_555
H7F C14F 1_555 1_555
C15F C9F 1_555 1_555
C16F C8F 1_555 1_555
C17F C16F 1_555 1_555
H8F C17F 1_555 1_555
C18F C17F 1_555 1_555
H9F C18F 1_555 1_555
C19F C18F 1_555 1_555
H10F C19F 1_555 1_555
C20F C19F 1_555 1_555
H11F C20F 1_555 1_555
C21F C9F 1_555 1_555
C22F C12F 1_555 1_555
H12F C22F 1_555 1_555
H13F C22F 1_555 1_555
C23F C22F 1_555 1_555
C24F C23F 1_555 1_555
C25F C24F 1_555 1_555
H14F C25F 1_555 1_555
C26F C29 1_555 1_555
C27F C26F 1_555 1_555
C28F C23F 1_555 1_555
H15F C28F 1_555 1_555
C29F C26 1_555 1_555
H16F C29F 1_555 1_555
C30F C30 1_555 1_555
C31F C30F 1_555 1_555
H17F C31F 1_555 1_555
C32F C32 1_555 1_555
H18F C32F 1_555 1_555
C33F S1F 1_555 1_555
H19F C33F 1_555 1_555
H20F C33F 1_555 1_555
C34F C33F 1_555 1_555
C35F C34F 1_555 1_555
C36F C35F 1_555 1_555
H21F C36F 1_555 1_555
H22F C36F 1_555 1_555
H23F C36F 1_555 1_555
C37F C35F 1_555 1_555
H24F C37F 1_555 1_555
H25F C37F 1_555 1_555
H26F C37F 1_555 1_555
C38F C35F 1_555 1_555
H27F C38F 1_555 1_555
C39F C34F 1_555 1_555
H28F C39F 1_555 1_555
H29F C39F 1_555 1_555
C40F C38F 1_555 1_555
H30F C40F 1_555 1_555
H31F C40F 1_555 1_555
C41F C34F 1_555 1_555
C42F C38F 1_555 1_555
H32F C42F 1_555 1_555
H33F C42F 1_555 1_555
C43F S2F 1_555 1_555
H34F C43F 1_555 1_555
H35F C43F 1_555 1_555
C44F C43F 1_555 1_555
C45F C44F 1_555 1_555
C46F C45F 1_555 1_555
H36F C46F 1_555 1_555
H37F C46F 1_555 1_555
H38F C46F 1_555 1_555
C47F C45F 1_555 1_555
H39F C47F 1_555 1_555
H40F C47F 1_555 1_555
H41F C47F 1_555 1_555
C48F C45F 1_555 1_555
H42F C48F 1_555 1_555
C49F C44F 1_555 1_555
C50F C48F 1_555 1_555
H43F C50F 1_555 1_555
H44F C50F 1_555 1_555
C51F C44F 1_555 1_555
H45F C51F 1_555 1_555
H46F C51F 1_555 1_555
C52F C48F 1_555 1_555
H47F C52F 1_555 1_555
H48F C52F 1_555 1_555
C53F S3F 1_555 1_555
C54F C53F 1_555 1_555
C55F C54F 1_555 1_555
C56F C55F 1_555 1_555
H49F C56F 1_555 1_555
H50F C56F 1_555 1_555
H51F C56F 1_555 1_555
C57F C55F 1_555 1_555
H52F C57F 1_555 1_555
H53F C57F 1_555 1_555
H54F C57F 1_555 1_555
C58F C55F 1_555 1_555
H55F C58F 1_555 1_555
C59F C54F 1_555 1_555
C60F C58F 1_555 1_555
H56F C60F 1_555 1_555
H57F C60F 1_555 1_555
C61F C54F 1_555 1_555
H58F C61F 1_555 1_555
H59F C61F 1_555 1_555
C62F C58F 1_555 1_555
H60F C62F 1_555 1_555
H61F C62F 1_555 1_555
C6 C7 1_555 1_555
C10 C15 1_555 1_555
C14 C15 1_555 1_555
C16 C21 1_555 1_555
C20 C21 1_555 1_555
C27 C28 1_555 1_555
C39 C40 1_555 1_555
C41 C42 1_555 1_555
C49 C50 1_555 1_555
C51 C52 1_555 1_555
C59 C60 1_555 1_555
C61 C62 1_555 1_555
C6F C7F 1_555 1_555
C10F C15F 1_555 1_555
C14F C15F 1_555 1_555
C16F C21F 1_555 1_555
C20F C21F 1_555 1_555
C25F C26F 1_555 1_555
C27F C28F 1_555 1_555
C27F C29F 1_555 1_555
C29F C30F 1_555 1_555
C31F C32F 1_555 1_555
C39F C40F 1_555 1_555
C41F C42F 1_555 1_555
C49F C50F 1_555 1_555
C51F C52F 1_555 1_555
C59F C60F 1_555 1_555
C61F C62F 1_555 1_555

#END
