
#######################################################################
#
#                 Cambridge Crystallographic Data Centre
#                                CCDC 
#
#######################################################################
#
# If this CIF has been generated from an entry in the Cambridge 
# Structural Database, then it will include bibliographic, chemical, 
# crystal, experimental, refinement or atomic coordinate data resulting 
# from the CCDC's data processing and validation procedures.
#
#######################################################################

data_OMAJES
_chemical_formula_moiety         'C25 H18 Br1 N1 O2'
_chemical_name_systematic        
'Phenyl-(5-phenylpyridin-3-yl)methyl 4-bromobenzoate'
_symmetry_cell_setting           monoclinic
_symmetry_space_group_name_H-M   'P 21/c'
_symmetry_Int_Tables_number      14
_space_group_name_Hall           '-P 2ybc'
loop_
_symmetry_equiv_pos_site_id
_symmetry_equiv_pos_as_xyz
1 x,y,z
2 -x,1/2+y,1/2-z
3 -x,-y,-z
4 x,1/2-y,1/2+z
_cell_length_a                   6.1156(12)
_cell_length_b                   21.353(4)
_cell_length_c                   15.092(3)
_cell_angle_alpha                90
_cell_angle_beta                 95.378(3)
_cell_angle_gamma                90
_cell_volume                     1962.13
_exptl_crystal_colour            colorless
_exptl_crystal_description       needle
_cell_formula_units_Z            4
loop_
_atom_site_label
_atom_site_type_symbol
_atom_site_fract_x
_atom_site_fract_y
_atom_site_fract_z
Br1 Br 0.08612(6) 0.537626(16) 0.85082(2)
O1 O -0.2765(3) 0.83698(9) 0.84354(14)
O2 O -0.6066(4) 0.79242(10) 0.80472(16)
N1 N 0.1674(4) 0.98034(13) 0.88777(19)
C1 C -0.2005(5) 1.11994(14) 0.9071(2)
C2 C -0.3882(5) 1.13280(16) 0.9498(2)
H1 H -0.4666 1.0996 0.9743
C3 C -0.4608(6) 1.19430(17) 0.9567(2)
H2 H -0.5901 1.2023 0.9851
C4 C -0.3492(7) 1.24377(18) 0.9231(3)
H3 H -0.4007 1.2855 0.9277
C5 C -0.1570(7) 1.23085(17) 0.8819(3)
H4 H -0.0761 1.2642 0.8592
C6 C -0.0851(6) 1.16975(16) 0.8743(2)
H5 H 0.0448 1.1617 0.8462
C7 C -0.1310(5) 1.05430(14) 0.89422(19)
C8 C 0.0906(5) 1.03781(15) 0.9009(2)
H6 H 0.1950 1.0699 0.9160
C9 C 0.0185(5) 0.93572(15) 0.8650(2)
H7 H 0.0693 0.8945 0.8553
C10 C -0.2067(5) 0.94674(14) 0.85504(19)
C11 C -0.2803(5) 1.00642(14) 0.87105(19)
H8 H -0.4335 1.0149 0.8663
C12 C -0.3689(5) 0.89780(13) 0.8178(2)
H9 H -0.5127 0.9036 0.8433
C13 C -0.4012(5) 0.90183(14) 0.7169(2)
C14 C -0.2363(5) 0.88141(15) 0.6660(2)
H10 H -0.1055 0.8635 0.6942
C15 C -0.2638(6) 0.88725(16) 0.5740(2)
H11 H -0.1522 0.8728 0.5393
C16 C -0.4522(6) 0.91386(16) 0.5328(2)
H12 H -0.4693 0.9182 0.4699
C17 C -0.6160(6) 0.93413(16) 0.5830(2)
H13 H -0.7461 0.9522 0.5546
C18 C -0.5911(5) 0.92815(15) 0.6749(2)
H14 H -0.7042 0.9421 0.7092
C19 C -0.4124(5) 0.78743(15) 0.8254(2)
C20 C -0.2898(5) 0.72736(14) 0.8346(2)
C21 C -0.0728(5) 0.72463(15) 0.8728(2)
H15 H -0.0011 0.7617 0.8949
C22 C 0.0376(5) 0.66808(15) 0.8783(2)
H16 H 0.1844 0.6659 0.9050
C23 C -0.0681(5) 0.61471(15) 0.8447(2)
C24 C -0.2837(5) 0.61645(15) 0.8059(2)
H17 H -0.3538 0.5794 0.7830
C25 C -0.3939(5) 0.67283(15) 0.8015(2)
H18 H -0.5415 0.6746 0.7757
loop_
_geom_bond_atom_site_label_1
_geom_bond_atom_site_label_2
_geom_bond_site_symmetry_1
_geom_bond_site_symmetry_2
Br1 C23 1_555 1_555
O1 C12 1_555 1_555
O2 C19 1_555 1_555
N1 C8 1_555 1_555
C1 C2 1_555 1_555
C2 H1 1_555 1_555
C3 C2 1_555 1_555
H2 C3 1_555 1_555
C4 C3 1_555 1_555
H3 C4 1_555 1_555
C5 C4 1_555 1_555
H4 C5 1_555 1_555
C6 C1 1_555 1_555
H5 C6 1_555 1_555
C7 C1 1_555 1_555
C8 C7 1_555 1_555
H6 C8 1_555 1_555
C9 N1 1_555 1_555
H7 C9 1_555 1_555
C10 C9 1_555 1_555
C11 C7 1_555 1_555
H8 C11 1_555 1_555
C12 C10 1_555 1_555
H9 C12 1_555 1_555
C13 C12 1_555 1_555
C14 C13 1_555 1_555
H10 C14 1_555 1_555
C15 C14 1_555 1_555
H11 C15 1_555 1_555
C16 C15 1_555 1_555
H12 C16 1_555 1_555
C17 C16 1_555 1_555
H13 C17 1_555 1_555
C18 C13 1_555 1_555
H14 C18 1_555 1_555
C19 O1 1_555 1_555
C20 C19 1_555 1_555
C21 C20 1_555 1_555
H15 C21 1_555 1_555
C22 C21 1_555 1_555
H16 C22 1_555 1_555
C23 C22 1_555 1_555
C24 C23 1_555 1_555
H17 C24 1_555 1_555
C25 C20 1_555 1_555
H18 C25 1_555 1_555
C5 C6 1_555 1_555
C10 C11 1_555 1_555
C17 C18 1_555 1_555
C24 C25 1_555 1_555

#END
