
#######################################################################
#
#                 Cambridge Crystallographic Data Centre
#                                CCDC 
#
#######################################################################
#
# If this CIF has been generated from an entry in the Cambridge 
# Structural Database, then it will include bibliographic, chemical, 
# crystal, experimental, refinement or atomic coordinate data resulting 
# from the CCDC's data processing and validation procedures.
#
#######################################################################

data_OMALAR
_chemical_formula_moiety         'C29 H19 Cl1 N2 O2'
_chemical_name_systematic        
1'-allyl-5-(4-chlorobenzylidene)-2,2'-dioxo-4-phenyl-1',2'-dihydrospiro[cyclopent-3-ene-1,3'-indole]-3-carbonitrile
_symmetry_cell_setting           monoclinic
_symmetry_space_group_name_H-M   'P 21/c'
_symmetry_Int_Tables_number      14
_space_group_name_Hall           '-P 2ybc'
loop_
_symmetry_equiv_pos_site_id
_symmetry_equiv_pos_as_xyz
1 x,y,z
2 -x,1/2+y,1/2-z
3 -x,-y,-z
4 x,1/2-y,1/2+z
_cell_length_a                   13.1291(8)
_cell_length_b                   13.2237(8)
_cell_length_c                   15.8670(9)
_cell_angle_alpha                90
_cell_angle_beta                 100.666(2)
_cell_angle_gamma                90
_cell_volume                     2707.16
_cell_formula_units_Z            4
loop_
_atom_site_label
_atom_site_type_symbol
_atom_site_fract_x
_atom_site_fract_y
_atom_site_fract_z
Cl1 Cl -0.06198(10) 0.91144(15) 0.07648(12)
N1 N 0.5511(2) 0.5662(2) -0.10689(19)
N2 N 0.6898(2) 0.79244(18) 0.27738(16)
O1 O 0.67183(17) 0.58963(18) 0.12078(15)
O2 O 0.66319(18) 0.86272(18) 0.14281(14)
C1 C 0.6428(2) 0.8003(2) 0.19484(19)
C2 C 0.4534(2) 0.7533(2) 0.13255(17)
C3 C 0.4381(2) 0.7183(2) 0.04227(17)
C4 C 0.5176(2) 0.6550(2) 0.03092(17)
C5 C 0.5939(2) 0.6427(2) 0.10937(19)
C6 C 0.3900(2) 0.8058(2) 0.17483(18)
H1 H 0.4215 0.8291 0.2302
C7 C 0.2794(2) 0.8324(2) 0.14822(18)
C8 C 0.2434(3) 0.9293(3) 0.1649(2)
H2 H 0.2909 0.9786 0.1923
C9 C 0.1381(3) 0.9538(3) 0.1412(3)
H3 H 0.1142 1.0198 0.1510
C10 C 0.0699(3) 0.8808(4) 0.1036(3)
C11 C 0.1027(3) 0.7853(4) 0.0887(3)
H4 H 0.0540 0.7357 0.0638
C12 C 0.2077(3) 0.7609(3) 0.1102(2)
H5 H 0.2304 0.6950 0.0987
C13 C 0.3544(2) 0.7533(2) -0.02700(17)
C14 C 0.3301(2) 0.8565(2) -0.03601(18)
H6 H 0.3650 0.9031 0.0050
C15 C 0.2572(3) 0.8913(3) -0.1026(2)
H7 H 0.2434 0.9617 -0.1091
C16 C 0.2036(3) 0.8228(3) -0.1606(2)
H8 H 0.1521 0.8463 -0.2065
C17 C 0.2247(3) 0.7205(3) -0.1520(2)
H9 H 0.1866 0.6743 -0.1917
C18 C 0.3007(2) 0.6842(3) -0.08650(19)
H10 H 0.3161 0.6141 -0.0819
C19 C 0.5336(2) 0.6071(2) -0.0473(2)
C20 C 0.5600(2) 0.7136(2) 0.17986(11)
C21 C 0.56441(17) 0.66763(17) 0.26135(12)
C22 C 0.64553(19) 0.71448(19) 0.31996(12)
C23 C 0.6686(3) 0.6856(2) 0.4063(2)
H11 H 0.7232 0.7170 0.4451
C24 C 0.6084(3) 0.6087(2) 0.4334(2)
H12 H 0.6223 0.5889 0.4920
C25 C 0.5296(3) 0.5608(2) 0.3777(2)
H13 H 0.4906 0.5085 0.3978
C26 C 0.5078(2) 0.5899(2) 0.29193(19)
H14 H 0.4540 0.5569 0.2535
C27 C 0.7731(8) 0.8631(12) 0.3200(17)
H15 H 0.7613 0.8819 0.3779
H16 H 0.7736 0.9255 0.2857
C28 C 0.8764(8) 0.8060(10) 0.3265(8)
H17 H 0.9316 0.8284 0.3699
C29 C 0.8980(10) 0.7284(13) 0.2780(11)
H18 H 0.8460 0.7027 0.2335
H19 H 0.9653 0.6993 0.2883
C30? C 0.7869(11) 0.8488(15) 0.315(2)
H20? H 0.7874 0.8598 0.3768
H21? H 0.7846 0.9161 0.2874
C31? C 0.8884(16) 0.7972(19) 0.3057(13)
H22? H 0.9135 0.7900 0.2536
C32? C 0.9366(9) 0.7634(8) 0.3832(10)
H23? H 0.9060 0.7738 0.4323
H24? H 1.0012 0.7293 0.3887
loop_
_geom_bond_atom_site_label_1
_geom_bond_atom_site_label_2
_geom_bond_site_symmetry_1
_geom_bond_site_symmetry_2
Cl1 C10 1_555 1_555
N1 C19 1_555 1_555
N2 C1 1_555 1_555
O1 C5 1_555 1_555
O2 C1 1_555 1_555
C1 C20 1_555 1_555
C2 C3 1_555 1_555
C3 C4 1_555 1_555
C4 C5 1_555 1_555
C5 C20 1_555 1_555
C6 C2 1_555 1_555
H1 C6 1_555 1_555
C7 C6 1_555 1_555
C8 C7 1_555 1_555
H2 C8 1_555 1_555
C9 C8 1_555 1_555
H3 C9 1_555 1_555
C10 C9 1_555 1_555
C11 C10 1_555 1_555
H4 C11 1_555 1_555
C12 C7 1_555 1_555
H5 C12 1_555 1_555
C13 C3 1_555 1_555
C14 C13 1_555 1_555
H6 C14 1_555 1_555
C15 C14 1_555 1_555
H7 C15 1_555 1_555
C16 C15 1_555 1_555
H8 C16 1_555 1_555
C17 C16 1_555 1_555
H9 C17 1_555 1_555
C18 C13 1_555 1_555
H10 C18 1_555 1_555
C19 C4 1_555 1_555
C20 C2 1_555 1_555
C21 C20 1_555 1_555
C22 N2 1_555 1_555
C23 C22 1_555 1_555
H11 C23 1_555 1_555
C24 C23 1_555 1_555
H12 C24 1_555 1_555
C25 C24 1_555 1_555
H13 C25 1_555 1_555
C26 C21 1_555 1_555
H14 C26 1_555 1_555
C27 N2 1_555 1_555
H15 C27 1_555 1_555
H16 C27 1_555 1_555
C28 C27 1_555 1_555
H17 C28 1_555 1_555
C29 C28 1_555 1_555
H18 C29 1_555 1_555
H19 C29 1_555 1_555
C11 C12 1_555 1_555
C17 C18 1_555 1_555
C21 C22 1_555 1_555
C25 C26 1_555 1_555

#END
