
#######################################################################
#
#                 Cambridge Crystallographic Data Centre
#                                CCDC 
#
#######################################################################
#
# If this CIF has been generated from an entry in the Cambridge 
# Structural Database, then it will include bibliographic, chemical, 
# crystal, experimental, refinement or atomic coordinate data resulting 
# from the CCDC's data processing and validation procedures.
#
#######################################################################

data_OMALEV
_chemical_formula_moiety         'C33 H23 N3 O1'
_chemical_name_systematic        
1'-benzyl-5-benzylidene-2-imino-2'-oxo-4-phenyl-1',2'-dihydrospiro[cyclopent-3-ene-1,3'-indole]-3-carbonitrile
_symmetry_cell_setting           tetragonal
_symmetry_space_group_name_H-M   'I -4'
_symmetry_Int_Tables_number      82
_space_group_name_Hall           'I -4'
loop_
_symmetry_equiv_pos_site_id
_symmetry_equiv_pos_as_xyz
1 x,y,z
2 -x,-y,z
3 y,-x,-z
4 -y,x,-z
5 1/2+x,1/2+y,1/2+z
6 1/2-x,1/2-y,1/2+z
7 1/2+y,1/2-x,1/2-z
8 1/2-y,1/2+x,1/2-z
_cell_length_a                   23.4235(16)
_cell_length_b                   23.4235(16)
_cell_length_c                   9.1461(8)
_cell_angle_alpha                90
_cell_angle_beta                 90
_cell_angle_gamma                90
_cell_volume                     5018.1
_exptl_crystal_colour            colorless
_exptl_crystal_description       plate
_cell_formula_units_Z            8
loop_
_atom_site_label
_atom_site_type_symbol
_atom_site_fract_x
_atom_site_fract_y
_atom_site_fract_z
N1 N 0.19817(5) 0.20531(5) 0.22465(14)
N2 N 0.20334(7) 0.35633(7) 0.19808(19)
N3 N 0.15242(7) 0.46932(7) 0.4419(2)
O1 O 0.17488(5) 0.23540(5) 0.45702(14)
C1 C 0.17855(6) 0.21588(7) 0.08111(17)
C2 C 0.19705(7) 0.19243(7) -0.04903(18)
H1 H 0.2258 0.1651 -0.0510
C3 C 0.17124(8) 0.21117(8) -0.1763(2)
H2 H 0.1829 0.1960 -0.2654
C4 C 0.12884(8) 0.25165(8) -0.1744(2)
H3 H 0.1123 0.2634 -0.2618
C5 C 0.11041(7) 0.27517(7) -0.0437(2)
H4 H 0.0818 0.3027 -0.0423
C6 C 0.13543(6) 0.25676(6) 0.08421(17)
C7 C 0.12954(6) 0.27822(6) 0.23818(17)
C8 C 0.16932(6) 0.23753(7) 0.32479(19)
C9 C 0.23826(7) 0.16008(8) 0.2663(2)
H5 H 0.2565 0.1704 0.3579
H6 H 0.2678 0.1572 0.1924
C10 C 0.20965(7) 0.10276(7) 0.2835(2)
C11 C 0.21304(9) 0.06178(8) 0.1744(2)
H7 H 0.2334 0.0697 0.0895
C12 C 0.18671(11) 0.00939(9) 0.1900(3)
H8 H 0.1895 -0.0177 0.1160
C13 C 0.15664(11) -0.00267(9) 0.3138(3)
H9 H 0.1393 -0.0381 0.3247
C14 C 0.15197(10) 0.03765(9) 0.4228(3)
H10 H 0.1308 0.0298 0.5064
C15 C 0.17886(9) 0.08978(8) 0.4078(2)
H11 H 0.1762 0.1166 0.4826
C16 C 0.15754(7) 0.33806(7) 0.25359(18)
C17 C 0.12006(7) 0.37117(7) 0.34857(18)
C18 C 0.07096(7) 0.34252(6) 0.37928(18)
C19 C 0.07111(6) 0.28661(6) 0.30780(17)
C20 C 0.13687(7) 0.42596(8) 0.4007(2)
C21 C 0.02391(7) 0.36399(6) 0.47080(19)
C22 C 0.00382(8) 0.33263(7) 0.5883(2)
H12 H 0.0190 0.2967 0.6072
C23 C -0.03855(9) 0.35413(9) 0.6779(2)
H13 H -0.0510 0.3331 0.7580
C24 C -0.06195(10) 0.40604(9) 0.6490(3)
H14 H -0.0906 0.4204 0.7089
C25 C -0.04338(10) 0.43700(9) 0.5321(3)
H15 H -0.0599 0.4722 0.5115
C26 C -0.00022(9) 0.41636(8) 0.4443(3)
H16 H 0.0127 0.4382 0.3660
C27 C 0.02363(6) 0.25426(6) 0.30115(18)
H17 H -0.0084 0.2712 0.3426
C28 C 0.01328(6) 0.19745(6) 0.24084(17)
C29 C -0.04263(7) 0.18302(7) 0.20460(19)
H18 H -0.0713 0.2103 0.2136
C30 C -0.05618(8) 0.12907(7) 0.1557(2)
H19 H -0.0936 0.1203 0.1301
C31 C -0.01420(8) 0.08798(7) 0.1447(2)
H20 H -0.0234 0.0514 0.1133
C32 C 0.04103(8) 0.10112(7) 0.1801(2)
H21 H 0.0694 0.0735 0.1721
C33 C 0.05475(7) 0.15546(7) 0.2277(2)
H22 H 0.0924 0.1640 0.2512
H23 H 0.2194(8) 0.3290(8) 0.147(2)
loop_
_geom_bond_atom_site_label_1
_geom_bond_atom_site_label_2
_geom_bond_site_symmetry_1
_geom_bond_site_symmetry_2
N1 C1 1_555 1_555
N2 C16 1_555 1_555
N3 C20 1_555 1_555
O1 C8 1_555 1_555
C1 C2 1_555 1_555
C2 H1 1_555 1_555
C3 C2 1_555 1_555
H2 C3 1_555 1_555
C4 C3 1_555 1_555
H3 C4 1_555 1_555
C5 C4 1_555 1_555
H4 C5 1_555 1_555
C6 C1 1_555 1_555
C7 C6 1_555 1_555
C8 N1 1_555 1_555
C9 N1 1_555 1_555
H5 C9 1_555 1_555
H6 C9 1_555 1_555
C10 C9 1_555 1_555
C11 C10 1_555 1_555
H7 C11 1_555 1_555
C12 C11 1_555 1_555
H8 C12 1_555 1_555
C13 C12 1_555 1_555
H9 C13 1_555 1_555
C14 C13 1_555 1_555
H10 C14 1_555 1_555
C15 C10 1_555 1_555
H11 C15 1_555 1_555
C16 C7 1_555 1_555
C17 C16 1_555 1_555
C18 C17 1_555 1_555
C19 C7 1_555 1_555
C20 C17 1_555 1_555
C21 C18 1_555 1_555
C22 C21 1_555 1_555
H12 C22 1_555 1_555
C23 C22 1_555 1_555
H13 C23 1_555 1_555
C24 C23 1_555 1_555
H14 C24 1_555 1_555
C25 C24 1_555 1_555
H15 C25 1_555 1_555
C26 C21 1_555 1_555
H16 C26 1_555 1_555
C27 C19 1_555 1_555
H17 C27 1_555 1_555
C28 C27 1_555 1_555
C29 C28 1_555 1_555
H18 C29 1_555 1_555
C30 C29 1_555 1_555
H19 C30 1_555 1_555
C31 C30 1_555 1_555
H20 C31 1_555 1_555
C32 C31 1_555 1_555
H21 C32 1_555 1_555
C33 C28 1_555 1_555
H22 C33 1_555 1_555
H23 N2 1_555 1_555
C5 C6 1_555 1_555
C7 C8 1_555 1_555
C14 C15 1_555 1_555
C18 C19 1_555 1_555
C25 C26 1_555 1_555
C32 C33 1_555 1_555

#END
