
#######################################################################
#
#                 Cambridge Crystallographic Data Centre
#                                CCDC 
#
#######################################################################
#
# If this CIF has been generated from an entry in the Cambridge 
# Structural Database, then it will include bibliographic, chemical, 
# crystal, experimental, refinement or atomic coordinate data resulting 
# from the CCDC's data processing and validation procedures.
#
#######################################################################

data_OMAZUX
_chemical_formula_moiety         'C22 H36 O5'
_chemical_name_systematic        (15S,16S,21R)-4-Deoxyrollicosin
_symmetry_cell_setting           triclinic
_symmetry_space_group_name_H-M   'P 1'
_symmetry_Int_Tables_number      1
_space_group_name_Hall           'P 1'
loop_
_symmetry_equiv_pos_site_id
_symmetry_equiv_pos_as_xyz
1 x,y,z
_cell_length_a                   5.5185(7)
_cell_length_b                   5.6494(7)
_cell_length_c                   18.661(2)
_cell_angle_alpha                83.123(2)
_cell_angle_beta                 87.330(2)
_cell_angle_gamma                73.291(2)
_cell_volume                     553.161
_chemical_melting_point          '103-104 deg.C'
_cell_formula_units_Z            1
loop_
_atom_site_label
_atom_site_type_symbol
_atom_site_fract_x
_atom_site_fract_y
_atom_site_fract_z
C1 C -0.5533(6) 1.1845(6) -0.1263(2)
C2 C -0.7106(8) 1.0491(7) -0.1572(2)
C3 C -0.8089(6) 0.9170(7) -0.0946(2)
C4 C -0.6406(6) 0.9173(6) -0.0322(2)
C5 C -0.4274(5) 0.6831(6) -0.0140(2)
C6 C -0.2696(5) 0.7022(6) 0.0483(2)
C7 C -0.0568(6) 0.4699(6) 0.0700(2)
C8 C 0.0879(5) 0.4891(6) 0.1347(2)
C9 C 0.3081(6) 0.2606(6) 0.1553(2)
C10 C 0.4512(6) 0.2808(6) 0.2207(2)
C11 C 0.6717(6) 0.0554(7) 0.2417(2)
C12 C 0.8129(6) 0.0778(6) 0.3065(2)
C13 C 1.0343(6) -0.1466(6) 0.3287(2)
C14 C 1.1719(6) -0.1190(6) 0.3936(2)
C15 C 1.3954(6) -0.3379(7) 0.4174(2)
C16 C 1.5298(6) -0.2945(6) 0.4809(2)
C17 C 1.7533(6) -0.5078(6) 0.5075(2)
C18 C 1.8874(6) -0.4545(6) 0.5682(2)
C19 C 1.8333(7) -0.2608(7) 0.6048(2)
C20 C 2.0260(7) -0.2964(7) 0.6619(2)
C21 C 2.1181(7) -0.6306(7) 0.5979(2)
C22 C 1.9239(10) -0.2877(9) 0.7370(2)
O1 O -0.4567(5) 1.3349(5) -0.1560(2)
O2 O -0.5317(4) 1.1225(4) -0.0553(1)
O3 O -0.2660(4) 0.6268(4) -0.0750(1)
O4 O 2.2363(6) -0.8260(6) 0.5791(2)
O5 O 2.1939(5) -0.5389(5) 0.6538(2)
H1 H -0.8486 1.1644 -0.1848
H2 H -0.6094 0.9321 -0.1885
H3 H -0.7973 0.7483 -0.1034
H4 H -0.9840 1.0028 -0.0845
H5 H -0.7461 0.9553 0.0110
H6 H -0.5010 0.5453 -0.0003
H7 H -0.1976 0.8394 0.0351
H8 H -0.3801 0.7415 0.0898
H9 H -0.1270 0.3305 0.0807
H10 H 0.0598 0.4358 0.0295
H11 H -0.0278 0.5171 0.1756
H12 H 0.1522 0.6326 0.1247
H13 H 0.2442 0.1168 0.1651
H14 H 0.4247 0.2332 0.1146
H15 H 0.5139 0.4254 0.2109
H16 H 0.3343 0.3078 0.2613
H17 H 0.6092 -0.0893 0.2517
H18 H 0.7887 0.0280 0.2011
H19 H 0.6951 0.1062 0.3470
H20 H 0.8751 0.2225 0.2964
H21 H 0.9728 -0.2917 0.3392
H22 H 1.1529 -0.1753 0.2885
H23 H 1.0524 -0.0903 0.4336
H24 H 1.2310 0.0276 0.3830
H25 H 1.3370 -0.4840 0.4302
H26 H 1.5142 -0.3708 0.3773
H27 H 1.4090 -0.2588 0.5204
H28 H 1.5876 -0.1482 0.4677
H29 H 1.6952 -0.6525 0.5230
H30 H 1.8720 -0.5482 0.4678
H31 H 1.6949 -0.1213 0.5964
H32 H 2.1186 -0.1718 0.6513
H33 H 1.8231 -0.4013 0.7464
H34 H 1.8213 -0.1221 0.7429
H35 H 2.0615 -0.3340 0.7703
H36 H -0.3233 0.5470 -0.1003
loop_
_geom_bond_atom_site_label_1
_geom_bond_atom_site_label_2
_geom_bond_site_symmetry_1
_geom_bond_site_symmetry_2
C1 C2 1_555 1_555
C2 C3 1_555 1_555
C3 C4 1_555 1_555
C4 C5 1_555 1_555
C5 C6 1_555 1_555
C6 C7 1_555 1_555
C7 C8 1_555 1_555
C8 C9 1_555 1_555
C9 C10 1_555 1_555
C10 C11 1_555 1_555
C11 C12 1_555 1_555
C12 C13 1_555 1_555
C13 C14 1_555 1_555
C14 C15 1_555 1_555
C15 C16 1_555 1_555
C16 C17 1_555 1_555
C17 C18 1_555 1_555
C18 C19 1_555 1_555
C19 C20 1_555 1_555
C20 C22 1_555 1_555
C21 C18 1_555 1_555
C22 H33 1_555 1_555
O1 C1 1_555 1_555
O2 C1 1_555 1_555
O3 C5 1_555 1_555
O4 C21 1_555 1_555
O5 C20 1_555 1_555
H1 C2 1_555 1_555
H2 C2 1_555 1_555
H3 C3 1_555 1_555
H4 C3 1_555 1_555
H5 C4 1_555 1_555
H6 C5 1_555 1_555
H7 C6 1_555 1_555
H8 C6 1_555 1_555
H9 C7 1_555 1_555
H10 C7 1_555 1_555
H11 C8 1_555 1_555
H12 C8 1_555 1_555
H13 C9 1_555 1_555
H14 C9 1_555 1_555
H15 C10 1_555 1_555
H16 C10 1_555 1_555
H17 C11 1_555 1_555
H18 C11 1_555 1_555
H19 C12 1_555 1_555
H20 C12 1_555 1_555
H21 C13 1_555 1_555
H22 C13 1_555 1_555
H23 C14 1_555 1_555
H24 C14 1_555 1_555
H25 C15 1_555 1_555
H26 C15 1_555 1_555
H27 C16 1_555 1_555
H28 C16 1_555 1_555
H29 C17 1_555 1_555
H30 C17 1_555 1_555
H31 C19 1_555 1_555
H32 C20 1_555 1_555
H34 C22 1_555 1_555
H35 C22 1_555 1_555
H36 O3 1_555 1_555
C4 O2 1_555 1_555
C21 O5 1_555 1_555

#END
