
#######################################################################
#
#                 Cambridge Crystallographic Data Centre
#                                CCDC 
#
#######################################################################
#
# If this CIF has been generated from an entry in the Cambridge 
# Structural Database, then it will include bibliographic, chemical, 
# crystal, experimental, refinement or atomic coordinate data resulting 
# from the CCDC's data processing and validation procedures.
#
#######################################################################

data_OMELOI
_chemical_name_common            'Mefloquinium 2-nitrobenzoate'
_chemical_formula_moiety         'C17 H17 F6 N2 O1 1+,C7 H4 N1 O4 1-'
_chemical_name_systematic        
'2-((2,8-bis(trifluoromethyl)quinolin-4-yl)(hydroxy)methyl)piperidinium 2-nitrobenzoate'
_chemical_properties_biological  
'Mefloquine hydrochloride is an antimalarial agent'
_symmetry_cell_setting           monoclinic
_symmetry_space_group_name_H-M   'P 21/n'
_symmetry_Int_Tables_number      14
_space_group_name_Hall           '-P 2yn'
loop_
_symmetry_equiv_pos_site_id
_symmetry_equiv_pos_as_xyz
1 x,y,z
2 1/2-x,1/2+y,1/2-z
3 -x,-y,-z
4 1/2+x,1/2-y,1/2+z
_cell_length_a                   13.2144(6)
_cell_length_b                   8.1028(2)
_cell_length_c                   22.9724(9)
_cell_angle_alpha                90
_cell_angle_beta                 105.919(1)
_cell_angle_gamma                90
_cell_volume                     2365.41
_exptl_crystal_colour            colorless
_exptl_crystal_description       block
_cell_formula_units_Z            4
loop_
_atom_site_label
_atom_site_type_symbol
_atom_site_fract_x
_atom_site_fract_y
_atom_site_fract_z
F1 F 0.88131(14) 0.8256(2) -0.02731(10)
F2 F 1.04335(13) 0.78835(19) 0.00851(8)
F3 F 0.9584(2) 0.90739(19) 0.06172(10)
F4 F 1.22630(13) 0.4189(2) 0.12967(8)
F5 F 1.25609(14) 0.3488(2) 0.22289(8)
F6 F 1.18865(14) 0.5851(2) 0.19381(8)
O1 O 0.62320(14) 0.44517(19) 0.00541(8)
H1 H 0.613(2) 0.518(3) 0.0291(10)
N1 N 1.01256(16) 0.5601(2) 0.08995(9)
N2 N 0.60860(16) 0.0904(2) -0.01611(9)
H2 H 0.5487(13) 0.152(3) -0.0277(11)
H3 H 0.608(2) 0.047(3) 0.0206(7)
C1 C 0.93164(19) 0.6231(3) 0.04900(10)
C2 C 0.83010(19) 0.5560(3) 0.03074(11)
H4 H 0.7763 0.6080 0.0002
C3 C 0.80999(19) 0.4129(3) 0.05804(10)
C4 C 0.89304(19) 0.3419(3) 0.10443(10)
C5 C 0.8797(2) 0.2000(3) 0.13835(11)
H5 H 0.8131 0.1472 0.1301
C6 C 0.9627(2) 0.1403(3) 0.18265(11)
H6 H 0.9527 0.0464 0.2052
C7 C 1.0624(2) 0.2141(3) 0.19579(11)
H7 H 1.1188 0.1694 0.2267
C8 C 1.0788(2) 0.3501(3) 0.16434(11)
C9 C 0.99411(19) 0.4196(3) 0.11836(10)
C10 C 0.70179(19) 0.3339(3) 0.03667(10)
H8 H 0.6816 0.2868 0.0721
C11 C 0.70581(18) 0.1947(3) -0.00850(10)
H9 H 0.7689 0.1246 0.0095
C12 C 0.7120(2) 0.2556(3) -0.07001(10)
H10 H 0.7778 0.3190 -0.0650
H11 H 0.6521 0.3308 -0.0872
C13 C 0.7092(2) 0.1126(3) -0.11410(11)
H12 H 0.7085 0.1570 -0.1544
H13 H 0.7731 0.0441 -0.0994
C14 C 0.6113(2) 0.0063(3) -0.11967(11)
H14 H 0.5476 0.0716 -0.1390
H15 H 0.6133 -0.0900 -0.1458
C15 C 0.6050(2) -0.0535(3) -0.05809(11)
H16 H 0.5388 -0.1157 -0.0627
H17 H 0.6646 -0.1288 -0.0406
C16 C 1.1861(2) 0.4270(3) 0.17749(13)
C17 C 0.9541(2) 0.7860(3) 0.02318(11)
O2 O 0.57639(13) 0.72668(18) 0.06403(7)
O3 O 0.66584(14) 0.95776(19) 0.09818(8)
O4 O 0.55601(18) 0.3843(2) 0.14463(11)
O5 O 0.51958(16) 0.6261(2) 0.17448(9)
N3 N 0.58067(18) 0.5238(3) 0.16349(10)
C18 C 0.72360(19) 0.7074(3) 0.14990(10)
C19 C 0.6926(2) 0.5708(3) 0.17708(11)
C20 C 0.7619(2) 0.4754(3) 0.22016(12)
H18 H 0.7379 0.3815 0.2373
C21 C 0.8671(2) 0.5202(4) 0.23771(12)
H19 H 0.9157 0.4583 0.2680
C22 C 0.9015(2) 0.6544(3) 0.21143(11)
H20 H 0.9738 0.6838 0.2233
C23 C 0.8306(2) 0.7464(3) 0.16772(11)
H21 H 0.8553 0.8377 0.1496
C24 C 0.64859(19) 0.8060(3) 0.10007(10)
loop_
_geom_bond_atom_site_label_1
_geom_bond_atom_site_label_2
_geom_bond_site_symmetry_1
_geom_bond_site_symmetry_2
F1 C17 1_555 1_555
F2 C17 1_555 1_555
F3 C17 1_555 1_555
F4 C16 1_555 1_555
F5 C16 1_555 1_555
F6 C16 1_555 1_555
O1 H1 1_555 1_555
N1 C1 1_555 1_555
N2 H2 1_555 1_555
H3 N2 1_555 1_555
C1 C2 1_555 1_555
C2 H4 1_555 1_555
C3 C2 1_555 1_555
C4 C3 1_555 1_555
C5 C4 1_555 1_555
H5 C5 1_555 1_555
C6 C5 1_555 1_555
H6 C6 1_555 1_555
C7 C6 1_555 1_555
H7 C7 1_555 1_555
C8 C7 1_555 1_555
C9 N1 1_555 1_555
C10 O1 1_555 1_555
H8 C10 1_555 1_555
C11 N2 1_555 1_555
H9 C11 1_555 1_555
C12 C11 1_555 1_555
H10 C12 1_555 1_555
H11 C12 1_555 1_555
C13 C12 1_555 1_555
H12 C13 1_555 1_555
H13 C13 1_555 1_555
C14 C13 1_555 1_555
H14 C14 1_555 1_555
H15 C14 1_555 1_555
C15 N2 1_555 1_555
H16 C15 1_555 1_555
H17 C15 1_555 1_555
C16 C8 1_555 1_555
C17 C1 1_555 1_555
O2 C24 1_555 1_555
O3 C24 1_555 1_555
O4 N3 1_555 1_555
O5 N3 1_555 1_555
N3 C19 1_555 1_555
C18 C19 1_555 1_555
C19 C20 1_555 1_555
C20 H18 1_555 1_555
C21 C20 1_555 1_555
H19 C21 1_555 1_555
C22 C21 1_555 1_555
H20 C22 1_555 1_555
C23 C18 1_555 1_555
H21 C23 1_555 1_555
C24 C18 1_555 1_555
C3 C10 1_555 1_555
C4 C9 1_555 1_555
C8 C9 1_555 1_555
C10 C11 1_555 1_555
C14 C15 1_555 1_555
C22 C23 1_555 1_555

#END
