
#######################################################################
#
#                 Cambridge Crystallographic Data Centre
#                                CCDC 
#
#######################################################################
#
# If this CIF has been generated from an entry in the Cambridge 
# Structural Database, then it will include bibliographic, chemical, 
# crystal, experimental, refinement or atomic coordinate data resulting 
# from the CCDC's data processing and validation procedures.
#
#######################################################################

data_OMEPIH
_chemical_formula_moiety         'C21 H18 O2'
_chemical_name_systematic        9-(2,4-Dimethoxyphenyl)-9H-fluorene
_symmetry_cell_setting           monoclinic
_symmetry_space_group_name_H-M   'P 21/n'
_symmetry_Int_Tables_number      14
_space_group_name_Hall           '-P 2yn'
loop_
_symmetry_equiv_pos_site_id
_symmetry_equiv_pos_as_xyz
1 x,y,z
2 1/2-x,1/2+y,1/2-z
3 -x,-y,-z
4 1/2+x,1/2-y,1/2+z
_cell_length_a                   14.967(3)
_cell_length_b                   6.4874(12)
_cell_length_c                   16.903(3)
_cell_angle_alpha                90
_cell_angle_beta                 104.548(4)
_cell_angle_gamma                90
_cell_volume                     1588.61
_exptl_crystal_colour            colorless
_exptl_crystal_description       prismatic
_cell_formula_units_Z            4
loop_
_atom_site_label
_atom_site_type_symbol
_atom_site_fract_x
_atom_site_fract_y
_atom_site_fract_z
O1 O 0.15894(7) 0.31800(17) 0.11079(6)
O2 O 0.45976(7) 0.04571(15) 0.13956(6)
C1 C 0.62938(9) 0.6525(2) 0.30649(8)
C2 C 0.66609(10) 0.7889(3) 0.36939(9)
H1 H 0.6974 0.9063 0.3598
C3 C 0.65526(10) 0.7471(3) 0.44624(10)
H2 H 0.6795 0.8374 0.4890
C4 C 0.60888(11) 0.5730(3) 0.46072(9)
H3 H 0.6028 0.5464 0.5132
C5 C 0.57132(11) 0.4377(3) 0.39784(9)
H4 H 0.5398 0.3209 0.4078
C6 C 0.58114(9) 0.4781(2) 0.32019(8)
C7 C 0.54745(9) 0.3563(2) 0.24184(8)
H5 H 0.5733 0.2167 0.2491
C8 C 0.58971(8) 0.4759(2) 0.18284(8)
C9 C 0.63494(9) 0.6517(2) 0.22097(8)
C10 C 0.67797(10) 0.7855(3) 0.17875(10)
H6 H 0.7081 0.9023 0.2042
C11 C 0.67556(10) 0.7430(3) 0.09796(9)
H7 H 0.7047 0.8313 0.0690
C12 C 0.63029(10) 0.5705(3) 0.06012(9)
H8 H 0.6288 0.5444 0.0057
C13 C 0.58699(10) 0.4357(2) 0.10197(8)
H9 H 0.5565 0.3198 0.0761
C14 C 0.44268(9) 0.3450(2) 0.21138(8)
C15 C 0.38564(10) 0.4901(2) 0.23159(9)
H10 H 0.4118 0.5934 0.2683
C16 C 0.29041(10) 0.4900(2) 0.19978(9)
H11 H 0.2539 0.5916 0.2146
C17 C 0.25159(9) 0.3375(2) 0.14619(8)
C18 C 0.30663(9) 0.1855(2) 0.12487(8)
H12 H 0.2799 0.0814 0.0889
C19 C 0.40097(9) 0.18912(19) 0.15712(8)
C20 C 0.09899(11) 0.4650(3) 0.13150(12)
H13 H 0.1035 0.4583 0.1891
H14 H 0.0367 0.4362 0.1018
H15 H 0.1160 0.6004 0.1177
C21 C 0.42285(12) -0.1147(2) 0.08471(10)
H16 H 0.3788 -0.1914 0.1055
H17 H 0.4717 -0.2046 0.0789
H18 H 0.3929 -0.0571 0.0325
loop_
_geom_bond_atom_site_label_1
_geom_bond_atom_site_label_2
_geom_bond_site_symmetry_1
_geom_bond_site_symmetry_2
O1 C17 1_555 1_555
O2 C19 1_555 1_555
C1 C2 1_555 1_555
C2 H1 1_555 1_555
C3 C2 1_555 1_555
H2 C3 1_555 1_555
C4 C3 1_555 1_555
H3 C4 1_555 1_555
C5 C4 1_555 1_555
H4 C5 1_555 1_555
C6 C1 1_555 1_555
C7 C6 1_555 1_555
H5 C7 1_555 1_555
C8 C7 1_555 1_555
C9 C1 1_555 1_555
C10 C9 1_555 1_555
H6 C10 1_555 1_555
C11 C10 1_555 1_555
H7 C11 1_555 1_555
C12 C11 1_555 1_555
H8 C12 1_555 1_555
C13 C8 1_555 1_555
H9 C13 1_555 1_555
C14 C7 1_555 1_555
C15 C14 1_555 1_555
H10 C15 1_555 1_555
C16 C15 1_555 1_555
H11 C16 1_555 1_555
C17 C16 1_555 1_555
C18 C17 1_555 1_555
H12 C18 1_555 1_555
C19 C14 1_555 1_555
C20 O1 1_555 1_555
H13 C20 1_555 1_555
H14 C20 1_555 1_555
H15 C20 1_555 1_555
C21 O2 1_555 1_555
H16 C21 1_555 1_555
H17 C21 1_555 1_555
H18 C21 1_555 1_555
C5 C6 1_555 1_555
C8 C9 1_555 1_555
C12 C13 1_555 1_555
C18 C19 1_555 1_555

#END
