
#######################################################################
#
#                 Cambridge Crystallographic Data Centre
#                                CCDC 
#
#######################################################################
#
# If this CIF has been generated from an entry in the Cambridge 
# Structural Database, then it will include bibliographic, chemical, 
# crystal, experimental, refinement or atomic coordinate data resulting 
# from the CCDC's data processing and validation procedures.
#
#######################################################################

data_OMEQII
_chemical_formula_moiety         'C36 H59 N3 O11'
_chemical_name_systematic        
'2-((12-(allyloxy)-5-ethyl-4,8,10,12,14,17-hexamethyl-2,7,9-trioxo-3,6-dioxa-1,16-diazatricyclo[14.2.1.0^4,18^]nonadecan-11-yl)oxy)-4-(dimethylamino)-6-methyltetrahydro-2H-pyran-3-yl methyl carbonate'
_symmetry_cell_setting           orthorhombic
_symmetry_space_group_name_H-M   'P 21 21 21'
_symmetry_Int_Tables_number      19
_space_group_name_Hall           'P 2ac 2ab'
loop_
_symmetry_equiv_pos_site_id
_symmetry_equiv_pos_as_xyz
1 x,y,z
2 1/2-x,-y,1/2+z
3 1/2+x,1/2-y,-z
4 -x,1/2+y,1/2-z
_cell_length_a                   14.3867(2)
_cell_length_b                   15.8217(3)
_cell_length_c                   17.0525(3)
_cell_angle_alpha                90
_cell_angle_beta                 90
_cell_angle_gamma                90
_cell_volume                     3881.53
_exptl_crystal_colour            colorless
_exptl_crystal_description       plate
_cell_formula_units_Z            4
loop_
_atom_site_label
_atom_site_type_symbol
_atom_site_fract_x
_atom_site_fract_y
_atom_site_fract_z
C1 C 0.22151(12) 0.25682(10) 0.51943(10)
C2 C 0.10187(12) 0.36563(11) 0.49695(10)
H1 H 0.0794 0.4133 0.5295
H2 H 0.0576 0.3180 0.5015
C3 C 0.04523(12) 0.44627(11) 0.37991(10)
H3 H -0.0122 0.4130 0.3716
H4 H 0.0688 0.4624 0.3275
C4 C 0.01826(11) 0.52800(10) 0.42334(10)
H5 H -0.0071 0.5122 0.4759
C5 C 0.10394(11) 0.58442(10) 0.43582(9)
H6 H 0.1597 0.5478 0.4359
H7 H 0.1093 0.6228 0.3902
C6 C 0.10599(11) 0.63833(9) 0.51048(9)
C7 C 0.19789(11) 0.68921(9) 0.51566(9)
H8 H 0.1961 0.7239 0.5647
C8 C 0.28534(11) 0.63266(10) 0.51870(9)
H9 H 0.2635 0.5745 0.5324
C9 C 0.35298(11) 0.65900(10) 0.58291(9)
C10 C 0.43491(12) 0.59753(10) 0.59878(10)
H10 H 0.4748 0.5942 0.5509
C11 C 0.39498(11) 0.51035(10) 0.61618(10)
C12 C 0.38794(13) 0.36550(10) 0.57221(10)
H11 H 0.3358 0.3646 0.6110
C13 C 0.35038(12) 0.33834(10) 0.49110(10)
C14 C 0.26106(12) 0.38840(10) 0.47334(10)
H12 H 0.2669 0.4467 0.4955
C15 C 0.21242(11) 0.39331(10) 0.39218(10)
H13 H 0.2267 0.4491 0.3673
C16 C -0.05918(12) 0.56969(12) 0.37629(11)
H14 H -0.0361 0.5841 0.3239
H15 H -0.0796 0.6212 0.4031
H16 H -0.1117 0.5306 0.3716
C17 C 0.02377(11) 0.69872(10) 0.51634(10)
H17 H 0.0193 0.7321 0.4681
H18 H 0.0327 0.7366 0.5612
H19 H -0.0336 0.6663 0.5236
C18 C 0.09160(14) 0.60787(12) 0.65102(10)
H20 H 0.0269 0.6281 0.6572
H21 H 0.1343 0.6556 0.6616
C19 C 0.11004(15) 0.53826(13) 0.70625(11)
H22 H 0.1695 0.5122 0.7041
C20 C 0.05157(17) 0.50997(15) 0.75727(12)
H23 H -0.0086 0.5344 0.7612
H24 H 0.0687 0.4647 0.7909
C21 C 0.23138(11) 0.82710(10) 0.46804(9)
H25 H 0.2875 0.8237 0.5025
C22 C 0.25560(10) 0.87164(10) 0.39164(9)
H26 H 0.2015 0.8699 0.3548
C23 C 0.28406(11) 0.96288(10) 0.40749(10)
H27 H 0.3412 0.9605 0.4408
C24 C 0.20858(12) 1.00545(10) 0.45716(10)
H28 H 0.2295 1.0627 0.4725
H29 H 0.1511 1.0114 0.4257
C25 C 0.18799(12) 0.95395(10) 0.53016(10)
H30 H 0.2459 0.9495 0.5623
C26 C 0.11134(13) 0.98995(11) 0.58034(11)
H31 H 0.1294 1.0462 0.5990
H32 H 0.1005 0.9527 0.6253
H33 H 0.0542 0.9944 0.5493
C27 C 0.23358(14) 1.02433(13) 0.28172(12)
H34 H 0.1988 0.9723 0.2713
H35 H 0.2578 1.0469 0.2323
H36 H 0.1923 1.0661 0.3060
C28 C 0.36482(14) 1.08217(12) 0.35030(13)
H37 H 0.3268 1.1225 0.3799
H38 H 0.3841 1.1078 0.3006
H39 H 0.4200 1.0673 0.3810
C29 C 0.32114(12) 0.79048(11) 0.28893(10)
C30 C 0.39878(17) 0.70864(15) 0.19629(12)
H40 H 0.3468 0.6686 0.1946
H41 H 0.4573 0.6781 0.1887
H42 H 0.3913 0.7506 0.1545
C31 C 0.33793(11) 0.62510(11) 0.44004(10)
H43 H 0.2933 0.6152 0.3976
H44 H 0.3818 0.5778 0.4428
H45 H 0.3721 0.6776 0.4299
C32 C 0.49374(12) 0.62732(12) 0.66765(11)
H46 H 0.5222 0.6819 0.6548
H47 H 0.5426 0.5857 0.6783
H48 H 0.4543 0.6336 0.7141
C33 C 0.46718(14) 0.31149(11) 0.60296(11)
H49 H 0.4506 0.2511 0.5970
H50 H 0.5235 0.3223 0.5711
C34 C 0.48881(16) 0.32933(14) 0.68830(13)
H51 H 0.4330 0.3198 0.7200
H52 H 0.5089 0.3882 0.6940
H53 H 0.5385 0.2916 0.7061
C35 C 0.42439(12) 0.33696(12) 0.42778(10)
H54 H 0.4331 0.3942 0.4070
H55 H 0.4048 0.2992 0.3853
H56 H 0.4831 0.3166 0.4501
C36 C 0.23057(13) 0.32292(12) 0.33327(11)
H57 H 0.2934 0.3290 0.3117
H58 H 0.1850 0.3264 0.2907
H59 H 0.2250 0.2680 0.3595
N1 N 0.11300(10) 0.39128(10) 0.41553(8)
N2 N 0.31053(10) 1.00609(9) 0.33448(9)
N3 N 0.19454(10) 0.34018(8) 0.52030(8)
O1 O 0.31390(8) 0.25241(7) 0.50296(7)
O2 O 0.17471(9) 0.19532(7) 0.53190(8)
O3 O 0.10566(8) 0.57678(7) 0.57290(6)
O4 O 0.19984(7) 0.74598(6) 0.44983(6)
O5 O 0.33396(7) 0.82730(7) 0.35837(6)
O6 O 0.25204(10) 0.79147(10) 0.24995(8)
O7 O 0.40007(9) 0.75072(8) 0.27134(7)
O8 O 0.15905(8) 0.87033(7) 0.50717(7)
O9 O 0.34605(8) 0.72362(7) 0.61961(7)
O10 O 0.42070(8) 0.45279(7) 0.56288(7)
O11 O 0.34600(9) 0.49550(8) 0.67103(7)
loop_
_geom_bond_atom_site_label_1
_geom_bond_atom_site_label_2
_geom_bond_site_symmetry_1
_geom_bond_site_symmetry_2
C1 N3 1_555 1_555
C2 H1 1_555 1_555
H2 C2 1_555 1_555
C3 H3 1_555 1_555
H4 C3 1_555 1_555
C4 C3 1_555 1_555
H5 C4 1_555 1_555
C5 C4 1_555 1_555
H6 C5 1_555 1_555
H7 C5 1_555 1_555
C6 C5 1_555 1_555
C7 C6 1_555 1_555
H8 C7 1_555 1_555
C8 C7 1_555 1_555
H9 C8 1_555 1_555
C9 C8 1_555 1_555
C10 C9 1_555 1_555
H10 C10 1_555 1_555
C11 C10 1_555 1_555
C12 H11 1_555 1_555
C13 C12 1_555 1_555
C14 C13 1_555 1_555
H12 C14 1_555 1_555
C15 C14 1_555 1_555
H13 C15 1_555 1_555
C16 C4 1_555 1_555
H14 C16 1_555 1_555
H15 C16 1_555 1_555
H16 C16 1_555 1_555
C17 C6 1_555 1_555
H17 C17 1_555 1_555
H18 C17 1_555 1_555
H19 C17 1_555 1_555
C18 H20 1_555 1_555
H21 C18 1_555 1_555
C19 C18 1_555 1_555
H22 C19 1_555 1_555
C20 C19 1_555 1_555
H23 C20 1_555 1_555
H24 C20 1_555 1_555
C21 H25 1_555 1_555
C22 C21 1_555 1_555
H26 C22 1_555 1_555
C23 C22 1_555 1_555
H27 C23 1_555 1_555
C24 C23 1_555 1_555
H28 C24 1_555 1_555
H29 C24 1_555 1_555
C25 C24 1_555 1_555
H30 C25 1_555 1_555
C26 C25 1_555 1_555
H31 C26 1_555 1_555
H32 C26 1_555 1_555
H33 C26 1_555 1_555
C27 H34 1_555 1_555
H35 C27 1_555 1_555
H36 C27 1_555 1_555
C28 H37 1_555 1_555
H38 C28 1_555 1_555
H39 C28 1_555 1_555
C29 O5 1_555 1_555
C30 H40 1_555 1_555
H41 C30 1_555 1_555
H42 C30 1_555 1_555
C31 C8 1_555 1_555
H43 C31 1_555 1_555
H44 C31 1_555 1_555
H45 C31 1_555 1_555
C32 C10 1_555 1_555
H46 C32 1_555 1_555
H47 C32 1_555 1_555
H48 C32 1_555 1_555
C33 C12 1_555 1_555
H49 C33 1_555 1_555
H50 C33 1_555 1_555
C34 C33 1_555 1_555
H51 C34 1_555 1_555
H52 C34 1_555 1_555
H53 C34 1_555 1_555
C35 C13 1_555 1_555
H54 C35 1_555 1_555
H55 C35 1_555 1_555
H56 C35 1_555 1_555
C36 C15 1_555 1_555
H57 C36 1_555 1_555
H58 C36 1_555 1_555
H59 C36 1_555 1_555
N1 C2 1_555 1_555
N2 C23 1_555 1_555
N3 C2 1_555 1_555
O1 C1 1_555 1_555
O2 C1 1_555 1_555
O3 C6 1_555 1_555
O4 C7 1_555 1_555
O5 C22 1_555 1_555
O6 C29 1_555 1_555
O7 C29 1_555 1_555
O8 C21 1_555 1_555
O9 C9 1_555 1_555
O10 C11 1_555 1_555
O11 C11 1_555 1_555
C3 N1 1_555 1_555
C12 O10 1_555 1_555
C13 O1 1_555 1_555
C14 N3 1_555 1_555
C15 N1 1_555 1_555
C18 O3 1_555 1_555
C21 O4 1_555 1_555
C25 O8 1_555 1_555
C27 N2 1_555 1_555
C28 N2 1_555 1_555
C30 O7 1_555 1_555

#END
