
#######################################################################
#
#                 Cambridge Crystallographic Data Centre
#                                CCDC 
#
#######################################################################
#
# If this CIF has been generated from an entry in the Cambridge 
# Structural Database, then it will include bibliographic, chemical, 
# crystal, experimental, refinement or atomic coordinate data resulting 
# from the CCDC's data processing and validation procedures.
#
#######################################################################

data_OMEVOT
_chemical_formula_moiety         'C18 H13 Br1 N2 O4'
_chemical_name_systematic        
'Ethyl 4-(4-bromobenzoyl)-3-(pyridin-3-yl)-1,2-oxazole-5-carboxylate'
_symmetry_cell_setting           triclinic
_symmetry_space_group_name_H-M   'P -1'
_symmetry_Int_Tables_number      2
_space_group_name_Hall           '-P 1'
loop_
_symmetry_equiv_pos_site_id
_symmetry_equiv_pos_as_xyz
1 x,y,z
2 -x,-y,-z
_cell_length_a                   7.2541(12)
_cell_length_b                   10.9957(18)
_cell_length_c                   11.4706(18)
_cell_angle_alpha                105.972(5)
_cell_angle_beta                 96.447(5)
_cell_angle_gamma                92.776(5)
_cell_volume                     871.038
_exptl_crystal_colour            white
_exptl_crystal_description       block
_cell_formula_units_Z            2
loop_
_atom_site_label
_atom_site_type_symbol
_atom_site_fract_x
_atom_site_fract_y
_atom_site_fract_z
Br1 Br 1.33387(7) 0.61825(4) 0.39601(4)
O1 O 0.7773(5) -0.1047(3) 0.0061(3)
C1 C 0.7420(5) -0.0598(4) 0.3229(4)
C2 C 0.8494(5) 0.2976(4) 0.2644(3)
C3 C 1.1338(6) 0.4899(4) 0.3411(4)
C4 C 0.6964(5) 0.1955(4) 0.2264(4)
O2 O 0.5389(4) 0.2115(3) 0.2506(3)
C5 C 0.9524(7) 0.5181(4) 0.3576(4)
H1 H 0.9258 0.6026 0.3953
C6 C 0.7371(5) 0.0640(4) 0.1576(4)
C7 C 1.0318(6) 0.2722(4) 0.2487(4)
H2 H 1.0587 0.1878 0.2107
O3 O 0.8021(5) 0.0327(4) -0.1596(3)
N1 N 0.7738(6) -0.1460(4) 0.1101(3)
C8 C 0.7486(5) -0.0465(4) 0.1992(4)
C9 C 0.7561(6) 0.0201(4) 0.0374(4)
C10 C 0.8119(6) 0.4221(4) 0.3188(4)
H3 H 0.6873 0.4409 0.3293
C11 C 1.1752(6) 0.3675(4) 0.2873(4)
H4 H 1.3000 0.3491 0.2770
C12 C 0.7643(6) 0.0818(5) -0.0601(4)
O4 O 0.7239(6) 0.2013(4) -0.0188(3)
C13 C 0.7157(8) -0.1793(4) 0.3398(5)
H5 H 0.7016 -0.2506 0.2694
C14 C 0.7630(6) 0.0419(4) 0.4270(4)
H6 H 0.7834 0.1260 0.4212
C15 C 0.7252(7) -0.1003(5) 0.5446(4)
H7 H 0.7162 -0.1135 0.6223
C16 C 0.7544(7) 0.0208(5) 0.5385(4)
H8 H 0.7686 0.0899 0.6108
N2 N 0.7088(8) -0.2008(4) 0.4476(4)
C17 C 0.7396(12) 0.2811(7) -0.1003(6)
H9 H 0.8648 0.2786 -0.1271
H10 H 0.6457 0.2499 -0.1738
C18 C 0.711(2) 0.4043(10) -0.0376(9)
H11 H 0.5989 0.4036 0.0030
H12 H 0.6941 0.4554 -0.0952
H13 H 0.8185 0.4410 0.0239
loop_
_geom_bond_atom_site_label_1
_geom_bond_atom_site_label_2
_geom_bond_site_symmetry_1
_geom_bond_site_symmetry_2
Br1 C3 1_555 1_555
O1 N1 1_555 1_555
C1 C8 1_555 1_555
C2 C4 1_555 1_555
C3 C5 1_555 1_555
C4 O2 1_555 1_555
C5 H1 1_555 1_555
C6 C4 1_555 1_555
C7 C2 1_555 1_555
H2 C7 1_555 1_555
O3 C12 1_555 1_555
N1 C8 1_555 1_555
C8 C6 1_555 1_555
C9 O1 1_555 1_555
C10 C2 1_555 1_555
H3 C10 1_555 1_555
C11 C3 1_555 1_555
H4 C11 1_555 1_555
C12 C9 1_555 1_555
O4 C12 1_555 1_555
C13 C1 1_555 1_555
H5 C13 1_555 1_555
C14 C1 1_555 1_555
H6 C14 1_555 1_555
C15 H7 1_555 1_555
C16 C14 1_555 1_555
H8 C16 1_555 1_555
N2 C13 1_555 1_555
C17 O4 1_555 1_555
H9 C17 1_555 1_555
H10 C17 1_555 1_555
C18 C17 1_555 1_555
H11 C18 1_555 1_555
H12 C18 1_555 1_555
H13 C18 1_555 1_555
C5 C10 1_555 1_555
C6 C9 1_555 1_555
C7 C11 1_555 1_555
C15 C16 1_555 1_555
C15 N2 1_555 1_555

#END
