
#######################################################################
#
#                 Cambridge Crystallographic Data Centre
#                                CCDC 
#
#######################################################################
#
# If this CIF has been generated from an entry in the Cambridge 
# Structural Database, then it will include bibliographic, chemical, 
# crystal, experimental, refinement or atomic coordinate data resulting 
# from the CCDC's data processing and validation procedures.
#
#######################################################################

data_OMIHOJ
_chemical_formula_moiety         
'C49 H66 K1 N6 O15 1+,0.5(C3 H6 O1),0.5(H1 O4 P1 2-),0.5(C4 H10 O1),0.5(H2 O1)'
_chemical_name_systematic        
'(18-Crown-6)-(27,30,33,36,39,42-hexaoxa-2,4,11,13,20,22-hexa-azapentacyclo[41.2.2.2^23,26^.0^5,10^.0^14,19^]nonatetraconta-1(45),5,7,9,14,16,18,23,25,43,46,48-dodecaene-3,12,21-trione)-potassium hemikis(hydrogen phosphate) acetone diethyl ether solvate hemihydrate'
_symmetry_cell_setting           triclinic
_symmetry_space_group_name_H-M   'P -1'
_symmetry_Int_Tables_number      2
_space_group_name_Hall           '-P 1'
loop_
_symmetry_equiv_pos_site_id
_symmetry_equiv_pos_as_xyz
1 x,y,z
2 -x,-y,-z
_cell_length_a                   16.775(3)
_cell_length_b                   19.152(4)
_cell_length_c                   20.418(4)
_cell_angle_alpha                93.782(3)
_cell_angle_beta                 113.688(2)
_cell_angle_gamma                106.847(3)
_cell_volume                     5623.42
_exptl_crystal_colour            'light yellow'
_exptl_crystal_description       block
_cell_formula_units_Z            4
loop_
_atom_site_label
_atom_site_type_symbol
_atom_site_fract_x
_atom_site_fract_y
_atom_site_fract_z
C1 C 0.4879(7) 0.4514(6) 1.0705(5)
C2 C 0.4195(7) 0.5537(6) 1.0656(5)
C3 C 0.4943(7) 0.6092(6) 1.1190(6)
H1 H 0.5510 0.6023 1.1416
C4 C 0.4850(8) 0.6765(7) 1.1393(6)
H2 H 0.5353 0.7142 1.1761
C5 C 0.4001(8) 0.6870(7) 1.1044(6)
H3 H 0.3934 0.7315 1.1178
C6 C 0.3263(8) 0.6308(7) 1.0499(6)
H4 H 0.2699 0.6379 1.0258
C7 C 0.3349(7) 0.5650(7) 1.0310(5)
C8 C 0.1761(7) 0.4728(6) 0.9823(6)
C9 C 0.0256(8) 0.3675(6) 0.9121(6)
C10 C -0.0279(7) 0.3908(6) 0.9384(6)
H5 H -0.0022 0.4366 0.9706
C11 C -0.1190(8) 0.3480(6) 0.9182(6)
H6 H -0.1540 0.3637 0.9376
C12 C -0.1575(9) 0.2805(7) 0.8680(7)
C13 C -0.1024(9) 0.2552(7) 0.8440(7)
H7 H -0.1271 0.2087 0.8131
C14 C -0.0098(9) 0.2992(7) 0.8663(7)
H8 H 0.0273 0.2825 0.8501
C15 C -0.2961(10) 0.1808(8) 0.7871(8)
H9 H -0.2785 0.1385 0.8022
H10 H -0.2785 0.1938 0.7485
C16 C -0.3968(11) 0.1626(9) 0.7610(9)
H11 H -0.4121 0.2075 0.7545
H12 H -0.4297 0.1280 0.7140
C17 C -0.5235(13) 0.1049(11) 0.7958(12)
H13 H -0.5608 0.0788 0.7452
H14 H -0.5412 0.1477 0.8029
C18 C -0.5426(14) 0.0507(11) 0.8480(13)
H15 H -0.4890 0.0596 0.8944
H16 H -0.5967 0.0492 0.8552
C19 C -0.5955(14) -0.0707(11) 0.8229(13)
H17 H -0.6617 -0.0821 0.8051
H18 H -0.5667 -0.0587 0.8759
C20 C -0.5768(17) -0.1347(13) 0.7970(14)
H19 H -0.5929 -0.1735 0.8224
H20 H -0.6199 -0.1531 0.7456
C21 C -0.4844(16) -0.1913(12) 0.7704(13)
H21 H -0.5219 -0.2384 0.7747
H22 H -0.5012 -0.1921 0.7189
C22 C -0.4013(16) -0.1831(12) 0.8033(12)
H23 H -0.3941 -0.2299 0.7906
H24 H -0.3844 -0.1746 0.8553
C23 C -0.2825(14) -0.0698(13) 0.8383(12)
H25 H -0.2592 -0.0880 0.8830
H26 H -0.3209 -0.0428 0.8440
C24 C -0.2017(14) -0.0135(12) 0.8387(11)
H27 H -0.2117 -0.0116 0.7887
H28 H -0.1944 0.0351 0.8623
C25 C -0.0440(12) 0.0215(10) 0.8760(9)
C26 C -0.0368(10) 0.0770(9) 0.8394(8)
H29 H -0.0903 0.0840 0.8071
C27 C 0.0465(10) 0.1224(8) 0.8489(7)
H30 H 0.0487 0.1614 0.8240
C28 C 0.1292(10) 0.1141(7) 0.8937(7)
C29 C 0.1253(10) 0.0591(7) 0.9333(8)
H31 H 0.1796 0.0525 0.9646
C30 C 0.0370(11) 0.0117(8) 0.9265(9)
H32 H 0.0334 -0.0243 0.9546
C31 C 0.2990(9) 0.1823(7) 0.9583(7)
C32 C 0.4645(9) 0.2583(7) 1.0030(6)
C33 C 0.5075(9) 0.2060(7) 1.0111(6)
H33 H 0.4743 0.1574 0.9840
C34 C 0.6002(9) 0.2259(7) 1.0596(6)
H34 H 0.6306 0.1914 1.0651
C35 C 0.6460(9) 0.2972(7) 1.0992(6)
H35 H 0.7081 0.3108 1.1324
C36 C 0.6037(8) 0.3498(7) 1.0920(6)
H36 H 0.6374 0.3981 1.1197
C37 C 0.5107(8) 0.3308(6) 1.0434(5)
C38 C 0.2871(10) 0.3143(8) 1.0924(7)
H37 H 0.2759 0.3374 1.0503
H38 H 0.3076 0.2733 1.0848
C39 C 0.3589(9) 0.3696(7) 1.1594(7)
H39 H 0.3667 0.3477 1.2021
H40 H 0.4179 0.3856 1.1570
C40 C 0.3982(9) 0.4913(8) 1.2251(7)
H41 H 0.4064 0.4752 1.2708
H42 H 0.4573 0.5049 1.2229
C41 C 0.3692(9) 0.5550(7) 1.2232(6)
H43 H 0.3534 0.5681 1.1756
H44 H 0.4184 0.5976 1.2600
C42 C 0.2488(10) 0.5908(8) 1.2288(7)
H45 H 0.2311 0.5988 1.1792
H46 H 0.2946 0.6369 1.2621
C43 C 0.1654(10) 0.5701(8) 1.2436(7)
H47 H 0.1828 0.5610 1.2928
H48 H 0.1417 0.6109 1.2401
C44 C 0.0092(9) 0.4818(8) 1.1991(7)
H49 H 0.0203 0.4674 1.2458
H50 H -0.0131 0.5233 1.1978
C45 C -0.0602(10) 0.4196(9) 1.1404(8)
H51 H -0.1169 0.4037 1.1463
H52 H -0.0741 0.4346 1.0937
C46 C -0.0929(10) 0.2913(9) 1.0925(8)
H53 H -0.1180 0.3001 1.0432
H54 H -0.1436 0.2740 1.1059
C47 C -0.0493(10) 0.2344(8) 1.0952(9)
H55 H -0.0218 0.2272 1.1449
H56 H -0.0958 0.1872 1.0644
C48 C 0.0545(11) 0.2005(8) 1.0574(8)
H57 H 0.0051 0.1606 1.0176
H58 H 0.0752 0.1798 1.1008
C49 C 0.1307(10) 0.2299(8) 1.0392(8)
H59 H 0.1109 0.2508 0.9959
H60 H 0.1525 0.1905 1.0295
K1 K 0.14194(18) 0.40664(14) 1.12467(14)
N1 N 0.4250(6) 0.4845(5) 1.0399(4)
H61 H 0.3807 0.4600 0.9980
N2 N 0.4619(6) 0.3815(5) 1.0313(4)
H62 H 0.4084 0.3661 0.9940
N3 N 0.3676(7) 0.2367(5) 0.9510(5)
H63 H 0.3526 0.2585 0.9147
N4 N 0.2139(7) 0.1654(5) 0.8996(5)
H64 H 0.2114 0.1874 0.8638
N5 N 0.1178(6) 0.4114(5) 0.9263(5)
H65 H 0.1389 0.3984 0.8973
N6 N 0.2558(6) 0.5058(5) 0.9745(4)
H66 H 0.2586 0.4909 0.9350
O1 O 0.5579(4) 0.4783(4) 1.1292(3)
O2 O 0.1594(5) 0.4970(4) 1.0297(4)
O3 O -0.2510(6) 0.2432(5) 0.8480(5)
O4 O -0.4248(7) 0.1301(6) 0.8121(7)
O5 O -0.5586(10) -0.0114(8) 0.7962(9)
O6 O -0.5023(11) -0.1284(8) 0.8023(9)
O7 O -0.3345(10) -0.1239(8) 0.7912(7)
O8 O -0.1207(9) -0.0296(7) 0.8755(7)
O9 O 0.3154(6) 0.1510(4) 1.0100(4)
O10 O 0.2045(6) 0.2875(5) 1.1012(5)
O11 O 0.3299(5) 0.4308(5) 1.1644(4)
O12 O 0.2878(6) 0.5337(5) 1.2379(4)
O13 O 0.0952(6) 0.5046(5) 1.1921(4)
O14 O -0.0250(6) 0.3594(6) 1.1423(5)
O15 O 0.0196(7) 0.2577(5) 1.0706(5)
C50 C 0.934(2) 0.3015(16) 0.2885(16)
H67 H 0.9867 0.3006 0.2817
H68 H 0.9533 0.3238 0.3384
H69 H 0.9035 0.3302 0.2568
C51 C 0.866(3) 0.2221(18) 0.270(2)
H70 H 0.8443 0.2103 0.3071
H71 H 0.8149 0.2078 0.2218
C52 C 0.872(3) 0.1224(18) 0.2329(19)
H72 H 0.8333 0.1243 0.1834
H73 H 0.8347 0.0993 0.2565
O16 O 0.942(2) 0.1955(13) 0.2760(13)
C53 C 0.958(5) 0.079(3) 0.237(4)
H74 H 0.9871 0.0698 0.2856
H75 H 1.0044 0.1113 0.2263
H76 H 0.9276 0.0322 0.2025
C54 C 0.738(2) 0.0927(19) -0.039(3)
C55 C 0.696(3) 0.062(2) 0.005(3)
C56 C 0.622(2) 0.0062(18) 0.002(2)
O17 O 0.7417(15) 0.1109(13) 0.0708(18)
O18 O 0.1393(4) 0.3394(4) 0.8009(3)
O19 O 0.2636(4) 0.2829(4) 0.8162(3)
O20 O 0.2925(4) 0.3866(4) 0.9131(3)
O21 O 0.2800(4) 0.4109(4) 0.7904(3)
H77 H 0.3302 0.4418 0.8192
P1 P 0.24231(19) 0.35294(17) 0.83269(14)
O22 O 0.1128(10) 0.2442(8) 0.3767(7)
C57? C 0.0330(9) 0.1480(7) 0.6709(6)
C58? C -0.0837(8) 0.2033(7) 0.6656(6)
C59? C -0.1592(8) 0.1382(7) 0.6442(6)
H78? H -0.1504 0.0931 0.6514
C60? C -0.2489(9) 0.1410(8) 0.6117(7)
H79? H -0.3004 0.0977 0.5963
C61? C -0.2597(9) 0.2090(8) 0.6028(6)
H80? H -0.3191 0.2113 0.5805
C62? C -0.1839(8) 0.2734(7) 0.6264(6)
H81? H -0.1928 0.3188 0.6210
C63? C -0.0965(8) 0.2717(7) 0.6576(5)
C64? C -0.0049(8) 0.3957(7) 0.6506(6)
C65? C 0.1214(7) 0.5136(6) 0.6699(5)
C66? C 0.0836(8) 0.5338(7) 0.6046(6)
H82? H 0.0251 0.5031 0.5697
C67? C 0.1297(8) 0.5997(6) 0.5875(6)
H83? H 0.1046 0.6100 0.5411
C68? C 0.2107(8) 0.6469(7) 0.6405(6)
C69? C 0.2492(8) 0.6270(7) 0.7075(6)
H84? H 0.3059 0.6592 0.7436
C70? C 0.2075(7) 0.5635(6) 0.7215(6)
H85? H 0.2362 0.5520 0.7668
C71? C 0.2176(10) 0.7397(8) 0.5679(7)
H86? H 0.1515 0.7268 0.5523
H87? H 0.2261 0.7138 0.5301
C72? C 0.2600(11) 0.8213(8) 0.5762(8)
H88? H 0.2262 0.8366 0.5321
H89? H 0.2561 0.8475 0.6166
C73? C 0.3988(13) 0.9208(8) 0.6036(9)
H90? H 0.4104 0.9438 0.6518
H91? H 0.3603 0.9424 0.5677
C74? C 0.5002(13) 0.9356(9) 0.5983(10)
H92? H 0.5352 0.9887 0.6113
H93? H 0.5370 0.9114 0.6322
C75? C 0.5874(15) 0.9090(14) 0.5298(11)
H94? H 0.6252 0.9576 0.5288
H95? H 0.6232 0.8891 0.5694
C76? C 0.5379(15) 0.8554(14) 0.4570(12)
H96? H 0.4857 0.8684 0.4251
H97? H 0.5799 0.8601 0.4346
C77? C 0.4675(15) 0.7409(13) 0.4020(11)
H98? H 0.5095 0.7412 0.3804
H99? H 0.4138 0.7507 0.3681
C78? C 0.4400(15) 0.6671(14) 0.4303(12)
H100? H 0.4283 0.6258 0.3935
H101? H 0.4939 0.6691 0.4739
C79? C 0.3872(15) 0.6815(13) 0.5238(11)
H102? H 0.3954 0.7341 0.5274
H103? H 0.3329 0.6579 0.5313
C80? C 0.4628(16) 0.6754(12) 0.5808(11)
H104? H 0.4561 0.6833 0.6255
H105? H 0.5181 0.7147 0.5864
C81? C 0.4335(12) 0.5480(10) 0.5973(8)
C82? C 0.3906(10) 0.5538(8) 0.6398(7)
H106? H 0.3820 0.5979 0.6516
C83? C 0.3593(9) 0.4895(7) 0.6653(7)
H107? H 0.3322 0.4929 0.6966
C84? C 0.3666(8) 0.4233(7) 0.6469(6)
C85? C 0.4112(9) 0.4208(7) 0.6028(6)
H108? H 0.4183 0.3766 0.5889
C86? C 0.4454(10) 0.4849(8) 0.5792(7)
H109? H 0.4767 0.4835 0.5507
C87? C 0.3128(9) 0.2932(8) 0.6505(7)
C88? C 0.2510(9) 0.1653(7) 0.6713(7)
C89? C 0.2955(10) 0.1291(8) 0.6433(8)
H110? H 0.3455 0.1571 0.6359
C90? C 0.2666(11) 0.0540(9) 0.6269(9)
H111? H 0.2958 0.0298 0.6078
C91? C 0.1932(11) 0.0142(9) 0.6389(9)
H112? H 0.1744 -0.0376 0.6287
C92? C 0.1448(10) 0.0475(7) 0.6658(8)
H113? H 0.0946 0.0185 0.6723
C93? C 0.1740(9) 0.1249(7) 0.6823(7)
C94? C 0.236(2) 0.1533(15) 0.3512(14)
C95? C 0.169(2) 0.1093(15) 0.3731(15)
C96? C 0.072(2) 0.1199(15) 0.4336(14)
C97? C 0.072(2) 0.0964(15) 0.4803(13)
C98? C -0.0090(18) 0.1558(18) 0.4812(13)
C99? C 0.0396(16) 0.2585(18) 0.5302(12)
C100? C 0.1096(17) 0.3716(17) 0.5398(13)
C101? C 0.128(2) 0.4281(17) 0.4860(14)
C102? C 0.191(2) 0.4570(16) 0.4125(14)
C103? C 0.232(2) 0.4093(16) 0.3972(15)
C104? C 0.215(2) 0.312(2) 0.2839(15)
C105? C 0.295(2) 0.302(2) 0.3406(14)
K2? K 0.1916(4) 0.2691(3) 0.4448(2)
N7? N 0.1276(7) 0.1619(5) 0.7050(5)
H114? H 0.1602 0.1968 0.7437
N8? N 0.0063(6) 0.2004(5) 0.6954(5)
H115? H 0.0481 0.2349 0.7324
N9? N -0.0172(6) 0.3376(5) 0.6841(4)
H116? H 0.0275 0.3409 0.7256
N10? N 0.0838(6) 0.4470(5) 0.6880(4)
H117? H 0.1201 0.4367 0.7268
N11? N 0.3351(6) 0.3635(6) 0.6764(5)
H118? H 0.3299 0.3744 0.7157
N12? N 0.2832(6) 0.2451(5) 0.6894(5)
H119? H 0.2841 0.2648 0.7289
O23? O -0.0202(5) 0.0938(4) 0.6222(4)
O24? O -0.0655(5) 0.4036(4) 0.5965(4)
O25? O 0.2568(6) 0.7153(5) 0.6336(4)
O26? O 0.3517(8) 0.8395(5) 0.5894(5)
O27? O 0.4822(10) 0.9077(6) 0.5291(7)
O28? O 0.5070(10) 0.7843(10) 0.4635(8)
O29? O 0.3657(10) 0.6500(9) 0.4466(7)
O30? O 0.4759(9) 0.6057(7) 0.5726(6)
O31? O 0.3159(7) 0.2684(5) 0.5931(5)
O32? O 0.2156(16) 0.2107(13) 0.2985(9)
O33? O 0.1505(14) 0.0866(9) 0.4357(9)
O34? O 0.0707(11) 0.1952(11) 0.5016(8)
O35? O 0.0762(11) 0.3153(11) 0.4920(8)
O36? O 0.1819(13) 0.4152(10) 0.4660(9)
O37? O 0.2454(14) 0.3890(12) 0.3433(11)
loop_
_geom_bond_atom_site_label_1
_geom_bond_atom_site_label_2
_geom_bond_site_symmetry_1
_geom_bond_site_symmetry_2
C1 N1 1_555 1_555
C2 C3 1_555 1_555
C3 H1 1_555 1_555
C4 C3 1_555 1_555
H2 C4 1_555 1_555
C5 C4 1_555 1_555
H3 C5 1_555 1_555
C6 C5 1_555 1_555
H4 C6 1_555 1_555
C7 C2 1_555 1_555
C8 N5 1_555 1_555
C9 C10 1_555 1_555
C10 H5 1_555 1_555
C11 C10 1_555 1_555
H6 C11 1_555 1_555
C12 C11 1_555 1_555
C13 C12 1_555 1_555
H7 C13 1_555 1_555
C14 C9 1_555 1_555
H8 C14 1_555 1_555
C15 H9 1_555 1_555
H10 C15 1_555 1_555
C16 C15 1_555 1_555
H11 C16 1_555 1_555
H12 C16 1_555 1_555
C17 H13 1_555 1_555
H14 C17 1_555 1_555
C18 C17 1_555 1_555
H15 C18 1_555 1_555
H16 C18 1_555 1_555
C19 H17 1_555 1_555
H18 C19 1_555 1_555
C20 C19 1_555 1_555
H19 C20 1_555 1_555
H20 C20 1_555 1_555
C21 H21 1_555 1_555
H22 C21 1_555 1_555
C22 C21 1_555 1_555
H23 C22 1_555 1_555
H24 C22 1_555 1_555
C23 H25 1_555 1_555
H26 C23 1_555 1_555
C24 C23 1_555 1_555
H27 C24 1_555 1_555
H28 C24 1_555 1_555
C25 C26 1_555 1_555
C26 H29 1_555 1_555
C27 C26 1_555 1_555
H30 C27 1_555 1_555
C28 C27 1_555 1_555
C29 C28 1_555 1_555
H31 C29 1_555 1_555
C30 C25 1_555 1_555
H32 C30 1_555 1_555
C31 N3 1_555 1_555
C32 C33 1_555 1_555
C33 H33 1_555 1_555
C34 C33 1_555 1_555
H34 C34 1_555 1_555
C35 C34 1_555 1_555
H35 C35 1_555 1_555
C36 C35 1_555 1_555
H36 C36 1_555 1_555
C37 C32 1_555 1_555
C38 H37 1_555 1_555
H38 C38 1_555 1_555
C39 C38 1_555 1_555
H39 C39 1_555 1_555
H40 C39 1_555 1_555
C40 H41 1_555 1_555
H42 C40 1_555 1_555
C41 C40 1_555 1_555
H43 C41 1_555 1_555
H44 C41 1_555 1_555
C42 H45 1_555 1_555
H46 C42 1_555 1_555
C43 C42 1_555 1_555
H47 C43 1_555 1_555
H48 C43 1_555 1_555
C44 H49 1_555 1_555
H50 C44 1_555 1_555
C45 C44 1_555 1_555
H51 C45 1_555 1_555
H52 C45 1_555 1_555
C46 H53 1_555 1_555
H54 C46 1_555 1_555
C47 C46 1_555 1_555
H55 C47 1_555 1_555
H56 C47 1_555 1_555
C48 H57 1_555 1_555
H58 C48 1_555 1_555
C49 C48 1_555 1_555
H59 C49 1_555 1_555
H60 C49 1_555 1_555
K1 O2 1_555 1_555
N1 C2 1_555 1_555
H61 N1 1_555 1_555
N2 C1 1_555 1_555
H62 N2 1_555 1_555
N3 C32 1_555 1_555
H63 N3 1_555 1_555
N4 C28 1_555 1_555
H64 N4 1_555 1_555
N5 C9 1_555 1_555
H65 N5 1_555 1_555
N6 C7 1_555 1_555
H66 N6 1_555 1_555
O1 C1 1_555 1_555
O2 C8 1_555 1_555
O3 C12 1_555 1_555
O4 C16 1_555 1_555
O5 C18 1_555 1_555
O6 C20 1_555 1_555
O7 C22 1_555 1_555
O8 C24 1_555 1_555
O9 C31 1_555 1_555
O10 C38 1_555 1_555
O11 C39 1_555 1_555
O12 C41 1_555 1_555
O13 C43 1_555 1_555
O14 C45 1_555 1_555
O15 C47 1_555 1_555
C50 H67 1_555 1_555
H68 C50 1_555 1_555
H69 C50 1_555 1_555
C51 C50 1_555 1_555
H70 C51 1_555 1_555
H71 C51 1_555 1_555
C52 H72 1_555 1_555
H73 C52 1_555 1_555
O16 C51 1_555 1_555
C53 C52 1_555 1_555
H74 C53 1_555 1_555
H75 C53 1_555 1_555
H76 C53 1_555 1_555
C54 C55 1_555 1_555
C55 C56 1_555 1_555
O17 C55 1_555 1_555
O18 P1 1_555 1_555
O19 P1 1_555 1_555
O20 P1 1_555 1_555
O21 H77 1_555 1_555
P1 O21 1_555 1_555
C6 C7 1_555 1_555
C8 N6 1_555 1_555
C13 C14 1_555 1_555
C15 O3 1_555 1_555
C17 O4 1_555 1_555
C19 O5 1_555 1_555
C21 O6 1_555 1_555
C23 O7 1_555 1_555
C25 O8 1_555 1_555
C29 C30 1_555 1_555
C31 N4 1_555 1_555
C36 C37 1_555 1_555
C37 N2 1_555 1_555
C40 O11 1_555 1_555
C42 O12 1_555 1_555
C44 O13 1_555 1_555
C46 O14 1_555 1_555
C48 O15 1_555 1_555
C49 O10 1_555 1_555
K1 O10 1_555 1_555
K1 O11 1_555 1_555
K1 O12 1_555 1_555
K1 O13 1_555 1_555
K1 O14 1_555 1_555
K1 O15 1_555 1_555
C52 O16 1_555 1_555

#END
