
#######################################################################
#
#                 Cambridge Crystallographic Data Centre
#                                CCDC 
#
#######################################################################
#
# If this CIF has been generated from an entry in the Cambridge 
# Structural Database, then it will include bibliographic, chemical, 
# crystal, experimental, refinement or atomic coordinate data resulting 
# from the CCDC's data processing and validation procedures.
#
#######################################################################

data_OMIJAW
_chemical_formula_moiety         'C25 H22 N2 O2 S1'
_chemical_name_systematic        
4-Methyl-N-(phenyl(2-(pyridin-2-yl)phenyl)methyl)benzenesulfonamide
_symmetry_cell_setting           monoclinic
_symmetry_space_group_name_H-M   'P 21'
_symmetry_Int_Tables_number      4
_space_group_name_Hall           'P 2yb'
loop_
_symmetry_equiv_pos_site_id
_symmetry_equiv_pos_as_xyz
1 x,y,z
2 -x,1/2+y,-z
_cell_length_a                   10.0748(16)
_cell_length_b                   9.3775(15)
_cell_length_c                   11.3158(18)
_cell_angle_alpha                90
_cell_angle_beta                 97.034(11)
_cell_angle_gamma                90
_cell_volume                     1061.03
_exptl_crystal_colour            colorless
_exptl_crystal_description       block
_cell_formula_units_Z            2
loop_
_atom_site_label
_atom_site_type_symbol
_atom_site_fract_x
_atom_site_fract_y
_atom_site_fract_z
S1 S 0.27361(6) 0.27921(8) 0.29005(5)
O1 O 0.32111(19) 0.4031(2) 0.23459(17)
O2 O 0.30428(18) 0.1406(2) 0.24747(16)
N1 N 0.11367(18) 0.2859(3) 0.28073(17)
H1 H 0.0670 0.2116 0.2522
N2 N -0.1358(2) 0.1509(2) 0.22461(19)
C1 C 0.0426(2) 0.4107(3) 0.3178(2)
H2 H 0.1126 0.4790 0.3533
C2 C -0.0379(3) 0.4890(3) 0.2155(2)
C3 C -0.0538(3) 0.4422(3) 0.0981(2)
H3 H -0.0128 0.3560 0.0775
C4 C -0.1299(3) 0.5217(4) 0.0109(3)
H4 H -0.1427 0.4880 -0.0688
C5 C -0.1866(3) 0.6485(4) 0.0388(3)
H5 H -0.2372 0.7027 -0.0218
C6 C -0.1704(3) 0.6970(3) 0.1538(3)
H6 H -0.2093 0.7850 0.1730
C7 C -0.0973(3) 0.6173(3) 0.2416(2)
H7 H -0.0874 0.6509 0.3214
C8 C -0.0415(3) 0.3729(3) 0.4170(2)
C9 C -0.1619(2) 0.2949(3) 0.3981(2)
C10 C -0.2339(2) 0.2726(3) 0.4938(2)
H8 H -0.3159 0.2217 0.4810
C11 C -0.1899(3) 0.3220(3) 0.6068(2)
H9 H -0.2402 0.3039 0.6710
C12 C -0.0725(3) 0.3976(3) 0.6254(2)
H10 H -0.0411 0.4321 0.7027
C13 C 0.0001(3) 0.4235(3) 0.5313(2)
H11 H 0.0805 0.4772 0.5451
C14 C -0.2174(2) 0.2331(3) 0.2804(2)
C15 C -0.1862(3) 0.0906(3) 0.1212(3)
H12 H -0.1287 0.0325 0.0812
C16 C -0.3155(3) 0.1078(3) 0.0700(2)
H13 H -0.3465 0.0634 -0.0037
C17 C -0.3993(3) 0.1908(4) 0.1278(3)
H14 H -0.4899 0.2038 0.0953
C18 C -0.3498(2) 0.2554(3) 0.2344(2)
H15 H -0.4058 0.3142 0.2754
C19 C 0.3379(2) 0.2908(3) 0.4428(2)
C20 C 0.3282(3) 0.1726(3) 0.5153(2)
H16 H 0.2828 0.0890 0.4849
C21 C 0.3859(3) 0.1789(3) 0.6324(2)
H17 H 0.3797 0.0983 0.6823
C22 C 0.4519(3) 0.2984(4) 0.6790(2)
C23 C 0.4576(3) 0.4168(3) 0.6058(3)
H18 H 0.5001 0.5016 0.6369
C24 C 0.4017(3) 0.4118(3) 0.4877(2)
H19 H 0.4076 0.4924 0.4378
C25 C 0.5193(3) 0.3004(5) 0.8059(2)
H20 H 0.5944 0.2332 0.8141
H21 H 0.4548 0.2726 0.8598
H22 H 0.5524 0.3967 0.8261
loop_
_geom_bond_atom_site_label_1
_geom_bond_atom_site_label_2
_geom_bond_site_symmetry_1
_geom_bond_site_symmetry_2
S1 O1 1_555 1_555
O2 S1 1_555 1_555
N1 S1 1_555 1_555
H1 N1 1_555 1_555
N2 C14 1_555 1_555
C1 N1 1_555 1_555
H2 C1 1_555 1_555
C2 C1 1_555 1_555
C3 C2 1_555 1_555
H3 C3 1_555 1_555
C4 C3 1_555 1_555
H4 C4 1_555 1_555
C5 C4 1_555 1_555
H5 C5 1_555 1_555
C6 C5 1_555 1_555
H6 C6 1_555 1_555
C7 C2 1_555 1_555
H7 C7 1_555 1_555
C8 C1 1_555 1_555
C9 C8 1_555 1_555
C10 C9 1_555 1_555
H8 C10 1_555 1_555
C11 C10 1_555 1_555
H9 C11 1_555 1_555
C12 C11 1_555 1_555
H10 C12 1_555 1_555
C13 C8 1_555 1_555
H11 C13 1_555 1_555
C14 C9 1_555 1_555
C15 N2 1_555 1_555
H12 C15 1_555 1_555
C16 C15 1_555 1_555
H13 C16 1_555 1_555
C17 C16 1_555 1_555
H14 C17 1_555 1_555
C18 C14 1_555 1_555
H15 C18 1_555 1_555
C19 S1 1_555 1_555
C20 C19 1_555 1_555
H16 C20 1_555 1_555
C21 C20 1_555 1_555
H17 C21 1_555 1_555
C22 C21 1_555 1_555
C23 C22 1_555 1_555
H18 C23 1_555 1_555
C24 C19 1_555 1_555
H19 C24 1_555 1_555
C25 C22 1_555 1_555
H20 C25 1_555 1_555
H21 C25 1_555 1_555
H22 C25 1_555 1_555
C6 C7 1_555 1_555
C12 C13 1_555 1_555
C17 C18 1_555 1_555
C23 C24 1_555 1_555

#END
