
#######################################################################
#
#                 Cambridge Crystallographic Data Centre
#                                CCDC 
#
#######################################################################
#
# If this CIF has been generated from an entry in the Cambridge 
# Structural Database, then it will include bibliographic, chemical, 
# crystal, experimental, refinement or atomic coordinate data resulting 
# from the CCDC's data processing and validation procedures.
#
#######################################################################

data_OMILEC
_chemical_formula_moiety         'C23 H23 N5 O1 S1'
_chemical_name_systematic        
2-((5-((3,5-Dimethyl-1H-pyrazol-1-yl)methyl)-4-phenyl-4H-1,2,4-triazol-3-yl)sulfanyl)-1-(4-methylphenyl)ethanone
_symmetry_cell_setting           monoclinic
_symmetry_space_group_name_H-M   'P 21/c'
_symmetry_Int_Tables_number      14
_space_group_name_Hall           '-P 2ybc'
loop_
_symmetry_equiv_pos_site_id
_symmetry_equiv_pos_as_xyz
1 x,y,z
2 -x,1/2+y,1/2-z
3 -x,-y,-z
4 x,1/2-y,1/2+z
_cell_length_a                   18.069(3)
_cell_length_b                   11.1394(17)
_cell_length_c                   22.791(4)
_cell_angle_alpha                90
_cell_angle_beta                 110.386(3)
_cell_angle_gamma                90
_cell_volume                     4300.01
_chemical_melting_point          122-123deg.C
_cell_formula_units_Z            8
_exptl_crystal_recrystallization_method ethanol
loop_
_atom_site_label
_atom_site_type_symbol
_atom_site_fract_x
_atom_site_fract_y
_atom_site_fract_z
S1 S 0.32909(4) -0.04646(6) 0.42053(3)
O1 O 0.35674(11) -0.15274(16) 0.32064(8)
N1 N 0.21363(12) 0.35353(18) 0.53216(10)
N2 N 0.21782(13) 0.26272(17) 0.57358(9)
N3 N 0.39389(12) 0.19447(17) 0.55223(10)
N4 N 0.40686(12) 0.12877(19) 0.50407(10)
N5 N 0.29441(11) 0.06971(16) 0.51275(9)
C1 C 0.11374(16) 0.5003(2) 0.47470(15)
H1 H 0.1583 0.5492 0.4768
H2 H 0.0764 0.5474 0.4861
H3 H 0.0892 0.4706 0.4328
C2 C 0.14063(17) 0.3971(2) 0.51882(14)
C3 C 0.10033(16) 0.3354(3) 0.55169(14)
H4 H 0.0489 0.3495 0.5501
C4 C 0.15072(17) 0.2505(2) 0.58662(13)
C5 C 0.13998(16) 0.1585(3) 0.63022(13)
H5 H 0.1474 0.0799 0.6158
H6 H 0.0877 0.1646 0.6317
H7 H 0.1780 0.1714 0.6713
C6 C 0.29249(14) 0.2003(2) 0.60228(11)
H8 H 0.2842 0.1320 0.6256
H9 H 0.3295 0.2539 0.6317
C7 C 0.32765(15) 0.1577(2) 0.55624(12)
C8 C 0.34623(15) 0.0552(2) 0.48160(11)
C9 C 0.22478(14) 0.0018(2) 0.50625(11)
C10 C 0.23109(16) -0.1083(2) 0.53509(12)
H10 H 0.2805 -0.1410 0.5565
C11 C 0.16348(19) -0.1695(2) 0.53192(14)
H11 H 0.1673 -0.2437 0.5515
C12 C 0.09079(18) -0.1216(3) 0.50018(13)
H12 H 0.0454 -0.1631 0.4984
C13 C 0.08480(16) -0.0131(3) 0.47118(12)
H13 H 0.0352 0.0187 0.4493
C14 C 0.15157(16) 0.0496(2) 0.47400(12)
H14 H 0.1473 0.1237 0.4543
C15 C 0.40901(15) -0.0003(2) 0.39554(12)
H15 H 0.4024 0.0831 0.3826
H16 H 0.4589 -0.0085 0.4298
C16 C 0.40863(16) -0.0787(2) 0.34146(12)
C17 C 0.47358(15) -0.0635(2) 0.31676(11)
C18 C 0.52261(16) 0.0355(2) 0.32960(12)
H17 H 0.5150 0.0966 0.3548
C19 C 0.58277(16) 0.0451(3) 0.30560(13)
H18 H 0.6147 0.1129 0.3146
C20 C 0.59644(16) -0.0438(3) 0.26862(12)
C21 C 0.54818(18) -0.1431(3) 0.25661(12)
H19 H 0.5569 -0.2051 0.2325
C22 C 0.48737(16) -0.1529(2) 0.27943(12)
H20 H 0.4550 -0.2204 0.2697
C23 C 0.66293(16) -0.0341(3) 0.24347(13)
H21 H 0.6804 -0.1131 0.2375
H22 H 0.7060 0.0093 0.2727
H23 H 0.6449 0.0076 0.2042
S2 S 0.69816(4) 0.38569(6) 0.35868(4)
O2 O 0.59219(11) 0.28614(16) 0.40730(9)
N6 N 0.96910(16) 0.6437(2) 0.28751(12)
N7 N 0.90007(15) 0.6653(2) 0.23968(12)
N8 N 0.73172(14) 0.63462(18) 0.25143(11)
N9 N 0.69147(13) 0.58981(19) 0.28943(11)
N10 N 0.78701(12) 0.46373(19) 0.29227(10)
C24 C 1.0881(2) 0.7580(3) 0.34567(15)
H24 H 1.0963 0.6932 0.3750
H25 H 1.0924 0.8331 0.3672
H26 H 1.1273 0.7545 0.3261
C25 C 1.0072(2) 0.7475(3) 0.29655(15)
C26 C 0.9626(2) 0.8340(3) 0.25584(16)
H27 H 0.9768 0.9137 0.2537
C27 C 0.8944(2) 0.7807(3) 0.21957(15)
C28 C 0.8236(2) 0.8260(3) 0.16782(15)
H28 H 0.8276 0.9115 0.1643
H29 H 0.7768 0.8070 0.1767
H30 H 0.8210 0.7887 0.1292
C29 C 0.84334(17) 0.5688(2) 0.21878(13)
H31 H 0.8717 0.4936 0.2227
H32 H 0.8130 0.5806 0.1748
C30 C 0.78746(16) 0.5586(2) 0.25396(13)
C31 C 0.72519(16) 0.4878(2) 0.31217(12)
C32 C 0.83777(17) 0.3599(2) 0.30724(13)
C33 C 0.81094(17) 0.2537(2) 0.27771(13)
H33 H 0.7600 0.2476 0.2486
C34 C 0.8609(2) 0.1549(3) 0.29176(15)
H34 H 0.8433 0.0818 0.2721
C35 C 0.9359(2) 0.1645(3) 0.33434(15)
H35 H 0.9694 0.0983 0.3433
C36 C 0.96123(18) 0.2710(3) 0.36352(14)
H36 H 1.0120 0.2773 0.3928
C37 C 0.91229(18) 0.3696(3) 0.35005(14)
H37 H 0.9299 0.4424 0.3700
C38 C 0.62203(14) 0.4731(2) 0.37239(12)
H38 H 0.6455 0.5362 0.4025
H39 H 0.5887 0.5102 0.3337
C39 C 0.57331(16) 0.3910(2) 0.39735(11)
C40 C 0.50403(15) 0.4426(2) 0.40827(11)
C41 C 0.48603(17) 0.5638(2) 0.40202(12)
H40 H 0.5182 0.6162 0.3899
C42 C 0.42141(18) 0.6075(3) 0.41340(13)
H41 H 0.4113 0.6896 0.4097
C43 C 0.37113(17) 0.5340(3) 0.43012(12)
C44 C 0.38958(18) 0.4136(3) 0.43717(13)
H42 H 0.3571 0.3616 0.4491
C45 C 0.45497(17) 0.3687(2) 0.42692(12)
H43 H 0.4663 0.2872 0.4327
C46 C 0.29998(17) 0.5834(3) 0.44116(14)
H44 H 0.3129 0.6595 0.4621
H45 H 0.2835 0.5286 0.4667
H46 H 0.2580 0.5940 0.4018
loop_
_geom_bond_atom_site_label_1
_geom_bond_atom_site_label_2
_geom_bond_site_symmetry_1
_geom_bond_site_symmetry_2
S1 C8 1_555 1_555
S2 C31 1_555 1_555
O1 C16 1_555 1_555
O2 C39 1_555 1_555
N1 N2 1_555 1_555
N2 C4 1_555 1_555
N3 N4 1_555 1_555
N4 C8 1_555 1_555
N5 C7 1_555 1_555
N6 N7 1_555 1_555
N7 C27 1_555 1_555
N8 N9 1_555 1_555
N9 C31 1_555 1_555
N10 C30 1_555 1_555
C1 H1 1_555 1_555
H2 C1 1_555 1_555
H3 C1 1_555 1_555
C2 N1 1_555 1_555
C3 C2 1_555 1_555
H4 C3 1_555 1_555
C4 C3 1_555 1_555
C5 C4 1_555 1_555
H5 C5 1_555 1_555
H6 C5 1_555 1_555
H7 C5 1_555 1_555
C6 N2 1_555 1_555
H8 C6 1_555 1_555
H9 C6 1_555 1_555
C7 N3 1_555 1_555
C8 N5 1_555 1_555
C9 N5 1_555 1_555
C10 C9 1_555 1_555
H10 C10 1_555 1_555
C11 C10 1_555 1_555
H11 C11 1_555 1_555
C12 C11 1_555 1_555
H12 C12 1_555 1_555
C13 C12 1_555 1_555
H13 C13 1_555 1_555
C14 C9 1_555 1_555
H14 C14 1_555 1_555
C15 S1 1_555 1_555
H15 C15 1_555 1_555
H16 C15 1_555 1_555
C16 C15 1_555 1_555
C17 C16 1_555 1_555
C18 C17 1_555 1_555
H17 C18 1_555 1_555
C19 C18 1_555 1_555
H18 C19 1_555 1_555
C20 C19 1_555 1_555
C21 C20 1_555 1_555
H19 C21 1_555 1_555
C22 C17 1_555 1_555
H20 C22 1_555 1_555
C23 C20 1_555 1_555
H21 C23 1_555 1_555
H22 C23 1_555 1_555
H23 C23 1_555 1_555
C24 H24 1_555 1_555
H25 C24 1_555 1_555
H26 C24 1_555 1_555
C25 N6 1_555 1_555
C26 C25 1_555 1_555
H27 C26 1_555 1_555
C27 C26 1_555 1_555
C28 C27 1_555 1_555
H28 C28 1_555 1_555
H29 C28 1_555 1_555
H30 C28 1_555 1_555
C29 N7 1_555 1_555
H31 C29 1_555 1_555
H32 C29 1_555 1_555
C30 N8 1_555 1_555
C31 N10 1_555 1_555
C32 N10 1_555 1_555
C33 C32 1_555 1_555
H33 C33 1_555 1_555
C34 C33 1_555 1_555
H34 C34 1_555 1_555
C35 C34 1_555 1_555
H35 C35 1_555 1_555
C36 C35 1_555 1_555
H36 C36 1_555 1_555
C37 C32 1_555 1_555
H37 C37 1_555 1_555
C38 S2 1_555 1_555
H38 C38 1_555 1_555
H39 C38 1_555 1_555
C39 C38 1_555 1_555
C40 C39 1_555 1_555
C41 C40 1_555 1_555
H40 C41 1_555 1_555
C42 C41 1_555 1_555
H41 C42 1_555 1_555
C43 C42 1_555 1_555
C44 C43 1_555 1_555
H42 C44 1_555 1_555
C45 C40 1_555 1_555
H43 C45 1_555 1_555
C46 C43 1_555 1_555
H44 C46 1_555 1_555
H45 C46 1_555 1_555
H46 C46 1_555 1_555
C1 C2 1_555 1_555
C6 C7 1_555 1_555
C13 C14 1_555 1_555
C21 C22 1_555 1_555
C24 C25 1_555 1_555
C29 C30 1_555 1_555
C36 C37 1_555 1_555
C44 C45 1_555 1_555

#END
