
#######################################################################
#
#                 Cambridge Crystallographic Data Centre
#                                CCDC 
#
#######################################################################
#
# If this CIF has been generated from an entry in the Cambridge 
# Structural Database, then it will include bibliographic, chemical, 
# crystal, experimental, refinement or atomic coordinate data resulting 
# from the CCDC's data processing and validation procedures.
#
#######################################################################

data_OMINAB01
_chemical_compound_source        'leaves of Rhodomyrtus tomentosa'
_chemical_name_common            'tomentodione A'
_chemical_formula_moiety         'C30 H46 O3'
_chemical_name_systematic        
10-isobutyl-2,2,4a,6,6,8,8-heptamethyl-13-methylene-2,2a,3,4,4a,6,10,10a,11,12,13,13a-dodecahydrocyclobuta[6,7]cyclonona[1,2-b]chromene-7,9(1H,8H)-dione
_symmetry_cell_setting           orthorhombic
_symmetry_space_group_name_H-M   'P 21 21 21'
_symmetry_Int_Tables_number      19
_space_group_name_Hall           'P 2ac 2ab'
loop_
_symmetry_equiv_pos_site_id
_symmetry_equiv_pos_as_xyz
1 x,y,z
2 1/2-x,-y,1/2+z
3 1/2+x,1/2-y,-z
4 -x,1/2+y,1/2-z
_cell_length_a                   9.91040(10)
_cell_length_b                   10.84180(10)
_cell_length_c                   26.6369(2)
_cell_angle_alpha                90
_cell_angle_beta                 90
_cell_angle_gamma                90
_cell_volume                     2862.04
_exptl_crystal_colour            colorless
_exptl_crystal_description       block
_chemical_melting_point          '109-112 deg.C'
_cell_formula_units_Z            4
_exptl_crystal_recrystallization_method methanol/water
loop_
_atom_site_label
_atom_site_type_symbol
_atom_site_fract_x
_atom_site_fract_y
_atom_site_fract_z
O1 O 0.9159(3) 1.0030(2) 0.85378(10)
O2 O 0.9716(5) 1.3654(3) 0.94522(11)
C1 C 0.8298(5) 1.1387(4) 0.94066(14)
H1 H 0.8846 1.1394 0.9713
C2 C 0.7881(4) 1.0027(4) 0.93182(14)
H2 H 0.7054 1.0035 0.9117
C3 C 1.0138(5) 1.1699(4) 0.81073(14)
C4 C 0.8952(4) 0.9346(3) 0.90152(17)
C5 C 0.8597(5) 0.8056(4) 0.8827(2)
H3 H 0.9414 0.7700 0.8689
H4 H 0.8356 0.7565 0.9118
C6 C 0.9189(4) 1.1896(3) 0.89906(13)
C7 C 0.7524(6) 0.9452(5) 0.98317(16)
H5 H 0.8363 0.9264 1.0003
H6 H 0.7064 1.0076 1.0029
C8 C 0.7492(5) 0.7884(4) 0.8441(2)
H7 H 0.7745 0.8355 0.8146
H8 H 0.7494 0.7022 0.8344
C9 C 0.9478(4) 1.1237(3) 0.85807(13)
C10 C 1.0632(6) 1.3022(4) 0.81637(17)
C11 C 0.6052(4) 0.8225(4) 0.85696(16)
H9 H 0.5993 0.9127 0.8583
C12 C 0.9777(5) 1.3110(4) 0.90572(14)
C13 C 0.7079(6) 1.2222(5) 0.95110(18)
H10 H 0.6397 1.1729 0.9678
H11 H 0.7362 1.2855 0.9746
C14 C 0.6656(7) 0.8290(5) 0.98365(19)
H12 H 0.7190 0.7608 0.9710
H13 H 0.6418 0.8102 1.0181
C15 C 1.1350(6) 1.0896(5) 0.7966(2)
H14 H 1.1753 1.1206 0.7664
H15 H 1.1057 1.0062 0.7914
H16 H 1.2002 1.0917 0.8233
C16 C 1.0321(5) 0.9307(5) 0.9287(2)
H17 H 1.0962 0.8866 0.9086
H18 H 1.0217 0.8897 0.9605
H19 H 1.0637 1.0133 0.9342
O3 O 1.1079(9) 1.3527(4) 0.78107(16)
C17 C 1.0523(6) 1.3699(4) 0.86313(18)
C18 C 0.4878(6) 0.7748(5) 0.8238(2)
C19 C 0.5341(6) 0.7698(5) 0.90431(19)
H20 H 0.5651 0.6850 0.9096
C20 C 0.9097(7) 1.1656(6) 0.76828(16)
H21 H 0.9499 1.1958 0.7379
H22 H 0.8337 1.2162 0.7769
H23 H 0.8803 1.0821 0.7634
C21 C 0.4362(8) 0.8997(7) 0.9704(2)
H24 H 0.4409 0.9392 1.0013
H25 H 0.3577 0.9046 0.9513
C22 C 0.6436(7) 1.2840(7) 0.9079(3)
H26 H 0.7152 1.3250 0.8888
C23 C 0.5399(7) 0.8374(5) 0.9536(2)
C24 C 0.5108(7) 0.6471(5) 0.8013(2)
H27 H 0.4344 0.6245 0.7811
H28 H 0.5221 0.5880 0.8278
H29 H 0.5904 0.6483 0.7807
C25 C 0.5773(10) 1.2057(7) 0.8755(4)
H30 H 0.5372 1.2527 0.8489
H31 H 0.5081 1.1621 0.8935
H32 H 0.6404 1.1477 0.8617
C26 C 0.4418(8) 0.8652(7) 0.7830(3)
H33 H 0.4277 0.9451 0.7976
H34 H 0.3590 0.8364 0.7684
H35 H 0.5098 0.8707 0.7575
C27 C 0.4062(6) 0.7667(7) 0.8726(2)
H36 H 0.3478 0.8372 0.8780
H37 H 0.3560 0.6903 0.8758
C28 C 0.5476(9) 1.3865(8) 0.9283(4)
H38 H 0.5948 1.4356 0.9526
H39 H 0.4704 1.3489 0.9438
H40 H 0.5186 1.4380 0.9010
C29 C 1.0485(19) 1.5085(6) 0.8635(5)
H41 H 1.0422 1.5373 0.8975
H42 H 0.9716 1.5366 0.8448
H43 H 1.1295 1.5401 0.8484
C30 C 1.1996(9) 1.3442(14) 0.8817(5)
H44 H 1.2136 1.3839 0.9135
H45 H 1.2628 1.3761 0.8577
H46 H 1.2127 1.2569 0.8853
C31? C 0.9376(11) 1.4573(11) 0.8428(5)
H47? H 0.9123 1.5149 0.8685
H48? H 0.8605 1.4088 0.8334
H49? H 0.9701 1.5015 0.8140
C32? C 1.1500(18) 1.4731(16) 0.8739(6)
H50? H 1.1315 1.5071 0.9064
H51? H 1.1404 1.5362 0.8489
H52? H 1.2406 1.4416 0.8732
loop_
_geom_bond_atom_site_label_1
_geom_bond_atom_site_label_2
_geom_bond_site_symmetry_1
_geom_bond_site_symmetry_2
O1 C4 1_555 1_555
O2 C12 1_555 1_555
C1 H1 1_555 1_555
C2 C1 1_555 1_555
H2 C2 1_555 1_555
C3 C9 1_555 1_555
C4 C2 1_555 1_555
C5 C4 1_555 1_555
H3 C5 1_555 1_555
H4 C5 1_555 1_555
C6 C1 1_555 1_555
C7 C2 1_555 1_555
H5 C7 1_555 1_555
H6 C7 1_555 1_555
C8 C5 1_555 1_555
H7 C8 1_555 1_555
H8 C8 1_555 1_555
C9 O1 1_555 1_555
C10 C3 1_555 1_555
C11 C8 1_555 1_555
H9 C11 1_555 1_555
C12 C6 1_555 1_555
C13 C1 1_555 1_555
H10 C13 1_555 1_555
H11 C13 1_555 1_555
C14 C7 1_555 1_555
H12 C14 1_555 1_555
H13 C14 1_555 1_555
C15 C3 1_555 1_555
H14 C15 1_555 1_555
H15 C15 1_555 1_555
H16 C15 1_555 1_555
C16 C4 1_555 1_555
H17 C16 1_555 1_555
H18 C16 1_555 1_555
H19 C16 1_555 1_555
O3 C10 1_555 1_555
C17 C10 1_555 1_555
C18 C11 1_555 1_555
C19 C11 1_555 1_555
H20 C19 1_555 1_555
C20 C3 1_555 1_555
H21 C20 1_555 1_555
H22 C20 1_555 1_555
H23 C20 1_555 1_555
C21 H24 1_555 1_555
H25 C21 1_555 1_555
C22 C13 1_555 1_555
H26 C22 1_555 1_555
C23 C14 1_555 1_555
C24 C18 1_555 1_555
H27 C24 1_555 1_555
H28 C24 1_555 1_555
H29 C24 1_555 1_555
C25 C22 1_555 1_555
H30 C25 1_555 1_555
H31 C25 1_555 1_555
H32 C25 1_555 1_555
C26 C18 1_555 1_555
H33 C26 1_555 1_555
H34 C26 1_555 1_555
H35 C26 1_555 1_555
C27 C18 1_555 1_555
H36 C27 1_555 1_555
H37 C27 1_555 1_555
C28 C22 1_555 1_555
H38 C28 1_555 1_555
H39 C28 1_555 1_555
H40 C28 1_555 1_555
C29 C17 1_555 1_555
H41 C29 1_555 1_555
H42 C29 1_555 1_555
H43 C29 1_555 1_555
C30 C17 1_555 1_555
H44 C30 1_555 1_555
H45 C30 1_555 1_555
H46 C30 1_555 1_555
C6 C9 1_555 1_555
C12 C17 1_555 1_555
C19 C23 1_555 1_555
C19 C27 1_555 1_555
C21 C23 1_555 1_555

#END
