
#######################################################################
#
#                 Cambridge Crystallographic Data Centre
#                                CCDC 
#
#######################################################################
#
# If this CIF has been generated from an entry in the Cambridge 
# Structural Database, then it will include bibliographic, chemical, 
# crystal, experimental, refinement or atomic coordinate data resulting 
# from the CCDC's data processing and validation procedures.
#
#######################################################################

data_OMINAA
_chemical_formula_moiety         'C52 H38 N4 O4'
_chemical_name_systematic        
'3,22-bis(2-Methoxyethoxy)-9,16,28,35-tetraazatridecacyclo[22.14.6.6^5,20^.0^2,23^.0^4,21^.0^6,19^.0^8,17^.0^10,15^.0^25,38^.0^27,36^.0^29,34^.0^39,44^.0^45,50^]pentaconta-2(23),3,6(19),7,9,11,13,15,17,21,25(38),26,28,30,32,34,36,39,41,43,45,47,49-tricosaene unknown solvate'
_symmetry_cell_setting           triclinic
_symmetry_space_group_name_H-M   'P -1'
_symmetry_Int_Tables_number      2
_space_group_name_Hall           '-P 1'
loop_
_symmetry_equiv_pos_site_id
_symmetry_equiv_pos_as_xyz
1 x,y,z
2 -x,-y,-z
_cell_length_a                   9.780(4)
_cell_length_b                   14.434(4)
_cell_length_c                   21.796(7)
_cell_angle_alpha                72.708(11)
_cell_angle_beta                 86.307(12)
_cell_angle_gamma                87.862(13)
_cell_volume                     2931.12
_exptl_crystal_colour            yellow
_exptl_crystal_description       platelet
_chemical_melting_point          'above 300 deg.C'
_cell_formula_units_Z            2
loop_
_atom_site_label
_atom_site_type_symbol
_atom_site_fract_x
_atom_site_fract_y
_atom_site_fract_z
O1 O 0.47044(19) 0.16111(13) 0.29739(9)
O2 O 0.2641(3) 0.2872(2) 0.21435(14)
O3 O 0.8173(2) -0.09444(14) 0.20789(9)
N1 N 1.1182(3) 0.3554(2) 0.05851(14)
N2 N 0.9451(3) 0.4771(2) 0.11128(15)
N3 N 1.0081(2) -0.19331(17) 0.51328(12)
N4 N 0.8504(2) -0.05062(17) 0.55345(11)
C1 C 1.1126(4) 0.6011(3) 0.0765(3)
H1 H 1.0563 0.6417 0.0952
C2 C 1.2336(5) 0.6354(3) 0.0460(3)
H2 H 1.2625 0.6983 0.0443
C3 C 1.3148(5) 0.5773(4) 0.0173(2)
H3 H 1.3978 0.6032 -0.0053
C4 C 1.2815(4) 0.4824(3) 0.0195(2)
H4 H 1.3394 0.4437 -0.0001
C5 C 1.1533(3) 0.4479(3) 0.05366(18)
C6 C 1.0668(4) 0.5079(3) 0.0815(2)
C7 C 0.9965(3) 0.3268(3) 0.08931(15)
C8 C 0.9551(3) 0.2285(2) 0.09446(15)
H5 H 1.0167 0.1852 0.0807
C9 C 0.8271(3) 0.1999(2) 0.11917(13)
C10 C 0.7347(3) 0.2647(2) 0.14183(13)
C11 C 0.7746(3) 0.3537(2) 0.14151(14)
H6 H 0.7148 0.3938 0.1592
C12 C 0.9063(3) 0.3868(2) 0.11467(16)
C13 C 0.7598(3) 0.1048(2) 0.12161(14)
H7 H 0.8230 0.0595 0.1061
C14 C 0.7023(3) 0.06095(19) 0.19144(13)
C15 C 0.6146(3) 0.1242(2) 0.21294(13)
C16 C 0.5929(3) 0.22250(19) 0.16228(13)
H8 H 0.5279 0.2669 0.1778
C17 C 0.6348(3) 0.1360(2) 0.08179(13)
C18 C 0.5455(3) 0.1985(2) 0.10380(14)
C19 C 0.4249(3) 0.2338(2) 0.07287(15)
H9 H 0.3632 0.2751 0.0885
C20 C 0.3974(4) 0.2068(3) 0.01872(18)
H10 H 0.3172 0.2312 -0.0036
C21 C 0.4870(4) 0.1443(3) -0.00312(18)
H11 H 0.4663 0.1263 -0.0399
C22 C 0.6054(4) 0.1083(3) 0.02798(16)
H12 H 0.6655 0.0655 0.0130
C23 C 0.7275(3) -0.0327(2) 0.22999(13)
C24 C 0.6656(3) -0.0613(2) 0.29167(14)
C25 C 0.5801(3) 0.00296(19) 0.31436(13)
C26 C 0.5522(3) 0.09627(19) 0.27539(13)
C27 C 0.6834(3) -0.1612(2) 0.34140(13)
H13 H 0.7427 -0.2072 0.3245
C28 C 0.7411(3) -0.13936(19) 0.39909(13)
C29 C 0.6563(3) -0.0716(2) 0.42253(13)
C30 C 0.5267(3) -0.04034(19) 0.38452(13)
H14 H 0.4661 0.0056 0.4007
C31 C 0.5402(3) -0.1985(2) 0.36361(13)
C32 C 0.4906(3) -0.2877(2) 0.36354(15)
H15 H 0.5469 -0.3318 0.3479
C33 C 0.3552(4) -0.3108(3) 0.38715(17)
H16 H 0.3185 -0.3705 0.3865
C34 C 0.2751(3) -0.2479(2) 0.41127(17)
H17 H 0.1849 -0.2661 0.4283
C35 C 0.3228(3) -0.1583(2) 0.41137(15)
H18 H 0.2656 -0.1148 0.4271
C36 C 0.4562(3) -0.1340(2) 0.38784(13)
C37 C 0.8560(3) -0.17846(19) 0.42851(13)
H19 H 0.9098 -0.2241 0.4133
C38 C 0.8964(3) -0.1514(2) 0.48223(14)
C39 C 0.8153(3) -0.0797(2) 0.50382(13)
C40 C 0.6935(3) -0.0404(2) 0.47212(13)
H20 H 0.6392 0.0068 0.4854
C41 C 1.0413(3) -0.1654(2) 0.56360(15)
C42 C 1.1563(3) -0.2101(3) 0.59944(17)
H21 H 1.2096 -0.2585 0.5868
C43 C 1.1891(3) -0.1840(3) 0.65082(18)
H22 H 1.2653 -0.2147 0.6743
C44 C 1.1123(3) -0.1111(3) 0.67095(16)
H23 H 1.1375 -0.0943 0.7076
C45 C 1.0030(3) -0.0654(2) 0.63798(15)
H24 H 0.9540 -0.0154 0.6507
C46 C 0.9628(3) -0.0933(2) 0.58411(14)
C47 C 0.3269(3) 0.1447(2) 0.30065(16)
H25 H 0.2808 0.1749 0.3319
H26 H 0.3113 0.0740 0.3169
C48 C 0.2630(4) 0.1842(3) 0.23759(17)
H27 H 0.3129 0.1573 0.2055
H28 H 0.1671 0.1624 0.2422
C49 C 0.1566(5) 0.3348(4) 0.2413(2)
H29 H 0.1665 0.4052 0.2239
H30 H 0.1615 0.3156 0.2882
H31 H 0.0679 0.3164 0.2305
O4 O 0.9039(7) -0.1000(5) 0.0791(3)
C50 C 0.7459(7) -0.1451(5) 0.1712(3)
H32 H 0.6792 -0.1009 0.1439
H33 H 0.6959 -0.2010 0.2005
C51 C 0.8552(5) -0.1798(3) 0.1295(2)
H34 H 0.9319 -0.2118 0.1560
H35 H 0.8158 -0.2278 0.1116
C52 C 1.0114(12) -0.1254(8) 0.0416(5)
H36 H 1.0423 -0.0675 0.0077
H37 H 0.9800 -0.1732 0.0221
H38 H 1.0876 -0.1533 0.0688
C53? C 0.776(2) -0.1761(10) 0.1914(8)
C54? C 0.7329(14) -0.1340(10) 0.1245(7)
C55? C 0.9336(17) -0.1307(15) 0.0381(10)
H39? H 0.6995 -0.2089 0.2205
H40? H 0.8535 -0.2230 0.1931
H41? H 0.6854 -0.1847 0.1122
H42? H 0.6654 -0.0809 0.1240
H43? H 0.9936 -0.0777 0.0140
H44? H 0.8854 -0.1546 0.0080
H45? H 0.9888 -0.1836 0.0649
O5? O 0.8386(12) -0.0969(10) 0.0771(6)
loop_
_geom_bond_atom_site_label_1
_geom_bond_atom_site_label_2
_geom_bond_site_symmetry_1
_geom_bond_site_symmetry_2
O1 C26 1_555 1_555
O2 C48 1_555 1_555
O3 C23 1_555 1_555
N1 C5 1_555 1_555
N2 C6 1_555 1_555
N3 C38 1_555 1_555
N4 C39 1_555 1_555
C1 H1 1_555 1_555
C2 C1 1_555 1_555
H2 C2 1_555 1_555
C3 C2 1_555 1_555
H3 C3 1_555 1_555
C4 C3 1_555 1_555
H4 C4 1_555 1_555
C5 C4 1_555 1_555
C6 C1 1_555 1_555
C7 N1 1_555 1_555
C8 C7 1_555 1_555
H5 C8 1_555 1_555
C9 C8 1_555 1_555
C10 C9 1_555 1_555
C11 C10 1_555 1_555
H6 C11 1_555 1_555
C12 N2 1_555 1_555
C13 C9 1_555 1_555
H7 C13 1_555 1_555
C14 C13 1_555 1_555
C15 C14 1_555 1_555
C16 C10 1_555 1_555
H8 C16 1_555 1_555
C17 C13 1_555 1_555
C18 C16 1_555 1_555
C19 C18 1_555 1_555
H9 C19 1_555 1_555
C20 C19 1_555 1_555
H10 C20 1_555 1_555
C21 C20 1_555 1_555
H11 C21 1_555 1_555
C22 C17 1_555 1_555
H12 C22 1_555 1_555
C23 C14 1_555 1_555
C24 C23 1_555 1_555
C25 C24 1_555 1_555
C26 C15 1_555 1_555
C27 C24 1_555 1_555
H13 C27 1_555 1_555
C28 C27 1_555 1_555
C29 C28 1_555 1_555
C30 C25 1_555 1_555
H14 C30 1_555 1_555
C31 C27 1_555 1_555
C32 C31 1_555 1_555
H15 C32 1_555 1_555
C33 C32 1_555 1_555
H16 C33 1_555 1_555
C34 C33 1_555 1_555
H17 C34 1_555 1_555
C35 C34 1_555 1_555
H18 C35 1_555 1_555
C36 C30 1_555 1_555
C37 C28 1_555 1_555
H19 C37 1_555 1_555
C38 C37 1_555 1_555
C39 C38 1_555 1_555
C40 C29 1_555 1_555
H20 C40 1_555 1_555
C41 N3 1_555 1_555
C42 C41 1_555 1_555
H21 C42 1_555 1_555
C43 C42 1_555 1_555
H22 C43 1_555 1_555
C44 C43 1_555 1_555
H23 C44 1_555 1_555
C45 C44 1_555 1_555
H24 C45 1_555 1_555
C46 N4 1_555 1_555
C47 O1 1_555 1_555
H25 C47 1_555 1_555
H26 C47 1_555 1_555
C48 C47 1_555 1_555
H27 C48 1_555 1_555
H28 C48 1_555 1_555
C49 O2 1_555 1_555
H29 C49 1_555 1_555
H30 C49 1_555 1_555
H31 C49 1_555 1_555
O4 C51 1_555 1_555
C50 O3 1_555 1_555
H32 C50 1_555 1_555
H33 C50 1_555 1_555
C51 C50 1_555 1_555
H34 C51 1_555 1_555
H35 C51 1_555 1_555
C52 O4 1_555 1_555
H36 C52 1_555 1_555
H37 C52 1_555 1_555
H38 C52 1_555 1_555
C5 C6 1_555 1_555
C7 C12 1_555 1_555
C11 C12 1_555 1_555
C15 C16 1_555 1_555
C17 C18 1_555 1_555
C21 C22 1_555 1_555
C25 C26 1_555 1_555
C29 C30 1_555 1_555
C31 C36 1_555 1_555
C35 C36 1_555 1_555
C39 C40 1_555 1_555
C41 C46 1_555 1_555
C45 C46 1_555 1_555

#END
