
#######################################################################
#
#                 Cambridge Crystallographic Data Centre
#                                CCDC 
#
#######################################################################
#
# If this CIF has been generated from an entry in the Cambridge 
# Structural Database, then it will include bibliographic, chemical, 
# crystal, experimental, refinement or atomic coordinate data resulting 
# from the CCDC's data processing and validation procedures.
#
#######################################################################

data_OMIPUW
_chemical_formula_moiety         'C28 H21 N1 O1'
_chemical_name_systematic        
2-(4-Methylphenyl)-3,4-diphenylisoquinolin-1(2H)-one
_symmetry_cell_setting           monoclinic
_symmetry_space_group_name_H-M   'P 21/c'
_symmetry_Int_Tables_number      14
_space_group_name_Hall           '-P 2ybc'
loop_
_symmetry_equiv_pos_site_id
_symmetry_equiv_pos_as_xyz
1 x,y,z
2 -x,1/2+y,1/2-z
3 -x,-y,-z
4 x,1/2-y,1/2+z
_cell_length_a                   9.5174(9)
_cell_length_b                   23.507(2)
_cell_length_c                   18.6244(16)
_cell_angle_alpha                90
_cell_angle_beta                 99.913(2)
_cell_angle_gamma                90
_cell_volume                     4104.55
_exptl_crystal_colour            colorless
_exptl_crystal_description       block
_cell_formula_units_Z            8
loop_
_atom_site_label
_atom_site_type_symbol
_atom_site_fract_x
_atom_site_fract_y
_atom_site_fract_z
O1 O 0.1297(3) 0.34237(10) 0.97740(12)
N1 N 0.0575(3) 0.31943(11) 0.85774(14)
C1 C 0.0825(4) 0.25993(14) 0.87383(17)
C2 C 0.0033(4) 0.23128(15) 0.91729(17)
H1 H -0.0601 0.2514 0.9423
C3 C 0.0168(4) 0.17276(15) 0.92428(18)
H2 H -0.0375 0.1531 0.9547
C4 C 0.1073(4) 0.14226(14) 0.88805(18)
C5 C 0.1918(4) 0.17219(14) 0.84704(18)
H3 H 0.2578 0.1525 0.8233
C6 C 0.1795(4) 0.23083(14) 0.84092(18)
H4 H 0.2387 0.2511 0.8137
C7 C 0.1129(4) 0.07837(15) 0.89085(19)
H5 H 0.0467 0.0644 0.9217
H6 H 0.2100 0.0661 0.9112
H7 H 0.0857 0.0630 0.8415
C8 C 0.0924(4) 0.35891(15) 0.91425(19)
C9 C 0.0084(4) 0.33561(14) 0.78430(17)
C10 C 0.0010(3) 0.39082(14) 0.76478(17)
C11 C 0.0436(4) 0.43441(14) 0.81947(18)
C12 C 0.0842(4) 0.41831(14) 0.89295(17)
C13 C 0.1245(4) 0.46021(16) 0.94603(19)
H8 H 0.1536 0.4493 0.9955
C14 C 0.1224(4) 0.51684(16) 0.9275(2)
H9 H 0.1502 0.5449 0.9639
C15 C 0.0794(4) 0.53294(16) 0.8552(2)
H10 H 0.0765 0.5721 0.8424
C16 C 0.0410(4) 0.49254(14) 0.80217(19)
H11 H 0.0122 0.5041 0.7530
C17 C -0.0537(4) 0.40713(13) 0.68735(17)
C18 C 0.0380(4) 0.42852(14) 0.64410(18)
H12 H 0.1358 0.4339 0.6643
C19 C -0.0104(4) 0.44233(14) 0.57163(18)
H13 H 0.0540 0.4567 0.5423
C20 C -0.1525(4) 0.43504(14) 0.54244(19)
H14 H -0.1864 0.4447 0.4930
C21 C -0.2455(4) 0.41368(15) 0.58500(18)
H15 H -0.3433 0.4086 0.5649
C22 C -0.1957(4) 0.39972(15) 0.65720(18)
H16 H -0.2599 0.3849 0.6863
C23 C -0.0337(4) 0.28844(13) 0.73177(17)
C24 C 0.0411(4) 0.27887(15) 0.67523(18)
H17 H 0.1181 0.3033 0.6697
C25 C 0.0057(4) 0.23458(16) 0.6269(2)
H18 H 0.0582 0.2282 0.5886
C26 C -0.1073(5) 0.19975(16) 0.6350(2)
H19 H -0.1311 0.1686 0.6026
C27 C -0.1859(4) 0.20929(16) 0.6890(2)
H20 H -0.2648 0.1855 0.6931
C28 C -0.1500(4) 0.25369(15) 0.73754(19)
H21 H -0.2046 0.2605 0.7748
O2 O 0.3364(3) 0.43741(10) 0.54886(12)
N2 N 0.4324(3) 0.46000(11) 0.66598(14)
C29 C 0.4182(4) 0.51922(14) 0.64616(17)
C30 C 0.5017(4) 0.54214(15) 0.59911(17)
H22 H 0.5661 0.5186 0.5789
C31 C 0.4908(4) 0.59918(15) 0.58181(18)
H23 H 0.5491 0.6147 0.5501
C32 C 0.3963(4) 0.63437(15) 0.60990(19)
C33 C 0.3130(4) 0.61082(15) 0.65641(19)
H24 H 0.2480 0.6343 0.6762
C34 C 0.3229(4) 0.55367(15) 0.67456(18)
H25 H 0.2648 0.5381 0.7063
C35 C 0.3857(4) 0.69649(15) 0.5884(2)
H26 H 0.3151 0.7153 0.6129
H27 H 0.3563 0.6996 0.5355
H28 H 0.4788 0.7147 0.6030
C36 C 0.3848(4) 0.42090(15) 0.61108(18)
C37 C 0.4847(3) 0.44378(14) 0.73819(17)
C38 C 0.4907(3) 0.38830(14) 0.75837(17)
C39 C 0.4460(4) 0.34508(14) 0.70427(18)
C40 C 0.3945(4) 0.36099(14) 0.63197(18)
C41 C 0.3474(4) 0.31926(16) 0.57920(19)
H29 H 0.3092 0.3305 0.5308
C42 C 0.3558(4) 0.26323(17) 0.5965(2)
H30 H 0.3239 0.2354 0.5605
C43 C 0.4116(4) 0.24665(16) 0.6677(2)
H31 H 0.4190 0.2073 0.6796
C44 C 0.4558(4) 0.28659(15) 0.72064(19)
H32 H 0.4934 0.2746 0.7688
C45 C 0.5384(4) 0.37157(14) 0.83608(18)
C46 C 0.4370(4) 0.35377(14) 0.87589(18)
H33 H 0.3396 0.3528 0.8534
C47 C 0.4745(4) 0.33738(15) 0.9476(2)
H34 H 0.4031 0.3260 0.9746
C48 C 0.6156(5) 0.33759(16) 0.9801(2)
H35 H 0.6419 0.3259 1.0294
C49 C 0.7187(4) 0.35471(15) 0.94117(19)
H36 H 0.8162 0.3546 0.9635
C50 C 0.6799(4) 0.37215(15) 0.86898(18)
H37 H 0.7509 0.3845 0.8424
C51 C 0.5338(4) 0.49084(14) 0.79088(17)
C52 C 0.4621(4) 0.50290(15) 0.84819(18)
H38 H 0.3815 0.4808 0.8543
C53 C 0.5066(5) 0.54652(17) 0.8961(2)
H39 H 0.4571 0.5542 0.9352
C54 C 0.6224(5) 0.57882(17) 0.8874(2)
H40 H 0.6523 0.6093 0.9200
C55 C 0.6955(4) 0.56710(16) 0.8313(2)
H41 H 0.7765 0.5892 0.8259
C56 C 0.6516(4) 0.52323(16) 0.7827(2)
H42 H 0.7021 0.5155 0.7440
loop_
_geom_bond_atom_site_label_1
_geom_bond_atom_site_label_2
_geom_bond_site_symmetry_1
_geom_bond_site_symmetry_2
O1 C8 1_555 1_555
O2 C36 1_555 1_555
N1 C1 1_555 1_555
N2 C29 1_555 1_555
C1 C2 1_555 1_555
C2 H1 1_555 1_555
C3 C2 1_555 1_555
H2 C3 1_555 1_555
C4 C3 1_555 1_555
C5 C4 1_555 1_555
H3 C5 1_555 1_555
C6 C1 1_555 1_555
H4 C6 1_555 1_555
C7 C4 1_555 1_555
H5 C7 1_555 1_555
H6 C7 1_555 1_555
H7 C7 1_555 1_555
C8 N1 1_555 1_555
C9 N1 1_555 1_555
C10 C9 1_555 1_555
C11 C10 1_555 1_555
C12 C8 1_555 1_555
C13 C12 1_555 1_555
H8 C13 1_555 1_555
C14 C13 1_555 1_555
H9 C14 1_555 1_555
C15 C14 1_555 1_555
H10 C15 1_555 1_555
C16 C11 1_555 1_555
H11 C16 1_555 1_555
C17 C10 1_555 1_555
C18 C17 1_555 1_555
H12 C18 1_555 1_555
C19 C18 1_555 1_555
H13 C19 1_555 1_555
C20 C19 1_555 1_555
H14 C20 1_555 1_555
C21 C20 1_555 1_555
H15 C21 1_555 1_555
C22 C17 1_555 1_555
H16 C22 1_555 1_555
C23 C9 1_555 1_555
C24 C23 1_555 1_555
H17 C24 1_555 1_555
C25 C24 1_555 1_555
H18 C25 1_555 1_555
C26 C25 1_555 1_555
H19 C26 1_555 1_555
C27 C26 1_555 1_555
H20 C27 1_555 1_555
C28 C23 1_555 1_555
H21 C28 1_555 1_555
C29 C30 1_555 1_555
C30 H22 1_555 1_555
C31 C30 1_555 1_555
H23 C31 1_555 1_555
C32 C31 1_555 1_555
C33 C32 1_555 1_555
H24 C33 1_555 1_555
C34 C29 1_555 1_555
H25 C34 1_555 1_555
C35 C32 1_555 1_555
H26 C35 1_555 1_555
H27 C35 1_555 1_555
H28 C35 1_555 1_555
C36 N2 1_555 1_555
C37 N2 1_555 1_555
C38 C37 1_555 1_555
C39 C38 1_555 1_555
C40 C36 1_555 1_555
C41 C40 1_555 1_555
H29 C41 1_555 1_555
C42 C41 1_555 1_555
H30 C42 1_555 1_555
C43 C42 1_555 1_555
H31 C43 1_555 1_555
C44 C39 1_555 1_555
H32 C44 1_555 1_555
C45 C38 1_555 1_555
C46 C45 1_555 1_555
H33 C46 1_555 1_555
C47 C46 1_555 1_555
H34 C47 1_555 1_555
C48 C47 1_555 1_555
H35 C48 1_555 1_555
C49 C48 1_555 1_555
H36 C49 1_555 1_555
C50 C45 1_555 1_555
H37 C50 1_555 1_555
C51 C37 1_555 1_555
C52 C51 1_555 1_555
H38 C52 1_555 1_555
C53 C52 1_555 1_555
H39 C53 1_555 1_555
C54 C53 1_555 1_555
H40 C54 1_555 1_555
C55 C54 1_555 1_555
H41 C55 1_555 1_555
C56 C51 1_555 1_555
H42 C56 1_555 1_555
C5 C6 1_555 1_555
C11 C12 1_555 1_555
C15 C16 1_555 1_555
C21 C22 1_555 1_555
C27 C28 1_555 1_555
C33 C34 1_555 1_555
C39 C40 1_555 1_555
C43 C44 1_555 1_555
C49 C50 1_555 1_555
C55 C56 1_555 1_555

#END
