
#######################################################################
#
#                 Cambridge Crystallographic Data Centre
#                                CCDC 
#
#######################################################################
#
# If this CIF has been generated from an entry in the Cambridge 
# Structural Database, then it will include bibliographic, chemical, 
# crystal, experimental, refinement or atomic coordinate data resulting 
# from the CCDC's data processing and validation procedures.
#
#######################################################################

data_OMIQAD
_chemical_formula_moiety         'C24 H21 N1 O1'
_chemical_name_systematic        2,3-Diphenyl-4-propylisoquinolin-1(2H)-one
_symmetry_cell_setting           monoclinic
_symmetry_space_group_name_H-M   'P 21/n'
_symmetry_Int_Tables_number      14
_space_group_name_Hall           '-P 2yn'
loop_
_symmetry_equiv_pos_site_id
_symmetry_equiv_pos_as_xyz
1 x,y,z
2 1/2-x,1/2+y,1/2-z
3 -x,-y,-z
4 1/2+x,1/2-y,1/2+z
_cell_length_a                   10.1836(11)
_cell_length_b                   15.7932(17)
_cell_length_c                   12.2948(13)
_cell_angle_alpha                90
_cell_angle_beta                 112.466(2)
_cell_angle_gamma                90
_cell_volume                     1827.32
_exptl_crystal_colour            colorless
_exptl_crystal_description       square
_cell_formula_units_Z            4
loop_
_atom_site_label
_atom_site_type_symbol
_atom_site_fract_x
_atom_site_fract_y
_atom_site_fract_z
O1 O 0.1707(2) 0.19518(12) 0.28581(16)
N1 N 0.2163(2) 0.11930(12) 0.45289(16)
C1 C 0.1948(3) 0.12624(16) 0.3351(2)
C2 C 0.2029(3) 0.04719(16) 0.2764(2)
C3 C 0.2343(2) -0.02974(15) 0.3383(2)
C4 C 0.2533(2) -0.03094(14) 0.4605(2)
C5 C 0.2441(2) 0.04191(14) 0.51388(19)
C6 C 0.2041(3) 0.19535(14) 0.5127(2)
C7 C 0.0718(3) 0.22213(19) 0.5010(3)
H1 H -0.0105 0.1931 0.4501
C8 C 0.0593(4) 0.2918(2) 0.5639(3)
H2 H -0.0322 0.3101 0.5576
C9 C 0.1765(4) 0.3347(2) 0.6351(3)
H3 H 0.1667 0.3824 0.6785
C10 C 0.3086(4) 0.30896(18) 0.6439(3)
H4 H 0.3905 0.3398 0.6916
C11 C 0.3231(3) 0.23798(16) 0.5832(2)
H5 H 0.4147 0.2191 0.5905
C12 C 0.2629(2) 0.04694(14) 0.6398(2)
C13 C 0.1455(3) 0.04668(16) 0.6718(2)
H6 H 0.0526 0.0404 0.6132
C14 C 0.1642(3) 0.05565(18) 0.7891(2)
H7 H 0.0841 0.0566 0.8107
C15 C 0.2983(3) 0.06313(19) 0.8734(2)
H8 H 0.3111 0.0697 0.9537
C16 C 0.4144(3) 0.06110(19) 0.8425(2)
H9 H 0.5074 0.0655 0.9014
C17 C 0.3959(3) 0.05269(16) 0.7256(2)
H10 H 0.4766 0.0509 0.7048
C18 C 0.2443(3) -0.10280(17) 0.2763(2)
H11 H 0.2676 -0.1555 0.3165
C19 C 0.2210(3) -0.09929(19) 0.1593(2)
H12 H 0.2295 -0.1493 0.1195
C20 C 0.1851(3) -0.0238(2) 0.0983(2)
H13 H 0.1657 -0.0223 0.0164
C21 C 0.1774(3) 0.04912(18) 0.1566(2)
H14 H 0.1545 0.1012 0.1149
C22 C 0.2797(3) -0.11440(16) 0.5263(2)
H15 H 0.2472 -0.1094 0.5924
H16 H 0.2219 -0.1589 0.4726
C23 C 0.4328(3) -0.14154(19) 0.5742(3)
H17 H 0.4882 -0.1042 0.6405
H18 H 0.4717 -0.1357 0.5121
C24 C 0.4483(4) -0.2344(2) 0.6172(4)
H19 H 0.5490 -0.2503 0.6490
H20 H 0.3958 -0.2717 0.5511
H21 H 0.4100 -0.2402 0.6788
loop_
_geom_bond_atom_site_label_1
_geom_bond_atom_site_label_2
_geom_bond_site_symmetry_1
_geom_bond_site_symmetry_2
O1 C1 1_555 1_555
N1 C1 1_555 1_555
C1 C2 1_555 1_555
C2 C3 1_555 1_555
C3 C4 1_555 1_555
C4 C5 1_555 1_555
C5 N1 1_555 1_555
C6 N1 1_555 1_555
C7 C6 1_555 1_555
H1 C7 1_555 1_555
C8 C7 1_555 1_555
H2 C8 1_555 1_555
C9 C8 1_555 1_555
H3 C9 1_555 1_555
C10 C9 1_555 1_555
H4 C10 1_555 1_555
C11 C6 1_555 1_555
H5 C11 1_555 1_555
C12 C5 1_555 1_555
C13 C12 1_555 1_555
H6 C13 1_555 1_555
C14 C13 1_555 1_555
H7 C14 1_555 1_555
C15 C14 1_555 1_555
H8 C15 1_555 1_555
C16 C15 1_555 1_555
H9 C16 1_555 1_555
C17 C12 1_555 1_555
H10 C17 1_555 1_555
C18 C3 1_555 1_555
H11 C18 1_555 1_555
C19 C18 1_555 1_555
H12 C19 1_555 1_555
C20 C19 1_555 1_555
H13 C20 1_555 1_555
C21 C2 1_555 1_555
H14 C21 1_555 1_555
C22 C4 1_555 1_555
H15 C22 1_555 1_555
H16 C22 1_555 1_555
C23 C22 1_555 1_555
H17 C23 1_555 1_555
H18 C23 1_555 1_555
C24 C23 1_555 1_555
H19 C24 1_555 1_555
H20 C24 1_555 1_555
H21 C24 1_555 1_555
C10 C11 1_555 1_555
C16 C17 1_555 1_555
C20 C21 1_555 1_555

#END
