
#######################################################################
#
#                 Cambridge Crystallographic Data Centre
#                                CCDC 
#
#######################################################################
#
# If this CIF has been generated from an entry in the Cambridge 
# Structural Database, then it will include bibliographic, chemical, 
# crystal, experimental, refinement or atomic coordinate data resulting 
# from the CCDC's data processing and validation procedures.
#
#######################################################################

data_OMITIP
_chemical_name_common            '2 -Deoxy-1 -beta-triazolylnitrobenezene'
_chemical_formula_moiety         'C13 H14 N4 O5'
_chemical_name_systematic        
2-(Hydroxymethyl)-5-(4-(4-nitrophenyl)-1H-1,2,3-triazol-1-yl)tetrahydrofuran-3-ol
_symmetry_cell_setting           orthorhombic
_symmetry_space_group_name_H-M   'P 21 21 21'
_symmetry_Int_Tables_number      19
_space_group_name_Hall           'P 2ac 2ab'
loop_
_symmetry_equiv_pos_site_id
_symmetry_equiv_pos_as_xyz
1 x,y,z
2 1/2-x,-y,1/2+z
3 -x,1/2+y,1/2-z
4 1/2+x,1/2-y,-z
_cell_length_a                   6.4456(7)
_cell_length_b                   9.8102(8)
_cell_length_c                   21.8210(19)
_cell_angle_alpha                90
_cell_angle_beta                 90
_cell_angle_gamma                90
_cell_volume                     1379.8
_exptl_crystal_colour            yellow
_exptl_crystal_description       rod
_chemical_melting_point          '147-150 deg.C'
_cell_formula_units_Z            4
_exptl_crystal_recrystallization_method 'slow evaporation'
loop_
_atom_site_label
_atom_site_type_symbol
_atom_site_fract_x
_atom_site_fract_y
_atom_site_fract_z
N1 N 0.5892(4) 0.60661(19) 0.93091(9)
N2 N 0.4329(4) 0.64284(19) 0.89546(9)
N3 N 0.5652(4) 0.47366(18) 0.94237(9)
N4 N -0.4244(4) 0.5669(3) 0.73973(10)
O1 O 0.6003(3) 0.34078(14) 1.03178(7)
O2 O 0.8978(3) 0.57269(15) 1.11577(8)
H1 H 0.9223 0.6546 1.1176
O3 O -0.4456(4) 0.6695(2) 0.70734(9)
O4 O -0.5490(4) 0.4741(2) 0.74188(9)
C1 C 0.3986(5) 0.4836(3) 1.09975(14)
H2 H 0.4070 0.5475 1.1336
H3 H 0.3367 0.5300 1.0650
C2 C 0.7653(4) 0.5462(2) 1.06528(11)
H4 H 0.6903 0.6292 1.0538
C3 C 0.3946(5) 0.4257(2) 0.91436(11)
H5 H 0.3452 0.3367 0.9153
C4 C 0.1207(4) 0.5424(2) 0.84661(11)
C5 C 0.6114(4) 0.4340(2) 1.08328(11)
H6 H 0.6682 0.3846 1.1185
C6 C -0.0099(4) 0.4309(3) 0.84052(11)
H7 H 0.0235 0.3503 0.8606
C7 C -0.1080(5) 0.6699(3) 0.78125(13)
H8 H -0.1429 0.7506 0.7614
C8 C 0.0704(5) 0.6621(3) 0.81621(12)
H9 H 0.1573 0.7375 0.8194
C9 C 0.7125(4) 0.3968(2) 0.98189(11)
H10 H 0.7784 0.3237 0.9582
C10 C 0.3083(4) 0.5334(2) 0.88426(11)
C11 C -0.1882(5) 0.4361(3) 0.80541(11)
H11 H -0.2748 0.3607 0.8016
C12 C -0.2329(5) 0.5572(3) 0.77623(12)
C13 C 0.8755(4) 0.4873(2) 1.00970(11)
H12 H 0.9170 0.5586 0.9814
H13 H 0.9969 0.4354 1.0217
O5 O 0.2757(4) 0.37058(17) 1.11658(9)
H14 H 0.1710 0.3973 1.1342
loop_
_geom_bond_atom_site_label_1
_geom_bond_atom_site_label_2
_geom_bond_site_symmetry_1
_geom_bond_site_symmetry_2
N1 N2 1_555 1_555
N2 C10 1_555 1_555
N3 N1 1_555 1_555
N4 O3 1_555 1_555
O1 C5 1_555 1_555
O2 H1 1_555 1_555
O4 N4 1_555 1_555
C1 H2 1_555 1_555
H3 C1 1_555 1_555
C2 O2 1_555 1_555
H4 C2 1_555 1_555
C3 N3 1_555 1_555
H5 C3 1_555 1_555
C4 C6 1_555 1_555
C5 C1 1_555 1_555
H6 C5 1_555 1_555
C6 H7 1_555 1_555
C7 H8 1_555 1_555
C8 C4 1_555 1_555
H9 C8 1_555 1_555
C9 N3 1_555 1_555
H10 C9 1_555 1_555
C10 C3 1_555 1_555
C11 C6 1_555 1_555
H11 C11 1_555 1_555
C12 N4 1_555 1_555
C13 C2 1_555 1_555
H12 C13 1_555 1_555
H13 C13 1_555 1_555
O5 C1 1_555 1_555
H14 O5 1_555 1_555
O1 C9 1_555 1_555
C2 C5 1_555 1_555
C4 C10 1_555 1_555
C7 C8 1_555 1_555
C7 C12 1_555 1_555
C9 C13 1_555 1_555
C11 C12 1_555 1_555

#END
