
#######################################################################
#
#                 Cambridge Crystallographic Data Centre
#                                CCDC 
#
#######################################################################
#
# If this CIF has been generated from an entry in the Cambridge 
# Structural Database, then it will include bibliographic, chemical, 
# crystal, experimental, refinement or atomic coordinate data resulting 
# from the CCDC's data processing and validation procedures.
#
#######################################################################

data_OMITEL
_chemical_name_common            '2 -Deoxy-1 -alpha-triazolylmethoxynaphthalene'
_chemical_formula_moiety         'C18 H19 N3 O4'
_chemical_name_systematic        
2-(Hydroxymethyl)-5-(4-(6-methoxy-2-naphthyl)-1H-1,2,3-triazol-1-yl)tetrahydrofuran-3-ol
_symmetry_cell_setting           monoclinic
_symmetry_space_group_name_H-M   'P 21'
_symmetry_Int_Tables_number      4
_space_group_name_Hall           'P 2yb'
loop_
_symmetry_equiv_pos_site_id
_symmetry_equiv_pos_as_xyz
1 x,y,z
2 -x,1/2+y,-z
_cell_length_a                   5.8080(7)
_cell_length_b                   29.856(4)
_cell_length_c                   9.5397(11)
_cell_angle_alpha                90
_cell_angle_beta                 90.185(7)
_cell_angle_gamma                90
_cell_volume                     1654.21
_exptl_crystal_colour            colorless
_exptl_crystal_description       rod
_chemical_melting_point          '183-185 deg.C'
_cell_formula_units_Z            4
loop_
_atom_site_label
_atom_site_type_symbol
_atom_site_fract_x
_atom_site_fract_y
_atom_site_fract_z
O1 O 0.8339(6) 1.20763(10) 0.7665(4)
O2 O 0.4395(6) 0.87252(12) 0.1467(3)
O3 O 0.9525(6) 0.85795(17) 0.0090(5)
H1 H 0.9671 0.8783 0.0659
C1 C 0.4299(11) 0.79558(17) 0.0740(6)
H2 H 0.5270 0.7693 0.0661
H3 H 0.3277 0.7911 0.1529
N1 N 0.6384(6) 0.94126(12) 0.1545(4)
N2 N 0.8658(7) 0.93333(15) 0.1683(5)
N3 N 0.9518(7) 0.96495(14) 0.2503(5)
C2 C 0.7232(7) 1.10354(14) 0.4805(4)
C3 C 0.7805(8) 0.99297(15) 0.2887(5)
C4 C 0.9301(7) 1.10448(15) 0.5585(4)
C5 C 0.8167(8) 1.17267(16) 0.6715(5)
C6 C 0.6110(7) 1.17328(16) 0.5930(5)
H4 H 0.5064 1.1966 0.6045
C7 C 0.8262(7) 1.03175(15) 0.3783(4)
C8 C 0.6757(7) 1.06720(15) 0.3917(4)
H5 H 0.5391 1.0670 0.3405
C9 C 1.0354(7) 1.03366(15) 0.4543(5)
H6 H 1.1412 1.0105 0.4447
C10 C 0.9759(7) 1.13953(15) 0.6551(5)
H7 H 1.1123 1.1399 0.7065
C11 C 1.0861(7) 1.06841(17) 0.5408(4)
H8 H 1.2254 1.0686 0.5892
C12 C 0.5656(7) 1.13966(16) 0.5001(5)
H9 H 0.4294 1.1403 0.4486
C13 C 0.4892(8) 0.91038(16) 0.0725(6)
H10 H 0.3448 0.9258 0.0501
C14 C 0.5802(8) 0.97828(16) 0.2280(5)
H11 H 0.4348 0.9911 0.2356
C15 C 0.5792(9) 0.83568(17) 0.1025(5)
H12 H 0.6872 0.8282 0.1781
C16 C 0.5950(9) 0.8948(2) -0.0595(5)
H13 H 0.7039 0.9168 -0.0944
H14 H 0.4781 0.8897 -0.1306
C17 C 0.7150(8) 0.8519(2) -0.0230(6)
H15 H 0.6984 0.8306 -0.1004
C18 C 1.0430(8) 1.21157(19) 0.8461(6)
H16 H 1.0667 1.1847 0.8997
H17 H 1.0319 1.2367 0.9084
H18 H 1.1702 1.2159 0.7836
O4 O 0.2990(6) 0.79973(12) -0.0474(3)
H19 H 0.1897 0.8164 -0.0326
O5 O 0.3579(6) 1.16963(11) 1.1788(3)
O6 O -0.0673(5) 0.83465(11) 0.6316(3)
O7 O 0.4418(5) 0.81032(12) 0.4830(4)
H20 H 0.4628 0.8358 0.5122
N4 N 0.1379(6) 0.90112(12) 0.5819(3)
N5 N 0.4594(6) 0.93371(12) 0.6262(4)
N6 N 0.3664(6) 0.89946(13) 0.5581(4)
C19 C 0.2392(7) 1.05123(13) 0.9575(4)
C20 C 0.5497(7) 1.02058(15) 0.7549(4)
H21 H 0.6540 1.0104 0.6883
C21 C 0.4443(7) 1.07522(14) 0.9312(4)
C22 C 0.5975(7) 1.05873(14) 0.8292(4)
H22 H 0.7339 1.0741 0.8120
C23 C 0.1959(7) 1.01195(14) 0.8797(4)
H23 H 0.0622 0.9958 0.8977
C24 C 0.4884(8) 1.11561(15) 1.0060(5)
H24 H 0.6221 1.1317 0.9878
C25 C 0.2914(7) 0.95628(15) 0.6935(4)
C26 C 0.3386(8) 1.13090(15) 1.1031(5)
C27 C -0.0214(7) 0.86624(15) 0.5281(4)
H25 H -0.1662 0.8805 0.4999
C28 C 0.3442(7) 0.99654(13) 0.7780(4)
C29 C 0.1343(8) 1.10647(15) 1.1320(5)
H26 H 0.0323 1.1167 1.1997
C30 C 0.0874(7) 1.06790(15) 1.0602(4)
H27 H -0.0474 1.0523 1.0795
C31 C 0.0709(8) 0.84089(16) 0.4079(4)
H28 H 0.1741 0.8594 0.3530
H29 H -0.0528 0.8304 0.3479
C32 C 0.5646(9) 1.19479(16) 1.1636(6)
H30 H 0.6943 1.1762 1.1865
H31 H 0.5611 1.2201 1.2255
H32 H 0.5778 1.2050 1.0685
C33 C 0.0833(8) 0.79623(17) 0.6145(5)
H33 H 0.2004 0.7963 0.6886
C34 C 0.1994(7) 0.80181(17) 0.4725(5)
H34 H 0.1735 0.7749 0.4158
C35 C 0.0875(7) 0.93580(14) 0.6662(5)
H35 H -0.0571 0.9441 0.6990
C36 C -0.0608(10) 0.75507(18) 0.6271(6)
H36 H 0.0392 0.7291 0.6336
H37 H -0.1497 0.7567 0.7129
O8 O -0.2116(6) 0.74944(12) 0.5132(5)
H38 H -0.3226 0.7661 0.5224
loop_
_geom_bond_atom_site_label_1
_geom_bond_atom_site_label_2
_geom_bond_site_symmetry_1
_geom_bond_site_symmetry_2
O1 C5 1_555 1_555
O2 C13 1_555 1_555
O3 H1 1_555 1_555
C1 H2 1_555 1_555
H3 C1 1_555 1_555
N1 N2 1_555 1_555
N2 N3 1_555 1_555
N3 C3 1_555 1_555
C2 C4 1_555 1_555
C3 C7 1_555 1_555
C4 C10 1_555 1_555
C5 C6 1_555 1_555
C6 H4 1_555 1_555
C7 C8 1_555 1_555
C8 C2 1_555 1_555
H5 C8 1_555 1_555
C9 C7 1_555 1_555
H6 C9 1_555 1_555
C10 C5 1_555 1_555
H7 C10 1_555 1_555
C11 C4 1_555 1_555
H8 C11 1_555 1_555
C12 C2 1_555 1_555
H9 C12 1_555 1_555
C13 N1 1_555 1_555
H10 C13 1_555 1_555
C14 N1 1_555 1_555
H11 C14 1_555 1_555
C15 O2 1_555 1_555
H12 C15 1_555 1_555
C16 C13 1_555 1_555
H13 C16 1_555 1_555
H14 C16 1_555 1_555
C17 O3 1_555 1_555
H15 C17 1_555 1_555
C18 O1 1_555 1_555
H16 C18 1_555 1_555
H17 C18 1_555 1_555
H18 C18 1_555 1_555
O4 C1 1_555 1_555
H19 O4 1_555 1_555
O5 C26 1_555 1_555
O6 C27 1_555 1_555
O7 H20 1_555 1_555
N4 N6 1_555 1_555
N5 N6 1_555 1_555
C19 C21 1_555 1_555
C20 H21 1_555 1_555
C21 C22 1_555 1_555
C22 C20 1_555 1_555
H22 C22 1_555 1_555
C23 C19 1_555 1_555
H23 C23 1_555 1_555
C24 C21 1_555 1_555
H24 C24 1_555 1_555
C25 N5 1_555 1_555
C26 C24 1_555 1_555
C27 N4 1_555 1_555
H25 C27 1_555 1_555
C28 C20 1_555 1_555
C29 C26 1_555 1_555
H26 C29 1_555 1_555
C30 C19 1_555 1_555
H27 C30 1_555 1_555
C31 C27 1_555 1_555
H28 C31 1_555 1_555
H29 C31 1_555 1_555
C32 O5 1_555 1_555
H30 C32 1_555 1_555
H31 C32 1_555 1_555
H32 C32 1_555 1_555
C33 O6 1_555 1_555
H33 C33 1_555 1_555
C34 O7 1_555 1_555
H34 C34 1_555 1_555
C35 N4 1_555 1_555
H35 C35 1_555 1_555
C36 C33 1_555 1_555
H36 C36 1_555 1_555
H37 C36 1_555 1_555
O8 C36 1_555 1_555
H38 O8 1_555 1_555
C1 C15 1_555 1_555
C3 C14 1_555 1_555
C6 C12 1_555 1_555
C9 C11 1_555 1_555
C15 C17 1_555 1_555
C16 C17 1_555 1_555
C23 C28 1_555 1_555
C25 C28 1_555 1_555
C25 C35 1_555 1_555
C29 C30 1_555 1_555
C31 C34 1_555 1_555
C33 C34 1_555 1_555

#END
