
#######################################################################
#
#                 Cambridge Crystallographic Data Centre
#                                CCDC 
#
#######################################################################
#
# If this CIF has been generated from an entry in the Cambridge 
# Structural Database, then it will include bibliographic, chemical, 
# crystal, experimental, refinement or atomic coordinate data resulting 
# from the CCDC's data processing and validation procedures.
#
#######################################################################

data_OMIXOX
_chemical_formula_moiety         'C22 H19 N5 O2 S1'
_chemical_name_systematic        
1'-Methyl-4'-tolyl-1H-indole-3-spiro-2'-pyrrolidine-3'-spiro-5''-(thiazolo(3,2-b)(1,2,4)triazole)-2,6''(3H,5''H)-dione
_symmetry_cell_setting           monoclinic
_symmetry_space_group_name_H-M   'P 21/c'
_symmetry_Int_Tables_number      14
_space_group_name_Hall           '-P 2ybc'
loop_
_symmetry_equiv_pos_site_id
_symmetry_equiv_pos_as_xyz
1 x,y,z
2 x,1/2-y,1/2+z
3 -x,-y,-z
4 -x,1/2+y,1/2-z
_cell_length_a                   19.153(6)
_cell_length_b                   6.2858(19)
_cell_length_c                   16.968(5)
_cell_angle_alpha                90
_cell_angle_beta                 95.218(5)
_cell_angle_gamma                90
_cell_volume                     2034.34
_exptl_crystal_colour            colorless
_exptl_crystal_description       block
_chemical_melting_point          '480-481 K'
_cell_formula_units_Z            4
_exptl_crystal_recrystallization_method dioxane
loop_
_atom_site_label
_atom_site_type_symbol
_atom_site_fract_x
_atom_site_fract_y
_atom_site_fract_z
S1 S 0.25837(5) 0.39822(15) 0.31535(6)
O1 O 0.34057(13) -0.1422(4) 0.38400(16)
O2 O 0.17105(14) 0.4916(4) 0.45820(18)
N1 N 0.36878(15) 0.1629(5) 0.32126(18)
N2 N 0.43507(17) 0.1312(6) 0.2977(2)
N3 N 0.38667(19) 0.4456(6) 0.2499(2)
N4 N 0.23113(14) 0.0515(4) 0.50634(17)
N5 N 0.27943(16) 0.5807(5) 0.51822(18)
H1 H 0.2709 0.7103 0.5305
C1 C 0.26123(17) 0.1603(5) 0.3803(2)
C2 C 0.32639(18) 0.0324(6) 0.3633(2)
C3 C 0.4420(2) 0.3024(8) 0.2562(3)
H2 H 0.4826 0.3280 0.2316
C4 C 0.34224(19) 0.3502(6) 0.2926(2)
C5 C 0.19504(17) 0.0122(6) 0.3706(2)
H3 H 0.2123 -0.1321 0.3624
C6 C 0.16745(18) 0.0141(6) 0.4527(2)
H4 H 0.1335 0.1272 0.4568
H5 H 0.1459 -0.1208 0.4640
C7 C 0.26784(17) 0.2269(5) 0.4706(2)
C8 C 0.2315(2) 0.4492(5) 0.4807(2)
C9 C 0.34451(19) 0.4816(6) 0.5347(2)
C10 C 0.4049(2) 0.5661(6) 0.5739(2)
H6 H 0.4063 0.7053 0.5925
C11 C 0.4629(2) 0.4348(7) 0.5842(3)
H7 H 0.5048 0.4893 0.6081
C12 C 0.4603(2) 0.2274(7) 0.5604(2)
H8 H 0.5000 0.1422 0.5690
C13 C 0.39885(19) 0.1425(6) 0.5232(2)
H9 H 0.3968 0.0004 0.5080
C14 C 0.34094(18) 0.2725(5) 0.5094(2)
C15 C 0.14260(18) 0.0602(5) 0.3008(2)
C16 C 0.1402(2) -0.0693(7) 0.2338(3)
H10 H 0.1683 -0.1901 0.2344
C17 C 0.0969(2) -0.0214(8) 0.1666(3)
H11 H 0.0964 -0.1104 0.1228
C18 C 0.0547(2) 0.1555(8) 0.1634(3)
C19 C 0.0564(2) 0.2809(8) 0.2298(3)
H12 H 0.0279 0.4008 0.2292
C20 C 0.09934(19) 0.2340(6) 0.2977(3)
H13 H 0.0988 0.3218 0.3417
C21 C 0.0080(3) 0.2128(10) 0.0891(3)
H14 H -0.0366 0.1432 0.0902
H15 H 0.0298 0.1672 0.0433
H16 H 0.0011 0.3640 0.0870
C22 C 0.2183(2) 0.0854(6) 0.5891(2)
H17 H 0.2621 0.1069 0.6203
H18 H 0.1951 -0.0371 0.6084
H19 H 0.1891 0.2085 0.5931
loop_
_geom_bond_atom_site_label_1
_geom_bond_atom_site_label_2
_geom_bond_site_symmetry_1
_geom_bond_site_symmetry_2
S1 C1 1_555 1_555
O1 C2 1_555 1_555
O2 C8 1_555 1_555
N1 N2 1_555 1_555
N2 C3 1_555 1_555
N3 C3 1_555 1_555
N4 C6 1_555 1_555
N5 H1 1_555 1_555
C1 C2 1_555 1_555
C2 N1 1_555 1_555
C3 H2 1_555 1_555
C4 S1 1_555 1_555
C5 C1 1_555 1_555
H3 C5 1_555 1_555
C6 C5 1_555 1_555
H4 C6 1_555 1_555
H5 C6 1_555 1_555
C7 N4 1_555 1_555
C8 N5 1_555 1_555
C9 N5 1_555 1_555
C10 C9 1_555 1_555
H6 C10 1_555 1_555
C11 C10 1_555 1_555
H7 C11 1_555 1_555
C12 C11 1_555 1_555
H8 C12 1_555 1_555
C13 C12 1_555 1_555
H9 C13 1_555 1_555
C14 C7 1_555 1_555
C15 C5 1_555 1_555
C16 C15 1_555 1_555
H10 C16 1_555 1_555
C17 C16 1_555 1_555
H11 C17 1_555 1_555
C18 C17 1_555 1_555
C19 C18 1_555 1_555
H12 C19 1_555 1_555
C20 C15 1_555 1_555
H13 C20 1_555 1_555
C21 C18 1_555 1_555
H14 C21 1_555 1_555
H15 C21 1_555 1_555
H16 C21 1_555 1_555
C22 N4 1_555 1_555
H17 C22 1_555 1_555
H18 C22 1_555 1_555
H19 C22 1_555 1_555
N1 C4 1_555 1_555
N3 C4 1_555 1_555
C1 C7 1_555 1_555
C7 C8 1_555 1_555
C9 C14 1_555 1_555
C13 C14 1_555 1_555
C19 C20 1_555 1_555

#END
