
#######################################################################
#
#                 Cambridge Crystallographic Data Centre
#                                CCDC 
#
#######################################################################
#
# If this CIF has been generated from an entry in the Cambridge 
# Structural Database, then it will include bibliographic, chemical, 
# crystal, experimental, refinement or atomic coordinate data resulting 
# from the CCDC's data processing and validation procedures.
#
#######################################################################

data_OMIZIV
_chemical_formula_moiety         '2(C4 H7 N2 1+),C2 N8 O2 2-,2(H2 O1)'
_chemical_name_systematic        
"bis(2-methyl-1H-imidazol-3-ium) 1H,1'H-5,5'-bitetrazole-1,1'-diolate dihydrate"
_symmetry_cell_setting           triclinic
_symmetry_space_group_name_H-M   'P -1'
_symmetry_Int_Tables_number      2
_space_group_name_Hall           '-P 1'
loop_
_symmetry_equiv_pos_site_id
_symmetry_equiv_pos_as_xyz
1 x,y,z
2 -x,-y,-z
_cell_length_a                   5.3860(5)
_cell_length_b                   7.2676(6)
_cell_length_c                   11.1149(11)
_cell_angle_alpha                106.362(7)
_cell_angle_beta                 92.344(13)
_cell_angle_gamma                104.613(9)
_cell_volume                     401.002
_exptl_crystal_colour            colorless
_exptl_crystal_description       Prism
_cell_formula_units_Z            1
loop_
_atom_site_label
_atom_site_type_symbol
_atom_site_fract_x
_atom_site_fract_y
_atom_site_fract_z
O1 O 0.09250(15) 0.05967(11) 0.74367(6)
N1 N 0.20931(16) 0.11557(12) 0.65356(8)
N2 N 0.44886(17) 0.24095(13) 0.67490(8)
N3 N 0.50783(17) 0.26492(14) 0.56561(8)
N4 N 0.31184(17) 0.15857(13) 0.47391(8)
C1 C 0.12482(19) 0.06534(14) 0.52944(9)
O1A O -0.09250(15) -0.05967(11) 0.25633(6)
N1A N -0.20931(16) -0.11557(12) 0.34644(8)
N2A N -0.44886(17) -0.24095(13) 0.32510(8)
N3A N -0.50783(17) -0.26492(14) 0.43439(8)
N4A N -0.31184(17) -0.15857(13) 0.52609(8)
C1A C -0.12482(19) -0.06534(14) 0.47056(9)
N5 N 0.33216(17) 0.66448(13) 0.88483(8)
H1 H 0.188(2) 0.5953(18) 0.9076(13)
N6 N 0.58725(17) 0.78787(13) 0.76598(8)
H2 H 0.638(3) 0.817(2) 0.6968(10)
C2 C 0.7288(2) 0.83776(17) 0.88268(10)
H3 H 0.9051 0.9120 0.9059
C3 C 0.5684(2) 0.76085(17) 0.95756(10)
H4 H 0.6101 0.7711 1.0435
C4 C 0.34821(19) 0.68146(14) 0.76860(9)
C5 C 0.1403(2) 0.59788(16) 0.66071(10)
H5 H 0.0531 0.6995 0.6567
H6 H 0.0150 0.4820 0.6721
H7 H 0.2154 0.5568 0.5820
O2 O 0.11764(15) 0.64847(11) 0.12804(7)
H8 H 0.254(2) 0.659(2) 0.1784(13)
H9 H 0.045(3) 0.742(2) 0.1653(14)
loop_
_geom_bond_atom_site_label_1
_geom_bond_atom_site_label_2
_geom_bond_site_symmetry_1
_geom_bond_site_symmetry_2
O1 N1 1_555 1_555
N1 N2 1_555 1_555
N2 N3 1_555 1_555
N3 N4 1_555 1_555
N4 C1 1_555 1_555
C1 N1 1_555 1_555
N5 H1 1_555 1_555
N6 H2 1_555 1_555
C2 N6 1_555 1_555
H3 C2 1_555 1_555
C3 N5 1_555 1_555
H4 C3 1_555 1_555
C4 N5 1_555 1_555
C5 C4 1_555 1_555
H5 C5 1_555 1_555
H6 C5 1_555 1_555
H7 C5 1_555 1_555
O2 H8 1_555 1_555
H9 O2 1_555 1_555
O1A N1A 1_555 1_555
N1A N2A 1_555 1_555
N2A N3A 1_555 1_555
N3A N4A 1_555 1_555
N4A C1A 1_555 1_555
C1A C1 1_555 1_555
N6 C4 1_555 1_555
C2 C3 1_555 1_555
N1A C1A 1_555 1_555

#END
