
#######################################################################
#
#                 Cambridge Crystallographic Data Centre
#                                CCDC 
#
#######################################################################
#
# If this CIF has been generated from an entry in the Cambridge 
# Structural Database, then it will include bibliographic, chemical, 
# crystal, experimental, refinement or atomic coordinate data resulting 
# from the CCDC's data processing and validation procedures.
#
#######################################################################

data_OMLYHI10
_chemical_formula_moiety         'C24 H40 N1 O6 1+,I1 1-,H2 O1'
_chemical_name_systematic        
'(+)-Des(oxymethylene)-lycoctonine hydroiodide monohydrate'
_symmetry_cell_setting           monoclinic
_symmetry_space_group_name_H-M   'P 21'
_symmetry_Int_Tables_number      4
_space_group_name_Hall           'P 2yb'
loop_
_symmetry_equiv_pos_site_id
_symmetry_equiv_pos_as_xyz
1 x,y,z
2 -x,1/2+y,-z
_cell_length_a                   12.758(1)
_cell_length_b                   9.415(1)
_cell_length_c                   10.990(1)
_cell_angle_alpha                90
_cell_angle_beta                 97.81(1)
_cell_angle_gamma                90
_cell_volume                     1307.84
_chemical_melting_point          173deg.C
_cell_formula_units_Z            2
loop_
_atom_site_label
_atom_site_type_symbol
_atom_site_fract_x
_atom_site_fract_y
_atom_site_fract_z
I1 I 0.22450 0.25000 0.06150
N1 N 0.84210 0.44380 0.17650
O1 O 0.64610 0.40610 0.06680
O2 O 0.94620 0.00410 0.30910
O3 O 0.96310 0.33990 0.40160
O4 O 0.90560 0.10500 0.52650
O5 O 0.68880 0.01590 0.58410
O6 O 0.61890 0.34920 0.60890
C1 C 0.66000 0.25310 0.06430
C2 C 0.69300 0.19940 -0.05530
C3 C 0.80310 0.25060 -0.07500
C4 C 0.88590 0.23670 0.04250
C5 C 0.84300 0.13980 0.13850
C6 C 0.92700 0.13820 0.25280
C7 C 0.88400 0.24680 0.34300
C8 C 0.82740 0.17330 0.44240
C9 C 0.74380 0.06540 0.38210
C10 C 0.68280 0.11770 0.25920
C11 C 0.74400 0.21440 0.17710
C12 C 0.58470 0.20060 0.29710
C13 C 0.59560 0.19310 0.43690
C14 C 0.65190 0.04960 0.46080
C15 C 0.77980 0.28470 0.52530
C16 C 0.66230 0.31480 0.50090
C17 C 0.79920 0.33240 0.25720
C18 C 0.91860 0.38220 0.09890
C19 C 0.54880 0.45660 0.00500
C20 C 1.01180 -0.08280 0.24610
C21 C 0.60640 -0.01240 0.65450
C22 C 0.66120 0.47830 0.66150
C23 C 0.88910 0.57590 0.24080
C24 C 0.81240 0.64930 0.31090
H1 H 0.78500 0.47400 0.12100
H2 H 1.03200 0.33300 0.38800
H3 H 0.95300 0.07100 0.46200
H4 H 0.57200 0.21500 0.06300
H5 H 0.64000 0.22200 -0.12800
H6 H 0.68900 0.08200 -0.05300
H7 H 0.79900 0.37100 -0.09400
H8 H 0.83400 0.20600 -0.15000
H9 H 0.96700 0.20600 0.03900
H10 H 0.84100 0.04900 0.13900
H11 H 0.99600 0.17400 0.23500
H12 H 0.79800 -0.03000 0.38700
H13 H 0.66000 0.02400 0.20400
H14 H 0.51100 0.14900 0.25900
H15 H 0.58300 0.30800 0.26600
H16 H 0.51900 0.19000 0.46700
H17 H 0.60000 -0.03200 0.42600
H18 H 0.79700 0.24800 0.61800
H19 H 0.82100 0.38300 0.51600
H20 H 0.65100 0.40600 0.44100
H21 H 0.74300 0.38300 0.31000
H22 H 0.98800 0.38400 0.14400
H23 H 0.92800 0.45300 0.02400
H24 H 0.96600 -0.12200 0.16000
H25 H 1.08500 -0.06700 0.25000
H26 H 1.03600 -0.18000 0.28900
H27 H 0.63500 -0.02500 0.73800
H28 H 0.56400 -0.10900 0.62000
H29 H 0.55100 0.07700 0.64500
H30 H 0.74200 0.45700 0.66500
H31 H 0.63900 0.56800 0.60500
H32 H 0.63800 0.49200 0.75400
H33 H 0.95500 0.57700 0.28700
H34 H 0.88400 0.62300 0.16100
H35 H 0.84200 0.74400 0.35500
H36 H 0.73500 0.65800 0.25000
H37 H 0.79000 0.58400 0.38400
O7 O 0.83210 0.78130 0.62780
H38 H 0.75300 0.81200 0.63100
H39 H 0.86000 0.81800 0.69100
loop_
_geom_bond_atom_site_label_1
_geom_bond_atom_site_label_2
_geom_bond_site_symmetry_1
_geom_bond_site_symmetry_2
N1 C17 1_555 1_555
O1 C1 1_555 1_555
O2 C6 1_555 1_555
O3 C7 1_555 1_555
O4 C8 1_555 1_555
O5 C14 1_555 1_555
O6 C16 1_555 1_555
C1 C2 1_555 1_555
C2 C3 1_555 1_555
C3 C4 1_555 1_555
C4 C5 1_555 1_555
C5 C6 1_555 1_555
C6 C7 1_555 1_555
C7 C8 1_555 1_555
C8 C9 1_555 1_555
C9 C10 1_555 1_555
C10 C11 1_555 1_555
C11 C1 1_555 1_555
C12 C10 1_555 1_555
C13 C12 1_555 1_555
C14 C9 1_555 1_555
C15 C8 1_555 1_555
C16 C13 1_555 1_555
C17 C7 1_555 1_555
C18 N1 1_555 1_555
C19 O1 1_555 1_555
C20 O2 1_555 1_555
C21 O5 1_555 1_555
C22 O6 1_555 1_555
C23 N1 1_555 1_555
C24 C23 1_555 1_555
H1 N1 1_555 1_555
H2 O3 1_555 1_555
H3 O4 1_555 1_555
H4 C1 1_555 1_555
H5 C2 1_555 1_555
H6 C2 1_555 1_555
H7 C3 1_555 1_555
H8 C3 1_555 1_555
H9 C4 1_555 1_555
H10 C5 1_555 1_555
H11 C6 1_555 1_555
H12 C9 1_555 1_555
H13 C10 1_555 1_555
H14 C12 1_555 1_555
H15 C12 1_555 1_555
H16 C13 1_555 1_555
H17 C14 1_555 1_555
H18 C15 1_555 1_555
H19 C15 1_555 1_555
H20 C16 1_555 1_555
H21 C17 1_555 1_555
H22 C18 1_555 1_555
H23 C18 1_555 1_555
H24 C20 1_555 1_555
H25 C20 1_555 1_555
H26 C20 1_555 1_555
H27 C21 1_555 1_555
H28 C21 1_555 1_555
H29 C21 1_555 1_555
H30 C22 1_555 1_555
H31 C22 1_555 1_555
H32 C22 1_555 1_555
H33 C23 1_555 1_555
H34 C23 1_555 1_555
H35 C24 1_555 1_555
H36 C24 1_555 1_555
H37 C24 1_555 1_555
O7 H38 1_555 1_555
H39 O7 1_555 1_555
C4 C18 1_555 1_555
C5 C11 1_555 1_555
C11 C17 1_555 1_555
C13 C14 1_555 1_555
C15 C16 1_555 1_555

#END
