
#######################################################################
#
#                 Cambridge Crystallographic Data Centre
#                                CCDC 
#
#######################################################################
#
# If this CIF has been generated from an entry in the Cambridge 
# Structural Database, then it will include bibliographic, chemical, 
# crystal, experimental, refinement or atomic coordinate data resulting 
# from the CCDC's data processing and validation procedures.
#
#######################################################################

data_OMOBUP
_chemical_formula_moiety         'C2 N8 O2 2-,2(C2 H5 N4 1+),1.4(H2 O1)'
_chemical_name_systematic        
"bis(5-amino-4H-1,2,4-triazol-1-ium) 1H,1'H-5,5'-bitetrazole-1,1'-diolate hydrate"
_symmetry_cell_setting           monoclinic
_symmetry_space_group_name_H-M   'P 21/c'
_symmetry_Int_Tables_number      14
_space_group_name_Hall           '-P 2ybc'
loop_
_symmetry_equiv_pos_site_id
_symmetry_equiv_pos_as_xyz
1 x,y,z
2 -x,1/2+y,1/2-z
3 -x,-y,-z
4 x,1/2-y,1/2+z
_cell_length_a                   19.0634(3)
_cell_length_b                   11.83085(18)
_cell_length_c                   32.1874(7)
_cell_angle_alpha                90
_cell_angle_beta                 95.3131(17)
_cell_angle_gamma                90
_cell_volume                     7228.23
_cell_formula_units_Z            20
loop_
_atom_site_label
_atom_site_type_symbol
_atom_site_fract_x
_atom_site_fract_y
_atom_site_fract_z
O1 O 0.12460(8) 0.95153(16) 0.25003(7)
O2 O 0.37387(8) 1.13504(15) 0.24567(7)
N1 N 0.19091(9) 0.91909(17) 0.25143(7)
N2 N 0.30783(10) 1.16691(17) 0.24595(7)
N3 N 0.30420(10) 0.91242(18) 0.25149(8)
N4 N 0.19491(10) 1.17149(18) 0.24803(8)
N5 N 0.28894(10) 1.27508(18) 0.24480(8)
N6 N 0.20889(11) 0.81096(19) 0.25382(8)
N7 N 0.27782(11) 0.80876(19) 0.25414(8)
N8 N 0.22033(10) 1.27619(18) 0.24608(8)
C1 C 0.24936(11) 0.9817(2) 0.25016(8)
C2 C 0.25008(11) 1.1027(2) 0.24800(8)
O3 O 0.97283(8) -0.60091(15) 0.34784(7)
O4 O 0.72422(8) -0.41527(15) 0.35179(7)
N9 N 0.90671(9) -0.63154(17) 0.34739(7)
N10 N 0.78986(10) -0.38407(17) 0.35205(7)
N11 N 0.79321(10) -0.63689(18) 0.34841(8)
N12 N 0.90347(10) -0.37863(19) 0.35128(8)
N13 N 0.88653(11) -0.74143(18) 0.34570(8)
N14 N 0.87851(11) -0.27288(19) 0.35313(8)
N15 N 0.80949(10) -0.27481(19) 0.35369(8)
N16 N 0.81854(11) -0.74187(19) 0.34643(9)
C3 C 0.84815(11) -0.4471(2) 0.35054(8)
C4 C 0.84830(11) -0.5678(2) 0.34878(8)
O5 O 0.17387(8) 0.05947(15) 0.04989(7)
O6 O -0.07622(8) -0.12198(15) 0.05355(7)
N17 N 0.10829(10) 0.09192(16) 0.04834(7)
N18 N -0.01058(9) -0.15425(17) 0.05352(7)
N19 N -0.00530(10) 0.09891(17) 0.04776(8)
N20 N 0.10278(10) -0.16130(18) 0.05210(8)
N21 N 0.08929(11) 0.20078(17) 0.04565(8)
N22 N 0.00848(11) -0.26339(17) 0.05469(8)
N23 N 0.02028(10) 0.20356(18) 0.04555(8)
N24 N 0.07701(11) -0.26514(18) 0.05401(9)
C5 C 0.04929(10) 0.0293(2) 0.04957(8)
C6 C 0.04801(11) -0.09135(19) 0.05188(8)
O7 O 0.67237(8) -0.62259(15) 0.04666(7)
O8 O 0.42370(8) -0.43775(15) 0.05135(7)
N25 N 0.60561(9) -0.65437(16) 0.04638(7)
N26 N 0.49028(10) -0.40586(16) 0.05198(7)
N27 N 0.60340(10) -0.40054(17) 0.05139(8)
N28 N 0.49229(10) -0.65906(18) 0.04775(8)
N29 N 0.58688(10) -0.76300(18) 0.04468(8)
N30 N 0.50849(10) -0.29749(18) 0.05407(8)
N31 N 0.51851(11) -0.76353(18) 0.04544(8)
N32 N 0.57691(10) -0.29567(18) 0.05362(8)
C7 C 0.54785(11) -0.4693(2) 0.05033(8)
C8 C 0.54857(11) -0.5906(2) 0.04816(8)
O9 O 0.22351(8) -0.09815(16) 0.35250(7)
O10 O 0.47371(8) 0.08133(16) 0.34858(7)
N33 N 0.28965(9) -0.13087(18) 0.35319(7)
N34 N 0.40758(9) 0.11434(17) 0.34712(7)
N35 N 0.29405(10) 0.12199(18) 0.34689(8)
N36 N 0.40300(10) -0.13817(18) 0.35299(8)
N37 N 0.38968(10) 0.22364(18) 0.34435(8)
N38 N 0.37608(11) -0.24307(18) 0.35554(8)
N39 N 0.32144(11) 0.22536(19) 0.34427(8)
N40 N 0.30720(11) -0.23986(19) 0.35573(8)
C9 C 0.34926(11) 0.0524(2) 0.34864(8)
C10 C 0.34785(11) -0.0686(2) 0.35175(8)
N41 N 0.75139(10) -0.80948(18) 0.05133(8)
N42 N 0.83808(10) -0.92564(18) 0.05123(8)
H1 H 0.8800 -0.9523 0.0506
N43 N 0.77817(11) -0.98993(18) 0.05386(8)
N44 N 0.86485(11) -0.73052(19) 0.04742(9)
H2 H 0.9092 -0.7424 0.0468
H3 H 0.8488 -0.6625 0.0466
C11 C 0.82141(12) -0.8165(2) 0.04971(9)
C12 C 0.72854(13) -0.9167(2) 0.05402(10)
H4 H 0.6816 -0.9357 0.0558
H5 H 0.7228(15) -0.745(3) 0.0516(9)
N45 N 0.33858(10) 0.36394(17) 0.05066(7)
H6 H 0.3800 0.3913 0.0491
N46 N 0.25407(10) 0.24683(17) 0.05284(7)
H7 H 0.2300 0.1854 0.0531
N47 N 0.27896(11) 0.42829(18) 0.05435(8)
N48 N 0.36667(11) 0.16907(18) 0.04707(9)
H8 H 0.4109 0.1808 0.0455
H9 H 0.3506 0.1011 0.0468
C13 C 0.32352(11) 0.2553(2) 0.04985(9)
C14 C 0.22906(12) 0.3541(2) 0.05545(10)
H10 H 0.1821 0.3720 0.0577
N49 N 0.64485(10) -0.22928(17) 0.34812(7)
H11 H 0.6695 -0.2902 0.3484
N50 N 0.55925(10) -0.11252(18) 0.34899(7)
H12 H 0.5175 -0.0859 0.3500
N51 N 0.61877(11) -0.04742(19) 0.34650(8)
N52 N 0.53171(11) -0.30904(19) 0.35109(9)
H13 H 0.4872 -0.2981 0.3517
H14 H 0.5482 -0.3767 0.3514
C15 C 0.57501(12) -0.2213(2) 0.34964(9)
C16 C 0.66885(13) -0.1211(2) 0.34609(9)
H15 H 0.7159 -0.1024 0.3446
N53 N 1.05229(10) -0.78658(18) 0.35183(7)
H16 H 1.0276 -0.7258 0.3517
N54 N 1.13782(10) -0.90267(18) 0.35138(8)
H17 H 1.1796 -0.9295 0.3508
N55 N 1.07854(11) -0.96745(19) 0.35363(8)
N56 N 1.16513(11) -0.70689(19) 0.34881(9)
H18 H 1.2096 -0.7180 0.3484
H19 H 1.1487 -0.6391 0.3482
C17 C 1.12224(11) -0.7932(2) 0.35028(8)
C18 C 1.02792(13) -0.8944(2) 0.35370(10)
H20 H 0.9808 -0.9134 0.3549
N57 N 0.45388(11) 1.32173(19) 0.25146(8)
N58 N 0.53965(10) 1.43807(18) 0.25115(7)
H21 H 0.5813 1.4652 0.2502
N59 N 0.47998(11) 1.50272(18) 0.25482(8)
N60 N 0.56716(12) 1.2425(2) 0.24601(9)
C19 C 0.52415(12) 1.3295(2) 0.24924(9)
C20 C 0.43024(13) 1.4290(2) 0.25477(10)
H22 H 0.4265(17) 1.259(3) 0.2495(11)
H23 H 0.3834(17) 1.448(3) 0.2592(10)
H24 H 0.5504(14) 1.180(2) 0.2459(8)
H25 H 0.6126(16) 1.258(3) 0.2425(10)
N61 N 0.25859(10) -0.13413(17) 0.04910(7)
H26 H 0.2168 -0.1073 0.0500
N62 N 0.34525(10) -0.25038(17) 0.04803(7)
H27 H 0.3703 -0.3109 0.0482
N63 N 0.31924(11) -0.06950(17) 0.04678(8)
N64 N 0.23174(11) -0.33000(19) 0.05092(9)
H28 H 0.1873 -0.3185 0.0515
H29 H 0.2479 -0.3979 0.0512
C21 C 0.27502(12) -0.2438(2) 0.04964(9)
C22 C 0.36830(12) -0.1438(2) 0.04605(9)
H30 H 0.4153 -0.1253 0.0443
N65 N -0.15701(10) -0.30847(18) 0.04814(8)
H31 H -0.1325 -0.2474 0.0485
N66 N -0.24190(10) -0.42519(18) 0.04893(8)
H32 H -0.2835 -0.4524 0.0501
N67 N -0.18325(11) -0.48867(19) 0.04488(8)
N68 N -0.26935(11) -0.22995(19) 0.05432(9)
H33 H -0.3136 -0.2416 0.0556
H34 H -0.2531 -0.1621 0.0553
C23 C -0.22639(11) -0.3162(2) 0.05085(9)
C24 C -0.13287(13) -0.4156(2) 0.04482(10)
H35 H -0.0859 -0.4341 0.0428
N69 N 0.04610(10) 0.76265(17) 0.24727(7)
H36 H 0.0706 0.8236 0.2470
N70 N -0.03913(10) 0.64618(18) 0.24941(8)
H37 H -0.0807 0.6190 0.2508
N71 N 0.02023(10) 0.58206(18) 0.24676(8)
N72 N -0.06747(11) 0.84178(19) 0.25096(9)
H38 H -0.1119 0.8305 0.2519
H39 H -0.0513 0.9096 0.2509
C25 C -0.02410(12) 0.7548(2) 0.24958(9)
C26 C 0.06998(13) 0.6553(2) 0.24547(10)
H40 H 0.1169 0.6366 0.2435
N73 N 0.14290(10) -0.28343(18) 0.34786(8)
H41 H 0.1677 -0.2226 0.3481
N74 N 0.05701(10) -0.40151(18) 0.34923(8)
H42 H 0.0155 -0.4287 0.3506
N75 N 0.11698(11) -0.46541(19) 0.34471(8)
N76 N 0.03040(11) -0.20563(19) 0.35507(9)
H43 H -0.0137 -0.2176 0.3568
H44 H 0.0465 -0.1377 0.3560
C27 C 0.07325(12) -0.2912(2) 0.35113(9)
C28 C 0.16611(12) -0.3909(2) 0.34417(10)
H45 H 0.2129 -0.4091 0.3415
N77 N 0.55429(10) 0.26805(18) 0.35213(8)
H46 H 0.5297 0.2071 0.3519
N78 N 0.63959(10) 0.38562(18) 0.35039(8)
H47 H 0.6810 0.4131 0.3488
N79 N 0.57991(11) 0.44867(19) 0.35495(8)
N80 N 0.66704(11) 0.19032(19) 0.34504(9)
H48 H 0.7111 0.2026 0.3432
H49 H 0.6511 0.1222 0.3444
C29 C 0.62378(13) 0.2760(2) 0.34886(9)
C30 C 0.53073(13) 0.3748(2) 0.35576(10)
H50 H 0.4813(17) 0.387(3) 0.3592(11)
O11 O 0.40701(17) 0.5252(2) 0.38594(11)
H51 H 0.4172 0.4977 0.4101
H52 H 0.4079 0.5970 0.3873
O12 O 0.30049(16) 0.4661(2) 0.32430(11)
H53 H 0.3242 0.4954 0.3452
H54 H 0.3029 0.3944 0.3261
O13 O 0.1169(2) 0.5161(3) 0.09965(12)
H55 H 0.1198 0.5864 0.1049
H56 H 0.1127 0.4799 0.1221
O14 O 0.01272(18) 0.4503(2) 0.03758(15)
H57 H 0.0077 0.3803 0.0321
H58 H 0.0496 0.4602 0.0541
O15 O 0.1687(2) 0.4784(3) 0.18282(14)
H59 H 0.1928 0.5210 0.2000
H60 H 0.1692 0.4112 0.1923
O16 O 0.2680(3) 0.5569(2) 0.24582(14)
H61 H 0.2782 0.5435 0.2716
H62 H 0.2647 0.6277 0.2419
O17 O 0.4536(3) 0.4578(3) 0.46822(13)
H63 H 0.4465 0.4815 0.4924
H64 H 0.4444 0.3876 0.4665
loop_
_geom_bond_atom_site_label_1
_geom_bond_atom_site_label_2
_geom_bond_site_symmetry_1
_geom_bond_site_symmetry_2
O1 N1 1_555 1_555
O2 N2 1_555 1_555
N1 N6 1_555 1_555
N2 N5 1_555 1_555
N3 N7 1_555 1_555
N4 N8 1_555 1_555
N5 N8 1_555 1_555
N6 N7 1_555 1_555
C1 N1 1_555 1_555
C2 N2 1_555 1_555
O3 N9 1_555 1_555
O4 N10 1_555 1_555
N9 N13 1_555 1_555
N10 N15 1_555 1_555
N11 N16 1_555 1_555
N12 N14 1_555 1_555
N13 N16 1_555 1_555
N14 N15 1_555 1_555
C3 N10 1_555 1_555
C4 N9 1_555 1_555
O5 N17 1_555 1_555
O6 N18 1_555 1_555
N17 N21 1_555 1_555
N18 N22 1_555 1_555
N19 N23 1_555 1_555
N20 N24 1_555 1_555
N21 N23 1_555 1_555
N22 N24 1_555 1_555
C5 N17 1_555 1_555
C6 N18 1_555 1_555
O7 N25 1_555 1_555
O8 N26 1_555 1_555
N25 N29 1_555 1_555
N26 N30 1_555 1_555
N27 N32 1_555 1_555
N28 N31 1_555 1_555
N29 N31 1_555 1_555
N30 N32 1_555 1_555
C7 N26 1_555 1_555
C8 N25 1_555 1_555
O9 N33 1_555 1_555
O10 N34 1_555 1_555
N33 N40 1_555 1_555
N34 N37 1_555 1_555
N35 N39 1_555 1_555
N36 N38 1_555 1_555
N37 N39 1_555 1_555
N38 N40 1_555 1_555
C9 N34 1_555 1_555
C10 N33 1_555 1_555
N41 C11 1_555 1_555
N42 H1 1_555 1_555
N43 N42 1_555 1_555
N44 H2 1_555 1_555
H3 N44 1_555 1_555
C11 N42 1_555 1_555
C12 N41 1_555 1_555
H4 C12 1_555 1_555
H5 N41 1_555 1_555
N45 H6 1_555 1_555
N46 H7 1_555 1_555
N47 N45 1_555 1_555
N48 H8 1_555 1_555
H9 N48 1_555 1_555
C13 N45 1_555 1_555
C14 N46 1_555 1_555
H10 C14 1_555 1_555
N49 H11 1_555 1_555
N50 H12 1_555 1_555
N51 N50 1_555 1_555
N52 H13 1_555 1_555
H14 N52 1_555 1_555
C15 N49 1_555 1_555
C16 N49 1_555 1_555
H15 C16 1_555 1_555
N53 H16 1_555 1_555
N54 H17 1_555 1_555
N55 N54 1_555 1_555
N56 H18 1_555 1_555
H19 N56 1_555 1_555
C17 N53 1_555 1_555
C18 N53 1_555 1_555
H20 C18 1_555 1_555
N57 C19 1_555 1_555
N58 H21 1_555 1_555
N59 N58 1_555 1_555
N60 C19 1_555 1_555
C19 N58 1_555 1_555
C20 N57 1_555 1_555
H22 N57 1_555 1_555
H23 C20 1_555 1_555
H24 N60 1_555 1_555
H25 N60 1_555 1_555
N61 H26 1_555 1_555
N62 H27 1_555 1_555
N63 N61 1_555 1_555
N64 H28 1_555 1_555
H29 N64 1_555 1_555
C21 N61 1_555 1_555
C22 N62 1_555 1_555
H30 C22 1_555 1_555
N65 H31 1_555 1_555
N66 H32 1_555 1_555
N67 N66 1_555 1_555
N68 H33 1_555 1_555
H34 N68 1_555 1_555
C23 N65 1_555 1_555
C24 N65 1_555 1_555
H35 C24 1_555 1_555
N69 H36 1_555 1_555
N70 H37 1_555 1_555
N71 N70 1_555 1_555
N72 H38 1_555 1_555
H39 N72 1_555 1_555
C25 N69 1_555 1_555
C26 N69 1_555 1_555
H40 C26 1_555 1_555
N73 H41 1_555 1_555
N74 H42 1_555 1_555
N75 N74 1_555 1_555
N76 H43 1_555 1_555
H44 N76 1_555 1_555
C27 N73 1_555 1_555
C28 N73 1_555 1_555
H45 C28 1_555 1_555
N77 H46 1_555 1_555
N78 H47 1_555 1_555
N79 N78 1_555 1_555
N80 H48 1_555 1_555
H49 N80 1_555 1_555
C29 N77 1_555 1_555
C30 N77 1_555 1_555
H50 C30 1_555 1_555
O11 H51 1_555 1_555
H52 O11 1_555 1_555
O12 H53 1_555 1_555
H54 O12 1_555 1_555
O13 H55 1_555 1_555
H56 O13 1_555 1_555
O14 H57 1_555 1_555
H58 O14 1_555 1_555
O15 H59 1_555 1_555
H60 O15 1_555 1_555
O16 H61 1_555 1_555
H62 O16 1_555 1_555
O17 H63 1_555 1_555
H64 O17 1_555 1_555
N3 C1 1_555 1_555
N4 C2 1_555 1_555
C1 C2 1_555 1_555
N11 C4 1_555 1_555
N12 C3 1_555 1_555
C3 C4 1_555 1_555
N19 C5 1_555 1_555
N20 C6 1_555 1_555
C5 C6 1_555 1_555
N27 C7 1_555 1_555
N28 C8 1_555 1_555
C7 C8 1_555 1_555
N35 C9 1_555 1_555
N36 C10 1_555 1_555
C9 C10 1_555 1_555
N43 C12 1_555 1_555
N44 C11 1_555 1_555
N46 C13 1_555 1_555
N47 C14 1_555 1_555
N48 C13 1_555 1_555
N50 C15 1_555 1_555
N51 C16 1_555 1_555
N52 C15 1_555 1_555
N54 C17 1_555 1_555
N55 C18 1_555 1_555
N56 C17 1_555 1_555
N59 C20 1_555 1_555
N62 C21 1_555 1_555
N63 C22 1_555 1_555
N64 C21 1_555 1_555
N66 C23 1_555 1_555
N67 C24 1_555 1_555
N68 C23 1_555 1_555
N70 C25 1_555 1_555
N71 C26 1_555 1_555
N72 C25 1_555 1_555
N74 C27 1_555 1_555
N75 C28 1_555 1_555
N76 C27 1_555 1_555
N78 C29 1_555 1_555
N79 C30 1_555 1_555
N80 C29 1_555 1_555

#END
