
#######################################################################
#
#                 Cambridge Crystallographic Data Centre
#                                CCDC 
#
#######################################################################
#
# If this CIF has been generated from an entry in the Cambridge 
# Structural Database, then it will include bibliographic, chemical, 
# crystal, experimental, refinement or atomic coordinate data resulting 
# from the CCDC's data processing and validation procedures.
#
#######################################################################

data_OMOCEY
_chemical_formula_moiety         'C25 H21 N3 O2'
_chemical_name_systematic        
5,5-Dimethyl-8,9-methylenedioxy-2,3-diphenyl-5,6-dihydroimidazo(1,2-c)quinazoline
_symmetry_cell_setting           monoclinic
_symmetry_space_group_name_H-M   'P 21/c'
_symmetry_Int_Tables_number      14
_space_group_name_Hall           '-P 2ybc'
loop_
_symmetry_equiv_pos_site_id
_symmetry_equiv_pos_as_xyz
1 x,y,z
2 x,1/2-y,1/2+z
3 -x,-y,-z
4 -x,1/2+y,1/2-z
_cell_length_a                   9.594(2)
_cell_length_b                   16.928(4)
_cell_length_c                   12.865(3)
_cell_angle_alpha                90
_cell_angle_beta                 95.73(2)
_cell_angle_gamma                90
_cell_volume                     2078.93
_exptl_crystal_colour            colorless
_exptl_crystal_description       block
_chemical_melting_point          '512-513 K'
_cell_formula_units_Z            4
_exptl_crystal_recrystallization_method ethanol
loop_
_atom_site_label
_atom_site_type_symbol
_atom_site_fract_x
_atom_site_fract_y
_atom_site_fract_z
O1 O 1.0845(2) 0.88934(14) 0.51797(18)
O2 O 1.1019(2) 0.81862(16) 0.67203(17)
N1 N 0.6247(2) 0.78116(13) 0.40303(18)
N2 N 0.52717(18) 0.68661(11) 0.50827(14)
N3 N 0.61391(19) 0.65937(11) 0.67162(14)
C1 C 1.1615(4) 0.8807(3) 0.6170(3)
H1 H 1.1588 0.9296 0.6561
H2 H 1.2585 0.8686 0.6084
C2 C 0.9652(3) 0.84441(18) 0.5222(2)
C3 C 0.8545(3) 0.83796(16) 0.4480(2)
H3 H 0.8510 0.8657 0.3853
C4 C 0.7455(2) 0.78724(14) 0.47080(18)
C5 C 0.7538(2) 0.74580(14) 0.56537(17)
C6 C 0.8711(2) 0.75351(16) 0.63925(19)
H4 H 0.8778 0.7259 0.7020
C7 C 0.9742(3) 0.80296(18) 0.6151(2)
C8 C 0.6349(2) 0.69735(13) 0.58432(17)
C9 C 0.5437(3) 0.70960(15) 0.39858(19)
C10 C 0.4308(2) 0.63654(13) 0.54923(17)
C11 C 0.4858(2) 0.62166(14) 0.64983(17)
C12 C 0.2984(2) 0.60855(14) 0.49245(17)
C13 C 0.2888(3) 0.53456(15) 0.44759(19)
H5 H 0.3671 0.5020 0.4514
C14 C 0.1632(3) 0.50843(18) 0.3969(2)
H6 H 0.1580 0.4586 0.3662
C15 C 0.0471(3) 0.5553(2) 0.3916(2)
H7 H -0.0371 0.5374 0.3577
C16 C 0.0549(3) 0.6288(2) 0.4364(3)
H8 H -0.0240 0.6610 0.4328
C17 C 0.1803(3) 0.65495(17) 0.4870(2)
H9 H 0.1848 0.7047 0.5179
C18 C 0.4293(3) 0.57196(15) 0.72971(18)
C19 C 0.5203(3) 0.52757(16) 0.7966(2)
H10 H 0.6161 0.5296 0.7908
C20 C 0.4696(4) 0.48015(19) 0.8722(2)
H11 H 0.5309 0.4498 0.9163
C21 C 0.3297(5) 0.4783(2) 0.8816(3)
H12 H 0.2959 0.4464 0.9323
C22 C 0.2379(4) 0.5226(2) 0.8177(3)
H13 H 0.1427 0.5212 0.8258
C23 C 0.2868(3) 0.56960(19) 0.7409(2)
H14 H 0.2244 0.5994 0.6970
C24 C 0.4095(3) 0.7215(2) 0.3319(2)
H15 H 0.3537 0.7599 0.3638
H16 H 0.3595 0.6723 0.3248
H17 H 0.4286 0.7398 0.2642
C25 C 0.6287(3) 0.64143(17) 0.3524(2)
H18 H 0.6438 0.6539 0.2816
H19 H 0.5770 0.5930 0.3538
H20 H 0.7173 0.6356 0.3933
H21 H 0.631(3) 0.8057(15) 0.340(2)
loop_
_geom_bond_atom_site_label_1
_geom_bond_atom_site_label_2
_geom_bond_site_symmetry_1
_geom_bond_site_symmetry_2
O1 C1 1_555 1_555
O2 C1 1_555 1_555
N1 C4 1_555 1_555
N2 C8 1_555 1_555
N3 C8 1_555 1_555
C1 H1 1_555 1_555
H2 C1 1_555 1_555
C2 O1 1_555 1_555
C3 C2 1_555 1_555
H3 C3 1_555 1_555
C4 C3 1_555 1_555
C5 C4 1_555 1_555
C6 C5 1_555 1_555
H4 C6 1_555 1_555
C7 O2 1_555 1_555
C8 C5 1_555 1_555
C9 N1 1_555 1_555
C10 N2 1_555 1_555
C11 N3 1_555 1_555
C12 C10 1_555 1_555
C13 C12 1_555 1_555
H5 C13 1_555 1_555
C14 C13 1_555 1_555
H6 C14 1_555 1_555
C15 C14 1_555 1_555
H7 C15 1_555 1_555
C16 C15 1_555 1_555
H8 C16 1_555 1_555
C17 C12 1_555 1_555
H9 C17 1_555 1_555
C18 C11 1_555 1_555
C19 C18 1_555 1_555
H10 C19 1_555 1_555
C20 C19 1_555 1_555
H11 C20 1_555 1_555
C21 C20 1_555 1_555
H12 C21 1_555 1_555
C22 C21 1_555 1_555
H13 C22 1_555 1_555
C23 C18 1_555 1_555
H14 C23 1_555 1_555
C24 C9 1_555 1_555
H15 C24 1_555 1_555
H16 C24 1_555 1_555
H17 C24 1_555 1_555
C25 C9 1_555 1_555
H18 C25 1_555 1_555
H19 C25 1_555 1_555
H20 C25 1_555 1_555
H21 N1 1_555 1_555
N2 C9 1_555 1_555
C2 C7 1_555 1_555
C6 C7 1_555 1_555
C10 C11 1_555 1_555
C16 C17 1_555 1_555
C22 C23 1_555 1_555

#END
