
#######################################################################
#
#                 Cambridge Crystallographic Data Centre
#                                CCDC 
#
#######################################################################
#
# If this CIF has been generated from an entry in the Cambridge 
# Structural Database, then it will include bibliographic, chemical, 
# crystal, experimental, refinement or atomic coordinate data resulting 
# from the CCDC's data processing and validation procedures.
#
#######################################################################

data_OMOCIC
_chemical_formula_moiety         'C22 H15 N3'
_chemical_name_systematic        8,9-Diphenylimidazo(1,2-c)quinazoline
_symmetry_cell_setting           monoclinic
_symmetry_space_group_name_H-M   'P 21/c'
_symmetry_Int_Tables_number      14
_space_group_name_Hall           '-P 2ybc'
loop_
_symmetry_equiv_pos_site_id
_symmetry_equiv_pos_as_xyz
1 x,y,z
2 x,1/2-y,1/2+z
3 -x,-y,-z
4 -x,1/2+y,1/2-z
_cell_length_a                   13.262(2)
_cell_length_b                   10.8140(10)
_cell_length_c                   23.462(4)
_cell_angle_alpha                90
_cell_angle_beta                 98.400(10)
_cell_angle_gamma                90
_cell_volume                     3328.71
_exptl_crystal_colour            colorless
_exptl_crystal_description       block
_chemical_melting_point          '466-468 K'
_cell_formula_units_Z            8
_exptl_crystal_recrystallization_method ethanol
loop_
_atom_site_label
_atom_site_type_symbol
_atom_site_fract_x
_atom_site_fract_y
_atom_site_fract_z
N1 N 0.09817(13) 1.01090(15) 0.62894(7)
N2 N 0.15065(13) 0.82854(15) 0.59964(7)
N3 N 0.15915(14) 0.63997(16) 0.64961(8)
C1 C 0.12270(16) 0.7002(2) 0.69491(10)
C2 C 0.10956(17) 0.6314(2) 0.74374(10)
H1 H 0.1246 0.5473 0.7451
C3 C 0.07475(19) 0.6869(2) 0.78952(10)
H2 H 0.0653 0.6401 0.8216
C4 C 0.05334(18) 0.8130(2) 0.78843(10)
H3 H 0.0301 0.8501 0.8198
C5 C 0.06642(16) 0.8825(2) 0.74135(9)
H4 H 0.0529 0.9669 0.7410
C6 C 0.10001(15) 0.8271(2) 0.69384(9)
C7 C 0.11382(15) 0.89340(19) 0.64291(9)
C8 C 0.17297(16) 0.70385(19) 0.60530(10)
H5 H 0.1993 0.6643 0.5755
C9 C 0.16099(15) 0.91233(19) 0.55547(8)
C10 C 0.12703(15) 1.02286(18) 0.57452(8)
C11 C 0.11670(15) 1.14394(18) 0.54554(9)
C12 C 0.10640(17) 1.1550(2) 0.48587(10)
H6 H 0.1059 1.0847 0.4631
C13 C 0.09686(19) 1.2707(2) 0.46049(11)
H7 H 0.0921 1.2775 0.4207
C14 C 0.09438(18) 1.3758(2) 0.49336(12)
H8 H 0.0879 1.4532 0.4759
C15 C 0.10155(17) 1.3656(2) 0.55224(12)
H9 H 0.0989 1.4360 0.5747
C16 C 0.11271(16) 1.25084(19) 0.57781(9)
H10 H 0.1177 1.2449 0.6177
C17 C 0.20703(16) 0.87552(19) 0.50465(8)
C18 C 0.29418(17) 0.9354(2) 0.49284(9)
H11 H 0.3225 0.9987 0.5169
C19 C 0.3391(2) 0.9017(2) 0.44576(10)
H12 H 0.3971 0.9426 0.4378
C20 C 0.2979(3) 0.8076(3) 0.41067(11)
H13 H 0.3280 0.7851 0.3788
C21 C 0.2129(2) 0.7467(2) 0.42211(10)
H14 H 0.1864 0.6820 0.3984
C22 C 0.16606(18) 0.7805(2) 0.46868(9)
H15 H 0.1074 0.7399 0.4759
N4 N 0.40582(13) 0.12548(15) 0.60705(7)
N5 N 0.35495(12) 0.31016(15) 0.63417(7)
N6 N 0.33677(14) 0.49298(16) 0.57947(8)
C23 C 0.36842(16) 0.4280(2) 0.53372(10)
C24 C 0.36893(19) 0.4906(2) 0.48170(11)
H16 H 0.3506 0.5736 0.4787
C25 C 0.3963(2) 0.4301(3) 0.43536(11)
H17 H 0.3956 0.4720 0.4007
C26 C 0.4254(2) 0.3062(3) 0.43931(11)
H18 H 0.4443 0.2662 0.4074
C27 C 0.42624(17) 0.2435(2) 0.49000(9)
H19 H 0.4464 0.1611 0.4927
C28 C 0.39694(16) 0.3031(2) 0.53766(9)
C29 C 0.38985(15) 0.2416(2) 0.59102(8)
C30 C 0.32979(16) 0.4338(2) 0.62612(10)
H20 H 0.3066 0.4762 0.6561
C31 C 0.34543(15) 0.22973(18) 0.67948(8)
C32 C 0.37805(15) 0.11753(18) 0.66199(8)
C33 C 0.38588(16) -0.00260(19) 0.69202(9)
C34 C 0.38904(17) -0.0123(2) 0.75154(9)
H21 H 0.3883 0.0590 0.7737
C35 C 0.3932(2) -0.1261(2) 0.77775(11)
H22 H 0.3938 -0.1310 0.8174
C36 C 0.39634(18) -0.2330(2) 0.74614(12)
H23 H 0.3990 -0.3097 0.7642
C37 C 0.39547(18) -0.2250(2) 0.68757(11)
H24 H 0.3982 -0.2967 0.6659
C38 C 0.39048(16) -0.11062(19) 0.66061(9)
H25 H 0.3902 -0.1062 0.6210
C39 C 0.30408(16) 0.27214(19) 0.73127(8)
C40 C 0.21965(17) 0.2149(2) 0.74781(9)
H26 H 0.1875 0.1512 0.7254
C41 C 0.18269(19) 0.2514(2) 0.79721(10)
H27 H 0.1269 0.2109 0.8084
C42 C 0.2280(2) 0.3473(3) 0.82984(11)
H28 H 0.2025 0.3721 0.8629
C43 C 0.3107(2) 0.4062(2) 0.81356(10)
H29 H 0.3410 0.4716 0.8354
C44 C 0.34926(17) 0.3685(2) 0.76463(9)
H30 H 0.4059 0.4082 0.7541
loop_
_geom_bond_atom_site_label_1
_geom_bond_atom_site_label_2
_geom_bond_site_symmetry_1
_geom_bond_site_symmetry_2
N1 C7 1_555 1_555
N2 C7 1_555 1_555
N3 C1 1_555 1_555
C1 C2 1_555 1_555
C2 H1 1_555 1_555
C3 C2 1_555 1_555
H2 C3 1_555 1_555
C4 C3 1_555 1_555
H3 C4 1_555 1_555
C5 C4 1_555 1_555
H4 C5 1_555 1_555
C6 C1 1_555 1_555
C7 C6 1_555 1_555
C8 N2 1_555 1_555
H5 C8 1_555 1_555
C9 N2 1_555 1_555
C10 N1 1_555 1_555
C11 C10 1_555 1_555
C12 C11 1_555 1_555
H6 C12 1_555 1_555
C13 C12 1_555 1_555
H7 C13 1_555 1_555
C14 C13 1_555 1_555
H8 C14 1_555 1_555
C15 C14 1_555 1_555
H9 C15 1_555 1_555
C16 C11 1_555 1_555
H10 C16 1_555 1_555
C17 C9 1_555 1_555
C18 C17 1_555 1_555
H11 C18 1_555 1_555
C19 C18 1_555 1_555
H12 C19 1_555 1_555
C20 C19 1_555 1_555
H13 C20 1_555 1_555
C21 C20 1_555 1_555
H14 C21 1_555 1_555
C22 C17 1_555 1_555
H15 C22 1_555 1_555
N4 C29 1_555 1_555
N5 C29 1_555 1_555
N6 C23 1_555 1_555
C23 C24 1_555 1_555
C24 H16 1_555 1_555
C25 C24 1_555 1_555
H17 C25 1_555 1_555
C26 C25 1_555 1_555
H18 C26 1_555 1_555
C27 C26 1_555 1_555
H19 C27 1_555 1_555
C28 C23 1_555 1_555
C29 C28 1_555 1_555
C30 N5 1_555 1_555
H20 C30 1_555 1_555
C31 N5 1_555 1_555
C32 N4 1_555 1_555
C33 C32 1_555 1_555
C34 C33 1_555 1_555
H21 C34 1_555 1_555
C35 C34 1_555 1_555
H22 C35 1_555 1_555
C36 C35 1_555 1_555
H23 C36 1_555 1_555
C37 C36 1_555 1_555
H24 C37 1_555 1_555
C38 C33 1_555 1_555
H25 C38 1_555 1_555
C39 C31 1_555 1_555
C40 C39 1_555 1_555
H26 C40 1_555 1_555
C41 C40 1_555 1_555
H27 C41 1_555 1_555
C42 C41 1_555 1_555
H28 C42 1_555 1_555
C43 C42 1_555 1_555
H29 C43 1_555 1_555
C44 C39 1_555 1_555
H30 C44 1_555 1_555
N3 C8 1_555 1_555
C5 C6 1_555 1_555
C9 C10 1_555 1_555
C15 C16 1_555 1_555
C21 C22 1_555 1_555
N6 C30 1_555 1_555
C27 C28 1_555 1_555
C31 C32 1_555 1_555
C37 C38 1_555 1_555
C43 C44 1_555 1_555

#END
