
#######################################################################
#
#                 Cambridge Crystallographic Data Centre
#                                CCDC 
#
#######################################################################
#
# If this CIF has been generated from an entry in the Cambridge 
# Structural Database, then it will include bibliographic, chemical, 
# crystal, experimental, refinement or atomic coordinate data resulting 
# from the CCDC's data processing and validation procedures.
#
#######################################################################

data_OMODID
_chemical_compound_source        'rhizome of Alisma orientale Juzep'
_chemical_name_common            
'11-Hydroxy-24,25-epoxy-3-oxoprotost-13(17)-en-23-yl acetate'
_chemical_formula_moiety         'C32 H50 O5'
_chemical_name_systematic        'Alisol B monoacetate'
_chemical_properties_biological  'potential biological activity'
_symmetry_cell_setting           orthorhombic
_symmetry_space_group_name_H-M   'P 21 21 21'
_symmetry_Int_Tables_number      19
_space_group_name_Hall           'P 2ac 2ab'
loop_
_symmetry_equiv_pos_site_id
_symmetry_equiv_pos_as_xyz
1 x,y,z
2 1/2-x,-y,1/2+z
3 -x,1/2+y,1/2-z
4 1/2+x,1/2-y,-z
_cell_length_a                   7.7160(10)
_cell_length_b                   14.495(2)
_cell_length_c                   27.526(5)
_cell_angle_alpha                90
_cell_angle_beta                 90
_cell_angle_gamma                90
_cell_volume                     3078.6
_exptl_crystal_colour            colorless
_exptl_crystal_description       prisms
_chemical_melting_point          '443-445 K'
_cell_formula_units_Z            4
_exptl_crystal_recrystallization_method methanol
loop_
_atom_site_label
_atom_site_type_symbol
_atom_site_fract_x
_atom_site_fract_y
_atom_site_fract_z
O1 O 0.1410(3) 1.23849(15) 0.07938(8)
O2 O 0.1038(2) 0.86385(12) 0.17467(7)
H1 H 0.1547 0.8688 0.2007
O3 O 0.3269(2) 0.46639(12) 0.21618(6)
O4 O 0.4181(3) 0.59758(15) 0.25097(7)
O5 O 0.7135(3) 0.40579(15) 0.23722(6)
C1 C 0.1127(3) 0.99191(18) 0.08611(10)
H2 H 0.1048 0.9430 0.0622
H3 H 0.0281 0.9794 0.1113
C2 C 0.0690(4) 1.0846(2) 0.06167(14)
H4 H 0.0597 1.0741 0.0270
H5 H -0.0443 1.1040 0.0730
C3 C 0.1921(4) 1.1619(2) 0.06958(10)
C4 C 0.3816(4) 1.13999(18) 0.06097(11)
C5 C 0.4169(3) 1.03574(16) 0.07055(9)
H6 H 0.3911 1.0042 0.0399
C6 C 0.6055(3) 1.01342(17) 0.08183(12)
H7 H 0.6803 1.0490 0.0606
H8 H 0.6312 1.0308 0.1151
C7 C 0.6425(3) 0.91142(17) 0.07502(10)
H9 H 0.7430 0.8955 0.0945
H10 H 0.6729 0.9012 0.0413
C8 C 0.4934(3) 0.84476(15) 0.08847(8)
C9 C 0.3640(3) 0.89269(15) 0.12418(7)
H11 H 0.4310 0.9032 0.1539
C10 C 0.2966(3) 0.99142(15) 0.10877(8)
C11 C 0.2182(3) 0.82553(17) 0.13929(8)
H12 H 0.1495 0.8120 0.1102
C12 C 0.2871(3) 0.73318(16) 0.15891(8)
H13 H 0.3353 0.7427 0.1911
H14 H 0.1918 0.6899 0.1618
C13 C 0.4232(3) 0.69298(16) 0.12660(8)
C14 C 0.5714(3) 0.75707(16) 0.11416(9)
C15 C 0.6832(4) 0.69566(17) 0.07991(10)
H15 H 0.7040 0.7273 0.0494
H16 H 0.7941 0.6823 0.0949
C16 C 0.5837(4) 0.60685(18) 0.07102(10)
H17 H 0.5446 0.6034 0.0376
H18 H 0.6556 0.5536 0.0780
C17 C 0.4319(3) 0.61110(16) 0.10529(8)
C18 C 0.3993(4) 0.81542(17) 0.04167(8)
H19 H 0.3165 0.7681 0.0491
H20 H 0.4822 0.7922 0.0187
H21 H 0.3406 0.8677 0.0280
C19 C 0.2898(4) 1.05037(17) 0.15521(8)
H22 H 0.4050 1.0585 0.1677
H23 H 0.2197 1.0199 0.1791
H24 H 0.2406 1.1095 0.1478
C20 C 0.3108(4) 0.53144(16) 0.11117(8)
H25 H 0.2198 0.5502 0.1339
C21 C 0.2224(5) 0.5046(2) 0.06310(9)
H26 H 0.1597 0.5566 0.0506
H27 H 0.1437 0.4544 0.0687
H28 H 0.3088 0.4859 0.0400
C22 C 0.4037(4) 0.44743(16) 0.13312(8)
H29 H 0.3231 0.3961 0.1340
H30 H 0.4985 0.4302 0.1118
C23 C 0.4752(3) 0.46240(18) 0.18381(8)
H31 H 0.5391 0.5208 0.1851
C24 C 0.5881(4) 0.3857(2) 0.20006(9)
H32 H 0.5284 0.3265 0.2040
C25 C 0.7731(4) 0.3780(2) 0.18956(10)
C26 C 0.8660(4) 0.4522(3) 0.16269(11)
H33 H 0.8183 0.5111 0.1714
H34 H 0.8527 0.4426 0.1284
H35 H 0.9868 0.4507 0.1710
C27 C 0.8574(5) 0.2855(2) 0.18818(13)
H36 H 0.9742 0.2905 0.1999
H37 H 0.8586 0.2630 0.1554
H38 H 0.7938 0.2434 0.2084
C28 C 0.4936(4) 1.20606(19) 0.09086(15)
H39 H 0.4580 1.2684 0.0847
H40 H 0.6130 1.1987 0.0818
H41 H 0.4801 1.1925 0.1248
C29 C 0.4127(6) 1.1604(2) 0.00692(12)
H42 H 0.3375 1.1226 -0.0124
H43 H 0.5312 1.1471 -0.0011
H44 H 0.3890 1.2243 0.0005
C30 C 0.6744(4) 0.77881(19) 0.16060(10)
H45 H 0.6044 0.8154 0.1820
H46 H 0.7775 0.8124 0.1523
H47 H 0.7057 0.7222 0.1765
C31 C 0.3155(4) 0.5357(2) 0.24799(9)
C32 C 0.1559(4) 0.5270(2) 0.27812(10)
H48 H 0.1688 0.5629 0.3072
H49 H 0.1380 0.4635 0.2865
H50 H 0.0580 0.5492 0.2600
loop_
_geom_bond_atom_site_label_1
_geom_bond_atom_site_label_2
_geom_bond_site_symmetry_1
_geom_bond_site_symmetry_2
O1 C3 1_555 1_555
O2 H1 1_555 1_555
O3 C23 1_555 1_555
O4 C31 1_555 1_555
O5 C24 1_555 1_555
C1 H2 1_555 1_555
H3 C1 1_555 1_555
C2 C1 1_555 1_555
H4 C2 1_555 1_555
H5 C2 1_555 1_555
C3 C2 1_555 1_555
C4 C3 1_555 1_555
C5 C4 1_555 1_555
H6 C5 1_555 1_555
C6 C5 1_555 1_555
H7 C6 1_555 1_555
H8 C6 1_555 1_555
C7 C6 1_555 1_555
H9 C7 1_555 1_555
H10 C7 1_555 1_555
C8 C7 1_555 1_555
C9 C8 1_555 1_555
H11 C9 1_555 1_555
C10 C1 1_555 1_555
C11 O2 1_555 1_555
H12 C11 1_555 1_555
C12 C11 1_555 1_555
H13 C12 1_555 1_555
H14 C12 1_555 1_555
C13 C12 1_555 1_555
C14 C8 1_555 1_555
C15 C14 1_555 1_555
H15 C15 1_555 1_555
H16 C15 1_555 1_555
C16 C15 1_555 1_555
H17 C16 1_555 1_555
H18 C16 1_555 1_555
C17 C13 1_555 1_555
C18 C8 1_555 1_555
H19 C18 1_555 1_555
H20 C18 1_555 1_555
H21 C18 1_555 1_555
C19 C10 1_555 1_555
H22 C19 1_555 1_555
H23 C19 1_555 1_555
H24 C19 1_555 1_555
C20 C17 1_555 1_555
H25 C20 1_555 1_555
C21 C20 1_555 1_555
H26 C21 1_555 1_555
H27 C21 1_555 1_555
H28 C21 1_555 1_555
C22 C20 1_555 1_555
H29 C22 1_555 1_555
H30 C22 1_555 1_555
C23 C22 1_555 1_555
H31 C23 1_555 1_555
C24 C23 1_555 1_555
H32 C24 1_555 1_555
C25 O5 1_555 1_555
C26 C25 1_555 1_555
H33 C26 1_555 1_555
H34 C26 1_555 1_555
H35 C26 1_555 1_555
C27 C25 1_555 1_555
H36 C27 1_555 1_555
H37 C27 1_555 1_555
H38 C27 1_555 1_555
C28 C4 1_555 1_555
H39 C28 1_555 1_555
H40 C28 1_555 1_555
H41 C28 1_555 1_555
C29 C4 1_555 1_555
H42 C29 1_555 1_555
H43 C29 1_555 1_555
H44 C29 1_555 1_555
C30 C14 1_555 1_555
H45 C30 1_555 1_555
H46 C30 1_555 1_555
H47 C30 1_555 1_555
C31 O3 1_555 1_555
C32 C31 1_555 1_555
H48 C32 1_555 1_555
H49 C32 1_555 1_555
H50 C32 1_555 1_555
C5 C10 1_555 1_555
C9 C11 1_555 1_555
C9 C10 1_555 1_555
C13 C14 1_555 1_555
C16 C17 1_555 1_555
C24 C25 1_555 1_555

#END
