
#######################################################################
#
#                 Cambridge Crystallographic Data Centre
#                                CCDC 
#
#######################################################################
#
# If this CIF has been generated from an entry in the Cambridge 
# Structural Database, then it will include bibliographic, chemical, 
# crystal, experimental, refinement or atomic coordinate data resulting 
# from the CCDC's data processing and validation procedures.
#
#######################################################################

data_OMOGIH
_chemical_formula_moiety         'C42 H60 Li2 N4 P2 S2'
_chemical_name_systematic        
bis(\m~2~-N,N'-Di-t-butyl-S-((diphenylphosphino)methyl)diimidosulfinato-N,N,N',P)-di-lithium
_symmetry_cell_setting           triclinic
_symmetry_space_group_name_H-M   'P -1'
_symmetry_Int_Tables_number      2
_space_group_name_Hall           '-P 1'
loop_
_symmetry_equiv_pos_site_id
_symmetry_equiv_pos_as_xyz
1 x,y,z
2 -x,-y,-z
_cell_length_a                   9.6236(11)
_cell_length_b                   10.1512(12)
_cell_length_c                   11.3253(13)
_cell_angle_alpha                73.936(2)
_cell_angle_beta                 84.728(2)
_cell_angle_gamma                88.960(2)
_cell_volume                     1058.65
_exptl_crystal_colour            colorless
_exptl_crystal_description       block
_chemical_melting_point          '396 K (dec.)'
_cell_formula_units_Z            1
_exptl_crystal_recrystallization_method toluene
loop_
_atom_site_label
_atom_site_type_symbol
_atom_site_fract_x
_atom_site_fract_y
_atom_site_fract_z
C1 C 0.68258(18) 0.66971(17) 0.26483(15)
C2 C 0.61020(19) 0.74617(18) 0.33525(15)
H1 H 0.5223 0.7145 0.3781
C3 C 0.6658(2) 0.86806(19) 0.34315(17)
H2 H 0.6149 0.9197 0.3906
C4 C 0.7941(2) 0.9156(2) 0.28305(17)
H3 H 0.8320 0.9985 0.2903
C5 C 0.8671(2) 0.8413(2) 0.21199(18)
H4 H 0.9554 0.8733 0.1701
C6 C 0.81118(19) 0.72032(18) 0.20210(16)
H5 H 0.8610 0.6709 0.1519
C7 C 0.70730(17) 0.38572(17) 0.37890(15)
C8 C 0.79558(17) 0.42678(18) 0.45356(15)
H6 H 0.8130 0.5216 0.4414
C9 C 0.85849(19) 0.33022(19) 0.54574(15)
H7 H 0.9191 0.3596 0.5952
C10 C 0.8330(2) 0.1921(2) 0.56531(16)
H8 H 0.8752 0.1263 0.6285
C11 C 0.7450(2) 0.15021(19) 0.49174(17)
H9 H 0.7270 0.0553 0.5050
C12 C 0.6836(2) 0.24528(19) 0.39957(16)
H10 H 0.6244 0.2149 0.3495
C13 C 0.44325(17) 0.48376(19) 0.31327(15)
H11 H 0.4242 0.5455 0.3668
H12 H 0.4277 0.3884 0.3654
C14 C 0.82759(18) 0.70064(17) -0.22240(15)
C15 C 0.8181(2) 0.7549(2) -0.36176(16)
H13 H 0.7302 0.8040 -0.3773
H14 H 0.8966 0.8174 -0.3987
H15 H 0.8216 0.6779 -0.3984
C16 C 0.8317(2) 0.8231(2) -0.16982(18)
H16 H 0.8358 0.7907 -0.0803
H17 H 0.9145 0.8794 -0.2073
H18 H 0.7476 0.8781 -0.1880
C17 C 0.96227(18) 0.6187(2) -0.19867(18)
H19 H 0.9596 0.5391 -0.2316
H20 H 1.0425 0.6770 -0.2395
H21 H 0.9709 0.5874 -0.1097
C18 C 0.34919(17) 0.75286(16) 0.02427(14)
C19 C 0.45500(19) 0.83451(18) -0.07594(16)
H22 H 0.5395 0.8493 -0.0390
H23 H 0.4151 0.9233 -0.1164
H24 H 0.4786 0.7836 -0.1370
C20 C 0.3192(2) 0.83168(19) 0.12108(17)
H25 H 0.2506 0.7807 0.1863
H26 H 0.2820 0.9222 0.0820
H27 H 0.4057 0.8426 0.1569
C21 C 0.21298(18) 0.73737(19) -0.03110(17)
H28 H 0.2317 0.6905 -0.0957
H29 H 0.1744 0.8282 -0.0667
H30 H 0.1457 0.6835 0.0337
Li1 Li 0.6065(3) 0.5651(3) 0.0085(3)
N1 N 0.70227(14) 0.61947(14) -0.15817(12)
N2 N 0.41501(14) 0.61626(14) 0.07609(12)
P1 P 0.62715(4) 0.50419(4) 0.24997(4)
S1 S 0.31921(4) 0.52137(4) 0.19400(3)
C1A C 0.31742(18) 0.33029(17) -0.26483(15)
C2A C 0.38980(19) 0.25383(18) -0.33525(15)
H1A H 0.4777 0.2855 -0.3781
C3A C 0.3342(2) 0.13194(19) -0.34315(17)
H2A H 0.3851 0.0803 -0.3906
C4A C 0.2059(2) 0.0844(2) -0.28305(17)
H3A H 0.1680 0.0015 -0.2903
C5A C 0.1329(2) 0.1587(2) -0.21199(18)
H4A H 0.0446 0.1267 -0.1701
C6A C 0.18882(19) 0.27968(18) -0.20210(16)
H5A H 0.1390 0.3291 -0.1519
C7A C 0.29270(17) 0.61428(17) -0.37890(15)
C8A C 0.20442(17) 0.57322(18) -0.45356(15)
H6A H 0.1870 0.4784 -0.4414
C9A C 0.14151(19) 0.66978(19) -0.54574(15)
H7A H 0.0809 0.6404 -0.5952
C10A C 0.1670(2) 0.8079(2) -0.56531(16)
H8A H 0.1248 0.8737 -0.6285
C11A C 0.2550(2) 0.84979(19) -0.49174(17)
H9A H 0.2730 0.9447 -0.5050
C12A C 0.3164(2) 0.75472(19) -0.39957(16)
H10A H 0.3756 0.7851 -0.3495
C13A C 0.55675(17) 0.51624(19) -0.31327(15)
H11A H 0.5758 0.4545 -0.3668
H12A H 0.5723 0.6116 -0.3654
C14A C 0.17241(18) 0.29936(17) 0.22240(15)
C15A C 0.1819(2) 0.2451(2) 0.36176(16)
H13A H 0.2698 0.1960 0.3773
H14A H 0.1034 0.1826 0.3987
H15A H 0.1784 0.3221 0.3984
C16A C 0.1683(2) 0.1769(2) 0.16982(18)
H16A H 0.1642 0.2093 0.0803
H17A H 0.0855 0.1206 0.2073
H18A H 0.2524 0.1219 0.1880
C17A C 0.03773(18) 0.3813(2) 0.19867(18)
H19A H 0.0404 0.4609 0.2316
H20A H -0.0425 0.3230 0.2395
H21A H 0.0291 0.4126 0.1097
C18A C 0.65081(17) 0.24714(16) -0.02427(14)
C19A C 0.54500(19) 0.16549(18) 0.07594(16)
H22A H 0.4605 0.1507 0.0390
H23A H 0.5849 0.0767 0.1164
H24A H 0.5214 0.2164 0.1370
C20A C 0.6808(2) 0.16832(19) -0.12108(17)
H25A H 0.7494 0.2193 -0.1863
H26A H 0.7180 0.0778 -0.0820
H27A H 0.5943 0.1574 -0.1569
C21A C 0.78702(18) 0.26263(19) 0.03110(17)
H28A H 0.7683 0.3095 0.0957
H29A H 0.8256 0.1718 0.0667
H30A H 0.8543 0.3165 -0.0337
Li1A Li 0.3935(3) 0.4349(3) -0.0085(3)
N1A N 0.29773(14) 0.38053(14) 0.15817(12)
N2A N 0.58499(14) 0.38374(14) -0.07609(12)
P1A P 0.37285(4) 0.49581(4) -0.24997(4)
S1A S 0.68079(4) 0.47863(4) -0.19400(3)
loop_
_geom_bond_atom_site_label_1
_geom_bond_atom_site_label_2
_geom_bond_site_symmetry_1
_geom_bond_site_symmetry_2
C1 C2 1_555 1_555
C2 H1 1_555 1_555
C3 C2 1_555 1_555
H2 C3 1_555 1_555
C4 C3 1_555 1_555
H3 C4 1_555 1_555
C5 C4 1_555 1_555
H4 C5 1_555 1_555
C6 C1 1_555 1_555
H5 C6 1_555 1_555
C7 C8 1_555 1_555
C8 H6 1_555 1_555
C9 C8 1_555 1_555
H7 C9 1_555 1_555
C10 C9 1_555 1_555
H8 C10 1_555 1_555
C11 C10 1_555 1_555
H9 C11 1_555 1_555
C12 C7 1_555 1_555
H10 C12 1_555 1_555
C13 H11 1_555 1_555
H12 C13 1_555 1_555
C14 C15 1_555 1_555
C15 H13 1_555 1_555
H14 C15 1_555 1_555
H15 C15 1_555 1_555
C16 C14 1_555 1_555
H16 C16 1_555 1_555
H17 C16 1_555 1_555
H18 C16 1_555 1_555
C17 C14 1_555 1_555
H19 C17 1_555 1_555
H20 C17 1_555 1_555
H21 C17 1_555 1_555
C18 C19 1_555 1_555
C19 H22 1_555 1_555
H23 C19 1_555 1_555
H24 C19 1_555 1_555
C20 C18 1_555 1_555
H25 C20 1_555 1_555
H26 C20 1_555 1_555
H27 C20 1_555 1_555
C21 C18 1_555 1_555
H28 C21 1_555 1_555
H29 C21 1_555 1_555
H30 C21 1_555 1_555
Li1 N1 1_555 1_555
N1 C14 1_555 1_555
N2 C18 1_555 1_555
P1 C1 1_555 1_555
S1 C13 1_555 1_555
C1A C2A 1_555 1_555
C2A H1A 1_555 1_555
C3A C2A 1_555 1_555
H2A C3A 1_555 1_555
C4A C3A 1_555 1_555
H3A C4A 1_555 1_555
C5A C4A 1_555 1_555
H4A C5A 1_555 1_555
C6A C1A 1_555 1_555
H5A C6A 1_555 1_555
C7A C8A 1_555 1_555
C8A H6A 1_555 1_555
C9A C8A 1_555 1_555
H7A C9A 1_555 1_555
C10A C9A 1_555 1_555
H8A C10A 1_555 1_555
C11A C10A 1_555 1_555
H9A C11A 1_555 1_555
C12A C7A 1_555 1_555
H10A C12A 1_555 1_555
C13A H11A 1_555 1_555
H12A C13A 1_555 1_555
C14A C15A 1_555 1_555
C15A H13A 1_555 1_555
H14A C15A 1_555 1_555
H15A C15A 1_555 1_555
C16A C14A 1_555 1_555
H16A C16A 1_555 1_555
H17A C16A 1_555 1_555
H18A C16A 1_555 1_555
C17A C14A 1_555 1_555
H19A C17A 1_555 1_555
H20A C17A 1_555 1_555
H21A C17A 1_555 1_555
C18A C19A 1_555 1_555
C19A H22A 1_555 1_555
H23A C19A 1_555 1_555
H24A C19A 1_555 1_555
C20A C18A 1_555 1_555
H25A C20A 1_555 1_555
H26A C20A 1_555 1_555
H27A C20A 1_555 1_555
C21A C18A 1_555 1_555
H28A C21A 1_555 1_555
H29A C21A 1_555 1_555
H30A C21A 1_555 1_555
Li1A N2 1_555 1_555
N1A S1 1_555 1_555
N2A Li1 1_555 1_555
P1A C1A 1_555 1_555
S1A N1 1_555 1_555
C5 C6 1_555 1_555
C7 P1 1_555 1_555
C11 C12 1_555 1_555
C13 P1 1_555 1_555
Li1 N2 1_555 1_555
Li1 P1 1_555 1_555
N2 S1 1_555 1_555
C5A C6A 1_555 1_555
C7A P1A 1_555 1_555
C11A C12A 1_555 1_555
C13A P1A 1_555 1_555
C13A S1A 1_555 1_555
C14A N1A 1_555 1_555
C18A N2A 1_555 1_555
Li1A N1A 1_555 1_555
Li1A N2A 1_555 1_555
Li1A P1A 1_555 1_555
N2A S1A 1_555 1_555

#END
