
#######################################################################
#
#                 Cambridge Crystallographic Data Centre
#                                CCDC 
#
#######################################################################
#
# If this CIF has been generated from an entry in the Cambridge 
# Structural Database, then it will include bibliographic, chemical, 
# crystal, experimental, refinement or atomic coordinate data resulting 
# from the CCDC's data processing and validation procedures.
#
#######################################################################

data_OMOGUT
_chemical_formula_moiety         'C18 H52 Li2 N4 P2 S2 Si4'
_chemical_name_systematic        
bis(\m~2~-N,N'-bis(Trimethylsilyl)-S-((dimethylphosphino)methyl)diimidosulfinato-N,N,N',P)-di-lithium
_symmetry_cell_setting           triclinic
_symmetry_space_group_name_H-M   'P -1'
_symmetry_Int_Tables_number      2
_space_group_name_Hall           '-P 1'
loop_
_symmetry_equiv_pos_site_id
_symmetry_equiv_pos_as_xyz
1 x,y,z
2 -x,-y,-z
_cell_length_a                   10.2715(11)
_cell_length_b                   10.3560(11)
_cell_length_c                   10.4832(11)
_cell_angle_alpha                68.636(1)
_cell_angle_beta                 65.728(1)
_cell_angle_gamma                60.990(1)
_cell_volume                     869.769
_exptl_crystal_colour            colorless
_exptl_crystal_description       plate
_chemical_melting_point          '147.3 deg.C (dec.)'
_cell_formula_units_Z            1
_exptl_crystal_recrystallization_method n-pentane
loop_
_atom_site_label
_atom_site_type_symbol
_atom_site_fract_x
_atom_site_fract_y
_atom_site_fract_z
C1 C 0.67155(14) 0.66104(13) 0.56528(13)
H1 H 0.7317 0.5530 0.5607
H2 H 0.5601 0.6818 0.5906
C2 C 0.91628(15) 0.62329(16) 0.65576(14)
H3 H 0.9530 0.6879 0.5668
H4 H 0.9605 0.5202 0.6412
H5 H 0.9491 0.6228 0.7316
C3 C 0.67127(17) 0.53900(15) 0.85184(14)
H6 H 0.6985 0.5335 0.9335
H7 H 0.7363 0.4443 0.8177
H8 H 0.5616 0.5553 0.8814
C4 C 0.81094(17) 0.73284(19) 0.04414(15)
H9 H 0.7970 0.8381 -0.0008
H10 H 0.8290 0.6811 -0.0271
H11 H 0.9005 0.6824 0.0821
C5 C 0.6623(2) 0.52425(15) 0.26971(17)
H12 H 0.7520 0.4721 0.3077
H13 H 0.6815 0.4769 0.1946
H14 H 0.5693 0.5175 0.3469
C6 C 0.45834(16) 0.82382(17) 0.12650(16)
H15 H 0.3719 0.7996 0.2005
H16 H 0.4827 0.7896 0.0406
H17 H 0.4289 0.9332 0.1032
C7 C 0.76306(16) 1.15187(15) 0.16399(14)
H18 H 0.7639 1.0976 0.1040
H19 H 0.8372 1.2002 0.1098
H20 H 0.6585 1.2291 0.1929
C8 C 0.81309(15) 1.11897(15) 0.44392(15)
H21 H 0.7065 1.1914 0.4766
H22 H 0.8821 1.1730 0.3899
H23 H 0.8473 1.0468 0.5268
C9 C 1.02319(14) 0.88049(15) 0.26074(15)
H24 H 1.0599 0.8083 0.3424
H25 H 1.0905 0.9362 0.2055
H26 H 1.0259 0.8261 0.1997
S1 S 0.72692(3) 0.77499(3) 0.38842(3)
P1 P 0.70386(3) 0.69614(3) 0.70762(3)
Si1 Si 0.63216(4) 0.72697(4) 0.19344(3)
Si2 Si 0.81935(4) 1.01589(4) 0.32679(3)
N1 N 0.59257(11) 0.81657(11) 0.32199(11)
N2 N 0.69080(11) 0.92835(11) 0.42898(10)
Li1 Li 0.5423(2) 0.9862(2) 0.6183(2)
C1A C 0.32845(14) 1.33896(13) 0.43472(13)
H1A H 0.2683 1.4470 0.4393
H2A H 0.4399 1.3182 0.4094
C2A C 0.08372(15) 1.37671(16) 0.34424(14)
H3A H 0.0470 1.3121 0.4332
H4A H 0.0395 1.4798 0.3588
H5A H 0.0509 1.3772 0.2684
C3A C 0.32873(17) 1.46100(15) 0.14816(14)
H6A H 0.3015 1.4665 0.0665
H7A H 0.2637 1.5557 0.1823
H8A H 0.4384 1.4447 0.1186
C4A C 0.18906(17) 1.26716(19) 0.95586(15)
H9A H 0.2030 1.1619 1.0008
H10A H 0.1710 1.3189 1.0271
H11A H 0.0995 1.3176 0.9179
C5A C 0.3377(2) 1.47575(15) 0.73029(17)
H12A H 0.2480 1.5279 0.6923
H13A H 0.3185 1.5231 0.8054
H14A H 0.4307 1.4825 0.6531
C6A C 0.54166(16) 1.17618(17) 0.87350(16)
H15A H 0.6281 1.2004 0.7995
H16A H 0.5173 1.2104 0.9594
H17A H 0.5711 1.0668 0.8968
C7A C 0.23694(16) 0.84813(15) 0.83601(14)
H18A H 0.2361 0.9024 0.8960
H19A H 0.1628 0.7998 0.8902
H20A H 0.3415 0.7709 0.8071
C8A C 0.18691(15) 0.88103(15) 0.55608(15)
H21A H 0.2935 0.8086 0.5234
H22A H 0.1179 0.8270 0.6101
H23A H 0.1527 0.9532 0.4732
C9A C -0.02319(14) 1.11951(15) 0.73926(15)
H24A H -0.0599 1.1917 0.6576
H25A H -0.0905 1.0638 0.7945
H26A H -0.0259 1.1739 0.8003
S1A S 0.27308(3) 1.22501(3) 0.61158(3)
P1A P 0.29614(3) 1.30386(3) 0.29238(3)
Si1A Si 0.36784(4) 1.27303(4) 0.80656(3)
Si2A Si 0.18065(4) 0.98411(4) 0.67321(3)
N1A N 0.40743(11) 1.18343(11) 0.67801(11)
N2A N 0.30920(11) 1.07165(11) 0.57102(10)
Li1A Li 0.4577(2) 1.0138(2) 0.3817(2)
loop_
_geom_bond_atom_site_label_1
_geom_bond_atom_site_label_2
_geom_bond_site_symmetry_1
_geom_bond_site_symmetry_2
C1 H1 1_555 1_555
H2 C1 1_555 1_555
C2 H3 1_555 1_555
H4 C2 1_555 1_555
H5 C2 1_555 1_555
C3 H6 1_555 1_555
H7 C3 1_555 1_555
H8 C3 1_555 1_555
C4 H9 1_555 1_555
H10 C4 1_555 1_555
H11 C4 1_555 1_555
C5 H12 1_555 1_555
H13 C5 1_555 1_555
H14 C5 1_555 1_555
C6 H15 1_555 1_555
H16 C6 1_555 1_555
H17 C6 1_555 1_555
C7 H18 1_555 1_555
H19 C7 1_555 1_555
H20 C7 1_555 1_555
C8 H21 1_555 1_555
H22 C8 1_555 1_555
H23 C8 1_555 1_555
C9 H24 1_555 1_555
H25 C9 1_555 1_555
H26 C9 1_555 1_555
S1 C1 1_555 1_555
P1 C1 1_555 1_555
Si1 C4 1_555 1_555
Si2 C7 1_555 1_555
N1 S1 1_555 1_555
N2 S1 1_555 1_555
Li1 P1 1_555 1_555
C1A H1A 1_555 1_555
H2A C1A 1_555 1_555
C2A H3A 1_555 1_555
H4A C2A 1_555 1_555
H5A C2A 1_555 1_555
C3A H6A 1_555 1_555
H7A C3A 1_555 1_555
H8A C3A 1_555 1_555
C4A H9A 1_555 1_555
H10A C4A 1_555 1_555
H11A C4A 1_555 1_555
C5A H12A 1_555 1_555
H13A C5A 1_555 1_555
H14A C5A 1_555 1_555
C6A H15A 1_555 1_555
H16A C6A 1_555 1_555
H17A C6A 1_555 1_555
C7A H18A 1_555 1_555
H19A C7A 1_555 1_555
H20A C7A 1_555 1_555
C8A H21A 1_555 1_555
H22A C8A 1_555 1_555
H23A C8A 1_555 1_555
C9A H24A 1_555 1_555
H25A C9A 1_555 1_555
H26A C9A 1_555 1_555
S1A C1A 1_555 1_555
P1A C1A 1_555 1_555
Si1A C4A 1_555 1_555
Si2A C7A 1_555 1_555
N1A Li1 1_555 1_555
N2A Li1 1_555 1_555
Li1A N1 1_555 1_555
C2 P1 1_555 1_555
C3 P1 1_555 1_555
C5 Si1 1_555 1_555
C6 Si1 1_555 1_555
C8 Si2 1_555 1_555
C9 Si2 1_555 1_555
Si1 N1 1_555 1_555
Si2 N2 1_555 1_555
N2 Li1 1_555 1_555
N2 Li1A 1_555 1_555
C2A P1A 1_555 1_555
C3A P1A 1_555 1_555
C5A Si1A 1_555 1_555
C6A Si1A 1_555 1_555
C8A Si2A 1_555 1_555
C9A Si2A 1_555 1_555
S1A N1A 1_555 1_555
S1A N2A 1_555 1_555
P1A Li1A 1_555 1_555
Si1A N1A 1_555 1_555
Si2A N2A 1_555 1_555
N2A Li1A 1_555 1_555

#END
