
#######################################################################
#
#                 Cambridge Crystallographic Data Centre
#                                CCDC 
#
#######################################################################
#
# If this CIF has been generated from an entry in the Cambridge 
# Structural Database, then it will include bibliographic, chemical, 
# crystal, experimental, refinement or atomic coordinate data resulting 
# from the CCDC's data processing and validation procedures.
#
#######################################################################

data_OMOGED
_chemical_formula_moiety         'C22 H52 Li2 N4 P2 S2'
_chemical_name_systematic        
bis(\m~2~-N,N'-Di-t-butyl-S-((dimethylphosphino)methyl)diimidosulfinato-N,N,N',P)-di-lithium
_symmetry_cell_setting           triclinic
_symmetry_space_group_name_H-M   'P -1'
_symmetry_Int_Tables_number      2
_space_group_name_Hall           '-P 1'
loop_
_symmetry_equiv_pos_site_id
_symmetry_equiv_pos_as_xyz
1 x,y,z
2 -x,-y,-z
_cell_length_a                   9.4916(4)
_cell_length_b                   9.6726(4)
_cell_length_c                   18.7808(8)
_cell_angle_alpha                98.772(1)
_cell_angle_beta                 92.004(1)
_cell_angle_gamma                114.778(1)
_cell_volume                     1537.77
_exptl_crystal_colour            colorless
_exptl_crystal_description       plate
_chemical_melting_point          '143 deg.C (dec.)'
_cell_formula_units_Z            2
_exptl_crystal_recrystallization_method n-pentane
loop_
_atom_site_label
_atom_site_type_symbol
_atom_site_fract_x
_atom_site_fract_y
_atom_site_fract_z
C1 C 0.67079(12) 0.49683(12) 0.37342(6)
C2 C 0.72744(14) 0.44452(13) 0.43730(6)
H1 H 0.7938 0.3939 0.4207
H2 H 0.6372 0.3714 0.4568
H3 H 0.7874 0.5349 0.4753
C3 C 0.56609(14) 0.57478(14) 0.40007(7)
H4 H 0.6260 0.6652 0.4380
H5 H 0.4767 0.5010 0.4198
H6 H 0.5287 0.6079 0.3595
C4 C 0.57532(14) 0.35459(13) 0.31540(6)
H7 H 0.5362 0.3864 0.2748
H8 H 0.4870 0.2819 0.3361
H9 H 0.6414 0.3042 0.2980
C5 C 1.21558(12) 0.78467(12) 0.38120(6)
C6 C 1.26103(14) 0.87546(14) 0.45950(6)
H10 H 1.2850 0.9844 0.4595
H11 H 1.3530 0.8683 0.4806
H12 H 1.1740 0.8316 0.4882
C7 C 1.17751(13) 0.61477(13) 0.38255(6)
H13 H 1.0887 0.5716 0.4104
H14 H 1.2685 0.6082 0.4053
H15 H 1.1510 0.5559 0.3328
C8 C 1.35474(13) 0.85277(14) 0.33834(7)
H16 H 1.3273 0.7976 0.2880
H17 H 1.4440 0.8416 0.3599
H18 H 1.3822 0.9628 0.3396
C9 C 0.87220(13) 0.90831(12) 0.37648(6)
H19 H 0.7629 0.8600 0.3536
H20 H 0.8741 0.9646 0.4254
C10 C 1.14556(15) 1.19217(14) 0.39218(7)
H21 H 1.0992 1.2118 0.4362
H22 H 1.1989 1.2891 0.3742
H23 H 1.2210 1.1516 0.4033
C11 C 0.86591(15) 1.15150(14) 0.31822(7)
H24 H 0.8355 1.1734 0.3665
H25 H 0.7722 1.0859 0.2845
H26 H 0.9230 1.2490 0.3012
C12 C 0.75324(12) 0.66453(13) 0.12814(6)
C13 C 0.64808(15) 0.49324(16) 0.09824(8)
H27 H 0.6960 0.4547 0.0594
H28 H 0.5458 0.4820 0.0790
H29 H 0.6352 0.4335 0.1372
C14 C 0.76796(16) 0.75701(19) 0.06732(7)
H30 H 0.8399 0.8658 0.0851
H31 H 0.6652 0.7497 0.0515
H32 H 0.8082 0.7148 0.0264
C15 C 0.67615(13) 0.72256(15) 0.18794(6)
H33 H 0.6699 0.6678 0.2284
H34 H 0.5708 0.7032 0.1690
H35 H 0.7382 0.8340 0.2049
C16 C 1.31860(13) 0.91967(13) 0.12001(6)
C17 C 1.45983(14) 1.01230(15) 0.17634(7)
H36 H 1.4301 1.0671 0.2170
H37 H 1.5432 1.0876 0.1543
H38 H 1.4969 0.9418 0.1939
C18 C 1.36684(14) 0.83256(14) 0.05765(6)
H39 H 1.3951 0.7565 0.0756
H40 H 1.4568 0.9064 0.0383
H41 H 1.2795 0.7791 0.0192
C19 C 1.26554(16) 1.03214(15) 0.09081(8)
H42 H 1.1743 0.9735 0.0548
H43 H 1.3505 1.1042 0.0681
H44 H 1.2380 1.0905 0.1309
C20 C 1.03819(13) 0.50793(12) 0.09219(6)
H45 H 1.1318 0.5153 0.0683
H46 H 0.9454 0.4355 0.0583
C21 C 0.94610(16) 0.21879(14) 0.13297(7)
H47 H 0.9971 0.2020 0.0901
H48 H 0.8350 0.1861 0.1186
H49 H 0.9576 0.1580 0.1681
C22 C 1.24065(14) 0.45648(16) 0.18984(7)
H50 H 1.2516 0.4043 0.2291
H51 H 1.3080 0.5678 0.2034
H52 H 1.2712 0.4141 0.1454
Li1 Li 0.9110(2) 0.5859(2) 0.25274(10)
Li2 Li 1.0872(2) 0.8641(2) 0.24244(10)
N1 N 0.80074(10) 0.59661(10) 0.33685(5)
N2 N 1.08429(10) 0.80123(10) 0.34249(5)
N3 N 0.90586(10) 0.68391(10) 0.16300(5)
N4 N 1.19769(10) 0.81253(10) 0.15885(5)
P1 P 0.99195(3) 1.05051(3) 0.322930(15)
P2 P 1.03736(3) 0.42535(3) 0.174266(15)
S1 S 0.93051(3) 0.75275(3) 0.386810(13)
S2 S 1.03775(3) 0.69947(3) 0.107592(13)
loop_
_geom_bond_atom_site_label_1
_geom_bond_atom_site_label_2
_geom_bond_site_symmetry_1
_geom_bond_site_symmetry_2
C1 C2 1_555 1_555
C2 H1 1_555 1_555
H2 C2 1_555 1_555
H3 C2 1_555 1_555
C3 C1 1_555 1_555
H4 C3 1_555 1_555
H5 C3 1_555 1_555
H6 C3 1_555 1_555
C4 C1 1_555 1_555
H7 C4 1_555 1_555
H8 C4 1_555 1_555
H9 C4 1_555 1_555
C5 C6 1_555 1_555
C6 H10 1_555 1_555
H11 C6 1_555 1_555
H12 C6 1_555 1_555
C7 C5 1_555 1_555
H13 C7 1_555 1_555
H14 C7 1_555 1_555
H15 C7 1_555 1_555
C8 C5 1_555 1_555
H16 C8 1_555 1_555
H17 C8 1_555 1_555
H18 C8 1_555 1_555
C9 H19 1_555 1_555
H20 C9 1_555 1_555
C10 H21 1_555 1_555
H22 C10 1_555 1_555
H23 C10 1_555 1_555
C11 H24 1_555 1_555
H25 C11 1_555 1_555
H26 C11 1_555 1_555
C12 C13 1_555 1_555
C13 H27 1_555 1_555
H28 C13 1_555 1_555
H29 C13 1_555 1_555
C14 C12 1_555 1_555
H30 C14 1_555 1_555
H31 C14 1_555 1_555
H32 C14 1_555 1_555
C15 C12 1_555 1_555
H33 C15 1_555 1_555
H34 C15 1_555 1_555
H35 C15 1_555 1_555
C16 C17 1_555 1_555
C17 H36 1_555 1_555
H37 C17 1_555 1_555
H38 C17 1_555 1_555
C18 C16 1_555 1_555
H39 C18 1_555 1_555
H40 C18 1_555 1_555
H41 C18 1_555 1_555
C19 C16 1_555 1_555
H42 C19 1_555 1_555
H43 C19 1_555 1_555
H44 C19 1_555 1_555
C20 H45 1_555 1_555
H46 C20 1_555 1_555
C21 H47 1_555 1_555
H48 C21 1_555 1_555
H49 C21 1_555 1_555
C22 H50 1_555 1_555
H51 C22 1_555 1_555
H52 C22 1_555 1_555
Li1 N1 1_555 1_555
Li2 N2 1_555 1_555
N1 C1 1_555 1_555
N2 C5 1_555 1_555
N3 C12 1_555 1_555
N4 C16 1_555 1_555
P1 C9 1_555 1_555
P2 C20 1_555 1_555
S1 C9 1_555 1_555
S2 C20 1_555 1_555
C10 P1 1_555 1_555
C11 P1 1_555 1_555
C21 P2 1_555 1_555
C22 P2 1_555 1_555
Li1 N2 1_555 1_555
Li1 N3 1_555 1_555
Li1 P2 1_555 1_555
Li2 N3 1_555 1_555
Li2 N4 1_555 1_555
Li2 P1 1_555 1_555
N1 S1 1_555 1_555
N2 S1 1_555 1_555
N3 S2 1_555 1_555
N4 S2 1_555 1_555

#END
