
#######################################################################
#
#                 Cambridge Crystallographic Data Centre
#                                CCDC 
#
#######################################################################
#
# If this CIF has been generated from an entry in the Cambridge 
# Structural Database, then it will include bibliographic, chemical, 
# crystal, experimental, refinement or atomic coordinate data resulting 
# from the CCDC's data processing and validation procedures.
#
#######################################################################

data_OMOHUU
_chemical_formula_moiety         'C19 H31 N2 P1 S1 Si2'
_chemical_name_systematic        
1-Diphenylphosphino-N,N'-bis(trimethylsilyl)methanesulfinimidamide
_symmetry_cell_setting           monoclinic
_symmetry_space_group_name_H-M   'P 21/n'
_symmetry_Int_Tables_number      14
_space_group_name_Hall           '-P 2yn'
loop_
_symmetry_equiv_pos_site_id
_symmetry_equiv_pos_as_xyz
1 x,y,z
2 1/2-x,1/2+y,1/2-z
3 -x,-y,-z
4 1/2+x,1/2-y,1/2+z
_cell_length_a                   12.9937(7)
_cell_length_b                   9.9367(6)
_cell_length_c                   18.1145(10)
_cell_angle_alpha                90
_cell_angle_beta                 99.843(1)
_cell_angle_gamma                90
_cell_volume                     2304.42
_exptl_crystal_colour            colorless
_exptl_crystal_description       block
_chemical_melting_point          '138.3 deg.C (dec.)'
_cell_formula_units_Z            4
_exptl_crystal_recrystallization_method n-pentane/toluene
loop_
_atom_site_label
_atom_site_type_symbol
_atom_site_fract_x
_atom_site_fract_y
_atom_site_fract_z
C1 C 0.18064(9) 0.23395(12) -0.15557(7)
C2 C 0.24069(10) 0.12721(13) -0.17411(7)
H1 H 0.3031 0.1033 -0.1414
C3 C 0.21013(11) 0.05492(15) -0.24034(8)
H2 H 0.2523 -0.0169 -0.2528
C4 C 0.11859(12) 0.08754(17) -0.28789(8)
H3 H 0.0972 0.0374 -0.3325
C5 C 0.05814(12) 0.19382(17) -0.27012(8)
H4 H -0.0050 0.2161 -0.3025
C6 C 0.08939(10) 0.26754(14) -0.20537(7)
H5 H 0.0485 0.3419 -0.1945
C7 C 0.31581(9) 0.23499(13) -0.01330(7)
C8 C 0.41939(10) 0.27605(16) -0.00750(8)
H6 H 0.4357 0.3541 -0.0335
C9 C 0.49921(11) 0.20344(19) 0.03617(9)
H7 H 0.5697 0.2317 0.0392
C10 C 0.47693(13) 0.09175(19) 0.07473(9)
H8 H 0.5318 0.0432 0.1047
C11 C 0.37517(13) 0.04968(18) 0.07016(9)
H9 H 0.3596 -0.0277 0.0970
C12 C 0.29491(11) 0.12096(15) 0.02603(8)
H10 H 0.2248 0.0911 0.0228
C13 C 0.09890(8) 0.30418(12) -0.03031(7)
H11 H 0.0380 0.3470 -0.0620
H12 H 0.0865 0.2059 -0.0310
C14 C -0.00610(10) 0.06696(13) 0.11966(8)
H13 H -0.0296 0.0371 0.0680
H14 H -0.0299 0.0028 0.1542
H15 H 0.0704 0.0718 0.1298
C15 C -0.02014(11) 0.29300(15) 0.23134(7)
H16 H 0.0563 0.2951 0.2433
H17 H -0.0472 0.2305 0.2653
H18 H -0.0478 0.3834 0.2373
C16 C -0.20572(9) 0.23779(13) 0.10572(7)
H19 H -0.2300 0.3308 0.0974
H20 H -0.2375 0.1975 0.1458
H21 H -0.2259 0.1859 0.0595
C17 C 0.35759(11) 0.5869(2) 0.09588(11)
H22 H 0.3856 0.4960 0.1064
H23 H 0.4045 0.6525 0.1247
H24 H 0.3520 0.6060 0.0423
C18 C 0.23047(18) 0.5345(2) 0.21939(9)
H25 H 0.1610 0.5417 0.2333
H26 H 0.2804 0.5879 0.2542
H27 H 0.2525 0.4401 0.2217
C19 C 0.18521(13) 0.77830(15) 0.11963(9)
H28 H 0.1787 0.8116 0.0681
H29 H 0.2378 0.8314 0.1524
H30 H 0.1178 0.7866 0.1366
N1 N -0.01665(7) 0.34967(10) 0.07235(5)
H31 H -0.0571(11) 0.3869(15) 0.0362(8)
N2 N 0.13491(7) 0.51754(10) 0.05796(5)
P1 P 0.21729(2) 0.33885(3) -0.071450(18)
S1 S 0.10774(2) 0.36460(3) 0.064784(15)
Si1 Si -0.06140(2) 0.23621(3) 0.133005(17)
Si2 Si 0.22564(2) 0.59867(4) 0.122995(18)
loop_
_geom_bond_atom_site_label_1
_geom_bond_atom_site_label_2
_geom_bond_site_symmetry_1
_geom_bond_site_symmetry_2
C1 C2 1_555 1_555
C2 H1 1_555 1_555
C3 C2 1_555 1_555
H2 C3 1_555 1_555
C4 C3 1_555 1_555
H3 C4 1_555 1_555
C5 C4 1_555 1_555
H4 C5 1_555 1_555
C6 C1 1_555 1_555
H5 C6 1_555 1_555
C7 C8 1_555 1_555
C8 H6 1_555 1_555
C9 C8 1_555 1_555
H7 C9 1_555 1_555
C10 C9 1_555 1_555
H8 C10 1_555 1_555
C11 C10 1_555 1_555
H9 C11 1_555 1_555
C12 C7 1_555 1_555
H10 C12 1_555 1_555
C13 H11 1_555 1_555
H12 C13 1_555 1_555
C14 H13 1_555 1_555
H14 C14 1_555 1_555
H15 C14 1_555 1_555
C15 H16 1_555 1_555
H17 C15 1_555 1_555
H18 C15 1_555 1_555
C16 H19 1_555 1_555
H20 C16 1_555 1_555
H21 C16 1_555 1_555
C17 H22 1_555 1_555
H23 C17 1_555 1_555
H24 C17 1_555 1_555
C18 H25 1_555 1_555
H26 C18 1_555 1_555
H27 C18 1_555 1_555
C19 H28 1_555 1_555
H29 C19 1_555 1_555
H30 C19 1_555 1_555
N1 H31 1_555 1_555
N2 S1 1_555 1_555
P1 C1 1_555 1_555
S1 C13 1_555 1_555
Si1 C14 1_555 1_555
Si2 C17 1_555 1_555
C5 C6 1_555 1_555
C7 P1 1_555 1_555
C11 C12 1_555 1_555
C13 P1 1_555 1_555
C15 Si1 1_555 1_555
C16 Si1 1_555 1_555
C18 Si2 1_555 1_555
C19 Si2 1_555 1_555
N1 S1 1_555 1_555
N1 Si1 1_555 1_555
N2 Si2 1_555 1_555

#END
