
#######################################################################
#
#                 Cambridge Crystallographic Data Centre
#                                CCDC 
#
#######################################################################
#
# If this CIF has been generated from an entry in the Cambridge 
# Structural Database, then it will include bibliographic, chemical, 
# crystal, experimental, refinement or atomic coordinate data resulting 
# from the CCDC's data processing and validation procedures.
#
#######################################################################

data_OMOHII
_chemical_formula_moiety         'C25 H46 Li1 N4 P1 S1 Si2,0.5(C5 H12)'
_chemical_name_systematic        
"(1,2-bis(Dimethylamino)ethane-N,N')-(N,N'-bis(trimethylsilyl)-S-((diphenylphosphino)methyl)diimidosulfinato-N,N')-lithium n-pentane solvate"
_symmetry_cell_setting           monoclinic
_symmetry_space_group_name_H-M   'C 2/c'
_symmetry_Int_Tables_number      15
_space_group_name_Hall           '-C 2yn'
loop_
_symmetry_equiv_pos_site_id
_symmetry_equiv_pos_as_xyz
1 x,y,z
2 -x,y,1/2-z
3 1/2+x,1/2+y,z
4 1/2-x,1/2+y,1/2-z
5 -x,-y,-z
6 x,-y,1/2+z
7 1/2-x,1/2-y,-z
8 1/2+x,1/2-y,1/2+z
_cell_length_a                   33.944(5)
_cell_length_b                   9.5352(13)
_cell_length_c                   21.921(3)
_cell_angle_alpha                90
_cell_angle_beta                 101.895(3)
_cell_angle_gamma                90
_cell_volume                     6942.66
_exptl_crystal_colour            colorless
_exptl_crystal_description       block
_cell_formula_units_Z            8
_exptl_crystal_recrystallization_method n-pentane
loop_
_atom_site_label
_atom_site_type_symbol
_atom_site_fract_x
_atom_site_fract_y
_atom_site_fract_z
C1 C 0.24073(5) 0.07867(17) 0.14903(8)
C2 C 0.27884(6) 0.07876(18) 0.18742(9)
H1 H 0.2814 0.0772 0.2314
C3 C 0.31315(6) 0.0811(2) 0.16218(9)
H2 H 0.3390 0.0808 0.1890
C4 C 0.30998(6) 0.0840(2) 0.09819(10)
H3 H 0.3335 0.0848 0.0811
C5 C 0.27224(6) 0.0858(2) 0.05926(9)
H4 H 0.2699 0.0887 0.0153
C6 C 0.23789(6) 0.08328(19) 0.08431(9)
H5 H 0.2121 0.0847 0.0573
C7 C 0.21076(5) 0.07708(18) 0.26137(8)
C8 C 0.22180(6) -0.04482(19) 0.29545(9)
H6 H 0.2204 -0.1324 0.2744
C9 C 0.23481(6) -0.0402(2) 0.35965(9)
H7 H 0.2417 -0.1247 0.3824
C10 C 0.23781(6) 0.0868(2) 0.39075(9)
H8 H 0.2471 0.0898 0.4347
C11 C 0.22720(6) 0.2090(2) 0.35782(9)
H9 H 0.2292 0.2965 0.3790
C12 C 0.21361(6) 0.20377(19) 0.29367(9)
H10 H 0.2061 0.2883 0.2713
C13 C 0.17306(5) -0.09170(18) 0.15545(9)
H11 H 0.1904 -0.1409 0.1311
H12 H 0.1728 -0.1467 0.1937
C14 C 0.13961(8) 0.0719(2) -0.07339(10)
H13 H 0.1180 0.1417 -0.0809
H14 H 0.1416 0.0271 -0.1129
H15 H 0.1652 0.1181 -0.0556
C15 C 0.07926(7) -0.1490(3) -0.05210(11)
H16 H 0.0728 -0.2184 -0.0227
H17 H 0.0812 -0.1957 -0.0912
H18 H 0.0580 -0.0777 -0.0603
C16 C 0.16760(7) -0.2052(2) -0.01000(10)
H19 H 0.1943 -0.1645 0.0053
H20 H 0.1667 -0.2491 -0.0507
H21 H 0.1622 -0.2761 0.0196
C17 C 0.02481(7) -0.1142(3) 0.16227(13)
H22 H 0.0082 -0.0421 0.1374
H23 H 0.0107 -0.1507 0.1937
H24 H 0.0297 -0.1909 0.1350
C18 C 0.06433(10) 0.1126(3) 0.25191(13)
H25 H 0.0900 0.1545 0.2725
H26 H 0.0500 0.0781 0.2835
H27 H 0.0478 0.1835 0.2260
C19 C 0.10152(7) -0.1766(2) 0.25349(10)
H28 H 0.1054 -0.2581 0.2282
H29 H 0.0857 -0.2043 0.2843
H30 H 0.1278 -0.1409 0.2751
C20 C 0.15243(11) 0.4675(3) 0.15703(16)
H31 H 0.1607 0.5613 0.1464
H32 H 0.1764 0.4096 0.1716
H33 H 0.1369 0.4747 0.1900
C21 C 0.15672(10) 0.3886(3) 0.05547(16)
H34 H 0.1663 0.4810 0.0454
H35 H 0.1414 0.3450 0.0174
H36 H 0.1798 0.3292 0.0733
C22 C 0.0954(6) 0.4928(19) 0.0760(8)
H37 H 0.1059 0.5772 0.0585
H38 H 0.0810 0.5243 0.1086
C23 C 0.06512(10) 0.4190(3) 0.02385(17)
H39 H 0.0406 0.4775 0.0120
H40 H 0.0772 0.4084 -0.0133
C24 C 0.02877(10) 0.3026(4) 0.09308(17)
H41 H 0.0445 0.3518 0.1293
H42 H 0.0210 0.2099 0.1059
H43 H 0.0045 0.3569 0.0758
C25 C 0.03075(11) 0.2008(4) -0.00512(19)
H44 H 0.0050 0.2473 -0.0213
H45 H 0.0258 0.1090 0.0120
H46 H 0.0453 0.1882 -0.0389
Li1 Li 0.10830(10) 0.1921(3) 0.09366(15)
N1 N 0.12818(5) 0.01923(16) 0.05141(7)
N2 N 0.10107(5) 0.02854(16) 0.15029(7)
N3 N 0.12863(5) 0.40593(17) 0.10435(9)
N4 N 0.05440(5) 0.28564(18) 0.04317(9)
P1 P 0.193114(14) 0.08678(5) 0.17655(2)
S1 S 0.121732(13) -0.07618(5) 0.10898(2)
Si1 Si 0.128483(17) -0.06352(6) -0.01796(2)
Si2 Si 0.074021(17) -0.03611(6) 0.20186(3)
C26? C 1.0343(3) 0.4781(9) 0.3229(6)
H47? H 1.0220 0.5450 0.3474
H48? H 1.0637 0.4866 0.3342
H49? H 1.0264 0.3826 0.3317
C27? C 1.0195(8) 0.510(2) 0.2513(13)
H50? H 1.0295 0.6040 0.2421
H51? H 1.0313 0.4404 0.2269
C28? C 0.9752(7) 0.507(2) 0.2314(11)
H52? H 0.9665 0.4139 0.2431
H53? H 0.9648 0.5762 0.2580
C29? C 0.9543(4) 0.5325(11) 0.1697(7)
H54? H 0.9533 0.6350 0.1623
H55? H 0.9699 0.4904 0.1407
C30? C 0.92029(19) 0.4872(7) 0.1569(3)
H56? H 0.9162 0.4208 0.1891
H57? H 0.9160 0.4394 0.1165
H58? H 0.9011 0.5649 0.1547
C31? C 0.1219(2) 0.4120(7) 0.1806(3)
C32? C 0.16672(19) 0.4552(7) 0.1113(3)
C33? C 0.0961(13) 0.502(4) 0.0705(18)
C34? C 0.0553(2) 0.4297(7) 0.0637(4)
C35? C 0.0197(2) 0.2116(8) 0.0391(4)
C36? C 0.0611(2) 0.2966(8) -0.0283(4)
H59? H 0.1424 0.3536 0.2070
H60? H 0.0951 0.3767 0.1823
H61? H 0.1246 0.5091 0.1956
H62? H 0.1743 0.4590 0.0705
H63? H 0.1852 0.3926 0.1390
H64? H 0.1683 0.5494 0.1294
H65? H 0.1012 0.5249 0.0288
H66? H 0.0961 0.5904 0.0941
H67? H 0.0471 0.4329 0.1044
H68? H 0.0352 0.4836 0.0336
H69? H 0.0139 0.2000 0.0808
H70? H 0.0226 0.1192 0.0210
H71? H -0.0025 0.2623 0.0125
H72? H 0.0618 0.2021 -0.0457
H73? H 0.0866 0.3444 -0.0286
H74? H 0.0389 0.3497 -0.0536
N5? N 0.12863(5) 0.40593(17) 0.10435(9)
N6? N 0.05440(5) 0.28564(18) 0.04317(9)
loop_
_geom_bond_atom_site_label_1
_geom_bond_atom_site_label_2
_geom_bond_site_symmetry_1
_geom_bond_site_symmetry_2
C1 C2 1_555 1_555
C2 H1 1_555 1_555
C3 C2 1_555 1_555
H2 C3 1_555 1_555
C4 C3 1_555 1_555
H3 C4 1_555 1_555
C5 C4 1_555 1_555
H4 C5 1_555 1_555
C6 C1 1_555 1_555
H5 C6 1_555 1_555
C7 C8 1_555 1_555
C8 H6 1_555 1_555
C9 C8 1_555 1_555
H7 C9 1_555 1_555
C10 C9 1_555 1_555
H8 C10 1_555 1_555
C11 C10 1_555 1_555
H9 C11 1_555 1_555
C12 C7 1_555 1_555
H10 C12 1_555 1_555
C13 H11 1_555 1_555
H12 C13 1_555 1_555
C14 H13 1_555 1_555
H14 C14 1_555 1_555
H15 C14 1_555 1_555
C15 H16 1_555 1_555
H17 C15 1_555 1_555
H18 C15 1_555 1_555
C16 H19 1_555 1_555
H20 C16 1_555 1_555
H21 C16 1_555 1_555
C17 H22 1_555 1_555
H23 C17 1_555 1_555
H24 C17 1_555 1_555
C18 H25 1_555 1_555
H26 C18 1_555 1_555
H27 C18 1_555 1_555
C19 H28 1_555 1_555
H29 C19 1_555 1_555
H30 C19 1_555 1_555
C20 H31 1_555 1_555
H32 C20 1_555 1_555
H33 C20 1_555 1_555
C21 H34 1_555 1_555
H35 C21 1_555 1_555
H36 C21 1_555 1_555
C22 H37 1_555 1_555
H38 C22 1_555 1_555
C23 C22 1_555 1_555
H39 C23 1_555 1_555
H40 C23 1_555 1_555
C24 H41 1_555 1_555
H42 C24 1_555 1_555
H43 C24 1_555 1_555
C25 H44 1_555 1_555
H45 C25 1_555 1_555
H46 C25 1_555 1_555
Li1 N1 1_555 1_555
N1 S1 1_555 1_555
N2 Li1 1_555 1_555
N3 C20 1_555 1_555
N4 C23 1_555 1_555
P1 C1 1_555 1_555
S1 C13 1_555 1_555
Si1 C14 1_555 1_555
Si2 C17 1_555 1_555
C5 C6 1_555 1_555
C7 P1 1_555 1_555
C11 C12 1_555 1_555
C13 P1 1_555 1_555
C15 Si1 1_555 1_555
C16 Si1 1_555 1_555
C18 Si2 1_555 1_555
C19 Si2 1_555 1_555
C21 N3 1_555 1_555
C22 N3 1_555 1_555
C24 N4 1_555 1_555
C25 N4 1_555 1_555
Li1 N3 1_555 1_555
Li1 N4 1_555 1_555
N1 Si1 1_555 1_555
N2 S1 1_555 1_555
N2 Si2 1_555 1_555

#END
