
#######################################################################
#
#                 Cambridge Crystallographic Data Centre
#                                CCDC 
#
#######################################################################
#
# If this CIF has been generated from an entry in the Cambridge 
# Structural Database, then it will include bibliographic, chemical, 
# crystal, experimental, refinement or atomic coordinate data resulting 
# from the CCDC's data processing and validation procedures.
#
#######################################################################

data_OMOKIK
_chemical_formula_moiety         'C7 H4 I1 N1 O4'
_chemical_name_systematic        2-Hydroxy-3-iodo-5-nitrobenzaldehyde
_symmetry_cell_setting           monoclinic
_symmetry_space_group_name_H-M   'P 21/c'
_symmetry_Int_Tables_number      14
_space_group_name_Hall           '-P 2ybc'
loop_
_symmetry_equiv_pos_site_id
_symmetry_equiv_pos_as_xyz
1 x,y,z
2 -x,1/2+y,1/2-z
3 -x,-y,-z
4 x,1/2-y,1/2+z
_cell_length_a                   8.2556(3)
_cell_length_b                   15.3414(8)
_cell_length_c                   7.2521(4)
_cell_angle_alpha                90
_cell_angle_beta                 115.496(3)
_cell_angle_gamma                90
_cell_volume                     829.049
_exptl_crystal_colour            colorless
_exptl_crystal_description       lath
_chemical_melting_point          '432-433 K'
_cell_formula_units_Z            4
_exptl_crystal_recrystallization_method 'aqueous ethanol'
loop_
_atom_site_label
_atom_site_type_symbol
_atom_site_fract_x
_atom_site_fract_y
_atom_site_fract_z
C1 C 0.2059(6) 0.1453(2) 0.1802(6)
N1 N 0.3257(5) 0.0711(2) 0.2125(5)
O1 O 0.4865(4) 0.08468(18) 0.2696(5)
O2 O 0.2593(4) -0.00229(19) 0.1838(5)
C2 C 0.0318(6) 0.1324(3) 0.1491(6)
C3 C -0.0769(6) 0.2043(3) 0.1281(6)
C4 C -0.0087(6) 0.2900(3) 0.1386(6)
C5 C 0.1703(6) 0.3002(2) 0.1698(6)
I1 I 0.28173(4) 0.424544(16) 0.19310(4)
C6 C 0.2773(6) 0.2286(3) 0.1902(5)
C7 C -0.2675(6) 0.1906(3) 0.1045(6)
O3 O -0.3591(4) 0.2513(2) 0.1010(5)
O4 O -0.1079(4) 0.36054(18) 0.1176(5)
H1 H -0.0129 0.0762 0.1421
H2 H -0.3130 0.1344 0.0927
H3 H -0.2028 0.3466 0.1202
H4 H 0.3957 0.2357 0.2106
loop_
_geom_bond_atom_site_label_1
_geom_bond_atom_site_label_2
_geom_bond_site_symmetry_1
_geom_bond_site_symmetry_2
C1 N1 1_555 1_555
N1 O1 1_555 1_555
O2 N1 1_555 1_555
C2 C1 1_555 1_555
C3 C2 1_555 1_555
C4 C3 1_555 1_555
C5 C4 1_555 1_555
I1 C5 1_555 1_555
C6 C1 1_555 1_555
C7 C3 1_555 1_555
O3 C7 1_555 1_555
O4 C4 1_555 1_555
H1 C2 1_555 1_555
H2 C7 1_555 1_555
H3 O4 1_555 1_555
H4 C6 1_555 1_555
C5 C6 1_555 1_555

#END
