
#######################################################################
#
#                 Cambridge Crystallographic Data Centre
#                                CCDC 
#
#######################################################################
#
# If this CIF has been generated from an entry in the Cambridge 
# Structural Database, then it will include bibliographic, chemical, 
# crystal, experimental, refinement or atomic coordinate data resulting 
# from the CCDC's data processing and validation procedures.
#
#######################################################################

data_OMOLAD
_chemical_formula_moiety         'C13 H9 I1 N4 O4'
_chemical_name_systematic        '3-Iodobenzaldehyde 2,4-dinitrophenylhydrazone'
_symmetry_cell_setting           monoclinic
_symmetry_space_group_name_H-M   'C 2/c'
_symmetry_Int_Tables_number      15
_space_group_name_Hall           '-C 2yn'
loop_
_symmetry_equiv_pos_site_id
_symmetry_equiv_pos_as_xyz
1 x,y,z
2 x,-y,1/2+z
3 1/2+x,1/2+y,z
4 1/2+x,1/2-y,1/2+z
5 -x,-y,-z
6 -x,y,1/2-z
7 1/2-x,1/2-y,-z
8 1/2-x,1/2+y,1/2-z
_cell_length_a                   30.0604(9)
_cell_length_b                   13.5628(4)
_cell_length_c                   7.0263(2)
_cell_angle_alpha                90
_cell_angle_beta                 101.390(2)
_cell_angle_gamma                90
_cell_volume                     2808.23
_exptl_crystal_colour            colorless
_exptl_crystal_description       plate
_cell_formula_units_Z            8
_exptl_crystal_recrystallization_method ethanol
loop_
_atom_site_label
_atom_site_type_symbol
_atom_site_fract_x
_atom_site_fract_y
_atom_site_fract_z
C1 C 0.35503(10) 0.3679(2) 0.0683(4)
C2 C 0.32014(9) 0.4107(2) -0.0681(4)
C3 C 0.28676(10) 0.3515(2) -0.1728(4)
C4 C 0.28660(10) 0.2499(2) -0.1444(4)
C5 C 0.32147(10) 0.2077(2) -0.0105(4)
C6 C 0.35547(9) 0.2660(2) 0.0953(4)
I1 I 0.235428(7) 0.416977(15) -0.38017(3)
C7 C 0.39109(9) 0.4280(2) 0.1802(4)
N1 N 0.39107(8) 0.52185(17) 0.1563(3)
N2 N 0.42639(8) 0.57186(16) 0.2699(3)
C8 C 0.42588(9) 0.6719(2) 0.2686(4)
C9 C 0.45939(9) 0.7305(2) 0.3869(4)
C10 C 0.45722(10) 0.8335(2) 0.3849(4)
C11 C 0.42178(10) 0.8776(2) 0.2626(4)
C12 C 0.38841(10) 0.8231(2) 0.1417(4)
C13 C 0.39035(10) 0.7231(2) 0.1454(4)
N3 N 0.49819(8) 0.68813(17) 0.5144(3)
O1 O 0.50056(7) 0.59664(14) 0.5290(3)
O2 O 0.52784(6) 0.74225(15) 0.6024(3)
N4 N 0.41871(9) 0.98532(19) 0.2623(4)
O3 O 0.44907(8) 1.03224(16) 0.3626(4)
O4 O 0.38513(8) 1.02313(17) 0.1593(4)
H1 H 0.3195 0.4800 -0.0884
H2 H 0.2630 0.2102 -0.2155
H3 H 0.3221 0.1383 0.0088
H4 H 0.3792 0.2364 0.1868
H5 H 0.4147 0.3977 0.2712
H6 H 0.4490 0.5395 0.3422
H7 H 0.4797 0.8717 0.4664
H8 H 0.3644 0.8557 0.0570
H9 H 0.3673 0.6864 0.0632
loop_
_geom_bond_atom_site_label_1
_geom_bond_atom_site_label_2
_geom_bond_site_symmetry_1
_geom_bond_site_symmetry_2
C1 C2 1_555 1_555
C2 C3 1_555 1_555
C3 C4 1_555 1_555
C4 C5 1_555 1_555
C5 C6 1_555 1_555
C6 C1 1_555 1_555
I1 C3 1_555 1_555
C7 C1 1_555 1_555
N1 C7 1_555 1_555
N2 N1 1_555 1_555
C8 N2 1_555 1_555
C9 C8 1_555 1_555
C10 C9 1_555 1_555
C11 C10 1_555 1_555
C12 C11 1_555 1_555
C13 C8 1_555 1_555
N3 C9 1_555 1_555
O1 N3 1_555 1_555
O2 N3 1_555 1_555
N4 C11 1_555 1_555
O3 N4 1_555 1_555
O4 N4 1_555 1_555
H1 C2 1_555 1_555
H2 C4 1_555 1_555
H3 C5 1_555 1_555
H4 C6 1_555 1_555
H5 C7 1_555 1_555
H6 N2 1_555 1_555
H7 C10 1_555 1_555
H8 C12 1_555 1_555
H9 C13 1_555 1_555
C12 C13 1_555 1_555

#END
