
#######################################################################
#
#                 Cambridge Crystallographic Data Centre
#                                CCDC 
#
#######################################################################
#
# If this CIF has been generated from an entry in the Cambridge 
# Structural Database, then it will include bibliographic, chemical, 
# crystal, experimental, refinement or atomic coordinate data resulting 
# from the CCDC's data processing and validation procedures.
#
#######################################################################

data_OMOLOR
_chemical_formula_moiety         'C14 H8 N2 O4'
_chemical_name_systematic        N-(3-Nitrophenyl)phthalimide
_symmetry_cell_setting           monoclinic
_symmetry_space_group_name_H-M   'P n'
_symmetry_Int_Tables_number      7
_space_group_name_Hall           'P -2yac'
loop_
_symmetry_equiv_pos_site_id
_symmetry_equiv_pos_as_xyz
1 x,y,z
2 1/2+x,-y,1/2+z
_cell_length_a                   6.6650(5)
_cell_length_b                   3.6962(3)
_cell_length_c                   23.639(2)
_cell_angle_alpha                90
_cell_angle_beta                 95.208(3)
_cell_angle_gamma                90
_cell_volume                     579.947
_exptl_crystal_colour            colorless
_exptl_crystal_description       plate
_cell_formula_units_Z            2
_exptl_crystal_recrystallization_method ethanol
loop_
_atom_site_label
_atom_site_type_symbol
_atom_site_fract_x
_atom_site_fract_y
_atom_site_fract_z
N1 N 0.7445(5) 0.8585(9) 0.20877(15)
C1 C 0.5599(6) 1.0114(11) 0.22174(19)
O1 O 0.4373(4) 1.1439(8) 0.18681(12)
C2 C 0.8600(6) 0.7387(11) 0.25848(19)
O2 O 1.0213(4) 0.5878(8) 0.25924(13)
C3 C 0.5602(6) 0.9848(11) 0.28435(19)
C4 C 0.4130(6) 1.0903(11) 0.3188(2)
C5 C 0.4544(7) 1.0324(11) 0.3768(2)
C6 C 0.6376(7) 0.8856(12) 0.3991(2)
C7 C 0.7843(6) 0.7810(11) 0.36369(19)
C8 C 0.7405(6) 0.8316(10) 0.30614(18)
C9 C 0.8064(6) 0.8257(11) 0.15264(17)
C10 C 0.6746(6) 0.6874(10) 0.10976(18)
C11 C 0.7409(6) 0.6553(10) 0.05634(19)
C12 C 0.9339(6) 0.7516(12) 0.0448(2)
C13 C 1.0634(6) 0.8910(12) 0.08854(18)
C14 C 1.0007(6) 0.9310(11) 0.14216(19)
N2 N 0.6026(5) 0.5020(10) 0.01052(16)
O3 O 0.4289(4) 0.4367(11) 0.02037(13)
O4 O 0.6673(5) 0.4450(11) -0.03559(14)
H1 H 0.2901 1.1969 0.3035
H2 H 0.3559 1.0941 0.4018
H3 H 0.6631 0.8562 0.4390
H4 H 0.9088 0.6794 0.3787
H5 H 0.5421 0.6163 0.1168
H6 H 0.9764 0.7226 0.0078
H7 H 1.1963 0.9595 0.0815
H8 H 1.0894 1.0300 0.1719
loop_
_geom_bond_atom_site_label_1
_geom_bond_atom_site_label_2
_geom_bond_site_symmetry_1
_geom_bond_site_symmetry_2
N1 C1 1_555 1_555
C1 O1 1_555 1_555
C2 N1 1_555 1_555
O2 C2 1_555 1_555
C3 C1 1_555 1_555
C4 C3 1_555 1_555
C5 C4 1_555 1_555
C6 C5 1_555 1_555
C7 C6 1_555 1_555
C8 C2 1_555 1_555
C9 N1 1_555 1_555
C10 C9 1_555 1_555
C11 C10 1_555 1_555
C12 C11 1_555 1_555
C13 C12 1_555 1_555
C14 C9 1_555 1_555
N2 C11 1_555 1_555
O3 N2 1_555 1_555
O4 N2 1_555 1_555
H1 C4 1_555 1_555
H2 C5 1_555 1_555
H3 C6 1_555 1_555
H4 C7 1_555 1_555
H5 C10 1_555 1_555
H6 C12 1_555 1_555
H7 C13 1_555 1_555
H8 C14 1_555 1_555
C3 C8 1_555 1_555
C7 C8 1_555 1_555
C13 C14 1_555 1_555

#END
