
#######################################################################
#
#                 Cambridge Crystallographic Data Centre
#                                CCDC 
#
#######################################################################
#
# If this CIF has been generated from an entry in the Cambridge 
# Structural Database, then it will include bibliographic, chemical, 
# crystal, experimental, refinement or atomic coordinate data resulting 
# from the CCDC's data processing and validation procedures.
#
#######################################################################

data_OMOMUY
_chemical_formula_moiety         'C7 H5 N3 O2'
_chemical_name_systematic        2-Cyano-4-nitroaniline
_symmetry_cell_setting           monoclinic
_symmetry_space_group_name_H-M   'P 21/c'
_symmetry_Int_Tables_number      14
_space_group_name_Hall           '-P 2ybc'
loop_
_symmetry_equiv_pos_site_id
_symmetry_equiv_pos_as_xyz
1 x,y,z
2 x,1/2-y,1/2+z
3 -x,-y,-z
4 -x,1/2+y,1/2-z
_cell_length_a                   11.2316(4)
_cell_length_b                   17.7275(7)
_cell_length_c                   7.1078(2)
_cell_angle_alpha                90
_cell_angle_beta                 94.630(3)
_cell_angle_gamma                90
_cell_volume                     1410.6
_exptl_crystal_colour            orange
_exptl_crystal_description       block
_cell_formula_units_Z            8
_exptl_crystal_recrystallization_method ethanol
loop_
_atom_site_label
_atom_site_type_symbol
_atom_site_fract_x
_atom_site_fract_y
_atom_site_fract_z
C1 C -0.05690(15) 0.49793(10) 0.20668(19)
C2 C 0.05489(16) 0.47591(9) 0.2973(2)
C3 C 0.08480(13) 0.40048(9) 0.3210(2)
C4 C 0.0065(4) 0.34652(14) 0.2497(3)
C5 C -0.10426(15) 0.36609(9) 0.1569(2)
C6 C -0.13497(13) 0.44045(10) 0.1349(2)
N1 N -0.08841(11) 0.57101(9) 0.19106(18)
C7 C 0.13736(13) 0.53359(11) 0.3631(2)
N2 N 0.20032(12) 0.58151(8) 0.41345(19)
N3 N 0.03668(12) 0.26791(8) 0.27533(19)
O1 O -0.03612(13) 0.21997(7) 0.2106(2)
O2 O 0.13312(10) 0.25085(7) 0.35930(18)
H1 H 0.1587 0.3864 0.3859
H2 H -0.1577 0.3278 0.1094
H3 H -0.2096 0.4536 0.0707
H4 H -0.0390 0.6063 0.2364
H5 H -0.1585 0.5835 0.1355
C8 C 0.44251(12) 0.68416(8) 0.71306(18)
C9 C 0.55571(13) 0.70527(10) 0.8003(2)
C10 C 0.58787(14) 0.78049(10) 0.8255(2)
C11 C 0.50670(15) 0.83556(9) 0.7634(2)
C12 C 0.39360(14) 0.81672(9) 0.6783(2)
C13 C 0.36284(13) 0.74274(9) 0.6527(2)
N4 N 0.41120(12) 0.61171(8) 0.69011(19)
C14 C 0.63585(13) 0.64705(9) 0.8686(2)
N5 N 0.69583(12) 0.59841(8) 0.92508(19)
N6 N 0.53929(12) 0.91385(8) 0.78906(18)
O3 O 0.46890(12) 0.96206(7) 0.7193(2)
O4 O 0.63482(11) 0.92994(7) 0.87734(18)
H6 H 0.6640 0.7938 0.8842
H7 H 0.3386 0.8554 0.6387
H8 H 0.2866 0.7304 0.5932
H9 H 0.4616 0.5758 0.7283
H10 H 0.3402 0.5999 0.6368
C15? C -0.0569(16) 0.1347(6) 0.207(2)
C16? C 0.0529(14) 0.1142(10) 0.297(2)
C17? C 0.0821(15) 0.0384(12) 0.321(3)
C18? C 0.002(2) -0.0169(7) 0.255(3)
C19? C -0.108(2) 0.0036(9) 0.165(3)
C20? C -0.1374(12) 0.0794(11) 0.141(2)
N7? N -0.087(2) 0.2071(7) 0.174(3)
C21? C 0.1329(17) 0.1721(11) 0.368(3)
N8? N 0.1982(16) 0.2177(10) 0.426(3)
N9? N 0.0356(14) -0.0941(7) 0.293(3)
O5? O -0.012(5) -0.1494(18) 0.212(5)
O6? O 0.1296(15) -0.1110(16) 0.385(3)
C22? C 0.4482(17) 0.3183(6) 0.703(3)
C23? C 0.5565(15) 0.3388(9) 0.797(3)
C24? C 0.5839(13) 0.4146(10) 0.826(3)
C25? C 0.5030(18) 0.4698(7) 0.761(3)
C26? C 0.3947(16) 0.4493(8) 0.666(3)
C27? C 0.3673(13) 0.3735(10) 0.637(2)
N10? N 0.425(3) 0.2441(7) 0.687(4)
C28? C 0.6373(18) 0.2787(10) 0.850(4)
N11? N 0.7064(16) 0.2336(10) 0.897(3)
N12? N 0.5328(12) 0.5488(6) 0.775(3)
O7? O 0.4580(16) 0.5965(10) 0.718(3)
O8? O 0.6282(12) 0.5668(10) 0.862(2)
H11? H 0.1572 0.0244 0.3821
H12? H -0.1632 -0.0342 0.1195
H13? H -0.2124 0.0934 0.0799
H14? H -0.0360 0.2433 0.2096
H15? H -0.1568 0.2184 0.1171
H16? H 0.6580 0.4286 0.8910
H17? H 0.3394 0.4871 0.6218
H18? H 0.2933 0.3595 0.5727
H19? H 0.4771 0.2111 0.7361
H20? H 0.3574 0.2286 0.6286
loop_
_geom_bond_atom_site_label_1
_geom_bond_atom_site_label_2
_geom_bond_site_symmetry_1
_geom_bond_site_symmetry_2
C1 C2 1_555 1_555
C2 C3 1_555 1_555
C3 C4 1_555 1_555
C4 C5 1_555 1_555
C5 C6 1_555 1_555
C6 C1 1_555 1_555
N1 C1 1_555 1_555
C7 C2 1_555 1_555
N2 C7 1_555 1_555
N3 C4 1_555 1_555
O1 N3 1_555 1_555
O2 N3 1_555 1_555
C8 C9 1_555 1_555
C9 C10 1_555 1_555
C10 C11 1_555 1_555
C11 C12 1_555 1_555
C12 C13 1_555 1_555
C13 C8 1_555 1_555
N4 C8 1_555 1_555
C14 C9 1_555 1_555
N5 C14 1_555 1_555
N6 C11 1_555 1_555
O3 N6 1_555 1_555
O4 N6 1_555 1_555
H1 C3 1_555 1_555
H2 C5 1_555 1_555
H3 C6 1_555 1_555
H4 N1 1_555 1_555
H5 N1 1_555 1_555
H6 C10 1_555 1_555
H7 C12 1_555 1_555
H8 C13 1_555 1_555
H9 N4 1_555 1_555
H10 N4 1_555 1_555

#END
