
#######################################################################
#
#                 Cambridge Crystallographic Data Centre
#                                CCDC 
#
#######################################################################
#
# If this CIF has been generated from an entry in the Cambridge 
# Structural Database, then it will include bibliographic, chemical, 
# crystal, experimental, refinement or atomic coordinate data resulting 
# from the CCDC's data processing and validation procedures.
#
#######################################################################

data_OMOMEI
_chemical_formula_moiety         'C14 H12 N2 O3'
_chemical_name_systematic        N^2^-(2-Hydroxybenzoyloxy)benzamidine
_symmetry_cell_setting           orthorhombic
_symmetry_space_group_name_H-M   'P b c a'
_symmetry_Int_Tables_number      61
_space_group_name_Hall           '-P 2ac 2ab'
loop_
_symmetry_equiv_pos_site_id
_symmetry_equiv_pos_as_xyz
1 x,y,z
2 1/2-x,-y,1/2+z
3 -x,1/2+y,1/2-z
4 1/2+x,1/2-y,-z
5 -x,-y,-z
6 1/2+x,y,1/2-z
7 x,1/2-y,1/2+z
8 1/2-x,1/2+y,z
_cell_length_a                   9.38080(10)
_cell_length_b                   24.9553(4)
_cell_length_c                   10.32770(10)
_cell_angle_alpha                90
_cell_angle_beta                 90
_cell_angle_gamma                90
_cell_volume                     2417.72
_exptl_crystal_colour            colorless
_exptl_crystal_description       block
_cell_formula_units_Z            8
_exptl_crystal_recrystallization_method acetonitrile
loop_
_atom_site_label
_atom_site_type_symbol
_atom_site_fract_x
_atom_site_fract_y
_atom_site_fract_z
O1 O 0.16042(9) 0.57063(3) 0.07061(8)
O2 O 0.08972(10) 0.58517(3) 0.27676(8)
O3 O -0.11487(11) 0.65582(4) 0.31260(9)
N1 N 0.24819(12) 0.52822(4) 0.12648(10)
N2 N 0.18746(12) 0.48525(4) -0.07198(10)
C1 C 0.25882(13) 0.48989(5) 0.04147(11)
C2 C 0.09289(13) 0.59851(4) 0.16295(12)
C3 C 0.35734(13) 0.44605(5) 0.08089(11)
C4 C 0.48275(13) 0.45869(5) 0.14659(12)
C5 C 0.57522(15) 0.41826(5) 0.18447(12)
C6 C 0.54277(15) 0.36493(5) 0.15761(13)
C7 C 0.41747(15) 0.35224(5) 0.09349(13)
C8 C 0.32460(14) 0.39244(5) 0.05472(12)
C9 C 0.01932(13) 0.64654(4) 0.11252(12)
C10 C -0.08237(14) 0.67216(5) 0.19139(12)
C11 C -0.15664(14) 0.71658(5) 0.14315(13)
C12 C -0.12627(15) 0.73610(5) 0.02098(14)
C13 C -0.02321(15) 0.71186(5) -0.05625(13)
C14 C 0.04785(14) 0.66696(5) -0.01138(12)
H1 H -0.0593 0.6311 0.3347
H2 H 0.1309 0.5129 -0.0956
H3 H 0.2302 0.4665 -0.1366
H4 H 0.5049 0.4950 0.1654
H5 H 0.6609 0.4270 0.2288
H6 H 0.6065 0.3373 0.1832
H7 H 0.3950 0.3158 0.0760
H8 H 0.2390 0.3836 0.0105
H9 H -0.2280 0.7333 0.1945
H10 H -0.1764 0.7665 -0.0107
H11 H -0.0018 0.7261 -0.1394
H12 H 0.1165 0.6498 -0.0649
loop_
_geom_bond_atom_site_label_1
_geom_bond_atom_site_label_2
_geom_bond_site_symmetry_1
_geom_bond_site_symmetry_2
O1 N1 1_555 1_555
O2 C2 1_555 1_555
O3 C10 1_555 1_555
N1 C1 1_555 1_555
N2 C1 1_555 1_555
C1 C3 1_555 1_555
C2 O1 1_555 1_555
C3 C4 1_555 1_555
C4 C5 1_555 1_555
C5 C6 1_555 1_555
C6 C7 1_555 1_555
C7 C8 1_555 1_555
C8 C3 1_555 1_555
C9 C2 1_555 1_555
C10 C9 1_555 1_555
C11 C10 1_555 1_555
C12 C11 1_555 1_555
C13 C12 1_555 1_555
C14 C9 1_555 1_555
H1 O3 1_555 1_555
H2 N2 1_555 1_555
H3 N2 1_555 1_555
H4 C4 1_555 1_555
H5 C5 1_555 1_555
H6 C6 1_555 1_555
H7 C7 1_555 1_555
H8 C8 1_555 1_555
H9 C11 1_555 1_555
H10 C12 1_555 1_555
H11 C13 1_555 1_555
H12 C14 1_555 1_555
C13 C14 1_555 1_555

#END
