
#######################################################################
#
#                 Cambridge Crystallographic Data Centre
#                                CCDC 
#
#######################################################################
#
# If this CIF has been generated from an entry in the Cambridge 
# Structural Database, then it will include bibliographic, chemical, 
# crystal, experimental, refinement or atomic coordinate data resulting 
# from the CCDC's data processing and validation procedures.
#
#######################################################################

data_OMOMIM
_chemical_formula_moiety         'C14 H12 N2 O3'
_chemical_name_systematic        N^2^-Benzoyloxy-2-hydroxybenzamidine
_symmetry_cell_setting           monoclinic
_symmetry_space_group_name_H-M   'P 21/n'
_symmetry_Int_Tables_number      14
_space_group_name_Hall           '-P 2yn'
loop_
_symmetry_equiv_pos_site_id
_symmetry_equiv_pos_as_xyz
1 x,y,z
2 1/2+x,1/2-y,1/2+z
3 -x,-y,-z
4 1/2-x,1/2+y,1/2-z
_cell_length_a                   4.6463(3)
_cell_length_b                   22.1280(13)
_cell_length_c                   11.9551(9)
_cell_angle_alpha                90
_cell_angle_beta                 99.202(3)
_cell_angle_gamma                90
_cell_volume                     1213.33
_exptl_crystal_colour            colorless
_exptl_crystal_description       plate
_cell_formula_units_Z            4
_exptl_crystal_recrystallization_method acetonitrile
loop_
_atom_site_label
_atom_site_type_symbol
_atom_site_fract_x
_atom_site_fract_y
_atom_site_fract_z
O1 O 0.3688(3) 0.18366(6) 0.20049(11)
O2 O 0.2346(3) 0.15005(7) 0.02115(12)
O3 O 0.7525(3) 0.28621(7) 0.00167(11)
N1 N 0.5570(4) 0.22553(8) 0.15460(14)
N2 N 0.6513(4) 0.25484(8) 0.34554(14)
C1 C 0.6859(4) 0.25965(9) 0.23640(17)
C2 C 0.2209(4) 0.14696(9) 0.12101(18)
C3 C 0.8891(4) 0.30561(9) 0.20344(16)
C4 C 0.9117(4) 0.31623(9) 0.09000(17)
C5 C 1.1034(5) 0.35978(10) 0.06161(17)
C6 C 1.2743(4) 0.39237(9) 0.14485(18)
C7 C 1.2559(5) 0.38254(9) 0.25700(18)
C8 C 1.0651(4) 0.33982(10) 0.28583(16)
C9 C 0.0454(4) 0.10209(9) 0.17318(17)
C10 C 0.0324(5) 0.10087(10) 0.28767(18)
C11 C -0.1280(5) 0.05619(10) 0.33122(18)
C12 C -0.2764(5) 0.01349(10) 0.2605(2)
C13 C -0.2657(5) 0.01489(10) 0.1465(2)
C14 C -0.1052(5) 0.05889(10) 0.10217(17)
H1 H 0.6558 0.2587 0.0267
H2 H 0.5067 0.2317 0.3590
H3 H 0.7089 0.2848 0.3922
H4 H 1.1162 0.3670 -0.0158
H5 H 1.4057 0.4218 0.1248
H6 H 1.3744 0.4051 0.3144
H7 H 1.0528 0.3334 0.3635
H8 H 0.1330 0.1305 0.3366
H9 H -0.1353 0.0551 0.4101
H10 H -0.3862 -0.0169 0.2907
H11 H -0.3689 -0.0145 0.0978
H12 H -0.0978 0.0596 0.0232
loop_
_geom_bond_atom_site_label_1
_geom_bond_atom_site_label_2
_geom_bond_site_symmetry_1
_geom_bond_site_symmetry_2
O1 N1 1_555 1_555
O2 C2 1_555 1_555
O3 C4 1_555 1_555
N1 C1 1_555 1_555
N2 C1 1_555 1_555
C1 C3 1_555 1_555
C2 O1 1_555 1_555
C3 C4 1_555 1_555
C4 C5 1_555 1_555
C5 C6 1_555 1_555
C6 C7 1_555 1_555
C7 C8 1_555 1_555
C8 C3 1_555 1_555
C9 C2 1_555 1_555
C10 C9 1_555 1_555
C11 C10 1_555 1_555
C12 C11 1_555 1_555
C13 C12 1_555 1_555
C14 C9 1_555 1_555
H1 O3 1_555 1_555
H2 N2 1_555 1_555
H3 N2 1_555 1_555
H4 C5 1_555 1_555
H5 C6 1_555 1_555
H6 C7 1_555 1_555
H7 C8 1_555 1_555
H8 C10 1_555 1_555
H9 C11 1_555 1_555
H10 C12 1_555 1_555
H11 C13 1_555 1_555
H12 C14 1_555 1_555
C13 C14 1_555 1_555

#END
