
#######################################################################
#
#                 Cambridge Crystallographic Data Centre
#                                CCDC 
#
#######################################################################
#
# If this CIF has been generated from an entry in the Cambridge 
# Structural Database, then it will include bibliographic, chemical, 
# crystal, experimental, refinement or atomic coordinate data resulting 
# from the CCDC's data processing and validation procedures.
#
#######################################################################

data_OMOMAF
_chemical_formula_moiety         'C9 H22 N1 O6 1+,Cl1 1-'
_chemical_name_systematic        'tris(1,3-dihydroxyprop-2-yl)ammonium chloride'
_symmetry_cell_setting           triclinic
_symmetry_space_group_name_H-M   'P -1'
_symmetry_Int_Tables_number      2
_space_group_name_Hall           '-P 1'
loop_
_symmetry_equiv_pos_site_id
_symmetry_equiv_pos_as_xyz
1 x,y,z
2 -x,-y,-z
_cell_length_a                   6.8927(4)
_cell_length_b                   8.2335(5)
_cell_length_c                   11.2422(7)
_cell_angle_alpha                92.2850(10)
_cell_angle_beta                 102.8470(10)
_cell_angle_gamma                91.2820(10)
_cell_volume                     621.221
_exptl_crystal_colour            colorless
_exptl_crystal_description       prism
_cell_formula_units_Z            2
loop_
_atom_site_label
_atom_site_type_symbol
_atom_site_fract_x
_atom_site_fract_y
_atom_site_fract_z
Cl1 Cl 0.50100(4) 0.61215(3) 0.81232(2)
O1 O 0.16907(12) 0.17535(9) 1.00167(7)
O2 O -0.46385(11) 0.23196(11) 0.56263(8)
O3 O -0.36887(10) -0.10950(9) 0.67299(7)
O4 O -0.44110(11) 0.23670(11) 0.85110(8)
N1 N -0.12595(12) 0.17035(9) 0.73757(7)
O5 O 0.06068(12) 0.51167(9) 0.68675(7)
O6 O 0.21374(12) -0.00145(10) 0.63643(7)
C1 C -0.03559(14) 0.00343(11) 0.75922(8)
C2 C -0.09609(14) 0.28573(11) 0.85029(8)
C3 C -0.10335(14) 0.24943(12) 0.62035(8)
C4 C 0.11417(14) 0.30835(12) 0.92611(9)
C5 C 0.18339(14) -0.00913(12) 0.75760(9)
C6 C -0.16324(14) -0.12016(12) 0.66876(9)
C7 C 0.08093(15) 0.35770(12) 0.62932(9)
C8 C -0.24513(15) 0.23409(12) 0.92470(9)
C9 C -0.29538(15) 0.33850(13) 0.57124(10)
H1 H -0.1305(18) 0.3884(16) 0.8199(11)
H2 H -0.309(2) 0.4276(18) 0.6270(13)
H3 H -0.0506(17) -0.0190(14) 0.8366(11)
H4 H -0.0960(19) 0.1609(16) 0.5639(12)
H5 H -0.228(2) 0.3043(17) 0.9953(13)
H6 H 0.211(2) 0.3211(16) 0.8748(13)
H7 H 0.200(2) 0.3086(17) 0.6724(12)
H8 H -0.1180(19) -0.2238(17) 0.6897(12)
H9 H 0.092(2) 0.3724(17) 0.5434(13)
H10 H -0.257(2) 0.1446(17) 0.7215(12)
H11 H 0.113(2) 0.4085(16) 0.9768(12)
H12 H -0.155(2) -0.1014(16) 0.5864(12)
H13 H -0.2252(19) 0.1265(17) 0.9487(12)
H14 H 0.265(2) 0.0719(17) 0.8119(13)
H15 H 0.218(2) -0.1138(18) 0.7879(13)
H16 H -0.289(2) 0.3786(18) 0.4915(13)
H17 H -0.496(2) 0.1937(19) 0.4931(16)
H18 H 0.268(3) 0.203(2) 1.0470(16)
H19 H -0.393(3) -0.185(2) 0.7160(16)
H20 H 0.332(3) 0.020(2) 0.6446(15)
H21 H 0.171(3) 0.546(2) 0.7132(17)
H22 H -0.463(3) 0.331(2) 0.8397(16)
loop_
_geom_bond_atom_site_label_1
_geom_bond_atom_site_label_2
_geom_bond_site_symmetry_1
_geom_bond_site_symmetry_2
O1 C4 1_555 1_555
O2 C9 1_555 1_555
O3 C6 1_555 1_555
O4 C8 1_555 1_555
N1 C1 1_555 1_555
O5 C7 1_555 1_555
O6 C5 1_555 1_555
C1 C5 1_555 1_555
C2 N1 1_555 1_555
C3 N1 1_555 1_555
C4 C2 1_555 1_555
C5 H14 1_555 1_555
C6 C1 1_555 1_555
C7 C3 1_555 1_555
C8 C2 1_555 1_555
C9 C3 1_555 1_555
H1 C2 1_555 1_555
H2 C9 1_555 1_555
H3 C1 1_555 1_555
H4 C3 1_555 1_555
H5 C8 1_555 1_555
H6 C4 1_555 1_555
H7 C7 1_555 1_555
H8 C6 1_555 1_555
H9 C7 1_555 1_555
H10 N1 1_555 1_555
H11 C4 1_555 1_555
H12 C6 1_555 1_555
H13 C8 1_555 1_555
H15 C5 1_555 1_555
H16 C9 1_555 1_555
H17 O2 1_555 1_555
H18 O1 1_555 1_555
H19 O3 1_555 1_555
H20 O6 1_555 1_555
H21 O5 1_555 1_555
H22 O4 1_555 1_555

#END
