
#######################################################################
#
#                 Cambridge Crystallographic Data Centre
#                                CCDC 
#
#######################################################################
#
# If this CIF has been generated from an entry in the Cambridge 
# Structural Database, then it will include bibliographic, chemical, 
# crystal, experimental, refinement or atomic coordinate data resulting 
# from the CCDC's data processing and validation procedures.
#
#######################################################################

data_OMONEK
_chemical_formula_moiety         'C83 H45 N1 O12'
_chemical_name_systematic        
'tris(t-butylperoxy)-(t-butoxy)-(4-methoxyphenylamino)-hydroxy-triepoxy-C60fullerene unknown solvate'
_symmetry_cell_setting           monoclinic
_symmetry_space_group_name_H-M   'P 21/c'
_symmetry_Int_Tables_number      14
_space_group_name_Hall           '-P 2ybc'
loop_
_symmetry_equiv_pos_site_id
_symmetry_equiv_pos_as_xyz
1 x,y,z
2 -x,1/2+y,1/2-z
3 -x,-y,-z
4 x,1/2-y,1/2+z
_cell_length_a                   18.907(7)
_cell_length_b                   13.564(5)
_cell_length_c                   27.919(10)
_cell_angle_alpha                90
_cell_angle_beta                 103.790(4)
_cell_angle_gamma                90
_cell_volume                     6953.58
_cell_formula_units_Z            4
loop_
_atom_site_label
_atom_site_type_symbol
_atom_site_fract_x
_atom_site_fract_y
_atom_site_fract_z
O1 O 0.29455(4) 0.48901(5) 0.23435(2)
O2 O 0.23810(4) 0.54033(6) 0.25431(3)
O3 O 0.21850(4) 0.43472(6) 0.36790(3)
O4 O 0.23400(4) 0.50625(6) 0.40908(3)
O5 O 0.34163(4) 0.17021(5) 0.17782(2)
O6 O 0.30214(4) 0.25706(5) 0.15110(2)
O7 O 0.30767(4) -0.07927(5) 0.36926(3)
O8 O 0.25806(4) 0.08494(5) 0.40633(3)
O9 O 0.25152(4) 0.28962(5) 0.24245(2)
O10 O 0.24895(4) 0.04248(5) 0.28700(3)
O11 O 0.22648(4) 0.13812(5) 0.20941(3)
H1 H 0.2233 0.1630 0.1814
O12 O -0.05402(5) 0.30356(8) 0.17301(4)
N1 N 0.17170(5) 0.19471(7) 0.33338(3)
H2 H 0.1640 0.1290 0.3384
C1 C 0.24940(5) 0.20615(8) 0.33532(4)
C2 C 0.27628(5) 0.14219(8) 0.29570(3)
C3 C 0.27629(5) 0.19013(8) 0.24402(4)
C4 C 0.27974(5) 0.34310(8) 0.28379(4)
C5 C 0.27294(5) 0.31411(8) 0.32826(4)
C6 C 0.28865(6) 0.38950(8) 0.37045(4)
C7 C 0.32395(6) 0.34404(8) 0.41955(4)
C8 C 0.32183(6) 0.24494(8) 0.42754(4)
C9 C 0.28843(6) 0.17210(8) 0.38809(4)
C10 C 0.33223(6) 0.07914(8) 0.40117(4)
C11 C 0.34757(6) 0.00617(7) 0.36269(4)
C12 C 0.32518(6) 0.05306(8) 0.31033(4)
C13 C 0.38942(6) 0.04481(7) 0.28720(3)
C14 C 0.40402(6) 0.11180(7) 0.25389(3)
C15 C 0.35265(6) 0.19281(8) 0.22915(4)
C16 C 0.40309(5) 0.28480(8) 0.24120(3)
C17 C 0.39447(5) 0.37928(7) 0.25762(3)
C18 C 0.32820(6) 0.42490(8) 0.27344(4)
C19 C 0.36657(6) 0.47784(7) 0.32080(4)
C20 C 0.34648(6) 0.46366(8) 0.36396(4)
C21 C 0.40137(6) 0.47450(8) 0.41016(4)
C22 C 0.38550(6) 0.40108(8) 0.44422(4)
C23 C 0.44345(6) 0.35819(8) 0.47918(4)
C24 C 0.43991(6) 0.25387(8) 0.48856(4)
C25 C 0.38020(6) 0.19831(8) 0.46302(3)
C26 C 0.39062(6) 0.09950(8) 0.44645(4)
C27 C 0.45932(6) 0.06249(8) 0.45332(4)
C28 C 0.47977(6) 0.00679(7) 0.41311(4)
C29 C 0.42999(6) -0.00741(7) 0.36968(4)
C30 C 0.45006(6) 0.00617(7) 0.32342(4)
C31 C 0.52223(6) 0.02901(8) 0.32387(4)
C32 C 0.53662(5) 0.09979(8) 0.28880(4)
C33 C 0.47767(6) 0.14290(8) 0.25650(3)
C34 C 0.47747(6) 0.24838(8) 0.24752(3)
C35 C 0.53850(6) 0.30309(8) 0.26911(4)
C36 C 0.52904(5) 0.40025(8) 0.28695(4)
C37 C 0.45872(6) 0.43527(8) 0.28179(3)
C38 C 0.44093(5) 0.49570(7) 0.32080(4)
C39 C 0.49384(6) 0.51005(7) 0.36478(4)
C40 C 0.47253(6) 0.49936(8) 0.41101(4)
C41 C 0.53260(6) 0.45216(8) 0.44594(4)
C42 C 0.51761(6) 0.38346(8) 0.47915(4)
C43 C 0.56096(6) 0.29392(8) 0.48967(4)
C44 C 0.51309(6) 0.21458(8) 0.49618(4)
C45 C 0.52192(6) 0.12079(8) 0.47814(4)
C46 C 0.58045(6) 0.10272(8) 0.45354(4)
C47 C 0.55442(6) 0.03412(8) 0.41399(4)
C48 C 0.57514(6) 0.04296(8) 0.36963(4)
C49 C 0.62355(6) 0.12238(8) 0.36322(4)
C50 C 0.59886(6) 0.15758(8) 0.31272(4)
C51 C 0.60071(5) 0.25834(8) 0.30291(4)
C52 C 0.62778(5) 0.32762(8) 0.34229(4)
C53 C 0.58381(5) 0.41631(8) 0.33237(4)
C54 C 0.56607(6) 0.46889(8) 0.37099(4)
C55 C 0.59062(6) 0.43325(8) 0.42091(4)
C56 C 0.63251(6) 0.34768(8) 0.43068(4)
C57 C 0.61767(6) 0.27709(8) 0.46613(4)
C58 C 0.62693(6) 0.17899(8) 0.44758(4)
C59 C 0.64925(6) 0.18989(8) 0.40146(4)
C60 C 0.65131(6) 0.29337(8) 0.39104(4)
C61 C 0.11705(6) 0.22466(9) 0.29118(4)
C62 C 0.09008(7) 0.31942(9) 0.28842(4)
H4 H 0.1110 0.3654 0.3134
C63 C 0.03284(7) 0.34932(10) 0.24984(5)
H5 H 0.0146 0.4148 0.2487
C64 C 0.00232(7) 0.28129(10) 0.21257(5)
C65 C 0.02813(7) 0.18743(11) 0.21540(5)
H6 H 0.0064 0.1410 0.1908
C66 C 0.08621(6) 0.15812(10) 0.25392(4)
H7 H 0.1047 0.0929 0.2547
C67 C -0.08103(9) 0.40325(12) 0.17006(7)
H8 H -0.0985 0.4183 0.1996
H9 H -0.1212 0.4104 0.1407
H10 H -0.0418 0.4489 0.1679
C68 C 0.17845(6) 0.56681(9) 0.21271(4)
C69 C 0.20424(7) 0.64330(10) 0.18125(5)
H11 H 0.2281 0.6975 0.2022
H12 H 0.1624 0.6689 0.1566
H13 H 0.2389 0.6130 0.1646
C70 C 0.12401(7) 0.61015(10) 0.24000(5)
H14 H 0.1147 0.5619 0.2639
H15 H 0.0783 0.6258 0.2162
H16 H 0.1443 0.6704 0.2573
C71 C 0.14861(7) 0.47629(10) 0.18282(5)
H17 H 0.1843 0.4525 0.1651
H18 H 0.1032 0.4933 0.1590
H19 H 0.1391 0.4245 0.2050
C72 C 0.16956(6) 0.51103(10) 0.42887(4)
C73 C 0.15309(9) 0.41191(13) 0.44667(6)
H20 H 0.1457 0.3646 0.4194
H21 H 0.1088 0.4157 0.4590
H22 H 0.1939 0.3902 0.4733
C74 C 0.10732(8) 0.55185(13) 0.39017(5)
H23 H 0.1206 0.6168 0.3797
H24 H 0.0643 0.5581 0.4038
H25 H 0.0964 0.5073 0.3617
C75 C 0.19570(9) 0.58323(13) 0.47118(5)
H26 H 0.2412 0.5590 0.4926
H27 H 0.1586 0.5893 0.4903
H28 H 0.2041 0.6479 0.4579
C76 C 0.32400(6) 0.26453(8) 0.10448(4)
C77 C 0.28481(7) 0.35969(9) 0.08377(4)
H29 H 0.2323 0.3520 0.0804
H30 H 0.2941 0.3736 0.0514
H31 H 0.3029 0.4145 0.1062
C78 C 0.29698(7) 0.17573(9) 0.07241(4)
H32 H 0.3217 0.1163 0.0880
H33 H 0.3075 0.1847 0.0400
H34 H 0.2443 0.1687 0.0685
C79 C 0.40782(6) 0.27505(9) 0.11416(4)
H35 H 0.4243 0.3284 0.1378
H36 H 0.4212 0.2902 0.0831
H37 H 0.4310 0.2131 0.1276
C80 C 0.31623(6) -0.17713(8) 0.34840(4)
C81 C 0.39236(7) -0.22077(9) 0.36793(5)
H38 H 0.4266 -0.1893 0.3512
H39 H 0.3910 -0.2919 0.3615
H40 H 0.4083 -0.2090 0.4035
C82 C 0.26104(8) -0.23802(9) 0.36718(5)
H41 H 0.2717 -0.2338 0.4032
H42 H 0.2639 -0.3070 0.3573
H43 H 0.2120 -0.2126 0.3531
C83 C 0.29762(7) -0.17551(9) 0.29268(4)
H44 H 0.2506 -0.1427 0.2805
H45 H 0.2947 -0.2432 0.2801
H46 H 0.3355 -0.1396 0.2813
H3? H 0.1629 0.2281 0.3600
loop_
_geom_bond_atom_site_label_1
_geom_bond_atom_site_label_2
_geom_bond_site_symmetry_1
_geom_bond_site_symmetry_2
O1 O2 1_555 1_555
O2 C68 1_555 1_555
O3 O4 1_555 1_555
O4 C72 1_555 1_555
O5 O6 1_555 1_555
O6 C76 1_555 1_555
O7 C11 1_555 1_555
O8 C9 1_555 1_555
O9 C3 1_555 1_555
O10 C2 1_555 1_555
O11 H1 1_555 1_555
O12 C64 1_555 1_555
N1 H2 1_555 1_555
C1 N1 1_555 1_555
C2 C1 1_555 1_555
C3 O11 1_555 1_555
C4 O9 1_555 1_555
C5 C1 1_555 1_555
C6 O3 1_555 1_555
C7 C6 1_555 1_555
C8 C7 1_555 1_555
C9 C1 1_555 1_555
C10 O8 1_555 1_555
C11 C10 1_555 1_555
C12 O10 1_555 1_555
C13 C12 1_555 1_555
C14 C13 1_555 1_555
C15 O5 1_555 1_555
C16 C15 1_555 1_555
C17 C16 1_555 1_555
C18 O1 1_555 1_555
C19 C18 1_555 1_555
C20 C6 1_555 1_555
C21 C20 1_555 1_555
C22 C7 1_555 1_555
C23 C22 1_555 1_555
C24 C23 1_555 1_555
C25 C8 1_555 1_555
C26 C10 1_555 1_555
C27 C26 1_555 1_555
C28 C27 1_555 1_555
C29 C11 1_555 1_555
C30 C13 1_555 1_555
C31 C30 1_555 1_555
C32 C31 1_555 1_555
C33 C14 1_555 1_555
C34 C16 1_555 1_555
C35 C34 1_555 1_555
C36 C35 1_555 1_555
C37 C17 1_555 1_555
C38 C19 1_555 1_555
C39 C38 1_555 1_555
C40 C21 1_555 1_555
C41 C40 1_555 1_555
C42 C23 1_555 1_555
C43 C42 1_555 1_555
C44 C24 1_555 1_555
C45 C27 1_555 1_555
C46 C45 1_555 1_555
C47 C28 1_555 1_555
C48 C31 1_555 1_555
C49 C48 1_555 1_555
C50 C32 1_555 1_555
C51 C35 1_555 1_555
C52 C51 1_555 1_555
C53 C36 1_555 1_555
C54 C39 1_555 1_555
C55 C41 1_555 1_555
C56 C55 1_555 1_555
C57 C43 1_555 1_555
C58 C46 1_555 1_555
C59 C49 1_555 1_555
C60 C52 1_555 1_555
C61 N1 1_555 1_555
C62 C61 1_555 1_555
H4 C62 1_555 1_555
C63 C62 1_555 1_555
H5 C63 1_555 1_555
C64 C63 1_555 1_555
C65 C64 1_555 1_555
H6 C65 1_555 1_555
C66 C61 1_555 1_555
H7 C66 1_555 1_555
C67 O12 1_555 1_555
H8 C67 1_555 1_555
H9 C67 1_555 1_555
H10 C67 1_555 1_555
C68 C69 1_555 1_555
C69 H11 1_555 1_555
H12 C69 1_555 1_555
H13 C69 1_555 1_555
C70 C68 1_555 1_555
H14 C70 1_555 1_555
H15 C70 1_555 1_555
H16 C70 1_555 1_555
C71 C68 1_555 1_555
H17 C71 1_555 1_555
H18 C71 1_555 1_555
H19 C71 1_555 1_555
C72 C73 1_555 1_555
C73 H20 1_555 1_555
H21 C73 1_555 1_555
H22 C73 1_555 1_555
C74 C72 1_555 1_555
H23 C74 1_555 1_555
H24 C74 1_555 1_555
H25 C74 1_555 1_555
C75 C72 1_555 1_555
H26 C75 1_555 1_555
H27 C75 1_555 1_555
H28 C75 1_555 1_555
C76 C77 1_555 1_555
C77 H29 1_555 1_555
H30 C77 1_555 1_555
H31 C77 1_555 1_555
C78 C76 1_555 1_555
H32 C78 1_555 1_555
H33 C78 1_555 1_555
H34 C78 1_555 1_555
C79 C76 1_555 1_555
H35 C79 1_555 1_555
H36 C79 1_555 1_555
H37 C79 1_555 1_555
C80 O7 1_555 1_555
C81 C80 1_555 1_555
H38 C81 1_555 1_555
H39 C81 1_555 1_555
H40 C81 1_555 1_555
C82 C80 1_555 1_555
H41 C82 1_555 1_555
H42 C82 1_555 1_555
H43 C82 1_555 1_555
C83 C80 1_555 1_555
H44 C83 1_555 1_555
H45 C83 1_555 1_555
H46 C83 1_555 1_555
C2 C3 1_555 1_555
C2 C12 1_555 1_555
C3 C15 1_555 1_555
C4 C5 1_555 1_555
C4 C18 1_555 1_555
C5 C6 1_555 1_555
C8 C9 1_555 1_555
C9 C10 1_555 1_555
C11 C12 1_555 1_555
C14 C15 1_555 1_555
C17 C18 1_555 1_555
C19 C20 1_555 1_555
C21 C22 1_555 1_555
C24 C25 1_555 1_555
C25 C26 1_555 1_555
C28 C29 1_555 1_555
C29 C30 1_555 1_555
C32 C33 1_555 1_555
C33 C34 1_555 1_555
C36 C37 1_555 1_555
C37 C38 1_555 1_555
C39 C40 1_555 1_555
C41 C42 1_555 1_555
C43 C44 1_555 1_555
C44 C45 1_555 1_555
C46 C47 1_555 1_555
C47 C48 1_555 1_555
C49 C50 1_555 1_555
C50 C51 1_555 1_555
C52 C53 1_555 1_555
C53 C54 1_555 1_555
C54 C55 1_555 1_555
C56 C57 1_555 1_555
C56 C60 1_555 1_555
C57 C58 1_555 1_555
C58 C59 1_555 1_555
C59 C60 1_555 1_555
C65 C66 1_555 1_555

#END
