
#######################################################################
#
#                 Cambridge Crystallographic Data Centre
#                                CCDC 
#
#######################################################################
#
# If this CIF has been generated from an entry in the Cambridge 
# Structural Database, then it will include bibliographic, chemical, 
# crystal, experimental, refinement or atomic coordinate data resulting 
# from the CCDC's data processing and validation procedures.
#
#######################################################################

data_OMONAG
_chemical_formula_moiety         'C23 H21 N1 O2'
_chemical_name_systematic        
'Methyl 4-(dimethylamino)-6-phenyl-4-(phenylethynyl)hex-2-en-5-ynoate'
_symmetry_cell_setting           monoclinic
_symmetry_space_group_name_H-M   'P 21'
_symmetry_Int_Tables_number      4
_space_group_name_Hall           'P 2yb'
loop_
_symmetry_equiv_pos_site_id
_symmetry_equiv_pos_as_xyz
1 x,y,z
2 -x,1/2+y,-z
_cell_length_a                   5.89032(15)
_cell_length_b                   18.6263(5)
_cell_length_c                   8.9648(2)
_cell_angle_alpha                90
_cell_angle_beta                 93.673(3)
_cell_angle_gamma                90
_cell_volume                     981.552
_exptl_crystal_colour            colorless
_exptl_crystal_description       block
_cell_formula_units_Z            2
loop_
_atom_site_label
_atom_site_type_symbol
_atom_site_fract_x
_atom_site_fract_y
_atom_site_fract_z
C1 C -0.0104(4) 0.31869(12) 0.7732(2)
C2 C 0.1358(3) 0.50090(12) 0.7563(2)
C3 C 0.0330(3) 0.55594(11) 0.7466(2)
C4 C 0.2626(3) 0.43335(11) 0.7879(2)
O1 O 0.7151(3) 0.37159(9) 0.45959(19)
C5 C -0.1390(3) 0.25326(12) 0.7641(2)
C6 C 0.1057(3) 0.37153(12) 0.7803(2)
N1 N 0.3854(3) 0.43392(11) 0.93680(18)
C7 C 0.6463(4) 0.43967(15) 0.4496(2)
C8 C -0.0953(3) 0.62212(11) 0.7453(2)
C9 C -0.4566(4) 0.18124(16) 0.8267(3)
H2 H -0.5905 0.1761 0.8752
C10 C -0.0599(4) 0.19542(14) 0.6837(3)
H3 H 0.0739 0.1997 0.6347
C11 C -0.3393(4) 0.24580(14) 0.8362(3)
H4 H -0.3945 0.2838 0.8905
C12 C 0.4727(3) 0.45695(12) 0.5549(2)
H5 H 0.3857 0.4981 0.5377
C13 C 0.4341(3) 0.41763(11) 0.6710(2)
H6 H 0.5195 0.3758 0.6841
C14 C -0.3866(4) 0.69959(16) 0.6368(3)
H7 H -0.4963 0.7099 0.5606
C15 C -0.2613(4) 0.63675(14) 0.6323(3)
H8 H -0.2881 0.6045 0.5539
C16 C -0.1790(5) 0.13214(16) 0.6767(4)
H9 H -0.1243 0.0936 0.6237
O2 O 0.7200(4) 0.48196(13) 0.3641(2)
C17 C -0.3773(5) 0.12507(15) 0.7466(3)
H10 H -0.4580 0.0822 0.7398
C18 C 0.2322(4) 0.44244(16) 1.0572(2)
H11 H 0.1647 0.4894 1.0515
H12 H 0.3163 0.4369 1.1518
H13 H 0.1148 0.4067 1.0475
C19 C -0.0591(5) 0.67071(13) 0.8607(3)
H14 H 0.0519 0.6614 0.9368
C20 C -0.1855(5) 0.73266(14) 0.8645(3)
H15 H -0.1596 0.7651 0.9425
C21 C 0.5646(4) 0.48852(18) 0.9489(3)
H16 H 0.6709 0.4801 0.8740
H17 H 0.6423 0.4861 1.0462
H18 H 0.4980 0.5352 0.9344
C22 C -0.3489(5) 0.74646(15) 0.7535(3)
H19 H -0.4356 0.7881 0.7571
C23 C 0.8982(5) 0.3517(2) 0.3683(3)
H20 H 0.8558 0.3625 0.2655
H21 H 0.9280 0.3013 0.3789
H22 H 1.0325 0.3783 0.3997
H1? H 0.4542 0.3904 0.9495
loop_
_geom_bond_atom_site_label_1
_geom_bond_atom_site_label_2
_geom_bond_site_symmetry_1
_geom_bond_site_symmetry_2
C1 C5 1_555 1_555
C2 C3 1_555 1_555
C3 C8 1_555 1_555
C4 C2 1_555 1_555
O1 C7 1_555 1_555
C5 C10 1_555 1_555
C6 C1 1_555 1_555
N1 C4 1_555 1_555
C7 C12 1_555 1_555
C8 C15 1_555 1_555
C9 H2 1_555 1_555
C10 H3 1_555 1_555
C11 C5 1_555 1_555
H4 C11 1_555 1_555
C12 H5 1_555 1_555
C13 C4 1_555 1_555
H6 C13 1_555 1_555
C14 H7 1_555 1_555
C15 C14 1_555 1_555
H8 C15 1_555 1_555
C16 C10 1_555 1_555
H9 C16 1_555 1_555
O2 C7 1_555 1_555
C17 C9 1_555 1_555
H10 C17 1_555 1_555
C18 N1 1_555 1_555
H11 C18 1_555 1_555
H12 C18 1_555 1_555
H13 C18 1_555 1_555
C19 C8 1_555 1_555
H14 C19 1_555 1_555
C20 C19 1_555 1_555
H15 C20 1_555 1_555
C21 N1 1_555 1_555
H16 C21 1_555 1_555
H17 C21 1_555 1_555
H18 C21 1_555 1_555
C22 C14 1_555 1_555
H19 C22 1_555 1_555
C23 O1 1_555 1_555
H20 C23 1_555 1_555
H21 C23 1_555 1_555
H22 C23 1_555 1_555
C4 C6 1_555 1_555
C9 C11 1_555 1_555
C12 C13 1_555 1_555
C16 C17 1_555 1_555
C20 C22 1_555 1_555

#END
