
#######################################################################
#
#                 Cambridge Crystallographic Data Centre
#                                CCDC 
#
#######################################################################
#
# If this CIF has been generated from an entry in the Cambridge 
# Structural Database, then it will include bibliographic, chemical, 
# crystal, experimental, refinement or atomic coordinate data resulting 
# from the CCDC's data processing and validation procedures.
#
#######################################################################

data_OMOPEN
_chemical_formula_moiety         'C54 H75 I2 N4 1+,I1 1-'
_chemical_name_systematic        
'1,3-bis(2,6-Di-isopropylphenyl)-4-(2-((2,6-di-isopropylphenyl)(((2,6-di-isopropylphenyl)imino)methyl)amino)-1-iodoethyl)-2-iodo-4,5-dihydro-1H-imidazol-3-ium iodide unknown solvate'
_symmetry_cell_setting           monoclinic
_symmetry_space_group_name_H-M   'P 21/n'
_symmetry_Int_Tables_number      14
_space_group_name_Hall           '-P 2yn'
loop_
_symmetry_equiv_pos_site_id
_symmetry_equiv_pos_as_xyz
1 x,y,z
2 1/2-x,1/2+y,1/2-z
3 -x,-y,-z
4 1/2+x,1/2-y,1/2+z
_cell_length_a                   11.1063(19)
_cell_length_b                   38.444(6)
_cell_length_c                   15.771(3)
_cell_angle_alpha                90
_cell_angle_beta                 96.681(3)
_cell_angle_gamma                90
_cell_volume                     6688.03
_exptl_crystal_colour            colorless
_exptl_crystal_description       sheet
_cell_formula_units_Z            4
loop_
_atom_site_label
_atom_site_type_symbol
_atom_site_fract_x
_atom_site_fract_y
_atom_site_fract_z
I1 I 0.84044(7) 0.22653(2) 1.09592(5)
I2 I 0.40509(9) 0.31655(2) 1.07115(7)
N1 N 0.6203(8) 0.2464(2) 0.9670(6)
N2 N 0.7084(8) 0.2931(2) 1.0273(6)
N3 N 0.4444(7) 0.3930(2) 0.9399(6)
N4 N 0.6383(8) 0.4096(2) 0.9202(7)
C1 C 0.7078(10) 0.2589(3) 1.0226(8)
C2 C 0.6196(9) 0.3081(3) 0.9609(7)
H1 H 0.6647 0.3185 0.9174
C3 C 0.5532(10) 0.2752(3) 0.9212(8)
H2 H 0.4686 0.2751 0.9310
H3 H 0.5583 0.2739 0.8603
C4 C 0.5388(9) 0.3367(3) 0.9928(7)
H4 H 0.5912 0.3531 1.0276
C5 C 0.4732(9) 0.3569(3) 0.9168(7)
H5 H 0.5239 0.3574 0.8708
H6 H 0.3986 0.3449 0.8964
C6 C 0.5300(10) 0.4179(3) 0.9279(8)
H7 H 0.5078 0.4413 0.9255
C7 C 0.8105(10) 0.3132(3) 1.0658(7)
C8 C 0.9059(11) 0.3215(3) 1.0186(10)
C9 C 0.9985(12) 0.3417(4) 1.0572(11)
H8 H 1.0604 0.3483 1.0256
C10 C 1.0034(13) 0.3520(4) 1.1363(9)
H9 H 1.0688 0.3654 1.1596
C11 C 0.9097(14) 0.3432(4) 1.1884(9)
H10 H 0.9133 0.3506 1.2448
C12 C 0.8106(9) 0.3226(4) 1.1497(7)
C13 C 0.9093(12) 0.3092(4) 0.9274(9)
H11 H 0.8399 0.2935 0.9149
C14 C 0.8888(16) 0.3387(5) 0.8646(11)
H12 H 0.8152 0.3507 0.8733
H13 H 0.8823 0.3297 0.8075
H14 H 0.9557 0.3547 0.8732
C15 C 1.0204(16) 0.2877(5) 0.9163(14)
H15 H 1.0374 0.2723 0.9640
H16 H 1.0884 0.3029 0.9130
H17 H 1.0061 0.2744 0.8647
C16 C 0.7127(14) 0.3148(5) 1.2083(8)
H18 H 0.6446 0.3030 1.1752
C17 C 0.6646(19) 0.3511(5) 1.2467(13)
H19 H 0.7274 0.3683 1.2488
H20 H 0.6436 0.3471 1.3033
H21 H 0.5945 0.3591 1.2107
C18 C 0.764(2) 0.2916(5) 1.2801(11)
H22 H 0.7517 0.2677 1.2634
H23 H 0.7229 0.2961 1.3294
H24 H 0.8487 0.2961 1.2935
C19 C 0.5942(11) 0.2105(3) 0.9476(8)
C20 C 0.5120(12) 0.1938(3) 0.9928(8)
C21 C 0.4924(17) 0.1582(4) 0.9737(11)
H25 H 0.4352 0.1461 1.0008
C22 C 0.5554(16) 0.1406(4) 0.9163(11)
H26 H 0.5416 0.1171 0.9047
C23 C 0.6369(16) 0.1586(4) 0.8780(12)
H27 H 0.6815 0.1465 0.8413
C24 C 0.6598(14) 0.1931(4) 0.8883(11)
C25 C 0.4417(14) 0.2140(4) 1.0551(8)
H28 H 0.4681 0.2383 1.0591
C26 C 0.463(2) 0.1965(7) 1.1409(13)
H29 H 0.4172 0.1754 1.1398
H30 H 0.4387 0.2117 1.1839
H31 H 0.5481 0.1912 1.1536
C27 C 0.308(2) 0.2118(7) 1.0303(17)
H32 H 0.2868 0.2238 0.9774
H33 H 0.2664 0.2222 1.0740
H34 H 0.2843 0.1878 1.0237
C28 C 0.7499(17) 0.2120(5) 0.8409(13)
H35 H 0.7590 0.2352 0.8663
C29 C 0.6944(18) 0.2175(6) 0.7444(12)
H36 H 0.6817 0.1953 0.7169
H37 H 0.7495 0.2311 0.7153
H38 H 0.6184 0.2295 0.7428
C30 C 0.8786(19) 0.1962(8) 0.8477(15)
H39 H 0.8927 0.1825 0.8987
H40 H 0.9373 0.2146 0.8497
H41 H 0.8856 0.1817 0.7989
C31 C 0.3218(10) 0.4042(3) 0.9458(8)
C32 C 0.2857(11) 0.4136(3) 1.0222(9)
C33 C 0.1686(12) 0.4218(3) 1.0292(10)
H42 H 0.1442 0.4276 1.0819
C34 C 0.0832(11) 0.4214(3) 0.9538(10)
H43 H 0.0029 0.4275 0.9573
C35 C 0.1184(11) 0.4122(4) 0.8774(11)
H44 H 0.0619 0.4119 0.8291
C36 C 0.2393(10) 0.4030(3) 0.8706(9)
C37 C 0.3764(11) 0.4166(4) 1.1046(9)
H45 H 0.4487 0.4031 1.0959
C38 C 0.4160(13) 0.4546(4) 1.1207(12)
H46 H 0.3470 0.4684 1.1308
H47 H 0.4497 0.4634 1.0716
H48 H 0.4759 0.4557 1.1696
C39 C 0.3284(17) 0.4029(5) 1.1820(10)
H49 H 0.2710 0.4191 1.2004
H50 H 0.3940 0.3998 1.2266
H51 H 0.2892 0.3810 1.1690
C40 C 0.2739(13) 0.3948(4) 0.7831(10)
H52 H 0.3607 0.3894 0.7894
C41 C 0.2527(19) 0.4288(5) 0.7223(13)
H53 H 0.1693 0.4298 0.6984
H54 H 0.3034 0.4273 0.6771
H55 H 0.2730 0.4494 0.7554
C42 C 0.2072(15) 0.3635(5) 0.7431(13)
H56 H 0.2245 0.3436 0.7793
H57 H 0.2333 0.3591 0.6882
H58 H 0.1216 0.3680 0.7366
C43 C 0.7206(10) 0.4382(3) 0.9050(9)
C44 C 0.7656(11) 0.4604(3) 0.9715(10)
C45 C 0.8469(12) 0.4859(4) 0.9508(12)
H59 H 0.8802 0.5008 0.9938
C46 C 0.8789(13) 0.4900(4) 0.8740(12)
H60 H 0.9292 0.5085 0.8635
C47 C 0.8390(14) 0.4672(4) 0.8071(11)
H61 H 0.8651 0.4698 0.7536
C48 C 0.7579(12) 0.4401(4) 0.8230(10)
C49 C 0.7334(12) 0.4558(3) 1.0604(11)
H62 H 0.6496 0.4474 1.0552
C50 C 0.7363(18) 0.4914(5) 1.1119(12)
H63 H 0.8189 0.4983 1.1278
H64 H 0.6968 0.4882 1.1624
H65 H 0.6950 0.5090 1.0768
C51 C 0.8113(19) 0.4279(6) 1.1084(12)
H66 H 0.8144 0.4078 1.0727
H67 H 0.7768 0.4216 1.1593
H68 H 0.8919 0.4367 1.1235
C52 C 0.7046(13) 0.4163(4) 0.7502(10)
H69 H 0.6786 0.3948 0.7760
C53 C 0.5906(18) 0.4324(8) 0.6971(16)
H70 H 0.6143 0.4523 0.6665
H71 H 0.5330 0.4392 0.7349
H72 H 0.5543 0.4154 0.6573
C54 C 0.7967(18) 0.4062(5) 0.6894(12)
H73 H 0.7733 0.3844 0.6623
H74 H 0.8755 0.4038 0.7210
H75 H 0.7990 0.4239 0.6467
I3 I 1.05048(9) 0.18135(3) 1.19904(6)
loop_
_geom_bond_atom_site_label_1
_geom_bond_atom_site_label_2
_geom_bond_site_symmetry_1
_geom_bond_site_symmetry_2
I1 C1 1_555 1_555
I2 C4 1_555 1_555
N1 C1 1_555 1_555
N2 C1 1_555 1_555
N3 C5 1_555 1_555
N4 C6 1_555 1_555
C2 N2 1_555 1_555
H1 C2 1_555 1_555
C3 N1 1_555 1_555
H2 C3 1_555 1_555
H3 C3 1_555 1_555
C4 C2 1_555 1_555
H4 C4 1_555 1_555
C5 C4 1_555 1_555
H5 C5 1_555 1_555
H6 C5 1_555 1_555
C6 N3 1_555 1_555
H7 C6 1_555 1_555
C7 N2 1_555 1_555
C8 C7 1_555 1_555
C9 C8 1_555 1_555
H8 C9 1_555 1_555
C10 C9 1_555 1_555
H9 C10 1_555 1_555
C11 C10 1_555 1_555
H10 C11 1_555 1_555
C12 C7 1_555 1_555
C13 C8 1_555 1_555
H11 C13 1_555 1_555
C14 C13 1_555 1_555
H12 C14 1_555 1_555
H13 C14 1_555 1_555
H14 C14 1_555 1_555
C15 C13 1_555 1_555
H15 C15 1_555 1_555
H16 C15 1_555 1_555
H17 C15 1_555 1_555
C16 C12 1_555 1_555
H18 C16 1_555 1_555
C17 C16 1_555 1_555
H19 C17 1_555 1_555
H20 C17 1_555 1_555
H21 C17 1_555 1_555
C18 C16 1_555 1_555
H22 C18 1_555 1_555
H23 C18 1_555 1_555
H24 C18 1_555 1_555
C19 N1 1_555 1_555
C20 C19 1_555 1_555
C21 C20 1_555 1_555
H25 C21 1_555 1_555
C22 C21 1_555 1_555
H26 C22 1_555 1_555
C23 C22 1_555 1_555
H27 C23 1_555 1_555
C24 C19 1_555 1_555
C25 C20 1_555 1_555
H28 C25 1_555 1_555
C26 C25 1_555 1_555
H29 C26 1_555 1_555
H30 C26 1_555 1_555
H31 C26 1_555 1_555
C27 C25 1_555 1_555
H32 C27 1_555 1_555
H33 C27 1_555 1_555
H34 C27 1_555 1_555
C28 C24 1_555 1_555
H35 C28 1_555 1_555
C29 C28 1_555 1_555
H36 C29 1_555 1_555
H37 C29 1_555 1_555
H38 C29 1_555 1_555
C30 C28 1_555 1_555
H39 C30 1_555 1_555
H40 C30 1_555 1_555
H41 C30 1_555 1_555
C31 N3 1_555 1_555
C32 C31 1_555 1_555
C33 C32 1_555 1_555
H42 C33 1_555 1_555
C34 C33 1_555 1_555
H43 C34 1_555 1_555
C35 C34 1_555 1_555
H44 C35 1_555 1_555
C36 C31 1_555 1_555
C37 C32 1_555 1_555
H45 C37 1_555 1_555
C38 C37 1_555 1_555
H46 C38 1_555 1_555
H47 C38 1_555 1_555
H48 C38 1_555 1_555
C39 C37 1_555 1_555
H49 C39 1_555 1_555
H50 C39 1_555 1_555
H51 C39 1_555 1_555
C40 C36 1_555 1_555
H52 C40 1_555 1_555
C41 C40 1_555 1_555
H53 C41 1_555 1_555
H54 C41 1_555 1_555
H55 C41 1_555 1_555
C42 C40 1_555 1_555
H56 C42 1_555 1_555
H57 C42 1_555 1_555
H58 C42 1_555 1_555
C43 N4 1_555 1_555
C44 C43 1_555 1_555
C45 C44 1_555 1_555
H59 C45 1_555 1_555
C46 C45 1_555 1_555
H60 C46 1_555 1_555
C47 C46 1_555 1_555
H61 C47 1_555 1_555
C48 C43 1_555 1_555
C49 C44 1_555 1_555
H62 C49 1_555 1_555
C50 C49 1_555 1_555
H63 C50 1_555 1_555
H64 C50 1_555 1_555
H65 C50 1_555 1_555
C51 C49 1_555 1_555
H66 C51 1_555 1_555
H67 C51 1_555 1_555
H68 C51 1_555 1_555
C52 C48 1_555 1_555
H69 C52 1_555 1_555
C53 C52 1_555 1_555
H70 C53 1_555 1_555
H71 C53 1_555 1_555
H72 C53 1_555 1_555
C54 C52 1_555 1_555
H73 C54 1_555 1_555
H74 C54 1_555 1_555
H75 C54 1_555 1_555
C2 C3 1_555 1_555
C11 C12 1_555 1_555
C23 C24 1_555 1_555
C35 C36 1_555 1_555
C47 C48 1_555 1_555

#END
