
#######################################################################
#
#                 Cambridge Crystallographic Data Centre
#                                CCDC 
#
#######################################################################
#
# If this CIF has been generated from an entry in the Cambridge 
# Structural Database, then it will include bibliographic, chemical, 
# crystal, experimental, refinement or atomic coordinate data resulting 
# from the CCDC's data processing and validation procedures.
#
#######################################################################

data_OMOWUK
_chemical_formula_moiety         'C18 H17 B1 F5 N1'
_chemical_name_systematic        
5-(pentafluorophenyl)-1-phenyl-1,5-azaborocane
_symmetry_cell_setting           triclinic
_symmetry_space_group_name_H-M   'P -1'
_symmetry_Int_Tables_number      2
_space_group_name_Hall           '-P 1'
loop_
_symmetry_equiv_pos_site_id
_symmetry_equiv_pos_as_xyz
1 x,y,z
2 -x,-y,-z
_cell_length_a                   8.8541(2)
_cell_length_b                   10.0986(3)
_cell_length_c                   10.2873(3)
_cell_angle_alpha                78.311(1)
_cell_angle_beta                 89.696(1)
_cell_angle_gamma                66.250(1)
_cell_volume                     821.478
_exptl_crystal_colour            colorless
_exptl_crystal_description       block
_cell_formula_units_Z            2
loop_
_atom_site_label
_atom_site_type_symbol
_atom_site_fract_x
_atom_site_fract_y
_atom_site_fract_z
N1 N -0.1565(2) 0.83087(17) 0.22305(16)
B1 B -0.0869(3) 0.6483(2) 0.1992(2)
C1 C -0.2288(3) 0.9268(2) 0.0860(2)
H1 H -0.1426 0.9458 0.0357
H2 H -0.3163 1.0220 0.0934
C2 C -0.2989(3) 0.8425(3) 0.0165(2)
H3 H -0.3174 0.8834 -0.0798
H4 H -0.4040 0.8472 0.0508
C3 C -0.1674(3) 0.6826(2) 0.0477(2)
H5 H -0.0817 0.6709 -0.0150
H6 H -0.2180 0.6139 0.0403
C4 C -0.2955(3) 0.8435(3) 0.3160(2)
H7 H -0.2580 0.8430 0.4056
H8 H -0.3922 0.9369 0.2831
C5 C -0.3422(3) 0.7143(3) 0.3211(3)
H9 H -0.4207 0.7341 0.2454
H10 H -0.3921 0.6944 0.4040
C6 C -0.1792(3) 0.5842(3) 0.3147(2)
H11 H -0.1993 0.5025 0.2925
H12 H -0.1122 0.5483 0.4002
C7 C -0.0363(2) 0.8730(2) 0.28383(19)
C8 C -0.0274(3) 1.0078(2) 0.2371(2)
H13 H -0.1000 1.0768 0.1650
C9 C 0.0891(4) 1.0407(3) 0.2969(3)
H14 H 0.0958 1.1319 0.2643
C10 C 0.1945(3) 0.9421(3) 0.4031(3)
H15 H 0.2745 0.9647 0.4420
C11 C 0.1824(3) 0.8094(3) 0.4524(2)
H16 H 0.2530 0.7421 0.5262
C12 C 0.0666(3) 0.7752(2) 0.3935(2)
H17 H 0.0579 0.6852 0.4281
C13 C 0.1149(2) 0.5641(2) 0.20937(18)
F1 F 0.12465(19) 0.34069(13) 0.34817(14)
C14 C 0.2034(3) 0.4191(2) 0.2786(2)
F2 F 0.4483(2) 0.20091(16) 0.34841(16)
C15 C 0.3729(3) 0.3425(2) 0.2805(2)
F3 F 0.62897(17) 0.3387(2) 0.21327(17)
C16 C 0.4643(3) 0.4111(3) 0.2126(2)
F4 F 0.47079(17) 0.62443(18) 0.07305(15)
C17 C 0.3838(3) 0.5545(3) 0.1418(2)
F5 F 0.14534(16) 0.76474(13) 0.06465(12)
C18 C 0.2150(2) 0.6252(2) 0.14023(19)
loop_
_geom_bond_atom_site_label_1
_geom_bond_atom_site_label_2
_geom_bond_site_symmetry_1
_geom_bond_site_symmetry_2
N1 C1 1_555 1_555
B1 C3 1_555 1_555
C1 H1 1_555 1_555
H2 C1 1_555 1_555
C2 C1 1_555 1_555
H3 C2 1_555 1_555
H4 C2 1_555 1_555
C3 C2 1_555 1_555
H5 C3 1_555 1_555
H6 C3 1_555 1_555
C4 N1 1_555 1_555
H7 C4 1_555 1_555
H8 C4 1_555 1_555
C5 C4 1_555 1_555
H9 C5 1_555 1_555
H10 C5 1_555 1_555
C6 B1 1_555 1_555
H11 C6 1_555 1_555
H12 C6 1_555 1_555
C7 N1 1_555 1_555
C8 C7 1_555 1_555
H13 C8 1_555 1_555
C9 C8 1_555 1_555
H14 C9 1_555 1_555
C10 C9 1_555 1_555
H15 C10 1_555 1_555
C11 C10 1_555 1_555
H16 C11 1_555 1_555
C12 C7 1_555 1_555
H17 C12 1_555 1_555
C13 B1 1_555 1_555
F1 C14 1_555 1_555
C14 C13 1_555 1_555
F2 C15 1_555 1_555
C15 C14 1_555 1_555
F3 C16 1_555 1_555
C16 C15 1_555 1_555
F4 C17 1_555 1_555
C17 C16 1_555 1_555
F5 C18 1_555 1_555
C18 C13 1_555 1_555
C5 C6 1_555 1_555
C11 C12 1_555 1_555
C17 C18 1_555 1_555

#END
