
#######################################################################
#
#                 Cambridge Crystallographic Data Centre
#                                CCDC 
#
#######################################################################
#
# If this CIF has been generated from an entry in the Cambridge 
# Structural Database, then it will include bibliographic, chemical, 
# crystal, experimental, refinement or atomic coordinate data resulting 
# from the CCDC's data processing and validation procedures.
#
#######################################################################

data_OMOXIZ
_chemical_formula_moiety         'C15 H11 B1 F5 N1'
_chemical_name_systematic        
2-(pentafluorophenyl)-1-phenyl-1,2-azaborolidine
_symmetry_cell_setting           monoclinic
_symmetry_space_group_name_H-M   'P 21/c'
_symmetry_Int_Tables_number      14
_space_group_name_Hall           '-P 2ybc'
loop_
_symmetry_equiv_pos_site_id
_symmetry_equiv_pos_as_xyz
1 x,y,z
2 -x,1/2+y,1/2-z
3 -x,-y,-z
4 x,1/2-y,1/2+z
_cell_length_a                   5.5956(3)
_cell_length_b                   13.3589(7)
_cell_length_c                   18.6927(11)
_cell_angle_alpha                90
_cell_angle_beta                 94.719(2)
_cell_angle_gamma                90
_cell_volume                     1392.56
_exptl_crystal_colour            colorless
_exptl_crystal_description       prism
_cell_formula_units_Z            4
loop_
_atom_site_label
_atom_site_type_symbol
_atom_site_fract_x
_atom_site_fract_y
_atom_site_fract_z
B1 B 0.6303(3) 0.59888(14) 0.80524(9)
C1 C 0.7784(3) 0.60007(13) 0.92808(8)
H1 H 0.9478 0.578 0.9334
H2 H 0.707 0.5906 0.9743
N1 N 0.6408(2) 0.54466(10) 0.86938(6)
C2 C 0.7586(4) 0.70874(14) 0.90368(9)
H3 H 0.9013 0.7473 0.9225
H4 H 0.6137 0.7404 0.9207
C3 C 0.7423(4) 0.70523(14) 0.82071(9)
H5 H 0.9026 0.711 0.8023
H6 H 0.637 0.7589 0.7994
C4 C 0.5588(3) 0.44617(11) 0.88263(7)
C5 C 0.6951(3) 0.38061(13) 0.92730(8)
H7 H 0.8466 0.4012 0.949
C6 C 0.6098(3) 0.28526(13) 0.94013(9)
H8 H 0.7032 0.2411 0.9709
C7 C 0.3904(3) 0.25391(13) 0.90868(9)
H9 H 0.3335 0.1884 0.9174
C8 C 0.2540(3) 0.31887(13) 0.86432(8)
H10 H 0.1036 0.2975 0.8423
C9 C 0.3355(3) 0.41497(12) 0.85184(8)
H11 H 0.2391 0.4596 0.8223
C10 C 0.5400(3) 0.55220(11) 0.72945(7)
C11 C 0.6708(3) 0.48050(12) 0.69656(8)
F1 F 0.87765(17) 0.44643(8) 0.73027(5)
C12 C 0.6032(3) 0.44168(12) 0.62942(8)
F2 F 0.74098(19) 0.37408(9) 0.59905(6)
C13 C 0.3935(3) 0.47394(12) 0.59319(8)
F3 F 0.32338(19) 0.43688(8) 0.52792(5)
C14 C 0.2561(3) 0.54456(13) 0.62389(9)
F4 F 0.05093(19) 0.57625(9) 0.58850(6)
C15 C 0.3325(3) 0.58312(12) 0.69033(8)
F5 F 0.1943(2) 0.65347(9) 0.71816(6)
loop_
_geom_bond_atom_site_label_1
_geom_bond_atom_site_label_2
_geom_bond_site_symmetry_1
_geom_bond_site_symmetry_2
B1 N1 1_555 1_555
C1 H1 1_555 1_555
H2 C1 1_555 1_555
N1 C1 1_555 1_555
C2 C1 1_555 1_555
H3 C2 1_555 1_555
H4 C2 1_555 1_555
C3 B1 1_555 1_555
H5 C3 1_555 1_555
H6 C3 1_555 1_555
C4 N1 1_555 1_555
C5 C4 1_555 1_555
H7 C5 1_555 1_555
C6 C5 1_555 1_555
H8 C6 1_555 1_555
C7 C6 1_555 1_555
H9 C7 1_555 1_555
C8 C7 1_555 1_555
H10 C8 1_555 1_555
C9 C4 1_555 1_555
H11 C9 1_555 1_555
C10 B1 1_555 1_555
C11 C10 1_555 1_555
F1 C11 1_555 1_555
C12 C11 1_555 1_555
F2 C12 1_555 1_555
C13 C12 1_555 1_555
F3 C13 1_555 1_555
C14 C13 1_555 1_555
F4 C14 1_555 1_555
C15 C10 1_555 1_555
F5 C15 1_555 1_555
C2 C3 1_555 1_555
C8 C9 1_555 1_555
C14 C15 1_555 1_555

#END
