
#######################################################################
#
#                 Cambridge Crystallographic Data Centre
#                                CCDC 
#
#######################################################################
#
# If this CIF has been generated from an entry in the Cambridge 
# Structural Database, then it will include bibliographic, chemical, 
# crystal, experimental, refinement or atomic coordinate data resulting 
# from the CCDC's data processing and validation procedures.
#
#######################################################################

data_OMOXAR
_chemical_formula_moiety         'C18 H17 B1 F5 N1'
_chemical_name_systematic        
3-methyl-4-(pentafluorophenyl)-1-phenyl-1,4-azaborepane
_symmetry_cell_setting           monoclinic
_symmetry_space_group_name_H-M   'P 21/c'
_symmetry_Int_Tables_number      14
_space_group_name_Hall           '-P 2ybc'
loop_
_symmetry_equiv_pos_site_id
_symmetry_equiv_pos_as_xyz
1 x,y,z
2 -x,1/2+y,1/2-z
3 -x,-y,-z
4 x,1/2-y,1/2+z
_cell_length_a                   7.4931(3)
_cell_length_b                   17.1565(6)
_cell_length_c                   12.7783(5)
_cell_angle_alpha                90
_cell_angle_beta                 102.2670(10)
_cell_angle_gamma                90
_cell_volume                     1605.21
_exptl_crystal_colour            colorless
_exptl_crystal_description       prism
_cell_formula_units_Z            4
loop_
_atom_site_label
_atom_site_type_symbol
_atom_site_fract_x
_atom_site_fract_y
_atom_site_fract_z
B1 B 0.3830(2) 0.56003(9) 0.70421(12)
C1 C 0.5797(2) 0.60480(8) 0.88741(11)
H1 H 0.6972 0.6306 0.9184
H2 H 0.543 0.5727 0.9437
N1 N 0.59821(16) 0.55508(6) 0.79430(9)
C2 C 0.4336(2) 0.66540(8) 0.84528(12)
H3 H 0.4836 0.7073 0.8067
H4 H 0.3864 0.6889 0.9048
C3 C 0.2815(2) 0.62066(8) 0.76877(11)
H5 H 0.2041 0.6571 0.7185
H6 H 0.2034 0.5924 0.8096
C4 C 0.6702(2) 0.60002(8) 0.70798(11)
H7 H 0.776 0.5739 0.6882
H8 H 0.702 0.6546 0.7292
C5 C 0.4963(2) 0.59437(8) 0.61867(11)
H9 H 0.512 0.5526 0.5669
C6 C 0.4359(2) 0.66956(9) 0.55816(13)
H10 H 0.4236 0.7108 0.6092
H11 H 0.3179 0.6613 0.5089
H12 H 0.5271 0.685 0.5174
C7 C 0.69411(19) 0.48145(8) 0.82233(11)
C8 C 0.7764(2) 0.46300(8) 0.92746(12)
H13 H 0.7774 0.4999 0.983
C9 C 0.8573(2) 0.39019(9) 0.95095(12)
H14 H 0.9131 0.3776 1.0229
C10 C 0.8575(2) 0.33597(9) 0.87082(13)
H15 H 0.91 0.2859 0.8876
C11 C 0.7800(2) 0.35554(8) 0.76555(12)
H16 H 0.782 0.319 0.7099
C12 C 0.69993(19) 0.42789(8) 0.74085(12)
H17 H 0.649 0.4411 0.6685
C13 C 0.28674(19) 0.47584(8) 0.68001(11)
C14 C 0.28142(19) 0.42069(8) 0.75861(11)
F1 F 0.34736(12) 0.43948(5) 0.86262(6)
C15 C 0.2166(2) 0.34574(8) 0.73872(12)
F2 F 0.22463(12) 0.29406(5) 0.81863(7)
C16 C 0.1427(2) 0.32411(8) 0.63471(12)
F3 F 0.07394(13) 0.25193(5) 0.61304(8)
C17 C 0.1355(2) 0.37746(9) 0.55326(11)
F4 F 0.06014(13) 0.35704(5) 0.45188(7)
C18 C 0.20722(18) 0.45123(8) 0.57706(11)
F5 F 0.19446(11) 0.50090(5) 0.49355(6)
loop_
_geom_bond_atom_site_label_1
_geom_bond_atom_site_label_2
_geom_bond_site_symmetry_1
_geom_bond_site_symmetry_2
B1 C3 1_555 1_555
C1 H1 1_555 1_555
H2 C1 1_555 1_555
N1 C1 1_555 1_555
C2 C1 1_555 1_555
H3 C2 1_555 1_555
H4 C2 1_555 1_555
C3 C2 1_555 1_555
H5 C3 1_555 1_555
H6 C3 1_555 1_555
C4 N1 1_555 1_555
H7 C4 1_555 1_555
H8 C4 1_555 1_555
C5 B1 1_555 1_555
H9 C5 1_555 1_555
C6 C5 1_555 1_555
H10 C6 1_555 1_555
H11 C6 1_555 1_555
H12 C6 1_555 1_555
C7 N1 1_555 1_555
C8 C7 1_555 1_555
H13 C8 1_555 1_555
C9 C8 1_555 1_555
H14 C9 1_555 1_555
C10 C9 1_555 1_555
H15 C10 1_555 1_555
C11 C10 1_555 1_555
H16 C11 1_555 1_555
C12 C7 1_555 1_555
H17 C12 1_555 1_555
C13 B1 1_555 1_555
C14 C13 1_555 1_555
F1 C14 1_555 1_555
C15 C14 1_555 1_555
F2 C15 1_555 1_555
C16 C15 1_555 1_555
F3 C16 1_555 1_555
C17 C16 1_555 1_555
F4 C17 1_555 1_555
C18 C13 1_555 1_555
F5 C18 1_555 1_555
C4 C5 1_555 1_555
C11 C12 1_555 1_555
C17 C18 1_555 1_555

#END
