
#######################################################################
#
#                 Cambridge Crystallographic Data Centre
#                                CCDC 
#
#######################################################################
#
# If this CIF has been generated from an entry in the Cambridge 
# Structural Database, then it will include bibliographic, chemical, 
# crystal, experimental, refinement or atomic coordinate data resulting 
# from the CCDC's data processing and validation procedures.
#
#######################################################################

data_OMOXEV
_chemical_formula_moiety         'C18 H17 B1 F5 N1,0.5(C1 H2 Cl2)'
_chemical_name_systematic        
'2-ethyl-4-methyl-3-(pentafluorophenyl)-1-phenyl-1,3-azaborolidine dichloromethane solvate'
_symmetry_cell_setting           monoclinic
_symmetry_space_group_name_H-M   'P 21/n'
_symmetry_Int_Tables_number      14
_space_group_name_Hall           '-P 2yn'
loop_
_symmetry_equiv_pos_site_id
_symmetry_equiv_pos_as_xyz
1 x,y,z
2 1/2-x,1/2+y,1/2-z
3 -x,-y,-z
4 1/2+x,1/2-y,1/2+z
_cell_length_a                   10.0549(3)
_cell_length_b                   14.1726(4)
_cell_length_c                   12.6270(3)
_cell_angle_alpha                90
_cell_angle_beta                 105.1120(10)
_cell_angle_gamma                90
_cell_volume                     1737.17
_exptl_crystal_colour            colorless
_exptl_crystal_description       prism
_cell_formula_units_Z            4
loop_
_atom_site_label
_atom_site_type_symbol
_atom_site_fract_x
_atom_site_fract_y
_atom_site_fract_z
C1 C 0.5634(2) 0.61036(14) 0.61348(15)
H1 H 0.6105 0.5763 0.6814
H2 H 0.5466 0.676 0.6334
N1 N 0.42658(18) 0.56225(11) 0.55973(12)
C2 C 0.6553(2) 0.61038(14) 0.53260(16)
H3 H 0.7374 0.5695 0.563
C3 C 0.7050(3) 0.71216(15) 0.52212(18)
H4 H 0.6255 0.7525 0.4902
H5 H 0.768 0.7126 0.4746
H6 H 0.7529 0.736 0.5949
C4 C 0.4051(2) 0.58700(14) 0.43714(15)
H7 H 0.3329 0.5453 0.3904
C5 C 0.3681(2) 0.69241(14) 0.41154(16)
H8 H 0.3784 0.726 0.4819
H9 H 0.436 0.7196 0.3758
C6 C 0.2235(3) 0.71238(17) 0.33844(18)
H10 H 0.2059 0.672 0.2733
H11 H 0.217 0.7788 0.3159
H12 H 0.1551 0.6992 0.3794
C7 C 0.3150(2) 0.59608(14) 0.60651(16)
C8 C 0.3452(3) 0.62997(14) 0.71450(17)
H13 H 0.4381 0.6343 0.757
C9 C 0.2392(3) 0.65706(16) 0.75883(18)
H14 H 0.2601 0.6792 0.8323
C10 C 0.1039(3) 0.65254(18) 0.6986(2)
H15 H 0.0321 0.6726 0.7297
C11 C 0.0735(3) 0.61845(18) 0.5922(2)
H16 H -0.0196 0.6145 0.5501
C12 C 0.1791(2) 0.58991(15) 0.54691(18)
H17 H 0.1574 0.5659 0.4742
B1 B 0.5567(3) 0.55897(15) 0.42307(18)
C13 C 0.5912(12) 0.5814(14) 0.3042(6)
C14 C 0.7209(12) 0.5990(12) 0.2887(7)
F1 F 0.8338(12) 0.5990(9) 0.3742(9)
C15 C 0.7475(13) 0.6161(9) 0.1880(7)
F2 F 0.8744(12) 0.6350(13) 0.1794(11)
C16 C 0.6418(15) 0.6151(8) 0.0955(7)
F3 F 0.6609(15) 0.6294(13) -0.0051(8)
C17 C 0.5096(13) 0.5979(10) 0.1031(6)
F4 F 0.4013(12) 0.5938(10) 0.0134(7)
C18 C 0.4897(12) 0.5818(12) 0.2062(7)
F5 F 0.3562(12) 0.5643(10) 0.2051(10)
C19? C 0.5648(19) 0.585(3) 0.2980(11)
C20? C 0.691(2) 0.602(3) 0.2775(14)
F6? F 0.808(2) 0.6059(19) 0.3605(17)
C21? C 0.711(2) 0.617(2) 0.1746(13)
F7? F 0.841(2) 0.631(3) 0.167(2)
C22? C 0.600(2) 0.6101(16) 0.0847(12)
F8? F 0.625(3) 0.626(2) -0.0137(13)
C23? C 0.472(2) 0.592(2) 0.0996(12)
F9? F 0.364(2) 0.588(2) 0.0114(15)
C24? C 0.457(2) 0.5803(19) 0.2046(10)
F10? F 0.329(2) 0.558(2) 0.2113(19)
loop_
_geom_bond_atom_site_label_1
_geom_bond_atom_site_label_2
_geom_bond_site_symmetry_1
_geom_bond_site_symmetry_2
C1 H1 1_555 1_555
H2 C1 1_555 1_555
N1 C1 1_555 1_555
C2 C1 1_555 1_555
H3 C2 1_555 1_555
C3 C2 1_555 1_555
H4 C3 1_555 1_555
H5 C3 1_555 1_555
H6 C3 1_555 1_555
C4 N1 1_555 1_555
H7 C4 1_555 1_555
C5 C4 1_555 1_555
H8 C5 1_555 1_555
H9 C5 1_555 1_555
C6 C5 1_555 1_555
H10 C6 1_555 1_555
H11 C6 1_555 1_555
H12 C6 1_555 1_555
C7 N1 1_555 1_555
C8 C7 1_555 1_555
H13 C8 1_555 1_555
C9 C8 1_555 1_555
H14 C9 1_555 1_555
C10 C9 1_555 1_555
H15 C10 1_555 1_555
C11 C10 1_555 1_555
H16 C11 1_555 1_555
C12 C7 1_555 1_555
H17 C12 1_555 1_555
B1 C2 1_555 1_555
C13 B1 1_555 1_555
C14 C13 1_555 1_555
F1 C14 1_555 1_555
C15 C14 1_555 1_555
F2 C15 1_555 1_555
C16 C15 1_555 1_555
F3 C16 1_555 1_555
C17 C16 1_555 1_555
F4 C17 1_555 1_555
C18 C13 1_555 1_555
F5 C18 1_555 1_555
C4 B1 1_555 1_555
C11 C12 1_555 1_555
C17 C18 1_555 1_555

#END
