
#######################################################################
#
#                 Cambridge Crystallographic Data Centre
#                                CCDC 
#
#######################################################################
#
# If this CIF has been generated from an entry in the Cambridge 
# Structural Database, then it will include bibliographic, chemical, 
# crystal, experimental, refinement or atomic coordinate data resulting 
# from the CCDC's data processing and validation procedures.
#
#######################################################################

data_OMOZUN
_chemical_formula_moiety         'C80 H64 N4 S4,4(C1 H1 Cl3)'
_chemical_name_systematic        
'6,15,25,34-tetramesityl-46,47,50,51-tetrathia-45,48,49,52-tetraazaundecacyclo[18.18.4.2^39,42^.1^2,5^.1^7,10^.1^11,14^.1^16,19^.1^21,24^.1^26,29^.1^30,33^.1^35,38^]dopentaconta-1,3,5(52),6,8,10,12,14,16(49),17,19,21(48),22,24,26,28,30,32,34,36,38(45),39,41,43-tetracosaene chloroform solvate'
_symmetry_cell_setting           monoclinic
_symmetry_space_group_name_H-M   'P 21/c'
_symmetry_Int_Tables_number      14
_space_group_name_Hall           '-P 2ybc'
loop_
_symmetry_equiv_pos_site_id
_symmetry_equiv_pos_as_xyz
1 x,y,z
2 -x,1/2+y,1/2-z
3 -x,-y,-z
4 x,1/2-y,1/2+z
_cell_length_a                   16.076(5)
_cell_length_b                   18.590(5)
_cell_length_c                   13.574(5)
_cell_angle_alpha                90
_cell_angle_beta                 101.020(5)
_cell_angle_gamma                90
_cell_volume                     3981.83
_exptl_crystal_description       needle
_cell_formula_units_Z            2
loop_
_atom_site_label
_atom_site_type_symbol
_atom_site_fract_x
_atom_site_fract_y
_atom_site_fract_z
C1 C 0.3739(4) 0.2443(4) 0.0227(5)
H1 H 0.3349 0.2177 0.0541
H2 H 0.3896 0.2158 -0.0298
H3 H 0.3475 0.2880 -0.0052
C2 C 0.4518(3) 0.2621(3) 0.0994(4)
C3 C 0.4481(3) 0.3117(3) 0.1744(4)
H4 H 0.3964 0.3329 0.1783
C4 C 0.5200(3) 0.3306(2) 0.2441(4)
C5 C 0.5129(3) 0.3857(3) 0.3237(4)
H5 H 0.5394 0.4297 0.3092
H6 H 0.5405 0.3679 0.3881
H7 H 0.4542 0.3945 0.3245
C6 C 0.5978(2) 0.2975(2) 0.2380(3)
C7 C 0.6024(3) 0.2449(2) 0.1661(3)
C8 C 0.6822(3) 0.2061(3) 0.1616(4)
H8 H 0.7294 0.2382 0.1800
H9 H 0.6804 0.1888 0.0945
H10 H 0.6884 0.1662 0.2072
C9 C 0.5288(4) 0.2286(3) 0.0973(4)
H11 H 0.5312 0.1942 0.0482
C10 C 0.6764(2) 0.3222(2) 0.3068(3)
C11 C 0.7106(2) 0.3877(2) 0.2855(3)
C12 C 0.6859(2) 0.4309(2) 0.1956(3)
H12 H 0.6437 0.4201 0.1406
C13 C 0.7359(2) 0.4894(2) 0.2075(3)
H13 H 0.7357 0.5266 0.1617
C14 C 0.7910(2) 0.4831(2) 0.3071(3)
C15 C 0.8507(2) 0.5362(2) 0.3538(3)
C16 C 0.9252(2) 0.5185(2) 0.4273(3)
C17 C 0.9713(2) 0.5702(2) 0.4925(3)
H14 H 0.9528 0.6177 0.4880
C18 C 0.9576(2) 0.4470(2) 0.4381(3)
H15 H 0.9299 0.4110 0.3969
C19 C 0.8282(2) 0.6092(2) 0.3240(3)
C20 C 0.7418(2) 0.6346(2) 0.2852(3)
H16 H 0.6922 0.6076 0.2771
C21 C 0.7483(3) 0.7052(2) 0.2635(3)
H17 H 0.7043 0.7360 0.2365
C22 C 0.8367(2) 0.7231(2) 0.2902(3)
C23 C 0.8732(3) 0.7896(2) 0.2799(3)
C24 C 0.8198(2) 0.8468(2) 0.2214(3)
C25 C 0.8062(3) 0.8429(2) 0.1170(3)
C26 C 0.8438(3) 0.7825(3) 0.0657(4)
H18 H 0.8202 0.7375 0.0816
H19 H 0.9042 0.7816 0.0883
H20 H 0.8311 0.7898 -0.0057
C27 C 0.7570(3) 0.8970(2) 0.0630(3)
H21 H 0.7494 0.8962 -0.0067
C28 C 0.7201(3) 0.9503(2) 0.1066(3)
C29 C 0.6669(3) 1.0074(3) 0.0448(4)
H22 H 0.6274 0.9849 -0.0083
H23 H 0.7030 1.0393 0.0166
H24 H 0.6364 1.0342 0.0868
C30 C 0.7340(3) 0.9527(2) 0.2101(3)
H25 H 0.7088 0.9891 0.2411
C31 C 0.7850(3) 0.9019(2) 0.2699(3)
C32 C 0.8012(3) 0.9075(3) 0.3820(4)
H26 H 0.8581 0.8921 0.4088
H27 H 0.7619 0.8774 0.4080
H28 H 0.7941 0.9565 0.4011
C33 C 0.9594(3) 0.8046(2) 0.3195(3)
C34 C 1.0049(3) 0.8665(2) 0.3037(3)
H29 H 0.9815 0.9042 0.2625
C35 C 1.0882(3) 0.8663(2) 0.3550(3)
H30 H 1.1266 0.9030 0.3508
C36 C 1.1079(2) 0.8051(2) 0.4136(3)
C37 C 1.1834(3) 0.7858(2) 0.4815(3)
C38 C 1.2576(3) 0.8251(2) 0.5139(3)
H31 H 1.2677 0.8703 0.4893
C39 C 1.3143(3) 0.7892(2) 0.5867(3)
H32 H 1.3670 0.8079 0.6154
C40 C 0.7144(2) 0.2782(2) 0.3863(3)
N1 N 0.7764(2) 0.42051(17) 0.3503(3)
N2 N 0.8833(2) 0.66360(17) 0.3277(3)
S1 S 1.02281(6) 0.74737(5) 0.40181(8)
S2 S 1.18725(6) 0.70287(5) 0.53974(8)
C1B C 1.6261(4) 0.7557(4) 0.9773(5)
H1B H 1.6651 0.7823 0.9459
H2B H 1.6104 0.7842 1.0298
H3B H 1.6525 0.7120 1.0052
C2B C 1.5482(3) 0.7379(3) 0.9006(4)
C3B C 1.5519(3) 0.6883(3) 0.8256(4)
H4B H 1.6036 0.6671 0.8217
C4B C 1.4800(3) 0.6694(2) 0.7559(4)
C5B C 1.4871(3) 0.6143(3) 0.6763(4)
H5B H 1.4606 0.5703 0.6908
H6B H 1.4595 0.6321 0.6119
H7B H 1.5458 0.6055 0.6755
C6B C 1.4022(2) 0.7025(2) 0.7620(3)
C7B C 1.3976(3) 0.7551(2) 0.8339(3)
C8B C 1.3178(3) 0.7939(3) 0.8384(4)
H8B H 1.2706 0.7618 0.8200
H9B H 1.3196 0.8112 0.9055
H10B H 1.3116 0.8338 0.7928
C9B C 1.4712(4) 0.7714(3) 0.9027(4)
H11B H 1.4688 0.8058 0.9518
C10B C 1.3236(2) 0.6778(2) 0.6932(3)
C11B C 1.2894(2) 0.6123(2) 0.7145(3)
C12B C 1.3141(2) 0.5691(2) 0.8044(3)
H12B H 1.3563 0.5799 0.8594
C13B C 1.2641(2) 0.5106(2) 0.7925(3)
H13B H 1.2643 0.4734 0.8383
C14B C 1.2090(2) 0.5169(2) 0.6929(3)
C15B C 1.1493(2) 0.4638(2) 0.6462(3)
C16B C 1.0748(2) 0.4815(2) 0.5727(3)
C17B C 1.0287(2) 0.4298(2) 0.5075(3)
H14B H 1.0472 0.3823 0.5120
C18B C 1.0424(2) 0.5530(2) 0.5619(3)
H15B H 1.0701 0.5890 0.6031
C19B C 1.1718(2) 0.3908(2) 0.6760(3)
C20B C 1.2582(2) 0.3654(2) 0.7148(3)
H16B H 1.3078 0.3924 0.7229
C21B C 1.2517(3) 0.2948(2) 0.7365(3)
H17B H 1.2957 0.2640 0.7635
C22B C 1.1633(2) 0.2769(2) 0.7098(3)
C23B C 1.1268(3) 0.2104(2) 0.7201(3)
C24B C 1.1802(2) 0.1532(2) 0.7786(3)
C25B C 1.1938(3) 0.1571(2) 0.8830(3)
C26B C 1.1562(3) 0.2175(3) 0.9343(4)
H18B H 1.1798 0.2625 0.9184
H19B H 1.0958 0.2184 0.9117
H20B H 1.1689 0.2102 1.0057
C27B C 1.2430(3) 0.1030(2) 0.9370(3)
H21B H 1.2506 0.1038 1.0067
C28B C 1.2799(3) 0.0497(2) 0.8934(3)
C29B C 1.3331(3) -0.0074(3) 0.9552(4)
H22B H 1.3726 0.0151 1.0083
H23B H 1.2970 -0.0393 0.9834
H24B H 1.3636 -0.0342 0.9132
C30B C 1.2660(3) 0.0473(2) 0.7899(3)
H25B H 1.2912 0.0109 0.7589
C31B C 1.2150(3) 0.0981(2) 0.7301(3)
C32B C 1.1988(3) 0.0925(3) 0.6180(4)
H26B H 1.1419 0.1079 0.5912
H27B H 1.2381 0.1226 0.5920
H28B H 1.2059 0.0435 0.5989
C33B C 1.0406(3) 0.1954(2) 0.6805(3)
C34B C 0.9951(3) 0.1335(2) 0.6963(3)
H29B H 1.0185 0.0958 0.7375
C35B C 0.9118(3) 0.1337(2) 0.6450(3)
H30B H 0.8734 0.0970 0.6492
C36B C 0.8921(2) 0.1949(2) 0.5864(3)
C37B C 0.8166(3) 0.2142(2) 0.5185(3)
C38B C 0.7424(3) 0.1749(2) 0.4861(3)
H31B H 0.7323 0.1297 0.5107
C39B C 0.6857(3) 0.2108(2) 0.4133(3)
H32B H 0.6330 0.1921 0.3846
C40B C 1.2856(2) 0.7218(2) 0.6137(3)
N1B N 1.2236(2) 0.57949(17) 0.6497(3)
N2B N 1.1167(2) 0.33640(17) 0.6723(3)
S1B S 0.97719(6) 0.25263(5) 0.59819(8)
S2B S 0.81275(6) 0.29713(5) 0.46026(8)
C41 C 0.5082(4) 0.0491(3) 0.3608(5)
H33 H 0.4664 0.0101 0.3521
Cl1 Cl 0.60928(12) 0.01294(9) 0.39776(15)
Cl2 Cl 0.50031(10) 0.09578(10) 0.24785(13)
Cl3 Cl 0.48867(12) 0.10700(11) 0.45570(15)
C42 C 0.9709(3) 0.3875(3) 0.7832(4)
H34 H 1.0081 0.3696 0.7393
Cl4 Cl 0.92196(9) 0.31294(8) 0.82794(12)
Cl5 Cl 0.89543(10) 0.44321(8) 0.71223(14)
Cl6 Cl 1.03322(14) 0.43493(12) 0.88123(15)
loop_
_geom_bond_atom_site_label_1
_geom_bond_atom_site_label_2
_geom_bond_site_symmetry_1
_geom_bond_site_symmetry_2
C1 H1 1_555 1_555
H2 C1 1_555 1_555
H3 C1 1_555 1_555
C2 C1 1_555 1_555
C3 C2 1_555 1_555
H4 C3 1_555 1_555
C4 C3 1_555 1_555
C5 C4 1_555 1_555
H5 C5 1_555 1_555
H6 C5 1_555 1_555
H7 C5 1_555 1_555
C6 C4 1_555 1_555
C7 C6 1_555 1_555
C8 C7 1_555 1_555
H8 C8 1_555 1_555
H9 C8 1_555 1_555
H10 C8 1_555 1_555
C9 C2 1_555 1_555
H11 C9 1_555 1_555
C10 C6 1_555 1_555
C11 C10 1_555 1_555
C12 C11 1_555 1_555
H12 C12 1_555 1_555
C13 C12 1_555 1_555
H13 C13 1_555 1_555
C14 C13 1_555 1_555
C15 C14 1_555 1_555
C16 C15 1_555 1_555
C17 C16 1_555 1_555
H14 C17 1_555 1_555
C18 C16 1_555 1_555
H15 C18 1_555 1_555
C19 C15 1_555 1_555
C20 C19 1_555 1_555
H16 C20 1_555 1_555
C21 C20 1_555 1_555
H17 C21 1_555 1_555
C22 C21 1_555 1_555
C23 C22 1_555 1_555
C24 C23 1_555 1_555
C25 C24 1_555 1_555
C26 C25 1_555 1_555
H18 C26 1_555 1_555
H19 C26 1_555 1_555
H20 C26 1_555 1_555
C27 C25 1_555 1_555
H21 C27 1_555 1_555
C28 C27 1_555 1_555
C29 C28 1_555 1_555
H22 C29 1_555 1_555
H23 C29 1_555 1_555
H24 C29 1_555 1_555
C30 C28 1_555 1_555
H25 C30 1_555 1_555
C31 C24 1_555 1_555
C32 C31 1_555 1_555
H26 C32 1_555 1_555
H27 C32 1_555 1_555
H28 C32 1_555 1_555
C33 C23 1_555 1_555
C34 C33 1_555 1_555
H29 C34 1_555 1_555
C35 C34 1_555 1_555
H30 C35 1_555 1_555
C36 C35 1_555 1_555
C37 C36 1_555 1_555
C38 C37 1_555 1_555
H31 C38 1_555 1_555
C39 C38 1_555 1_555
H32 C39 1_555 1_555
C40 C10 1_555 1_555
N1 C11 1_555 1_555
N2 C19 1_555 1_555
S1 C33 1_555 1_555
S2 C37 1_555 1_555
C41 H33 1_555 1_555
Cl1 C41 1_555 1_555
Cl2 C41 1_555 1_555
Cl3 C41 1_555 1_555
C42 H34 1_555 1_555
Cl4 C42 1_555 1_555
Cl5 C42 1_555 1_555
Cl6 C42 1_555 1_555
C1B H1B 1_555 1_555
H2B C1B 1_555 1_555
H3B C1B 1_555 1_555
C2B C1B 1_555 1_555
C3B C2B 1_555 1_555
H4B C3B 1_555 1_555
C4B C3B 1_555 1_555
C5B C4B 1_555 1_555
H5B C5B 1_555 1_555
H6B C5B 1_555 1_555
H7B C5B 1_555 1_555
C6B C4B 1_555 1_555
C7B C6B 1_555 1_555
C8B C7B 1_555 1_555
H8B C8B 1_555 1_555
H9B C8B 1_555 1_555
H10B C8B 1_555 1_555
C9B C2B 1_555 1_555
H11B C9B 1_555 1_555
C10B C6B 1_555 1_555
C11B C10B 1_555 1_555
C12B C11B 1_555 1_555
H12B C12B 1_555 1_555
C13B C12B 1_555 1_555
H13B C13B 1_555 1_555
C14B C13B 1_555 1_555
C15B C14B 1_555 1_555
C16B C15B 1_555 1_555
C17B C18 1_555 1_555
H14B C17B 1_555 1_555
C18B C17 1_555 1_555
H15B C18B 1_555 1_555
C19B C15B 1_555 1_555
C20B C19B 1_555 1_555
H16B C20B 1_555 1_555
C21B C20B 1_555 1_555
H17B C21B 1_555 1_555
C22B C21B 1_555 1_555
C23B C22B 1_555 1_555
C24B C23B 1_555 1_555
C25B C24B 1_555 1_555
C26B C25B 1_555 1_555
H18B C26B 1_555 1_555
H19B C26B 1_555 1_555
H20B C26B 1_555 1_555
C27B C25B 1_555 1_555
H21B C27B 1_555 1_555
C28B C27B 1_555 1_555
C29B C28B 1_555 1_555
H22B C29B 1_555 1_555
H23B C29B 1_555 1_555
H24B C29B 1_555 1_555
C30B C28B 1_555 1_555
H25B C30B 1_555 1_555
C31B C24B 1_555 1_555
C32B C31B 1_555 1_555
H26B C32B 1_555 1_555
H27B C32B 1_555 1_555
H28B C32B 1_555 1_555
C33B C23B 1_555 1_555
C34B C33B 1_555 1_555
H29B C34B 1_555 1_555
C35B C34B 1_555 1_555
H30B C35B 1_555 1_555
C36B C35B 1_555 1_555
C37B C36B 1_555 1_555
C38B C37B 1_555 1_555
H31B C38B 1_555 1_555
C39B C40 1_555 1_555
H32B C39B 1_555 1_555
C40B C39 1_555 1_555
N1B C11B 1_555 1_555
N2B C19B 1_555 1_555
S1B C33B 1_555 1_555
S2B C40 1_555 1_555
C7 C9 1_555 1_555
C14 N1 1_555 1_555
C22 N2 1_555 1_555
C30 C31 1_555 1_555
C36 S1 1_555 1_555
S2 C40B 1_555 1_555
C7B C9B 1_555 1_555
C10B C40B 1_555 1_555
C14B N1B 1_555 1_555
C16B C17B 1_555 1_555
C16B C18B 1_555 1_555
C22B N2B 1_555 1_555
C30B C31B 1_555 1_555
C36B S1B 1_555 1_555
C37B S2B 1_555 1_555
C38B C39B 1_555 1_555

#END
