
#######################################################################
#
#                 Cambridge Crystallographic Data Centre
#                                CCDC 
#
#######################################################################
#
# If this CIF has been generated from an entry in the Cambridge 
# Structural Database, then it will include bibliographic, chemical, 
# crystal, experimental, refinement or atomic coordinate data resulting 
# from the CCDC's data processing and validation procedures.
#
#######################################################################

data_OMSSIO01
_chemical_formula_moiety         'C8 H24 O6 Si5'
_chemical_name_systematic        
2,2,4,4,8,8,10,10-octamethylspiro[5.5]pentasiloxane
_symmetry_cell_setting           monoclinic
_symmetry_space_group_name_H-M   'P 21/n'
_symmetry_Int_Tables_number      14
_space_group_name_Hall           '-P 2yn'
loop_
_symmetry_equiv_pos_site_id
_symmetry_equiv_pos_as_xyz
1 x,y,z
2 1/2-x,1/2+y,1/2-z
3 -x,-y,-z
4 1/2+x,1/2-y,1/2+z
_cell_length_a                   10.043(5)
_cell_length_b                   18.838(9)
_cell_length_c                   11.150(5)
_cell_angle_alpha                90
_cell_angle_beta                 113.174(6)
_cell_angle_gamma                90
_cell_volume                     1939.26
_exptl_crystal_colour            colorless
_exptl_crystal_description       needle
_cell_formula_units_Z            4
loop_
_atom_site_label
_atom_site_type_symbol
_atom_site_fract_x
_atom_site_fract_y
_atom_site_fract_z
Si1 Si 0.5260(2) 0.37870(15) 0.2522(3)
Si2 Si 0.3261(3) 0.41333(14) 0.3810(3)
Si3 Si 0.2513(3) 0.29841(16) 0.1820(3)
Si4 Si 0.7125(3) 0.44265(15) 0.1298(3)
Si5 Si 0.8328(3) 0.33398(15) 0.3391(3)
O1 O 0.4674(6) 0.4239(3) 0.3431(6)
O2 O 0.4017(6) 0.3237(3) 0.1690(6)
O3 O 0.5644(6) 0.4307(3) 0.1553(6)
O4 O 0.6709(6) 0.3373(3) 0.3412(6)
O5 O 0.2451(6) 0.3416(3) 0.3054(6)
O6 O 0.8342(6) 0.3917(3) 0.2330(6)
C1 C 0.2067(12) 0.4904(6) 0.3238(14)
H1 H 0.2592 0.5334 0.3660
H2 H 0.1220 0.4842 0.3457
H3 H 0.1750 0.4948 0.2290
C2 C 0.3882(11) 0.4002(6) 0.5566(10)
H4 H 0.3046 0.3925 0.5795
H5 H 0.4416 0.4423 0.6022
H6 H 0.4519 0.3586 0.5825
C3 C 0.0976(11) 0.3209(7) 0.0317(11)
H7 H 0.1100 0.2985 -0.0426
H8 H 0.0924 0.3726 0.0201
H9 H 0.0079 0.3037 0.0369
C4 C 0.2592(11) 0.2031(5) 0.2137(11)
H10 H 0.2396 0.1772 0.1323
H11 H 0.1865 0.1905 0.2483
H12 H 0.3558 0.1906 0.2775
C5 C 0.6794(12) 0.4150(7) -0.0361(11)
H13 H 0.6017 0.4440 -0.0981
H14 H 0.6506 0.3649 -0.0475
H15 H 0.7680 0.4211 -0.0520
C6 C 0.7654(11) 0.5358(6) 0.1600(11)
H16 H 0.8573 0.5431 0.1505
H17 H 0.7768 0.5486 0.2488
H18 H 0.6903 0.5657 0.0971
C7 C 0.8613(15) 0.2459(7) 0.2882(16)
H19 H 0.7949 0.2381 0.1973
H20 H 0.8428 0.2104 0.3440
H21 H 0.9615 0.2415 0.2956
C8 C 0.9684(12) 0.3568(9) 0.4980(12)
H22 H 1.0644 0.3565 0.4946
H23 H 0.9661 0.3220 0.5625
H24 H 0.9482 0.4041 0.5230
loop_
_geom_bond_atom_site_label_1
_geom_bond_atom_site_label_2
_geom_bond_site_symmetry_1
_geom_bond_site_symmetry_2
Si1 O1 1_555 1_555
Si2 O1 1_555 1_555
Si3 O2 1_555 1_555
Si4 O3 1_555 1_555
Si5 O4 1_555 1_555
O2 Si1 1_555 1_555
O3 Si1 1_555 1_555
O4 Si1 1_555 1_555
O5 Si2 1_555 1_555
O6 Si4 1_555 1_555
C1 Si2 1_555 1_555
H1 C1 1_555 1_555
H2 C1 1_555 1_555
H3 C1 1_555 1_555
C2 Si2 1_555 1_555
H4 C2 1_555 1_555
H5 C2 1_555 1_555
H6 C2 1_555 1_555
C3 Si3 1_555 1_555
H7 C3 1_555 1_555
H8 C3 1_555 1_555
H9 C3 1_555 1_555
C4 Si3 1_555 1_555
H10 C4 1_555 1_555
H11 C4 1_555 1_555
H12 C4 1_555 1_555
C5 Si4 1_555 1_555
H13 C5 1_555 1_555
H14 C5 1_555 1_555
H15 C5 1_555 1_555
C6 Si4 1_555 1_555
H16 C6 1_555 1_555
H17 C6 1_555 1_555
H18 C6 1_555 1_555
C7 Si5 1_555 1_555
H19 C7 1_555 1_555
H20 C7 1_555 1_555
H21 C7 1_555 1_555
C8 Si5 1_555 1_555
H22 C8 1_555 1_555
H23 C8 1_555 1_555
H24 C8 1_555 1_555
Si3 O5 1_555 1_555
Si5 O6 1_555 1_555

#END
