
#######################################################################
#
#                 Cambridge Crystallographic Data Centre
#                                CCDC 
#
#######################################################################
#
# If this CIF has been generated from an entry in the Cambridge 
# Structural Database, then it will include bibliographic, chemical, 
# crystal, experimental, refinement or atomic coordinate data resulting 
# from the CCDC's data processing and validation procedures.
#
#######################################################################

data_OMUSEV
_chemical_formula_moiety         'C34 H27 Cl2 N1 O4'
_chemical_name_systematic        
'Diethyl 7,11-bis(4-chlorophenyl)-8,10-dihydro-9H-cyclopenta[j]phenanthridine-9,9-dicarboxylate'
_symmetry_cell_setting           monoclinic
_symmetry_space_group_name_H-M   'P 21/c'
_symmetry_Int_Tables_number      14
_space_group_name_Hall           '-P 2ybc'
loop_
_symmetry_equiv_pos_site_id
_symmetry_equiv_pos_as_xyz
1 x,y,z
2 -x,1/2+y,1/2-z
3 -x,-y,-z
4 x,1/2-y,1/2+z
_cell_length_a                   8.996(2)
_cell_length_b                   26.334(6)
_cell_length_c                   12.674(3)
_cell_angle_alpha                90
_cell_angle_beta                 108.141(4)
_cell_angle_gamma                90
_cell_volume                     2853.24
_cell_formula_units_Z            4
loop_
_atom_site_label
_atom_site_type_symbol
_atom_site_fract_x
_atom_site_fract_y
_atom_site_fract_z
C1 C 0.3087(6) 0.5723(2) 1.0643(4)
Cl1 Cl 0.2681(2) 0.54144(7) 0.43170(12)
N1 N 0.2539(5) 0.55497(18) 1.1487(3)
O1 O 0.2694(6) 0.27162(17) 0.9070(4)
C2 C 0.3701(7) 0.6218(2) 1.0795(5)
H1 H 0.3659 0.6408 1.1404
Cl2 Cl 0.1192(3) 0.33619(7) 1.48749(13)
O2 O 0.2448(9) 0.2985(3) 0.7434(5)
C3 C 0.4363(7) 0.6423(2) 1.0051(5)
H2 H 0.4747 0.6754 1.0146
O3 O -0.1767(6) 0.2789(2) 0.7839(4)
C4 C 0.4453(7) 0.6133(2) 0.9155(5)
H3 H 0.4929 0.6266 0.8661
O4 O -0.0895(7) 0.2972(2) 0.6456(4)
C5 C 0.3839(6) 0.5650(2) 0.8999(5)
H4 H 0.3926 0.5460 0.8403
C6 C 0.3082(6) 0.5434(2) 0.9713(4)
C7 C 0.2378(6) 0.49331(19) 0.9590(4)
C8 C 0.2035(6) 0.4732(2) 1.0519(4)
C9 C 0.2099(6) 0.5080(2) 1.1421(4)
H5 H 0.1794 0.4953 1.2006
C10 C 0.1498(6) 0.4221(2) 1.0545(4)
C11 C 0.1140(6) 0.39432(19) 0.9571(4)
C12 C 0.1344(6) 0.4156(2) 0.8618(4)
C13 C 0.1992(6) 0.46335(19) 0.8595(4)
C14 C 0.2130(6) 0.48127(19) 0.7514(4)
C15 C 0.1148(6) 0.5193(2) 0.6917(4)
H6 H 0.0373 0.5323 0.7182
C16 C 0.1305(6) 0.5380(2) 0.5933(4)
H7 H 0.0647 0.5635 0.5542
C17 C 0.2450(7) 0.5182(2) 0.5547(4)
C18 C 0.3407(7) 0.4802(2) 0.6105(5)
H8 H 0.4158 0.4665 0.5824
C19 C 0.3250(6) 0.4624(2) 0.7093(4)
H9 H 0.3919 0.4371 0.7480
C20 C 0.0697(7) 0.38053(19) 0.7644(4)
H10 H 0.1394 0.3785 0.7196
H11 H -0.0324 0.3919 0.7182
C21 C 0.0580(6) 0.3287(2) 0.8186(4)
C22 C 0.0448(7) 0.34221(19) 0.9336(4)
H12 H -0.0636 0.3423 0.9322
H13 H 0.1028 0.3182 0.9894
C23 C 0.1417(7) 0.39941(19) 1.1603(4)
C24 C 0.2672(7) 0.4045(2) 1.2576(4)
H14 H 0.3567 0.4216 1.2555
C25 C 0.2610(9) 0.3844(2) 1.3580(5)
H15 H 0.3457 0.3880 1.4221
C26 C 0.1287(9) 0.3594(2) 1.3612(5)
C27 C 0.0057(8) 0.3527(2) 1.2668(5)
H16 H -0.0819 0.3345 1.2690
C28 C 0.0122(7) 0.3733(2) 1.1681(4)
H17 H -0.0735 0.3694 1.1046
C29 C 0.2023(8) 0.2955(2) 0.8300(5)
C30 C 0.4173(11) 0.2770(4) 0.7365(8)
H18 H 0.4576 0.2959 0.6856
H19 H 0.4964 0.2732 0.8083
C31 C 0.3474(14) 0.2343(3) 0.6952(7)
H20 H 0.2964 0.2204 0.7449
H21 H 0.4236 0.2106 0.6862
H22 H 0.2712 0.2408 0.6244
C32 C -0.0843(9) 0.2990(2) 0.7496(5)
C33 C -0.2215(14) 0.2708(4) 0.5644(7)
H23 H -0.1827 0.2494 0.5165
H24 H -0.2757 0.2495 0.6030
C34 C -0.3258(13) 0.3077(5) 0.4999(11)
H25 H -0.3569 0.3305 0.5483
H26 H -0.4165 0.2911 0.4516
H27 H -0.2745 0.3265 0.4563
loop_
_geom_bond_atom_site_label_1
_geom_bond_atom_site_label_2
_geom_bond_site_symmetry_1
_geom_bond_site_symmetry_2
C1 N1 1_555 1_555
Cl1 C17 1_555 1_555
N1 C9 1_555 1_555
O1 C29 1_555 1_555
C2 C1 1_555 1_555
H1 C2 1_555 1_555
Cl2 C26 1_555 1_555
O2 C29 1_555 1_555
C3 C2 1_555 1_555
H2 C3 1_555 1_555
O3 C32 1_555 1_555
C4 C3 1_555 1_555
H3 C4 1_555 1_555
O4 C32 1_555 1_555
C5 C4 1_555 1_555
H4 C5 1_555 1_555
C6 C1 1_555 1_555
C7 C6 1_555 1_555
C8 C7 1_555 1_555
C9 C8 1_555 1_555
H5 C9 1_555 1_555
C10 C8 1_555 1_555
C11 C10 1_555 1_555
C12 C11 1_555 1_555
C13 C7 1_555 1_555
C14 C13 1_555 1_555
C15 C14 1_555 1_555
H6 C15 1_555 1_555
C16 C15 1_555 1_555
H7 C16 1_555 1_555
C17 C16 1_555 1_555
C18 C17 1_555 1_555
H8 C18 1_555 1_555
C19 C14 1_555 1_555
H9 C19 1_555 1_555
C20 C12 1_555 1_555
H10 C20 1_555 1_555
H11 C20 1_555 1_555
C21 C20 1_555 1_555
C22 C11 1_555 1_555
H12 C22 1_555 1_555
H13 C22 1_555 1_555
C23 C10 1_555 1_555
C24 C23 1_555 1_555
H14 C24 1_555 1_555
C25 C24 1_555 1_555
H15 C25 1_555 1_555
C26 C25 1_555 1_555
C27 C26 1_555 1_555
H16 C27 1_555 1_555
C28 C23 1_555 1_555
H17 C28 1_555 1_555
C29 C21 1_555 1_555
C30 O2 1_555 1_555
H18 C30 1_555 1_555
H19 C30 1_555 1_555
C31 C30 1_555 1_555
H20 C31 1_555 1_555
H21 C31 1_555 1_555
H22 C31 1_555 1_555
C32 C21 1_555 1_555
C33 O4 1_555 1_555
H23 C33 1_555 1_555
H24 C33 1_555 1_555
C34 C33 1_555 1_555
H25 C34 1_555 1_555
H26 C34 1_555 1_555
H27 C34 1_555 1_555
C5 C6 1_555 1_555
C12 C13 1_555 1_555
C18 C19 1_555 1_555
C21 C22 1_555 1_555
C27 C28 1_555 1_555

#END
