
#######################################################################
#
#                 Cambridge Crystallographic Data Centre
#                                CCDC 
#
#######################################################################
#
# If this CIF has been generated from an entry in the Cambridge 
# Structural Database, then it will include bibliographic, chemical, 
# crystal, experimental, refinement or atomic coordinate data resulting 
# from the CCDC's data processing and validation procedures.
#
#######################################################################

data_OMUSIZ
_chemical_formula_moiety         'C52 H38 N2 O2'
_chemical_name_systematic        
13,16-Dimethyl-1,5,6,7,8,12-hexaphenyl-13,16-diazatetracyclo[10.2.2.0^2,11^.0^4,9^]hexadeca-2(11),3,5,7,9-pentaene-14,15-dione
_symmetry_cell_setting           monoclinic
_symmetry_space_group_name_H-M   'P 21/n'
_symmetry_Int_Tables_number      14
_space_group_name_Hall           '-P 2yn'
loop_
_symmetry_equiv_pos_site_id
_symmetry_equiv_pos_as_xyz
1 x,y,z
2 1/2-x,1/2+y,1/2-z
3 -x,-y,-z
4 1/2+x,1/2-y,1/2+z
_cell_length_a                   11.9918(8)
_cell_length_b                   22.3878(16)
_cell_length_c                   14.3440(10)
_cell_angle_alpha                90
_cell_angle_beta                 92.1810(10)
_cell_angle_gamma                90
_cell_volume                     3848.14
_exptl_crystal_colour            yellow
_exptl_crystal_description       cut-block
_cell_formula_units_Z            4
_exptl_crystal_recrystallization_method dichloromethane/methanol
loop_
_atom_site_label
_atom_site_type_symbol
_atom_site_fract_x
_atom_site_fract_y
_atom_site_fract_z
O1 O 0.79379(13) -0.11613(6) -0.04570(10)
O2 O 0.92993(13) -0.08480(7) 0.21900(11)
N1 N 0.77759(13) -0.01921(7) -0.00448(11)
N2 N 0.87484(13) -0.00079(7) 0.14025(11)
C1 C 0.78131(16) 0.02157(8) 0.07772(13)
C2 C 0.77732(16) -0.07853(9) 0.01381(14)
C3 C 0.76102(16) -0.09111(8) 0.11787(13)
C4 C 0.86486(18) -0.06018(9) 0.16443(14)
C5 C 0.66365(16) -0.05186(8) 0.14959(13)
C6 C 0.67673(16) 0.00996(8) 0.13186(13)
C7 C 0.60764(16) 0.05061(9) 0.17014(13)
H1 H 0.6200 0.0911 0.1604
C8 C 0.51703(16) 0.03266(8) 0.22469(13)
C9 C 0.50192(16) -0.02949(9) 0.24031(13)
C10 C 0.57692(16) -0.07075(9) 0.20066(13)
H2 H 0.5665 -0.1115 0.2098
C11 C 0.44282(16) 0.07466(8) 0.26383(13)
C12 C 0.35915(16) 0.05490(9) 0.32024(13)
C13 C 0.34922(16) -0.00713(9) 0.34132(13)
C14 C 0.41763(16) -0.04882(9) 0.30062(13)
C15 C 0.40440(17) -0.11352(9) 0.32185(14)
C16 C 0.3209(2) -0.14720(11) 0.28134(18)
H3 H 0.2716 -0.1297 0.2378
C17 C 0.3081(2) -0.20649(12) 0.3035(2)
H4 H 0.2514 -0.2285 0.2739
C18 C 0.3761(3) -0.23301(12) 0.3672(2)
H5 H 0.3652 -0.2727 0.3834
C19 C 0.4620(3) -0.20087(13) 0.4081(2)
H6 H 0.5110 -0.2189 0.4514
C20 C 0.4752(3) -0.14179(11) 0.38482(18)
H7 H 0.5340 -0.1204 0.4126
C21 C 0.26628(18) -0.02863(9) 0.40913(14)
C22 C 0.15625(19) -0.03797(10) 0.38306(16)
H8 H 0.1313 -0.0294 0.3223
C23 C 0.0821(2) -0.05993(11) 0.44629(19)
H9 H 0.0078 -0.0661 0.4280
C24 C 0.1181(3) -0.07257(12) 0.5356(2)
H10 H 0.0682 -0.0871 0.5782
C25 C 0.2262(3) -0.06394(13) 0.56191(18)
H11 H 0.2507 -0.0727 0.6227
C26 C 0.3007(2) -0.04216(12) 0.49885(16)
H12 H 0.3751 -0.0366 0.5176
C27 C 0.27557(16) 0.09779(9) 0.35721(14)
C28 C 0.20222(18) 0.12751(9) 0.29719(16)
H13 H 0.2073 0.1222 0.2332
C29 C 0.1214(2) 0.16502(10) 0.3303(2)
H14 H 0.0721 0.1843 0.2887
C30 C 0.1135(2) 0.17383(11) 0.4239(2)
H15 H 0.0590 0.1991 0.4461
C31 C 0.1860(2) 0.14534(12) 0.48492(19)
H16 H 0.1812 0.1515 0.5488
C32 C 0.2664(2) 0.10742(11) 0.45202(16)
H17 H 0.3150 0.0881 0.4941
C33 C 0.45953(16) 0.13953(9) 0.24521(15)
C34 C 0.44097(19) 0.16301(9) 0.15687(17)
H18 H 0.4173 0.1381 0.1082
C35 C 0.4573(2) 0.22329(12) 0.1400(2)
H19 H 0.4438 0.2386 0.0803
C36 C 0.4932(2) 0.26025(12) 0.2108(3)
H20 H 0.5029 0.3008 0.1999
C37 C 0.5146(2) 0.23725(13) 0.2976(2)
H21 H 0.5412 0.2621 0.3454
C38 C 0.49715(19) 0.17748(11) 0.31531(17)
H22 H 0.5109 0.1626 0.3752
C39 C 0.79939(18) 0.08460(9) 0.04236(13)
C40 C 0.90566(19) 0.10652(10) 0.03014(15)
H23 H 0.9672 0.0841 0.0504
C41 C 0.9214(2) 0.16087(12) -0.01144(19)
H24 H 0.9934 0.1748 -0.0197
C42 C 0.8314(3) 0.19487(11) -0.0410(2)
H25 H 0.8423 0.2322 -0.0675
C43 C 0.7259(2) 0.17337(11) -0.03104(17)
H26 H 0.6648 0.1961 -0.0514
C44 C 0.7094(2) 0.11815(9) 0.00900(15)
H27 H 0.6373 0.1034 0.0136
C45 C 0.74594(17) -0.15603(9) 0.14615(16)
C46 C 0.74887(19) -0.16992(10) 0.24085(17)
H28 H 0.7678 -0.1405 0.2843
C47 C 0.7240(2) -0.22697(12) 0.27122(19)
H29 H 0.7256 -0.2355 0.3347
C48 C 0.6969(2) -0.27096(12) 0.2077(3)
H30 H 0.6800 -0.3092 0.2281
C49 C 0.6949(2) -0.25853(12) 0.1151(2)
H31 H 0.6776 -0.2885 0.0721
C50 C 0.7184(2) -0.20139(10) 0.08397(18)
H32 H 0.7156 -0.1935 0.0203
C51 C 0.7950(2) 0.00064(10) -0.09924(14)
H33 H 0.8677 0.0184 -0.1024
H34 H 0.7392 0.0296 -0.1171
H35 H 0.7897 -0.0329 -0.1408
C52 C 0.9207(2) 0.03861(10) 0.21431(15)
H36 H 0.9333 0.0160 0.2706
H37 H 0.8687 0.0702 0.2253
H38 H 0.9900 0.0553 0.1954
loop_
_geom_bond_atom_site_label_1
_geom_bond_atom_site_label_2
_geom_bond_site_symmetry_1
_geom_bond_site_symmetry_2
O1 C2 1_555 1_555
O2 C4 1_555 1_555
N1 C1 1_555 1_555
N2 C1 1_555 1_555
C1 C6 1_555 1_555
C2 N1 1_555 1_555
C3 C2 1_555 1_555
C4 N2 1_555 1_555
C5 C3 1_555 1_555
C6 C5 1_555 1_555
C7 C6 1_555 1_555
H1 C7 1_555 1_555
C8 C7 1_555 1_555
C9 C8 1_555 1_555
C10 C5 1_555 1_555
H2 C10 1_555 1_555
C11 C8 1_555 1_555
C12 C11 1_555 1_555
C13 C12 1_555 1_555
C14 C9 1_555 1_555
C15 C14 1_555 1_555
C16 C15 1_555 1_555
H3 C16 1_555 1_555
C17 C16 1_555 1_555
H4 C17 1_555 1_555
C18 C17 1_555 1_555
H5 C18 1_555 1_555
C19 C18 1_555 1_555
H6 C19 1_555 1_555
C20 C15 1_555 1_555
H7 C20 1_555 1_555
C21 C13 1_555 1_555
C22 C21 1_555 1_555
H8 C22 1_555 1_555
C23 C22 1_555 1_555
H9 C23 1_555 1_555
C24 C23 1_555 1_555
H10 C24 1_555 1_555
C25 C24 1_555 1_555
H11 C25 1_555 1_555
C26 C21 1_555 1_555
H12 C26 1_555 1_555
C27 C12 1_555 1_555
C28 C27 1_555 1_555
H13 C28 1_555 1_555
C29 C28 1_555 1_555
H14 C29 1_555 1_555
C30 C29 1_555 1_555
H15 C30 1_555 1_555
C31 C30 1_555 1_555
H16 C31 1_555 1_555
C32 C27 1_555 1_555
H17 C32 1_555 1_555
C33 C11 1_555 1_555
C34 C33 1_555 1_555
H18 C34 1_555 1_555
C35 C34 1_555 1_555
H19 C35 1_555 1_555
C36 C35 1_555 1_555
H20 C36 1_555 1_555
C37 C36 1_555 1_555
H21 C37 1_555 1_555
C38 C33 1_555 1_555
H22 C38 1_555 1_555
C39 C1 1_555 1_555
C40 C39 1_555 1_555
H23 C40 1_555 1_555
C41 C40 1_555 1_555
H24 C41 1_555 1_555
C42 C41 1_555 1_555
H25 C42 1_555 1_555
C43 C42 1_555 1_555
H26 C43 1_555 1_555
C44 C39 1_555 1_555
H27 C44 1_555 1_555
C45 C3 1_555 1_555
C46 C45 1_555 1_555
H28 C46 1_555 1_555
C47 C46 1_555 1_555
H29 C47 1_555 1_555
C48 C47 1_555 1_555
H30 C48 1_555 1_555
C49 C48 1_555 1_555
H31 C49 1_555 1_555
C50 C45 1_555 1_555
H32 C50 1_555 1_555
C51 N1 1_555 1_555
H33 C51 1_555 1_555
H34 C51 1_555 1_555
H35 C51 1_555 1_555
C52 N2 1_555 1_555
H36 C52 1_555 1_555
H37 C52 1_555 1_555
H38 C52 1_555 1_555
C3 C4 1_555 1_555
C9 C10 1_555 1_555
C13 C14 1_555 1_555
C19 C20 1_555 1_555
C25 C26 1_555 1_555
C31 C32 1_555 1_555
C37 C38 1_555 1_555
C43 C44 1_555 1_555
C49 C50 1_555 1_555

#END
