
#######################################################################
#
#                 Cambridge Crystallographic Data Centre
#                                CCDC 
#
#######################################################################
#
# If this CIF has been generated from an entry in the Cambridge 
# Structural Database, then it will include bibliographic, chemical, 
# crystal, experimental, refinement or atomic coordinate data resulting 
# from the CCDC's data processing and validation procedures.
#
#######################################################################

data_ONACUD
_chemical_formula_moiety         'C25 H26 I1 N2 1+,I1 1-'
_chemical_name_systematic        
'1-benzyl-4-(iodomethyl)-3-mesityl-3,4-dihydroquinazolin-1-ium iodide'
_symmetry_cell_setting           orthorhombic
_symmetry_space_group_name_H-M   'P 21 21 21'
_symmetry_Int_Tables_number      19
_space_group_name_Hall           'P 2ac 2ab'
loop_
_symmetry_equiv_pos_site_id
_symmetry_equiv_pos_as_xyz
1 x,y,z
2 1/2-x,-y,1/2+z
3 -x,1/2+y,1/2-z
4 1/2+x,1/2-y,-z
_cell_length_a                   8.1955(6)
_cell_length_b                   15.1471(12)
_cell_length_c                   19.2909(15)
_cell_angle_alpha                90
_cell_angle_beta                 90
_cell_angle_gamma                90
_cell_volume                     2394.73
_exptl_crystal_colour            colorless
_exptl_crystal_description       rod
_cell_formula_units_Z            4
loop_
_atom_site_label
_atom_site_type_symbol
_atom_site_fract_x
_atom_site_fract_y
_atom_site_fract_z
I1 I 0.76558(5) 0.56416(2) 0.63897(2)
I2 I 0.01849(5) 0.72125(2) 0.73541(2)
N1 N 0.4138(5) 0.7824(3) 0.6230(2)
N2 N 0.4448(5) 0.7963(2) 0.7429(2)
C1 C 0.4834(7) 0.7613(3) 0.6824(3)
C2 C 0.3041(6) 0.8561(3) 0.6200(3)
C3 C 0.2557(7) 0.8908(3) 0.5572(3)
H1 H 0.2895 0.8636 0.5152
C4 C 0.1572(7) 0.9657(4) 0.5554(3)
H2 H 0.1237 0.9900 0.5123
C5 C 0.1092(8) 1.0037(4) 0.6163(3)
H3 H 0.0416 1.0546 0.6151
C6 C 0.1568(7) 0.9698(3) 0.6800(3)
H4 H 0.1228 0.9975 0.7217
C7 C 0.2559(7) 0.8941(3) 0.6820(3)
C8 C 0.3042(6) 0.8576(3) 0.7515(3)
H5 H 0.3442 0.9085 0.7798
C9 C 0.4750(7) 0.7404(3) 0.5591(2)
H6 H 0.5742 0.7061 0.5707
H7 H 0.5077 0.7875 0.5262
C10 C 0.3572(7) 0.6804(3) 0.5232(3)
C11 C 0.2583(8) 0.6220(3) 0.5597(3)
H8 H 0.2553 0.6243 0.6089
C12 C 0.1642(7) 0.5607(4) 0.5247(4)
H9 H 0.0945 0.5222 0.5499
C13 C 0.1714(8) 0.5552(5) 0.4529(4)
H10 H 0.1102 0.5115 0.4290
C14 C 0.2682(8) 0.6137(4) 0.4165(3)
H11 H 0.2722 0.6103 0.3674
C15 C 0.3593(7) 0.6772(4) 0.4506(3)
H12 H 0.4228 0.7183 0.4249
C16 C 0.1649(7) 0.8155(4) 0.7920(3)
H13 H 0.0924 0.8630 0.8090
H14 H 0.2113 0.7854 0.8331
C17 C 0.5410(7) 0.7750(4) 0.8040(2)
C18 C 0.5269(8) 0.6906(3) 0.8336(3)
C19 C 0.6142(8) 0.6753(4) 0.8940(3)
H15 H 0.6073 0.6186 0.9149
C20 C 0.7094(8) 0.7377(4) 0.9248(3)
C21 C 0.7233(8) 0.8196(4) 0.8931(3)
H16 H 0.7915 0.8632 0.9134
C22 C 0.6407(7) 0.8392(4) 0.8330(3)
C23 C 0.4299(8) 0.6169(4) 0.8019(3)
H17 H 0.5011 0.5659 0.7940
H18 H 0.3840 0.6366 0.7576
H19 H 0.3411 0.6002 0.8333
C24 C 0.7987(11) 0.7193(5) 0.9920(4)
H20 H 0.8144 0.7747 1.0174
H21 H 0.9052 0.6929 0.9817
H22 H 0.7343 0.6784 1.0203
C25 C 0.6636(8) 0.9286(4) 0.7993(3)
H23 H 0.6508 0.9230 0.7490
H24 H 0.7731 0.9510 0.8098
H25 H 0.5818 0.9699 0.8173
H26 H 0.564(5) 0.718(3) 0.678(3)
loop_
_geom_bond_atom_site_label_1
_geom_bond_atom_site_label_2
_geom_bond_site_symmetry_1
_geom_bond_site_symmetry_2
I2 C16 1_555 1_555
N1 C1 1_555 1_555
N2 C1 1_555 1_555
C1 H26 1_555 1_555
C2 N1 1_555 1_555
C3 C2 1_555 1_555
H1 C3 1_555 1_555
C4 C3 1_555 1_555
H2 C4 1_555 1_555
C5 C4 1_555 1_555
H3 C5 1_555 1_555
C6 C5 1_555 1_555
H4 C6 1_555 1_555
C7 C2 1_555 1_555
C8 N2 1_555 1_555
H5 C8 1_555 1_555
C9 N1 1_555 1_555
H6 C9 1_555 1_555
H7 C9 1_555 1_555
C10 C9 1_555 1_555
C11 C10 1_555 1_555
H8 C11 1_555 1_555
C12 C11 1_555 1_555
H9 C12 1_555 1_555
C13 C12 1_555 1_555
H10 C13 1_555 1_555
C14 C13 1_555 1_555
H11 C14 1_555 1_555
C15 C10 1_555 1_555
H12 C15 1_555 1_555
C16 C8 1_555 1_555
H13 C16 1_555 1_555
H14 C16 1_555 1_555
C17 N2 1_555 1_555
C18 C17 1_555 1_555
C19 C18 1_555 1_555
H15 C19 1_555 1_555
C20 C19 1_555 1_555
C21 C20 1_555 1_555
H16 C21 1_555 1_555
C22 C17 1_555 1_555
C23 C18 1_555 1_555
H17 C23 1_555 1_555
H18 C23 1_555 1_555
H19 C23 1_555 1_555
C24 C20 1_555 1_555
H20 C24 1_555 1_555
H21 C24 1_555 1_555
H22 C24 1_555 1_555
C25 C22 1_555 1_555
H23 C25 1_555 1_555
H24 C25 1_555 1_555
H25 C25 1_555 1_555
C6 C7 1_555 1_555
C7 C8 1_555 1_555
C14 C15 1_555 1_555
C21 C22 1_555 1_555

#END
