
#######################################################################
#
#                 Cambridge Crystallographic Data Centre
#                                CCDC 
#
#######################################################################
#
# If this CIF has been generated from an entry in the Cambridge 
# Structural Database, then it will include bibliographic, chemical, 
# crystal, experimental, refinement or atomic coordinate data resulting 
# from the CCDC's data processing and validation procedures.
#
#######################################################################

data_ONADAK
_chemical_formula_moiety         'C26 H28 I1 N2 1+,I1 1-'
_chemical_name_systematic        
'1-((benzyl(mesityl)amino)methylene)-2-(iodomethyl)-2,3-dihydro-1H-indolium iodide'
_symmetry_cell_setting           monoclinic
_symmetry_space_group_name_H-M   'P 21/n'
_symmetry_Int_Tables_number      14
_space_group_name_Hall           '-P 2yn'
loop_
_symmetry_equiv_pos_site_id
_symmetry_equiv_pos_as_xyz
1 x,y,z
2 1/2-x,1/2+y,1/2-z
3 -x,-y,-z
4 1/2+x,1/2-y,1/2+z
_cell_length_a                   14.031(4)
_cell_length_b                   8.921(3)
_cell_length_c                   19.680(6)
_cell_angle_alpha                90
_cell_angle_beta                 96.611(5)
_cell_angle_gamma                90
_cell_volume                     2446.98
_exptl_crystal_colour            yellow
_exptl_crystal_description       block
_cell_formula_units_Z            4
loop_
_atom_site_label
_atom_site_type_symbol
_atom_site_fract_x
_atom_site_fract_y
_atom_site_fract_z
I1 I -0.00870(2) 0.72673(3) 1.01626(2)
N1 N 0.1641(2) 0.8034(3) 0.84607(14)
N2 N 0.0436(2) 0.7462(3) 0.75486(14)
C1 C 0.1325(3) 0.7633(4) 0.78320(18)
C2 C 0.1111(2) 0.8374(4) 0.90676(17)
H1 H 0.0526 0.8968 0.8927
C3 C 0.1855(2) 0.9309(4) 0.95229(18)
H2 H 0.1748 1.0384 0.9444
H3 H 0.1825 0.9092 1.0008
C4 C 0.2799(2) 0.8830(4) 0.93070(17)
C5 C 0.3723(3) 0.8997(4) 0.96249(19)
H4 H 0.3833 0.9465 1.0055
C6 C 0.4477(3) 0.8473(4) 0.9307(2)
H5 H 0.5107 0.8577 0.9523
C7 C 0.4322(3) 0.7802(4) 0.8680(2)
H6 H 0.4849 0.7470 0.8467
C8 C 0.3403(3) 0.7601(4) 0.8351(2)
H7 H 0.3294 0.7125 0.7923
C9 C 0.2655(2) 0.8130(4) 0.86808(17)
C10 C 0.0863(3) 0.6912(4) 0.93940(18)
H8 H 0.1453 0.6430 0.9603
H9 H 0.0556 0.6239 0.9041
C11 C -0.0420(2) 0.7693(4) 0.78784(16)
C12 C -0.0747(2) 0.9148(4) 0.79591(17)
C13 C -0.1567(2) 0.9334(4) 0.82851(18)
H10 H -0.1789 1.0309 0.8355
C14 C -0.2070(3) 0.8121(4) 0.85117(19)
C15 C -0.1748(3) 0.6700(4) 0.83804(18)
H11 H -0.2103 0.5871 0.8506
C16 C -0.0924(2) 0.6440(4) 0.80723(17)
C17 C -0.0220(3) 1.0500(4) 0.7731(2)
H12 H -0.0657 1.1344 0.7668
H13 H 0.0028 1.0277 0.7302
H14 H 0.0308 1.0746 0.8075
C18 C -0.2927(3) 0.8327(5) 0.8893(3)
H15 H -0.3416 0.7598 0.8734
H16 H -0.3182 0.9331 0.8813
H17 H -0.2739 0.8185 0.9378
C19 C -0.0615(3) 0.4848(4) 0.7964(2)
H18 H -0.0803 0.4219 0.8328
H19 H 0.0076 0.4813 0.7967
H20 H -0.0920 0.4488 0.7527
C20 C 0.0294(3) 0.6923(4) 0.68240(17)
H21 H 0.0099 0.5868 0.6818
H22 H 0.0905 0.6986 0.6630
C21 C -0.0455(3) 0.7820(4) 0.63816(17)
C22 C -0.0181(3) 0.8962(5) 0.59836(18)
H23 H 0.0472 0.9208 0.5995
C23 C -0.0864(3) 0.9762(5) 0.55628(19)
H24 H -0.0672 1.0545 0.5289
C24 C -0.1827(3) 0.9411(5) 0.55456(19)
H25 H -0.2288 0.9947 0.5258
C25 C -0.2107(3) 0.8270(5) 0.5951(2)
H26 H -0.2761 0.8033 0.5945
C26 C -0.1420(3) 0.7475(4) 0.63674(19)
H27 H -0.1611 0.6694 0.6643
H28 H 0.187(3) 0.749(4) 0.755(2)
I2 I 0.28624(2) 0.83698(3) 0.63503(2)
loop_
_geom_bond_atom_site_label_1
_geom_bond_atom_site_label_2
_geom_bond_site_symmetry_1
_geom_bond_site_symmetry_2
I1 C10 1_555 1_555
N1 C1 1_555 1_555
N2 C1 1_555 1_555
C1 H28 1_555 1_555
C2 N1 1_555 1_555
H1 C2 1_555 1_555
C3 C2 1_555 1_555
H2 C3 1_555 1_555
H3 C3 1_555 1_555
C4 C3 1_555 1_555
C5 C4 1_555 1_555
H4 C5 1_555 1_555
C6 C5 1_555 1_555
H5 C6 1_555 1_555
C7 C6 1_555 1_555
H6 C7 1_555 1_555
C8 C7 1_555 1_555
H7 C8 1_555 1_555
C9 N1 1_555 1_555
C10 C2 1_555 1_555
H8 C10 1_555 1_555
H9 C10 1_555 1_555
C11 N2 1_555 1_555
C12 C11 1_555 1_555
C13 C12 1_555 1_555
H10 C13 1_555 1_555
C14 C13 1_555 1_555
C15 C14 1_555 1_555
H11 C15 1_555 1_555
C16 C11 1_555 1_555
C17 C12 1_555 1_555
H12 C17 1_555 1_555
H13 C17 1_555 1_555
H14 C17 1_555 1_555
C18 C14 1_555 1_555
H15 C18 1_555 1_555
H16 C18 1_555 1_555
H17 C18 1_555 1_555
C19 C16 1_555 1_555
H18 C19 1_555 1_555
H19 C19 1_555 1_555
H20 C19 1_555 1_555
C20 N2 1_555 1_555
H21 C20 1_555 1_555
H22 C20 1_555 1_555
C21 C20 1_555 1_555
C22 C21 1_555 1_555
H23 C22 1_555 1_555
C23 C22 1_555 1_555
H24 C23 1_555 1_555
C24 C23 1_555 1_555
H25 C24 1_555 1_555
C25 C24 1_555 1_555
H26 C25 1_555 1_555
C26 C21 1_555 1_555
H27 C26 1_555 1_555
C4 C9 1_555 1_555
C8 C9 1_555 1_555
C15 C16 1_555 1_555
C25 C26 1_555 1_555

#END
