
#######################################################################
#
#                 Cambridge Crystallographic Data Centre
#                                CCDC 
#
#######################################################################
#
# If this CIF has been generated from an entry in the Cambridge 
# Structural Database, then it will include bibliographic, chemical, 
# crystal, experimental, refinement or atomic coordinate data resulting 
# from the CCDC's data processing and validation procedures.
#
#######################################################################

data_ONADEO
_chemical_formula_moiety         'C26 H28 I1 N2 1+,C7 H8,I1 1-'
_chemical_name_systematic        
'1-benzyl-4-(iodomethyl)-3-mesityl-4,5-dihydro-3H-1,3-benzodiazepin-1-ium iodide toluene solvate'
_symmetry_cell_setting           rhombohedral
_symmetry_space_group_name_H-M   'R -3'
_symmetry_Int_Tables_number      148
_space_group_name_Hall           '-R 3'
loop_
_symmetry_equiv_pos_site_id
_symmetry_equiv_pos_as_xyz
1 x,y,z
2 -y,x-y,z
3 -x+y,-x,z
4 2/3+x,1/3+y,1/3+z
5 2/3-y,1/3+x-y,1/3+z
6 2/3-x+y,1/3-x,1/3+z
7 1/3+x,2/3+y,2/3+z
8 1/3-y,2/3+x-y,2/3+z
9 1/3-x+y,2/3-x,2/3+z
10 -x,-y,-z
11 y,-x+y,-z
12 x-y,x,-z
13 1/3-x,2/3-y,2/3-z
14 1/3+y,2/3-x+y,2/3-z
15 1/3+x-y,2/3+x,2/3-z
16 2/3-x,1/3-y,1/3-z
17 2/3+y,1/3-x+y,1/3-z
18 2/3+x-y,1/3+x,1/3-z
_cell_length_a                   29.982(3)
_cell_length_b                   29.982(3)
_cell_length_c                   17.4107(16)
_cell_angle_alpha                90
_cell_angle_beta                 90
_cell_angle_gamma                120
_cell_volume                     13554
_exptl_crystal_colour            yellow
_exptl_crystal_description       block
_cell_formula_units_Z            18
loop_
_atom_site_label
_atom_site_type_symbol
_atom_site_fract_x
_atom_site_fract_y
_atom_site_fract_z
I1 I 0.60044(2) 0.06414(2) 0.17787(2)
N1 N 0.48560(13) 0.05988(13) 0.34222(19)
N2 N 0.39878(13) -0.00958(13) 0.32672(19)
C1 C 0.43581(15) 0.03294(16) 0.3583(2)
H1 H 0.4261(17) 0.0484(17) 0.404(3)
C2 C 0.51841(16) 0.04270(16) 0.3016(2)
H2 H 0.5491 0.0522 0.3348
C3 C 0.48925(18) -0.01594(18) 0.2931(3)
H3 H 0.5134 -0.0273 0.2756
H4 H 0.4756 -0.0318 0.3439
C4 C 0.44529(18) -0.03449(16) 0.2368(3)
C5 C 0.4459(2) -0.0563(2) 0.1661(3)
H5 H 0.4751 -0.0588 0.1520
C6 C 0.4046(2) -0.0742(2) 0.1167(3)
H6 H 0.4052 -0.0903 0.0700
C7 C 0.3630(2) -0.0690(2) 0.1337(3)
H7 H 0.3354 -0.0803 0.0982
C8 C 0.36117(18) -0.04717(17) 0.2032(2)
H8 H 0.3324 -0.0434 0.2156
C9 C 0.40204(16) -0.03098(16) 0.2542(2)
C10 C 0.51175(15) 0.11187(16) 0.3728(2)
C11 C 0.50622(16) 0.14942(17) 0.3346(3)
C12 C 0.53100(19) 0.1991(2) 0.3634(4)
H9 H 0.5279 0.2251 0.3370
C13 C 0.5600(2) 0.2115(2) 0.4295(4)
C14 C 0.56367(19) 0.1727(2) 0.4680(3)
H10 H 0.5832 0.1810 0.5141
C15 C 0.53977(16) 0.12219(18) 0.4414(3)
C16 C 0.4724(2) 0.1369(2) 0.2633(3)
H11 H 0.4793 0.1153 0.2284
H12 H 0.4802 0.1689 0.2371
H13 H 0.4361 0.1183 0.2784
C17 C 0.5856(3) 0.2667(3) 0.4586(6)
H14 H 0.6191 0.2872 0.4333
H15 H 0.5907 0.2671 0.5143
H16 H 0.5636 0.2814 0.4470
C18 C 0.54165(19) 0.0808(2) 0.4865(3)
H17 H 0.5647 0.0711 0.4609
H18 H 0.5070 0.0507 0.4898
H19 H 0.5545 0.0935 0.5383
C19 C 0.53797(17) 0.07166(18) 0.2265(3)
H20 H 0.5500 0.1086 0.2354
H21 H 0.5092 0.0585 0.1892
C20 C 0.34683(16) -0.03089(18) 0.3634(3)
H22 H 0.3264 -0.0190 0.3341
H23 H 0.3512 -0.0172 0.4163
C21 C 0.31777(17) -0.08861(18) 0.3664(2)
C22 C 0.26530(18) -0.1145(2) 0.3508(3)
H24 H 0.2492 -0.0956 0.3350
C23 C 0.2363(2) -0.1676(2) 0.3580(4)
H25 H 0.2002 -0.1846 0.3490
C24 C 0.2584(3) -0.1949(3) 0.3775(4)
H26 H 0.2383 -0.2313 0.3812
C25 C 0.3110(3) -0.1700(3) 0.3926(4)
H27 H 0.3269 -0.1894 0.4069
C26 C 0.3401(2) -0.1168(2) 0.3866(4)
H28 H 0.3760 -0.0998 0.3967
I2 I 0.71865(2) 0.07267(2) 0.09348(2)
C27 C 0.1291(9) 0.0780(7) 0.4024(10)
C28 C 0.1744(5) 0.0832(6) 0.3735(7)
H29 H 0.2032 0.1172 0.3755
C29 C 0.1837(4) 0.0485(6) 0.3437(7)
H30 H 0.2173 0.0532 0.3381
C30 C 0.1411(10) 0.0061(8) 0.3222(11)
H31 H 0.1453 -0.0195 0.2963
C31 C 0.0900(8) -0.0046(8) 0.3343(11)
H32 H 0.0607 -0.0348 0.3157
C32 C 0.0866(7) 0.0329(9) 0.3752(11)
H33 H 0.0532 0.0277 0.3858
C33 C 0.1222(12) 0.1131(10) 0.4558(14)
H34 H 0.1241 0.1035 0.5090
H35 H 0.0885 0.1101 0.4468
H36 H 0.1494 0.1487 0.4467
loop_
_geom_bond_atom_site_label_1
_geom_bond_atom_site_label_2
_geom_bond_site_symmetry_1
_geom_bond_site_symmetry_2
I1 C19 1_555 1_555
N1 C1 1_555 1_555
N2 C1 1_555 1_555
C1 H1 1_555 1_555
C2 N1 1_555 1_555
H2 C2 1_555 1_555
C3 C2 1_555 1_555
H3 C3 1_555 1_555
H4 C3 1_555 1_555
C4 C3 1_555 1_555
C5 C4 1_555 1_555
H5 C5 1_555 1_555
C6 C5 1_555 1_555
H6 C6 1_555 1_555
C7 C6 1_555 1_555
H7 C7 1_555 1_555
C8 C7 1_555 1_555
H8 C8 1_555 1_555
C9 N2 1_555 1_555
C10 N1 1_555 1_555
C11 C10 1_555 1_555
C12 C11 1_555 1_555
H9 C12 1_555 1_555
C13 C12 1_555 1_555
C14 C13 1_555 1_555
H10 C14 1_555 1_555
C15 C10 1_555 1_555
C16 C11 1_555 1_555
H11 C16 1_555 1_555
H12 C16 1_555 1_555
H13 C16 1_555 1_555
C17 C13 1_555 1_555
H14 C17 1_555 1_555
H15 C17 1_555 1_555
H16 C17 1_555 1_555
C18 C15 1_555 1_555
H17 C18 1_555 1_555
H18 C18 1_555 1_555
H19 C18 1_555 1_555
C19 C2 1_555 1_555
H20 C19 1_555 1_555
H21 C19 1_555 1_555
C20 N2 1_555 1_555
H22 C20 1_555 1_555
H23 C20 1_555 1_555
C21 C20 1_555 1_555
C22 C21 1_555 1_555
H24 C22 1_555 1_555
C23 C22 1_555 1_555
H25 C23 1_555 1_555
C24 C23 1_555 1_555
H26 C24 1_555 1_555
C25 C24 1_555 1_555
H27 C25 1_555 1_555
C26 C21 1_555 1_555
H28 C26 1_555 1_555
C27 C28 1_555 1_555
C28 H29 1_555 1_555
C29 C28 1_555 1_555
H30 C29 1_555 1_555
C30 C29 1_555 1_555
H31 C30 1_555 1_555
C31 C30 1_555 1_555
H32 C31 1_555 1_555
C32 C27 1_555 1_555
H33 C32 1_555 1_555
C33 C27 1_555 1_555
H34 C33 1_555 1_555
H35 C33 1_555 1_555
H36 C33 1_555 1_555
C4 C9 1_555 1_555
C8 C9 1_555 1_555
C14 C15 1_555 1_555
C25 C26 1_555 1_555
C31 C32 1_555 1_555

#END
