
#######################################################################
#
#                 Cambridge Crystallographic Data Centre
#                                CCDC 
#
#######################################################################
#
# If this CIF has been generated from an entry in the Cambridge 
# Structural Database, then it will include bibliographic, chemical, 
# crystal, experimental, refinement or atomic coordinate data resulting 
# from the CCDC's data processing and validation procedures.
#
#######################################################################

data_ONAFIU
_chemical_formula_moiety         'C22 H32 O5 Si1,0.5(C4 H8 O2)'
_chemical_name_systematic        
"(3aR,5aS,6aR,9aR)-5a,6a-dihydroxy-3a,9,9-trimethyl-1-(trimethylsilyl)-3,3a,4,5,5a,6,6a,9,9a,10-decahydroindeno[5',4':4,5]cyclohepta[1,2-c]furan-2,7-dione ethyl acetate solvate"
_symmetry_cell_setting           monoclinic
_symmetry_space_group_name_H-M   'P 21/n'
_symmetry_Int_Tables_number      14
_space_group_name_Hall           '-P 2yn'
loop_
_symmetry_equiv_pos_site_id
_symmetry_equiv_pos_as_xyz
1 x,y,z
2 1/2-x,1/2+y,1/2-z
3 -x,-y,-z
4 1/2+x,1/2-y,1/2+z
_cell_length_a                   6.3335(6)
_cell_length_b                   38.200(3)
_cell_length_c                   19.9859(12)
_cell_angle_alpha                90
_cell_angle_beta                 92.539(7)
_cell_angle_gamma                90
_cell_volume                     4830.64
_exptl_crystal_colour            colorless
_chemical_melting_point          '205-207 deg.C'
_cell_formula_units_Z            8
_exptl_crystal_recrystallization_method 'Diethyl ether/ Hexane'
loop_
_atom_site_label
_atom_site_type_symbol
_atom_site_fract_x
_atom_site_fract_y
_atom_site_fract_z
C1 C 0.8227(3) 0.43887(6) 0.02023(12)
C2 C 0.7240(3) 0.45816(6) 0.07825(11)
C3 C 0.7696(3) 0.49719(6) 0.07113(11)
H1 H 0.9248 0.5005 0.0735
H2 H 0.7175 0.5047 0.0259
C4 C 0.6750(3) 0.52158(6) 0.12218(11)
C5 C 0.7082(4) 0.55942(6) 0.09875(12)
H3 H 0.8609 0.5632 0.0928
H4 H 0.6337 0.5626 0.0546
C6 C 0.6300(4) 0.58690(6) 0.14694(12)
H5 H 0.4747 0.5849 0.1495
H6 H 0.6620 0.6105 0.1297
C7 C 0.7334(4) 0.58263(6) 0.21709(12)
C8 C 0.9716(4) 0.59032(7) 0.21842(14)
H7 H 1.0323 0.5867 0.2638
H8 H 0.9945 0.6146 0.2049
H9 H 1.0401 0.5746 0.1873
C9 C 0.6247(4) 0.60408(6) 0.27053(13)
H10 H 0.7206 0.6224 0.2893
H11 H 0.4949 0.6154 0.2514
C10 C 0.5720(4) 0.57795(6) 0.32347(12)
C11 C 0.6072(4) 0.54208(6) 0.29883(12)
C12 C 0.6975(3) 0.54490(6) 0.23925(12)
C13 C 0.7637(3) 0.51697(6) 0.19325(11)
C14 C 0.8970(3) 0.49221(6) 0.21547(12)
H12 H 0.9415 0.4942 0.2613
C15 C 0.9884(4) 0.46156(6) 0.17945(12)
H13 H 1.0645 0.4464 0.2126
H14 H 1.0927 0.4703 0.1480
C16 C 0.8228(3) 0.43967(6) 0.14043(11)
H15 H 0.7066 0.4343 0.1711
C17 C 0.9057(4) 0.40444(6) 0.11315(11)
C18 C 1.1183(4) 0.39181(7) 0.14099(13)
H16 H 1.1601 0.3709 0.1166
H17 H 1.1084 0.3862 0.1886
H18 H 1.2240 0.4102 0.1358
C19 C 0.7406(4) 0.37601(6) 0.11488(13)
H19 H 0.6080 0.3845 0.0936
H20 H 0.7174 0.3697 0.1615
H21 H 0.7892 0.3554 0.0907
C20 C 0.4913(4) 0.46319(6) 0.29832(13)
H22 H 0.6341 0.4546 0.2906
H23 H 0.4171 0.4679 0.2552
H24 H 0.4138 0.4454 0.3227
C21 C 0.6788(4) 0.49940(7) 0.42600(13)
H25 H 0.6253 0.4803 0.4532
H26 H 0.6770 0.5213 0.4516
H27 H 0.8239 0.4942 0.4141
C22 C 0.2376(4) 0.51534(7) 0.37425(15)
H28 H 0.1724 0.4946 0.3936
H29 H 0.1519 0.5232 0.3350
H30 H 0.2460 0.5341 0.4076
O1 O 0.9371(3) 0.41169(4) 0.04130(8)
O2 O 0.8041(3) 0.44648(4) -0.03850(8)
O3 O 0.5024(2) 0.45127(4) 0.06976(8)
H31 H 0.4344 0.4675 0.0871
O4 O 0.4496(2) 0.51454(4) 0.12570(8)
H32 H 0.3822 0.5270 0.0974
O5 O 0.5067(3) 0.58525(5) 0.37853(9)
Si1 Si 0.50857(10) 0.504138(17) 0.34848(3)
C23 C 0.8639(5) 0.27659(8) 0.69385(14)
C24 C 0.7924(4) 0.29565(7) 0.62946(12)
C25 C 0.9152(4) 0.32974(6) 0.62440(12)
H33 H 1.0679 0.3241 0.6261
H34 H 0.8877 0.3442 0.6643
C26 C 0.8658(4) 0.35178(6) 0.56207(12)
C27 C 0.9734(4) 0.38763(6) 0.57177(13)
H35 H 0.9183 0.3990 0.6119
H36 H 1.1271 0.3840 0.5801
C28 C 0.9391(4) 0.41193(6) 0.51217(13)
H37 H 1.0143 0.4343 0.5213
H38 H 0.7865 0.4172 0.5057
C29 C 1.0193(4) 0.39551(6) 0.44834(12)
C30 C 1.2611(4) 0.39209(7) 0.45218(15)
H39 H 1.3034 0.3749 0.4866
H40 H 1.3244 0.4148 0.4637
H41 H 1.3097 0.3844 0.4087
C31 C 0.9446(4) 0.41460(7) 0.38445(13)
H42 H 0.8325 0.4317 0.3939
H43 H 1.0634 0.4271 0.3644
C32 C 0.8600(4) 0.38623(6) 0.33840(13)
C33 C 0.8234(4) 0.35431(6) 0.37795(12)
C34 C 0.9167(3) 0.35955(6) 0.43917(12)
C35 C 0.9329(3) 0.33548(6) 0.49700(11)
C36 C 1.0124(4) 0.30350(6) 0.48949(12)
H44 H 1.0651 0.2989 0.4466
C37 C 1.0317(4) 0.27360(6) 0.53833(13)
H45 H 1.1492 0.2784 0.5714
H46 H 1.0657 0.2519 0.5140
C38 C 0.8265(4) 0.26821(6) 0.57529(12)
H47 H 0.7051 0.2696 0.5417
C39 C 0.8105(4) 0.23317(7) 0.61363(13)
C40 C 0.9602(5) 0.20436(7) 0.59378(17)
H48 H 1.1063 0.2126 0.5999
H49 H 0.9310 0.1982 0.5467
H50 H 0.9398 0.1837 0.6220
C41 C 0.5845(5) 0.22000(8) 0.61325(16)
H51 H 0.5766 0.1997 0.6430
H52 H 0.5387 0.2132 0.5676
H53 H 0.4923 0.2386 0.6289
C42 C 0.5733(5) 0.28444(8) 0.39755(16)
H54 H 0.4647 0.2697 0.3754
H55 H 0.5135 0.2965 0.4356
H56 H 0.6923 0.2698 0.4135
C43 C 0.8381(5) 0.29704(8) 0.27523(15)
H57 H 0.9596 0.2859 0.2986
H58 H 0.8881 0.3151 0.2450
H59 H 0.7574 0.2794 0.2492
C44 C 0.4300(4) 0.33634(8) 0.29236(15)
H60 H 0.4714 0.3573 0.2678
H61 H 0.3251 0.3427 0.3248
H62 H 0.3688 0.3191 0.2608
O6 O 0.8748(3) 0.24215(5) 0.68305(10)
O7 O 0.9047(4) 0.28922(6) 0.74747(10)
O8 O 0.5722(3) 0.30241(5) 0.63656(10)
H63 H 0.5322 0.3182 0.6097
O9 O 0.6385(2) 0.35672(4) 0.55360(8)
H64 H 0.6013 0.3734 0.5777
O10 O 0.8268(3) 0.38984(5) 0.27829(9)
Si2 Si 0.66682(11) 0.317227(18) 0.33727(4)
C45 C 0.4099(7) 0.30149(11) 0.8061(2)
H65 H 0.5012 0.3034 0.7679
H66 H 0.2999 0.3195 0.8025
H67 H 0.3439 0.2783 0.8059
C46 C 0.5360(7) 0.30629(12) 0.8682(2)
C47 C 0.7731(8) 0.34582(16) 0.9270(2)
H68 H 0.7018 0.3379 0.9674
H69 H 0.7839 0.3717 0.9290
C48 C 0.9835(8) 0.33108(16) 0.9278(3)
H70 H 0.9747 0.3055 0.9310
H71 H 1.0669 0.3402 0.9664
H72 H 1.0515 0.3375 0.8864
O11 O 0.5420(7) 0.28681(13) 0.9148(2)
O12 O 0.6463(5) 0.33610(8) 0.86851(14)
loop_
_geom_bond_atom_site_label_1
_geom_bond_atom_site_label_2
_geom_bond_site_symmetry_1
_geom_bond_site_symmetry_2
C1 C2 1_555 1_555
C2 C3 1_555 1_555
C3 H1 1_555 1_555
H2 C3 1_555 1_555
C4 C3 1_555 1_555
C5 C4 1_555 1_555
H3 C5 1_555 1_555
H4 C5 1_555 1_555
C6 C5 1_555 1_555
H5 C6 1_555 1_555
H6 C6 1_555 1_555
C7 C6 1_555 1_555
C8 C7 1_555 1_555
H7 C8 1_555 1_555
H8 C8 1_555 1_555
H9 C8 1_555 1_555
C9 C7 1_555 1_555
H10 C9 1_555 1_555
H11 C9 1_555 1_555
C10 C9 1_555 1_555
C11 C10 1_555 1_555
C12 C7 1_555 1_555
C13 C4 1_555 1_555
C14 C13 1_555 1_555
H12 C14 1_555 1_555
C15 C14 1_555 1_555
H13 C15 1_555 1_555
H14 C15 1_555 1_555
C16 C2 1_555 1_555
H15 C16 1_555 1_555
C17 C16 1_555 1_555
C18 C17 1_555 1_555
H16 C18 1_555 1_555
H17 C18 1_555 1_555
H18 C18 1_555 1_555
C19 C17 1_555 1_555
H19 C19 1_555 1_555
H20 C19 1_555 1_555
H21 C19 1_555 1_555
C20 H22 1_555 1_555
H23 C20 1_555 1_555
H24 C20 1_555 1_555
C21 H25 1_555 1_555
H26 C21 1_555 1_555
H27 C21 1_555 1_555
C22 H28 1_555 1_555
H29 C22 1_555 1_555
H30 C22 1_555 1_555
O1 C1 1_555 1_555
O2 C1 1_555 1_555
O3 C2 1_555 1_555
H31 O3 1_555 1_555
O4 C4 1_555 1_555
H32 O4 1_555 1_555
O5 C10 1_555 1_555
Si1 C11 1_555 1_555
C23 C24 1_555 1_555
C24 C25 1_555 1_555
C25 H33 1_555 1_555
H34 C25 1_555 1_555
C26 C25 1_555 1_555
C27 C26 1_555 1_555
H35 C27 1_555 1_555
H36 C27 1_555 1_555
C28 C27 1_555 1_555
H37 C28 1_555 1_555
H38 C28 1_555 1_555
C29 C28 1_555 1_555
C30 C29 1_555 1_555
H39 C30 1_555 1_555
H40 C30 1_555 1_555
H41 C30 1_555 1_555
C31 C29 1_555 1_555
H42 C31 1_555 1_555
H43 C31 1_555 1_555
C32 C31 1_555 1_555
C33 C32 1_555 1_555
C34 C29 1_555 1_555
C35 C26 1_555 1_555
C36 C35 1_555 1_555
H44 C36 1_555 1_555
C37 C36 1_555 1_555
H45 C37 1_555 1_555
H46 C37 1_555 1_555
C38 C24 1_555 1_555
H47 C38 1_555 1_555
C39 C38 1_555 1_555
C40 C39 1_555 1_555
H48 C40 1_555 1_555
H49 C40 1_555 1_555
H50 C40 1_555 1_555
C41 C39 1_555 1_555
H51 C41 1_555 1_555
H52 C41 1_555 1_555
H53 C41 1_555 1_555
C42 H54 1_555 1_555
H55 C42 1_555 1_555
H56 C42 1_555 1_555
C43 H57 1_555 1_555
H58 C43 1_555 1_555
H59 C43 1_555 1_555
C44 H60 1_555 1_555
H61 C44 1_555 1_555
H62 C44 1_555 1_555
O6 C23 1_555 1_555
O7 C23 1_555 1_555
O8 C24 1_555 1_555
H63 O8 1_555 1_555
O9 C26 1_555 1_555
H64 O9 1_555 1_555
O10 C32 1_555 1_555
Si2 C33 1_555 1_555
C45 H65 1_555 1_555
H66 C45 1_555 1_555
H67 C45 1_555 1_555
C46 C45 1_555 1_555
C47 H68 1_555 1_555
H69 C47 1_555 1_555
C48 C47 1_555 1_555
H70 C48 1_555 1_555
H71 C48 1_555 1_555
H72 C48 1_555 1_555
O11 C46 1_555 1_555
O12 C46 1_555 1_555
C11 C12 1_555 1_555
C12 C13 1_555 1_555
C15 C16 1_555 1_555
C17 O1 1_555 1_555
C20 Si1 1_555 1_555
C21 Si1 1_555 1_555
C22 Si1 1_555 1_555
C33 C34 1_555 1_555
C34 C35 1_555 1_555
C37 C38 1_555 1_555
C39 O6 1_555 1_555
C42 Si2 1_555 1_555
C43 Si2 1_555 1_555
C44 Si2 1_555 1_555
C47 O12 1_555 1_555

#END
