
#######################################################################
#
#                 Cambridge Crystallographic Data Centre
#                                CCDC 
#
#######################################################################
#
# If this CIF has been generated from an entry in the Cambridge 
# Structural Database, then it will include bibliographic, chemical, 
# crystal, experimental, refinement or atomic coordinate data resulting 
# from the CCDC's data processing and validation procedures.
#
#######################################################################

data_ONAHOB
_chemical_formula_moiety         'C24 H9 F18 P1'
_chemical_name_systematic        tris(2,5-bis(Trifluoromethyl)phenyl)phosphine
_symmetry_cell_setting           triclinic
_symmetry_space_group_name_H-M   'P -1'
_symmetry_Int_Tables_number      2
_space_group_name_Hall           '-P 1'
loop_
_symmetry_equiv_pos_site_id
_symmetry_equiv_pos_as_xyz
1 x,y,z
2 -x,-y,-z
_cell_length_a                   9.9017(6)
_cell_length_b                   14.8952(9)
_cell_length_c                   18.3713(11)
_cell_angle_alpha                100.3820(10)
_cell_angle_beta                 93.6440(10)
_cell_angle_gamma                108.8960(10)
_cell_volume                     2499.82
_exptl_crystal_colour            colorless
_exptl_crystal_description       block
_cell_formula_units_Z            4
loop_
_atom_site_label
_atom_site_type_symbol
_atom_site_fract_x
_atom_site_fract_y
_atom_site_fract_z
P1 P 0.05970(8) 0.21907(5) 0.34120(4)
F1 F -0.04651(19) 0.37323(13) 0.31379(9)
F2 F -0.10671(18) 0.27589(12) 0.20570(10)
F3 F 0.05878(19) 0.08900(12) 0.20726(9)
F4 F -0.02115(18) 0.43013(12) 0.21425(9)
C1 C 0.1869(3) 0.2947(2) 0.28807(15)
F5 F -0.1026(2) 0.11626(13) 0.44961(11)
C2 C 0.1587(3) 0.14070(19) 0.36620(15)
F6 F -0.09121(19) -0.01936(13) 0.25358(11)
F7 F -0.2376(2) 0.19165(14) 0.41353(11)
F8 F -0.2079(2) 0.18542(15) 0.52872(11)
F9 F 0.0773(2) -0.05164(13) 0.19857(11)
C3 C 0.0882(3) 0.3063(2) 0.43128(15)
C4 C 0.2009(3) 0.3947(2) 0.44838(15)
H1 H 0.2703 0.4090 0.4149
C5 C 0.1438(3) 0.0517(2) 0.31833(16)
C6 C 0.1426(3) 0.35329(19) 0.24645(15)
C7 C 0.3246(3) 0.2906(2) 0.28306(15)
H2 H 0.3572 0.2515 0.3104
C8 C -0.0070(3) 0.3582(2) 0.24522(15)
C9 C -0.0121(3) 0.2877(2) 0.48264(16)
C10 C 0.2345(3) 0.4056(2) 0.20303(16)
H3 H 0.2032 0.4450 0.1755
C11 C 0.2110(3) -0.0098(2) 0.33923(17)
H4 H 0.2021 -0.0683 0.3054
C12 C 0.2406(3) 0.1620(2) 0.43521(15)
H5 H 0.2533 0.2216 0.4687
C13 C 0.3046(3) 0.0992(2) 0.45696(16)
C14 C 0.2140(3) 0.4627(2) 0.51367(16)
C15 C 0.4151(3) 0.3423(2) 0.23916(16)
C16 C 0.3708(3) 0.4010(2) 0.19950(16)
H6 H 0.4337 0.4376 0.1702
C17 C 0.2907(3) 0.0128(2) 0.40840(17)
H7 H 0.3354 -0.0301 0.4227
C18 C 0.0040(4) 0.3561(2) 0.54791(17)
H8 H -0.0636 0.3423 0.5824
C19 C -0.1404(4) 0.1953(2) 0.46841(18)
C20 C 0.5637(3) 0.3376(2) 0.23354(18)
C21 C 0.0481(3) 0.0175(2) 0.24427(17)
C22 C 0.1155(4) 0.4431(2) 0.56355(16)
H9 H 0.1247 0.4894 0.6082
C23 C 0.3386(4) 0.5570(2) 0.53162(18)
C24 C 0.3852(4) 0.1259(2) 0.53364(18)
F21 F 0.66599(19) 0.42109(14) 0.26676(12)
F23 F 0.3050(2) 0.14439(16) 0.58619(10)
F24 F 0.4056(3) 0.57704(15) 0.47337(11)
F29 F 0.5889(2) 0.32056(18) 0.16291(11)
F31 F 0.5873(2) 0.26989(15) 0.26475(14)
F32 F 0.4394(2) 0.55608(17) 0.58185(13)
F34 F 0.4310(3) 0.05658(17) 0.55044(11)
F35 F 0.5010(2) 0.20649(17) 0.54329(12)
F36 F 0.2988(3) 0.63026(15) 0.56119(16)
P2 P 0.38603(8) 0.78548(5) 0.15865(4)
F10 F 0.23756(19) 0.74777(12) 0.30679(10)
F11 F 0.16450(17) 0.63198(12) 0.20883(9)
F12 F 0.4292(2) 1.01333(13) 0.21852(10)
F13 F 0.08038(19) 0.79294(12) 0.09253(10)
F14 F 0.19326(18) 0.59956(12) 0.31701(9)
F15 F 0.26947(18) 0.87135(12) 0.04887(10)
F16 F 0.5448(2) 0.94600(12) 0.28122(9)
C25 C 0.3313(3) 0.60217(19) 0.05973(15)
H10 H 0.4000 0.5927 0.0932
F17 F 0.07271(19) 0.79149(12) -0.02469(10)
F18 F 0.6485(2) 1.09074(12) 0.26599(10)
C26 C 0.5394(3) 0.86574(19) 0.12283(15)
C27 C 0.6222(3) 0.73467(19) 0.21290(14)
H11 H 0.6752 0.7705 0.1799
C28 C 0.3024(3) 0.68894(19) 0.07395(15)
C29 C 0.2609(3) 0.5292(2) -0.00272(16)
C30 C 0.4778(3) 0.72490(19) 0.21435(14)
C31 C 0.6158(3) 0.6407(2) 0.30692(16)
H12 H 0.6627 0.6119 0.3377
C32 C 0.1990(3) 0.6997(2) 0.02301(15)
C33 C 0.4041(3) 0.67268(19) 0.26546(15)
C34 C 0.6905(3) 0.6934(2) 0.25849(15)
C35 C 0.6980(3) 0.8987(2) 0.02849(15)
C36 C 0.5874(3) 0.8358(2) 0.05625(15)
H13 H 0.5433 0.7707 0.0292
C37 C 0.4728(3) 0.6303(2) 0.31025(16)
H14 H 0.4211 0.5939 0.3433
C38 C 0.6064(3) 0.96357(19) 0.16074(15)
C39 C 0.2507(3) 0.6633(2) 0.27441(16)
C40 C 0.5579(3) 1.0036(2) 0.23170(17)
C41 C 0.7643(3) 0.9940(2) 0.06704(17)
H15 H 0.8411 1.0369 0.0483
C42 C 0.7424(3) 0.8659(2) -0.04511(17)
C43 C 0.2894(3) 0.4353(2) -0.01727(18)
C44 C 0.7177(3) 1.0259(2) 0.13299(17)
H16 H 0.7624 1.0912 0.1595
C45 C 0.1610(3) 0.5415(2) -0.05244(16)
H17 H 0.1137 0.4918 -0.0952
C46 C 0.1304(3) 0.6267(2) -0.03934(16)
H18 H 0.0617 0.6354 -0.0733
C47 C 0.8480(3) 0.7073(2) 0.25828(17)
C48 C 0.1553(3) 0.7883(2) 0.03535(17)
F19 F 0.39307(18) 0.43255(11) 0.03151(9)
F20 F 0.90154(19) 0.74226(15) 0.20107(11)
F22 F 0.3294(2) 0.41687(14) -0.08528(10)
F25 F 0.7270(2) 0.77174(13) -0.05883(11)
F26 F 0.9271(2) 0.76806(17) 0.31973(11)
F27 F 0.1717(2) 0.36046(13) -0.01560(15)
F28 F 0.6639(2) 0.87769(16) -0.10184(10)
F30 F 0.8727(2) 0.62395(15) 0.25597(14)
F33 F 0.8797(2) 0.91360(15) -0.04999(11)
loop_
_geom_bond_atom_site_label_1
_geom_bond_atom_site_label_2
_geom_bond_site_symmetry_1
_geom_bond_site_symmetry_2
P1 C1 1_555 1_555
F1 C8 1_555 1_555
F2 C8 1_555 1_555
F3 C21 1_555 1_555
F4 C8 1_555 1_555
C1 C6 1_555 1_555
F5 C19 1_555 1_555
C2 P1 1_555 1_555
F6 C21 1_555 1_555
F7 C19 1_555 1_555
F8 C19 1_555 1_555
F9 C21 1_555 1_555
C3 P1 1_555 1_555
C4 C3 1_555 1_555
H1 C4 1_555 1_555
C5 C2 1_555 1_555
C6 C8 1_555 1_555
C7 C1 1_555 1_555
H2 C7 1_555 1_555
C9 C3 1_555 1_555
C10 C6 1_555 1_555
H3 C10 1_555 1_555
C11 C5 1_555 1_555
H4 C11 1_555 1_555
C12 C2 1_555 1_555
H5 C12 1_555 1_555
C13 C12 1_555 1_555
C14 C4 1_555 1_555
C15 C7 1_555 1_555
C16 C10 1_555 1_555
H6 C16 1_555 1_555
C17 C11 1_555 1_555
H7 C17 1_555 1_555
C18 C9 1_555 1_555
H8 C18 1_555 1_555
C19 C9 1_555 1_555
C20 C15 1_555 1_555
C21 C5 1_555 1_555
C22 C14 1_555 1_555
H9 C22 1_555 1_555
C23 C14 1_555 1_555
C24 C13 1_555 1_555
P2 C26 1_555 1_555
F10 C39 1_555 1_555
F11 C39 1_555 1_555
F12 C40 1_555 1_555
F13 C48 1_555 1_555
F14 C39 1_555 1_555
F15 C48 1_555 1_555
F16 C40 1_555 1_555
C25 H10 1_555 1_555
F17 C48 1_555 1_555
F18 C40 1_555 1_555
C26 C36 1_555 1_555
C27 H11 1_555 1_555
C28 P2 1_555 1_555
C29 C25 1_555 1_555
C30 P2 1_555 1_555
C31 H12 1_555 1_555
C32 C28 1_555 1_555
C33 C30 1_555 1_555
C34 C27 1_555 1_555
C35 C36 1_555 1_555
C36 H13 1_555 1_555
C37 C31 1_555 1_555
H14 C37 1_555 1_555
C38 C26 1_555 1_555
C39 C33 1_555 1_555
C40 C38 1_555 1_555
C41 C35 1_555 1_555
H15 C41 1_555 1_555
C42 C35 1_555 1_555
C43 C29 1_555 1_555
C44 C38 1_555 1_555
H16 C44 1_555 1_555
C45 C29 1_555 1_555
H17 C45 1_555 1_555
C46 C32 1_555 1_555
H18 C46 1_555 1_555
C47 C34 1_555 1_555
C48 C32 1_555 1_555
F19 C43 1_555 1_555
F20 C47 1_555 1_555
F21 C20 1_555 1_555
F22 C43 1_555 1_555
F23 C24 1_555 1_555
F24 C23 1_555 1_555
F25 C42 1_555 1_555
F26 C47 1_555 1_555
F27 C43 1_555 1_555
F28 C42 1_555 1_555
F29 C20 1_555 1_555
F30 C47 1_555 1_555
F31 C20 1_555 1_555
F32 C23 1_555 1_555
F33 C42 1_555 1_555
F34 C24 1_555 1_555
F35 C24 1_555 1_555
F36 C23 1_555 1_555
C13 C17 1_555 1_555
C15 C16 1_555 1_555
C18 C22 1_555 1_555
C25 C28 1_555 1_555
C27 C30 1_555 1_555
C31 C34 1_555 1_555
C33 C37 1_555 1_555
C41 C44 1_555 1_555
C45 C46 1_555 1_555

#END
