
#######################################################################
#
#                 Cambridge Crystallographic Data Centre
#                                CCDC 
#
#######################################################################
#
# If this CIF has been generated from an entry in the Cambridge 
# Structural Database, then it will include bibliographic, chemical, 
# crystal, experimental, refinement or atomic coordinate data resulting 
# from the CCDC's data processing and validation procedures.
#
#######################################################################

data_ONAVEF01
_chemical_formula_moiety         'C4 H6 N8'
_chemical_name_systematic        5,5'-Ethane-1,2-diylbis(1H-tetrazole)
_symmetry_cell_setting           monoclinic
_symmetry_space_group_name_H-M   'C 2/m'
_symmetry_Int_Tables_number      12
_space_group_name_Hall           '-C 2y'
loop_
_symmetry_equiv_pos_site_id
_symmetry_equiv_pos_as_xyz
1 x,y,z
2 -x,y,-z
3 1/2+x,1/2+y,z
4 1/2-x,1/2+y,-z
5 -x,-y,-z
6 x,-y,z
7 1/2-x,1/2-y,-z
8 1/2+x,1/2-y,z
_cell_length_a                   10.951(3)
_cell_length_b                   6.678(2)
_cell_length_c                   5.0329(14)
_cell_angle_alpha                90
_cell_angle_beta                 114.250(4)
_cell_angle_gamma                90
_cell_volume                     335.583
_exptl_crystal_colour            colorless
_exptl_crystal_description       block
_cell_formula_units_Z            2
_exptl_crystal_recrystallization_method ethanol
loop_
_atom_site_label
_atom_site_type_symbol
_atom_site_fract_x
_atom_site_fract_y
_atom_site_fract_z
N1 N 0.19695(18) 0.0000 -0.1482(4)
N2 N 0.3293(2) 0.0000 -0.0872(4)
N3 N 0.4005(2) 0.0000 0.1919(4)
N4 N 0.31215(19) 0.0000 0.3136(4)
H1 H 0.3323 0.0000 0.4977
C1 C 0.1877(2) 0.0000 0.1035(5)
C2 C 0.0608(2) 0.0000 0.1451(5)
H2 H 0.0582 0.1175 0.2559
N1A N -0.19695(18) 0.0000 0.1482(4)
N2A N -0.3293(2) 0.0000 0.0872(4)
N3A N -0.4005(2) 0.0000 -0.1919(4)
N4A N -0.31215(19) 0.0000 -0.3136(4)
H1A H -0.3323 0.0000 -0.4977
C1A C -0.1877(2) 0.0000 -0.1035(5)
C2A C -0.0608(2) 0.0000 -0.1451(5)
H2A H -0.0582 0.1175 -0.2559
H2D H -0.0582 -0.1175 -0.2559
H2E H 0.0582 -0.1175 0.2559
loop_
_geom_bond_atom_site_label_1
_geom_bond_atom_site_label_2
_geom_bond_site_symmetry_1
_geom_bond_site_symmetry_2
N1 N2 1_555 1_555
N2 N3 1_555 1_555
N3 N4 1_555 1_555
N4 H1 1_555 1_555
C1 N1 1_555 1_555
C2 C1 1_555 1_555
H2 C2 1_555 1_555
N1A N2A 1_555 1_555
N2A N3A 1_555 1_555
N3A N4A 1_555 1_555
N4A H1A 1_555 1_555
C1A N1A 1_555 1_555
C2A C2 1_555 1_555
H2A C2A 1_555 1_555
H2D C2A 1_555 1_555
H2E C2 1_555 1_555
N4 C1 1_555 1_555
N4A C1A 1_555 1_555
C1A C2A 1_555 1_555

#END
