
#######################################################################
#
#                 Cambridge Crystallographic Data Centre
#                                CCDC 
#
#######################################################################
#
# If this CIF has been generated from an entry in the Cambridge 
# Structural Database, then it will include bibliographic, chemical, 
# crystal, experimental, refinement or atomic coordinate data resulting 
# from the CCDC's data processing and validation procedures.
#
#######################################################################

data_ONEBUF
_chemical_formula_moiety         'C33 H30 N12 S3,0.5(C7 H8)'
_chemical_name_systematic        
'syn-2,4,6-tris(((1-Phenyl-1H-tetrazol-5-yl)sulfanyl)methyl)-1,3,5-trimethylbenzene hemikis(toluene) clathrate'
_symmetry_cell_setting           triclinic
_symmetry_space_group_name_H-M   'P -1'
_symmetry_Int_Tables_number      2
_space_group_name_Hall           '-P 1'
loop_
_symmetry_equiv_pos_site_id
_symmetry_equiv_pos_as_xyz
1 x,y,z
2 -x,-y,-z
_cell_length_a                   13.228(8)
_cell_length_b                   13.625(8)
_cell_length_c                   22.478(13)
_cell_angle_alpha                91.279(5)
_cell_angle_beta                 94.493(10)
_cell_angle_gamma                108.253(9)
_cell_volume                     3830.87
_exptl_crystal_colour            colorless
_exptl_crystal_description       prism
_cell_formula_units_Z            4
loop_
_atom_site_label
_atom_site_type_symbol
_atom_site_fract_x
_atom_site_fract_y
_atom_site_fract_z
S4 S 1.29038(6) 0.32207(6) 0.54844(5)
S5 S 0.87820(10) 0.15914(8) 0.67166(4)
S6 S 0.85193(8) 0.22699(7) 0.40090(4)
N13 N 1.4797(2) 0.4807(2) 0.57756(13)
N14 N 1.5854(2) 0.4951(3) 0.57063(15)
N15 N 1.5985(2) 0.4156(3) 0.54428(15)
N16 N 1.4989(2) 0.3436(2) 0.53307(12)
N17 N 0.8094(2) 0.2202(4) 0.77523(14)
N18 N 0.7743(4) 0.1711(6) 0.82542(19)
N19 N 0.7715(4) 0.0758(6) 0.8237(2)
N20 N 0.8038(2) 0.0569(4) 0.76896(15)
N21 N 0.7206(2) 0.3187(2) 0.33726(11)
N22 N 0.6510(3) 0.2906(3) 0.28649(13)
N23 N 0.6473(2) 0.2009(3) 0.26412(12)
N24 N 0.7159(2) 0.1668(2) 0.30047(10)
C37 C 1.1164(3) 0.4144(3) 0.44431(14)
H31 H 1.0708 0.3762 0.4106
H32 H 1.1819 0.3976 0.4475
H33 H 1.1319 0.4872 0.4390
C38 C 1.0604(2) 0.38604(19) 0.50114(12)
C39 C 1.2423(2) 0.4327(2) 0.56054(14)
H34 H 1.2702 0.4663 0.5996
H35 H 1.2658 0.4828 0.5304
C40 C 1.12077(19) 0.39148(18) 0.55636(11)
C41 C 1.1379(3) 0.3646(3) 0.66742(14)
H36 H 1.1638 0.4345 0.6840
H37 H 1.1974 0.3413 0.6601
H38 H 1.0954 0.3207 0.6951
C42 C 1.0700(2) 0.36043(19) 0.60894(11)
C43 C 0.9016(2) 0.2971(2) 0.66274(14)
H39 H 0.8342 0.3118 0.6597
H40 H 0.9459 0.3369 0.6969
C44 C 0.9577(2) 0.3259(2) 0.60588(12)
C45 C 0.7748(2) 0.2717(3) 0.54734(18)
H41 H 0.7443 0.3253 0.5557
H42 H 0.7553 0.2196 0.5761
H43 H 0.7483 0.2413 0.5080
C46 C 0.8961(2) 0.3177(2) 0.55086(12)
C47 C 0.8818(3) 0.3534(2) 0.44086(14)
H44 H 0.9215 0.4081 0.4168
H45 H 0.8160 0.3662 0.4490
C48 C 0.9478(2) 0.35130(19) 0.49907(12)
C49 C 1.4280(2) 0.3864(3) 0.55381(14)
C50 C 1.4795(3) 0.2473(3) 0.49956(15)
C51 C 1.5153(3) 0.2485(4) 0.44332(17)
H46 H 1.5534 0.3105 0.4277
C52 C 1.4936(4) 0.1559(5) 0.4107(2)
H47 H 1.5179 0.1557 0.3730
C53 C 1.4357(5) 0.0633(5) 0.4335(2)
H48 H 1.4213 0.0012 0.4114
C54 C 1.4000(5) 0.0647(4) 0.4895(3)
H49 H 1.3598 0.0031 0.5047
C55 C 1.4231(4) 0.1559(3) 0.5231(2)
H50 H 1.4008 0.1559 0.5613
C56 C 0.8273(3) 0.1475(4) 0.74141(16)
C57 C 0.8090(4) -0.0412(6) 0.7496(3)
C58 C 0.8993(6) -0.0665(8) 0.7663(4)
H51 H 0.9551 -0.0209 0.7907
C59 C 0.9061(9) -0.1588(12) 0.7467(6)
H52 H 0.9652 -0.1782 0.7599
C60 C 0.8251(13) -0.2257(8) 0.7068(6)
H53 H 0.8321 -0.2867 0.6910
C61 C 0.7329(11) -0.1969(9) 0.6917(6)
H54 H 0.6763 -0.2412 0.6672
C62 C 0.7258(7) -0.1033(7) 0.7130(4)
H55 H 0.6659 -0.0834 0.7026
C63 C 0.7600(2) 0.2412(2) 0.34478(12)
C64 C 0.7387(2) 0.0727(2) 0.28853(12)
C65 C 0.7209(4) -0.0019(3) 0.33053(17)
H56 H 0.6915 0.0073 0.3657
C66 C 0.7476(5) -0.0906(3) 0.3194(2)
H57 H 0.7369 -0.1409 0.3476
C67 C 0.7903(4) -0.1053(3) 0.2664(2)
H58 H 0.8078 -0.1652 0.2592
C68 C 0.8061(3) -0.0311(3) 0.22510(16)
H59 H 0.8341 -0.0409 0.1896
C69 C 0.7810(2) 0.0578(2) 0.23557(13)
H60 H 0.7923 0.1081 0.2073
C1 C 0.4661(9) 0.5779(8) 0.0234(7)
C2 C 0.5085(7) 0.5867(6) -0.0297(6)
C3 C 0.4573(6) 0.4925(7) 0.0534(5)
C73 C 0.410(2) 0.4790(19) 0.1122(8)
C1A C 0.5339(9) 0.4221(8) -0.0234(7)
C2A C 0.4915(7) 0.4133(6) 0.0297(6)
C3A C 0.5427(6) 0.5075(7) -0.0534(5)
C73A C 0.590(2) 0.5210(19) -0.1122(8)
C70 C 0.9648(2) -0.0983(2) 0.50370(13)
C71 C 0.9719(2) -0.0267(2) 0.55800(13)
C72 C 0.9768(2) -0.0784(2) 0.45549(13)
C74 C 0.934(3) -0.0570(16) 0.6165(9)
C70A C 1.0352(2) 0.0983(2) 0.49630(13)
C71A C 1.0281(2) 0.0267(2) 0.44200(13)
C72A C 1.0232(2) 0.0784(2) 0.54451(13)
C74A C 1.066(3) 0.0570(16) 0.3835(9)
S1 S 0.71482(7) 0.35637(5) 0.11225(4)
S2 S 0.52933(8) 0.21795(6) -0.14848(3)
S3 S 0.23919(6) 0.19202(6) 0.04833(4)
N1 N 0.8555(2) 0.32451(19) 0.20176(12)
N2 N 0.9352(2) 0.3878(2) 0.24130(14)
N3 N 0.9451(2) 0.4842(2) 0.23436(14)
N4 N 0.8701(2) 0.48704(18) 0.18915(11)
N5 N 0.5385(3) 0.0845(3) -0.24123(12)
N6 N 0.5494(3) 0.0948(4) -0.30150(15)
N7 N 0.5530(4) 0.1865(4) -0.31757(14)
N8 N 0.5449(3) 0.2410(3) -0.26680(11)
N9 N 0.0524(2) 0.0411(2) 0.07193(14)
N10 N -0.0469(2) 0.0428(3) 0.08568(18)
N11 N -0.0531(2) 0.1358(3) 0.08631(19)
N12 N 0.0446(2) 0.1996(2) 0.07351(14)
C4 C 0.39516(18) 0.10680(17) 0.03383(10)
C5 C 0.3194(2) 0.0565(2) -0.07381(13)
H1 H 0.3019 -0.0171 -0.0801
H2 H 0.3384 0.0893 -0.1105
H3 H 0.2586 0.0724 -0.0608
C6 C 0.41295(18) 0.09563(17) -0.02636(10)
C7 C 0.5356(2) 0.10417(19) -0.10790(11)
H4 H 0.4805 0.0427 -0.1251
H5 H 0.6045 0.0942 -0.1107
C8 C 0.51892(18) 0.12197(16) -0.04300(10)
C9 C 0.7199(2) 0.1983(2) -0.01880(13)
H6 H 0.7505 0.1433 -0.0142
H7 H 0.7621 0.2576 0.0059
H8 H 0.7187 0.2163 -0.0598
C10 C 0.60630(18) 0.16291(17) -0.00023(10)
C11 C 0.6819(2) 0.21514(18) 0.10747(11)
H9 H 0.7428 0.1959 0.0963
H10 H 0.6628 0.1869 0.1458
C12 C 0.58802(18) 0.17380(16) 0.06020(10)
C13 C 0.4629(2) 0.1648(2) 0.14250(12)
H11 H 0.3939 0.1737 0.1439
H12 H 0.5171 0.2255 0.1599
H13 H 0.4653 0.1059 0.1645
C14 C 0.48238(18) 0.14773(17) 0.07785(10)
C15 C 0.2819(2) 0.0768(2) 0.05196(13)
H14 H 0.2796 0.0524 0.0922
H15 H 0.2350 0.0218 0.0251
C16 C 0.5379(3) 0.1765(3) -0.22113(12)
C17 C 0.5469(4) 0.3485(4) -0.26579(17)
C18 C 0.4556(5) 0.3741(5) -0.2743(3)
H16 H 0.3902 0.3224 -0.2823
C19 C 0.4595(6) 0.4774(5) -0.2712(3)
H17 H 0.3967 0.4943 -0.2770
C20 C 0.5499(9) 0.5499(6) -0.2602(4)
H18 H 0.5510 0.6185 -0.2581
C21 C 0.6452(9) 0.5277(7) -0.2515(6)
H19 H 0.7095 0.5808 -0.2433
C22 C 0.6435(6) 0.4202(6) -0.2553(5)
H20 H 0.7059 0.4023 -0.2506
C23 C 0.8163(2) 0.3878(2) 0.16993(13)
C24 C 0.8626(3) 0.5835(2) 0.16714(14)
C25 C 0.9547(3) 0.6613(2) 0.15812(18)
H21 H 1.0209 0.6521 0.1667
C26 C 0.9480(4) 0.7538(3) 0.1360(2)
H22 H 1.0102 0.8070 0.1303
C27 C 0.8515(4) 0.7670(3) 0.1228(2)
H23 H 0.8478 0.8289 0.1076
C28 C 0.7589(4) 0.6893(4) 0.1316(3)
H24 H 0.6930 0.6986 0.1220
C29 C 0.7637(3) 0.5961(3) 0.1550(2)
H25 H 0.7017 0.5440 0.1623
C30 C 0.1073(2) 0.1395(2) 0.06517(14)
C31 C 0.0733(3) 0.3108(3) 0.0741(2)
C32 C 0.0958(9) 0.3608(6) 0.0241(3)
H26 H 0.0898 0.3241 -0.0121
C33 C 0.1284(12) 0.4689(7) 0.0264(5)
H27 H 0.1453 0.5042 -0.0083
C34 C 0.1354(8) 0.5221(6) 0.0782(5)
H28 H 0.1550 0.5939 0.0787
C35 C 0.1150(5) 0.4743(4) 0.1290(4)
H29 H 0.1224 0.5122 0.1649
C36 C 0.0821(4) 0.3656(4) 0.1274(3)
H30 H 0.0664 0.3308 0.1623
loop_
_geom_bond_atom_site_label_1
_geom_bond_atom_site_label_2
_geom_bond_site_symmetry_1
_geom_bond_site_symmetry_2
S1 C11 1_555 1_555
S2 C7 1_555 1_555
S3 C15 1_555 1_555
S4 C39 1_555 1_555
S5 C43 1_555 1_555
S6 C47 1_555 1_555
N1 N2 1_555 1_555
N2 N3 1_555 1_555
N3 N4 1_555 1_555
N4 C23 1_555 1_555
N5 N6 1_555 1_555
N6 N7 1_555 1_555
N7 N8 1_555 1_555
N8 C16 1_555 1_555
N9 N10 1_555 1_555
N10 N11 1_555 1_555
N11 N12 1_555 1_555
N12 C30 1_555 1_555
N13 N14 1_555 1_555
N14 N15 1_555 1_555
N15 N16 1_555 1_555
N16 C49 1_555 1_555
N17 N18 1_555 1_555
N18 N19 1_555 1_555
N19 N20 1_555 1_555
N20 C56 1_555 1_555
N21 N22 1_555 1_555
N22 N23 1_555 1_555
N23 N24 1_555 1_555
N24 C63 1_555 1_555
C1 C2 1_555 1_555
C2 C3A 1_555 1_555
C3 C1 1_555 1_555
C4 C6 1_555 1_555
C5 H1 1_555 1_555
H2 C5 1_555 1_555
H3 C5 1_555 1_555
C6 C5 1_555 1_555
C7 H4 1_555 1_555
H5 C7 1_555 1_555
C8 C6 1_555 1_555
C9 H6 1_555 1_555
H7 C9 1_555 1_555
H8 C9 1_555 1_555
C10 C8 1_555 1_555
C11 H9 1_555 1_555
H10 C11 1_555 1_555
C12 C10 1_555 1_555
C13 H11 1_555 1_555
H12 C13 1_555 1_555
H13 C13 1_555 1_555
C14 C4 1_555 1_555
C15 C4 1_555 1_555
H14 C15 1_555 1_555
H15 C15 1_555 1_555
C16 S2 1_555 1_555
C17 N8 1_555 1_555
C18 C17 1_555 1_555
H16 C18 1_555 1_555
C19 C18 1_555 1_555
H17 C19 1_555 1_555
C20 C19 1_555 1_555
H18 C20 1_555 1_555
C21 C20 1_555 1_555
H19 C21 1_555 1_555
C22 C17 1_555 1_555
H20 C22 1_555 1_555
C23 S1 1_555 1_555
C24 N4 1_555 1_555
C25 C24 1_555 1_555
H21 C25 1_555 1_555
C26 C25 1_555 1_555
H22 C26 1_555 1_555
C27 C26 1_555 1_555
H23 C27 1_555 1_555
C28 C27 1_555 1_555
H24 C28 1_555 1_555
C29 C24 1_555 1_555
H25 C29 1_555 1_555
C30 S3 1_555 1_555
C31 N12 1_555 1_555
C32 C31 1_555 1_555
H26 C32 1_555 1_555
C33 C32 1_555 1_555
H27 C33 1_555 1_555
C34 C33 1_555 1_555
H28 C34 1_555 1_555
C35 C34 1_555 1_555
H29 C35 1_555 1_555
C36 C31 1_555 1_555
H30 C36 1_555 1_555
C37 H31 1_555 1_555
H32 C37 1_555 1_555
H33 C37 1_555 1_555
C38 C37 1_555 1_555
C39 H34 1_555 1_555
H35 C39 1_555 1_555
C40 C38 1_555 1_555
C41 H36 1_555 1_555
H37 C41 1_555 1_555
H38 C41 1_555 1_555
C42 C40 1_555 1_555
C43 H39 1_555 1_555
H40 C43 1_555 1_555
C44 C42 1_555 1_555
C45 H41 1_555 1_555
H42 C45 1_555 1_555
H43 C45 1_555 1_555
C46 C44 1_555 1_555
C47 H44 1_555 1_555
H45 C47 1_555 1_555
C48 C38 1_555 1_555
C49 S4 1_555 1_555
C50 N16 1_555 1_555
C51 C50 1_555 1_555
H46 C51 1_555 1_555
C52 C51 1_555 1_555
H47 C52 1_555 1_555
C53 C52 1_555 1_555
H48 C53 1_555 1_555
C54 C53 1_555 1_555
H49 C54 1_555 1_555
C55 C50 1_555 1_555
H50 C55 1_555 1_555
C56 S5 1_555 1_555
C57 N20 1_555 1_555
C58 C57 1_555 1_555
H51 C58 1_555 1_555
C59 C58 1_555 1_555
H52 C59 1_555 1_555
C60 C59 1_555 1_555
H53 C60 1_555 1_555
C61 C60 1_555 1_555
H54 C61 1_555 1_555
C62 C57 1_555 1_555
H55 C62 1_555 1_555
C63 S6 1_555 1_555
C64 N24 1_555 1_555
C65 C64 1_555 1_555
H56 C65 1_555 1_555
C66 C65 1_555 1_555
H57 C66 1_555 1_555
C67 C66 1_555 1_555
H58 C67 1_555 1_555
C68 C67 1_555 1_555
H59 C68 1_555 1_555
C69 C64 1_555 1_555
H60 C69 1_555 1_555
C70 C71 1_555 1_555
C71 C74 1_555 1_555
C72 C70 1_555 1_555
C73 C3 1_555 1_555
C1A C2A 1_555 1_555
C2A C3 1_555 1_555
C3A C1A 1_555 1_555
C70A C71A 1_555 1_555
C71A C72 1_555 1_555
C72A C71 1_555 1_555
C73A C3A 1_555 1_555
C74A C71A 1_555 1_555
N1 C23 1_555 1_555
N5 C16 1_555 1_555
N9 C30 1_555 1_555
N13 C49 1_555 1_555
N17 C56 1_555 1_555
N21 C63 1_555 1_555
C7 C8 1_555 1_555
C9 C10 1_555 1_555
C11 C12 1_555 1_555
C12 C14 1_555 1_555
C13 C14 1_555 1_555
C21 C22 1_555 1_555
C28 C29 1_555 1_555
C35 C36 1_555 1_555
C39 C40 1_555 1_555
C41 C42 1_555 1_555
C43 C44 1_555 1_555
C45 C46 1_555 1_555
C46 C48 1_555 1_555
C47 C48 1_555 1_555
C54 C55 1_555 1_555
C61 C62 1_555 1_555
C68 C69 1_555 1_555
C70A C72A 1_555 1_555

#END
