
#######################################################################
#
#                 Cambridge Crystallographic Data Centre
#                                CCDC 
#
#######################################################################
#
# If this CIF has been generated from an entry in the Cambridge 
# Structural Database, then it will include bibliographic, chemical, 
# crystal, experimental, refinement or atomic coordinate data resulting 
# from the CCDC's data processing and validation procedures.
#
#######################################################################

data_ONECIU
_chemical_formula_moiety         'C33 H30 N12 S3,0.5(C4 H8 O1)'
_chemical_name_systematic        
'syn-2,4,6-tris(((1-Phenyl-1H-tetrazol-5-yl)sulfanyl)methyl)-1,3,5-trimethylbenzene hemikis(tetrahydrofuran) clathrate'
_symmetry_cell_setting           triclinic
_symmetry_space_group_name_H-M   'P -1'
_symmetry_Int_Tables_number      2
_space_group_name_Hall           '-P 1'
loop_
_symmetry_equiv_pos_site_id
_symmetry_equiv_pos_as_xyz
1 x,y,z
2 -x,-y,-z
_cell_length_a                   13.198(5)
_cell_length_b                   13.304(5)
_cell_length_c                   22.199(8)
_cell_angle_alpha                92.334(6)
_cell_angle_beta                 93.410(3)
_cell_angle_gamma                108.509(5)
_cell_volume                     3682.35
_exptl_crystal_colour            colorless
_exptl_crystal_description       prism
_cell_formula_units_Z            4
loop_
_atom_site_label
_atom_site_type_symbol
_atom_site_fract_x
_atom_site_fract_y
_atom_site_fract_z
S4 S 1.12426(9) 0.84489(7) 0.33282(4)
S5 S 1.14411(9) 0.77475(7) 0.60139(4)
S6 S 0.71202(6) 0.68135(6) 0.45442(5)
N13 N 1.1966(2) 0.7870(3) 0.22794(14)
N14 N 1.2315(3) 0.8385(4) 0.17697(16)
N15 N 1.2345(3) 0.9359(4) 0.18130(17)
N16 N 1.1999(2) 0.9520(3) 0.23626(14)
N17 N 1.2757(3) 0.6834(2) 0.66214(13)
N18 N 1.3470(3) 0.7134(3) 0.71245(14)
N19 N 1.3505(3) 0.8048(3) 0.73566(13)
N20 N 1.2813(2) 0.8376(2) 0.70036(11)
N21 N 0.5235(2) 0.5210(2) 0.42305(14)
N22 N 0.4179(2) 0.5065(3) 0.42899(16)
N23 N 0.4053(2) 0.5889(3) 0.45520(15)
N24 N 0.5041(2) 0.6608(2) 0.46803(13)
C34 C 0.8654(3) 0.6356(3) 0.33369(16)
H31 H 0.8368 0.5636 0.3170
H32 H 0.9102 0.6785 0.3056
H33 H 0.8075 0.6626 0.3411
C35 C 0.9305(2) 0.6390(2) 0.39228(13)
C36 C 1.0428(2) 0.6737(2) 0.39578(13)
C37 C 1.1000(3) 0.7037(2) 0.33871(15)
H34 H 1.0559 0.6638 0.3037
H35 H 1.1672 0.6884 0.3411
C38 C 1.1766(3) 0.8598(3) 0.26301(16)
C39 C 1.1895(4) 1.0495(4) 0.2575(2)
C40 C 1.2598(10) 1.1095(7) 0.2995(4)
H36 H 1.3189 1.0908 0.3132
C41 C 1.2440(18) 1.2015(11) 0.3230(6)
H37 H 1.2908 1.2414 0.3546
C42 C 1.1681(18) 1.2327(10) 0.3029(6)
H38 H 1.1620 1.2963 0.3184
C43 C 1.0928(9) 1.1713(9) 0.2572(7)
H39 H 1.0366 1.1935 0.2423
C44 C 1.1045(6) 1.0768(6) 0.2350(4)
H40 H 1.0555 1.0333 0.2054
C45 C 1.2237(2) 0.7257(3) 0.4546(2)
H41 H 1.2528 0.6703 0.4441
H42 H 1.2498 0.7542 0.4951
H43 H 1.2454 0.7811 0.4271
C46 C 1.1025(2) 0.6810(2) 0.45078(14)
C47 C 1.0491(2) 0.6475(2) 0.50274(13)
C48 C 1.1127(3) 0.6458(2) 0.56064(15)
H44 H 1.1783 0.6315 0.5521
H45 H 1.0715 0.5904 0.5849
C49 C 1.2368(3) 0.7615(2) 0.65594(13)
C50 C 1.2577(3) 0.9334(2) 0.71363(14)
C51 C 1.2149(3) 0.9459(3) 0.76674(15)
H46 H 1.2032 0.8939 0.7946
C52 C 1.1891(3) 1.0372(3) 0.77825(18)
H47 H 1.1613 1.0476 0.8146
C53 C 1.2041(4) 1.1122(3) 0.7368(2)
H48 H 1.1859 1.1732 0.7447
C54 C 1.2461(5) 1.0975(3) 0.6833(2)
H49 H 1.2557 1.1484 0.6548
C55 C 1.2741(4) 1.0082(3) 0.67155(17)
H50 H 1.3038 0.9987 0.6356
C56 C 0.8795(3) 0.5875(3) 0.55761(16)
H51 H 0.8539 0.5118 0.5600
H52 H 0.8199 0.6143 0.5569
H53 H 0.9282 0.6194 0.5921
C57 C 0.9367(2) 0.6144(2) 0.50046(13)
C58 C 0.8787(2) 0.60865(19) 0.44526(13)
C59 C 0.7575(2) 0.5670(2) 0.44136(16)
H54 H 0.7329 0.5161 0.4717
H55 H 0.7298 0.5323 0.4018
C60 C 0.5750(2) 0.6171(3) 0.44757(16)
C61 C 0.5232(3) 0.7593(3) 0.50170(16)
C62 C 0.4846(3) 0.7599(4) 0.55779(19)
H56 H 0.4442 0.6971 0.5734
C63 C 0.5071(4) 0.8560(5) 0.5904(2)
H57 H 0.4802 0.8579 0.6280
C64 C 0.5682(4) 0.9483(4) 0.5684(2)
H58 H 0.5833 1.0123 0.5911
C65 C 0.6074(4) 0.9464(4) 0.5125(3)
H59 H 0.6504 1.0089 0.4978
C66 C 0.5828(4) 0.8515(3) 0.4781(2)
H60 H 0.6064 0.8502 0.4395
O1 O 0.4967(12) 0.4116(12) -0.0070(9)
C67 C 0.466(2) 0.463(2) -0.0585(13)
C68 C 0.587(2) 0.508(2) 0.0030(14)
C69 C 0.549(2) 0.503(2) -0.0577(12)
C70 C 0.4954(17) 0.4368(18) 0.0451(11)
O1A O 0.5033(12) 0.5884(12) 0.0070(9)
C67A C 0.534(2) 0.537(2) 0.0585(13)
C68A C 0.413(2) 0.492(2) -0.0030(14)
C69A C 0.451(2) 0.497(2) 0.0577(12)
C70A C 0.5046(17) 0.5632(18) -0.0451(11)
O2 O 1.0116(18) 1.0796(17) 0.5265(10)
C71 C 0.9129(19) 1.0065(18) 0.5199(11)
C72 C 1.1011(15) 1.0315(14) 0.5301(10)
C73 C 1.017(2) 1.0001(19) 0.5626(11)
C74 C 1.054(2) 1.077(2) 0.4672(13)
O2A O 0.9884(18) 0.9204(17) 0.4735(10)
C71A C 1.0871(19) 0.9935(18) 0.4801(11)
C72A C 0.8989(15) 0.9685(14) 0.4699(10)
C73A C 0.983(2) 0.9999(19) 0.4374(11)
C74A C 0.946(2) 0.923(2) 0.5328(13)
S1 S 0.53163(8) 0.22704(6) -0.14467(3)
S2 S 0.71689(7) 0.35848(6) 0.11326(4)
S3 S 0.24426(6) 0.20203(6) 0.05621(5)
N1 N 0.5349(3) 0.0949(3) -0.24213(13)
N2 N 0.5421(4) 0.1068(4) -0.30302(16)
N3 N 0.5456(4) 0.2017(4) -0.31664(15)
N4 N 0.5406(3) 0.2543(3) -0.26398(13)
N5 N 0.8564(2) 0.3251(2) 0.20061(14)
N6 N 0.9371(3) 0.3891(3) 0.23957(17)
N7 N 0.9517(3) 0.4882(3) 0.23158(17)
N8 N 0.8775(2) 0.4911(2) 0.18741(13)
N9 N 0.0527(2) 0.0494(2) 0.07251(16)
N10 N -0.0479(2) 0.0514(3) 0.0814(2)
N11 N -0.0522(2) 0.1459(3) 0.0826(2)
N12 N 0.0481(2) 0.2106(2) 0.07466(15)
C1 C 0.3176(2) 0.0624(2) -0.07137(14)
H1 H 0.3395 0.0906 -0.1094
H2 H 0.2606 0.0868 -0.0588
H3 H 0.2930 -0.0138 -0.0758
C2 C 0.41158(19) 0.09957(18) -0.02441(11)
C3 C 0.5159(2) 0.12319(18) -0.04233(11)
C4 C 0.5321(2) 0.1069(2) -0.10817(12)
H4 H 0.4749 0.0462 -0.1267
H5 H 0.5998 0.0942 -0.1124
C5 C 0.5357(3) 0.1875(3) -0.21954(14)
C6 C 0.5399(4) 0.3628(4) -0.26034(18)
C7 C 0.6255(8) 0.4348(6) -0.2421(7)
H6 H 0.6883 0.4190 -0.2333
C8 C 0.6238(11) 0.5442(6) -0.2350(8)
H7 H 0.6852 0.5986 -0.2203
C9 C 0.5344(10) 0.5650(6) -0.2497(4)
H8 H 0.5324 0.6342 -0.2456
C10 C 0.4540(7) 0.4923(5) -0.2689(4)
H9 H 0.3915 0.5073 -0.2800
C11 C 0.4543(6) 0.3884(5) -0.2743(4)
H10 H 0.3914 0.3352 -0.2884
C12 C 0.7167(2) 0.1929(2) -0.01916(14)
H11 H 0.7454 0.1361 -0.0126
H12 H 0.7602 0.2558 0.0041
H13 H 0.7162 0.2064 -0.0613
C13 C 0.60376(19) 0.16208(18) 0.00012(12)
C14 C 0.58631(19) 0.17397(18) 0.06142(11)
C15 C 0.6804(2) 0.2142(2) 0.10784(13)
H14 H 0.7401 0.1926 0.0954
H15 H 0.6610 0.1859 0.1467
C16 C 0.8200(3) 0.3903(2) 0.16918(15)
C17 C 0.8736(3) 0.5895(2) 0.16456(17)
C18 C 0.9666(3) 0.6658(3) 0.1540(2)
H16 H 1.0320 0.6553 0.1630
C19 C 0.9635(4) 0.7592(3) 0.1297(2)
H17 H 1.0271 0.8113 0.1226
C20 C 0.8688(4) 0.7752(3) 0.1164(2)
H18 H 0.8668 0.8370 0.0989
C21 C 0.7761(4) 0.6999(3) 0.1289(3)
H19 H 0.7109 0.7115 0.1207
C22 C 0.7775(3) 0.6057(3) 0.1539(2)
H20 H 0.7143 0.5552 0.1631
C23 C 0.4636(3) 0.1686(3) 0.14562(13)
H21 H 0.3961 0.1808 0.1481
H22 H 0.5202 0.2294 0.1634
H23 H 0.4630 0.1072 0.1670
C24 C 0.4818(2) 0.15028(19) 0.08016(11)
C25 C 0.39506(19) 0.11118(18) 0.03669(12)
C26 C 0.2822(2) 0.0821(2) 0.05608(14)
H24 H 0.2791 0.0554 0.0962
H25 H 0.2338 0.0275 0.0282
C27 C 0.1107(2) 0.1492(3) 0.06823(15)
C28 C 0.0798(4) 0.3241(4) 0.0767(3)
C29 C 0.0981(5) 0.3793(4) 0.1315(4)
H26 H 0.0854 0.3434 0.1668
C30 C 0.1364(7) 0.4908(5) 0.1344(6)
H27 H 0.1513 0.5295 0.1715
C31 C 0.1509(10) 0.5399(7) 0.0835(8)
H28 H 0.1762 0.6137 0.0851
C32 C 0.1304(16) 0.4869(9) 0.0313(7)
H29 H 0.1436 0.5236 -0.0036
C33 C 0.0872(13) 0.3711(8) 0.0262(5)
H30 H 0.0663 0.3331 -0.0111
loop_
_geom_bond_atom_site_label_1
_geom_bond_atom_site_label_2
_geom_bond_site_symmetry_1
_geom_bond_site_symmetry_2
S1 C4 1_555 1_555
S2 C15 1_555 1_555
S3 C26 1_555 1_555
S4 C37 1_555 1_555
S5 C48 1_555 1_555
S6 C59 1_555 1_555
O1 C67 1_555 1_555
O2 C71 1_555 1_555
N1 N2 1_555 1_555
N2 N3 1_555 1_555
N3 N4 1_555 1_555
N4 C5 1_555 1_555
N5 N6 1_555 1_555
N6 N7 1_555 1_555
N7 N8 1_555 1_555
N8 C16 1_555 1_555
N9 N10 1_555 1_555
N10 N11 1_555 1_555
N11 N12 1_555 1_555
N12 C27 1_555 1_555
N13 N14 1_555 1_555
N14 N15 1_555 1_555
N15 N16 1_555 1_555
N16 C38 1_555 1_555
N17 N18 1_555 1_555
N18 N19 1_555 1_555
N19 N20 1_555 1_555
N20 C49 1_555 1_555
N21 N22 1_555 1_555
N22 N23 1_555 1_555
N23 N24 1_555 1_555
N24 C60 1_555 1_555
C1 H1 1_555 1_555
H2 C1 1_555 1_555
H3 C1 1_555 1_555
C2 C1 1_555 1_555
C3 C2 1_555 1_555
C4 C3 1_555 1_555
H4 C4 1_555 1_555
H5 C4 1_555 1_555
C5 S1 1_555 1_555
C6 N4 1_555 1_555
C7 C6 1_555 1_555
H6 C7 1_555 1_555
C8 C7 1_555 1_555
H7 C8 1_555 1_555
C9 C8 1_555 1_555
H8 C9 1_555 1_555
C10 C9 1_555 1_555
H9 C10 1_555 1_555
C11 C6 1_555 1_555
H10 C11 1_555 1_555
C12 H11 1_555 1_555
H12 C12 1_555 1_555
H13 C12 1_555 1_555
C13 C3 1_555 1_555
C14 C13 1_555 1_555
C15 C14 1_555 1_555
H14 C15 1_555 1_555
H15 C15 1_555 1_555
C16 S2 1_555 1_555
C17 N8 1_555 1_555
C18 C17 1_555 1_555
H16 C18 1_555 1_555
C19 C18 1_555 1_555
H17 C19 1_555 1_555
C20 C19 1_555 1_555
H18 C20 1_555 1_555
C21 C20 1_555 1_555
H19 C21 1_555 1_555
C22 C17 1_555 1_555
H20 C22 1_555 1_555
C23 H21 1_555 1_555
H22 C23 1_555 1_555
H23 C23 1_555 1_555
C24 C14 1_555 1_555
C25 C2 1_555 1_555
C26 C25 1_555 1_555
H24 C26 1_555 1_555
H25 C26 1_555 1_555
C27 S3 1_555 1_555
C28 N12 1_555 1_555
C29 C28 1_555 1_555
H26 C29 1_555 1_555
C30 C29 1_555 1_555
H27 C30 1_555 1_555
C31 C30 1_555 1_555
H28 C31 1_555 1_555
C32 C31 1_555 1_555
H29 C32 1_555 1_555
C33 C28 1_555 1_555
H30 C33 1_555 1_555
C34 H31 1_555 1_555
H32 C34 1_555 1_555
H33 C34 1_555 1_555
C35 C34 1_555 1_555
C36 C35 1_555 1_555
C37 C36 1_555 1_555
H34 C37 1_555 1_555
H35 C37 1_555 1_555
C38 S4 1_555 1_555
C39 N16 1_555 1_555
C40 C39 1_555 1_555
H36 C40 1_555 1_555
C41 C40 1_555 1_555
H37 C41 1_555 1_555
C42 C41 1_555 1_555
H38 C42 1_555 1_555
C43 C42 1_555 1_555
H39 C43 1_555 1_555
C44 C39 1_555 1_555
H40 C44 1_555 1_555
C45 H41 1_555 1_555
H42 C45 1_555 1_555
H43 C45 1_555 1_555
C46 C36 1_555 1_555
C47 C46 1_555 1_555
C48 C47 1_555 1_555
H44 C48 1_555 1_555
H45 C48 1_555 1_555
C49 S5 1_555 1_555
C50 N20 1_555 1_555
C51 C50 1_555 1_555
H46 C51 1_555 1_555
C52 C51 1_555 1_555
H47 C52 1_555 1_555
C53 C52 1_555 1_555
H48 C53 1_555 1_555
C54 C53 1_555 1_555
H49 C54 1_555 1_555
C55 C50 1_555 1_555
H50 C55 1_555 1_555
C56 H51 1_555 1_555
H52 C56 1_555 1_555
H53 C56 1_555 1_555
C57 C47 1_555 1_555
C58 C35 1_555 1_555
C59 C58 1_555 1_555
H54 C59 1_555 1_555
H55 C59 1_555 1_555
C60 S6 1_555 1_555
C61 N24 1_555 1_555
C62 C61 1_555 1_555
H56 C62 1_555 1_555
C63 C62 1_555 1_555
H57 C63 1_555 1_555
C64 C63 1_555 1_555
H58 C64 1_555 1_555
C65 C64 1_555 1_555
H59 C65 1_555 1_555
C66 C61 1_555 1_555
H60 C66 1_555 1_555
C67 C69 1_555 1_555
C68 O1 1_555 1_555
C69 O1 1_555 1_555
C70 O1 1_555 1_555
C71 C73 1_555 1_555
C72 O2 1_555 1_555
C73 O2 1_555 1_555
C74 O2 1_555 1_555
O1A C67A 1_555 1_555
O2A C71A 1_555 1_555
C67A C68 1_555 1_555
C68A C67 1_555 1_555
C69A C70 1_555 1_555
C70A C67 1_555 1_555
C71A C72 1_555 1_555
C72A C71 1_555 1_555
C73A C74 1_555 1_555
C74A C71 1_555 1_555
N1 C5 1_555 1_555
N5 C16 1_555 1_555
N9 C27 1_555 1_555
N13 C38 1_555 1_555
N17 C49 1_555 1_555
N21 C60 1_555 1_555
C10 C11 1_555 1_555
C12 C13 1_555 1_555
C21 C22 1_555 1_555
C23 C24 1_555 1_555
C24 C25 1_555 1_555
C32 C33 1_555 1_555
C43 C44 1_555 1_555
C45 C46 1_555 1_555
C54 C55 1_555 1_555
C56 C57 1_555 1_555
C57 C58 1_555 1_555
C65 C66 1_555 1_555
C68 C69 1_555 1_555
C68 C70 1_555 1_555
C69 C70A 1_555 1_555
C70 C67A 1_555 1_555
C72 C73 1_555 1_555
C72 C74 1_555 1_555
C73 C74A 1_555 1_555
C74 C71A 1_555 1_555
O1A C68A 1_555 1_555
O1A C69A 1_555 1_555
O1A C70A 1_555 1_555
O2A C72A 1_555 1_555
O2A C73A 1_555 1_555
O2A C74A 1_555 1_555
C67A C69A 1_555 1_555
C68A C69A 1_555 1_555
C68A C70A 1_555 1_555
C71A C73A 1_555 1_555
C72A C73A 1_555 1_555
C72A C74A 1_555 1_555

#END
