
#######################################################################
#
#                 Cambridge Crystallographic Data Centre
#                                CCDC 
#
#######################################################################
#
# If this CIF has been generated from an entry in the Cambridge 
# Structural Database, then it will include bibliographic, chemical, 
# crystal, experimental, refinement or atomic coordinate data resulting 
# from the CCDC's data processing and validation procedures.
#
#######################################################################

data_ONEDOB
_chemical_formula_moiety         'C33 H30 N12 S3,C6 H5 I1'
_chemical_name_systematic        
'syn-2,4,6-tris(((1-Phenyl-1H-tetrazol-5-yl)sulfanyl)methyl)-1,3,5-trimethylbenzene iodobenzene clathrate'
_symmetry_cell_setting           trigonal
_symmetry_space_group_name_H-M   'P -3 c 1'
_symmetry_Int_Tables_number      165
_space_group_name_Hall           '-P 3 2"c'
loop_
_symmetry_equiv_pos_site_id
_symmetry_equiv_pos_as_xyz
1 x,y,z
2 -y,x-y,z
3 -x+y,-x,z
4 x-y,-y,1/2-z
5 -x,-x+y,1/2-z
6 y,x,1/2-z
7 -x,-y,-z
8 y,-x+y,-z
9 x-y,x,-z
10 -x+y,y,1/2+z
11 x,x-y,1/2+z
12 -y,-x,1/2+z
_cell_length_a                   13.1135(19)
_cell_length_b                   13.1135(19)
_cell_length_c                   27.249(5)
_cell_angle_alpha                90
_cell_angle_beta                 90
_cell_angle_gamma                120
_cell_volume                     4058.06
_exptl_crystal_colour            colorless
_exptl_crystal_description       prism
_cell_formula_units_Z            4
loop_
_atom_site_label
_atom_site_type_symbol
_atom_site_fract_x
_atom_site_fract_y
_atom_site_fract_z
I1 I -0.0003(8) 0.0001(7) 0.42962(14)
C12 C 0.1225(8) 0.0595(7) 0.33192(14)
C13 C -0.0003(8) 0.0001(7) 0.34902(14)
C14 C 0.151(4) 0.126(4) 0.2843(16)
C15 C 0.038(4) 0.135(4) 0.2684(18)
C16 C 0.169(4) 0.054(4) 0.2930(19)
I1D I 0.0003(8) 0.0004(11) 0.07038(14)
C12D C -0.1225(8) -0.0630(11) 0.16808(14)
C12C C 0.0630(11) -0.0595(7) 0.16808(14)
C12A C -0.0595(7) 0.0630(11) 0.33192(14)
C12B C -0.0630(11) -0.1225(8) 0.33192(14)
C12E C 0.0595(7) 0.1225(8) 0.16808(14)
C13D C 0.0003(8) 0.0004(11) 0.15098(14)
C14D C -0.151(4) -0.025(6) 0.2157(16)
C14C C 0.025(6) -0.126(4) 0.2157(16)
C14A C -0.126(4) 0.025(6) 0.2843(16)
C14B C -0.025(6) -0.151(4) 0.2843(16)
C14E C 0.126(4) 0.151(4) 0.2157(16)
C15D C -0.038(4) 0.097(6) 0.2316(18)
C15C C -0.097(6) -0.135(4) 0.2316(18)
C15A C -0.135(4) -0.097(6) 0.2684(18)
C15B C 0.097(6) -0.038(4) 0.2684(18)
C15E C 0.135(4) 0.038(4) 0.2316(18)
C16E C 0.054(4) 0.169(4) 0.2070(19)
C16A C -0.054(4) 0.115(6) 0.2930(19)
C16C C 0.115(6) -0.054(4) 0.2070(19)
C16B C -0.115(6) -0.169(4) 0.2930(19)
C16D C -0.169(4) -0.115(6) 0.2070(19)
S1 S 0.39039(15) 0.42669(14) 0.36786(5)
N1 N 0.4350(8) 0.2803(7) 0.3121(2)
N2 N 0.4564(10) 0.1907(9) 0.3203(3)
N3 N 0.4581(10) 0.1732(7) 0.3653(3)
N4 N 0.4387(5) 0.2536(5) 0.3886(2)
C1 C 0.1390(6) 0.4251(5) 0.3096(2)
H1 H 0.1044 0.4051 0.2767
H2 H 0.0793 0.4181 0.3332
H3 H 0.1670 0.3711 0.3189
C2 C 0.2415(4) 0.5504(4) 0.30974(16)
C3 C 0.3567(5) 0.5738(4) 0.30919(16)
C4 C 0.3831(6) 0.4752(5) 0.30601(18)
H4 H 0.4592 0.5025 0.2890
H5 H 0.3207 0.4090 0.2871
C5 C 0.4223(6) 0.3159(6) 0.3539(2)
C6 C 0.4328(6) 0.2563(5) 0.4410(2)
C7 C 0.5040(6) 0.3583(6) 0.4657(3)
H6 H 0.5556 0.4274 0.4479
C8 C 0.5020(9) 0.3620(8) 0.5158(3)
H7 H 0.5515 0.4329 0.5330
C9 C 0.4260(11) 0.2600(10) 0.5411(3)
H8 H 0.4229 0.2608 0.5759
C10 C 0.3548(11) 0.1571(9) 0.5157(4)
H9 H 0.3033 0.0872 0.5331
C11 C 0.3582(8) 0.1559(7) 0.46562(14)
H10 H 0.3089 0.0854 0.4481
S1A S 0.57331(14) 0.96370(21) 0.36786(5)
S1B S 0.03630(21) 0.60961(15) 0.36786(5)
N1A N 0.7197(7) 1.1547(11) 0.3121(2)
N1B N -0.1547(11) 0.5650(8) 0.3121(2)
N2A N 0.8093(9) 1.2657(13) 0.3203(3)
N2B N -0.2657(13) 0.5436(10) 0.3203(3)
N3A N 0.8268(7) 1.2849(12) 0.3653(3)
N3B N -0.2849(12) 0.5419(10) 0.3653(3)
N4A N 0.7464(5) 1.1851(7) 0.3886(2)
N4B N -0.1851(7) 0.5613(5) 0.3886(2)
C1B C 0.2861(8) 0.8610(6) 0.3096(2)
C1A C 0.5749(5) 0.7139(8) 0.3096(2)
H1B H 0.3007 0.8956 0.2767
H1A H 0.5949 0.6993 0.2767
H2B H 0.3388 0.9207 0.3332
H2A H 0.5819 0.6612 0.3332
H3B H 0.2041 0.8330 0.3189
H3A H 0.6289 0.7959 0.3189
C2B C 0.3089(6) 0.7585(4) 0.30974(16)
C2A C 0.4496(4) 0.6911(6) 0.30974(16)
C3B C 0.2171(6) 0.6433(5) 0.30919(16)
C3A C 0.4262(4) 0.7829(6) 0.30919(16)
C4A C 0.5248(5) 0.9079(8) 0.30601(18)
C4B C 0.0921(8) 0.6169(6) 0.30601(18)
H4A H 0.4975 0.9567 0.2890
H4B H 0.0433 0.5408 0.2890
H5A H 0.5910 0.9117 0.2871
H5B H 0.0883 0.6793 0.2871
C5A C 0.6841(6) 1.1064(8) 0.3539(2)
C5B C -0.1064(8) 0.5777(6) 0.3539(2)
C6A C 0.7437(5) 1.1765(8) 0.4410(2)
C6B C -0.1765(8) 0.5672(6) 0.4410(2)
C7A C 0.6417(6) 1.1457(8) 0.4657(3)
C7B C -0.1457(8) 0.4960(6) 0.4657(3)
H6A H 0.5726 1.1282 0.4479
H6B H -0.1282 0.4444 0.4479
C8A C 0.6380(8) 1.1400(12) 0.5158(3)
C8B C -0.1400(12) 0.4980(9) 0.5158(3)
H7A H 0.5671 1.1186 0.5330
H7B H -0.1186 0.4485 0.5330
C9A C 0.7400(10) 1.1660(15) 0.5411(3)
C9B C -0.1660(15) 0.5740(11) 0.5411(3)
H8A H 0.7392 1.1621 0.5759
H8B H -0.1621 0.5771 0.5759
C10A C 0.8429(9) 1.1977(14) 0.5157(4)
C10B C -0.1977(14) 0.6452(11) 0.5157(4)
H9A H 0.9128 1.2161 0.5331
H9B H -0.2161 0.6967 0.5331
C11A C 0.8441(7) 1.2023(11) 0.46562(14)
C11B C -0.2023(11) 0.6418(8) 0.46562(14)
H10A H 0.9146 1.2235 0.4481
H10B H -0.2235 0.6911 0.4481
loop_
_geom_bond_atom_site_label_1
_geom_bond_atom_site_label_2
_geom_bond_site_symmetry_1
_geom_bond_site_symmetry_2
S1 C4 1_555 1_555
N1 N2 1_555 1_555
N2 N3 1_555 1_555
N3 N4 1_555 1_555
N4 C5 1_555 1_555
C1 H1 1_555 1_555
H2 C1 1_555 1_555
H3 C1 1_555 1_555
C2 C1 1_555 1_555
C3 C2 1_555 1_555
C4 C3 1_555 1_555
H4 C4 1_555 1_555
H5 C4 1_555 1_555
C5 S1 1_555 1_555
C6 N4 1_555 1_555
C7 C6 1_555 1_555
H6 C7 1_555 1_555
C8 C7 1_555 1_555
H7 C8 1_555 1_555
C9 C8 1_555 1_555
H8 C9 1_555 1_555
C10 C9 1_555 1_555
H9 C10 1_555 1_555
C11 C6 1_555 1_555
H10 C11 1_555 1_555
I1 C13 1_555 1_555
C12 C13 1_555 1_555
C13 C12A 1_555 1_555
C14 C12 1_555 1_555
C15 C14 1_555 1_555
C16 C12 1_555 1_555
S1A C4A 1_555 1_555
S1B C4B 1_555 1_555
N1A N2A 1_555 1_555
N1B N2B 1_555 1_555
N2A N3A 1_555 1_555
N2B N3B 1_555 1_555
N3A N4A 1_555 1_555
N3B N4B 1_555 1_555
N4A C5A 1_555 1_555
N4B C5B 1_555 1_555
C1B H1B 1_555 1_555
C1A H1A 1_555 1_555
H2B C1B 1_555 1_555
H2A C1A 1_555 1_555
H3B C1B 1_555 1_555
H3A C1A 1_555 1_555
C2B C1B 1_555 1_555
C2A C3 1_555 1_555
C3B C2 1_555 1_555
C3A C2B 1_555 1_555
C4A C3A 1_555 1_555
C4B C3B 1_555 1_555
H4A C4A 1_555 1_555
H4B C4B 1_555 1_555
H5A C4A 1_555 1_555
H5B C4B 1_555 1_555
C5A S1A 1_555 1_555
C5B S1B 1_555 1_555
C6A N4A 1_555 1_555
C6B N4B 1_555 1_555
C7A C6A 1_555 1_555
C7B C6B 1_555 1_555
H6A C7A 1_555 1_555
H6B C7B 1_555 1_555
C8A C7A 1_555 1_555
C8B C7B 1_555 1_555
H7A C8A 1_555 1_555
H7B C8B 1_555 1_555
C9A C8A 1_555 1_555
C9B C8B 1_555 1_555
H8A C9A 1_555 1_555
H8B C9B 1_555 1_555
C10A C9A 1_555 1_555
C10B C9B 1_555 1_555
H9A C10A 1_555 1_555
H9B C10B 1_555 1_555
C11A C6A 1_555 1_555
C11B C6B 1_555 1_555
H10A C11A 1_555 1_555
H10B C11B 1_555 1_555
I1D C13D 1_555 1_555
C12D C13D 1_555 1_555
C12C C13D 1_555 1_555
C12A C14A 1_555 1_555
C12B C13 1_555 1_555
C12E C13D 1_555 1_555
C14D C12D 1_555 1_555
C14C C12C 1_555 1_555
C14A C15A 1_555 1_555
C14B C12B 1_555 1_555
C14E C12E 1_555 1_555
C15D C15 1_555 1_555
C15C C14C 1_555 1_555
C15A C15C 1_555 1_555
C15B C16 1_555 1_555
C15E C16 1_555 1_555
C16E C15 1_555 1_555
C16A C15 1_555 1_555
C16C C12C 1_555 1_555
C16B C12B 1_555 1_555
C16D C12D 1_555 1_555
N1 C5 1_555 1_555
C10 C11 1_555 1_555
C14 C16 1_555 1_555
N1A C5A 1_555 1_555
N1B C5B 1_555 1_555
C1A C2A 1_555 1_555
C2B C3B 1_555 1_555
C2A C3A 1_555 1_555
C10A C11A 1_555 1_555
C10B C11B 1_555 1_555
C12A C16A 1_555 1_555
C12E C16E 1_555 1_555
C14D C15D 1_555 1_555
C14D C16D 1_555 1_555
C14C C16C 1_555 1_555
C14A C16A 1_555 1_555
C14B C15B 1_555 1_555
C14B C16B 1_555 1_555
C14E C15E 1_555 1_555
C14E C16E 1_555 1_555
C15D C16E 1_555 1_555
C15D C16A 1_555 1_555
C15C C16B 1_555 1_555
C15C C16D 1_555 1_555
C15A C16B 1_555 1_555
C15A C16D 1_555 1_555
C15B C15E 1_555 1_555
C15B C16C 1_555 1_555
C15E C16C 1_555 1_555

#END
