
#######################################################################
#
#                 Cambridge Crystallographic Data Centre
#                                CCDC 
#
#######################################################################
#
# If this CIF has been generated from an entry in the Cambridge 
# Structural Database, then it will include bibliographic, chemical, 
# crystal, experimental, refinement or atomic coordinate data resulting 
# from the CCDC's data processing and validation procedures.
#
#######################################################################

data_ONEMIF
_chemical_formula_moiety         
'C20 H26 Ca1 N8 O8 S2,C10 H19 Ca1 N4 O7 S1 1+,C10 H9 N4 O2 S1 1-,7(H2 O1)'
_chemical_name_systematic        
'(4-amino-N-(pyrimidin-2-yl)benzenesulfonamidato)-pentaaqua-calcium (4-amino-N-(pyrimidin-2-yl)benzenesulfonamidato-N)-(4-amino-N-(pyrimidin-2-yl)benzenesulfonamidato-N,O)-tetraaqua-calcium (4-aminobenzene-1-sulfonyl)(pyrimidin-2-yl)azanide heptahydrate'
_symmetry_cell_setting           monoclinic
_symmetry_space_group_name_H-M   'P 21'
_symmetry_Int_Tables_number      4
_space_group_name_Hall           'P 2yb'
loop_
_symmetry_equiv_pos_site_id
_symmetry_equiv_pos_as_xyz
1 x,y,z
2 -x,1/2+y,-z
_cell_length_a                   13.850(3)
_cell_length_b                   15.604(3)
_cell_length_c                   14.083(3)
_cell_angle_alpha                90
_cell_angle_beta                 90.44(3)
_cell_angle_gamma                90
_cell_volume                     3043.46
_exptl_crystal_colour            colorless
_exptl_crystal_description       prism
_cell_formula_units_Z            2
loop_
_atom_site_label
_atom_site_type_symbol
_atom_site_fract_x
_atom_site_fract_y
_atom_site_fract_z
Ca1 Ca 0.12361(8) 0.80215(6) 0.26282(7)
S1 S 0.12873(9) 0.63036(9) 0.47056(9)
O1 O 0.2329(3) 0.6417(3) 0.4582(3)
O2 O 0.0973(3) 0.6392(3) 0.5680(2)
O3 O 0.1163(3) 0.6797(2) 0.1593(3)
H1 H 0.0712 0.6550 0.1284
H2 H 0.1699 0.6728 0.1313
O4 O 0.2806(3) 0.7499(3) 0.3138(3)
H3 H 0.2711 0.7097 0.3534
H4 H 0.3220 0.7852 0.3353
O5 O 0.2143(3) 0.8602(3) 0.1319(3)
H5 H 0.1897 0.8942 0.0912
H6 H 0.2740 0.8526 0.1214
O6 O 0.1571(3) 0.9028(2) 0.3815(3)
H7 H 0.1377 0.9541 0.3738
H8 H 0.1824 0.8958 0.4361
O7 O 0.0265(3) 0.9170(2) 0.2126(3)
H9 H -0.0257 0.9336 0.2380
H10 H 0.0498 0.9557 0.1770
N1 N 0.0194(5) 0.2857(4) 0.3338(5)
H11 H 0.006(6) 0.243(4) 0.374(4)
H12 H 0.036(6) 0.270(5) 0.275(2)
N2 N 0.0807(3) 0.6961(3) 0.3988(3)
N3 N -0.0413(3) 0.7543(3) 0.3146(3)
N4 N -0.0804(3) 0.6571(3) 0.4397(3)
C1 C 0.0980(4) 0.5267(3) 0.4320(4)
C2 C 0.1126(4) 0.5052(4) 0.3382(4)
H13 H 0.1401 0.5446 0.2970
C3 C 0.0864(5) 0.4253(4) 0.3057(4)
H14 H 0.0961 0.4113 0.2423
C4 C 0.0459(4) 0.3655(3) 0.3658(4)
C5 C 0.0325(5) 0.3879(4) 0.4596(4)
H15 H 0.0054 0.3485 0.5012
C6 C 0.0584(5) 0.4674(4) 0.4924(4)
H16 H 0.0491 0.4814 0.5559
C7 C -0.0173(4) 0.7012(3) 0.3871(3)
C8 C -0.1348(4) 0.7657(4) 0.2975(5)
H17 H -0.1533 0.8028 0.2489
C9 C -0.2055(5) 0.7251(5) 0.3485(5)
H18 H -0.2707 0.7350 0.3370
C10 C -0.1746(4) 0.6692(4) 0.4172(5)
H19 H -0.2207 0.6380 0.4501
Ca2 Ca 0.61439(7) 0.21089(6) 0.25578(7)
S2 S 0.62863(10) 0.38137(8) 0.46753(9)
S3 S 0.56140(9) 0.33973(8) 0.08377(8)
O8 O 0.6040(3) 0.3422(2) -0.0101(2)
O9 O 0.6305(2) 0.3441(2) 0.1620(2)
O10 O 0.7317(3) 0.3709(3) 0.4525(3)
O11 O 0.6010(3) 0.3729(2) 0.5661(2)
O12 O 0.7737(3) 0.2607(3) 0.3022(3)
H20 H 0.7775 0.2942 0.3497
H21 H 0.8228 0.2280 0.2988
O13 O 0.7167(3) 0.1382(3) 0.1456(3)
H22 H 0.7739 0.1384 0.1241
H23 H 0.7066 0.0931 0.1778
O14 O 0.6554(3) 0.1085(2) 0.3736(3)
H24 H 0.6413 0.0562 0.3641
H25 H 0.6951 0.1129 0.4197
O15 O 0.5202(3) 0.0862(2) 0.2120(3)
H26 H 0.4767 0.1036 0.1737
H27 H 0.4974 0.0494 0.2503
N5 N 0.5234(5) 0.7280(4) 0.3344(5)
H28 H 0.535(5) 0.742(4) 0.2739(18)
H29 H 0.480(3) 0.752(3) 0.372(3)
N6 N 0.5784(3) 0.3143(3) 0.3996(3)
N7 N 0.4525(3) 0.2477(3) 0.3304(3)
N8 N 0.4178(3) 0.3512(3) 0.4501(3)
N9 N 0.3305(4) 0.6582(3) 0.1295(4)
H30 H 0.344(6) 0.706(3) 0.097(5)
H31 H 0.337(6) 0.679(5) 0.189(2)
N10 N 0.5026(3) 0.2555(2) 0.1071(3)
N11 N 0.3900(3) 0.1528(3) 0.0784(3)
N12 N 0.4026(3) 0.2709(3) -0.0294(3)
C11 C 0.5978(4) 0.4847(3) 0.4297(4)
C12 C 0.5516(5) 0.5421(4) 0.4886(4)
H32 H 0.5368 0.5263 0.5505
C13 C 0.5272(5) 0.6225(4) 0.4562(4)
H33 H 0.4968 0.6607 0.4967
C14 C 0.5472(4) 0.6470(3) 0.3645(4)
C15 C 0.5924(5) 0.5883(4) 0.3051(4)
H34 H 0.6060 0.6037 0.2428
C16 C 0.6171(4) 0.5081(4) 0.3371(4)
H35 H 0.6469 0.4695 0.2965
C17 C 0.4796(4) 0.3066(3) 0.3954(3)
C18 C 0.3588(4) 0.2334(4) 0.3198(4)
H36 H 0.3385 0.1924 0.2760
C19 C 0.2909(4) 0.2765(5) 0.3708(4)
H37 H 0.2252 0.2666 0.3622
C20 C 0.3246(4) 0.3351(4) 0.4352(4)
H38 H 0.2797 0.3655 0.4706
C21 C 0.4865(4) 0.4305(3) 0.0957(3)
C22 C 0.4807(4) 0.4908(3) 0.0220(4)
H39 H 0.5118 0.4805 -0.0352
C23 C 0.4293(4) 0.5645(3) 0.0343(4)
H40 H 0.4254 0.6039 -0.0152
C24 C 0.3829(4) 0.5821(3) 0.1187(4)
C25 C 0.3877(4) 0.5217(4) 0.1917(4)
H41 H 0.3561 0.5319 0.2486
C26 C 0.4392(4) 0.4469(4) 0.1795(4)
H42 H 0.4419 0.4070 0.2285
C27 C 0.4297(4) 0.2270(3) 0.0492(3)
C28 C 0.3206(4) 0.1195(4) 0.0235(4)
H43 H 0.2926 0.0678 0.0410
C29 C 0.2898(5) 0.1586(4) -0.0570(4)
H44 H 0.2421 0.1340 -0.0951
C30 C 0.3312(4) 0.2358(4) -0.0807(4)
H45 H 0.3087 0.2645 -0.1343
S4 S -0.00560(9) 0.13099(8) 0.10499(8)
O16 O -0.0966(2) 0.1327(2) 0.0526(2)
O17 O -0.0161(3) 0.1290(2) 0.2079(2)
N13 N 0.2063(4) 0.4545(3) 0.0280(4)
H46 H 0.242(4) 0.472(4) 0.078(3)
H47 H 0.170(4) 0.499(3) 0.010(5)
N14 N 0.0621(3) 0.0523(2) 0.0800(3)
N15 N 0.1429(3) -0.0380(3) -0.0181(3)
N16 N 0.0486(3) 0.0742(3) -0.0868(3)
C31 C 0.0576(3) 0.2261(3) 0.0791(3)
C32 C 0.0214(4) 0.2866(3) 0.0166(4)
H48 H -0.0372 0.2769 -0.0144
C33 C 0.0715(4) 0.3612(3) -0.0001(4)
H49 H 0.0473 0.4006 -0.0437
C34 C 0.1562(4) 0.3783(3) 0.0465(4)
C35 C 0.1949(4) 0.3169(3) 0.1074(4)
H50 H 0.2540 0.3267 0.1374
C36 C 0.1459(4) 0.2417(3) 0.1232(4)
H51 H 0.1722 0.2008 0.1639
C37 C 0.0836(4) 0.0308(3) -0.0114(3)
C38 C 0.1664(4) -0.0634(4) -0.1043(4)
H52 H 0.2062 -0.1110 -0.1107
C39 C 0.1343(5) -0.0222(5) -0.1853(5)
H53 H 0.1520 -0.0403 -0.2456
C40 C 0.0756(4) 0.0461(4) -0.1723(4)
H54 H 0.0528 0.0750 -0.2257
O18 O 0.3901(4) 0.4367(3) 0.6333(3)
H55 H 0.4059 0.4205 0.5819
H56 H 0.3878 0.3984 0.6760
O19 O 0.6237(4) 0.4544(4) 0.7416(3)
H57 H 0.6707 0.4861 0.7585
H58 H 0.6418 0.4180 0.7006
O20 O 0.5289(4) 0.8649(3) 0.1846(3)
H59 H 0.4738 0.8856 0.1975
H60 H 0.5305 0.8488 0.1270
O21 O 0.7054(3) 0.9565(3) 0.1540(3)
H61 H 0.6592 0.9285 0.1786
H62 H 0.7078 0.9431 0.0956
O22 O 0.7727(4) 0.5590(4) 0.7719(4)
H63 H 0.8103 0.5796 0.8140
H64 H 0.7928 0.5757 0.7181
O23 O 0.8978(3) 0.5759(3) 0.6264(3)
H65 H 0.9434 0.5823 0.6666
H66 H 0.9060 0.6080 0.5784
O24 O 0.1439(3) 0.4798(3) 0.7156(3)
H67 H 0.1340 0.5324 0.7031
H68 H 0.1898 0.4747 0.7556
loop_
_geom_bond_atom_site_label_1
_geom_bond_atom_site_label_2
_geom_bond_site_symmetry_1
_geom_bond_site_symmetry_2
Ca1 O3 1_555 1_555
S1 O1 1_555 1_555
O2 S1 1_555 1_555
O3 H1 1_555 1_555
H2 O3 1_555 1_555
O4 Ca1 1_555 1_555
H3 O4 1_555 1_555
H4 O4 1_555 1_555
O5 Ca1 1_555 1_555
H5 O5 1_555 1_555
H6 O5 1_555 1_555
O6 Ca1 1_555 1_555
H7 O6 1_555 1_555
H8 O6 1_555 1_555
O7 Ca1 1_555 1_555
H9 O7 1_555 1_555
H10 O7 1_555 1_555
N1 H11 1_555 1_555
H12 N1 1_555 1_555
N2 Ca1 1_555 1_555
N3 Ca1 1_555 1_555
N4 C7 1_555 1_555
C1 S1 1_555 1_555
C2 C1 1_555 1_555
H13 C2 1_555 1_555
C3 C2 1_555 1_555
H14 C3 1_555 1_555
C4 N1 1_555 1_555
C5 C4 1_555 1_555
H15 C5 1_555 1_555
C6 C1 1_555 1_555
H16 C6 1_555 1_555
C7 N2 1_555 1_555
C8 N3 1_555 1_555
H17 C8 1_555 1_555
C9 C8 1_555 1_555
H18 C9 1_555 1_555
C10 N4 1_555 1_555
H19 C10 1_555 1_555
Ca2 O9 1_555 1_555
S2 O10 1_555 1_555
S3 O8 1_555 1_555
O9 S3 1_555 1_555
O11 S2 1_555 1_555
O12 Ca2 1_555 1_555
H20 O12 1_555 1_555
H21 O12 1_555 1_555
O13 Ca2 1_555 1_555
H22 O13 1_555 1_555
H23 O13 1_555 1_555
O14 Ca2 1_555 1_555
H24 O14 1_555 1_555
H25 O14 1_555 1_555
O15 Ca2 1_555 1_555
H26 O15 1_555 1_555
H27 O15 1_555 1_555
N5 H28 1_555 1_555
H29 N5 1_555 1_555
N6 Ca2 1_555 1_555
N7 Ca2 1_555 1_555
N8 C17 1_555 1_555
N9 H30 1_555 1_555
H31 N9 1_555 1_555
N10 Ca2 1_555 1_555
N11 C27 1_555 1_555
N12 C27 1_555 1_555
C11 S2 1_555 1_555
C12 C11 1_555 1_555
H32 C12 1_555 1_555
C13 C12 1_555 1_555
H33 C13 1_555 1_555
C14 N5 1_555 1_555
C15 C14 1_555 1_555
H34 C15 1_555 1_555
C16 C11 1_555 1_555
H35 C16 1_555 1_555
C17 N6 1_555 1_555
C18 N7 1_555 1_555
H36 C18 1_555 1_555
C19 C18 1_555 1_555
H37 C19 1_555 1_555
C20 N8 1_555 1_555
H38 C20 1_555 1_555
C21 S3 1_555 1_555
C22 C21 1_555 1_555
H39 C22 1_555 1_555
C23 C22 1_555 1_555
H40 C23 1_555 1_555
C24 N9 1_555 1_555
C25 C24 1_555 1_555
H41 C25 1_555 1_555
C26 C21 1_555 1_555
H42 C26 1_555 1_555
C27 N10 1_555 1_555
C28 N11 1_555 1_555
H43 C28 1_555 1_555
C29 C28 1_555 1_555
H44 C29 1_555 1_555
C30 N12 1_555 1_555
H45 C30 1_555 1_555
S4 O16 1_555 1_555
O17 S4 1_555 1_555
N13 H46 1_555 1_555
H47 N13 1_555 1_555
N14 S4 1_555 1_555
N15 C37 1_555 1_555
N16 C37 1_555 1_555
C31 S4 1_555 1_555
C32 C31 1_555 1_555
H48 C32 1_555 1_555
C33 C32 1_555 1_555
H49 C33 1_555 1_555
C34 N13 1_555 1_555
C35 C34 1_555 1_555
H50 C35 1_555 1_555
C36 C31 1_555 1_555
H51 C36 1_555 1_555
C37 N14 1_555 1_555
C38 N15 1_555 1_555
H52 C38 1_555 1_555
C39 C38 1_555 1_555
H53 C39 1_555 1_555
C40 N16 1_555 1_555
H54 C40 1_555 1_555
O18 H55 1_555 1_555
H56 O18 1_555 1_555
O19 H57 1_555 1_555
H58 O19 1_555 1_555
O20 H59 1_555 1_555
H60 O20 1_555 1_555
O21 H61 1_555 1_555
H62 O21 1_555 1_555
O22 H63 1_555 1_555
H64 O22 1_555 1_555
O23 H65 1_555 1_555
H66 O23 1_555 1_555
O24 H67 1_555 1_555
H68 O24 1_555 1_555
S1 N2 1_555 1_555
N3 C7 1_555 1_555
C3 C4 1_555 1_555
C5 C6 1_555 1_555
C9 C10 1_555 1_555
S2 N6 1_555 1_555
S3 N10 1_555 1_555
N7 C17 1_555 1_555
C13 C14 1_555 1_555
C15 C16 1_555 1_555
C19 C20 1_555 1_555
C23 C24 1_555 1_555
C25 C26 1_555 1_555
C29 C30 1_555 1_555
C33 C34 1_555 1_555
C35 C36 1_555 1_555
C39 C40 1_555 1_555

#END
