
#######################################################################
#
#                 Cambridge Crystallographic Data Centre
#                                CCDC 
#
#######################################################################
#
# If this CIF has been generated from an entry in the Cambridge 
# Structural Database, then it will include bibliographic, chemical, 
# crystal, experimental, refinement or atomic coordinate data resulting 
# from the CCDC's data processing and validation procedures.
#
#######################################################################

data_ONETOS
_chemical_compound_source        
'Chinese liverwort Chiloscyphus polyanthus var. rivularis.'
_chemical_name_common            
7-hydroperoxy-2-isopropyl-4a-methyl-8-methylenedecahydronaphthalen-2-ol
_chemical_formula_moiety         'C15 H26 O3'
_chemical_name_systematic        
(3S,5S,7R,10S)-3-hydroperoxy-7-hydroxy-eudesma-4(15)-ene
_chemical_properties_biological  'cytotoxic activity'
_symmetry_cell_setting           rhombohedral
_symmetry_space_group_name_H-M   'R 3'
_symmetry_Int_Tables_number      146
_space_group_name_Hall           'R 3'
loop_
_symmetry_equiv_pos_site_id
_symmetry_equiv_pos_as_xyz
1 x,y,z
2 -y,x-y,z
3 -x+y,-x,z
4 2/3+x,1/3+y,1/3+z
5 2/3-y,1/3+x-y,1/3+z
6 2/3-x+y,1/3-x,1/3+z
7 1/3+x,2/3+y,2/3+z
8 1/3-y,2/3+x-y,2/3+z
9 1/3-x+y,2/3-x,2/3+z
_cell_length_a                   18.3405(10)
_cell_length_b                   18.3405(10)
_cell_length_c                   11.7315(7)
_cell_angle_alpha                90
_cell_angle_beta                 90
_cell_angle_gamma                120
_cell_volume                     3417.48
_exptl_crystal_colour            colorless
_exptl_crystal_description       needle
_chemical_melting_point          '182-183 deg.C'
_cell_formula_units_Z            9
_exptl_crystal_recrystallization_method acetone
loop_
_atom_site_label
_atom_site_type_symbol
_atom_site_fract_x
_atom_site_fract_y
_atom_site_fract_z
O1 O 0.20893(13) 0.25842(12) 0.66348(19)
O2 O 0.35539(14) 0.25396(13) 0.29201(16)
H1 H 0.3468 0.2492 0.2231
O3 O 0.26412(16) 0.33429(14) 0.7260(2)
C1 C 0.29463(15) 0.18439(14) 0.5190(2)
H2 H 0.2830 0.2267 0.4863
C2 C 0.37477(15) 0.19683(17) 0.4617(2)
H3 H 0.3891 0.1567 0.4934
H4 H 0.4205 0.2529 0.4792
C3 C 0.30118(16) 0.19825(15) 0.6464(2)
C4 C 0.36694(17) 0.18590(18) 0.3324(2)
C5 C 0.22363(18) 0.19148(18) 0.7009(2)
H5 H 0.2298 0.1936 0.7840
C6 C 0.21747(17) 0.09715(16) 0.4900(2)
C7 C 0.1443(2) 0.1108(2) 0.6670(3)
H6 H 0.1430 0.0637 0.7065
H7 H 0.0955 0.1142 0.6911
C8 C 0.20935(19) 0.09022(19) 0.3600(3)
H8 H 0.1628 0.0352 0.3403
H9 H 0.1962 0.1321 0.3321
C9 C 0.13895(17) 0.09488(18) 0.5401(3)
H10 H 0.1304 0.1369 0.5019
H11 H 0.0902 0.0402 0.5246
C10 C 0.2267(2) 0.02479(18) 0.5402(3)
H12 H 0.2717 0.0221 0.5022
H13 H 0.1751 -0.0274 0.5298
H14 H 0.2391 0.0345 0.6201
C11 C 0.28830(19) 0.1026(2) 0.3006(3)
H15 H 0.2800 0.1010 0.2188
H16 H 0.2973 0.0564 0.3205
C12 C 0.4467(2) 0.1950(2) 0.2741(3)
H17 H 0.4381 0.1964 0.1919
C13 C 0.3661(2) 0.2122(2) 0.7095(3)
C14 C 0.5250(2) 0.2771(3) 0.3033(4)
H18 H 0.5125 0.3221 0.3006
H19 H 0.5686 0.2878 0.2493
H20 H 0.5436 0.2736 0.3785
C15 C 0.4611(3) 0.1215(3) 0.2945(4)
H21 H 0.4668 0.1155 0.3748
H22 H 0.5116 0.1316 0.2561
H23 H 0.4141 0.0708 0.2655
H24 H 0.364(2) 0.219(2) 0.785(3)
H25 H 0.415(3) 0.216(2) 0.678(3)
H26 H 0.305(3) 0.356(3) 0.682(4)
loop_
_geom_bond_atom_site_label_1
_geom_bond_atom_site_label_2
_geom_bond_site_symmetry_1
_geom_bond_site_symmetry_2
O1 O3 1_555 1_555
O2 H1 1_555 1_555
O3 H26 1_555 1_555
C1 H2 1_555 1_555
C2 C1 1_555 1_555
H3 C2 1_555 1_555
H4 C2 1_555 1_555
C3 C1 1_555 1_555
C4 O2 1_555 1_555
C5 O1 1_555 1_555
H5 C5 1_555 1_555
C6 C1 1_555 1_555
C7 C5 1_555 1_555
H6 C7 1_555 1_555
H7 C7 1_555 1_555
C8 C6 1_555 1_555
H8 C8 1_555 1_555
H9 C8 1_555 1_555
C9 C6 1_555 1_555
H10 C9 1_555 1_555
H11 C9 1_555 1_555
C10 C6 1_555 1_555
H12 C10 1_555 1_555
H13 C10 1_555 1_555
H14 C10 1_555 1_555
C11 C4 1_555 1_555
H15 C11 1_555 1_555
H16 C11 1_555 1_555
C12 C4 1_555 1_555
H17 C12 1_555 1_555
C13 C3 1_555 1_555
C14 C12 1_555 1_555
H18 C14 1_555 1_555
H19 C14 1_555 1_555
H20 C14 1_555 1_555
C15 C12 1_555 1_555
H21 C15 1_555 1_555
H22 C15 1_555 1_555
H23 C15 1_555 1_555
H24 C13 1_555 1_555
H25 C13 1_555 1_555
C2 C4 1_555 1_555
C3 C5 1_555 1_555
C7 C9 1_555 1_555
C8 C11 1_555 1_555

#END
