
#######################################################################
#
#                 Cambridge Crystallographic Data Centre
#                                CCDC 
#
#######################################################################
#
# If this CIF has been generated from an entry in the Cambridge 
# Structural Database, then it will include bibliographic, chemical, 
# crystal, experimental, refinement or atomic coordinate data resulting 
# from the CCDC's data processing and validation procedures.
#
#######################################################################

data_ONEWOV
_chemical_formula_moiety         'C19 H28 P1 Si2 1+,C24 B1 F20 1-'
_chemical_name_systematic        
'2,2,6,6-tetramethyl-1,1-diphenyl-1,2,6-phosphadisilinan-1-ium tetrakis(pentafluorophenyl)borate'
_symmetry_cell_setting           monoclinic
_symmetry_space_group_name_H-M   'P 21/c'
_symmetry_Int_Tables_number      14
_space_group_name_Hall           '-P 2ybc'
loop_
_symmetry_equiv_pos_site_id
_symmetry_equiv_pos_as_xyz
1 x,y,z
2 -x,1/2+y,1/2-z
3 -x,-y,-z
4 x,1/2-y,1/2+z
_cell_length_a                   15.7053(13)
_cell_length_b                   15.1729(8)
_cell_length_c                   18.6678(16)
_cell_angle_alpha                90
_cell_angle_beta                 92.505(7)
_cell_angle_gamma                90
_cell_volume                     4444.19
_exptl_crystal_colour            colorless
_exptl_crystal_description       block
_cell_formula_units_Z            4
loop_
_atom_site_label
_atom_site_type_symbol
_atom_site_fract_x
_atom_site_fract_y
_atom_site_fract_z
P1 P 0.23188(5) 0.11654(5) 0.64447(4)
Si1 Si 0.21242(5) 0.26668(5) 0.63017(4)
Si2 Si 0.37675(5) 0.09874(5) 0.66543(4)
C1 C 0.2939(2) 0.3146(2) 0.69431(18)
H1 H 0.2908 0.3795 0.6892
H2 H 0.2764 0.3004 0.7433
C2 C 0.3881(2) 0.2883(2) 0.6901(2)
H3 H 0.4038 0.2895 0.6393
H4 H 0.4238 0.3324 0.7165
C3 C 0.4077(2) 0.1964(2) 0.72127(18)
H5 H 0.3789 0.1914 0.7673
H6 H 0.4698 0.1930 0.7325
C4 C 0.2346(2) 0.2951(2) 0.53593(17)
H7 H 0.2933 0.2789 0.5262
H8 H 0.2269 0.3586 0.5286
H9 H 0.1952 0.2629 0.5033
C5 C 0.1024(2) 0.2940(2) 0.65487(18)
H10 H 0.0615 0.2677 0.6199
H11 H 0.0951 0.3581 0.6550
H12 H 0.0924 0.2706 0.7027
C6 C 0.3956(2) -0.0056(2) 0.71559(18)
H13 H 0.3790 -0.0556 0.6849
H14 H 0.3617 -0.0058 0.7584
H15 H 0.4562 -0.0104 0.7300
C7 C 0.4211(2) 0.1024(2) 0.57439(17)
H16 H 0.4029 0.0498 0.5473
H17 H 0.4835 0.1040 0.5789
H18 H 0.4002 0.1552 0.5491
C8 C 0.19286(19) 0.05210(19) 0.56838(14)
C9 C 0.2293(2) -0.0293(2) 0.55539(16)
H19 H 0.2767 -0.0489 0.5845
C10 C 0.1967(3) -0.0824(2) 0.49973(18)
H20 H 0.2215 -0.1382 0.4909
C11 C 0.1276(2) -0.0531(2) 0.45740(16)
H21 H 0.1049 -0.0893 0.4197
C12 C 0.0915(2) 0.0278(2) 0.46932(15)
H22 H 0.0445 0.0473 0.4396
C13 C 0.1233(2) 0.0811(2) 0.52454(15)
H23 H 0.0983 0.1370 0.5327
C14 C 0.17597(19) 0.0776(2) 0.72229(14)
C15 C 0.1907(3) 0.1172(3) 0.78891(18)
H24 H 0.2279 0.1664 0.7937
C16 C 0.1508(3) 0.0844(3) 0.84852(19)
H25 H 0.1613 0.1115 0.8939
C17 C 0.0969(2) 0.0141(3) 0.84269(18)
H26 H 0.0703 -0.0078 0.8838
C18 C 0.0813(2) -0.0248(3) 0.77740(19)
H27 H 0.0434 -0.0735 0.7731
C19 C 0.1208(2) 0.0068(2) 0.71693(17)
H28 H 0.1096 -0.0206 0.6717
B1 B 0.2623(2) 0.6512(2) 0.72418(16)
C20 C 0.26197(19) 0.72840(18) 0.78713(14)
C21 C 0.19133(19) 0.7367(2) 0.82928(15)
C22 C 0.1865(2) 0.7926(2) 0.88756(16)
C23 C 0.2566(2) 0.8428(2) 0.90723(16)
C24 C 0.3282(2) 0.8376(2) 0.86857(17)
C25 C 0.3298(2) 0.7818(2) 0.80975(15)
F1 F 0.12070(11) 0.68820(12) 0.81369(9)
F2 F 0.11528(15) 0.79722(15) 0.92427(10)
F3 F 0.25355(17) 0.89793(16) 0.96458(12)
F4 F 0.39753(15) 0.88637(15) 0.88735(12)
F5 F 0.40364(11) 0.78133(12) 0.77505(10)
C26 C 0.34226(18) 0.65984(18) 0.66941(14)
C27 C 0.39889(19) 0.59506(18) 0.64910(15)
C28 C 0.4598(2) 0.6062(2) 0.59900(18)
C29 C 0.4671(2) 0.6866(2) 0.56452(19)
C30 C 0.4115(2) 0.7525(2) 0.58132(18)
C31 C 0.3521(2) 0.73804(19) 0.63153(16)
F6 F 0.39645(11) 0.51291(11) 0.67857(9)
F7 F 0.51316(15) 0.54065(15) 0.58340(13)
F8 F 0.52637(16) 0.69912(17) 0.51590(14)
F9 F 0.41596(15) 0.83162(14) 0.54760(12)
F10 F 0.29896(12) 0.80657(11) 0.64482(10)
C32 C 0.17832(18) 0.65538(19) 0.66751(14)
C33 C 0.1227(2) 0.7253(2) 0.65640(15)
C34 C 0.0558(2) 0.7254(2) 0.60489(16)
C35 C 0.0440(2) 0.6542(2) 0.56075(16)
C36 C 0.0982(2) 0.5843(2) 0.56759(15)
C37 C 0.16355(18) 0.58643(19) 0.61901(14)
F11 F 0.12994(13) 0.80005(12) 0.69639(10)
F12 F 0.00389(14) 0.79603(15) 0.59766(12)
F13 F -0.02121(12) 0.65429(17) 0.51068(10)
F14 F 0.08881(13) 0.51365(14) 0.52388(10)
F15 F 0.21573(11) 0.51527(11) 0.62227(9)
C38 C 0.26492(17) 0.56001(18) 0.77348(13)
C39 C 0.33814(18) 0.54074(19) 0.81572(14)
C40 C 0.3473(2) 0.4687(2) 0.86058(15)
C41 C 0.2806(2) 0.4122(2) 0.86634(15)
C42 C 0.2059(2) 0.42759(19) 0.82819(14)
C43 C 0.19934(19) 0.50135(19) 0.78340(14)
F16 F 0.40649(11) 0.59505(12) 0.81319(9)
F17 F 0.42183(13) 0.45340(15) 0.89726(11)
F18 F 0.28842(15) 0.33884(14) 0.90805(10)
F19 F 0.13996(13) 0.37141(12) 0.83219(10)
F20 F 0.12188(11) 0.51142(12) 0.74899(9)
loop_
_geom_bond_atom_site_label_1
_geom_bond_atom_site_label_2
_geom_bond_site_symmetry_1
_geom_bond_site_symmetry_2
P1 Si1 1_555 1_555
Si1 C1 1_555 1_555
Si2 P1 1_555 1_555
C1 H1 1_555 1_555
H2 C1 1_555 1_555
C2 C1 1_555 1_555
H3 C2 1_555 1_555
H4 C2 1_555 1_555
C3 Si2 1_555 1_555
H5 C3 1_555 1_555
H6 C3 1_555 1_555
C4 Si1 1_555 1_555
H7 C4 1_555 1_555
H8 C4 1_555 1_555
H9 C4 1_555 1_555
C5 Si1 1_555 1_555
H10 C5 1_555 1_555
H11 C5 1_555 1_555
H12 C5 1_555 1_555
C6 Si2 1_555 1_555
H13 C6 1_555 1_555
H14 C6 1_555 1_555
H15 C6 1_555 1_555
C7 Si2 1_555 1_555
H16 C7 1_555 1_555
H17 C7 1_555 1_555
H18 C7 1_555 1_555
C8 P1 1_555 1_555
C9 C8 1_555 1_555
H19 C9 1_555 1_555
C10 C9 1_555 1_555
H20 C10 1_555 1_555
C11 C10 1_555 1_555
H21 C11 1_555 1_555
C12 C11 1_555 1_555
H22 C12 1_555 1_555
C13 C8 1_555 1_555
H23 C13 1_555 1_555
C14 P1 1_555 1_555
C15 C14 1_555 1_555
H24 C15 1_555 1_555
C16 C15 1_555 1_555
H25 C16 1_555 1_555
C17 C16 1_555 1_555
H26 C17 1_555 1_555
C18 C17 1_555 1_555
H27 C18 1_555 1_555
C19 C14 1_555 1_555
H28 C19 1_555 1_555
B1 C20 1_555 1_555
C20 C21 1_555 1_555
C21 C22 1_555 1_555
C22 C23 1_555 1_555
C23 C24 1_555 1_555
C24 C25 1_555 1_555
C25 C20 1_555 1_555
F1 C21 1_555 1_555
F2 C22 1_555 1_555
F3 C23 1_555 1_555
F4 C24 1_555 1_555
F5 C25 1_555 1_555
C26 B1 1_555 1_555
C27 C26 1_555 1_555
C28 C27 1_555 1_555
C29 C28 1_555 1_555
C30 C29 1_555 1_555
C31 C26 1_555 1_555
F6 C27 1_555 1_555
F7 C28 1_555 1_555
F8 C29 1_555 1_555
F9 C30 1_555 1_555
F10 C31 1_555 1_555
C32 B1 1_555 1_555
C33 C32 1_555 1_555
C34 C33 1_555 1_555
C35 C34 1_555 1_555
C36 C35 1_555 1_555
C37 C32 1_555 1_555
F11 C33 1_555 1_555
F12 C34 1_555 1_555
F13 C35 1_555 1_555
F14 C36 1_555 1_555
F15 C37 1_555 1_555
C38 B1 1_555 1_555
C39 C38 1_555 1_555
C40 C39 1_555 1_555
C41 C40 1_555 1_555
C42 C41 1_555 1_555
C43 C38 1_555 1_555
F16 C39 1_555 1_555
F17 C40 1_555 1_555
F18 C41 1_555 1_555
F19 C42 1_555 1_555
F20 C43 1_555 1_555
C2 C3 1_555 1_555
C12 C13 1_555 1_555
C18 C19 1_555 1_555
C30 C31 1_555 1_555
C36 C37 1_555 1_555
C42 C43 1_555 1_555

#END
