
#######################################################################
#
#                 Cambridge Crystallographic Data Centre
#                                CCDC 
#
#######################################################################
#
# If this CIF has been generated from an entry in the Cambridge 
# Structural Database, then it will include bibliographic, chemical, 
# crystal, experimental, refinement or atomic coordinate data resulting 
# from the CCDC's data processing and validation procedures.
#
#######################################################################

data_ONEWUB
_chemical_formula_moiety         '2(C36 H38 P1 Si1 1+),B12 Cl12 2-,2(C6 H4 Cl2)'
_chemical_name_systematic        
'bis(Diphenyl(trityl)(3-dimethylsilylpropyl)phosphonium) dodecachloro-closo-dodecaborate 1,2-dichlorobenzene solvate'
_symmetry_cell_setting           monoclinic
_symmetry_space_group_name_H-M   'P 21/n'
_symmetry_Int_Tables_number      14
_space_group_name_Hall           '-P 2yn'
loop_
_symmetry_equiv_pos_site_id
_symmetry_equiv_pos_as_xyz
1 x,y,z
2 1/2-x,1/2+y,1/2-z
3 -x,-y,-z
4 1/2+x,1/2-y,1/2+z
_cell_length_a                   12.1228(4)
_cell_length_b                   21.3999(8)
_cell_length_c                   17.0156(6)
_cell_angle_alpha                90
_cell_angle_beta                 91.430(2)
_cell_angle_gamma                90
_cell_volume                     4412.93
_exptl_crystal_colour            colorless
_exptl_crystal_description       block
_cell_formula_units_Z            2
loop_
_atom_site_label
_atom_site_type_symbol
_atom_site_fract_x
_atom_site_fract_y
_atom_site_fract_z
P1 P 0.527958(19) 0.633039(10) 0.767119(13)
Si1 Si 0.49847(2) 0.643080(13) 0.437682(15)
H1 H 0.6028(12) 0.6739(7) 0.4364(9)
C1 C 0.48264(9) 0.59800(5) 0.34408(6)
H2 H 0.4070 0.5821 0.3388
H3 H 0.5345 0.5629 0.3448
H4 H 0.4981 0.6254 0.2995
C2 C 0.38832(9) 0.70372(5) 0.44318(6)
H5 H 0.4034 0.7374 0.4059
H6 H 0.3871 0.7208 0.4966
H7 H 0.3166 0.6848 0.4300
C3 C 0.49146(8) 0.59160(4) 0.52689(5)
H8 H 0.4156 0.5751 0.5314
H9 H 0.5419 0.5556 0.5209
C4 C 0.52361(9) 0.62765(4) 0.60195(5)
H10 H 0.4788 0.6662 0.6045
H11 H 0.6022 0.6401 0.5998
C5 C 0.50616(8) 0.58869(4) 0.67657(5)
H12 H 0.5575 0.5527 0.6767
H13 H 0.4300 0.5719 0.6752
C6 C 0.41010(7) 0.68504(4) 0.77485(5)
C7 C 0.32377(8) 0.68035(5) 0.71888(6)
H14 H 0.3261 0.6491 0.6793
C8 C 0.23467(9) 0.72118(6) 0.72100(6)
H15 H 0.1762 0.7175 0.6831
C9 C 0.23071(9) 0.76731(5) 0.77816(7)
H16 H 0.1705 0.7957 0.7786
C10 C 0.31490(8) 0.77190(5) 0.83479(6)
H17 H 0.3119 0.8032 0.8742
C11 C 0.40349(8) 0.73070(4) 0.83386(5)
H18 H 0.4600 0.7334 0.8734
C12 C 0.64924(7) 0.68153(4) 0.75636(5)
C13 C 0.74742(8) 0.65539(4) 0.72930(5)
H19 H 0.7506 0.6121 0.7170
C14 C 0.83997(8) 0.69278(5) 0.72047(6)
H20 H 0.9065 0.6748 0.7025
C15 C 0.83612(8) 0.75607(5) 0.73758(6)
H21 H 0.9000 0.7812 0.7319
C16 C 0.73901(9) 0.78257(5) 0.76295(6)
H22 H 0.7361 0.8260 0.7742
C17 C 0.64586(8) 0.74576(4) 0.77202(6)
H23 H 0.5793 0.7643 0.7890
C18 C 0.53684(7) 0.57872(4) 0.85742(5)
C19 C 0.53091(7) 0.62329(4) 0.92820(5)
C20 C 0.44338(8) 0.62362(5) 0.97971(5)
H24 H 0.3849 0.5944 0.9729
C21 C 0.44107(9) 0.66662(5) 1.04134(6)
H25 H 0.3813 0.6662 1.0764
C22 C 0.52499(10) 0.70990(5) 1.05191(6)
H26 H 0.5209 0.7405 1.0922
C23 C 0.61527(9) 0.70822(5) 1.00312(6)
H27 H 0.6746 0.7367 1.0112
C24 C 0.61869(8) 0.66485(4) 0.94252(5)
H28 H 0.6814 0.6633 0.9102
C25 C 0.43790(8) 0.53330(4) 0.84847(5)
C26 C 0.45401(9) 0.46861(5) 0.84843(6)
H29 H 0.5266 0.4523 0.8547
C27 C 0.36511(10) 0.42777(5) 0.83931(6)
H30 H 0.3777 0.3840 0.8405
C28 C 0.25896(10) 0.45005(6) 0.82855(6)
H31 H 0.1990 0.4220 0.8206
C29 C 0.24109(9) 0.51406(6) 0.82951(6)
H32 H 0.1683 0.5299 0.8227
C30 C 0.32893(8) 0.55515(5) 0.84034(6)
H33 H 0.3150 0.5988 0.8423
C31 C 0.64497(7) 0.54057(4) 0.86421(5)
C32 C 0.69658(8) 0.51369(4) 0.79999(5)
H34 H 0.6699 0.5231 0.7484
C33 C 0.78612(9) 0.47344(5) 0.80954(6)
H35 H 0.8202 0.4562 0.7648
C34 C 0.82549(9) 0.45850(5) 0.88435(6)
H36 H 0.8868 0.4312 0.8912
C35 C 0.77439(8) 0.48379(5) 0.94905(6)
H37 H 0.8003 0.4733 1.0005
C36 C 0.68536(8) 0.52448(4) 0.93936(5)
H38 H 0.6516 0.5415 0.9843
Cl1 Cl 0.99390(2) 0.553080(12) 0.693616(13)
Cl2 Cl 0.745229(19) 0.495887(12) 0.589965(14)
Cl3 Cl 0.86912(2) 0.643158(11) 0.528541(14)
Cl4 Cl 1.17073(2) 0.626059(12) 0.548041(16)
Cl5 Cl 1.23194(2) 0.468263(13) 0.618851(14)
Cl6 Cl 0.96709(2) 0.387895(11) 0.646597(14)
B1 B 0.99693(8) 0.52620(5) 0.59396(5)
B2 B 0.87635(8) 0.49803(5) 0.54374(6)
B3 B 0.93668(8) 0.56993(4) 0.51412(6)
B4 B 1.08289(8) 0.56140(5) 0.52313(6)
B5 B 1.11296(8) 0.48433(5) 0.55818(6)
B6 B 0.98447(8) 0.44507(5) 0.57119(6)
Cl1B Cl 1.00610(2) 0.446920(12) 0.306384(13)
Cl2B Cl 1.254771(19) 0.504113(12) 0.410035(14)
Cl3B Cl 1.13088(2) 0.356842(11) 0.471459(14)
Cl4B Cl 0.82927(2) 0.373941(12) 0.451959(16)
Cl5B Cl 0.76806(2) 0.531737(13) 0.381149(14)
Cl6B Cl 1.03291(2) 0.612105(11) 0.353403(14)
B1B B 1.00307(8) 0.47380(5) 0.40604(5)
B2B B 1.12365(8) 0.50197(5) 0.45626(6)
B3B B 1.06332(8) 0.43007(4) 0.48588(6)
B4B B 0.91711(8) 0.43860(5) 0.47687(6)
B5B B 0.88704(8) 0.51567(5) 0.44182(6)
B6B B 1.01553(8) 0.55493(5) 0.42881(6)
Cl7 Cl 0.94759(3) 0.678057(15) 1.131849(18)
Cl8 Cl 1.17236(2) 0.726950(13) 1.066489(16)
C37 C 0.98435(9) 0.66174(5) 1.03642(6)
C38 C 1.08341(8) 0.68380(5) 1.00771(6)
C39 C 1.11049(10) 0.67194(5) 0.93033(7)
H39 H 1.1783 0.6867 0.9106
C40 C 1.03810(11) 0.63842(6) 0.88185(7)
H40 H 1.0559 0.6309 0.8286
C41 C 0.94009(11) 0.61589(6) 0.91089(8)
H41 H 0.8912 0.5926 0.8777
C42 C 0.91316(10) 0.62723(5) 0.98829(7)
H42 H 0.8462 0.6114 1.0083
loop_
_geom_bond_atom_site_label_1
_geom_bond_atom_site_label_2
_geom_bond_site_symmetry_1
_geom_bond_site_symmetry_2
P1 C5 1_555 1_555
Si1 H1 1_555 1_555
C1 Si1 1_555 1_555
H2 C1 1_555 1_555
H3 C1 1_555 1_555
H4 C1 1_555 1_555
C2 Si1 1_555 1_555
H5 C2 1_555 1_555
H6 C2 1_555 1_555
H7 C2 1_555 1_555
C3 Si1 1_555 1_555
H8 C3 1_555 1_555
H9 C3 1_555 1_555
C4 C3 1_555 1_555
H10 C4 1_555 1_555
H11 C4 1_555 1_555
C5 C4 1_555 1_555
H12 C5 1_555 1_555
H13 C5 1_555 1_555
C6 P1 1_555 1_555
C7 C6 1_555 1_555
H14 C7 1_555 1_555
C8 C7 1_555 1_555
H15 C8 1_555 1_555
C9 C8 1_555 1_555
H16 C9 1_555 1_555
C10 C9 1_555 1_555
H17 C10 1_555 1_555
C11 C6 1_555 1_555
H18 C11 1_555 1_555
C12 P1 1_555 1_555
C13 C12 1_555 1_555
H19 C13 1_555 1_555
C14 C13 1_555 1_555
H20 C14 1_555 1_555
C15 C14 1_555 1_555
H21 C15 1_555 1_555
C16 C15 1_555 1_555
H22 C16 1_555 1_555
C17 C12 1_555 1_555
H23 C17 1_555 1_555
C18 P1 1_555 1_555
C19 C18 1_555 1_555
C20 C19 1_555 1_555
H24 C20 1_555 1_555
C21 C20 1_555 1_555
H25 C21 1_555 1_555
C22 C21 1_555 1_555
H26 C22 1_555 1_555
C23 C22 1_555 1_555
H27 C23 1_555 1_555
C24 C19 1_555 1_555
H28 C24 1_555 1_555
C25 C18 1_555 1_555
C26 C25 1_555 1_555
H29 C26 1_555 1_555
C27 C26 1_555 1_555
H30 C27 1_555 1_555
C28 C27 1_555 1_555
H31 C28 1_555 1_555
C29 C28 1_555 1_555
H32 C29 1_555 1_555
C30 C25 1_555 1_555
H33 C30 1_555 1_555
C31 C18 1_555 1_555
C32 C31 1_555 1_555
H34 C32 1_555 1_555
C33 C32 1_555 1_555
H35 C33 1_555 1_555
C34 C33 1_555 1_555
H36 C34 1_555 1_555
C35 C34 1_555 1_555
H37 C35 1_555 1_555
C36 C31 1_555 1_555
H38 C36 1_555 1_555
Cl1 B1 1_555 1_555
Cl2 B2 1_555 1_555
Cl3 B3 1_555 1_555
Cl4 B4 1_555 1_555
Cl5 B5 1_555 1_555
Cl6 B6 1_555 1_555
B1 B2 1_555 1_555
B2 B3 1_555 1_555
B3 B1 1_555 1_555
B4 B1 1_555 1_555
B5 B1 1_555 1_555
B6 B1 1_555 1_555
Cl7 C37 1_555 1_555
Cl8 C38 1_555 1_555
C37 C38 1_555 1_555
C38 C39 1_555 1_555
C39 H39 1_555 1_555
C40 C39 1_555 1_555
H40 C40 1_555 1_555
C41 C40 1_555 1_555
H41 C41 1_555 1_555
C42 C37 1_555 1_555
H42 C42 1_555 1_555
Cl1B B1B 1_555 1_555
Cl2B B2B 1_555 1_555
Cl3B B3B 1_555 1_555
Cl4B B4B 1_555 1_555
Cl5B B5B 1_555 1_555
Cl6B B6B 1_555 1_555
B1B B2B 1_555 1_555
B2B B4 1_555 1_555
B3B B5 1_555 1_555
B4B B2 1_555 1_555
B5B B2 1_555 1_555
B6B B3 1_555 1_555
C10 C11 1_555 1_555
C16 C17 1_555 1_555
C23 C24 1_555 1_555
C29 C30 1_555 1_555
C35 C36 1_555 1_555
B2 B6 1_555 1_555
B3 B4 1_555 1_555
B3 B5B 1_555 1_555
B4 B5 1_555 1_555
B4 B6B 1_555 1_555
B5 B6 1_555 1_555
B5 B2B 1_555 1_555
B6 B3B 1_555 1_555
B6 B4B 1_555 1_555
C41 C42 1_555 1_555
B1B B3B 1_555 1_555
B1B B4B 1_555 1_555
B1B B5B 1_555 1_555
B1B B6B 1_555 1_555
B2B B3B 1_555 1_555
B2B B6B 1_555 1_555
B3B B4B 1_555 1_555
B4B B5B 1_555 1_555
B5B B6B 1_555 1_555

#END
