
#######################################################################
#
#                 Cambridge Crystallographic Data Centre
#                                CCDC 
#
#######################################################################
#
# If this CIF has been generated from an entry in the Cambridge 
# Structural Database, then it will include bibliographic, chemical, 
# crystal, experimental, refinement or atomic coordinate data resulting 
# from the CCDC's data processing and validation procedures.
#
#######################################################################

data_ONEYEM
_chemical_formula_moiety         'C52 H55 B1 N3 O2 P1 S1'
_chemical_name_systematic        
Cyano(4-((3-(((5-(dimethylamino)-1-naphthyl)sulfonyl)amino)propyl)(diphenyl)phosphonio)phenyl)dimesitylborate
_symmetry_cell_setting           triclinic
_symmetry_space_group_name_H-M   'P -1'
_symmetry_Int_Tables_number      2
_space_group_name_Hall           '-P 1'
loop_
_symmetry_equiv_pos_site_id
_symmetry_equiv_pos_as_xyz
1 x,y,z
2 -x,-y,-z
_cell_length_a                   15.5546(11)
_cell_length_b                   16.4483(10)
_cell_length_c                   21.8088(14)
_cell_angle_alpha                72.301(4)
_cell_angle_beta                 73.109(4)
_cell_angle_gamma                66.247(4)
_cell_volume                     4774.06
_exptl_crystal_colour            yellow
_exptl_crystal_description       block
_cell_formula_units_Z            4
loop_
_atom_site_label
_atom_site_type_symbol
_atom_site_fract_x
_atom_site_fract_y
_atom_site_fract_z
S1 S 1.09558(14) 0.39376(14) -0.33419(9)
P1 P 1.13002(10) 0.16338(9) -0.06274(7)
O1 O 1.0425(3) 0.4811(3) -0.3677(2)
O2 O 1.1764(3) 0.3354(3) -0.3718(2)
N1 N 0.7217(4) 0.3002(3) -0.1474(3)
N2 N 1.1332(3) 0.4082(3) -0.2809(2)
H1 H 1.1166 0.4644 -0.2766
N3 N 0.8212(4) 0.4140(4) 0.2008(2)
B1 B 0.7662(4) 0.4207(4) 0.0898(3)
C1 C 0.6808(4) 0.2868(4) -0.1943(3)
H2 H 0.7314 0.2676 -0.2314
H3 H 0.6319 0.3440 -0.2101
H4 H 0.6516 0.2399 -0.1729
C2 C 0.6451(5) 0.3295(4) -0.0919(3)
H5 H 0.6722 0.3384 -0.0602
H6 H 0.6155 0.2829 -0.0707
H7 H 0.5966 0.3868 -0.1081
C3 C 0.7815(5) 0.3528(4) -0.1763(3)
C4 C 0.7570(4) 0.4383(5) -0.1651(3)
H8 H 0.6997 0.4614 -0.1353
C5 C 0.8147(5) 0.4917(4) -0.1966(4)
H9 H 0.7960 0.5504 -0.1881
C6 C 0.8975(5) 0.4601(5) -0.2395(3)
H10 H 0.9355 0.4973 -0.2614
C7 C 0.9273(5) 0.3710(4) -0.2517(3)
C8 C 1.0159(4) 0.3335(5) -0.2929(3)
C9 C 1.0438(4) 0.2474(5) -0.3004(3)
H11 H 1.1017 0.2238 -0.3296
C10 C 0.9888(5) 0.1929(5) -0.2658(3)
H12 H 1.0095 0.1320 -0.2707
C11 C 0.9061(5) 0.2270(4) -0.2254(3)
H13 H 0.8701 0.1885 -0.2014
C12 C 0.8704(4) 0.3169(4) -0.2168(3)
C13 C 1.1939(4) 0.3359(4) -0.2376(3)
H14 H 1.2350 0.3599 -0.2263
H15 H 1.2360 0.2862 -0.2608
C14 C 1.1345(4) 0.2981(4) -0.1747(3)
H16 H 1.0872 0.3493 -0.1547
H17 H 1.0986 0.2686 -0.1861
C15 C 1.1931(4) 0.2299(3) -0.1246(2)
H18 H 1.2134 0.2629 -0.1034
H19 H 1.2516 0.1888 -0.1475
C16 C 1.0966(4) 0.1024(3) -0.1006(3)
C17 C 1.1606(4) 0.0617(4) -0.1511(3)
H20 H 1.2184 0.0743 -0.1695
C18 C 1.1421(6) 0.0045(4) -0.1748(3)
H21 H 1.1868 -0.0228 -0.2094
C19 C 1.0594(7) -0.0140(4) -0.1489(3)
H22 H 1.0471 -0.0552 -0.1647
C20 C 0.9951(5) 0.0261(5) -0.1008(3)
H23 H 0.9365 0.0147 -0.0842
C21 C 1.0133(5) 0.0835(4) -0.0753(3)
H24 H 0.9683 0.1099 -0.0405
C22 C 1.2080(4) 0.0854(4) -0.0108(2)
C23 C 1.2297(4) -0.0082(4) -0.0017(3)
H25 H 1.2046 -0.0294 -0.0261
C24 C 1.2860(6) -0.0700(5) 0.0416(4)
H26 H 1.2985 -0.1330 0.0473
C25 C 1.3240(5) -0.0419(6) 0.0761(4)
H27 H 1.3624 -0.0851 0.1064
C26 C 1.3071(5) 0.0490(6) 0.0674(3)
H28 H 1.3354 0.0695 0.0902
C27 C 1.2482(4) 0.1098(4) 0.0248(3)
H29 H 1.2349 0.1728 0.0201
C28 C 1.0270(3) 0.2331(3) -0.0177(3)
C29 C 0.9538(4) 0.2980(4) -0.0490(3)
H30 H 0.9580 0.3023 -0.0941
C30 C 0.8760(4) 0.3557(3) -0.0160(3)
H31 H 0.8298 0.4021 -0.0398
C31 C 0.8620(4) 0.3490(3) 0.0507(3)
C32 C 0.9344(4) 0.2836(3) 0.0815(3)
H32 H 0.9285 0.2777 0.1271
C33 C 1.0160(4) 0.2256(3) 0.0486(3)
H33 H 1.0638 0.1809 0.0718
C34 C 0.7489(4) 0.5192(3) 0.0353(2)
C35 C 0.8151(4) 0.5652(4) 0.0199(3)
C36 C 0.8138(5) 0.6364(4) -0.0345(3)
H34 H 0.8609 0.6638 -0.0445
C37 C 0.7482(6) 0.6694(4) -0.0748(3)
C38 C 0.6805(5) 0.6274(4) -0.0575(3)
H35 H 0.6319 0.6500 -0.0827
C39 C 0.6803(4) 0.5542(4) -0.0054(3)
C40 C 0.8916(4) 0.5397(4) 0.0585(3)
H36 H 0.9286 0.5806 0.0390
H37 H 0.9342 0.4769 0.0575
H38 H 0.8617 0.5450 0.1040
C41 C 0.7506(6) 0.7445(4) -0.1360(3)
H39 H 0.8026 0.7661 -0.1399
H40 H 0.6894 0.7950 -0.1328
H41 H 0.7612 0.7208 -0.1747
C42 C 0.6044(4) 0.5140(4) 0.0029(3)
H42 H 0.5652 0.5490 -0.0307
H43 H 0.5636 0.5164 0.0465
H44 H 0.6353 0.4506 -0.0018
C43 C 0.6728(4) 0.3848(4) 0.1243(2)
C44 C 0.5947(4) 0.4388(4) 0.1622(3)
C45 C 0.5148(4) 0.4145(5) 0.1941(3)
H45 H 0.4630 0.4536 0.2192
C46 C 0.5085(5) 0.3337(5) 0.1901(3)
C47 C 0.5861(5) 0.2811(4) 0.1542(3)
H46 H 0.5853 0.2247 0.1517
C48 C 0.6664(4) 0.3042(4) 0.1208(3)
C49 C 0.5884(4) 0.5307(4) 0.1690(3)
H47 H 0.5279 0.5570 0.1978
H48 H 0.5912 0.5717 0.1257
H49 H 0.6421 0.5226 0.1879
C50 C 0.4205(4) 0.3066(5) 0.2274(3)
H50 H 0.4284 0.2486 0.2187
H51 H 0.3630 0.3537 0.2126
H52 H 0.4138 0.3001 0.2745
C51 C 0.7419(4) 0.2350(4) 0.0829(3)
H53 H 0.7198 0.1847 0.0885
H54 H 0.8016 0.2117 0.0993
H55 H 0.7530 0.2639 0.0362
C52 C 0.7984(4) 0.4210(4) 0.1528(3)
S2 S 0.06393(16) 0.90150(12) 0.70495(9)
P2 P 0.46329(13) 0.67169(10) 0.59009(7)
B2 B 0.5038(5) 0.9213(4) 0.3098(3)
N4 N 0.1342(4) 0.7897(3) 0.4277(3)
N5 N 0.1648(4) 0.9124(3) 0.6971(2)
H56 H 0.1670 0.9678 0.6845
N6 N 0.6810(4) 0.9374(4) 0.2931(3)
O3 O 0.0466(4) 0.8461(3) 0.7676(2)
O4 O -0.0028(3) 0.9913(3) 0.6877(2)
C53 C 0.0430(5) 0.7839(4) 0.4311(3)
H57 H 0.0118 0.7706 0.4772
H58 H 0.0525 0.7352 0.4101
H59 H 0.0025 0.8419 0.4085
C54 C 0.1836(5) 0.8108(4) 0.3592(3)
H60 H 0.2451 0.8147 0.3586
H61 H 0.1439 0.8691 0.3364
H62 H 0.1946 0.7628 0.3371
C55 C 0.1288(4) 0.8476(4) 0.4671(3)
C56 C 0.1417(4) 0.9323(5) 0.4424(3)
H63 H 0.1573 0.9536 0.3963
C57 C 0.1318(4) 0.9850(4) 0.4845(3)
H64 H 0.1413 1.0418 0.4666
C58 C 0.1092(4) 0.9588(4) 0.5494(3)
H65 H 0.1000 0.9987 0.5762
C59 C 0.0984(4) 0.8733(4) 0.5797(3)
C60 C 0.0790(4) 0.8381(4) 0.6474(3)
C61 C 0.0759(5) 0.7536(5) 0.6715(3)
H66 H 0.0616 0.7321 0.7176
C62 C 0.0937(5) 0.6963(4) 0.6290(4)
H67 H 0.0934 0.6359 0.6464
C63 C 0.1107(4) 0.7274(4) 0.5648(3)
H68 H 0.1217 0.6887 0.5366
C64 C 0.1130(4) 0.8152(4) 0.5369(3)
C65 C 0.2518(5) 0.8384(4) 0.7090(3)
H69 H 0.2366 0.7875 0.7426
H70 H 0.2910 0.8586 0.7257
C66 C 0.3099(5) 0.8054(4) 0.6435(3)
H71 H 0.2752 0.7763 0.6306
H72 H 0.3161 0.8583 0.6080
C67 C 0.4069(5) 0.7392(4) 0.6529(3)
H73 H 0.4014 0.6980 0.6965
H74 H 0.4480 0.7727 0.6518
C68 C 0.5746(5) 0.5945(5) 0.6104(3)
C69 C 0.5951(6) 0.5012(5) 0.6225(3)
H75 H 0.5497 0.4773 0.6208
C70 C 0.6821(9) 0.4455(7) 0.6367(5)
H76 H 0.6943 0.3819 0.6475
C71 C 0.7531(9) 0.4736(10) 0.6367(6)
H77 H 0.8146 0.4312 0.6432
C72 C 0.7338(8) 0.5600(8) 0.6276(5)
H78 H 0.7799 0.5820 0.6308
C73 C 0.6454(7) 0.6211(5) 0.6132(4)
H79 H 0.6341 0.6843 0.6049
C74 C 0.3929(4) 0.6076(4) 0.5941(3)
C75 C 0.3913(5) 0.5852(4) 0.5379(3)
H80 H 0.4209 0.6111 0.4961
C76 C 0.3463(6) 0.5248(5) 0.5432(4)
H81 H 0.3472 0.5077 0.5051
C77 C 0.3011(5) 0.4902(5) 0.6028(5)
H82 H 0.2696 0.4495 0.6064
C78 C 0.3015(6) 0.5141(5) 0.6566(4)
H83 H 0.2689 0.4906 0.6980
C79 C 0.3474(5) 0.5713(4) 0.6531(3)
H84 H 0.3476 0.5858 0.6920
C80 C 0.4793(5) 0.7397(3) 0.5108(3)
C81 C 0.5679(4) 0.7355(4) 0.4721(3)
H85 H 0.6243 0.6942 0.4879
C82 C 0.5748(4) 0.7911(4) 0.4105(3)
H86 H 0.6370 0.7883 0.3859
C83 C 0.4965(4) 0.8512(3) 0.3821(3)
C84 C 0.4081(4) 0.8536(4) 0.4220(3)
H87 H 0.3514 0.8940 0.4062
C85 C 0.4002(4) 0.7986(4) 0.4842(3)
H88 H 0.3383 0.8016 0.5094
C86 C 0.4114(5) 1.0143(4) 0.3182(3)
C87 C 0.3283(5) 1.0384(5) 0.2941(3)
C88 C 0.2494(6) 1.1159(6) 0.3044(4)
H89 H 0.1946 1.1297 0.2869
C89 C 0.2490(7) 1.1726(6) 0.3391(5)
C90 C 0.3265(8) 1.1493(6) 0.3647(4)
H90 H 0.3256 1.1869 0.3906
C91 C 0.4074(6) 1.0739(5) 0.3556(4)
C92 C 0.3146(4) 0.9801(5) 0.2590(3)
H91 H 0.3732 0.9273 0.2536
H92 H 0.3003 1.0155 0.2158
H93 H 0.2613 0.9593 0.2847
C93 C 0.1619(6) 1.2575(6) 0.3491(6)
H94 H 0.1737 1.2900 0.3751
H95 H 0.1057 1.2400 0.3724
H96 H 0.1504 1.2973 0.3064
C94 C 0.4872(6) 1.0537(5) 0.3914(4)
H97 H 0.4711 1.1030 0.4137
H98 H 0.5475 1.0490 0.3597
H99 H 0.4943 0.9962 0.4238
C95 C 0.5234(4) 0.8828(4) 0.2441(3)
C96 C 0.5266(4) 0.7947(4) 0.2429(3)
C97 C 0.5439(4) 0.7684(4) 0.1843(4)
H100 H 0.5471 0.7087 0.1865
C98 C 0.5564(4) 0.8231(5) 0.1241(4)
C99 C 0.5548(4) 0.9093(5) 0.1244(3)
H101 H 0.5653 0.9492 0.0834
C100 C 0.5389(4) 0.9391(4) 0.1812(3)
C101 C 0.5078(5) 0.7253(4) 0.3056(3)
H102 H 0.5132 0.6701 0.2941
H103 H 0.4433 0.7512 0.3303
H104 H 0.5550 0.7101 0.3326
C102 C 0.5704(4) 0.7944(5) 0.0616(3)
H105 H 0.5692 0.7325 0.0720
H106 H 0.6322 0.7960 0.0341
H107 H 0.5189 0.8361 0.0380
C103 C 0.5374(4) 1.0340(3) 0.1725(3)
H108 H 0.5497 1.0612 0.1256
H109 H 0.5869 1.0317 0.1929
H110 H 0.4745 1.0707 0.1932
C104 C 0.6053(5) 0.9359(4) 0.3010(3)
loop_
_geom_bond_atom_site_label_1
_geom_bond_atom_site_label_2
_geom_bond_site_symmetry_1
_geom_bond_site_symmetry_2
S1 O1 1_555 1_555
P1 C15 1_555 1_555
O2 S1 1_555 1_555
N1 C1 1_555 1_555
N2 S1 1_555 1_555
H1 N2 1_555 1_555
N3 C52 1_555 1_555
B1 C31 1_555 1_555
C1 H2 1_555 1_555
H3 C1 1_555 1_555
H4 C1 1_555 1_555
C2 N1 1_555 1_555
H5 C2 1_555 1_555
H6 C2 1_555 1_555
H7 C2 1_555 1_555
C3 N1 1_555 1_555
C4 C3 1_555 1_555
H8 C4 1_555 1_555
C5 C4 1_555 1_555
H9 C5 1_555 1_555
C6 C5 1_555 1_555
H10 C6 1_555 1_555
C7 C6 1_555 1_555
C8 S1 1_555 1_555
C9 C8 1_555 1_555
H11 C9 1_555 1_555
C10 C9 1_555 1_555
H12 C10 1_555 1_555
C11 C10 1_555 1_555
H13 C11 1_555 1_555
C12 C3 1_555 1_555
C13 N2 1_555 1_555
H14 C13 1_555 1_555
H15 C13 1_555 1_555
C14 C13 1_555 1_555
H16 C14 1_555 1_555
H17 C14 1_555 1_555
C15 C14 1_555 1_555
H18 C15 1_555 1_555
H19 C15 1_555 1_555
C16 P1 1_555 1_555
C17 C16 1_555 1_555
H20 C17 1_555 1_555
C18 C17 1_555 1_555
H21 C18 1_555 1_555
C19 C18 1_555 1_555
H22 C19 1_555 1_555
C20 C19 1_555 1_555
H23 C20 1_555 1_555
C21 C16 1_555 1_555
H24 C21 1_555 1_555
C22 P1 1_555 1_555
C23 C22 1_555 1_555
H25 C23 1_555 1_555
C24 C23 1_555 1_555
H26 C24 1_555 1_555
C25 C24 1_555 1_555
H27 C25 1_555 1_555
C26 C25 1_555 1_555
H28 C26 1_555 1_555
C27 C22 1_555 1_555
H29 C27 1_555 1_555
C28 P1 1_555 1_555
C29 C28 1_555 1_555
H30 C29 1_555 1_555
C30 C29 1_555 1_555
H31 C30 1_555 1_555
C31 C30 1_555 1_555
C32 C31 1_555 1_555
H32 C32 1_555 1_555
C33 C28 1_555 1_555
H33 C33 1_555 1_555
C34 B1 1_555 1_555
C35 C34 1_555 1_555
C36 C35 1_555 1_555
H34 C36 1_555 1_555
C37 C36 1_555 1_555
C38 C37 1_555 1_555
H35 C38 1_555 1_555
C39 C34 1_555 1_555
C40 C35 1_555 1_555
H36 C40 1_555 1_555
H37 C40 1_555 1_555
H38 C40 1_555 1_555
C41 C37 1_555 1_555
H39 C41 1_555 1_555
H40 C41 1_555 1_555
H41 C41 1_555 1_555
C42 C39 1_555 1_555
H42 C42 1_555 1_555
H43 C42 1_555 1_555
H44 C42 1_555 1_555
C43 B1 1_555 1_555
C44 C43 1_555 1_555
C45 C44 1_555 1_555
H45 C45 1_555 1_555
C46 C45 1_555 1_555
C47 C46 1_555 1_555
H46 C47 1_555 1_555
C48 C43 1_555 1_555
C49 C44 1_555 1_555
H47 C49 1_555 1_555
H48 C49 1_555 1_555
H49 C49 1_555 1_555
C50 C46 1_555 1_555
H50 C50 1_555 1_555
H51 C50 1_555 1_555
H52 C50 1_555 1_555
C51 C48 1_555 1_555
H53 C51 1_555 1_555
H54 C51 1_555 1_555
H55 C51 1_555 1_555
C52 B1 1_555 1_555
S2 N5 1_555 1_555
P2 C67 1_555 1_555
B2 C83 1_555 1_555
N4 C53 1_555 1_555
N5 H56 1_555 1_555
N6 C104 1_555 1_555
O3 S2 1_555 1_555
O4 S2 1_555 1_555
C53 H57 1_555 1_555
H58 C53 1_555 1_555
H59 C53 1_555 1_555
C54 N4 1_555 1_555
H60 C54 1_555 1_555
H61 C54 1_555 1_555
H62 C54 1_555 1_555
C55 N4 1_555 1_555
C56 C55 1_555 1_555
H63 C56 1_555 1_555
C57 C56 1_555 1_555
H64 C57 1_555 1_555
C58 C57 1_555 1_555
H65 C58 1_555 1_555
C59 C58 1_555 1_555
C60 S2 1_555 1_555
C61 C60 1_555 1_555
H66 C61 1_555 1_555
C62 C61 1_555 1_555
H67 C62 1_555 1_555
C63 C62 1_555 1_555
H68 C63 1_555 1_555
C64 C55 1_555 1_555
C65 N5 1_555 1_555
H69 C65 1_555 1_555
H70 C65 1_555 1_555
C66 C65 1_555 1_555
H71 C66 1_555 1_555
H72 C66 1_555 1_555
C67 C66 1_555 1_555
H73 C67 1_555 1_555
H74 C67 1_555 1_555
C68 P2 1_555 1_555
C69 C68 1_555 1_555
H75 C69 1_555 1_555
C70 C69 1_555 1_555
H76 C70 1_555 1_555
C71 C70 1_555 1_555
H77 C71 1_555 1_555
C72 C71 1_555 1_555
H78 C72 1_555 1_555
C73 C68 1_555 1_555
H79 C73 1_555 1_555
C74 P2 1_555 1_555
C75 C74 1_555 1_555
H80 C75 1_555 1_555
C76 C75 1_555 1_555
H81 C76 1_555 1_555
C77 C76 1_555 1_555
H82 C77 1_555 1_555
C78 C77 1_555 1_555
H83 C78 1_555 1_555
C79 C74 1_555 1_555
H84 C79 1_555 1_555
C80 P2 1_555 1_555
C81 C80 1_555 1_555
H85 C81 1_555 1_555
C82 C81 1_555 1_555
H86 C82 1_555 1_555
C83 C82 1_555 1_555
C84 C83 1_555 1_555
H87 C84 1_555 1_555
C85 C80 1_555 1_555
H88 C85 1_555 1_555
C86 B2 1_555 1_555
C87 C86 1_555 1_555
C88 C87 1_555 1_555
H89 C88 1_555 1_555
C89 C88 1_555 1_555
C90 C89 1_555 1_555
H90 C90 1_555 1_555
C91 C86 1_555 1_555
C92 C87 1_555 1_555
H91 C92 1_555 1_555
H92 C92 1_555 1_555
H93 C92 1_555 1_555
C93 C89 1_555 1_555
H94 C93 1_555 1_555
H95 C93 1_555 1_555
H96 C93 1_555 1_555
C94 C91 1_555 1_555
H97 C94 1_555 1_555
H98 C94 1_555 1_555
H99 C94 1_555 1_555
C95 B2 1_555 1_555
C96 C95 1_555 1_555
C97 C96 1_555 1_555
H100 C97 1_555 1_555
C98 C97 1_555 1_555
C99 C98 1_555 1_555
H101 C99 1_555 1_555
C100 C95 1_555 1_555
C101 C96 1_555 1_555
H102 C101 1_555 1_555
H103 C101 1_555 1_555
H104 C101 1_555 1_555
C102 C98 1_555 1_555
H105 C102 1_555 1_555
H106 C102 1_555 1_555
H107 C102 1_555 1_555
C103 C100 1_555 1_555
H108 C103 1_555 1_555
H109 C103 1_555 1_555
H110 C103 1_555 1_555
C104 B2 1_555 1_555
C7 C8 1_555 1_555
C7 C12 1_555 1_555
C11 C12 1_555 1_555
C20 C21 1_555 1_555
C26 C27 1_555 1_555
C32 C33 1_555 1_555
C38 C39 1_555 1_555
C47 C48 1_555 1_555
C59 C60 1_555 1_555
C59 C64 1_555 1_555
C63 C64 1_555 1_555
C72 C73 1_555 1_555
C78 C79 1_555 1_555
C84 C85 1_555 1_555
C90 C91 1_555 1_555
C99 C100 1_555 1_555

#END
