
#######################################################################
#
#                 Cambridge Crystallographic Data Centre
#                                CCDC 
#
#######################################################################
#
# If this CIF has been generated from an entry in the Cambridge 
# Structural Database, then it will include bibliographic, chemical, 
# crystal, experimental, refinement or atomic coordinate data resulting 
# from the CCDC's data processing and validation procedures.
#
#######################################################################

data_ONIKAZ
_chemical_formula_moiety         'C2 H3 N6 O1 1-,C1 H7 N4 1+'
_chemical_name_systematic        
'amino(hydrazino)methaniminium (2-methyl-2H-tetrazol-5-yl)diazenolate'
_symmetry_cell_setting           triclinic
_symmetry_space_group_name_H-M   'P -1'
_symmetry_Int_Tables_number      2
_space_group_name_Hall           '-P 1'
loop_
_symmetry_equiv_pos_site_id
_symmetry_equiv_pos_as_xyz
1 x,y,z
2 -x,-y,-z
_cell_length_a                   3.805(3)
_cell_length_b                   7.898(6)
_cell_length_c                   15.015(11)
_cell_angle_alpha                84.83(2)
_cell_angle_beta                 82.81(2)
_cell_angle_gamma                83.49(2)
_cell_volume                     443.473
_cell_formula_units_Z            2
loop_
_atom_site_label
_atom_site_type_symbol
_atom_site_fract_x
_atom_site_fract_y
_atom_site_fract_z
O1 O 0.0561(4) 0.0828(2) 0.3915(1)
N1 N 0.4855(5) 0.3501(2) 0.1779(1)
N2 N 0.6476(5) 0.3907(2) 0.0954(1)
N3 N 0.6865(5) 0.2497(2) 0.0527(1)
N4 N 0.5626(4) 0.1149(2) 0.1020(1)
N5 N 0.2889(5) 0.0772(2) 0.2526(1)
N6 N 0.1894(5) 0.1672(2) 0.3201(1)
C1 C 0.4395(5) 0.1816(2) 0.1797(1)
C2 C 0.8571(6) 0.2415(3) -0.0399(1)
H1 H 0.9548 0.3498 -0.0604
H2 H 0.6809 0.2212 -0.0791
H3 H 1.0499 0.1480 -0.0424
N7 N 0.4536(6) 0.2526(2) 0.5225(1)
N8 N 0.2420(5) 0.2191(2) 0.6055(1)
N9 N -0.1263(5) 0.3153(3) 0.7275(1)
N10 N 0.1508(6) 0.5074(2) 0.6234(1)
C3 C 0.0855(6) 0.3487(3) 0.6512(1)
H4 H 0.651(6) 0.190(3) 0.5230(14)
H5 H 0.332(6) 0.223(3) 0.4808(16)
H6 H 0.151(6) 0.120(3) 0.6202(14)
H7 H -0.253(6) 0.399(3) 0.7533(15)
H8 H -0.196(6) 0.206(4) 0.7431(16)
H9 H 0.300(6) 0.530(3) 0.5694(16)
H10 H 0.044(6) 0.587(3) 0.6549(17)
loop_
_geom_bond_atom_site_label_1
_geom_bond_atom_site_label_2
_geom_bond_site_symmetry_1
_geom_bond_site_symmetry_2
O1 N6 1_555 1_555
N1 N2 1_555 1_555
N2 N3 1_555 1_555
N3 N4 1_555 1_555
N4 C1 1_555 1_555
N5 N6 1_555 1_555
C1 N1 1_555 1_555
C2 N3 1_555 1_555
H1 C2 1_555 1_555
H2 C2 1_555 1_555
H3 C2 1_555 1_555
N7 N8 1_555 1_555
N8 C3 1_555 1_555
N9 C3 1_555 1_555
N10 C3 1_555 1_555
H4 N7 1_555 1_555
H5 N7 1_555 1_555
H6 N8 1_555 1_555
H7 N9 1_555 1_555
H8 N9 1_555 1_555
H9 N10 1_555 1_555
H10 N10 1_555 1_555
N5 C1 1_555 1_555

#END
