
#######################################################################
#
#                 Cambridge Crystallographic Data Centre
#                                CCDC 
#
#######################################################################
#
# If this CIF has been generated from an entry in the Cambridge 
# Structural Database, then it will include bibliographic, chemical, 
# crystal, experimental, refinement or atomic coordinate data resulting 
# from the CCDC's data processing and validation procedures.
#
#######################################################################

data_ONIVIS
_chemical_formula_moiety         'C18 H16 Br2 S1'
_chemical_name_systematic        
'allyl 1,3-bis(4-bromophenyl)prop-2-en-1-yl sulfide'
_symmetry_cell_setting           orthorhombic
_symmetry_space_group_name_H-M   'P 21 21 21'
_symmetry_Int_Tables_number      19
_space_group_name_Hall           'P 2ac 2ab'
loop_
_symmetry_equiv_pos_site_id
_symmetry_equiv_pos_as_xyz
1 x,y,z
2 1/2-x,-y,1/2+z
3 -x,1/2+y,1/2-z
4 1/2+x,1/2-y,-z
_cell_length_a                   7.604(8)
_cell_length_b                   9.541(10)
_cell_length_c                   24.58(3)
_cell_angle_alpha                90
_cell_angle_beta                 90
_cell_angle_gamma                90
_cell_volume                     1783.27
_exptl_crystal_colour            colorless
_exptl_crystal_description       block
_cell_formula_units_Z            4
loop_
_atom_site_label
_atom_site_type_symbol
_atom_site_fract_x
_atom_site_fract_y
_atom_site_fract_z
Br1 Br -0.05743(16) 0.17942(13) 0.84768(4)
S1 S 0.7041(3) 0.2411(2) 0.69322(13)
C1 C 0.4869(9) 0.2936(7) 0.6666(3)
H1 H 0.4577 0.2325 0.6358
C2 C 0.3570(10) 0.2677(7) 0.7109(3)
Br2 Br 0.44937(16) 1.08427(9) 0.50590(4)
C3 C 0.2930(11) 0.1315(8) 0.7200(3)
H2 H 0.3341 0.0573 0.6991
C4 C 0.1102(9) 0.2161(10) 0.7929(3)
C5 C 0.1686(12) 0.1077(9) 0.7602(4)
H3 H 0.1240 0.0178 0.7652
C6 C 0.1734(11) 0.3476(9) 0.7849(3)
H4 H 0.1342 0.4207 0.8069
C7 C 0.2952(10) 0.3738(8) 0.7447(3)
H5 H 0.3371 0.4645 0.7400
C8 C 0.4924(9) 0.4420(7) 0.6465(3)
H6 H 0.5306 0.5099 0.6710
C9 C 0.4486(11) 0.4850(7) 0.5979(3)
H7 H 0.4127 0.4161 0.5735
C10 C 0.4493(10) 0.6289(7) 0.5773(3)
C11 C 0.5144(10) 0.7412(8) 0.6069(3)
H8 H 0.5602 0.7254 0.6414
C12 C 0.5131(11) 0.8759(7) 0.5864(3)
H9 H 0.5588 0.9493 0.6069
C13 C 0.4452(11) 0.9007(7) 0.5365(3)
C14 C 0.3786(11) 0.7941(9) 0.5058(3)
H10 H 0.3334 0.8118 0.4714
C15 C 0.3791(10) 0.6585(9) 0.5266(3)
H11 H 0.3313 0.5861 0.5061
C16 C 0.8538(16) 0.2779(12) 0.6378(5)
H12 H 0.8066 0.3561 0.6173
H13 H 0.9647 0.3083 0.6534
C17 C 0.8872(18) 0.1732(15) 0.6030(5)
H14 H 0.7906 0.1497 0.5816
C18 C 1.0241(18) 0.0978(13) 0.5926(5)
H15 H 1.1280 0.1127 0.6117
H16 H 1.0189 0.0286 0.5660
loop_
_geom_bond_atom_site_label_1
_geom_bond_atom_site_label_2
_geom_bond_site_symmetry_1
_geom_bond_site_symmetry_2
Br1 C4 1_555 1_555
S1 C1 1_555 1_555
C1 H1 1_555 1_555
C2 C1 1_555 1_555
Br2 C13 1_555 1_555
C3 C2 1_555 1_555
H2 C3 1_555 1_555
C4 C5 1_555 1_555
C5 C3 1_555 1_555
H3 C5 1_555 1_555
C6 C4 1_555 1_555
H4 C6 1_555 1_555
C7 C2 1_555 1_555
H5 C7 1_555 1_555
C8 C1 1_555 1_555
H6 C8 1_555 1_555
C9 C8 1_555 1_555
H7 C9 1_555 1_555
C10 C9 1_555 1_555
C11 C10 1_555 1_555
H8 C11 1_555 1_555
C12 C11 1_555 1_555
H9 C12 1_555 1_555
C13 C12 1_555 1_555
C14 C13 1_555 1_555
H10 C14 1_555 1_555
C15 C10 1_555 1_555
H11 C15 1_555 1_555
C16 S1 1_555 1_555
H12 C16 1_555 1_555
H13 C16 1_555 1_555
C17 C16 1_555 1_555
H14 C17 1_555 1_555
C18 C17 1_555 1_555
H15 C18 1_555 1_555
H16 C18 1_555 1_555
C6 C7 1_555 1_555
C14 C15 1_555 1_555

#END
