
#######################################################################
#
#                 Cambridge Crystallographic Data Centre
#                                CCDC 
#
#######################################################################
#
# If this CIF has been generated from an entry in the Cambridge 
# Structural Database, then it will include bibliographic, chemical, 
# crystal, experimental, refinement or atomic coordinate data resulting 
# from the CCDC's data processing and validation procedures.
#
#######################################################################

data_ONONIP
_chemical_formula_moiety         'C17 H21 N3 O6'
_chemical_name_systematic        
'Ethyl 3-(ethoxymethyl)-6-methyl-4-(4-nitrophenyl)-2-oxo-1,2,3,4-tetrahydropyrimidine-5-carboxylate'
_symmetry_cell_setting           monoclinic
_symmetry_space_group_name_H-M   'P 21/c'
_symmetry_Int_Tables_number      14
_space_group_name_Hall           '-P 2ybc'
loop_
_symmetry_equiv_pos_site_id
_symmetry_equiv_pos_as_xyz
1 x,y,z
2 -x,1/2+y,1/2-z
3 -x,-y,-z
4 x,1/2-y,1/2+z
_cell_length_a                   12.3053(7)
_cell_length_b                   7.5269(4)
_cell_length_c                   19.9403(11)
_cell_angle_alpha                90
_cell_angle_beta                 93.831(3)
_cell_angle_gamma                90
_cell_volume                     1842.76
_exptl_crystal_colour            yellow
_exptl_crystal_description       block
_cell_formula_units_Z            4
loop_
_atom_site_label
_atom_site_type_symbol
_atom_site_fract_x
_atom_site_fract_y
_atom_site_fract_z
C1 C 0.10489(18) 0.9974(3) 0.08304(12)
C2 C 0.04305(18) 0.7032(3) 0.11400(12)
C3 C 0.10608(17) 0.7054(3) 0.17135(11)
C4 C 0.19497(17) 0.8434(3) 0.18171(11)
H1 H 0.1993 0.8769 0.2293
C5 C 0.30617(17) 0.7720(3) 0.16577(11)
C6 C 0.39049(18) 0.7627(3) 0.21532(11)
H2 H 0.3780 0.7970 0.2589
C7 C 0.49255(19) 0.7034(3) 0.20118(12)
H3 H 0.5486 0.6968 0.2348
C8 C 0.50928(18) 0.6547(3) 0.13678(11)
C9 C 0.42735(19) 0.6593(3) 0.08629(11)
H4 H 0.4403 0.6241 0.0428
C10 C 0.32614(19) 0.7170(3) 0.10166(11)
H5 H 0.2698 0.7192 0.0682
C11 C -0.0434(2) 0.5705(3) 0.09266(14)
H6 H -0.0109 0.4553 0.0888
H7 H -0.0778 0.6050 0.0500
H8 H -0.0968 0.5663 0.1256
C12 C 0.0903(2) 0.5812(4) 0.22638(13)
C13 C 0.1538(3) 0.5045(5) 0.33710(17)
H9 H 0.0791 0.5117 0.3496
H10 H 0.1703 0.3808 0.3287
C14 C 0.2245(4) 0.5691(6) 0.39030(19)
H11 H 0.2982 0.5383 0.3823
H12 H 0.2053 0.5169 0.4318
H13 H 0.2179 0.6959 0.3929
C15 C 0.2129(2) 1.1709(3) 0.16536(13)
H14 H 0.1786 1.2670 0.1394
H15 H 0.1979 1.1886 0.2120
C16 C 0.3558(2) 1.1900(4) 0.09178(15)
H16 H 0.3353 1.3050 0.0730
H17 H 0.3191 1.0986 0.0645
C17 C 0.4763(3) 1.1661(4) 0.09258(18)
H18 H 0.5118 1.2589 0.1188
H19 H 0.4987 1.1710 0.0474
H20 H 0.4958 1.0529 0.1120
N1 N 0.05619(16) 0.8373(3) 0.06742(11)
N2 N 0.16519(15) 1.0037(2) 0.14228(9)
N3 N 0.61861(17) 0.5964(3) 0.12008(12)
O1 O 0.09155(14) 1.1269(2) 0.04558(9)
O2 O 0.63459(16) 0.5674(3) 0.06190(11)
O3 O 0.68817(16) 0.5781(3) 0.16575(11)
O4 O 0.02091(19) 0.4698(3) 0.22847(11)
O5 O 0.16582(15) 0.6068(3) 0.27703(9)
O6 O 0.32569(15) 1.1780(2) 0.15957(9)
H21 H 0.0118(19) 0.838(3) 0.0318(13)
loop_
_geom_bond_atom_site_label_1
_geom_bond_atom_site_label_2
_geom_bond_site_symmetry_1
_geom_bond_site_symmetry_2
C1 N1 1_555 1_555
C2 C3 1_555 1_555
C3 C4 1_555 1_555
C4 H1 1_555 1_555
C5 C4 1_555 1_555
C6 C5 1_555 1_555
H2 C6 1_555 1_555
C7 C6 1_555 1_555
H3 C7 1_555 1_555
C8 C7 1_555 1_555
C9 C8 1_555 1_555
H4 C9 1_555 1_555
C10 C5 1_555 1_555
H5 C10 1_555 1_555
C11 C2 1_555 1_555
H6 C11 1_555 1_555
H7 C11 1_555 1_555
H8 C11 1_555 1_555
C12 C3 1_555 1_555
C13 H9 1_555 1_555
H10 C13 1_555 1_555
C14 C13 1_555 1_555
H11 C14 1_555 1_555
H12 C14 1_555 1_555
H13 C14 1_555 1_555
C15 H14 1_555 1_555
H15 C15 1_555 1_555
C16 H16 1_555 1_555
H17 C16 1_555 1_555
C17 C16 1_555 1_555
H18 C17 1_555 1_555
H19 C17 1_555 1_555
H20 C17 1_555 1_555
N1 C2 1_555 1_555
N2 C1 1_555 1_555
N3 C8 1_555 1_555
O1 C1 1_555 1_555
O2 N3 1_555 1_555
O3 N3 1_555 1_555
O4 C12 1_555 1_555
O5 C12 1_555 1_555
O6 C15 1_555 1_555
H21 N1 1_555 1_555
C4 N2 1_555 1_555
C9 C10 1_555 1_555
C13 O5 1_555 1_555
C15 N2 1_555 1_555
C16 O6 1_555 1_555

#END
