
#######################################################################
#
#                 Cambridge Crystallographic Data Centre
#                                CCDC 
#
#######################################################################
#
# If this CIF has been generated from an entry in the Cambridge 
# Structural Database, then it will include bibliographic, chemical, 
# crystal, experimental, refinement or atomic coordinate data resulting 
# from the CCDC's data processing and validation procedures.
#
#######################################################################

data_ONONOV
_chemical_formula_moiety         'C18 H24 N2 O3 S1'
_chemical_name_systematic        
'Ethyl 3-(ethoxymethyl)-6-methyl-4-(4-methylphenyl)-2-thioxo-1,2,3,4-tetrahydropyrimidine-5-carboxylate'
_symmetry_cell_setting           triclinic
_symmetry_space_group_name_H-M   'P -1'
_symmetry_Int_Tables_number      2
_space_group_name_Hall           '-P 1'
loop_
_symmetry_equiv_pos_site_id
_symmetry_equiv_pos_as_xyz
1 x,y,z
2 -x,-y,-z
_cell_length_a                   9.5792(6)
_cell_length_b                   10.3014(6)
_cell_length_c                   11.1462(7)
_cell_angle_alpha                74.857(3)
_cell_angle_beta                 81.282(3)
_cell_angle_gamma                64.763(3)
_cell_volume                     959.35
_exptl_crystal_colour            colorless
_exptl_crystal_description       block
_cell_formula_units_Z            2
loop_
_atom_site_label
_atom_site_type_symbol
_atom_site_fract_x
_atom_site_fract_y
_atom_site_fract_z
C1 C 0.8700(4) 0.0378(4) 0.7315(3)
H1 H 0.8194 -0.0218 0.7229
H2 H 0.8193 0.0875 0.7979
H3 H 0.9761 -0.0234 0.7500
C2 C 0.8626(3) 0.1495(3) 0.6121(3)
C3 C 0.9310(5) 0.2451(4) 0.5997(3)
H4 H 0.9815 0.2413 0.6663
C4 C 0.9265(5) 0.3471(4) 0.4901(3)
H5 H 0.9742 0.4105 0.4850
C5 C 0.8550(3) 0.3580(3) 0.3896(2)
C6 C 0.7883(4) 0.2614(3) 0.4008(3)
H6 H 0.7390 0.2642 0.3338
C7 C 0.7934(4) 0.1596(4) 0.5111(3)
H7 H 0.7471 0.0952 0.5158
C8 C 0.8562(3) 0.4684(3) 0.2678(2)
H8 H 0.9071 0.5276 0.2819
C9 C 0.6220(3) 0.5495(3) 0.1509(2)
C10 C 0.8696(3) 0.3779(3) 0.0807(2)
C11 C 0.9465(3) 0.3935(2) 0.1640(2)
C12 C 1.1161(3) 0.3322(3) 0.1607(3)
C13 C 1.3300(4) 0.3055(5) 0.2671(4)
H9 H 1.3827 0.2378 0.2124
H10 H 1.3640 0.3853 0.2416
C14 C 0.6184(4) 0.6818(3) 0.3060(2)
H11 H 0.5096 0.7307 0.2883
H12 H 0.6265 0.6344 0.3936
C15 C 0.6296(4) 0.8951(3) 0.1695(3)
H13 H 0.5181 0.9470 0.1750
H14 H 0.6571 0.8479 0.0995
C16 C 0.7035(5) 1.0007(4) 0.1510(4)
H15 H 0.6868 1.0376 0.2250
H16 H 0.6590 1.0811 0.0822
H17 H 0.8125 0.9515 0.1339
C17 C 0.9368(3) 0.2935(3) -0.0198(3)
H18 H 1.0396 0.2877 -0.0431
H19 H 0.8738 0.3425 -0.0908
H20 H 0.9401 0.1960 0.0101
S1 S 0.43373(8) 0.64392(9) 0.12420(7)
N1 N 0.6963(2) 0.5698(2) 0.23213(18)
N2 N 0.7095(2) 0.4435(2) 0.08614(19)
H21 H 0.6617 0.4154 0.0457
O1 O 0.6813(2) 0.78752(19) 0.28110(18)
O2 O 1.2044(2) 0.2616(3) 0.0905(2)
O3 O 1.1638(2) 0.3654(3) 0.2516(2)
C18 C 1.3691(6) 0.2389(12) 0.3773(5)
H22 H 1.4792 0.2019 0.3808
H23 H 1.3377 0.1584 0.4029
H24 H 1.3200 0.3058 0.4318
loop_
_geom_bond_atom_site_label_1
_geom_bond_atom_site_label_2
_geom_bond_site_symmetry_1
_geom_bond_site_symmetry_2
C1 H1 1_555 1_555
H2 C1 1_555 1_555
H3 C1 1_555 1_555
C2 C1 1_555 1_555
C3 C2 1_555 1_555
H4 C3 1_555 1_555
C4 C3 1_555 1_555
H5 C4 1_555 1_555
C5 C4 1_555 1_555
C6 C5 1_555 1_555
H6 C6 1_555 1_555
C7 C2 1_555 1_555
H7 C7 1_555 1_555
C8 C5 1_555 1_555
H8 C8 1_555 1_555
C9 S1 1_555 1_555
C10 C11 1_555 1_555
C11 C8 1_555 1_555
C12 C11 1_555 1_555
C13 H9 1_555 1_555
H10 C13 1_555 1_555
C14 H11 1_555 1_555
H12 C14 1_555 1_555
C15 H13 1_555 1_555
H14 C15 1_555 1_555
C16 C15 1_555 1_555
H15 C16 1_555 1_555
H16 C16 1_555 1_555
H17 C16 1_555 1_555
C17 C10 1_555 1_555
H18 C17 1_555 1_555
H19 C17 1_555 1_555
H20 C17 1_555 1_555
N1 C8 1_555 1_555
N2 C9 1_555 1_555
H21 N2 1_555 1_555
O1 C14 1_555 1_555
O2 C12 1_555 1_555
O3 C12 1_555 1_555
C18 C13 1_555 1_555
H22 C18 1_555 1_555
H23 C18 1_555 1_555
H24 C18 1_555 1_555
C6 C7 1_555 1_555
C9 N1 1_555 1_555
C10 N2 1_555 1_555
C13 O3 1_555 1_555
C14 N1 1_555 1_555
C15 O1 1_555 1_555

#END
