
#######################################################################
#
#                 Cambridge Crystallographic Data Centre
#                                CCDC 
#
#######################################################################
#
# If this CIF has been generated from an entry in the Cambridge 
# Structural Database, then it will include bibliographic, chemical, 
# crystal, experimental, refinement or atomic coordinate data resulting 
# from the CCDC's data processing and validation procedures.
#
#######################################################################

data_ONOPAK
_chemical_formula_moiety         'C55 H72 N4 O6 Si2,2(C4 H8 O1)'
_chemical_name_systematic        
'2,4-bis(1,3-bis(2,6-di-isopropylphenyl)imidazol-2-ylidene)-2,4,6-trioxo-1,3,5,2,4-trioxadisilinane tetrahydrofuran solvate'
_symmetry_cell_setting           monoclinic
_symmetry_space_group_name_H-M   'P 21/n'
_symmetry_Int_Tables_number      14
_space_group_name_Hall           '-P 2yn'
loop_
_symmetry_equiv_pos_site_id
_symmetry_equiv_pos_as_xyz
1 x,y,z
2 1/2-x,1/2+y,1/2-z
3 -x,-y,-z
4 1/2+x,1/2-y,1/2+z
_cell_length_a                   14.216(3)
_cell_length_b                   16.760(4)
_cell_length_c                   26.884(6)
_cell_angle_alpha                90
_cell_angle_beta                 102.357(3)
_cell_angle_gamma                90
_cell_volume                     6256.99
_exptl_crystal_colour            colorless
_exptl_crystal_description       plate
_cell_formula_units_Z            4
loop_
_atom_site_label
_atom_site_type_symbol
_atom_site_fract_x
_atom_site_fract_y
_atom_site_fract_z
Si1 Si 0.47743(10) 0.75769(9) 0.22179(5)
Si2 Si 0.50298(11) 0.58342(9) 0.22048(5)
O1 O 0.5017(2) 0.7363(2) 0.28375(12)
O2 O 0.5252(2) 0.6028(2) 0.28304(12)
O3 O 0.5422(3) 0.6686(2) 0.35543(12)
O4 O 0.4818(3) 0.6714(2) 0.19450(11)
O5 O 0.3922(3) 0.8132(3) 0.20565(16)
O6 O 0.5747(3) 0.5255(3) 0.20511(16)
N1 N 0.6065(3) 0.8456(2) 0.17146(13)
N2 N 0.6677(2) 0.8377(2) 0.25114(13)
N3 N 0.3315(3) 0.5010(2) 0.16460(13)
N4 N 0.3285(3) 0.5068(2) 0.24368(13)
C1 C 0.5929(3) 0.8125(2) 0.21461(16)
C2 C 0.6887(3) 0.8927(3) 0.18137(17)
H1 H 0.7127 0.9223 0.1576
C3 C 0.7267(3) 0.8879(3) 0.23084(18)
H2 H 0.7821 0.9133 0.2484
C4 C 0.6912(3) 0.8144(3) 0.30481(16)
C5 C 0.7447(3) 0.7450(3) 0.31735(18)
C6 C 0.7700(4) 0.7272(3) 0.3690(2)
H3 H 0.8053 0.6812 0.3795
C7 C 0.7440(4) 0.7758(4) 0.4046(2)
H4 H 0.7626 0.7627 0.4390
C8 C 0.6914(4) 0.8431(4) 0.39052(19)
H5 H 0.6740 0.8750 0.4154
C9 C 0.6632(3) 0.8649(3) 0.33974(17)
C10 C 0.6043(4) 0.9401(3) 0.3240(2)
H6 H 0.5931 0.9436 0.2868
C11 C 0.6566(6) 1.0135(4) 0.3447(3)
H7 H 0.7183 1.0147 0.3356
H8 H 0.6199 1.0595 0.3308
H9 H 0.6654 1.0139 0.3811
C12 C 0.5071(5) 0.9360(5) 0.3375(4)
H10 H 0.4749 0.8880 0.3237
H11 H 0.5150 0.9359 0.3739
H12 H 0.4695 0.9815 0.3235
C13 C 0.7755(4) 0.6918(3) 0.2780(2)
H13 H 0.7290 0.6994 0.2457
C14 C 0.7764(5) 0.6030(3) 0.2911(3)
H14 H 0.7144 0.5877 0.2967
H15 H 0.7909 0.5725 0.2635
H16 H 0.8245 0.5931 0.3215
C15 C 0.8740(5) 0.7148(4) 0.2694(3)
H17 H 0.8911 0.6801 0.2444
H18 H 0.8723 0.7690 0.2576
H19 H 0.9208 0.7100 0.3008
C16 C 0.5508(3) 0.8345(3) 0.11999(16)
C17 C 0.5699(4) 0.7670(3) 0.09355(18)
C18 C 0.5217(4) 0.7612(4) 0.0432(2)
H20 H 0.5313 0.7163 0.0245
C19 C 0.4599(4) 0.8198(4) 0.0200(2)
H21 H 0.4305 0.8157 -0.0143
C20 C 0.4422(4) 0.8843(4) 0.0478(2)
H22 H 0.3989 0.9230 0.0322
C21 C 0.4869(3) 0.8938(3) 0.09860(17)
C22 C 0.4638(4) 0.9659(3) 0.1273(2)
H23 H 0.5024 0.9625 0.1621
C23 C 0.4909(5) 1.0435(4) 0.1040(3)
H24 H 0.4753 1.0881 0.1231
H25 H 0.5587 1.0437 0.1047
H26 H 0.4557 1.0476 0.0693
C24 C 0.3575(5) 0.9646(4) 0.1305(3)
H27 H 0.3434 1.0106 0.1488
H28 H 0.3179 0.9651 0.0967
H29 H 0.3445 0.9171 0.1479
C25 C 0.6397(4) 0.7026(3) 0.1175(2)
H30 H 0.6423 0.7031 0.1543
C26 C 0.6099(5) 0.6195(3) 0.0981(2)
H31 H 0.6568 0.5815 0.1147
H32 H 0.5483 0.6068 0.1053
H33 H 0.6056 0.6175 0.0620
C27 C 0.7407(5) 0.7223(4) 0.1097(3)
H34 H 0.7848 0.6814 0.1250
H35 H 0.7396 0.7251 0.0739
H36 H 0.7611 0.7727 0.1253
C28 C 0.3786(3) 0.5321(3) 0.20923(16)
C29 C 0.2544(3) 0.4551(3) 0.17140(18)
H37 H 0.2117 0.4274 0.1463
C30 C 0.2532(3) 0.4583(3) 0.22071(18)
H38 H 0.2098 0.4327 0.2367
C31 C 0.3474(3) 0.5264(3) 0.29763(17)
C32 C 0.4002(3) 0.4731(3) 0.33166(18)
C33 C 0.4153(4) 0.4932(4) 0.3830(2)
H39 H 0.4512 0.4595 0.4073
C34 C 0.3779(5) 0.5620(5) 0.3978(2)
H40 H 0.3891 0.5747 0.4322
C35 C 0.3248(4) 0.6121(4) 0.3634(2)
H41 H 0.2993 0.6580 0.3749
C36 C 0.3073(4) 0.5969(3) 0.31175(19)
C37 C 0.2479(5) 0.6525(3) 0.2737(2)
H42 H 0.2703 0.6478 0.2418
C38 C 0.2559(5) 0.7405(4) 0.2898(3)
H43 H 0.2163 0.7723 0.2638
H44 H 0.2348 0.7467 0.3212
H45 H 0.3217 0.7575 0.2944
C39 C 0.1411(5) 0.6277(4) 0.2630(3)
H46 H 0.1041 0.6638 0.2386
H47 H 0.1345 0.5745 0.2495
H48 H 0.1181 0.6296 0.2940
C40 C 0.4442(4) 0.3971(3) 0.3151(2)
H49 H 0.4211 0.3925 0.2781
C41 C 0.4099(6) 0.3239(4) 0.3386(3)
H50 H 0.4388 0.2773 0.3275
H51 H 0.4280 0.3278 0.3750
H52 H 0.3411 0.3201 0.3283
C42 C 0.5537(5) 0.4006(5) 0.3252(3)
H53 H 0.5781 0.3518 0.3142
H54 H 0.5732 0.4446 0.3068
H55 H 0.5790 0.4078 0.3610
C43 C 0.3513(3) 0.5143(3) 0.11445(16)
C44 C 0.4006(3) 0.4554(3) 0.09379(17)
C45 C 0.4081(4) 0.4646(3) 0.04346(19)
H56 H 0.4400 0.4260 0.0284
C46 C 0.3691(4) 0.5300(4) 0.01544(19)
H57 H 0.3735 0.5347 -0.0185
C47 C 0.3243(4) 0.5874(3) 0.03730(19)
H58 H 0.3001 0.6320 0.0182
C48 C 0.3132(3) 0.5818(3) 0.08755(17)
C49 C 0.2590(4) 0.6457(3) 0.1093(2)
H59 H 0.2823 0.6450 0.1463
C50 C 0.1509(5) 0.6254(4) 0.0985(3)
H60 H 0.1170 0.6664 0.1125
H61 H 0.1265 0.6221 0.0624
H62 H 0.1418 0.5752 0.1139
C51 C 0.2751(5) 0.7294(3) 0.0911(2)
H63 H 0.2386 0.7668 0.1064
H64 H 0.3423 0.7424 0.1008
H65 H 0.2545 0.7318 0.0547
C52 C 0.4454(4) 0.3839(3) 0.1235(2)
H66 H 0.4381 0.3903 0.1588
C53 C 0.5531(5) 0.3796(4) 0.1242(3)
H67 H 0.5804 0.3337 0.1433
H68 H 0.5622 0.3755 0.0899
H69 H 0.5842 0.4270 0.1397
C54 C 0.3956(5) 0.3066(4) 0.1031(3)
H70 H 0.4262 0.2625 0.1230
H71 H 0.3290 0.3088 0.1050
H72 H 0.4003 0.2996 0.0682
C55 C 0.5236(4) 0.6695(4) 0.31031(19)
O7 O 0.7377(7) 0.9955(8) 0.0774(3)
C56 C 0.8008(9) 1.0511(8) 0.0628(6)
H73 H 0.8510 1.0661 0.0918
H74 H 0.7661 1.0988 0.0491
C57 C 0.8444(9) 1.0092(11) 0.0219(4)
H75 H 0.8344 1.0400 -0.0094
H76 H 0.9127 0.9989 0.0338
C58 C 0.7882(11) 0.9352(9) 0.0153(4)
H77 H 0.8296 0.8906 0.0284
H78 H 0.7622 0.9260 -0.0206
C59 C 0.7108(10) 0.9406(7) 0.0420(5)
H79 H 0.6514 0.9561 0.0190
H80 H 0.7009 0.8897 0.0573
O8 O 0.6178(7) 1.1307(7) 0.5668(3)
C60 C 0.6260(12) 1.1008(10) 0.5182(5)
H81 H 0.5783 1.0603 0.5053
H82 H 0.6901 1.0810 0.5181
C61 C 0.6056(12) 1.1766(13) 0.4918(5)
H83 H 0.6653 1.2065 0.4966
H84 H 0.5853 1.1655 0.4556
C62 C 0.5309(17) 1.2292(16) 0.5070(7)
H85 H 0.5442 1.2857 0.5049
H86 H 0.4657 1.2170 0.4892
C63 C 0.5548(11) 1.1980(7) 0.5586(5)
H87 H 0.5842 1.2405 0.5812
H88 H 0.4954 1.1834 0.5685
loop_
_geom_bond_atom_site_label_1
_geom_bond_atom_site_label_2
_geom_bond_site_symmetry_1
_geom_bond_site_symmetry_2
Si1 O1 1_555 1_555
Si2 O2 1_555 1_555
O1 C55 1_555 1_555
O2 C55 1_555 1_555
O3 C55 1_555 1_555
O4 Si1 1_555 1_555
O5 Si1 1_555 1_555
O6 Si2 1_555 1_555
N1 C1 1_555 1_555
N2 C1 1_555 1_555
N3 C28 1_555 1_555
N4 C28 1_555 1_555
C1 Si1 1_555 1_555
C2 N1 1_555 1_555
H1 C2 1_555 1_555
C3 N2 1_555 1_555
H2 C3 1_555 1_555
C4 N2 1_555 1_555
C5 C4 1_555 1_555
C6 C5 1_555 1_555
H3 C6 1_555 1_555
C7 C6 1_555 1_555
H4 C7 1_555 1_555
C8 C7 1_555 1_555
H5 C8 1_555 1_555
C9 C4 1_555 1_555
C10 C9 1_555 1_555
H6 C10 1_555 1_555
C11 C10 1_555 1_555
H7 C11 1_555 1_555
H8 C11 1_555 1_555
H9 C11 1_555 1_555
C12 C10 1_555 1_555
H10 C12 1_555 1_555
H11 C12 1_555 1_555
H12 C12 1_555 1_555
C13 C5 1_555 1_555
H13 C13 1_555 1_555
C14 C13 1_555 1_555
H14 C14 1_555 1_555
H15 C14 1_555 1_555
H16 C14 1_555 1_555
C15 C13 1_555 1_555
H17 C15 1_555 1_555
H18 C15 1_555 1_555
H19 C15 1_555 1_555
C16 N1 1_555 1_555
C17 C16 1_555 1_555
C18 C17 1_555 1_555
H20 C18 1_555 1_555
C19 C18 1_555 1_555
H21 C19 1_555 1_555
C20 C19 1_555 1_555
H22 C20 1_555 1_555
C21 C16 1_555 1_555
C22 C21 1_555 1_555
H23 C22 1_555 1_555
C23 C22 1_555 1_555
H24 C23 1_555 1_555
H25 C23 1_555 1_555
H26 C23 1_555 1_555
C24 C22 1_555 1_555
H27 C24 1_555 1_555
H28 C24 1_555 1_555
H29 C24 1_555 1_555
C25 C17 1_555 1_555
H30 C25 1_555 1_555
C26 C25 1_555 1_555
H31 C26 1_555 1_555
H32 C26 1_555 1_555
H33 C26 1_555 1_555
C27 C25 1_555 1_555
H34 C27 1_555 1_555
H35 C27 1_555 1_555
H36 C27 1_555 1_555
C28 Si2 1_555 1_555
C29 N3 1_555 1_555
H37 C29 1_555 1_555
C30 N4 1_555 1_555
H38 C30 1_555 1_555
C31 N4 1_555 1_555
C32 C31 1_555 1_555
C33 C32 1_555 1_555
H39 C33 1_555 1_555
C34 C33 1_555 1_555
H40 C34 1_555 1_555
C35 C34 1_555 1_555
H41 C35 1_555 1_555
C36 C31 1_555 1_555
C37 C36 1_555 1_555
H42 C37 1_555 1_555
C38 C37 1_555 1_555
H43 C38 1_555 1_555
H44 C38 1_555 1_555
H45 C38 1_555 1_555
C39 C37 1_555 1_555
H46 C39 1_555 1_555
H47 C39 1_555 1_555
H48 C39 1_555 1_555
C40 C32 1_555 1_555
H49 C40 1_555 1_555
C41 C40 1_555 1_555
H50 C41 1_555 1_555
H51 C41 1_555 1_555
H52 C41 1_555 1_555
C42 C40 1_555 1_555
H53 C42 1_555 1_555
H54 C42 1_555 1_555
H55 C42 1_555 1_555
C43 N3 1_555 1_555
C44 C43 1_555 1_555
C45 C44 1_555 1_555
H56 C45 1_555 1_555
C46 C45 1_555 1_555
H57 C46 1_555 1_555
C47 C46 1_555 1_555
H58 C47 1_555 1_555
C48 C43 1_555 1_555
C49 C48 1_555 1_555
H59 C49 1_555 1_555
C50 C49 1_555 1_555
H60 C50 1_555 1_555
H61 C50 1_555 1_555
H62 C50 1_555 1_555
C51 C49 1_555 1_555
H63 C51 1_555 1_555
H64 C51 1_555 1_555
H65 C51 1_555 1_555
C52 C44 1_555 1_555
H66 C52 1_555 1_555
C53 C52 1_555 1_555
H67 C53 1_555 1_555
H68 C53 1_555 1_555
H69 C53 1_555 1_555
C54 C52 1_555 1_555
H70 C54 1_555 1_555
H71 C54 1_555 1_555
H72 C54 1_555 1_555
O7 C56 1_555 1_555
C56 H73 1_555 1_555
H74 C56 1_555 1_555
C57 C56 1_555 1_555
H75 C57 1_555 1_555
H76 C57 1_555 1_555
C58 C57 1_555 1_555
H77 C58 1_555 1_555
H78 C58 1_555 1_555
C59 O7 1_555 1_555
H79 C59 1_555 1_555
H80 C59 1_555 1_555
O8 C60 1_555 1_555
C60 H81 1_555 1_555
H82 C60 1_555 1_555
C61 C60 1_555 1_555
H83 C61 1_555 1_555
H84 C61 1_555 1_555
C62 C61 1_555 1_555
H85 C62 1_555 1_555
H86 C62 1_555 1_555
C63 O8 1_555 1_555
H87 C63 1_555 1_555
H88 C63 1_555 1_555
Si2 O4 1_555 1_555
C2 C3 1_555 1_555
C8 C9 1_555 1_555
C20 C21 1_555 1_555
C29 C30 1_555 1_555
C35 C36 1_555 1_555
C47 C48 1_555 1_555
C58 C59 1_555 1_555
C62 C63 1_555 1_555

#END
