
#######################################################################
#
#                 Cambridge Crystallographic Data Centre
#                                CCDC 
#
#######################################################################
#
# If this CIF has been generated from an entry in the Cambridge 
# Structural Database, then it will include bibliographic, chemical, 
# crystal, experimental, refinement or atomic coordinate data resulting 
# from the CCDC's data processing and validation procedures.
#
#######################################################################

data_ONOPUE
_chemical_formula_moiety         'C54 H40 N4'
_chemical_name_systematic        
4-(4-(4-(diphenylamino)phenyl)-2,5-diphenylpyrrolo[3,2-b]pyrrol-1(4H)-yl)-N,N-diphenylaniline
_symmetry_cell_setting           triclinic
_symmetry_space_group_name_H-M   'P -1'
_symmetry_Int_Tables_number      2
_space_group_name_Hall           '-P 1'
loop_
_symmetry_equiv_pos_site_id
_symmetry_equiv_pos_as_xyz
1 x,y,z
2 -x,-y,-z
_cell_length_a                   10.5757(18)
_cell_length_b                   13.339(2)
_cell_length_c                   15.978(3)
_cell_angle_alpha                97.350(14)
_cell_angle_beta                 106.509(15)
_cell_angle_gamma                107.809(16)
_cell_volume                     1999.73
_cell_formula_units_Z            2
loop_
_atom_site_label
_atom_site_type_symbol
_atom_site_fract_x
_atom_site_fract_y
_atom_site_fract_z
N1 N 0.4751(6) 0.5402(5) 0.7734(4)
N2 N 0.5990(6) 0.7576(5) 0.5104(4)
N3 N 0.4993(6) 0.8988(5) 0.3538(4)
N4 N 0.6154(6) 1.1536(5) 0.1120(4)
C1 C 0.3335(7) 0.4837(5) 0.7669(5)
C2 C 0.2479(8) 0.5404(6) 0.7759(5)
H1 H 0.2835 0.6172 0.7863
C3 C 0.1096(9) 0.4864(7) 0.7699(6)
H2 H 0.0498 0.5258 0.7748
C4 C 0.0593(9) 0.3746(8) 0.7568(7)
H3 H -0.0340 0.3372 0.7550
C5 C 0.1453(9) 0.3177(7) 0.7464(6)
H4 H 0.1094 0.2409 0.7348
C6 C 0.2826(9) 0.3714(6) 0.7527(6)
H5 H 0.3423 0.3321 0.7475
C7 C 0.5813(8) 0.4988(7) 0.8145(6)
C8 C 0.6237(10) 0.5107(8) 0.9048(7)
H6 H 0.5846 0.5458 0.9407
C9 C 0.7281(13) 0.4688(13) 0.9436(13)
H7 H 0.7574 0.4747 1.0065
C10 C 0.7864(14) 0.4220(18) 0.8959(19)
H8 H 0.8595 0.3978 0.9246
C11 C 0.7386(19) 0.4081(16) 0.8003(18)
H9 H 0.7766 0.3721 0.7642
C12 C 0.6367(16) 0.4479(11) 0.7624(11)
H10 H 0.6040 0.4401 0.6993
C13 C 0.5011(7) 0.6006(5) 0.7097(5)
C14 C 0.6262(7) 0.6855(6) 0.7305(5)
H11 H 0.6914 0.7078 0.7902
C15 C 0.6604(7) 0.7402(5) 0.6663(5)
H12 H 0.7479 0.7987 0.6822
C16 C 0.5659(7) 0.7084(5) 0.5799(5)
C17 C 0.4359(7) 0.6284(6) 0.5585(5)
H13 H 0.3692 0.6095 0.4994
C18 C 0.4010(7) 0.5747(6) 0.6227(5)
H14 H 0.3100 0.5209 0.6079
C19 C 0.8336(7) 0.7354(6) 0.5232(5)
C20 C 0.8112(8) 0.6390(6) 0.5523(5)
H15 H 0.7198 0.5989 0.5522
C21 C 0.9204(10) 0.6017(8) 0.5812(5)
H16 H 0.9031 0.5363 0.6011
C22 C 1.0512(9) 0.6562(8) 0.5816(6)
H17 H 1.1238 0.6274 0.5993
C23 C 1.0800(9) 0.7542(9) 0.5563(6)
H18 H 1.1732 0.7950 0.5598
C24 C 0.9717(8) 0.7909(7) 0.5261(6)
H19 H 0.9907 0.8564 0.5064
C25 C 0.7216(8) 0.7771(6) 0.4878(5)
C26 C 0.7133(7) 0.8352(5) 0.4216(5)
H20 H 0.7816 0.8597 0.3938
C27 C 0.5847(7) 0.8504(5) 0.4043(4)
C28 C 0.5120(7) 0.8006(6) 0.4574(4)
C29 C 0.3853(7) 0.8204(6) 0.4421(5)
H21 H 0.3169 0.7967 0.4701
C30 C 0.3799(7) 0.8814(6) 0.3782(5)
C31 C 0.2622(6) 0.9155(5) 0.3346(4)
C32 C 0.1918(8) 0.9523(6) 0.3854(5)
H22 H 0.2203 0.9564 0.4481
C33 C 0.0807(8) 0.9830(6) 0.3452(6)
H23 H 0.0316 1.0052 0.3809
C34 C 0.0380(8) 0.9829(6) 0.2557(6)
H24 H -0.0370 1.0068 0.2300
C35 C 0.1094(8) 0.9459(7) 0.2028(6)
H25 H 0.0829 0.9451 0.1406
C36 C 0.2192(7) 0.9107(6) 0.2425(5)
H26 H 0.2646 0.8834 0.2067
C37 C 0.5429(7) 0.9693(5) 0.2982(4)
C38 C 0.5303(7) 1.0694(5) 0.3083(5)
H27 H 0.5014 1.0946 0.3555
C39 C 0.5598(7) 1.1333(5) 0.2492(5)
H28 H 0.5532 1.2031 0.2560
C40 C 0.5997(7) 1.0928(6) 0.1791(5)
C41 C 0.6209(8) 0.9974(6) 0.1731(5)
H29 H 0.6566 0.9746 0.1288
C42 C 0.5896(7) 0.9316(5) 0.2330(5)
H30 H 0.6006 0.8633 0.2282
C43 C 0.4972(7) 1.1712(6) 0.0584(5)
C44 C 0.3610(7) 1.1066(6) 0.0514(5)
H31 H 0.3488 1.0514 0.0838
C45 C 0.2439(8) 1.1223(6) -0.0022(5)
H32 H 0.1523 1.0780 -0.0055
C46 C 0.2571(8) 1.2012(7) -0.0512(6)
H33 H 0.1766 1.2103 -0.0896
C47 C 0.3915(8) 1.2654(6) -0.0417(5)
H34 H 0.4033 1.3216 -0.0731
C48 C 0.5101(7) 1.2521(6) 0.0110(5)
H35 H 0.6012 1.2983 0.0151
C49 C 0.7508(7) 1.1893(5) 0.1019(5)
C50 C 0.8728(7) 1.2275(7) 0.1781(5)
H36 H 0.8645 1.2290 0.2358
C51 C 1.0040(9) 1.2628(8) 0.1707(6)
H37 H 1.0859 1.2875 0.2231
C52 C 1.0179(8) 1.2627(8) 0.0872(6)
H38 H 1.1090 1.2896 0.0822
C53 C 0.8977(8) 1.2231(6) 0.0106(5)
H39 H 0.9071 1.2211 -0.0470
C54 C 0.7640(8) 1.1865(6) 0.0174(5)
H40 H 0.6822 1.1597 -0.0351
loop_
_geom_bond_atom_site_label_1
_geom_bond_atom_site_label_2
_geom_bond_site_symmetry_1
_geom_bond_site_symmetry_2
N1 C1 1_555 1_555
N2 C16 1_555 1_555
N3 C27 1_555 1_555
N4 C40 1_555 1_555
C1 C2 1_555 1_555
C2 H1 1_555 1_555
C3 C2 1_555 1_555
H2 C3 1_555 1_555
C4 C3 1_555 1_555
H3 C4 1_555 1_555
C5 C4 1_555 1_555
H4 C5 1_555 1_555
C6 C1 1_555 1_555
H5 C6 1_555 1_555
C7 N1 1_555 1_555
C8 C7 1_555 1_555
H6 C8 1_555 1_555
C9 C8 1_555 1_555
H7 C9 1_555 1_555
C10 C9 1_555 1_555
H8 C10 1_555 1_555
C11 C10 1_555 1_555
H9 C11 1_555 1_555
C12 C7 1_555 1_555
H10 C12 1_555 1_555
C13 N1 1_555 1_555
C14 C13 1_555 1_555
H11 C14 1_555 1_555
C15 C14 1_555 1_555
H12 C15 1_555 1_555
C16 C15 1_555 1_555
C17 C16 1_555 1_555
H13 C17 1_555 1_555
C18 C13 1_555 1_555
H14 C18 1_555 1_555
C19 C20 1_555 1_555
C20 H15 1_555 1_555
C21 C20 1_555 1_555
H16 C21 1_555 1_555
C22 C21 1_555 1_555
H17 C22 1_555 1_555
C23 C22 1_555 1_555
H18 C23 1_555 1_555
C24 C19 1_555 1_555
H19 C24 1_555 1_555
C25 N2 1_555 1_555
C26 C25 1_555 1_555
H20 C26 1_555 1_555
C27 C26 1_555 1_555
C28 N2 1_555 1_555
C29 C28 1_555 1_555
H21 C29 1_555 1_555
C30 N3 1_555 1_555
C31 C30 1_555 1_555
C32 C31 1_555 1_555
H22 C32 1_555 1_555
C33 C32 1_555 1_555
H23 C33 1_555 1_555
C34 C33 1_555 1_555
H24 C34 1_555 1_555
C35 C34 1_555 1_555
H25 C35 1_555 1_555
C36 C31 1_555 1_555
H26 C36 1_555 1_555
C37 N3 1_555 1_555
C38 C37 1_555 1_555
H27 C38 1_555 1_555
C39 C38 1_555 1_555
H28 C39 1_555 1_555
C40 C39 1_555 1_555
C41 C40 1_555 1_555
H29 C41 1_555 1_555
C42 C37 1_555 1_555
H30 C42 1_555 1_555
C43 N4 1_555 1_555
C44 C43 1_555 1_555
H31 C44 1_555 1_555
C45 C44 1_555 1_555
H32 C45 1_555 1_555
C46 C45 1_555 1_555
H33 C46 1_555 1_555
C47 C46 1_555 1_555
H34 C47 1_555 1_555
C48 C43 1_555 1_555
H35 C48 1_555 1_555
C49 N4 1_555 1_555
C50 C49 1_555 1_555
H36 C50 1_555 1_555
C51 C50 1_555 1_555
H37 C51 1_555 1_555
C52 C51 1_555 1_555
H38 C52 1_555 1_555
C53 C52 1_555 1_555
H39 C53 1_555 1_555
C54 C49 1_555 1_555
H40 C54 1_555 1_555
C5 C6 1_555 1_555
C11 C12 1_555 1_555
C17 C18 1_555 1_555
C19 C25 1_555 1_555
C23 C24 1_555 1_555
C27 C28 1_555 1_555
C29 C30 1_555 1_555
C35 C36 1_555 1_555
C41 C42 1_555 1_555
C47 C48 1_555 1_555
C53 C54 1_555 1_555

#END
