
#######################################################################
#
#                 Cambridge Crystallographic Data Centre
#                                CCDC 
#
#######################################################################
#
# If this CIF has been generated from an entry in the Cambridge 
# Structural Database, then it will include bibliographic, chemical, 
# crystal, experimental, refinement or atomic coordinate data resulting 
# from the CCDC's data processing and validation procedures.
#
#######################################################################

data_ONORUG
_chemical_formula_moiety         'C19 H20 N2 O3'
_chemical_name_systematic        
12a-ethyl-2,3,12,12a-tetrahydro-1H,4H-3a,9b-diazaindeno[7,1-jk]fluorene-4,5,10(5aH,11H)-trione
_symmetry_cell_setting           monoclinic
_symmetry_space_group_name_H-M   'P 21'
_symmetry_Int_Tables_number      4
_space_group_name_Hall           'P 2yb'
loop_
_symmetry_equiv_pos_site_id
_symmetry_equiv_pos_as_xyz
1 x,y,z
2 -x,1/2+y,-z
_cell_length_a                   9.8046(9)
_cell_length_b                   7.4469(4)
_cell_length_c                   11.5360(7)
_cell_angle_alpha                90
_cell_angle_beta                 107.495(6)
_cell_angle_gamma                90
_cell_volume                     803.327
_exptl_crystal_colour            colorless
_exptl_crystal_description       prism
_cell_formula_units_Z            2
loop_
_atom_site_label
_atom_site_type_symbol
_atom_site_fract_x
_atom_site_fract_y
_atom_site_fract_z
O1 O -0.08798(13) 0.07907(18) 0.11891(12)
O2 O -0.04765(14) 0.47589(17) 0.12759(12)
O3 O 0.54000(12) 0.16944(17) 0.57666(11)
N1 N 0.15192(14) 0.08889(18) 0.23556(13)
N2 N 0.34345(13) 0.19409(18) 0.41020(12)
C1 C 0.27188(16) 0.2205(2) 0.27652(14)
C2 C 0.02211(18) 0.1603(2) 0.17169(16)
C3 C 0.04123(17) 0.3665(2) 0.17952(15)
C4 C 0.18766(17) 0.4009(2) 0.26984(14)
H1 H 0.2380 0.5083 0.2503
C5 C 0.16639(17) 0.4068(2) 0.39581(15)
C6 C 0.07174(18) 0.5110(2) 0.43568(17)
H2 H 0.0088 0.5926 0.3821
C7 C 0.07088(18) 0.4936(2) 0.55634(16)
H3 H 0.0077 0.5653 0.5851
C8 C 0.16218(17) 0.3717(2) 0.63494(16)
H4 H 0.1610 0.3629 0.7168
C9 C 0.25603(17) 0.2618(2) 0.59449(15)
H5 H 0.3171 0.1776 0.6472
C10 C 0.25560(16) 0.2816(2) 0.47396(15)
C11 C 0.49216(17) 0.1946(2) 0.46667(15)
C12 C 0.58970(17) 0.2367(2) 0.38997(15)
H6 H 0.6429 0.1263 0.3828
H7 H 0.6606 0.3274 0.4332
C13 C 0.51308(17) 0.3071(2) 0.26115(15)
H8 H 0.5791 0.3004 0.2110
H9 H 0.4868 0.4346 0.2660
C14 C 0.37676(16) 0.1970(2) 0.19959(14)
C15 C 0.41497(18) -0.0058(2) 0.19879(15)
H10 H 0.4789 -0.0224 0.1475
H11 H 0.4685 -0.0427 0.2826
C16 C 0.28434(18) -0.1292(2) 0.15135(15)
H12 H 0.3159 -0.2559 0.1547
H13 H 0.2331 -0.0992 0.0657
C17 C 0.18385(18) -0.1044(2) 0.23012(16)
H14 H 0.0941 -0.1721 0.1945
H15 H 0.2300 -0.1509 0.3131
C18 C 0.30380(18) 0.2695(2) 0.06859(14)
H16 H 0.2044 0.2239 0.0403
H17 H 0.2991 0.4021 0.0720
C19 C 0.3803(2) 0.2169(3) -0.02549(16)
H18 H 0.4826 0.2440 0.0073
H19 H 0.3395 0.2853 -0.1005
H20 H 0.3675 0.0882 -0.0430
loop_
_geom_bond_atom_site_label_1
_geom_bond_atom_site_label_2
_geom_bond_site_symmetry_1
_geom_bond_site_symmetry_2
O1 C2 1_555 1_555
O2 C3 1_555 1_555
O3 C11 1_555 1_555
N1 C1 1_555 1_555
N2 C1 1_555 1_555
C1 C4 1_555 1_555
C2 N1 1_555 1_555
C3 C2 1_555 1_555
C4 C3 1_555 1_555
H1 C4 1_555 1_555
C5 C4 1_555 1_555
C6 C5 1_555 1_555
H2 C6 1_555 1_555
C7 C6 1_555 1_555
H3 C7 1_555 1_555
C8 C7 1_555 1_555
H4 C8 1_555 1_555
C9 C8 1_555 1_555
H5 C9 1_555 1_555
C10 N2 1_555 1_555
C11 N2 1_555 1_555
C12 C11 1_555 1_555
H6 C12 1_555 1_555
H7 C12 1_555 1_555
C13 C12 1_555 1_555
H8 C13 1_555 1_555
H9 C13 1_555 1_555
C14 C1 1_555 1_555
C15 C14 1_555 1_555
H10 C15 1_555 1_555
H11 C15 1_555 1_555
C16 C15 1_555 1_555
H12 C16 1_555 1_555
H13 C16 1_555 1_555
C17 N1 1_555 1_555
H14 C17 1_555 1_555
H15 C17 1_555 1_555
C18 C14 1_555 1_555
H16 C18 1_555 1_555
H17 C18 1_555 1_555
C19 C18 1_555 1_555
H18 C19 1_555 1_555
H19 C19 1_555 1_555
H20 C19 1_555 1_555
C5 C10 1_555 1_555
C9 C10 1_555 1_555
C13 C14 1_555 1_555
C16 C17 1_555 1_555

#END
