
#######################################################################
#
#                 Cambridge Crystallographic Data Centre
#                                CCDC 
#
#######################################################################
#
# If this CIF has been generated from an entry in the Cambridge 
# Structural Database, then it will include bibliographic, chemical, 
# crystal, experimental, refinement or atomic coordinate data resulting 
# from the CCDC's data processing and validation procedures.
#
#######################################################################

data_ONOSIV
_chemical_formula_moiety         'C19 H22 N2 O3,C1 H2 Cl2'
_chemical_name_systematic        
'12a-ethyl-5-hydroxy-1,2,3,5,5a,11,12,12a-octahydro-4H,10H-3a,9b-diazaindeno[7,1-jk]fluorene-4,10-dione dichloromethane solvate'
_symmetry_cell_setting           monoclinic
_symmetry_space_group_name_H-M   'P 21/n'
_symmetry_Int_Tables_number      14
_space_group_name_Hall           '-P 2yn'
loop_
_symmetry_equiv_pos_site_id
_symmetry_equiv_pos_as_xyz
1 x,y,z
2 1/2-x,1/2+y,1/2-z
3 -x,-y,-z
4 1/2+x,1/2-y,1/2+z
_cell_length_a                   10.0732(9)
_cell_length_b                   7.4108(3)
_cell_length_c                   25.386(2)
_cell_angle_alpha                90
_cell_angle_beta                 92.250(7)
_cell_angle_gamma                90
_cell_volume                     1893.62
_exptl_crystal_colour            colorless
_exptl_crystal_description       prismatic
_cell_formula_units_Z            4
loop_
_atom_site_label
_atom_site_type_symbol
_atom_site_fract_x
_atom_site_fract_y
_atom_site_fract_z
O1 O 0.03232(12) 0.21708(17) 0.02284(5)
O2 O 0.16354(13) 0.58730(17) 0.02709(5)
H1 H 0.106(2) 0.650(3) 0.0097(10)
O3 O 0.22374(13) 0.29275(18) 0.28189(5)
N1 N 0.15134(14) 0.22152(18) 0.10202(5)
N2 N 0.18235(13) 0.31187(19) 0.19349(5)
C1 C 0.22198(16) 0.3494(2) 0.13820(6)
C2 C 0.08640(16) 0.2993(2) 0.06050(6)
C3 C 0.08871(16) 0.5049(2) 0.06666(6)
H2 H -0.0043 0.5521 0.0644
C4 C 0.14632(16) 0.5285(2) 0.12314(6)
H3 H 0.2027 0.6389 0.1278
C5 C 0.03244(16) 0.5215(2) 0.16031(6)
C6 C -0.08546(17) 0.6181(2) 0.15757(7)
H4 H -0.1003 0.7075 0.1312
C7 C -0.18177(17) 0.5826(2) 0.19397(7)
H5 H -0.2629 0.6481 0.1925
C8 C -0.15980(18) 0.4516(3) 0.23261(7)
H6 H -0.2261 0.4292 0.2574
C9 C -0.04140(17) 0.3521(2) 0.23558(7)
H7 H -0.0264 0.2620 0.2618
C10 C 0.05315(16) 0.3901(2) 0.19884(6)
C11 C 0.26809(17) 0.3129(2) 0.23812(7)
C12 C 0.41392(17) 0.3472(2) 0.23138(7)
H8 H 0.4626 0.2319 0.2361
H9 H 0.4466 0.4307 0.2594
C13 C 0.44582(17) 0.4270(2) 0.17791(7)
H10 H 0.5429 0.4208 0.1734
H11 H 0.4195 0.5557 0.1770
C14 C 0.37406(16) 0.3273(2) 0.13218(6)
C15 C 0.40892(17) 0.1230(2) 0.13532(7)
H12 H 0.5051 0.1081 0.1299
H13 H 0.3913 0.0787 0.1712
C16 C 0.33123(17) 0.0065(2) 0.09508(7)
H14 H 0.3515 0.0445 0.0589
H15 H 0.3570 -0.1217 0.0995
C17 C 0.18295(17) 0.0288(2) 0.10368(7)
H16 H 0.1305 -0.0358 0.0758
H17 H 0.1607 -0.0223 0.1383
C18 C 0.41311(16) 0.4102(2) 0.07909(6)
H18 H 0.3493 0.3677 0.0511
H19 H 0.4045 0.5430 0.0814
C19 C 0.55385(18) 0.3648(3) 0.06279(7)
H20 H 0.6172 0.3922 0.0920
H21 H 0.5754 0.4369 0.0319
H22 H 0.5591 0.2363 0.0541
C20 C 0.79082(19) 0.0037(3) 0.05956(8)
H23 H 0.7631 0.1028 0.0354
H24 H 0.8730 -0.0503 0.0463
Cl1 Cl 0.82403(5) 0.09285(6) 0.123772(19)
Cl2 Cl 0.66392(5) -0.16277(7) 0.05972(2)
loop_
_geom_bond_atom_site_label_1
_geom_bond_atom_site_label_2
_geom_bond_site_symmetry_1
_geom_bond_site_symmetry_2
O1 C2 1_555 1_555
O2 H1 1_555 1_555
O3 C11 1_555 1_555
N1 C1 1_555 1_555
N2 C1 1_555 1_555
C1 C4 1_555 1_555
C2 N1 1_555 1_555
C3 O2 1_555 1_555
H2 C3 1_555 1_555
C4 C3 1_555 1_555
H3 C4 1_555 1_555
C5 C4 1_555 1_555
C6 C5 1_555 1_555
H4 C6 1_555 1_555
C7 C6 1_555 1_555
H5 C7 1_555 1_555
C8 C7 1_555 1_555
H6 C8 1_555 1_555
C9 C8 1_555 1_555
H7 C9 1_555 1_555
C10 N2 1_555 1_555
C11 N2 1_555 1_555
C12 C11 1_555 1_555
H8 C12 1_555 1_555
H9 C12 1_555 1_555
C13 C12 1_555 1_555
H10 C13 1_555 1_555
H11 C13 1_555 1_555
C14 C1 1_555 1_555
C15 C14 1_555 1_555
H12 C15 1_555 1_555
H13 C15 1_555 1_555
C16 C15 1_555 1_555
H14 C16 1_555 1_555
H15 C16 1_555 1_555
C17 N1 1_555 1_555
H16 C17 1_555 1_555
H17 C17 1_555 1_555
C18 C14 1_555 1_555
H18 C18 1_555 1_555
H19 C18 1_555 1_555
C19 C18 1_555 1_555
H20 C19 1_555 1_555
H21 C19 1_555 1_555
H22 C19 1_555 1_555
C20 H23 1_555 1_555
H24 C20 1_555 1_555
Cl1 C20 1_555 1_555
Cl2 C20 1_555 1_555
C2 C3 1_555 1_555
C5 C10 1_555 1_555
C9 C10 1_555 1_555
C13 C14 1_555 1_555
C16 C17 1_555 1_555

#END
