
#######################################################################
#
#                 Cambridge Crystallographic Data Centre
#                                CCDC 
#
#######################################################################
#
# If this CIF has been generated from an entry in the Cambridge 
# Structural Database, then it will include bibliographic, chemical, 
# crystal, experimental, refinement or atomic coordinate data resulting 
# from the CCDC's data processing and validation procedures.
#
#######################################################################

data_ONOSOB
_chemical_formula_moiety         'C19 H22 N2 O3,2(C1 H1 Cl3)'
_chemical_name_systematic        
'12a-ethyl-5a-hydroxy-1,2,3,5,5a,11,12,12a-octahydro-4H,10H-3a,9b-diazaindeno[7,1-jk]fluorene-4,10-dione chloroform solvate'
_symmetry_cell_setting           triclinic
_symmetry_space_group_name_H-M   'P -1'
_symmetry_Int_Tables_number      2
_space_group_name_Hall           '-P 1'
loop_
_symmetry_equiv_pos_site_id
_symmetry_equiv_pos_as_xyz
1 x,y,z
2 -x,-y,-z
_cell_length_a                   16.5205(19)
_cell_length_b                   16.738(3)
_cell_length_c                   18.753(3)
_cell_angle_alpha                95.956(12)
_cell_angle_beta                 91.273(10)
_cell_angle_gamma                103.102(11)
_cell_volume                     5017.73
_exptl_crystal_colour            colorless
_exptl_crystal_description       prism
_cell_formula_units_Z            8
loop_
_atom_site_label
_atom_site_type_symbol
_atom_site_fract_x
_atom_site_fract_y
_atom_site_fract_z
O1 O 0.13934(14) -0.05822(16) 0.08866(13)
H1 H 0.1624 -0.0192 0.1195
O2 O 0.29642(16) -0.07151(17) 0.29328(14)
O3 O 0.20613(17) -0.29463(18) -0.03677(15)
N1 N 0.24997(17) -0.14681(18) 0.18689(15)
N2 N 0.20764(18) -0.24836(18) 0.08350(16)
C1 C 0.1820(2) -0.1832(2) 0.13050(17)
C2 C 0.1912(2) -0.1139(2) 0.07700(17)
C3 C 0.2839(2) -0.0747(2) 0.08901(18)
C4 C 0.3360(2) -0.0241(2) 0.04652(19)
H2 H 0.3145 -0.0086 0.0040
C5 C 0.4200(2) 0.0036(2) 0.0669(2)
H3 H 0.4556 0.0393 0.0388
C6 C 0.4525(2) -0.0208(2) 0.1288(2)
H4 H 0.5101 -0.0022 0.1417
C7 C 0.4005(2) -0.0725(2) 0.17177(19)
H5 H 0.4221 -0.0899 0.2134
C8 C 0.3166(2) -0.0970(2) 0.15119(18)
C9 C 0.2376(2) -0.1173(2) 0.25648(18)
C10 C 0.1523(2) -0.1415(2) 0.28537(19)
H6 H 0.1441 -0.0964 0.3210
H7 H 0.1489 -0.1912 0.3105
C11 C 0.0823(2) -0.1595(2) 0.22716(18)
H8 H 0.0779 -0.1072 0.2088
H9 H 0.0289 -0.1828 0.2484
C12 C 0.0973(2) -0.2208(2) 0.16401(18)
C13 C 0.1036(2) -0.3030(2) 0.1928(2)
H10 H 0.1444 -0.2902 0.2342
H11 H 0.0489 -0.3287 0.2105
C14 C 0.1293(2) -0.3657(2) 0.1380(2)
H12 H 0.0872 -0.3824 0.0976
H13 H 0.1334 -0.4155 0.1607
C15 C 0.2139(2) -0.3256(2) 0.1102(2)
H14 H 0.2574 -0.3147 0.1495
H15 H 0.2294 -0.3631 0.0712
C16 C 0.1976(2) -0.2421(2) 0.0123(2)
C17 C 0.1740(2) -0.1623(2) 0.00233(18)
H16 H 0.1145 -0.1719 -0.0131
H17 H 0.2084 -0.1328 -0.0336
C18 C 0.0261(2) -0.2343(2) 0.1051(2)
H18 H 0.0246 -0.1802 0.0888
H19 H 0.0395 -0.2696 0.0634
C19 C -0.0606(2) -0.2741(2) 0.1288(2)
H20 H -0.0614 -0.3298 0.1409
H21 H -0.1019 -0.2772 0.0897
H22 H -0.0740 -0.2406 0.1710
O4 O -0.82788(15) -0.06752(16) -0.40992(13)
H23 H -0.8109 -0.0288 -0.3771
O5 O -0.67920(17) -0.05439(18) -0.19163(14)
O6 O -0.74212(18) -0.30868(17) -0.50565(15)
N3 N -0.71934(18) -0.13908(18) -0.29486(15)
N4 N -0.75471(18) -0.25195(18) -0.39084(16)
C20 C -0.7842(2) -0.1838(2) -0.35131(17)
C21 C -0.7741(2) -0.1223(2) -0.41229(17)
C22 C -0.6826(2) -0.0784(2) -0.39812(18)
C23 C -0.6305(2) -0.0295(2) -0.44217(18)
H24 H -0.6502 -0.0207 -0.4880
C24 C -0.5480(2) 0.0065(2) -0.4170(2)
H25 H -0.5122 0.0419 -0.4452
C25 C -0.5186(2) -0.0095(2) -0.3511(2)
H26 H -0.4621 0.0133 -0.3359
C26 C -0.5709(2) -0.0587(2) -0.30682(19)
H27 H -0.5512 -0.0693 -0.2616
C27 C -0.6528(2) -0.0911(2) -0.33173(18)
C28 C -0.7349(2) -0.1044(2) -0.22782(18)
C29 C -0.8215(2) -0.1296(2) -0.20092(19)
H28 H -0.8327 -0.0833 -0.1683
H29 H -0.8245 -0.1771 -0.1729
C30 C -0.8890(2) -0.1533(2) -0.26179(19)
H30 H -0.8930 -0.1034 -0.2844
H31 H -0.9434 -0.1754 -0.2416
C31 C -0.8703(2) -0.2187(2) -0.31948(18)
C32 C -0.8645(2) -0.2969(2) -0.2831(2)
H32 H -0.8252 -0.2798 -0.2408
H33 H -0.9199 -0.3211 -0.2657
C33 C -0.8362(2) -0.3639(2) -0.3320(2)
H34 H -0.8339 -0.4114 -0.3053
H35 H -0.8758 -0.3836 -0.3739
C34 C -0.7500(2) -0.3258(2) -0.3567(2)
H36 H -0.7094 -0.3108 -0.3151
H37 H -0.7314 -0.3660 -0.3913
C35 C -0.7581(2) -0.2532(2) -0.46325(19)
C36 C -0.7854(2) -0.1777(2) -0.48327(18)
H38 H -0.8442 -0.1919 -0.5015
H39 H -0.7500 -0.1510 -0.5200
C37 C -0.9396(2) -0.2389(3) -0.3804(2)
H40 H -0.9417 -0.1874 -0.4011
H41 H -0.9242 -0.2771 -0.4189
C38 C -1.0269(2) -0.2779(3) -0.3570(2)
H42 H -1.0271 -0.3318 -0.3410
H43 H -1.0672 -0.2849 -0.3976
H44 H -1.0420 -0.2418 -0.3175
O7 O -0.32866(16) -0.04418(16) -0.40720(13)
H45 H -0.3061 -0.0060 -0.3754
O8 O -0.17824(16) -0.06321(17) -0.19898(14)
O9 O -0.27594(18) -0.28723(18) -0.53050(16)
N5 N -0.22334(17) -0.13641(18) -0.30656(15)
N6 N -0.26567(18) -0.23744(19) -0.41068(16)
C39 C -0.2904(2) -0.1713(2) -0.36369(17)
C40 C -0.2781(2) -0.1018(2) -0.41732(17)
C41 C -0.1852(2) -0.0636(2) -0.40307(17)
C42 C -0.1319(2) -0.0114(2) -0.44402(18)
H46 H -0.1517 0.0053 -0.4867
C43 C -0.0482(2) 0.0154(2) -0.42017(19)
H47 H -0.0112 0.0526 -0.4462
C44 C -0.0180(2) -0.0114(2) -0.3587(2)
H48 H 0.0395 0.0057 -0.3447
C45 C -0.0721(2) -0.0634(2) -0.31767(19)
H49 H -0.0526 -0.0816 -0.2756
C46 C -0.1551(2) -0.0873(2) -0.34085(17)
C47 C -0.2365(2) -0.1079(2) -0.23641(17)
C48 C -0.3230(2) -0.1307(2) -0.20908(19)
H50 H -0.3311 -0.0854 -0.1736
H51 H -0.3283 -0.1808 -0.1841
C49 C -0.3915(2) -0.1469(2) -0.26908(19)
H52 H -0.3943 -0.0939 -0.2870
H53 H -0.4459 -0.1697 -0.2492
C50 C -0.3761(2) -0.2073(2) -0.33203(18)
C51 C -0.3727(2) -0.2908(2) -0.30314(19)
H54 H -0.3329 -0.2792 -0.2611
H55 H -0.4283 -0.3156 -0.2864
C52 C -0.3472(2) -0.3542(2) -0.3579(2)
H56 H -0.3447 -0.4045 -0.3353
H57 H -0.3887 -0.3700 -0.3989
C53 C -0.2619(2) -0.3157(2) -0.3844(2)
H58 H -0.2192 -0.3061 -0.3446
H59 H -0.2467 -0.3533 -0.4234
C54 C -0.2777(2) -0.2320(2) -0.48185(19)
C55 C -0.2952(2) -0.1489(2) -0.49208(18)
H60 H -0.3537 -0.1548 -0.5089
H61 H -0.2578 -0.1208 -0.5270
C56 C -0.4460(2) -0.2200(2) -0.39181(19)
H62 H -0.4481 -0.1654 -0.4066
H63 H -0.4309 -0.2533 -0.4340
C57 C -0.5331(2) -0.2623(3) -0.3711(2)
H64 H -0.5341 -0.3194 -0.3629
H65 H -0.5737 -0.2621 -0.4099
H66 H -0.5474 -0.2326 -0.3270
O10 O 0.63784(15) -0.07867(16) 0.09035(13)
H67 H 0.6598 -0.0359 0.1177
O11 O 0.79660(16) -0.05523(17) 0.30068(13)
O12 O 0.72426(18) -0.31878(18) -0.00783(16)
N7 N 0.75368(17) -0.14525(17) 0.20112(14)
N8 N 0.71668(18) -0.26038(18) 0.10750(16)
C58 C 0.6868(2) -0.1926(2) 0.14711(17)
C59 C 0.6924(2) -0.1326(2) 0.08531(17)
C60 C 0.7843(2) -0.0879(2) 0.09545(18)
C61 C 0.8339(2) -0.0424(2) 0.04777(19)
H68 H 0.8115 -0.0357 0.0022
C62 C 0.9172(2) -0.0066(2) 0.0684(2)
H69 H 0.9512 0.0267 0.0374
C63 C 0.9510(2) -0.0193(2) 0.1343(2)
H70 H 1.0081 0.0041 0.1470
C64 C 0.9014(2) -0.0662(2) 0.18171(19)
H71 H 0.9240 -0.0754 0.2264
C65 C 0.8181(2) -0.0988(2) 0.16118(17)
C66 C 0.7399(2) -0.1081(2) 0.26743(17)
C67 C 0.6554(2) -0.1336(2) 0.29748(18)
H72 H 0.6443 -0.0864 0.3290
H73 H 0.6554 -0.1791 0.3273
C68 C 0.5857(2) -0.1620(2) 0.23937(19)
H74 H 0.5786 -0.1138 0.2155
H75 H 0.5330 -0.1844 0.2620
C69 C 0.6035(2) -0.2281(2) 0.18285(18)
C70 C 0.6125(2) -0.3044(2) 0.2198(2)
H76 H 0.6526 -0.2856 0.2615
H77 H 0.5580 -0.3295 0.2385
C71 C 0.6418(2) -0.3716(2) 0.1714(2)
H78 H 0.6474 -0.4173 0.1992
H79 H 0.6007 -0.3941 0.1309
C72 C 0.7260(2) -0.3320(2) 0.1430(2)
H80 H 0.7683 -0.3144 0.1831
H81 H 0.7444 -0.3723 0.1085
C73 C 0.7089(2) -0.2633(2) 0.03502(19)
C74 C 0.6776(2) -0.1899(2) 0.01581(18)
H82 H 0.6177 -0.2060 0.0009
H83 H 0.7093 -0.1638 -0.0232
C75 C 0.5314(2) -0.2517(2) 0.1237(2)
H84 H 0.5286 -0.2017 0.1008
H85 H 0.5454 -0.2922 0.0864
C76 C 0.4454(2) -0.2883(3) 0.1501(2)
H86 H 0.4457 -0.3409 0.1687
H87 H 0.4039 -0.2977 0.1101
H88 H 0.4315 -0.2498 0.1883
C77 C 0.3848(3) -0.2765(3) -0.0899(2)
H89 H 0.3290 -0.3096 -0.0789
Cl1 Cl 0.41321(8) -0.19044(8) -0.02445(7)
Cl2 Cl 0.45692(10) -0.33898(10) -0.08723(11)
Cl3 Cl 0.37695(11) -0.24350(12) -0.17491(7)
C78 C 0.8780(3) -0.2850(3) -0.1018(2)
H90 H 0.8318 -0.3158 -0.0746
Cl4 Cl 0.91211(10) -0.18518(9) -0.05583(9)
Cl5 Cl 0.95669(13) -0.33967(15) -0.10503(14)
Cl6 Cl 0.83742(13) -0.28016(11) -0.18852(7)
C79 C -0.6278(3) -0.5393(3) -0.4100(3)
H91 H -0.6373 -0.5982 -0.4311
Cl7 Cl -0.70941(8) -0.52977(8) -0.35367(8)
Cl8 Cl -0.62618(11) -0.47723(9) -0.48057(8)
Cl9 Cl -0.53182(9) -0.51274(10) -0.35991(11)
C80 C -0.8494(3) -0.4623(3) -0.5980(3)
H92 H -0.7967 -0.4203 -0.5832
Cl10 Cl -0.83194(10) -0.52202(8) -0.67662(8)
Cl11 Cl -0.87541(13) -0.52402(11) -0.52754(9)
Cl12 Cl -0.92709(16) -0.40989(19) -0.61429(17)
C81 C -0.6033(2) -0.2864(3) -0.6108(2)
H93 H -0.6324 -0.2960 -0.5652
Cl13 Cl -0.49430(7) -0.26810(8) -0.59187(6)
Cl14 Cl -0.62942(7) -0.20037(7) -0.64446(7)
Cl15 Cl -0.63655(8) -0.37525(7) -0.67237(7)
C82 C -0.1194(3) -0.2831(3) 0.3831(2)
H94 H -0.1713 -0.3103 0.4058
Cl16 Cl -0.13687(7) -0.19428(7) 0.34903(6)
Cl17 Cl -0.09804(7) -0.35394(8) 0.31303(6)
Cl18 Cl -0.03820(10) -0.25682(10) 0.44945(8)
C83 C -0.1322(3) -0.5447(3) 0.1233(3)
H95 H -0.1358 -0.6048 0.1098
Cl19 Cl -0.05243(7) -0.50818(7) 0.19002(7)
Cl20 Cl -0.22919(8) -0.53355(8) 0.15653(8)
Cl21 Cl -0.11091(15) -0.49366(10) 0.04584(8)
C84 C 0.3612(3) -0.5427(3) 0.1157(2)
H96 H 0.3446 -0.6032 0.0995
Cl22 Cl 0.27198(9) -0.50880(9) 0.14161(9)
Cl23 Cl 0.43363(9) -0.52649(9) 0.18986(9)
Cl24 Cl 0.40780(14) -0.49186(12) 0.04511(8)
loop_
_geom_bond_atom_site_label_1
_geom_bond_atom_site_label_2
_geom_bond_site_symmetry_1
_geom_bond_site_symmetry_2
O1 H1 1_555 1_555
O2 C9 1_555 1_555
O3 C16 1_555 1_555
N1 C1 1_555 1_555
N2 C1 1_555 1_555
C1 C2 1_555 1_555
C2 O1 1_555 1_555
C3 C2 1_555 1_555
C4 C3 1_555 1_555
H2 C4 1_555 1_555
C5 C4 1_555 1_555
H3 C5 1_555 1_555
C6 C5 1_555 1_555
H4 C6 1_555 1_555
C7 C6 1_555 1_555
H5 C7 1_555 1_555
C8 N1 1_555 1_555
C9 N1 1_555 1_555
C10 C9 1_555 1_555
H6 C10 1_555 1_555
H7 C10 1_555 1_555
C11 C10 1_555 1_555
H8 C11 1_555 1_555
H9 C11 1_555 1_555
C12 C1 1_555 1_555
C13 C12 1_555 1_555
H10 C13 1_555 1_555
H11 C13 1_555 1_555
C14 C13 1_555 1_555
H12 C14 1_555 1_555
H13 C14 1_555 1_555
C15 N2 1_555 1_555
H14 C15 1_555 1_555
H15 C15 1_555 1_555
C16 N2 1_555 1_555
C17 C2 1_555 1_555
H16 C17 1_555 1_555
H17 C17 1_555 1_555
C18 C12 1_555 1_555
H18 C18 1_555 1_555
H19 C18 1_555 1_555
C19 C18 1_555 1_555
H20 C19 1_555 1_555
H21 C19 1_555 1_555
H22 C19 1_555 1_555
O4 H23 1_555 1_555
O5 C28 1_555 1_555
O6 C35 1_555 1_555
N3 C20 1_555 1_555
N4 C20 1_555 1_555
C20 C21 1_555 1_555
C21 O4 1_555 1_555
C22 C21 1_555 1_555
C23 C22 1_555 1_555
H24 C23 1_555 1_555
C24 C23 1_555 1_555
H25 C24 1_555 1_555
C25 C24 1_555 1_555
H26 C25 1_555 1_555
C26 C25 1_555 1_555
H27 C26 1_555 1_555
C27 N3 1_555 1_555
C28 N3 1_555 1_555
C29 C28 1_555 1_555
H28 C29 1_555 1_555
H29 C29 1_555 1_555
C30 C29 1_555 1_555
H30 C30 1_555 1_555
H31 C30 1_555 1_555
C31 C20 1_555 1_555
C32 C31 1_555 1_555
H32 C32 1_555 1_555
H33 C32 1_555 1_555
C33 C32 1_555 1_555
H34 C33 1_555 1_555
H35 C33 1_555 1_555
C34 N4 1_555 1_555
H36 C34 1_555 1_555
H37 C34 1_555 1_555
C35 N4 1_555 1_555
C36 C21 1_555 1_555
H38 C36 1_555 1_555
H39 C36 1_555 1_555
C37 C31 1_555 1_555
H40 C37 1_555 1_555
H41 C37 1_555 1_555
C38 C37 1_555 1_555
H42 C38 1_555 1_555
H43 C38 1_555 1_555
H44 C38 1_555 1_555
O7 H45 1_555 1_555
O8 C47 1_555 1_555
O9 C54 1_555 1_555
N5 C39 1_555 1_555
N6 C39 1_555 1_555
C39 C40 1_555 1_555
C40 O7 1_555 1_555
C41 C40 1_555 1_555
C42 C41 1_555 1_555
H46 C42 1_555 1_555
C43 C42 1_555 1_555
H47 C43 1_555 1_555
C44 C43 1_555 1_555
H48 C44 1_555 1_555
C45 C44 1_555 1_555
H49 C45 1_555 1_555
C46 N5 1_555 1_555
C47 N5 1_555 1_555
C48 C47 1_555 1_555
H50 C48 1_555 1_555
H51 C48 1_555 1_555
C49 C48 1_555 1_555
H52 C49 1_555 1_555
H53 C49 1_555 1_555
C50 C39 1_555 1_555
C51 C50 1_555 1_555
H54 C51 1_555 1_555
H55 C51 1_555 1_555
C52 C51 1_555 1_555
H56 C52 1_555 1_555
H57 C52 1_555 1_555
C53 N6 1_555 1_555
H58 C53 1_555 1_555
H59 C53 1_555 1_555
C54 N6 1_555 1_555
C55 C40 1_555 1_555
H60 C55 1_555 1_555
H61 C55 1_555 1_555
C56 C50 1_555 1_555
H62 C56 1_555 1_555
H63 C56 1_555 1_555
C57 C56 1_555 1_555
H64 C57 1_555 1_555
H65 C57 1_555 1_555
H66 C57 1_555 1_555
O10 H67 1_555 1_555
O11 C66 1_555 1_555
O12 C73 1_555 1_555
N7 C58 1_555 1_555
N8 C58 1_555 1_555
C58 C59 1_555 1_555
C59 O10 1_555 1_555
C60 C59 1_555 1_555
C61 C60 1_555 1_555
H68 C61 1_555 1_555
C62 C61 1_555 1_555
H69 C62 1_555 1_555
C63 C62 1_555 1_555
H70 C63 1_555 1_555
C64 C63 1_555 1_555
H71 C64 1_555 1_555
C65 N7 1_555 1_555
C66 N7 1_555 1_555
C67 C66 1_555 1_555
H72 C67 1_555 1_555
H73 C67 1_555 1_555
C68 C67 1_555 1_555
H74 C68 1_555 1_555
H75 C68 1_555 1_555
C69 C58 1_555 1_555
C70 C69 1_555 1_555
H76 C70 1_555 1_555
H77 C70 1_555 1_555
C71 C70 1_555 1_555
H78 C71 1_555 1_555
H79 C71 1_555 1_555
C72 N8 1_555 1_555
H80 C72 1_555 1_555
H81 C72 1_555 1_555
C73 N8 1_555 1_555
C74 C59 1_555 1_555
H82 C74 1_555 1_555
H83 C74 1_555 1_555
C75 C69 1_555 1_555
H84 C75 1_555 1_555
H85 C75 1_555 1_555
C76 C75 1_555 1_555
H86 C76 1_555 1_555
H87 C76 1_555 1_555
H88 C76 1_555 1_555
C77 H89 1_555 1_555
Cl1 C77 1_555 1_555
Cl2 C77 1_555 1_555
Cl3 C77 1_555 1_555
C78 H90 1_555 1_555
Cl4 C78 1_555 1_555
Cl5 C78 1_555 1_555
Cl6 C78 1_555 1_555
C79 H91 1_555 1_555
Cl7 C79 1_555 1_555
Cl8 C79 1_555 1_555
Cl9 C79 1_555 1_555
C80 H92 1_555 1_555
Cl10 C80 1_555 1_555
Cl11 C80 1_555 1_555
Cl12 C80 1_555 1_555
C81 H93 1_555 1_555
Cl13 C81 1_555 1_555
Cl14 C81 1_555 1_555
Cl15 C81 1_555 1_555
C82 H94 1_555 1_555
Cl16 C82 1_555 1_555
Cl17 C82 1_555 1_555
Cl18 C82 1_555 1_555
C83 H95 1_555 1_555
Cl19 C83 1_555 1_555
Cl20 C83 1_555 1_555
Cl21 C83 1_555 1_555
C84 H96 1_555 1_555
Cl22 C84 1_555 1_555
Cl23 C84 1_555 1_555
Cl24 C84 1_555 1_555
C3 C8 1_555 1_555
C7 C8 1_555 1_555
C11 C12 1_555 1_555
C14 C15 1_555 1_555
C16 C17 1_555 1_555
C22 C27 1_555 1_555
C26 C27 1_555 1_555
C30 C31 1_555 1_555
C33 C34 1_555 1_555
C35 C36 1_555 1_555
C41 C46 1_555 1_555
C45 C46 1_555 1_555
C49 C50 1_555 1_555
C52 C53 1_555 1_555
C54 C55 1_555 1_555
C60 C65 1_555 1_555
C64 C65 1_555 1_555
C68 C69 1_555 1_555
C71 C72 1_555 1_555
C73 C74 1_555 1_555

#END
