
#######################################################################
#
#                 Cambridge Crystallographic Data Centre
#                                CCDC 
#
#######################################################################
#
# If this CIF has been generated from an entry in the Cambridge 
# Structural Database, then it will include bibliographic, chemical, 
# crystal, experimental, refinement or atomic coordinate data resulting 
# from the CCDC's data processing and validation procedures.
#
#######################################################################

data_ONOSUH
_chemical_formula_moiety         'C19 H22 N2 O3,0.5(H2 O1)'
_chemical_name_systematic        
'12a-ethyl-5-hydroxy-1,2,3,5,5a,11,12,12a-octahydro-4H,10H-3a,9b-diazaindeno[7,1-jk]fluorene-4,10-dione unknown solvate hemihydrate'
_symmetry_cell_setting           monoclinic
_symmetry_space_group_name_H-M   'P 21'
_symmetry_Int_Tables_number      4
_space_group_name_Hall           'P 2yb'
loop_
_symmetry_equiv_pos_site_id
_symmetry_equiv_pos_as_xyz
1 x,y,z
2 -x,1/2+y,-z
_cell_length_a                   15.845(2)
_cell_length_b                   7.3477(5)
_cell_length_c                   16.074(2)
_cell_angle_alpha                90
_cell_angle_beta                 90.063(12)
_cell_angle_gamma                90
_cell_volume                     1871.4
_exptl_crystal_colour            colorless
_exptl_crystal_description       needle
_cell_formula_units_Z            4
loop_
_atom_site_label
_atom_site_type_symbol
_atom_site_fract_x
_atom_site_fract_y
_atom_site_fract_z
O1 O 0.4512(2) 0.5757(5) 0.3725(2)
O2 O 0.4164(2) 0.9637(5) 0.3427(2)
H1 H 0.4213 0.9552 0.3946
O3 O 0.4709(2) 0.6600(5) -0.0454(2)
N1 N 0.4926(2) 0.5825(5) 0.2366(2)
N2 N 0.4790(2) 0.6816(5) 0.0946(2)
C1 C 0.5249(3) 0.7135(6) 0.1741(3)
C2 C 0.4726(3) 0.6599(7) 0.3109(3)
C3 C 0.4815(3) 0.8645(7) 0.3040(3)
H2 H 0.5367 0.9016 0.3289
C4 C 0.4850(3) 0.8959(6) 0.2099(3)
H3 H 0.5181 1.0067 0.1944
C5 C 0.3984(3) 0.8895(6) 0.1682(3)
C6 C 0.3271(3) 0.9903(7) 0.1860(3)
H4 H 0.3279 1.0777 0.2296
C7 C 0.2542(3) 0.9627(7) 0.1396(3)
H5 H 0.2052 1.0333 0.1504
C8 C 0.2532(3) 0.8296(7) 0.0765(3)
H6 H 0.2025 0.8075 0.0465
C9 C 0.3251(3) 0.7305(7) 0.0574(3)
H7 H 0.3252 0.6425 0.0142
C10 C 0.3965(3) 0.7653(6) 0.1040(3)
C11 C 0.5148(3) 0.6819(6) 0.0167(3)
C12 C 0.6087(3) 0.7166(7) 0.0083(3)
H8 H 0.6182 0.8016 -0.0385
H9 H 0.6372 0.6005 -0.0054
C13 C 0.6490(3) 0.7959(7) 0.0866(3)
H10 H 0.6324 0.9252 0.0924
H11 H 0.7112 0.7906 0.0815
C14 C 0.6214(3) 0.6906(6) 0.1642(3)
C15 C 0.6403(3) 0.4849(6) 0.1529(3)
H12 H 0.6159 0.4446 0.0992
H13 H 0.7022 0.4681 0.1496
C16 C 0.6057(3) 0.3616(6) 0.2225(3)
H14 H 0.6191 0.2328 0.2103
H15 H 0.6322 0.3943 0.2763
C17 C 0.5098(3) 0.3875(7) 0.2277(3)
H16 H 0.4825 0.3402 0.1766
H17 H 0.4869 0.3202 0.2761
C18 C 0.6676(3) 0.7665(6) 0.2420(3)
H18 H 0.6596 0.9001 0.2437
H19 H 0.6407 0.7150 0.2923
C19 C 0.7620(3) 0.7259(6) 0.2455(3)
H20 H 0.7706 0.5950 0.2537
H21 H 0.7875 0.7929 0.2918
H22 H 0.7884 0.7636 0.1932
O4 O 0.6232(2) -0.2305(5) 0.4523(2)
O5 O 0.6452(2) 0.1543(6) 0.4109(2)
H23 H 0.6232 0.2517 0.4275
O6 O 1.04514(19) -0.1170(5) 0.4722(2)
N3 N 0.7612(2) -0.2063(5) 0.4926(2)
N4 N 0.9032(2) -0.0906(5) 0.4783(2)
C20 C 0.8218(3) -0.0648(5) 0.5230(3)
C21 C 0.6848(3) -0.1392(7) 0.4715(3)
C22 C 0.6876(3) 0.0689(7) 0.4777(3)
H24 H 0.6602 0.1069 0.5310
C23 C 0.7824(3) 0.1113(6) 0.4830(3)
H25 H 0.7946 0.2237 0.5159
C24 C 0.8261(3) 0.1111(6) 0.3981(3)
C25 C 0.8081(3) 0.2117(6) 0.3275(3)
H26 H 0.7622 0.2950 0.3269
C26 C 0.8587(3) 0.1885(7) 0.2571(3)
H27 H 0.8473 0.2577 0.2084
C27 C 0.9251(3) 0.0664(6) 0.2572(3)
H28 H 0.9580 0.0518 0.2082
C28 C 0.9447(3) -0.0357(6) 0.3277(3)
H29 H 0.9907 -0.1184 0.3281
C29 C 0.8943(3) -0.0120(6) 0.3974(3)
C30 C 0.9843(3) -0.0909(6) 0.5146(3)
C31 C 0.9905(3) -0.0457(6) 0.6069(3)
H30 H 1.0074 -0.1571 0.6374
H31 H 1.0358 0.0456 0.6148
C32 C 0.9095(3) 0.0275(6) 0.6454(3)
H32 H 0.9012 0.1552 0.6276
H33 H 0.9148 0.0261 0.7067
C33 C 0.8314(3) -0.0868(6) 0.6193(3)
C34 C 0.8462(3) -0.2885(6) 0.6406(3)
H34 H 0.9017 -0.3259 0.6180
H35 H 0.8487 -0.3018 0.7018
C35 C 0.7782(3) -0.4170(6) 0.6065(3)
H36 H 0.7921 -0.5443 0.6211
H37 H 0.7228 -0.3867 0.6313
C36 C 0.7739(3) -0.3967(6) 0.5136(3)
H38 H 0.8270 -0.4410 0.4883
H39 H 0.7267 -0.4705 0.4913
C37 C 0.7520(3) -0.0106(7) 0.6630(3)
H40 H 0.7448 0.1179 0.6459
H41 H 0.7023 -0.0787 0.6424
C38 C 0.7519(3) -0.0184(7) 0.7574(3)
H42 H 0.7686 -0.1404 0.7757
H43 H 0.6951 0.0087 0.7780
H44 H 0.7918 0.0714 0.7794
O7 O 0.5371(2) 0.3854(5) 0.4943(2)
H45 H 0.501(3) 0.277(6) 0.478(4)
H46 H 0.506(3) 0.426(8) 0.545(3)
loop_
_geom_bond_atom_site_label_1
_geom_bond_atom_site_label_2
_geom_bond_site_symmetry_1
_geom_bond_site_symmetry_2
O1 C2 1_555 1_555
O2 H1 1_555 1_555
O3 C11 1_555 1_555
N1 C1 1_555 1_555
N2 C1 1_555 1_555
C1 C4 1_555 1_555
C2 N1 1_555 1_555
C3 O2 1_555 1_555
H2 C3 1_555 1_555
C4 C3 1_555 1_555
H3 C4 1_555 1_555
C5 C4 1_555 1_555
C6 C5 1_555 1_555
H4 C6 1_555 1_555
C7 C6 1_555 1_555
H5 C7 1_555 1_555
C8 C7 1_555 1_555
H6 C8 1_555 1_555
C9 C8 1_555 1_555
H7 C9 1_555 1_555
C10 N2 1_555 1_555
C11 N2 1_555 1_555
C12 C11 1_555 1_555
H8 C12 1_555 1_555
H9 C12 1_555 1_555
C13 C12 1_555 1_555
H10 C13 1_555 1_555
H11 C13 1_555 1_555
C14 C1 1_555 1_555
C15 C14 1_555 1_555
H12 C15 1_555 1_555
H13 C15 1_555 1_555
C16 C15 1_555 1_555
H14 C16 1_555 1_555
H15 C16 1_555 1_555
C17 N1 1_555 1_555
H16 C17 1_555 1_555
H17 C17 1_555 1_555
C18 C14 1_555 1_555
H18 C18 1_555 1_555
H19 C18 1_555 1_555
C19 C18 1_555 1_555
H20 C19 1_555 1_555
H21 C19 1_555 1_555
H22 C19 1_555 1_555
O4 C21 1_555 1_555
O5 H23 1_555 1_555
O6 C30 1_555 1_555
N3 C20 1_555 1_555
N4 C20 1_555 1_555
C20 C23 1_555 1_555
C21 N3 1_555 1_555
C22 O5 1_555 1_555
H24 C22 1_555 1_555
C23 C22 1_555 1_555
H25 C23 1_555 1_555
C24 C23 1_555 1_555
C25 C24 1_555 1_555
H26 C25 1_555 1_555
C26 C25 1_555 1_555
H27 C26 1_555 1_555
C27 C26 1_555 1_555
H28 C27 1_555 1_555
C28 C27 1_555 1_555
H29 C28 1_555 1_555
C29 N4 1_555 1_555
C30 N4 1_555 1_555
C31 C30 1_555 1_555
H30 C31 1_555 1_555
H31 C31 1_555 1_555
C32 C31 1_555 1_555
H32 C32 1_555 1_555
H33 C32 1_555 1_555
C33 C20 1_555 1_555
C34 C33 1_555 1_555
H34 C34 1_555 1_555
H35 C34 1_555 1_555
C35 C34 1_555 1_555
H36 C35 1_555 1_555
H37 C35 1_555 1_555
C36 N3 1_555 1_555
H38 C36 1_555 1_555
H39 C36 1_555 1_555
C37 C33 1_555 1_555
H40 C37 1_555 1_555
H41 C37 1_555 1_555
C38 C37 1_555 1_555
H42 C38 1_555 1_555
H43 C38 1_555 1_555
H44 C38 1_555 1_555
O7 H45 1_555 1_555
H46 O7 1_555 1_555
C2 C3 1_555 1_555
C5 C10 1_555 1_555
C9 C10 1_555 1_555
C13 C14 1_555 1_555
C16 C17 1_555 1_555
C21 C22 1_555 1_555
C24 C29 1_555 1_555
C28 C29 1_555 1_555
C32 C33 1_555 1_555
C35 C36 1_555 1_555

#END
