
#######################################################################
#
#                 Cambridge Crystallographic Data Centre
#                                CCDC 
#
#######################################################################
#
# If this CIF has been generated from an entry in the Cambridge 
# Structural Database, then it will include bibliographic, chemical, 
# crystal, experimental, refinement or atomic coordinate data resulting 
# from the CCDC's data processing and validation procedures.
#
#######################################################################

data_ONOTES
_chemical_formula_moiety         'C19 H22 N2 O3,H2 O1'
_chemical_name_systematic        
'12a-ethyl-5-hydroxy-1,2,3,5,5a,11,12,12a-octahydro-4H,10H-3a,9b-diazaindeno[7,1-jk]fluorene-4,10-dione monohydrate'
_symmetry_cell_setting           orthorhombic
_symmetry_space_group_name_H-M   'P 21 21 21'
_symmetry_Int_Tables_number      19
_space_group_name_Hall           'P 2ac 2ab'
loop_
_symmetry_equiv_pos_site_id
_symmetry_equiv_pos_as_xyz
1 x,y,z
2 1/2-x,-y,1/2+z
3 -x,1/2+y,1/2-z
4 1/2+x,1/2-y,-z
_cell_length_a                   7.4528(4)
_cell_length_b                   14.995(3)
_cell_length_c                   14.995(3)
_cell_angle_alpha                90
_cell_angle_beta                 90
_cell_angle_gamma                90
_cell_volume                     1675.76
_exptl_crystal_colour            colorless
_exptl_crystal_description       needle
_cell_formula_units_Z            4
loop_
_atom_site_label
_atom_site_type_symbol
_atom_site_fract_x
_atom_site_fract_y
_atom_site_fract_z
O1 O 0.2205(2) 0.36576(10) 0.38267(11)
O2 O 0.5747(2) 0.36022(10) 0.47324(11)
H1 H 0.685(4) 0.3439(19) 0.460(2)
O3 O 0.3285(2) 0.80320(10) 0.47995(10)
N1 N 0.2448(2) 0.50330(11) 0.45077(11)
N2 N 0.3580(2) 0.65349(11) 0.46167(11)
C1 C 0.3815(3) 0.56020(14) 0.49482(13)
C2 C 0.3101(3) 0.42768(14) 0.41324(14)
C3 C 0.5163(3) 0.42998(14) 0.41604(15)
H2 H 0.5655 0.4205 0.3547
C4 C 0.5550(3) 0.52595(14) 0.44662(13)
H3 H 0.6643 0.5302 0.4851
C5 C 0.5627(3) 0.58818(14) 0.36641(14)
C6 C 0.6650(3) 0.58107(14) 0.28941(14)
H4 H 0.7462 0.5328 0.2819
C7 C 0.6468(3) 0.64606(15) 0.22303(14)
H5 H 0.7185 0.6428 0.1707
C8 C 0.5249(3) 0.71503(15) 0.23313(14)
H6 H 0.5133 0.7582 0.1871
C9 C 0.4185(3) 0.72245(14) 0.30972(14)
H7 H 0.3340 0.7694 0.3163
C10 C 0.4414(3) 0.65836(14) 0.37572(14)
C11 C 0.3567(3) 0.73052(14) 0.51407(14)
C12 C 0.4013(3) 0.72210(15) 0.61201(14)
H8 H 0.2928 0.7367 0.6472
H9 H 0.4944 0.7667 0.6271
C13 C 0.4681(3) 0.63000(14) 0.64004(14)
H10 H 0.4619 0.6248 0.7058
H11 H 0.5952 0.6232 0.6221
C14 C 0.3565(3) 0.55523(14) 0.59754(13)
C15 C 0.1541(3) 0.56938(15) 0.61958(14)
H12 H 0.1368 0.5627 0.6847
H13 H 0.1204 0.6311 0.6034
C16 C 0.0284(3) 0.50471(14) 0.57143(14)
H14 H 0.0555 0.4427 0.5895
H15 H -0.0977 0.5179 0.5874
C17 C 0.0552(3) 0.51536(14) 0.47105(13)
H16 H -0.0171 0.4705 0.4386
H17 H 0.0157 0.5754 0.4520
C18 C 0.4216(3) 0.46355(14) 0.63205(14)
H18 H 0.3684 0.4164 0.5941
H19 H 0.5535 0.4604 0.6249
C19 C 0.3756(3) 0.44339(16) 0.72930(14)
H20 H 0.4167 0.4926 0.7671
H21 H 0.4352 0.3881 0.7476
H22 H 0.2454 0.4365 0.7355
O4 O 0.3957(2) 0.21250(13) 0.56522(15)
H23 H 0.429(4) 0.261(2) 0.536(2)
H24 H 0.506(5) 0.186(2) 0.587(2)
loop_
_geom_bond_atom_site_label_1
_geom_bond_atom_site_label_2
_geom_bond_site_symmetry_1
_geom_bond_site_symmetry_2
O1 C2 1_555 1_555
O2 H1 1_555 1_555
O3 C11 1_555 1_555
N1 C1 1_555 1_555
N2 C1 1_555 1_555
C1 C4 1_555 1_555
C2 N1 1_555 1_555
C3 O2 1_555 1_555
H2 C3 1_555 1_555
C4 C3 1_555 1_555
H3 C4 1_555 1_555
C5 C4 1_555 1_555
C6 C5 1_555 1_555
H4 C6 1_555 1_555
C7 C6 1_555 1_555
H5 C7 1_555 1_555
C8 C7 1_555 1_555
H6 C8 1_555 1_555
C9 C8 1_555 1_555
H7 C9 1_555 1_555
C10 N2 1_555 1_555
C11 N2 1_555 1_555
C12 C11 1_555 1_555
H8 C12 1_555 1_555
H9 C12 1_555 1_555
C13 C12 1_555 1_555
H10 C13 1_555 1_555
H11 C13 1_555 1_555
C14 C1 1_555 1_555
C15 C14 1_555 1_555
H12 C15 1_555 1_555
H13 C15 1_555 1_555
C16 C15 1_555 1_555
H14 C16 1_555 1_555
H15 C16 1_555 1_555
C17 N1 1_555 1_555
H16 C17 1_555 1_555
H17 C17 1_555 1_555
C18 C14 1_555 1_555
H18 C18 1_555 1_555
H19 C18 1_555 1_555
C19 C18 1_555 1_555
H20 C19 1_555 1_555
H21 C19 1_555 1_555
H22 C19 1_555 1_555
O4 H23 1_555 1_555
H24 O4 1_555 1_555
C2 C3 1_555 1_555
C5 C10 1_555 1_555
C9 C10 1_555 1_555
C13 C14 1_555 1_555
C16 C17 1_555 1_555

#END
