
#######################################################################
#
#                 Cambridge Crystallographic Data Centre
#                                CCDC 
#
#######################################################################
#
# If this CIF has been generated from an entry in the Cambridge 
# Structural Database, then it will include bibliographic, chemical, 
# crystal, experimental, refinement or atomic coordinate data resulting 
# from the CCDC's data processing and validation procedures.
#
#######################################################################

data_ONOTOC
_chemical_formula_moiety         'C19 H22 N2 O3,x(C1 H4 O1)'
_chemical_name_systematic        
'12a-ethyl-7-hydroxy-1,2,3,5,5a,11,12,12a-octahydro-4H,10H-3a,9b-diazaindeno[7,1-jk]fluorene-4,10-dione methanol solvate'
_symmetry_cell_setting           orthorhombic
_symmetry_space_group_name_H-M   'P 21 21 21'
_symmetry_Int_Tables_number      19
_space_group_name_Hall           'P 2ac 2ab'
loop_
_symmetry_equiv_pos_site_id
_symmetry_equiv_pos_as_xyz
1 x,y,z
2 1/2-x,-y,1/2+z
3 -x,1/2+y,1/2-z
4 1/2+x,1/2-y,-z
_cell_length_a                   7.5454(6)
_cell_length_b                   14.6300(15)
_cell_length_c                   16.0308(13)
_cell_angle_alpha                90
_cell_angle_beta                 90
_cell_angle_gamma                90
_cell_volume                     1769.63
_exptl_crystal_colour            colorless
_exptl_crystal_description       prism
_cell_formula_units_Z            4
loop_
_atom_site_label
_atom_site_type_symbol
_atom_site_fract_x
_atom_site_fract_y
_atom_site_fract_z
O1 O 0.5143(2) 0.64477(11) 0.63569(9)
O2 O 0.0290(2) 0.38469(11) 0.89178(10)
H1 H 0.0545 0.3477 0.9300
O3 O 0.4180(2) 0.73029(10) 1.05158(9)
N1 N 0.5013(2) 0.70357(11) 0.76836(10)
N2 N 0.3994(2) 0.71269(11) 0.91176(9)
C1 C 0.3702(3) 0.74721(13) 0.82526(12)
C2 C 0.4302(3) 0.67100(14) 0.69736(13)
C3 C 0.2296(3) 0.67215(14) 0.70417(12)
H2 H 0.1790 0.6115 0.6908
H3 H 0.1775 0.7183 0.6663
C4 C 0.1965(3) 0.69733(13) 0.79590(12)
H4 H 0.0875 0.7352 0.8039
C5 C 0.2000(2) 0.61273(13) 0.85124(12)
C6 C 0.1035(3) 0.53249(14) 0.84262(12)
H5 H 0.0222 0.5252 0.7979
C7 C 0.1280(3) 0.46265(14) 0.90083(13)
C8 C 0.2496(3) 0.47318(14) 0.96594(13)
H6 H 0.2648 0.4254 1.0054
C9 C 0.3494(3) 0.55348(14) 0.97359(13)
H7 H 0.4338 0.5604 1.0171
C10 C 0.3214(2) 0.62276(13) 0.91576(12)
C11 C 0.3958(3) 0.76615(14) 0.98347(12)
C12 C 0.3556(3) 0.86706(14) 0.97609(13)
H8 H 0.4654 0.9020 0.9875
H9 H 0.2677 0.8838 1.0193
C13 C 0.2838(3) 0.89555(14) 0.89082(12)
H10 H 0.2886 0.9630 0.8859
H11 H 0.1583 0.8765 0.8861
C14 C 0.3911(3) 0.85237(13) 0.81923(12)
C15 C 0.5898(3) 0.87775(14) 0.82943(12)
H12 H 0.6030 0.9447 0.8234
H13 H 0.6286 0.8611 0.8865
C16 C 0.7110(3) 0.83043(14) 0.76631(13)
H14 H 0.8358 0.8481 0.7765
H15 H 0.6787 0.8492 0.7090
C17 C 0.6896(3) 0.72686(14) 0.77595(13)
H16 H 0.7585 0.6949 0.7322
H17 H 0.7347 0.7072 0.8311
C18 C 0.3175(3) 0.88453(14) 0.73403(12)
H18 H 0.3664 0.8444 0.6899
H19 H 0.1872 0.8763 0.7342
C19 C 0.3586(3) 0.98392(15) 0.71124(14)
H20 H 0.3191 1.0242 0.7564
H21 H 0.2965 1.0001 0.6596
H22 H 0.4866 0.9911 0.7031
loop_
_geom_bond_atom_site_label_1
_geom_bond_atom_site_label_2
_geom_bond_site_symmetry_1
_geom_bond_site_symmetry_2
O1 C2 1_555 1_555
O2 H1 1_555 1_555
O3 C11 1_555 1_555
N1 C1 1_555 1_555
N2 C1 1_555 1_555
C1 C4 1_555 1_555
C2 N1 1_555 1_555
C3 C2 1_555 1_555
H2 C3 1_555 1_555
H3 C3 1_555 1_555
C4 C3 1_555 1_555
H4 C4 1_555 1_555
C5 C4 1_555 1_555
C6 C5 1_555 1_555
H5 C6 1_555 1_555
C7 O2 1_555 1_555
C8 C7 1_555 1_555
H6 C8 1_555 1_555
C9 C8 1_555 1_555
H7 C9 1_555 1_555
C10 N2 1_555 1_555
C11 N2 1_555 1_555
C12 C11 1_555 1_555
H8 C12 1_555 1_555
H9 C12 1_555 1_555
C13 C12 1_555 1_555
H10 C13 1_555 1_555
H11 C13 1_555 1_555
C14 C1 1_555 1_555
C15 C14 1_555 1_555
H12 C15 1_555 1_555
H13 C15 1_555 1_555
C16 C15 1_555 1_555
H14 C16 1_555 1_555
H15 C16 1_555 1_555
C17 N1 1_555 1_555
H16 C17 1_555 1_555
H17 C17 1_555 1_555
C18 C14 1_555 1_555
H18 C18 1_555 1_555
H19 C18 1_555 1_555
C19 C18 1_555 1_555
H20 C19 1_555 1_555
H21 C19 1_555 1_555
H22 C19 1_555 1_555
C5 C10 1_555 1_555
C6 C7 1_555 1_555
C9 C10 1_555 1_555
C13 C14 1_555 1_555
C16 C17 1_555 1_555

#END
