
#######################################################################
#
#                 Cambridge Crystallographic Data Centre
#                                CCDC 
#
#######################################################################
#
# If this CIF has been generated from an entry in the Cambridge 
# Structural Database, then it will include bibliographic, chemical, 
# crystal, experimental, refinement or atomic coordinate data resulting 
# from the CCDC's data processing and validation procedures.
#
#######################################################################

data_ONOWEU
_chemical_formula_moiety         'C47 H41 B2 F15 N2 O1'
_chemical_name_systematic        
1,3-bis(2,6-diisopropylphenyl)-4,6-dimethyl-2-((tris(pentafluorophenyl)-\l^5^-boranyl)oxy)-1,2-dihydro-1\l^5^,3,2-diazaborinine
_symmetry_cell_setting           triclinic
_symmetry_space_group_name_H-M   'P 1'
_symmetry_Int_Tables_number      1
_space_group_name_Hall           'P 1'
loop_
_symmetry_equiv_pos_site_id
_symmetry_equiv_pos_as_xyz
1 x,y,z
_cell_length_a                   11.096(3)
_cell_length_b                   14.162(3)
_cell_length_c                   14.177(3)
_cell_angle_alpha                81.520(9)
_cell_angle_beta                 85.718(10)
_cell_angle_gamma                78.021(6)
_cell_volume                     2153.22
_exptl_crystal_colour            colorless
_exptl_crystal_description       prism
_cell_formula_units_Z            2
loop_
_atom_site_label
_atom_site_type_symbol
_atom_site_fract_x
_atom_site_fract_y
_atom_site_fract_z
B1 B 0.4237(3) 0.45996(18) 0.78249(18)
B2 B 0.5814(3) 0.51611(18) 0.63402(18)
N1 N 0.35483(18) 0.37859(13) 0.78865(12)
N2 N 0.40772(18) 0.50617(13) 0.87112(12)
O1 O 0.48473(15) 0.48730(10) 0.70393(10)
C1 C 0.2084(2) 0.27849(18) 0.87215(17)
H1 H 0.1228 0.3133 0.8790
H2 H 0.2267 0.2270 0.9264
H3 H 0.2202 0.2494 0.8127
C2 C 0.2936(2) 0.34850(16) 0.86961(16)
C3 C 0.3031(2) 0.38603(17) 0.95221(16)
H4 H 0.2713 0.3565 1.0107
C4 C 0.3572(2) 0.46475(17) 0.95287(16)
C5 C 0.3563(3) 0.50625(19) 1.04480(16)
H5 H 0.4409 0.4964 1.0653
H6 H 0.3068 0.4733 1.0941
H7 H 0.3205 0.5761 1.0349
C6 C 0.3502(2) 0.32874(16) 0.70609(16)
C7 C 0.4104(2) 0.23128(16) 0.70908(16)
C8 C 0.3946(2) 0.18351(18) 0.63205(17)
H8 H 0.4314 0.1166 0.6326
C9 C 0.3269(2) 0.23204(18) 0.55591(17)
H9 H 0.3181 0.1984 0.5044
C10 C 0.2715(2) 0.32887(18) 0.55346(17)
H10 H 0.2267 0.3614 0.4995
C11 C 0.2802(2) 0.38017(17) 0.62899(16)
C12 C 0.4923(2) 0.17551(16) 0.78882(17)
H11 H 0.4908 0.2192 0.8384
C13 C 0.6254(2) 0.14731(17) 0.75011(17)
H12 H 0.6803 0.1261 0.8035
H13 H 0.6492 0.2037 0.7102
H14 H 0.6320 0.0940 0.7119
C14 C 0.4499(3) 0.08292(19) 0.8369(2)
H15 H 0.3650 0.1000 0.8628
H16 H 0.5041 0.0514 0.8888
H17 H 0.4534 0.0381 0.7898
C15 C 0.2138(2) 0.48549(17) 0.62919(17)
H18 H 0.2711 0.5200 0.6554
C16 C 0.0968(2) 0.49506(19) 0.6944(2)
H19 H 0.0395 0.4597 0.6725
H20 H 0.0577 0.5640 0.6924
H21 H 0.1183 0.4676 0.7599
C17 C 0.1841(3) 0.5382(2) 0.52848(19)
H22 H 0.2589 0.5293 0.4868
H23 H 0.1536 0.6079 0.5314
H24 H 0.1208 0.5111 0.5031
C18 C 0.4315(2) 0.60436(15) 0.87119(15)
C19 C 0.3328(2) 0.68302(17) 0.84752(15)
C20 C 0.3526(3) 0.77626(17) 0.85199(17)
H25 H 0.2876 0.8308 0.8377
C21 C 0.4655(3) 0.79108(17) 0.87697(16)
H26 H 0.4776 0.8554 0.8779
C22 C 0.5593(3) 0.71294(18) 0.90028(16)
H27 H 0.6362 0.7241 0.9167
C23 C 0.5442(2) 0.61713(17) 0.90036(15)
C24 C 0.2080(2) 0.66979(18) 0.82108(18)
H28 H 0.2220 0.6095 0.7895
C25 C 0.1195(3) 0.6554(2) 0.9081(2)
H29 H 0.1551 0.5969 0.9507
H30 H 0.0404 0.6480 0.8868
H31 H 0.1065 0.7123 0.9423
C26 C 0.1410(3) 0.7543(2) 0.75069(19)
H32 H 0.1097 0.8110 0.7840
H33 H 0.0719 0.7344 0.7250
H34 H 0.1986 0.7713 0.6982
C27 C 0.6467(3) 0.53266(19) 0.93790(19)
H35 H 0.6177 0.4703 0.9384
C28 C 0.6767(3) 0.5404(2) 1.04052(18)
H36 H 0.7361 0.4822 1.0651
H37 H 0.6009 0.5457 1.0813
H38 H 0.7122 0.5983 1.0404
C29 C 0.7636(3) 0.5293(2) 0.87538(19)
H39 H 0.7461 0.5237 0.8099
H40 H 0.8258 0.4729 0.8999
H41 H 0.7948 0.5891 0.8758
C30 C 0.7137(2) 0.43815(16) 0.65062(15)
C31 C 0.7415(2) 0.36573(16) 0.72854(15)
C32 C 0.8498(2) 0.29649(16) 0.73522(17)
C33 C 0.9364(2) 0.29537(17) 0.66046(18)
C34 C 0.9140(2) 0.36429(17) 0.58109(16)
C35 C 0.8070(2) 0.43356(16) 0.57926(15)
C36 C 0.5447(2) 0.50551(16) 0.52410(15)
C37 C 0.5430(2) 0.41282(16) 0.50254(15)
C38 C 0.5219(2) 0.39290(17) 0.41349(16)
C39 C 0.5046(2) 0.46690(18) 0.33862(16)
C40 C 0.5111(2) 0.55941(18) 0.35378(16)
C41 C 0.5292(2) 0.57635(16) 0.44507(15)
C42 C 0.5929(2) 0.62938(16) 0.64188(15)
C43 C 0.6965(2) 0.66537(16) 0.65331(15)
C44 C 0.6973(3) 0.76237(18) 0.65799(17)
C45 C 0.5886(3) 0.82963(17) 0.64836(18)
C46 C 0.4824(3) 0.79981(17) 0.63585(17)
C47 C 0.4860(2) 0.70125(17) 0.63387(16)
F1 F 0.66082(13) 0.35872(10) 0.80482(9)
F2 F 0.87001(15) 0.22985(10) 0.81334(10)
F3 F 1.04231(14) 0.22899(10) 0.66646(11)
F4 F 0.99731(13) 0.36523(10) 0.50733(10)
F5 F 0.79504(12) 0.50188(10) 0.50085(9)
F6 F 0.56591(13) 0.33515(9) 0.57075(9)
F7 F 0.52000(14) 0.30130(10) 0.39902(9)
F8 F 0.48395(14) 0.44958(11) 0.25120(9)
F9 F 0.49968(14) 0.63194(10) 0.28004(9)
F10 F 0.53554(14) 0.67038(9) 0.45007(9)
F11 F 0.80981(13) 0.60555(10) 0.65780(9)
F12 F 0.80311(16) 0.79030(11) 0.66864(11)
F13 F 0.58803(17) 0.92447(10) 0.65090(12)
F14 F 0.37647(15) 0.86530(10) 0.62526(11)
F15 F 0.37850(13) 0.67695(10) 0.61847(9)
B3 B 0.8908(3) 0.95979(19) 0.26589(18)
B4 B 1.0466(3) 1.02628(18) 0.12254(18)
N3 N 0.89678(19) 0.85840(13) 0.31497(13)
N4 N 0.7796(2) 1.02861(14) 0.29558(13)
O2 O 0.98256(15) 0.98041(11) 0.20792(10)
C48 C 0.8212(3) 0.73393(18) 0.43427(18)
H42 H 0.8698 0.6853 0.3967
H43 H 0.7402 0.7177 0.4521
H44 H 0.8642 0.7343 0.4921
C49 C 0.8051(3) 0.83280(17) 0.37588(16)
C50 C 0.6980(3) 0.90027(18) 0.38784(18)
H45 H 0.6301 0.8792 0.4234
C51 C 0.6855(2) 0.99711(18) 0.35025(17)
C52 C 0.5678(3) 1.06619(19) 0.3698(2)
H46 H 0.5860 1.1287 0.3797
H47 H 0.5250 1.0390 0.4272
H48 H 0.5151 1.0761 0.3153
C53 C 1.0030(2) 0.78073(16) 0.29860(16)
C54 C 0.9847(2) 0.70778(16) 0.24738(16)
C55 C 1.0849(2) 0.63177(17) 0.23783(17)
H49 H 1.0760 0.5807 0.2040
C56 C 1.1961(3) 0.62845(18) 0.27585(18)
H50 H 1.2627 0.5754 0.2683
C57 C 1.2112(3) 0.70184(18) 0.32481(17)
H51 H 1.2887 0.6990 0.3506
C58 C 1.1147(3) 0.78045(17) 0.33725(16)
C59 C 0.8646(2) 0.70764(17) 0.20137(17)
H52 H 0.8008 0.7634 0.2205
C60 C 0.8170(3) 0.6136(2) 0.2337(2)
H53 H 0.8741 0.5589 0.2095
H54 H 0.7353 0.6197 0.2087
H55 H 0.8111 0.6018 0.3036
C61 C 0.8828(3) 0.72252(18) 0.09211(17)
H56 H 0.9375 0.6648 0.0713
H57 H 0.9198 0.7798 0.0720
H58 H 0.8028 0.7324 0.0633
C62 C 1.1339(3) 0.85999(18) 0.39431(17)
H59 H 1.0827 0.9230 0.3657
C63 C 1.0869(3) 0.8396(2) 0.49858(18)
H60 H 1.1327 0.7766 0.5279
H61 H 0.9989 0.8380 0.5005
H62 H 1.0993 0.8911 0.5338
C64 C 1.2659(3) 0.8734(2) 0.3908(2)
H63 H 1.2694 0.9313 0.4201
H64 H 1.2971 0.8818 0.3243
H65 H 1.3167 0.8160 0.4260
C65 C 0.7801(2) 1.13362(16) 0.28344(17)
C66 C 0.7192(2) 1.19691(16) 0.20878(17)
C67 C 0.7277(2) 1.29485(17) 0.20180(18)
H66 H 0.6894 1.3399 0.1511
C68 C 0.7903(2) 1.32762(17) 0.26687(18)
H67 H 0.7971 1.3941 0.2592
C69 C 0.8434(3) 1.26410(17) 0.34319(19)
H68 H 0.8826 1.2881 0.3893
C70 C 0.8400(2) 1.16495(17) 0.35326(17)
C71 C 0.6370(2) 1.16861(18) 0.14085(18)
H69 H 0.6383 1.0972 0.1567
C72 C 0.6796(3) 1.18906(19) 0.03626(18)
H70 H 0.6729 1.2594 0.0181
H71 H 0.6276 1.1650 -0.0039
H72 H 0.7656 1.1559 0.0275
C73 C 0.5027(3) 1.22418(19) 0.1544(2)
H73 H 0.4988 1.2941 0.1354
H74 H 0.4752 1.2126 0.2217
H75 H 0.4491 1.2011 0.1149
C74 C 0.8900(3) 1.09869(19) 0.44299(18)
H76 H 0.9067 1.0299 0.4288
C75 C 0.7911(4) 1.1076(3) 0.5248(2)
H77 H 0.8228 1.0646 0.5820
H78 H 0.7171 1.0886 0.5062
H79 H 0.7704 1.1751 0.5383
C76 C 1.0088(3) 1.1182(2) 0.4762(2)
H80 H 1.0736 1.1093 0.4255
H81 H 1.0345 1.0727 0.5335
H82 H 0.9949 1.1852 0.4910
C77 C 1.1927(2) 0.96346(16) 0.11501(16)
C78 C 1.2157(2) 0.86337(16) 0.10961(15)
C79 C 1.3312(2) 0.80407(17) 0.10774(16)
C80 C 1.4336(2) 0.84313(19) 0.10943(17)
C81 C 1.4192(2) 0.94219(19) 0.1079(2)
C82 C 1.3014(3) 0.99862(18) 0.10980(19)
C83 C 0.9848(2) 1.01404(16) 0.02344(16)
C84 C 0.8809(2) 0.97649(17) 0.01722(16)
C85 C 0.8410(3) 0.95579(18) -0.06657(18)
C86 C 0.9087(3) 0.97232(18) -0.15037(17)
C87 C 1.0122(3) 1.01116(18) -0.14980(17)
C88 C 1.0471(2) 1.03105(17) -0.06439(17)
C89 C 1.0500(2) 1.13888(16) 0.13814(17)
C90 C 1.0102(2) 1.22474(17) 0.07755(17)
C91 C 1.0292(3) 1.31495(17) 0.09314(19)
C92 C 1.0884(3) 1.32227(18) 0.1719(2)
C93 C 1.1285(3) 1.24090(19) 0.23476(19)
C94 C 1.1074(3) 1.15277(17) 0.21695(17)
F16 F 1.11867(13) 0.82063(9) 0.10405(9)
F17 F 1.34351(14) 0.70893(10) 0.10251(10)
F18 F 1.54714(14) 0.78684(12) 0.10911(11)
F19 F 1.51809(16) 0.98289(13) 0.10560(14)
F20 F 1.29968(16) 1.09606(11) 0.10155(13)
F21 F 0.80737(14) 0.95696(10) 0.09609(10)
F22 F 0.73902(16) 0.91846(12) -0.06615(11)
F23 F 0.87312(18) 0.95209(12) -0.23270(11)
F24 F 1.07911(18) 1.02800(12) -0.23099(10)
F25 F 1.14904(16) 1.06974(11) -0.06890(10)
F26 F 0.95459(15) 1.22367(10) -0.00321(11)
F27 F 0.98805(16) 1.39496(10) 0.03168(12)
F28 F 1.10692(18) 1.41024(11) 0.18713(12)
F29 F 1.1899(2) 1.24713(13) 0.31180(12)
F30 F 1.15613(17) 1.07430(10) 0.27865(10)
loop_
_geom_bond_atom_site_label_1
_geom_bond_atom_site_label_2
_geom_bond_site_symmetry_1
_geom_bond_site_symmetry_2
B1 N1 1_555 1_555
B2 O1 1_555 1_555
B3 N3 1_555 1_555
B4 O2 1_555 1_555
N1 C2 1_555 1_555
N2 B1 1_555 1_555
N3 C49 1_555 1_555
N4 B3 1_555 1_555
O1 B1 1_555 1_555
O2 B3 1_555 1_555
C1 H1 1_555 1_555
H2 C1 1_555 1_555
H3 C1 1_555 1_555
C2 C1 1_555 1_555
C3 C2 1_555 1_555
H4 C3 1_555 1_555
C4 N2 1_555 1_555
C5 C4 1_555 1_555
H5 C5 1_555 1_555
H6 C5 1_555 1_555
H7 C5 1_555 1_555
C6 N1 1_555 1_555
C7 C6 1_555 1_555
C8 C7 1_555 1_555
H8 C8 1_555 1_555
C9 C8 1_555 1_555
H9 C9 1_555 1_555
C10 C9 1_555 1_555
H10 C10 1_555 1_555
C11 C6 1_555 1_555
C12 C7 1_555 1_555
H11 C12 1_555 1_555
C13 C12 1_555 1_555
H12 C13 1_555 1_555
H13 C13 1_555 1_555
H14 C13 1_555 1_555
C14 C12 1_555 1_555
H15 C14 1_555 1_555
H16 C14 1_555 1_555
H17 C14 1_555 1_555
C15 C11 1_555 1_555
H18 C15 1_555 1_555
C16 C15 1_555 1_555
H19 C16 1_555 1_555
H20 C16 1_555 1_555
H21 C16 1_555 1_555
C17 C15 1_555 1_555
H22 C17 1_555 1_555
H23 C17 1_555 1_555
H24 C17 1_555 1_555
C18 N2 1_555 1_555
C19 C18 1_555 1_555
C20 C19 1_555 1_555
H25 C20 1_555 1_555
C21 C20 1_555 1_555
H26 C21 1_555 1_555
C22 C21 1_555 1_555
H27 C22 1_555 1_555
C23 C18 1_555 1_555
C24 C19 1_555 1_555
H28 C24 1_555 1_555
C25 C24 1_555 1_555
H29 C25 1_555 1_555
H30 C25 1_555 1_555
H31 C25 1_555 1_555
C26 C24 1_555 1_555
H32 C26 1_555 1_555
H33 C26 1_555 1_555
H34 C26 1_555 1_555
C27 C23 1_555 1_555
H35 C27 1_555 1_555
C28 C27 1_555 1_555
H36 C28 1_555 1_555
H37 C28 1_555 1_555
H38 C28 1_555 1_555
C29 C27 1_555 1_555
H39 C29 1_555 1_555
H40 C29 1_555 1_555
H41 C29 1_555 1_555
C30 B2 1_555 1_555
C31 C30 1_555 1_555
C32 C31 1_555 1_555
C33 C32 1_555 1_555
C34 C33 1_555 1_555
C35 C30 1_555 1_555
C36 B2 1_555 1_555
C37 C36 1_555 1_555
C38 C37 1_555 1_555
C39 C38 1_555 1_555
C40 C39 1_555 1_555
C41 C36 1_555 1_555
C42 B2 1_555 1_555
C43 C42 1_555 1_555
C44 C43 1_555 1_555
C45 C44 1_555 1_555
C46 C45 1_555 1_555
C47 C42 1_555 1_555
C48 H42 1_555 1_555
H43 C48 1_555 1_555
H44 C48 1_555 1_555
C49 C48 1_555 1_555
C50 C49 1_555 1_555
H45 C50 1_555 1_555
C51 N4 1_555 1_555
C52 C51 1_555 1_555
H46 C52 1_555 1_555
H47 C52 1_555 1_555
H48 C52 1_555 1_555
C53 N3 1_555 1_555
C54 C53 1_555 1_555
C55 C54 1_555 1_555
H49 C55 1_555 1_555
C56 C55 1_555 1_555
H50 C56 1_555 1_555
C57 C56 1_555 1_555
H51 C57 1_555 1_555
C58 C53 1_555 1_555
C59 C54 1_555 1_555
H52 C59 1_555 1_555
C60 C59 1_555 1_555
H53 C60 1_555 1_555
H54 C60 1_555 1_555
H55 C60 1_555 1_555
C61 C59 1_555 1_555
H56 C61 1_555 1_555
H57 C61 1_555 1_555
H58 C61 1_555 1_555
C62 C58 1_555 1_555
H59 C62 1_555 1_555
C63 C62 1_555 1_555
H60 C63 1_555 1_555
H61 C63 1_555 1_555
H62 C63 1_555 1_555
C64 C62 1_555 1_555
H63 C64 1_555 1_555
H64 C64 1_555 1_555
H65 C64 1_555 1_555
C65 N4 1_555 1_555
C66 C65 1_555 1_555
C67 C66 1_555 1_555
H66 C67 1_555 1_555
C68 C67 1_555 1_555
H67 C68 1_555 1_555
C69 C68 1_555 1_555
H68 C69 1_555 1_555
C70 C65 1_555 1_555
C71 C66 1_555 1_555
H69 C71 1_555 1_555
C72 C71 1_555 1_555
H70 C72 1_555 1_555
H71 C72 1_555 1_555
H72 C72 1_555 1_555
C73 C71 1_555 1_555
H73 C73 1_555 1_555
H74 C73 1_555 1_555
H75 C73 1_555 1_555
C74 C70 1_555 1_555
H76 C74 1_555 1_555
C75 C74 1_555 1_555
H77 C75 1_555 1_555
H78 C75 1_555 1_555
H79 C75 1_555 1_555
C76 C74 1_555 1_555
H80 C76 1_555 1_555
H81 C76 1_555 1_555
H82 C76 1_555 1_555
C77 B4 1_555 1_555
C78 C77 1_555 1_555
C79 C78 1_555 1_555
C80 C79 1_555 1_555
C81 C80 1_555 1_555
C82 C77 1_555 1_555
C83 B4 1_555 1_555
C84 C83 1_555 1_555
C85 C84 1_555 1_555
C86 C85 1_555 1_555
C87 C86 1_555 1_555
C88 C83 1_555 1_555
C89 B4 1_555 1_555
C90 C89 1_555 1_555
C91 C90 1_555 1_555
C92 C91 1_555 1_555
C93 C92 1_555 1_555
C94 C89 1_555 1_555
F1 C31 1_555 1_555
F2 C32 1_555 1_555
F3 C33 1_555 1_555
F4 C34 1_555 1_555
F5 C35 1_555 1_555
F6 C37 1_555 1_555
F7 C38 1_555 1_555
F8 C39 1_555 1_555
F9 C40 1_555 1_555
F10 C41 1_555 1_555
F11 C43 1_555 1_555
F12 C44 1_555 1_555
F13 C45 1_555 1_555
F14 C46 1_555 1_555
F15 C47 1_555 1_555
F16 C78 1_555 1_555
F17 C79 1_555 1_555
F18 C80 1_555 1_555
F19 C81 1_555 1_555
F20 C82 1_555 1_555
F21 C84 1_555 1_555
F22 C85 1_555 1_555
F23 C86 1_555 1_555
F24 C87 1_555 1_555
F25 C88 1_555 1_555
F26 C90 1_555 1_555
F27 C91 1_555 1_555
F28 C92 1_555 1_555
F29 C93 1_555 1_555
F30 C94 1_555 1_555
C3 C4 1_555 1_555
C10 C11 1_555 1_555
C22 C23 1_555 1_555
C34 C35 1_555 1_555
C40 C41 1_555 1_555
C46 C47 1_555 1_555
C50 C51 1_555 1_555
C57 C58 1_555 1_555
C69 C70 1_555 1_555
C81 C82 1_555 1_555
C87 C88 1_555 1_555
C93 C94 1_555 1_555

#END
