
#######################################################################
#
#                 Cambridge Crystallographic Data Centre
#                                CCDC 
#
#######################################################################
#
# If this CIF has been generated from an entry in the Cambridge 
# Structural Database, then it will include bibliographic, chemical, 
# crystal, experimental, refinement or atomic coordinate data resulting 
# from the CCDC's data processing and validation procedures.
#
#######################################################################

data_ONOYUM
_chemical_formula_moiety         'C31 H32 N4 O4 Si1'
_chemical_name_systematic        
4-Azido-1-(((t-butyl(diphenyl)silyl)oxy)methyl)-5'-methyl-2'-phenyl-2H-spiro[6-oxabicyclo[3.1.0]hexane-3,4'-[1,3]oxazol]-2-one
_symmetry_cell_setting           monoclinic
_symmetry_space_group_name_H-M   'P 21'
_symmetry_Int_Tables_number      4
_space_group_name_Hall           'P 2yb'
loop_
_symmetry_equiv_pos_site_id
_symmetry_equiv_pos_as_xyz
1 x,y,z
2 -x,1/2+y,-z
_cell_length_a                   15.7089(5)
_cell_length_b                   9.9523(3)
_cell_length_c                   19.9434(7)
_cell_angle_alpha                90
_cell_angle_beta                 112.017(2)
_cell_angle_gamma                90
_cell_volume                     2890.56
_exptl_crystal_colour            colorless
_exptl_crystal_description       block
_cell_formula_units_Z            4
loop_
_atom_site_label
_atom_site_type_symbol
_atom_site_fract_x
_atom_site_fract_y
_atom_site_fract_z
Si1 Si 0.61580(3) 0.37954(5) 0.65867(3)
O1 O 0.69272(8) 0.32201(14) 0.73504(7)
O2 O 0.93091(9) 0.47177(14) 0.91803(8)
O3 O 0.86589(8) 0.19573(13) 0.80439(7)
O4 O 1.12656(8) 0.22112(16) 0.98409(8)
N1 N 0.83119(10) 0.15687(18) 0.97267(9)
N2 N 0.85248(12) 0.0951(2) 1.03007(10)
N3 N 0.86218(16) 0.0442(3) 1.08257(12)
N4 N 1.00919(10) 0.26293(16) 1.02122(8)
C1 C 1.05215(13) 0.0525(2) 0.89534(12)
H1 H 1.1096 0.0415 0.8873
H2 H 1.0000 0.0339 0.8503
H3 H 1.0511 -0.0103 0.9329
C2 C 1.04546(11) 0.1946(2) 0.91920(10)
H4 H 1.0449 0.2580 0.8801
C3 C 0.96487(11) 0.23202(18) 0.94449(10)
C4 C 0.88630(12) 0.12767(19) 0.92808(10)
H5 H 0.9084 0.0326 0.9326
C5 C 0.82020(12) 0.1629(2) 0.85242(10)
H6 H 0.7576 0.1218 0.8329
C6 C 0.83270(11) 0.30449(18) 0.83705(10)
C7 C 0.91219(11) 0.35591(18) 0.90170(10)
C8 C 0.76193(12) 0.3984(2) 0.78796(10)
H7 H 0.7345 0.4525 0.8164
H8 H 0.7910 0.4606 0.7641
C9 C 1.09581(12) 0.25445(18) 1.03677(10)
C10 C 1.16664(13) 0.28189(19) 1.10872(11)
C11 C 1.25877(13) 0.2899(2) 1.11756(13)
H9 H 1.2767 0.2749 1.0777
C12 C 1.32429(15) 0.3200(2) 1.18555(14)
H10 H 1.3873 0.3245 1.1921
C13 C 1.29826(16) 0.3433(2) 1.24335(14)
H11 H 1.3433 0.3645 1.2895
C14 C 1.20664(17) 0.3358(2) 1.23412(12)
H12 H 1.1889 0.3526 1.2739
C15 C 1.14036(15) 0.3037(2) 1.16712(12)
H13 H 1.0776 0.2968 1.1612
C16 C 0.54622(12) 0.2251(2) 0.61651(10)
C17 C 0.60702(14) 0.1134(2) 0.60462(12)
H14 H 0.5702 0.0321 0.5871
H15 H 0.6577 0.0939 0.6504
H16 H 0.6319 0.1432 0.5688
C18 C 0.46949(12) 0.2617(2) 0.54448(11)
H17 H 0.4965 0.2962 0.5109
H18 H 0.4300 0.3306 0.5527
H19 H 0.4329 0.1815 0.5237
C19 C 0.50205(15) 0.1709(2) 0.66833(12)
H20 H 0.4631 0.2406 0.6767
H21 H 0.5503 0.1459 0.7144
H22 H 0.4646 0.0918 0.6468
C20 C 0.67258(11) 0.46318(19) 0.60136(10)
C21 C 0.71858(12) 0.5856(2) 0.62537(10)
H23 H 0.7191 0.6240 0.6691
C22 C 0.76333(13) 0.6518(2) 0.58675(11)
H24 H 0.7952 0.7333 0.6048
C23 C 0.76174(12) 0.5995(2) 0.52199(11)
H25 H 0.7916 0.6454 0.4951
C24 C 0.71628(12) 0.4798(2) 0.49676(11)
H26 H 0.7148 0.4434 0.4523
C25 C 0.67272(12) 0.4123(2) 0.53597(10)
H27 H 0.6424 0.3298 0.5180
C26 C 0.54484(11) 0.5104(2) 0.68164(10)
C27 C 0.50584(13) 0.6193(2) 0.63570(11)
H28 H 0.5153 0.6279 0.5915
C28 C 0.45346(13) 0.7149(2) 0.65402(12)
H29 H 0.4274 0.7881 0.6224
C29 C 0.43926(13) 0.7035(2) 0.71819(11)
H30 H 0.4037 0.7690 0.7307
C30 C 0.47687(13) 0.5966(2) 0.76421(11)
H31 H 0.4671 0.5886 0.8083
C31 C 0.52888(12) 0.5013(2) 0.74579(10)
H32 H 0.5542 0.4281 0.7776
Si2 Si 0.12072(3) 0.72119(5) 0.65711(3)
O5 O 0.46339(8) 0.83119(15) 1.09635(7)
O6 O 0.41228(9) 0.60865(14) 0.92763(8)
O7 O 0.25406(8) 0.87132(14) 0.88162(7)
O8 O 0.19954(8) 0.77185(14) 0.73436(7)
N5 N 0.47820(11) 0.95344(17) 0.87816(9)
N6 N 0.55733(11) 0.99262(18) 0.91502(10)
N7 N 0.63119(12) 1.0248(2) 0.94143(12)
N8 N 0.52620(9) 0.81669(16) 1.01144(8)
C32 C 0.35050(14) 1.0008(2) 1.03735(11)
H33 H 0.3315 1.0014 1.0789
H34 H 0.2979 1.0237 0.9934
H35 H 0.3995 1.0668 1.0451
C33 C 0.38545(11) 0.86169(19) 1.02911(10)
H36 H 0.3356 0.7940 1.0216
C34 C 0.42836(11) 0.84193(18) 0.97038(9)
C35 C 0.41172(12) 0.95833(19) 0.91488(10)
H37 H 0.4098 1.0483 0.9366
C36 C 0.32128(12) 0.9220(2) 0.85487(10)
H38 H 0.3009 0.9716 0.8079
C37 C 0.30546(11) 0.77628(19) 0.85543(10)
C38 C 0.38441(11) 0.72207(19) 0.91979(9)
C39 C 0.25381(11) 0.68908(19) 0.79243(10)
H39 H 0.2973 0.6359 0.7779
H40 H 0.2140 0.6260 0.8058
C40 C 0.53725(11) 0.81403(18) 1.07764(10)
C41 C 0.62609(11) 0.79266(18) 1.13811(10)
C42 C 0.62861(13) 0.75041(19) 1.20519(10)
H41 H 0.5731 0.7365 1.2128
C43 C 0.71266(13) 0.7286(2) 1.26121(11)
H42 H 0.7146 0.6983 1.3069
C44 C 0.79342(13) 0.7508(2) 1.25037(12)
H43 H 0.8508 0.7365 1.2888
C45 C 0.79094(13) 0.7940(2) 1.18359(13)
H44 H 0.8466 0.8101 1.1765
C46 C 0.70728(13) 0.8138(2) 1.12700(11)
H45 H 0.7055 0.8416 1.0809
C47 C 0.05126(12) 0.8781(2) 0.61804(10)
C48 C 0.10917(14) 0.9879(2) 0.60164(12)
H46 H 0.1273 0.9584 0.5620
H47 H 0.1642 1.0049 0.6449
H48 H 0.0730 1.0707 0.5875
C49 C -0.03027(12) 0.8401(2) 0.54857(11)
H49 H -0.0669 0.9204 0.5282
H50 H -0.0686 0.7733 0.5600
H51 H -0.0072 0.8023 0.5133
C50 C 0.01363(16) 0.9333(3) 0.67404(12)
H52 H 0.0648 0.9509 0.7198
H53 H -0.0278 0.8670 0.6820
H54 H -0.0200 1.0170 0.6559
C51 C 0.04792(11) 0.5886(2) 0.67642(10)
C52 C 0.02465(12) 0.5961(2) 0.73746(10)
H55 H 0.0461 0.6697 0.7698
C53 C -0.02914(13) 0.4982(3) 0.75171(11)
H56 H -0.0442 0.5055 0.7934
C54 C -0.06085(13) 0.3901(2) 0.70559(12)
H57 H -0.0975 0.3230 0.7155
C55 C -0.03870(13) 0.3804(2) 0.64459(11)
H58 H -0.0602 0.3063 0.6127
C56 C 0.01482(12) 0.4786(2) 0.63004(11)
H59 H 0.0292 0.4711 0.5880
C57 C 0.17677(11) 0.64093(19) 0.59843(10)
C58 C 0.22781(12) 0.5225(2) 0.62367(11)
H60 H 0.2331 0.4870 0.6693
C59 C 0.27041(13) 0.4566(2) 0.58362(11)
H61 H 0.3049 0.3772 0.6021
C60 C 0.26295(12) 0.5059(2) 0.51669(11)
H62 H 0.2922 0.4607 0.4892
C61 C 0.21271(12) 0.6212(2) 0.49012(11)
H63 H 0.2068 0.6550 0.4440
C62 C 0.17063(12) 0.6881(2) 0.53100(10)
H64 H 0.1369 0.7679 0.5123
loop_
_geom_bond_atom_site_label_1
_geom_bond_atom_site_label_2
_geom_bond_site_symmetry_1
_geom_bond_site_symmetry_2
Si1 O1 1_555 1_555
O1 C8 1_555 1_555
O2 C7 1_555 1_555
O3 C5 1_555 1_555
O4 C2 1_555 1_555
N1 N2 1_555 1_555
N2 N3 1_555 1_555
N4 C3 1_555 1_555
C1 H1 1_555 1_555
H2 C1 1_555 1_555
H3 C1 1_555 1_555
C2 C1 1_555 1_555
H4 C2 1_555 1_555
C3 C2 1_555 1_555
C4 N1 1_555 1_555
H5 C4 1_555 1_555
C5 C4 1_555 1_555
H6 C5 1_555 1_555
C6 O3 1_555 1_555
C7 C3 1_555 1_555
C8 C6 1_555 1_555
H7 C8 1_555 1_555
H8 C8 1_555 1_555
C9 O4 1_555 1_555
C10 C9 1_555 1_555
C11 C10 1_555 1_555
H9 C11 1_555 1_555
C12 C11 1_555 1_555
H10 C12 1_555 1_555
C13 C12 1_555 1_555
H11 C13 1_555 1_555
C14 C13 1_555 1_555
H12 C14 1_555 1_555
C15 C10 1_555 1_555
H13 C15 1_555 1_555
C16 Si1 1_555 1_555
C17 C16 1_555 1_555
H14 C17 1_555 1_555
H15 C17 1_555 1_555
H16 C17 1_555 1_555
C18 C16 1_555 1_555
H17 C18 1_555 1_555
H18 C18 1_555 1_555
H19 C18 1_555 1_555
C19 C16 1_555 1_555
H20 C19 1_555 1_555
H21 C19 1_555 1_555
H22 C19 1_555 1_555
C20 Si1 1_555 1_555
C21 C20 1_555 1_555
H23 C21 1_555 1_555
C22 C21 1_555 1_555
H24 C22 1_555 1_555
C23 C22 1_555 1_555
H25 C23 1_555 1_555
C24 C23 1_555 1_555
H26 C24 1_555 1_555
C25 C20 1_555 1_555
H27 C25 1_555 1_555
C26 Si1 1_555 1_555
C27 C26 1_555 1_555
H28 C27 1_555 1_555
C28 C27 1_555 1_555
H29 C28 1_555 1_555
C29 C28 1_555 1_555
H30 C29 1_555 1_555
C30 C29 1_555 1_555
H31 C30 1_555 1_555
C31 C26 1_555 1_555
H32 C31 1_555 1_555
Si2 O8 1_555 1_555
O5 C33 1_555 1_555
O6 C38 1_555 1_555
O7 C36 1_555 1_555
O8 C39 1_555 1_555
N5 N6 1_555 1_555
N6 N7 1_555 1_555
N8 C34 1_555 1_555
C32 H33 1_555 1_555
H34 C32 1_555 1_555
H35 C32 1_555 1_555
C33 C32 1_555 1_555
H36 C33 1_555 1_555
C34 C33 1_555 1_555
C35 N5 1_555 1_555
H37 C35 1_555 1_555
C36 C35 1_555 1_555
H38 C36 1_555 1_555
C37 O7 1_555 1_555
C38 C34 1_555 1_555
C39 C37 1_555 1_555
H39 C39 1_555 1_555
H40 C39 1_555 1_555
C40 O5 1_555 1_555
C41 C40 1_555 1_555
C42 C41 1_555 1_555
H41 C42 1_555 1_555
C43 C42 1_555 1_555
H42 C43 1_555 1_555
C44 C43 1_555 1_555
H43 C44 1_555 1_555
C45 C44 1_555 1_555
H44 C45 1_555 1_555
C46 C41 1_555 1_555
H45 C46 1_555 1_555
C47 Si2 1_555 1_555
C48 C47 1_555 1_555
H46 C48 1_555 1_555
H47 C48 1_555 1_555
H48 C48 1_555 1_555
C49 C47 1_555 1_555
H49 C49 1_555 1_555
H50 C49 1_555 1_555
H51 C49 1_555 1_555
C50 C47 1_555 1_555
H52 C50 1_555 1_555
H53 C50 1_555 1_555
H54 C50 1_555 1_555
C51 Si2 1_555 1_555
C52 C51 1_555 1_555
H55 C52 1_555 1_555
C53 C52 1_555 1_555
H56 C53 1_555 1_555
C54 C53 1_555 1_555
H57 C54 1_555 1_555
C55 C54 1_555 1_555
H58 C55 1_555 1_555
C56 C51 1_555 1_555
H59 C56 1_555 1_555
C57 Si2 1_555 1_555
C58 C57 1_555 1_555
H60 C58 1_555 1_555
C59 C58 1_555 1_555
H61 C59 1_555 1_555
C60 C59 1_555 1_555
H62 C60 1_555 1_555
C61 C60 1_555 1_555
H63 C61 1_555 1_555
C62 C57 1_555 1_555
H64 C62 1_555 1_555
N4 C9 1_555 1_555
C3 C4 1_555 1_555
C5 C6 1_555 1_555
C6 C7 1_555 1_555
C14 C15 1_555 1_555
C24 C25 1_555 1_555
C30 C31 1_555 1_555
N8 C40 1_555 1_555
C34 C35 1_555 1_555
C36 C37 1_555 1_555
C37 C38 1_555 1_555
C45 C46 1_555 1_555
C55 C56 1_555 1_555
C61 C62 1_555 1_555

#END
