
#######################################################################
#
#                 Cambridge Crystallographic Data Centre
#                                CCDC 
#
#######################################################################
#
# If this CIF has been generated from an entry in the Cambridge 
# Structural Database, then it will include bibliographic, chemical, 
# crystal, experimental, refinement or atomic coordinate data resulting 
# from the CCDC's data processing and validation procedures.
#
#######################################################################

data_ONOZEX01
_chemical_name_common            'Pactamycate ethanol solvate'
_chemical_formula_moiety         'C26 H31 N3 O8,C2 H6 O1'
_chemical_name_systematic        
'(8-((3-Acetylphenyl)amino)-9-amino-6,7-dihydroxy-4,6-dimethyl-2-oxo-3-oxa-1-azaspiro[4.4]non-7-yl)methyl 2-hydroxy-6-methylbenzoate ethanol solvate'
_symmetry_cell_setting           triclinic
_symmetry_space_group_name_H-M   'P 1'
_symmetry_Int_Tables_number      1
_space_group_name_Hall           'P 1'
loop_
_symmetry_equiv_pos_site_id
_symmetry_equiv_pos_as_xyz
1 x,y,z
_cell_length_a                   7.5210(3)
_cell_length_b                   7.9161(3)
_cell_length_c                   12.1346(4)
_cell_angle_alpha                80.898(2)
_cell_angle_beta                 72.304(2)
_cell_angle_gamma                87.498(2)
_cell_volume                     679.599
_exptl_crystal_colour            colorless
_exptl_crystal_description       block
_cell_formula_units_Z            1
loop_
_atom_site_label
_atom_site_type_symbol
_atom_site_fract_x
_atom_site_fract_y
_atom_site_fract_z
O1 O 0.51415(19) 0.27330(16) -0.17230(13)
O2 O 0.45747(19) 0.50329(16) -0.29136(12)
O3 O 0.30056(17) 0.70470(15) 0.09244(11)
H1 H 0.4163 0.6952 0.0804
O4 O 0.34268(17) 0.97636(15) -0.19153(11)
H2 H 0.3852 1.0685 -0.1834
O5 O 0.15708(16) 1.01038(15) 0.17024(11)
O6 O 0.1625(2) 1.29659(16) 0.14154(12)
O7 O -0.0798(2) 1.4545(2) 0.28767(15)
H3 H 0.0067 1.4442 0.2262
O8 O -0.39768(18) 1.49218(16) 0.10359(12)
N1 N 0.3801(2) 0.51800(18) -0.10297(14)
H4 H 0.3732 0.4871 -0.0289
N2 N -0.0014(2) 0.5388(2) -0.07016(17)
N3 N -0.0633(2) 0.94420(19) 0.00418(14)
C1 C 0.3119(2) 0.6818(2) -0.14740(16)
C2 C 0.0971(2) 0.7030(2) -0.09566(16)
H5 H 0.0530 0.7781 -0.1564
C3 C 0.0642(2) 0.8011(2) 0.01025(16)
H6 H 0.0049 0.7197 0.0830
C4 C 0.2632(2) 0.8457(2) 0.01252(15)
C5 C 0.3897(2) 0.8385(2) -0.11403(15)
C6 C 0.5984(2) 0.8347(2) -0.12912(18)
H7 H 0.6375 0.9448 -0.1167
H8 H 0.6667 0.8138 -0.2084
H9 H 0.6251 0.7431 -0.0720
C7 C 0.3855(3) 0.6761(2) -0.28165(17)
H10 H 0.4924 0.7582 -0.3166
C8 C 0.2504(3) 0.7125(3) -0.3527(2)
H11 H 0.1391 0.6403 -0.3158
H12 H 0.3103 0.6875 -0.4322
H13 H 0.2142 0.8332 -0.3561
C9 C 0.2809(2) 1.0153(2) 0.05167(16)
H14 H 0.4114 1.0334 0.0496
H15 H 0.2459 1.1104 -0.0012
C10 C 0.4544(2) 0.4184(2) -0.18543(17)
C11 C -0.1997(2) 0.9875(2) 0.10196(16)
C12 C -0.2666(2) 1.1556(2) 0.10118(16)
H16 H -0.2195 1.2375 0.0330
C13 C -0.4008(2) 1.2056(2) 0.19830(16)
C14 C -0.4750(2) 1.0858(2) 0.29758(17)
H17 H -0.5653 1.1187 0.3643
C15 C -0.4149(3) 0.9176(2) 0.29764(19)
H18 H -0.4670 0.8349 0.3645
C16 C -0.2801(2) 0.8678(2) 0.20181(18)
H19 H -0.2420 0.7516 0.2038
C17 C -0.4565(2) 1.3900(2) 0.19320(16)
C18 C -0.5844(3) 1.4495(2) 0.30196(18)
H20 H -0.6157 1.5700 0.2838
H21 H -0.5216 1.4365 0.3627
H22 H -0.6989 1.3804 0.3301
C19 C 0.1083(2) 1.1605(2) 0.20642(16)
C20 C -0.0175(2) 1.1501(2) 0.32706(16)
C21 C -0.1091(3) 1.3030(3) 0.35980(19)
C22 C -0.2375(3) 1.3021(3) 0.4706(2)
H23 H -0.2996 1.4045 0.4919
C23 C -0.2737(3) 1.1530(4) 0.5487(2)
H24 H -0.3621 1.1524 0.6238
C24 C -0.1826(3) 1.0034(3) 0.5190(2)
H25 H -0.2083 0.9022 0.5750
C25 C -0.0541(3) 0.9972(3) 0.40933(18)
C26 C 0.0409(3) 0.8278(3) 0.3871(2)
H26 H -0.0012 0.7820 0.3288
H27 H 0.0090 0.7467 0.4602
H28 H 0.1765 0.8449 0.3580
H29 H -0.019(3) 1.032(3) -0.053(2)
H30 H -0.126(4) 0.546(3) -0.035(2)
H31 H 0.036(4) 0.470(4) -0.012(3)
O9 O 0.0629(2) 0.24905(18) 0.81917(14)
H32 H 0.0386 0.3493 0.8336
C27 C 0.0081(3) 0.2270(4) 0.7200(2)
H33 H -0.0874 0.3135 0.7106
H34 H -0.0497 0.1126 0.7340
C28 C 0.1668(4) 0.2435(3) 0.6098(2)
H35 H 0.2629 0.1595 0.6189
H36 H 0.2198 0.3590 0.5927
H37 H 0.1221 0.2226 0.5452
loop_
_geom_bond_atom_site_label_1
_geom_bond_atom_site_label_2
_geom_bond_site_symmetry_1
_geom_bond_site_symmetry_2
O1 C10 1_555 1_555
O2 C7 1_555 1_555
O3 H1 1_555 1_555
O4 H2 1_555 1_555
O5 C9 1_555 1_555
O6 C19 1_555 1_555
O7 H3 1_555 1_555
O8 C17 1_555 1_555
N1 H4 1_555 1_555
N2 C2 1_555 1_555
N3 C3 1_555 1_555
C1 N1 1_555 1_555
C2 C1 1_555 1_555
H5 C2 1_555 1_555
C3 C2 1_555 1_555
H6 C3 1_555 1_555
C4 O3 1_555 1_555
C5 O4 1_555 1_555
C6 C5 1_555 1_555
H7 C6 1_555 1_555
H8 C6 1_555 1_555
H9 C6 1_555 1_555
C7 C1 1_555 1_555
H10 C7 1_555 1_555
C8 C7 1_555 1_555
H11 C8 1_555 1_555
H12 C8 1_555 1_555
H13 C8 1_555 1_555
C9 C4 1_555 1_555
H14 C9 1_555 1_555
H15 C9 1_555 1_555
C10 O2 1_555 1_555
C11 N3 1_555 1_555
C12 C11 1_555 1_555
H16 C12 1_555 1_555
C13 C12 1_555 1_555
C14 C13 1_555 1_555
H17 C14 1_555 1_555
C15 C14 1_555 1_555
H18 C15 1_555 1_555
C16 C11 1_555 1_555
H19 C16 1_555 1_555
C17 C13 1_555 1_555
C18 C17 1_555 1_555
H20 C18 1_555 1_555
H21 C18 1_555 1_555
H22 C18 1_555 1_555
C19 O5 1_555 1_555
C20 C19 1_555 1_555
C21 O7 1_555 1_555
C22 C21 1_555 1_555
H23 C22 1_555 1_555
C23 C22 1_555 1_555
H24 C23 1_555 1_555
C24 C23 1_555 1_555
H25 C24 1_555 1_555
C25 C20 1_555 1_555
C26 C25 1_555 1_555
H26 C26 1_555 1_555
H27 C26 1_555 1_555
H28 C26 1_555 1_555
H29 N3 1_555 1_555
H30 N2 1_555 1_555
H31 N2 1_555 1_555
O9 H32 1_555 1_555
C27 O9 1_555 1_555
H33 C27 1_555 1_555
H34 C27 1_555 1_555
C28 C27 1_555 1_555
H35 C28 1_555 1_555
H36 C28 1_555 1_555
H37 C28 1_555 1_555
N1 C10 1_555 1_555
C1 C5 1_555 1_555
C3 C4 1_555 1_555
C4 C5 1_555 1_555
C15 C16 1_555 1_555
C20 C21 1_555 1_555
C24 C25 1_555 1_555

#END
