
#######################################################################
#
#                 Cambridge Crystallographic Data Centre
#                                CCDC 
#
#######################################################################
#
# If this CIF has been generated from an entry in the Cambridge 
# Structural Database, then it will include bibliographic, chemical, 
# crystal, experimental, refinement or atomic coordinate data resulting 
# from the CCDC's data processing and validation procedures.
#
#######################################################################

data_ONUKUF
_chemical_formula_moiety         'C24 H15 F3 N2 O1'
_chemical_name_systematic        
3-methyl-6-phenyl-5-(trifluoromethyl)-8H-isoquinolino[1,2-b]quinazolin-8-one
_symmetry_cell_setting           tetragonal
_symmetry_space_group_name_H-M   'P 43 21 2'
_symmetry_Int_Tables_number      96
_space_group_name_Hall           'P 4nw 2abw'
loop_
_symmetry_equiv_pos_site_id
_symmetry_equiv_pos_as_xyz
1 x,y,z
2 -x,-y,1/2+z
3 1/2-y,1/2+x,3/4+z
4 1/2+y,1/2-x,1/4+z
5 1/2-x,1/2+y,3/4-z
6 1/2+x,1/2-y,1/4-z
7 y,x,-z
8 -y,-x,1/2-z
_cell_length_a                   11.661(3)
_cell_length_b                   11.661(3)
_cell_length_c                   27.227(13)
_cell_angle_alpha                90
_cell_angle_beta                 90
_cell_angle_gamma                90
_cell_volume                     3702.3
_exptl_crystal_colour            colorless
_exptl_crystal_description       block
_cell_formula_units_Z            8
loop_
_atom_site_label
_atom_site_type_symbol
_atom_site_fract_x
_atom_site_fract_y
_atom_site_fract_z
N1 N 0.46000(13) 0.24593(14) 0.06048(6)
F1 F 0.77182(12) 0.46176(12) 0.00292(5)
C1 C 0.45738(17) 0.45258(18) 0.07149(7)
N2 N 0.28377(14) 0.34568(16) 0.06961(7)
C2 C 0.39423(16) 0.34550(18) 0.06609(7)
C3 C 0.28509(17) 0.13725(19) 0.06871(7)
C4 C 0.63324(19) 0.55988(19) 0.07320(8)
H1 H 0.7120 0.5640 0.0682
F2 F 0.77922(13) 0.28394(13) -0.00835(7)
C5 C 0.57594(17) 0.45619(18) 0.06305(7)
C6 C 0.62309(17) 0.14187(18) 0.02483(8)
C7 C 0.22703(17) 0.24170(19) 0.06721(7)
O1 O 0.46720(15) 0.05738(14) 0.08578(7)
C8 C 0.40950(18) 0.13741(19) 0.07317(7)
C9 C 0.10698(19) 0.2406(2) 0.06521(9)
H2 H 0.0663 0.3092 0.0659
F3 F 0.82899(12) 0.35448(19) 0.06112(6)
C10 C 0.1076(2) 0.0354(3) 0.06228(9)
H3 H 0.0673 -0.0330 0.0593
C11 C 0.57564(18) 0.09889(19) -0.01804(8)
H4 H 0.5143 0.1364 -0.0328
C12 C 0.4580(2) 0.6497(2) 0.09729(8)
H5 H 0.4186 0.7141 0.1084
C13 C 0.2249(2) 0.0337(2) 0.06670(8)
H6 H 0.2640 -0.0357 0.0683
C14 C 0.0497(2) 0.1382(3) 0.06229(9)
H7 H -0.0299 0.1382 0.0603
C15 C 0.39989(19) 0.55027(19) 0.08795(8)
H8 H 0.3209 0.5477 0.0926
C16 C 0.57585(16) 0.25099(17) 0.04507(7)
C17 C 0.63119(16) 0.35246(18) 0.04483(7)
C18 C 0.75224(19) 0.3619(2) 0.02514(8)
C19 C 0.5767(2) 0.6547(2) 0.09022(8)
C20 C 0.6197(2) 0.0001(2) -0.03876(9)
H9 H 0.5881 -0.0291 -0.0675
C21 C 0.71340(19) 0.0850(2) 0.04736(9)
H10 H 0.7438 0.1126 0.0766
C22 C 0.7577(2) -0.0126(2) 0.02610(11)
H11 H 0.8195 -0.0499 0.0406
C23 C 0.6407(3) 0.7638(2) 0.10243(12)
H12 H 0.6489 0.7702 0.1374
H13 H 0.5986 0.8285 0.0902
H14 H 0.7152 0.7618 0.0874
C24 C 0.7107(2) -0.0551(2) -0.01670(11)
H15 H 0.7405 -0.1214 -0.0307
loop_
_geom_bond_atom_site_label_1
_geom_bond_atom_site_label_2
_geom_bond_site_symmetry_1
_geom_bond_site_symmetry_2
N1 C2 1_555 1_555
F1 C18 1_555 1_555
C1 C2 1_555 1_555
N2 C2 1_555 1_555
C3 C7 1_555 1_555
C4 H1 1_555 1_555
F2 C18 1_555 1_555
C5 C1 1_555 1_555
C6 C11 1_555 1_555
C7 N2 1_555 1_555
O1 C8 1_555 1_555
C8 N1 1_555 1_555
C9 C7 1_555 1_555
H2 C9 1_555 1_555
F3 C18 1_555 1_555
C10 H3 1_555 1_555
C11 H4 1_555 1_555
C12 H5 1_555 1_555
C13 C3 1_555 1_555
H6 C13 1_555 1_555
C14 C9 1_555 1_555
H7 C14 1_555 1_555
C15 C1 1_555 1_555
H8 C15 1_555 1_555
C16 N1 1_555 1_555
C17 C5 1_555 1_555
C18 C17 1_555 1_555
C19 C4 1_555 1_555
C20 C11 1_555 1_555
H9 C20 1_555 1_555
C21 C6 1_555 1_555
H10 C21 1_555 1_555
C22 C21 1_555 1_555
H11 C22 1_555 1_555
C23 C19 1_555 1_555
H12 C23 1_555 1_555
H13 C23 1_555 1_555
H14 C23 1_555 1_555
C24 C20 1_555 1_555
H15 C24 1_555 1_555
C3 C8 1_555 1_555
C4 C5 1_555 1_555
C6 C16 1_555 1_555
C10 C13 1_555 1_555
C10 C14 1_555 1_555
C12 C15 1_555 1_555
C12 C19 1_555 1_555
C16 C17 1_555 1_555
C22 C24 1_555 1_555

#END
