
#######################################################################
#
#                 Cambridge Crystallographic Data Centre
#                                CCDC 
#
#######################################################################
#
# If this CIF has been generated from an entry in the Cambridge 
# Structural Database, then it will include bibliographic, chemical, 
# crystal, experimental, refinement or atomic coordinate data resulting 
# from the CCDC's data processing and validation procedures.
#
#######################################################################

data_ONUPUK
_chemical_formula_moiety         'C16 H18 N2'
_chemical_name_systematic        
9,9-dimethyl-5-phenyl-3,4-diazatricyclo[6.1.1.0^2,6^]deca-2(6),4-diene
_symmetry_cell_setting           tetragonal
_symmetry_space_group_name_H-M   'P 43'
_symmetry_Int_Tables_number      78
_space_group_name_Hall           'P 4cw'
loop_
_symmetry_equiv_pos_site_id
_symmetry_equiv_pos_as_xyz
1 x,y,z
2 -x,-y,1/2+z
3 -y,x,3/4+z
4 y,-x,1/4+z
_cell_length_a                   10.7713(3)
_cell_length_b                   10.7713(3)
_cell_length_c                   48.423(3)
_cell_angle_alpha                90
_cell_angle_beta                 90
_cell_angle_gamma                90
_cell_volume                     5618.08
_cell_formula_units_Z            16
loop_
_atom_site_label
_atom_site_type_symbol
_atom_site_fract_x
_atom_site_fract_y
_atom_site_fract_z
N1 N 0.0739(3) 0.3498(3) 0.08779(6)
H1 H 0.0480 0.3289 0.0716
C1 C 0.1045(3) 0.4580(4) 0.12681(7)
N2 N 0.0477(3) 0.4559(3) 0.10162(6)
C2 C 0.1696(3) 0.3488(4) 0.12854(8)
C3 C 0.1623(4) 0.5759(5) 0.16891(10)
H2 H 0.2251 0.5186 0.1723
C4 C 0.1468(3) 0.2855(4) 0.10410(8)
C5 C 0.0867(3) 0.5628(4) 0.14557(7)
C6 C 0.2497(4) 0.2842(4) 0.15007(9)
H3 H 0.3224 0.3341 0.1541
H4 H 0.2030 0.2735 0.1670
C7 C 0.2030(4) 0.1607(4) 0.09982(9)
H5 H 0.1876 0.1197 0.0821
C8 C 0.3411(4) 0.1760(5) 0.10907(10)
H6 H 0.3958 0.1098 0.1031
H7 H 0.3764 0.2571 0.1053
C9 C 0.2884(4) 0.1600(5) 0.13899(10)
H8 H 0.3432 0.1134 0.1514
C10 C 0.1813(5) 0.0820(4) 0.12682(10)
C11 C -0.0210(5) 0.7469(5) 0.16026(12)
H9 H -0.0827 0.8056 0.1571
C12 C 0.1443(6) 0.6715(6) 0.18657(11)
H10 H 0.1963 0.6784 0.2018
C13 C 0.0540(6) 0.7575(5) 0.18306(11)
H11 H 0.0432 0.8218 0.1957
C14 C -0.0058(4) 0.6499(4) 0.14195(9)
H12 H -0.0590 0.6431 0.1269
C15 C 0.0530(5) 0.0881(5) 0.13971(12)
H13 H 0.0508 0.0370 0.1559
H14 H -0.0075 0.0588 0.1267
H15 H 0.0344 0.1724 0.1447
C16 C 0.2181(6) -0.0546(5) 0.12164(14)
H16 H 0.2047 -0.1020 0.1382
H17 H 0.3041 -0.0587 0.1166
H18 H 0.1683 -0.0879 0.1070
C17 C 0.3165(3) 0.1412(3) 0.26987(7)
N3 N 0.3063(3) 0.1257(3) 0.29810(6)
C18 C 0.3052(3) 0.2673(3) 0.26526(6)
N4 N 0.2944(3) 0.2361(3) 0.31089(6)
H19 H 0.2888 0.2491 0.3284
C19 C 0.3431(3) 0.0376(3) 0.25171(8)
C20 C 0.3086(4) 0.3519(3) 0.24042(7)
H20 H 0.2360 0.3380 0.2290
H21 H 0.3820 0.3350 0.2295
C21 C 0.3106(3) 0.4850(3) 0.25061(8)
H22 H 0.3194 0.5471 0.2360
C22 C 0.2941(4) 0.4572(4) 0.29372(7)
H23 H 0.2905 0.4920 0.3124
C23 C 0.2042(4) 0.5124(3) 0.27150(8)
C24 C 0.2930(3) 0.3205(3) 0.29095(7)
C25 C 0.0788(4) 0.4520(5) 0.26796(11)
H24 H 0.0333 0.4945 0.2538
H25 H 0.0338 0.4565 0.2850
H26 H 0.0897 0.3667 0.2628
C26 C 0.4061(4) -0.0651(4) 0.26058(10)
H27 H 0.4283 -0.0711 0.2791
C27 C 0.4022(4) 0.5002(4) 0.27452(8)
H28 H 0.4291 0.5850 0.2776
H29 H 0.4722 0.4436 0.2739
C28 C 0.4374(5) -0.1596(4) 0.24290(12)
H30 H 0.4796 -0.2288 0.2495
C29 C 0.4066(6) -0.1519(5) 0.21581(13)
H31 H 0.4307 -0.2143 0.2037
C30 C 0.3102(5) 0.0441(4) 0.22419(8)
H32 H 0.2679 0.1131 0.2175
C31 C 0.1837(5) 0.6521(4) 0.27589(11)
H33 H 0.1282 0.6831 0.2620
H34 H 0.2618 0.6947 0.2746
H35 H 0.1483 0.6658 0.2938
C32 C 0.3408(7) -0.0534(5) 0.20640(11)
H36 H 0.3158 -0.0507 0.1880
C33 C 0.6866(3) 0.6607(3) 0.06206(7)
N5 N 0.7665(3) 0.6011(3) 0.07973(6)
N6 N 0.8853(3) 0.6162(3) 0.07110(6)
H37 H 0.9512 0.5873 0.0788
C34 C 0.7581(3) 0.7147(3) 0.04245(6)
C35 C 0.8794(3) 0.6836(3) 0.04864(7)
C36 C 0.5515(3) 0.6587(3) 0.06714(7)
C37 C 0.9817(4) 0.7263(4) 0.02995(8)
H38 H 1.0663 0.7003 0.0346
C38 C 0.7362(4) 0.7944(4) 0.01692(8)
H39 H 0.6811 0.7515 0.0042
H40 H 0.6975 0.8722 0.0222
C39 C 0.4750(4) 0.7355(4) 0.05253(9)
H41 H 0.5088 0.7889 0.0394
C40 C 0.9359(4) 0.6990(5) 0.00036(9)
H42 H 1.0005 0.7019 -0.0136
H43 H 0.8861 0.6244 -0.0013
C41 C 0.4972(4) 0.5794(4) 0.08577(8)
H44 H 0.5464 0.5244 0.0957
C42 C 0.8601(4) 0.8193(4) 0.00300(9)
H45 H 0.8544 0.8680 -0.0140
C43 C 0.3709(4) 0.5804(5) 0.08985(11)
H46 H 0.3362 0.5266 0.1027
C44 C 0.2973(4) 0.6570(5) 0.07576(13)
H47 H 0.2121 0.6570 0.0788
C45 C 0.9608(4) 0.8658(4) 0.02379(11)
C46 C 0.9250(5) 0.9522(5) 0.04659(13)
H48 H 0.9970 0.9721 0.0574
H49 H 0.8639 0.9131 0.0581
H50 H 0.8910 1.0270 0.0389
C47 C 0.3484(4) 0.7352(5) 0.05686(12)
H51 H 0.2978 0.7887 0.0468
C48 C 1.0719(5) 0.9217(6) 0.00728(15)
H52 H 1.1341 0.9506 0.0199
H53 H 1.0431 0.9898 -0.0038
H54 H 1.1068 0.8590 -0.0045
C49 C 0.6806(3) 0.2409(3) 0.13966(7)
N7 N 0.7271(3) 0.4357(3) 0.12667(6)
H55 H 0.7488 0.4989 0.1170
C50 C 0.6916(4) 0.4353(3) 0.15302(8)
C51 C 0.6614(3) 0.3173(3) 0.16194(7)
N8 N 0.7220(3) 0.3156(3) 0.11837(6)
C52 C 0.6683(3) 0.1069(3) 0.13556(7)
C53 C 0.6236(4) 0.2995(4) 0.19157(7)
H56 H 0.6825 0.2459 0.2009
H57 H 0.5421 0.2613 0.1925
C54 C 0.7433(4) 0.5014(4) 0.20023(8)
C55 C 0.6212(4) 0.4261(4) 0.20508(8)
H58 H 0.5937 0.4248 0.2244
C56 C 0.5537(4) 0.5207(4) 0.18732(11)
H59 H 0.5242 0.5928 0.1974
H60 H 0.4889 0.4858 0.1758
C57 C 0.6797(4) 0.5409(4) 0.17220(8)
H61 H 0.6976 0.6241 0.1650
C58 C 0.6360(5) 0.0313(4) 0.15723(9)
H62 H 0.6255 0.0650 0.1748
C59 C 0.8653(4) 0.4341(4) 0.19881(8)
H63 H 0.8933 0.4156 0.2172
H64 H 0.9255 0.4856 0.1897
H65 H 0.8550 0.3583 0.1887
C60 C 0.6189(6) -0.0956(4) 0.15314(11)
H66 H 0.5960 -0.1453 0.1680
C61 C 0.6637(6) -0.0739(5) 0.10681(12)
H67 H 0.6716 -0.1088 0.0893
C62 C 0.6345(6) -0.1470(4) 0.12851(12)
H68 H 0.6254 -0.2322 0.1262
C63 C 0.7546(6) 0.6117(4) 0.22008(10)
H69 H 0.7933 0.5849 0.2369
H70 H 0.6734 0.6439 0.2241
H71 H 0.8041 0.6755 0.2117
C64 C 0.6820(5) 0.0521(4) 0.11025(9)
H72 H 0.7041 0.1005 0.0951
loop_
_geom_bond_atom_site_label_1
_geom_bond_atom_site_label_2
_geom_bond_site_symmetry_1
_geom_bond_site_symmetry_2
N1 H1 1_555 1_555
C1 N2 1_555 1_555
N2 N1 1_555 1_555
C2 C1 1_555 1_555
C3 H2 1_555 1_555
C4 N1 1_555 1_555
C5 C1 1_555 1_555
C6 C2 1_555 1_555
H3 C6 1_555 1_555
H4 C6 1_555 1_555
C7 C4 1_555 1_555
H5 C7 1_555 1_555
C8 C7 1_555 1_555
H6 C8 1_555 1_555
H7 C8 1_555 1_555
C9 C6 1_555 1_555
H8 C9 1_555 1_555
C10 C7 1_555 1_555
C11 H9 1_555 1_555
C12 C3 1_555 1_555
H10 C12 1_555 1_555
C13 C11 1_555 1_555
H11 C13 1_555 1_555
C14 C5 1_555 1_555
H12 C14 1_555 1_555
C15 C10 1_555 1_555
H13 C15 1_555 1_555
H14 C15 1_555 1_555
H15 C15 1_555 1_555
C16 C10 1_555 1_555
H16 C16 1_555 1_555
H17 C16 1_555 1_555
H18 C16 1_555 1_555
C17 N3 1_555 1_555
N3 N4 1_555 1_555
C18 C17 1_555 1_555
N4 H19 1_555 1_555
C19 C17 1_555 1_555
C20 C18 1_555 1_555
H20 C20 1_555 1_555
H21 C20 1_555 1_555
C21 C20 1_555 1_555
H22 C21 1_555 1_555
C22 H23 1_555 1_555
C23 C21 1_555 1_555
C24 C18 1_555 1_555
C25 C23 1_555 1_555
H24 C25 1_555 1_555
H25 C25 1_555 1_555
H26 C25 1_555 1_555
C26 C19 1_555 1_555
H27 C26 1_555 1_555
C27 C21 1_555 1_555
H28 C27 1_555 1_555
H29 C27 1_555 1_555
C28 C26 1_555 1_555
H30 C28 1_555 1_555
C29 C28 1_555 1_555
H31 C29 1_555 1_555
C30 C19 1_555 1_555
H32 C30 1_555 1_555
C31 C23 1_555 1_555
H33 C31 1_555 1_555
H34 C31 1_555 1_555
H35 C31 1_555 1_555
C32 C29 1_555 1_555
H36 C32 1_555 1_555
C33 N5 1_555 1_555
N5 N6 1_555 1_555
N6 H37 1_555 1_555
C34 C33 1_555 1_555
C35 N6 1_555 1_555
C36 C33 1_555 1_555
C37 C35 1_555 1_555
H38 C37 1_555 1_555
C38 C34 1_555 1_555
H39 C38 1_555 1_555
H40 C38 1_555 1_555
C39 C36 1_555 1_555
H41 C39 1_555 1_555
C40 C37 1_555 1_555
H42 C40 1_555 1_555
H43 C40 1_555 1_555
C41 C36 1_555 1_555
H44 C41 1_555 1_555
C42 C38 1_555 1_555
H45 C42 1_555 1_555
C43 C41 1_555 1_555
H46 C43 1_555 1_555
C44 C43 1_555 1_555
H47 C44 1_555 1_555
C45 C37 1_555 1_555
C46 C45 1_555 1_555
H48 C46 1_555 1_555
H49 C46 1_555 1_555
H50 C46 1_555 1_555
C47 C39 1_555 1_555
H51 C47 1_555 1_555
C48 C45 1_555 1_555
H52 C48 1_555 1_555
H53 C48 1_555 1_555
H54 C48 1_555 1_555
C49 C51 1_555 1_555
N7 H55 1_555 1_555
C50 N7 1_555 1_555
C51 C50 1_555 1_555
N8 C49 1_555 1_555
C52 C49 1_555 1_555
C53 C51 1_555 1_555
H56 C53 1_555 1_555
H57 C53 1_555 1_555
C54 C55 1_555 1_555
C55 C53 1_555 1_555
H58 C55 1_555 1_555
C56 C55 1_555 1_555
H59 C56 1_555 1_555
H60 C56 1_555 1_555
C57 C50 1_555 1_555
H61 C57 1_555 1_555
C58 C52 1_555 1_555
H62 C58 1_555 1_555
C59 C54 1_555 1_555
H63 C59 1_555 1_555
H64 C59 1_555 1_555
H65 C59 1_555 1_555
C60 C58 1_555 1_555
H66 C60 1_555 1_555
C61 H67 1_555 1_555
C62 C60 1_555 1_555
H68 C62 1_555 1_555
C63 C54 1_555 1_555
H69 C63 1_555 1_555
H70 C63 1_555 1_555
H71 C63 1_555 1_555
C64 C52 1_555 1_555
H72 C64 1_555 1_555
C2 C4 1_555 1_555
C3 C5 1_555 1_555
C8 C9 1_555 1_555
C9 C10 1_555 1_555
C11 C14 1_555 1_555
C12 C13 1_555 1_555
N4 C24 1_555 1_555
C22 C23 1_555 1_555
C22 C24 1_555 1_555
C22 C27 1_555 1_555
C30 C32 1_555 1_555
C34 C35 1_555 1_555
C40 C42 1_555 1_555
C42 C45 1_555 1_555
C44 C47 1_555 1_555
N7 N8 1_555 1_555
C54 C57 1_555 1_555
C56 C57 1_555 1_555
C61 C62 1_555 1_555
C61 C64 1_555 1_555

#END
