
#######################################################################
#
#                 Cambridge Crystallographic Data Centre
#                                CCDC 
#
#######################################################################
#
# If this CIF has been generated from an entry in the Cambridge 
# Structural Database, then it will include bibliographic, chemical, 
# crystal, experimental, refinement or atomic coordinate data resulting 
# from the CCDC's data processing and validation procedures.
#
#######################################################################

data_ONUVID
_chemical_formula_moiety         'C42 H27 N3'
_chemical_name_systematic        9'-Phenyl-9'H-9,2':7',9''-tercarbazole
_symmetry_cell_setting           monoclinic
_symmetry_space_group_name_H-M   'P 21/c'
_symmetry_Int_Tables_number      14
_space_group_name_Hall           '-P 2ybc'
loop_
_symmetry_equiv_pos_site_id
_symmetry_equiv_pos_as_xyz
1 x,y,z
2 -x,1/2+y,1/2-z
3 -x,-y,-z
4 x,1/2-y,1/2+z
_cell_length_a                   26.259(5)
_cell_length_b                   14.225(3)
_cell_length_c                   16.316(3)
_cell_angle_alpha                90
_cell_angle_beta                 94.423(4)
_cell_angle_gamma                90
_cell_volume                     6076.43
_exptl_crystal_colour            colorless
_exptl_crystal_description       prism
_cell_formula_units_Z            8
loop_
_atom_site_label
_atom_site_type_symbol
_atom_site_fract_x
_atom_site_fract_y
_atom_site_fract_z
N1 N 0.22203(8) 0.57221(15) 0.81646(13)
N2 N 0.07483(8) 0.69959(15) 0.64548(14)
N3 N 0.30584(8) 0.32724(15) 0.99442(14)
C1 C 0.14969(9) 0.64520(18) 0.72867(16)
H1 H 0.1675 0.6989 0.7153
C2 C 0.09999(9) 0.63093(19) 0.69891(17)
C3 C 0.07280(10) 0.5512(2) 0.71828(18)
H2 H 0.0390 0.5443 0.6977
C4 C 0.09566(10) 0.4823(2) 0.76781(18)
H3 H 0.0776 0.4285 0.7802
C5 C 0.17793(10) 0.34999(18) 0.88580(17)
H4 H 0.1476 0.3160 0.8796
C6 C 0.22000(10) 0.31428(19) 0.93214(18)
H5 H 0.2181 0.2553 0.9563
C7 C 0.26522(10) 0.36630(19) 0.94286(16)
C8 C 0.26956(10) 0.45409(18) 0.90734(16)
H6 H 0.2993 0.4895 0.9158
C9 C 0.22771(10) 0.48691(18) 0.85868(16)
C10 C 0.18187(10) 0.43731(19) 0.84885(17)
C11 C 0.14611(10) 0.49394(18) 0.79905(17)
C12 C 0.17240(9) 0.57585(18) 0.77983(16)
C13 C 0.08279(11) 0.8433(2) 0.73380(19)
H7 H 0.1028 0.8153 0.7766
C14 C 0.06877(13) 0.9370(2) 0.7376(2)
H8 H 0.0797 0.9727 0.7834
C15 C 0.03866(13) 0.9780(2) 0.6740(2)
H9 H 0.0293 1.0407 0.6780
C16 C 0.02246(12) 0.9280(2) 0.6052(2)
H10 H 0.0021 0.9563 0.5631
C17 C 0.00306(11) 0.7622(2) 0.45878(19)
H11 H -0.0132 0.8159 0.4375
C18 C 0.00314(12) 0.6815(2) 0.4126(2)
H12 H -0.0129 0.6806 0.3598
C19 C 0.02708(11) 0.6013(2) 0.4447(2)
H13 H 0.0267 0.5473 0.4126
C20 C 0.05151(11) 0.5989(2) 0.52297(19)
H14 H 0.0674 0.5448 0.5442
C21 C 0.05103(10) 0.68087(19) 0.56769(18)
C22 C 0.02734(10) 0.7633(2) 0.53717(18)
C23 C 0.03673(10) 0.8346(2) 0.59897(18)
C24 C 0.06620(10) 0.7927(2) 0.66441(18)
C25 C 0.25730(13) 0.2729(2) 1.11265(19)
H15 H 0.2274 0.3048 1.0957
C26 C 0.26053(15) 0.2190(2) 1.1836(2)
H16 H 0.2326 0.2137 1.2151
C27 C 0.30540(15) 0.1735(3) 1.2070(2)
H17 H 0.3065 0.1373 1.2545
C28 C 0.34858(15) 0.1777(2) 1.1654(2)
H18 H 0.3784 0.1461 1.1833
C29 C 0.43040(12) 0.2297(2) 1.0238(2)
H19 H 0.4477 0.1916 1.0630
C30 C 0.45490(12) 0.2591(3) 0.9583(3)
H20 H 0.4887 0.2418 0.9534
C31 C 0.42919(12) 0.3157(3) 0.8981(2)
H21 H 0.4458 0.3347 0.8526
C32 C 0.37927(11) 0.3434(2) 0.9059(2)
H22 H 0.3622 0.3817 0.8666
C33 C 0.35552(11) 0.3125(2) 0.97377(19)
C34 C 0.38045(11) 0.2546(2) 1.0340(2)
C35 C 0.34493(12) 0.2337(2) 1.0926(2)
C36 C 0.29953(12) 0.2777(2) 1.06815(19)
C37 C 0.26033(10) 0.63905(18) 0.80355(16)
C38 C 0.30149(10) 0.6142(2) 0.76053(18)
H23 H 0.3050 0.5526 0.7426
C39 C 0.33715(11) 0.6807(2) 0.7444(2)
H24 H 0.3650 0.6636 0.7158
C40 C 0.33237(12) 0.7712(2) 0.7694(2)
H25 H 0.3564 0.8160 0.7570
C41 C 0.29164(12) 0.7963(2) 0.8133(2)
H26 H 0.2882 0.8580 0.8308
C42 C 0.25627(11) 0.7299(2) 0.83105(19)
H27 H 0.2293 0.7464 0.8619
N4 N 0.27633(8) 0.91671(15) 0.60761(14)
N5 N 0.41728(8) 0.80660(17) 0.45070(15)
N6 N 0.21013(9) 1.07759(16) 0.84293(14)
C43 C 0.34475(10) 0.85809(19) 0.52122(17)
H28 H 0.3236 0.8176 0.4894
C44 C 0.39585(10) 0.8658(2) 0.50973(18)
C45 C 0.42733(11) 0.9290(2) 0.55541(19)
H29 H 0.4616 0.9338 0.5452
C46 C 0.40847(10) 0.9841(2) 0.61498(19)
H30 H 0.4296 1.0264 0.6448
C47 C 0.33521(11) 1.0768(2) 0.75525(18)
H31 H 0.3676 1.1024 0.7663
C48 C 0.29720(11) 1.0984(2) 0.80455(19)
H32 H 0.3035 1.1393 0.8486
C49 C 0.24865(11) 1.0588(2) 0.78874(18)
C50 C 0.23703(10) 0.99925(18) 0.72245(17)
H33 H 0.2045 0.9743 0.7115
C51 C 0.27656(10) 0.97878(19) 0.67310(17)
C52 C 0.32579(10) 1.01706(19) 0.68879(17)
C53 C 0.35704(10) 0.97592(19) 0.63025(17)
C54 C 0.32598(10) 0.91286(19) 0.58187(17)
C55 C 0.39908(12) 0.6488(2) 0.5095(2)
H34 H 0.3837 0.6717 0.5550
C56 C 0.40474(14) 0.5533(3) 0.4972(2)
H35 H 0.3937 0.5108 0.5353
C57 C 0.42693(15) 0.5207(3) 0.4278(3)
H36 H 0.4296 0.4562 0.4197
C58 C 0.44495(13) 0.5804(3) 0.3714(2)
H37 H 0.4600 0.5573 0.3257
C59 C 0.47561(12) 0.7716(3) 0.2637(2)
H38 H 0.4859 0.7203 0.2337
C60 C 0.48178(14) 0.8605(3) 0.2342(2)
H39 H 0.4959 0.8695 0.1842
C61 C 0.46692(13) 0.9370(3) 0.2789(2)
H40 H 0.4716 0.9973 0.2587
C62 C 0.44547(11) 0.9262(2) 0.3523(2)
H41 H 0.4354 0.9781 0.3815
C63 C 0.43922(10) 0.8363(2) 0.38162(19)
C64 C 0.45427(11) 0.7566(3) 0.3377(2)
C65 C 0.44028(11) 0.6759(2) 0.3837(2)
C66 C 0.41691(11) 0.7087(2) 0.4522(2)
C67 C 0.14339(11) 1.1517(2) 0.7480(2)
H42 H 0.1622 1.1496 0.7019
C68 C 0.09499(12) 1.1908(2) 0.7440(2)
H43 H 0.0811 1.2164 0.6948
C69 C 0.06689(12) 1.1921(3) 0.8129(3)
H44 H 0.0342 1.2178 0.8091
C70 C 0.08679(13) 1.1561(2) 0.8861(3)
H45 H 0.0676 1.1571 0.9317
C71 C 0.16362(14) 1.0673(2) 1.0447(2)
H46 H 0.1339 1.0832 1.0691
C72 C 0.20510(16) 1.0295(3) 1.0890(3)
H47 H 0.2027 1.0193 1.1449
C73 C 0.24940(17) 1.0060(3) 1.0566(2)
H48 H 0.2763 0.9817 1.0906
C74 C 0.25510(15) 1.0176(2) 0.9741(2)
H49 H 0.2852 1.0007 0.9513
C75 C 0.21352(13) 1.0561(2) 0.92573(19)
C76 C 0.16847(13) 1.0808(2) 0.9601(2)
C77 C 0.13579(12) 1.1180(2) 0.8926(2)
C78 C 0.16284(11) 1.1160(2) 0.8227(2)
C79 C 0.23257(10) 0.87020(19) 0.56929(17)
C80 C 0.23120(11) 0.7735(2) 0.56499(18)
H50 H 0.2580 0.7382 0.5896
C81 C 0.19005(12) 0.7290(2) 0.5243(2)
H51 H 0.1892 0.6638 0.5209
C82 C 0.15046(12) 0.7811(2) 0.4887(2)
H52 H 0.1230 0.7511 0.4605
C83 C 0.15102(11) 0.8770(2) 0.4945(2)
H53 H 0.1236 0.9117 0.4713
C84 C 0.19230(10) 0.9225(2) 0.53459(17)
H54 H 0.1929 0.9877 0.5381
loop_
_geom_bond_atom_site_label_1
_geom_bond_atom_site_label_2
_geom_bond_site_symmetry_1
_geom_bond_site_symmetry_2
N1 C9 1_555 1_555
N2 C2 1_555 1_555
N3 C7 1_555 1_555
N4 C51 1_555 1_555
N5 C44 1_555 1_555
N6 C49 1_555 1_555
C1 H1 1_555 1_555
C2 C1 1_555 1_555
C3 C2 1_555 1_555
H2 C3 1_555 1_555
C4 C3 1_555 1_555
H3 C4 1_555 1_555
C5 H4 1_555 1_555
C6 C5 1_555 1_555
H5 C6 1_555 1_555
C7 C6 1_555 1_555
C8 C7 1_555 1_555
H6 C8 1_555 1_555
C9 C8 1_555 1_555
C10 C5 1_555 1_555
C11 C4 1_555 1_555
C12 N1 1_555 1_555
C13 H7 1_555 1_555
C14 C13 1_555 1_555
H8 C14 1_555 1_555
C15 C14 1_555 1_555
H9 C15 1_555 1_555
C16 C15 1_555 1_555
H10 C16 1_555 1_555
C17 H11 1_555 1_555
C18 C17 1_555 1_555
H12 C18 1_555 1_555
C19 C18 1_555 1_555
H13 C19 1_555 1_555
C20 C19 1_555 1_555
H14 C20 1_555 1_555
C21 N2 1_555 1_555
C22 C17 1_555 1_555
C23 C16 1_555 1_555
C24 N2 1_555 1_555
C25 H15 1_555 1_555
C26 C25 1_555 1_555
H16 C26 1_555 1_555
C27 C26 1_555 1_555
H17 C27 1_555 1_555
C28 C27 1_555 1_555
H18 C28 1_555 1_555
C29 H19 1_555 1_555
C30 C29 1_555 1_555
H20 C30 1_555 1_555
C31 C30 1_555 1_555
H21 C31 1_555 1_555
C32 C31 1_555 1_555
H22 C32 1_555 1_555
C33 N3 1_555 1_555
C34 C29 1_555 1_555
C35 C28 1_555 1_555
C36 N3 1_555 1_555
C37 N1 1_555 1_555
C38 C37 1_555 1_555
H23 C38 1_555 1_555
C39 C38 1_555 1_555
H24 C39 1_555 1_555
C40 C39 1_555 1_555
H25 C40 1_555 1_555
C41 C40 1_555 1_555
H26 C41 1_555 1_555
C42 C37 1_555 1_555
H27 C42 1_555 1_555
C43 H28 1_555 1_555
C44 C43 1_555 1_555
C45 C44 1_555 1_555
H29 C45 1_555 1_555
C46 C45 1_555 1_555
H30 C46 1_555 1_555
C47 H31 1_555 1_555
C48 C47 1_555 1_555
H32 C48 1_555 1_555
C49 C48 1_555 1_555
C50 C49 1_555 1_555
H33 C50 1_555 1_555
C51 C50 1_555 1_555
C52 C47 1_555 1_555
C53 C46 1_555 1_555
C54 N4 1_555 1_555
C55 H34 1_555 1_555
C56 C55 1_555 1_555
H35 C56 1_555 1_555
C57 C56 1_555 1_555
H36 C57 1_555 1_555
C58 C57 1_555 1_555
H37 C58 1_555 1_555
C59 H38 1_555 1_555
C60 C59 1_555 1_555
H39 C60 1_555 1_555
C61 C60 1_555 1_555
H40 C61 1_555 1_555
C62 C61 1_555 1_555
H41 C62 1_555 1_555
C63 N5 1_555 1_555
C64 C59 1_555 1_555
C65 C58 1_555 1_555
C66 N5 1_555 1_555
C67 H42 1_555 1_555
C68 C67 1_555 1_555
H43 C68 1_555 1_555
C69 C68 1_555 1_555
H44 C69 1_555 1_555
C70 C69 1_555 1_555
H45 C70 1_555 1_555
C71 H46 1_555 1_555
C72 C71 1_555 1_555
H47 C72 1_555 1_555
C73 C72 1_555 1_555
H48 C73 1_555 1_555
C74 C73 1_555 1_555
H49 C74 1_555 1_555
C75 N6 1_555 1_555
C76 C71 1_555 1_555
C77 C70 1_555 1_555
C78 N6 1_555 1_555
C79 N4 1_555 1_555
C80 C79 1_555 1_555
H50 C80 1_555 1_555
C81 C80 1_555 1_555
H51 C81 1_555 1_555
C82 C81 1_555 1_555
H52 C82 1_555 1_555
C83 C82 1_555 1_555
H53 C83 1_555 1_555
C84 C79 1_555 1_555
H54 C84 1_555 1_555
C1 C12 1_555 1_555
C9 C10 1_555 1_555
C10 C11 1_555 1_555
C11 C12 1_555 1_555
C13 C24 1_555 1_555
C20 C21 1_555 1_555
C21 C22 1_555 1_555
C22 C23 1_555 1_555
C23 C24 1_555 1_555
C25 C36 1_555 1_555
C32 C33 1_555 1_555
C33 C34 1_555 1_555
C34 C35 1_555 1_555
C35 C36 1_555 1_555
C41 C42 1_555 1_555
C43 C54 1_555 1_555
C51 C52 1_555 1_555
C52 C53 1_555 1_555
C53 C54 1_555 1_555
C55 C66 1_555 1_555
C62 C63 1_555 1_555
C63 C64 1_555 1_555
C64 C65 1_555 1_555
C65 C66 1_555 1_555
C67 C78 1_555 1_555
C74 C75 1_555 1_555
C75 C76 1_555 1_555
C76 C77 1_555 1_555
C77 C78 1_555 1_555
C83 C84 1_555 1_555

#END
