
#######################################################################
#
#                 Cambridge Crystallographic Data Centre
#                                CCDC 
#
#######################################################################
#
# If this CIF has been generated from an entry in the Cambridge 
# Structural Database, then it will include bibliographic, chemical, 
# crystal, experimental, refinement or atomic coordinate data resulting 
# from the CCDC's data processing and validation procedures.
#
#######################################################################

data_ONUWEA
_chemical_formula_moiety         'C32 H32 O1 S1'
_chemical_name_systematic        
'S-(4-((2,5-Di-t-butyl-4-(phenylethynyl)phenyl)ethynyl)phenyl) ethanethioate'
_symmetry_cell_setting           triclinic
_symmetry_space_group_name_H-M   'P -1'
_symmetry_Int_Tables_number      2
_space_group_name_Hall           '-P 1'
loop_
_symmetry_equiv_pos_site_id
_symmetry_equiv_pos_as_xyz
1 x,y,z
2 -x,-y,-z
_cell_length_a                   6.1691(6)
_cell_length_b                   11.0563(10)
_cell_length_c                   19.9938(18)
_cell_angle_alpha                95.555(9)
_cell_angle_beta                 97.928(8)
_cell_angle_gamma                104.921(8)
_cell_volume                     1292.61
_exptl_crystal_colour            'light yellow'
_exptl_crystal_description       tablet
_chemical_melting_point          '383.4 K'
_cell_formula_units_Z            2
loop_
_atom_site_label
_atom_site_type_symbol
_atom_site_fract_x
_atom_site_fract_y
_atom_site_fract_z
S1 S 0.96105(7) 0.63828(4) 0.43755(2)
O1 O 0.7783(2) 0.81582(11) 0.48318(7)
C1 C 1.1789(3) 0.85469(17) 0.52287(9)
H1 H 1.1984 0.9462 0.5240
H2 H 1.2999 0.8319 0.5013
H3 H 1.1931 0.8347 0.5700
C2 C 0.9488(3) 0.78211(16) 0.48312(8)
C3 C 0.6725(2) 0.56190(15) 0.40288(8)
C4 C 0.5498(3) 0.61268(16) 0.35516(9)
H4 H 0.6166 0.6931 0.3429
C5 C 0.3298(3) 0.54607(15) 0.32537(9)
H5 H 0.2452 0.5817 0.2933
C6 C 0.2306(2) 0.42732(14) 0.34243(8)
C7 C 0.3548(3) 0.37758(15) 0.39087(8)
H6 H 0.2885 0.2971 0.4032
C8 C 0.5738(3) 0.44469(15) 0.42110(9)
H7 H 0.6568 0.4105 0.4544
C9 C 0.0041(3) 0.35820(14) 0.30998(8)
C10 C -0.1828(2) 0.30507(14) 0.27938(8)
C11 C -0.4083(2) 0.23585(14) 0.24558(8)
C12 C -0.5128(2) 0.26030(14) 0.18292(8)
C13 C -0.7325(2) 0.18486(14) 0.15854(8)
H8 H -0.8091 0.1999 0.1169
C14 C -0.8486(2) 0.08801(14) 0.19159(8)
C15 C -0.7414(2) 0.06208(14) 0.25362(8)
C16 C -0.5234(2) 0.13874(14) 0.27840(8)
H9 H -0.4475 0.1248 0.3204
C17 C -0.3926(2) 0.36238(14) 0.14315(8)
C18 C -0.5403(3) 0.36456(16) 0.07521(8)
H10 H -0.6836 0.3807 0.0838
H11 H -0.5727 0.2828 0.0466
H12 H -0.4590 0.4315 0.0518
C19 C -0.3372(3) 0.49350(15) 0.18521(9)
H13 H -0.4786 0.5126 0.1934
H14 H -0.2546 0.5572 0.1602
H15 H -0.2423 0.4945 0.2289
C20 C -0.1730(3) 0.33500(15) 0.12611(8)
H16 H -0.0670 0.3414 0.1684
H17 H -0.1025 0.3966 0.0979
H18 H -0.2091 0.2495 0.1011
C21 C -0.8540(2) -0.04496(15) 0.29191(8)
C22 C -0.7004(3) -0.04979(17) 0.35806(9)
H19 H -0.5545 -0.0593 0.3477
H20 H -0.7741 -0.1218 0.3796
H21 H -0.6743 0.0287 0.3891
C23 C -0.9024(3) -0.17316(15) 0.24720(9)
H22 H -0.7585 -0.1880 0.2382
H23 H -0.9984 -0.1726 0.2039
H24 H -0.9812 -0.2406 0.2708
C24 C -1.0758(3) -0.02389(16) 0.31112(9)
H25 H -1.1387 -0.0874 0.3394
H26 H -1.1860 -0.0319 0.2695
H27 H -1.0443 0.0608 0.3366
C25 C -1.0750(2) 0.01879(14) 0.15867(8)
C26 C -1.2630(2) -0.03790(14) 0.13006(8)
C27 C -1.4864(2) -0.11789(14) 0.10208(8)
C28 C -1.6493(3) -0.07365(15) 0.06353(8)
H28 H -1.6114 0.0108 0.0536
C29 C -1.8662(3) -0.15301(17) 0.03991(9)
H29 H -1.9767 -0.1225 0.0140
C30 C -1.9226(3) -0.27670(17) 0.05378(9)
H30 H -2.0717 -0.3305 0.0379
C31 C -1.7622(3) -0.32116(17) 0.09078(10)
H31 H -1.8005 -0.4062 0.0999
C32 C -1.5452(3) -0.24285(16) 0.11481(9)
H32 H -1.4354 -0.2747 0.1402
loop_
_geom_bond_atom_site_label_1
_geom_bond_atom_site_label_2
_geom_bond_site_symmetry_1
_geom_bond_site_symmetry_2
S1 C2 1_555 1_555
O1 C2 1_555 1_555
C1 H1 1_555 1_555
H2 C1 1_555 1_555
H3 C1 1_555 1_555
C2 C1 1_555 1_555
C3 S1 1_555 1_555
C4 C3 1_555 1_555
H4 C4 1_555 1_555
C5 C4 1_555 1_555
H5 C5 1_555 1_555
C6 C5 1_555 1_555
C7 C6 1_555 1_555
H6 C7 1_555 1_555
C8 C3 1_555 1_555
H7 C8 1_555 1_555
C9 C6 1_555 1_555
C10 C9 1_555 1_555
C11 C10 1_555 1_555
C12 C11 1_555 1_555
C13 C12 1_555 1_555
H8 C13 1_555 1_555
C14 C13 1_555 1_555
C15 C14 1_555 1_555
C16 C11 1_555 1_555
H9 C16 1_555 1_555
C17 C12 1_555 1_555
C18 C17 1_555 1_555
H10 C18 1_555 1_555
H11 C18 1_555 1_555
H12 C18 1_555 1_555
C19 C17 1_555 1_555
H13 C19 1_555 1_555
H14 C19 1_555 1_555
H15 C19 1_555 1_555
C20 C17 1_555 1_555
H16 C20 1_555 1_555
H17 C20 1_555 1_555
H18 C20 1_555 1_555
C21 C15 1_555 1_555
C22 C21 1_555 1_555
H19 C22 1_555 1_555
H20 C22 1_555 1_555
H21 C22 1_555 1_555
C23 C21 1_555 1_555
H22 C23 1_555 1_555
H23 C23 1_555 1_555
H24 C23 1_555 1_555
C24 C21 1_555 1_555
H25 C24 1_555 1_555
H26 C24 1_555 1_555
H27 C24 1_555 1_555
C25 C14 1_555 1_555
C26 C25 1_555 1_555
C27 C26 1_555 1_555
C28 C27 1_555 1_555
H28 C28 1_555 1_555
C29 C28 1_555 1_555
H29 C29 1_555 1_555
C30 C29 1_555 1_555
H30 C30 1_555 1_555
C31 C30 1_555 1_555
H31 C31 1_555 1_555
C32 C27 1_555 1_555
H32 C32 1_555 1_555
C7 C8 1_555 1_555
C15 C16 1_555 1_555
C31 C32 1_555 1_555

#END
