
#######################################################################
#
#                 Cambridge Crystallographic Data Centre
#                                CCDC 
#
#######################################################################
#
# If this CIF has been generated from an entry in the Cambridge 
# Structural Database, then it will include bibliographic, chemical, 
# crystal, experimental, refinement or atomic coordinate data resulting 
# from the CCDC's data processing and validation procedures.
#
#######################################################################

data_ONYCHL
_chemical_compound_source        'Onychium japonicum (Thunb.) Kunze'
_chemical_name_common            'Onychiol B'
_chemical_formula_moiety         'C20 H32 O3'
_chemical_name_systematic        
1aS,3aS-(1\b,1a\a,3a\b,5\a,5a\a,6\a,10a\b)-1-(1-(Hydroxymethyl)-vinyl)-3a,5a,8-trimethyl-2,3,3a,4,5,5a,9,10,10a,10b-decahydro-1H,6H-cyclohept(e)indene-5,6-diol
_symmetry_cell_setting           orthorhombic
_symmetry_space_group_name_H-M   'P 21 21 21'
_symmetry_Int_Tables_number      19
_space_group_name_Hall           'P 2ac 2ab'
loop_
_symmetry_equiv_pos_site_id
_symmetry_equiv_pos_as_xyz
1 x,y,z
2 1/2+x,1/2-y,-z
3 -x,1/2+y,1/2-z
4 1/2-x,-y,1/2+z
_cell_length_a                   7.169(3)
_cell_length_b                   15.260(3)
_cell_length_c                   16.647(5)
_cell_angle_alpha                90
_cell_angle_beta                 90
_cell_angle_gamma                90
_cell_volume                     1821.16
_cell_formula_units_Z            4
loop_
_atom_site_label
_atom_site_type_symbol
_atom_site_fract_x
_atom_site_fract_y
_atom_site_fract_z
C1 C 0.12020 0.66810 0.70330
C2 C 0.07440 0.59570 0.64040
C3 C -0.09450 0.63580 0.59350
C4 C -0.13230 0.72660 0.63180
C5 C 0.05510 0.75500 0.66710
C6 C 0.04160 0.82110 0.73520
C7 C 0.22660 0.83090 0.77790
C8 C 0.30780 0.74440 0.81430
C9 C 0.51510 0.76420 0.83740
C10 C 0.62210 0.69560 0.88200
C11 C 0.65780 0.61230 0.86160
C12 C 0.57910 0.56770 0.78950
C13 C 0.37190 0.58040 0.77420
C14 C 0.31150 0.67280 0.74580
C15 C 0.17880 0.78970 0.59950
C16 C 0.19780 0.71690 0.88790
C17 C 0.79110 0.55710 0.91030
C18 C 0.21790 0.56120 0.58090
C19 C 0.38610 0.59340 0.56320
C20 C 0.15550 0.48010 0.53640
O1 O 0.51400 0.84160 0.88660
O2 O 0.19800 0.89690 0.83870
O3 O 0.14290 0.40590 0.58830
H1 H 0.02400 0.65500 0.74700
H2 H -0.20800 0.59800 0.59600
H3 H -0.23500 0.72200 0.67200
H4 H 0.00300 0.88100 0.71500
H5 H 0.31600 0.85500 0.73600
H6 H 0.68100 0.70500 0.93800
H7 H 0.61600 0.50500 0.79200
H8 H 0.29800 0.56800 0.82500
H9 H 0.21400 0.75100 0.56000
H10 H 0.12900 0.83300 0.55700
H11 H 0.08800 0.68400 0.87800
H12 H 0.91500 0.53800 0.88700
H13 H 0.74300 0.50600 0.94300
H14 H 0.42500 0.57700 0.50000
H15 H 0.03400 0.48800 0.50800
H16 H 0.29200 0.90700 0.89100
H17 H 0.03500 0.54000 0.66700
H18 H -0.06300 0.64400 0.53300
H19 H -0.17700 0.77000 0.58800
H20 H -0.05300 0.80300 0.77700
H21 H 0.58400 0.77600 0.78500
H22 H 0.65500 0.59500 0.74200
H23 H 0.32400 0.53800 0.73100
H24 H 0.40000 0.69200 0.70500
H25 H 0.31400 0.80700 0.60900
H26 H 0.12900 0.76300 0.92200
H27 H 0.25100 0.67200 0.92700
H28 H 0.84200 0.58600 0.95400
H29 H 0.44600 0.65000 0.58900
H30 H 0.25200 0.46200 0.49300
H31 H 0.63000 0.87200 0.88400
H32 H 0.02800 0.40000 0.60800
loop_
_geom_bond_atom_site_label_1
_geom_bond_atom_site_label_2
_geom_bond_site_symmetry_1
_geom_bond_site_symmetry_2
C1 C2 1_555 1_555
C2 C3 1_555 1_555
C3 C4 1_555 1_555
C4 C5 1_555 1_555
C5 C1 1_555 1_555
C6 C5 1_555 1_555
C7 C6 1_555 1_555
C8 C7 1_555 1_555
C9 C8 1_555 1_555
C10 C9 1_555 1_555
C11 C10 1_555 1_555
C12 C11 1_555 1_555
C13 C12 1_555 1_555
C14 C1 1_555 1_555
C15 C5 1_555 1_555
C16 C8 1_555 1_555
C17 C11 1_555 1_555
C18 C2 1_555 1_555
C19 C18 1_555 1_555
C20 C18 1_555 1_555
O1 C9 1_555 1_555
O2 C7 1_555 1_555
O3 C20 1_555 1_555
H1 C1 1_555 1_555
H2 C3 1_555 1_555
H3 C4 1_555 1_555
H4 C6 1_555 1_555
H5 C7 1_555 1_555
H6 C10 1_555 1_555
H7 C12 1_555 1_555
H8 C13 1_555 1_555
H9 C15 1_555 1_555
H10 C15 1_555 1_555
H11 C16 1_555 1_555
H12 C17 1_555 1_555
H13 C17 1_555 1_555
H14 C19 1_555 1_555
H15 C20 1_555 1_555
H16 O2 1_555 1_555
H17 C2 1_555 1_555
H18 C3 1_555 1_555
H19 C4 1_555 1_555
H20 C6 1_555 1_555
H21 C9 1_555 1_555
H22 C12 1_555 1_555
H23 C13 1_555 1_555
H24 C14 1_555 1_555
H25 C15 1_555 1_555
H26 C16 1_555 1_555
H27 C16 1_555 1_555
H28 C17 1_555 1_555
H29 C19 1_555 1_555
H30 C20 1_555 1_555
H31 O1 1_555 1_555
H32 O3 1_555 1_555
C8 C14 1_555 1_555
C13 C14 1_555 1_555

#END
