
#######################################################################
#
#                 Cambridge Crystallographic Data Centre
#                                CCDC 
#
#######################################################################
#
# If this CIF has been generated from an entry in the Cambridge 
# Structural Database, then it will include bibliographic, chemical, 
# crystal, experimental, refinement or atomic coordinate data resulting 
# from the CCDC's data processing and validation procedures.
#
#######################################################################

data_OPADAM
_chemical_name_common            UPCDC10263
_chemical_formula_moiety         'C17 H14 Cl2 N6 S1'
_chemical_name_systematic        
'6-(3,4-dichlorophenyl)-7-methyl-3-(2,4,5,6-tetrahydrocyclopenta[c]pyrazol-3-yl)-7H-[1,2,4]triazolo[3,4-b][1,3,4]thiadiazine unknown solvate'
_chemical_properties_biological  'tested for STAT3 and STAT1 activities'
_symmetry_cell_setting           monoclinic
_symmetry_space_group_name_H-M   'C 2/c'
_symmetry_Int_Tables_number      15
_space_group_name_Hall           '-C 2yn'
loop_
_symmetry_equiv_pos_site_id
_symmetry_equiv_pos_as_xyz
1 x,y,z
2 -x,y,1/2-z
3 1/2+x,1/2+y,z
4 1/2-x,1/2+y,1/2-z
5 -x,-y,-z
6 x,-y,1/2+z
7 1/2-x,1/2-y,-z
8 1/2+x,1/2-y,1/2+z
_cell_length_a                   26.9181(5)
_cell_length_b                   8.5382(2)
_cell_length_c                   20.9880(4)
_cell_angle_alpha                90
_cell_angle_beta                 115.0670(10)
_cell_angle_gamma                90
_cell_volume                     4369.39
_exptl_crystal_colour            colorless
_exptl_crystal_description       'rectangular prism'
_cell_formula_units_Z            8
loop_
_atom_site_label
_atom_site_type_symbol
_atom_site_fract_x
_atom_site_fract_y
_atom_site_fract_z
S1 S 0.24651(2) 0.46606(8) 0.24341(3)
Cl1 Cl 0.00816(3) 1.17261(9) 0.10281(4)
N1 N 0.16100(7) 0.5921(2) 0.29516(9)
C1 C 0.09624(9) 0.7831(3) 0.12751(12)
H1 H 0.1025 0.7094 0.0978
Cl2 Cl 0.07451(3) 1.14906(8) 0.26814(4)
N2 N 0.19191(7) 0.4596(2) 0.32511(9)
C2 C 0.06089(10) 0.9084(3) 0.09845(12)
H2 H 0.0420 0.9178 0.0488
N3 N 0.25851(8) 0.2866(3) 0.35789(10)
C3 C 0.05298(10) 1.0186(3) 0.14077(13)
N4 N 0.23372(8) 0.2815(2) 0.40477(10)
C4 C 0.08116(9) 1.0060(3) 0.21360(13)
N5 N 0.17354(7) 0.3789(2) 0.48706(9)
C5 C 0.11501(9) 0.8805(3) 0.24307(11)
H3 H 0.1335 0.8717 0.2928
N6 N 0.13502(8) 0.4178(2) 0.51014(9)
C6 C 0.12254(8) 0.7656(3) 0.20056(11)
C7 C 0.15531(8) 0.6245(3) 0.23252(10)
C8 C 0.17561(9) 0.5238(3) 0.18924(11)
H4 H 0.1754 0.5893 0.1496
C9 C 0.13792(11) 0.3846(3) 0.15752(13)
H5 H 0.1521 0.3216 0.1298
H6 H 0.1364 0.3202 0.1953
H7 H 0.1010 0.4222 0.1270
C10 C 0.23319(9) 0.3943(3) 0.31171(12)
C11 C 0.19459(8) 0.3859(3) 0.38471(10)
C12 C 0.15837(8) 0.4200(2) 0.41819(10)
C13 C 0.10731(8) 0.4886(2) 0.39580(10)
C14 C 0.06152(9) 0.5619(3) 0.33365(11)
H8 H 0.0495 0.4929 0.2918
H9 H 0.0726 0.6647 0.3220
C15 C 0.01616(10) 0.5801(4) 0.35950(13)
H10 H -0.0129 0.5013 0.3364
H11 H -0.0005 0.6855 0.3472
C16 C 0.04138(9) 0.5573(3) 0.44056(12)
H12 H 0.0461 0.6587 0.4654
H13 H 0.0186 0.4869 0.4547
C17 C 0.09565(9) 0.4841(2) 0.45417(11)
loop_
_geom_bond_atom_site_label_1
_geom_bond_atom_site_label_2
_geom_bond_site_symmetry_1
_geom_bond_site_symmetry_2
S1 C8 1_555 1_555
Cl1 C3 1_555 1_555
N1 N2 1_555 1_555
C1 H1 1_555 1_555
Cl2 C4 1_555 1_555
N2 C10 1_555 1_555
C2 C1 1_555 1_555
H2 C2 1_555 1_555
N3 N4 1_555 1_555
C3 C2 1_555 1_555
N4 C11 1_555 1_555
C4 C3 1_555 1_555
N5 N6 1_555 1_555
C5 C4 1_555 1_555
H3 C5 1_555 1_555
N6 C17 1_555 1_555
C6 C1 1_555 1_555
C7 N1 1_555 1_555
C8 C7 1_555 1_555
H4 C8 1_555 1_555
C9 C8 1_555 1_555
H5 C9 1_555 1_555
H6 C9 1_555 1_555
H7 C9 1_555 1_555
C10 S1 1_555 1_555
C11 N2 1_555 1_555
C12 N5 1_555 1_555
C13 C12 1_555 1_555
C14 C13 1_555 1_555
H8 C14 1_555 1_555
H9 C14 1_555 1_555
C15 C14 1_555 1_555
H10 C15 1_555 1_555
H11 C15 1_555 1_555
C16 C15 1_555 1_555
H12 C16 1_555 1_555
H13 C16 1_555 1_555
C17 C13 1_555 1_555
N3 C10 1_555 1_555
C5 C6 1_555 1_555
C6 C7 1_555 1_555
C11 C12 1_555 1_555
C16 C17 1_555 1_555

#END
