
#######################################################################
#
#                 Cambridge Crystallographic Data Centre
#                                CCDC 
#
#######################################################################
#
# If this CIF has been generated from an entry in the Cambridge 
# Structural Database, then it will include bibliographic, chemical, 
# crystal, experimental, refinement or atomic coordinate data resulting 
# from the CCDC's data processing and validation procedures.
#
#######################################################################

data_OPAGOC
_chemical_compound_source        'leaves of Andrographis paniculata Nees'
_chemical_name_common            
(13R,14R)-3,13,14,19-tetrahydroxy-ent-labda-8(17),11-dien-16,15-olide
_chemical_formula_moiety         'C20 H30 O6'
_chemical_name_systematic        
3,4-Dihydroxy-3-(2-(6-hydroxy-5-(hydroxymethyl)-5,8a-dimethyl-2-methylenedecahydronaphthalen-1-yl)vinyl)dihydrofuran-2(3H)-one
_symmetry_cell_setting           orthorhombic
_symmetry_space_group_name_H-M   'P 21 21 21'
_symmetry_Int_Tables_number      19
_space_group_name_Hall           'P 2ac 2ab'
loop_
_symmetry_equiv_pos_site_id
_symmetry_equiv_pos_as_xyz
1 x,y,z
2 1/2-x,-y,1/2+z
3 -x,1/2+y,1/2-z
4 1/2+x,1/2-y,-z
_cell_length_a                   6.3539(8)
_cell_length_b                   14.1598(17)
_cell_length_c                   41.477(5)
_cell_angle_alpha                90
_cell_angle_beta                 90
_cell_angle_gamma                90
_cell_volume                     3731.68
_exptl_crystal_colour            colorless
_exptl_crystal_description       prismatic
_cell_formula_units_Z            8
loop_
_atom_site_label
_atom_site_type_symbol
_atom_site_fract_x
_atom_site_fract_y
_atom_site_fract_z
O1 O 0.5954(6) 1.0020(3) 0.29601(8)
H1 H 0.6033 0.9502 0.3047
O2 O -0.0267(6) 1.1035(2) 0.29435(8)
H2 H -0.1379 1.0741 0.2948
O3 O -0.0109(6) 0.6694(2) 0.14427(7)
H3 H 0.0056 0.6542 0.1632
O4 O 0.2891(7) 0.5537(2) 0.12547(10)
H4 H 0.3872 0.5183 0.1211
O5 O -0.0108(8) 0.7437(3) 0.08189(9)
O6 O 0.3343(7) 0.7174(2) 0.08151(8)
C1 C 0.3530(8) 0.8832(3) 0.22412(10)
H9 H 0.3172 0.8178 0.2198
H10 H 0.4642 0.9013 0.2093
C2 C 0.4337(8) 0.8913(3) 0.25829(10)
H11 H 0.5587 0.8526 0.2608
H12 H 0.3277 0.8683 0.2732
C3 C 0.4859(8) 0.9930(3) 0.26615(10)
H13 H 0.5846 1.0138 0.2494
C4 C 0.2958(8) 1.0599(3) 0.26393(10)
C5 C 0.2064(8) 1.0479(3) 0.22896(9)
H14 H 0.3212 1.0689 0.2149
C6 C 0.0233(9) 1.1135(3) 0.22055(11)
H15 H -0.1021 1.0930 0.2319
H16 H 0.0561 1.1772 0.2276
C7 C -0.0191(11) 1.1137(4) 0.18434(12)
H17 H -0.1426 1.1518 0.1799
H18 H 0.0995 1.1419 0.1732
C8 C -0.0539(9) 1.0153(4) 0.17167(10)
C9 C 0.1212(8) 0.9477(3) 0.18021(10)
H19 H 0.2499 0.9730 0.1705
C10 C 0.1600(8) 0.9449(3) 0.21781(9)
C11 C 0.0894(8) 0.8508(3) 0.16620(10)
H20 H -0.0352 0.8199 0.1714
C12 C 0.2201(8) 0.8060(3) 0.14743(10)
H21 H 0.3486 0.8345 0.1429
C13 C 0.1762(8) 0.7103(3) 0.13241(10)
C14 C 0.3683(9) 0.6458(3) 0.13232(11)
H22 H 0.4467 0.6482 0.1526
C15 C 0.4922(10) 0.6847(4) 0.10441(13)
H23 H 0.5813 0.7365 0.1113
H24 H 0.5798 0.6360 0.0949
C16 C 0.1480(10) 0.7260(3) 0.09628(11)
C17 C -0.2231(10) 0.9938(5) 0.15494(13)
H25 H -0.3239 1.0398 0.1507
H26 H -0.2419 0.9326 0.1473
C18 C 0.3778(9) 1.1607(3) 0.26791(12)
H27 H 0.4682 1.1638 0.2864
H28 H 0.2613 1.2030 0.2708
H29 H 0.4554 1.1785 0.2490
C19 C 0.1445(8) 1.0390(3) 0.29206(10)
H30 H 0.0889 0.9756 0.2895
H31 H 0.2233 1.0406 0.3121
C20 C -0.0348(8) 0.9006(4) 0.23354(10)
H32 H -0.0375 0.8341 0.2291
H33 H -0.1594 0.9296 0.2250
H34 H -0.0295 0.9103 0.2564
O7 O 1.0636(6) -0.0063(3) -0.04260(7)
H5 H 1.1834 -0.0267 -0.0403
O8 O 0.4401(5) -0.1000(3) -0.03057(8)
H6 H 0.4608 -0.1517 -0.0389
O9 O 0.5029(6) 0.3942(2) 0.09583(7)
H7 H 0.5416 0.4256 0.0803
O10 O 0.8134(7) 0.5056(3) 0.11476(11)
H8 H 0.9158 0.5397 0.1177
O11 O 0.4744(8) 0.3390(3) 0.16016(9)
O12 O 0.8219(7) 0.3497(3) 0.16279(8)
C21 C 0.8489(8) 0.1416(3) 0.02412(10)
H35 H 0.8181 0.2087 0.0249
H36 H 0.9609 0.1290 0.0394
C22 C 0.9243(8) 0.1164(3) -0.00941(10)
H37 H 0.8167 0.1327 -0.0250
H38 H 1.0500 0.1523 -0.0145
C23 C 0.9722(8) 0.0121(3) -0.01163(10)
H39 H 1.0791 -0.0023 0.0047
C24 C 0.7784(8) -0.0511(3) -0.00463(10)
C25 C 0.6949(7) -0.0209(3) 0.02898(10)
H40 H 0.8101 -0.0358 0.0438
C26 C 0.5086(10) -0.0799(3) 0.04130(10)
H41 H 0.3846 -0.0656 0.0286
H42 H 0.5402 -0.1464 0.0386
C27 C 0.4628(11) -0.0597(4) 0.07676(11)
H43 H 0.3360 -0.0931 0.0831
H44 H 0.5779 -0.0836 0.0898
C28 C 0.4351(8) 0.0430(3) 0.08344(10)
C29 C 0.6166(8) 0.1023(3) 0.07132(10)
H45 H 0.7432 0.0794 0.0823
C30 C 0.6538(7) 0.0868(3) 0.03412(9)
C31 C 0.5924(8) 0.2042(3) 0.08024(10)
H46 H 0.4777 0.2362 0.0715
C32 C 0.7175(8) 0.2526(3) 0.09914(10)
H47 H 0.8403 0.2232 0.1061
C33 C 0.6783(8) 0.3517(3) 0.11049(11)
C34 C 0.8812(9) 0.4112(4) 0.11053(12)
H48 H 0.9652 0.4025 0.0909
C35 C 0.9904(9) 0.3734(4) 0.14063(13)
H49 H 1.0735 0.3179 0.1355
H50 H 1.0821 0.4210 0.1499
C36 C 0.6368(10) 0.3457(4) 0.14652(12)
C37 C 0.2718(10) 0.0764(4) 0.09866(13)
H51 H 0.1669 0.0357 0.1058
H52 H 0.2602 0.1410 0.1024
C38 C 0.8598(9) -0.1534(3) -0.00264(11)
H53 H 0.7429 -0.1958 -0.0002
H54 H 0.9523 -0.1596 0.0155
H55 H 0.9348 -0.1687 -0.0220
C39 C 0.6259(8) -0.0437(3) -0.03328(10)
H56 H 0.5845 0.0218 -0.0357
H57 H 0.7002 -0.0621 -0.0527
C40 C 0.4577(8) 0.1236(3) 0.01615(10)
H58 H 0.4248 0.1861 0.0235
H59 H 0.3408 0.0824 0.0203
H60 H 0.4855 0.1250 -0.0066
loop_
_geom_bond_atom_site_label_1
_geom_bond_atom_site_label_2
_geom_bond_site_symmetry_1
_geom_bond_site_symmetry_2
O1 H1 1_555 1_555
O2 H2 1_555 1_555
O3 H3 1_555 1_555
O4 H4 1_555 1_555
O5 C16 1_555 1_555
O6 C15 1_555 1_555
O7 H5 1_555 1_555
O8 H6 1_555 1_555
O9 H7 1_555 1_555
O10 H8 1_555 1_555
O11 C36 1_555 1_555
O12 C35 1_555 1_555
C1 H9 1_555 1_555
H10 C1 1_555 1_555
C2 C1 1_555 1_555
H11 C2 1_555 1_555
H12 C2 1_555 1_555
C3 O1 1_555 1_555
H13 C3 1_555 1_555
C4 C3 1_555 1_555
C5 C4 1_555 1_555
H14 C5 1_555 1_555
C6 C5 1_555 1_555
H15 C6 1_555 1_555
H16 C6 1_555 1_555
C7 C6 1_555 1_555
H17 C7 1_555 1_555
H18 C7 1_555 1_555
C8 C7 1_555 1_555
C9 C8 1_555 1_555
H19 C9 1_555 1_555
C10 C1 1_555 1_555
C11 C9 1_555 1_555
H20 C11 1_555 1_555
C12 C11 1_555 1_555
H21 C12 1_555 1_555
C13 O3 1_555 1_555
C14 O4 1_555 1_555
H22 C14 1_555 1_555
C15 C14 1_555 1_555
H23 C15 1_555 1_555
H24 C15 1_555 1_555
C16 O6 1_555 1_555
C17 C8 1_555 1_555
H25 C17 1_555 1_555
H26 C17 1_555 1_555
C18 C4 1_555 1_555
H27 C18 1_555 1_555
H28 C18 1_555 1_555
H29 C18 1_555 1_555
C19 O2 1_555 1_555
H30 C19 1_555 1_555
H31 C19 1_555 1_555
C20 C10 1_555 1_555
H32 C20 1_555 1_555
H33 C20 1_555 1_555
H34 C20 1_555 1_555
C21 H35 1_555 1_555
H36 C21 1_555 1_555
C22 C21 1_555 1_555
H37 C22 1_555 1_555
H38 C22 1_555 1_555
C23 O7 1_555 1_555
H39 C23 1_555 1_555
C24 C23 1_555 1_555
C25 C24 1_555 1_555
H40 C25 1_555 1_555
C26 C25 1_555 1_555
H41 C26 1_555 1_555
H42 C26 1_555 1_555
C27 C26 1_555 1_555
H43 C27 1_555 1_555
H44 C27 1_555 1_555
C28 C27 1_555 1_555
C29 C28 1_555 1_555
H45 C29 1_555 1_555
C30 C21 1_555 1_555
C31 C29 1_555 1_555
H46 C31 1_555 1_555
C32 C31 1_555 1_555
H47 C32 1_555 1_555
C33 O9 1_555 1_555
C34 O10 1_555 1_555
H48 C34 1_555 1_555
C35 C34 1_555 1_555
H49 C35 1_555 1_555
H50 C35 1_555 1_555
C36 O12 1_555 1_555
C37 C28 1_555 1_555
H51 C37 1_555 1_555
H52 C37 1_555 1_555
C38 C24 1_555 1_555
H53 C38 1_555 1_555
H54 C38 1_555 1_555
H55 C38 1_555 1_555
C39 O8 1_555 1_555
H56 C39 1_555 1_555
H57 C39 1_555 1_555
C40 C30 1_555 1_555
H58 C40 1_555 1_555
H59 C40 1_555 1_555
H60 C40 1_555 1_555
C2 C3 1_555 1_555
C4 C19 1_555 1_555
C5 C10 1_555 1_555
C9 C10 1_555 1_555
C12 C13 1_555 1_555
C13 C14 1_555 1_555
C13 C16 1_555 1_555
C22 C23 1_555 1_555
C24 C39 1_555 1_555
C25 C30 1_555 1_555
C29 C30 1_555 1_555
C32 C33 1_555 1_555
C33 C34 1_555 1_555
C33 C36 1_555 1_555

#END
