
#######################################################################
#
#                 Cambridge Crystallographic Data Centre
#                                CCDC 
#
#######################################################################
#
# If this CIF has been generated from an entry in the Cambridge 
# Structural Database, then it will include bibliographic, chemical, 
# crystal, experimental, refinement or atomic coordinate data resulting 
# from the CCDC's data processing and validation procedures.
#
#######################################################################

data_OPAHUJ
_chemical_formula_moiety         'C42 H34 N4 O6'
_chemical_name_systematic        
'Diethyl 6,13-dioxo-1,11-bis(phenylethynyl)-5,7,12,14-tetrahydro-5a,6a,12a,13a-tetraazabenzo[5,6]azuleno[2,1,8-ija]benzo[f]azulene-13b,13c-dicarboxylate'
_symmetry_cell_setting           triclinic
_symmetry_space_group_name_H-M   'P -1'
_symmetry_Int_Tables_number      2
_space_group_name_Hall           '-P 1'
loop_
_symmetry_equiv_pos_site_id
_symmetry_equiv_pos_as_xyz
1 x,y,z
2 -x,-y,-z
_cell_length_a                   9.0609(7)
_cell_length_b                   13.3756(11)
_cell_length_c                   16.2945(13)
_cell_angle_alpha                110.3550(10)
_cell_angle_beta                 90.087(2)
_cell_angle_gamma                106.794(2)
_cell_volume                     1761.04
_exptl_crystal_colour            colorless
_exptl_crystal_description       plate
_cell_formula_units_Z            2
loop_
_atom_site_label
_atom_site_type_symbol
_atom_site_fract_x
_atom_site_fract_y
_atom_site_fract_z
C1 C 0.9601(5) 0.4728(4) 0.3412(3)
H1 H 0.9475 0.4044 0.2958
C2 C 1.0898(6) 0.5634(6) 0.3537(4)
H2 H 1.1624 0.5562 0.3136
C3 C 1.1169(7) 0.6627(6) 0.4217(5)
H3 H 1.2061 0.7221 0.4283
C4 C 1.0098(6) 0.6729(4) 0.4798(4)
H4 H 1.0282 0.7393 0.5282
C5 C 0.8770(5) 0.5884(3) 0.4688(3)
H5 H 0.8037 0.5981 0.5082
C6 C 0.8497(4) 0.4874(3) 0.3987(3)
C7 C 0.6914(5) 0.3888(3) 0.3841(2)
C8 C 0.5904(3) 0.3289(2) 0.3732(2)
C9 C 0.4473(3) 0.2284(2) 0.34470(16)
C10 C 0.3103(4) 0.2414(3) 0.31907(19)
H6 H 0.3094 0.3114 0.3206
C11 C 0.1765(3) 0.1532(3) 0.2915(2)
H7 H 0.0853 0.1632 0.2748
C12 C 0.1776(3) 0.0489(3) 0.28871(18)
H8 H 0.0868 -0.0112 0.2687
C13 C 0.3111(3) 0.0320(2) 0.31511(15)
C14 C 0.4480(3) 0.1226(2) 0.34419(14)
C15 C 0.5945(3) 0.11073(19) 0.37901(15)
H9 H 0.6756 0.1821 0.3952
H10 H 0.5755 0.0941 0.4321
C16 C 0.3038(3) -0.0820(2) 0.31582(17)
H11 H 0.3201 -0.0756 0.3765
H12 H 0.2002 -0.1328 0.2919
C17 C 0.5772(3) -0.09297(18) 0.29854(14)
C18 C 0.6025(4) -0.1230(3) 0.37901(19)
C19 C 0.5628(8) -0.2822(4) 0.4229(3)
H13 H 0.5006 -0.2567 0.4694
H14 H 0.6703 -0.2551 0.4482
C20 C 0.5105(7) -0.4059(4) 0.3841(4)
H15 H 0.4014 -0.4324 0.3648
H16 H 0.5300 -0.4354 0.4276
H17 H 0.5662 -0.4304 0.3348
O1 O 0.6337(5) -0.0647(3) 0.4538(2)
O2 O 0.5469(5) -0.2389(3) 0.3544(2)
C21 C 0.7373(3) 0.0442(2) 0.25230(15)
C22 C 0.3845(3) -0.20051(19) 0.18020(17)
C23 C 0.6521(3) -0.15035(18) 0.21539(14)
C24 C 0.7572(4) -0.2133(3) 0.2335(2)
C25 C 0.8530(9) -0.3628(5) 0.2047(6)
H18 H 0.8722 -0.3470 0.2672
H19 H 0.9504 -0.3375 0.1824
C26 C 0.7711(16) -0.4853(9) 0.1548(11)
H20 H 0.6654 -0.5034 0.1676
H21 H 0.8224 -0.5295 0.1722
H22 H 0.7732 -0.5012 0.0927
O3 O 0.8703(4) -0.1547(3) 0.2996(3)
O4 O 0.7421(6) -0.3122(3) 0.1874(3)
C27 C 0.5347(3) -0.26959(19) 0.05829(15)
H23 H 0.4406 -0.3304 0.0296
H24 H 0.6196 -0.3014 0.0521
C28 C 0.8118(3) -0.0693(2) 0.11242(15)
H25 H 0.8567 -0.1301 0.0987
H26 H 0.8951 -0.0012 0.1196
C29 C 0.6964(3) -0.09329(19) 0.03573(15)
C30 C 0.5646(3) -0.18725(19) 0.01088(15)
C31 C 0.4607(3) -0.2082(2) -0.06011(16)
H27 H 0.3711 -0.2694 -0.0749
C32 C 0.4867(3) -0.1405(2) -0.10933(17)
H28 H 0.4177 -0.1572 -0.1580
C33 C 0.6159(3) -0.0484(2) -0.08534(17)
H29 H 0.6344 -0.0026 -0.1184
C34 C 0.7212(3) -0.0215(2) -0.01179(16)
C35 C 0.8514(3) 0.0818(2) 0.01247(16)
C36 C 0.9420(3) 0.1642(3) 0.03680(17)
C37 C 1.0639(3) 0.2763(2) 0.06798(19)
C38 C 1.0511(4) 0.3593(3) 0.0386(2)
H30 H 0.9694 0.3452 -0.0026
C39 C 1.1627(5) 0.4640(3) 0.0721(3)
H31 H 1.1514 0.5215 0.0554
C40 C 1.2875(5) 0.4847(3) 0.1283(2)
H32 H 1.3625 0.5547 0.1487
C41 C 1.3015(4) 0.4004(3) 0.1546(2)
H33 H 1.3871 0.4136 0.1929
C42 C 1.1915(4) 0.2977(2) 0.12534(19)
H34 H 1.2024 0.2417 0.1441
N1 N 0.4148(2) -0.13134(16) 0.26671(13)
N2 N 0.6504(2) 0.02448(15) 0.31779(12)
N3 N 0.5189(2) -0.22160(15) 0.15169(12)
N4 N 0.7457(2) -0.05637(15) 0.19516(12)
O5 O 0.79914(18) 0.13557(13) 0.24792(10)
O6 O 0.2584(2) -0.23957(14) 0.13599(12)
C43? C 0.8263(9) -0.1036(7) 0.4690(4)
C44? C 0.9918(11) -0.0462(9) 0.4915(10)
C45? C 0.7315(14) -0.3859(7) 0.2535(7)
C46? C 0.779(2) -0.4598(15) 0.1715(11)
H35? H 0.8073 -0.1836 0.4526
H36? H 0.7729 -0.0784 0.5200
H37? H 1.006(9) 0.0345(14) 0.514(5)
H38? H 1.041(7) -0.069(6) 0.437(3)
H39? H 1.029(7) -0.070(5) 0.536(3)
H40? H 0.6615 -0.4335 0.2794
H41? H 0.8232 -0.3423 0.2956
H42? H 0.6883 -0.5085 0.1313
H43? H 0.8330 -0.5039 0.1870
H44? H 0.8460 -0.4139 0.1441
O7? O 0.5212(6) -0.1574(7) 0.4175(5)
O8? O 0.7664(4) -0.0828(4) 0.3985(2)
O9? O 0.8792(6) -0.2066(5) 0.2187(4)
O10? O 0.6563(6) -0.3092(4) 0.2403(4)
loop_
_geom_bond_atom_site_label_1
_geom_bond_atom_site_label_2
_geom_bond_site_symmetry_1
_geom_bond_site_symmetry_2
C1 H1 1_555 1_555
C2 C1 1_555 1_555
H2 C2 1_555 1_555
C3 C2 1_555 1_555
H3 C3 1_555 1_555
C4 C3 1_555 1_555
H4 C4 1_555 1_555
C5 C4 1_555 1_555
H5 C5 1_555 1_555
C6 C1 1_555 1_555
C7 C6 1_555 1_555
C8 C7 1_555 1_555
C9 C8 1_555 1_555
C10 C9 1_555 1_555
H6 C10 1_555 1_555
C11 C10 1_555 1_555
H7 C11 1_555 1_555
C12 C11 1_555 1_555
H8 C12 1_555 1_555
C13 C12 1_555 1_555
C14 C9 1_555 1_555
C15 C14 1_555 1_555
H9 C15 1_555 1_555
H10 C15 1_555 1_555
C16 C13 1_555 1_555
H11 C16 1_555 1_555
H12 C16 1_555 1_555
C17 C18 1_555 1_555
C18 O1 1_555 1_555
C19 H13 1_555 1_555
H14 C19 1_555 1_555
C20 C19 1_555 1_555
H15 C20 1_555 1_555
H16 C20 1_555 1_555
H17 C20 1_555 1_555
O2 C18 1_555 1_555
C21 N2 1_555 1_555
C22 N1 1_555 1_555
C23 C17 1_555 1_555
C24 C23 1_555 1_555
C25 H18 1_555 1_555
H19 C25 1_555 1_555
C26 C25 1_555 1_555
H20 C26 1_555 1_555
H21 C26 1_555 1_555
H22 C26 1_555 1_555
O3 C24 1_555 1_555
O4 C24 1_555 1_555
C27 H23 1_555 1_555
H24 C27 1_555 1_555
C28 H25 1_555 1_555
H26 C28 1_555 1_555
C29 C28 1_555 1_555
C30 C27 1_555 1_555
C31 C30 1_555 1_555
H27 C31 1_555 1_555
C32 C31 1_555 1_555
H28 C32 1_555 1_555
C33 C32 1_555 1_555
H29 C33 1_555 1_555
C34 C29 1_555 1_555
C35 C34 1_555 1_555
C36 C35 1_555 1_555
C37 C36 1_555 1_555
C38 C37 1_555 1_555
H30 C38 1_555 1_555
C39 C38 1_555 1_555
H31 C39 1_555 1_555
C40 C39 1_555 1_555
H32 C40 1_555 1_555
C41 C40 1_555 1_555
H33 C41 1_555 1_555
C42 C37 1_555 1_555
H34 C42 1_555 1_555
N1 C16 1_555 1_555
N2 C15 1_555 1_555
N3 C22 1_555 1_555
N4 C21 1_555 1_555
O5 C21 1_555 1_555
O6 C22 1_555 1_555
C5 C6 1_555 1_555
C13 C14 1_555 1_555
C17 N1 1_555 1_555
C17 N2 1_555 1_555
C19 O2 1_555 1_555
C23 N3 1_555 1_555
C23 N4 1_555 1_555
C25 O4 1_555 1_555
C27 N3 1_555 1_555
C28 N4 1_555 1_555
C29 C30 1_555 1_555
C33 C34 1_555 1_555
C41 C42 1_555 1_555

#END
