
#######################################################################
#
#                 Cambridge Crystallographic Data Centre
#                                CCDC 
#
#######################################################################
#
# If this CIF has been generated from an entry in the Cambridge 
# Structural Database, then it will include bibliographic, chemical, 
# crystal, experimental, refinement or atomic coordinate data resulting 
# from the CCDC's data processing and validation procedures.
#
#######################################################################

data_OPAHOD
_chemical_formula_moiety         'C35 H35 N5 O3 S1'
_chemical_name_systematic        
N,N,N',N'-Tetraethyl-3-((4-nitrobenzylidene)hydrazono)-3H-spiro[2-benzothiophene-1,9'-xanthene]-3',6'-diamine
_symmetry_cell_setting           monoclinic
_symmetry_space_group_name_H-M   'P 21/c'
_symmetry_Int_Tables_number      14
_space_group_name_Hall           '-P 2ybc'
loop_
_symmetry_equiv_pos_site_id
_symmetry_equiv_pos_as_xyz
1 x,y,z
2 -x,1/2+y,1/2-z
3 -x,-y,-z
4 x,1/2-y,1/2+z
_cell_length_a                   15.415(3)
_cell_length_b                   12.176(2)
_cell_length_c                   17.791(3)
_cell_angle_alpha                90
_cell_angle_beta                 108.536(7)
_cell_angle_gamma                90
_cell_volume                     3166.02
_exptl_crystal_colour            yellow
_exptl_crystal_description       block
_cell_formula_units_Z            4
loop_
_atom_site_label
_atom_site_type_symbol
_atom_site_fract_x
_atom_site_fract_y
_atom_site_fract_z
S1 S 0.35106(4) 0.32540(6) 0.20364(4)
N1 N 0.0177(2) 0.2940(3) -0.2815(2)
N2 N 0.19183(15) 0.4115(2) 0.08972(15)
N3 N 0.20417(15) 0.4624(2) 0.16216(14)
N4 N 0.79514(15) 0.4100(2) 0.34808(15)
N5 N 0.38280(15) -0.11476(19) 0.42494(14)
O1 O 0.56588(11) 0.15397(14) 0.35259(11)
O2 O 0.0427(2) 0.2035(3) -0.29323(19)
O3 O -0.03181(19) 0.3511(3) -0.33399(16)
C1 C 0.13481(19) 0.3150(3) -0.06543(19)
H1 H 0.1740 0.2737 -0.0247
C2 C 0.1051(2) 0.2733(3) -0.1410(2)
H2 H 0.1227 0.2034 -0.1517
C3 C 0.0485(2) 0.3374(3) -0.20094(19)
C4 C 0.02098(19) 0.4393(3) -0.18658(19)
H3 H -0.0170 0.4812 -0.2276
C5 C 0.05036(18) 0.4791(3) -0.11032(18)
H4 H 0.0316 0.5484 -0.0999
C6 C 0.10691(17) 0.4183(2) -0.04911(17)
C7 C 0.13529(18) 0.4615(2) 0.03170(18)
H5 H 0.1111 0.5281 0.0412
C8 C 0.27372(17) 0.4207(2) 0.21712(16)
C9 C 0.29548(16) 0.4533(2) 0.30013(15)
C10 C 0.24339(17) 0.5228(2) 0.33034(18)
H6 H 0.1913 0.5563 0.2966
C11 C 0.2692(2) 0.5417(2) 0.4100(2)
H7 H 0.2336 0.5867 0.4307
C12 C 0.3477(2) 0.4944(2) 0.46006(17)
H8 H 0.3656 0.5092 0.5141
C13 C 0.39964(18) 0.4253(2) 0.43022(16)
H9 H 0.4526 0.3936 0.4640
C14 C 0.37270(16) 0.4032(2) 0.34981(15)
C15 C 0.41972(15) 0.3187(2) 0.31277(13)
C16 C 0.51870(16) 0.3439(2) 0.32364(14)
C17 C 0.54910(17) 0.4489(2) 0.31279(14)
H10 H 0.5066 0.5056 0.2992
C18 C 0.63859(17) 0.4723(2) 0.32119(14)
H11 H 0.6555 0.5438 0.3139
C19 C 0.70504(18) 0.3886(2) 0.34082(15)
C20 C 0.67602(17) 0.2832(2) 0.35146(15)
H12 H 0.7182 0.2260 0.3648
C21 C 0.58492(17) 0.2629(2) 0.34235(14)
C22 C 0.48152(17) 0.1293(2) 0.36010(14)
C23 C 0.47379(17) 0.0233(2) 0.38549(14)
H13 H 0.5227 -0.0251 0.3945
C24 C 0.39301(18) -0.0111(2) 0.39761(16)
C25 C 0.32167(18) 0.0659(2) 0.38217(18)
H14 H 0.2668 0.0466 0.3900
C26 C 0.33199(18) 0.1691(2) 0.35582(17)
H15 H 0.2829 0.2175 0.3456
C27 C 0.41144(16) 0.2052(2) 0.34364(14)
C28 C 0.8273(2) 0.5214(3) 0.3425(2)
H16 H 0.7831 0.5583 0.2984
H17 H 0.8845 0.5173 0.3306
C29 C 0.8420(2) 0.5893(3) 0.4153(2)
H18 H 0.8631 0.6610 0.4069
H19 H 0.8869 0.5547 0.4592
H20 H 0.7855 0.5959 0.4268
C30 C 0.8648(2) 0.3217(3) 0.3688(2)
H21 H 0.8383 0.2553 0.3407
H22 H 0.9157 0.3429 0.3509
C31 C 0.8997(2) 0.2979(3) 0.4543(3)
H23 H 0.9441 0.2399 0.4639
H24 H 0.8500 0.2756 0.4724
H25 H 0.9278 0.3626 0.4825
C32 C 0.2963(2) -0.1491(3) 0.4356(2)
H26 H 0.2743 -0.0913 0.4624
H27 H 0.3066 -0.2141 0.4687
C33 C 0.2260(2) -0.1733(3) 0.3588(2)
H28 H 0.1701 -0.1945 0.3677
H29 H 0.2468 -0.2321 0.3329
H30 H 0.2154 -0.1090 0.3259
C34 C 0.4552(2) -0.1955(2) 0.44101(17)
H31 H 0.4483 -0.2457 0.4811
H32 H 0.5133 -0.1581 0.4630
C35 C 0.4584(2) -0.2617(2) 0.37038(17)
H33 H 0.5086 -0.3124 0.3864
H34 H 0.4664 -0.2133 0.3305
H35 H 0.4022 -0.3017 0.3492
loop_
_geom_bond_atom_site_label_1
_geom_bond_atom_site_label_2
_geom_bond_site_symmetry_1
_geom_bond_site_symmetry_2
S1 C8 1_555 1_555
N1 O2 1_555 1_555
N2 N3 1_555 1_555
N3 C8 1_555 1_555
N4 C19 1_555 1_555
N5 C24 1_555 1_555
O1 C21 1_555 1_555
O3 N1 1_555 1_555
C1 H1 1_555 1_555
C2 C1 1_555 1_555
H2 C2 1_555 1_555
C3 N1 1_555 1_555
C4 C3 1_555 1_555
H3 C4 1_555 1_555
C5 C4 1_555 1_555
H4 C5 1_555 1_555
C6 C1 1_555 1_555
C7 N2 1_555 1_555
H5 C7 1_555 1_555
C8 C9 1_555 1_555
C9 C10 1_555 1_555
C10 H6 1_555 1_555
C11 C10 1_555 1_555
H7 C11 1_555 1_555
C12 C11 1_555 1_555
H8 C12 1_555 1_555
C13 C12 1_555 1_555
H9 C13 1_555 1_555
C14 C9 1_555 1_555
C15 S1 1_555 1_555
C16 C15 1_555 1_555
C17 C16 1_555 1_555
H10 C17 1_555 1_555
C18 C17 1_555 1_555
H11 C18 1_555 1_555
C19 C18 1_555 1_555
C20 C19 1_555 1_555
H12 C20 1_555 1_555
C21 C16 1_555 1_555
C22 O1 1_555 1_555
C23 C22 1_555 1_555
H13 C23 1_555 1_555
C24 C23 1_555 1_555
C25 C24 1_555 1_555
H14 C25 1_555 1_555
C26 C25 1_555 1_555
H15 C26 1_555 1_555
C27 C15 1_555 1_555
C28 N4 1_555 1_555
H16 C28 1_555 1_555
H17 C28 1_555 1_555
C29 C28 1_555 1_555
H18 C29 1_555 1_555
H19 C29 1_555 1_555
H20 C29 1_555 1_555
C30 N4 1_555 1_555
H21 C30 1_555 1_555
H22 C30 1_555 1_555
C31 C30 1_555 1_555
H23 C31 1_555 1_555
H24 C31 1_555 1_555
H25 C31 1_555 1_555
C32 N5 1_555 1_555
H26 C32 1_555 1_555
H27 C32 1_555 1_555
C33 C32 1_555 1_555
H28 C33 1_555 1_555
H29 C33 1_555 1_555
H30 C33 1_555 1_555
C34 N5 1_555 1_555
H31 C34 1_555 1_555
H32 C34 1_555 1_555
C35 C34 1_555 1_555
H33 C35 1_555 1_555
H34 C35 1_555 1_555
H35 C35 1_555 1_555
C2 C3 1_555 1_555
C5 C6 1_555 1_555
C6 C7 1_555 1_555
C13 C14 1_555 1_555
C14 C15 1_555 1_555
C20 C21 1_555 1_555
C22 C27 1_555 1_555
C26 C27 1_555 1_555

#END
