
#######################################################################
#
#                 Cambridge Crystallographic Data Centre
#                                CCDC 
#
#######################################################################
#
# If this CIF has been generated from an entry in the Cambridge 
# Structural Database, then it will include bibliographic, chemical, 
# crystal, experimental, refinement or atomic coordinate data resulting 
# from the CCDC's data processing and validation procedures.
#
#######################################################################

data_OPAQOM
_chemical_formula_moiety         'C18 H12 N6 S2'
_chemical_name_systematic        
2,2'-Disulfanediylbis(4-(pyridin-2-yl)pyrimidine)
_symmetry_cell_setting           monoclinic
_symmetry_space_group_name_H-M   'P 21/c'
_symmetry_Int_Tables_number      14
_space_group_name_Hall           '-P 2ybc'
loop_
_symmetry_equiv_pos_site_id
_symmetry_equiv_pos_as_xyz
1 x,y,z
2 -x,1/2+y,1/2-z
3 -x,-y,-z
4 x,1/2-y,1/2+z
_cell_length_a                   11.8134(12)
_cell_length_b                   7.3156(7)
_cell_length_c                   20.2515(19)
_cell_angle_alpha                90
_cell_angle_beta                 98.766(2)
_cell_angle_gamma                90
_cell_volume                     1729.73
_exptl_crystal_colour            colorless
_exptl_crystal_description       block
_cell_formula_units_Z            4
loop_
_atom_site_label
_atom_site_type_symbol
_atom_site_fract_x
_atom_site_fract_y
_atom_site_fract_z
S1 S 0.39071(7) 0.24468(14) 0.52003(5)
S2 S 0.37140(7) 0.23055(15) 0.41952(5)
C1 C 0.4234(3) 0.6369(6) 0.8061(2)
H1 H 0.4644 0.5610 0.8380
C2 C 0.3748(3) 0.7934(6) 0.8248(2)
H2 H 0.3814 0.8264 0.8696
C3 C 0.3156(3) 0.9014(6) 0.7757(2)
H3 H 0.2812 1.0069 0.7888
N1 N 0.3043(3) 0.8651(5) 0.71044(17)
C4 C 0.3514(3) 0.7082(6) 0.6938(2)
C5 C 0.3353(3) 0.6718(5) 0.62165(19)
C6 C 0.2921(3) 0.7988(5) 0.5738(2)
H4 H 0.2706 0.9150 0.5858
C7 C 0.2822(3) 0.7484(6) 0.5082(2)
H5 H 0.2544 0.8344 0.4760
C8 C 0.3515(3) 0.4718(5) 0.5375(2)
C9 C 0.2222(3) 0.1875(5) 0.3917(2)
C10 C 0.0426(3) 0.1373(5) 0.4076(2)
H6 H -0.0126 0.1202 0.4351
C11 C 0.0087(3) 0.1314(5) 0.3398(2)
H7 H -0.0675 0.1116 0.3218
C12 C 0.0912(3) 0.1557(5) 0.29901(19)
C13 C 0.0646(3) 0.1544(5) 0.2256(2)
N2 N -0.0449(3) 0.1163(4) 0.20089(17)
C14 C -0.0723(3) 0.1152(5) 0.1352(2)
H8 H -0.1479 0.0886 0.1177
C15 C 0.0025(4) 0.1503(5) 0.0903(2)
H9 H -0.0214 0.1469 0.0444
C16 C 0.1141(3) 0.1906(5) 0.1170(2)
H10 H 0.1675 0.2174 0.0890
C17 C 0.4113(3) 0.5919(5) 0.7392(2)
H11 H 0.4431 0.4849 0.7253
N3 N 0.3669(2) 0.5056(4) 0.60257(15)
N4 N 0.3099(2) 0.5832(5) 0.48768(15)
N5 N 0.1512(3) 0.1665(4) 0.43641(15)
N6 N 0.2013(2) 0.1845(4) 0.32620(15)
C18 C 0.1459(3) 0.1910(5) 0.1848(2)
H12 H 0.2213 0.2156 0.2033
loop_
_geom_bond_atom_site_label_1
_geom_bond_atom_site_label_2
_geom_bond_site_symmetry_1
_geom_bond_site_symmetry_2
S1 S2 1_555 1_555
S2 C9 1_555 1_555
C1 H1 1_555 1_555
C2 C1 1_555 1_555
H2 C2 1_555 1_555
C3 C2 1_555 1_555
H3 C3 1_555 1_555
N1 C3 1_555 1_555
C4 N1 1_555 1_555
C5 C4 1_555 1_555
C6 C5 1_555 1_555
H4 C6 1_555 1_555
C7 C6 1_555 1_555
H5 C7 1_555 1_555
C8 S1 1_555 1_555
C9 N5 1_555 1_555
C10 H6 1_555 1_555
C11 C10 1_555 1_555
H7 C11 1_555 1_555
C12 C11 1_555 1_555
C13 C12 1_555 1_555
N2 C13 1_555 1_555
C14 N2 1_555 1_555
H8 C14 1_555 1_555
C15 C14 1_555 1_555
H9 C15 1_555 1_555
C16 C15 1_555 1_555
H10 C16 1_555 1_555
C17 C1 1_555 1_555
H11 C17 1_555 1_555
N3 C5 1_555 1_555
N4 C7 1_555 1_555
N5 C10 1_555 1_555
N6 C9 1_555 1_555
C18 C13 1_555 1_555
H12 C18 1_555 1_555
C4 C17 1_555 1_555
C8 N3 1_555 1_555
C8 N4 1_555 1_555
C12 N6 1_555 1_555
C16 C18 1_555 1_555

#END
