
#######################################################################
#
#                 Cambridge Crystallographic Data Centre
#                                CCDC 
#
#######################################################################
#
# If this CIF has been generated from an entry in the Cambridge 
# Structural Database, then it will include bibliographic, chemical, 
# crystal, experimental, refinement or atomic coordinate data resulting 
# from the CCDC's data processing and validation procedures.
#
#######################################################################

data_OPAXEK
_chemical_formula_moiety         'C19 H26 B1 N1 O2'
_chemical_name_systematic        
1-methyl-6-(1-(4,4,5,5-tetramethyl-1,3,2-dioxaborolan-2-yl)but-3-en-2-yl)-1H-indole
_symmetry_cell_setting           monoclinic
_symmetry_space_group_name_H-M   'P 21'
_symmetry_Int_Tables_number      4
_space_group_name_Hall           'P 2yb'
loop_
_symmetry_equiv_pos_site_id
_symmetry_equiv_pos_as_xyz
1 x,y,z
2 -x,1/2+y,-z
_cell_length_a                   9.86010(19)
_cell_length_b                   17.3729(3)
_cell_length_c                   10.9482(3)
_cell_angle_alpha                90
_cell_angle_beta                 111.164(2)
_cell_angle_gamma                90
_cell_volume                     1748.92
_exptl_crystal_colour            colorless
_exptl_crystal_description       plate
_cell_formula_units_Z            4
loop_
_atom_site_label
_atom_site_type_symbol
_atom_site_fract_x
_atom_site_fract_y
_atom_site_fract_z
O1 O 1.1575(2) 0.32921(13) 0.4078(2)
O2 O 1.2274(2) 0.30267(12) 0.6251(2)
N1 N 0.6214(3) 0.49362(14) 0.3208(2)
C1 C 0.7034(3) 0.44877(17) 0.4242(3)
C2 C 0.8386(3) 0.34169(17) 0.5465(3)
C3 C 0.6703(3) 0.56640(18) 0.5004(3)
H1 H 0.6731 0.6087 0.5562
C4 C 0.6019(3) 0.56424(18) 0.3685(3)
H2 H 0.5482 0.6056 0.3166
C5 C 0.7537(3) 0.37270(17) 0.4267(3)
H3 H 0.7299 0.3435 0.3484
C6 C 0.8719(3) 0.38568(19) 0.6614(3)
H4 H 0.9300 0.3635 0.7428
C7 C 0.7649(3) 0.20464(17) 0.5305(3)
H5 H 0.7119 0.2099 0.5873
C8 C 0.8232(3) 0.45956(18) 0.6593(3)
H6 H 0.8472 0.4881 0.7384
C9 C 0.7167(3) 0.15171(19) 0.4388(3)
C10 C 0.8936(3) 0.25823(17) 0.5573(3)
H7 H 0.9595 0.2498 0.6502
C11 C 1.3090(3) 0.35280(18) 0.4652(3)
C12 C 1.3285(4) 0.4271(2) 0.4013(3)
H8 H 1.3074 0.4182 0.3079
H9 H 1.4289 0.4451 0.4429
H10 H 1.2617 0.4661 0.4118
C13 C 0.9826(3) 0.24287(17) 0.4705(3)
H11 H 0.9198 0.2522 0.3782
H12 H 1.0108 0.1879 0.4786
C14 C 1.2888(4) 0.4368(2) 0.6515(3)
H13 H 1.1894 0.4492 0.5935
H14 H 1.3555 0.4766 0.6435
H15 H 1.2931 0.4346 0.7423
C15 C 0.7377(3) 0.49291(17) 0.5397(3)
C16 C 1.3326(3) 0.35899(18) 0.6130(3)
C17 C 0.5550(3) 0.46787(18) 0.1863(3)
H16 H 0.6270 0.4398 0.1609
H17 H 0.5202 0.5125 0.1288
H18 H 0.4729 0.4339 0.1782
B1 B 1.1240(3) 0.29314(19) 0.5034(3)
C18 C 1.3985(4) 0.2889(2) 0.4358(4)
H19 H 1.3872 0.2414 0.4796
H20 H 1.5013 0.3039 0.4679
H21 H 1.3647 0.2802 0.3410
C19 C 1.4846(4) 0.3371(2) 0.7054(3)
H22 H 1.4925 0.3460 0.7961
H23 H 1.5567 0.3686 0.6860
H24 H 1.5023 0.2826 0.6936
H25 H 0.635(5) 0.115(3) 0.437(4)
H26 H 0.764(5) 0.142(3) 0.379(4)
O3 O 0.2096(2) 0.69348(13) -0.1462(2)
O4 O 0.3441(2) 0.67728(13) 0.0698(2)
N2 N 0.8953(2) 0.50416(14) 0.2022(2)
C20 C 0.6602(3) 0.66066(17) 0.0058(3)
C21 C 0.7590(3) 0.62653(17) 0.1170(3)
H27 H 0.7946 0.6534 0.1980
C22 C 0.7549(3) 0.50958(17) -0.0121(3)
C23 C 0.6084(3) 0.61917(18) -0.1125(3)
H28 H 0.5402 0.6429 -0.1878
C24 C 0.9671(3) 0.52538(19) 0.3380(3)
H29 H 1.0035 0.4790 0.3905
H30 H 0.8979 0.5517 0.3692
H31 H 1.0487 0.5598 0.3464
C25 C 0.4563(3) 0.76053(16) -0.0686(3)
H32 H 0.4450 0.7564 -0.1620
H33 H 0.4357 0.8146 -0.0529
C26 C 0.9058(3) 0.43463(18) 0.1462(3)
H34 H 0.9629 0.3923 0.1913
C27 C 0.8045(3) 0.55143(17) 0.1065(3)
C28 C 0.6537(3) 0.54506(18) -0.1226(3)
H35 H 0.6166 0.5183 -0.2036
C29 C 0.1957(3) 0.65280(18) 0.0520(3)
C30 C 0.1222(4) 0.7198(2) 0.0941(3)
H36 H 0.1834 0.7365 0.1823
H37 H 0.0274 0.7031 0.0943
H38 H 0.1087 0.7626 0.0326
C31 C 0.6174(3) 0.74377(16) 0.0150(3)
H39 H 0.6334 0.7555 0.1087
C32 C -0.0319(3) 0.6561(2) -0.1606(3)
H40 H -0.0490 0.7106 -0.1483
H41 H -0.0859 0.6243 -0.1199
H42 H -0.0648 0.6446 -0.2545
C33 C 0.7142(3) 0.79576(18) -0.0285(3)
H43 H 0.7113 0.7899 -0.1157
C34 C 0.1290(3) 0.63884(18) -0.0977(3)
C35 C 0.8218(3) 0.43552(18) 0.0158(3)
H44 H 0.8101 0.3946 -0.0447
C36 C 0.2024(4) 0.58235(19) 0.1359(3)
H45 H 0.2651 0.5434 0.1187
H46 H 0.1043 0.5613 0.1146
H47 H 0.2421 0.5969 0.2287
C37 C 0.8022(4) 0.8485(2) 0.0445(4)
B2 B 0.3369(3) 0.70846(19) -0.0464(3)
C38 C 0.1638(4) 0.5582(2) -0.1358(4)
H48 H 0.1384 0.5557 -0.2309
H49 H 0.1073 0.5198 -0.1090
H50 H 0.2678 0.5477 -0.0919
H51 H 0.863(5) 0.880(3) 0.014(4)
H52 H 0.808(5) 0.857(3) 0.139(5)
loop_
_geom_bond_atom_site_label_1
_geom_bond_atom_site_label_2
_geom_bond_site_symmetry_1
_geom_bond_site_symmetry_2
O1 C11 1_555 1_555
O2 C16 1_555 1_555
N1 C1 1_555 1_555
C1 C5 1_555 1_555
C2 C5 1_555 1_555
C3 H1 1_555 1_555
C4 N1 1_555 1_555
H2 C4 1_555 1_555
C5 H3 1_555 1_555
C6 C2 1_555 1_555
H4 C6 1_555 1_555
C7 H5 1_555 1_555
C8 C6 1_555 1_555
H6 C8 1_555 1_555
C9 C7 1_555 1_555
C10 C2 1_555 1_555
H7 C10 1_555 1_555
C11 C12 1_555 1_555
C12 H8 1_555 1_555
H9 C12 1_555 1_555
H10 C12 1_555 1_555
C13 C10 1_555 1_555
H11 C13 1_555 1_555
H12 C13 1_555 1_555
C14 H13 1_555 1_555
H14 C14 1_555 1_555
H15 C14 1_555 1_555
C15 C1 1_555 1_555
C16 C11 1_555 1_555
C17 N1 1_555 1_555
H16 C17 1_555 1_555
H17 C17 1_555 1_555
H18 C17 1_555 1_555
B1 O1 1_555 1_555
C18 C11 1_555 1_555
H19 C18 1_555 1_555
H20 C18 1_555 1_555
H21 C18 1_555 1_555
C19 C16 1_555 1_555
H22 C19 1_555 1_555
H23 C19 1_555 1_555
H24 C19 1_555 1_555
H25 C9 1_555 1_555
H26 C9 1_555 1_555
O3 C34 1_555 1_555
O4 C29 1_555 1_555
N2 C24 1_555 1_555
C20 C21 1_555 1_555
C21 H27 1_555 1_555
C22 C27 1_555 1_555
C23 C20 1_555 1_555
H28 C23 1_555 1_555
C24 H29 1_555 1_555
H30 C24 1_555 1_555
H31 C24 1_555 1_555
C25 H32 1_555 1_555
H33 C25 1_555 1_555
C26 N2 1_555 1_555
H34 C26 1_555 1_555
C27 N2 1_555 1_555
C28 C22 1_555 1_555
H35 C28 1_555 1_555
C29 C30 1_555 1_555
C30 H36 1_555 1_555
H37 C30 1_555 1_555
H38 C30 1_555 1_555
C31 C20 1_555 1_555
H39 C31 1_555 1_555
C32 H40 1_555 1_555
H41 C32 1_555 1_555
H42 C32 1_555 1_555
C33 C31 1_555 1_555
H43 C33 1_555 1_555
C34 C29 1_555 1_555
C35 C22 1_555 1_555
H44 C35 1_555 1_555
C36 C29 1_555 1_555
H45 C36 1_555 1_555
H46 C36 1_555 1_555
H47 C36 1_555 1_555
C37 C33 1_555 1_555
B2 O3 1_555 1_555
C38 C34 1_555 1_555
H48 C38 1_555 1_555
H49 C38 1_555 1_555
H50 C38 1_555 1_555
H51 C37 1_555 1_555
H52 C37 1_555 1_555
O2 B1 1_555 1_555
C3 C4 1_555 1_555
C3 C15 1_555 1_555
C7 C10 1_555 1_555
C8 C15 1_555 1_555
C13 B1 1_555 1_555
C14 C16 1_555 1_555
O4 B2 1_555 1_555
C21 C27 1_555 1_555
C23 C28 1_555 1_555
C25 C31 1_555 1_555
C25 B2 1_555 1_555
C26 C35 1_555 1_555
C32 C34 1_555 1_555

#END
