
#######################################################################
#
#                 Cambridge Crystallographic Data Centre
#                                CCDC 
#
#######################################################################
#
# If this CIF has been generated from an entry in the Cambridge 
# Structural Database, then it will include bibliographic, chemical, 
# crystal, experimental, refinement or atomic coordinate data resulting 
# from the CCDC's data processing and validation procedures.
#
#######################################################################

data_OPEDAP
_chemical_formula_moiety         'C29 H20 O3'
_chemical_name_systematic        
(2-Methyl-5-phenylphenanthro[2,3-d][1,3]dioxol-1-yl)(phenyl)methanone
_symmetry_cell_setting           monoclinic
_symmetry_space_group_name_H-M   'C 2/c'
_symmetry_Int_Tables_number      15
_space_group_name_Hall           '-C 2yn'
loop_
_symmetry_equiv_pos_site_id
_symmetry_equiv_pos_as_xyz
1 x,y,z
2 -x,y,1/2-z
3 1/2+x,1/2+y,z
4 1/2-x,1/2+y,1/2-z
5 -x,-y,-z
6 x,-y,1/2+z
7 1/2-x,1/2-y,-z
8 1/2+x,1/2-y,1/2+z
_cell_length_a                   28.470(5)
_cell_length_b                   8.0437(13)
_cell_length_c                   22.645(4)
_cell_angle_alpha                90
_cell_angle_beta                 123.250(3)
_cell_angle_gamma                90
_cell_volume                     4336.81
_exptl_crystal_colour            colorless
_exptl_crystal_description       prismatic
_cell_formula_units_Z            8
loop_
_atom_site_label
_atom_site_type_symbol
_atom_site_fract_x
_atom_site_fract_y
_atom_site_fract_z
O1 O 0.08549(7) 0.5447(2) 0.50164(8)
O2 O 0.17381(7) 0.0168(2) 0.51149(9)
O3 O 0.22454(7) -0.0723(2) 0.46534(9)
C1 C -0.00782(11) 0.3274(3) 0.43369(14)
H1 H 0.0078 0.3480 0.4814
C2 C -0.05371(13) 0.2245(4) 0.39733(18)
H2 H -0.0694 0.1778 0.4202
C3 C -0.07619(11) 0.1908(4) 0.32772(17)
H3 H -0.1068 0.1194 0.3036
C4 C -0.05404(11) 0.2611(4) 0.29317(14)
H4 H -0.0696 0.2383 0.2457
C5 C -0.00860(10) 0.3656(3) 0.32918(13)
H5 H 0.0063 0.4136 0.3055
C6 C 0.01539(9) 0.4009(3) 0.39982(12)
C7 C 0.06367(10) 0.5170(3) 0.43897(13)
C8 C 0.08139(9) 0.6114(3) 0.39697(11)
C9 C 0.05802(10) 0.7698(3) 0.37647(12)
C10 C 0.06816(10) 0.8645(3) 0.33365(13)
H6 H 0.0529 0.9706 0.3203
C11 C 0.10033(9) 0.8045(3) 0.31062(12)
H7 H 0.1054 0.8689 0.2805
C12 C 0.12582(8) 0.6472(3) 0.33162(11)
C13 C 0.11762(8) 0.5472(3) 0.37698(11)
C14 C 0.14591(8) 0.3861(3) 0.40024(11)
C15 C 0.14425(9) 0.2820(3) 0.44914(12)
H8 H 0.1249 0.3146 0.4695
C16 C 0.17130(9) 0.1333(3) 0.46613(12)
C17 C 0.20147(10) 0.0810(3) 0.43816(13)
C18 C 0.20604(9) 0.1760(3) 0.39323(13)
H9 H 0.2272 0.1413 0.3756
C19 C 0.17759(9) 0.3323(3) 0.37280(12)
C20 C 0.18235(9) 0.4346(3) 0.32533(12)
H10 H 0.2025 0.3946 0.3070
C21 C 0.15891(9) 0.5880(3) 0.30540(12)
C22 C 0.16713(9) 0.6913(3) 0.25728(13)
C23 C 0.20422(10) 0.8230(4) 0.28262(14)
H11 H 0.2242 0.8476 0.3306
C24 C 0.21233(11) 0.9188(4) 0.23866(16)
H12 H 0.2375 1.0072 0.2568
C25 C 0.18304(13) 0.8831(4) 0.16803(17)
H13 H 0.1881 0.9479 0.1379
C26 C 0.14661(13) 0.7528(5) 0.14193(15)
H14 H 0.1270 0.7281 0.0940
C27 C 0.13859(11) 0.6570(4) 0.18631(14)
H15 H 0.1136 0.5682 0.1679
C28 C 0.02099(12) 0.8405(4) 0.39883(14)
H16 H 0.0095 0.9509 0.3802
H17 H 0.0415 0.8442 0.4494
H18 H -0.0116 0.7715 0.3811
C29 C 0.20623(11) -0.1178(3) 0.51029(13)
H19 H 0.2384 -0.1396 0.5576
H20 H 0.1835 -0.2178 0.4927
loop_
_geom_bond_atom_site_label_1
_geom_bond_atom_site_label_2
_geom_bond_site_symmetry_1
_geom_bond_site_symmetry_2
O1 C7 1_555 1_555
O2 C16 1_555 1_555
O3 C17 1_555 1_555
C1 H1 1_555 1_555
C2 C1 1_555 1_555
H2 C2 1_555 1_555
C3 C2 1_555 1_555
H3 C3 1_555 1_555
C4 C3 1_555 1_555
H4 C4 1_555 1_555
C5 C4 1_555 1_555
H5 C5 1_555 1_555
C6 C1 1_555 1_555
C7 C6 1_555 1_555
C8 C7 1_555 1_555
C9 C8 1_555 1_555
C10 C9 1_555 1_555
H6 C10 1_555 1_555
C11 C10 1_555 1_555
H7 C11 1_555 1_555
C12 C11 1_555 1_555
C13 C8 1_555 1_555
C14 C13 1_555 1_555
C15 C14 1_555 1_555
H8 C15 1_555 1_555
C16 C15 1_555 1_555
C17 C16 1_555 1_555
C18 C17 1_555 1_555
H9 C18 1_555 1_555
C19 C14 1_555 1_555
C20 C19 1_555 1_555
H10 C20 1_555 1_555
C21 C12 1_555 1_555
C22 C21 1_555 1_555
C23 C22 1_555 1_555
H11 C23 1_555 1_555
C24 C23 1_555 1_555
H12 C24 1_555 1_555
C25 C24 1_555 1_555
H13 C25 1_555 1_555
C26 C25 1_555 1_555
H14 C26 1_555 1_555
C27 C22 1_555 1_555
H15 C27 1_555 1_555
C28 C9 1_555 1_555
H16 C28 1_555 1_555
H17 C28 1_555 1_555
H18 C28 1_555 1_555
C29 O2 1_555 1_555
H19 C29 1_555 1_555
H20 C29 1_555 1_555
O3 C29 1_555 1_555
C5 C6 1_555 1_555
C12 C13 1_555 1_555
C18 C19 1_555 1_555
C20 C21 1_555 1_555
C26 C27 1_555 1_555

#END
