
#######################################################################
#
#                 Cambridge Crystallographic Data Centre
#                                CCDC 
#
#######################################################################
#
# If this CIF has been generated from an entry in the Cambridge 
# Structural Database, then it will include bibliographic, chemical, 
# crystal, experimental, refinement or atomic coordinate data resulting 
# from the CCDC's data processing and validation procedures.
#
#######################################################################

data_OPELEB
_chemical_compound_source        
'rhizomes of Drynaria fortunei (Kunze) J. Sm. (Polypodiaceae)'
_chemical_name_common            Chiratone
_chemical_formula_moiety         'C30 H50 O2'
_chemical_name_systematic        
2-Hydroxy-3,3,6a,6b,9,9,12a,14b-octamethylicosahydropicen-4(1H)-one
_symmetry_cell_setting           monoclinic
_symmetry_space_group_name_H-M   'C 2'
_symmetry_Int_Tables_number      5
_space_group_name_Hall           'C 2y'
loop_
_symmetry_equiv_pos_site_id
_symmetry_equiv_pos_as_xyz
1 x,y,z
2 -x,y,-z
3 1/2+x,1/2+y,z
4 1/2-x,1/2+y,-z
_cell_length_a                   24.8176(4)
_cell_length_b                   7.37890(10)
_cell_length_c                   15.0036(3)
_cell_angle_alpha                90
_cell_angle_beta                 109.5240(10)
_cell_angle_gamma                90
_cell_volume                     2589.58
_exptl_crystal_colour            colorless
_exptl_crystal_description       block
_chemical_melting_point          '560-562 K'
_cell_formula_units_Z            4
loop_
_atom_site_label
_atom_site_type_symbol
_atom_site_fract_x
_atom_site_fract_y
_atom_site_fract_z
C1 C 0.02884(9) 0.2042(4) -0.14069(14)
H1 H 0.0421 0.0865 -0.1133
H2 H 0.0058 0.2561 -0.1061
C2 C -0.00859(10) 0.1784(4) -0.24401(16)
H3 H 0.0128 0.1130 -0.2772
H4 H -0.0418 0.1065 -0.2468
C3 C -0.02790(9) 0.3585(4) -0.29227(16)
H5 H -0.0535 0.4151 -0.2638
H6 H -0.0496 0.3360 -0.3582
C4 C 0.02023(9) 0.4920(4) -0.28746(14)
C5 C 0.05892(8) 0.5082(3) -0.18155(13)
H7 H 0.0336 0.5587 -0.1497
C6 C 0.10682(9) 0.6467(3) -0.16371(13)
H8 H 0.0922 0.7554 -0.2001
H9 H 0.1368 0.5978 -0.1847
C7 C 0.13169(9) 0.6951(3) -0.05845(13)
H10 H 0.1023 0.7538 -0.0394
H11 H 0.1626 0.7811 -0.0494
C8 C 0.15439(8) 0.5299(3) 0.00571(12)
C9 C 0.10806(8) 0.3771(3) -0.01990(12)
H12 H 0.0763 0.4263 -0.0024
C10 C 0.08108(8) 0.3275(3) -0.12815(13)
C11 C 0.12879(9) 0.2109(3) 0.04426(13)
H13 H 0.0978 0.1239 0.0312
H14 H 0.1598 0.1538 0.0290
C12 C 0.14930(9) 0.2572(3) 0.14954(13)
H15 H 0.1168 0.2930 0.1676
H16 H 0.1661 0.1501 0.1857
C13 C 0.19335(8) 0.4099(3) 0.17384(12)
H17 H 0.2231 0.3689 0.1490
C14 C 0.16776(7) 0.5826(3) 0.11485(12)
C15 C 0.21133(8) 0.7394(3) 0.14313(13)
H18 H 0.2417 0.7154 0.1176
H19 H 0.1924 0.8504 0.1144
C16 C 0.23768(9) 0.7686(3) 0.24930(13)
H20 H 0.2655 0.8660 0.2618
H21 H 0.2081 0.8029 0.2751
C17 C 0.26660(8) 0.5963(3) 0.29638(12)
H22 H 0.2942 0.5633 0.2653
C18 C 0.22501(8) 0.4344(3) 0.28247(12)
C19 C 0.26273(8) 0.2668(3) 0.32020(13)
H23 H 0.2382 0.1612 0.3117
H24 H 0.2873 0.2488 0.2825
C20 C 0.30002(8) 0.2785(3) 0.42419(13)
H25 H 0.2750 0.2696 0.4626
C21 C 0.33485(9) 0.4550(3) 0.45131(13)
C22 C 0.30030(8) 0.6175(3) 0.40056(13)
C23 C 0.05211(11) 0.4359(5) -0.35448(14)
H26 H 0.0273 0.4495 -0.4187
H27 H 0.0638 0.3117 -0.3430
H28 H 0.0852 0.5114 -0.3437
C24 C -0.00807(11) 0.6752(4) -0.32165(17)
H29 H -0.0378 0.6599 -0.3815
H30 H 0.0200 0.7585 -0.3286
H31 H -0.0241 0.7221 -0.2763
C25 C 0.12286(9) 0.2234(4) -0.16501(14)
H32 H 0.1018 0.1542 -0.2197
H33 H 0.1456 0.1432 -0.1166
H34 H 0.1474 0.3076 -0.1817
C26 C 0.20965(8) 0.4680(3) -0.01145(13)
H35 H 0.2065 0.4924 -0.0759
H36 H 0.2150 0.3403 0.0006
H37 H 0.2418 0.5328 0.0302
C27 C 0.11339(9) 0.6512(3) 0.13246(14)
H38 H 0.1236 0.7016 0.1949
H39 H 0.0874 0.5520 0.1267
H40 H 0.0954 0.7427 0.0867
C28 C 0.18467(8) 0.4603(3) 0.33971(13)
H41 H 0.2067 0.4742 0.4054
H42 H 0.1603 0.3563 0.3317
H43 H 0.1618 0.5666 0.3178
C29 C 0.35269(11) 0.4809(4) 0.55873(14)
H44 H 0.3192 0.4974 0.5764
H45 H 0.3768 0.5857 0.5770
H46 H 0.3732 0.3757 0.5901
C30 C 0.38882(9) 0.4482(4) 0.42177(18)
H47 H 0.3781 0.4181 0.3559
H48 H 0.4146 0.3578 0.4585
H49 H 0.4073 0.5643 0.4326
O1 O 0.30061(7) 0.7597(2) 0.44124(10)
O2 O 0.33980(6) 0.1324(2) 0.44949(10)
H50 H 0.3224 0.0362 0.4439
loop_
_geom_bond_atom_site_label_1
_geom_bond_atom_site_label_2
_geom_bond_site_symmetry_1
_geom_bond_site_symmetry_2
C1 H1 1_555 1_555
H2 C1 1_555 1_555
C2 C1 1_555 1_555
H3 C2 1_555 1_555
H4 C2 1_555 1_555
C3 C2 1_555 1_555
H5 C3 1_555 1_555
H6 C3 1_555 1_555
C4 C3 1_555 1_555
C5 C4 1_555 1_555
H7 C5 1_555 1_555
C6 C5 1_555 1_555
H8 C6 1_555 1_555
H9 C6 1_555 1_555
C7 C6 1_555 1_555
H10 C7 1_555 1_555
H11 C7 1_555 1_555
C8 C7 1_555 1_555
C9 C8 1_555 1_555
H12 C9 1_555 1_555
C10 C1 1_555 1_555
C11 C9 1_555 1_555
H13 C11 1_555 1_555
H14 C11 1_555 1_555
C12 C11 1_555 1_555
H15 C12 1_555 1_555
H16 C12 1_555 1_555
C13 C12 1_555 1_555
H17 C13 1_555 1_555
C14 C8 1_555 1_555
C15 C14 1_555 1_555
H18 C15 1_555 1_555
H19 C15 1_555 1_555
C16 C15 1_555 1_555
H20 C16 1_555 1_555
H21 C16 1_555 1_555
C17 C16 1_555 1_555
H22 C17 1_555 1_555
C18 C13 1_555 1_555
C19 C18 1_555 1_555
H23 C19 1_555 1_555
H24 C19 1_555 1_555
C20 C19 1_555 1_555
H25 C20 1_555 1_555
C21 C20 1_555 1_555
C22 C17 1_555 1_555
C23 C4 1_555 1_555
H26 C23 1_555 1_555
H27 C23 1_555 1_555
H28 C23 1_555 1_555
C24 C4 1_555 1_555
H29 C24 1_555 1_555
H30 C24 1_555 1_555
H31 C24 1_555 1_555
C25 C10 1_555 1_555
H32 C25 1_555 1_555
H33 C25 1_555 1_555
H34 C25 1_555 1_555
C26 C8 1_555 1_555
H35 C26 1_555 1_555
H36 C26 1_555 1_555
H37 C26 1_555 1_555
C27 C14 1_555 1_555
H38 C27 1_555 1_555
H39 C27 1_555 1_555
H40 C27 1_555 1_555
C28 C18 1_555 1_555
H41 C28 1_555 1_555
H42 C28 1_555 1_555
H43 C28 1_555 1_555
C29 C21 1_555 1_555
H44 C29 1_555 1_555
H45 C29 1_555 1_555
H46 C29 1_555 1_555
C30 C21 1_555 1_555
H47 C30 1_555 1_555
H48 C30 1_555 1_555
H49 C30 1_555 1_555
O1 C22 1_555 1_555
O2 C20 1_555 1_555
H50 O2 1_555 1_555
C5 C10 1_555 1_555
C9 C10 1_555 1_555
C13 C14 1_555 1_555
C17 C18 1_555 1_555
C21 C22 1_555 1_555

#END
