
#######################################################################
#
#                 Cambridge Crystallographic Data Centre
#                                CCDC 
#
#######################################################################
#
# If this CIF has been generated from an entry in the Cambridge 
# Structural Database, then it will include bibliographic, chemical, 
# crystal, experimental, refinement or atomic coordinate data resulting 
# from the CCDC's data processing and validation procedures.
#
#######################################################################

data_OPESUZ
_chemical_formula_moiety         'C30 H23 N3 O8 S1'
_chemical_name_systematic        
N-(2',5'-bis(3-nitrophenyl)-4',5'-dihydrospiro[1-benzofuran-3,3'-furan]-2-ylidene)-4-methylbenzenesulfonamide
_symmetry_cell_setting           monoclinic
_symmetry_space_group_name_H-M   'P 21/n'
_symmetry_Int_Tables_number      14
_space_group_name_Hall           '-P 2yn'
loop_
_symmetry_equiv_pos_site_id
_symmetry_equiv_pos_as_xyz
1 x,y,z
2 1/2-x,1/2+y,1/2-z
3 -x,-y,-z
4 1/2+x,1/2-y,1/2+z
_cell_length_a                   11.441(2)
_cell_length_b                   15.055(3)
_cell_length_c                   15.927(3)
_cell_angle_alpha                90
_cell_angle_beta                 97.324(4)
_cell_angle_gamma                90
_cell_volume                     2720.95
_exptl_crystal_colour            colorless
_exptl_crystal_description       prismatic
_cell_formula_units_Z            4
loop_
_atom_site_label
_atom_site_type_symbol
_atom_site_fract_x
_atom_site_fract_y
_atom_site_fract_z
S1 S 0.08904(6) 0.38574(5) 0.35020(4)
N1 N 0.21468(19) 0.36554(14) 0.41002(13)
N2 N 0.1895(4) 0.0953(2) 0.2572(2)
N3 N 0.6252(3) 0.4191(2) 0.24257(18)
O1 O 0.11770(16) 0.35933(13) 0.52969(11)
O2 O 0.46289(16) 0.24962(12) 0.47910(12)
O3 O 0.2748(4) 0.1205(2) 0.22606(18)
O4 O 0.1060(3) 0.0575(2) 0.21820(19)
O5 O 0.6903(3) 0.4610(2) 0.20229(17)
O6 O 0.5344(3) 0.38503(19) 0.20986(15)
O7 O 0.01229(19) 0.31118(15) 0.35138(13)
O8 O 0.04509(18) 0.47083(13) 0.36992(13)
C1 C 0.1536(3) 0.34315(18) 0.61665(17)
C2 C 0.0792(3) 0.3447(2) 0.6767(2)
H1 H -0.0006 0.3572 0.6638
C3 C 0.1308(3) 0.3261(2) 0.7587(2)
H2 H 0.0845 0.3268 0.8027
C4 C 0.2488(3) 0.3070(2) 0.77581(19)
H3 H 0.2803 0.2941 0.8312
C5 C 0.3213(3) 0.3063(2) 0.71370(17)
H4 H 0.4011 0.2934 0.7261
C6 C 0.2715(2) 0.32555(18) 0.63131(16)
C7 C 0.3221(2) 0.32656(17) 0.54939(15)
C8 C 0.2144(2) 0.35282(17) 0.48876(16)
C9 C 0.4289(2) 0.38659(19) 0.54001(17)
H5 H 0.4108 0.4282 0.4937
H6 H 0.4525 0.4197 0.5917
C10 C 0.5258(2) 0.32227(19) 0.52196(17)
H7 H 0.5689 0.3014 0.5755
C11 C 0.3681(2) 0.23213(18) 0.52511(16)
H8 H 0.3990 0.2013 0.5774
C12 C 0.2772(3) 0.17390(17) 0.47641(17)
C13 C 0.2794(3) 0.15685(19) 0.39155(17)
H9 H 0.3418 0.1765 0.3643
C14 C 0.1878(3) 0.1103(2) 0.3482(2)
C15 C 0.0943(4) 0.0806(2) 0.3859(3)
H10 H 0.0327 0.0502 0.3546
C16 C 0.0931(4) 0.0964(2) 0.4703(3)
H11 H 0.0304 0.0765 0.4970
C17 C 0.1848(3) 0.1420(2) 0.5158(2)
H12 H 0.1845 0.1514 0.5735
C18 C 0.6107(2) 0.36034(18) 0.46742(17)
C19 C 0.7217(3) 0.3881(2) 0.50318(19)
H13 H 0.7442 0.3814 0.5610
C20 C 0.7993(3) 0.4258(2) 0.4535(2)
H14 H 0.8737 0.4437 0.4782
C21 C 0.7678(3) 0.4370(2) 0.3687(2)
H15 H 0.8194 0.4628 0.3352
C22 C 0.6578(3) 0.40924(19) 0.33411(18)
C23 C 0.5789(3) 0.37147(18) 0.38082(17)
H16 H 0.5051 0.3535 0.3552
C24 C 0.1348(3) 0.3908(2) 0.24919(17)
C25 C 0.2323(3) 0.3484(3) 0.2287(2)
H17 H 0.2825 0.3194 0.2704
C26 C 0.2568(4) 0.3486(3) 0.1460(2)
H18 H 0.3232 0.3190 0.1323
C27 C 0.1842(4) 0.3919(3) 0.0834(2)
C28 C 0.0876(4) 0.4333(3) 0.1058(2)
H19 H 0.0368 0.4620 0.0642
C29 C 0.0622(3) 0.4343(2) 0.1875(2)
H20 H -0.0039 0.4643 0.2011
C30 C 0.2105(4) 0.3907(3) -0.0064(2)
H21 H 0.1413 0.3729 -0.0430
H22 H 0.2731 0.3493 -0.0116
H23 H 0.2341 0.4489 -0.0220
loop_
_geom_bond_atom_site_label_1
_geom_bond_atom_site_label_2
_geom_bond_site_symmetry_1
_geom_bond_site_symmetry_2
S1 N1 1_555 1_555
N1 C8 1_555 1_555
N2 O3 1_555 1_555
N3 O5 1_555 1_555
O1 C1 1_555 1_555
O2 C10 1_555 1_555
O4 N2 1_555 1_555
O6 N3 1_555 1_555
O7 S1 1_555 1_555
O8 S1 1_555 1_555
C1 C2 1_555 1_555
C2 H1 1_555 1_555
C3 C2 1_555 1_555
H2 C3 1_555 1_555
C4 C3 1_555 1_555
H3 C4 1_555 1_555
C5 C4 1_555 1_555
H4 C5 1_555 1_555
C6 C1 1_555 1_555
C7 C6 1_555 1_555
C8 O1 1_555 1_555
C9 C7 1_555 1_555
H5 C9 1_555 1_555
H6 C9 1_555 1_555
C10 C9 1_555 1_555
H7 C10 1_555 1_555
C11 O2 1_555 1_555
H8 C11 1_555 1_555
C12 C11 1_555 1_555
C13 C12 1_555 1_555
H9 C13 1_555 1_555
C14 N2 1_555 1_555
C15 C14 1_555 1_555
H10 C15 1_555 1_555
C16 C15 1_555 1_555
H11 C16 1_555 1_555
C17 C12 1_555 1_555
H12 C17 1_555 1_555
C18 C10 1_555 1_555
C19 C18 1_555 1_555
H13 C19 1_555 1_555
C20 C19 1_555 1_555
H14 C20 1_555 1_555
C21 C20 1_555 1_555
H15 C21 1_555 1_555
C22 N3 1_555 1_555
C23 C18 1_555 1_555
H16 C23 1_555 1_555
C24 S1 1_555 1_555
C25 C24 1_555 1_555
H17 C25 1_555 1_555
C26 C25 1_555 1_555
H18 C26 1_555 1_555
C27 C26 1_555 1_555
C28 C27 1_555 1_555
H19 C28 1_555 1_555
C29 C24 1_555 1_555
H20 C29 1_555 1_555
C30 C27 1_555 1_555
H21 C30 1_555 1_555
H22 C30 1_555 1_555
H23 C30 1_555 1_555
C5 C6 1_555 1_555
C7 C8 1_555 1_555
C7 C11 1_555 1_555
C13 C14 1_555 1_555
C16 C17 1_555 1_555
C21 C22 1_555 1_555
C22 C23 1_555 1_555
C28 C29 1_555 1_555

#END
