
#######################################################################
#
#                 Cambridge Crystallographic Data Centre
#                                CCDC 
#
#######################################################################
#
# If this CIF has been generated from an entry in the Cambridge 
# Structural Database, then it will include bibliographic, chemical, 
# crystal, experimental, refinement or atomic coordinate data resulting 
# from the CCDC's data processing and validation procedures.
#
#######################################################################

data_OPESEJ
_chemical_formula_moiety         'C21 H19 N1 O4 S1'
_chemical_name_systematic        
'N-(5-methoxy-3-methylnaphtho[1,2-b]furan-2-yl)-4-methylbenzenesulfonamide unknown solvate'
_symmetry_cell_setting           triclinic
_symmetry_space_group_name_H-M   'P -1'
_symmetry_Int_Tables_number      2
_space_group_name_Hall           '-P 1'
loop_
_symmetry_equiv_pos_site_id
_symmetry_equiv_pos_as_xyz
1 x,y,z
2 -x,-y,-z
_cell_length_a                   8.1851(9)
_cell_length_b                   11.3028(13)
_cell_length_c                   11.9273(14)
_cell_angle_alpha                79.944(3)
_cell_angle_beta                 72.676(2)
_cell_angle_gamma                78.178(2)
_cell_volume                     1023.4
_exptl_crystal_colour            colorless
_exptl_crystal_description       prismatic
_cell_formula_units_Z            2
loop_
_atom_site_label
_atom_site_type_symbol
_atom_site_fract_x
_atom_site_fract_y
_atom_site_fract_z
S1 S 0.31737(7) 0.18076(6) 0.02372(5)
N1 N 0.2730(3) 0.07133(19) 0.13297(17)
O1 O 0.02890(19) 0.14694(15) 0.27811(13)
O2 O -0.0725(2) 0.17069(19) 0.74940(15)
O3 O 0.1591(2) 0.25821(16) 0.02118(15)
O4 O 0.4140(2) 0.11911(16) -0.07698(14)
C1 C 0.2029(3) 0.0995(2) 0.2486(2)
C2 C 0.2721(3) 0.0823(2) 0.3408(2)
C3 C 0.1325(3) 0.1206(2) 0.4383(2)
C4 C -0.0108(3) 0.1613(2) 0.39564(19)
C5 C -0.1750(3) 0.2097(2) 0.4651(2)
C6 C -0.1881(3) 0.2137(2) 0.5858(2)
C7 C -0.0399(3) 0.1678(2) 0.6300(2)
C8 C 0.1167(3) 0.1239(2) 0.5595(2)
H1 H 0.2119 0.0966 0.5900
C9 C -0.3192(3) 0.2539(3) 0.4211(3)
H2 H -0.3108 0.2503 0.3422
C10 C -0.4728(4) 0.3026(3) 0.4943(3)
H3 H -0.5683 0.3327 0.4647
C11 C -0.4869(4) 0.3073(3) 0.6123(3)
H4 H -0.5919 0.3404 0.6613
C12 C -0.3481(4) 0.2639(3) 0.6569(3)
H5 H -0.3599 0.2677 0.7363
C13 C 0.4556(3) 0.0334(3) 0.3394(2)
H6 H 0.5208 0.0160 0.2611
H7 H 0.4604 -0.0399 0.3936
H8 H 0.5040 0.0927 0.3626
C14 C 0.0665(4) 0.1222(4) 0.8010(3)
H9 H 0.1226 0.0452 0.7736
H10 H 0.0222 0.1110 0.8856
H11 H 0.1486 0.1776 0.7788
C15 C 0.4498(3) 0.2632(2) 0.0594(2)
C16 C 0.3770(3) 0.3600(2) 0.1235(3)
H12 H 0.2572 0.3830 0.1467
C17 C 0.4824(4) 0.4223(3) 0.1530(3)
H13 H 0.4320 0.4875 0.1966
C18 C 0.6597(4) 0.3917(2) 0.1202(2)
C19 C 0.7288(4) 0.2948(3) 0.0557(3)
H14 H 0.8487 0.2726 0.0314
C20 C 0.6271(3) 0.2302(3) 0.0260(3)
H15 H 0.6775 0.1643 -0.0165
C21 C 0.7756(4) 0.4610(3) 0.1506(3)
H16 H 0.7859 0.5352 0.0976
H17 H 0.8882 0.4123 0.1433
H18 H 0.7267 0.4799 0.2305
H19 H 0.353(3) 0.017(2) 0.121(2)
loop_
_geom_bond_atom_site_label_1
_geom_bond_atom_site_label_2
_geom_bond_site_symmetry_1
_geom_bond_site_symmetry_2
S1 N1 1_555 1_555
N1 C1 1_555 1_555
O1 C1 1_555 1_555
O2 C7 1_555 1_555
O3 S1 1_555 1_555
O4 S1 1_555 1_555
C1 C2 1_555 1_555
C2 C3 1_555 1_555
C3 C4 1_555 1_555
C4 O1 1_555 1_555
C5 C4 1_555 1_555
C6 C5 1_555 1_555
C7 C6 1_555 1_555
C8 C3 1_555 1_555
H1 C8 1_555 1_555
C9 C5 1_555 1_555
H2 C9 1_555 1_555
C10 C9 1_555 1_555
H3 C10 1_555 1_555
C11 C10 1_555 1_555
H4 C11 1_555 1_555
C12 C6 1_555 1_555
H5 C12 1_555 1_555
C13 C2 1_555 1_555
H6 C13 1_555 1_555
H7 C13 1_555 1_555
H8 C13 1_555 1_555
C14 O2 1_555 1_555
H9 C14 1_555 1_555
H10 C14 1_555 1_555
H11 C14 1_555 1_555
C15 S1 1_555 1_555
C16 C15 1_555 1_555
H12 C16 1_555 1_555
C17 C16 1_555 1_555
H13 C17 1_555 1_555
C18 C17 1_555 1_555
C19 C18 1_555 1_555
H14 C19 1_555 1_555
C20 C15 1_555 1_555
H15 C20 1_555 1_555
C21 C18 1_555 1_555
H16 C21 1_555 1_555
H17 C21 1_555 1_555
H18 C21 1_555 1_555
H19 N1 1_555 1_555
C7 C8 1_555 1_555
C11 C12 1_555 1_555
C19 C20 1_555 1_555

#END
