
#######################################################################
#
#                 Cambridge Crystallographic Data Centre
#                                CCDC 
#
#######################################################################
#
# If this CIF has been generated from an entry in the Cambridge 
# Structural Database, then it will include bibliographic, chemical, 
# crystal, experimental, refinement or atomic coordinate data resulting 
# from the CCDC's data processing and validation procedures.
#
#######################################################################

data_OPETUA
_chemical_formula_moiety         'C42 H36 B3 N3 O6'
_chemical_name_systematic        
"3,4,7,8,11,12-hexamethoxy-2,6,10-triphenyl-1,2,5,6,9,10-hexahydrobis[1,2]azaborinino[6',5',4',3':4,5;6'',5'',4'',3'':8,9]triphenyleno[1,12-cde][1,2]azaborinine coronene"
_symmetry_cell_setting           triclinic
_symmetry_space_group_name_H-M   'P 1'
_symmetry_Int_Tables_number      1
_space_group_name_Hall           'P 1'
loop_
_symmetry_equiv_pos_site_id
_symmetry_equiv_pos_as_xyz
1 x,y,z
_cell_length_a                   7.3418(2)
_cell_length_b                   15.7880(5)
_cell_length_c                   31.0079(8)
_cell_angle_alpha                83.135(2)
_cell_angle_beta                 87.475(2)
_cell_angle_gamma                89.797(2)
_cell_volume                     3564.96
_exptl_crystal_colour            'light colorless'
_exptl_crystal_description       needle
_cell_formula_units_Z            4
_exptl_crystal_recrystallization_method hexane
_exptl_crystal_preparation       Luminescent
loop_
_atom_site_label
_atom_site_type_symbol
_atom_site_fract_x
_atom_site_fract_y
_atom_site_fract_z
O1 O 0.1737(6) 0.0171(3) 0.76193(14)
O2 O -0.0761(6) 0.0518(3) 0.69581(14)
O3 O 0.7415(5) 0.3435(3) 0.81693(13)
O4 O -0.1689(6) 0.4707(3) 0.59558(14)
O5 O 0.7020(5) 0.5066(3) 0.77638(14)
O6 O 0.0442(6) 0.6017(3) 0.61787(15)
N1 N 0.3861(7) 0.1421(3) 0.78398(16)
H1 H 0.3868 0.0903 0.7962
N2 N -0.1385(7) 0.3102(3) 0.63559(17)
H2 H -0.2153 0.3256 0.6160
N3 N 0.4512(6) 0.5438(3) 0.71568(17)
H3 H 0.5236 0.5806 0.7242
C1 C 0.1038(8) 0.3523(4) 0.67895(19)
C2 C -0.0415(8) 0.4560(4) 0.62712(19)
C3 C -0.5398(9) 0.0658(4) 0.5982(2)
H4 H -0.6264 0.0344 0.5859
C4 C 0.1506(8) 0.0982(4) 0.74024(19)
C5 C 0.5966(8) 0.4409(4) 0.7657(2)
C6 C 0.0239(8) 0.1165(4) 0.70924(19)
C7 C -0.0248(7) 0.3724(4) 0.64762(19)
C8 C 0.0021(8) 0.2003(4) 0.6879(2)
C9 C 0.6118(7) 0.3586(4) 0.78614(19)
C10 C 0.4655(8) 0.4606(4) 0.73454(19)
C11 C 0.5019(7) 0.2917(4) 0.77533(19)
C12 C 0.3683(7) 0.3124(4) 0.74376(19)
C13 C 0.2167(7) 0.4186(4) 0.69026(19)
C14 C 0.3493(8) 0.3973(4) 0.72264(19)
C15 C 0.6494(8) 0.1604(4) 0.8321(2)
C16 C 0.0704(8) 0.5201(4) 0.6377(2)
C17 C 0.1176(7) 0.2661(4) 0.70019(19)
C18 C -0.3568(10) 0.0615(5) 0.5852(2)
H5 H -0.3198 0.0263 0.5645
C19 C 0.2433(9) -0.0442(4) 0.7351(2)
H6 H 0.1572 -0.0522 0.7135
H7 H 0.2626 -0.0975 0.7527
H8 H 0.3567 -0.0241 0.7210
C20 C 0.2479(7) 0.2472(4) 0.73209(19)
C21 C 0.8832(8) 0.5073(4) 0.7568(2)
H9 H 0.8765 0.5068 0.7260
H10 H 0.9481 0.4578 0.7689
H11 H 0.9460 0.5578 0.7624
C22 C 0.8392(8) 0.1607(4) 0.8236(2)
H12 H 0.8868 0.1892 0.7976
C23 C 0.2603(7) 0.1631(4) 0.75266(18)
C24 C 0.3467(9) 0.6724(4) 0.6680(2)
C25 C 0.2019(8) 0.5039(4) 0.6693(2)
C26 C -0.5908(9) 0.1171(5) 0.6293(2)
H13 H -0.7125 0.1189 0.6388
C27 C -0.2795(8) 0.1632(4) 0.6344(2)
C28 C 0.5219(10) 0.7090(4) 0.6607(2)
H14 H 0.6232 0.6734 0.6624
C29 C 0.5871(9) 0.1173(4) 0.8725(2)
H15 H 0.4626 0.1157 0.8795
C30 C 0.9569(9) 0.1199(4) 0.8529(2)
H16 H 1.0817 0.1208 0.8462
C31 C 0.1998(11) 0.7290(4) 0.6656(2)
H17 H 0.0817 0.7076 0.6700
C32 C -0.2195(9) 0.0183(5) 0.7264(2)
H18 H -0.2857 -0.0248 0.7143
H19 H -0.3010 0.0635 0.7324
H20 H -0.1672 -0.0061 0.7529
C33 C 0.5481(12) 0.7957(5) 0.6511(2)
H21 H 0.6656 0.8173 0.6457
C34 C 0.6733(8) 0.3605(4) 0.8596(2)
H22 H 0.6272 0.4177 0.8579
H23 H 0.7703 0.3539 0.8795
H24 H 0.5771 0.3210 0.8697
C35 C -0.4633(9) 0.1665(4) 0.6468(2)
H25 H -0.5016 0.2024 0.6671
C36 C 0.4012(14) 0.8506(5) 0.6495(2)
H26 H 0.4186 0.9092 0.6435
C37 C 0.2258(13) 0.8162(5) 0.6570(3)
H27 H 0.1255 0.8524 0.6561
C38 C -0.2295(9) 0.1097(4) 0.6032(2)
H28 H -0.1074 0.1064 0.5943
C39 C -0.3352(8) 0.5057(5) 0.6113(2)
H29 H -0.4317 0.4951 0.5928
H30 H -0.3211 0.5661 0.6115
H31 H -0.3646 0.4794 0.6403
C40 C 0.8900(10) 0.0774(5) 0.8923(2)
H32 H 0.9687 0.0493 0.9119
C41 C 0.7029(9) 0.0778(4) 0.9017(2)
H33 H 0.6563 0.0509 0.9282
C42 C 0.1302(9) 0.6166(4) 0.5751(2)
H34 H 0.0828 0.5772 0.5571
H35 H 0.2595 0.6086 0.5770
H36 H 0.1060 0.6739 0.5626
B1 B 0.3284(9) 0.5738(4) 0.6837(2)
B2 B 0.5138(8) 0.1993(4) 0.7974(2)
B3 B -0.1378(9) 0.2231(5) 0.6532(2)
O7 O 0.3210(6) 0.2933(3) 0.94076(15)
O8 O 0.5146(5) 0.9092(3) 0.87081(14)
O9 O 0.0922(5) 0.3901(3) 0.88372(14)
O10 O 1.0582(5) 0.6731(3) 1.02347(14)
O11 O 0.2300(5) 0.8346(3) 0.83468(14)
N4 N 0.7154(6) 0.4228(3) 1.00929(16)
H37 H 0.7800 0.3984 1.0297
N5 N 0.1285(6) 0.5616(3) 0.86880(16)
H38 H 0.0447 0.5331 0.8584
O12 O 0.9819(5) 0.5019(3) 1.04686(14)
C43 C 0.7464(7) 0.5082(4) 0.99608(18)
C44 C 0.2422(8) 0.5162(4) 0.89711(19)
N6 N 0.7188(6) 0.8199(3) 0.93033(16)
H39 H 0.7307 0.8738 0.9224
C45 C 0.4055(7) 0.6494(4) 0.90500(19)
C46 C 0.2244(7) 0.4277(4) 0.90540(19)
C47 C 1.0053(8) 0.6995(5) 1.0649(2)
H40 H 0.9014 0.7364 1.0618
H41 H 1.1046 0.7294 1.0754
H42 H 0.9746 0.6502 1.0851
C48 C 0.8870(7) 0.5494(4) 1.01564(19)
C49 C 0.9182(7) 0.6355(4) 1.00399(18)
C50 C 0.5517(7) 0.6905(4) 0.92485(19)
C51 C 0.9843(7) 0.8450(4) 0.97569(19)
C52 C 0.3349(8) 0.3807(4) 0.93448(19)
C53 C 0.4707(7) 0.4205(4) 0.95587(19)
C54 C 0.6682(7) 0.6428(4) 0.95474(18)
C55 C 0.3821(7) 0.5591(4) 0.91644(18)
C56 C 0.5798(8) 0.7777(4) 0.91245(19)
C57 C 0.5670(7) 0.2772(4) 1.01472(19)
C58 C 0.4723(8) 0.8241(4) 0.8820(2)
C59 C 1.2956(9) 0.8952(5) 0.9811(2)
H43 H 1.4205 0.8865 0.9779
C60 C 0.8140(7) 0.6849(4) 0.97360(19)
C61 C 1.1623(8) 0.4812(5) 1.0322(2)
H44 H 1.1559 0.4480 1.0083
H45 H 1.2228 0.4487 1.0556
H46 H 1.2293 0.5327 1.0230
C62 C 0.4942(7) 0.5102(4) 0.94554(19)
C63 C -0.1142(10) 0.7604(4) 0.7545(2)
H47 H -0.0868 0.7937 0.7282
C64 C 1.1753(8) 0.8326(4) 0.9721(2)
H48 H 1.2207 0.7817 0.9637
C65 C -0.0116(8) 0.6851(4) 0.8227(2)
C66 C 0.5391(8) 0.1124(4) 1.0606(2)
H49 H 0.5291 0.0578 1.0755
C67 C 1.2312(9) 0.9707(5) 0.9949(2)
H50 H 1.3124 1.0124 1.0008
C68 C 0.2909(7) 0.6970(4) 0.87519(18)
C69 C 0.1673(8) 0.3461(4) 0.8487(2)
H51 H 0.2461 0.3841 0.8300
H52 H 0.0700 0.3276 0.8324
H53 H 0.2356 0.2975 0.8606
B4 B 0.5855(9) 0.3725(4) 0.9918(2)
C70 C 0.6388(7) 0.5537(4) 0.96564(18)
C71 C 0.3314(7) 0.7857(4) 0.86465(19)
C72 C 0.9248(7) 0.9213(4) 0.98981(19)
H54 H 0.8002 0.9311 0.9928
C73 C 0.0256(9) 0.7348(4) 0.7825(2)
H55 H 0.1452 0.7508 0.7743
C74 C -0.1953(8) 0.6609(4) 0.8320(2)
H56 H -0.2246 0.6264 0.8578
C75 C 0.6174(8) 0.2061(4) 0.9949(2)
H57 H 0.6583 0.2131 0.9659
C76 C 0.5005(8) 0.2644(4) 1.0583(2)
H58 H 0.4654 0.3111 1.0723
C77 C 0.6082(9) 0.1249(4) 1.0174(2)
H59 H 0.6480 0.0784 1.0037
C78 C 1.0457(9) 0.9835(4) 0.9996(2)
H60 H 1.0014 1.0334 1.0094
C79 C 0.1535(10) 0.2592(5) 0.9605(3)
H61 H 0.0577 0.2706 0.9406
H62 H 0.1248 0.2854 0.9864
H63 H 0.1655 0.1987 0.9680
C80 C 0.4865(8) 0.1822(5) 1.0808(2)
H64 H 0.4415 0.1747 1.1095
C81 C 0.6043(9) 0.9252(4) 0.8281(2)
H65 H 0.5147 0.9283 0.8064
H66 H 0.6879 0.8797 0.8240
H67 H 0.6698 0.9782 0.8257
C82 C 0.1035(9) 0.8899(5) 0.8533(2)
H68 H 0.0508 0.9276 0.8306
H69 H 0.1654 0.9228 0.8723
H70 H 0.0089 0.8566 0.8696
C83 C -0.3331(8) 0.6860(4) 0.8046(2)
H71 H -0.4526 0.6691 0.8122
C84 C -0.2933(9) 0.7365(4) 0.7657(2)
H72 H -0.3860 0.7542 0.7472
B5 B 0.8411(8) 0.7814(4) 0.9603(2)
B6 B 0.1347(9) 0.6504(5) 0.8549(2)
O13 O 0.0237(5) 0.8023(3) 0.26196(14)
O14 O 0.2743(5) 0.7321(3) 0.20540(15)
O15 O 0.4442(5) 1.3160(3) 0.27372(14)
O16 O 0.1446(6) 1.2245(3) 0.31012(14)
O17 O 0.9737(5) 0.9887(3) 0.09876(13)
O18 O 1.0416(5) 1.1488(3) 0.12185(14)
N7 N 0.6931(7) 0.8928(3) 0.13659(16)
H73 H 0.7654 0.8778 0.1163
N8 N 0.0554(6) 0.9674(3) 0.27629(17)
H74 H -0.0327 0.9344 0.2867
N9 N 0.6681(6) 1.2535(3) 0.21429(17)
H75 H 0.6766 1.3037 0.2222
C85 C 0.1652(7) 0.8498(4) 0.24043(19)
C86 C 0.9510(8) 1.3001(4) 0.16926(18)
C87 C 0.7193(7) 0.9717(4) 0.14955(18)
C88 C 0.5995(7) 1.0042(4) 0.17989(18)
C89 C -0.1026(7) 1.0701(4) 0.32232(19)
C90 C 0.5855(8) 0.5988(4) 0.1284(2)
H76 H 0.6188 0.5458 0.1422
C91 C 0.1794(7) 0.9352(4) 0.24831(18)
C92 C 0.4897(8) 0.6858(5) 0.0656(2)
H77 H 0.4549 0.6921 0.0369
C93 C 0.8936(8) 1.3830(4) 0.1558(2)
H78 H 0.7697 1.3937 0.1530
C94 C 0.0278(9) 1.2904(5) 0.2920(2)
H79 H 0.0991 1.3329 0.2740
H80 H -0.0349 1.3160 0.3149
H81 H -0.0596 1.2666 0.2746
C95 C 0.4050(7) 1.2367(4) 0.26217(19)
C96 C 0.4965(8) 0.7567(4) 0.0877(2)
H82 H 0.4677 0.8099 0.0734
C97 C 1.0030(8) 1.1941(4) 0.0807(2)
H83 H 0.9820 1.1541 0.0604
H84 H 1.1046 1.2300 0.0702
H85 H 0.8962 1.2285 0.0837
C98 C 1.2611(9) 1.3538(5) 0.1637(2)
H86 H 1.3853 1.3437 0.1662
C99 C 0.0857(8) 0.7435(4) 0.2976(2)
H87 H 0.1671 0.7028 0.2866
H88 H -0.0172 0.7143 0.3127
H89 H 0.1484 0.7745 0.3173
C100 C 0.5882(8) 0.6688(4) 0.1509(2)
H90 H 0.6191 0.6617 0.1798
C101 C 0.2544(8) 1.1896(4) 0.2801(2)
C102 C 1.1493(8) 0.9617(5) 0.1136(2)
H91 H 1.2208 0.9424 0.0900
H92 H 1.1346 0.9159 0.1368
H93 H 1.2100 1.0086 0.1238
C103 C 1.2031(9) 1.4348(4) 0.1510(2)
H94 H 1.2866 1.4794 0.1457
C104 C -0.2813(8) 1.0497(4) 0.3126(2)
H95 H -0.3009 1.0274 0.2867
C105 C 0.5337(8) 0.6061(5) 0.0854(2)
H96 H 0.5289 0.5584 0.0705
C106 C 0.5459(7) 0.7504(4) 0.1313(2)
C107 C 0.2855(7) 0.8159(4) 0.21148(19)
C108 C 0.1130(10) 0.7065(5) 0.1854(3)
H97 H 0.0890 0.7468 0.1606
H98 H 0.0111 0.7047 0.2060
H99 H 0.1315 0.6510 0.1763
C109 C 0.4496(7) 0.9507(4) 0.19980(18)
C110 C 0.6276(8) 1.0874(4) 0.19038(18)
C111 C 0.3261(7) 0.9866(4) 0.22908(18)
C112 C 1.1401(8) 1.2859(4) 0.1729(2)
H100 H 1.1834 1.2313 0.1814
C113 C 0.8932(7) 1.1027(4) 0.14109(18)
C114 C 0.5233(8) 1.2030(4) 0.23191(19)
C115 C 0.4974(7) 1.1216(4) 0.22021(19)
C116 C 0.8673(7) 1.0220(4) 0.13045(19)
C117 C 0.4308(7) 0.8661(4) 0.18991(19)
C118 C 0.2210(8) 1.1065(4) 0.26965(19)
C119 C 0.7793(7) 1.1380(4) 0.17188(19)
C120 C -0.0803(8) 1.1009(4) 0.3619(2)
H101 H 0.0365 1.1133 0.3698
C121 C 1.0167(9) 1.4502(4) 0.1463(2)
H102 H 0.9756 1.5048 0.1368
C122 C 0.3460(7) 1.0721(4) 0.23941(18)
C123 C -0.4301(8) 1.0621(4) 0.3409(2)
H103 H -0.5471 1.0481 0.3337
C124 C 0.5172(8) 1.3117(4) 0.3155(2)
H104 H 0.5729 1.3653 0.3188
H105 H 0.6071 1.2673 0.3185
H106 H 0.4212 1.2995 0.3373
C125 C -0.4039(9) 1.0945(4) 0.3789(2)
H107 H -0.5032 1.1038 0.3975
C126 C -0.2285(9) 1.1138(4) 0.3900(2)
H108 H -0.2102 1.1353 0.4161
B7 B 0.0587(9) 1.0497(4) 0.2896(2)
B8 B 0.8029(8) 1.2291(4) 0.1843(2)
B9 B 0.5563(9) 0.8341(4) 0.1540(2)
O19 O 0.0916(6) 0.3635(3) 0.38488(14)
O20 O -0.3650(6) 0.7326(3) 0.54762(14)
O21 O -0.1986(6) 0.3641(3) 0.44613(14)
O22 O 0.6472(5) 0.7261(3) 0.33045(14)
O23 O 0.5749(5) 0.8701(3) 0.37034(14)
O24 O -0.1416(6) 0.8734(3) 0.53087(15)
N10 N -0.3190(6) 0.5962(3) 0.50302(16)
H109 H -0.4126 0.6030 0.5199
N11 N 0.3012(6) 0.5023(3) 0.36331(17)
H110 H 0.3132 0.4558 0.3516
N12 N 0.2958(7) 0.8745(3) 0.42961(17)
H111 H 0.3665 0.9170 0.4209
C127 C -0.4472(8) 0.4474(4) 0.50686(19)
C128 C -0.0959(7) 0.4372(4) 0.43514(18)
C129 C 0.0506(8) 0.4335(4) 0.40548(19)
C130 C 0.1586(10) 0.9786(4) 0.4770(2)
C131 C -0.5280(9) 0.3130(4) 0.5502(2)
H112 H -0.4932 0.2603 0.5640
C132 C -0.2286(7) 0.7369(4) 0.51502(19)
C133 C 0.1443(9) 0.2898(4) 0.4132(2)
H113 H 0.1970 0.2482 0.3962
H114 H 0.0390 0.2658 0.4296
H115 H 0.2322 0.3060 0.4327
C134 C -0.1112(7) 0.8063(4) 0.50709(19)
C135 C 0.3345(13) 1.0993(5) 0.4945(2)
H116 H 0.4468 1.1235 0.4986
C136 C 0.0031(10) 1.0270(4) 0.4827(2)
H117 H -0.1099 1.0036 0.4784
C137 C 0.0619(7) 0.7337(4) 0.45419(19)
C138 C 0.1598(7) 0.5069(4) 0.39412(19)
C139 C -0.5162(8) 0.7879(4) 0.5373(2)
H118 H -0.5705 0.7727 0.5117
H119 H -0.4744 0.8459 0.5322
H120 H -0.6050 0.7820 0.5611
C140 C -0.6306(8) 0.4688(4) 0.5080(2)
H121 H -0.6669 0.5211 0.4940
C141 C 0.3949(7) 0.6506(4) 0.37099(19)
C142 C 0.2112(7) 0.7287(4) 0.42237(19)
C143 C 0.4724(8) 0.7967(4) 0.3806(2)
C144 C -0.0537(7) 0.6607(4) 0.46343(18)
C145 C -0.0214(7) 0.5840(4) 0.44387(18)
C146 C 0.3263(7) 0.8005(4) 0.41131(19)
C147 C 0.2462(7) 0.6547(4) 0.40191(19)
C148 C 0.1266(7) 0.5815(4) 0.41284(18)
C149 C -0.3976(8) 0.3678(4) 0.5282(2)
H122 H -0.2758 0.3514 0.5276
C150 C 0.5785(8) 0.5483(4) 0.3148(2)
C151 C 0.8457(9) 0.4977(4) 0.2554(2)
H123 H 0.9340 0.4806 0.2359
C152 C -0.1357(7) 0.5104(4) 0.45499(19)
C153 C -0.2020(7) 0.6651(4) 0.49368(19)
C154 C 0.7502(8) 0.8642(4) 0.3895(2)
H124 H 0.8195 0.8192 0.3784
H125 H 0.7340 0.8522 0.4205
H126 H 0.8143 0.9173 0.3823
C155 C 0.0330(8) 0.8082(4) 0.47493(19)
C156 C 0.5027(7) 0.7252(4) 0.36097(19)
C157 C 0.3265(11) 1.0178(4) 0.4828(2)
H127 H 0.4342 0.9882 0.4786
C158 C 0.5955(8) 0.7628(4) 0.2881(2)
H128 H 0.7020 0.7701 0.2689
H129 H 0.5392 0.8172 0.2902
H130 H 0.5109 0.7255 0.2769
C159 C 0.7629(8) 0.5453(4) 0.3242(2)
H131 H 0.7986 0.5606 0.3506
C160 C -0.3284(9) 0.3499(5) 0.4148(3)
H132 H -0.2658 0.3428 0.3876
H133 H -0.4091 0.3979 0.4109
H134 H -0.3976 0.2993 0.4249
C161 C -0.7091(9) 0.3369(4) 0.5514(2)
H135 H -0.7953 0.3009 0.5670
C162 C 0.8938(8) 0.5198(4) 0.2948(2)
H136 H 1.0156 0.5176 0.3019
C163 C -0.7626(8) 0.4134(4) 0.5299(2)
H137 H -0.8852 0.4284 0.5297
C164 C 0.1775(14) 1.1449(5) 0.5001(2)
H138 H 0.1835 1.2000 0.5078
C165 C 0.0105(13) 1.1088(5) 0.4943(3)
H139 H -0.0963 1.1392 0.4983
C166 C 0.6605(10) 0.5013(4) 0.2450(2)
H140 H 0.6255 0.4871 0.2183
C167 C 0.5313(9) 0.5260(4) 0.2749(2)
H141 H 0.4093 0.5278 0.2679
C168 C -0.0369(9) 0.8673(4) 0.5688(2)
H142 H 0.0904 0.8717 0.5604
H143 H -0.0604 0.8135 0.5860
H144 H -0.0703 0.9127 0.5856
B10 B -0.3000(8) 0.5162(4) 0.4876(2)
B11 B 0.4274(9) 0.5692(4) 0.3498(2)
B12 B 0.1583(10) 0.8866(4) 0.4614(2)
loop_
_geom_bond_atom_site_label_1
_geom_bond_atom_site_label_2
_geom_bond_site_symmetry_1
_geom_bond_site_symmetry_2
O1 C4 1_555 1_555
O2 C6 1_555 1_555
O3 C9 1_555 1_555
O4 C2 1_555 1_555
O5 C5 1_555 1_555
O6 C16 1_555 1_555
N1 H1 1_555 1_555
N2 H2 1_555 1_555
N3 H3 1_555 1_555
C1 C7 1_555 1_555
C2 C7 1_555 1_555
C3 H4 1_555 1_555
C4 C6 1_555 1_555
C5 C9 1_555 1_555
C6 C8 1_555 1_555
C7 N2 1_555 1_555
C8 C17 1_555 1_555
C9 C11 1_555 1_555
C10 N3 1_555 1_555
C11 C12 1_555 1_555
C12 C14 1_555 1_555
C13 C1 1_555 1_555
C14 C10 1_555 1_555
C15 C22 1_555 1_555
C16 C2 1_555 1_555
C17 C1 1_555 1_555
C18 C3 1_555 1_555
H5 C18 1_555 1_555
C19 O1 1_555 1_555
H6 C19 1_555 1_555
H7 C19 1_555 1_555
H8 C19 1_555 1_555
C20 C12 1_555 1_555
C21 O5 1_555 1_555
H9 C21 1_555 1_555
H10 C21 1_555 1_555
H11 C21 1_555 1_555
C22 H12 1_555 1_555
C23 N1 1_555 1_555
C24 C28 1_555 1_555
C25 C13 1_555 1_555
C26 C3 1_555 1_555
H13 C26 1_555 1_555
C27 C35 1_555 1_555
C28 H14 1_555 1_555
C29 C15 1_555 1_555
H15 C29 1_555 1_555
C30 C22 1_555 1_555
H16 C30 1_555 1_555
C31 C24 1_555 1_555
H17 C31 1_555 1_555
C32 O2 1_555 1_555
H18 C32 1_555 1_555
H19 C32 1_555 1_555
H20 C32 1_555 1_555
C33 C28 1_555 1_555
H21 C33 1_555 1_555
C34 O3 1_555 1_555
H22 C34 1_555 1_555
H23 C34 1_555 1_555
H24 C34 1_555 1_555
C35 C26 1_555 1_555
H25 C35 1_555 1_555
C36 C33 1_555 1_555
H26 C36 1_555 1_555
C37 C31 1_555 1_555
H27 C37 1_555 1_555
C38 C18 1_555 1_555
H28 C38 1_555 1_555
C39 O4 1_555 1_555
H29 C39 1_555 1_555
H30 C39 1_555 1_555
H31 C39 1_555 1_555
C40 C30 1_555 1_555
H32 C40 1_555 1_555
C41 C29 1_555 1_555
H33 C41 1_555 1_555
C42 O6 1_555 1_555
H34 C42 1_555 1_555
H35 C42 1_555 1_555
H36 C42 1_555 1_555
B1 N3 1_555 1_555
B2 N1 1_555 1_555
B3 N2 1_555 1_555
O7 C52 1_555 1_555
O8 C58 1_555 1_555
O9 C46 1_555 1_555
O10 C47 1_555 1_555
O11 C71 1_555 1_555
N4 H37 1_555 1_555
N5 H38 1_555 1_555
O12 C48 1_555 1_555
C43 N4 1_555 1_555
C44 N5 1_555 1_555
N6 H39 1_555 1_555
C45 C50 1_555 1_555
C46 C44 1_555 1_555
C47 H40 1_555 1_555
H41 C47 1_555 1_555
H42 C47 1_555 1_555
C48 C43 1_555 1_555
C49 O10 1_555 1_555
C50 C54 1_555 1_555
C51 C64 1_555 1_555
C52 C46 1_555 1_555
C53 C52 1_555 1_555
C54 C60 1_555 1_555
C55 C44 1_555 1_555
C56 N6 1_555 1_555
C57 B4 1_555 1_555
C58 C56 1_555 1_555
C59 H43 1_555 1_555
C60 C49 1_555 1_555
C61 O12 1_555 1_555
H44 C61 1_555 1_555
H45 C61 1_555 1_555
H46 C61 1_555 1_555
C62 C53 1_555 1_555
C63 H47 1_555 1_555
C64 C59 1_555 1_555
H48 C64 1_555 1_555
C65 C73 1_555 1_555
C66 H49 1_555 1_555
C67 C59 1_555 1_555
H50 C67 1_555 1_555
C68 C45 1_555 1_555
C69 O9 1_555 1_555
H51 C69 1_555 1_555
H52 C69 1_555 1_555
H53 C69 1_555 1_555
B4 N4 1_555 1_555
C70 C43 1_555 1_555
C71 C58 1_555 1_555
C72 C51 1_555 1_555
H54 C72 1_555 1_555
C73 C63 1_555 1_555
H55 C73 1_555 1_555
C74 C65 1_555 1_555
H56 C74 1_555 1_555
C75 C57 1_555 1_555
H57 C75 1_555 1_555
C76 C57 1_555 1_555
H58 C76 1_555 1_555
C77 C66 1_555 1_555
H59 C77 1_555 1_555
C78 C67 1_555 1_555
H60 C78 1_555 1_555
C79 O7 1_555 1_555
H61 C79 1_555 1_555
H62 C79 1_555 1_555
H63 C79 1_555 1_555
C80 C66 1_555 1_555
H64 C80 1_555 1_555
C81 O8 1_555 1_555
H65 C81 1_555 1_555
H66 C81 1_555 1_555
H67 C81 1_555 1_555
C82 O11 1_555 1_555
H68 C82 1_555 1_555
H69 C82 1_555 1_555
H70 C82 1_555 1_555
C83 C74 1_555 1_555
H71 C83 1_555 1_555
C84 C63 1_555 1_555
H72 C84 1_555 1_555
B5 N6 1_555 1_555
B6 N5 1_555 1_555
O13 C85 1_555 1_555
O14 C107 1_555 1_555
O15 C95 1_555 1_555
O16 C94 1_555 1_555
O17 C102 1_555 1_555
O18 C97 1_555 1_555
N7 H73 1_555 1_555
N8 H74 1_555 1_555
N9 H75 1_555 1_555
C85 C91 1_555 1_555
C86 C93 1_555 1_555
C87 N7 1_555 1_555
C88 C87 1_555 1_555
C89 C104 1_555 1_555
C90 H76 1_555 1_555
C91 N8 1_555 1_555
C92 H77 1_555 1_555
C93 H78 1_555 1_555
C94 H79 1_555 1_555
H80 C94 1_555 1_555
H81 C94 1_555 1_555
C95 C101 1_555 1_555
C96 C92 1_555 1_555
H82 C96 1_555 1_555
C97 H83 1_555 1_555
H84 C97 1_555 1_555
H85 C97 1_555 1_555
C98 H86 1_555 1_555
C99 O13 1_555 1_555
H87 C99 1_555 1_555
H88 C99 1_555 1_555
H89 C99 1_555 1_555
C100 C90 1_555 1_555
H90 C100 1_555 1_555
C101 O16 1_555 1_555
C102 H91 1_555 1_555
H92 C102 1_555 1_555
H93 C102 1_555 1_555
C103 C98 1_555 1_555
H94 C103 1_555 1_555
C104 H95 1_555 1_555
C105 C90 1_555 1_555
H96 C105 1_555 1_555
C106 C96 1_555 1_555
C107 C85 1_555 1_555
C108 O14 1_555 1_555
H97 C108 1_555 1_555
H98 C108 1_555 1_555
H99 C108 1_555 1_555
C109 C88 1_555 1_555
C110 C88 1_555 1_555
C111 C91 1_555 1_555
C112 C86 1_555 1_555
H100 C112 1_555 1_555
C113 O18 1_555 1_555
C114 N9 1_555 1_555
C115 C110 1_555 1_555
C116 O17 1_555 1_555
C117 C107 1_555 1_555
C118 C101 1_555 1_555
C119 C110 1_555 1_555
C120 C89 1_555 1_555
H101 C120 1_555 1_555
C121 C93 1_555 1_555
H102 C121 1_555 1_555
C122 C111 1_555 1_555
C123 C104 1_555 1_555
H103 C123 1_555 1_555
C124 O15 1_555 1_555
H104 C124 1_555 1_555
H105 C124 1_555 1_555
H106 C124 1_555 1_555
C125 C123 1_555 1_555
H107 C125 1_555 1_555
C126 C120 1_555 1_555
H108 C126 1_555 1_555
B7 N8 1_555 1_555
B8 N9 1_555 1_555
B9 N7 1_555 1_555
O19 C129 1_555 1_555
O20 C132 1_555 1_555
O21 C128 1_555 1_555
O22 C156 1_555 1_555
O23 C143 1_555 1_555
O24 C134 1_555 1_555
N10 H109 1_555 1_555
N11 H110 1_555 1_555
N12 H111 1_555 1_555
C127 C140 1_555 1_555
C128 C129 1_555 1_555
C129 C138 1_555 1_555
C130 C136 1_555 1_555
C131 H112 1_555 1_555
C132 C134 1_555 1_555
C133 O19 1_555 1_555
H113 C133 1_555 1_555
H114 C133 1_555 1_555
H115 C133 1_555 1_555
C134 C155 1_555 1_555
C135 H116 1_555 1_555
C136 H117 1_555 1_555
C137 C142 1_555 1_555
C138 N11 1_555 1_555
C139 O20 1_555 1_555
H118 C139 1_555 1_555
H119 C139 1_555 1_555
H120 C139 1_555 1_555
C140 H121 1_555 1_555
C141 C147 1_555 1_555
C142 C146 1_555 1_555
C143 C146 1_555 1_555
C144 C137 1_555 1_555
C145 C144 1_555 1_555
C146 N12 1_555 1_555
C147 C142 1_555 1_555
C148 C138 1_555 1_555
C149 C127 1_555 1_555
H122 C149 1_555 1_555
C150 C159 1_555 1_555
C151 H123 1_555 1_555
C152 C128 1_555 1_555
C153 N10 1_555 1_555
C154 O23 1_555 1_555
H124 C154 1_555 1_555
H125 C154 1_555 1_555
H126 C154 1_555 1_555
C155 C137 1_555 1_555
C156 C141 1_555 1_555
C157 C130 1_555 1_555
H127 C157 1_555 1_555
C158 O22 1_555 1_555
H128 C158 1_555 1_555
H129 C158 1_555 1_555
H130 C158 1_555 1_555
C159 H131 1_555 1_555
C160 O21 1_555 1_555
H132 C160 1_555 1_555
H133 C160 1_555 1_555
H134 C160 1_555 1_555
C161 C131 1_555 1_555
H135 C161 1_555 1_555
C162 C151 1_555 1_555
H136 C162 1_555 1_555
C163 C140 1_555 1_555
H137 C163 1_555 1_555
C164 C135 1_555 1_555
H138 C164 1_555 1_555
C165 C136 1_555 1_555
H139 C165 1_555 1_555
C166 C151 1_555 1_555
H140 C166 1_555 1_555
C167 C150 1_555 1_555
H141 C167 1_555 1_555
C168 O24 1_555 1_555
H142 C168 1_555 1_555
H143 C168 1_555 1_555
H144 C168 1_555 1_555
B10 N10 1_555 1_555
B11 N11 1_555 1_555
B12 N12 1_555 1_555
C4 C23 1_555 1_555
C5 C10 1_555 1_555
C8 B3 1_555 1_555
C11 B2 1_555 1_555
C13 C14 1_555 1_555
C15 B2 1_555 1_555
C16 C25 1_555 1_555
C17 C20 1_555 1_555
C20 C23 1_555 1_555
C24 B1 1_555 1_555
C25 B1 1_555 1_555
C27 C38 1_555 1_555
C27 B3 1_555 1_555
C36 C37 1_555 1_555
C40 C41 1_555 1_555
C45 C55 1_555 1_555
C48 C49 1_555 1_555
C50 C56 1_555 1_555
C51 B5 1_555 1_555
C53 B4 1_555 1_555
C54 C70 1_555 1_555
C55 C62 1_555 1_555
C60 B5 1_555 1_555
C62 C70 1_555 1_555
C65 B6 1_555 1_555
C68 C71 1_555 1_555
C68 B6 1_555 1_555
C72 C78 1_555 1_555
C75 C77 1_555 1_555
C76 C80 1_555 1_555
C83 C84 1_555 1_555
C86 B8 1_555 1_555
C87 C116 1_555 1_555
C89 B7 1_555 1_555
C92 C105 1_555 1_555
C95 C114 1_555 1_555
C98 C112 1_555 1_555
C100 C106 1_555 1_555
C103 C121 1_555 1_555
C106 B9 1_555 1_555
C109 C111 1_555 1_555
C109 C117 1_555 1_555
C113 C116 1_555 1_555
C113 C119 1_555 1_555
C114 C115 1_555 1_555
C115 C122 1_555 1_555
C117 B9 1_555 1_555
C118 C122 1_555 1_555
C118 B7 1_555 1_555
C119 B8 1_555 1_555
C125 C126 1_555 1_555
C127 B10 1_555 1_555
C130 B12 1_555 1_555
C131 C149 1_555 1_555
C132 C153 1_555 1_555
C135 C157 1_555 1_555
C141 B11 1_555 1_555
C143 C156 1_555 1_555
C144 C153 1_555 1_555
C145 C148 1_555 1_555
C145 C152 1_555 1_555
C147 C148 1_555 1_555
C150 B11 1_555 1_555
C152 B10 1_555 1_555
C155 B12 1_555 1_555
C159 C162 1_555 1_555
C161 C163 1_555 1_555
C164 C165 1_555 1_555
C166 C167 1_555 1_555

#END
