
#######################################################################
#
#                 Cambridge Crystallographic Data Centre
#                                CCDC 
#
#######################################################################
#
# If this CIF has been generated from an entry in the Cambridge 
# Structural Database, then it will include bibliographic, chemical, 
# crystal, experimental, refinement or atomic coordinate data resulting 
# from the CCDC's data processing and validation procedures.
#
#######################################################################

data_OPEYIS
_chemical_compound_source        
'traditional Chinese medicinal plant Lindera aggregata'
_chemical_name_common            
9-((3,4-Dimethoxy-2,5-dioxocyclopent-3-en-1-ylidene)(methoxy)methyl)-2,3,8-trimethoxy-6,10-diphenylspiro[4.5]deca-2,7-diene-1,4-dione
_chemical_formula_moiety         'C34 H32 O10'
_chemical_name_systematic        Bi-linderone
_chemical_properties_biological  
'tested for activity against glucosamine-induced insulin resistance in HepG2 cells'
_symmetry_cell_setting           orthorhombic
_symmetry_space_group_name_H-M   'P b c a'
_symmetry_Int_Tables_number      61
_space_group_name_Hall           '-P 2ac 2ab'
loop_
_symmetry_equiv_pos_site_id
_symmetry_equiv_pos_as_xyz
1 x,y,z
2 1/2-x,-y,1/2+z
3 -x,1/2+y,1/2-z
4 1/2+x,1/2-y,-z
5 -x,-y,-z
6 1/2+x,y,1/2-z
7 x,1/2-y,1/2+z
8 1/2-x,1/2+y,z
_cell_length_a                   27.456(4)
_cell_length_b                   13.6040(17)
_cell_length_c                   16.266(2)
_cell_angle_alpha                90
_cell_angle_beta                 90
_cell_angle_gamma                90
_cell_volume                     6075.54
_exptl_crystal_colour            colorless
_exptl_crystal_description       block
_cell_formula_units_Z            8
loop_
_atom_site_label
_atom_site_type_symbol
_atom_site_fract_x
_atom_site_fract_y
_atom_site_fract_z
O1 O 0.50181(9) 0.00618(17) 0.20972(14)
O2 O 0.66240(9) 0.12374(16) 0.21900(13)
O3 O 0.49808(10) 0.21870(17) 0.17887(16)
O4 O 0.60436(9) 0.28613(17) 0.18668(16)
O5 O 0.69220(8) -0.17980(15) 0.32634(13)
O6 O 0.61111(8) -0.16011(16) 0.43978(13)
O7 O 0.71686(9) 0.08116(18) 0.43564(14)
O8 O 0.62819(10) -0.1145(2) 0.62319(15)
O9 O 0.73788(9) 0.1525(2) 0.59912(15)
O10 O 0.68639(10) 0.0053(2) 0.71613(15)
C1 C 0.65748(11) -0.1211(2) 0.29009(18)
C2 C 0.64084(11) -0.1293(2) 0.21436(19)
H1 H 0.6545 -0.1775 0.1809
C3 C 0.60127(12) -0.0661(2) 0.17851(18)
H2 H 0.5719 -0.1071 0.1782
C4 C 0.58859(11) 0.0246(2) 0.23303(17)
C5 C 0.53746(12) 0.0597(2) 0.21281(18)
C6 C 0.53797(13) 0.1652(2) 0.19695(18)
C7 C 0.58451(13) 0.1977(2) 0.19742(19)
C8 C 0.61855(13) 0.1159(2) 0.21585(18)
C9 C 0.60988(12) -0.0372(2) 0.08970(19)
C10 C 0.65603(14) -0.0176(2) 0.0598(2)
H3 H 0.6826 -0.0212 0.0952
C11 C 0.66339(16) 0.0072(3) -0.0217(2)
H4 H 0.6947 0.0199 -0.0408
C12 C 0.62445(18) 0.0131(3) -0.0746(2)
H5 H 0.6294 0.0290 -0.1295
C13 C 0.57881(16) -0.0043(3) -0.0466(2)
H6 H 0.5524 0.0011 -0.0821
C14 C 0.57142(13) -0.0301(2) 0.0350(2)
H7 H 0.5400 -0.0429 0.0533
C15 C 0.70417(15) -0.2700(2) 0.2856(2)
H8 H 0.6752 -0.3084 0.2783
H9 H 0.7271 -0.3061 0.3183
H10 H 0.7183 -0.2558 0.2329
C16 C 0.45412(14) 0.2002(3) 0.2230(3)
H11 H 0.4433 0.1345 0.2120
H12 H 0.4296 0.2461 0.2058
H13 H 0.4599 0.2077 0.2808
C17 C 0.57241(17) 0.3704(3) 0.1898(3)
H14 H 0.5527 0.3721 0.1410
H15 H 0.5915 0.4293 0.1931
H16 H 0.5518 0.3656 0.2372
C18 C 0.64079(11) -0.0811(2) 0.43600(19)
C19 C 0.64170(11) -0.0417(2) 0.34887(17)
H17 H 0.6647 0.0132 0.3458
C20 C 0.59026(11) -0.0048(2) 0.32595(17)
H18 H 0.5681 -0.0607 0.3326
C21 C 0.66316(12) -0.0393(2) 0.50049(18)
C22 C 0.69768(12) 0.0441(2) 0.4964(2)
C23 C 0.70786(12) 0.0763(3) 0.5806(2)
C24 C 0.68678(13) 0.0140(3) 0.6339(2)
C25 C 0.65587(13) -0.0577(3) 0.5892(2)
C26 C 0.57129(12) 0.0766(2) 0.38158(17)
C27 C 0.59909(13) 0.1578(2) 0.4029(2)
H19 H 0.6311 0.1624 0.3847
C28 C 0.57980(19) 0.2318(3) 0.4509(2)
H20 H 0.5990 0.2854 0.4653
C29 C 0.5324(2) 0.2269(4) 0.4775(3)
H21 H 0.5194 0.2777 0.5089
C30 C 0.50441(17) 0.1470(4) 0.4577(3)
H22 H 0.4724 0.1431 0.4759
C31 C 0.52410(14) 0.0717(3) 0.4104(2)
H23 H 0.5051 0.0172 0.3979
C32 C 0.62576(16) -0.2462(3) 0.4859(2)
H24 H 0.6603 -0.2441 0.4953
H25 H 0.6177 -0.3043 0.4553
H26 H 0.6090 -0.2472 0.5377
C33 C 0.72549(18) 0.2450(3) 0.5610(3)
H27 H 0.7248 0.2371 0.5023
H28 H 0.7494 0.2936 0.5753
H29 H 0.6940 0.2660 0.5798
C34 C 0.72007(19) 0.0656(4) 0.7614(2)
H30 H 0.7514 0.0639 0.7351
H31 H 0.7230 0.0411 0.8165
H32 H 0.7083 0.1321 0.7627
loop_
_geom_bond_atom_site_label_1
_geom_bond_atom_site_label_2
_geom_bond_site_symmetry_1
_geom_bond_site_symmetry_2
O1 C5 1_555 1_555
O2 C8 1_555 1_555
O3 C6 1_555 1_555
O4 C7 1_555 1_555
O5 C1 1_555 1_555
O6 C18 1_555 1_555
O7 C22 1_555 1_555
O8 C25 1_555 1_555
O9 C23 1_555 1_555
O10 C24 1_555 1_555
C1 C2 1_555 1_555
C2 H1 1_555 1_555
C3 C2 1_555 1_555
H2 C3 1_555 1_555
C4 C3 1_555 1_555
C5 C4 1_555 1_555
C6 C5 1_555 1_555
C7 C6 1_555 1_555
C8 C4 1_555 1_555
C9 C3 1_555 1_555
C10 C9 1_555 1_555
H3 C10 1_555 1_555
C11 C10 1_555 1_555
H4 C11 1_555 1_555
C12 C11 1_555 1_555
H5 C12 1_555 1_555
C13 C12 1_555 1_555
H6 C13 1_555 1_555
C14 C9 1_555 1_555
H7 C14 1_555 1_555
C15 O5 1_555 1_555
H8 C15 1_555 1_555
H9 C15 1_555 1_555
H10 C15 1_555 1_555
C16 O3 1_555 1_555
H11 C16 1_555 1_555
H12 C16 1_555 1_555
H13 C16 1_555 1_555
C17 O4 1_555 1_555
H14 C17 1_555 1_555
H15 C17 1_555 1_555
H16 C17 1_555 1_555
C18 C19 1_555 1_555
C19 C1 1_555 1_555
H17 C19 1_555 1_555
C20 C4 1_555 1_555
H18 C20 1_555 1_555
C21 C18 1_555 1_555
C22 C21 1_555 1_555
C23 C22 1_555 1_555
C24 C23 1_555 1_555
C25 C21 1_555 1_555
C26 C20 1_555 1_555
C27 C26 1_555 1_555
H19 C27 1_555 1_555
C28 C27 1_555 1_555
H20 C28 1_555 1_555
C29 C28 1_555 1_555
H21 C29 1_555 1_555
C30 C29 1_555 1_555
H22 C30 1_555 1_555
C31 C26 1_555 1_555
H23 C31 1_555 1_555
C32 O6 1_555 1_555
H24 C32 1_555 1_555
H25 C32 1_555 1_555
H26 C32 1_555 1_555
C33 O9 1_555 1_555
H27 C33 1_555 1_555
H28 C33 1_555 1_555
H29 C33 1_555 1_555
C34 O10 1_555 1_555
H30 C34 1_555 1_555
H31 C34 1_555 1_555
H32 C34 1_555 1_555
C7 C8 1_555 1_555
C13 C14 1_555 1_555
C19 C20 1_555 1_555
C24 C25 1_555 1_555
C30 C31 1_555 1_555

#END
