
#######################################################################
#
#                 Cambridge Crystallographic Data Centre
#                                CCDC 
#
#######################################################################
#
# If this CIF has been generated from an entry in the Cambridge 
# Structural Database, then it will include bibliographic, chemical, 
# crystal, experimental, refinement or atomic coordinate data resulting 
# from the CCDC's data processing and validation procedures.
#
#######################################################################

data_OPIKEE
_chemical_formula_moiety         'C18 H14 N4 O1'
_chemical_name_systematic        
4,5-Diphenyl-3,4-dihydropyrimido[4,5-d]pyridazin-2(1H)-one
_symmetry_cell_setting           monoclinic
_symmetry_space_group_name_H-M   'P 21/c'
_symmetry_Int_Tables_number      14
_space_group_name_Hall           '-P 2ybc'
loop_
_symmetry_equiv_pos_site_id
_symmetry_equiv_pos_as_xyz
1 x,y,z
2 -x,1/2+y,1/2-z
3 -x,-y,-z
4 x,1/2-y,1/2+z
_cell_length_a                   16.384(1)
_cell_length_b                   7.7381(7)
_cell_length_c                   12.341(1)
_cell_angle_alpha                90
_cell_angle_beta                 110.307(1)
_cell_angle_gamma                90
_cell_volume                     1467.36
_exptl_crystal_colour            colorless
_exptl_crystal_description       prism
_chemical_melting_point          '301-2deg. C'
_cell_formula_units_Z            4
_exptl_crystal_recrystallization_method dmso
loop_
_atom_site_label
_atom_site_type_symbol
_atom_site_fract_x
_atom_site_fract_y
_atom_site_fract_z
N1 N 0.38926(8) 0.68507(14) 0.39416(11)
C1 C 0.35518(8) 0.39739(14) 0.44604(11)
C2 C 0.31719(8) 0.27245(15) 0.49624(11)
C3 C 0.33396(8) 0.58819(15) 0.44385(12)
N2 N 0.38990(8) 0.04962(13) 0.44510(11)
N3 N 0.33320(8) 0.10321(14) 0.49460(11)
C4 C 0.42758(9) 0.16027(16) 0.39698(13)
C5 C 0.41009(8) 0.33836(15) 0.39178(11)
N4 N 0.44665(8) 0.44795(14) 0.33321(11)
C6 C 0.43708(9) 0.62475(16) 0.33427(12)
O1 O 0.47381(8) 0.71868(13) 0.28489(11)
C7 C 0.23822(8) 0.62540(15) 0.37914(12)
C8 C 0.19313(10) 0.73382(19) 0.42829(15)
C9 C 0.19538(11) 0.5555(2) 0.27107(15)
C10 C 0.10814(13) 0.5932(3) 0.21369(19)
C11 C 0.06385(12) 0.6999(3) 0.2631(2)
C12 C 0.10595(12) 0.7698(3) 0.36956(19)
C13 C 0.25091(9) 0.31897(16) 0.54852(11)
C14 C 0.27063(10) 0.4244(2) 0.64474(13)
C15 C 0.16647(10) 0.2589(2) 0.49725(15)
C16 C 0.12280(12) 0.4129(2) 0.63605(16)
C17 C 0.20657(12) 0.4695(2) 0.68895(15)
C18 C 0.10251(12) 0.3076(3) 0.54070(17)
H1 H 0.4762(10) 0.404(2) 0.2916(14)
H2 H 0.3908(11) 0.802(2) 0.4065(15)
H3 H 0.3479(8) 0.6297(18) 0.5244(12)
H4 H 0.4680(10) 0.1164(19) 0.3617(13)
H5 H 0.2201(12) 0.541(3) 0.7559(17)
H6 H 0.0788(11) 0.445(2) 0.6650(15)
H7 H 0.0420(14) 0.269(3) 0.5014(19)
H8 H 0.1517(11) 0.186(2) 0.4282(16)
H9 H 0.0739(13) 0.845(3) 0.4079(17)
H10 H 0.2268(10) 0.482(2) 0.2334(14)
H11 H 0.0816(14) 0.548(3) 0.138(2)
H12 H 0.0030(15) 0.724(3) 0.2205(19)
H13 H 0.3303(11) 0.462(2) 0.6788(14)
H14 H 0.2244(11) 0.783(2) 0.5062(16)
loop_
_geom_bond_atom_site_label_1
_geom_bond_atom_site_label_2
_geom_bond_site_symmetry_1
_geom_bond_site_symmetry_2
N1 C3 1_555 1_555
C1 C2 1_555 1_555
C2 N3 1_555 1_555
C3 C1 1_555 1_555
N2 N3 1_555 1_555
C4 N2 1_555 1_555
C5 C1 1_555 1_555
N4 C5 1_555 1_555
C6 N1 1_555 1_555
O1 C6 1_555 1_555
C7 C3 1_555 1_555
C8 C7 1_555 1_555
C9 C7 1_555 1_555
C10 C9 1_555 1_555
C11 C10 1_555 1_555
C12 C8 1_555 1_555
C13 C2 1_555 1_555
C14 C13 1_555 1_555
C15 C13 1_555 1_555
C16 C17 1_555 1_555
C17 C14 1_555 1_555
C18 C15 1_555 1_555
H1 N4 1_555 1_555
H2 N1 1_555 1_555
H3 C3 1_555 1_555
H4 C4 1_555 1_555
H5 C17 1_555 1_555
H6 C16 1_555 1_555
H7 C18 1_555 1_555
H8 C15 1_555 1_555
H9 C12 1_555 1_555
H10 C9 1_555 1_555
H11 C10 1_555 1_555
H12 C11 1_555 1_555
H13 C14 1_555 1_555
H14 C8 1_555 1_555
C4 C5 1_555 1_555
N4 C6 1_555 1_555
C11 C12 1_555 1_555
C16 C18 1_555 1_555

#END
