
#######################################################################
#
#                 Cambridge Crystallographic Data Centre
#                                CCDC 
#
#######################################################################
#
# If this CIF has been generated from an entry in the Cambridge 
# Structural Database, then it will include bibliographic, chemical, 
# crystal, experimental, refinement or atomic coordinate data resulting 
# from the CCDC's data processing and validation procedures.
#
#######################################################################

data_OPIKII
_chemical_formula_moiety         'C19 H16 N4 O2'
_chemical_name_systematic        
4-(4-Methoxyphenyl)-5-phenyl-3,4-dihydropyrimido[4,5-d]pyridazin-2(1H)-one
_symmetry_cell_setting           monoclinic
_symmetry_space_group_name_H-M   'P 21/c'
_symmetry_Int_Tables_number      14
_space_group_name_Hall           '-P 2ybc'
loop_
_symmetry_equiv_pos_site_id
_symmetry_equiv_pos_as_xyz
1 x,y,z
2 -x,1/2+y,1/2-z
3 -x,-y,-z
4 x,1/2-y,1/2+z
_cell_length_a                   17.311(3)
_cell_length_b                   7.736(1)
_cell_length_c                   12.353(2)
_cell_angle_alpha                90
_cell_angle_beta                 103.323(2)
_cell_angle_gamma                90
_cell_volume                     1609.77
_exptl_crystal_colour            colorless
_exptl_crystal_description       prism
_chemical_melting_point          '316-7deg. C'
_cell_formula_units_Z            4
loop_
_atom_site_label
_atom_site_type_symbol
_atom_site_fract_x
_atom_site_fract_y
_atom_site_fract_z
C1 C 0.84798(14) 0.5857(3) 0.9707(2)
H1 H 0.8591 0.6225 1.0487
C2 C 0.86701(14) 0.3962(3) 0.9682(2)
C3 C 0.83256(14) 0.2691(3) 1.0241(2)
C4 C 0.93318(14) 0.1592(3) 0.9059(2)
H2 H 0.9690 0.1188 0.8661
C5 C 0.91720(14) 0.3366(3) 0.9051(2)
C6 C 0.94298(16) 0.6260(4) 0.8452(2)
C7 C 0.76106(15) 0.6267(3) 0.9180(2)
C8 C 0.72512(17) 0.5715(3) 0.8126(3)
H3 H 0.7531 0.5011 0.7741
C9 C 0.64790(17) 0.6189(3) 0.7628(2)
H4 H 0.6246 0.5812 0.6913
C10 C 0.60567(17) 0.7226(4) 0.8201(3)
C11 C 0.63994(17) 0.7739(3) 0.9259(2)
H5 H 0.6107 0.8397 0.9653
C12 C 0.71749(16) 0.7297(3) 0.9755(2)
H6 H 0.7406 0.7683 1.0469
C13 C 0.49874(16) 0.7615(4) 0.6608(2)
H7 H 0.4478 0.8169 0.6405
H8 H 0.4930 0.6409 0.6424
H9 H 0.5341 0.8141 0.6209
C14 C 0.77305(16) 0.3127(3) 1.0889(2)
C15 C 0.69776(17) 0.2455(3) 1.0562(2)
H10 H 0.6853 0.1731 0.9946
C16 C 0.64029(17) 0.2840(4) 1.1139(3)
H11 H 0.5894 0.2385 1.0911
C17 C 0.65941(18) 0.3910(4) 1.2054(3)
H12 H 0.6207 0.4183 1.2438
C18 C 0.73438(18) 0.4578(3) 1.2409(2)
H13 H 0.7470 0.5286 1.3034
C19 C 0.79111(16) 0.4174(3) 1.1812(2)
H14 H 0.8421 0.4620 1.2042
N1 N 0.90066(11) 0.6842(2) 0.91461(17)
H15 H 0.9044 0.7932 0.9287
N2 N 0.84780(13) 0.0994(3) 1.01969(18)
N3 N 0.89930(13) 0.0470(3) 0.96088(19)
N4 N 0.95017(12) 0.4476(3) 0.84055(17)
H16 H 0.9762 0.4043 0.7956
O1 O 0.97674(11) 0.7214(2) 0.79120(15)
O2 O 0.53029(11) 0.7805(2) 0.77711(17)
loop_
_geom_bond_atom_site_label_1
_geom_bond_atom_site_label_2
_geom_bond_site_symmetry_1
_geom_bond_site_symmetry_2
C1 H1 1_555 1_555
C2 C1 1_555 1_555
C3 C2 1_555 1_555
C4 H2 1_555 1_555
C5 C2 1_555 1_555
C6 N1 1_555 1_555
C7 C1 1_555 1_555
C8 C7 1_555 1_555
H3 C8 1_555 1_555
C9 C8 1_555 1_555
H4 C9 1_555 1_555
C10 C9 1_555 1_555
C11 C10 1_555 1_555
H5 C11 1_555 1_555
C12 C7 1_555 1_555
H6 C12 1_555 1_555
C13 H7 1_555 1_555
H8 C13 1_555 1_555
H9 C13 1_555 1_555
C14 C3 1_555 1_555
C15 C14 1_555 1_555
H10 C15 1_555 1_555
C16 C15 1_555 1_555
H11 C16 1_555 1_555
C17 C16 1_555 1_555
H12 C17 1_555 1_555
C18 C17 1_555 1_555
H13 C18 1_555 1_555
C19 C14 1_555 1_555
H14 C19 1_555 1_555
N1 C1 1_555 1_555
H15 N1 1_555 1_555
N2 C3 1_555 1_555
N3 C4 1_555 1_555
N4 C5 1_555 1_555
H16 N4 1_555 1_555
O1 C6 1_555 1_555
O2 C10 1_555 1_555
C4 C5 1_555 1_555
C6 N4 1_555 1_555
C11 C12 1_555 1_555
C13 O2 1_555 1_555
C18 C19 1_555 1_555
N2 N3 1_555 1_555

#END
