
#######################################################################
#
#                 Cambridge Crystallographic Data Centre
#                                CCDC 
#
#######################################################################
#
# If this CIF has been generated from an entry in the Cambridge 
# Structural Database, then it will include bibliographic, chemical, 
# crystal, experimental, refinement or atomic coordinate data resulting 
# from the CCDC's data processing and validation procedures.
#
#######################################################################

data_OPIMIL
_chemical_formula_moiety         'C45 H65 Mg1 N3 O1 Si2'
_chemical_name_systematic        
(2-((benzyl((1-ethylpyrrolidin-2-yl)methyl)amino)methyl)-4,6-bis(2-phenylpropan-2-yl)phenolato)-(bis(trimethylsilyl)amido)-magnesium
_symmetry_cell_setting           triclinic
_symmetry_space_group_name_H-M   'P 1'
_symmetry_Int_Tables_number      1
_space_group_name_Hall           'P 1'
loop_
_symmetry_equiv_pos_site_id
_symmetry_equiv_pos_as_xyz
1 x,y,z
_cell_length_a                   8.7667(15)
_cell_length_b                   11.5603(19)
_cell_length_c                   12.315(2)
_cell_angle_alpha                64.610(3)
_cell_angle_beta                 78.219(3)
_cell_angle_gamma                88.125(3)
_cell_volume                     1101.65
_exptl_crystal_colour            colorless
_cell_formula_units_Z            1
loop_
_atom_site_label
_atom_site_type_symbol
_atom_site_fract_x
_atom_site_fract_y
_atom_site_fract_z
Mg1 Mg 0.50957(13) 0.68348(10) 0.31566(10)
N1 N 0.5873(3) 0.8404(3) 0.3533(2)
N2 N 0.2795(3) 0.7316(3) 0.3919(3)
N3 N 0.5238(4) 0.4935(3) 0.4061(3)
O1 O 0.6253(3) 0.7672(2) 0.1522(2)
Si1 Si 0.46186(12) 0.41666(9) 0.33014(9)
Si2 Si 0.62343(12) 0.42183(9) 0.52032(9)
C1 C 0.7241(4) 0.8688(3) 0.0923(3)
C2 C 0.8393(4) 0.8811(3) -0.0119(3)
C3 C 0.9295(4) 0.9967(4) -0.0812(3)
H1 H 1.0035 1.0057 -0.1529
C4 C 0.9155(4) 1.0994(4) -0.0496(3)
C5 C 0.8096(4) 1.0825(3) 0.0575(3)
H2 H 0.8002 1.1498 0.0828
C6 C 0.7166(4) 0.9688(3) 0.1289(3)
C7 C 0.5929(4) 0.9603(3) 0.2377(3)
H3 H 0.6107 1.0347 0.2545
H4 H 0.4897 0.9674 0.2152
C8 C 0.4622(4) 0.8450(3) 0.4508(3)
H5 H 0.4781 0.9252 0.4587
H6 H 0.4692 0.7721 0.5298
C9 C 0.2987(4) 0.8393(3) 0.4266(3)
H7 H 0.2817 0.9225 0.3586
C10 C 0.1725(5) 0.8134(4) 0.5433(3)
H8 H 0.2185 0.8246 0.6055
H9 H 0.0882 0.8732 0.5232
C11 C 0.1083(6) 0.6745(4) 0.5921(4)
H10 H 0.0002 0.6716 0.5805
H11 H 0.1091 0.6260 0.6806
C12 C 0.2204(5) 0.6198(4) 0.5146(3)
H12 H 0.3082 0.5811 0.5547
H13 H 0.1648 0.5532 0.5042
C13 C 0.1559(4) 0.7586(4) 0.3181(4)
H14 H 0.0648 0.7898 0.3578
H15 H 0.1215 0.6776 0.3186
C14 C 0.2101(5) 0.8576(5) 0.1852(4)
H16 H 0.2314 0.9411 0.1835
H17 H 0.1282 0.8644 0.1396
H18 H 0.3054 0.8309 0.1472
C15 C 0.7418(4) 0.8199(3) 0.3895(3)
H19 H 0.8192 0.8135 0.3218
H20 H 0.7338 0.7361 0.4623
C16 C 0.8047(4) 0.9204(3) 0.4194(3)
C17 C 0.9102(4) 1.0196(4) 0.3312(4)
H21 H 0.9426 1.0247 0.2507
C18 C 0.9687(5) 1.1114(4) 0.3598(4)
H22 H 1.0402 1.1788 0.2988
C19 C 0.9230(5) 1.1045(4) 0.4767(4)
H23 H 0.9629 1.1673 0.4959
C20 C 0.8188(5) 1.0059(4) 0.5663(4)
H24 H 0.7873 1.0012 0.6467
C21 C 0.7610(4) 0.9143(4) 0.5380(3)
H25 H 0.6907 0.8464 0.5998
C22 C 1.0102(5) 1.2289(4) -0.1296(4)
C23 C 1.0779(7) 1.2438(5) -0.2605(4)
H26 H 0.9928 1.2377 -0.2988
H27 H 1.1490 1.1757 -0.2571
H28 H 1.1352 1.3276 -0.3092
C24 C 0.8988(9) 1.3376(6) -0.1424(9)
H29 H 0.9547 1.4203 -0.1994
H30 H 0.8605 1.3374 -0.0618
H31 H 0.8103 1.3245 -0.1741
C25 C 1.1513(4) 1.2346(4) -0.0696(3)
C26 C 1.2741(5) 1.1591(4) -0.0823(4)
H32 H 1.2691 1.1068 -0.1237
C27 C 1.4043(4) 1.1600(5) -0.0344(5)
H33 H 1.4882 1.1084 -0.0430
C28 C 1.4117(6) 1.2365(6) 0.0262(5)
H34 H 1.5007 1.2372 0.0589
C29 C 1.2889(7) 1.3121(5) 0.0389(5)
H35 H 1.2940 1.3643 0.0803
C30 C 1.1587(5) 1.3111(4) -0.0091(5)
H36 H 1.0748 1.3627 -0.0004
C31 C 0.8601(5) 0.7690(4) -0.0465(3)
C32 C 0.9032(6) 0.6516(4) 0.0616(4)
H37 H 0.9975 0.6739 0.0815
H38 H 0.9225 0.5804 0.0385
H39 H 0.8170 0.6261 0.1336
C33 C 0.9965(6) 0.7962(6) -0.1586(4)
H40 H 0.9748 0.8702 -0.2305
H41 H 1.0071 0.7209 -0.1760
H42 H 1.0938 0.8149 -0.1399
C34 C 0.7124(5) 0.7404(4) -0.0837(3)
C35 C 0.6013(5) 0.8305(4) -0.1165(4)
H43 H 0.6134 0.9095 -0.1118
C36 C 0.4728(6) 0.8074(6) -0.1560(5)
H44 H 0.3989 0.8708 -0.1790
C37 C 0.4527(7) 0.6922(7) -0.1617(5)
H45 H 0.3652 0.6756 -0.1885
C38 C 0.5625(8) 0.6008(6) -0.1276(5)
H46 H 0.5489 0.5209 -0.1301
C39 C 0.6905(7) 0.6252(5) -0.0903(5)
H47 H 0.7651 0.5623 -0.0686
C40 C 0.3760(6) 0.5357(4) 0.2011(4)
H48 H 0.2833 0.5689 0.2350
H49 H 0.3465 0.4935 0.1536
H50 H 0.4534 0.6067 0.1472
C41 C 0.6191(7) 0.3367(5) 0.2628(5)
H51 H 0.7057 0.3997 0.2095
H52 H 0.5764 0.3019 0.2147
H53 H 0.6571 0.2669 0.3294
C42 C 0.2999(6) 0.2894(5) 0.4260(5)
H54 H 0.3298 0.2302 0.5024
H55 H 0.2807 0.2419 0.3801
H56 H 0.2047 0.3298 0.4454
C43 C 0.8398(5) 0.4548(5) 0.4582(5)
H57 H 0.8733 0.4161 0.4010
H58 H 0.8947 0.4180 0.5262
H59 H 0.8643 0.5477 0.4149
C44 C 0.5700(6) 0.4790(4) 0.6448(4)
H60 H 0.5738 0.5730 0.6073
H61 H 0.6441 0.4488 0.6995
H62 H 0.4643 0.4450 0.6922
C45 C 0.5841(6) 0.2434(4) 0.6070(4)
H63 H 0.4768 0.2240 0.6554
H64 H 0.6571 0.2081 0.6622
H65 H 0.5979 0.2050 0.5488
loop_
_geom_bond_atom_site_label_1
_geom_bond_atom_site_label_2
_geom_bond_site_symmetry_1
_geom_bond_site_symmetry_2
Mg1 N1 1_555 1_555
N1 C7 1_555 1_555
N2 Mg1 1_555 1_555
N3 Mg1 1_555 1_555
O1 Mg1 1_555 1_555
Si1 N3 1_555 1_555
Si2 N3 1_555 1_555
C1 O1 1_555 1_555
C2 C1 1_555 1_555
C3 C2 1_555 1_555
H1 C3 1_555 1_555
C4 C3 1_555 1_555
C5 C4 1_555 1_555
H2 C5 1_555 1_555
C6 C1 1_555 1_555
C7 C6 1_555 1_555
H3 C7 1_555 1_555
H4 C7 1_555 1_555
C8 N1 1_555 1_555
H5 C8 1_555 1_555
H6 C8 1_555 1_555
C9 N2 1_555 1_555
H7 C9 1_555 1_555
C10 C9 1_555 1_555
H8 C10 1_555 1_555
H9 C10 1_555 1_555
C11 C10 1_555 1_555
H10 C11 1_555 1_555
H11 C11 1_555 1_555
C12 N2 1_555 1_555
H12 C12 1_555 1_555
H13 C12 1_555 1_555
C13 N2 1_555 1_555
H14 C13 1_555 1_555
H15 C13 1_555 1_555
C14 C13 1_555 1_555
H16 C14 1_555 1_555
H17 C14 1_555 1_555
H18 C14 1_555 1_555
C15 N1 1_555 1_555
H19 C15 1_555 1_555
H20 C15 1_555 1_555
C16 C15 1_555 1_555
C17 C16 1_555 1_555
H21 C17 1_555 1_555
C18 C17 1_555 1_555
H22 C18 1_555 1_555
C19 C18 1_555 1_555
H23 C19 1_555 1_555
C20 C19 1_555 1_555
H24 C20 1_555 1_555
C21 C16 1_555 1_555
H25 C21 1_555 1_555
C22 C4 1_555 1_555
C23 C22 1_555 1_555
H26 C23 1_555 1_555
H27 C23 1_555 1_555
H28 C23 1_555 1_555
C24 C22 1_555 1_555
H29 C24 1_555 1_555
H30 C24 1_555 1_555
H31 C24 1_555 1_555
C25 C22 1_555 1_555
C26 C25 1_555 1_555
H32 C26 1_555 1_555
C27 C26 1_555 1_555
H33 C27 1_555 1_555
C28 C27 1_555 1_555
H34 C28 1_555 1_555
C29 C28 1_555 1_555
H35 C29 1_555 1_555
C30 C25 1_555 1_555
H36 C30 1_555 1_555
C31 C2 1_555 1_555
C32 C31 1_555 1_555
H37 C32 1_555 1_555
H38 C32 1_555 1_555
H39 C32 1_555 1_555
C33 C31 1_555 1_555
H40 C33 1_555 1_555
H41 C33 1_555 1_555
H42 C33 1_555 1_555
C34 C31 1_555 1_555
C35 C34 1_555 1_555
H43 C35 1_555 1_555
C36 C35 1_555 1_555
H44 C36 1_555 1_555
C37 C36 1_555 1_555
H45 C37 1_555 1_555
C38 C37 1_555 1_555
H46 C38 1_555 1_555
C39 C34 1_555 1_555
H47 C39 1_555 1_555
C40 Si1 1_555 1_555
H48 C40 1_555 1_555
H49 C40 1_555 1_555
H50 C40 1_555 1_555
C41 Si1 1_555 1_555
H51 C41 1_555 1_555
H52 C41 1_555 1_555
H53 C41 1_555 1_555
C42 Si1 1_555 1_555
H54 C42 1_555 1_555
H55 C42 1_555 1_555
H56 C42 1_555 1_555
C43 Si2 1_555 1_555
H57 C43 1_555 1_555
H58 C43 1_555 1_555
H59 C43 1_555 1_555
C44 Si2 1_555 1_555
H60 C44 1_555 1_555
H61 C44 1_555 1_555
H62 C44 1_555 1_555
C45 Si2 1_555 1_555
H63 C45 1_555 1_555
H64 C45 1_555 1_555
H65 C45 1_555 1_555
C5 C6 1_555 1_555
C8 C9 1_555 1_555
C11 C12 1_555 1_555
C20 C21 1_555 1_555
C29 C30 1_555 1_555
C38 C39 1_555 1_555

#END
