
#######################################################################
#
#                 Cambridge Crystallographic Data Centre
#                                CCDC 
#
#######################################################################
#
# If this CIF has been generated from an entry in the Cambridge 
# Structural Database, then it will include bibliographic, chemical, 
# crystal, experimental, refinement or atomic coordinate data resulting 
# from the CCDC's data processing and validation procedures.
#
#######################################################################

data_OPIMUX
_chemical_formula_moiety         'C55 H43 B1 F2 N2 O6 S2'
_chemical_name_systematic        
"11,11-difluoro-1,2,4,6,8,9-hexakis(4-methoxyphenyl)-11H-1bisthieno[2',3':4,5]pyrrolo[1,2-c:2',1'-f][1,3,2]diazaborinine unknown solvate"
_symmetry_cell_setting           monoclinic
_symmetry_space_group_name_H-M   'P 21/c'
_symmetry_Int_Tables_number      14
_space_group_name_Hall           '-P 2ybc'
loop_
_symmetry_equiv_pos_site_id
_symmetry_equiv_pos_as_xyz
1 x,y,z
2 -x,1/2+y,1/2-z
3 -x,-y,-z
4 x,1/2-y,1/2+z
_cell_length_a                   12.5342(13)
_cell_length_b                   36.614(4)
_cell_length_c                   11.8932(13)
_cell_angle_alpha                90
_cell_angle_beta                 114.4850(10)
_cell_angle_gamma                90
_cell_volume                     4967.26
_exptl_crystal_colour            colorless
_exptl_crystal_description       block
_cell_formula_units_Z            4
loop_
_atom_site_label
_atom_site_type_symbol
_atom_site_fract_x
_atom_site_fract_y
_atom_site_fract_z
B1 B 0.9743(3) 0.09400(9) 0.7199(3)
C1 C 1.1445(2) 0.10970(7) 0.6521(3)
C2 C 1.2286(3) 0.09029(8) 0.6262(3)
C3 C 1.2152(2) 0.05315(8) 0.6400(3)
C4 C 1.1208(3) 0.05105(8) 0.6773(3)
C5 C 1.0746(3) 0.02089(8) 0.7119(3)
H1 H 1.1060 -0.0020 0.7095
C6 C 0.9849(3) 0.02287(7) 0.7497(3)
C7 C 0.9339(3) -0.00506(8) 0.7955(3)
C8 C 0.8614(3) 0.01351(8) 0.8372(3)
C9 C 0.8617(2) 0.05125(8) 0.8115(3)
C10 C 0.7847(2) 0.07236(8) 0.8462(3)
C11 C 0.7291(3) 0.04960(8) 0.9000(3)
C12 C 1.1450(3) 0.14813(8) 0.6310(3)
C13 C 1.0638(3) 0.17507(8) 0.6477(3)
C14 C 0.9603(4) 0.18418(12) 0.5534(4)
H2 H 0.9394 0.1728 0.4773
C15 C 0.8846(4) 0.20986(14) 0.5661(5)
H3 H 0.8123 0.2144 0.5013
C16 C 0.9178(4) 0.22814(11) 0.6745(5)
C17 C 1.0157(4) 0.21770(10) 0.7720(5)
H4 H 1.0348 0.2282 0.8491
C18 C 1.0878(3) 0.19134(9) 0.7574(4)
H5 H 1.1552 0.1846 0.8256
C19 C 0.8729(7) 0.27630(17) 0.7794(8)
H6 H 0.8615 0.2623 0.8416
H7 H 0.8247 0.2978 0.7609
H8 H 0.9538 0.2833 0.8090
C20 C 1.2294(3) 0.15675(8) 0.5897(3)
C21 C 1.2601(3) 0.19271(8) 0.5527(3)
C22 C 1.2458(3) 0.22586(10) 0.6014(4)
H9 H 1.2093 0.2263 0.6553
C23 C 1.2842(4) 0.25790(10) 0.5716(5)
H10 H 1.2732 0.2796 0.6058
C24 C 1.3379(3) 0.25864(10) 0.4936(4)
C25 C 1.3495(4) 0.22708(12) 0.4401(4)
H11 H 1.3830 0.2274 0.3834
C26 C 1.3115(4) 0.19417(10) 0.4696(4)
H12 H 1.3208 0.1727 0.4327
C27 C 1.4583(5) 0.29479(14) 0.4226(5)
H13 H 1.5172 0.2763 0.4572
H14 H 1.4946 0.3184 0.4396
H15 H 1.4188 0.2914 0.3348
C28 C 1.2818(3) 0.02332(7) 0.6188(3)
C29 C 1.2292(3) -0.00929(8) 0.5593(3)
H16 H 1.1487 -0.0124 0.5319
C30 C 1.2955(3) -0.03681(8) 0.5412(3)
H17 H 1.2593 -0.0581 0.5007
C31 C 1.4157(3) -0.03295(8) 0.5827(3)
C32 C 1.4684(3) -0.00069(8) 0.6372(3)
H18 H 1.5487 0.0025 0.6629
C33 C 1.4012(3) 0.02689(8) 0.6535(3)
H19 H 1.4374 0.0487 0.6890
C34 C 1.6005(4) -0.06221(12) 0.6284(4)
H20 H 1.6318 -0.0426 0.5978
H21 H 1.6312 -0.0850 0.6151
H22 H 1.6224 -0.0589 0.7152
C35 C 0.9486(2) -0.04451(7) 0.7940(3)
C36 C 0.9627(3) -0.06239(8) 0.6977(3)
H23 H 0.9694 -0.0487 0.6351
C37 C 0.9670(3) -0.10018(9) 0.6932(3)
H24 H 0.9776 -0.1117 0.6289
C38 C 0.9553(3) -0.12076(8) 0.7854(3)
C39 C 0.9427(3) -0.10357(9) 0.8814(3)
H25 H 0.9373 -0.1173 0.9446
C40 C 0.9380(3) -0.06612(8) 0.8850(3)
H26 H 0.9275 -0.0549 0.9499
C41 C 0.9280(4) -0.18051(11) 0.8543(6)
H27 H 0.9828 -0.1765 0.9382
H28 H 0.9301 -0.2057 0.8334
H29 H 0.8505 -0.1743 0.8455
C42 C 0.6418(3) 0.05892(8) 0.9467(3)
C43 C 0.6354(3) 0.03875(10) 1.0435(3)
H30 H 0.6893 0.0202 1.0802
C44 C 0.5493(4) 0.04606(11) 1.0858(4)
H31 H 0.5459 0.0324 1.1501
C45 C 0.4696(3) 0.07347(11) 1.0323(4)
C46 C 0.4730(3) 0.09329(10) 0.9366(3)
H32 H 0.4178 0.1115 0.8992
C47 C 0.5593(3) 0.08604(9) 0.8960(3)
H33 H 0.5619 0.1000 0.8318
C48 C 0.3025(5) 0.1068(2) 1.0257(7)
H34 H 0.3399 0.1290 1.0178
H35 H 0.2608 0.1112 1.0763
H36 H 0.2485 0.0988 0.9453
C49 C 0.7617(3) 0.11197(8) 0.8335(3)
C50 C 0.7863(3) 0.13345(9) 0.9378(4)
H37 H 0.8258 0.1231 1.0155
C51 C 0.7538(4) 0.16965(11) 0.9291(4)
H38 H 0.7706 0.1831 1.0007
C52 C 0.6996(4) 0.18534(11) 0.8213(5)
C53 C 0.6734(4) 0.16561(12) 0.7141(5)
H39 H 0.6359 0.1769 0.6375
C54 C 0.7038(3) 0.12838(10) 0.7213(4)
H40 H 0.6844 0.1149 0.6492
C55 C 0.5996(5) 0.23769(16) 0.7157(7)
H41 H 0.6379 0.2398 0.6609
H42 H 0.5767 0.2615 0.7314
H43 H 0.5313 0.2225 0.6784
F1 F 1.01019(17) 0.11801(5) 0.81790(18)
F2 F 0.88145(16) 0.10823(5) 0.61882(18)
N1 N 1.0785(2) 0.08590(6) 0.6845(2)
N2 N 0.9377(2) 0.05729(6) 0.7585(2)
O1 O 0.8427(4) 0.25566(11) 0.6745(5)
O2 O 1.3770(3) 0.29226(8) 0.4753(4)
O3 O 1.4745(2) -0.06244(6) 0.5641(2)
O4 O 0.9590(3) -0.15779(6) 0.7723(3)
O5 O 0.3898(3) 0.07911(9) 1.0819(3)
O6 O 0.6744(3) 0.22242(9) 0.8240(4)
S1 S 1.31077(7) 0.11908(2) 0.57914(8)
S2 S 0.76966(7) 0.00369(2) 0.90788(8)
loop_
_geom_bond_atom_site_label_1
_geom_bond_atom_site_label_2
_geom_bond_site_symmetry_1
_geom_bond_site_symmetry_2
B1 F1 1_555 1_555
C1 C2 1_555 1_555
C2 C3 1_555 1_555
C3 C4 1_555 1_555
C4 C5 1_555 1_555
C5 H1 1_555 1_555
C6 C5 1_555 1_555
C7 C6 1_555 1_555
C8 C7 1_555 1_555
C9 C8 1_555 1_555
C10 C9 1_555 1_555
C11 C10 1_555 1_555
C12 C1 1_555 1_555
C13 C12 1_555 1_555
C14 C13 1_555 1_555
H2 C14 1_555 1_555
C15 C14 1_555 1_555
H3 C15 1_555 1_555
C16 C15 1_555 1_555
C17 C16 1_555 1_555
H4 C17 1_555 1_555
C18 C13 1_555 1_555
H5 C18 1_555 1_555
C19 H6 1_555 1_555
H7 C19 1_555 1_555
H8 C19 1_555 1_555
C20 C12 1_555 1_555
C21 C20 1_555 1_555
C22 C21 1_555 1_555
H9 C22 1_555 1_555
C23 C22 1_555 1_555
H10 C23 1_555 1_555
C24 C23 1_555 1_555
C25 C24 1_555 1_555
H11 C25 1_555 1_555
C26 C21 1_555 1_555
H12 C26 1_555 1_555
C27 H13 1_555 1_555
H14 C27 1_555 1_555
H15 C27 1_555 1_555
C28 C3 1_555 1_555
C29 C28 1_555 1_555
H16 C29 1_555 1_555
C30 C29 1_555 1_555
H17 C30 1_555 1_555
C31 C30 1_555 1_555
C32 C31 1_555 1_555
H18 C32 1_555 1_555
C33 C28 1_555 1_555
H19 C33 1_555 1_555
C34 H20 1_555 1_555
H21 C34 1_555 1_555
H22 C34 1_555 1_555
C35 C7 1_555 1_555
C36 C35 1_555 1_555
H23 C36 1_555 1_555
C37 C36 1_555 1_555
H24 C37 1_555 1_555
C38 C37 1_555 1_555
C39 C38 1_555 1_555
H25 C39 1_555 1_555
C40 C35 1_555 1_555
H26 C40 1_555 1_555
C41 H27 1_555 1_555
H28 C41 1_555 1_555
H29 C41 1_555 1_555
C42 C11 1_555 1_555
C43 C42 1_555 1_555
H30 C43 1_555 1_555
C44 C43 1_555 1_555
H31 C44 1_555 1_555
C45 C44 1_555 1_555
C46 C45 1_555 1_555
H32 C46 1_555 1_555
C47 C42 1_555 1_555
H33 C47 1_555 1_555
C48 H34 1_555 1_555
H35 C48 1_555 1_555
H36 C48 1_555 1_555
C49 C10 1_555 1_555
C50 C49 1_555 1_555
H37 C50 1_555 1_555
C51 C50 1_555 1_555
H38 C51 1_555 1_555
C52 C51 1_555 1_555
C53 C52 1_555 1_555
H39 C53 1_555 1_555
C54 C49 1_555 1_555
H40 C54 1_555 1_555
C55 H41 1_555 1_555
H42 C55 1_555 1_555
H43 C55 1_555 1_555
F2 B1 1_555 1_555
N1 B1 1_555 1_555
N2 B1 1_555 1_555
O1 C16 1_555 1_555
O2 C24 1_555 1_555
O3 C31 1_555 1_555
O4 C38 1_555 1_555
O5 C45 1_555 1_555
O6 C52 1_555 1_555
S1 C2 1_555 1_555
S2 C8 1_555 1_555
C1 N1 1_555 1_555
C4 N1 1_555 1_555
C6 N2 1_555 1_555
C9 N2 1_555 1_555
C11 S2 1_555 1_555
C17 C18 1_555 1_555
C19 O1 1_555 1_555
C20 S1 1_555 1_555
C25 C26 1_555 1_555
C27 O2 1_555 1_555
C32 C33 1_555 1_555
C34 O3 1_555 1_555
C39 C40 1_555 1_555
C41 O4 1_555 1_555
C46 C47 1_555 1_555
C48 O5 1_555 1_555
C53 C54 1_555 1_555
C55 O6 1_555 1_555

#END
