
#######################################################################
#
#                 Cambridge Crystallographic Data Centre
#                                CCDC 
#
#######################################################################
#
# If this CIF has been generated from an entry in the Cambridge 
# Structural Database, then it will include bibliographic, chemical, 
# crystal, experimental, refinement or atomic coordinate data resulting 
# from the CCDC's data processing and validation procedures.
#
#######################################################################

data_OPINAE
_chemical_formula_moiety         'C66 H66 B1 F2 N3 O2 S2'
_chemical_name_systematic        
2,4,6,8-tetrakis(4-t-butylphenyl)-11,11-difluoro-1,9-bis(4-methoxyphenyl)-11H-bisthieno[2',3':4,5]pyrrolo[1,2-c:2',1'-f][1,3,5,2]triazaborinine
_symmetry_cell_setting           monoclinic
_symmetry_space_group_name_H-M   'P 21/c'
_symmetry_Int_Tables_number      14
_space_group_name_Hall           '-P 2ybc'
loop_
_symmetry_equiv_pos_site_id
_symmetry_equiv_pos_as_xyz
1 x,y,z
2 -x,1/2+y,1/2-z
3 -x,-y,-z
4 x,1/2-y,1/2+z
_cell_length_a                   9.3672(8)
_cell_length_b                   20.6388(18)
_cell_length_c                   29.622(3)
_cell_angle_alpha                90
_cell_angle_beta                 94.6880(10)
_cell_angle_gamma                90
_cell_volume                     5707.6
_exptl_crystal_colour            colorless
_exptl_crystal_description       block
_cell_formula_units_Z            4
loop_
_atom_site_label
_atom_site_type_symbol
_atom_site_fract_x
_atom_site_fract_y
_atom_site_fract_z
B1 B 0.2920(8) 0.4943(3) 0.5787(2)
C1 C 0.2187(6) 0.4760(3) 0.49052(19)
C2 C 0.2453(6) 0.5324(3) 0.4644(2)
C3 C 0.2081(6) 0.5199(3) 0.4190(2)
C4 C 0.1625(7) 0.4233(3) 0.4635(2)
C5 C 0.1409(6) 0.3704(3) 0.4908(2)
C6 C 0.1849(6) 0.3940(3) 0.53556(19)
C7 C 0.2143(6) 0.3848(3) 0.6127(2)
C8 C 0.2090(6) 0.3519(3) 0.65500(19)
C9 C 0.2607(6) 0.3971(3) 0.68677(19)
C10 C 0.3003(6) 0.4545(3) 0.66436(19)
C11 C 0.2958(6) 0.5963(3) 0.4817(2)
C12 C 0.2131(7) 0.6516(3) 0.4712(2)
H1 H 0.1254 0.6474 0.4544
C13 C 0.2593(7) 0.7114(3) 0.4854(2)
H2 H 0.2027 0.7476 0.4780
C14 C 0.3881(7) 0.7190(3) 0.5104(2)
C15 C 0.4723(7) 0.6660(3) 0.5202(2)
H3 H 0.5603 0.6709 0.5369
C16 C 0.4273(6) 0.6051(3) 0.5055(2)
H4 H 0.4867 0.5695 0.5117
C17 C 0.5449(10) 0.7917(4) 0.5512(3)
H5 H 0.5361 0.7726 0.5804
H6 H 0.5617 0.8374 0.5546
H7 H 0.6237 0.7721 0.5375
C18 C 0.2179(6) 0.5623(3) 0.3794(2)
C19 C 0.1111(7) 0.5597(3) 0.3441(2)
H8 H 0.0336 0.5320 0.3461
C20 C 0.1187(7) 0.5981(3) 0.3060(2)
H9 H 0.0455 0.5956 0.2829
C21 C 0.2304(7) 0.6395(3) 0.3013(2)
C22 C 0.3400(7) 0.6414(3) 0.3370(2)
H10 H 0.4183 0.6685 0.3348
C23 C 0.3323(7) 0.6036(3) 0.3748(2)
H11 H 0.4057 0.6058 0.3979
C24 C 0.2391(7) 0.6819(3) 0.2595(2)
C25 C 0.3262(9) 0.6471(4) 0.2262(2)
H12 H 0.4137 0.6316 0.2417
H13 H 0.3479 0.6764 0.2026
H14 H 0.2723 0.6111 0.2133
C26 C 0.0925(8) 0.6986(4) 0.2365(3)
H15 H 0.1035 0.7287 0.2123
H16 H 0.0347 0.7179 0.2582
H17 H 0.0470 0.6599 0.2246
C27 C 0.3082(10) 0.7466(4) 0.2711(3)
H18 H 0.2789 0.7614 0.2996
H19 H 0.2791 0.7776 0.2479
H20 H 0.4105 0.7420 0.2731
C28 C 0.0904(7) 0.3067(3) 0.4774(2)
C29 C 0.0027(7) 0.2974(3) 0.4376(2)
H21 H -0.0255 0.3329 0.4198
C30 C -0.0425(8) 0.2368(3) 0.4246(2)
H22 H -0.0989 0.2321 0.3975
C31 C -0.0077(8) 0.1825(3) 0.4500(2)
C32 C 0.0734(8) 0.1914(3) 0.4904(2)
H23 H 0.0959 0.1559 0.5090
C33 C 0.1212(7) 0.2516(3) 0.5039(2)
H24 H 0.1758 0.2559 0.5314
C34 C -0.0601(10) 0.1145(4) 0.4352(3)
C35 C 0.0735(13) 0.0732(5) 0.4299(4)
H25 H 0.0480 0.0282 0.4300
H26 H 0.1437 0.0819 0.4546
H27 H 0.1123 0.0837 0.4018
C36 C -0.1636(13) 0.1125(5) 0.3971(4)
H28 H -0.2010 0.0693 0.3935
H29 H -0.1192 0.1248 0.3703
H30 H -0.2402 0.1420 0.4019
C37 C -0.1252(14) 0.0817(5) 0.4749(4)
H31 H -0.1950 0.1099 0.4865
H32 H -0.0511 0.0726 0.4984
H33 H -0.1705 0.0419 0.4649
C38 C 0.1648(6) 0.2856(3) 0.66322(19)
C39 C 0.0552(6) 0.2547(3) 0.6375(2)
H34 H 0.0072 0.2762 0.6132
C40 C 0.0164(7) 0.1915(3) 0.6477(2)
H35 H -0.0576 0.1719 0.6298
C41 C 0.0829(6) 0.1572(3) 0.6830(2)
C42 C 0.1933(6) 0.1885(3) 0.7082(2)
H36 H 0.2422 0.1667 0.7322
C43 C 0.2322(6) 0.2502(3) 0.6987(2)
H37 H 0.3067 0.2693 0.7166
C44 C 0.0374(7) 0.0883(3) 0.6953(2)
C45 C 0.1671(8) 0.0439(4) 0.6982(3)
H38 H 0.1421 0.0030 0.7109
H39 H 0.2433 0.0634 0.7171
H40 H 0.1978 0.0372 0.6684
C46 C -0.0774(8) 0.0611(3) 0.6625(3)
H41 H -0.1606 0.0883 0.6619
H42 H -0.1017 0.0182 0.6719
H43 H -0.0433 0.0594 0.6329
C47 C -0.0214(9) 0.0908(4) 0.7431(3)
H44 H -0.1042 0.1184 0.7420
H45 H 0.0511 0.1077 0.7647
H46 H -0.0474 0.0480 0.7520
C48 C 0.4122(6) 0.5150(3) 0.78107(19)
C49 C 0.4314(6) 0.5816(3) 0.7845(2)
H47 H 0.4186 0.6071 0.7586
C50 C 0.4690(7) 0.6105(3) 0.8255(2)
H48 H 0.4822 0.6551 0.8264
C51 C 0.4881(7) 0.5758(3) 0.8655(2)
C52 C 0.4750(7) 0.5095(3) 0.8621(2)
H49 H 0.4908 0.4843 0.8881
C53 C 0.4387(7) 0.4792(3) 0.8208(2)
H50 H 0.4319 0.4343 0.8197
C54 C 0.5197(12) 0.6089(5) 0.9106(3)
C55 C 0.5375(12) 0.6803(5) 0.9080(3)
H51 H 0.5327 0.6989 0.9375
H52 H 0.4625 0.6981 0.8877
H53 H 0.6287 0.6901 0.8970
C56 C 0.6554(11) 0.5860(5) 0.9339(3)
H54 H 0.6559 0.5395 0.9347
H55 H 0.6649 0.6026 0.9642
H56 H 0.7341 0.6011 0.9178
C57 C 0.3973(11) 0.5986(5) 0.9387(3)
H57 H 0.3468 0.5600 0.9289
H58 H 0.3337 0.6351 0.9354
H59 H 0.4324 0.5942 0.9699
C58 C 0.3634(6) 0.4821(3) 0.73841(19)
C59 C 0.3625(6) 0.5025(3) 0.69391(19)
C60 C 0.4242(6) 0.5643(3) 0.68011(19)
C61 C 0.3400(7) 0.6174(3) 0.6668(2)
H60 H 0.2409 0.6132 0.6634
C62 C 0.4015(8) 0.6759(3) 0.6588(2)
H61 H 0.3436 0.7107 0.6494
C63 C 0.5485(8) 0.6840(4) 0.6643(2)
C64 C 0.6332(7) 0.6320(3) 0.6751(2)
H62 H 0.7324 0.6361 0.6770
C65 C 0.5704(7) 0.5722(3) 0.6833(2)
H63 H 0.6289 0.5369 0.6911
C66 C 0.7477(11) 0.7558(5) 0.6617(3)
H64 H 0.7844 0.7493 0.6926
H65 H 0.7693 0.7991 0.6525
H66 H 0.7912 0.7253 0.6426
F1 F 0.4358(4) 0.50524(17) 0.57790(11)
F2 F 0.2173(4) 0.55078(17) 0.58291(12)
N1 N 0.2321(5) 0.4576(2) 0.53493(15)
N2 N 0.1754(5) 0.3588(2) 0.57260(16)
N3 N 0.2676(5) 0.4470(2) 0.61879(15)
O1 O 0.4195(6) 0.7816(2) 0.52382(18)
O2 O 0.5971(7) 0.7466(3) 0.65793(19)
S1 S 0.29104(17) 0.40438(8) 0.74435(5)
S2 S 0.14219(19) 0.44235(8) 0.40721(5)
loop_
_geom_bond_atom_site_label_1
_geom_bond_atom_site_label_2
_geom_bond_site_symmetry_1
_geom_bond_site_symmetry_2
B1 F1 1_555 1_555
C1 C2 1_555 1_555
C2 C3 1_555 1_555
C3 C18 1_555 1_555
C4 C1 1_555 1_555
C5 C4 1_555 1_555
C6 C5 1_555 1_555
C7 C8 1_555 1_555
C8 C9 1_555 1_555
C9 C10 1_555 1_555
C10 C59 1_555 1_555
C11 C2 1_555 1_555
C12 C11 1_555 1_555
H1 C12 1_555 1_555
C13 C12 1_555 1_555
H2 C13 1_555 1_555
C14 C13 1_555 1_555
C15 C14 1_555 1_555
H3 C15 1_555 1_555
C16 C11 1_555 1_555
H4 C16 1_555 1_555
C17 H5 1_555 1_555
H6 C17 1_555 1_555
H7 C17 1_555 1_555
C18 C19 1_555 1_555
C19 H8 1_555 1_555
C20 C19 1_555 1_555
H9 C20 1_555 1_555
C21 C20 1_555 1_555
C22 C21 1_555 1_555
H10 C22 1_555 1_555
C23 C18 1_555 1_555
H11 C23 1_555 1_555
C24 C21 1_555 1_555
C25 C24 1_555 1_555
H12 C25 1_555 1_555
H13 C25 1_555 1_555
H14 C25 1_555 1_555
C26 C24 1_555 1_555
H15 C26 1_555 1_555
H16 C26 1_555 1_555
H17 C26 1_555 1_555
C27 C24 1_555 1_555
H18 C27 1_555 1_555
H19 C27 1_555 1_555
H20 C27 1_555 1_555
C28 C5 1_555 1_555
C29 C28 1_555 1_555
H21 C29 1_555 1_555
C30 C29 1_555 1_555
H22 C30 1_555 1_555
C31 C30 1_555 1_555
C32 C31 1_555 1_555
H23 C32 1_555 1_555
C33 C28 1_555 1_555
H24 C33 1_555 1_555
C34 C31 1_555 1_555
C35 C34 1_555 1_555
H25 C35 1_555 1_555
H26 C35 1_555 1_555
H27 C35 1_555 1_555
C36 C34 1_555 1_555
H28 C36 1_555 1_555
H29 C36 1_555 1_555
H30 C36 1_555 1_555
C37 C34 1_555 1_555
H31 C37 1_555 1_555
H32 C37 1_555 1_555
H33 C37 1_555 1_555
C38 C8 1_555 1_555
C39 C38 1_555 1_555
H34 C39 1_555 1_555
C40 C39 1_555 1_555
H35 C40 1_555 1_555
C41 C40 1_555 1_555
C42 C41 1_555 1_555
H36 C42 1_555 1_555
C43 C38 1_555 1_555
H37 C43 1_555 1_555
C44 C41 1_555 1_555
C45 C44 1_555 1_555
H38 C45 1_555 1_555
H39 C45 1_555 1_555
H40 C45 1_555 1_555
C46 C44 1_555 1_555
H41 C46 1_555 1_555
H42 C46 1_555 1_555
H43 C46 1_555 1_555
C47 C44 1_555 1_555
H44 C47 1_555 1_555
H45 C47 1_555 1_555
H46 C47 1_555 1_555
C48 C49 1_555 1_555
C49 H47 1_555 1_555
C50 C49 1_555 1_555
H48 C50 1_555 1_555
C51 C50 1_555 1_555
C52 C51 1_555 1_555
H49 C52 1_555 1_555
C53 C48 1_555 1_555
H50 C53 1_555 1_555
C54 C51 1_555 1_555
C55 C54 1_555 1_555
H51 C55 1_555 1_555
H52 C55 1_555 1_555
H53 C55 1_555 1_555
C56 C54 1_555 1_555
H54 C56 1_555 1_555
H55 C56 1_555 1_555
H56 C56 1_555 1_555
C57 C54 1_555 1_555
H57 C57 1_555 1_555
H58 C57 1_555 1_555
H59 C57 1_555 1_555
C58 C48 1_555 1_555
C59 C58 1_555 1_555
C60 C59 1_555 1_555
C61 C60 1_555 1_555
H60 C61 1_555 1_555
C62 C61 1_555 1_555
H61 C62 1_555 1_555
C63 C62 1_555 1_555
C64 C63 1_555 1_555
H62 C64 1_555 1_555
C65 C60 1_555 1_555
H63 C65 1_555 1_555
C66 H64 1_555 1_555
H65 C66 1_555 1_555
H66 C66 1_555 1_555
F2 B1 1_555 1_555
N1 B1 1_555 1_555
N2 C6 1_555 1_555
N3 B1 1_555 1_555
O1 C14 1_555 1_555
O2 C63 1_555 1_555
S1 C9 1_555 1_555
S2 C3 1_555 1_555
C1 N1 1_555 1_555
C4 S2 1_555 1_555
C6 N1 1_555 1_555
C7 N2 1_555 1_555
C7 N3 1_555 1_555
C10 N3 1_555 1_555
C15 C16 1_555 1_555
C17 O1 1_555 1_555
C22 C23 1_555 1_555
C32 C33 1_555 1_555
C42 C43 1_555 1_555
C52 C53 1_555 1_555
C58 S1 1_555 1_555
C64 C65 1_555 1_555
C66 O2 1_555 1_555

#END
