
#######################################################################
#
#                 Cambridge Crystallographic Data Centre
#                                CCDC 
#
#######################################################################
#
# If this CIF has been generated from an entry in the Cambridge 
# Structural Database, then it will include bibliographic, chemical, 
# crystal, experimental, refinement or atomic coordinate data resulting 
# from the CCDC's data processing and validation procedures.
#
#######################################################################

data_OPIREM
_chemical_formula_moiety         'C20 H19 Cl1 N2 O7'
_chemical_name_systematic        
"1-(3-chlorophenyl)-2'-oxo-2',5'-dihydro-1H,1'H-2,3'-bipyrrole-4',5-diyl diethyl bis(carbonate)"
_symmetry_cell_setting           monoclinic
_symmetry_space_group_name_H-M   'P 21/n'
_symmetry_Int_Tables_number      14
_space_group_name_Hall           '-P 2yn'
loop_
_symmetry_equiv_pos_site_id
_symmetry_equiv_pos_as_xyz
1 x,y,z
2 1/2-x,1/2+y,1/2-z
3 -x,-y,-z
4 1/2+x,1/2-y,1/2+z
_cell_length_a                   10.0440(9)
_cell_length_b                   17.0692(18)
_cell_length_c                   12.0304(12)
_cell_angle_alpha                90
_cell_angle_beta                 95.588(3)
_cell_angle_gamma                90
_cell_volume                     2052.73
_exptl_crystal_colour            yellow
_exptl_crystal_description       block
_cell_formula_units_Z            4
loop_
_atom_site_label
_atom_site_type_symbol
_atom_site_fract_x
_atom_site_fract_y
_atom_site_fract_z
C1 C 1.0460(2) -0.10887(14) 0.09245(18)
C2 C 1.1702(2) -0.13404(15) 0.0776(2)
H1 H 1.1931 -0.1722 0.0277
C3 C 1.2579(2) -0.09112(15) 0.1523(2)
H2 H 1.3505 -0.0964 0.1609
C4 C 1.1862(2) -0.04069(13) 0.20992(18)
C5 C 0.8917(2) -0.20328(15) 0.0194(2)
C6 C 0.7236(3) -0.27976(18) -0.0754(3)
H3 H 0.7136 -0.3139 -0.0123
H4 H 0.7854 -0.3041 -0.1221
C7 C 0.5943(3) -0.2673(2) -0.1392(3)
H5 H 0.5309 -0.2492 -0.0902
H6 H 0.5634 -0.3156 -0.1734
H7 H 0.6034 -0.2287 -0.1961
C8 C 0.9382(2) -0.02173(13) 0.22282(18)
C9 C 0.8283(2) 0.00691(14) 0.1570(2)
H8 H 0.8275 0.0081 0.0796
C10 C 0.7203(2) 0.03356(17) 0.2083(3)
C11 C 0.7206(3) 0.0345(2) 0.3223(3)
H9 H 0.6479 0.0542 0.3558
C12 C 0.8308(3) 0.0056(2) 0.3860(2)
H10 H 0.8324 0.0060 0.4634
C13 C 0.9390(2) -0.02371(16) 0.3375(2)
H11 H 1.0117 -0.0446 0.3815
C14 C 1.23638(19) 0.01828(13) 0.29018(17)
C15 C 1.3571(2) 0.00367(14) 0.37027(18)
C16 C 1.2868(2) 0.13096(15) 0.3979(2)
H12 H 1.3281 0.1775 0.3703
H13 H 1.2384 0.1448 0.4611
C17 C 1.1980(2) 0.09128(13) 0.30800(18)
C18 C 1.0253(4) 0.1837(2) 0.2863(3)
Cl1 Cl 0.58002(7) 0.06685(7) 0.12667(9)
N1 N 1.05113(16) -0.05133(11) 0.17270(14)
N2 N 1.38395(18) 0.07029(12) 0.42646(17)
H14 H 1.4522 0.0763 0.4747
O1 O 0.92203(16) -0.12701(10) 0.04054(15)
O2 O 0.9599(2) -0.25708(12) 0.0478(2)
O3 O 0.77421(17) -0.20362(10) -0.03672(16)
O4 O 1.09803(16) 0.12839(10) 0.24265(14)
O5 O 1.0267(4) 0.1955(3) 0.3813(3)
O6 O 1.41967(15) -0.05778(11) 0.38315(14)
O7 O 0.9485(3) 0.21351(18) 0.2051(2)
C19 C 0.7529(12) 0.2798(8) 0.2160(11)
H15 H 0.7247 0.2642 0.1407
H16 H 0.7055 0.3262 0.2340
H17 H 0.7343 0.2384 0.2662
C20 C 0.8933(9) 0.2954(6) 0.2265(11)
H18 H 0.9243 0.3143 0.3006
H19 H 0.9171 0.3329 0.1711
C21? C 0.8120(14) 0.2495(8) 0.2419(10)
H20? H 0.7377 0.2420 0.1851
H21? H 0.7895 0.2280 0.3123
C22? C 0.8492(19) 0.3261(10) 0.2516(15)
H22? H 0.9080 0.3331 0.3186
H23? H 0.7712 0.3582 0.2547
H24? H 0.8946 0.3410 0.1882
loop_
_geom_bond_atom_site_label_1
_geom_bond_atom_site_label_2
_geom_bond_site_symmetry_1
_geom_bond_site_symmetry_2
C1 C2 1_555 1_555
C2 H1 1_555 1_555
C3 C2 1_555 1_555
H2 C3 1_555 1_555
C4 C3 1_555 1_555
C5 O1 1_555 1_555
C6 H3 1_555 1_555
H4 C6 1_555 1_555
C7 C6 1_555 1_555
H5 C7 1_555 1_555
H6 C7 1_555 1_555
H7 C7 1_555 1_555
C8 C9 1_555 1_555
C9 H8 1_555 1_555
C10 C9 1_555 1_555
C11 C10 1_555 1_555
H9 C11 1_555 1_555
C12 C11 1_555 1_555
H10 C12 1_555 1_555
C13 C8 1_555 1_555
H11 C13 1_555 1_555
C14 C4 1_555 1_555
C15 C14 1_555 1_555
C16 H12 1_555 1_555
H13 C16 1_555 1_555
C17 C14 1_555 1_555
C18 O4 1_555 1_555
Cl1 C10 1_555 1_555
N1 C1 1_555 1_555
N2 C15 1_555 1_555
H14 N2 1_555 1_555
O1 C1 1_555 1_555
O2 C5 1_555 1_555
O3 C5 1_555 1_555
O4 C17 1_555 1_555
O5 C18 1_555 1_555
O6 C15 1_555 1_555
O7 C18 1_555 1_555
C19 H15 1_555 1_555
H16 C19 1_555 1_555
H17 C19 1_555 1_555
C20 O7 1_555 1_555
H18 C20 1_555 1_555
H19 C20 1_555 1_555
C4 N1 1_555 1_555
C6 O3 1_555 1_555
C8 N1 1_555 1_555
C12 C13 1_555 1_555
C16 C17 1_555 1_555
C16 N2 1_555 1_555
C19 C20 1_555 1_555

#END
