
#######################################################################
#
#                 Cambridge Crystallographic Data Centre
#                                CCDC 
#
#######################################################################
#
# If this CIF has been generated from an entry in the Cambridge 
# Structural Database, then it will include bibliographic, chemical, 
# crystal, experimental, refinement or atomic coordinate data resulting 
# from the CCDC's data processing and validation procedures.
#
#######################################################################

data_OPITAK
_chemical_formula_moiety         'C42 H30 O2,0.5(C1 H1 Cl3)'
_chemical_name_systematic        
"4,4'-((1Z,3Z)-1,2,3,4-tetraphenylbuta-1,3-diene-1,4-diyl)dibenzaldehyde chloroform solvate"
_symmetry_cell_setting           monoclinic
_symmetry_space_group_name_H-M   'P 21/n'
_symmetry_Int_Tables_number      14
_space_group_name_Hall           '-P 2yn'
loop_
_symmetry_equiv_pos_site_id
_symmetry_equiv_pos_as_xyz
1 x,y,z
2 1/2-x,1/2+y,1/2-z
3 -x,-y,-z
4 1/2+x,1/2-y,1/2+z
_cell_length_a                   17.5113(6)
_cell_length_b                   11.4777(3)
_cell_length_c                   17.7511(5)
_cell_angle_alpha                90
_cell_angle_beta                 112.239(4)
_cell_angle_gamma                90
_cell_volume                     3302.39
_exptl_crystal_colour            yellow
_exptl_crystal_description       prism
_chemical_melting_point          '491 K'
_cell_formula_units_Z            4
_chemical_properties_physical    Light-sensitive
_exptl_crystal_recrystallization_method chloroform/hexane
_exptl_crystal_preparation       Luminescent
loop_
_atom_site_label
_atom_site_type_symbol
_atom_site_fract_x
_atom_site_fract_y
_atom_site_fract_z
O1 O 0.67517(8) 0.98683(11) 0.15631(8)
O2 O 1.13108(8) 0.98001(11) 0.08558(8)
C1 C 0.75725(11) 0.76569(15) 0.16992(10)
H1 H 0.6999 0.7623 0.1496
C2 C 0.93947(10) 0.55840(14) 0.22855(10)
C3 C 0.85977(10) 0.56527(14) 0.03808(10)
C4 C 0.85614(10) 0.48003(14) 0.08987(9)
C5 C 1.01515(10) 0.55869(14) 0.30526(10)
C6 C 1.07868(10) 0.67876(15) 0.09928(10)
H2 H 1.1322 0.6496 0.1190
C7 C 0.79706(11) 0.87363(15) 0.18770(10)
C8 C 0.80242(10) 0.66442(14) 0.18241(10)
H3 H 0.7751 0.5932 0.1700
C9 C 0.76215(10) 0.34937(14) 0.12835(10)
H4 H 0.7849 0.3800 0.1807
C10 C 0.92816(11) 0.77529(15) 0.23176(10)
H5 H 0.9855 0.7789 0.2535
C11 C 0.70158(11) 0.26476(14) 0.11097(11)
H6 H 0.6831 0.2405 0.1511
C12 C 0.92087(10) 0.46935(14) 0.17418(10)
C13 C 0.88283(11) 0.87754(15) 0.21796(10)
H7 H 0.9098 0.9490 0.2290
C14 C 1.13565(11) 0.87547(15) 0.09633(10)
H8 H 1.1878 0.8419 0.1137
C15 C 1.09280(11) 0.53943(14) 0.30257(11)
H9 H 1.0971 0.5225 0.2531
C16 C 0.97841(11) 0.29962(15) 0.26904(10)
H10 H 0.9619 0.3358 0.3073
C17 C 0.91912(11) 0.76520(15) 0.04146(10)
H11 H 0.8656 0.7945 0.0216
C18 C 0.75576(11) 0.33890(14) -0.00863(10)
H12 H 0.7735 0.3634 -0.0493
C19 C 0.93174(10) 0.64513(14) 0.05645(9)
C20 C 1.01296(10) 0.60393(15) 0.08530(10)
H13 H 1.0229 0.5247 0.0952
C21 C 0.96286(10) 0.35341(14) 0.19395(10)
C22 C 0.79154(10) 0.59141(14) -0.04145(10)
C23 C 1.06530(10) 0.79762(15) 0.08408(10)
C24 C 0.69625(11) 0.25307(15) -0.02554(11)
H14 H 0.6748 0.2199 -0.0772
C25 C 0.66835(11) 0.21599(15) 0.03379(11)
H15 H 0.6278 0.1590 0.0220
C26 C 0.98546(11) 0.29412(15) 0.13662(10)
H16 H 0.9729 0.3263 0.0852
C27 C 0.74974(12) 0.98209(16) 0.17654(11)
H17 H 0.7787 1.0520 0.1855
C28 C 0.98438(11) 0.84039(15) 0.05563(10)
H18 H 0.9747 0.9198 0.0463
C29 C 0.88920(10) 0.66677(14) 0.21358(9)
C30 C 1.15806(12) 0.56852(15) 0.44669(11)
H19 H 1.2055 0.5715 0.4938
C31 C 1.08137(12) 0.58753(16) 0.45056(11)
H20 H 1.0774 0.6026 0.5004
C32 C 0.78975(10) 0.38959(14) 0.06869(10)
C33 C 0.66690(11) 0.64849(16) -0.19054(11)
H21 H 0.6253 0.6664 -0.2402
C34 C 1.01830(12) 0.19273(16) 0.28689(11)
H22 H 1.0284 0.1578 0.3370
C35 C 1.16357(11) 0.54520(15) 0.37267(11)
H23 H 1.2149 0.5333 0.3698
C36 C 1.01066(11) 0.58410(15) 0.38022(10)
H24 H 0.9596 0.5990 0.3831
C37 C 1.02639(12) 0.18801(16) 0.15531(12)
H25 H 1.0425 0.1509 0.1172
C38 C 0.74743(12) 0.63599(16) -0.18499(11)
H26 H 0.7602 0.6458 -0.2309
C39 C 0.70995(11) 0.60604(15) -0.04793(10)
H27 H 0.6968 0.5968 -0.0022
C40 C 1.04315(13) 0.13762(16) 0.23042(12)
H28 H 1.0710 0.0669 0.2432
C41 C 0.80916(11) 0.60874(15) -0.11072(10)
H29 H 0.8633 0.6019 -0.1072
C42 C 0.64872(11) 0.63430(17) -0.12213(11)
H30 H 0.5947 0.6438 -0.1257
Cl1? Cl 0.48445(7) 0.34122(10) 0.01036(8)
Cl2? Cl 0.57808(8) 0.54458(11) 0.09048(7)
Cl3? Cl 0.46621(8) 0.55573(11) -0.07735(7)
C43? C 0.5349(2) 0.4672(3) -0.0017(2)
H31? H 0.5797 0.4441 -0.0190
loop_
_geom_bond_atom_site_label_1
_geom_bond_atom_site_label_2
_geom_bond_site_symmetry_1
_geom_bond_site_symmetry_2
O1 C27 1_555 1_555
O2 C14 1_555 1_555
C1 H1 1_555 1_555
C2 C5 1_555 1_555
C3 C4 1_555 1_555
C4 C12 1_555 1_555
C5 C15 1_555 1_555
C6 H2 1_555 1_555
C7 C1 1_555 1_555
C8 C1 1_555 1_555
H3 C8 1_555 1_555
C9 H4 1_555 1_555
C10 H5 1_555 1_555
C11 C9 1_555 1_555
H6 C11 1_555 1_555
C12 C2 1_555 1_555
C13 C7 1_555 1_555
H7 C13 1_555 1_555
C14 H8 1_555 1_555
C15 H9 1_555 1_555
C16 H10 1_555 1_555
C17 H11 1_555 1_555
C18 H12 1_555 1_555
C19 C3 1_555 1_555
C20 C6 1_555 1_555
H13 C20 1_555 1_555
C21 C12 1_555 1_555
C22 C3 1_555 1_555
C23 C6 1_555 1_555
C24 C18 1_555 1_555
H14 C24 1_555 1_555
C25 C11 1_555 1_555
H15 C25 1_555 1_555
C26 C21 1_555 1_555
H16 C26 1_555 1_555
C27 C7 1_555 1_555
H17 C27 1_555 1_555
C28 C17 1_555 1_555
H18 C28 1_555 1_555
C29 C2 1_555 1_555
C30 H19 1_555 1_555
C31 C30 1_555 1_555
H20 C31 1_555 1_555
C32 C4 1_555 1_555
C33 H21 1_555 1_555
C34 C16 1_555 1_555
H22 C34 1_555 1_555
C35 C15 1_555 1_555
H23 C35 1_555 1_555
C36 C5 1_555 1_555
H24 C36 1_555 1_555
C37 C26 1_555 1_555
H25 C37 1_555 1_555
C38 C33 1_555 1_555
H26 C38 1_555 1_555
C39 C22 1_555 1_555
H27 C39 1_555 1_555
C40 C34 1_555 1_555
H28 C40 1_555 1_555
C41 C22 1_555 1_555
H29 C41 1_555 1_555
C42 C33 1_555 1_555
H30 C42 1_555 1_555
C8 C29 1_555 1_555
C9 C32 1_555 1_555
C10 C13 1_555 1_555
C10 C29 1_555 1_555
C14 C23 1_555 1_555
C16 C21 1_555 1_555
C17 C19 1_555 1_555
C18 C32 1_555 1_555
C19 C20 1_555 1_555
C23 C28 1_555 1_555
C24 C25 1_555 1_555
C30 C35 1_555 1_555
C31 C36 1_555 1_555
C37 C40 1_555 1_555
C38 C41 1_555 1_555
C39 C42 1_555 1_555

#END
