
#######################################################################
#
#                 Cambridge Crystallographic Data Centre
#                                CCDC 
#
#######################################################################
#
# If this CIF has been generated from an entry in the Cambridge 
# Structural Database, then it will include bibliographic, chemical, 
# crystal, experimental, refinement or atomic coordinate data resulting 
# from the CCDC's data processing and validation procedures.
#
#######################################################################

data_OPITIS
_chemical_formula_moiety         'C21 H22 N2 O4 S1'
_chemical_name_systematic        
't-butyl (S)-2-oxo-5-((S)-3-oxo-3-(pyridin-2-yl)-1-(2-thienyl)propyl)-2,5-dihydro-1H-pyrrole-1-carboxylate'
_symmetry_cell_setting           orthorhombic
_symmetry_space_group_name_H-M   'P 21 21 21'
_symmetry_Int_Tables_number      19
_space_group_name_Hall           'P 2ac 2ab'
loop_
_symmetry_equiv_pos_site_id
_symmetry_equiv_pos_as_xyz
1 x,y,z
2 1/2-x,-y,1/2+z
3 1/2+x,1/2-y,-z
4 -x,1/2+y,1/2-z
_cell_length_a                   8.291(5)
_cell_length_b                   10.918(5)
_cell_length_c                   22.462(5)
_cell_angle_alpha                90
_cell_angle_beta                 90
_cell_angle_gamma                90
_cell_volume                     2033.29
_exptl_crystal_description       block
_chemical_melting_point          '49.8-50.3 deg.C'
_cell_formula_units_Z            4
loop_
_atom_site_label
_atom_site_type_symbol
_atom_site_fract_x
_atom_site_fract_y
_atom_site_fract_z
S1 S 0.8398(5) 0.5404(2) 0.30942(13)
C1 C 0.9422(17) 0.5032(11) 0.4109(6)
H1 H 0.9611 0.5121 0.4515
O1 O 0.6376(4) 0.9102(3) 0.43509(16)
N1 N 0.9954(4) 0.9424(3) 0.35752(14)
O2 O 0.7952(3) 0.9269(2) 0.29162(12)
O3 O 0.8562(5) 1.1133(2) 0.32863(19)
C2 C 0.8736(5) 0.7375(3) 0.38479(16)
H2 H 0.7751 0.7623 0.3639
O4 O 1.1465(5) 1.1071(3) 0.39249(18)
C3 C 1.0147(4) 0.8081(3) 0.35576(16)
H3 H 1.0268 0.7816 0.3143
N2 N 0.9650(5) 0.9556(4) 0.53024(17)
C4 C 1.1706(5) 0.7925(4) 0.38726(18)
H4 H 1.2192 0.7171 0.3940
C5 C 0.8956(5) 0.6025(3) 0.37368(18)
C6 C 1.2323(5) 0.8983(4) 0.4046(2)
H5 H 1.3285 0.9075 0.4254
C7 C 1.1268(5) 0.9984(4) 0.38613(19)
C8 C 0.7865(7) 1.1067(4) 0.4918(2)
H6 H 0.7026 1.1265 0.4660
C9 C 0.8491(5) 0.7683(3) 0.45074(17)
H7 H 0.7842 0.7049 0.4692
H8 H 0.9530 0.7700 0.4706
C10 C 0.7666(5) 0.8909(4) 0.45842(17)
C11 C 0.8785(5) 1.0053(3) 0.32525(19)
C12 C 0.9576(7) 0.3885(4) 0.3805(3)
H9 H 0.9880 0.3110 0.3936
C13 C 0.8446(5) 0.9888(3) 0.49521(16)
C14 C 0.8946(7) 0.4044(4) 0.3278(3)
H10 H 0.8703 0.3448 0.2997
C15 C 0.9801(9) 1.1623(5) 0.5642(2)
H11 H 1.0302 1.2201 0.5883
C16 C 0.6924(7) 1.0561(5) 0.2111(2)
H12 H 0.7696 1.0198 0.1845
H13 H 0.7379 1.1283 0.2287
H14 H 0.5970 1.0776 0.1892
C17 C 0.8567(8) 1.1951(4) 0.5279(3)
H15 H 0.8198 1.2755 0.5271
C18 C 1.0292(8) 1.0439(5) 0.5647(3)
H16 H 1.1124 1.0224 0.5905
C19 C 0.6495(5) 0.9658(4) 0.2593(2)
C20 C 0.5961(9) 0.8460(5) 0.2319(3)
H17 H 0.5690 0.7891 0.2630
H18 H 0.6821 0.8129 0.2082
H19 H 0.5034 0.8598 0.2073
C21 C 0.5273(7) 1.0159(8) 0.3017(3)
H20 H 0.5040 0.9559 0.3317
H21 H 0.4302 1.0355 0.2804
H22 H 0.5690 1.0886 0.3202
C22? C 0.872(2) 0.5300(13) 0.3231(6)
H23? H 0.8418 0.5652 0.2871
S2? S 0.9807(6) 0.5056(3) 0.42171(18)
loop_
_geom_bond_atom_site_label_1
_geom_bond_atom_site_label_2
_geom_bond_site_symmetry_1
_geom_bond_site_symmetry_2
S1 C5 1_555 1_555
C1 H1 1_555 1_555
O1 C10 1_555 1_555
N1 C3 1_555 1_555
O2 C11 1_555 1_555
O3 C11 1_555 1_555
C2 H2 1_555 1_555
O4 C7 1_555 1_555
C3 C2 1_555 1_555
H3 C3 1_555 1_555
N2 C13 1_555 1_555
C4 C3 1_555 1_555
H4 C4 1_555 1_555
C5 C1 1_555 1_555
C6 C4 1_555 1_555
H5 C6 1_555 1_555
C7 N1 1_555 1_555
C8 H6 1_555 1_555
C9 C2 1_555 1_555
H7 C9 1_555 1_555
H8 C9 1_555 1_555
C10 C9 1_555 1_555
C11 N1 1_555 1_555
C12 C1 1_555 1_555
H9 C12 1_555 1_555
C13 C8 1_555 1_555
C14 S1 1_555 1_555
H10 C14 1_555 1_555
C15 H11 1_555 1_555
C16 H12 1_555 1_555
H13 C16 1_555 1_555
H14 C16 1_555 1_555
C17 C8 1_555 1_555
H15 C17 1_555 1_555
C18 N2 1_555 1_555
H16 C18 1_555 1_555
C19 O2 1_555 1_555
C20 C19 1_555 1_555
H17 C20 1_555 1_555
H18 C20 1_555 1_555
H19 C20 1_555 1_555
C21 C19 1_555 1_555
H20 C21 1_555 1_555
H21 C21 1_555 1_555
H22 C21 1_555 1_555
C2 C5 1_555 1_555
C6 C7 1_555 1_555
C10 C13 1_555 1_555
C12 C14 1_555 1_555
C15 C17 1_555 1_555
C15 C18 1_555 1_555
C16 C19 1_555 1_555

#END
