
#######################################################################
#
#                 Cambridge Crystallographic Data Centre
#                                CCDC 
#
#######################################################################
#
# If this CIF has been generated from an entry in the Cambridge 
# Structural Database, then it will include bibliographic, chemical, 
# crystal, experimental, refinement or atomic coordinate data resulting 
# from the CCDC's data processing and validation procedures.
#
#######################################################################

data_OPIWUH
_chemical_formula_moiety         'C52 H40 D12 N4 O4,C2 H3 N1,C5 H5 N1 O1'
_chemical_name_systematic        
'2,7,12,17-tetrakis(4-methoxyphenyl)-2,7,12,17-tetramethyl-4,5,9,10,14,15,19,20,21,22,23,24-dodecadeuterocalix(4)pyrrole pyridine N-oxide acetonitrile solvate'
_symmetry_cell_setting           monoclinic
_symmetry_space_group_name_H-M   'P 21'
_symmetry_Int_Tables_number      4
_space_group_name_Hall           'P 2yb'
loop_
_symmetry_equiv_pos_site_id
_symmetry_equiv_pos_as_xyz
1 x,y,z
2 -x,1/2+y,-z
_cell_length_a                   10.9462(3)
_cell_length_b                   21.6003(7)
_cell_length_c                   10.9788(4)
_cell_angle_alpha                90
_cell_angle_beta                 105.7960(10)
_cell_angle_gamma                90
_cell_volume                     2497.81
_exptl_crystal_colour            colorless
_exptl_crystal_description       block
_cell_formula_units_Z            2
loop_
_atom_site_label
_atom_site_type_symbol
_atom_site_fract_x
_atom_site_fract_y
_atom_site_fract_z
O1 O 1.1959(2) 0.05062(11) 0.3808(3)
O2 O 0.5318(2) 0.07571(9) 0.1859(2)
O3 O 0.6758(2) 0.00427(10) 0.7375(2)
O4 O 1.2924(2) 0.01251(10) 0.9400(2)
N1 N 1.14921(18) 0.28571(9) 0.69457(17)
D1 D 1.0964 0.2543 0.6747
N2 N 0.90709(18) 0.30881(9) 0.43195(18)
D2 D 0.9072 0.2774 0.4830
N3 N 0.70788(18) 0.28924(9) 0.59782(17)
D3 D 0.7623 0.2599 0.5936
N4 N 0.94727(18) 0.26655(9) 0.85979(17)
D4 D 0.9446 0.2460 0.7899
C1 C 1.2073(2) 0.30492(11) 0.8163(2)
C2 C 1.2782(2) 0.35608(12) 0.8066(2)
D5 D 1.3278 0.3799 0.8752
C3 C 1.2648(2) 0.36726(12) 0.6767(2)
D6 D 1.3037 0.3998 0.6426
C4 C 1.1856(2) 0.32278(11) 0.6084(2)
C5 C 1.1457(2) 0.30887(11) 0.4670(2)
C6 C 1.2398(2) 0.34175(12) 0.4065(2)
H1 H 1.2191 0.3314 0.3162
H2 H 1.3264 0.3281 0.4483
H3 H 1.2336 0.3866 0.4163
C7 C 1.1566(2) 0.23898(11) 0.4452(2)
C8 C 1.0736(3) 0.20735(13) 0.3454(2)
H4 H 1.0055 0.2292 0.2898
C9 C 1.0888(3) 0.14478(14) 0.3259(3)
H5 H 1.0310 0.1240 0.2578
C10 C 1.1885(3) 0.11233(13) 0.4057(3)
C11 C 1.2736(3) 0.14295(14) 0.5036(3)
H6 H 1.3425 0.1212 0.5582
C12 C 1.2571(3) 0.20577(13) 0.5213(3)
H7 H 1.3168 0.2267 0.5877
C13 C 1.3013(5) 0.0176(2) 0.4557(6)
H8 H 1.3800 0.0382 0.4521
H9 H 1.3003 -0.0248 0.4233
H10 H 1.2967 0.0163 0.5435
C14 C 1.0140(2) 0.33360(10) 0.4072(2)
C15 C 0.9739(2) 0.38223(11) 0.3258(2)
D7 D 1.0267 0.4084 0.2924
C16 C 0.8398(2) 0.38666(11) 0.3000(2)
D8 D 0.7871 0.4164 0.2469
C17 C 0.8004(2) 0.34018(10) 0.3655(2)
C18 C 0.6677(2) 0.32160(11) 0.3679(2)
C19 C 0.5714(3) 0.36433(13) 0.2767(2)
H11 H 0.5882 0.4075 0.3037
H12 H 0.4850 0.3531 0.2780
H13 H 0.5800 0.3595 0.1907
C20 C 0.6365(2) 0.25470(11) 0.3197(2)
C21 C 0.5356(2) 0.22258(12) 0.3460(2)
H14 H 0.4895 0.2415 0.3979
C22 C 0.5014(3) 0.16402(13) 0.2983(3)
H15 H 0.4323 0.1433 0.3172
C23 C 0.5681(3) 0.13512(12) 0.2224(2)
C24 C 0.6662(3) 0.16646(13) 0.1927(2)
H16 H 0.7111 0.1477 0.1396
C25 C 0.6992(2) 0.22591(12) 0.2408(2)
H17 H 0.7662 0.2472 0.2189
C26 C 0.5936(4) 0.04582(17) 0.1032(4)
H18 H 0.5819 0.0704 0.0258
H19 H 0.5570 0.0046 0.0814
H20 H 0.6845 0.0420 0.1455
C27 C 0.6504(2) 0.32856(11) 0.4996(2)
C28 C 0.5757(2) 0.36810(12) 0.5454(2)
D9 D 0.5252 0.4007 0.4995
C29 C 0.5867(2) 0.35194(12) 0.6729(2)
D10 D 0.5451 0.3718 0.7277
C30 C 0.6676(2) 0.30266(10) 0.7033(2)
C31 C 0.7092(2) 0.26560(11) 0.8254(2)
C32 C 0.6166(2) 0.28058(13) 0.9056(2)
H21 H 0.6225 0.3247 0.9274
H22 H 0.6390 0.2558 0.9832
H23 H 0.5296 0.2708 0.8568
C33 C 0.7029(2) 0.19525(11) 0.7997(2)
C34 C 0.7788(3) 0.15498(12) 0.8875(2)
H24 H 0.8366 0.1717 0.9610
C35 C 0.7728(3) 0.09112(12) 0.8710(3)
H25 H 0.8256 0.0647 0.9324
C36 C 0.6893(3) 0.06645(12) 0.7646(3)
C37 C 0.6123(3) 0.10578(13) 0.6764(3)
H26 H 0.5550 0.0890 0.6028
C38 C 0.6182(3) 0.16921(13) 0.6945(3)
H27 H 0.5634 0.1953 0.6340
C39 C 0.7475(5) -0.03663(15) 0.8307(4)
H28 H 0.8381 -0.0275 0.8459
H29 H 0.7311 -0.0794 0.8012
H30 H 0.7230 -0.0313 0.9096
C40 C 0.8427(2) 0.28358(11) 0.8992(2)
C41 C 0.8862(3) 0.31509(12) 1.0109(2)
D11 D 0.8356 0.3325 1.0601
C42 C 1.0209(2) 0.31704(12) 1.0399(2)
D12 D 1.0764 0.3363 1.1117
C43 C 1.0565(2) 0.28646(11) 0.9463(2)
C44 C 1.1876(2) 0.27163(11) 0.9314(2)
C45 C 1.2893(2) 0.29497(13) 1.0500(2)
H31 H 1.3741 0.2859 1.0409
H32 H 1.2781 0.2740 1.1254
H33 H 1.2799 0.3398 1.0587
C46 C 1.2072(2) 0.20142(11) 0.9255(2)
C47 C 1.2940(2) 0.17606(13) 0.8673(2)
H34 H 1.3362 0.2024 0.8225
C48 C 1.3198(3) 0.11322(13) 0.8734(3)
H35 H 1.3785 0.0968 0.8320
C49 C 1.2605(3) 0.07416(12) 0.9395(3)
C50 C 1.1746(3) 0.09808(14) 0.9997(3)
H36 H 1.1336 0.0717 1.0455
C51 C 1.1495(3) 0.16119(13) 0.9918(3)
H37 H 1.0908 0.1775 1.0333
C52 C 1.2525(5) -0.02648(18) 1.0268(5)
H38 H 1.2768 -0.0077 1.1112
H39 H 1.2931 -0.0671 1.0300
H40 H 1.1600 -0.0314 0.9988
O5 O 0.92330(17) 0.20581(7) 0.61462(16)
N5 N 0.9198(2) 0.14549(9) 0.58746(18)
C53 C 0.8242(3) 0.12293(14) 0.4940(3)
H41 H 0.7586 0.1498 0.4491
C54 C 0.8206(4) 0.06111(15) 0.4628(3)
H42 H 0.7527 0.0454 0.3965
C55 C 0.9152(4) 0.02215(14) 0.5274(3)
H43 H 0.9148 -0.0204 0.5057
C56 C 1.0103(3) 0.04626(15) 0.6240(4)
H44 H 1.0761 0.0200 0.6710
C57 C 1.0112(3) 0.10795(14) 0.6533(3)
H45 H 1.0772 0.1242 0.7209
N6 N 1.0653(4) 0.50452(19) 0.8581(4)
C58 C 0.9503(3) 0.41364(15) 0.7225(4)
H46 H 0.9134 0.4279 0.6355
H47 H 0.8828 0.3978 0.7571
H48 H 1.0117 0.3806 0.7228
C59 C 1.0138(3) 0.46469(17) 0.7992(4)
loop_
_geom_bond_atom_site_label_1
_geom_bond_atom_site_label_2
_geom_bond_site_symmetry_1
_geom_bond_site_symmetry_2
O1 C10 1_555 1_555
O2 C23 1_555 1_555
O3 C36 1_555 1_555
O4 C49 1_555 1_555
N1 D1 1_555 1_555
N2 D2 1_555 1_555
N3 D3 1_555 1_555
N4 D4 1_555 1_555
C1 N1 1_555 1_555
C2 C1 1_555 1_555
D5 C2 1_555 1_555
C3 C2 1_555 1_555
D6 C3 1_555 1_555
C4 N1 1_555 1_555
C5 C4 1_555 1_555
C6 C5 1_555 1_555
H1 C6 1_555 1_555
H2 C6 1_555 1_555
H3 C6 1_555 1_555
C7 C5 1_555 1_555
C8 C7 1_555 1_555
H4 C8 1_555 1_555
C9 C8 1_555 1_555
H5 C9 1_555 1_555
C10 C9 1_555 1_555
C11 C10 1_555 1_555
H6 C11 1_555 1_555
C12 C7 1_555 1_555
H7 C12 1_555 1_555
C13 O1 1_555 1_555
H8 C13 1_555 1_555
H9 C13 1_555 1_555
H10 C13 1_555 1_555
C14 N2 1_555 1_555
C15 C14 1_555 1_555
D7 C15 1_555 1_555
C16 C15 1_555 1_555
D8 C16 1_555 1_555
C17 N2 1_555 1_555
C18 C17 1_555 1_555
C19 C18 1_555 1_555
H11 C19 1_555 1_555
H12 C19 1_555 1_555
H13 C19 1_555 1_555
C20 C18 1_555 1_555
C21 C20 1_555 1_555
H14 C21 1_555 1_555
C22 C21 1_555 1_555
H15 C22 1_555 1_555
C23 C22 1_555 1_555
C24 C23 1_555 1_555
H16 C24 1_555 1_555
C25 C20 1_555 1_555
H17 C25 1_555 1_555
C26 O2 1_555 1_555
H18 C26 1_555 1_555
H19 C26 1_555 1_555
H20 C26 1_555 1_555
C27 N3 1_555 1_555
C28 C27 1_555 1_555
D9 C28 1_555 1_555
C29 C28 1_555 1_555
D10 C29 1_555 1_555
C30 N3 1_555 1_555
C31 C30 1_555 1_555
C32 C31 1_555 1_555
H21 C32 1_555 1_555
H22 C32 1_555 1_555
H23 C32 1_555 1_555
C33 C31 1_555 1_555
C34 C33 1_555 1_555
H24 C34 1_555 1_555
C35 C34 1_555 1_555
H25 C35 1_555 1_555
C36 C35 1_555 1_555
C37 C36 1_555 1_555
H26 C37 1_555 1_555
C38 C33 1_555 1_555
H27 C38 1_555 1_555
C39 O3 1_555 1_555
H28 C39 1_555 1_555
H29 C39 1_555 1_555
H30 C39 1_555 1_555
C40 N4 1_555 1_555
C41 C40 1_555 1_555
D11 C41 1_555 1_555
C42 C41 1_555 1_555
D12 C42 1_555 1_555
C43 N4 1_555 1_555
C44 C1 1_555 1_555
C45 C44 1_555 1_555
H31 C45 1_555 1_555
H32 C45 1_555 1_555
H33 C45 1_555 1_555
C46 C44 1_555 1_555
C47 C46 1_555 1_555
H34 C47 1_555 1_555
C48 C47 1_555 1_555
H35 C48 1_555 1_555
C49 C48 1_555 1_555
C50 C49 1_555 1_555
H36 C50 1_555 1_555
C51 C46 1_555 1_555
H37 C51 1_555 1_555
C52 O4 1_555 1_555
H38 C52 1_555 1_555
H39 C52 1_555 1_555
H40 C52 1_555 1_555
O5 N5 1_555 1_555
N5 C53 1_555 1_555
C53 H41 1_555 1_555
C54 C53 1_555 1_555
H42 C54 1_555 1_555
C55 C54 1_555 1_555
H43 C55 1_555 1_555
C56 C55 1_555 1_555
H44 C56 1_555 1_555
C57 N5 1_555 1_555
H45 C57 1_555 1_555
N6 C59 1_555 1_555
C58 H46 1_555 1_555
H47 C58 1_555 1_555
H48 C58 1_555 1_555
C59 C58 1_555 1_555
C3 C4 1_555 1_555
C5 C14 1_555 1_555
C11 C12 1_555 1_555
C16 C17 1_555 1_555
C18 C27 1_555 1_555
C24 C25 1_555 1_555
C29 C30 1_555 1_555
C31 C40 1_555 1_555
C37 C38 1_555 1_555
C42 C43 1_555 1_555
C43 C44 1_555 1_555
C50 C51 1_555 1_555
C56 C57 1_555 1_555

#END
