
#######################################################################
#
#                 Cambridge Crystallographic Data Centre
#                                CCDC 
#
#######################################################################
#
# If this CIF has been generated from an entry in the Cambridge 
# Structural Database, then it will include bibliographic, chemical, 
# crystal, experimental, refinement or atomic coordinate data resulting 
# from the CCDC's data processing and validation procedures.
#
#######################################################################

data_OPIXAO
_chemical_formula_moiety         'C48 H32 D12 N4 O4,3(C2 H3 N1)'
_chemical_name_systematic        
'2,7,12,17-tetrakis(4-hydroxyphenyl)-2,7,12,17-tetramethyl-4,5,9,10,14,15,19,20,21,22,23,24-dodecadeuterocalix(4)pyrrole acetonitrile solvate'
_symmetry_cell_setting           monoclinic
_symmetry_space_group_name_H-M   'P 21/n'
_symmetry_Int_Tables_number      14
_space_group_name_Hall           '-P 2yn'
loop_
_symmetry_equiv_pos_site_id
_symmetry_equiv_pos_as_xyz
1 x,y,z
2 1/2-x,1/2+y,1/2-z
3 -x,-y,-z
4 1/2+x,1/2-y,1/2+z
_cell_length_a                   11.1866(14)
_cell_length_b                   36.778(4)
_cell_length_c                   11.3026(13)
_cell_angle_alpha                90
_cell_angle_beta                 90.048(4)
_cell_angle_gamma                90
_cell_volume                     4650.12
_exptl_crystal_colour            red
_exptl_crystal_description       block
_cell_formula_units_Z            4
loop_
_atom_site_label
_atom_site_type_symbol
_atom_site_fract_x
_atom_site_fract_y
_atom_site_fract_z
N1 N 1.0357(4) 0.10278(14) 0.8598(4)
C1 C 0.9740(8) 0.03552(19) 0.8453(9)
H1 H 1.0168 0.0212 0.9048
H2 H 0.9930 0.0263 0.7662
H3 H 0.8878 0.0336 0.8590
C2 C 1.0103(5) 0.07326(17) 0.8540(6)
C3 C -0.1201(4) 0.16760(13) 1.1319(4)
N2 N 0.2544(3) 0.15900(10) 0.8164(3)
D1 D 0.2003 0.1419 0.8267
N3 N 0.0032(3) 0.16437(10) 0.6604(3)
D2 D 0.0119 0.1468 0.7125
N4 N -0.1539(3) 0.16759(10) 0.9108(3)
D3 D -0.1065 0.1489 0.8981
N5 N 0.0974(3) 0.16094(10) 1.0679(3)
D4 D 0.0828 0.1438 1.0155
O1 O 0.3547(4) 0.00665(10) 1.0886(4)
H4 H 0.3364 0.0007 1.1580
O2 O -0.2105(4) 0.01497(11) 1.1431(6)
H5 H -0.2795 0.0103 1.1180
O3 O -0.3113(4) 0.01998(10) 0.6846(4)
H6 H -0.2825 0.0102 0.6239
O4 O 0.2520(4) 0.00983(10) 0.5301(4)
H7 H 0.3022 0.0005 0.5763
C4 C 0.3261(4) 0.17336(12) 0.9053(5)
C5 C 0.3943(4) 0.19981(14) 0.8534(5)
D5 D 0.4512 0.2148 0.8923
C6 C 0.3648(4) 0.20090(13) 0.7298(5)
D6 D 0.3986 0.2167 0.6724
C7 C 0.2801(4) 0.17531(12) 0.7100(4)
C8 C 0.2200(4) 0.16355(12) 0.5957(4)
C9 C 0.2915(5) 0.17913(15) 0.4920(5)
H8 H 0.2970 0.2056 0.5001
H9 H 0.2512 0.1731 0.4175
H10 H 0.3720 0.1686 0.4920
C10 C 0.2261(4) 0.12194(13) 0.5838(4)
C11 C 0.3217(5) 0.10202(14) 0.6260(5)
H11 H 0.3830 0.1143 0.6684
C12 C 0.3319(5) 0.06525(14) 0.6093(5)
H12 H 0.3993 0.0527 0.6400
C13 C 0.2465(6) 0.04666(14) 0.5494(5)
C14 C 0.1496(6) 0.06566(15) 0.4999(5)
H13 H 0.0914 0.0531 0.4542
C15 C 0.1395(5) 0.10244(14) 0.5178(5)
H14 H 0.0731 0.1151 0.4854
C16 C 0.0924(4) 0.17776(12) 0.5910(4)
C17 C 0.0456(5) 0.20521(13) 0.5244(4)
D7 D 0.0873 0.2198 0.4686
C18 C -0.0766(5) 0.20792(13) 0.5542(4)
D8 D -0.1316 0.2249 0.5214
C19 C -0.1032(4) 0.18228(12) 0.6376(4)
C20 C -0.2207(4) 0.17229(12) 0.6980(4)
C21 C -0.3218(4) 0.19149(14) 0.6305(5)
H15 H -0.3980 0.1870 0.6707
H16 H -0.3259 0.1820 0.5495
H17 H -0.3061 0.2177 0.6281
C22 C -0.2426(4) 0.13127(13) 0.6901(4)
C23 C -0.3173(5) 0.11500(14) 0.7713(5)
H18 H -0.3534 0.1295 0.8311
C24 C -0.3408(5) 0.07819(15) 0.7679(5)
H19 H -0.3923 0.0675 0.8250
C25 C -0.2895(5) 0.05700(13) 0.6814(5)
C26 C -0.2212(5) 0.07286(14) 0.5946(5)
H20 H -0.1905 0.0587 0.5312
C27 C -0.1978(5) 0.10989(13) 0.6012(5)
H21 H -0.1491 0.1208 0.5422
C28 C -0.2187(4) 0.18528(12) 0.8245(4)
C29 C -0.2761(4) 0.21324(13) 0.8798(5)
D9 D -0.3263 0.2307 0.8425
C30 C -0.2486(5) 0.21197(13) 1.0014(5)
D10 D -0.2774 0.2282 1.0602
C31 C -0.1735(4) 0.18331(13) 1.0198(4)
C32 C -0.1819(5) 0.18499(16) 1.2394(5)
H22 H -0.1692 0.2113 1.2380
H23 H -0.1482 0.1749 1.3123
H24 H -0.2678 0.1798 1.2363
C33 C -0.1418(5) 0.12677(14) 1.1363(4)
C34 C -0.0647(5) 0.10230(15) 1.1891(5)
H25 H 0.0073 0.1110 1.2236
C35 C -0.0896(6) 0.06520(16) 1.1933(7)
H26 H -0.0350 0.0490 1.2302
C36 C -0.1935(6) 0.05202(16) 1.1438(7)
C37 C -0.2728(5) 0.07577(15) 1.0945(6)
H27 H -0.3457 0.0670 1.0621
C38 C -0.2476(5) 0.11209(15) 1.0917(5)
H28 H -0.3048 0.1281 1.0578
C39 C 0.0120(5) 0.17719(13) 1.1373(4)
C40 C 0.0711(5) 0.20256(14) 1.2035(5)
D11 D 0.0359 0.2185 1.2597
C41 C 0.1937(5) 0.20107(14) 1.1739(5)
D12 D 0.2547 0.2159 1.2069
C42 C 0.2097(4) 0.17516(13) 1.0914(4)
C43 C 0.3200(4) 0.16064(12) 1.0316(4)
C44 C 0.4314(5) 0.17644(15) 1.0966(5)
H29 H 0.4312 0.2030 1.0898
H30 H 0.5043 0.1667 1.0606
H31 H 0.4286 0.1696 1.1804
C45 C 0.3265(4) 0.11891(14) 1.0435(5)
C46 C 0.3786(5) 0.09722(14) 0.9597(5)
H32 H 0.4087 0.1080 0.8894
C47 C 0.3889(5) 0.05939(15) 0.9749(5)
H33 H 0.4254 0.0448 0.9157
C48 C 0.3454(5) 0.04395(14) 1.0765(5)
C49 C 0.2964(5) 0.06520(15) 1.1645(5)
H34 H 0.2692 0.0544 1.2359
C50 C 0.2868(5) 0.10256(15) 1.1483(5)
H35 H 0.2530 0.1172 1.2090
N6 N 0.5756(6) 0.03557(17) 0.3691(6)
C51 C 0.5433(7) 0.10466(17) 0.3666(7)
H36 H 0.6206 0.1168 0.3560
H37 H 0.5082 0.1122 0.4421
H38 H 0.4896 0.1115 0.3017
C52 C 0.5604(6) 0.0659(2) 0.3664(6)
N7 N 0.5434(4) 0.19608(14) 0.3592(4)
C53 C 0.5681(5) 0.26523(15) 0.3664(6)
H39 H 0.5276 0.2747 0.4367
H40 H 0.5333 0.2763 0.2953
H41 H 0.6534 0.2711 0.3705
C54 C 0.5536(4) 0.22678(16) 0.3613(4)
loop_
_geom_bond_atom_site_label_1
_geom_bond_atom_site_label_2
_geom_bond_site_symmetry_1
_geom_bond_site_symmetry_2
N1 C2 1_555 1_555
C1 H1 1_555 1_555
H2 C1 1_555 1_555
H3 C1 1_555 1_555
C2 C1 1_555 1_555
C3 C31 1_555 1_555
N2 D1 1_555 1_555
N3 D2 1_555 1_555
N4 D3 1_555 1_555
N5 D4 1_555 1_555
O1 H4 1_555 1_555
O2 H5 1_555 1_555
O3 H6 1_555 1_555
O4 H7 1_555 1_555
C4 N2 1_555 1_555
C5 C4 1_555 1_555
D5 C5 1_555 1_555
C6 C5 1_555 1_555
D6 C6 1_555 1_555
C7 N2 1_555 1_555
C8 C7 1_555 1_555
C9 C8 1_555 1_555
H8 C9 1_555 1_555
H9 C9 1_555 1_555
H10 C9 1_555 1_555
C10 C8 1_555 1_555
C11 C10 1_555 1_555
H11 C11 1_555 1_555
C12 C11 1_555 1_555
H12 C12 1_555 1_555
C13 O4 1_555 1_555
C14 C13 1_555 1_555
H13 C14 1_555 1_555
C15 C10 1_555 1_555
H14 C15 1_555 1_555
C16 N3 1_555 1_555
C17 C16 1_555 1_555
D7 C17 1_555 1_555
C18 C17 1_555 1_555
D8 C18 1_555 1_555
C19 N3 1_555 1_555
C20 C19 1_555 1_555
C21 C20 1_555 1_555
H15 C21 1_555 1_555
H16 C21 1_555 1_555
H17 C21 1_555 1_555
C22 C20 1_555 1_555
C23 C22 1_555 1_555
H18 C23 1_555 1_555
C24 C23 1_555 1_555
H19 C24 1_555 1_555
C25 O3 1_555 1_555
C26 C25 1_555 1_555
H20 C26 1_555 1_555
C27 C22 1_555 1_555
H21 C27 1_555 1_555
C28 N4 1_555 1_555
C29 C28 1_555 1_555
D9 C29 1_555 1_555
C30 C29 1_555 1_555
D10 C30 1_555 1_555
C31 N4 1_555 1_555
C32 C3 1_555 1_555
H22 C32 1_555 1_555
H23 C32 1_555 1_555
H24 C32 1_555 1_555
C33 C3 1_555 1_555
C34 C33 1_555 1_555
H25 C34 1_555 1_555
C35 C34 1_555 1_555
H26 C35 1_555 1_555
C36 O2 1_555 1_555
C37 C36 1_555 1_555
H27 C37 1_555 1_555
C38 C33 1_555 1_555
H28 C38 1_555 1_555
C39 C3 1_555 1_555
C40 C39 1_555 1_555
D11 C40 1_555 1_555
C41 C40 1_555 1_555
D12 C41 1_555 1_555
C42 N5 1_555 1_555
C43 C4 1_555 1_555
C44 C43 1_555 1_555
H29 C44 1_555 1_555
H30 C44 1_555 1_555
H31 C44 1_555 1_555
C45 C43 1_555 1_555
C46 C45 1_555 1_555
H32 C46 1_555 1_555
C47 C46 1_555 1_555
H33 C47 1_555 1_555
C48 O1 1_555 1_555
C49 C48 1_555 1_555
H34 C49 1_555 1_555
C50 C45 1_555 1_555
H35 C50 1_555 1_555
N6 C52 1_555 1_555
C51 H36 1_555 1_555
H37 C51 1_555 1_555
H38 C51 1_555 1_555
C52 C51 1_555 1_555
N7 C54 1_555 1_555
C53 H39 1_555 1_555
H40 C53 1_555 1_555
H41 C53 1_555 1_555
C54 C53 1_555 1_555
N5 C39 1_555 1_555
C6 C7 1_555 1_555
C8 C16 1_555 1_555
C12 C13 1_555 1_555
C14 C15 1_555 1_555
C18 C19 1_555 1_555
C20 C28 1_555 1_555
C24 C25 1_555 1_555
C26 C27 1_555 1_555
C30 C31 1_555 1_555
C35 C36 1_555 1_555
C37 C38 1_555 1_555
C41 C42 1_555 1_555
C42 C43 1_555 1_555
C47 C48 1_555 1_555
C49 C50 1_555 1_555

#END
