
#######################################################################
#
#                 Cambridge Crystallographic Data Centre
#                                CCDC 
#
#######################################################################
#
# If this CIF has been generated from an entry in the Cambridge 
# Structural Database, then it will include bibliographic, chemical, 
# crystal, experimental, refinement or atomic coordinate data resulting 
# from the CCDC's data processing and validation procedures.
#
#######################################################################

data_OPONUE
_chemical_formula_moiety         'C14 H44 B2 N2 Si4'
_chemical_name_systematic        
1,1,4,4-tetrakis(trimethylsilyl)-1,4-diazonia-2,5-diboratacyclohexane
_symmetry_cell_setting           monoclinic
_symmetry_space_group_name_H-M   'P 21/c'
_symmetry_Int_Tables_number      14
_space_group_name_Hall           '-P 2ybc'
loop_
_symmetry_equiv_pos_site_id
_symmetry_equiv_pos_as_xyz
1 x,y,z
2 -x,1/2+y,1/2-z
3 -x,-y,-z
4 x,1/2-y,1/2+z
_cell_length_a                   17.0141(3)
_cell_length_b                   6.58080(10)
_cell_length_c                   22.6057(5)
_cell_angle_alpha                90
_cell_angle_beta                 112.0340(10)
_cell_angle_gamma                90
_cell_volume                     2346.21
_exptl_crystal_colour            colorless
_exptl_crystal_description       needle
_cell_formula_units_Z            4
loop_
_atom_site_label
_atom_site_type_symbol
_atom_site_fract_x
_atom_site_fract_y
_atom_site_fract_z
Si1 Si 0.29227(3) 0.63503(8) 0.39322(2)
Si2 Si 0.43783(3) 0.72485(8) 0.34877(2)
Si3 Si 0.07564(3) 0.86384(8) 0.16153(3)
Si4 Si 0.20979(3) 0.73493(8) 0.10863(2)
N1 N 0.32384(9) 0.6982(2) 0.32658(7)
N2 N 0.18519(9) 0.7803(2) 0.17923(7)
B1 B 0.19546(13) 0.5674(3) 0.22009(10)
B2 B 0.27718(14) 0.9171(3) 0.29855(11)
C1 C 0.29070(12) 0.5370(3) 0.27292(9)
C2 C 0.24945(12) 0.9369(3) 0.22191(9)
C3 C 0.18290(13) 0.5319(3) 0.36805(10)
H1 H 0.1768 0.4158 0.3395
H2 H 0.1420 0.6377 0.3456
H3 H 0.1722 0.4877 0.4058
C4 C 0.30142(13) 0.8594(3) 0.44604(10)
H4 H 0.2637 0.9676 0.4215
H5 H 0.3601 0.9085 0.4626
H6 H 0.2853 0.8196 0.4817
C5 C 0.36275(13) 0.4291(3) 0.44190(10)
H7 H 0.3583 0.3096 0.4150
H8 H 0.3453 0.3927 0.4772
H9 H 0.4216 0.4771 0.4590
C6 C 0.46355(12) 0.8540(3) 0.28494(10)
H10 H 0.4367 0.9883 0.2766
H11 H 0.4423 0.7723 0.2459
H12 H 0.5251 0.8693 0.2988
C7 C 0.48731(12) 0.8790(3) 0.42276(9)
H13 H 0.4755 0.8157 0.4578
H14 H 0.4637 1.0167 0.4155
H15 H 0.5487 0.8856 0.4339
C8 C 0.49060(12) 0.4698(3) 0.36157(10)
H16 H 0.4803 0.3985 0.3960
H17 H 0.5518 0.4876 0.3732
H18 H 0.4674 0.3900 0.3222
C9 C 0.04792(13) 1.0693(3) 0.09975(10)
H19 H 0.0548 1.0181 0.0613
H20 H 0.0855 1.1860 0.1164
H21 H -0.0110 1.1114 0.0892
C10 C -0.00089(12) 0.6500(3) 0.13013(10)
H22 H 0.0061 0.5911 0.0926
H23 H -0.0589 0.7010 0.1182
H24 H 0.0100 0.5456 0.1632
C11 C 0.06140(13) 0.9806(3) 0.23164(10)
H25 H 0.1010 1.0942 0.2474
H26 H 0.0725 0.8787 0.2654
H27 H 0.0031 1.0304 0.2191
C12 C 0.30594(12) 0.5718(3) 0.12701(10)
H28 H 0.2964 0.4409 0.1439
H29 H 0.3549 0.6396 0.1588
H30 H 0.3170 0.5495 0.0880
C13 C 0.12208(13) 0.6037(3) 0.04391(9)
H31 H 0.1098 0.4739 0.0599
H32 H 0.1390 0.5790 0.0076
H33 H 0.0713 0.6894 0.0302
C14 C 0.23251(13) 0.9819(3) 0.07661(10)
H34 H 0.1832 1.0718 0.0662
H35 H 0.2443 0.9561 0.0380
H36 H 0.2819 1.0468 0.1089
H37 H 0.2961(13) 0.405(3) 0.2935(10)
H38 H 0.3328(12) 0.531(3) 0.2514(10)
H39 H 0.2995(14) 0.928(3) 0.2109(11)
H40 H 0.2255(13) 1.071(3) 0.2082(10)
H41 H 0.1812(13) 0.438(3) 0.1842(10)
H42 H 0.1460(13) 0.574(3) 0.2413(10)
H43 H 0.3270(13) 1.043(3) 0.3220(10)
H44 H 0.2213(14) 0.929(3) 0.3142(11)
loop_
_geom_bond_atom_site_label_1
_geom_bond_atom_site_label_2
_geom_bond_site_symmetry_1
_geom_bond_site_symmetry_2
Si1 N1 1_555 1_555
Si2 N1 1_555 1_555
Si3 N2 1_555 1_555
Si4 N2 1_555 1_555
N1 B2 1_555 1_555
N2 B1 1_555 1_555
B1 C1 1_555 1_555
B2 C2 1_555 1_555
C1 N1 1_555 1_555
C2 N2 1_555 1_555
C3 Si1 1_555 1_555
H1 C3 1_555 1_555
H2 C3 1_555 1_555
H3 C3 1_555 1_555
C4 Si1 1_555 1_555
H4 C4 1_555 1_555
H5 C4 1_555 1_555
H6 C4 1_555 1_555
C5 Si1 1_555 1_555
H7 C5 1_555 1_555
H8 C5 1_555 1_555
H9 C5 1_555 1_555
C6 Si2 1_555 1_555
H10 C6 1_555 1_555
H11 C6 1_555 1_555
H12 C6 1_555 1_555
C7 Si2 1_555 1_555
H13 C7 1_555 1_555
H14 C7 1_555 1_555
H15 C7 1_555 1_555
C8 Si2 1_555 1_555
H16 C8 1_555 1_555
H17 C8 1_555 1_555
H18 C8 1_555 1_555
C9 Si3 1_555 1_555
H19 C9 1_555 1_555
H20 C9 1_555 1_555
H21 C9 1_555 1_555
C10 Si3 1_555 1_555
H22 C10 1_555 1_555
H23 C10 1_555 1_555
H24 C10 1_555 1_555
C11 Si3 1_555 1_555
H25 C11 1_555 1_555
H26 C11 1_555 1_555
H27 C11 1_555 1_555
C12 Si4 1_555 1_555
H28 C12 1_555 1_555
H29 C12 1_555 1_555
H30 C12 1_555 1_555
C13 Si4 1_555 1_555
H31 C13 1_555 1_555
H32 C13 1_555 1_555
H33 C13 1_555 1_555
C14 Si4 1_555 1_555
H34 C14 1_555 1_555
H35 C14 1_555 1_555
H36 C14 1_555 1_555
H37 C1 1_555 1_555
H38 C1 1_555 1_555
H39 C2 1_555 1_555
H40 C2 1_555 1_555
H41 B1 1_555 1_555
H42 B1 1_555 1_555
H43 B2 1_555 1_555
H44 B2 1_555 1_555

#END
