
#######################################################################
#
#                 Cambridge Crystallographic Data Centre
#                                CCDC 
#
#######################################################################
#
# If this CIF has been generated from an entry in the Cambridge 
# Structural Database, then it will include bibliographic, chemical, 
# crystal, experimental, refinement or atomic coordinate data resulting 
# from the CCDC's data processing and validation procedures.
#
#######################################################################

data_OPOZIE
_chemical_formula_moiety         'C10 H18 O4'
_chemical_name_systematic        7,12-dioxaspiro[5.6]dodecane-9,10-diol
_symmetry_cell_setting           monoclinic
_symmetry_space_group_name_H-M   'P 21/c'
_symmetry_Int_Tables_number      14
_space_group_name_Hall           '-P 2ybc'
loop_
_symmetry_equiv_pos_site_id
_symmetry_equiv_pos_as_xyz
1 x,y,z
2 -x,1/2+y,1/2-z
3 -x,-y,-z
4 x,1/2-y,1/2+z
_cell_length_a                   17.8563(18)
_cell_length_b                   6.4916(8)
_cell_length_c                   8.8522(12)
_cell_angle_alpha                90
_cell_angle_beta                 98.862(7)
_cell_angle_gamma                90
_cell_volume                     1013.86
_cell_formula_units_Z            4
loop_
_atom_site_label
_atom_site_type_symbol
_atom_site_fract_x
_atom_site_fract_y
_atom_site_fract_z
O1 O 0.27773(11) 0.4043(3) 0.6454(2)
O2 O 0.25519(10) 0.5876(3) 0.8617(2)
O3 O 0.44834(11) 0.7785(3) 0.9030(2)
H1 H 0.4777 0.7582 0.9823
O4 O 0.47443(11) 0.3578(4) 0.8306(2)
H2 H 0.4987 0.3320 0.7615
C1 C 0.17078(16) 0.6155(5) 0.6188(3)
H3 H 0.1528 0.5384 0.5265
H4 H 0.2001 0.7315 0.5908
C2 C 0.39057(15) 0.6225(5) 0.8856(3)
H5 H 0.3912 0.5538 0.9843
C3 C 0.10948(17) 0.3847(5) 0.8568(4)
H6 H 0.0805 0.2692 0.8866
H7 H 0.1276 0.4640 0.9480
C4 C 0.22152(15) 0.4782(5) 0.7296(3)
C5 C 0.31442(15) 0.7294(5) 0.8432(3)
H8 H 0.3118 0.8484 0.9084
H9 H 0.3086 0.7763 0.7380
C6 C 0.40629(15) 0.4630(5) 0.7695(3)
H10 H 0.4139 0.5334 0.6752
C7 C 0.10282(16) 0.6956(5) 0.6873(4)
H11 H 0.1204 0.7879 0.7715
H12 H 0.0698 0.7732 0.6104
C8 C 0.17701(16) 0.3040(5) 0.7886(4)
H13 H 0.2101 0.2272 0.8658
H14 H 0.1592 0.2107 0.7051
C9 C 0.34257(16) 0.3083(5) 0.7325(3)
H15 H 0.3593 0.1948 0.6747
H16 H 0.3291 0.2533 0.8266
C10 C 0.05826(16) 0.5192(5) 0.7448(4)
H17 H 0.0179 0.5749 0.7944
H18 H 0.0353 0.4363 0.6587
loop_
_geom_bond_atom_site_label_1
_geom_bond_atom_site_label_2
_geom_bond_site_symmetry_1
_geom_bond_site_symmetry_2
O1 C4 1_555 1_555
O2 C4 1_555 1_555
O3 H1 1_555 1_555
O4 H2 1_555 1_555
C1 H3 1_555 1_555
H4 C1 1_555 1_555
C2 O3 1_555 1_555
H5 C2 1_555 1_555
C3 H6 1_555 1_555
H7 C3 1_555 1_555
C4 C1 1_555 1_555
C5 O2 1_555 1_555
H8 C5 1_555 1_555
H9 C5 1_555 1_555
C6 O4 1_555 1_555
H10 C6 1_555 1_555
C7 C1 1_555 1_555
H11 C7 1_555 1_555
H12 C7 1_555 1_555
C8 C3 1_555 1_555
H13 C8 1_555 1_555
H14 C8 1_555 1_555
C9 O1 1_555 1_555
H15 C9 1_555 1_555
H16 C9 1_555 1_555
C10 C3 1_555 1_555
H17 C10 1_555 1_555
H18 C10 1_555 1_555
C2 C5 1_555 1_555
C2 C6 1_555 1_555
C4 C8 1_555 1_555
C6 C9 1_555 1_555
C7 C10 1_555 1_555

#END
