
#######################################################################
#
#                 Cambridge Crystallographic Data Centre
#                                CCDC 
#
#######################################################################
#
# If this CIF has been generated from an entry in the Cambridge 
# Structural Database, then it will include bibliographic, chemical, 
# crystal, experimental, refinement or atomic coordinate data resulting 
# from the CCDC's data processing and validation procedures.
#
#######################################################################

data_OPUCEJ
_chemical_compound_source        'fruit bodies of Pyrofomes demidoffii'
_chemical_name_common            'pyrofomin A monohydrate'
_chemical_formula_moiety         'C15 H24 O4,H2 O1'
_chemical_name_systematic        '2,4,7-trihydroxycedran-9-one monohydrate'
_symmetry_cell_setting           orthorhombic
_symmetry_space_group_name_H-M   'P 21 21 21'
_symmetry_Int_Tables_number      19
_space_group_name_Hall           'P 2ac 2ab'
loop_
_symmetry_equiv_pos_site_id
_symmetry_equiv_pos_as_xyz
1 x,y,z
2 1/2-x,-y,1/2+z
3 1/2+x,1/2-y,-z
4 -x,1/2+y,1/2-z
_cell_length_a                   9.6091(6)
_cell_length_b                   14.4290(13)
_cell_length_c                   10.8529(7)
_cell_angle_alpha                90
_cell_angle_beta                 90
_cell_angle_gamma                90
_cell_volume                     1504.75
_cell_formula_units_Z            4
loop_
_atom_site_label
_atom_site_type_symbol
_atom_site_fract_x
_atom_site_fract_y
_atom_site_fract_z
C1 C 0.40831(15) 0.33265(10) 0.26362(15)
C2 C 0.54493(16) 0.36736(11) 0.32604(16)
C3 C 0.49127(18) 0.44279(12) 0.41388(19)
H1 H 0.449(2) 0.4136(16) 0.487(2)
H2 H 0.564(2) 0.4856(16) 0.442(2)
C4 C 0.37659(17) 0.49374(11) 0.34359(18)
H3 H 0.307(2) 0.5175(15) 0.401(2)
C5 C 0.30898(16) 0.41865(11) 0.25922(16)
H4 H 0.312(2) 0.4452(15) 0.173(2)
C6 C 0.15862(17) 0.38164(12) 0.29117(17)
C7 C 0.18024(17) 0.27262(12) 0.28993(15)
C8 C 0.17462(18) 0.23179(12) 0.15770(16)
H5 H 0.085(2) 0.2474(12) 0.1210(18)
C9 C 0.28767(18) 0.27173(11) 0.07589(16)
C10 C 0.42786(18) 0.29114(12) 0.13389(16)
H6 H 0.482(2) 0.2305(15) 0.137(2)
H7 H 0.479(2) 0.3300(14) 0.081(2)
C11 C 0.32711(17) 0.26206(11) 0.34211(16)
H8 H 0.323(2) 0.2786(14) 0.435(2)
H9 H 0.369(2) 0.2001(17) 0.337(2)
C12 C 0.65195(18) 0.40566(13) 0.23532(18)
H10 H 0.687(2) 0.3611(17) 0.179(2)
H11 H 0.608(2) 0.4574(15) 0.187(2)
H12 H 0.731(3) 0.4324(16) 0.280(2)
C13 C 0.05206(19) 0.41603(14) 0.1956(2)
H13 H 0.079(2) 0.4030(15) 0.107(2)
H14 H 0.038(3) 0.4871(19) 0.204(3)
H15 H -0.044(3) 0.3853(19) 0.206(3)
C14 C 0.1063(2) 0.41152(15) 0.4192(2)
H16 H 0.088(3) 0.481(2) 0.422(3)
H17 H 0.171(3) 0.3983(18) 0.476(2)
H18 H 0.010(3) 0.3818(17) 0.437(3)
C15 C 0.1935(2) 0.12520(13) 0.1559(2)
H19 H 0.117(3) 0.094(2) 0.209(3)
H20 H 0.289(2) 0.1070(16) 0.183(2)
H21 H 0.176(3) 0.0999(19) 0.073(3)
O1 O 0.60909(13) 0.29507(9) 0.39796(12)
H22 H 0.675(3) 0.2716(18) 0.356(2)
O2 O 0.43889(14) 0.56667(9) 0.27139(15)
O3 O 0.07431(13) 0.22429(10) 0.35627(13)
H23 H 0.099(3) 0.223(2) 0.435(3)
O4 O 0.26559(15) 0.28565(11) -0.03339(13)
O5 O 0.19302(13) 0.68214(10) 0.21796(12)
H24 H 0.191(3) 0.689(3) 0.2993(17)
H25 H 0.1072(19) 0.6894(18) 0.193(2)
loop_
_geom_bond_atom_site_label_1
_geom_bond_atom_site_label_2
_geom_bond_site_symmetry_1
_geom_bond_site_symmetry_2
C1 C2 1_555 1_555
C2 C3 1_555 1_555
C3 H1 1_555 1_555
H2 C3 1_555 1_555
C4 C3 1_555 1_555
H3 C4 1_555 1_555
C5 C1 1_555 1_555
H4 C5 1_555 1_555
C6 C5 1_555 1_555
C7 C6 1_555 1_555
C8 C7 1_555 1_555
H5 C8 1_555 1_555
C9 C8 1_555 1_555
C10 C1 1_555 1_555
H6 C10 1_555 1_555
H7 C10 1_555 1_555
C11 C1 1_555 1_555
H8 C11 1_555 1_555
H9 C11 1_555 1_555
C12 C2 1_555 1_555
H10 C12 1_555 1_555
H11 C12 1_555 1_555
H12 C12 1_555 1_555
C13 C6 1_555 1_555
H13 C13 1_555 1_555
H14 C13 1_555 1_555
H15 C13 1_555 1_555
C14 C6 1_555 1_555
H16 C14 1_555 1_555
H17 C14 1_555 1_555
H18 C14 1_555 1_555
C15 C8 1_555 1_555
H19 C15 1_555 1_555
H20 C15 1_555 1_555
H21 C15 1_555 1_555
O1 C2 1_555 1_555
H22 O1 1_555 1_555
O2 C4 1_555 1_555
O3 C7 1_555 1_555
H23 O3 1_555 1_555
O4 C9 1_555 1_555
O5 H24 1_555 1_555
H25 O5 1_555 1_555
C4 C5 1_555 1_555
C7 C11 1_555 1_555
C9 C10 1_555 1_555

#END
