
#######################################################################
#
#                 Cambridge Crystallographic Data Centre
#                                CCDC 
#
#######################################################################
#
# If this CIF has been generated from an entry in the Cambridge 
# Structural Database, then it will include bibliographic, chemical, 
# crystal, experimental, refinement or atomic coordinate data resulting 
# from the CCDC's data processing and validation procedures.
#
#######################################################################

data_OPUFIP
_chemical_compound_source        'Aspergillus aculeatus'
_chemical_name_common            pre-aurantiamine
_chemical_formula_moiety         'C11 H14 N4 O2'
_chemical_name_systematic        
(Z)-3-((1H-imidazol-4-yl)methylene)-6-isopropylpiperazine-2,5-dione
_symmetry_cell_setting           trigonal
_symmetry_space_group_name_H-M   'P 32'
_symmetry_Int_Tables_number      145
_space_group_name_Hall           'P 32'
loop_
_symmetry_equiv_pos_site_id
_symmetry_equiv_pos_as_xyz
1 x,y,z
2 -y,x-y,2/3+z
3 -x+y,-x,1/3+z
_cell_length_a                   9.0535(3)
_cell_length_b                   9.0535(3)
_cell_length_c                   12.2765(4)
_cell_angle_alpha                90
_cell_angle_beta                 90
_cell_angle_gamma                120
_cell_volume                     871.441
_exptl_crystal_colour            colorless
_exptl_crystal_description       block
_chemical_melting_point          '212-215 deg.C'
_cell_formula_units_Z            3
_exptl_crystal_recrystallization_method methanol/hexane
loop_
_atom_site_label
_atom_site_type_symbol
_atom_site_fract_x
_atom_site_fract_y
_atom_site_fract_z
O1 O 0.1014(5) 0.3847(5) 0.2596(2)
O2 O 0.1832(5) 1.0062(4) 0.3111(2)
N1 N -0.0186(5) 0.7305(5) -0.1742(3)
H1 H -0.0545 0.7357 -0.2381
N2 N 0.0696(5) 0.6378(5) -0.0366(2)
N3 N 0.1046(5) 0.6155(5) 0.1868(2)
H2 H 0.0920 0.5713 0.1230
N4 N 0.1411(4) 0.7613(5) 0.3860(2)
H3 H 0.1494 0.8058 0.4493
C1 C 0.0185(6) 0.6131(6) -0.1390(3)
H4 H 0.0093 0.5241 -0.1818
C2 C 0.0638(5) 0.7808(5) -0.0054(2)
C3 C 0.0104(6) 0.8398(6) -0.0908(3)
H5 H -0.0031 0.9351 -0.0915
C4 C 0.1052(5) 0.8536(5) 0.1034(3)
H6 H 0.1231 0.9635 0.1120
C5 C 0.1196(5) 0.7759(5) 0.1922(3)
C6 C 0.1078(6) 0.5223(5) 0.2714(3)
C7 C 0.1173(6) 0.5911(6) 0.3855(3)
H7 H 0.2208 0.6014 0.4181
C8 C 0.1519(5) 0.8588(5) 0.3010(3)
C9 C -0.0300(7) 0.4572(8) 0.4524(4)
H8 H -0.0242 0.3521 0.4496
C10 C -0.0162(10) 0.5103(10) 0.5715(5)
H9 H -0.0419 0.6007 0.5781
H10 H 0.0976 0.5492 0.5972
H11 H -0.0956 0.4145 0.6143
C11 C -0.1922(10) 0.4203(15) 0.4075(6)
H12 H -0.2183 0.5061 0.4305
H13 H -0.2796 0.3106 0.4326
H14 H -0.1867 0.4198 0.3294
loop_
_geom_bond_atom_site_label_1
_geom_bond_atom_site_label_2
_geom_bond_site_symmetry_1
_geom_bond_site_symmetry_2
O1 C6 1_555 1_555
O2 C8 1_555 1_555
N1 H1 1_555 1_555
N2 C1 1_555 1_555
N3 H2 1_555 1_555
N4 H3 1_555 1_555
C1 N1 1_555 1_555
H4 C1 1_555 1_555
C2 N2 1_555 1_555
C3 N1 1_555 1_555
H5 C3 1_555 1_555
C4 C2 1_555 1_555
H6 C4 1_555 1_555
C5 N3 1_555 1_555
C6 N3 1_555 1_555
C7 N4 1_555 1_555
H7 C7 1_555 1_555
C8 N4 1_555 1_555
C9 C7 1_555 1_555
H8 C9 1_555 1_555
C10 C9 1_555 1_555
H9 C10 1_555 1_555
H10 C10 1_555 1_555
H11 C10 1_555 1_555
C11 C9 1_555 1_555
H12 C11 1_555 1_555
H13 C11 1_555 1_555
H14 C11 1_555 1_555
C2 C3 1_555 1_555
C4 C5 1_555 1_555
C5 C8 1_555 1_555
C6 C7 1_555 1_555

#END
