
#######################################################################
#
#                 Cambridge Crystallographic Data Centre
#                                CCDC 
#
#######################################################################
#
# If this CIF has been generated from an entry in the Cambridge 
# Structural Database, then it will include bibliographic, chemical, 
# crystal, experimental, refinement or atomic coordinate data resulting 
# from the CCDC's data processing and validation procedures.
#
#######################################################################

data_OQAHUL
_chemical_formula_moiety         'C18 H24 O3'
_chemical_name_systematic        1-hydroxyestr-4-ene-3,17-dione
_symmetry_cell_setting           orthorhombic
_symmetry_space_group_name_H-M   'P 21 21 21'
_symmetry_Int_Tables_number      19
_space_group_name_Hall           'P 2ac 2ab'
loop_
_symmetry_equiv_pos_site_id
_symmetry_equiv_pos_as_xyz
1 x,y,z
2 1/2-x,-y,1/2+z
3 -x,1/2+y,1/2-z
4 1/2+x,1/2-y,-z
_cell_length_a                   9.5066(8)
_cell_length_b                   10.2853(9)
_cell_length_c                   15.1508(13)
_cell_angle_alpha                90
_cell_angle_beta                 90
_cell_angle_gamma                90
_cell_volume                     1481.42
_exptl_crystal_colour            colorless
_exptl_crystal_description       BLOCK
_cell_formula_units_Z            4
loop_
_atom_site_label
_atom_site_type_symbol
_atom_site_fract_x
_atom_site_fract_y
_atom_site_fract_z
O1 O 0.47566(11) 0.82343(11) 0.82711(7)
H1 H 0.4321 0.7754 0.7915
O2 O 0.63944(15) 1.15097(12) 0.79022(8)
O3 O 0.55214(14) 0.21285(11) 1.10000(8)
C1 C 0.69117(15) 0.78755(14) 0.90750(9)
H2 H 0.7923 0.7654 0.8975
C2 C 0.62316(16) 0.80524(15) 0.81610(9)
H3 H 0.6405 0.7260 0.7794
C3 C 0.68243(18) 0.92409(16) 0.76932(10)
H4 H 0.7843 0.9116 0.7586
H5 H 0.6355 0.9347 0.7114
C4 C 0.66038(17) 1.04437(16) 0.82387(12)
C5 C 0.67049(16) 1.02938(15) 0.91870(11)
H6 H 0.6646 1.1050 0.9545
C6 C 0.68776(15) 0.91414(14) 0.95852(10)
C7 C 0.71076(17) 0.90883(15) 1.05646(10)
H7 H 0.6755 0.9904 1.0831
H8 H 0.8130 0.9037 1.0682
C8 C 0.63858(17) 0.79446(15) 1.10080(9)
H9 H 0.5354 0.8071 1.0990
H10 H 0.6678 0.7899 1.1634
C9 C 0.67624(15) 0.66790(14) 1.05472(9)
H11 H 0.7807 0.6568 1.0553
C10 C 0.62480(16) 0.67287(14) 0.95828(9)
H12 H 0.5210 0.6885 0.9600
C11 C 0.64800(18) 0.54329(15) 0.90999(10)
H13 H 0.6015 0.5479 0.8516
H14 H 0.7501 0.5318 0.8997
C12 C 0.59223(18) 0.42359(15) 0.95939(10)
H15 H 0.4881 0.4254 0.9602
H16 H 0.6225 0.3435 0.9285
C13 C 0.60827(16) 0.55084(14) 1.09882(10)
H17 H 0.5046 0.5612 1.0904
C14 C 0.64794(16) 0.42232(15) 1.05394(10)
C15 C 0.58378(16) 0.32398(16) 1.11696(11)
C16 C 0.56975(18) 0.38756(16) 1.20676(11)
H18 H 0.6228 0.3378 1.2517
H19 H 0.4698 0.3914 1.2248
C17 C 0.63032(19) 0.52514(16) 1.19733(10)
H20 H 0.5781 0.5885 1.2341
H21 H 0.7313 0.5278 1.2133
C18 C 0.80713(17) 0.39273(16) 1.05597(11)
H22 H 0.8244 0.3069 1.0300
H23 H 0.8404 0.3935 1.1172
H24 H 0.8577 0.4590 1.0220
loop_
_geom_bond_atom_site_label_1
_geom_bond_atom_site_label_2
_geom_bond_site_symmetry_1
_geom_bond_site_symmetry_2
O1 H1 1_555 1_555
O2 C4 1_555 1_555
O3 C15 1_555 1_555
C1 H2 1_555 1_555
C2 O1 1_555 1_555
H3 C2 1_555 1_555
C3 C2 1_555 1_555
H4 C3 1_555 1_555
H5 C3 1_555 1_555
C4 C3 1_555 1_555
C5 C4 1_555 1_555
H6 C5 1_555 1_555
C6 C1 1_555 1_555
C7 C6 1_555 1_555
H7 C7 1_555 1_555
H8 C7 1_555 1_555
C8 C7 1_555 1_555
H9 C8 1_555 1_555
H10 C8 1_555 1_555
C9 C8 1_555 1_555
H11 C9 1_555 1_555
C10 C1 1_555 1_555
H12 C10 1_555 1_555
C11 C10 1_555 1_555
H13 C11 1_555 1_555
H14 C11 1_555 1_555
C12 C11 1_555 1_555
H15 C12 1_555 1_555
H16 C12 1_555 1_555
C13 C9 1_555 1_555
H17 C13 1_555 1_555
C14 C12 1_555 1_555
C15 C14 1_555 1_555
C16 C15 1_555 1_555
H18 C16 1_555 1_555
H19 C16 1_555 1_555
C17 C13 1_555 1_555
H20 C17 1_555 1_555
H21 C17 1_555 1_555
C18 C14 1_555 1_555
H22 C18 1_555 1_555
H23 C18 1_555 1_555
H24 C18 1_555 1_555
C1 C2 1_555 1_555
C5 C6 1_555 1_555
C9 C10 1_555 1_555
C13 C14 1_555 1_555
C16 C17 1_555 1_555

#END
