
#######################################################################
#
#                 Cambridge Crystallographic Data Centre
#                                CCDC 
#
#######################################################################
#
# If this CIF has been generated from an entry in the Cambridge 
# Structural Database, then it will include bibliographic, chemical, 
# crystal, experimental, refinement or atomic coordinate data resulting 
# from the CCDC's data processing and validation procedures.
#
#######################################################################

data_OQAWIN01
_chemical_formula_moiety         'C25 H19 Br1 Cl1 N1 O6'
_chemical_name_systematic        
'1-((4-Bromobenzyl)oxy)-4-(4-chlorophenyl)-5-nitro-1-oxopent-2-en-2-yl benzoate'
_symmetry_cell_setting           orthorhombic
_symmetry_space_group_name_H-M   'P 21 21 21'
_symmetry_Int_Tables_number      19
_space_group_name_Hall           'P 2ac 2ab'
loop_
_symmetry_equiv_pos_site_id
_symmetry_equiv_pos_as_xyz
1 x,y,z
2 1/2-x,-y,1/2+z
3 -x,1/2+y,1/2-z
4 1/2+x,1/2-y,-z
_cell_length_a                   6.1370(16)
_cell_length_b                   15.436(4)
_cell_length_c                   24.879(6)
_cell_angle_alpha                90
_cell_angle_beta                 90
_cell_angle_gamma                90
_cell_volume                     2356.81
_exptl_crystal_colour            colorless
_exptl_crystal_description       block
_cell_formula_units_Z            4
loop_
_atom_site_label
_atom_site_type_symbol
_atom_site_fract_x
_atom_site_fract_y
_atom_site_fract_z
Br1 Br 0.8389(2) 0.85515(7) 0.13402(4)
C1 C -0.1689(14) 0.1488(5) 0.1399(3)
H1 H -0.2181 0.1261 0.1075
C2 C -0.3002(14) 0.1445(6) 0.1849(3)
H2 H -0.4352 0.1174 0.1825
C3 C -0.2361(17) 0.1791(6) 0.2324(3)
C4 C -0.039(2) 0.2158(6) 0.2354(3)
H3 H 0.0077 0.2388 0.2680
C5 C 0.0973(17) 0.2205(5) 0.1918(3)
H4 H 0.2330 0.2467 0.1951
C6 C 0.0337(13) 0.1862(5) 0.1426(3)
C7 C 0.1863(15) 0.1937(4) 0.0944(3)
H5 H 0.3357 0.1936 0.1083
C8 C 0.1567(15) 0.2759(4) 0.0633(3)
H6 H 0.0657 0.2732 0.0334
C9 C 0.2452(12) 0.3508(5) 0.0736(3)
C10 C 0.2091(13) 0.4279(5) 0.0378(3)
C11 C 0.2619(15) 0.5791(5) 0.0273(3)
H7 H 0.1138 0.6005 0.0242
H8 H 0.3155 0.5659 -0.0084
C12 C 0.4034(15) 0.6456(5) 0.0533(3)
C13 C 0.3350(17) 0.7311(5) 0.0567(3)
H9 H 0.1996 0.7465 0.0429
C14 C 0.4643(17) 0.7935(5) 0.0800(3)
H10 H 0.4176 0.8508 0.0817
C15 C 0.6647(18) 0.7700(5) 0.1009(3)
C16 C 0.7342(15) 0.6860(6) 0.0974(3)
H11 H 0.8699 0.6705 0.1110
C17 C 0.6050(16) 0.6254(5) 0.0742(3)
H12 H 0.6541 0.5685 0.0722
C18 C 0.5752(14) 0.3896(5) 0.1162(3)
C19 C 0.6707(16) 0.4177(5) 0.1673(3)
C20 C 0.8712(16) 0.4556(6) 0.1662(4)
H13 H 0.9460 0.4613 0.1338
C21 C 0.9625(16) 0.4856(6) 0.2133(4)
H14 H 1.0980 0.5125 0.2122
C22 C 0.8600(19) 0.4769(6) 0.2614(4)
H15 H 0.9244 0.4971 0.2929
C23 C 0.658(2) 0.4374(6) 0.2626(3)
H16 H 0.5861 0.4307 0.2952
C24 C 0.5616(15) 0.4075(5) 0.2155(3)
H17 H 0.4255 0.3810 0.2164
C25 C 0.1691(15) 0.1199(4) 0.0541(3)
H18 H 0.0193 0.1160 0.0418
H19 H 0.2586 0.1338 0.0231
Cl1 Cl -0.4013(5) 0.1743(2) 0.28836(10)
N1 N 0.2363(13) 0.0341(4) 0.0750(3)
O1 O 0.2670(9) 0.5010(3) 0.06113(18)
O2 O 0.1409(10) 0.4208(3) -0.0073(2)
O3 O 0.6660(11) 0.3875(4) 0.0732(2)
O4 O 0.3629(9) 0.3635(3) 0.12127(17)
O5 O 0.1911(14) -0.0281(4) 0.0469(3)
O6 O 0.3435(13) 0.0291(4) 0.1155(2)
loop_
_geom_bond_atom_site_label_1
_geom_bond_atom_site_label_2
_geom_bond_site_symmetry_1
_geom_bond_site_symmetry_2
Br1 C15 1_555 1_555
C1 H1 1_555 1_555
C2 C1 1_555 1_555
H2 C2 1_555 1_555
C3 C2 1_555 1_555
C4 C3 1_555 1_555
H3 C4 1_555 1_555
C5 C4 1_555 1_555
H4 C5 1_555 1_555
C6 C1 1_555 1_555
C7 C6 1_555 1_555
H5 C7 1_555 1_555
C8 C7 1_555 1_555
H6 C8 1_555 1_555
C9 C8 1_555 1_555
C10 C9 1_555 1_555
C11 H7 1_555 1_555
H8 C11 1_555 1_555
C12 C11 1_555 1_555
C13 C12 1_555 1_555
H9 C13 1_555 1_555
C14 C13 1_555 1_555
H10 C14 1_555 1_555
C15 C14 1_555 1_555
C16 C15 1_555 1_555
H11 C16 1_555 1_555
C17 C12 1_555 1_555
H12 C17 1_555 1_555
C18 C19 1_555 1_555
C19 C20 1_555 1_555
C20 H13 1_555 1_555
C21 C20 1_555 1_555
H14 C21 1_555 1_555
C22 C21 1_555 1_555
H15 C22 1_555 1_555
C23 C22 1_555 1_555
H16 C23 1_555 1_555
C24 C19 1_555 1_555
H17 C24 1_555 1_555
C25 C7 1_555 1_555
H18 C25 1_555 1_555
H19 C25 1_555 1_555
Cl1 C3 1_555 1_555
N1 C25 1_555 1_555
O1 C10 1_555 1_555
O2 C10 1_555 1_555
O3 C18 1_555 1_555
O4 C9 1_555 1_555
O5 N1 1_555 1_555
O6 N1 1_555 1_555
C5 C6 1_555 1_555
C11 O1 1_555 1_555
C16 C17 1_555 1_555
C18 O4 1_555 1_555
C23 C24 1_555 1_555

#END
