
#######################################################################
#
#                 Cambridge Crystallographic Data Centre
#                                CCDC 
#
#######################################################################
#
# If this CIF has been generated from an entry in the Cambridge 
# Structural Database, then it will include bibliographic, chemical, 
# crystal, experimental, refinement or atomic coordinate data resulting 
# from the CCDC's data processing and validation procedures.
#
#######################################################################

data_OQAZEM
_chemical_name_common            
'tetrabutylammonium 5,15-bis(4-fluorophenyl)-5,10,10,15,20,20-hexamethyl-calix(4)pyrrole fluoride'
_chemical_formula_moiety         'C38 H38 F2 N4,C16 H36 N1 1+,F1 1-'
_chemical_name_systematic        
'tetrabutylammonium 5,15-bis(4-fluorophenyl)-5,10,10,15,20,20-hexamethyl-5,10,15,20,22,24-hexahydroporphyrin fluoride'
_symmetry_cell_setting           triclinic
_symmetry_space_group_name_H-M   'P -1'
_symmetry_Int_Tables_number      2
_space_group_name_Hall           '-P 1'
loop_
_symmetry_equiv_pos_site_id
_symmetry_equiv_pos_as_xyz
1 x,y,z
2 -x,-y,-z
_cell_length_a                   10.7688(2)
_cell_length_b                   21.2627(4)
_cell_length_c                   23.0808(5)
_cell_angle_alpha                70.8756(14)
_cell_angle_beta                 80.6332(14)
_cell_angle_gamma                80.2186(14)
_cell_volume                     4887.98
_exptl_crystal_colour            colorless
_exptl_crystal_description       prism
_cell_formula_units_Z            4
loop_
_atom_site_label
_atom_site_type_symbol
_atom_site_fract_x
_atom_site_fract_y
_atom_site_fract_z
F1 F 0.1399(2) 0.76867(13) 0.55755(12)
F2 F 0.2136(3) 0.25399(14) 1.03518(13)
F3 F -0.3004(5) 0.8796(3) 0.6400(2)
N3 N 0.4269(7) 0.7788(4) 0.4811(3)
H3 H 0.3535 0.7769 0.5044
N6 N 0.2656(8) 0.6577(4) 0.4888(3)
H6 H 0.2307 0.6898 0.5048
F5 F 0.3684(6) 0.6409(3) 0.7683(3)
N7 N 0.0259(6) 0.7718(4) 0.4309(3)
H7 H 0.0570 0.7706 0.4642
C2 C -0.0642(8) 0.8109(5) 0.3440(4)
H8 H -0.1043 0.8400 0.3095
C3 C -0.0396(8) 0.8967(4) 0.4031(4)
C4 C -0.2659(9) 0.8443(5) 0.5520(5)
H9 H -0.3302 0.8157 0.5696
N8 N 0.1806(7) 0.8933(4) 0.4287(3)
H10 H 0.1704 0.8610 0.4639
C6 C -0.0130(9) 0.6357(5) 0.5169(4)
H11 H 0.0186 0.6619 0.5381
H12 H -0.0017 0.5881 0.5409
H13 H -0.1033 0.6508 0.5129
C7 C 0.6114(9) 0.7466(5) 0.4361(4)
H14 H 0.6850 0.7200 0.4242
C8 C 0.5104(9) 0.7240(5) 0.4775(4)
C11 C 0.4719(9) 0.8382(5) 0.4434(4)
C12 C 0.5859(9) 0.8163(5) 0.4148(4)
H16 H 0.6398 0.8448 0.3846
C13 C -0.1035(8) 0.8899(5) 0.4685(4)
C15 C -0.1980(9) 0.8479(5) 0.4929(4)
H17 H -0.2172 0.8215 0.4701
C20 C 0.6099(8) 0.6045(4) 0.5167(4)
H20 H 0.5939 0.5593 0.5432
H21 H 0.6750 0.6195 0.5325
H22 H 0.6392 0.6035 0.4745
C22 C 0.1410(8) 0.9689(4) 0.3408(4)
H23 H 0.1007 0.9970 0.3060
C23 C 0.4964(8) 0.9579(4) 0.4088(4)
H24 H 0.5719 0.9475 0.4306
H25 H 0.4535 1.0024 0.4087
H26 H 0.5216 0.9573 0.3662
C24 C 0.0875(9) 0.9213(5) 0.3896(5)
C25 C 0.2903(9) 0.9218(5) 0.4065(5)
C27 C 0.2013(10) 0.6280(5) 0.4579(4)
C30 C 0.2866(9) 0.5809(5) 0.4407(4)
H27 H 0.2709 0.5530 0.4185
C31 C -0.0262(9) 0.8293(5) 0.3907(4)
C32 C 0.0246(9) 0.7160(5) 0.4135(5)
C33 C 0.3905(9) 0.6295(5) 0.4906(4)
C34 C -0.1256(8) 0.9490(4) 0.3576(4)
H28 H -0.0878 0.9532 0.3151
H29 H -0.1337 0.9925 0.3648
H30 H -0.2097 0.9343 0.3642
C36 C 0.4039(8) 0.9041(4) 0.4425(4)
C37 C 0.4837(8) 0.6542(4) 0.5169(4)
C39 C 0.3623(9) 0.9069(4) 0.5074(4)
H34 H 0.3052 0.8730 0.5289
H35 H 0.3179 0.9516 0.5059
H36 H 0.4368 0.8980 0.5296
C40 C 0.4040(10) 0.5805(5) 0.4616(4)
H37 H 0.4795 0.5514 0.4566
C42 C -0.1415(9) 0.9261(5) 0.5597(5)
H41 H -0.1228 0.9529 0.5823
C44 C 0.5067(9) 0.6876(5) 0.6099(5)
H43 H 0.5690 0.7142 0.5840
C49 C 0.0173(9) 0.5979(5) 0.4250(5)
H46 H -0.0756 0.6022 0.4302
H47 H 0.0512 0.5516 0.4462
H48 H 0.0486 0.6091 0.3810
C54 C -0.2341(10) 0.8839(5) 0.5821(5)
C56 C -0.0312(9) 0.7405(5) 0.3581(5)
H55 H -0.0447 0.7142 0.3340
C58 C 0.0609(9) 0.6458(5) 0.4527(5)
C59 C 0.4450(8) 0.6527(4) 0.5844(4)
C60 C -0.0774(10) 0.9272(4) 0.5022(5)
H59 H -0.0121 0.9553 0.4855
C64 C 0.2664(9) 0.9690(5) 0.3512(5)
H65 H 0.3250 0.9972 0.3241
C67 C 0.3304(11) 0.6089(6) 0.6866(6)
H69 H 0.2712 0.5814 0.7141
C68 C 0.3563(10) 0.6124(5) 0.6244(5)
H70 H 0.3130 0.5870 0.6088
C74 C 0.3934(12) 0.6461(6) 0.7051(5)
C75 C 0.4821(9) 0.6857(5) 0.6710(5)
H76 H 0.5242 0.7104 0.6879
F4 F -0.1409(6) 0.0852(3) 1.1778(3)
N1 N 0.4988(7) 0.2645(4) 0.9587(3)
H1 H 0.4225 0.2606 0.9791
N2 N 0.3290(7) 0.1474(4) 0.9576(3)
H2 H 0.3007 0.1787 0.9754
C1 C 0.5481(9) 0.3249(5) 0.9333(4)
N4 N 0.2629(7) 0.3797(4) 0.9123(3)
H4 H 0.2507 0.3433 0.9436
N5 N 0.0926(7) 0.2649(4) 0.9101(4)
H5 H 0.1222 0.2632 0.9440
C5 C 0.2522(9) 0.1191(5) 0.9325(4)
C9 C 0.0458(9) 0.1301(5) 1.0011(4)
C10 C 0.3331(9) 0.0740(5) 0.9114(4)
H15 H 0.3090 0.0450 0.8926
C14 C 0.5558(8) 0.1398(4) 0.9788(4)
C16 C 0.4550(9) 0.1207(5) 0.9512(4)
C17 C 0.0535(9) 0.3242(5) 0.8659(5)
C18 C 0.0127(8) 0.3054(5) 0.8213(4)
H18 H -0.0207 0.3350 0.7850
C19 C 0.0291(9) 0.2330(5) 0.8391(5)
H19 H 0.0084 0.2071 0.8162
F6 F 0.3245(6) 0.3860(3) 1.1857(3)
C21 C 0.4762(9) 0.3893(4) 0.9388(4)
C26 C 0.5829(9) 0.2107(5) 0.9488(4)
C28 C 0.0797(9) 0.2075(5) 0.8947(5)
C29 C 0.0470(9) 0.3898(5) 0.8765(4)
C35 C 0.5213(8) 0.1262(4) 1.0478(4)
H31 H 0.5899 0.1362 1.0653
H32 H 0.5087 0.0789 1.0672
H33 H 0.4428 0.1547 1.0555
C38 C 0.3681(9) 0.4129(5) 0.8989(5)
C41 C -0.0229(9) 0.3874(5) 0.9403(4)
H38 H -0.1072 0.3740 0.9440
H39 H -0.0316 0.4319 0.9456
H40 H 0.0255 0.3548 0.9722
C43 C 0.2854(12) 0.4242(6) 1.0804(6)
H42 H 0.2114 0.4516 1.0907
C45 C 0.4567(10) 0.0752(5) 0.9207(4)
H44 H 0.5299 0.0489 0.9080
C46 C 0.1795(10) 0.4119(5) 0.8694(5)
C47 C 0.6666(9) 0.3071(5) 0.9062(4)
H45 H 0.7257 0.3377 0.8844
C48 C 0.1125(9) 0.1379(5) 0.9348(4)
C50 C 0.0958(9) 0.0730(5) 1.0488(5)
H49 H 0.1703 0.0452 1.0397
C51 C -0.0781(11) 0.1016(7) 1.1176(5)
C52 C 0.6890(9) 0.2370(5) 0.9151(4)
H50 H 0.7634 0.2131 0.9005
C53 C -0.0637(9) 0.1676(5) 1.0164(5)
H51 H -0.0965 0.2051 0.9846
C55 C 0.6798(8) 0.0941(4) 0.9670(4)
H52 H 0.7057 0.1048 0.9225
H53 H 0.6649 0.0469 0.9841
H54 H 0.7470 0.1016 0.9870
C57 C 0.0573(9) 0.0903(4) 0.9105(4)
H56 H -0.0348 0.1023 0.9112
H57 H 0.0761 0.0439 0.9369
H58 H 0.0955 0.0943 0.8681
C61 C 0.3506(11) 0.4665(5) 0.8466(5)
H60 H 0.4079 0.4985 0.8264
C62 C -0.1295(10) 0.1547(5) 1.0748(5)
H61 H -0.2054 0.1815 1.0840
C63 C 0.5716(9) 0.4417(5) 0.9148(4)
H62 H 0.6061 0.4445 0.8721
H63 H 0.6409 0.4281 0.9408
H64 H 0.5280 0.4857 0.9162
C65 C -0.0300(9) 0.4432(5) 0.8277(4)
H66 H 0.0142 0.4468 0.7864
H67 H -0.0385 0.4867 0.8351
H68 H -0.1144 0.4301 0.8309
C66 C 0.4280(10) 0.3841(5) 1.0063(5)
C69 C 0.3178(10) 0.4248(5) 1.0208(5)
H71 H 0.2671 0.4523 0.9896
C70 C 0.4667(13) 0.3459(6) 1.1127(5)
H72 H 0.5166 0.3202 1.1449
C71 C 0.2334(11) 0.4654(5) 0.8285(5)
H73 H 0.1974 0.4966 0.7937
C72 C 0.5034(11) 0.3446(5) 1.0514(5)
H74 H 0.5779 0.3173 1.0414
C73 C 0.0321(11) 0.0589(5) 1.1095(5)
H75 H 0.0627 0.0225 1.1428
C76 C 0.3551(15) 0.3859(7) 1.1244(6)
N9 N 0.4667(7) 0.2833(4) 0.7401(3)
C77 C 0.4059(9) 0.3323(5) 0.6841(4)
H77 H 0.4688 0.3623 0.6587
H78 H 0.3869 0.3063 0.6587
C78 C 0.4188(9) 0.1226(4) 0.7543(4)
H79 H 0.4839 0.1315 0.7179
H80 H 0.4630 0.1064 0.7919
C79 C 0.5026(10) 0.3202(5) 0.7804(4)
H81 H 0.5375 0.2863 0.8167
H82 H 0.4239 0.3443 0.7958
C80 C 0.3441(9) 0.0690(4) 0.7530(4)
H83 H 0.2727 0.0644 0.7857
H84 H 0.3992 0.0261 0.7596
H85 H 0.3119 0.0817 0.7128
C81 C 0.2849(9) 0.3756(5) 0.6987(5)
H86 H 0.2139 0.3480 0.7136
H87 H 0.2959 0.3937 0.7317
C82 C 0.5853(9) 0.2475(5) 0.7150(4)
H88 H 0.6369 0.2817 0.6860
H89 H 0.5606 0.2217 0.6909
C83 C 0.8447(9) 0.1048(5) 0.7807(4)
H90 H 0.8965 0.1285 0.7958
H91 H 0.9001 0.0737 0.7616
H92 H 0.7887 0.0797 0.8153
C84 C 0.6672(9) 0.2004(5) 0.7623(4)
H93 H 0.6135 0.1723 0.7967
H94 H 0.7112 0.2266 0.7792
C85 C 0.2542(10) 0.4329(5) 0.6412(4)
H95 H 0.3270 0.4592 0.6257
H96 H 0.2418 0.4143 0.6088
C86 C 0.7643(9) 0.1559(5) 0.7328(4)
H97 H 0.8205 0.1840 0.6997
H98 H 0.7201 0.1317 0.7138
C87 C 0.6584(12) 0.4886(6) 0.7038(5)
H99 H 0.6914 0.4798 0.7432
H100 H 0.6206 0.5356 0.6895
H101 H 0.7278 0.4799 0.6731
C88 C 0.3305(8) 0.1883(5) 0.7537(4)
H102 H 0.3158 0.2132 0.7104
H103 H 0.2475 0.1761 0.7767
C89 C 0.6008(12) 0.3722(5) 0.7498(4)
H104 H 0.6441 0.3754 0.7833
H105 H 0.6660 0.3528 0.7228
C90 C 0.3748(9) 0.2349(5) 0.7803(4)
H106 H 0.4154 0.2071 0.8175
H107 H 0.2988 0.2619 0.7942
C91 C 0.5566(11) 0.4423(6) 0.7125(5)
H108 H 0.4769 0.4592 0.7338
H109 H 0.5390 0.4425 0.6717
C92 C 0.1363(9) 0.4791(5) 0.6533(5)
H110 H 0.0646 0.4530 0.6702
H111 H 0.1173 0.5136 0.6145
H112 H 0.1506 0.5004 0.6829
N10 N -0.0265(13) 0.7646(6) 0.7618(5)
C93 C 0.1498(13) 0.8217(7) 0.7316(6)
H113 H 0.1961 0.7904 0.7657
H114 H 0.0993 0.8583 0.7460
C94 C -0.0816(18) 0.6097(8) 0.6775(6)
H115 H -0.0093 0.6177 0.6939
H116 H -0.0541 0.6044 0.6366
H117 H -0.1147 0.5688 0.7053
C95 C 0.2448(17) 0.8505(8) 0.6730(7)
H118 H 0.2799 0.8149 0.6539
H119 H 0.1987 0.8874 0.6424
C96 C -0.3626(16) 0.8771(8) 0.7941(7)
H120 H -0.3866 0.8986 0.7518
H121 H -0.4410 0.8678 0.8229
C97 C -0.009(2) 0.7531(13) 0.8221(9)
H122 H -0.0897 0.7509 0.8497
H123 H 0.0386 0.7868 0.8269
C98 C 0.072(3) 0.6829(13) 0.8324(11)
H124 H 0.1365 0.6839 0.7962
H125 H 0.0169 0.6486 0.8366
C99 C 0.2048(16) 0.5992(8) 0.9206(7)
H126 H 0.1488 0.5668 0.9219
H127 H 0.2243 0.5925 0.9624
H128 H 0.2836 0.5927 0.8941
C100 C -0.0968(14) 0.7073(9) 0.7427(7)
H129 H -0.0339 0.6668 0.7464
H130 H -0.1684 0.6940 0.7751
C101 C 0.3532(15) 0.8767(7) 0.6898(7)
H131 H 0.3671 0.8525 0.7328
H132 H 0.3314 0.9247 0.6847
H133 H 0.4307 0.8696 0.6626
C102 C -0.1797(15) 0.6659(9) 0.6727(7)
H134 H -0.2552 0.6505 0.7014
H135 H -0.2043 0.6820 0.6303
C103 C 0.0654(15) 0.7854(8) 0.7109(7)
H136 H 0.0250 0.8157 0.6745
H137 H 0.1147 0.7462 0.7001
C104 C -0.2943(15) 0.9218(9) 0.8112(6)
H138 H -0.3487 0.9643 0.8090
H139 H -0.2168 0.9306 0.7825
H140 H -0.2719 0.9003 0.8533
C105 C -0.1423(16) 0.7233(10) 0.6868(8)
H141 H -0.0765 0.7435 0.6538
H142 H -0.2170 0.7578 0.6856
C106 C 0.147(2) 0.6619(13) 0.8977(10)
H143 H 0.2110 0.6930 0.8893
H144 H 0.0827 0.6713 0.9308
C107 C -0.1345(14) 0.8298(9) 0.7632(7)
H145 H -0.1025 0.8567 0.7841
H146 H -0.1430 0.8581 0.7201
C108 C -0.2763(17) 0.8126(10) 0.7975(8)
H147 H -0.3109 0.7862 0.7770
H148 H -0.2707 0.7855 0.8412
C109? C 0.071(4) 0.5793(16) 0.9154(14)
C110? C 0.031(5) 0.619(2) 0.8526(19)
C111? C 0.080(5) 0.687(3) 0.824(2)
C112? C -0.047(5) 0.7325(19) 0.8288(11)
H149? H 0.1169 0.6939 0.7802
H150? H 0.1422 0.6935 0.8476
H151? H -0.1224 0.7079 0.8424
H152? H -0.0473 0.7629 0.8533
H153? H -0.0630 0.6264 0.8562
H154? H 0.0604 0.5920 0.8243
H155? H 0.0348 0.5368 0.9303
H156? H 0.0405 0.6051 0.9443
H157? H 0.1638 0.5702 0.9123
loop_
_geom_bond_atom_site_label_1
_geom_bond_atom_site_label_2
_geom_bond_site_symmetry_1
_geom_bond_site_symmetry_2
F3 C54 1_555 1_555
F4 C51 1_555 1_555
N1 H1 1_555 1_555
N2 H2 1_555 1_555
N3 H3 1_555 1_555
C1 N1 1_555 1_555
N4 H4 1_555 1_555
N5 H5 1_555 1_555
N6 H6 1_555 1_555
F5 C74 1_555 1_555
N7 H7 1_555 1_555
C2 H8 1_555 1_555
C3 C13 1_555 1_555
C4 H9 1_555 1_555
N8 H10 1_555 1_555
C5 N2 1_555 1_555
C6 H11 1_555 1_555
H12 C6 1_555 1_555
H13 C6 1_555 1_555
C7 H14 1_555 1_555
C8 N3 1_555 1_555
C9 C48 1_555 1_555
C10 C5 1_555 1_555
H15 C10 1_555 1_555
C11 N3 1_555 1_555
C12 C7 1_555 1_555
H16 C12 1_555 1_555
C13 C15 1_555 1_555
C14 C16 1_555 1_555
C15 C4 1_555 1_555
H17 C15 1_555 1_555
C16 N2 1_555 1_555
C17 N5 1_555 1_555
C18 C17 1_555 1_555
H18 C18 1_555 1_555
C19 C18 1_555 1_555
H19 C19 1_555 1_555
F6 C76 1_555 1_555
C20 H20 1_555 1_555
H21 C20 1_555 1_555
H22 C20 1_555 1_555
C21 C1 1_555 1_555
C22 H23 1_555 1_555
C23 H24 1_555 1_555
H25 C23 1_555 1_555
H26 C23 1_555 1_555
C24 C3 1_555 1_555
C25 N8 1_555 1_555
C26 N1 1_555 1_555
C27 N6 1_555 1_555
C28 N5 1_555 1_555
C29 C17 1_555 1_555
C30 C27 1_555 1_555
H27 C30 1_555 1_555
C31 N7 1_555 1_555
C32 N7 1_555 1_555
C33 N6 1_555 1_555
C34 C3 1_555 1_555
H28 C34 1_555 1_555
H29 C34 1_555 1_555
H30 C34 1_555 1_555
C35 C14 1_555 1_555
H31 C35 1_555 1_555
H32 C35 1_555 1_555
H33 C35 1_555 1_555
C36 C11 1_555 1_555
C37 C8 1_555 1_555
C38 N4 1_555 1_555
C39 C36 1_555 1_555
H34 C39 1_555 1_555
H35 C39 1_555 1_555
H36 C39 1_555 1_555
C40 C30 1_555 1_555
H37 C40 1_555 1_555
C41 C29 1_555 1_555
H38 C41 1_555 1_555
H39 C41 1_555 1_555
H40 C41 1_555 1_555
C42 H41 1_555 1_555
C43 H42 1_555 1_555
C44 H43 1_555 1_555
C45 C10 1_555 1_555
H44 C45 1_555 1_555
C46 N4 1_555 1_555
C47 C1 1_555 1_555
H45 C47 1_555 1_555
C48 C5 1_555 1_555
C49 H46 1_555 1_555
H47 C49 1_555 1_555
H48 C49 1_555 1_555
C50 C9 1_555 1_555
H49 C50 1_555 1_555
C51 C62 1_555 1_555
C52 C26 1_555 1_555
H50 C52 1_555 1_555
C53 C9 1_555 1_555
H51 C53 1_555 1_555
C54 C4 1_555 1_555
C55 C14 1_555 1_555
H52 C55 1_555 1_555
H53 C55 1_555 1_555
H54 C55 1_555 1_555
C56 C2 1_555 1_555
H55 C56 1_555 1_555
C57 C48 1_555 1_555
H56 C57 1_555 1_555
H57 C57 1_555 1_555
H58 C57 1_555 1_555
C58 C6 1_555 1_555
C59 C37 1_555 1_555
C60 C13 1_555 1_555
H59 C60 1_555 1_555
C61 C38 1_555 1_555
H60 C61 1_555 1_555
C62 C53 1_555 1_555
H61 C62 1_555 1_555
C63 C21 1_555 1_555
H62 C63 1_555 1_555
H63 C63 1_555 1_555
H64 C63 1_555 1_555
C64 C22 1_555 1_555
H65 C64 1_555 1_555
C65 C29 1_555 1_555
H66 C65 1_555 1_555
H67 C65 1_555 1_555
H68 C65 1_555 1_555
C66 C21 1_555 1_555
C67 H69 1_555 1_555
C68 C59 1_555 1_555
H70 C68 1_555 1_555
C69 C43 1_555 1_555
H71 C69 1_555 1_555
C70 H72 1_555 1_555
C71 C46 1_555 1_555
H73 C71 1_555 1_555
C72 C66 1_555 1_555
H74 C72 1_555 1_555
C73 C50 1_555 1_555
H75 C73 1_555 1_555
C74 C67 1_555 1_555
C75 C44 1_555 1_555
H76 C75 1_555 1_555
C76 C43 1_555 1_555
N9 C77 1_555 1_555
C77 H77 1_555 1_555
H78 C77 1_555 1_555
C78 H79 1_555 1_555
H80 C78 1_555 1_555
C79 N9 1_555 1_555
H81 C79 1_555 1_555
H82 C79 1_555 1_555
C80 C78 1_555 1_555
H83 C80 1_555 1_555
H84 C80 1_555 1_555
H85 C80 1_555 1_555
C81 C77 1_555 1_555
H86 C81 1_555 1_555
H87 C81 1_555 1_555
C82 N9 1_555 1_555
H88 C82 1_555 1_555
H89 C82 1_555 1_555
C83 H90 1_555 1_555
H91 C83 1_555 1_555
H92 C83 1_555 1_555
C84 C82 1_555 1_555
H93 C84 1_555 1_555
H94 C84 1_555 1_555
C85 C81 1_555 1_555
H95 C85 1_555 1_555
H96 C85 1_555 1_555
C86 C83 1_555 1_555
H97 C86 1_555 1_555
H98 C86 1_555 1_555
C87 H99 1_555 1_555
H100 C87 1_555 1_555
H101 C87 1_555 1_555
C88 C78 1_555 1_555
H102 C88 1_555 1_555
H103 C88 1_555 1_555
C89 C79 1_555 1_555
H104 C89 1_555 1_555
H105 C89 1_555 1_555
C90 N9 1_555 1_555
H106 C90 1_555 1_555
H107 C90 1_555 1_555
C91 C87 1_555 1_555
H108 C91 1_555 1_555
H109 C91 1_555 1_555
C92 C85 1_555 1_555
H110 C92 1_555 1_555
H111 C92 1_555 1_555
H112 C92 1_555 1_555
N10 C97 1_555 1_555
C93 H113 1_555 1_555
H114 C93 1_555 1_555
C94 H115 1_555 1_555
H116 C94 1_555 1_555
H117 C94 1_555 1_555
C95 C93 1_555 1_555
H118 C95 1_555 1_555
H119 C95 1_555 1_555
C96 H120 1_555 1_555
H121 C96 1_555 1_555
C97 H122 1_555 1_555
H123 C97 1_555 1_555
C98 C97 1_555 1_555
H124 C98 1_555 1_555
H125 C98 1_555 1_555
C99 H126 1_555 1_555
H127 C99 1_555 1_555
H128 C99 1_555 1_555
C100 N10 1_555 1_555
H129 C100 1_555 1_555
H130 C100 1_555 1_555
C101 C95 1_555 1_555
H131 C101 1_555 1_555
H132 C101 1_555 1_555
H133 C101 1_555 1_555
C102 C94 1_555 1_555
H134 C102 1_555 1_555
H135 C102 1_555 1_555
C103 N10 1_555 1_555
H136 C103 1_555 1_555
H137 C103 1_555 1_555
C104 C96 1_555 1_555
H138 C104 1_555 1_555
H139 C104 1_555 1_555
H140 C104 1_555 1_555
C105 C100 1_555 1_555
H141 C105 1_555 1_555
H142 C105 1_555 1_555
C106 C98 1_555 1_555
H143 C106 1_555 1_555
H144 C106 1_555 1_555
C107 N10 1_555 1_555
H145 C107 1_555 1_555
H146 C107 1_555 1_555
C108 C96 1_555 1_555
H147 C108 1_555 1_555
H148 C108 1_555 1_555
C2 C31 1_555 1_555
C3 C31 1_555 1_555
N8 C24 1_555 1_555
C7 C8 1_555 1_555
C11 C12 1_555 1_555
C14 C26 1_555 1_555
C16 C45 1_555 1_555
C19 C28 1_555 1_555
C20 C37 1_555 1_555
C21 C38 1_555 1_555
C22 C24 1_555 1_555
C23 C36 1_555 1_555
C25 C36 1_555 1_555
C25 C64 1_555 1_555
C27 C58 1_555 1_555
C28 C48 1_555 1_555
C29 C46 1_555 1_555
C32 C56 1_555 1_555
C32 C58 1_555 1_555
C33 C37 1_555 1_555
C33 C40 1_555 1_555
C42 C54 1_555 1_555
C42 C60 1_555 1_555
C44 C59 1_555 1_555
C47 C52 1_555 1_555
C49 C58 1_555 1_555
C51 C73 1_555 1_555
C61 C71 1_555 1_555
C66 C69 1_555 1_555
C67 C68 1_555 1_555
C70 C72 1_555 1_555
C70 C76 1_555 1_555
C74 C75 1_555 1_555
C84 C86 1_555 1_555
C88 C90 1_555 1_555
C89 C91 1_555 1_555
C93 C103 1_555 1_555
C99 C106 1_555 1_555
C102 C105 1_555 1_555
C107 C108 1_555 1_555

#END
