
#######################################################################
#
#                 Cambridge Crystallographic Data Centre
#                                CCDC 
#
#######################################################################
#
# If this CIF has been generated from an entry in the Cambridge 
# Structural Database, then it will include bibliographic, chemical, 
# crystal, experimental, refinement or atomic coordinate data resulting 
# from the CCDC's data processing and validation procedures.
#
#######################################################################

data_OQEDUL
_chemical_formula_moiety         'C56 H68 P2 1-,C20 H40 K1 O8 1+'
_chemical_name_systematic        
'(18-crown-6)-bis(tetrahydrofuran)-potassium 12-((2,4,6-tri-t-butylphenyl)phosphinidene)-6-((2,4,6-tri-t-butylphenyl)phosphino)-6,12-dihydroindeno[1,2-b]fluoren-6-ide radical'
_symmetry_cell_setting           monoclinic
_symmetry_space_group_name_H-M   'P 21/n'
_symmetry_Int_Tables_number      14
_space_group_name_Hall           '-P 2yn'
loop_
_symmetry_equiv_pos_site_id
_symmetry_equiv_pos_as_xyz
1 x,y,z
2 1/2-x,1/2+y,1/2-z
3 -x,-y,-z
4 1/2+x,1/2-y,1/2+z
_cell_length_a                   13.392(3)
_cell_length_b                   17.887(4)
_cell_length_c                   15.880(3)
_cell_angle_alpha                90
_cell_angle_beta                 107.74(3)
_cell_angle_gamma                90
_cell_volume                     3623.06
_exptl_crystal_colour            'dark green'
_exptl_crystal_description       block
_cell_formula_units_Z            2
loop_
_atom_site_label
_atom_site_type_symbol
_atom_site_fract_x
_atom_site_fract_y
_atom_site_fract_z
K1 K 1.0000 0.0000 1.0000
O1 O 1.1247(3) 0.1172(2) 0.9686(3)
O2 O 0.9633(3) 0.1497(2) 1.0378(3)
O3 O 0.8683(3) 0.0307(3) 1.1006(3)
C1 C 1.1641(6) 0.0995(4) 0.8979(5)
H1 H 1.2184 0.1364 0.8959
H2 H 1.1065 0.1029 0.8414
C2 C 1.0869(6) 0.1913(4) 0.9675(5)
H3 H 1.0318 0.2009 0.9108
H4 H 1.1448 0.2272 0.9728
C3 C 1.0434(6) 0.2020(4) 1.0420(5)
H5 H 1.1000 0.1961 1.0986
H6 H 1.0150 0.2533 1.0399
C4 C 0.9098(6) 0.1598(4) 1.1018(4)
H7 H 0.8780 0.2102 1.0953
H8 H 0.9603 0.1558 1.1619
C5 C 0.8279(5) 0.1031(4) 1.0904(5)
H9 H 0.7902 0.1118 1.1343
H10 H 0.7768 0.1082 1.0307
C6 C 0.7907(5) -0.0242(4) 1.0928(5)
H11 H 0.7368 -0.0196 1.0344
H12 H 0.7561 -0.0162 1.1390
O4 O 0.8332(4) 0.0194(2) 0.8537(3)
C7 C 0.8332(7) 0.0868(4) 0.8078(5)
H13 H 0.9009 0.1124 0.8352
H14 H 0.7771 0.1193 0.8161
C8 C 0.8172(14) 0.0793(7) 0.7084(6)
H15 H 0.7511 0.1025 0.6718
H16 H 0.8773 0.0986 0.6909
C9 C 0.8124(14) -0.0029(7) 0.7085(7)
H17 H 0.8789 -0.0227 0.7024
H18 H 0.7551 -0.0192 0.6560
C10 C 0.7943(6) -0.0380(4) 0.7925(5)
H19 H 0.7191 -0.0477 0.7839
H20 H 0.8345 -0.0849 0.8101
O1B O 0.8753(3) -0.1172(2) 1.0314(3)
O2B O 1.0367(3) -0.1497(2) 0.9622(3)
O3B O 1.1317(3) -0.0307(3) 0.8994(3)
C1B C 0.8359(6) -0.0995(4) 1.1021(5)
H1B H 0.7816 -0.1364 1.1041
H2B H 0.8935 -0.1029 1.1586
C2B C 0.9131(6) -0.1913(4) 1.0325(5)
H3B H 0.9682 -0.2009 1.0892
H4B H 0.8552 -0.2272 1.0272
C3B C 0.9566(6) -0.2020(4) 0.9580(5)
H5B H 0.9000 -0.1961 0.9014
H6B H 0.9850 -0.2533 0.9601
C4B C 1.0902(6) -0.1598(4) 0.8982(4)
H7B H 1.1220 -0.2102 0.9047
H8B H 1.0397 -0.1558 0.8381
C5B C 1.1721(5) -0.1031(4) 0.9096(5)
H9B H 1.2098 -0.1118 0.8657
H10B H 1.2232 -0.1082 0.9693
C6B C 1.2093(5) 0.0242(4) 0.9072(5)
H11B H 1.2632 0.0196 0.9656
H12B H 1.2439 0.0162 0.8610
O4B O 1.1668(4) -0.0194(2) 1.1463(3)
C7B C 1.1668(7) -0.0868(4) 1.1922(5)
H13B H 1.0991 -0.1124 1.1648
H14B H 1.2229 -0.1193 1.1839
C8B C 1.1828(14) -0.0793(7) 1.2916(6)
H15B H 1.2489 -0.1025 1.3282
H16B H 1.1227 -0.0986 1.3091
C9B C 1.1876(14) 0.0029(7) 1.2915(7)
H17B H 1.1211 0.0227 1.2976
H18B H 1.2449 0.0192 1.3440
C10B C 1.2057(6) 0.0380(4) 1.2075(5)
H19B H 1.2809 0.0477 1.2161
H20B H 1.1655 0.0849 1.1899
P1 P 0.77003(12) 0.42413(8) 0.12356(10)
C13 C 0.8332(4) 0.4276(3) 0.0427(3)
C14 C 0.9168(4) 0.4705(3) 0.0287(3)
C15 C 0.9458(4) 0.4388(3) -0.0447(3)
C16 C 0.8741(4) 0.3777(3) -0.0800(3)
C17 C 0.8060(4) 0.3709(3) -0.0278(3)
C18 C 0.7258(4) 0.3179(3) -0.0512(4)
H25 H 0.6799 0.3118 -0.0163
C19 C 0.7139(5) 0.2749(3) -0.1250(4)
H26 H 0.6574 0.2403 -0.1423
C20 C 0.7825(5) 0.2805(3) -0.1751(4)
H27 H 0.7745 0.2485 -0.2245
C21 C 0.8627(4) 0.3329(3) -0.1530(4)
H28 H 0.9090 0.3379 -0.1876
C22 C 0.9731(4) 0.5332(3) 0.0719(3)
H29 H 0.9554 0.5560 0.1194
C23 C 0.8262(4) 0.5035(3) 0.1980(3)
C24 C 0.9243(4) 0.4954(3) 0.2688(3)
C25 C 0.9696(4) 0.5593(3) 0.3142(4)
H30 H 1.0346 0.5540 0.3594
C26 C 0.9266(4) 0.6300(3) 0.2981(3)
C27 C 0.8286(4) 0.6350(3) 0.2353(3)
H31 H 0.7949 0.6823 0.2256
C28 C 0.7772(4) 0.5743(3) 0.1857(3)
C29 C 0.6640(4) 0.5894(3) 0.1209(4)
C30 C 0.5846(4) 0.5341(4) 0.1409(4)
H32 H 0.5858 0.5398 0.2026
H33 H 0.6039 0.4827 0.1309
H34 H 0.5139 0.5448 0.1017
C31 C 0.6640(5) 0.5833(4) 0.0242(4)
H35 H 0.6810 0.5319 0.0121
H36 H 0.7165 0.6175 0.0143
H37 H 0.5945 0.5966 -0.0153
C32 C 0.6240(5) 0.6671(3) 0.1327(4)
H38 H 0.5519 0.6728 0.0939
H39 H 0.6688 0.7048 0.1174
H40 H 0.6257 0.6738 0.1944
C33 C 0.9762(4) 0.6986(3) 0.3509(4)
C34 C 0.9186(5) 0.7163(4) 0.4186(4)
H41 H 0.8447 0.7269 0.3876
H42 H 0.9508 0.7601 0.4536
H43 H 0.9235 0.6733 0.4579
C35 C 1.0918(5) 0.6865(4) 0.4000(4)
H44 H 1.0990 0.6469 0.4441
H45 H 1.1221 0.7330 0.4297
H46 H 1.1287 0.6719 0.3579
C36 C 0.9663(5) 0.7669(3) 0.2907(4)
H47 H 0.9997 0.7562 0.2450
H48 H 1.0009 0.8099 0.3259
H49 H 0.8921 0.7784 0.2626
C37 C 0.9813(4) 0.4196(3) 0.2982(4)
C38 C 0.9071(5) 0.3641(3) 0.3218(5)
H50 H 0.8860 0.3837 0.3715
H51 H 0.9429 0.3161 0.3385
H52 H 0.8448 0.3570 0.2706
C39 C 1.0247(5) 0.3864(3) 0.2271(4)
H53 H 1.0686 0.3429 0.2514
H54 H 1.0668 0.4241 0.2087
H55 H 0.9663 0.3709 0.1760
C40 C 1.0742(5) 0.4282(3) 0.3836(4)
H56 H 1.0494 0.4507 0.4299
H57 H 1.1276 0.4605 0.3720
H58 H 1.1045 0.3790 0.4032
P1B P 1.22997(12) 0.57587(8) -0.12356(10)
C13B C 1.1668(4) 0.5724(3) -0.0427(3)
C14B C 1.0832(4) 0.5295(3) -0.0287(3)
C15B C 1.0542(4) 0.5612(3) 0.0447(3)
C16B C 1.1259(4) 0.6223(3) 0.0800(3)
C17B C 1.1940(4) 0.6291(3) 0.0278(3)
C18B C 1.2742(4) 0.6821(3) 0.0512(4)
H25B H 1.3201 0.6882 0.0163
C19B C 1.2861(5) 0.7251(3) 0.1250(4)
H26B H 1.3426 0.7597 0.1423
C20B C 1.2175(5) 0.7195(3) 0.1751(4)
H27B H 1.2255 0.7515 0.2245
C21B C 1.1373(4) 0.6671(3) 0.1530(4)
H28B H 1.0910 0.6621 0.1876
C22B C 1.0269(4) 0.4668(3) -0.0719(3)
H29B H 1.0446 0.4440 -0.1194
C23B C 1.1738(4) 0.4965(3) -0.1980(3)
C24B C 1.0757(4) 0.5046(3) -0.2688(3)
C25B C 1.0304(4) 0.4407(3) -0.3142(4)
H30B H 0.9654 0.4460 -0.3594
C26B C 1.0734(4) 0.3700(3) -0.2981(3)
C27B C 1.1714(4) 0.3650(3) -0.2353(3)
H31B H 1.2051 0.3177 -0.2256
C28B C 1.2228(4) 0.4257(3) -0.1857(3)
C29B C 1.3360(4) 0.4106(3) -0.1209(4)
C30B C 1.4154(4) 0.4659(4) -0.1409(4)
H32B H 1.4142 0.4602 -0.2026
H33B H 1.3961 0.5173 -0.1309
H34B H 1.4861 0.4552 -0.1017
C31B C 1.3360(5) 0.4167(4) -0.0242(4)
H35B H 1.3190 0.4681 -0.0121
H36B H 1.2835 0.3825 -0.0143
H37B H 1.4055 0.4034 0.0153
C32B C 1.3760(5) 0.3329(3) -0.1327(4)
H38B H 1.4481 0.3272 -0.0939
H39B H 1.3312 0.2952 -0.1174
H40B H 1.3743 0.3262 -0.1944
C33B C 1.0238(4) 0.3014(3) -0.3509(4)
C34B C 1.0814(5) 0.2837(4) -0.4186(4)
H41B H 1.1553 0.2731 -0.3876
H42B H 1.0492 0.2399 -0.4536
H43B H 1.0765 0.3267 -0.4579
C35B C 0.9082(5) 0.3135(4) -0.4000(4)
H44B H 0.9010 0.3531 -0.4441
H45B H 0.8779 0.2670 -0.4297
H46B H 0.8713 0.3281 -0.3579
C36B C 1.0337(5) 0.2331(3) -0.2907(4)
H47B H 1.0003 0.2438 -0.2450
H48B H 0.9991 0.1901 -0.3259
H49B H 1.1079 0.2216 -0.2626
C37B C 1.0187(4) 0.5804(3) -0.2982(4)
C38B C 1.0929(5) 0.6359(3) -0.3218(5)
H50B H 1.1140 0.6163 -0.3715
H51B H 1.0571 0.6839 -0.3385
H52B H 1.1552 0.6430 -0.2706
C39B C 0.9753(5) 0.6136(3) -0.2271(4)
H53B H 0.9314 0.6571 -0.2514
H54B H 0.9332 0.5759 -0.2087
H55B H 1.0337 0.6291 -0.1760
C40B C 0.9258(5) 0.5718(3) -0.3836(4)
H56B H 0.9506 0.5493 -0.4299
H57B H 0.8724 0.5395 -0.3720
H58B H 0.8955 0.6210 -0.4032
C11? C 0.8539(14) 0.0504(7) 0.7257(8)
H21? H 0.7959 0.0641 0.6723
H22? H 0.9194 0.0715 0.7189
C12? C 0.8631(12) -0.0312(8) 0.7304(10)
H23? H 0.9359 -0.0486 0.7579
H24? H 0.8319 -0.0559 0.6725
loop_
_geom_bond_atom_site_label_1
_geom_bond_atom_site_label_2
_geom_bond_site_symmetry_1
_geom_bond_site_symmetry_2
K1 O1 1_555 1_555
O1 C1 1_555 1_555
O2 K1 1_555 1_555
O3 K1 1_555 1_555
C1 H1 1_555 1_555
H2 C1 1_555 1_555
C2 O1 1_555 1_555
H3 C2 1_555 1_555
H4 C2 1_555 1_555
C3 O2 1_555 1_555
H5 C3 1_555 1_555
H6 C3 1_555 1_555
C4 O2 1_555 1_555
H7 C4 1_555 1_555
H8 C4 1_555 1_555
C5 O3 1_555 1_555
H9 C5 1_555 1_555
H10 C5 1_555 1_555
C6 O3 1_555 1_555
H11 C6 1_555 1_555
H12 C6 1_555 1_555
O4 K1 1_555 1_555
C7 O4 1_555 1_555
H13 C7 1_555 1_555
H14 C7 1_555 1_555
C8 C7 1_555 1_555
H15 C8 1_555 1_555
H16 C8 1_555 1_555
C9 C8 1_555 1_555
H17 C9 1_555 1_555
H18 C9 1_555 1_555
C10 O4 1_555 1_555
H19 C10 1_555 1_555
H20 C10 1_555 1_555
P1 C13 1_555 1_555
C13 C14 1_555 1_555
C14 C15 1_555 1_555
C15 C16 1_555 1_555
C16 C17 1_555 1_555
C17 C13 1_555 1_555
C18 C17 1_555 1_555
H25 C18 1_555 1_555
C19 C18 1_555 1_555
H26 C19 1_555 1_555
C20 C19 1_555 1_555
H27 C20 1_555 1_555
C21 C16 1_555 1_555
H28 C21 1_555 1_555
C22 C14 1_555 1_555
H29 C22 1_555 1_555
C23 P1 1_555 1_555
C24 C23 1_555 1_555
C25 C24 1_555 1_555
H30 C25 1_555 1_555
C26 C25 1_555 1_555
C27 C26 1_555 1_555
H31 C27 1_555 1_555
C28 C23 1_555 1_555
C29 C28 1_555 1_555
C30 C29 1_555 1_555
H32 C30 1_555 1_555
H33 C30 1_555 1_555
H34 C30 1_555 1_555
C31 C29 1_555 1_555
H35 C31 1_555 1_555
H36 C31 1_555 1_555
H37 C31 1_555 1_555
C32 C29 1_555 1_555
H38 C32 1_555 1_555
H39 C32 1_555 1_555
H40 C32 1_555 1_555
C33 C26 1_555 1_555
C34 C33 1_555 1_555
H41 C34 1_555 1_555
H42 C34 1_555 1_555
H43 C34 1_555 1_555
C35 C33 1_555 1_555
H44 C35 1_555 1_555
H45 C35 1_555 1_555
H46 C35 1_555 1_555
C36 C33 1_555 1_555
H47 C36 1_555 1_555
H48 C36 1_555 1_555
H49 C36 1_555 1_555
C37 C24 1_555 1_555
C38 C37 1_555 1_555
H50 C38 1_555 1_555
H51 C38 1_555 1_555
H52 C38 1_555 1_555
C39 C37 1_555 1_555
H53 C39 1_555 1_555
H54 C39 1_555 1_555
H55 C39 1_555 1_555
C40 C37 1_555 1_555
H56 C40 1_555 1_555
H57 C40 1_555 1_555
H58 C40 1_555 1_555
O1B K1 1_555 1_555
O2B K1 1_555 1_555
O3B K1 1_555 1_555
C1B C6 1_555 1_555
H1B C1B 1_555 1_555
H2B C1B 1_555 1_555
C2B O1B 1_555 1_555
H3B C2B 1_555 1_555
H4B C2B 1_555 1_555
C3B O2B 1_555 1_555
H5B C3B 1_555 1_555
H6B C3B 1_555 1_555
C4B O2B 1_555 1_555
H7B C4B 1_555 1_555
H8B C4B 1_555 1_555
C5B O3B 1_555 1_555
H9B C5B 1_555 1_555
H10B C5B 1_555 1_555
C6B C1 1_555 1_555
H11B C6B 1_555 1_555
H12B C6B 1_555 1_555
O4B K1 1_555 1_555
C7B O4B 1_555 1_555
H13B C7B 1_555 1_555
H14B C7B 1_555 1_555
C8B C7B 1_555 1_555
H15B C8B 1_555 1_555
H16B C8B 1_555 1_555
C9B C8B 1_555 1_555
H17B C9B 1_555 1_555
H18B C9B 1_555 1_555
C10B O4B 1_555 1_555
H19B C10B 1_555 1_555
H20B C10B 1_555 1_555
P1B C13B 1_555 1_555
C13B C14B 1_555 1_555
C14B C15B 1_555 1_555
C15B C22 1_555 1_555
C16B C15B 1_555 1_555
C17B C13B 1_555 1_555
C18B C17B 1_555 1_555
H25B C18B 1_555 1_555
C19B C18B 1_555 1_555
H26B C19B 1_555 1_555
C20B C19B 1_555 1_555
H27B C20B 1_555 1_555
C21B C16B 1_555 1_555
H28B C21B 1_555 1_555
C22B C15 1_555 1_555
H29B C22B 1_555 1_555
C23B P1B 1_555 1_555
C24B C23B 1_555 1_555
C25B C24B 1_555 1_555
H30B C25B 1_555 1_555
C26B C25B 1_555 1_555
C27B C26B 1_555 1_555
H31B C27B 1_555 1_555
C28B C23B 1_555 1_555
C29B C28B 1_555 1_555
C30B C29B 1_555 1_555
H32B C30B 1_555 1_555
H33B C30B 1_555 1_555
H34B C30B 1_555 1_555
C31B C29B 1_555 1_555
H35B C31B 1_555 1_555
H36B C31B 1_555 1_555
H37B C31B 1_555 1_555
C32B C29B 1_555 1_555
H38B C32B 1_555 1_555
H39B C32B 1_555 1_555
H40B C32B 1_555 1_555
C33B C26B 1_555 1_555
C34B C33B 1_555 1_555
H41B C34B 1_555 1_555
H42B C34B 1_555 1_555
H43B C34B 1_555 1_555
C35B C33B 1_555 1_555
H44B C35B 1_555 1_555
H45B C35B 1_555 1_555
H46B C35B 1_555 1_555
C36B C33B 1_555 1_555
H47B C36B 1_555 1_555
H48B C36B 1_555 1_555
H49B C36B 1_555 1_555
C37B C24B 1_555 1_555
C38B C37B 1_555 1_555
H50B C38B 1_555 1_555
H51B C38B 1_555 1_555
H52B C38B 1_555 1_555
C39B C37B 1_555 1_555
H53B C39B 1_555 1_555
H54B C39B 1_555 1_555
H55B C39B 1_555 1_555
C40B C37B 1_555 1_555
H56B C40B 1_555 1_555
H57B C40B 1_555 1_555
H58B C40B 1_555 1_555
C2 C3 1_555 1_555
C4 C5 1_555 1_555
C9 C10 1_555 1_555
C20 C21 1_555 1_555
C27 C28 1_555 1_555
O1B C1B 1_555 1_555
O3B C6B 1_555 1_555
C2B C3B 1_555 1_555
C4B C5B 1_555 1_555
C9B C10B 1_555 1_555
C14B C22B 1_555 1_555
C16B C17B 1_555 1_555
C20B C21B 1_555 1_555
C27B C28B 1_555 1_555

#END
