
#######################################################################
#
#                 Cambridge Crystallographic Data Centre
#                                CCDC 
#
#######################################################################
#
# If this CIF has been generated from an entry in the Cambridge 
# Structural Database, then it will include bibliographic, chemical, 
# crystal, experimental, refinement or atomic coordinate data resulting 
# from the CCDC's data processing and validation procedures.
#
#######################################################################

data_OQEFAT
_chemical_formula_moiety         'C56 H68 P2 2-,2(C20 H40 K1 O8 1+),4(C4 H8 O1)'
_chemical_name_systematic        
'bis((18-crown-6)-bis(tetrahydrofuran)-potassium) 6,12-bis((2,4,6-tri-t-butylphenyl)phosphino)-6,12-dihydroindeno[1,2-b]fluorene-6,12-di-ide diradical tetrahydrofuran solvate'
_symmetry_cell_setting           triclinic
_symmetry_space_group_name_H-M   'P -1'
_symmetry_Int_Tables_number      2
_space_group_name_Hall           '-P 1'
loop_
_symmetry_equiv_pos_site_id
_symmetry_equiv_pos_as_xyz
1 x,y,z
2 -x,-y,-z
_cell_length_a                   13.4139(7)
_cell_length_b                   13.5562(7)
_cell_length_c                   17.2567(9)
_cell_angle_alpha                102.9195(15)
_cell_angle_beta                 104.8459(14)
_cell_angle_gamma                96.8203(14)
_cell_volume                     2904.38
_exptl_crystal_colour            brown
_exptl_crystal_description       block
_cell_formula_units_Z            1
loop_
_atom_site_label
_atom_site_type_symbol
_atom_site_fract_x
_atom_site_fract_y
_atom_site_fract_z
K1 K 0.5000 1.0000 0.5000
O1 O 0.28847(13) 1.02789(14) 0.47992(11)
O2 O 0.34562(13) 0.83268(14) 0.46022(11)
O3 O 0.54588(13) 0.80142(14) 0.44541(11)
O4 O 0.4629(2) 0.9954(2) 0.33769(15)
C1 C 0.6513(2) 0.7907(2) 0.48021(18)
H1 H 0.6639 0.7239 0.4508
H2 H 0.6640 0.7926 0.5397
C2 C 0.4723(2) 0.7244(2) 0.45686(17)
H3 H 0.4824 0.7320 0.5169
H4 H 0.4832 0.6549 0.4317
C3 C 0.3640(2) 0.7376(2) 0.41611(17)
H5 H 0.3566 0.7377 0.3576
H6 H 0.3118 0.6797 0.4166
C4 C 0.2403(2) 0.8458(2) 0.43367(19)
H7 H 0.1923 0.7857 0.4356
H8 H 0.2229 0.8516 0.3757
C5 C 0.2276(2) 0.9418(2) 0.49009(18)
H9 H 0.1528 0.9484 0.4765
H10 H 0.2509 0.9385 0.5486
C6 C 0.2765(2) 1.1231(2) 0.52859(18)
H11 H 0.2927 1.1223 0.5877
H12 H 0.2030 1.1329 0.5098
C7 C 0.4928(3) 0.9249(3) 0.2781(2)
H13 H 0.5026 0.8614 0.2960
H14 H 0.5596 0.9557 0.2712
C8 C 0.4073(3) 0.9007(4) 0.1985(3)
H15 H 0.3771 0.8261 0.1795
H16 H 0.4340 0.9209 0.1548
C9 C 0.3261(3) 0.9629(3) 0.2178(3)
H17 H 0.2967 0.9935 0.1720
H18 H 0.2681 0.9198 0.2278
C10 C 0.3864(3) 1.0440(3) 0.2945(2)
H19 H 0.4206 1.1039 0.2807
H20 H 0.3401 1.0676 0.3284
O1A O 0.71153(13) 0.97211(14) 0.52008(11)
O2A O 0.65438(13) 1.16732(14) 0.53978(11)
O3A O 0.45412(13) 1.19858(14) 0.55459(11)
C1A C 0.3487(2) 1.2093(2) 0.51979(18)
H1A H 0.3361 1.2761 0.5492
H2A H 0.3360 1.2074 0.4603
C2A C 0.5277(2) 1.2756(2) 0.54314(17)
H3A H 0.5176 1.2680 0.4831
H4A H 0.5168 1.3451 0.5683
C3A C 0.6360(2) 1.2624(2) 0.58389(17)
H5A H 0.6434 1.2623 0.6424
H6A H 0.6882 1.3203 0.5834
C4A C 0.7597(2) 1.1542(2) 0.56633(19)
H7A H 0.8077 1.2143 0.5644
H8A H 0.7771 1.1484 0.6243
C5A C 0.7724(2) 1.0582(2) 0.50991(18)
H9A H 0.8472 1.0516 0.5235
H10A H 0.7491 1.0615 0.4514
C6A C 0.7235(2) 0.8769(2) 0.47141(18)
H11A H 0.7073 0.8777 0.4123
H12A H 0.7970 0.8671 0.4902
O4A O 0.5371(2) 1.0046(2) 0.66231(15)
C7A C 0.5072(3) 1.0751(3) 0.7219(2)
H13A H 0.4974 1.1386 0.7040
H14A H 0.4404 1.0443 0.7288
C8A C 0.5927(3) 1.0993(4) 0.8015(3)
H15A H 0.6229 1.1739 0.8205
H16A H 0.5660 1.0791 0.8452
C9A C 0.6739(3) 1.0371(3) 0.7822(3)
H17A H 0.7033 1.0065 0.8280
H18A H 0.7319 1.0802 0.7722
C10A C 0.6136(3) 0.9560(3) 0.7055(2)
H19A H 0.5794 0.8961 0.7193
H20A H 0.6599 0.9324 0.6716
K2 K 1.0000 0.5000 0.0000
O5 O 1.06301(14) 0.66559(15) 0.13680(11)
O6 O 1.18210(14) 0.50532(15) 0.12613(11)
O7 O 1.08888(15) 0.31933(15) 0.00122(12)
O8 O 0.88425(18) 0.43250(18) 0.09416(16)
C11 C 1.0754(2) 0.2556(2) -0.07929(18)
H21 H 1.0965 0.1890 -0.0752
H22 H 1.1199 0.2893 -0.1073
C12 C 1.1949(2) 0.3393(2) 0.05299(19)
H23 H 1.2422 0.3735 0.0273
H24 H 1.2170 0.2737 0.0594
C13 C 1.2018(2) 0.4068(2) 0.13559(19)
H25 H 1.1494 0.3757 0.1588
H26 H 1.2725 0.4143 0.1745
C14 C 1.1790(2) 0.5701(2) 0.20266(17)
H27 H 1.2449 0.5759 0.2468
H28 H 1.1197 0.5402 0.2198
C15 C 1.1656(2) 0.6743(2) 0.19087(18)
H29 H 1.1744 0.7235 0.2451
H30 H 1.2191 0.7002 0.1664
C16 C 1.0376(2) 0.7620(2) 0.12827(19)
H31 H 1.0825 0.7930 0.0992
H32 H 1.0497 0.8098 0.1837
C17 C 0.8846(3) 0.3348(3) 0.1096(3)
H33 H 0.8860 0.3386 0.1678
H34 H 0.9465 0.3072 0.0992
C18 C 0.7854(3) 0.2686(3) 0.0506(3)
H35 H 0.7951 0.2381 -0.0041
H36 H 0.7597 0.2127 0.0731
C19 C 0.7126(3) 0.3432(4) 0.0443(4)
H37 H 0.6717 0.3331 -0.0143
H38 H 0.6631 0.3338 0.0771
C20 C 0.7773(3) 0.4448(3) 0.0770(3)
H39 H 0.7616 0.4856 0.0359
H40 H 0.7634 0.4813 0.1285
O5A O 0.93699(14) 0.33441(15) -0.13680(11)
O6A O 0.81790(14) 0.49468(15) -0.12613(11)
O7A O 0.91112(15) 0.68067(15) -0.00122(12)
C11A C 0.9246(2) 0.7444(2) 0.07929(18)
H21A H 0.9035 0.8110 0.0752
H22A H 0.8801 0.7107 0.1073
C12A C 0.8051(2) 0.6607(2) -0.05299(19)
H23A H 0.7578 0.6265 -0.0273
H24A H 0.7830 0.7263 -0.0594
C13A C 0.7982(2) 0.5932(2) -0.13559(19)
H25A H 0.8506 0.6243 -0.1588
H26A H 0.7275 0.5857 -0.1745
C14A C 0.8210(2) 0.4299(2) -0.20266(17)
H27A H 0.7551 0.4241 -0.2468
H28A H 0.8803 0.4598 -0.2198
C15A C 0.8344(2) 0.3257(2) -0.19087(18)
H29A H 0.8256 0.2765 -0.2451
H30A H 0.7809 0.2998 -0.1664
C16A C 0.9624(2) 0.2380(2) -0.12827(19)
H31A H 0.9175 0.2070 -0.0992
H32A H 0.9503 0.1902 -0.1837
O8A O 1.11575(18) 0.56750(18) -0.09416(16)
C17A C 1.1154(3) 0.6652(3) -0.1096(3)
H33A H 1.1140 0.6614 -0.1678
H34A H 1.0535 0.6928 -0.0992
C18A C 1.2146(3) 0.7314(3) -0.0506(3)
H35A H 1.2049 0.7619 0.0041
H36A H 1.2403 0.7873 -0.0731
C19A C 1.2874(3) 0.6568(4) -0.0443(4)
H37A H 1.3283 0.6669 0.0143
H38A H 1.3369 0.6662 -0.0771
C20A C 1.2227(3) 0.5552(3) -0.0770(3)
H39A H 1.2384 0.5144 -0.0359
H40A H 1.2366 0.5187 -0.1285
O9 O 0.2739(2) 0.1010(3) 0.9535(2)
C21 C 0.3601(3) 0.1672(4) 0.9471(3)
H41 H 0.3453 0.2377 0.9516
H42 H 0.3735 0.1417 0.8931
C22 C 0.4522(3) 0.1671(3) 1.0167(3)
H43 H 0.4734 0.2346 1.0588
H44 H 0.5126 0.1517 0.9961
C23 C 0.4139(3) 0.0829(3) 1.0526(3)
H45 H 0.4673 0.0393 1.0640
H46 H 0.3977 0.1125 1.1048
C24 C 0.3186(3) 0.0231(3) 0.9877(3)
H47 H 0.3360 -0.0283 0.9449
H48 H 0.2702 -0.0127 1.0116
P1 P 0.47942(5) 0.34016(5) 0.24361(4)
C25 C 0.43628(18) 0.37685(19) 0.33265(15)
C26 C 0.47951(18) 0.44287(18) 0.41502(15)
C27 C 0.58201(18) 0.49592(18) 0.46071(15)
H49 H 0.6372 0.4940 0.4355
C28 C 0.60138(18) 0.55078(19) 0.54255(15)
C29 C 0.69665(18) 0.61624(19) 0.60025(15)
C30 C 0.79740(19) 0.6387(2) 0.59245(16)
H50 H 0.8138 0.6045 0.5442
C31 C 0.8729(2) 0.7114(2) 0.65614(18)
H51 H 0.9418 0.7271 0.6515
C32 C 0.8491(2) 0.7619(2) 0.72715(18)
H52 H 0.9013 0.8132 0.7694
C33 C 0.7502(2) 0.7384(2) 0.73690(16)
H53 H 0.7351 0.7727 0.7858
C34 C 0.67265(18) 0.66330(19) 0.67389(15)
C35 C 0.61541(19) 0.4183(2) 0.27010(15)
C36 C 0.70674(19) 0.3795(2) 0.30454(15)
C37 C 0.80508(19) 0.4450(2) 0.33263(16)
H54 H 0.8649 0.4190 0.3567
C38 C 0.81949(19) 0.5454(2) 0.32707(16)
C39 C 0.7313(2) 0.5785(2) 0.28652(17)
H55 H 0.7398 0.6464 0.2800
C40 C 0.63130(19) 0.5176(2) 0.25492(15)
C41 C 0.5446(2) 0.5622(2) 0.20166(17)
C42 C 0.4639(2) 0.5921(2) 0.24784(18)
H56 H 0.4988 0.6472 0.2987
H57 H 0.4332 0.5319 0.2623
H58 H 0.4082 0.6163 0.2119
C43 C 0.4912(2) 0.4857(2) 0.11625(17)
H59 H 0.4392 0.5163 0.0828
H60 H 0.4562 0.4223 0.1236
H61 H 0.5442 0.4698 0.0878
C44 C 0.5894(2) 0.6618(2) 0.1830(2)
H62 H 0.6452 0.6489 0.1569
H63 H 0.6182 0.7165 0.2350
H64 H 0.5333 0.6832 0.1452
C45 C 0.7049(2) 0.2675(2) 0.31255(17)
C46 C 0.6536(2) 0.1896(2) 0.22753(18)
H65 H 0.6537 0.1195 0.2337
H66 H 0.6932 0.2012 0.1889
H67 H 0.5811 0.1983 0.2057
C47 C 0.6489(2) 0.2475(2) 0.37597(17)
H68 H 0.5773 0.2609 0.3595
H69 H 0.6873 0.2932 0.4310
H70 H 0.6463 0.1756 0.3781
C48 C 0.8165(2) 0.2443(2) 0.3429(2)
H71 H 0.8512 0.2870 0.3997
H72 H 0.8574 0.2598 0.3061
H73 H 0.8114 0.1714 0.3422
C49 C 0.9276(2) 0.6174(2) 0.35884(18)
C50 C 1.0154(2) 0.5635(3) 0.3944(3)
H74 H 1.0826 0.6117 0.4140
H75 H 1.0184 0.5042 0.3511
H76 H 1.0015 0.5398 0.4410
C51 C 0.9519(2) 0.6533(3) 0.28649(19)
H77 H 1.0224 0.6958 0.3056
H78 H 0.9002 0.6938 0.2660
H79 H 0.9488 0.5931 0.2416
C52 C 0.9258(3) 0.7116(3) 0.4257(2)
H80 H 0.9131 0.6898 0.4733
H81 H 0.8696 0.7465 0.4031
H82 H 0.9934 0.7589 0.4436
P1A P 0.52058(5) 0.65984(5) 0.75639(4)
C25A C 0.56372(18) 0.62315(19) 0.66735(15)
C26A C 0.52049(18) 0.55713(18) 0.58498(15)
C27A C 0.41799(18) 0.50408(18) 0.53929(15)
H49A H 0.3628 0.5060 0.5645
C28A C 0.39862(18) 0.44922(19) 0.45745(15)
C29A C 0.30335(18) 0.38376(19) 0.39975(15)
C30A C 0.20260(19) 0.3613(2) 0.40755(16)
H50A H 0.1862 0.3955 0.4558
C31A C 0.1271(2) 0.2886(2) 0.34386(18)
H51A H 0.0582 0.2729 0.3485
C32A C 0.1509(2) 0.2381(2) 0.27285(18)
H52A H 0.0987 0.1868 0.2306
C33A C 0.2498(2) 0.2616(2) 0.26310(16)
H53A H 0.2649 0.2273 0.2142
C34A C 0.32735(18) 0.33670(19) 0.32611(15)
C35A C 0.38459(19) 0.5817(2) 0.72990(15)
C36A C 0.29326(19) 0.6205(2) 0.69546(15)
C37A C 0.19492(19) 0.5550(2) 0.66737(16)
H54A H 0.1351 0.5810 0.6433
C38A C 0.18051(19) 0.4546(2) 0.67293(16)
C39A C 0.2687(2) 0.4215(2) 0.71348(17)
H55A H 0.2602 0.3536 0.7200
C40A C 0.36870(19) 0.4824(2) 0.74508(15)
C41A C 0.4554(2) 0.4378(2) 0.79834(17)
C42A C 0.5361(2) 0.4079(2) 0.75216(18)
H56A H 0.5012 0.3528 0.7013
H57A H 0.5668 0.4681 0.7377
H58A H 0.5918 0.3837 0.7881
C43A C 0.5088(2) 0.5143(2) 0.88375(17)
H59A H 0.5608 0.4837 0.9172
H60A H 0.5438 0.5777 0.8764
H61A H 0.4558 0.5302 0.9122
C44A C 0.4106(2) 0.3382(2) 0.8170(2)
H62A H 0.3548 0.3511 0.8431
H63A H 0.3818 0.2835 0.7650
H64A H 0.4667 0.3168 0.8548
C45A C 0.2951(2) 0.7325(2) 0.68745(17)
C46A C 0.3464(2) 0.8104(2) 0.77247(18)
H65A H 0.3463 0.8805 0.7663
H66A H 0.3068 0.7988 0.8111
H67A H 0.4189 0.8017 0.7943
C47A C 0.3511(2) 0.7525(2) 0.62403(17)
H68A H 0.4227 0.7391 0.6405
H69A H 0.3127 0.7068 0.5690
H70A H 0.3537 0.8244 0.6219
C48A C 0.1835(2) 0.7557(2) 0.6571(2)
H71A H 0.1488 0.7130 0.6003
H72A H 0.1426 0.7402 0.6939
H73A H 0.1886 0.8286 0.6578
C49A C 0.0724(2) 0.3826(2) 0.64116(18)
C50A C -0.0154(2) 0.4365(3) 0.6056(3)
H74A H -0.0826 0.3883 0.5860
H75A H -0.0184 0.4958 0.6489
H76A H -0.0015 0.4602 0.5590
C51A C 0.0481(2) 0.3467(3) 0.71351(19)
H77A H -0.0224 0.3042 0.6944
H78A H 0.0998 0.3062 0.7340
H79A H 0.0512 0.4069 0.7584
C52A C 0.0742(3) 0.2884(3) 0.5743(2)
H80A H 0.0869 0.3102 0.5267
H81A H 0.1304 0.2535 0.5969
H82A H 0.0066 0.2411 0.5564
O10 O 0.1541(3) 0.0382(3) 0.6685(3)
C53 C 0.1571(5) 0.0521(5) 0.7483(4)
H83 H 0.1708 0.1269 0.7754
H84 H 0.2159 0.0230 0.7767
C54 C 0.0530(5) 0.0005(3) 0.7588(2)
H85 H 0.0543 -0.0712 0.7624
H86 H 0.0366 0.0406 0.8080
C55 C -0.0224(3) 0.0051(4) 0.6780(2)
H87 H -0.0816 -0.0544 0.6565
H88 H -0.0503 0.0699 0.6844
C56 C 0.0489(3) 0.0005(4) 0.6232(3)
H89 H 0.0412 -0.0718 0.5913
H90 H 0.0273 0.0414 0.5830
loop_
_geom_bond_atom_site_label_1
_geom_bond_atom_site_label_2
_geom_bond_site_symmetry_1
_geom_bond_site_symmetry_2
K1 O1 1_555 1_555
O1 C5 1_555 1_555
O2 K1 1_555 1_555
O3 K1 1_555 1_555
O4 K1 1_555 1_555
C1 O3 1_555 1_555
H1 C1 1_555 1_555
H2 C1 1_555 1_555
C2 O3 1_555 1_555
H3 C2 1_555 1_555
H4 C2 1_555 1_555
C3 O2 1_555 1_555
H5 C3 1_555 1_555
H6 C3 1_555 1_555
C4 O2 1_555 1_555
H7 C4 1_555 1_555
H8 C4 1_555 1_555
C5 C4 1_555 1_555
H9 C5 1_555 1_555
H10 C5 1_555 1_555
C6 O1 1_555 1_555
H11 C6 1_555 1_555
H12 C6 1_555 1_555
C7 O4 1_555 1_555
H13 C7 1_555 1_555
H14 C7 1_555 1_555
C8 C7 1_555 1_555
H15 C8 1_555 1_555
H16 C8 1_555 1_555
C9 C8 1_555 1_555
H17 C9 1_555 1_555
H18 C9 1_555 1_555
C10 O4 1_555 1_555
H19 C10 1_555 1_555
H20 C10 1_555 1_555
K2 O5 1_555 1_555
O5 C15 1_555 1_555
O6 K2 1_555 1_555
O7 K2 1_555 1_555
O8 K2 1_555 1_555
C11 O7 1_555 1_555
H21 C11 1_555 1_555
H22 C11 1_555 1_555
C12 O7 1_555 1_555
H23 C12 1_555 1_555
H24 C12 1_555 1_555
C13 O6 1_555 1_555
H25 C13 1_555 1_555
H26 C13 1_555 1_555
C14 O6 1_555 1_555
H27 C14 1_555 1_555
H28 C14 1_555 1_555
C15 C14 1_555 1_555
H29 C15 1_555 1_555
H30 C15 1_555 1_555
C16 O5 1_555 1_555
H31 C16 1_555 1_555
H32 C16 1_555 1_555
C17 O8 1_555 1_555
H33 C17 1_555 1_555
H34 C17 1_555 1_555
C18 C17 1_555 1_555
H35 C18 1_555 1_555
H36 C18 1_555 1_555
C19 C18 1_555 1_555
H37 C19 1_555 1_555
H38 C19 1_555 1_555
C20 O8 1_555 1_555
H39 C20 1_555 1_555
H40 C20 1_555 1_555
O9 C21 1_555 1_555
C21 H41 1_555 1_555
H42 C21 1_555 1_555
C22 C21 1_555 1_555
H43 C22 1_555 1_555
H44 C22 1_555 1_555
C23 C22 1_555 1_555
H45 C23 1_555 1_555
H46 C23 1_555 1_555
C24 O9 1_555 1_555
H47 C24 1_555 1_555
H48 C24 1_555 1_555
P1 C25 1_555 1_555
C25 C26 1_555 1_555
C26 C27 1_555 1_555
C27 H49 1_555 1_555
C28 C27 1_555 1_555
C29 C28 1_555 1_555
C30 C29 1_555 1_555
H50 C30 1_555 1_555
C31 C30 1_555 1_555
H51 C31 1_555 1_555
C32 C31 1_555 1_555
H52 C32 1_555 1_555
C33 C32 1_555 1_555
H53 C33 1_555 1_555
C34 C29 1_555 1_555
C35 P1 1_555 1_555
C36 C35 1_555 1_555
C37 C36 1_555 1_555
H54 C37 1_555 1_555
C38 C37 1_555 1_555
C39 C38 1_555 1_555
H55 C39 1_555 1_555
C40 C35 1_555 1_555
C41 C40 1_555 1_555
C42 C41 1_555 1_555
H56 C42 1_555 1_555
H57 C42 1_555 1_555
H58 C42 1_555 1_555
C43 C41 1_555 1_555
H59 C43 1_555 1_555
H60 C43 1_555 1_555
H61 C43 1_555 1_555
C44 C41 1_555 1_555
H62 C44 1_555 1_555
H63 C44 1_555 1_555
H64 C44 1_555 1_555
C45 C36 1_555 1_555
C46 C45 1_555 1_555
H65 C46 1_555 1_555
H66 C46 1_555 1_555
H67 C46 1_555 1_555
C47 C45 1_555 1_555
H68 C47 1_555 1_555
H69 C47 1_555 1_555
H70 C47 1_555 1_555
C48 C45 1_555 1_555
H71 C48 1_555 1_555
H72 C48 1_555 1_555
H73 C48 1_555 1_555
C49 C38 1_555 1_555
C50 C49 1_555 1_555
H74 C50 1_555 1_555
H75 C50 1_555 1_555
H76 C50 1_555 1_555
C51 C49 1_555 1_555
H77 C51 1_555 1_555
H78 C51 1_555 1_555
H79 C51 1_555 1_555
C52 C49 1_555 1_555
H80 C52 1_555 1_555
H81 C52 1_555 1_555
H82 C52 1_555 1_555
O10 C53 1_555 1_555
C53 H83 1_555 1_555
H84 C53 1_555 1_555
C54 C53 1_555 1_555
H85 C54 1_555 1_555
H86 C54 1_555 1_555
C55 C54 1_555 1_555
H87 C55 1_555 1_555
H88 C55 1_555 1_555
C56 O10 1_555 1_555
H89 C56 1_555 1_555
H90 C56 1_555 1_555
O1A K1 1_555 1_555
O2A K1 1_555 1_555
O3A K1 1_555 1_555
C1A C6 1_555 1_555
H1A C1A 1_555 1_555
H2A C1A 1_555 1_555
C2A O3A 1_555 1_555
H3A C2A 1_555 1_555
H4A C2A 1_555 1_555
C3A O2A 1_555 1_555
H5A C3A 1_555 1_555
H6A C3A 1_555 1_555
C4A O2A 1_555 1_555
H7A C4A 1_555 1_555
H8A C4A 1_555 1_555
C5A O1A 1_555 1_555
H9A C5A 1_555 1_555
H10A C5A 1_555 1_555
C6A C1 1_555 1_555
H11A C6A 1_555 1_555
H12A C6A 1_555 1_555
O4A K1 1_555 1_555
C7A O4A 1_555 1_555
H13A C7A 1_555 1_555
H14A C7A 1_555 1_555
C8A C7A 1_555 1_555
H15A C8A 1_555 1_555
H16A C8A 1_555 1_555
C9A C8A 1_555 1_555
H17A C9A 1_555 1_555
H18A C9A 1_555 1_555
C10A O4A 1_555 1_555
H19A C10A 1_555 1_555
H20A C10A 1_555 1_555
O5A K2 1_555 1_555
O6A K2 1_555 1_555
O7A K2 1_555 1_555
C11A C16 1_555 1_555
H21A C11A 1_555 1_555
H22A C11A 1_555 1_555
C12A O7A 1_555 1_555
H23A C12A 1_555 1_555
H24A C12A 1_555 1_555
C13A O6A 1_555 1_555
H25A C13A 1_555 1_555
H26A C13A 1_555 1_555
C14A O6A 1_555 1_555
H27A C14A 1_555 1_555
H28A C14A 1_555 1_555
C15A O5A 1_555 1_555
H29A C15A 1_555 1_555
H30A C15A 1_555 1_555
C16A C11 1_555 1_555
H31A C16A 1_555 1_555
H32A C16A 1_555 1_555
O8A K2 1_555 1_555
C17A O8A 1_555 1_555
H33A C17A 1_555 1_555
H34A C17A 1_555 1_555
C18A C17A 1_555 1_555
H35A C18A 1_555 1_555
H36A C18A 1_555 1_555
C19A C18A 1_555 1_555
H37A C19A 1_555 1_555
H38A C19A 1_555 1_555
C20A O8A 1_555 1_555
H39A C20A 1_555 1_555
H40A C20A 1_555 1_555
P1A C25A 1_555 1_555
C25A C34 1_555 1_555
C26A C28 1_555 1_555
C27A C26A 1_555 1_555
H49A C27A 1_555 1_555
C28A C26 1_555 1_555
C29A C28A 1_555 1_555
C30A C29A 1_555 1_555
H50A C30A 1_555 1_555
C31A C30A 1_555 1_555
H51A C31A 1_555 1_555
C32A C31A 1_555 1_555
H52A C32A 1_555 1_555
C33A C32A 1_555 1_555
H53A C33A 1_555 1_555
C34A C25 1_555 1_555
C35A P1A 1_555 1_555
C36A C35A 1_555 1_555
C37A C36A 1_555 1_555
H54A C37A 1_555 1_555
C38A C37A 1_555 1_555
C39A C38A 1_555 1_555
H55A C39A 1_555 1_555
C40A C35A 1_555 1_555
C41A C40A 1_555 1_555
C42A C41A 1_555 1_555
H56A C42A 1_555 1_555
H57A C42A 1_555 1_555
H58A C42A 1_555 1_555
C43A C41A 1_555 1_555
H59A C43A 1_555 1_555
H60A C43A 1_555 1_555
H61A C43A 1_555 1_555
C44A C41A 1_555 1_555
H62A C44A 1_555 1_555
H63A C44A 1_555 1_555
H64A C44A 1_555 1_555
C45A C36A 1_555 1_555
C46A C45A 1_555 1_555
H65A C46A 1_555 1_555
H66A C46A 1_555 1_555
H67A C46A 1_555 1_555
C47A C45A 1_555 1_555
H68A C47A 1_555 1_555
H69A C47A 1_555 1_555
H70A C47A 1_555 1_555
C48A C45A 1_555 1_555
H71A C48A 1_555 1_555
H72A C48A 1_555 1_555
H73A C48A 1_555 1_555
C49A C38A 1_555 1_555
C50A C49A 1_555 1_555
H74A C50A 1_555 1_555
H75A C50A 1_555 1_555
H76A C50A 1_555 1_555
C51A C49A 1_555 1_555
H77A C51A 1_555 1_555
H78A C51A 1_555 1_555
H79A C51A 1_555 1_555
C52A C49A 1_555 1_555
H80A C52A 1_555 1_555
H81A C52A 1_555 1_555
H82A C52A 1_555 1_555
C2 C3 1_555 1_555
C9 C10 1_555 1_555
C12 C13 1_555 1_555
C19 C20 1_555 1_555
C23 C24 1_555 1_555
C33 C34 1_555 1_555
C39 C40 1_555 1_555
C55 C56 1_555 1_555
O1A C6A 1_555 1_555
O3A C1A 1_555 1_555
C2A C3A 1_555 1_555
C4A C5A 1_555 1_555
C9A C10A 1_555 1_555
O5A C16A 1_555 1_555
O7A C11A 1_555 1_555
C12A C13A 1_555 1_555
C14A C15A 1_555 1_555
C19A C20A 1_555 1_555
C25A C26A 1_555 1_555
C27A C28A 1_555 1_555
C29A C34A 1_555 1_555
C33A C34A 1_555 1_555
C39A C40A 1_555 1_555

#END
