
#######################################################################
#
#                 Cambridge Crystallographic Data Centre
#                                CCDC 
#
#######################################################################
#
# If this CIF has been generated from an entry in the Cambridge 
# Structural Database, then it will include bibliographic, chemical, 
# crystal, experimental, refinement or atomic coordinate data resulting 
# from the CCDC's data processing and validation procedures.
#
#######################################################################

data_OQEKUS
_chemical_formula_moiety         'C10 H11 N1 O3 S1'
_chemical_name_systematic        
'4-(prop-1-en-1-yl)-3,4-dihydro-1,2,3-benzoxathiazine 2,2-dioxide'
_symmetry_cell_setting           monoclinic
_symmetry_space_group_name_H-M   'P 21'
_symmetry_Int_Tables_number      4
_space_group_name_Hall           'P 2yb'
loop_
_symmetry_equiv_pos_site_id
_symmetry_equiv_pos_as_xyz
1 x,y,z
2 -x,1/2+y,-z
_cell_length_a                   9.1983(10)
_cell_length_b                   16.7173(18)
_cell_length_c                   13.7123(15)
_cell_angle_alpha                90
_cell_angle_beta                 90.549(2)
_cell_angle_gamma                90
_cell_volume                     2108.45
_exptl_crystal_colour            colorless
_exptl_crystal_description       Rod
_cell_formula_units_Z            8
loop_
_atom_site_label
_atom_site_type_symbol
_atom_site_fract_x
_atom_site_fract_y
_atom_site_fract_z
S1 S 1.09422(5) 0.70218(3) 0.64195(4)
O1 O 1.13522(17) 0.75152(9) 0.73748(11)
O2 O 0.96028(18) 0.66227(10) 0.65700(12)
O3 O 1.22269(18) 0.65795(9) 0.62155(12)
N1 N 1.0704(2) 0.77018(11) 0.56033(13)
H1 H 1.149(3) 0.7907(18) 0.549(2)
C1 C 1.0422(2) 0.81672(12) 0.75907(15)
C2 C 1.0456(3) 0.83997(15) 0.85585(16)
H2 H 1.1058 0.8127 0.9017
C3 C 0.9601(3) 0.90345(15) 0.88490(17)
H3 H 0.9615 0.9205 0.9510
C4 C 0.8721(3) 0.94223(14) 0.81708(17)
H4 H 0.8128 0.9857 0.8369
C5 C 0.8704(2) 0.91776(13) 0.72024(16)
H5 H 0.8087 0.9444 0.6748
C6 C 0.9576(2) 0.85466(12) 0.68836(15)
C7 C 0.9512(2) 0.82640(13) 0.58219(14)
H6 H 0.8575 0.7969 0.5727
C8 C 0.9537(2) 0.89381(13) 0.50926(15)
H7 H 0.8892 0.9372 0.5201
C9 C 1.0375(3) 0.89814(13) 0.43160(15)
H8 H 1.1031 0.8553 0.4201
C10 C 1.0356(3) 0.96615(14) 0.36069(16)
H9 H 0.9629 1.0056 0.3807
H10 H 1.0110 0.9460 0.2955
H11 H 1.1317 0.9914 0.3595
S2 S 0.46798(5) 0.83171(3) 0.59016(4)
O4 O 0.37021(17) 0.87768(9) 0.66748(11)
O5 O 0.37242(17) 0.81973(10) 0.50907(11)
O6 O 0.60013(17) 0.87477(10) 0.57895(12)
N2 N 0.5037(2) 0.74759(12) 0.64068(13)
H12 H 0.421(3) 0.7149(19) 0.642(2)
C11 C 0.4196(2) 0.87597(13) 0.76559(15)
C12 C 0.3618(3) 0.93479(14) 0.82452(17)
H13 H 0.2966 0.9734 0.7982
C13 C 0.3999(3) 0.93685(15) 0.92186(18)
H14 H 0.3606 0.9769 0.9631
C14 C 0.4959(3) 0.88027(16) 0.95981(18)
H15 H 0.5226 0.8817 1.0269
C15 C 0.5525(3) 0.82179(14) 0.89940(16)
H16 H 0.6182 0.7834 0.9258
C16 C 0.5148(2) 0.81804(12) 0.80033(15)
C17 C 0.5802(2) 0.75301(13) 0.73705(15)
H17 H 0.6844 0.7665 0.7253
C18 C 0.5736(3) 0.67224(13) 0.78479(16)
H18 H 0.4813 0.6515 0.8021
C19 C 0.6897(3) 0.62882(14) 0.80372(16)
H19 H 0.7812 0.6502 0.7853
C20 C 0.6895(3) 0.54862(15) 0.85183(19)
H20 H 0.5897 0.5342 0.8691
H21 H 0.7500 0.5505 0.9110
H22 H 0.7285 0.5086 0.8069
S3 S 0.22657(5) 0.19164(3) 0.90762(4)
O7 O 0.13375(17) 0.14453(10) 0.82768(11)
O8 O 0.12801(17) 0.20178(12) 0.98628(11)
O9 O 0.36006(17) 0.15026(11) 0.92262(11)
N3 N 0.2596(2) 0.27674(12) 0.85874(14)
H23 H 0.179(4) 0.300(2) 0.853(3)
C21 C 0.1862(2) 0.14705(14) 0.73082(16)
C22 C 0.1371(3) 0.08581(15) 0.67185(18)
H24 H 0.0753 0.0454 0.6969
C23 C 0.1797(3) 0.08443(16) 0.57527(18)
H25 H 0.1459 0.0431 0.5333
C24 C 0.2710(3) 0.14289(16) 0.53956(17)
H26 H 0.3003 0.1416 0.4733
C25 C 0.3201(3) 0.20355(15) 0.60068(16)
H27 H 0.3834 0.2434 0.5758
C26 C 0.2778(2) 0.20709(13) 0.69839(15)
C27 C 0.3371(2) 0.27363(13) 0.76362(15)
H28 H 0.4423 0.2627 0.7770
C28 C 0.3244(3) 0.35423(13) 0.71565(16)
H29 H 0.2297 0.3746 0.7031
C29 C 0.4360(3) 0.39833(14) 0.69000(16)
H30 H 0.5303 0.3784 0.7049
C30 C 0.4261(3) 0.47740(14) 0.63926(18)
H31 H 0.3237 0.4912 0.6283
H32 H 0.4758 0.4742 0.5765
H33 H 0.4725 0.5186 0.6798
S4 S 0.84111(6) 0.30801(3) 0.85425(4)
O10 O 0.87958(17) 0.25811(10) 0.75909(11)
O11 O 0.96946(18) 0.35323(10) 0.87381(12)
O12 O 0.70554(18) 0.34712(10) 0.83898(12)
N4 N 0.8214(2) 0.24049(11) 0.93638(13)
H34 H 0.904(4) 0.220(2) 0.952(2)
C31 C 0.7838(2) 0.19346(13) 0.73811(15)
C32 C 0.7828(3) 0.16954(14) 0.64139(16)
H35 H 0.8445 0.1947 0.5954
C33 C 0.6901(3) 0.10825(14) 0.61293(17)
H36 H 0.6881 0.0909 0.5470
C34 C 0.6008(3) 0.07242(14) 0.68061(17)
H37 H 0.5358 0.0312 0.6609
C35 C 0.6059(2) 0.09661(13) 0.77724(16)
H38 H 0.5443 0.0712 0.8230
C36 C 0.6995(2) 0.15749(12) 0.80915(14)
C37 C 0.7010(2) 0.18413(12) 0.91568(14)
H39 H 0.6079 0.2133 0.9275
C38 C 0.7071(3) 0.11484(14) 0.98604(16)
H40 H 0.6370 0.0738 0.9765
C39 C 0.7990(3) 0.10505(15) 1.05910(17)
H41 H 0.8708 0.1451 1.0697
C40 C 0.7976(3) 0.03439(17) 1.12695(19)
H42 H 0.7138 0.0004 1.1115
H43 H 0.7908 0.0532 1.1944
H44 H 0.8874 0.0036 1.1191
loop_
_geom_bond_atom_site_label_1
_geom_bond_atom_site_label_2
_geom_bond_site_symmetry_1
_geom_bond_site_symmetry_2
S1 O1 1_555 1_555
O1 C1 1_555 1_555
O2 S1 1_555 1_555
O3 S1 1_555 1_555
N1 S1 1_555 1_555
H1 N1 1_555 1_555
C1 C2 1_555 1_555
C2 H2 1_555 1_555
C3 C2 1_555 1_555
H3 C3 1_555 1_555
C4 C3 1_555 1_555
H4 C4 1_555 1_555
C5 C4 1_555 1_555
H5 C5 1_555 1_555
C6 C1 1_555 1_555
C7 N1 1_555 1_555
H6 C7 1_555 1_555
C8 C7 1_555 1_555
H7 C8 1_555 1_555
C9 C8 1_555 1_555
H8 C9 1_555 1_555
C10 C9 1_555 1_555
H9 C10 1_555 1_555
H10 C10 1_555 1_555
H11 C10 1_555 1_555
S2 O4 1_555 1_555
O4 C11 1_555 1_555
O5 S2 1_555 1_555
O6 S2 1_555 1_555
N2 S2 1_555 1_555
H12 N2 1_555 1_555
C11 C12 1_555 1_555
C12 H13 1_555 1_555
C13 C12 1_555 1_555
H14 C13 1_555 1_555
C14 C13 1_555 1_555
H15 C14 1_555 1_555
C15 C14 1_555 1_555
H16 C15 1_555 1_555
C16 C11 1_555 1_555
C17 N2 1_555 1_555
H17 C17 1_555 1_555
C18 C17 1_555 1_555
H18 C18 1_555 1_555
C19 C18 1_555 1_555
H19 C19 1_555 1_555
C20 C19 1_555 1_555
H20 C20 1_555 1_555
H21 C20 1_555 1_555
H22 C20 1_555 1_555
S3 O7 1_555 1_555
O7 C21 1_555 1_555
O8 S3 1_555 1_555
O9 S3 1_555 1_555
N3 S3 1_555 1_555
H23 N3 1_555 1_555
C21 C22 1_555 1_555
C22 H24 1_555 1_555
C23 C22 1_555 1_555
H25 C23 1_555 1_555
C24 C23 1_555 1_555
H26 C24 1_555 1_555
C25 C24 1_555 1_555
H27 C25 1_555 1_555
C26 C21 1_555 1_555
C27 N3 1_555 1_555
H28 C27 1_555 1_555
C28 C27 1_555 1_555
H29 C28 1_555 1_555
C29 C28 1_555 1_555
H30 C29 1_555 1_555
C30 C29 1_555 1_555
H31 C30 1_555 1_555
H32 C30 1_555 1_555
H33 C30 1_555 1_555
S4 O10 1_555 1_555
O10 C31 1_555 1_555
O11 S4 1_555 1_555
O12 S4 1_555 1_555
N4 S4 1_555 1_555
H34 N4 1_555 1_555
C31 C32 1_555 1_555
C32 H35 1_555 1_555
C33 C32 1_555 1_555
H36 C33 1_555 1_555
C34 C33 1_555 1_555
H37 C34 1_555 1_555
C35 C34 1_555 1_555
H38 C35 1_555 1_555
C36 C31 1_555 1_555
C37 N4 1_555 1_555
H39 C37 1_555 1_555
C38 C37 1_555 1_555
H40 C38 1_555 1_555
C39 C38 1_555 1_555
H41 C39 1_555 1_555
C40 C39 1_555 1_555
H42 C40 1_555 1_555
H43 C40 1_555 1_555
H44 C40 1_555 1_555
C5 C6 1_555 1_555
C6 C7 1_555 1_555
C15 C16 1_555 1_555
C16 C17 1_555 1_555
C25 C26 1_555 1_555
C26 C27 1_555 1_555
C35 C36 1_555 1_555
C36 C37 1_555 1_555

#END
