
#######################################################################
#
#                 Cambridge Crystallographic Data Centre
#                                CCDC 
#
#######################################################################
#
# If this CIF has been generated from an entry in the Cambridge 
# Structural Database, then it will include bibliographic, chemical, 
# crystal, experimental, refinement or atomic coordinate data resulting 
# from the CCDC's data processing and validation procedures.
#
#######################################################################

data_OQEVAI
_chemical_formula_moiety         'C19 H14 O4'
_chemical_name_systematic        
1-(3-Benzoyl-4-hydroxy-5-phenyl-2-furyl)ethanone
_symmetry_cell_setting           monoclinic
_symmetry_space_group_name_H-M   'P 21/n'
_symmetry_Int_Tables_number      14
_space_group_name_Hall           '-P 2yn'
loop_
_symmetry_equiv_pos_site_id
_symmetry_equiv_pos_as_xyz
1 x,y,z
2 1/2-x,1/2+y,1/2-z
3 -x,-y,-z
4 1/2+x,1/2-y,1/2+z
_cell_length_a                   8.3038(3)
_cell_length_b                   10.7343(4)
_cell_length_c                   17.4027(7)
_cell_angle_alpha                90
_cell_angle_beta                 95.7280(10)
_cell_angle_gamma                90
_cell_volume                     1543.45
_exptl_crystal_colour            colorless
_exptl_crystal_description       block
_cell_formula_units_Z            4
loop_
_atom_site_label
_atom_site_type_symbol
_atom_site_fract_x
_atom_site_fract_y
_atom_site_fract_z
O1 O 0.30654(11) 0.60168(9) 0.07590(5)
O2 O 0.39266(19) 0.80257(12) 0.23333(7)
O3 O 0.06682(13) 0.97421(10) 0.07709(8)
O4 O 0.06728(12) 0.79079(10) -0.05523(6)
H1 H 0.027(2) 0.863(2) -0.0429(11)
C1 C 0.50170(19) 0.98332(15) 0.10289(9)
H2 H 0.5226 0.9027 0.0870
C2 C 0.6280(2) 1.06496(18) 0.11955(11)
H3 H 0.7336 1.0394 0.1150
C3 C 0.5984(2) 1.18368(17) 0.14285(10)
H4 H 0.6839 1.2390 0.1537
C4 C 0.4422(2) 1.22147(15) 0.15026(9)
H5 H 0.4227 1.3020 0.1667
C5 C 0.3141(2) 1.14041(13) 0.13342(9)
H6 H 0.2088 1.1666 0.1381
C6 C 0.34333(18) 1.01990(13) 0.10954(8)
C7 C 0.20570(17) 0.93535(13) 0.08828(8)
C8 C 0.23200(16) 0.80176(12) 0.07213(8)
C9 C 0.16211(15) 0.74109(12) 0.00449(7)
C10 C 0.21227(16) 0.61969(12) 0.00746(8)
C11 C 0.31734(17) 0.71197(12) 0.11468(8)
C12 C 0.3986(2) 0.71059(15) 0.19309(9)
C13 C 0.4825(2) 0.59315(18) 0.22070(11)
H7 H 0.5305 0.6044 0.2727
H8 H 0.5654 0.5735 0.1879
H9 H 0.4055 0.5263 0.2191
C14 C 0.18400(16) 0.51363(12) -0.04365(8)
C15 C 0.09110(18) 0.52628(14) -0.11453(8)
H10 H 0.0490 0.6037 -0.1298
C16 C 0.0614(2) 0.42445(16) -0.16209(10)
H11 H 0.0003 0.4339 -0.2095
C17 C 0.1211(2) 0.30938(16) -0.14022(10)
H12 H 0.0999 0.2410 -0.1724
C18 C 0.2120(2) 0.29572(15) -0.07070(11)
H13 H 0.2519 0.2175 -0.0557
C19 C 0.24530(19) 0.39694(14) -0.02260(9)
H14 H 0.3090 0.3868 0.0240
loop_
_geom_bond_atom_site_label_1
_geom_bond_atom_site_label_2
_geom_bond_site_symmetry_1
_geom_bond_site_symmetry_2
O1 C10 1_555 1_555
O2 C12 1_555 1_555
O3 C7 1_555 1_555
O4 H1 1_555 1_555
C1 H2 1_555 1_555
C2 C1 1_555 1_555
H3 C2 1_555 1_555
C3 C2 1_555 1_555
H4 C3 1_555 1_555
C4 C3 1_555 1_555
H5 C4 1_555 1_555
C5 C4 1_555 1_555
H6 C5 1_555 1_555
C6 C1 1_555 1_555
C7 C6 1_555 1_555
C8 C7 1_555 1_555
C9 O4 1_555 1_555
C10 C9 1_555 1_555
C11 O1 1_555 1_555
C12 C11 1_555 1_555
C13 C12 1_555 1_555
H7 C13 1_555 1_555
H8 C13 1_555 1_555
H9 C13 1_555 1_555
C14 C10 1_555 1_555
C15 C14 1_555 1_555
H10 C15 1_555 1_555
C16 C15 1_555 1_555
H11 C16 1_555 1_555
C17 C16 1_555 1_555
H12 C17 1_555 1_555
C18 C17 1_555 1_555
H13 C18 1_555 1_555
C19 C14 1_555 1_555
H14 C19 1_555 1_555
C5 C6 1_555 1_555
C8 C9 1_555 1_555
C8 C11 1_555 1_555
C18 C19 1_555 1_555

#END
