
#######################################################################
#
#                 Cambridge Crystallographic Data Centre
#                                CCDC 
#
#######################################################################
#
# If this CIF has been generated from an entry in the Cambridge 
# Structural Database, then it will include bibliographic, chemical, 
# crystal, experimental, refinement or atomic coordinate data resulting 
# from the CCDC's data processing and validation procedures.
#
#######################################################################

data_OQEVEM
_chemical_formula_moiety         'C20 H15 F3 N2 O3 S1'
_chemical_name_systematic        
'Methyl 4-(1,3-benzothiazol-2-yl)-2-((2-methoxyphenyl)amino)-2-(trifluoromethyl)but-3-ynoate'
_symmetry_cell_setting           orthorhombic
_symmetry_space_group_name_H-M   'P 21 21 21'
_symmetry_Int_Tables_number      19
_space_group_name_Hall           'P 2ac 2ab'
loop_
_symmetry_equiv_pos_site_id
_symmetry_equiv_pos_as_xyz
1 x,y,z
2 1/2-x,-y,1/2+z
3 -x,1/2+y,1/2-z
4 1/2+x,1/2-y,-z
_cell_length_a                   5.8900(12)
_cell_length_b                   12.890(3)
_cell_length_c                   26.170(5)
_cell_angle_alpha                90
_cell_angle_beta                 90
_cell_angle_gamma                90
_cell_volume                     1986.88
_exptl_crystal_colour            colorless
_exptl_crystal_description       prismatic
_cell_formula_units_Z            4
loop_
_atom_site_label
_atom_site_type_symbol
_atom_site_fract_x
_atom_site_fract_y
_atom_site_fract_z
S1 S 0.52788(12) -0.14299(5) 0.12631(3)
F1 F 0.0987(3) 0.34258(19) 0.14340(10)
F2 F 0.0884(3) 0.1903(2) 0.17653(10)
F3 F 0.0826(4) 0.2082(3) 0.09634(10)
N1 N 0.8477(4) -0.06290(15) 0.07149(7)
N2 N 0.5125(4) 0.27785(16) 0.18674(7)
O1 O 0.6090(5) 0.40536(16) 0.11187(7)
O2 O 0.4479(7) 0.30603(17) 0.05314(7)
O3 O 0.8114(3) 0.34756(14) 0.24964(6)
C1 C 0.4341(4) 0.24550(18) 0.13735(8)
C2 C 0.5170(4) 0.14354(18) 0.12073(9)
C3 C 0.5935(5) 0.06207(19) 0.10896(8)
C4 C 0.6742(4) -0.03992(17) 0.09881(8)
C5 C 0.7188(4) -0.22619(18) 0.09810(9)
C6 C 0.8770(4) -0.16943(18) 0.07059(8)
C7 C 1.0494(5) -0.2217(2) 0.04517(9)
H1 H 1.1573 -0.1850 0.0265
C8 C 1.0593(5) -0.3269(2) 0.04773(10)
H2 H 1.1748 -0.3621 0.0308
C9 C 0.9003(6) -0.3821(2) 0.07514(11)
H3 H 0.9109 -0.4540 0.0766
C10 C 0.7294(6) -0.3339(2) 0.09995(11)
H4 H 0.6213 -0.3719 0.1179
C11 C 0.1697(5) 0.2450(3) 0.13856(12)
C12 C 0.5106(6) 0.32941(19) 0.09938(9)
C13 C 0.4940(14) 0.3847(3) 0.01462(13)
H5 H 0.4391 0.4507 0.0263
H6 H 0.4187 0.3665 -0.0166
H7 H 0.6547 0.3889 0.0088
C14 C 0.5778(4) 0.21195(17) 0.22652(8)
C15 C 0.4909(6) 0.1141(2) 0.23557(10)
H8 H 0.3804 0.0872 0.2139
C16 C 0.5668(8) 0.0559(2) 0.27649(12)
H9 H 0.5058 -0.0095 0.2824
C17 C 0.7286(8) 0.0933(2) 0.30797(11)
H10 H 0.7807 0.0528 0.3349
C18 C 0.8165(6) 0.1902(2) 0.30054(10)
H11 H 0.9267 0.2160 0.3226
C19 C 0.7405(4) 0.24965(18) 0.26005(8)
C20 C 0.9972(6) 0.3881(3) 0.27795(12)
H12 H 0.9548 0.3947 0.3132
H13 H 1.0377 0.4550 0.2647
H14 H 1.1246 0.3420 0.2751
H15 H 0.597(5) 0.329(2) 0.1877(10)
loop_
_geom_bond_atom_site_label_1
_geom_bond_atom_site_label_2
_geom_bond_site_symmetry_1
_geom_bond_site_symmetry_2
S1 C4 1_555 1_555
F1 C11 1_555 1_555
F2 C11 1_555 1_555
F3 C11 1_555 1_555
N1 C4 1_555 1_555
N2 C1 1_555 1_555
O1 C12 1_555 1_555
O2 C12 1_555 1_555
O3 C19 1_555 1_555
C1 C2 1_555 1_555
C2 C3 1_555 1_555
C3 C4 1_555 1_555
C5 S1 1_555 1_555
C6 N1 1_555 1_555
C7 C6 1_555 1_555
H1 C7 1_555 1_555
C8 C7 1_555 1_555
H2 C8 1_555 1_555
C9 C8 1_555 1_555
H3 C9 1_555 1_555
C10 C5 1_555 1_555
H4 C10 1_555 1_555
C11 C1 1_555 1_555
C12 C1 1_555 1_555
C13 O2 1_555 1_555
H5 C13 1_555 1_555
H6 C13 1_555 1_555
H7 C13 1_555 1_555
C14 N2 1_555 1_555
C15 C14 1_555 1_555
H8 C15 1_555 1_555
C16 C15 1_555 1_555
H9 C16 1_555 1_555
C17 C16 1_555 1_555
H10 C17 1_555 1_555
C18 C17 1_555 1_555
H11 C18 1_555 1_555
C19 C14 1_555 1_555
C20 O3 1_555 1_555
H12 C20 1_555 1_555
H13 C20 1_555 1_555
H14 C20 1_555 1_555
H15 N2 1_555 1_555
C5 C6 1_555 1_555
C9 C10 1_555 1_555
C18 C19 1_555 1_555

#END
