
#######################################################################
#
#                 Cambridge Crystallographic Data Centre
#                                CCDC 
#
#######################################################################
#
# If this CIF has been generated from an entry in the Cambridge 
# Structural Database, then it will include bibliographic, chemical, 
# crystal, experimental, refinement or atomic coordinate data resulting 
# from the CCDC's data processing and validation procedures.
#
#######################################################################

data_OQEVAJ
_chemical_formula_moiety         'C46 H70 Mg1 N4 O1 Si2'
_chemical_name_systematic        
(2-(((2-(diethylamino)ethyl)(2-(dimethylamino)benzyl)amino)methyl)-4,6-bis(2-phenylpropan-2-yl)phenolato)-(bis(trimethylsilyl)amido)-magnesium(ii)
_symmetry_cell_setting           triclinic
_symmetry_space_group_name_H-M   'P -1'
_symmetry_Int_Tables_number      2
_space_group_name_Hall           '-P 1'
loop_
_symmetry_equiv_pos_site_id
_symmetry_equiv_pos_as_xyz
1 x,y,z
2 -x,-y,-z
_cell_length_a                   15.871(6)
_cell_length_b                   17.666(6)
_cell_length_c                   18.121(6)
_cell_angle_alpha                107.261(5)
_cell_angle_beta                 92.293(5)
_cell_angle_gamma                102.557(5)
_cell_volume                     4705.97
_exptl_crystal_colour            colorless
_exptl_crystal_description       block
_cell_formula_units_Z            4
loop_
_atom_site_label
_atom_site_type_symbol
_atom_site_fract_x
_atom_site_fract_y
_atom_site_fract_z
Mg1 Mg 0.23979(7) 0.06718(7) 0.18161(6)
N1 N 0.22980(18) 0.02255(18) 0.06569(15)
N2 N 0.24413(17) 0.19263(16) 0.25736(15)
N3 N 0.36800(15) 0.09150(16) 0.24177(13)
N4 N 0.5537(2) 0.2492(2) 0.2235(2)
O1 O 0.18591(13) -0.00412(12) 0.23589(11)
Si1 Si 0.27605(8) 0.07514(9) 0.00649(6)
Si2 Si 0.17741(9) -0.07790(8) 0.03069(6)
C1 C 0.3111(3) 0.1878(3) 0.0558(2)
H1 H 0.3365 0.2142 0.0199
H2 H 0.2616 0.2082 0.0733
H3 H 0.3531 0.1990 0.0996
C2 C 0.3763(3) 0.0443(4) -0.0302(2)
H4 H 0.3997 0.0755 -0.0630
H5 H 0.4187 0.0543 0.0131
H6 H 0.3619 -0.0128 -0.0593
C3 C 0.2012(3) 0.0663(4) -0.0801(3)
H7 H 0.2315 0.0972 -0.1106
H8 H 0.1819 0.0100 -0.1112
H9 H 0.1519 0.0871 -0.0628
C4 C 0.2214(3) -0.1406(3) 0.0818(2)
H10 H 0.1902 -0.1967 0.0603
H11 H 0.2819 -0.1361 0.0752
H12 H 0.2150 -0.1214 0.1362
C5 C 0.0593(3) -0.0918(3) 0.0435(3)
H13 H 0.0308 -0.1488 0.0235
H14 H 0.0528 -0.0716 0.0978
H15 H 0.0339 -0.0621 0.0159
C6 C 0.1825(5) -0.1311(3) -0.0749(3)
H16 H 0.1509 -0.1871 -0.0882
H17 H 0.1571 -0.1047 -0.1061
H18 H 0.2420 -0.1286 -0.0842
C7 C 0.2056(3) 0.2461(2) 0.2232(2)
H19 H 0.2460 0.2674 0.1912
H20 H 0.1968 0.2920 0.2648
C8 C 0.1199(3) 0.2008(3) 0.1742(3)
H21 H 0.0973 0.2373 0.1533
H22 H 0.1285 0.1559 0.1323
H23 H 0.0794 0.1805 0.2058
C9 C 0.1987(2) 0.1821(2) 0.32550(19)
H24 H 0.2184 0.1406 0.3415
H25 H 0.1371 0.1612 0.3081
C10 C 0.2097(3) 0.2569(2) 0.3967(2)
H26 H 0.1775 0.2421 0.4361
H27 H 0.2701 0.2775 0.4162
H28 H 0.1884 0.2982 0.3827
C11 C 0.3388(2) 0.2282(2) 0.2799(2)
H29 H 0.3475 0.2788 0.3224
H30 H 0.3649 0.2410 0.2362
C12 C 0.3834(2) 0.1706(2) 0.30440(18)
H31 H 0.4454 0.1949 0.3161
H32 H 0.3614 0.1618 0.3511
C13 C 0.43147(19) 0.0925(2) 0.18302(17)
H33 H 0.4269 0.1357 0.1613
H34 H 0.4139 0.0413 0.1410
C14 C 0.5257(2) 0.1046(2) 0.21083(18)
C15 C 0.5838(2) 0.1809(3) 0.2313(2)
C16 C 0.6700(3) 0.1872(3) 0.2562(2)
H35 H 0.7095 0.2378 0.2703
C17 C 0.6976(3) 0.1203(4) 0.2601(2)
H36 H 0.7551 0.1263 0.2782
C18 C 0.6422(3) 0.0452(3) 0.2379(2)
H37 H 0.6615 -0.0005 0.2392
C19 C 0.5567(2) 0.0381(3) 0.21342(18)
H38 H 0.5186 -0.0132 0.1981
C20 C 0.5678(3) 0.2600(3) 0.1482(3)
H39 H 0.5471 0.3061 0.1444
H40 H 0.6288 0.2694 0.1426
H41 H 0.5369 0.2118 0.1078
C21 C 0.5872(3) 0.3247(3) 0.2872(3)
H42 H 0.5643 0.3675 0.2779
H43 H 0.5699 0.3169 0.3351
H44 H 0.6494 0.3394 0.2905
C22 C 0.3685(2) 0.0232(2) 0.27416(18)
H45 H 0.4258 0.0323 0.3008
H46 H 0.3586 -0.0272 0.2312
C23 C 0.30294(19) 0.01229(18) 0.32928(17)
C24 C 0.3317(2) 0.01928(19) 0.40461(18)
H47 H 0.3911 0.0340 0.4200
C25 C 0.2754(2) 0.0053(2) 0.45767(18)
C26 C 0.1881(2) -0.02173(19) 0.42976(18)
H48 H 0.1492 -0.0348 0.4636
C27 C 0.15449(19) -0.03069(18) 0.35519(17)
C28 C 0.21346(19) -0.00806(18) 0.30406(17)
C29 C 0.3019(2) 0.0170(2) 0.54294(18)
C30 C 0.4012(2) 0.0400(3) 0.5620(2)
H49 H 0.4250 -0.0023 0.5301
H50 H 0.4249 0.0904 0.5520
H51 H 0.4156 0.0464 0.6158
C31 C 0.2672(3) -0.0646(2) 0.5578(2)
H52 H 0.2903 -0.1061 0.5236
H53 H 0.2845 -0.0593 0.6108
H54 H 0.2049 -0.0795 0.5482
C32 C 0.2682(2) 0.0856(2) 0.59467(19)
C33 C 0.2709(3) 0.1552(3) 0.5751(2)
H55 H 0.2898 0.1582 0.5279
C34 C 0.2462(3) 0.2209(3) 0.6238(3)
H56 H 0.2492 0.2676 0.6094
C35 C 0.2178(3) 0.2182(3) 0.6923(3)
H57 H 0.2019 0.2630 0.7252
C36 C 0.2125(3) 0.1501(4) 0.7129(2)
H58 H 0.1925 0.1476 0.7598
C37 C 0.2370(2) 0.0837(3) 0.6635(2)
H59 H 0.2320 0.0366 0.6777
C38 C 0.05641(19) -0.06132(19) 0.33060(17)
C39 C 0.0386(2) -0.1272(2) 0.25109(19)
H60 H 0.0634 -0.1715 0.2536
H61 H -0.0230 -0.1471 0.2369
H62 H 0.0641 -0.1045 0.2129
C40 C 0.0097(2) -0.1016(2) 0.3867(2)
H63 H 0.0188 -0.0627 0.4379
H64 H -0.0514 -0.1199 0.3694
H65 H 0.0324 -0.1474 0.3879
C41 C 0.01899(19) 0.0120(2) 0.33222(19)
C42 C 0.0287(2) 0.0748(2) 0.4020(2)
H66 H 0.0621 0.0736 0.4448
C43 C -0.0100(3) 0.1384(3) 0.4091(2)
H67 H -0.0038 0.1789 0.4568
C44 C -0.0577(2) 0.1429(3) 0.3467(3)
H68 H -0.0841 0.1860 0.3517
C45 C -0.0659(2) 0.0830(3) 0.2768(3)
H69 H -0.0972 0.0859 0.2336
C46 C -0.0279(2) 0.0182(2) 0.2700(2)
H70 H -0.0343 -0.0221 0.2221
Mg2 Mg 0.34863(7) 0.60790(7) 0.21936(6)
Si3 Si 0.50188(8) 0.68780(9) 0.12835(8)
Si4 Si 0.52062(9) 0.55858(12) 0.19912(10)
O2 O 0.32876(14) 0.54595(13) 0.29025(12)
N5 N 0.46237(17) 0.61905(19) 0.17444(17)
N6 N 0.26954(18) 0.70016(17) 0.25135(16)
N7 N 0.23339(15) 0.53824(16) 0.13905(14)
N8 N 0.1521(2) 0.5867(2) -0.03175(16)
C47 C 0.4225(3) 0.7224(4) 0.0812(4)
H71 H 0.4516 0.7608 0.0571
H72 H 0.3852 0.6765 0.0424
H73 H 0.3885 0.7481 0.1191
C48 C 0.5667(8) 0.6510(6) 0.0519(6)
H74 H 0.5869 0.6927 0.0284
H75 H 0.6156 0.6376 0.0734
H76 H 0.5320 0.6033 0.0133
C49 C 0.5721(5) 0.7821(4) 0.1905(5)
H77 H 0.5916 0.8175 0.1602
H78 H 0.5406 0.8083 0.2306
H79 H 0.6213 0.7706 0.2137
C50 C 0.4507(4) 0.4513(3) 0.1797(3)
H80 H 0.4847 0.4180 0.1940
H81 H 0.4023 0.4534 0.2098
H82 H 0.4296 0.4283 0.1254
C51 C 0.5595(4) 0.5984(5) 0.3048(4)
H83 H 0.5923 0.5635 0.3177
H84 H 0.5957 0.6526 0.3170
H85 H 0.5106 0.5996 0.3342
C52 C 0.6213(4) 0.5478(6) 0.1504(5)
H86 H 0.6486 0.5124 0.1689
H87 H 0.6062 0.5250 0.0952
H88 H 0.6607 0.6005 0.1623
C53 C 0.3164(3) 0.7867(2) 0.2677(2)
H89 H 0.2753 0.8208 0.2800
H90 H 0.3410 0.7936 0.2213
C54 C 0.3880(3) 0.8150(3) 0.3338(3)
H91 H 0.4160 0.8712 0.3419
H92 H 0.3639 0.8096 0.3803
H93 H 0.4296 0.7823 0.3215
C55 C 0.2272(3) 0.6882(2) 0.3203(2)
H94 H 0.2724 0.7003 0.3625
H95 H 0.1981 0.6309 0.3076
C56 C 0.1621(3) 0.7378(3) 0.3497(3)
H96 H 0.1395 0.7248 0.3940
H97 H 0.1900 0.7949 0.3645
H98 H 0.1154 0.7253 0.3094
C57 C 0.2059(2) 0.6766(2) 0.18213(19)
H99 H 0.2345 0.6929 0.1410
H100 H 0.1604 0.7056 0.1947
C58 C 0.1655(2) 0.5854(2) 0.15311(19)
H101 H 0.1302 0.5702 0.1913
H102 H 0.1279 0.5721 0.1052
C59 C 0.2583(2) 0.5242(2) 0.05830(17)
H103 H 0.3094 0.5021 0.0556
H104 H 0.2754 0.5769 0.0500
C60 C 0.1921(2) 0.4689(2) -0.00840(19)
C61 C 0.1412(2) 0.4998(3) -0.05160(19)
C62 C 0.0837(3) 0.4466(3) -0.1145(2)
H105 H 0.0505 0.4672 -0.1438
C63 C 0.0753(3) 0.3640(4) -0.1338(3)
H106 H 0.0354 0.3289 -0.1752
C64 C 0.1251(3) 0.3328(3) -0.0925(3)
H107 H 0.1197 0.2768 -0.1061
C65 C 0.1831(3) 0.3852(3) -0.0309(2)
H108 H 0.2174 0.3638 -0.0034
C66 C 0.0722(3) 0.6129(3) -0.0403(3)
H109 H 0.0852 0.6714 -0.0260
H110 H 0.0466 0.5898 -0.0935
H111 H 0.0323 0.5947 -0.0072
C67 C 0.2187(3) 0.6233(3) -0.0732(2)
H112 H 0.2240 0.6811 -0.0585
H113 H 0.2734 0.6129 -0.0601
H114 H 0.2022 0.5997 -0.1283
C68 C 0.2060(2) 0.4597(2) 0.15583(17)
H115 H 0.2514 0.4305 0.1441
H116 H 0.1544 0.4271 0.1209
C69 C 0.1868(2) 0.46649(19) 0.23787(17)
C70 C 0.1046(2) 0.43239(19) 0.25083(18)
H117 H 0.0613 0.4106 0.2090
C71 C 0.0835(2) 0.42899(19) 0.32321(19)
C72 C 0.1523(2) 0.4564(2) 0.38173(19)
H118 H 0.1413 0.4505 0.4300
C73 C 0.2364(2) 0.49203(19) 0.37287(18)
C74 C 0.2540(2) 0.50269(19) 0.29990(18)
C75 C -0.0106(2) 0.3988(2) 0.3350(2)
C76 C -0.0193(3) 0.3839(2) 0.4141(2)
H119 H -0.0796 0.3650 0.4192
H120 H 0.0113 0.3435 0.4174
H121 H 0.0050 0.4339 0.4552
C77 C -0.0513(2) 0.3173(2) 0.2714(2)
H122 H -0.1108 0.2984 0.2790
H123 H -0.0489 0.3251 0.2212
H124 H -0.0197 0.2775 0.2742
C78 C -0.0611(3) 0.4630(3) 0.3324(2)
C79 C -0.0218(3) 0.5439(3) 0.3620(3)
H125 H 0.0363 0.5599 0.3823
C80 C -0.0677(5) 0.6036(4) 0.3623(4)
H126 H -0.0400 0.6587 0.3827
C81 C -0.1518(5) 0.5805(5) 0.3327(4)
H127 H -0.1826 0.6197 0.3325
C82 C -0.1909(4) 0.5013(5) 0.3038(4)
H128 H -0.2490 0.4854 0.2834
C83 C -0.1462(3) 0.4431(4) 0.3038(3)
H129 H -0.1750 0.3883 0.2835
C84 C 0.3106(2) 0.5173(2) 0.43886(19)
C85 C 0.3826(3) 0.4743(2) 0.4092(2)
H130 H 0.3589 0.4164 0.3902
H131 H 0.4062 0.4927 0.3678
H132 H 0.4278 0.4870 0.4509
C86 C 0.2815(3) 0.4903(2) 0.5095(2)
H133 H 0.2601 0.4321 0.4933
H134 H 0.3301 0.5063 0.5487
H135 H 0.2363 0.5159 0.5303
C87 C 0.3432(3) 0.6097(2) 0.4699(2)
C88 C 0.4280(3) 0.6502(3) 0.4768(2)
H136 H 0.4688 0.6208 0.4579
C89 C 0.4554(4) 0.7349(3) 0.5114(3)
H137 H 0.5136 0.7612 0.5149
C90 C 0.3964(5) 0.7786(3) 0.5400(3)
H138 H 0.4142 0.8348 0.5634
C91 C 0.3120(4) 0.7396(3) 0.5342(2)
H139 H 0.2716 0.7691 0.5543
C92 C 0.2853(3) 0.6560(2) 0.4985(2)
H140 H 0.2267 0.6304 0.4937
loop_
_geom_bond_atom_site_label_1
_geom_bond_atom_site_label_2
_geom_bond_site_symmetry_1
_geom_bond_site_symmetry_2
Mg1 N1 1_555 1_555
N1 Si1 1_555 1_555
N2 Mg1 1_555 1_555
N3 Mg1 1_555 1_555
N4 C15 1_555 1_555
O1 Mg1 1_555 1_555
Si1 C1 1_555 1_555
Si2 N1 1_555 1_555
C1 H1 1_555 1_555
H2 C1 1_555 1_555
H3 C1 1_555 1_555
C2 Si1 1_555 1_555
H4 C2 1_555 1_555
H5 C2 1_555 1_555
H6 C2 1_555 1_555
C3 Si1 1_555 1_555
H7 C3 1_555 1_555
H8 C3 1_555 1_555
H9 C3 1_555 1_555
C4 Si2 1_555 1_555
H10 C4 1_555 1_555
H11 C4 1_555 1_555
H12 C4 1_555 1_555
C5 Si2 1_555 1_555
H13 C5 1_555 1_555
H14 C5 1_555 1_555
H15 C5 1_555 1_555
C6 Si2 1_555 1_555
H16 C6 1_555 1_555
H17 C6 1_555 1_555
H18 C6 1_555 1_555
C7 N2 1_555 1_555
H19 C7 1_555 1_555
H20 C7 1_555 1_555
C8 C7 1_555 1_555
H21 C8 1_555 1_555
H22 C8 1_555 1_555
H23 C8 1_555 1_555
C9 N2 1_555 1_555
H24 C9 1_555 1_555
H25 C9 1_555 1_555
C10 C9 1_555 1_555
H26 C10 1_555 1_555
H27 C10 1_555 1_555
H28 C10 1_555 1_555
C11 N2 1_555 1_555
H29 C11 1_555 1_555
H30 C11 1_555 1_555
C12 N3 1_555 1_555
H31 C12 1_555 1_555
H32 C12 1_555 1_555
C13 N3 1_555 1_555
H33 C13 1_555 1_555
H34 C13 1_555 1_555
C14 C13 1_555 1_555
C15 C14 1_555 1_555
C16 C15 1_555 1_555
H35 C16 1_555 1_555
C17 C16 1_555 1_555
H36 C17 1_555 1_555
C18 C17 1_555 1_555
H37 C18 1_555 1_555
C19 C14 1_555 1_555
H38 C19 1_555 1_555
C20 N4 1_555 1_555
H39 C20 1_555 1_555
H40 C20 1_555 1_555
H41 C20 1_555 1_555
C21 N4 1_555 1_555
H42 C21 1_555 1_555
H43 C21 1_555 1_555
H44 C21 1_555 1_555
C22 N3 1_555 1_555
H45 C22 1_555 1_555
H46 C22 1_555 1_555
C23 C22 1_555 1_555
C24 C23 1_555 1_555
H47 C24 1_555 1_555
C25 C24 1_555 1_555
C26 C25 1_555 1_555
H48 C26 1_555 1_555
C27 C26 1_555 1_555
C28 O1 1_555 1_555
C29 C25 1_555 1_555
C30 C29 1_555 1_555
H49 C30 1_555 1_555
H50 C30 1_555 1_555
H51 C30 1_555 1_555
C31 C29 1_555 1_555
H52 C31 1_555 1_555
H53 C31 1_555 1_555
H54 C31 1_555 1_555
C32 C29 1_555 1_555
C33 C32 1_555 1_555
H55 C33 1_555 1_555
C34 C33 1_555 1_555
H56 C34 1_555 1_555
C35 C34 1_555 1_555
H57 C35 1_555 1_555
C36 C35 1_555 1_555
H58 C36 1_555 1_555
C37 C32 1_555 1_555
H59 C37 1_555 1_555
C38 C27 1_555 1_555
C39 C38 1_555 1_555
H60 C39 1_555 1_555
H61 C39 1_555 1_555
H62 C39 1_555 1_555
C40 C38 1_555 1_555
H63 C40 1_555 1_555
H64 C40 1_555 1_555
H65 C40 1_555 1_555
C41 C38 1_555 1_555
C42 C41 1_555 1_555
H66 C42 1_555 1_555
C43 C42 1_555 1_555
H67 C43 1_555 1_555
C44 C43 1_555 1_555
H68 C44 1_555 1_555
C45 C44 1_555 1_555
H69 C45 1_555 1_555
C46 C41 1_555 1_555
H70 C46 1_555 1_555
Mg2 O2 1_555 1_555
Si3 N5 1_555 1_555
Si4 N5 1_555 1_555
O2 C74 1_555 1_555
N5 Mg2 1_555 1_555
N6 Mg2 1_555 1_555
N7 Mg2 1_555 1_555
N8 C61 1_555 1_555
C47 Si3 1_555 1_555
H71 C47 1_555 1_555
H72 C47 1_555 1_555
H73 C47 1_555 1_555
C48 Si3 1_555 1_555
H74 C48 1_555 1_555
H75 C48 1_555 1_555
H76 C48 1_555 1_555
C49 Si3 1_555 1_555
H77 C49 1_555 1_555
H78 C49 1_555 1_555
H79 C49 1_555 1_555
C50 Si4 1_555 1_555
H80 C50 1_555 1_555
H81 C50 1_555 1_555
H82 C50 1_555 1_555
C51 Si4 1_555 1_555
H83 C51 1_555 1_555
H84 C51 1_555 1_555
H85 C51 1_555 1_555
C52 Si4 1_555 1_555
H86 C52 1_555 1_555
H87 C52 1_555 1_555
H88 C52 1_555 1_555
C53 N6 1_555 1_555
H89 C53 1_555 1_555
H90 C53 1_555 1_555
C54 C53 1_555 1_555
H91 C54 1_555 1_555
H92 C54 1_555 1_555
H93 C54 1_555 1_555
C55 N6 1_555 1_555
H94 C55 1_555 1_555
H95 C55 1_555 1_555
C56 C55 1_555 1_555
H96 C56 1_555 1_555
H97 C56 1_555 1_555
H98 C56 1_555 1_555
C57 N6 1_555 1_555
H99 C57 1_555 1_555
H100 C57 1_555 1_555
C58 N7 1_555 1_555
H101 C58 1_555 1_555
H102 C58 1_555 1_555
C59 N7 1_555 1_555
H103 C59 1_555 1_555
H104 C59 1_555 1_555
C60 C59 1_555 1_555
C61 C60 1_555 1_555
C62 C61 1_555 1_555
H105 C62 1_555 1_555
C63 C62 1_555 1_555
H106 C63 1_555 1_555
C64 C63 1_555 1_555
H107 C64 1_555 1_555
C65 C60 1_555 1_555
H108 C65 1_555 1_555
C66 N8 1_555 1_555
H109 C66 1_555 1_555
H110 C66 1_555 1_555
H111 C66 1_555 1_555
C67 N8 1_555 1_555
H112 C67 1_555 1_555
H113 C67 1_555 1_555
H114 C67 1_555 1_555
C68 N7 1_555 1_555
H115 C68 1_555 1_555
H116 C68 1_555 1_555
C69 C68 1_555 1_555
C70 C69 1_555 1_555
H117 C70 1_555 1_555
C71 C70 1_555 1_555
C72 C71 1_555 1_555
H118 C72 1_555 1_555
C73 C72 1_555 1_555
C74 C69 1_555 1_555
C75 C71 1_555 1_555
C76 C75 1_555 1_555
H119 C76 1_555 1_555
H120 C76 1_555 1_555
H121 C76 1_555 1_555
C77 C75 1_555 1_555
H122 C77 1_555 1_555
H123 C77 1_555 1_555
H124 C77 1_555 1_555
C78 C75 1_555 1_555
C79 C78 1_555 1_555
H125 C79 1_555 1_555
C80 C79 1_555 1_555
H126 C80 1_555 1_555
C81 C80 1_555 1_555
H127 C81 1_555 1_555
C82 C81 1_555 1_555
H128 C82 1_555 1_555
C83 C78 1_555 1_555
H129 C83 1_555 1_555
C84 C73 1_555 1_555
C85 C84 1_555 1_555
H130 C85 1_555 1_555
H131 C85 1_555 1_555
H132 C85 1_555 1_555
C86 C84 1_555 1_555
H133 C86 1_555 1_555
H134 C86 1_555 1_555
H135 C86 1_555 1_555
C87 C84 1_555 1_555
C88 C87 1_555 1_555
H136 C88 1_555 1_555
C89 C88 1_555 1_555
H137 C89 1_555 1_555
C90 C89 1_555 1_555
H138 C90 1_555 1_555
C91 C90 1_555 1_555
H139 C91 1_555 1_555
C92 C87 1_555 1_555
H140 C92 1_555 1_555
C11 C12 1_555 1_555
C18 C19 1_555 1_555
C23 C28 1_555 1_555
C27 C28 1_555 1_555
C36 C37 1_555 1_555
C45 C46 1_555 1_555
C57 C58 1_555 1_555
C64 C65 1_555 1_555
C73 C74 1_555 1_555
C82 C83 1_555 1_555
C91 C92 1_555 1_555

#END
