
#######################################################################
#
#                 Cambridge Crystallographic Data Centre
#                                CCDC 
#
#######################################################################
#
# If this CIF has been generated from an entry in the Cambridge 
# Structural Database, then it will include bibliographic, chemical, 
# crystal, experimental, refinement or atomic coordinate data resulting 
# from the CCDC's data processing and validation procedures.
#
#######################################################################

data_OQEXOZ
_chemical_name_common            'Di-2-thienyl ketone thiosemicarbazone'
_chemical_formula_moiety         'C10 H9 N3 S3'
_chemical_name_systematic        
2-(di-2-thienylmethylene)hydrazinecarbothioamide
_symmetry_cell_setting           monoclinic
_symmetry_space_group_name_H-M   'C 2/c'
_symmetry_Int_Tables_number      15
_space_group_name_Hall           '-C 2yn'
loop_
_symmetry_equiv_pos_site_id
_symmetry_equiv_pos_as_xyz
1 x,y,z
2 -x,y,1/2-z
3 1/2+x,1/2+y,z
4 1/2-x,1/2+y,1/2-z
5 -x,-y,-z
6 x,-y,1/2+z
7 1/2-x,1/2-y,-z
8 1/2+x,1/2-y,1/2+z
_cell_length_a                   19.2729(19)
_cell_length_b                   14.0257(14)
_cell_length_c                   10.1309(10)
_cell_angle_alpha                90
_cell_angle_beta                 121.043(2)
_cell_angle_gamma                90
_cell_volume                     2346.33
_exptl_crystal_colour            yellow
_exptl_crystal_description       parallelepiped
_cell_formula_units_Z            8
loop_
_atom_site_label
_atom_site_type_symbol
_atom_site_fract_x
_atom_site_fract_y
_atom_site_fract_z
S1 S 0.09270(5) 1.11521(5) -0.02039(8)
S2 S 0.43459(5) 0.90323(8) 0.35528(10)
S3 S 0.33789(6) 0.84417(6) -0.16285(9)
N1 N 0.23758(14) 0.92843(17) -0.0409(3)
N2 N 0.20200(14) 0.99033(16) 0.0117(3)
H1 H 0.2251 1.0015 0.1110
N3 N 0.09640(15) 1.01102(18) -0.2366(3)
H2 H 0.1190 0.9683 -0.2663
H3 H 0.0506 1.0383 -0.3049
C1 C 0.4227(2) 0.8993(3) 0.5092(4)
H4 H 0.4659 0.9063 0.6128
C2 C 0.3451(3) 0.8852(3) 0.4682(4)
H5 H 0.3278 0.8803 0.5403
C3 C 0.2917(2) 0.8784(2) 0.3066(4)
H6 H 0.2348 0.8696 0.2581
C4 C 0.33261(17) 0.88625(19) 0.2288(3)
C5 C 0.30086(17) 0.88185(19) 0.0627(3)
C6 C 0.3989(2) 0.7493(2) -0.1384(4)
H7 H 0.4149 0.7316 -0.2095
C7 C 0.42183(19) 0.7024(2) -0.0052(4)
H8 H 0.4553 0.6473 0.0272
C8 C 0.39074(17) 0.7440(2) 0.0800(3)
H9 H 0.4016 0.7205 0.1768
C9 C 0.34310(16) 0.8221(2) 0.0088(3)
C10 C 0.13141(16) 1.03439(18) -0.0890(3)
loop_
_geom_bond_atom_site_label_1
_geom_bond_atom_site_label_2
_geom_bond_site_symmetry_1
_geom_bond_site_symmetry_2
S1 C10 1_555 1_555
S2 C1 1_555 1_555
S3 C6 1_555 1_555
N1 N2 1_555 1_555
N2 H1 1_555 1_555
N3 H2 1_555 1_555
H3 N3 1_555 1_555
C1 H4 1_555 1_555
C2 C1 1_555 1_555
H5 C2 1_555 1_555
C3 C2 1_555 1_555
H6 C3 1_555 1_555
C4 S2 1_555 1_555
C5 N1 1_555 1_555
C6 H7 1_555 1_555
C7 C6 1_555 1_555
H8 C7 1_555 1_555
C8 C7 1_555 1_555
H9 C8 1_555 1_555
C9 S3 1_555 1_555
C10 N2 1_555 1_555
N3 C10 1_555 1_555
C3 C4 1_555 1_555
C4 C5 1_555 1_555
C5 C9 1_555 1_555
C8 C9 1_555 1_555

#END
