
#######################################################################
#
#                 Cambridge Crystallographic Data Centre
#                                CCDC 
#
#######################################################################
#
# If this CIF has been generated from an entry in the Cambridge 
# Structural Database, then it will include bibliographic, chemical, 
# crystal, experimental, refinement or atomic coordinate data resulting 
# from the CCDC's data processing and validation procedures.
#
#######################################################################

data_OQICOI
_chemical_formula_moiety         'C30 H52 Cl2 Mg1 N4 O1 Si2'
_chemical_name_systematic        
(2,4-dichloro-6-(((2-(di-isopropylamino)ethyl)(2-(dimethylamino)benzyl)amino)methyl)phenolato)-(1,1,1-trimethyl-N-(trimethylsilyl)silanaminato)-magnesium
_symmetry_cell_setting           monoclinic
_symmetry_space_group_name_H-M   'P 21/n'
_symmetry_Int_Tables_number      14
_space_group_name_Hall           '-P 2yn'
loop_
_symmetry_equiv_pos_site_id
_symmetry_equiv_pos_as_xyz
1 x,y,z
2 1/2-x,1/2+y,1/2-z
3 -x,-y,-z
4 1/2+x,1/2-y,1/2+z
_cell_length_a                   10.385(5)
_cell_length_b                   35.370(13)
_cell_length_c                   10.735(5)
_cell_angle_alpha                90
_cell_angle_beta                 106.149(9)
_cell_angle_gamma                90
_cell_volume                     3787.56
_exptl_crystal_colour            colorless
_exptl_crystal_description       prismatic
_cell_formula_units_Z            4
loop_
_atom_site_label
_atom_site_type_symbol
_atom_site_fract_x
_atom_site_fract_y
_atom_site_fract_z
Mg1 Mg 0.46225(10) 0.09012(3) 0.18812(10)
Cl1 Cl 0.77017(10) -0.00859(3) 0.32100(11)
Cl2 Cl 0.95280(9) 0.05028(4) 0.80285(10)
Si1 Si 0.58837(12) 0.12236(4) -0.01586(11)
Si2 Si 0.30306(12) 0.14502(4) -0.05287(10)
N1 N 0.4614(2) 0.11656(8) 0.3686(3)
N2 N 0.3222(3) 0.04542(8) 0.1987(3)
N3 N 0.4441(3) 0.12124(9) 0.0302(3)
N4 N 0.3111(4) 0.21378(11) 0.3885(4)
O1 O 0.6261(2) 0.06373(7) 0.2619(2)
C1 C 0.6925(3) 0.06018(10) 0.3842(3)
C2 C 0.7724(3) 0.02818(10) 0.4307(4)
C3 C 0.8523(3) 0.02467(12) 0.5569(4)
H1 H 0.9053 0.0033 0.5831
C4 C 0.8516(3) 0.05363(12) 0.6427(4)
C5 C 0.7696(3) 0.08437(11) 0.6050(3)
H2 H 0.7672 0.1030 0.6655
C6 C 0.6904(3) 0.08824(10) 0.4789(3)
C7 C 0.6055(3) 0.12337(10) 0.4401(4)
H3 H 0.6088 0.1378 0.5178
H4 H 0.6453 0.1388 0.3860
C8 C 0.3979(3) 0.09089(11) 0.4437(3)
H5 H 0.3980 0.1031 0.5246
H6 H 0.4513 0.0680 0.4647
C9 C 0.2553(3) 0.08021(10) 0.3717(3)
C10 C 0.1544(3) 0.09215(11) 0.4250(4)
H7 H 0.1775 0.1053 0.5031
C11 C 0.0210(4) 0.08499(13) 0.3646(5)
H8 H -0.0445 0.0930 0.4025
C12 C -0.0146(4) 0.06618(13) 0.2498(5)
H9 H -0.1047 0.0622 0.2076
C13 C 0.0832(3) 0.05298(11) 0.1955(4)
H10 H 0.0584 0.0395 0.1181
C14 C 0.2178(3) 0.05964(11) 0.2555(3)
C15 C 0.3897(4) 0.01180(11) 0.2743(4)
H11 H 0.4203 0.0182 0.3647
H12 H 0.4648 0.0044 0.2441
H13 H 0.3272 -0.0088 0.2626
C16 C 0.2712(4) 0.03326(13) 0.0604(4)
H14 H 0.2188 0.0107 0.0555
H15 H 0.3456 0.0284 0.0260
H16 H 0.2164 0.0529 0.0109
C17 C 0.3889(3) 0.15307(10) 0.3359(3)
H17 H 0.2983 0.1474 0.2844
H18 H 0.4316 0.1672 0.2809
C18 C 0.3791(5) 0.17922(13) 0.4467(4)
H19 H 0.3286 0.1670 0.4992
H20 H 0.4679 0.1851 0.5018
C19 C 0.2338(15) 0.2350(4) 0.5748(11)
H21 H 0.2338 0.2123 0.6237
H22 H 0.1701 0.2526 0.5915
H23 H 0.3216 0.2461 0.5999
C20 C 0.0892(14) 0.1970(4) 0.3858(16)
H24 H 0.0483 0.1990 0.2941
H25 H 0.0227 0.2012 0.4311
H26 H 0.1272 0.1723 0.4060
C21 C 0.1943(8) 0.2253(3) 0.4255(8)
C22 C 0.7283(5) 0.14419(15) 0.1134(5)
H27 H 0.7020 0.1689 0.1340
H28 H 0.8066 0.1462 0.0829
H29 H 0.7481 0.1286 0.1897
C23 C 0.6383(5) 0.07354(15) -0.0482(5)
H30 H 0.6519 0.0585 0.0289
H31 H 0.7199 0.0745 -0.0735
H32 H 0.5687 0.0624 -0.1167
C24 C 0.5815(6) 0.14964(18) -0.1688(5)
H33 H 0.5148 0.1387 -0.2403
H34 H 0.6674 0.1486 -0.1859
H35 H 0.5587 0.1755 -0.1581
C25 C 0.3301(6) 0.19706(14) -0.0553(6)
H36 H 0.3663 0.2060 0.0318
H37 H 0.2461 0.2094 -0.0940
H38 H 0.3917 0.2025 -0.1050
C26 C 0.1570(4) 0.13816(15) 0.0170(4)
H39 H 0.1601 0.1131 0.0524
H40 H 0.0746 0.1414 -0.0502
H41 H 0.1618 0.1564 0.0843
C27 C 0.2369(5) 0.12812(18) -0.2259(4)
H42 H 0.2982 0.1353 -0.2742
H43 H 0.1510 0.1394 -0.2645
H44 H 0.2279 0.1011 -0.2269
H45 H 0.174(6) 0.2509(9) 0.383(5)
C28 C 0.397(2) 0.2472(4) 0.3875(19)
H46 H 0.4750 0.2351 0.3690
C29 C 0.341(2) 0.2702(5) 0.262(2)
H47 H 0.2853 0.2543 0.1970
H48 H 0.4143 0.2796 0.2325
H49 H 0.2898 0.2911 0.2797
C30 C 0.4614(19) 0.2617(5) 0.5268(18)
H50 H 0.3981 0.2592 0.5767
H51 H 0.4855 0.2878 0.5238
H52 H 0.5401 0.2471 0.5664
C31? C 0.155(2) 0.2205(7) 0.5480(18)
H53? H 0.1230 0.2441 0.5715
H54? H 0.2321 0.2125 0.6159
H55? H 0.0862 0.2017 0.5356
C32? C 0.069(2) 0.2109(8) 0.318(2)
H56? H -0.0088 0.2125 0.3485
H57? H 0.0834 0.1851 0.2972
H58? H 0.0571 0.2262 0.2416
C33? C 0.415(3) 0.2422(9) 0.400(5)
H59? H 0.4565 0.2457 0.4927
C34? C 0.531(3) 0.2335(6) 0.340(3)
H60? H 0.5880 0.2143 0.3899
H61? H 0.5826 0.2560 0.3392
H62? H 0.4951 0.2246 0.2521
C35? C 0.401(3) 0.2806(10) 0.341(3)
H63? H 0.4884 0.2914 0.3530
H64? H 0.3498 0.2962 0.3827
H65? H 0.3561 0.2788 0.2503
loop_
_geom_bond_atom_site_label_1
_geom_bond_atom_site_label_2
_geom_bond_site_symmetry_1
_geom_bond_site_symmetry_2
Mg1 N1 1_555 1_555
Cl1 C2 1_555 1_555
Cl2 C4 1_555 1_555
Si1 N3 1_555 1_555
Si2 N3 1_555 1_555
N1 C7 1_555 1_555
N2 Mg1 1_555 1_555
N3 Mg1 1_555 1_555
N4 C18 1_555 1_555
O1 Mg1 1_555 1_555
C1 O1 1_555 1_555
C2 C1 1_555 1_555
C3 C2 1_555 1_555
H1 C3 1_555 1_555
C4 C3 1_555 1_555
C5 C4 1_555 1_555
H2 C5 1_555 1_555
C6 C1 1_555 1_555
C7 C6 1_555 1_555
H3 C7 1_555 1_555
H4 C7 1_555 1_555
C8 N1 1_555 1_555
H5 C8 1_555 1_555
H6 C8 1_555 1_555
C9 C8 1_555 1_555
C10 C9 1_555 1_555
H7 C10 1_555 1_555
C11 C10 1_555 1_555
H8 C11 1_555 1_555
C12 C11 1_555 1_555
H9 C12 1_555 1_555
C13 C12 1_555 1_555
H10 C13 1_555 1_555
C14 N2 1_555 1_555
C15 N2 1_555 1_555
H11 C15 1_555 1_555
H12 C15 1_555 1_555
H13 C15 1_555 1_555
C16 N2 1_555 1_555
H14 C16 1_555 1_555
H15 C16 1_555 1_555
H16 C16 1_555 1_555
C17 N1 1_555 1_555
H17 C17 1_555 1_555
H18 C17 1_555 1_555
C18 C17 1_555 1_555
H19 C18 1_555 1_555
H20 C18 1_555 1_555
C19 H21 1_555 1_555
H22 C19 1_555 1_555
H23 C19 1_555 1_555
C20 H24 1_555 1_555
H25 C20 1_555 1_555
H26 C20 1_555 1_555
C21 N4 1_555 1_555
C22 Si1 1_555 1_555
H27 C22 1_555 1_555
H28 C22 1_555 1_555
H29 C22 1_555 1_555
C23 Si1 1_555 1_555
H30 C23 1_555 1_555
H31 C23 1_555 1_555
H32 C23 1_555 1_555
C24 Si1 1_555 1_555
H33 C24 1_555 1_555
H34 C24 1_555 1_555
H35 C24 1_555 1_555
C25 Si2 1_555 1_555
H36 C25 1_555 1_555
H37 C25 1_555 1_555
H38 C25 1_555 1_555
C26 Si2 1_555 1_555
H39 C26 1_555 1_555
H40 C26 1_555 1_555
H41 C26 1_555 1_555
C27 Si2 1_555 1_555
H42 C27 1_555 1_555
H43 C27 1_555 1_555
H44 C27 1_555 1_555
H45 C21 1_555 1_555
C28 N4 1_555 1_555
H46 C28 1_555 1_555
C29 C28 1_555 1_555
H47 C29 1_555 1_555
H48 C29 1_555 1_555
H49 C29 1_555 1_555
C30 C28 1_555 1_555
H50 C30 1_555 1_555
H51 C30 1_555 1_555
H52 C30 1_555 1_555
C5 C6 1_555 1_555
C9 C14 1_555 1_555
C13 C14 1_555 1_555
C19 C21 1_555 1_555
C20 C21 1_555 1_555

#END
