
#######################################################################
#
#                 Cambridge Crystallographic Data Centre
#                                CCDC 
#
#######################################################################
#
# If this CIF has been generated from an entry in the Cambridge 
# Structural Database, then it will include bibliographic, chemical, 
# crystal, experimental, refinement or atomic coordinate data resulting 
# from the CCDC's data processing and validation procedures.
#
#######################################################################

data_OQIYET
_chemical_formula_moiety         'C23 H23 Cl1 N2 O1 S2'
_chemical_name_systematic        
3-(bis(ethylsulfanyl)methylene)-4a-chloro-4-methyl-1-phenyl-1,3,4,4a-tetrahydro-2H-pyrido[2,3-b]indol-2-one
_symmetry_cell_setting           orthorhombic
_symmetry_space_group_name_H-M   'P n a 21'
_symmetry_Int_Tables_number      33
_space_group_name_Hall           'P 2c -2n'
loop_
_symmetry_equiv_pos_site_id
_symmetry_equiv_pos_as_xyz
1 x,y,z
2 -x,-y,1/2+z
3 1/2-x,1/2+y,1/2+z
4 1/2+x,1/2-y,z
_cell_length_a                   15.178
_cell_length_b                   23.279
_cell_length_c                   6.390
_cell_angle_alpha                90
_cell_angle_beta                 90
_cell_angle_gamma                90
_cell_volume                     2257.77
_exptl_crystal_colour            colorless
_exptl_crystal_description       block
_cell_formula_units_Z            4
loop_
_atom_site_label
_atom_site_type_symbol
_atom_site_fract_x
_atom_site_fract_y
_atom_site_fract_z
C1 C 0.70727(17) -0.02794(10) 1.3545(6)
C2 C 0.72909(17) 0.15068(11) 1.0656(5)
C3 C 0.78184(18) 0.04543(11) 1.2553(5)
C4 C 0.92695(16) 0.08407(11) 1.3342(6)
C5 C 0.65074(19) -0.00255(11) 1.2126(5)
C6 C 0.9939(2) 0.06016(13) 1.2188(6)
H1 H 0.9828 0.0470 1.0839
C7 C 0.71121(17) 0.19522(11) 0.9365(5)
C8 C 1.0772(2) 0.05556(15) 1.3015(7)
H2 H 1.1226 0.0394 1.2234
C9 C 0.65859(17) 0.10829(11) 1.1411(5)
H3 H 0.6069 0.1108 1.0496
C10 C 0.69818(17) 0.04856(12) 1.1254(5)
C11 C 0.5688(2) -0.02616(13) 1.1710(6)
H4 H 0.5307 -0.0092 1.0754
C12 C 0.6305(2) 0.12051(12) 1.3704(7)
H5 H 0.6052 0.1582 1.3793
H6 H 0.6811 0.1183 1.4600
H7 H 0.5877 0.0926 1.4136
C13 C 0.82013(19) 0.14186(13) 1.1396(6)
C14 C 0.6016(2) -0.10079(13) 1.4182(5)
H8 H 0.5839 -0.1340 1.4875
C15 C 0.6836(2) -0.07801(13) 1.4603(6)
H9 H 0.7215 -0.0953 1.5555
C16 C 1.0267(3) 0.09747(16) 1.6169(7)
H10 H 1.0381 0.1092 1.7534
C17 C 0.5457(2) -0.07579(13) 1.2767(6)
H11 H 0.4912 -0.0925 1.2511
C18 C 1.0922(3) 0.07466(16) 1.4967(8)
H12 H 1.1489 0.0723 1.5514
C19 C 0.9424(2) 0.10300(14) 1.5325(6)
H13 H 0.8973 0.1194 1.6107
C20 C 0.7512(4) 0.2717(2) 0.6045(9)
H14 H 0.7241 0.2410 0.5246
H15 H 0.7066 0.3005 0.6327
C21 C 0.5745(3) 0.27517(16) 0.9622(8)
H16 H 0.6147 0.3035 0.9054
H17 H 0.5156 0.2857 0.9172
C22 C 0.5777(4) 0.2789(2) 1.1888(10)
H18 H 0.5629 0.3172 1.2322
H19 H 0.6360 0.2697 1.2362
H20 H 0.5363 0.2523 1.2479
C23 C 0.8225(4) 0.2973(3) 0.4828(9)
H21 H 0.7998 0.3130 0.3547
H22 H 0.8654 0.2682 0.4514
H23 H 0.8497 0.3273 0.5631
N1 N 0.84102(14) 0.08987(9) 1.2386(4)
N2 N 0.78794(15) 0.00279(9) 1.3821(4)
O1 O 0.87702(15) 0.17813(10) 1.1260(5)
S1 S 0.60131(5) 0.20612(3) 0.84746(19)
S2 S 0.79289(5) 0.24345(3) 0.8489(2)
Cl1 Cl 0.72647(5) 0.03456(3) 0.85420(14)
loop_
_geom_bond_atom_site_label_1
_geom_bond_atom_site_label_2
_geom_bond_site_symmetry_1
_geom_bond_site_symmetry_2
C1 C5 1_555 1_555
C2 C7 1_555 1_555
C3 C10 1_555 1_555
C4 C6 1_555 1_555
C5 C10 1_555 1_555
C6 H1 1_555 1_555
C7 S1 1_555 1_555
C8 C6 1_555 1_555
H2 C8 1_555 1_555
C9 C2 1_555 1_555
H3 C9 1_555 1_555
C10 C9 1_555 1_555
C11 C5 1_555 1_555
H4 C11 1_555 1_555
C12 C9 1_555 1_555
H5 C12 1_555 1_555
H6 C12 1_555 1_555
H7 C12 1_555 1_555
C13 C2 1_555 1_555
C14 H8 1_555 1_555
C15 C1 1_555 1_555
H9 C15 1_555 1_555
C16 H10 1_555 1_555
C17 C11 1_555 1_555
H11 C17 1_555 1_555
C18 C8 1_555 1_555
H12 C18 1_555 1_555
C19 C4 1_555 1_555
H13 C19 1_555 1_555
C20 H14 1_555 1_555
H15 C20 1_555 1_555
C21 H16 1_555 1_555
H17 C21 1_555 1_555
C22 C21 1_555 1_555
H18 C22 1_555 1_555
H19 C22 1_555 1_555
H20 C22 1_555 1_555
C23 C20 1_555 1_555
H21 C23 1_555 1_555
H22 C23 1_555 1_555
H23 C23 1_555 1_555
N1 C3 1_555 1_555
N2 C1 1_555 1_555
O1 C13 1_555 1_555
S1 C21 1_555 1_555
S2 C7 1_555 1_555
Cl1 C10 1_555 1_555
C3 N2 1_555 1_555
C4 N1 1_555 1_555
C13 N1 1_555 1_555
C14 C15 1_555 1_555
C14 C17 1_555 1_555
C16 C18 1_555 1_555
C16 C19 1_555 1_555
C20 S2 1_555 1_555

#END
