
#######################################################################
#
#                 Cambridge Crystallographic Data Centre
#                                CCDC 
#
#######################################################################
#
# If this CIF has been generated from an entry in the Cambridge 
# Structural Database, then it will include bibliographic, chemical, 
# crystal, experimental, refinement or atomic coordinate data resulting 
# from the CCDC's data processing and validation procedures.
#
#######################################################################

data_OQOCUU
_chemical_compound_source        'from the branch and leaf of Abies fargesii'
_chemical_name_common            
'(24R)-3alpha-Methoxylanost-9(11)-en-24,25-diol methanol solvate'
_chemical_formula_moiety         'C31 H54 O3,2(C1 H4 O1)'
_chemical_name_systematic        
'3-methoxylanost-9(11)-ene-24,25-diol methanol solvate'
_symmetry_cell_setting           monoclinic
_symmetry_space_group_name_H-M   'P 21'
_symmetry_Int_Tables_number      4
_space_group_name_Hall           'P 2yb'
loop_
_symmetry_equiv_pos_site_id
_symmetry_equiv_pos_as_xyz
1 x,y,z
2 -x,1/2+y,-z
_cell_length_a                   10.9109(3)
_cell_length_b                   7.6995(2)
_cell_length_c                   19.7838(6)
_cell_angle_alpha                90
_cell_angle_beta                 96.8430(10)
_cell_angle_gamma                90
_cell_volume                     1650.17
_exptl_crystal_colour            colorless
_exptl_crystal_description       block
_chemical_melting_point          '424.15-425.15 K'
_cell_formula_units_Z            2
_exptl_crystal_recrystallization_method methanol
loop_
_atom_site_label
_atom_site_type_symbol
_atom_site_fract_x
_atom_site_fract_y
_atom_site_fract_z
C1 C 0.83990(18) 0.5006(3) 0.61610(11)
H1 H 0.8921 0.5759 0.5925
H2 H 0.7580 0.5513 0.6118
C2 C 0.89057(19) 0.4925(3) 0.69086(12)
H3 H 0.8970 0.6093 0.7094
H4 H 0.9727 0.4424 0.6954
C3 C 0.80808(18) 0.3843(3) 0.73091(11)
H5 H 0.8457 0.3788 0.7784
C4 C 0.79147(18) 0.1971(3) 0.70325(10)
C5 C 0.75903(16) 0.1971(3) 0.62441(10)
H6 H 0.6740 0.2404 0.6170
C6 C 0.7520(2) 0.0155(3) 0.59272(11)
H7 H 0.8347 -0.0295 0.5913
H8 H 0.7088 -0.0622 0.6204
C7 C 0.6849(2) 0.0232(3) 0.52156(11)
H9 H 0.6000 0.0575 0.5240
H10 H 0.6839 -0.0920 0.5016
C8 C 0.74324(16) 0.1502(2) 0.47486(10)
H11 H 0.8240 0.1021 0.4680
C9 C 0.76759(14) 0.3264(2) 0.50949(10)
C10 C 0.83290(15) 0.3224(3) 0.58202(10)
C11 C 0.74209(18) 0.4739(3) 0.47541(11)
H12 H 0.7513 0.5769 0.5000
C12 C 0.6996(2) 0.4874(3) 0.40040(11)
H13 H 0.7429 0.5818 0.3811
H14 H 0.6120 0.5135 0.3937
C13 C 0.72356(16) 0.3182(3) 0.36376(10)
C14 C 0.66980(16) 0.1677(3) 0.40416(10)
C15 C 0.6793(2) 0.0118(3) 0.35681(11)
H15 H 0.6163 -0.0737 0.3630
H16 H 0.7597 -0.0427 0.3657
C16 C 0.6599(2) 0.0875(3) 0.28449(12)
H17 H 0.5822 0.0470 0.2607
H18 H 0.7261 0.0510 0.2590
C17 C 0.65867(17) 0.2883(3) 0.29090(11)
H19 H 0.5723 0.3233 0.2909
C18 C 0.86376(17) 0.2982(3) 0.36328(11)
H20 H 0.8812 0.1866 0.3450
H21 H 0.9043 0.3079 0.4089
H22 H 0.8933 0.3877 0.3356
C19 C 0.96755(17) 0.2601(3) 0.57632(12)
H23 H 1.0037 0.3322 0.5444
H24 H 0.9660 0.1418 0.5610
H25 H 1.0157 0.2681 0.6201
C20 C 0.7071(2) 0.3812(3) 0.23039(11)
H26 H 0.7921 0.3423 0.2282
C21 C 0.7091(3) 0.5780(4) 0.23755(14)
H27 H 0.7336 0.6291 0.1970
H28 H 0.7668 0.6104 0.2759
H29 H 0.6283 0.6185 0.2442
C22 C 0.6306(2) 0.3295(4) 0.16372(11)
H30 H 0.5501 0.3840 0.1621
H31 H 0.6179 0.2048 0.1641
C23 C 0.6858(2) 0.3772(4) 0.09855(12)
H32 H 0.6902 0.5026 0.0949
H33 H 0.7692 0.3319 0.1013
C24 C 0.6107(2) 0.3058(4) 0.03561(12)
H34 H 0.5276 0.3544 0.0352
C25 C 0.6547(3) 0.3579(4) -0.03312(13)
C26 C 0.7874(3) 0.3084(6) -0.03682(18)
H35 H 0.8066 0.3236 -0.0826
H36 H 0.7998 0.1891 -0.0237
H37 H 0.8404 0.3810 -0.0066
C27 C 0.5702(4) 0.2755(5) -0.09124(14)
H38 H 0.4857 0.2983 -0.0852
H39 H 0.5839 0.1523 -0.0914
H40 H 0.5878 0.3238 -0.1338
C28 C 0.53203(17) 0.1986(4) 0.41139(12)
H41 H 0.4898 0.2354 0.3684
H42 H 0.5249 0.2869 0.4449
H43 H 0.4959 0.0927 0.4253
C29 C 0.6852(3) 0.1117(4) 0.73574(13)
H44 H 0.6791 -0.0085 0.7229
H45 H 0.6091 0.1696 0.7202
H46 H 0.7010 0.1207 0.7844
C30 C 0.9101(3) 0.0941(4) 0.72790(13)
H47 H 0.9176 0.0822 0.7765
H48 H 0.9806 0.1551 0.7152
H49 H 0.9057 -0.0189 0.7072
C31 C 0.6894(3) 0.6094(4) 0.77148(16)
H50 H 0.7358 0.5847 0.8148
H51 H 0.6060 0.6381 0.7780
H52 H 0.7264 0.7057 0.7506
O1 O 0.68973(13) 0.4625(2) 0.72911(8)
O2 O 0.59713(18) 0.1238(3) 0.03870(11)
H53 H 0.6651 0.0787 0.0480
O3 O 0.64677(19) 0.5414(3) -0.03942(10)
H54 H 0.5847 0.5759 -0.0239
C32 C 0.8784(7) 0.8333(13) 0.9174(3)
H55 H 0.9316 0.9313 0.9282
H56 H 0.8079 0.8689 0.8868
H57 H 0.9226 0.7449 0.8961
O4 O 0.8388(5) 0.7664(7) 0.9780(2)
H58 H 0.7808 0.6981 0.9726
C33 C 0.8961(4) 0.9374(10) 0.1374(2)
H59 H 0.9487 1.0368 0.1356
H60 H 0.9429 0.8335 0.1325
H61 H 0.8633 0.9353 0.1803
O5 O 0.8053(4) 0.9462(6) 0.0879(2)
H62 H 0.8090 0.8626 0.0625
loop_
_geom_bond_atom_site_label_1
_geom_bond_atom_site_label_2
_geom_bond_site_symmetry_1
_geom_bond_site_symmetry_2
C1 H1 1_555 1_555
H2 C1 1_555 1_555
C2 C1 1_555 1_555
H3 C2 1_555 1_555
H4 C2 1_555 1_555
C3 C2 1_555 1_555
H5 C3 1_555 1_555
C4 C3 1_555 1_555
C5 C4 1_555 1_555
H6 C5 1_555 1_555
C6 C5 1_555 1_555
H7 C6 1_555 1_555
H8 C6 1_555 1_555
C7 C6 1_555 1_555
H9 C7 1_555 1_555
H10 C7 1_555 1_555
C8 C7 1_555 1_555
H11 C8 1_555 1_555
C9 C8 1_555 1_555
C10 C1 1_555 1_555
C11 C9 1_555 1_555
H12 C11 1_555 1_555
C12 C11 1_555 1_555
H13 C12 1_555 1_555
H14 C12 1_555 1_555
C13 C12 1_555 1_555
C14 C8 1_555 1_555
C15 C14 1_555 1_555
H15 C15 1_555 1_555
H16 C15 1_555 1_555
C16 C15 1_555 1_555
H17 C16 1_555 1_555
H18 C16 1_555 1_555
C17 C13 1_555 1_555
H19 C17 1_555 1_555
C18 C13 1_555 1_555
H20 C18 1_555 1_555
H21 C18 1_555 1_555
H22 C18 1_555 1_555
C19 C10 1_555 1_555
H23 C19 1_555 1_555
H24 C19 1_555 1_555
H25 C19 1_555 1_555
C20 C17 1_555 1_555
H26 C20 1_555 1_555
C21 C20 1_555 1_555
H27 C21 1_555 1_555
H28 C21 1_555 1_555
H29 C21 1_555 1_555
C22 C20 1_555 1_555
H30 C22 1_555 1_555
H31 C22 1_555 1_555
C23 C22 1_555 1_555
H32 C23 1_555 1_555
H33 C23 1_555 1_555
C24 C23 1_555 1_555
H34 C24 1_555 1_555
C25 C24 1_555 1_555
C26 C25 1_555 1_555
H35 C26 1_555 1_555
H36 C26 1_555 1_555
H37 C26 1_555 1_555
C27 C25 1_555 1_555
H38 C27 1_555 1_555
H39 C27 1_555 1_555
H40 C27 1_555 1_555
C28 C14 1_555 1_555
H41 C28 1_555 1_555
H42 C28 1_555 1_555
H43 C28 1_555 1_555
C29 C4 1_555 1_555
H44 C29 1_555 1_555
H45 C29 1_555 1_555
H46 C29 1_555 1_555
C30 C4 1_555 1_555
H47 C30 1_555 1_555
H48 C30 1_555 1_555
H49 C30 1_555 1_555
C31 H50 1_555 1_555
H51 C31 1_555 1_555
H52 C31 1_555 1_555
O1 C3 1_555 1_555
O2 C24 1_555 1_555
H53 O2 1_555 1_555
O3 C25 1_555 1_555
H54 O3 1_555 1_555
C32 H55 1_555 1_555
H56 C32 1_555 1_555
H57 C32 1_555 1_555
O4 C32 1_555 1_555
H58 O4 1_555 1_555
C33 H59 1_555 1_555
H60 C33 1_555 1_555
H61 C33 1_555 1_555
O5 C33 1_555 1_555
H62 O5 1_555 1_555
C5 C10 1_555 1_555
C9 C10 1_555 1_555
C13 C14 1_555 1_555
C16 C17 1_555 1_555
C31 O1 1_555 1_555

#END
