
#######################################################################
#
#                 Cambridge Crystallographic Data Centre
#                                CCDC 
#
#######################################################################
#
# If this CIF has been generated from an entry in the Cambridge 
# Structural Database, then it will include bibliographic, chemical, 
# crystal, experimental, refinement or atomic coordinate data resulting 
# from the CCDC's data processing and validation procedures.
#
#######################################################################

data_OQONEP
_chemical_formula_moiety         'C20 H14 N6 O6 S1,2(C2 H6 O1 S1)'
_chemical_name_systematic        
"4-nitro-N'-((5-(((4-nitrobenzoyl)hydrazono)methyl)-2-thienyl)methylene)benzohydrazide dimethyl sulfoxide solvate"
_symmetry_cell_setting           monoclinic
_symmetry_space_group_name_H-M   'P 21/c'
_symmetry_Int_Tables_number      14
_space_group_name_Hall           '-P 2ybc'
loop_
_symmetry_equiv_pos_site_id
_symmetry_equiv_pos_as_xyz
1 x,y,z
2 -x,1/2+y,1/2-z
3 -x,-y,-z
4 x,1/2-y,1/2+z
_cell_length_a                   12.4731(7)
_cell_length_b                   19.2037(10)
_cell_length_c                   11.6946(6)
_cell_angle_alpha                90
_cell_angle_beta                 94.942(2)
_cell_angle_gamma                90
_cell_volume                     2790.79
_exptl_crystal_colour            yellow
_exptl_crystal_description       needle
_cell_formula_units_Z            4
_exptl_crystal_recrystallization_method 'dimethyl sulfoxide'
loop_
_atom_site_label
_atom_site_type_symbol
_atom_site_fract_x
_atom_site_fract_y
_atom_site_fract_z
S1 S 0.62142(8) 0.42438(5) 0.51448(8)
O1 O 0.6297(2) 0.35735(13) 0.4477(2)
C1 C 0.5265(3) 0.4075(2) 0.6161(3)
H1 H 0.4585 0.3952 0.5765
H2 H 0.5179 0.4484 0.6616
H3 H 0.5517 0.3698 0.6651
C2 C 0.7384(3) 0.4296(2) 0.6126(3)
H4 H 0.7406 0.3902 0.6634
H5 H 0.7364 0.4717 0.6565
H6 H 0.8014 0.4295 0.5708
S2 S 1.09353(9) 0.10817(6) -0.88343(10)
O2 O 1.1270(2) 0.15604(15) -0.7836(2)
C3 C 1.2137(4) 0.0976(3) -0.9529(4)
H7 H 1.2317 0.1408 -0.9880
H8 H 1.2032 0.0622 -1.0108
H9 H 1.2713 0.0841 -0.8975
C4 C 1.0890(6) 0.0245(4) -0.8284(7)
H10 H 1.0354 0.0222 -0.7743
H11 H 1.1579 0.0126 -0.7907
H12 H 1.0710 -0.0078 -0.8899
O3 O 1.0819(2) 0.09035(15) -0.1863(2)
O4 O 0.3802(2) 0.18679(14) 0.8598(2)
N1 N 1.0190(2) 0.21591(17) -0.1135(3)
N2 N 0.6690(2) 0.21711(15) 0.3766(2)
H13 H 0.6481 0.2540 0.4100
O5 O 1.3347(2) 0.04708(15) -0.6792(2)
O6 O 0.6648(2) 0.09912(13) 0.3681(2)
N3 N 1.3302(2) 0.10664(17) -0.6415(3)
C5 C 1.2727(3) 0.1170(2) -0.5376(3)
C6 C 1.2588(3) 0.1837(2) -0.4991(3)
H14 H 1.2842 0.2215 -0.5386
C7 C 1.2066(3) 0.1938(2) -0.4008(3)
H15 H 1.1977 0.2386 -0.3731
C8 C 1.1674(3) 0.1371(2) -0.3433(3)
C9 C 1.1070(3) 0.1424(2) -0.2376(3)
N4 N 1.0806(2) 0.20749(17) -0.2056(3)
H16 H 1.1018 0.2432 -0.2420
C10 C 0.9957(3) 0.2786(2) -0.0924(3)
H17 H 1.0206 0.3138 -0.1378
C11 C 0.9312(3) 0.2969(2) 0.0007(3)
C12 C 0.8193(3) 0.29975(18) 0.1647(3)
C13 C 0.7548(3) 0.28480(19) 0.2586(3)
H18 H 0.7294 0.3216 0.3005
N5 N 0.7315(2) 0.22242(16) 0.2857(2)
C14 C 0.6404(3) 0.15330(18) 0.4131(3)
C15 C 0.5754(3) 0.15258(18) 0.5165(3)
N6 N 0.4096(2) 0.13371(16) 0.8144(3)
C16 C 1.2369(3) 0.0593(2) -0.4811(3)
H19 H 1.2478 0.0146 -0.5082
C17 C 1.1844(3) 0.0700(2) -0.3829(3)
H20 H 1.1603 0.0320 -0.3430
C18 C 0.8417(3) 0.36486(19) 0.1259(3)
H21 H 0.8178 0.4057 0.1580
C19 C 0.9054(3) 0.3632(2) 0.0316(3)
H22 H 0.9274 0.4029 -0.0055
O7 O 1.3715(2) 0.15672(16) -0.6837(2)
S3 S 0.87701(7) 0.23539(5) 0.08646(8)
O8 O 0.3946(2) 0.07507(14) 0.8514(2)
C20 C 0.5402(3) 0.21198(19) 0.5703(3)
H23 H 0.5535 0.2558 0.5406
C21 C 0.4969(3) 0.0807(2) 0.6559(3)
H24 H 0.4807 0.0370 0.6840
C22 C 0.5520(3) 0.08764(19) 0.5593(3)
C23 C 0.4854(3) 0.20594(19) 0.6683(3)
C24 C 0.4666(3) 0.14059(19) 0.7095(3)
H25 H 0.466(3) 0.244(2) 0.705(3)
H26 H 0.576(3) 0.048(2) 0.520(3)
loop_
_geom_bond_atom_site_label_1
_geom_bond_atom_site_label_2
_geom_bond_site_symmetry_1
_geom_bond_site_symmetry_2
S1 O1 1_555 1_555
C1 S1 1_555 1_555
H1 C1 1_555 1_555
H2 C1 1_555 1_555
H3 C1 1_555 1_555
C2 S1 1_555 1_555
H4 C2 1_555 1_555
H5 C2 1_555 1_555
H6 C2 1_555 1_555
S2 O2 1_555 1_555
C3 S2 1_555 1_555
H7 C3 1_555 1_555
H8 C3 1_555 1_555
H9 C3 1_555 1_555
C4 S2 1_555 1_555
H10 C4 1_555 1_555
H11 C4 1_555 1_555
H12 C4 1_555 1_555
O3 C9 1_555 1_555
O4 N6 1_555 1_555
N1 N4 1_555 1_555
N2 H13 1_555 1_555
O5 N3 1_555 1_555
O6 C14 1_555 1_555
N3 C5 1_555 1_555
C5 C6 1_555 1_555
C6 H14 1_555 1_555
C7 C6 1_555 1_555
H15 C7 1_555 1_555
C8 C7 1_555 1_555
C9 C8 1_555 1_555
N4 C9 1_555 1_555
H16 N4 1_555 1_555
C10 N1 1_555 1_555
H17 C10 1_555 1_555
C11 C10 1_555 1_555
C12 C13 1_555 1_555
C13 H18 1_555 1_555
N5 N2 1_555 1_555
C14 N2 1_555 1_555
C15 C14 1_555 1_555
N6 O8 1_555 1_555
C16 C5 1_555 1_555
H19 C16 1_555 1_555
C17 C8 1_555 1_555
H20 C17 1_555 1_555
C18 C12 1_555 1_555
H21 C18 1_555 1_555
C19 C11 1_555 1_555
H22 C19 1_555 1_555
O7 N3 1_555 1_555
S3 C11 1_555 1_555
C20 C15 1_555 1_555
H23 C20 1_555 1_555
C21 H24 1_555 1_555
C22 C15 1_555 1_555
C23 C20 1_555 1_555
C24 N6 1_555 1_555
H25 C23 1_555 1_555
H26 C22 1_555 1_555
C12 S3 1_555 1_555
C13 N5 1_555 1_555
C16 C17 1_555 1_555
C18 C19 1_555 1_555
C21 C22 1_555 1_555
C21 C24 1_555 1_555
C23 C24 1_555 1_555

#END
