
#######################################################################
#
#                 Cambridge Crystallographic Data Centre
#                                CCDC 
#
#######################################################################
#
# If this CIF has been generated from an entry in the Cambridge 
# Structural Database, then it will include bibliographic, chemical, 
# crystal, experimental, refinement or atomic coordinate data resulting 
# from the CCDC's data processing and validation procedures.
#
#######################################################################

data_OQUJAN
_chemical_formula_moiety         'C54 H30 F6'
_chemical_name_systematic        
'2,3-bis(2-(6,7-difluoro-3-phenyl-2-naphthyl)phenyl)-6,7-difluoronaphthalene unknown solvate'
_symmetry_cell_setting           orthorhombic
_symmetry_space_group_name_H-M   'I b a 2'
_symmetry_Int_Tables_number      45
_space_group_name_Hall           'I 2 -2c'
loop_
_symmetry_equiv_pos_site_id
_symmetry_equiv_pos_as_xyz
1 x,y,z
2 -x,-y,z
3 1/2+x,1/2-y,z
4 1/2-x,1/2+y,z
5 1/2+x,1/2+y,1/2+z
6 1/2-x,1/2-y,1/2+z
7 x,-y,1/2+z
8 -x,y,1/2+z
_cell_length_a                   21.8211(7)
_cell_length_b                   19.2793(6)
_cell_length_c                   19.7602(8)
_cell_angle_alpha                90
_cell_angle_beta                 90
_cell_angle_gamma                90
_cell_volume                     8313.03
_exptl_crystal_colour            colorless
_exptl_crystal_description       block
_cell_formula_units_Z            8
loop_
_atom_site_label
_atom_site_type_symbol
_atom_site_fract_x
_atom_site_fract_y
_atom_site_fract_z
F1 F -0.41546(13) 0.45462(13) 0.73814(14)
F2 F -0.29607(13) 0.45404(11) 0.71033(12)
F3 F -0.43331(13) 0.24962(17) 1.32113(14)
F4 F -0.41667(12) 0.38477(16) 1.31178(13)
F5 F 0.05718(10) 0.04614(10) 0.97578(13)
F6 F 0.07206(11) 0.04067(11) 1.10837(15)
C1 C -0.42041(15) 0.20052(18) 1.0325(2)
H1 H -0.4295 0.2475 1.0354
C2 C -0.45001(16) 0.1546(2) 1.0752(2)
H2 H -0.4783 0.1709 1.1066
C3 C -0.43759(17) 0.08469(19) 1.0710(2)
H3 H -0.4577 0.0533 1.0990
C4 C -0.3946(2) 0.06196(18) 1.0244(3)
H4 H -0.3855 0.0149 1.0214
C5 C -0.36525(17) 0.10810(16) 0.9826(2)
H5 H -0.3365 0.0919 0.9516
C6 C -0.37778(13) 0.17852(15) 0.98580(17)
C7 C -0.34918(14) 0.22817(15) 0.93819(17)
C8 C -0.38642(16) 0.27315(16) 0.90269(19)
H6 H -0.4282 0.2727 0.9119
C9 C -0.36478(17) 0.31942(16) 0.85370(18)
C10 C -0.40373(18) 0.36522(19) 0.8179(2)
H7 H -0.4457 0.3653 0.8261
C11 C -0.3794(2) 0.4086(2) 0.7718(2)
C12 C -0.3175(2) 0.4087(2) 0.75765(19)
C13 C -0.27855(19) 0.36524(18) 0.78929(19)
H8 H -0.2371 0.3654 0.7783
C14 C -0.30127(17) 0.31929(16) 0.83941(17)
C15 C -0.26303(16) 0.27336(16) 0.87557(17)
H9 H -0.2214 0.2725 0.8656
C16 C -0.28492(14) 0.22990(15) 0.92485(17)
C17 C -0.24140(13) 0.18352(15) 0.96162(18)
C18 C -0.20835(15) 0.13417(16) 0.9244(2)
H10 H -0.2106 0.1350 0.8774
C19 C -0.17276(15) 0.08475(17) 0.9551(2)
H11 H -0.1518 0.0522 0.9292
C20 C -0.16824(15) 0.08369(17) 1.0241(3)
H12 H -0.1454 0.0493 1.0454
C21 C -0.19774(15) 0.13377(16) 1.0623(2)
H13 H -0.1935 0.1334 1.1091
C22 C -0.23397(13) 0.18508(15) 1.03177(19)
C23 C -0.26332(13) 0.23676(15) 1.07753(17)
C24 C -0.29951(15) 0.21131(17) 1.12971(18)
H14 H -0.3041 0.1635 1.1339
C25 C -0.32967(16) 0.2545(2) 1.17660(19)
C26 C -0.36849(18) 0.2283(2) 1.2284(2)
H15 H -0.3749 0.1808 1.2326
C27 C -0.39561(19) 0.2725(3) 1.2709(2)
C28 C -0.38612(19) 0.3438(3) 1.2665(2)
C29 C -0.35116(17) 0.3708(2) 1.2184(2)
H16 H -0.3461 0.4186 1.2155
C30 C -0.32140(15) 0.32657(19) 1.17142(19)
C31 C -0.28504(15) 0.35248(17) 1.11852(19)
H17 H -0.2806 0.4003 1.1145
C32 C -0.25542(13) 0.31028(15) 1.07204(17)
C33 C -0.21919(15) 0.34625(14) 1.01856(16)
C34 C -0.24863(15) 0.39901(15) 0.98299(19)
H18 H -0.2892 0.4090 0.9934
C35 C -0.22021(19) 0.43685(16) 0.9331(2)
H19 H -0.2414 0.4714 0.9101
C36 C -0.15998(18) 0.42293(16) 0.91754(19)
H20 H -0.1401 0.4478 0.8838
C37 C -0.12951(16) 0.37167(16) 0.95258(18)
H21 H -0.0891 0.3619 0.9412
C38 C -0.15721(14) 0.33382(14) 1.00456(17)
C39 C -0.11756(13) 0.28144(15) 1.03953(17)
C40 C -0.08690(14) 0.23406(15) 1.00040(19)
H22 H -0.0927 0.2353 0.9538
C41 C -0.04708(14) 0.18358(16) 1.02720(18)
C42 C -0.01503(15) 0.13607(15) 0.9853(2)
H23 H -0.0212 0.1362 0.9387
C43 C 0.02434(16) 0.09092(17) 1.0135(2)
C44 C 0.03265(17) 0.08894(17) 1.0832(3)
C45 C 0.00246(16) 0.13128(16) 1.1255(2)
H24 H 0.0082 0.1281 1.1720
C46 C -0.03869(14) 0.18147(15) 1.09765(19)
C47 C -0.07002(15) 0.23056(17) 1.13800(19)
H25 H -0.0650 0.2289 1.1847
C48 C -0.10770(13) 0.28073(15) 1.11097(18)
C49 C -0.13339(14) 0.33466(17) 1.15672(17)
C50 C -0.15968(15) 0.3165(2) 1.2179(2)
H26 H -0.1625 0.2699 1.2298
C51 C -0.18171(19) 0.3662(3) 1.2613(2)
H27 H -0.1987 0.3529 1.3025
C52 C -0.17903(19) 0.4346(2) 1.2449(2)
H28 H -0.1952 0.4677 1.2741
C53 C -0.15204(19) 0.45467(19) 1.1846(2)
H29 H -0.1492 0.5014 1.1734
C54 C -0.12948(16) 0.40499(17) 1.14115(19)
H30 H -0.1113 0.4186 1.1007
loop_
_geom_bond_atom_site_label_1
_geom_bond_atom_site_label_2
_geom_bond_site_symmetry_1
_geom_bond_site_symmetry_2
F1 C11 1_555 1_555
F2 C12 1_555 1_555
F3 C27 1_555 1_555
F4 C28 1_555 1_555
F5 C43 1_555 1_555
F6 C44 1_555 1_555
C1 H1 1_555 1_555
C2 C1 1_555 1_555
H2 C2 1_555 1_555
C3 C2 1_555 1_555
H3 C3 1_555 1_555
C4 C3 1_555 1_555
H4 C4 1_555 1_555
C5 C4 1_555 1_555
H5 C5 1_555 1_555
C6 C1 1_555 1_555
C7 C6 1_555 1_555
C8 C7 1_555 1_555
H6 C8 1_555 1_555
C9 C8 1_555 1_555
C10 C9 1_555 1_555
H7 C10 1_555 1_555
C11 C10 1_555 1_555
C12 C11 1_555 1_555
C13 C12 1_555 1_555
H8 C13 1_555 1_555
C14 C9 1_555 1_555
C15 C14 1_555 1_555
H9 C15 1_555 1_555
C16 C7 1_555 1_555
C17 C16 1_555 1_555
C18 C17 1_555 1_555
H10 C18 1_555 1_555
C19 C18 1_555 1_555
H11 C19 1_555 1_555
C20 C19 1_555 1_555
H12 C20 1_555 1_555
C21 C20 1_555 1_555
H13 C21 1_555 1_555
C22 C17 1_555 1_555
C23 C22 1_555 1_555
C24 C23 1_555 1_555
H14 C24 1_555 1_555
C25 C24 1_555 1_555
C26 C25 1_555 1_555
H15 C26 1_555 1_555
C27 C26 1_555 1_555
C28 C27 1_555 1_555
C29 C28 1_555 1_555
H16 C29 1_555 1_555
C30 C25 1_555 1_555
C31 C30 1_555 1_555
H17 C31 1_555 1_555
C32 C23 1_555 1_555
C33 C32 1_555 1_555
C34 C33 1_555 1_555
H18 C34 1_555 1_555
C35 C34 1_555 1_555
H19 C35 1_555 1_555
C36 C35 1_555 1_555
H20 C36 1_555 1_555
C37 C36 1_555 1_555
H21 C37 1_555 1_555
C38 C33 1_555 1_555
C39 C38 1_555 1_555
C40 C39 1_555 1_555
H22 C40 1_555 1_555
C41 C40 1_555 1_555
C42 C41 1_555 1_555
H23 C42 1_555 1_555
C43 C42 1_555 1_555
C44 C43 1_555 1_555
C45 C44 1_555 1_555
H24 C45 1_555 1_555
C46 C41 1_555 1_555
C47 C46 1_555 1_555
H25 C47 1_555 1_555
C48 C39 1_555 1_555
C49 C48 1_555 1_555
C50 C49 1_555 1_555
H26 C50 1_555 1_555
C51 C50 1_555 1_555
H27 C51 1_555 1_555
C52 C51 1_555 1_555
H28 C52 1_555 1_555
C53 C52 1_555 1_555
H29 C53 1_555 1_555
C54 C49 1_555 1_555
H30 C54 1_555 1_555
C5 C6 1_555 1_555
C13 C14 1_555 1_555
C15 C16 1_555 1_555
C21 C22 1_555 1_555
C29 C30 1_555 1_555
C31 C32 1_555 1_555
C37 C38 1_555 1_555
C45 C46 1_555 1_555
C47 C48 1_555 1_555
C53 C54 1_555 1_555

#END
