
#######################################################################
#
#                 Cambridge Crystallographic Data Centre
#                                CCDC 
#
#######################################################################
#
# If this CIF has been generated from an entry in the Cambridge 
# Structural Database, then it will include bibliographic, chemical, 
# crystal, experimental, refinement or atomic coordinate data resulting 
# from the CCDC's data processing and validation procedures.
#
#######################################################################

data_OQUJER
_chemical_formula_moiety         'C64 H34 F8'
_chemical_name_systematic        
"3,3'-bis(2-(6,7-difluoro-3-phenyl-2-naphthyl)phenyl)-6,6',7,7'-tetrafluoro-2,2'-binaphthalene unknown solvate"
_symmetry_cell_setting           triclinic
_symmetry_space_group_name_H-M   'P -1'
_symmetry_Int_Tables_number      2
_space_group_name_Hall           '-P 1'
loop_
_symmetry_equiv_pos_site_id
_symmetry_equiv_pos_as_xyz
1 x,y,z
2 -x,-y,-z
_cell_length_a                   11.1751(4)
_cell_length_b                   12.6389(5)
_cell_length_c                   19.1180(7)
_cell_angle_alpha                83.981(2)
_cell_angle_beta                 85.728(2)
_cell_angle_gamma                64.491(2)
_cell_volume                     2422.29
_exptl_crystal_colour            colorless
_exptl_crystal_description       plate
_cell_formula_units_Z            2
loop_
_atom_site_label
_atom_site_type_symbol
_atom_site_fract_x
_atom_site_fract_y
_atom_site_fract_z
F1 F 1.1208(3) 0.0080(2) 0.72319(16)
F2 F 1.0707(3) 0.0170(2) 0.86119(16)
F3 F 0.2524(3) 0.9181(2) 0.43908(11)
F4 F 0.2704(2) 0.7087(2) 0.41465(11)
F5 F 0.8271(3) -0.0558(2) 0.78428(14)
F6 F 0.7431(3) -0.0510(2) 0.91813(14)
F7 F -0.0396(3) 0.8749(2) 0.49334(12)
F8 F -0.0334(2) 0.6709(2) 0.46727(11)
C1 C 0.7296(4) 0.7382(4) 0.6840(2)
H1 H 0.7530 0.7394 0.7294
C2 C 0.7015(5) 0.8360(5) 0.6365(3)
H2 H 0.7072 0.9021 0.6502
C3 C 0.6651(5) 0.8356(5) 0.5688(3)
H3 H 0.6432 0.9021 0.5375
C4 C 0.6615(4) 0.7369(5) 0.5487(3)
H4 H 0.6398 0.7356 0.5028
C5 C 0.6898(4) 0.6383(4) 0.5954(2)
H5 H 0.6865 0.5718 0.5807
C6 C 0.7231(3) 0.6382(3) 0.6639(2)
C7 C 0.7607(3) 0.5305(3) 0.71235(18)
C8 C 0.8452(3) 0.4249(3) 0.6870(2)
H6 H 0.8667 0.4234 0.6390
C9 C 0.9007(3) 0.3191(3) 0.72981(19)
C10 C 0.9869(4) 0.2106(4) 0.7035(2)
H7 H 1.0070 0.2061 0.6555
C11 C 1.0391(4) 0.1149(4) 0.7477(3)
C12 C 1.0118(4) 0.1184(4) 0.8196(3)
C13 C 0.9297(4) 0.2186(4) 0.8474(2)
H8 H 0.9119 0.2194 0.8957
C14 C 0.8700(3) 0.3232(3) 0.8030(2)
C15 C 0.7787(3) 0.4302(3) 0.82840(19)
H9 H 0.7563 0.4323 0.8762
C16 C 0.7211(3) 0.5318(3) 0.78508(18)
C17 C 0.6214(3) 0.6391(3) 0.81751(18)
C18 C 0.6584(4) 0.6744(4) 0.8755(2)
H10 H 0.7428 0.6296 0.8926
C19 C 0.5758(4) 0.7727(4) 0.9086(2)
H11 H 0.6043 0.7940 0.9471
C20 C 0.4500(4) 0.8395(4) 0.8840(2)
H12 H 0.3932 0.9069 0.9054
C21 C 0.4089(4) 0.8056(3) 0.82746(19)
H13 H 0.3233 0.8504 0.8118
C22 C 0.4921(3) 0.7055(3) 0.79268(17)
C23 C 0.4414(3) 0.6825(3) 0.72872(17)
C24 C 0.3962(3) 0.7735(3) 0.67687(18)
H14 H 0.3904 0.8465 0.6859
C25 C 0.3584(3) 0.7607(3) 0.61087(17)
C26 C 0.3170(4) 0.8537(3) 0.55614(19)
H15 H 0.3086 0.9281 0.5638
C27 C 0.2903(4) 0.8312(4) 0.4926(2)
C28 C 0.3012(4) 0.7223(4) 0.47970(18)
C29 C 0.3384(3) 0.6318(3) 0.52945(18)
H16 H 0.3446 0.5591 0.5196
C30 C 0.3682(3) 0.6483(3) 0.59705(17)
C31 C 0.4054(3) 0.5593(3) 0.65196(17)
H17 H 0.4073 0.4872 0.6440
C32 C 0.4393(3) 0.5727(3) 0.71707(17)
C33 C 0.4772(3) 0.4679(3) 0.76981(17)
C34 C 0.5667(3) 0.3620(3) 0.74712(18)
H18 H 0.6010 0.3609 0.7012
C35 C 0.6091(3) 0.2557(3) 0.78907(18)
C36 C 0.7008(4) 0.1478(3) 0.7636(2)
H19 H 0.7328 0.1452 0.7172
C37 C 0.7408(4) 0.0497(4) 0.8069(2)
C38 C 0.6959(4) 0.0512(4) 0.8773(2)
C39 C 0.6088(4) 0.1519(4) 0.9037(2)
H20 H 0.5798 0.1517 0.9505
C40 C 0.5614(3) 0.2587(3) 0.85952(18)
C41 C 0.4696(4) 0.3667(3) 0.88258(18)
H21 H 0.4375 0.3682 0.9289
C42 C 0.4244(3) 0.4702(3) 0.84079(17)
C43 C 0.3214(3) 0.5773(3) 0.87279(16)
C44 C 0.3547(4) 0.6049(3) 0.93522(18)
H22 H 0.4391 0.5600 0.9524
C45 C 0.2663(4) 0.6968(4) 0.97222(19)
H23 H 0.2901 0.7118 1.0144
C46 C 0.1428(4) 0.7659(4) 0.9463(2)
H24 H 0.0829 0.8290 0.9702
C47 C 0.1090(4) 0.7408(3) 0.88485(19)
H25 H 0.0254 0.7883 0.8676
C48 C 0.1948(3) 0.6469(3) 0.84704(17)
C49 C 0.1476(3) 0.6285(3) 0.78061(17)
C50 C 0.1070(3) 0.7200(3) 0.72894(17)
H26 H 0.1056 0.7912 0.7384
C51 C 0.0673(3) 0.7109(3) 0.66242(18)
C52 C 0.0288(3) 0.8047(4) 0.6092(2)
H27 H 0.0258 0.8770 0.6177
C53 C -0.0030(4) 0.7884(4) 0.5469(2)
C54 C 0.0013(4) 0.6804(4) 0.53266(19)
C55 C 0.0368(4) 0.5883(4) 0.5817(2)
H28 H 0.0388 0.5172 0.5714
C56 C 0.0711(3) 0.6015(3) 0.64897(18)
C57 C 0.1068(3) 0.5103(3) 0.7038(2)
H29 H 0.1070 0.4392 0.6952
C58 C 0.1409(3) 0.5217(3) 0.76841(19)
C59 C 0.1605(4) 0.4273(4) 0.8252(2)
C60 C 0.089(3) 0.461(2) 0.8897(14)
H30 H 0.0413 0.5413 0.8956
C61 C 0.086(3) 0.381(2) 0.9445(14)
H31 H 0.0283 0.4042 0.9835
C62 C 0.173(3) 0.262(2) 0.9384(14)
H32 H 0.1862 0.2086 0.9776
C63 C 0.240(2) 0.2232(14) 0.8769(10)
H33 H 0.2871 0.1429 0.8727
C64 C 0.237(2) 0.3076(14) 0.8169(10)
H34 H 0.2870 0.2814 0.7742
C65? C 0.108(2) 0.4406(18) 0.8916(11)
H35? H 0.0529 0.5155 0.9050
C66? C 0.135(3) 0.343(3) 0.9402(11)
H36? H 0.1028 0.3533 0.9864
C67? C 0.213(4) 0.230(2) 0.9183(14)
H37? H 0.2254 0.1641 0.9484
C68? C 0.271(3) 0.219(2) 0.8521(16)
H38? H 0.3280 0.1447 0.8381
C69? C 0.245(3) 0.319(3) 0.8054(13)
H39? H 0.2855 0.3113 0.7608
loop_
_geom_bond_atom_site_label_1
_geom_bond_atom_site_label_2
_geom_bond_site_symmetry_1
_geom_bond_site_symmetry_2
F1 C11 1_555 1_555
F2 C12 1_555 1_555
F3 C27 1_555 1_555
F4 C28 1_555 1_555
F5 C37 1_555 1_555
F6 C38 1_555 1_555
F7 C53 1_555 1_555
F8 C54 1_555 1_555
C1 H1 1_555 1_555
C2 C1 1_555 1_555
H2 C2 1_555 1_555
C3 C2 1_555 1_555
H3 C3 1_555 1_555
C4 C3 1_555 1_555
H4 C4 1_555 1_555
C5 C4 1_555 1_555
H5 C5 1_555 1_555
C6 C1 1_555 1_555
C7 C6 1_555 1_555
C8 C7 1_555 1_555
H6 C8 1_555 1_555
C9 C8 1_555 1_555
C10 C9 1_555 1_555
H7 C10 1_555 1_555
C11 C10 1_555 1_555
C12 C11 1_555 1_555
C13 C12 1_555 1_555
H8 C13 1_555 1_555
C14 C9 1_555 1_555
C15 C14 1_555 1_555
H9 C15 1_555 1_555
C16 C7 1_555 1_555
C17 C16 1_555 1_555
C18 C17 1_555 1_555
H10 C18 1_555 1_555
C19 C18 1_555 1_555
H11 C19 1_555 1_555
C20 C19 1_555 1_555
H12 C20 1_555 1_555
C21 C20 1_555 1_555
H13 C21 1_555 1_555
C22 C17 1_555 1_555
C23 C22 1_555 1_555
C24 C23 1_555 1_555
H14 C24 1_555 1_555
C25 C24 1_555 1_555
C26 C25 1_555 1_555
H15 C26 1_555 1_555
C27 C26 1_555 1_555
C28 C27 1_555 1_555
C29 C28 1_555 1_555
H16 C29 1_555 1_555
C30 C25 1_555 1_555
C31 C30 1_555 1_555
H17 C31 1_555 1_555
C32 C23 1_555 1_555
C33 C32 1_555 1_555
C34 C33 1_555 1_555
H18 C34 1_555 1_555
C35 C34 1_555 1_555
C36 C35 1_555 1_555
H19 C36 1_555 1_555
C37 C36 1_555 1_555
C38 C37 1_555 1_555
C39 C38 1_555 1_555
H20 C39 1_555 1_555
C40 C35 1_555 1_555
C41 C40 1_555 1_555
H21 C41 1_555 1_555
C42 C33 1_555 1_555
C43 C42 1_555 1_555
C44 C43 1_555 1_555
H22 C44 1_555 1_555
C45 C44 1_555 1_555
H23 C45 1_555 1_555
C46 C45 1_555 1_555
H24 C46 1_555 1_555
C47 C46 1_555 1_555
H25 C47 1_555 1_555
C48 C43 1_555 1_555
C49 C48 1_555 1_555
C50 C49 1_555 1_555
H26 C50 1_555 1_555
C51 C50 1_555 1_555
C52 C51 1_555 1_555
H27 C52 1_555 1_555
C53 C52 1_555 1_555
C54 C53 1_555 1_555
C55 C54 1_555 1_555
H28 C55 1_555 1_555
C56 C51 1_555 1_555
C57 C56 1_555 1_555
H29 C57 1_555 1_555
C58 C49 1_555 1_555
C59 C58 1_555 1_555
C60 C59 1_555 1_555
H30 C60 1_555 1_555
C61 C60 1_555 1_555
H31 C61 1_555 1_555
C62 C61 1_555 1_555
H32 C62 1_555 1_555
C63 C62 1_555 1_555
H33 C63 1_555 1_555
C64 C59 1_555 1_555
H34 C64 1_555 1_555
C5 C6 1_555 1_555
C13 C14 1_555 1_555
C15 C16 1_555 1_555
C21 C22 1_555 1_555
C29 C30 1_555 1_555
C31 C32 1_555 1_555
C39 C40 1_555 1_555
C41 C42 1_555 1_555
C47 C48 1_555 1_555
C55 C56 1_555 1_555
C57 C58 1_555 1_555
C63 C64 1_555 1_555

#END
