
#######################################################################
#
#                 Cambridge Crystallographic Data Centre
#                                CCDC 
#
#######################################################################
#
# If this CIF has been generated from an entry in the Cambridge 
# Structural Database, then it will include bibliographic, chemical, 
# crystal, experimental, refinement or atomic coordinate data resulting 
# from the CCDC's data processing and validation procedures.
#
#######################################################################

data_OQUJOB
_chemical_formula_moiety         'C38 H22 Cl4,0.5(C1 H1 Cl3)'
_chemical_name_systematic        
'2,3-dichloro-6-(2-(6,7-dichloro-3-phenyl-2-naphthyl)phenyl)-7-phenylnaphthalene chloroform solvate'
_symmetry_cell_setting           monoclinic
_symmetry_space_group_name_H-M   'P 21/n'
_symmetry_Int_Tables_number      14
_space_group_name_Hall           '-P 2yn'
loop_
_symmetry_equiv_pos_site_id
_symmetry_equiv_pos_as_xyz
1 x,y,z
2 1/2-x,1/2+y,1/2-z
3 -x,-y,-z
4 1/2+x,1/2-y,1/2+z
_cell_length_a                   20.7464(8)
_cell_length_b                   13.0281(5)
_cell_length_c                   24.8595(11)
_cell_angle_alpha                90
_cell_angle_beta                 107.709(2)
_cell_angle_gamma                90
_cell_volume                     6400.78
_exptl_crystal_colour            colorless
_exptl_crystal_description       Block
_cell_formula_units_Z            8
loop_
_atom_site_label
_atom_site_type_symbol
_atom_site_fract_x
_atom_site_fract_y
_atom_site_fract_z
Cl1 Cl 0.28103(5) 0.08556(9) 0.27443(5)
Cl2 Cl 0.29565(5) -0.10100(7) 0.19721(5)
Cl3 Cl 0.59299(6) 0.82721(6) 0.13168(5)
Cl4 Cl 0.43461(6) 0.82611(6) 0.07549(4)
C1 C 0.56298(17) 0.4394(2) 0.22722(14)
H1 H 0.5161 0.4510 0.2167
C2 C 0.6072(2) 0.5214(3) 0.24312(15)
H2 H 0.5901 0.5883 0.2430
C3 C 0.6754(2) 0.5056(3) 0.25901(16)
H3 H 0.7051 0.5617 0.2699
C4 C 0.70125(18) 0.4072(3) 0.25921(16)
H4 H 0.7483 0.3965 0.2705
C5 C 0.65728(17) 0.3243(3) 0.24258(14)
H5 H 0.6747 0.2578 0.2421
C6 C 0.58737(15) 0.3396(2) 0.22664(13)
C7 C 0.53897(15) 0.2526(2) 0.21165(13)
C8 C 0.48859(16) 0.2483(2) 0.23656(13)
H6 H 0.4847 0.3024 0.2604
C9 C 0.44231(15) 0.1663(2) 0.22797(13)
C10 C 0.39013(16) 0.1637(2) 0.25305(14)
H7 H 0.3858 0.2181 0.2766
C11 C 0.34550(16) 0.0834(3) 0.24387(15)
C12 C 0.35200(16) 0.0016(2) 0.20898(15)
C13 C 0.40173(16) 0.0020(2) 0.18346(14)
H8 H 0.4050 -0.0528 0.1599
C14 C 0.44847(15) 0.0844(2) 0.19224(13)
C15 C 0.49970(15) 0.0897(2) 0.16628(13)
H9 H 0.5042 0.0354 0.1428
C16 C 0.54359(14) 0.1715(2) 0.17394(13)
C17 C 0.59397(14) 0.1707(2) 0.14211(12)
C18 C 0.63768(15) 0.0861(2) 0.14898(14)
H10 H 0.6350 0.0336 0.1741
C19 C 0.68432(17) 0.0779(2) 0.12002(15)
H11 H 0.7125 0.0199 0.1251
C20 C 0.68974(16) 0.1543(3) 0.08367(15)
H12 H 0.7220 0.1495 0.0642
C21 C 0.64725(15) 0.2385(2) 0.07586(14)
H13 H 0.6515 0.2911 0.0512
C22 C 0.59834(15) 0.2475(2) 0.10359(13)
C23 C 0.55534(15) 0.3421(2) 0.09200(13)
C24 C 0.58843(16) 0.4348(2) 0.10315(14)
H14 H 0.6360 0.4352 0.1164
C25 C 0.55343(16) 0.5296(2) 0.09540(14)
C26 C 0.58742(19) 0.6244(2) 0.11182(15)
H15 H 0.6349 0.6259 0.1258
C27 C 0.5514(2) 0.7133(2) 0.10744(15)
C28 C 0.4804(2) 0.7119(2) 0.08362(15)
C29 C 0.44661(18) 0.6225(2) 0.06735(14)
H16 H 0.3993 0.6232 0.0516
C30 C 0.48195(16) 0.5279(2) 0.07386(13)
C31 C 0.44846(16) 0.4327(2) 0.06207(13)
H17 H 0.4010 0.4317 0.0476
C32 C 0.48327(15) 0.3410(2) 0.07114(13)
C33 C 0.44283(15) 0.2438(2) 0.05736(13)
C34 C 0.38683(16) 0.2301(2) 0.07643(14)
H18 H 0.3755 0.2814 0.0986
C35 C 0.34757(17) 0.1424(3) 0.06329(16)
H19 H 0.3105 0.1336 0.0771
C36 C 0.36296(19) 0.0681(3) 0.02995(18)
H20 H 0.3358 0.0090 0.0206
C37 C 0.41766(19) 0.0793(2) 0.01018(16)
H21 H 0.4280 0.0283 -0.0127
C38 C 0.45781(16) 0.1674(2) 0.02437(14)
H22 H 0.4956 0.1749 0.0113
Cl5 Cl 0.22072(5) 0.05033(8) 0.40874(4)
Cl6 Cl 0.20713(5) -0.13199(7) 0.32255(5)
Cl7 Cl -0.04576(6) 0.82487(6) 0.11013(5)
Cl8 Cl 0.10689(6) 0.81029(6) 0.11472(4)
C39 C -0.14035(17) 0.2949(2) 0.17866(15)
H23 H -0.1534 0.2263 0.1697
C40 C -0.18968(18) 0.3693(3) 0.17366(16)
H24 H -0.2357 0.3510 0.1615
C41 C -0.1712(2) 0.4697(3) 0.18646(16)
H25 H -0.2045 0.5201 0.1834
C42 C -0.1040(2) 0.4966(2) 0.20374(15)
H26 H -0.0915 0.5655 0.2120
C43 C -0.05468(18) 0.4226(2) 0.20903(14)
H27 H -0.0088 0.4416 0.2211
C44 C -0.07234(16) 0.3200(2) 0.19668(13)
C45 C -0.01892(15) 0.2400(2) 0.20526(13)
C46 C 0.02964(16) 0.2346(2) 0.25708(14)
H28 H 0.0318 0.2873 0.2834
C47 C 0.07656(16) 0.1524(2) 0.27227(14)
C48 C 0.12441(16) 0.1440(3) 0.32609(15)
H29 H 0.1294 0.1984 0.3519
C49 C 0.16353(16) 0.0590(3) 0.34157(15)
C50 C 0.15805(17) -0.0225(2) 0.30231(16)
C51 C 0.11517(16) -0.0143(2) 0.24898(15)
H30 H 0.1136 -0.0670 0.2228
C52 C 0.07247(15) 0.0729(2) 0.23220(14)
C53 C 0.02516(15) 0.0826(2) 0.17872(14)
H31 H 0.0241 0.0318 0.1516
C54 C -0.01991(15) 0.1627(2) 0.16393(13)
C55 C -0.07137(15) 0.1638(2) 0.10696(13)
C56 C -0.11530(15) 0.0804(2) 0.09250(14)
H32 H -0.1100 0.0254 0.1179
C57 C -0.16649(16) 0.0767(2) 0.04166(16)
H33 H -0.1945 0.0185 0.0321
C58 C -0.17625(16) 0.1582(3) 0.00517(15)
H34 H -0.2123 0.1575 -0.0287
C59 C -0.13276(16) 0.2419(2) 0.01832(14)
H35 H -0.1395 0.2973 -0.0070
C60 C -0.07937(15) 0.2452(2) 0.06839(14)
C61 C -0.03336(15) 0.3372(2) 0.07788(13)
C62 C -0.06171(16) 0.4324(2) 0.07924(14)
H36 H -0.1082 0.4368 0.0749
C63 C -0.02294(16) 0.5240(2) 0.08698(14)
C64 C -0.05039(18) 0.6214(2) 0.09285(15)
H37 H -0.0962 0.6268 0.0908
C65 C -0.01132(19) 0.7070(2) 0.10133(14)
C66 C 0.05725(19) 0.7006(2) 0.10336(14)
C67 C 0.08532(18) 0.6083(2) 0.09860(14)
H38 H 0.1311 0.6048 0.1002
C68 C 0.04631(17) 0.5167(2) 0.09124(14)
C69 C 0.07462(17) 0.4192(2) 0.08958(14)
H39 H 0.1207 0.4143 0.0923
C70 C 0.03689(16) 0.3301(2) 0.08401(14)
C71 C 0.07294(15) 0.2318(2) 0.08348(14)
C72 C 0.13435(16) 0.2136(2) 0.12510(15)
H40 H 0.1510 0.2619 0.1541
C73 C 0.17097(18) 0.1256(2) 0.12424(16)
H41 H 0.2123 0.1145 0.1525
C74 C 0.14739(18) 0.0541(2) 0.08226(17)
H42 H 0.1727 -0.0055 0.0817
C75 C 0.08649(18) 0.0699(2) 0.04080(16)
H43 H 0.0702 0.0207 0.0122
C76 C 0.04934(16) 0.1583(2) 0.04143(14)
H44 H 0.0079 0.1686 0.0132
C77 C 0.7435(2) 0.6999(4) 0.0424(2)
H45 H 0.6979 0.7278 0.0234
Cl9 Cl 0.73699(8) 0.56533(11) 0.04969(6)
Cl10 Cl 0.77404(8) 0.75528(11) 0.10899(7)
Cl11 Cl 0.79585(7) 0.72506(13) 0.00020(6)
loop_
_geom_bond_atom_site_label_1
_geom_bond_atom_site_label_2
_geom_bond_site_symmetry_1
_geom_bond_site_symmetry_2
Cl1 C11 1_555 1_555
Cl2 C12 1_555 1_555
Cl3 C27 1_555 1_555
Cl4 C28 1_555 1_555
C1 H1 1_555 1_555
C2 C1 1_555 1_555
H2 C2 1_555 1_555
C3 C2 1_555 1_555
H3 C3 1_555 1_555
C4 C3 1_555 1_555
H4 C4 1_555 1_555
C5 C4 1_555 1_555
H5 C5 1_555 1_555
C6 C1 1_555 1_555
C7 C6 1_555 1_555
C8 C7 1_555 1_555
H6 C8 1_555 1_555
C9 C8 1_555 1_555
C10 C9 1_555 1_555
H7 C10 1_555 1_555
C11 C10 1_555 1_555
C12 C11 1_555 1_555
C13 C12 1_555 1_555
H8 C13 1_555 1_555
C14 C9 1_555 1_555
C15 C14 1_555 1_555
H9 C15 1_555 1_555
C16 C7 1_555 1_555
C17 C16 1_555 1_555
C18 C17 1_555 1_555
H10 C18 1_555 1_555
C19 C18 1_555 1_555
H11 C19 1_555 1_555
C20 C19 1_555 1_555
H12 C20 1_555 1_555
C21 C20 1_555 1_555
H13 C21 1_555 1_555
C22 C17 1_555 1_555
C23 C22 1_555 1_555
C24 C23 1_555 1_555
H14 C24 1_555 1_555
C25 C24 1_555 1_555
C26 C25 1_555 1_555
H15 C26 1_555 1_555
C27 C26 1_555 1_555
C28 C27 1_555 1_555
C29 C28 1_555 1_555
H16 C29 1_555 1_555
C30 C25 1_555 1_555
C31 C30 1_555 1_555
H17 C31 1_555 1_555
C32 C23 1_555 1_555
C33 C32 1_555 1_555
C34 C33 1_555 1_555
H18 C34 1_555 1_555
C35 C34 1_555 1_555
H19 C35 1_555 1_555
C36 C35 1_555 1_555
H20 C36 1_555 1_555
C37 C36 1_555 1_555
H21 C37 1_555 1_555
C38 C33 1_555 1_555
H22 C38 1_555 1_555
Cl5 C49 1_555 1_555
Cl6 C50 1_555 1_555
Cl7 C65 1_555 1_555
Cl8 C66 1_555 1_555
C39 H23 1_555 1_555
C40 C39 1_555 1_555
H24 C40 1_555 1_555
C41 C40 1_555 1_555
H25 C41 1_555 1_555
C42 C41 1_555 1_555
H26 C42 1_555 1_555
C43 C42 1_555 1_555
H27 C43 1_555 1_555
C44 C39 1_555 1_555
C45 C44 1_555 1_555
C46 C45 1_555 1_555
H28 C46 1_555 1_555
C47 C46 1_555 1_555
C48 C47 1_555 1_555
H29 C48 1_555 1_555
C49 C48 1_555 1_555
C50 C49 1_555 1_555
C51 C50 1_555 1_555
H30 C51 1_555 1_555
C52 C47 1_555 1_555
C53 C52 1_555 1_555
H31 C53 1_555 1_555
C54 C45 1_555 1_555
C55 C54 1_555 1_555
C56 C55 1_555 1_555
H32 C56 1_555 1_555
C57 C56 1_555 1_555
H33 C57 1_555 1_555
C58 C57 1_555 1_555
H34 C58 1_555 1_555
C59 C58 1_555 1_555
H35 C59 1_555 1_555
C60 C55 1_555 1_555
C61 C60 1_555 1_555
C62 C61 1_555 1_555
H36 C62 1_555 1_555
C63 C62 1_555 1_555
C64 C63 1_555 1_555
H37 C64 1_555 1_555
C65 C64 1_555 1_555
C66 C65 1_555 1_555
C67 C66 1_555 1_555
H38 C67 1_555 1_555
C68 C63 1_555 1_555
C69 C68 1_555 1_555
H39 C69 1_555 1_555
C70 C61 1_555 1_555
C71 C70 1_555 1_555
C72 C71 1_555 1_555
H40 C72 1_555 1_555
C73 C72 1_555 1_555
H41 C73 1_555 1_555
C74 C73 1_555 1_555
H42 C74 1_555 1_555
C75 C74 1_555 1_555
H43 C75 1_555 1_555
C76 C71 1_555 1_555
H44 C76 1_555 1_555
C77 H45 1_555 1_555
Cl9 C77 1_555 1_555
Cl10 C77 1_555 1_555
Cl11 C77 1_555 1_555
C5 C6 1_555 1_555
C13 C14 1_555 1_555
C15 C16 1_555 1_555
C21 C22 1_555 1_555
C29 C30 1_555 1_555
C31 C32 1_555 1_555
C37 C38 1_555 1_555
C43 C44 1_555 1_555
C51 C52 1_555 1_555
C53 C54 1_555 1_555
C59 C60 1_555 1_555
C67 C68 1_555 1_555
C69 C70 1_555 1_555
C75 C76 1_555 1_555

#END
