
#######################################################################
#
#                 Cambridge Crystallographic Data Centre
#                                CCDC 
#
#######################################################################
#
# If this CIF has been generated from an entry in the Cambridge 
# Structural Database, then it will include bibliographic, chemical, 
# crystal, experimental, refinement or atomic coordinate data resulting 
# from the CCDC's data processing and validation procedures.
#
#######################################################################

data_OQUYUV
_chemical_formula_moiety         'C21 H21 Br1 Cl1 N1 O2 S1'
_chemical_name_systematic        
3-((4-Bromophenyl)sulfonyl)-1-(1-chloro-2-methylprop-1-en-1-yl)-6-phenyl-3-azabicyclo[3.1.0]hexane
_symmetry_cell_setting           monoclinic
_symmetry_space_group_name_H-M   'P 21/c'
_symmetry_Int_Tables_number      14
_space_group_name_Hall           '-P 2ybc'
loop_
_symmetry_equiv_pos_site_id
_symmetry_equiv_pos_as_xyz
1 x,y,z
2 -x,1/2+y,1/2-z
3 -x,-y,-z
4 x,1/2-y,1/2+z
_cell_length_a                   17.5595(9)
_cell_length_b                   6.2280(3)
_cell_length_c                   19.6393(10)
_cell_angle_alpha                90
_cell_angle_beta                 97.409(2)
_cell_angle_gamma                90
_cell_volume                     2129.83
_exptl_crystal_colour            colorless
_exptl_crystal_description       block
_cell_formula_units_Z            4
loop_
_atom_site_label
_atom_site_type_symbol
_atom_site_fract_x
_atom_site_fract_y
_atom_site_fract_z
S1 S 0.29856(6) 0.19811(16) 0.38789(6)
Cl1 Cl 0.28482(7) -0.38096(18) 0.16352(7)
Br1 Br 0.60238(3) -0.36456(12) 0.38762(5)
O1 O 0.3105(2) 0.4073(5) 0.36229(19)
O2 O 0.26812(18) 0.1699(5) 0.45106(15)
N1 N 0.24068(17) 0.0772(5) 0.32927(15)
C1 C -0.0114(2) -0.0472(7) 0.1710(2)
H1 H -0.0167 0.0837 0.1927
C2 C -0.0707(2) -0.1224(8) 0.1242(2)
H2 H -0.1154 -0.0417 0.1147
C3 C -0.0645(2) -0.3139(8) 0.0916(2)
H3 H -0.1044 -0.3630 0.0597
C4 C 0.0015(2) -0.4337(7) 0.1067(2)
H4 H 0.0059 -0.5653 0.0852
C5 C 0.0611(2) -0.3597(6) 0.1536(2)
H5 H 0.1052 -0.4424 0.1634
C6 C 0.0560(2) -0.1639(6) 0.18618(18)
C7 C 0.1191(2) -0.0750(6) 0.23569(18)
H6 H 0.1050 0.0509 0.2612
C8 C 0.20274(19) -0.0761(5) 0.22049(17)
C9 C 0.17787(19) -0.2190(6) 0.27525(17)
H7 H 0.1745 -0.3739 0.2667
C10 C 0.2151(2) -0.1431(6) 0.34375(19)
H8 H 0.1788 -0.1414 0.3770
H9 H 0.2584 -0.2335 0.3608
C11 C 0.2549(2) 0.0917(6) 0.25691(19)
H10 H 0.3082 0.0612 0.2526
H11 H 0.2421 0.2335 0.2384
C12 C 0.2234(2) -0.1571(5) 0.15439(19)
C13 C 0.2017(2) -0.0763(6) 0.09273(19)
C14 C 0.2216(3) -0.1726(9) 0.0271(2)
H12 H 0.2522 -0.2990 0.0373
H13 H 0.2500 -0.0701 0.0039
H14 H 0.1752 -0.2101 -0.0020
C15 C 0.1531(3) 0.1211(7) 0.0835(2)
H15 H 0.1422 0.1709 0.1275
H16 H 0.1058 0.0884 0.0552
H17 H 0.1800 0.2309 0.0620
C16 C 0.3871(2) 0.0579(6) 0.3930(2)
C17 C 0.4403(3) 0.1138(8) 0.3509(3)
H18 H 0.4328 0.2345 0.3230
C18 C 0.5049(3) -0.0103(9) 0.3504(3)
H19 H 0.5416 0.0268 0.3224
C19 C 0.5150(2) -0.1888(8) 0.3913(3)
C20 C 0.4634(3) -0.2416(8) 0.4339(3)
H20 H 0.4716 -0.3612 0.4622
C21 C 0.3983(3) -0.1172(8) 0.4351(2)
H21 H 0.3625 -0.1523 0.4643
loop_
_geom_bond_atom_site_label_1
_geom_bond_atom_site_label_2
_geom_bond_site_symmetry_1
_geom_bond_site_symmetry_2
S1 O1 1_555 1_555
Cl1 C12 1_555 1_555
Br1 C19 1_555 1_555
O2 S1 1_555 1_555
N1 S1 1_555 1_555
C1 H1 1_555 1_555
C2 C1 1_555 1_555
H2 C2 1_555 1_555
C3 C2 1_555 1_555
H3 C3 1_555 1_555
C4 C3 1_555 1_555
H4 C4 1_555 1_555
C5 C4 1_555 1_555
H5 C5 1_555 1_555
C6 C1 1_555 1_555
C7 C6 1_555 1_555
H6 C7 1_555 1_555
C8 C7 1_555 1_555
C9 C7 1_555 1_555
H7 C9 1_555 1_555
C10 N1 1_555 1_555
H8 C10 1_555 1_555
H9 C10 1_555 1_555
C11 N1 1_555 1_555
H10 C11 1_555 1_555
H11 C11 1_555 1_555
C12 C8 1_555 1_555
C13 C12 1_555 1_555
C14 C13 1_555 1_555
H12 C14 1_555 1_555
H13 C14 1_555 1_555
H14 C14 1_555 1_555
C15 C13 1_555 1_555
H15 C15 1_555 1_555
H16 C15 1_555 1_555
H17 C15 1_555 1_555
C16 S1 1_555 1_555
C17 C16 1_555 1_555
H18 C17 1_555 1_555
C18 C17 1_555 1_555
H19 C18 1_555 1_555
C19 C18 1_555 1_555
C20 C19 1_555 1_555
H20 C20 1_555 1_555
C21 C16 1_555 1_555
H21 C21 1_555 1_555
C5 C6 1_555 1_555
C8 C9 1_555 1_555
C8 C11 1_555 1_555
C9 C10 1_555 1_555
C20 C21 1_555 1_555

#END
