
#######################################################################
#
#                 Cambridge Crystallographic Data Centre
#                                CCDC 
#
#######################################################################
#
# If this CIF has been generated from an entry in the Cambridge 
# Structural Database, then it will include bibliographic, chemical, 
# crystal, experimental, refinement or atomic coordinate data resulting 
# from the CCDC's data processing and validation procedures.
#
#######################################################################

data_OQUZEH
_chemical_formula_moiety         
'C25 H34 N1 O6 1+,C17 H22 N2 S1 2+,0.7(C6 H6),3(Cl1 O4 1-),0.7(H2 O1)'
_chemical_name_systematic        
'1-(3-ammoniopropyl)-4-((E)-2-[4-(methylthio)-phenyl]vinyl)pyridinium  4-[(E)-2-(2,3,5,6,8,9,11,12,14,15-decahydro-1,4,7,10,13,16-benzohexaoxacyclooctadecin-18-yl)vinyl]-1-ethylpyridinium triperchlorate benzene solvate hydrate'
_symmetry_cell_setting           monoclinic
_symmetry_space_group_name_H-M   'C 2/c'
_symmetry_Int_Tables_number      15
_space_group_name_Hall           '-C 2yn'
loop_
_symmetry_equiv_pos_site_id
_symmetry_equiv_pos_as_xyz
1 x,y,z
2 -x,y,1/2-z
3 1/2+x,1/2+y,z
4 1/2-x,1/2+y,1/2-z
5 -x,-y,-z
6 x,-y,1/2+z
7 1/2-x,1/2-y,-z
8 1/2+x,1/2-y,1/2+z
_cell_length_a                   37.878(8)
_cell_length_b                   16.492(3)
_cell_length_c                   35.710(7)
_cell_angle_alpha                90
_cell_angle_beta                 106.404(3)
_cell_angle_gamma                90
_cell_volume                     21399.4
_exptl_crystal_colour            yellow
_exptl_crystal_description       block
_cell_formula_units_Z            16
_chemical_properties_physical    Air-sensitive,Light-sensitive
loop_
_atom_site_label
_atom_site_type_symbol
_atom_site_fract_x
_atom_site_fract_y
_atom_site_fract_z
O1 O 0.1697(3) 0.3606(7) 0.0401(3)
O2 O 0.1734(2) 0.4020(6) -0.0194(2)
Cl1 Cl 0.15251(19) 0.4083(4) 0.00951(15)
O3 O 0.1177(3) 0.3757(9) -0.0077(4)
O4 O 0.1498(5) 0.4890(6) 0.0170(4)
O7 O 0.2400(4) 0.3427(7) 0.2725(4)
Cl3 Cl 0.2539(3) 0.4146(4) 0.25597(19)
O8 O 0.2477(6) 0.4791(8) 0.2786(5)
O9 O 0.2900(3) 0.3994(13) 0.2615(6)
O10 O 0.2332(4) 0.4203(11) 0.2173(3)
O14 O 0.0855(3) 0.6352(8) 0.2511(3)
O15 O 0.1085(3) 0.5459(6) 0.3037(3)
Cl5 Cl 0.11686(15) 0.6060(3) 0.27936(13)
O16 O 0.1380(4) 0.6675(7) 0.2992(4)
O17 O 0.1377(3) 0.5652(8) 0.2572(4)
Cl7 Cl 0.14517(19) 0.9124(3) 0.00731(13)
O20 O 0.1292(4) 0.9877(6) -0.0001(4)
O21 O 0.1727(5) 0.9059(13) -0.0135(5)
O22 O 0.1642(4) 0.9011(8) 0.0471(3)
O23 O 0.1200(4) 0.8515(8) -0.0056(4)
Cl9 Cl 0.00419(12) 0.6872(3) 0.01554(12)
O28 O 0.0177(3) 0.7436(6) 0.0466(3)
O29 O -0.0189(5) 0.7285(9) -0.0158(4)
O30 O -0.0158(6) 0.6291(10) 0.0307(4)
O31 O 0.0332(4) 0.6478(14) 0.0062(6)
Cl10 Cl 0.08321(11) 0.1142(3) 0.25900(12)
O35 O 0.1007(2) 0.1088(5) 0.3004(2)
O36 O 0.0807(5) 0.0400(6) 0.2414(4)
O37 O 0.0460(3) 0.1398(12) 0.2561(5)
O38 O 0.1007(5) 0.1712(10) 0.2439(4)
O42 O -0.08035(17) 0.8370(4) 0.16608(18)
O43 O -0.1497(2) 0.8541(5) 0.1785(2)
O44 O -0.13582(19) 0.8027(4) 0.0356(2)
O45 O -0.07308(16) 0.8061(4) 0.09745(17)
N1 N 0.1447(2) 0.4861(5) 0.1302(2)
C1 C 0.1183(3) 0.5028(6) 0.0977(3)
H1 H 0.1228 0.4878 0.0737
C2 C 0.0861(3) 0.5388(7) 0.0955(3)
H2 H 0.0684 0.5465 0.0710
C3 C 0.0790(3) 0.5646(7) 0.1296(3)
C4 C 0.1062(3) 0.5464(7) 0.1636(3)
H3 H 0.1022 0.5616 0.1877
C5 C 0.1386(3) 0.5077(7) 0.1647(3)
H4 H 0.1563 0.4964 0.1888
C6 C 0.0441(3) 0.6117(6) 0.1279(3)
H5 H 0.0267 0.6197 0.1032
C7 C 0.0373(3) 0.6404(7) 0.1577(4)
H6 H 0.0542 0.6263 0.1820
C8 C 0.0069(3) 0.6924(6) 0.1599(3)
C9 C 0.0030(3) 0.7116(7) 0.1945(4)
H7 H 0.0201 0.6909 0.2173
C10 C -0.0255(3) 0.7613(7) 0.1982(3)
H8 H -0.0272 0.7750 0.2235
C11 C -0.0510(3) 0.7906(6) 0.1660(3)
C12 C -0.0473(3) 0.7733(6) 0.1287(3)
C13 C -0.0188(3) 0.7228(6) 0.1257(3)
H9 H -0.0165 0.7086 0.1007
C14 C -0.0860(3) 0.8561(7) 0.2043(3)
H10 H -0.0870 0.8053 0.2187
H11 H -0.0652 0.8891 0.2199
C15 C -0.1200(3) 0.9004(7) 0.1986(3)
H12 H -0.1231 0.9158 0.2243
H13 H -0.1191 0.9508 0.1838
C16 C -0.1833(3) 0.8873(8) 0.1782(4)
H14 H -0.1834 0.9012 0.2052
H15 H -0.1878 0.9375 0.1624
C17 C -0.2094(5) 0.8343(12) 0.1634(5)
H16 H -0.2329 0.8604 0.1635
H17 H -0.2056 0.7888 0.1822
O46 O -0.2135(9) 0.840(3) 0.1207(5)
C18 C -0.2420(7) 0.8343(19) 0.0834(7)
H18 H -0.2617 0.8718 0.0857
H19 H -0.2523 0.7790 0.0827
C19 C -0.2381(10) 0.848(3) 0.0439(9)
H20 H -0.2614 0.8303 0.0249
H21 H -0.2361 0.9073 0.0405
O47 O -0.2077(6) 0.8096(15) 0.0326(9)
C20 C -0.1942(12) 0.857(2) 0.0056(13)
H22 H -0.1865 0.9115 0.0168
H23 H -0.2139 0.8646 -0.0191
C21 C -0.1631(8) 0.816(3) -0.0021(7)
H24 H -0.1524 0.8496 -0.0192
H25 H -0.1710 0.7636 -0.0153
C22 C -0.1013(3) 0.8254(6) 0.0298(3)
H26 H -0.0984 0.8850 0.0319
H27 H -0.1007 0.8091 0.0033
C23 C -0.0710(3) 0.7860(6) 0.0591(3)
H28 H -0.0727 0.7264 0.0555
H29 H -0.0472 0.8042 0.0559
C24 C 0.1809(3) 0.4548(6) 0.1275(3)
H30 H 0.1768 0.4167 0.1053
H31 H 0.1932 0.4248 0.1517
C25 C 0.2057(3) 0.5234(7) 0.1220(3)
H32 H 0.2259 0.5012 0.1130
H33 H 0.2158 0.5516 0.1468
H34 H 0.1914 0.5615 0.1025
S1 S 0.18830(10) 0.2179(2) 0.13304(11)
N2 N -0.1470(2) 0.7603(5) 0.1095(3)
H43 H -0.1679 0.7830 0.1128
H44 H -0.1431 0.7794 0.0871
H45 H -0.1275 0.7733 0.1302
N3 N -0.0832(2) 0.5040(5) 0.1068(2)
C30 C -0.1513(3) 0.6717(6) 0.1070(3)
H46 H -0.1704 0.6570 0.0827
H47 H -0.1593 0.6516 0.1294
C31 C -0.1156(3) 0.6328(6) 0.1072(3)
H48 H -0.0966 0.6475 0.1316
H49 H -0.1075 0.6534 0.0849
C32 C -0.1193(3) 0.5392(6) 0.1043(3)
H50 H -0.1284 0.5183 0.1258
H51 H -0.1371 0.5239 0.0793
C33 C -0.0738(3) 0.4879(7) 0.0736(4)
H52 H -0.0909 0.5006 0.0493
C34 C -0.0406(4) 0.4542(8) 0.0734(4)
H53 H -0.0350 0.4453 0.0495
C35 C -0.0165(3) 0.4340(7) 0.1072(3)
C36 C -0.0252(3) 0.4500(7) 0.1421(3)
H54 H -0.0085 0.4361 0.1665
C37 C -0.0591(3) 0.4871(7) 0.1404(3)
H55 H -0.0647 0.5002 0.1640
C38 C 0.0189(3) 0.3945(7) 0.1055(4)
H56 H 0.0224 0.3862 0.0805
C39 C 0.0437(3) 0.3720(8) 0.1342(4)
H57 H 0.0399 0.3811 0.1591
C40 C 0.0791(3) 0.3319(7) 0.1338(3)
C41 C 0.1036(3) 0.3092(7) 0.1673(4)
H58 H 0.0972 0.3160 0.1910
C42 C 0.1369(3) 0.2771(7) 0.1691(4)
H59 H 0.1541 0.2671 0.1938
C43 C 0.1460(3) 0.2588(6) 0.1350(3)
C44 C 0.1217(3) 0.2780(7) 0.0998(4)
H60 H 0.1277 0.2671 0.0762
C45 C 0.0867(3) 0.3152(7) 0.0987(3)
H61 H 0.0693 0.3278 0.0745
C46 C 0.2124(5) 0.1991(11) 0.1792(5)
H62 H 0.2379 0.1864 0.1802
H63 H 0.2014 0.1529 0.1891
H64 H 0.2118 0.2470 0.1953
O50 O 0.1767(2) 0.6850(4) 0.1812(2)
O51 O 0.2524(3) 0.6659(6) 0.2039(3)
O52 O 0.3006(5) 0.7014(11) 0.1582(6)
O53 O 0.2594(4) 0.6714(9) 0.0789(5)
O54 O 0.1778(3) 0.7025(6) 0.0533(3)
O55 O 0.13986(19) 0.7046(4) 0.1091(2)
N4 N -0.0706(2) 1.0310(5) 0.1136(2)
C47 C -0.0559(3) 1.0120(7) 0.0849(4)
H65 H -0.0671 1.0222 0.0580
C48 C -0.0519(3) 1.0196(7) 0.1508(4)
H66 H -0.0660 1.0331 0.1681
C49 C -0.0195(5) 0.9725(11) 0.1013(7)
H67 H -0.0074 0.9508 0.0835
C50 C -0.0017(5) 0.9655(12) 0.1416(6)
C51 C -0.0194(6) 0.9949(15) 0.1690(8)
H68 H -0.0089 0.9961 0.1965
C52 C 0.0332(6) 0.9200(14) 0.1550(7)
H69 H 0.0464 0.9259 0.1817
C53 C 0.0466(6) 0.8770(13) 0.1361(8)
H70 H 0.0356 0.8720 0.1088
C54 C 0.0829(3) 0.8279(8) 0.1564(4)
C55 C 0.1026(3) 0.8136(8) 0.1933(4)
H71 H 0.0946 0.8375 0.2137
C56 C 0.1337(4) 0.7665(8) 0.2035(4)
H72 H 0.1465 0.7585 0.2302
C57 C 0.1467(3) 0.7303(6) 0.1744(3)
C58 C 0.1262(3) 0.7417(6) 0.1357(3)
C59 C 0.0957(3) 0.7889(7) 0.1259(3)
H73 H 0.0826 0.7965 0.0993
C60 C 0.1990(4) 0.6754(9) 0.2211(4)
H74 H 0.1844 0.6484 0.2365
H75 H 0.2065 0.7293 0.2328
C61 C 0.2323(4) 0.6260(9) 0.2228(4)
H76 H 0.2467 0.6172 0.2503
H77 H 0.2251 0.5725 0.2104
C62 C 0.2903(6) 0.6337(14) 0.2060(7)
H78 H 0.3022 0.6152 0.2330
H79 H 0.2876 0.5859 0.1886
C63 C 0.3127(8) 0.6888(17) 0.1957(9)
H80 H 0.3127 0.7403 0.2099
H81 H 0.3382 0.6679 0.2024
C64 C 0.3118(7) 0.6579(17) 0.1328(8)
H82 H 0.3053 0.6005 0.1355
H83 H 0.3390 0.6612 0.1396
C65 C 0.2977(4) 0.6798(10) 0.0941(5)
H84 H 0.3098 0.6463 0.0782
H85 H 0.3043 0.7370 0.0912
C66 C 0.2383(4) 0.6963(10) 0.0439(5)
H86 H 0.2515 0.6815 0.0246
H87 H 0.2377 0.7562 0.0447
C67 C 0.2004(5) 0.6695(13) 0.0279(6)
H88 H 0.1994 0.6095 0.0274
H89 H 0.1905 0.6896 0.0008
C68 C 0.1453(4) 0.6793(9) 0.0444(4)
H90 H 0.1448 0.6200 0.0487
H91 H 0.1338 0.6896 0.0162
C69 C 0.1215(4) 0.7242(8) 0.0693(4)
H92 H 0.1212 0.7835 0.0651
H93 H 0.0959 0.7039 0.0618
C70 C -0.1084(3) 1.0603(6) 0.1046(3)
H94 H -0.1134 1.0965 0.0816
H95 H -0.1113 1.0924 0.1269
C71 C -0.1358(3) 0.9921(6) 0.0964(3)
H96 H -0.1608 1.0145 0.0890
H97 H -0.1321 0.9585 0.1198
H98 H -0.1323 0.9590 0.0749
S2 S -0.10908(8) 1.29725(19) 0.11699(9)
N5 N 0.2207(3) 0.7470(6) 0.1305(3)
H103 H 0.2419 0.7212 0.1303
H104 H 0.2023 0.7319 0.1092
H105 H 0.2146 0.7334 0.1526
N6 N 0.1604(2) 1.0054(5) 0.1315(2)
C77 C 0.2262(3) 0.8360(7) 0.1297(4)
H106 H 0.2308 0.8523 0.1048
H107 H 0.2475 0.8527 0.1515
C78 C 0.1902(3) 0.8767(6) 0.1338(3)
H108 H 0.1689 0.8599 0.1120
H109 H 0.1857 0.8605 0.1587
C79 C 0.1958(3) 0.9701(7) 0.1328(3)
H110 H 0.2149 0.9884 0.1565
H111 H 0.2034 0.9859 0.1095
C80 C 0.1502(3) 1.0162(7) 0.1635(4)
H112 H 0.1663 0.9986 0.1877
C81 C 0.1185(4) 1.0507(9) 0.1637(4)
H113 H 0.1135 1.0574 0.1881
C82 C 0.0937(4) 1.0761(9) 0.1321(5)
C83 C 0.1036(4) 1.0642(10) 0.0993(5)
H114 H 0.0871 1.0809 0.0752
C84 C 0.1364(4) 1.0292(8) 0.0984(4)
H115 H 0.1419 1.0221 0.0742
C85 C 0.0605(5) 1.1116(10) 0.1425(5)
H116 H 0.0591 1.1101 0.1686
C86 C 0.0340(5) 1.1439(10) 0.1149(6)
H117 H 0.0362 1.1425 0.0890
C87 C -0.1106(6) 1.3176(14) 0.1637(6)
H118 H -0.1345 1.3416 0.1629
H119 H -0.0909 1.3556 0.1761
H120 H -0.1073 1.2671 0.1788
C88 C 0.0017(3) 1.1817(7) 0.1209(3)
C89 C -0.0237(3) 1.2041(6) 0.0861(3)
H121 H -0.0178 1.1958 0.0623
C90 C -0.0562(3) 1.2371(6) 0.0853(3)
H122 H -0.0728 1.2500 0.0607
C91 C -0.0668(3) 1.2536(6) 0.1186(3)
C92 C -0.0409(3) 1.2334(6) 0.1543(3)
H123 H -0.0461 1.2447 0.1783
C93 C -0.0081(3) 1.1973(7) 0.1544(3)
H124 H 0.0085 1.1826 0.1787
C97 C 0.0373(5) 1.0026(10) 0.0095(5)
H130 H 0.0631 1.0037 0.0132
C98 C 0.0192(5) 0.9293(11) 0.0080(5)
H131 H 0.0329 0.8813 0.0167
C99 C -0.0175(4) 0.9253(9) -0.0056(4)
H132 H -0.0297 0.8748 -0.0125
C97D C -0.0373(5) 0.9974(10) -0.0095(5)
H130D H -0.0631 0.9963 -0.0132
C98D C -0.0192(5) 1.0707(11) -0.0080(5)
H131D H -0.0329 1.1187 -0.0167
C99D C 0.0175(4) 1.0747(9) 0.0056(4)
H132D H 0.0297 1.1252 0.0125
C100 C 0.0179(3) 0.3491(11) 0.2493(7)
H133 H 0.0301 0.2994 0.2478
C101 C 0.0364(4) 0.4229(12) 0.2500(10)
H134 H 0.0613 0.4233 0.2496
C102 C 0.0187(3) 0.4930(10) 0.2511(6)
H135 H 0.0317 0.5429 0.2533
C100A C -0.0179(3) 0.3491(11) 0.2507(7)
H133A H -0.0301 0.2994 0.2522
C101A C -0.0364(4) 0.4229(12) 0.2500(10)
H134A H -0.0613 0.4233 0.2504
C102A C -0.0187(3) 0.4930(10) 0.2489(6)
H135A H -0.0317 0.5429 0.2467
C107 C 0.2822(6) 0.0495(14) 0.1366(5)
H140 H 0.2832 0.0809 0.1592
C108 C 0.2616(5) 0.0765(10) 0.1001(7)
H141 H 0.2486 0.1263 0.0977
C109 C 0.2602(5) 0.0305(13) 0.0670(5)
H142 H 0.2461 0.0490 0.0421
C110 C 0.2793(7) -0.0423(13) 0.0705(6)
H143 H 0.2782 -0.0737 0.0479
C111 C 0.2998(6) -0.0692(11) 0.1070(8)
H144 H 0.3129 -0.1190 0.1094
C112 C 0.3013(6) -0.0233(15) 0.1401(6)
H145 H 0.3154 -0.0417 0.1650
O61 O 0.0000 -0.0116(19) 0.2500
Cl2? Cl 0.1649(3) 0.4319(6) 0.0118(2)
O5? O 0.1932(6) 0.4820(11) 0.0341(5)
O6? O 0.1313(5) 0.4614(14) 0.0085(6)
Cl4? Cl 0.2401(3) 0.4098(5) 0.2524(2)
O11? O 0.2375(8) 0.3909(16) 0.2124(4)
O12? O 0.2106(5) 0.4614(12) 0.2514(7)
O13? O 0.2734(5) 0.4561(11) 0.2649(6)
Cl6? Cl 0.1090(4) 0.6176(7) 0.2841(3)
O18? O 0.1029(10) 0.6785(11) 0.3127(6)
O19? O 0.1464(4) 0.6321(18) 0.2857(8)
Cl8? Cl 0.1642(4) 0.9105(5) 0.0062(2)
O24? O 0.1369(6) 0.9699(13) 0.0048(8)
O25? O 0.1822(6) 0.8916(12) 0.0445(4)
O26? O 0.1892(6) 0.9436(14) -0.0119(6)
O27? O 0.1470(6) 0.8430(9) -0.0150(5)
O32? O -0.0289(5) 0.7149(16) -0.0095(6)
O33? O 0.0013(11) 0.6099(9) 0.0279(7)
O34? O 0.0318(5) 0.690(2) -0.0052(6)
O39? O 0.0687(9) 0.1899(10) 0.2489(6)
O40? O 0.1147(5) 0.106(2) 0.2436(6)
O41? O 0.0610(6) 0.0508(11) 0.2470(5)
O48? O -0.2151(4) 0.7998(10) 0.1269(4)
C26? C -0.2300(7) 0.8628(13) 0.0992(7)
H35? H -0.2117 0.9064 0.1007
H36? H -0.2523 0.8865 0.1040
C27? C -0.2388(5) 0.8224(14) 0.0614(8)
H37? H -0.2602 0.8478 0.0423
H38? H -0.2435 0.7638 0.0635
O49? O -0.2039(3) 0.8378(9) 0.0516(4)
C28? C -0.2014(5) 0.8003(12) 0.0148(6)
H39? H -0.1995 0.7406 0.0175
H40? H -0.2234 0.8137 -0.0069
C29? C -0.1684(4) 0.8339(14) 0.0077(6)
H41? H -0.1678 0.8199 -0.0190
H42? H -0.1688 0.8938 0.0098
C72? C -0.0256(6) 0.9751(13) 0.0828(8)
H99? H -0.0195 0.9647 0.0592
C73? C -0.0037(5) 0.9531(11) 0.1202(6)
C74? C -0.0171(6) 0.9712(14) 0.1524(7)
H100? H -0.0032 0.9516 0.1772
C75? C 0.0307(6) 0.9062(14) 0.1230(7)
H101? H 0.0372 0.8941 0.0998
C76? C 0.0539(6) 0.8793(14) 0.1591(8)
H102? H 0.0502 0.8945 0.1834
C94? C 0.0556(8) 1.1193(16) 0.1119(8)
H125? H 0.0459 1.1274 0.0845
C95? C 0.0393(8) 1.1423(16) 0.1378(9)
H126? H 0.0500 1.1350 0.1650
C96? C -0.1342(9) 1.311(2) 0.0709(10)
H127? H -0.1393 1.2585 0.0577
H128? H -0.1206 1.3454 0.0574
H129? H -0.1574 1.3375 0.0706
C103? C 0.0000 0.3233(16) 0.2500
H136? H 0.0000 0.2657 0.2500
C104? C 0.0310(5) 0.3650(17) 0.2482(13)
H137? H 0.0517 0.3365 0.2449
C105? C 0.0319(6) 0.4482(19) 0.251(3)
H138? H 0.0543 0.4767 0.2544
C106? C 0.0000 0.4899(19) 0.2500
H139? H 0.0000 0.5475 0.2500
O56? O 0.2513(7) 0.0740(18) 0.0778(9)
O57? O 0.2623(12) -0.035(3) 0.0455(14)
O58? O 0.2958(12) 0.019(3) 0.1603(13)
O59? O 0.3163(8) -0.0961(17) 0.1355(9)
O60? O 0.3317(10) -0.110(2) 0.1660(12)
loop_
_geom_bond_atom_site_label_1
_geom_bond_atom_site_label_2
_geom_bond_site_symmetry_1
_geom_bond_site_symmetry_2
O1 Cl1 1_555 1_555
O2 Cl1 1_555 1_555
Cl1 O3 1_555 1_555
O4 Cl1 1_555 1_555
O7 Cl3 1_555 1_555
Cl3 O8 1_555 1_555
O9 Cl3 1_555 1_555
O10 Cl3 1_555 1_555
O14 Cl5 1_555 1_555
O15 Cl5 1_555 1_555
Cl5 O16 1_555 1_555
O17 Cl5 1_555 1_555
Cl7 O20 1_555 1_555
O21 Cl7 1_555 1_555
O22 Cl7 1_555 1_555
O23 Cl7 1_555 1_555
Cl9 O28 1_555 1_555
O29 Cl9 1_555 1_555
O30 Cl9 1_555 1_555
O31 Cl9 1_555 1_555
Cl10 O35 1_555 1_555
O36 Cl10 1_555 1_555
O37 Cl10 1_555 1_555
O38 Cl10 1_555 1_555
O42 C11 1_555 1_555
O43 C15 1_555 1_555
O44 C21 1_555 1_555
O45 C12 1_555 1_555
N1 C1 1_555 1_555
C1 H1 1_555 1_555
C2 C1 1_555 1_555
H2 C2 1_555 1_555
C3 C2 1_555 1_555
C4 C3 1_555 1_555
H3 C4 1_555 1_555
C5 N1 1_555 1_555
H4 C5 1_555 1_555
C6 C3 1_555 1_555
H5 C6 1_555 1_555
C7 C6 1_555 1_555
H6 C7 1_555 1_555
C8 C7 1_555 1_555
C9 C8 1_555 1_555
H7 C9 1_555 1_555
C10 C9 1_555 1_555
H8 C10 1_555 1_555
C11 C10 1_555 1_555
C12 C11 1_555 1_555
C13 C8 1_555 1_555
H9 C13 1_555 1_555
C14 O42 1_555 1_555
H10 C14 1_555 1_555
H11 C14 1_555 1_555
C15 C14 1_555 1_555
H12 C15 1_555 1_555
H13 C15 1_555 1_555
C16 O43 1_555 1_555
H14 C16 1_555 1_555
H15 C16 1_555 1_555
C17 C16 1_555 1_555
H16 C17 1_555 1_555
H17 C17 1_555 1_555
O46 C17 1_555 1_555
C18 O46 1_555 1_555
H18 C18 1_555 1_555
H19 C18 1_555 1_555
C19 C18 1_555 1_555
H20 C19 1_555 1_555
H21 C19 1_555 1_555
O47 C19 1_555 1_555
C20 O47 1_555 1_555
H22 C20 1_555 1_555
H23 C20 1_555 1_555
C21 C20 1_555 1_555
H24 C21 1_555 1_555
H25 C21 1_555 1_555
C22 O44 1_555 1_555
H26 C22 1_555 1_555
H27 C22 1_555 1_555
C23 O45 1_555 1_555
H28 C23 1_555 1_555
H29 C23 1_555 1_555
C24 N1 1_555 1_555
H30 C24 1_555 1_555
H31 C24 1_555 1_555
C25 C24 1_555 1_555
H32 C25 1_555 1_555
H33 C25 1_555 1_555
H34 C25 1_555 1_555
S1 C43 1_555 1_555
N2 H43 1_555 1_555
H44 N2 1_555 1_555
H45 N2 1_555 1_555
N3 C32 1_555 1_555
C30 N2 1_555 1_555
H46 C30 1_555 1_555
H47 C30 1_555 1_555
C31 C30 1_555 1_555
H48 C31 1_555 1_555
H49 C31 1_555 1_555
C32 C31 1_555 1_555
H50 C32 1_555 1_555
H51 C32 1_555 1_555
C33 N3 1_555 1_555
H52 C33 1_555 1_555
C34 C33 1_555 1_555
H53 C34 1_555 1_555
C35 C34 1_555 1_555
C36 C35 1_555 1_555
H54 C36 1_555 1_555
C37 N3 1_555 1_555
H55 C37 1_555 1_555
C38 C35 1_555 1_555
H56 C38 1_555 1_555
C39 C38 1_555 1_555
H57 C39 1_555 1_555
C40 C39 1_555 1_555
C41 C40 1_555 1_555
H58 C41 1_555 1_555
C42 C41 1_555 1_555
H59 C42 1_555 1_555
C43 C42 1_555 1_555
C44 C43 1_555 1_555
H60 C44 1_555 1_555
C45 C40 1_555 1_555
H61 C45 1_555 1_555
C46 S1 1_555 1_555
H62 C46 1_555 1_555
H63 C46 1_555 1_555
H64 C46 1_555 1_555
O50 C57 1_555 1_555
O51 C61 1_555 1_555
O52 C63 1_555 1_555
O53 C65 1_555 1_555
O54 C67 1_555 1_555
O55 C58 1_555 1_555
N4 C47 1_555 1_555
C47 H65 1_555 1_555
C48 N4 1_555 1_555
H66 C48 1_555 1_555
C49 C47 1_555 1_555
H67 C49 1_555 1_555
C50 C49 1_555 1_555
C51 C48 1_555 1_555
H68 C51 1_555 1_555
C52 C50 1_555 1_555
H69 C52 1_555 1_555
C53 C52 1_555 1_555
H70 C53 1_555 1_555
C54 C53 1_555 1_555
C55 C54 1_555 1_555
H71 C55 1_555 1_555
C56 C55 1_555 1_555
H72 C56 1_555 1_555
C57 C56 1_555 1_555
C58 C57 1_555 1_555
C59 C54 1_555 1_555
H73 C59 1_555 1_555
C60 O50 1_555 1_555
H74 C60 1_555 1_555
H75 C60 1_555 1_555
C61 C60 1_555 1_555
H76 C61 1_555 1_555
H77 C61 1_555 1_555
C62 O51 1_555 1_555
H78 C62 1_555 1_555
H79 C62 1_555 1_555
C63 C62 1_555 1_555
H80 C63 1_555 1_555
H81 C63 1_555 1_555
C64 O52 1_555 1_555
H82 C64 1_555 1_555
H83 C64 1_555 1_555
C65 C64 1_555 1_555
H84 C65 1_555 1_555
H85 C65 1_555 1_555
C66 O53 1_555 1_555
H86 C66 1_555 1_555
H87 C66 1_555 1_555
C67 C66 1_555 1_555
H88 C67 1_555 1_555
H89 C67 1_555 1_555
C68 O54 1_555 1_555
H90 C68 1_555 1_555
H91 C68 1_555 1_555
C69 O55 1_555 1_555
H92 C69 1_555 1_555
H93 C69 1_555 1_555
C70 N4 1_555 1_555
H94 C70 1_555 1_555
H95 C70 1_555 1_555
C71 C70 1_555 1_555
H96 C71 1_555 1_555
H97 C71 1_555 1_555
H98 C71 1_555 1_555
S2 C87 1_555 1_555
N5 H103 1_555 1_555
H104 N5 1_555 1_555
H105 N5 1_555 1_555
N6 C79 1_555 1_555
C77 N5 1_555 1_555
H106 C77 1_555 1_555
H107 C77 1_555 1_555
C78 C77 1_555 1_555
H108 C78 1_555 1_555
H109 C78 1_555 1_555
C79 C78 1_555 1_555
H110 C79 1_555 1_555
H111 C79 1_555 1_555
C80 N6 1_555 1_555
H112 C80 1_555 1_555
C81 C80 1_555 1_555
H113 C81 1_555 1_555
C82 C81 1_555 1_555
C83 C82 1_555 1_555
H114 C83 1_555 1_555
C84 N6 1_555 1_555
H115 C84 1_555 1_555
C85 C82 1_555 1_555
H116 C85 1_555 1_555
C86 C85 1_555 1_555
H117 C86 1_555 1_555
C87 H118 1_555 1_555
H119 C87 1_555 1_555
H120 C87 1_555 1_555
C88 C86 1_555 1_555
C89 C88 1_555 1_555
H121 C89 1_555 1_555
C90 C89 1_555 1_555
H122 C90 1_555 1_555
C91 S2 1_555 1_555
C92 C91 1_555 1_555
H123 C92 1_555 1_555
C93 C88 1_555 1_555
H124 C93 1_555 1_555
C97 H130 1_555 1_555
C98 C97 1_555 1_555
H131 C98 1_555 1_555
C99 C98 1_555 1_555
H132 C99 1_555 1_555
C100 H133 1_555 1_555
C101 C100 1_555 1_555
H134 C101 1_555 1_555
C102 C101 1_555 1_555
H135 C102 1_555 1_555
C107 H140 1_555 1_555
C108 C107 1_555 1_555
H141 C108 1_555 1_555
C109 C108 1_555 1_555
H142 C109 1_555 1_555
C110 C109 1_555 1_555
H143 C110 1_555 1_555
C111 C110 1_555 1_555
H144 C111 1_555 1_555
C112 C107 1_555 1_555
H145 C112 1_555 1_555
C97D C99 1_555 1_555
H130D C97D 1_555 1_555
C98D C97D 1_555 1_555
H131D C98D 1_555 1_555
C99D C97 1_555 1_555
H132D C99D 1_555 1_555
C100A C100 1_555 1_555
H133A C100A 1_555 1_555
C101A C100A 1_555 1_555
H134A C101A 1_555 1_555
C102A C102 1_555 1_555
H135A C102A 1_555 1_555
C4 C5 1_555 1_555
C12 C13 1_555 1_555
C22 C23 1_555 1_555
C36 C37 1_555 1_555
C44 C45 1_555 1_555
C50 C51 1_555 1_555
C58 C59 1_555 1_555
C68 C69 1_555 1_555
C83 C84 1_555 1_555
C90 C91 1_555 1_555
C92 C93 1_555 1_555
C111 C112 1_555 1_555
C98D C99D 1_555 1_555
C101A C102A 1_555 1_555

#END
