
#######################################################################
#
#                 Cambridge Crystallographic Data Centre
#                                CCDC 
#
#######################################################################
#
# If this CIF has been generated from an entry in the Cambridge 
# Structural Database, then it will include bibliographic, chemical, 
# crystal, experimental, refinement or atomic coordinate data resulting 
# from the CCDC's data processing and validation procedures.
#
#######################################################################

data_ORACUH
_chemical_formula_moiety         'C11 H8 O2,C6 Br2 F4'
_chemical_name_systematic        
'2-methyl-1,4-naphthoquinone 1,4-dibromo-2,3,5,6-tetrafluorobenzene'
_symmetry_cell_setting           triclinic
_symmetry_space_group_name_H-M   'P -1'
_symmetry_Int_Tables_number      2
_space_group_name_Hall           '-P 1'
loop_
_symmetry_equiv_pos_site_id
_symmetry_equiv_pos_as_xyz
1 x,y,z
2 -x,-y,-z
_cell_length_a                   3.8981(3)
_cell_length_b                   13.3018(10)
_cell_length_c                   15.2307(11)
_cell_angle_alpha                93.626(3)
_cell_angle_beta                 96.888(3)
_cell_angle_gamma                93.357(4)
_cell_volume                     780.723
_exptl_crystal_colour            yellow
_exptl_crystal_description       prism
_cell_formula_units_Z            2
loop_
_atom_site_label
_atom_site_type_symbol
_atom_site_fract_x
_atom_site_fract_y
_atom_site_fract_z
Br1 Br 0.11532(5) 0.44333(2) 0.79418(2)
F1 F 0.2356(3) 0.68439(8) 1.07766(7)
F2 F 0.3234(3) 0.63762(8) 0.90838(7)
C1 C 0.1167(5) 0.59341(13) 1.03996(12)
C2 C 0.0462(5) 0.47576(14) 0.91176(11)
C3 C 0.1614(5) 0.56934(13) 0.95279(12)
Br1A Br -0.11532(5) 0.55667(2) 1.20582(2)
F1A F -0.2356(3) 0.31561(8) 0.92234(7)
F2A F -0.3234(3) 0.36238(8) 1.09162(7)
C1A C -0.1167(5) 0.40659(13) 0.96004(12)
C2A C -0.0462(5) 0.52424(14) 1.08824(11)
C3A C -0.1614(5) 0.43066(13) 1.04721(12)
Br2 Br 0.81159(5) 0.08647(2) 0.19305(2)
F3 F 1.1493(3) 0.19752(8) 0.05328(7)
F4 F 0.7036(3) -0.12787(9) 0.10549(7)
C4 C 0.9206(5) 0.03674(14) 0.08290(11)
C5 C 1.0722(5) 0.10030(14) 0.02764(12)
C6 C 0.8514(5) -0.06376(14) 0.05412(12)
Br2A Br 1.18841(5) -0.08647(2) -0.19305(2)
F3A F 0.8507(3) -0.19752(8) -0.05328(7)
F4A F 1.2964(3) 0.12787(9) -0.10549(7)
C4A C 1.0794(5) -0.03674(14) -0.08290(11)
C5A C 0.9278(5) -0.10030(14) -0.02764(12)
C6A C 1.1486(5) 0.06376(14) -0.05412(12)
O1 O 0.2287(4) 0.41389(10) 0.60855(9)
O2 O 0.6756(4) 0.16149(11) 0.36658(9)
C7 C 0.6010(5) 0.19314(14) 0.51704(12)
C8 C 0.6634(5) 0.14552(16) 0.69270(13)
H1 H 0.6864 0.1298 0.7517
C9 C 0.7372(5) 0.10350(15) 0.54025(13)
H2 H 0.8093 0.0596 0.4972
C10 C 0.7659(5) 0.07914(15) 0.62853(13)
H3 H 0.8538 0.0184 0.6443
C11 C 0.4914(5) 0.26031(14) 0.58169(12)
C12 C 0.4237(5) 0.31451(14) 0.39805(12)
C13 C 0.4056(5) 0.33623(16) 0.30277(13)
H4 H 0.3138 0.4009 0.2948
H5 H 0.2577 0.2850 0.2673
H6 H 0.6336 0.3368 0.2849
C14 C 0.5732(5) 0.21832(14) 0.42263(13)
C15 C 0.3380(5) 0.35429(14) 0.55546(13)
C16 C 0.5257(5) 0.23596(15) 0.66913(13)
H7 H 0.4566 0.2801 0.7125
C17 C 0.3133(5) 0.37629(14) 0.45997(13)
H8 H 0.2170 0.4354 0.4428
loop_
_geom_bond_atom_site_label_1
_geom_bond_atom_site_label_2
_geom_bond_site_symmetry_1
_geom_bond_site_symmetry_2
Br1 C2 1_555 1_555
F1 C1 1_555 1_555
F2 C3 1_555 1_555
C1 C3 1_555 1_555
C2 C3 1_555 1_555
Br2 C4 1_555 1_555
F3 C5 1_555 1_555
F4 C6 1_555 1_555
C4 C5 1_555 1_555
C5 C6A 1_555 1_555
C6 C4 1_555 1_555
O1 C15 1_555 1_555
O2 C14 1_555 1_555
C7 C9 1_555 1_555
C8 H1 1_555 1_555
C9 H2 1_555 1_555
C10 C8 1_555 1_555
H3 C10 1_555 1_555
C11 C7 1_555 1_555
C12 C13 1_555 1_555
C13 H4 1_555 1_555
H5 C13 1_555 1_555
H6 C13 1_555 1_555
C14 C7 1_555 1_555
C15 C11 1_555 1_555
C16 C8 1_555 1_555
H7 C16 1_555 1_555
C17 C12 1_555 1_555
H8 C17 1_555 1_555
Br1A C2A 1_555 1_555
F1A C1A 1_555 1_555
F2A C3A 1_555 1_555
C1A C2 1_555 1_555
C2A C1 1_555 1_555
C3A C1A 1_555 1_555
Br2A C4A 1_555 1_555
F3A C5A 1_555 1_555
F4A C6A 1_555 1_555
C4A C5A 1_555 1_555
C5A C6 1_555 1_555
C6A C4A 1_555 1_555
C9 C10 1_555 1_555
C11 C16 1_555 1_555
C12 C14 1_555 1_555
C15 C17 1_555 1_555
C2A C3A 1_555 1_555

#END
