
#######################################################################
#
#                 Cambridge Crystallographic Data Centre
#                                CCDC 
#
#######################################################################
#
# If this CIF has been generated from an entry in the Cambridge 
# Structural Database, then it will include bibliographic, chemical, 
# crystal, experimental, refinement or atomic coordinate data resulting 
# from the CCDC's data processing and validation procedures.
#
#######################################################################

data_ORADAO
_chemical_formula_moiety         'C11 H8 O2,C6 F4 I2'
_chemical_name_systematic        
'2-methyl-1,4-naphthoquinone 1,2,4,5-tetrafluoro-3,6-diiodobenzene'
_symmetry_cell_setting           monoclinic
_symmetry_space_group_name_H-M   'P 21/n'
_symmetry_Int_Tables_number      14
_space_group_name_Hall           '-P 2yn'
loop_
_symmetry_equiv_pos_site_id
_symmetry_equiv_pos_as_xyz
1 x,y,z
2 1/2-x,1/2+y,1/2-z
3 -x,-y,-z
4 1/2+x,1/2-y,1/2+z
_cell_length_a                   17.0631(12)
_cell_length_b                   4.1837(3)
_cell_length_c                   24.5252(19)
_cell_angle_alpha                90
_cell_angle_beta                 100.088(5)
_cell_angle_gamma                90
_cell_volume                     1723.71
_exptl_crystal_colour            yellow
_exptl_crystal_description       block
_cell_formula_units_Z            4
loop_
_atom_site_label
_atom_site_type_symbol
_atom_site_fract_x
_atom_site_fract_y
_atom_site_fract_z
I1 I -0.06978(2) 1.15275(8) 0.15194(2)
I2 I 0.30180(2) 0.61075(8) 0.11132(2)
F1 F 0.10357(15) 1.2176(8) 0.22293(11)
F2 F -0.01352(16) 0.7737(9) 0.05132(13)
F3 F 0.24528(14) 1.0061(8) 0.20794(11)
F4 F 0.12906(18) 0.5637(9) 0.03629(13)
C1 C 0.0500(3) 0.8349(12) 0.0903(2)
C2 C 0.0410(2) 1.0000(11) 0.13743(19)
C3 C 0.1081(3) 1.0545(11) 0.17676(19)
C4 C 0.1817(2) 0.9452(11) 0.16889(19)
C5 C 0.1907(2) 0.7781(11) 0.12171(19)
C6 C 0.1237(3) 0.7266(12) 0.0826(2)
C7 C 0.7176(3) 0.8318(14) 0.0367(2)
H1 H 0.7573 0.9188 0.0183
C8 C 0.7403(3) 0.6698(12) 0.0866(2)
H2 H 0.7950 0.6464 0.1020
C9 C 0.6830(3) 0.5439(12) 0.1134(2)
C10 C 0.7059(3) 0.3726(12) 0.1664(2)
C11 C 0.6411(3) 0.2514(13) 0.1944(2)
H3 H 0.6555 0.1453 0.2289
C12 C 0.5634(3) 0.2844(12) 0.1734(2)
C13 C 0.4987(3) 0.1611(14) 0.2007(2)
H4 H 0.5218 0.0473 0.2347
H5 H 0.4651 0.0144 0.1756
H6 H 0.4664 0.3401 0.2100
C14 C 0.6386(3) 0.8680(13) 0.0137(2)
H7 H 0.6238 0.9783 -0.0204
C15 C 0.5801(3) 0.7408(12) 0.0409(2)
H8 H 0.5254 0.7638 0.0252
C16 C 0.6013(3) 0.5839(11) 0.09010(19)
C17 C 0.5397(3) 0.4476(12) 0.11915(19)
O1 O 0.46942(18) 0.4698(10) 0.09848(14)
O2 O 0.77521(18) 0.3248(10) 0.18674(15)
loop_
_geom_bond_atom_site_label_1
_geom_bond_atom_site_label_2
_geom_bond_site_symmetry_1
_geom_bond_site_symmetry_2
I1 C2 1_555 1_555
I2 C5 1_555 1_555
F1 C3 1_555 1_555
F2 C1 1_555 1_555
F3 C4 1_555 1_555
F4 C6 1_555 1_555
C1 C2 1_555 1_555
C2 C3 1_555 1_555
C3 C4 1_555 1_555
C4 C5 1_555 1_555
C5 C6 1_555 1_555
C6 C1 1_555 1_555
C7 H1 1_555 1_555
C8 C7 1_555 1_555
H2 C8 1_555 1_555
C9 C8 1_555 1_555
C10 C9 1_555 1_555
C11 C10 1_555 1_555
H3 C11 1_555 1_555
C12 C11 1_555 1_555
C13 C12 1_555 1_555
H4 C13 1_555 1_555
H5 C13 1_555 1_555
H6 C13 1_555 1_555
C14 C7 1_555 1_555
H7 C14 1_555 1_555
C15 C14 1_555 1_555
H8 C15 1_555 1_555
C16 C9 1_555 1_555
C17 C12 1_555 1_555
O1 C17 1_555 1_555
O2 C10 1_555 1_555
C15 C16 1_555 1_555
C16 C17 1_555 1_555

#END
