
#######################################################################
#
#                 Cambridge Crystallographic Data Centre
#                                CCDC 
#
#######################################################################
#
# If this CIF has been generated from an entry in the Cambridge 
# Structural Database, then it will include bibliographic, chemical, 
# crystal, experimental, refinement or atomic coordinate data resulting 
# from the CCDC's data processing and validation procedures.
#
#######################################################################

data_ORAFEU
_chemical_name_common            
14,15-Diphenoxy-9,10-dihydro-9,10-[1,2]benzenoanthracene-13,16-dione
_chemical_formula_moiety         'C32 H20 O4'
_chemical_name_systematic        
4,5-diphenoxypentacyclo[6.6.6.0^2,7^.0^9,14^.0^15,20^]icosa-2(7),4,9,11,13,15,17,19-octaene-3,6-dione
_symmetry_cell_setting           monoclinic
_symmetry_space_group_name_H-M   'P 21/c'
_symmetry_Int_Tables_number      14
_space_group_name_Hall           '-P 2ybc'
loop_
_symmetry_equiv_pos_site_id
_symmetry_equiv_pos_as_xyz
1 x,y,z
2 -x,1/2+y,1/2-z
3 -x,-y,-z
4 x,1/2-y,1/2+z
_cell_length_a                   20.752(3)
_cell_length_b                   10.3913(16)
_cell_length_c                   27.600(3)
_cell_angle_alpha                90
_cell_angle_beta                 129.107(7)
_cell_angle_gamma                90
_cell_volume                     4618.31
_exptl_crystal_colour            'dark orange'
_exptl_crystal_description       plate
_cell_formula_units_Z            8
loop_
_atom_site_label
_atom_site_type_symbol
_atom_site_fract_x
_atom_site_fract_y
_atom_site_fract_z
O1 O 0.63129(15) 0.7522(2) 0.45278(11)
O2 O 0.53851(17) 0.6142(2) 0.47163(11)
O3 O 0.50788(15) 0.5021(2) 0.27050(11)
O4 O 0.61085(16) 0.6865(3) 0.34083(11)
C1 C 0.4773(2) 0.4456(3) 0.33640(15)
C2 C 0.5356(2) 0.5821(3) 0.42779(15)
C3 C 0.5851(2) 0.6507(3) 0.41439(15)
C4 C 0.4833(2) 0.4747(3) 0.38637(15)
C5 C 0.5761(2) 0.6269(3) 0.36266(15)
C6 C 0.4713(2) 0.2207(3) 0.35330(15)
C7 C 0.5456(2) 0.0527(4) 0.45308(18)
H1 H 0.5708 -0.0059 0.4870
C8 C 0.5183(2) 0.5209(3) 0.31841(15)
C9 C 0.4764(2) 0.2524(3) 0.40511(15)
C10 C 0.4386(2) 0.3824(3) 0.39867(15)
H2 H 0.4432 0.4065 0.4358
C11 C 0.5403(2) 0.0222(4) 0.40241(18)
H3 H 0.5627 -0.0570 0.4018
C12 C 0.6831(2) 0.7617(3) 0.38210(16)
C13 C 0.7057(2) 0.7297(4) 0.51313(16)
C14 C 0.5141(2) 0.1694(4) 0.45521(17)
H4 H 0.5185 0.1914 0.4906
C15 C 0.4280(2) 0.3238(3) 0.30274(15)
H5 H 0.4244 0.3022 0.2658
C16 C 0.5023(2) 0.1062(3) 0.35131(17)
H6 H 0.4981 0.0841 0.3160
C17 C 0.7398(2) 0.6085(4) 0.53388(16)
H7 H 0.7119 0.5348 0.5084
C18 C 0.2666(2) 0.3212(4) 0.22904(17)
H8 H 0.2622 0.3002 0.1936
C19 C 0.3436(2) 0.3407(3) 0.28681(16)
C20 C 0.6757(2) 0.8931(4) 0.37458(17)
H9 H 0.6236 0.9318 0.3429
C21 C 0.1956(2) 0.3330(4) 0.22416(18)
H10 H 0.1423 0.3211 0.1848
C22 C 0.3494(2) 0.3714(3) 0.33885(16)
C23 C 0.2020(2) 0.3616(4) 0.27563(18)
H11 H 0.1531 0.3683 0.2716
C24 C 0.7443(2) 0.8374(4) 0.54905(18)
H12 H 0.7191 0.9196 0.5339
C25 C 0.7458(3) 0.9674(4) 0.41422(18)
H13 H 0.7421 1.0584 0.4099
C26 C 0.8570(3) 0.7036(4) 0.62986(19)
H14 H 0.9097 0.6945 0.6700
C27 C 0.2791(2) 0.3810(4) 0.33358(18)
H15 H 0.2833 0.4006 0.3691
C28 C 0.8215(3) 0.9105(4) 0.46026(19)
H16 H 0.8691 0.9626 0.4882
C29 C 0.8215(2) 0.8243(4) 0.60854(18)
H17 H 0.8494 0.8979 0.6341
C30 C 0.8279(3) 0.7790(4) 0.4656(2)
H18 H 0.8802 0.7401 0.4966
C31 C 0.7578(3) 0.7022(4) 0.42579(18)
H19 H 0.7617 0.6110 0.4288
C32 C 0.8167(2) 0.5975(4) 0.59351(18)
H20 H 0.8413 0.5149 0.6089
O5 O 0.13398(15) -0.1798(2) 0.18818(11)
O6 O 0.00089(17) 0.0969(3) 0.23489(11)
O7 O 0.10952(16) -0.0934(3) 0.27183(11)
O8 O 0.05420(17) -0.0479(3) 0.07737(11)
C33 C -0.0086(2) 0.1006(3) 0.10110(15)
C34 C 0.0883(2) -0.0718(3) 0.17604(16)
C35 C -0.0240(2) 0.1338(3) 0.14010(15)
C36 C 0.0453(2) -0.0093(3) 0.11454(15)
C37 C -0.0348(2) 0.3553(3) 0.11226(16)
C38 C -0.0180(2) 0.3214(3) 0.07201(15)
C39 C 0.0144(2) 0.0676(3) 0.19917(16)
C40 C -0.2062(2) 0.1648(3) -0.05011(16)
H21 H -0.1952 0.1404 -0.0774
C41 C -0.1582(2) 0.2243(3) 0.05234(15)
C42 C 0.0746(2) -0.0371(4) 0.21570(15)
C43 C -0.3038(2) 0.2156(4) -0.03280(17)
H22 H -0.3596 0.2261 -0.0488
C44 C 0.2092(2) -0.1732(4) 0.19891(16)
C45 C -0.1419(2) 0.1891(3) 0.01244(16)
C46 C 0.0232(2) 0.4053(4) 0.06178(17)
H23 H 0.0351 0.3823 0.0348
C47 C -0.2385(2) 0.2391(4) 0.03050(17)
H24 H -0.2493 0.2648 0.0578
C48 C -0.0795(2) 0.2511(3) 0.11937(16)
H25 H -0.0909 0.2748 0.1485
C49 C 0.2470(2) -0.0591(4) 0.20392(16)
H26 H 0.2209 0.0212 0.1977
C50 C -0.0490(2) 0.1869(3) 0.04461(15)
H27 H -0.0367 0.1610 0.0163
C51 C 0.3247(2) -0.0651(4) 0.21842(16)
H28 H 0.3515 0.0121 0.2214
C52 C 0.1953(2) -0.1198(4) 0.30845(16)
C53 C 0.2466(2) -0.2903(4) 0.20829(16)
H29 H 0.2196 -0.3678 0.2048
C54 C 0.0476(2) 0.5246(4) 0.09136(19)
H30 H 0.0761 0.5834 0.0844
C55 C -0.2875(2) 0.1772(3) -0.07203(16)
H31 H -0.3324 0.1590 -0.1146
C56 C -0.0106(2) 0.4733(4) 0.14156(18)
H32 H -0.0219 0.4963 0.1689
C57 C 0.3233(2) -0.2945(4) 0.22270(17)
H33 H 0.3490 -0.3751 0.2287
C58 C 0.3629(2) -0.1821(4) 0.22846(17)
H34 H 0.4164 -0.1852 0.2393
C59 C 0.2493(2) -0.0196(4) 0.32535(16)
H35 H 0.2296 0.0663 0.3134
C60 C 0.0307(2) 0.5579(4) 0.13052(19)
H36 H 0.0474 0.6397 0.1503
C61 C 0.2224(3) -0.2437(4) 0.32696(18)
H37 H 0.1843 -0.3112 0.3156
C62 C 0.3071(3) -0.2684(5) 0.36285(19)
H38 H 0.3276 -0.3533 0.3768
C63 C 0.3331(3) -0.0471(4) 0.36013(17)
H39 H 0.3712 0.0204 0.3715
C64 C 0.3610(3) -0.1694(5) 0.37797(18)
H40 H 0.4185 -0.1872 0.4012
loop_
_geom_bond_atom_site_label_1
_geom_bond_atom_site_label_2
_geom_bond_site_symmetry_1
_geom_bond_site_symmetry_2
O1 C3 1_555 1_555
O2 C2 1_555 1_555
O3 C8 1_555 1_555
O4 C5 1_555 1_555
C1 C4 1_555 1_555
C2 C3 1_555 1_555
C3 C5 1_555 1_555
C4 C2 1_555 1_555
C5 C8 1_555 1_555
C6 C9 1_555 1_555
C7 H1 1_555 1_555
C8 C1 1_555 1_555
C9 C10 1_555 1_555
C10 C4 1_555 1_555
H2 C10 1_555 1_555
C11 C7 1_555 1_555
H3 C11 1_555 1_555
C12 O4 1_555 1_555
C13 O1 1_555 1_555
C14 C7 1_555 1_555
H4 C14 1_555 1_555
C15 C1 1_555 1_555
H5 C15 1_555 1_555
C16 C6 1_555 1_555
H6 C16 1_555 1_555
C17 C13 1_555 1_555
H7 C17 1_555 1_555
C18 H8 1_555 1_555
C19 C15 1_555 1_555
C20 C12 1_555 1_555
H9 C20 1_555 1_555
C21 C18 1_555 1_555
H10 C21 1_555 1_555
C22 C10 1_555 1_555
C23 C21 1_555 1_555
H11 C23 1_555 1_555
C24 C13 1_555 1_555
H12 C24 1_555 1_555
C25 C20 1_555 1_555
H13 C25 1_555 1_555
C26 H14 1_555 1_555
C27 C22 1_555 1_555
H15 C27 1_555 1_555
C28 C25 1_555 1_555
H16 C28 1_555 1_555
C29 C24 1_555 1_555
H17 C29 1_555 1_555
C30 C28 1_555 1_555
H18 C30 1_555 1_555
C31 C12 1_555 1_555
H19 C31 1_555 1_555
C32 C17 1_555 1_555
H20 C32 1_555 1_555
O5 C34 1_555 1_555
O6 C39 1_555 1_555
O7 C42 1_555 1_555
O8 C36 1_555 1_555
C33 C35 1_555 1_555
C34 C36 1_555 1_555
C35 C39 1_555 1_555
C36 C33 1_555 1_555
C37 C38 1_555 1_555
C38 C46 1_555 1_555
C39 C42 1_555 1_555
C40 H21 1_555 1_555
C41 C45 1_555 1_555
C42 C34 1_555 1_555
C43 H22 1_555 1_555
C44 O5 1_555 1_555
C45 C40 1_555 1_555
C46 H23 1_555 1_555
C47 C41 1_555 1_555
H24 C47 1_555 1_555
C48 C35 1_555 1_555
H25 C48 1_555 1_555
C49 C44 1_555 1_555
H26 C49 1_555 1_555
C50 C33 1_555 1_555
H27 C50 1_555 1_555
C51 C49 1_555 1_555
H28 C51 1_555 1_555
C52 O7 1_555 1_555
C53 C44 1_555 1_555
H29 C53 1_555 1_555
C54 C46 1_555 1_555
H30 C54 1_555 1_555
C55 C40 1_555 1_555
H31 C55 1_555 1_555
C56 C37 1_555 1_555
H32 C56 1_555 1_555
C57 C53 1_555 1_555
H33 C57 1_555 1_555
C58 C51 1_555 1_555
H34 C58 1_555 1_555
C59 C52 1_555 1_555
H35 C59 1_555 1_555
C60 C54 1_555 1_555
H36 C60 1_555 1_555
C61 C52 1_555 1_555
H37 C61 1_555 1_555
C62 C61 1_555 1_555
H38 C62 1_555 1_555
C63 C59 1_555 1_555
H39 C63 1_555 1_555
C64 C62 1_555 1_555
H40 C64 1_555 1_555
C6 C15 1_555 1_555
C9 C14 1_555 1_555
C11 C16 1_555 1_555
C18 C19 1_555 1_555
C19 C22 1_555 1_555
C23 C27 1_555 1_555
C26 C29 1_555 1_555
C26 C32 1_555 1_555
C30 C31 1_555 1_555
C37 C48 1_555 1_555
C38 C50 1_555 1_555
C41 C48 1_555 1_555
C43 C47 1_555 1_555
C43 C55 1_555 1_555
C45 C50 1_555 1_555
C56 C60 1_555 1_555
C57 C58 1_555 1_555
C63 C64 1_555 1_555

#END
