
#######################################################################
#
#                 Cambridge Crystallographic Data Centre
#                                CCDC 
#
#######################################################################
#
# If this CIF has been generated from an entry in the Cambridge 
# Structural Database, then it will include bibliographic, chemical, 
# crystal, experimental, refinement or atomic coordinate data resulting 
# from the CCDC's data processing and validation procedures.
#
#######################################################################

data_ORAFIY
_chemical_formula_moiety         'C22 H18 N2 O4'
_chemical_name_systematic        2,3-bis(3-methoxyphenoxy)quinoxaline
_symmetry_cell_setting           triclinic
_symmetry_space_group_name_H-M   'P -1'
_symmetry_Int_Tables_number      2
_space_group_name_Hall           '-P 1'
loop_
_symmetry_equiv_pos_site_id
_symmetry_equiv_pos_as_xyz
1 x,y,z
2 -x,-y,-z
_cell_length_a                   5.2714(13)
_cell_length_b                   9.323(3)
_cell_length_c                   17.778(5)
_cell_angle_alpha                95.966(16)
_cell_angle_beta                 97.454(11)
_cell_angle_gamma                92.487(10)
_cell_volume                     860.195
_exptl_crystal_colour            colorless
_exptl_crystal_description       needle
_cell_formula_units_Z            2
loop_
_atom_site_label
_atom_site_type_symbol
_atom_site_fract_x
_atom_site_fract_y
_atom_site_fract_z
O2 O 0.9691(3) 0.62317(14) 0.37877(7)
O3 O 0.8974(2) 0.45180(14) 0.25263(7)
O4 O 1.1333(3) 0.24014(15) 0.01540(8)
N1 N 0.6752(3) 0.78104(17) 0.33307(9)
N2 N 0.5840(3) 0.58982(16) 0.19724(9)
C1 C 1.0816(4) 0.8691(2) 0.58976(11)
H1 H 1.1096 0.9246 0.6383
C2 C 1.0041(3) 0.7098(2) 0.44990(11)
C3 C 0.7959(4) 0.6657(2) 0.32333(10)
C4 C 0.7525(3) 0.56825(19) 0.25369(11)
C5 C 0.8524(3) 0.3472(2) 0.18865(11)
C6 C 0.6652(4) 0.2388(2) 0.18519(12)
H2 H 0.5564 0.2371 0.2238
C7 C 0.6389(4) 0.1317(2) 0.12380(12)
H3 H 0.5115 0.0552 0.1205
C8 C 0.7961(4) 0.1354(2) 0.06754(11)
H4 H 0.7753 0.0625 0.0254
C9 C 0.9849(3) 0.2461(2) 0.07291(11)
C10 C 1.0162(3) 0.35383(19) 0.13412(11)
H5 H 1.1457 0.4295 0.1384
C11 C 1.3031(4) 0.3616(2) 0.01182(12)
H6 H 1.3883 0.3460 -0.0339
H7 H 1.4322 0.3737 0.0573
H8 H 1.2058 0.4486 0.0097
C12 C 0.4956(3) 0.8089(2) 0.27340(10)
C13 C 0.4477(3) 0.71219(19) 0.20643(11)
C14 C 0.2549(4) 0.7406(2) 0.14853(11)
H9 H 0.2207 0.6763 0.1029
C15 C 0.1154(4) 0.8607(2) 0.15742(12)
H10 H -0.0170 0.8780 0.1184
C16 C 0.1673(4) 0.9580(2) 0.22384(11)
H11 H 0.0714 1.0415 0.2293
C17 C 0.3553(4) 0.9333(2) 0.28077(11)
H12 H 0.3912 1.0002 0.3254
O5 O 0.770(3) 0.7334(11) 0.6361(7)
C18 C 0.591(3) 0.6122(13) 0.6269(11)
H13 H 0.4510 0.6248 0.5865
H14 H 0.5212 0.6044 0.6749
H15 H 0.6766 0.5240 0.6130
C19 C 0.8988(13) 0.7551(8) 0.5758(7)
C20 C 1.2227(19) 0.9020(14) 0.5335(5)
H16 H 1.3478 0.9804 0.5436
C21 C 1.1855(17) 0.8225(10) 0.4623(7)
H17 H 1.2827 0.8454 0.4232
C22 C 0.858(2) 0.6740(12) 0.5050(6)
H18 H 0.7333 0.5956 0.4947
O1? O 0.726(3) 0.7474(18) 0.6271(9)
C23? C 0.538(3) 0.6299(19) 0.6121(9)
H19? H 0.4262 0.6393 0.5646
H20? H 0.4353 0.6308 0.6543
H21? H 0.6232 0.5387 0.6072
C24? C 0.8817(18) 0.7651(11) 0.5725(10)
H22? H 1.1053 0.9273 0.6375
C25? C 1.246(3) 0.887(2) 0.5369(8)
H23? H 1.3849 0.9576 0.5492
C26? C 1.214(3) 0.8056(17) 0.4661(11)
H24? H 1.3323 0.8156 0.4306
C27? C 0.839(3) 0.684(2) 0.5017(8)
H25? H 0.7008 0.6130 0.4893
loop_
_geom_bond_atom_site_label_1
_geom_bond_atom_site_label_2
_geom_bond_site_symmetry_1
_geom_bond_site_symmetry_2
O2 C2 1_555 1_555
O3 C4 1_555 1_555
O4 C9 1_555 1_555
N1 C3 1_555 1_555
N2 C4 1_555 1_555
C1 H1 1_555 1_555
C2 C21 1_555 1_555
C3 O2 1_555 1_555
C4 C3 1_555 1_555
C5 O3 1_555 1_555
C6 C5 1_555 1_555
H2 C6 1_555 1_555
C7 C6 1_555 1_555
H3 C7 1_555 1_555
C8 C7 1_555 1_555
H4 C8 1_555 1_555
C9 C8 1_555 1_555
C10 C5 1_555 1_555
H5 C10 1_555 1_555
C11 O4 1_555 1_555
H6 C11 1_555 1_555
H7 C11 1_555 1_555
H8 C11 1_555 1_555
C12 N1 1_555 1_555
C13 N2 1_555 1_555
C14 C13 1_555 1_555
H9 C14 1_555 1_555
C15 C14 1_555 1_555
H10 C15 1_555 1_555
C16 C15 1_555 1_555
H11 C16 1_555 1_555
C17 C12 1_555 1_555
H12 C17 1_555 1_555
O5 C18 1_555 1_555
C18 H13 1_555 1_555
H14 C18 1_555 1_555
H15 C18 1_555 1_555
C19 C1 1_555 1_555
C20 C1 1_555 1_555
H16 C20 1_555 1_555
C21 C20 1_555 1_555
H17 C21 1_555 1_555
C22 C2 1_555 1_555
H18 C22 1_555 1_555
C9 C10 1_555 1_555
C12 C13 1_555 1_555
C16 C17 1_555 1_555
O5 C19 1_555 1_555
C19 C22 1_555 1_555

#END
