
#######################################################################
#
#                 Cambridge Crystallographic Data Centre
#                                CCDC 
#
#######################################################################
#
# If this CIF has been generated from an entry in the Cambridge 
# Structural Database, then it will include bibliographic, chemical, 
# crystal, experimental, refinement or atomic coordinate data resulting 
# from the CCDC's data processing and validation procedures.
#
#######################################################################

data_ORAFAQ
_chemical_name_common            2,3-diphenoxy-1,4-naphthoquinone
_chemical_formula_moiety         'C22 H14 O4'
_chemical_name_systematic        2,3-diphenoxynaphtalene-1,4-dione
_symmetry_cell_setting           monoclinic
_symmetry_space_group_name_H-M   'P 21/c'
_symmetry_Int_Tables_number      14
_space_group_name_Hall           '-P 2ybc'
loop_
_symmetry_equiv_pos_site_id
_symmetry_equiv_pos_as_xyz
1 x,y,z
2 -x,1/2+y,1/2-z
3 -x,-y,-z
4 x,1/2-y,1/2+z
_cell_length_a                   4.8937(2)
_cell_length_b                   10.1026(3)
_cell_length_c                   33.0334(14)
_cell_angle_alpha                90
_cell_angle_beta                 92.133(4)
_cell_angle_gamma                90
_cell_volume                     1632.01
_exptl_crystal_colour            orange
_exptl_crystal_description       needle
_cell_formula_units_Z            4
loop_
_atom_site_label
_atom_site_type_symbol
_atom_site_fract_x
_atom_site_fract_y
_atom_site_fract_z
O1 O -0.1300(4) 0.61034(19) 0.67649(6)
O2 O 0.0960(4) 0.65530(19) 0.60309(6)
O3 O 0.7279(4) 0.31903(19) 0.63553(6)
O4 O 0.5107(5) 0.4980(2) 0.58072(6)
C1 C 0.4101(6) 0.3669(3) 0.68590(8)
C2 C 0.1978(6) 0.4494(3) 0.69778(9)
C3 C 0.0747(6) 0.5473(3) 0.66878(8)
C4 C 0.5269(6) 0.3808(3) 0.64531(9)
C5 C 0.0990(6) 0.7874(3) 0.61638(9)
C6 C 0.3986(6) 0.4801(3) 0.61709(9)
C7 C 0.5159(6) 0.2718(3) 0.71294(9)
H1 H 0.6560 0.2160 0.7053
C8 C 0.2032(6) 0.5630(3) 0.62916(8)
C9 C 0.0987(6) 0.4389(3) 0.73637(9)
H2 H -0.0406 0.4946 0.7444
C10 C 0.2917(6) 0.8323(3) 0.64457(9)
H3 H 0.4241 0.7754 0.6556
C11 C 0.4122(6) 0.2611(3) 0.75090(9)
H4 H 0.4806 0.1965 0.7686
C12 C 0.2082(6) 0.3447(3) 0.76320(9)
H5 H 0.1441 0.3383 0.7893
C13 C -0.0922(7) 0.8705(3) 0.59833(10)
H6 H -0.2173 0.8388 0.5788
C14 C 0.2844(7) 0.9647(3) 0.65628(10)
H7 H 0.4103 0.9964 0.6757
C15 C -0.0944(7) 1.0026(3) 0.60986(11)
H8 H -0.2216 1.0601 0.5978
C16 C 0.0904(7) 1.0492(3) 0.63903(11)
H9 H 0.0845 1.1373 0.6471
C17 C 0.330(2) 0.2805(10) 0.5583(3)
H10 H 0.2054 0.2809 0.5789
C18 C 0.340(3) 0.1732(10) 0.5320(3)
H11 H 0.2224 0.1018 0.5351
C19 C 0.525(3) 0.1726(13) 0.5012(3)
H12 H 0.5323 0.1008 0.4836
C20 C 0.701(3) 0.2794(15) 0.4966(2)
H13 H 0.8250 0.2790 0.4760
C21 C 0.691(3) 0.3866(12) 0.5228(3)
H14 H 0.8080 0.4580 0.5198
C22 C 0.505(3) 0.3872(9) 0.5537(3)
C23? C 0.753(3) 0.4116(11) 0.5286(4)
H15? H 0.8694 0.4842 0.5304
C24? C 0.779(3) 0.3199(16) 0.4976(3)
H16? H 0.9129 0.3311 0.4787
C25? C 0.604(3) 0.2114(16) 0.4949(3)
H17? H 0.6216 0.1500 0.4742
C26? C 0.404(3) 0.1947(12) 0.5232(4)
H18? H 0.2870 0.1221 0.5214
C27? C 0.378(3) 0.2864(13) 0.5541(4)
H19? H 0.2436 0.2752 0.5731
C28? C 0.552(3) 0.3949(12) 0.5568(4)
loop_
_geom_bond_atom_site_label_1
_geom_bond_atom_site_label_2
_geom_bond_site_symmetry_1
_geom_bond_site_symmetry_2
O1 C3 1_555 1_555
O2 C5 1_555 1_555
O3 C4 1_555 1_555
O4 C6 1_555 1_555
C1 C2 1_555 1_555
C2 C3 1_555 1_555
C3 C8 1_555 1_555
C4 C1 1_555 1_555
C5 C10 1_555 1_555
C6 C4 1_555 1_555
C7 C1 1_555 1_555
H1 C7 1_555 1_555
C8 O2 1_555 1_555
C9 C2 1_555 1_555
H2 C9 1_555 1_555
C10 H3 1_555 1_555
C11 C7 1_555 1_555
H4 C11 1_555 1_555
C12 C9 1_555 1_555
H5 C12 1_555 1_555
C13 C5 1_555 1_555
H6 C13 1_555 1_555
C14 C10 1_555 1_555
H7 C14 1_555 1_555
C15 C13 1_555 1_555
H8 C15 1_555 1_555
C16 C14 1_555 1_555
H9 C16 1_555 1_555
C17 H10 1_555 1_555
C18 C17 1_555 1_555
H11 C18 1_555 1_555
C19 C18 1_555 1_555
H12 C19 1_555 1_555
C20 C19 1_555 1_555
H13 C20 1_555 1_555
C21 C20 1_555 1_555
H14 C21 1_555 1_555
C22 O4 1_555 1_555
C6 C8 1_555 1_555
C11 C12 1_555 1_555
C15 C16 1_555 1_555
C17 C22 1_555 1_555
C21 C22 1_555 1_555

#END
