
#######################################################################
#
#                 Cambridge Crystallographic Data Centre
#                                CCDC 
#
#######################################################################
#
# If this CIF has been generated from an entry in the Cambridge 
# Structural Database, then it will include bibliographic, chemical, 
# crystal, experimental, refinement or atomic coordinate data resulting 
# from the CCDC's data processing and validation procedures.
#
#######################################################################

data_ORARIK
_chemical_formula_moiety         'C21 H14 Br1 Cl1 N2'
_chemical_name_systematic        
5-(4-bromophenyl)-3-(4-chlorophenyl)-1-phenyl-1H-pyrazole
_symmetry_cell_setting           triclinic
_symmetry_space_group_name_H-M   'P -1'
_symmetry_Int_Tables_number      2
_space_group_name_Hall           '-P 1'
loop_
_symmetry_equiv_pos_site_id
_symmetry_equiv_pos_as_xyz
1 x,y,z
2 -x,-y,-z
_cell_length_a                   5.9188(9)
_cell_length_b                   9.0339(15)
_cell_length_c                   16.647(3)
_cell_angle_alpha                83.228(5)
_cell_angle_beta                 87.565(5)
_cell_angle_gamma                87.189(5)
_cell_volume                     882.234
_exptl_crystal_colour            white
_exptl_crystal_description       block
_cell_formula_units_Z            2
loop_
_atom_site_label
_atom_site_type_symbol
_atom_site_fract_x
_atom_site_fract_y
_atom_site_fract_z
Br1 Br -0.69787(5) 0.72409(3) 0.007921(16)
Cl1 Cl 0.71608(14) 0.60860(9) 0.65643(4)
N1 N 0.1974(3) 0.9739(2) 0.33327(12)
N2 N 0.0522(3) 0.9874(2) 0.27130(12)
C1 C -0.5092(4) 0.7740(3) 0.08921(16)
C2 C 0.0179(4) 1.1311(3) 0.22635(14)
C3 C 0.3033(4) 0.7813(3) 0.44135(15)
C4 C 0.5548(5) 0.6766(3) 0.57372(15)
C5 C -0.0666(4) 0.8622(3) 0.26988(14)
C6 C 0.5085(4) 0.8428(3) 0.45364(16)
H1 H 0.5630 0.9210 0.4157
C7 C 0.1691(4) 0.8375(3) 0.37075(14)
C8 C -0.1836(5) 1.2094(3) 0.23730(17)
H2 H -0.3007 1.1666 0.2720
C9 C 0.6342(5) 0.7916(3) 0.52037(17)
H3 H 0.7727 0.8352 0.5291
C10 C -0.4132(4) 0.7548(3) 0.22734(15)
H4 H -0.4443 0.7184 0.2824
C11 C 0.1874(5) 1.1919(3) 0.17578(17)
H5 H 0.3263 1.1370 0.1686
C12 C -0.1841(4) 0.8925(3) 0.12609(15)
H6 H -0.0579 0.9520 0.1109
C13 C -0.2133(5) 1.3519(3) 0.19696(19)
H7 H -0.3517 1.4075 0.2042
C14 C 0.0053(4) 0.7647(3) 0.33360(15)
H8 H -0.0455 0.6670 0.3496
C15 C -0.2246(4) 0.8397(3) 0.20734(15)
C16 C -0.0462(5) 1.4123(3) 0.14733(18)
H9 H -0.0677 1.5103 0.1203
C17 C -0.5555(4) 0.7222(3) 0.16932(16)
H10 H -0.6842 0.6647 0.1842
C18 C 0.3553(5) 0.6144(4) 0.56295(17)
H11 H 0.3027 0.5351 0.6006
C19 C -0.3254(5) 0.8590(3) 0.06755(16)
H12 H -0.2955 0.8947 0.0123
C20 C 0.2296(5) 0.6676(3) 0.49648(17)
H13 H 0.0899 0.6246 0.4890
C21 C 0.1545(6) 1.3328(3) 0.13575(18)
H14 H 0.2699 1.3751 0.1002
loop_
_geom_bond_atom_site_label_1
_geom_bond_atom_site_label_2
_geom_bond_site_symmetry_1
_geom_bond_site_symmetry_2
Br1 C1 1_555 1_555
Cl1 C4 1_555 1_555
N1 N2 1_555 1_555
N2 C2 1_555 1_555
C1 C17 1_555 1_555
C2 C8 1_555 1_555
C3 C6 1_555 1_555
C4 C9 1_555 1_555
C5 N2 1_555 1_555
C6 H1 1_555 1_555
C7 N1 1_555 1_555
C8 H2 1_555 1_555
C9 C6 1_555 1_555
H3 C9 1_555 1_555
C10 H4 1_555 1_555
C11 C2 1_555 1_555
H5 C11 1_555 1_555
C12 H6 1_555 1_555
C13 C8 1_555 1_555
H7 C13 1_555 1_555
C14 C5 1_555 1_555
H8 C14 1_555 1_555
C15 C5 1_555 1_555
C16 C13 1_555 1_555
H9 C16 1_555 1_555
C17 C10 1_555 1_555
H10 C17 1_555 1_555
C18 C4 1_555 1_555
H11 C18 1_555 1_555
C19 C1 1_555 1_555
H12 C19 1_555 1_555
C20 C3 1_555 1_555
H13 C20 1_555 1_555
C21 C11 1_555 1_555
H14 C21 1_555 1_555
C3 C7 1_555 1_555
C7 C14 1_555 1_555
C10 C15 1_555 1_555
C12 C15 1_555 1_555
C12 C19 1_555 1_555
C16 C21 1_555 1_555
C18 C20 1_555 1_555

#END
