
#######################################################################
#
#                 Cambridge Crystallographic Data Centre
#                                CCDC 
#
#######################################################################
#
# If this CIF has been generated from an entry in the Cambridge 
# Structural Database, then it will include bibliographic, chemical, 
# crystal, experimental, refinement or atomic coordinate data resulting 
# from the CCDC's data processing and validation procedures.
#
#######################################################################

data_ORAROQ
_chemical_formula_moiety         'C21 H15 Br1 N2'
_chemical_name_systematic        5-(4-bromophenyl)-1,3-diphenyl-1H-pyrazole
_symmetry_cell_setting           orthorhombic
_symmetry_space_group_name_H-M   'P 21 21 21'
_symmetry_Int_Tables_number      19
_space_group_name_Hall           'P 2ac 2ab'
loop_
_symmetry_equiv_pos_site_id
_symmetry_equiv_pos_as_xyz
1 x,y,z
2 1/2-x,-y,1/2+z
3 -x,1/2+y,1/2-z
4 1/2+x,1/2-y,-z
_cell_length_a                   5.8446(7)
_cell_length_b                   10.7346(16)
_cell_length_c                   27.540(4)
_cell_angle_alpha                90
_cell_angle_beta                 90
_cell_angle_gamma                90
_cell_volume                     1727.84
_exptl_crystal_colour            yellow
_exptl_crystal_description       block
_cell_formula_units_Z            4
loop_
_atom_site_label
_atom_site_type_symbol
_atom_site_fract_x
_atom_site_fract_y
_atom_site_fract_z
Br1 Br -0.19422(15) -0.08397(8) 1.00949(3)
N1 N 0.6217(10) 0.1823(5) 0.8524(2)
C1 C 0.3208(12) 0.1459(6) 0.9162(2)
C2 C 0.8882(12) 0.4775(6) 0.8640(2)
C3 C 0.5852(12) 0.0737(6) 0.8229(2)
N2 N 0.7767(10) 0.2682(5) 0.83754(18)
C4 C 0.1278(12) 0.2018(6) 0.9354(2)
H1 H 0.1012 0.2879 0.9297
C5 C 0.5715(12) 0.3409(6) 0.9003(2)
H2 H 0.5159 0.3954 0.9248
C6 C -0.0271(12) 0.1341(7) 0.9627(2)
H3 H -0.1599 0.1730 0.9756
C7 C 0.7463(12) 0.3653(6) 0.8676(2)
C8 C 0.3610(13) 0.0204(6) 0.9251(3)
H4 H 0.4945 -0.0188 0.9127
C9 C 0.8273(13) 0.5851(6) 0.8885(3)
H5 H 0.6912 0.5869 0.9073
C10 C 0.3787(13) 0.0617(7) 0.7987(3)
H6 H 0.2632 0.1234 0.8018
C11 C 1.0891(15) 0.4794(7) 0.8368(3)
H7 H 1.1351 0.4064 0.8199
C12 C 0.2035(14) -0.0475(6) 0.9524(3)
H8 H 0.2290 -0.1336 0.9581
C13 C 0.4948(12) 0.2230(6) 0.8905(2)
C14 C 1.1618(16) 0.6902(8) 0.8588(3)
H9 H 1.2558 0.7623 0.8574
C15 C 0.7548(15) -0.0142(7) 0.8189(3)
H10 H 0.8968 -0.0040 0.8352
C16 C 1.2224(15) 0.5847(7) 0.8339(3)
H11 H 1.3571 0.5842 0.8146
C17 C 0.3439(16) -0.0434(8) 0.7696(3)
H12 H 0.2042 -0.0531 0.7524
C18 C 0.9651(15) 0.6908(7) 0.8855(3)
H13 H 0.9215 0.7643 0.9024
C19 C 0.0143(13) 0.0081(7) 0.9710(2)
C20 C 0.7125(18) -0.1193(7) 0.7901(3)
H14 H 0.8261 -0.1823 0.7875
C21 C 0.5118(19) -0.1326(8) 0.7659(3)
H15 H 0.4871 -0.2041 0.7463
loop_
_geom_bond_atom_site_label_1
_geom_bond_atom_site_label_2
_geom_bond_site_symmetry_1
_geom_bond_site_symmetry_2
Br1 C19 1_555 1_555
N1 C3 1_555 1_555
C1 C4 1_555 1_555
C2 C7 1_555 1_555
C3 C10 1_555 1_555
N2 N1 1_555 1_555
C4 H1 1_555 1_555
C5 H2 1_555 1_555
C6 C4 1_555 1_555
H3 C6 1_555 1_555
C7 N2 1_555 1_555
C8 C1 1_555 1_555
H4 C8 1_555 1_555
C9 C2 1_555 1_555
H5 C9 1_555 1_555
C10 H6 1_555 1_555
C11 C2 1_555 1_555
H7 C11 1_555 1_555
C12 C8 1_555 1_555
H8 C12 1_555 1_555
C13 N1 1_555 1_555
C14 H9 1_555 1_555
C15 C3 1_555 1_555
H10 C15 1_555 1_555
C16 C11 1_555 1_555
H11 C16 1_555 1_555
C17 C10 1_555 1_555
H12 C17 1_555 1_555
C18 C9 1_555 1_555
H13 C18 1_555 1_555
C19 C6 1_555 1_555
C20 C15 1_555 1_555
H14 C20 1_555 1_555
C21 C17 1_555 1_555
H15 C21 1_555 1_555
C1 C13 1_555 1_555
C5 C7 1_555 1_555
C5 C13 1_555 1_555
C12 C19 1_555 1_555
C14 C16 1_555 1_555
C14 C18 1_555 1_555
C20 C21 1_555 1_555

#END
