
#######################################################################
#
#                 Cambridge Crystallographic Data Centre
#                                CCDC 
#
#######################################################################
#
# If this CIF has been generated from an entry in the Cambridge 
# Structural Database, then it will include bibliographic, chemical, 
# crystal, experimental, refinement or atomic coordinate data resulting 
# from the CCDC's data processing and validation procedures.
#
#######################################################################

data_ORASUX
_chemical_formula_moiety         'C21 H15 Cl1 N2'
_chemical_name_systematic        5-(2-chlorophenyl)-1,3-diphenyl-1H-pyrazole
_symmetry_cell_setting           tetragonal
_symmetry_space_group_name_H-M   'I 41/a'
_symmetry_Int_Tables_number      88
_space_group_name_Hall           '-I 4ad'
loop_
_symmetry_equiv_pos_site_id
_symmetry_equiv_pos_as_xyz
1 x,y,z
2 1/2-x,-y,1/2+z
3 3/4-y,1/4+x,1/4+z
4 3/4+y,3/4-x,3/4+z
5 1/2+x,1/2+y,1/2+z
6 -x,1/2-y,z
7 1/4-y,3/4+x,3/4+z
8 1/4+y,1/4-x,1/4+z
9 -x,-y,-z
10 1/2+x,y,1/2-z
11 1/4+y,3/4-x,3/4-z
12 1/4-y,1/4+x,1/4-z
13 1/2-x,1/2-y,1/2-z
14 x,1/2+y,-z
15 3/4+y,1/4-x,1/4-z
16 3/4-y,3/4+x,3/4-z
_cell_length_a                   20.6551(5)
_cell_length_b                   20.6551(5)
_cell_length_c                   15.9903(8)
_cell_angle_alpha                90
_cell_angle_beta                 90
_cell_angle_gamma                90
_cell_volume                     6821.99
_exptl_crystal_colour            white
_exptl_crystal_description       block
_cell_formula_units_Z            16
loop_
_atom_site_label
_atom_site_type_symbol
_atom_site_fract_x
_atom_site_fract_y
_atom_site_fract_z
Cl1 Cl 0.95977(2) 0.66909(3) 0.03107(3)
N1 N 0.85786(7) 0.61127(6) 0.17075(8)
N2 N 0.86579(7) 0.59250(7) 0.25197(8)
C1 C 0.85815(9) 0.56326(8) 0.10671(10)
C2 C 0.84304(8) 0.71347(8) 0.08527(10)
C3 C 0.86258(8) 0.64676(8) 0.29624(10)
C4 C 0.85024(8) 0.67664(8) 0.16400(10)
C5 C 0.87087(8) 0.64646(8) 0.38801(10)
C6 C 0.88980(8) 0.71520(8) 0.02263(10)
C7 C 0.81339(10) 0.56616(9) 0.04287(12)
H1 H 0.7821 0.5999 0.0413
C8 C 0.88307(10) 0.75450(10) -0.04672(12)
H2 H 0.9154 0.7545 -0.0890
C9 C 0.86136(9) 0.59082(9) 0.43522(11)
H3 H 0.8483 0.5518 0.4087
C10 C 0.78945(9) 0.75320(9) 0.07531(12)
H4 H 0.7565 0.7530 0.1168
C11 C 0.85246(9) 0.70033(8) 0.24398(10)
H5 H 0.8480 0.7442 0.2607
C12 C 0.87094(10) 0.59229(11) 0.52145(12)
H6 H 0.8642 0.5541 0.5535
C13 C 0.88987(10) 0.64798(11) 0.56041(12)
H7 H 0.8966 0.6484 0.6192
C14 C 0.88948(10) 0.70250(10) 0.42895(12)
H8 H 0.8958 0.7411 0.3977
C15 C 0.90313(11) 0.51438(10) 0.11070(13)
H9 H 0.9337 0.5127 0.1550
C16 C 0.78285(10) 0.79308(10) 0.00648(13)
H10 H 0.7459 0.8202 0.0013
C17 C 0.89908(11) 0.70326(11) 0.51458(12)
H11 H 0.9121 0.7421 0.5416
C18 C 0.82965(11) 0.79355(10) -0.05447(13)
H12 H 0.8251 0.8209 -0.1019
C19 C 0.81472(15) 0.51950(12) -0.01849(15)
H13 H 0.7845 0.5211 -0.0632
C20 C 0.90299(16) 0.46784(13) 0.04904(16)
H14 H 0.9334 0.4333 0.0511
C21 C 0.85924(19) 0.47098(13) -0.01537(16)
H15 H 0.8600 0.4391 -0.0581
loop_
_geom_bond_atom_site_label_1
_geom_bond_atom_site_label_2
_geom_bond_site_symmetry_1
_geom_bond_site_symmetry_2
Cl1 C6 1_555 1_555
N1 N2 1_555 1_555
N2 C3 1_555 1_555
C1 N1 1_555 1_555
C2 C4 1_555 1_555
C3 C5 1_555 1_555
C4 N1 1_555 1_555
C5 C9 1_555 1_555
C6 C2 1_555 1_555
C7 C1 1_555 1_555
H1 C7 1_555 1_555
C8 C6 1_555 1_555
H2 C8 1_555 1_555
C9 H3 1_555 1_555
C10 C2 1_555 1_555
H4 C10 1_555 1_555
C11 C3 1_555 1_555
H5 C11 1_555 1_555
C12 C9 1_555 1_555
H6 C12 1_555 1_555
C13 C12 1_555 1_555
H7 C13 1_555 1_555
C14 C5 1_555 1_555
H8 C14 1_555 1_555
C15 C1 1_555 1_555
H9 C15 1_555 1_555
C16 C10 1_555 1_555
H10 C16 1_555 1_555
C17 C13 1_555 1_555
H11 C17 1_555 1_555
C18 C8 1_555 1_555
H12 C18 1_555 1_555
C19 C7 1_555 1_555
H13 C19 1_555 1_555
C20 C15 1_555 1_555
H14 C20 1_555 1_555
C21 C19 1_555 1_555
H15 C21 1_555 1_555
C4 C11 1_555 1_555
C14 C17 1_555 1_555
C16 C18 1_555 1_555
C20 C21 1_555 1_555

#END
