
#######################################################################
#
#                 Cambridge Crystallographic Data Centre
#                                CCDC 
#
#######################################################################
#
# If this CIF has been generated from an entry in the Cambridge 
# Structural Database, then it will include bibliographic, chemical, 
# crystal, experimental, refinement or atomic coordinate data resulting 
# from the CCDC's data processing and validation procedures.
#
#######################################################################

data_ORATEI
_chemical_formula_moiety         'C22 H17 Cl1 N2 O1'
_chemical_name_systematic        
5-(2-chlorophenyl)-3-(4-methoxyphenyl)-1-phenyl-1H-pyrazole
_symmetry_cell_setting           triclinic
_symmetry_space_group_name_H-M   'P -1'
_symmetry_Int_Tables_number      2
_space_group_name_Hall           '-P 1'
loop_
_symmetry_equiv_pos_site_id
_symmetry_equiv_pos_as_xyz
1 x,y,z
2 -x,-y,-z
_cell_length_a                   9.490(3)
_cell_length_b                   12.047(4)
_cell_length_c                   16.469(5)
_cell_angle_alpha                100.826(8)
_cell_angle_beta                 99.318(8)
_cell_angle_gamma                90.148(8)
_cell_volume                     1823.87
_exptl_crystal_colour            white
_exptl_crystal_description       block
_cell_formula_units_Z            4
loop_
_atom_site_label
_atom_site_type_symbol
_atom_site_fract_x
_atom_site_fract_y
_atom_site_fract_z
Cl1 Cl -0.0923(2) 0.45107(16) 0.06840(11)
O1 O 0.1937(4) 1.0244(4) 0.6057(3)
N1 N 0.1862(5) 0.6072(4) 0.2994(3)
N2 N 0.1305(5) 0.5102(4) 0.2471(3)
C1 C 0.1108(6) 0.7433(5) 0.4136(3)
C2 C 0.1586(6) 0.9313(5) 0.5440(4)
C3 C 0.0878(6) 0.6406(5) 0.3480(3)
C4 C -0.0007(6) 0.4812(5) 0.2623(4)
C5 C 0.0296(7) 0.7614(5) 0.4757(4)
H1 H -0.0440 0.7072 0.4745
C6 C -0.0866(6) 0.3806(5) 0.2173(4)
C7 C 0.2179(6) 0.4489(5) 0.1937(4)
C8 C -0.1349(6) 0.3566(5) 0.1294(4)
C9 C 0.0488(7) 0.8536(5) 0.5398(4)
H2 H -0.0123 0.8640 0.5808
C10 C 0.2291(7) 0.3333(6) 0.1879(4)
H3 H 0.1726 0.2940 0.2167
C11 C -0.0301(6) 0.5639(5) 0.3249(4)
H4 H -0.1150 0.5690 0.3489
C12 C 0.2416(6) 0.9154(5) 0.4812(4)
H5 H 0.3155 0.9693 0.4824
C13 C 0.2186(6) 0.8228(5) 0.4174(4)
H6 H 0.2773 0.8131 0.3752
C14 C 0.1060(7) 1.0455(6) 0.6708(4)
H7 H 0.0050 1.0403 0.6452
H8 H 0.1291 1.1214 0.7045
H9 H 0.1245 0.9892 0.7068
C15 C -0.1355(7) 0.3065(6) 0.2623(5)
H10 H -0.1099 0.3204 0.3216
C16 C -0.2121(7) 0.2593(6) 0.0892(5)
H11 H -0.2345 0.2424 0.0298
C17 C 0.3216(7) 0.2752(7) 0.1407(4)
H12 H 0.3271 0.1954 0.1345
C18 C 0.3026(7) 0.5073(6) 0.1531(4)
H13 H 0.2981 0.5872 0.1594
C19 C -0.2562(7) 0.1873(6) 0.1358(5)
H14 H -0.3106 0.1205 0.1086
C20 C -0.2222(7) 0.2111(6) 0.2217(6)
H15 H -0.2575 0.1628 0.2538
C21 C 0.3925(7) 0.4500(7) 0.1040(5)
H16 H 0.4438 0.4884 0.0720
C22 C 0.4072(7) 0.3361(8) 0.1019(4)
H17 H 0.4776 0.2978 0.0733
Cl2 Cl 0.4288(2) -0.04328(18) 0.08991(11)
O2 O 0.3352(4) 0.5419(4) 0.5969(3)
C23 C 0.3344(6) 0.1455(5) 0.3539(3)
N3 N 0.2172(5) 0.1071(4) 0.2993(3)
C24 C 0.3368(6) 0.2487(5) 0.4171(3)
N4 N 0.2571(5) 0.0088(4) 0.2522(3)
C25 C 0.3428(6) 0.4450(5) 0.5390(3)
C26 C 0.2331(6) 0.4244(5) 0.4721(4)
H18 H 0.1603 0.4778 0.4670
C27 C 0.4531(6) 0.3705(5) 0.5454(4)
H19 H 0.5308 0.3845 0.5907
C28 C 0.1492(6) -0.0575(5) 0.1904(3)
C29 C 0.4452(7) 0.2750(5) 0.4832(4)
H20 H 0.5211 0.2239 0.4869
C30 C 0.3962(6) -0.0130(5) 0.2770(4)
C31 C 0.2276(6) 0.3260(5) 0.4118(4)
H21 H 0.1495 0.3113 0.3668
C32 C 0.4740(6) -0.1104(5) 0.2403(4)
C33 C 0.4473(6) 0.0731(5) 0.3415(3)
H22 H 0.5416 0.0822 0.3723
C34 C 0.1432(6) -0.1738(5) 0.1847(4)
H23 H 0.2075 -0.2096 0.2213
C35 C 0.0528(7) -0.0043(6) 0.1406(4)
H24 H 0.0570 0.0756 0.1464
C36 C -0.0532(7) -0.1871(7) 0.0728(4)
H25 H -0.1213 -0.2322 0.0308
C37 C 0.0400(7) -0.2363(6) 0.1234(4)
H26 H 0.0359 -0.3163 0.1175
C38 C 0.4494(7) 0.5701(6) 0.6657(4)
H27 H 0.4523 0.5134 0.7014
H28 H 0.4344 0.6447 0.6984
H29 H 0.5400 0.5718 0.6446
C39 C -0.0510(8) -0.0691(6) 0.0815(4)
H30 H -0.1200 -0.0337 0.0472
C40 C 0.4961(7) -0.1316(6) 0.1583(4)
C41 C 0.5376(6) -0.1809(6) 0.2929(4)
H31 H 0.5241 -0.1674 0.3498
C42 C 0.5779(9) -0.2223(7) 0.1293(5)
H32 H 0.5904 -0.2380 0.0723
C43 C 0.6199(7) -0.2702(6) 0.2642(5)
H33 H 0.6615 -0.3176 0.3009
C44 C 0.6403(9) -0.2890(7) 0.1837(6)
H34 H 0.6985 -0.3489 0.1642
loop_
_geom_bond_atom_site_label_1
_geom_bond_atom_site_label_2
_geom_bond_site_symmetry_1
_geom_bond_site_symmetry_2
Cl1 C8 1_555 1_555
O1 C2 1_555 1_555
N1 N2 1_555 1_555
N2 C4 1_555 1_555
C1 C3 1_555 1_555
C2 C9 1_555 1_555
C3 N1 1_555 1_555
C4 C6 1_555 1_555
C5 C1 1_555 1_555
H1 C5 1_555 1_555
C6 C8 1_555 1_555
C7 N2 1_555 1_555
C8 C16 1_555 1_555
C9 C5 1_555 1_555
H2 C9 1_555 1_555
C10 C7 1_555 1_555
H3 C10 1_555 1_555
C11 C3 1_555 1_555
H4 C11 1_555 1_555
C12 C2 1_555 1_555
H5 C12 1_555 1_555
C13 C1 1_555 1_555
H6 C13 1_555 1_555
C14 O1 1_555 1_555
H7 C14 1_555 1_555
H8 C14 1_555 1_555
H9 C14 1_555 1_555
C15 C6 1_555 1_555
H10 C15 1_555 1_555
C16 H11 1_555 1_555
C17 C10 1_555 1_555
H12 C17 1_555 1_555
C18 C7 1_555 1_555
H13 C18 1_555 1_555
C19 C16 1_555 1_555
H14 C19 1_555 1_555
C20 C15 1_555 1_555
H15 C20 1_555 1_555
C21 C18 1_555 1_555
H16 C21 1_555 1_555
C22 C17 1_555 1_555
H17 C22 1_555 1_555
Cl2 C40 1_555 1_555
O2 C25 1_555 1_555
C23 N3 1_555 1_555
N3 N4 1_555 1_555
C24 C23 1_555 1_555
N4 C28 1_555 1_555
C25 C26 1_555 1_555
C26 H18 1_555 1_555
C27 C25 1_555 1_555
H19 C27 1_555 1_555
C28 C34 1_555 1_555
C29 C24 1_555 1_555
H20 C29 1_555 1_555
C30 N4 1_555 1_555
C31 C24 1_555 1_555
H21 C31 1_555 1_555
C32 C30 1_555 1_555
C33 C23 1_555 1_555
H22 C33 1_555 1_555
C34 H23 1_555 1_555
C35 C28 1_555 1_555
H24 C35 1_555 1_555
C36 H25 1_555 1_555
C37 C34 1_555 1_555
H26 C37 1_555 1_555
C38 O2 1_555 1_555
H27 C38 1_555 1_555
H28 C38 1_555 1_555
H29 C38 1_555 1_555
C39 C35 1_555 1_555
H30 C39 1_555 1_555
C40 C32 1_555 1_555
C41 C32 1_555 1_555
H31 C41 1_555 1_555
C42 C40 1_555 1_555
H32 C42 1_555 1_555
C43 C41 1_555 1_555
H33 C43 1_555 1_555
C44 C42 1_555 1_555
H34 C44 1_555 1_555
C4 C11 1_555 1_555
C12 C13 1_555 1_555
C19 C20 1_555 1_555
C21 C22 1_555 1_555
C26 C31 1_555 1_555
C27 C29 1_555 1_555
C30 C33 1_555 1_555
C36 C37 1_555 1_555
C36 C39 1_555 1_555
C43 C44 1_555 1_555

#END
