
#######################################################################
#
#                 Cambridge Crystallographic Data Centre
#                                CCDC 
#
#######################################################################
#
# If this CIF has been generated from an entry in the Cambridge 
# Structural Database, then it will include bibliographic, chemical, 
# crystal, experimental, refinement or atomic coordinate data resulting 
# from the CCDC's data processing and validation procedures.
#
#######################################################################

data_OREBIY
_chemical_formula_moiety         'C4 H1 N8 O5 1-,C2 H4 N3 1+,H2 O1'
_chemical_name_systematic        
'4H-1,2,4-triazol-1-ium nitro(3-(4-nitro-1,2,5-oxadiazol-3-yl)-1H-1,2,4-triazol-5-yl)amide monohydrate'
_symmetry_cell_setting           triclinic
_symmetry_space_group_name_H-M   'P -1'
_symmetry_Int_Tables_number      2
_space_group_name_Hall           '-P 1'
loop_
_symmetry_equiv_pos_site_id
_symmetry_equiv_pos_as_xyz
1 x,y,z
2 -x,-y,-z
_cell_length_a                   7.8192(8)
_cell_length_b                   8.6733(10)
_cell_length_c                   9.7228(10)
_cell_angle_alpha                93.276(4)
_cell_angle_beta                 102.810(4)
_cell_angle_gamma                99.593(4)
_cell_volume                     630.937
_exptl_crystal_description       block
_cell_formula_units_Z            2
loop_
_atom_site_label
_atom_site_type_symbol
_atom_site_fract_x
_atom_site_fract_y
_atom_site_fract_z
C1 C 0.2680(3) 0.8294(3) 0.7584(2)
C2 C 0.2312(3) 0.7400(3) 0.6253(2)
C3 C 0.2529(3) 0.3893(3) 0.4355(2)
C4 C 0.2667(3) 0.5878(3) 0.5766(2)
N1 N 0.2005(3) 0.9563(2) 0.7493(2)
N2 N 0.1360(3) 0.8161(2) 0.5331(2)
N3 N 0.3691(3) 0.8046(2) 0.8977(2)
N4 N 0.3696(3) 0.5036(2) 0.6549(2)
N5 N 0.3583(3) 0.3764(2) 0.5625(2)
H1 H 0.418(3) 0.301(3) 0.588(2)
N6 N 0.1909(3) 0.5240(2) 0.44105(19)
N7 N 0.1996(3) 0.2940(2) 0.3098(2)
N8 N 0.2656(3) 0.1658(2) 0.3050(2)
O1 O 0.1178(3) 0.95014(19) 0.60899(18)
O2 O 0.4869(2) 0.7283(2) 0.90138(18)
O3 O 0.3288(3) 0.8633(2) 1.00063(19)
O4 O 0.2168(2) 0.07979(18) 0.18697(16)
O5 O 0.3712(2) 0.12394(19) 0.40727(17)
C5 C 0.9917(3) 0.7470(3) 0.1426(2)
H2 H 1.0664 0.8443 0.1828
C6 C 0.7966(3) 0.5667(3) 0.0040(3)
H3 H 0.7062 0.5168 -0.0754
N9 N 0.8648(3) 0.4951(2) 0.1122(2)
N10 N 0.9878(3) 0.6125(2) 0.1982(2)
H4 H 1.056(3) 0.592(3) 0.285(3)
N11 N 0.8717(3) 0.7216(2) 0.0197(2)
H5 H 0.850(3) 0.788(3) -0.041(3)
O6 O 0.5753(3) 0.1834(2) 0.69748(19)
H6 H 0.592(4) 0.098(2) 0.661(3)
H7 H 0.583(4) 0.171(3) 0.782(2)
loop_
_geom_bond_atom_site_label_1
_geom_bond_atom_site_label_2
_geom_bond_site_symmetry_1
_geom_bond_site_symmetry_2
C1 C2 1_555 1_555
C2 C4 1_555 1_555
C3 N5 1_555 1_555
C4 N4 1_555 1_555
N1 C1 1_555 1_555
N2 C2 1_555 1_555
N3 C1 1_555 1_555
N4 N5 1_555 1_555
N5 H1 1_555 1_555
N6 C3 1_555 1_555
N7 C3 1_555 1_555
N8 N7 1_555 1_555
O1 N1 1_555 1_555
O2 N3 1_555 1_555
O3 N3 1_555 1_555
O4 N8 1_555 1_555
O5 N8 1_555 1_555
C5 H2 1_555 1_555
C6 H3 1_555 1_555
N9 C6 1_555 1_555
N10 C5 1_555 1_555
H4 N10 1_555 1_555
N11 C5 1_555 1_555
H5 N11 1_555 1_555
O6 H6 1_555 1_555
H7 O6 1_555 1_555
C4 N6 1_555 1_555
N2 O1 1_555 1_555
C6 N11 1_555 1_555
N9 N10 1_555 1_555

#END
