
#######################################################################
#
#                 Cambridge Crystallographic Data Centre
#                                CCDC 
#
#######################################################################
#
# If this CIF has been generated from an entry in the Cambridge 
# Structural Database, then it will include bibliographic, chemical, 
# crystal, experimental, refinement or atomic coordinate data resulting 
# from the CCDC's data processing and validation procedures.
#
#######################################################################

data_OREJOM
_chemical_formula_moiety         'C21 H23 N1 O4'
_chemical_name_systematic        
'Ethyl (1R*,2S*,5S*,6R*,7S*)-3-[(2,4-dimethoxyphenyl)methyl]-4-oxo-2-(prop-2-en-1-yl)-10-oxa-3-azatricyclo[5.2.1.0^1,5^]dec-8-ene-6-carboxylate'
_symmetry_cell_setting           monoclinic
_symmetry_space_group_name_H-M   'C c'
_symmetry_Int_Tables_number      9
_space_group_name_Hall           'C -2yc'
loop_
_symmetry_equiv_pos_site_id
_symmetry_equiv_pos_as_xyz
1 x,y,z
2 x,-y,1/2+z
3 1/2+x,1/2+y,z
4 1/2+x,1/2-y,1/2+z
_cell_length_a                   8.12275(8)
_cell_length_b                   19.6409(2)
_cell_length_c                   11.31395(11)
_cell_angle_alpha                90
_cell_angle_beta                 92.5884(10)
_cell_angle_gamma                90
_cell_volume                     1803.16
_exptl_crystal_colour            colorless
_exptl_crystal_description       irregular
_cell_formula_units_Z            4
loop_
_atom_site_label
_atom_site_type_symbol
_atom_site_fract_x
_atom_site_fract_y
_atom_site_fract_z
O1 O 0.51668(17) 0.21268(6) 0.91825(13)
N1 N 0.27816(18) 0.41586(8) 0.73935(13)
C1 C 0.7203(3) 0.12971(11) 0.87904(19)
H1 H 0.6585 0.1183 0.8075
H2 H 0.6844 0.1018 0.9426
H3 H 0.8354 0.1220 0.8685
O2 O 0.56366(18) 0.32180(7) 0.96675(14)
C2 C 0.6932(2) 0.20349(10) 0.90808(19)
H4 H 0.7515 0.2153 0.9819
H5 H 0.7330 0.2323 0.8459
O3 O 0.25218(16) 0.39472(6) 0.99507(11)
C3 C 0.4690(2) 0.27567(9) 0.94592(16)
O4 O 0.41487(17) 0.31683(7) 0.69627(12)
C4 C 0.2832(2) 0.28062(9) 0.94987(16)
H6 H 0.2339 0.2355 0.9591
C5 C 0.2323(2) 0.32987(9) 1.05152(16)
H7 H 0.2959 0.3243 1.1266
C6 C 0.0470(3) 0.32627(10) 1.06096(17)
H8 H -0.0102 0.3040 1.1189
C7 C -0.0176(2) 0.36155(9) 0.96907(18)
H9 H -0.1283 0.3706 0.9511
C8 C 0.1297(2) 0.38346(9) 0.90058(16)
C9 C 0.2014(2) 0.31882(9) 0.84162(16)
H10 H 0.1136 0.2914 0.8032
C10 C 0.3133(2) 0.34850(9) 0.75128(16)
C11 C 0.1429(2) 0.44042(9) 0.81019(16)
H11 H 0.1768 0.4825 0.8509
C12 C -0.0156(2) 0.45358(10) 0.73406(18)
H12 H -0.1009 0.4692 0.7848
H13 H 0.0050 0.4896 0.6780
C13 C -0.0770(3) 0.39185(11) 0.66728(17)
H14 H -0.0118 0.3743 0.6091
C14 C -0.2179(3) 0.36097(11) 0.68600(19)
H15 H -0.2859 0.3773 0.7436
H16 H -0.2492 0.3229 0.6416
C15 C 0.3732(2) 0.46108(9) 0.66695(16)
H17 H 0.2979 0.4899 0.6205
H18 H 0.4344 0.4340 0.6124
C16 C 0.4929(2) 0.50589(9) 0.73858(16)
C17 C 0.5577(2) 0.56351(9) 0.68495(16)
H19 H 0.5247 0.5743 0.6074
C18 C 0.6711(2) 0.60480(9) 0.74664(18)
H20 H 0.7142 0.6428 0.7101
C19 C 0.7202(2) 0.58925(10) 0.86290(18)
H21 H 0.7954 0.6170 0.9045
C20 C 0.6562(2) 0.53209(9) 0.91647(17)
H22 H 0.6891 0.5215 0.9941
C21 C 0.5431(2) 0.49046(9) 0.85488(16)
H23 H 0.5011 0.4522 0.8915
loop_
_geom_bond_atom_site_label_1
_geom_bond_atom_site_label_2
_geom_bond_site_symmetry_1
_geom_bond_site_symmetry_2
O1 C2 1_555 1_555
N1 C10 1_555 1_555
C1 H1 1_555 1_555
H2 C1 1_555 1_555
H3 C1 1_555 1_555
O2 C3 1_555 1_555
C2 C1 1_555 1_555
H4 C2 1_555 1_555
H5 C2 1_555 1_555
O3 C5 1_555 1_555
C3 O1 1_555 1_555
O4 C10 1_555 1_555
C4 C3 1_555 1_555
H6 C4 1_555 1_555
C5 C4 1_555 1_555
H7 C5 1_555 1_555
C6 C5 1_555 1_555
H8 C6 1_555 1_555
C7 C6 1_555 1_555
H9 C7 1_555 1_555
C8 O3 1_555 1_555
C9 C4 1_555 1_555
H10 C9 1_555 1_555
C10 C9 1_555 1_555
C11 N1 1_555 1_555
H11 C11 1_555 1_555
C12 C11 1_555 1_555
H12 C12 1_555 1_555
H13 C12 1_555 1_555
C13 C12 1_555 1_555
H14 C13 1_555 1_555
C14 C13 1_555 1_555
H15 C14 1_555 1_555
H16 C14 1_555 1_555
C15 N1 1_555 1_555
H17 C15 1_555 1_555
H18 C15 1_555 1_555
C16 C15 1_555 1_555
C17 C16 1_555 1_555
H19 C17 1_555 1_555
C18 C17 1_555 1_555
H20 C18 1_555 1_555
C19 C18 1_555 1_555
H21 C19 1_555 1_555
C20 C19 1_555 1_555
H22 C20 1_555 1_555
C21 C16 1_555 1_555
H23 C21 1_555 1_555
C7 C8 1_555 1_555
C8 C9 1_555 1_555
C8 C11 1_555 1_555
C20 C21 1_555 1_555

#END
