
#######################################################################
#
#                 Cambridge Crystallographic Data Centre
#                                CCDC 
#
#######################################################################
#
# If this CIF has been generated from an entry in the Cambridge 
# Structural Database, then it will include bibliographic, chemical, 
# crystal, experimental, refinement or atomic coordinate data resulting 
# from the CCDC's data processing and validation procedures.
#
#######################################################################

data_OREKON
_chemical_formula_moiety         'C22 H25 N1 O4'
_chemical_name_systematic        
'Ethyl (1R*,2R*,5S*,6R*,7S*)-3-benzyl-2-(but-3-en-1-yl)-4-oxo-10-oxa-3-azatricyclo[5.2.1.0^1,5^]dec-8-ene-6-carboxylate'
_symmetry_cell_setting           monoclinic
_symmetry_space_group_name_H-M   'P 21/n'
_symmetry_Int_Tables_number      14
_space_group_name_Hall           '-P 2yn'
loop_
_symmetry_equiv_pos_site_id
_symmetry_equiv_pos_as_xyz
1 x,y,z
2 1/2-x,1/2+y,1/2-z
3 -x,-y,-z
4 1/2+x,1/2-y,1/2+z
_cell_length_a                   9.8686(9)
_cell_length_b                   23.9445(18)
_cell_length_c                   33.107(2)
_cell_angle_alpha                90
_cell_angle_beta                 90.065(8)
_cell_angle_gamma                90
_cell_volume                     7823.14
_exptl_crystal_colour            colorless
_exptl_crystal_description       needle
_cell_formula_units_Z            16
loop_
_atom_site_label
_atom_site_type_symbol
_atom_site_fract_x
_atom_site_fract_y
_atom_site_fract_z
O1 O 0.7507(5) 0.78479(17) 0.26545(12)
N1 N 0.7025(5) 0.6924(2) 0.25447(14)
C1 C 0.7459(6) 0.7440(3) 0.24299(18)
O2 O 0.5964(4) 0.70473(16) 0.17211(11)
C2 C 0.7174(6) 0.6490(2) 0.22268(17)
H1 H 0.8036 0.6294 0.2267
O3 O 0.5321(5) 0.82437(17) 0.19695(13)
C3 C 0.7274(6) 0.6852(2) 0.18524(18)
O4 O 0.7213(4) 0.87600(15) 0.19316(12)
C4 C 0.7906(6) 0.7411(2) 0.19916(16)
H2 H 0.8896 0.7393 0.1975
C5 C 0.6754(7) 0.6788(3) 0.29629(18)
H3 H 0.5928 0.6569 0.2976
H4 H 0.6599 0.7132 0.3111
C6 C 0.7875(7) 0.6467(2) 0.31684(17)
C7 C 0.9225(7) 0.6570(2) 0.30743(17)
H5 H 0.9442 0.6823 0.2871
C8 C 1.0254(8) 0.6295(3) 0.32831(18)
H6 H 1.1154 0.6365 0.3217
C9 C 0.9956(8) 0.5925(3) 0.3584(2)
H7 H 1.0650 0.5750 0.3726
C10 C 0.8611(8) 0.5811(3) 0.3678(2)
H8 H 0.8404 0.5555 0.3880
C11 C 0.7572(8) 0.6082(3) 0.34677(18)
H9 H 0.6672 0.6003 0.3529
C12 C 0.6023(7) 0.6065(2) 0.22280(18)
H10 H 0.5165 0.6255 0.2188
H11 H 0.5992 0.5877 0.2487
C13 C 0.6239(7) 0.5630(3) 0.18883(19)
H12 H 0.6180 0.5815 0.1628
H13 H 0.7138 0.5470 0.1913
C14 C 0.5210(9) 0.5174(3) 0.1907(2)
H14 H 0.4300 0.5275 0.1895
C15 C 0.5501(12) 0.4636(3) 0.1940(2)
H15 H 0.6399 0.4520 0.1953
H16 H 0.4806 0.4374 0.1950
C16 C 0.7927(6) 0.6690(2) 0.14513(17)
H17 H 0.8537 0.6401 0.1404
C17 C 0.7437(7) 0.7048(2) 0.11871(17)
H18 H 0.7644 0.7068 0.0913
C18 C 0.6454(7) 0.7426(3) 0.14218(18)
H19 H 0.5753 0.7607 0.1258
C19 C 0.7348(6) 0.7833(2) 0.16813(18)
H20 H 0.8080 0.7996 0.1520
C20 C 0.6496(7) 0.8284(2) 0.18780(18)
C21 C 0.6473(7) 0.9203(3) 0.2135(2)
H21 H 0.6265 0.9094 0.2410
H22 H 0.5628 0.9277 0.1994
C22 C 0.7339(9) 0.9715(3) 0.2135(2)
H23 H 0.6869 1.0013 0.2268
H24 H 0.8171 0.9638 0.2275
H25 H 0.7536 0.9821 0.1861
N2 N 1.0769(6) 0.20312(19) -0.00731(14)
O5 O 1.1278(5) 0.29577(16) -0.01811(12)
O6 O 0.9679(4) 0.21838(16) 0.07522(12)
O7 O 0.9190(5) 0.34350(16) 0.05524(12)
O8 O 1.1234(4) 0.38348(15) 0.05053(11)
C23 C 1.1206(6) 0.2559(2) 0.00401(17)
C24 C 1.0842(7) 0.1612(2) 0.02413(17)
H26 H 1.1666 0.1389 0.0205
C25 C 1.0976(7) 0.1963(2) 0.06201(17)
C26 C 1.1668(6) 0.2515(2) 0.04782(17)
H27 H 1.2656 0.2479 0.0492
C27 C 1.0532(7) 0.1898(3) -0.04927(18)
H28 H 1.0526 0.2240 -0.0650
H29 H 0.9649 0.1724 -0.0520
C28 C 1.1613(7) 0.1505(3) -0.06601(17)
C29 C 1.1249(8) 0.1006(3) -0.08445(18)
H30 H 1.0338 0.0911 -0.0864
C30 C 1.2220(11) 0.0649(3) -0.1000(2)
H31 H 1.1967 0.0314 -0.1121
C31 C 1.3577(10) 0.0796(3) -0.0972(2)
H32 H 1.4238 0.0564 -0.1081
C32 C 1.3945(10) 0.1286(3) -0.0784(2)
H33 H 1.4856 0.1380 -0.0761
C33 C 1.2957(8) 0.1640(3) -0.06277(19)
H34 H 1.3212 0.1970 -0.0501
C34 C 0.9602(7) 0.1223(3) 0.02388(19)
H35 H 0.8788 0.1448 0.0264
H36 H 0.9562 0.1031 -0.0019
C35 C 0.9627(8) 0.0793(3) 0.0576(2)
H37 H 0.9699 0.0985 0.0833
H38 H 0.8775 0.0590 0.0575
C36 C 1.0776(9) 0.0379(3) 0.0542(2)
H39 H 1.0925 0.0213 0.0292
C37 C 1.1564(10) 0.0240(3) 0.0836(2)
H40 H 1.1444 0.0398 0.1090
H41 H 1.2254 -0.0018 0.0794
C38 C 1.1598(6) 0.1795(2) 0.10201(18)
H42 H 1.2184 0.1498 0.1067
C39 C 1.1143(6) 0.2153(2) 0.12879(17)
H43 H 1.1342 0.2163 0.1562
C40 C 1.0218(6) 0.2550(2) 0.10528(17)
H44 H 0.9540 0.2746 0.1216
C41 C 1.1163(6) 0.2938(2) 0.07954(16)
H45 H 1.1919 0.3077 0.0959
C42 C 1.0386(6) 0.3419(2) 0.06096(16)
C43 C 1.0586(7) 0.4308(2) 0.03030(18)
H46 H 1.0123 0.4543 0.0498
H47 H 0.9933 0.4178 0.0105
C44 C 1.1716(7) 0.4627(3) 0.0100(2)
H48 H 1.1347 0.4945 -0.0039
H49 H 1.2355 0.4751 0.0299
H50 H 1.2166 0.4388 -0.0091
N3 N 1.1989(5) 0.78745(19) 0.25295(14)
O9 O 1.2581(5) 0.69766(16) 0.26894(12)
O10 O 1.0936(4) 0.76455(16) 0.17025(11)
O11 O 1.0402(5) 0.64704(18) 0.20041(13)
O12 O 1.2392(5) 0.60312(16) 0.20713(13)
C45 C 1.2463(7) 0.7354(3) 0.24413(17)
C46 C 1.2017(6) 0.8269(2) 0.21891(17)
H51 H 1.2810 0.8513 0.2216
C47 C 1.2218(6) 0.7883(2) 0.18324(17)
C48 C 1.2917(6) 0.7353(2) 0.20064(17)
H52 H 1.3905 0.7387 0.1989
C49 C 1.1756(7) 0.8048(3) 0.29443(18)
H53 H 1.1652 0.7718 0.3111
H54 H 1.0913 0.8256 0.2956
C50 C 1.2874(7) 0.8405(2) 0.31180(18)
C51 C 1.2608(8) 0.8803(2) 0.34098(17)
H55 H 1.1719 0.8859 0.3493
C52 C 1.3624(8) 0.9116(3) 0.35809(19)
H56 H 1.3424 0.9383 0.3776
C53 C 1.4965(8) 0.9029(3) 0.34574(18)
H57 H 1.5663 0.9237 0.3572
C54 C 1.5247(8) 0.8640(3) 0.31694(18)
H58 H 1.6140 0.8584 0.3089
C55 C 1.4226(7) 0.8326(2) 0.29949(16)
H59 H 1.4431 0.8065 0.2797
C56 C 1.0736(6) 0.8629(3) 0.21637(18)
H60 H 1.0610 0.8825 0.2417
H61 H 0.9955 0.8390 0.2121
C57 C 1.0826(7) 0.9057(3) 0.18162(19)
H62 H 1.1142 0.8871 0.1574
H63 H 0.9930 0.9206 0.1761
C58 C 1.1747(9) 0.9516(3) 0.1916(2)
H64 H 1.1529 0.9741 0.2135
C59 C 1.2879(10) 0.9633(3) 0.1714(3)
H65 H 1.3127 0.9416 0.1493
H66 H 1.3420 0.9931 0.1793
C60 C 1.2874(7) 0.8017(2) 0.14303(17)
H67 H 1.3447 0.8315 0.1372
C61 C 1.2459(7) 0.7623(3) 0.11809(17)
H68 H 1.2701 0.7580 0.0911
C62 C 1.1506(7) 0.7251(3) 0.14221(17)
H69 H 1.0843 0.7043 0.1261
C63 C 1.2393(6) 0.6888(2) 0.17116(17)
H70 H 1.3148 0.6716 0.1565
C64 C 1.1592(7) 0.6453(2) 0.19369(17)
C65 C 1.1797(8) 0.5665(3) 0.2366(2)
H71 H 1.1140 0.5871 0.2525
H72 H 1.2497 0.5531 0.2548
C66 C 1.1110(9) 0.5174(3) 0.2169(2)
H73 H 1.0724 0.4938 0.2373
H74 H 1.0406 0.5306 0.1993
H75 H 1.1762 0.4966 0.2016
N4 N 0.5804(5) 0.31602(19) -0.00207(13)
O13 O 0.6168(5) 0.22434(16) -0.01993(12)
O14 O 0.4728(4) 0.29007(15) 0.07912(11)
O15 O 0.4119(5) 0.16833(16) 0.05075(13)
O16 O 0.6116(5) 0.12654(16) 0.04119(12)
C67 C 0.6183(6) 0.2616(2) 0.00552(17)
C68 C 0.5939(6) 0.3530(2) 0.03295(16)
H76 H 0.6791 0.3739 0.0307
C69 C 0.6052(6) 0.3117(2) 0.06753(17)
C70 C 0.6672(6) 0.2581(2) 0.04854(17)
H77 H 0.7664 0.2594 0.0496
C71 C 0.5549(7) 0.3359(3) -0.04261(17)
H78 H 0.4750 0.3595 -0.0422
H79 H 0.5354 0.3041 -0.0598
C72 C 0.6709(6) 0.3686(2) -0.06089(15)
C73 C 0.8043(7) 0.3574(2) -0.05134(17)
H80 H 0.8239 0.3301 -0.0322
C74 C 0.9111(7) 0.3863(2) -0.06997(18)
H81 H 1.0005 0.3783 -0.0632
C75 C 0.8823(8) 0.4267(3) -0.09825(17)
H82 H 0.9527 0.4456 -0.1110
C76 C 0.7508(8) 0.4393(2) -0.10769(17)
H83 H 0.7317 0.4669 -0.1266
C77 C 0.6453(7) 0.4105(2) -0.08892(16)
H84 H 0.5562 0.4195 -0.0953
C78 C 0.4775(6) 0.3942(2) 0.03677(17)
H85 H 0.3939 0.3736 0.0407
H86 H 0.4692 0.4150 0.0118
C79 C 0.4961(7) 0.4352(2) 0.07181(17)
H87 H 0.4119 0.4553 0.0759
H88 H 0.5152 0.4143 0.0962
C80 C 0.6071(8) 0.4765(2) 0.06523(18)
H89 H 0.6075 0.4951 0.0406
C81 C 0.7035(7) 0.4890(3) 0.0905(2)
H90 H 0.7075 0.4715 0.1155
H91 H 0.7683 0.5155 0.0835
C82 C 0.6687(6) 0.3218(2) 0.10851(16)
H92 H 0.7290 0.3501 0.1155
C83 C 0.6208(6) 0.2822(2) 0.13221(17)
H93 H 0.6422 0.2762 0.1592
C84 C 0.5244(7) 0.2487(2) 0.10656(17)
H94 H 0.4550 0.2282 0.1216
C85 C 0.6119(6) 0.2122(2) 0.07743(17)
H95 H 0.6870 0.1951 0.0924
C86 C 0.5325(7) 0.1678(2) 0.05550(17)
C87 C 0.5424(8) 0.0854(3) 0.0173(2)
H96 H 0.4769 0.1034 -0.0003
H97 H 0.4944 0.0596 0.0347
C88 C 0.6434(10) 0.0549(4) -0.0072(3)
H98 H 0.5983 0.0272 -0.0233
H99 H 0.6900 0.0806 -0.0245
H100 H 0.7074 0.0369 0.0104
loop_
_geom_bond_atom_site_label_1
_geom_bond_atom_site_label_2
_geom_bond_site_symmetry_1
_geom_bond_site_symmetry_2
O1 C1 1_555 1_555
N1 C1 1_555 1_555
C1 C4 1_555 1_555
O2 C3 1_555 1_555
C2 N1 1_555 1_555
H1 C2 1_555 1_555
O3 C20 1_555 1_555
C3 C2 1_555 1_555
O4 C20 1_555 1_555
C4 C3 1_555 1_555
H2 C4 1_555 1_555
C5 N1 1_555 1_555
H3 C5 1_555 1_555
H4 C5 1_555 1_555
C6 C5 1_555 1_555
C7 C6 1_555 1_555
H5 C7 1_555 1_555
C8 C7 1_555 1_555
H6 C8 1_555 1_555
C9 C8 1_555 1_555
H7 C9 1_555 1_555
C10 C9 1_555 1_555
H8 C10 1_555 1_555
C11 C6 1_555 1_555
H9 C11 1_555 1_555
C12 C2 1_555 1_555
H10 C12 1_555 1_555
H11 C12 1_555 1_555
C13 C12 1_555 1_555
H12 C13 1_555 1_555
H13 C13 1_555 1_555
C14 C13 1_555 1_555
H14 C14 1_555 1_555
C15 C14 1_555 1_555
H15 C15 1_555 1_555
H16 C15 1_555 1_555
C16 C3 1_555 1_555
H17 C16 1_555 1_555
C17 C16 1_555 1_555
H18 C17 1_555 1_555
C18 O2 1_555 1_555
H19 C18 1_555 1_555
C19 C4 1_555 1_555
H20 C19 1_555 1_555
C20 C19 1_555 1_555
C21 O4 1_555 1_555
H21 C21 1_555 1_555
H22 C21 1_555 1_555
C22 C21 1_555 1_555
H23 C22 1_555 1_555
H24 C22 1_555 1_555
H25 C22 1_555 1_555
N2 C23 1_555 1_555
O5 C23 1_555 1_555
O6 C25 1_555 1_555
O7 C42 1_555 1_555
O8 C42 1_555 1_555
C23 C26 1_555 1_555
C24 N2 1_555 1_555
H26 C24 1_555 1_555
C25 C24 1_555 1_555
C26 C25 1_555 1_555
H27 C26 1_555 1_555
C27 N2 1_555 1_555
H28 C27 1_555 1_555
H29 C27 1_555 1_555
C28 C27 1_555 1_555
C29 C28 1_555 1_555
H30 C29 1_555 1_555
C30 C29 1_555 1_555
H31 C30 1_555 1_555
C31 C30 1_555 1_555
H32 C31 1_555 1_555
C32 C31 1_555 1_555
H33 C32 1_555 1_555
C33 C28 1_555 1_555
H34 C33 1_555 1_555
C34 C24 1_555 1_555
H35 C34 1_555 1_555
H36 C34 1_555 1_555
C35 C34 1_555 1_555
H37 C35 1_555 1_555
H38 C35 1_555 1_555
C36 C35 1_555 1_555
H39 C36 1_555 1_555
C37 C36 1_555 1_555
H40 C37 1_555 1_555
H41 C37 1_555 1_555
C38 C25 1_555 1_555
H42 C38 1_555 1_555
C39 C38 1_555 1_555
H43 C39 1_555 1_555
C40 O6 1_555 1_555
H44 C40 1_555 1_555
C41 C26 1_555 1_555
H45 C41 1_555 1_555
C42 C41 1_555 1_555
C43 O8 1_555 1_555
H46 C43 1_555 1_555
H47 C43 1_555 1_555
C44 C43 1_555 1_555
H48 C44 1_555 1_555
H49 C44 1_555 1_555
H50 C44 1_555 1_555
N3 C45 1_555 1_555
O9 C45 1_555 1_555
O10 C47 1_555 1_555
O11 C64 1_555 1_555
O12 C64 1_555 1_555
C45 C48 1_555 1_555
C46 N3 1_555 1_555
H51 C46 1_555 1_555
C47 C46 1_555 1_555
C48 C47 1_555 1_555
H52 C48 1_555 1_555
C49 N3 1_555 1_555
H53 C49 1_555 1_555
H54 C49 1_555 1_555
C50 C49 1_555 1_555
C51 C50 1_555 1_555
H55 C51 1_555 1_555
C52 C51 1_555 1_555
H56 C52 1_555 1_555
C53 C52 1_555 1_555
H57 C53 1_555 1_555
C54 C53 1_555 1_555
H58 C54 1_555 1_555
C55 C50 1_555 1_555
H59 C55 1_555 1_555
C56 C46 1_555 1_555
H60 C56 1_555 1_555
H61 C56 1_555 1_555
C57 C56 1_555 1_555
H62 C57 1_555 1_555
H63 C57 1_555 1_555
C58 C57 1_555 1_555
H64 C58 1_555 1_555
C59 C58 1_555 1_555
H65 C59 1_555 1_555
H66 C59 1_555 1_555
C60 C47 1_555 1_555
H67 C60 1_555 1_555
C61 C60 1_555 1_555
H68 C61 1_555 1_555
C62 O10 1_555 1_555
H69 C62 1_555 1_555
C63 C48 1_555 1_555
H70 C63 1_555 1_555
C64 C63 1_555 1_555
C65 O12 1_555 1_555
H71 C65 1_555 1_555
H72 C65 1_555 1_555
C66 C65 1_555 1_555
H73 C66 1_555 1_555
H74 C66 1_555 1_555
H75 C66 1_555 1_555
N4 C67 1_555 1_555
O13 C67 1_555 1_555
O14 C69 1_555 1_555
O15 C86 1_555 1_555
O16 C86 1_555 1_555
C67 C70 1_555 1_555
C68 N4 1_555 1_555
H76 C68 1_555 1_555
C69 C68 1_555 1_555
C70 C69 1_555 1_555
H77 C70 1_555 1_555
C71 N4 1_555 1_555
H78 C71 1_555 1_555
H79 C71 1_555 1_555
C72 C71 1_555 1_555
C73 C72 1_555 1_555
H80 C73 1_555 1_555
C74 C73 1_555 1_555
H81 C74 1_555 1_555
C75 C74 1_555 1_555
H82 C75 1_555 1_555
C76 C75 1_555 1_555
H83 C76 1_555 1_555
C77 C72 1_555 1_555
H84 C77 1_555 1_555
C78 C68 1_555 1_555
H85 C78 1_555 1_555
H86 C78 1_555 1_555
C79 C78 1_555 1_555
H87 C79 1_555 1_555
H88 C79 1_555 1_555
C80 C79 1_555 1_555
H89 C80 1_555 1_555
C81 C80 1_555 1_555
H90 C81 1_555 1_555
H91 C81 1_555 1_555
C82 C69 1_555 1_555
H92 C82 1_555 1_555
C83 C82 1_555 1_555
H93 C83 1_555 1_555
C84 O14 1_555 1_555
H94 C84 1_555 1_555
C85 C70 1_555 1_555
H95 C85 1_555 1_555
C86 C85 1_555 1_555
C87 O16 1_555 1_555
H96 C87 1_555 1_555
H97 C87 1_555 1_555
C88 C87 1_555 1_555
H98 C88 1_555 1_555
H99 C88 1_555 1_555
H100 C88 1_555 1_555
C10 C11 1_555 1_555
C17 C18 1_555 1_555
C18 C19 1_555 1_555
C32 C33 1_555 1_555
C39 C40 1_555 1_555
C40 C41 1_555 1_555
C54 C55 1_555 1_555
C61 C62 1_555 1_555
C62 C63 1_555 1_555
C76 C77 1_555 1_555
C83 C84 1_555 1_555
C84 C85 1_555 1_555

#END
