
#######################################################################
#
#                 Cambridge Crystallographic Data Centre
#                                CCDC 
#
#######################################################################
#
# If this CIF has been generated from an entry in the Cambridge 
# Structural Database, then it will include bibliographic, chemical, 
# crystal, experimental, refinement or atomic coordinate data resulting 
# from the CCDC's data processing and validation procedures.
#
#######################################################################

data_OREKUT
_chemical_formula_moiety         'C22 H28 N2 O4'
_chemical_name_systematic        
'Ethyl (1R*,2S*,10S*,11R*,12S*)-5-benzyl-9-oxo-15-oxa-5,8-diazatetracyclo[10.2.1.0^1,10^.0^2,8^]pentadecane-11-carboxylate'
_symmetry_cell_setting           monoclinic
_symmetry_space_group_name_H-M   'P 21'
_symmetry_Int_Tables_number      4
_space_group_name_Hall           'P 2yb'
loop_
_symmetry_equiv_pos_site_id
_symmetry_equiv_pos_as_xyz
1 x,y,z
2 -x,1/2+y,-z
_cell_length_a                   9.67334(14)
_cell_length_b                   11.20885(18)
_cell_length_c                   18.6086(2)
_cell_angle_alpha                90
_cell_angle_beta                 94.3265(14)
_cell_angle_gamma                90
_cell_volume                     2011.93
_exptl_crystal_colour            colorless
_exptl_crystal_description       needle
_cell_formula_units_Z            4
loop_
_atom_site_label
_atom_site_type_symbol
_atom_site_fract_x
_atom_site_fract_y
_atom_site_fract_z
N1 N -0.9386(2) -0.4557(2) -0.24951(11)
N2 N -0.9191(3) -0.2752(2) -0.36373(13)
O1 O -0.73300(19) -0.77677(18) -0.11998(10)
O2 O -0.9563(2) -0.7426(2) -0.10022(12)
O3 O -0.98008(17) -0.45729(18) -0.09385(9)
O4 O -0.8425(2) -0.64234(18) -0.25058(10)
C1 C -0.6389(3) -0.9513(3) -0.16916(17)
H1 H -0.5865 -0.9010 -0.1988
H2 H -0.6597 -1.0251 -0.1938
H3 H -0.5857 -0.9670 -0.1245
C2 C -0.7720(3) -0.8896(3) -0.15410(16)
H4 H -0.8287 -0.8761 -0.1986
H5 H -0.8242 -0.9378 -0.1224
C3 C -0.8392(3) -0.7079(3) -0.10185(14)
C4 C -0.7876(2) -0.5834(2) -0.08386(14)
H6 H -0.6949 -0.5873 -0.0588
C5 C -0.8843(3) -0.5099(3) -0.03926(13)
H7 H -0.9296 -0.5568 -0.0033
C6 C -0.8062(3) -0.3994(3) -0.00775(15)
H8 H -0.7129 -0.4197 0.0110
H9 H -0.8552 -0.3628 0.0302
C7 C -0.8048(3) -0.3169(3) -0.07449(14)
H10 H -0.8566 -0.2441 -0.0681
H11 H -0.7110 -0.2970 -0.0852
C8 C -0.8760(3) -0.3961(2) -0.13263(14)
C9 C -0.7849(2) -0.5023(2) -0.15157(13)
H12 H -0.6902 -0.4762 -0.1586
C10 C -0.8574(3) -0.5454(3) -0.22198(13)
C11 C -0.9368(3) -0.3489(2) -0.20425(14)
H13 H -1.0314 -0.3198 -0.2000
C12 C -0.8460(3) -0.2496(3) -0.23264(15)
H14 H -0.8354 -0.1876 -0.1963
H15 H -0.7547 -0.2824 -0.2384
C13 C -0.8988(4) -0.1923(3) -0.30356(17)
H16 H -0.9862 -0.1529 -0.2969
H17 H -0.8332 -0.1314 -0.3159
C14 C -1.0431(3) -0.3490(3) -0.35771(16)
H18 H -1.0863 -0.3640 -0.4056
H19 H -1.1089 -0.3052 -0.3310
C15 C -1.0117(3) -0.4672(3) -0.32056(14)
H20 H -1.0981 -0.5093 -0.3158
H21 H -0.9560 -0.5153 -0.3507
C16 C -0.9287(4) -0.2084(3) -0.43194(17)
H22 H -0.8559 -0.1486 -0.4304
H23 H -1.0171 -0.1672 -0.4373
C17 C -0.9154(3) -0.2882(3) -0.49658(15)
C18 C -0.8135(3) -0.3757(3) -0.49421(15)
H24 H -0.7587 -0.3886 -0.4517
C19 C -0.7923(4) -0.4441(3) -0.55443(18)
H25 H -0.7238 -0.5024 -0.5521
C20 C -0.8727(5) -0.4255(4) -0.61763(19)
H26 H -0.8576 -0.4710 -0.6581
C21 C -0.9753(5) -0.3400(6) -0.6213(2)
H27 H -1.0303 -0.3282 -0.6639
C22 C -0.9961(4) -0.2708(4) -0.5602(2)
H28 H -1.0649 -0.2127 -0.5625
O5 O -0.23324(19) -0.16877(18) -0.13281(11)
C23 C -0.4621(3) -0.6771(3) -0.52772(15)
H29 H -0.4921 -0.7494 -0.5099
N3 N -0.4573(2) -0.49181(19) -0.25459(10)
C24 C -0.1392(3) 0.0088(3) -0.17816(16)
H30 H -0.0876 -0.0362 -0.2110
H31 H -0.0849 0.0178 -0.1332
H32 H -0.1607 0.0860 -0.1983
O6 O -0.4551(2) -0.2026(2) -0.10965(13)
C25 C -0.2718(3) -0.0561(3) -0.16572(17)
H33 H -0.3268 -0.0100 -0.1343
H34 H -0.3260 -0.0688 -0.2111
O7 O -0.47861(16) -0.48652(17) -0.09795(9)
N4 N -0.4711(2) -0.6797(2) -0.36939(11)
C26 C -0.3380(3) -0.2377(3) -0.11282(14)
C27 C -0.3681(3) -0.4042(2) -0.23160(13)
O8 O -0.3517(2) -0.30918(18) -0.26212(10)
C28 C -0.4501(2) -0.5989(2) -0.20843(12)
H35 H -0.5434 -0.6277 -0.2006
C29 C -0.2855(2) -0.3616(2) -0.09478(14)
H36 H -0.1909 -0.3574 -0.0720
C30 C -0.3644(3) -0.6980(2) -0.24012(14)
H37 H -0.2761 -0.6651 -0.2518
H38 H -0.3456 -0.7590 -0.2037
C31 C -0.4344(3) -0.7562(2) -0.30760(13)
H39 H -0.3734 -0.8183 -0.3230
H40 H -0.5184 -0.7948 -0.2942
C32 C -0.3785(3) -0.4335(2) -0.04673(13)
H41 H -0.4198 -0.3852 -0.0100
C33 C -0.5838(3) -0.5970(3) -0.35924(13)
H42 H -0.6508 -0.6372 -0.3315
H43 H -0.6295 -0.5791 -0.4062
C34 C -0.5451(3) -0.4788(3) -0.32176(13)
H44 H -0.4971 -0.4292 -0.3546
H45 H -0.6296 -0.4377 -0.3114
C35 C -0.2984(3) -0.5434(3) -0.01590(13)
H46 H -0.3434 -0.5783 0.0239
H47 H -0.2035 -0.5231 0.0001
C36 C -0.3548(3) -0.6289(3) -0.40358(13)
H48 H -0.2789 -0.6857 -0.4008
H49 H -0.3234 -0.5577 -0.3775
C37 C -0.3914(3) -0.5969(3) -0.48167(14)
C38 C -0.3045(3) -0.6284(3) -0.08202(13)
H50 H -0.2125 -0.6497 -0.0951
H51 H -0.3565 -0.7003 -0.0735
C39 C -0.3492(3) -0.4884(3) -0.50905(16)
H52 H -0.3032 -0.4334 -0.4784
C40 C -0.3752(3) -0.4613(3) -0.58172(16)
H53 H -0.3464 -0.3887 -0.5996
C41 C -0.3800(2) -0.5493(2) -0.13890(12)
C42 C -0.4444(3) -0.5429(3) -0.62737(15)
H54 H -0.4610 -0.5255 -0.6761
C43 C -0.4886(3) -0.6502(3) -0.60051(15)
H55 H -0.5360 -0.7045 -0.6311
C44 C -0.2896(2) -0.4458(2) -0.16179(12)
H56 H -0.1964 -0.4736 -0.1707
loop_
_geom_bond_atom_site_label_1
_geom_bond_atom_site_label_2
_geom_bond_site_symmetry_1
_geom_bond_site_symmetry_2
N1 C10 1_555 1_555
N2 C13 1_555 1_555
O1 C2 1_555 1_555
O2 C3 1_555 1_555
O3 C5 1_555 1_555
O4 C10 1_555 1_555
C1 H1 1_555 1_555
H2 C1 1_555 1_555
H3 C1 1_555 1_555
C2 C1 1_555 1_555
H4 C2 1_555 1_555
H5 C2 1_555 1_555
C3 O1 1_555 1_555
C4 C3 1_555 1_555
H6 C4 1_555 1_555
C5 C4 1_555 1_555
H7 C5 1_555 1_555
C6 C5 1_555 1_555
H8 C6 1_555 1_555
H9 C6 1_555 1_555
C7 C6 1_555 1_555
H10 C7 1_555 1_555
H11 C7 1_555 1_555
C8 O3 1_555 1_555
C9 C4 1_555 1_555
H12 C9 1_555 1_555
C10 C9 1_555 1_555
C11 N1 1_555 1_555
H13 C11 1_555 1_555
C12 C11 1_555 1_555
H14 C12 1_555 1_555
H15 C12 1_555 1_555
C13 C12 1_555 1_555
H16 C13 1_555 1_555
H17 C13 1_555 1_555
C14 N2 1_555 1_555
H18 C14 1_555 1_555
H19 C14 1_555 1_555
C15 N1 1_555 1_555
H20 C15 1_555 1_555
H21 C15 1_555 1_555
C16 N2 1_555 1_555
H22 C16 1_555 1_555
H23 C16 1_555 1_555
C17 C16 1_555 1_555
C18 C17 1_555 1_555
H24 C18 1_555 1_555
C19 C18 1_555 1_555
H25 C19 1_555 1_555
C20 C19 1_555 1_555
H26 C20 1_555 1_555
C21 C20 1_555 1_555
H27 C21 1_555 1_555
C22 C17 1_555 1_555
H28 C22 1_555 1_555
O5 C25 1_555 1_555
C23 H29 1_555 1_555
N3 C27 1_555 1_555
C24 H30 1_555 1_555
H31 C24 1_555 1_555
H32 C24 1_555 1_555
O6 C26 1_555 1_555
C25 C24 1_555 1_555
H33 C25 1_555 1_555
H34 C25 1_555 1_555
O7 C32 1_555 1_555
N4 C31 1_555 1_555
C26 O5 1_555 1_555
C27 O8 1_555 1_555
C28 N3 1_555 1_555
H35 C28 1_555 1_555
C29 C26 1_555 1_555
H36 C29 1_555 1_555
C30 C28 1_555 1_555
H37 C30 1_555 1_555
H38 C30 1_555 1_555
C31 C30 1_555 1_555
H39 C31 1_555 1_555
H40 C31 1_555 1_555
C32 C29 1_555 1_555
H41 C32 1_555 1_555
C33 N4 1_555 1_555
H42 C33 1_555 1_555
H43 C33 1_555 1_555
C34 N3 1_555 1_555
H44 C34 1_555 1_555
H45 C34 1_555 1_555
C35 C32 1_555 1_555
H46 C35 1_555 1_555
H47 C35 1_555 1_555
C36 N4 1_555 1_555
H48 C36 1_555 1_555
H49 C36 1_555 1_555
C37 C23 1_555 1_555
C38 C35 1_555 1_555
H50 C38 1_555 1_555
H51 C38 1_555 1_555
C39 C37 1_555 1_555
H52 C39 1_555 1_555
C40 C39 1_555 1_555
H53 C40 1_555 1_555
C41 O7 1_555 1_555
C42 C40 1_555 1_555
H54 C42 1_555 1_555
C43 C23 1_555 1_555
H55 C43 1_555 1_555
C44 C27 1_555 1_555
H56 C44 1_555 1_555
C7 C8 1_555 1_555
C8 C9 1_555 1_555
C8 C11 1_555 1_555
C14 C15 1_555 1_555
C21 C22 1_555 1_555
C28 C41 1_555 1_555
C29 C44 1_555 1_555
C33 C34 1_555 1_555
C36 C37 1_555 1_555
C38 C41 1_555 1_555
C41 C44 1_555 1_555
C42 C43 1_555 1_555

#END
