
#######################################################################
#
#                 Cambridge Crystallographic Data Centre
#                                CCDC 
#
#######################################################################
#
# If this CIF has been generated from an entry in the Cambridge 
# Structural Database, then it will include bibliographic, chemical, 
# crystal, experimental, refinement or atomic coordinate data resulting 
# from the CCDC's data processing and validation procedures.
#
#######################################################################

data_OREQUZ
_chemical_formula_moiety         'C22 H19 Br2 N1 S6 Si2'
_chemical_name_systematic        
1,11-dibromo-2,10-bis(trimethylsilyl)-6H-bisthieno[3'',2'':4',5']thieno[3',2':4,5]thieno[2,3-b:3',2'-d]pyrrole
_symmetry_cell_setting           monoclinic
_symmetry_space_group_name_H-M   'C 2/c'
_symmetry_Int_Tables_number      15
_space_group_name_Hall           '-C 2yn'
loop_
_symmetry_equiv_pos_site_id
_symmetry_equiv_pos_as_xyz
1 x,y,z
2 -x,y,1/2-z
3 1/2+x,1/2+y,z
4 1/2-x,1/2+y,1/2-z
5 -x,-y,-z
6 x,-y,1/2+z
7 1/2-x,1/2-y,-z
8 1/2+x,1/2-y,1/2+z
_cell_length_a                   21.1775(15)
_cell_length_b                   18.3158(13)
_cell_length_c                   7.0825(5)
_cell_angle_alpha                90
_cell_angle_beta                 93.269(2)
_cell_angle_gamma                90
_cell_volume                     2742.71
_exptl_crystal_colour            colorless
_exptl_crystal_description       plate
_cell_formula_units_Z            4
loop_
_atom_site_label
_atom_site_type_symbol
_atom_site_fract_x
_atom_site_fract_y
_atom_site_fract_z
Br1 Br 0.483600(8) 0.233033(10) 0.49231(2)
S1 S 0.29240(2) 0.26128(3) 0.23500(7)
S2 S 0.28934(2) 0.10233(3) 0.07078(6)
S3 S 0.37432(2) -0.03620(2) 0.11182(6)
Si1 Si 0.36558(3) 0.37222(3) 0.50541(7)
N1 N 0.5000 -0.06303(11) 0.2500
H1 H 0.5000 -0.1111 0.2500
C1 C 0.36194(9) 0.28550(10) 0.3639(3)
C2 C 0.40586(8) 0.23150(9) 0.3477(2)
C3 C 0.38702(8) 0.17071(9) 0.2320(2)
C4 C 0.32415(9) 0.17975(10) 0.1691(3)
C5 C 0.41054(8) 0.09913(9) 0.1874(2)
C6 C 0.36052(9) 0.05680(10) 0.1153(2)
C7 C 0.46660(8) 0.05502(9) 0.2224(2)
C8 C 0.45040(8) -0.01811(9) 0.1994(2)
C9 C 0.28905(11) 0.42016(12) 0.4582(3)
H2 H 0.2887 0.4652 0.5330
H3 H 0.2544 0.3884 0.4934
H4 H 0.2837 0.4322 0.3234
C10 C 0.43197(13) 0.42922(13) 0.4277(4)
H5 H 0.4352 0.4738 0.5042
H6 H 0.4242 0.4422 0.2942
H7 H 0.4716 0.4017 0.4437
C11 C 0.37669(11) 0.35066(13) 0.7619(3)
H8 H 0.3699 0.3949 0.8360
H9 H 0.4198 0.3326 0.7899
H10 H 0.3462 0.3132 0.7949
Br1A Br 0.516400(8) 0.233033(10) 0.00769(2)
S1A S 0.70760(2) 0.26128(3) 0.26500(7)
S2A S 0.71066(2) 0.10233(3) 0.42922(6)
S3A S 0.62568(2) -0.03620(2) 0.38818(6)
Si1A Si 0.63442(3) 0.37222(3) -0.00541(7)
C1A C 0.63806(9) 0.28550(10) 0.1361(3)
C2A C 0.59414(8) 0.23150(9) 0.1523(2)
C3A C 0.61298(8) 0.17071(9) 0.2680(2)
C4A C 0.67585(9) 0.17975(10) 0.3309(3)
C5A C 0.58946(8) 0.09913(9) 0.3126(2)
C6A C 0.63948(9) 0.05680(10) 0.3847(2)
C7A C 0.53340(8) 0.05502(9) 0.2776(2)
C8A C 0.54960(8) -0.01811(9) 0.3006(2)
C9A C 0.71095(11) 0.42016(12) 0.0418(3)
H2A H 0.7113 0.4652 -0.0330
H3A H 0.7456 0.3884 0.0066
H4A H 0.7163 0.4322 0.1766
C10A C 0.56803(13) 0.42922(13) 0.0723(4)
H5A H 0.5648 0.4738 -0.0042
H6A H 0.5758 0.4422 0.2058
H7A H 0.5284 0.4017 0.0563
C11A C 0.62331(11) 0.35066(13) -0.2619(3)
H8A H 0.6301 0.3949 -0.3360
H9A H 0.5802 0.3326 -0.2899
H10A H 0.6538 0.3132 -0.2949
loop_
_geom_bond_atom_site_label_1
_geom_bond_atom_site_label_2
_geom_bond_site_symmetry_1
_geom_bond_site_symmetry_2
Br1 C2 1_555 1_555
S1 C1 1_555 1_555
S2 C4 1_555 1_555
S3 C6 1_555 1_555
Si1 C1 1_555 1_555
N1 H1 1_555 1_555
C1 C2 1_555 1_555
C2 C3 1_555 1_555
C3 C4 1_555 1_555
C4 S1 1_555 1_555
C5 C3 1_555 1_555
C6 S2 1_555 1_555
C7 C5 1_555 1_555
C8 S3 1_555 1_555
C9 Si1 1_555 1_555
H2 C9 1_555 1_555
H3 C9 1_555 1_555
H4 C9 1_555 1_555
C10 Si1 1_555 1_555
H5 C10 1_555 1_555
H6 C10 1_555 1_555
H7 C10 1_555 1_555
C11 Si1 1_555 1_555
H8 C11 1_555 1_555
H9 C11 1_555 1_555
H10 C11 1_555 1_555
Br1A C2A 1_555 1_555
S1A C1A 1_555 1_555
S2A C4A 1_555 1_555
S3A C6A 1_555 1_555
Si1A C1A 1_555 1_555
C1A C2A 1_555 1_555
C2A C3A 1_555 1_555
C3A C4A 1_555 1_555
C4A S1A 1_555 1_555
C5A C3A 1_555 1_555
C6A S2A 1_555 1_555
C7A C7 1_555 1_555
C8A N1 1_555 1_555
C9A Si1A 1_555 1_555
H2A C9A 1_555 1_555
H3A C9A 1_555 1_555
H4A C9A 1_555 1_555
C10A Si1A 1_555 1_555
H5A C10A 1_555 1_555
H6A C10A 1_555 1_555
H7A C10A 1_555 1_555
C11A Si1A 1_555 1_555
H8A C11A 1_555 1_555
H9A C11A 1_555 1_555
H10A C11A 1_555 1_555
N1 C8 1_555 1_555
C5 C6 1_555 1_555
C7 C8 1_555 1_555
S3A C8A 1_555 1_555
C5A C6A 1_555 1_555
C5A C7A 1_555 1_555
C7A C8A 1_555 1_555

#END
