
#######################################################################
#
#                 Cambridge Crystallographic Data Centre
#                                CCDC 
#
#######################################################################
#
# If this CIF has been generated from an entry in the Cambridge 
# Structural Database, then it will include bibliographic, chemical, 
# crystal, experimental, refinement or atomic coordinate data resulting 
# from the CCDC's data processing and validation procedures.
#
#######################################################################

data_OREREK
_chemical_formula_moiety         'C4 H2 N7 O8 1-,H5 N2 1+'
_chemical_name_systematic        
'hydrazinium (5-(dinitromethylene)-4,5-dihydro-1H-1,2,4-triazol-3-yl)(dinitro)methanide'
_symmetry_cell_setting           triclinic
_symmetry_space_group_name_H-M   'P -1'
_symmetry_Int_Tables_number      2
_space_group_name_Hall           '-P 1'
loop_
_symmetry_equiv_pos_site_id
_symmetry_equiv_pos_as_xyz
1 x,y,z
2 -x,-y,-z
_cell_length_a                   9.7563(13)
_cell_length_b                   12.9792(17)
_cell_length_c                   17.373(2)
_cell_angle_alpha                87.744(2)
_cell_angle_beta                 73.849(2)
_cell_angle_gamma                81.576(2)
_cell_volume                     2090.3
_exptl_crystal_colour            yellow
_exptl_crystal_description       needle
_cell_formula_units_Z            8
loop_
_atom_site_label
_atom_site_type_symbol
_atom_site_fract_x
_atom_site_fract_y
_atom_site_fract_z
O1 O 0.3243(2) 0.08762(14) 0.25945(11)
O2 O 0.2296(2) 0.24685(13) 0.24474(10)
N1 N 0.2455(2) 0.15156(15) 0.22932(11)
C1 C 0.1804(3) 0.11160(16) 0.17855(13)
N2 N 0.0866(2) 0.17119(14) 0.14198(11)
O3 O 0.04963(19) 0.26596(12) 0.15522(10)
O4 O 0.04058(19) 0.12407(12) 0.09540(10)
C2 C 0.2169(3) -0.00057(16) 0.16354(13)
N3 N 0.3437(2) -0.04513(14) 0.11327(11)
H1 H 0.412(2) -0.0148(18) 0.0870(14)
N4 N 0.1391(2) -0.07167(14) 0.19851(11)
N5 N 0.2206(2) -0.16325(14) 0.16836(11)
H2 H 0.194(3) -0.223(2) 0.1810(15)
C3 C 0.3461(2) -0.14906(16) 0.11665(12)
C4 C 0.4582(3) -0.22528(17) 0.07228(13)
N6 N 0.4369(2) -0.32983(14) 0.07628(11)
O5 O 0.3319(2) -0.35292(12) 0.13095(10)
O6 O 0.5151(2) -0.39710(13) 0.02916(10)
N7 N 0.5899(2) -0.19634(14) 0.02721(11)
O7 O 0.68982(19) -0.26096(13) -0.01077(10)
O8 O 0.60481(18) -0.10236(12) 0.02872(9)
N8 N 0.1651(3) 0.47818(17) 0.09598(14)
H3 H 0.190(2) 0.4676(19) 0.0475(9)
H4 H 0.189(2) 0.5374(11) 0.0930(15)
N9 N 0.2668(3) 0.41845(17) 0.13144(13)
H5 H 0.277(2) 0.4440(15) 0.1775(8)
H6 H 0.3582(14) 0.4093(19) 0.0993(10)
H7 H 0.215(3) 0.3668(15) 0.1466(12)
O9 O 1.1966(2) 0.32949(13) -0.14153(10)
O10 O 1.02440(19) 0.37580(12) -0.03503(10)
N10 N 1.0933(2) 0.30865(14) -0.08484(11)
C5 C 1.0622(3) 0.20691(16) -0.08105(13)
N11 N 0.9303(2) 0.18345(14) -0.03206(11)
O11 O 0.83560(19) 0.25188(13) 0.00393(11)
O12 O 0.91088(18) 0.09009(12) -0.02912(9)
C6 C 1.1680(2) 0.12710(17) -0.12653(13)
N12 N 1.1686(2) 0.02383(14) -0.11987(11)
H8 H 1.102(3) -0.0045(19) -0.0872(15)
N13 N 1.2897(2) 0.13833(15) -0.18264(11)
H9 H 1.315(3) 0.194(2) -0.2025(16)
N14 N 1.3688(2) 0.04570(14) -0.21133(11)
C7 C 1.2932(3) -0.02378(17) -0.17127(13)
C8 C 1.3341(3) -0.13672(16) -0.17661(13)
N15 N 1.2786(2) -0.19278(15) -0.22326(11)
O13 O 1.1993(2) -0.14144(15) -0.26159(11)
O14 O 1.3027(2) -0.29004(13) -0.22800(11)
N16 N 1.4239(2) -0.18291(15) -0.13189(12)
O15 O 1.4649(2) -0.27822(13) -0.13302(11)
O16 O 1.4626(2) -0.12233(13) -0.09049(10)
N17 N 0.2619(2) 0.97347(17) 0.41633(13)
H10 H 0.240(2) 0.9390(16) 0.4582(10)
H11 H 0.288(2) 1.0264(13) 0.4300(14)
N18 N 0.3977(2) 0.91920(16) 0.37127(12)
H12 H 0.386(2) 0.8602(11) 0.3524(10)
H13 H 0.4673(18) 0.9048(16) 0.3965(12)
H14 H 0.451(2) 0.9531(13) 0.3303(10)
O17 O 1.0391(2) 0.83946(12) 0.64079(10)
O18 O 0.9906(2) 0.88166(12) 0.52877(10)
N19 N 1.0008(2) 0.81649(14) 0.58126(11)
C9 C 0.9746(3) 0.71411(17) 0.57732(13)
N20 N 0.8942(2) 0.68974(14) 0.52681(11)
O19 O 0.8382(2) 0.75761(13) 0.48874(10)
O20 O 0.87771(18) 0.59606(12) 0.52437(9)
C10 C 1.0354(3) 0.63563(17) 0.62304(13)
N21 N 1.0419(2) 0.53175(14) 0.61750(11)
H15 H 1.000(3) 0.5021(19) 0.5877(15)
N22 N 1.1042(2) 0.64855(15) 0.67798(11)
H16 H 1.116(3) 0.707(2) 0.6946(15)
N23 N 1.1548(2) 0.55579(14) 0.70719(11)
C11 C 1.1157(3) 0.48563(17) 0.66876(13)
C12 C 1.1494(2) 0.37286(17) 0.67711(13)
N24 N 1.0441(2) 0.31977(15) 0.72404(11)
O21 O 0.9266(2) 0.37349(15) 0.75979(10)
O22 O 1.0612(2) 0.22354(13) 0.73155(10)
N25 N 1.2846(2) 0.32372(14) 0.63634(11)
O23 O 1.3237(2) 0.22919(12) 0.64350(11)
O24 O 1.3667(2) 0.38108(13) 0.59229(10)
N26 N 0.8172(3) 0.96512(17) 0.39333(14)
H17 H 0.802(2) 1.0197(15) 0.3632(13)
H18 H 0.782(2) 0.9154(16) 0.3747(14)
N27 N 0.9693(2) 0.93095(16) 0.37390(12)
H19 H 1.009(2) 0.9804(11) 0.3883(10)
H20 H 1.0069(19) 0.9189(17) 0.3221(7)
H21 H 0.987(2) 0.8728(11) 0.3992(14)
O25 O 0.5765(2) 0.59029(14) 0.23792(11)
O26 O 0.47080(19) 0.75081(12) 0.25496(10)
N28 N 0.4700(2) 0.65569(15) 0.26956(11)
C13 C 0.3563(3) 0.61549(17) 0.32099(13)
N29 N 0.2276(2) 0.67514(14) 0.35950(11)
O27 O 0.20462(19) 0.77062(12) 0.34822(10)
O28 O 0.13493(18) 0.62800(13) 0.40557(10)
C14 C 0.3773(2) 0.50388(16) 0.33524(12)
N30 N 0.4559(2) 0.45853(14) 0.38477(11)
H22 H 0.502(3) 0.4877(19) 0.4116(15)
N31 N 0.3303(2) 0.43370(14) 0.30111(11)
N32 N 0.3817(2) 0.34146(15) 0.33118(11)
H23 H 0.366(3) 0.285(2) 0.3160(15)
C15 C 0.4588(2) 0.35473(16) 0.38193(13)
C16 C 0.5262(3) 0.27777(16) 0.42628(13)
N33 N 0.5020(2) 0.17414(14) 0.42473(12)
O29 O 0.4475(2) 0.15171(13) 0.37136(10)
O30 O 0.5310(2) 0.10759(13) 0.47280(11)
N34 N 0.6148(2) 0.30541(14) 0.47085(11)
O31 O 0.6789(2) 0.23948(13) 0.50669(10)
O32 O 0.63082(18) 0.39932(12) 0.47064(9)
N35 N 0.7296(3) -0.53595(16) 0.08679(13)
H24 H 0.668(2) -0.5808(16) 0.1050(14)
H25 H 0.684(2) -0.4792(14) 0.1138(12)
N36 N 0.8500(2) -0.56796(16) 0.11864(12)
H26 H 0.891(2) -0.6306(11) 0.0994(12)
H27 H 0.825(2) -0.5717(16) 0.1714(6)
H28 H 0.9112(19) -0.5235(14) 0.1005(15)
loop_
_geom_bond_atom_site_label_1
_geom_bond_atom_site_label_2
_geom_bond_site_symmetry_1
_geom_bond_site_symmetry_2
O1 N1 1_555 1_555
O2 N1 1_555 1_555
N1 C1 1_555 1_555
C1 N2 1_555 1_555
N2 O3 1_555 1_555
O4 N2 1_555 1_555
C2 C1 1_555 1_555
N3 C2 1_555 1_555
H1 N3 1_555 1_555
N4 C2 1_555 1_555
N5 N4 1_555 1_555
H2 N5 1_555 1_555
C3 N3 1_555 1_555
C4 C3 1_555 1_555
N6 C4 1_555 1_555
O5 N6 1_555 1_555
O6 N6 1_555 1_555
N7 C4 1_555 1_555
O7 N7 1_555 1_555
O8 N7 1_555 1_555
N8 H3 1_555 1_555
H4 N8 1_555 1_555
N9 N8 1_555 1_555
H5 N9 1_555 1_555
H6 N9 1_555 1_555
H7 N9 1_555 1_555
O9 N10 1_555 1_555
O10 N10 1_555 1_555
N10 C5 1_555 1_555
C5 N11 1_555 1_555
N11 O11 1_555 1_555
O12 N11 1_555 1_555
C6 C5 1_555 1_555
N12 C6 1_555 1_555
H8 N12 1_555 1_555
N13 C6 1_555 1_555
H9 N13 1_555 1_555
N14 N13 1_555 1_555
C7 N12 1_555 1_555
C8 C7 1_555 1_555
N15 C8 1_555 1_555
O13 N15 1_555 1_555
O14 N15 1_555 1_555
N16 C8 1_555 1_555
O15 N16 1_555 1_555
O16 N16 1_555 1_555
N17 H10 1_555 1_555
H11 N17 1_555 1_555
N18 N17 1_555 1_555
H12 N18 1_555 1_555
H13 N18 1_555 1_555
H14 N18 1_555 1_555
O17 N19 1_555 1_555
O18 N19 1_555 1_555
N19 C9 1_555 1_555
C9 N20 1_555 1_555
N20 O19 1_555 1_555
O20 N20 1_555 1_555
C10 C9 1_555 1_555
N21 C10 1_555 1_555
H15 N21 1_555 1_555
N22 C10 1_555 1_555
H16 N22 1_555 1_555
N23 N22 1_555 1_555
C11 N21 1_555 1_555
C12 C11 1_555 1_555
N24 C12 1_555 1_555
O21 N24 1_555 1_555
O22 N24 1_555 1_555
N25 C12 1_555 1_555
O23 N25 1_555 1_555
O24 N25 1_555 1_555
N26 H17 1_555 1_555
H18 N26 1_555 1_555
N27 N26 1_555 1_555
H19 N27 1_555 1_555
H20 N27 1_555 1_555
H21 N27 1_555 1_555
O25 N28 1_555 1_555
O26 N28 1_555 1_555
N28 C13 1_555 1_555
C13 N29 1_555 1_555
N29 O27 1_555 1_555
O28 N29 1_555 1_555
C14 C13 1_555 1_555
N30 C14 1_555 1_555
H22 N30 1_555 1_555
N31 C14 1_555 1_555
N32 N31 1_555 1_555
H23 N32 1_555 1_555
C15 N30 1_555 1_555
C16 C15 1_555 1_555
N33 C16 1_555 1_555
O29 N33 1_555 1_555
O30 N33 1_555 1_555
N34 C16 1_555 1_555
O31 N34 1_555 1_555
O32 N34 1_555 1_555
N35 H24 1_555 1_555
H25 N35 1_555 1_555
N36 N35 1_555 1_555
H26 N36 1_555 1_555
H27 N36 1_555 1_555
H28 N36 1_555 1_555
N5 C3 1_555 1_555
N14 C7 1_555 1_555
N23 C11 1_555 1_555
N32 C15 1_555 1_555

#END
