
#######################################################################
#
#                 Cambridge Crystallographic Data Centre
#                                CCDC 
#
#######################################################################
#
# If this CIF has been generated from an entry in the Cambridge 
# Structural Database, then it will include bibliographic, chemical, 
# crystal, experimental, refinement or atomic coordinate data resulting 
# from the CCDC's data processing and validation procedures.
#
#######################################################################

data_OREROU
_chemical_formula_moiety         'C23 H16 O1 S1'
_chemical_name_systematic        
phenyl(1-(phenylsulfanyl)-2-naphthyl)methanone
_symmetry_cell_setting           triclinic
_symmetry_space_group_name_H-M   'P -1'
_symmetry_Int_Tables_number      2
_space_group_name_Hall           '-P 1'
loop_
_symmetry_equiv_pos_site_id
_symmetry_equiv_pos_as_xyz
1 x,y,z
2 -x,-y,-z
_cell_length_a                   9.9347(5)
_cell_length_b                   10.2489(6)
_cell_length_c                   10.6994(5)
_cell_angle_alpha                63.651(5)
_cell_angle_beta                 67.294(5)
_cell_angle_gamma                70.262(5)
_cell_volume                     882.135
_exptl_crystal_colour            colorless
_exptl_crystal_description       block
_cell_formula_units_Z            2
loop_
_atom_site_label
_atom_site_type_symbol
_atom_site_fract_x
_atom_site_fract_y
_atom_site_fract_z
S1 S 0.89962(4) 0.40578(4) 0.68464(4)
O1 O 0.85042(13) 0.15477(15) 0.59817(13)
C1 C 0.77793(15) 0.16078(15) 0.83395(15)
C2 C 0.4209(3) 0.3359(3) 0.5453(3)
H1 H 0.3992 0.3459 0.4640
C3 C 0.86687(15) 0.22493(15) 0.97803(15)
C4 C 0.83974(14) 0.25525(14) 0.84472(14)
C5 C 0.78819(15) 0.56835(15) 0.72071(14)
C6 C 0.3127(3) 0.3857(3) 0.6482(3)
H2 H 0.2181 0.4315 0.6357
C7 C 0.82823(16) 0.09496(16) 1.09820(16)
C8 C 0.76664(19) -0.00027(17) 1.08192(17)
H3 H 0.7428 -0.0862 1.1600
C9 C 0.84654(18) 0.69612(17) 0.64238(17)
H4 H 0.9435 0.6917 0.5817
C10 C 0.59487(17) 0.25387(16) 0.68273(17)
C11 C 0.93075(19) 0.31698(18) 0.99597(19)
H5 H 0.9580 0.4019 0.9183
C12 C 0.74149(19) 0.03113(17) 0.95457(17)
H6 H 0.7001 -0.0328 0.9465
C13 C 0.74934(17) 0.18900(15) 0.69470(16)
C14 C 0.8532(2) 0.0639(2) 1.23140(18)
H7 H 0.8278 -0.0207 1.3106
C15 C 0.7608(2) 0.83027(18) 0.6543(2)
H8 H 0.7998 0.9162 0.6004
C16 C 0.9135(2) 0.1559(2) 1.2450(2)
H9 H 0.9286 0.1345 1.3333
C17 C 0.48271(19) 0.3021(2) 0.7887(2)
H10 H 0.5023 0.2895 0.8721
C18 C 0.5612(2) 0.7101(2) 0.8251(2)
H11 H 0.4652 0.7147 0.8878
C19 C 0.64502(18) 0.57507(17) 0.81307(18)
H12 H 0.6053 0.4896 0.8667
C20 C 0.9530(2) 0.2828(2) 1.1264(2)
H13 H 0.9951 0.3449 1.1362
C21 C 0.6184(2) 0.83719(19) 0.7452(2)
H14 H 0.5609 0.9276 0.7528
C22 C 0.5627(2) 0.2706(2) 0.5602(2)
H15 H 0.6365 0.2379 0.4887
C23 C 0.3417(2) 0.3691(3) 0.7706(3)
H16 H 0.2668 0.4027 0.8411
loop_
_geom_bond_atom_site_label_1
_geom_bond_atom_site_label_2
_geom_bond_site_symmetry_1
_geom_bond_site_symmetry_2
S1 C4 1_555 1_555
O1 C13 1_555 1_555
C1 C4 1_555 1_555
C2 H1 1_555 1_555
C3 C4 1_555 1_555
C5 S1 1_555 1_555
C6 C2 1_555 1_555
H2 C6 1_555 1_555
C7 C3 1_555 1_555
C8 C7 1_555 1_555
H3 C8 1_555 1_555
C9 C5 1_555 1_555
H4 C9 1_555 1_555
C10 C13 1_555 1_555
C11 C3 1_555 1_555
H5 C11 1_555 1_555
C12 C1 1_555 1_555
H6 C12 1_555 1_555
C13 C1 1_555 1_555
C14 C7 1_555 1_555
H7 C14 1_555 1_555
C15 C9 1_555 1_555
H8 C15 1_555 1_555
C16 C14 1_555 1_555
H9 C16 1_555 1_555
C17 C10 1_555 1_555
H10 C17 1_555 1_555
C18 H11 1_555 1_555
C19 C5 1_555 1_555
H12 C19 1_555 1_555
C20 C11 1_555 1_555
H13 C20 1_555 1_555
C21 C15 1_555 1_555
H14 C21 1_555 1_555
C22 C2 1_555 1_555
H15 C22 1_555 1_555
C23 C6 1_555 1_555
H16 C23 1_555 1_555
C8 C12 1_555 1_555
C10 C22 1_555 1_555
C16 C20 1_555 1_555
C17 C23 1_555 1_555
C18 C19 1_555 1_555
C18 C21 1_555 1_555

#END
