
#######################################################################
#
#                 Cambridge Crystallographic Data Centre
#                                CCDC 
#
#######################################################################
#
# If this CIF has been generated from an entry in the Cambridge 
# Structural Database, then it will include bibliographic, chemical, 
# crystal, experimental, refinement or atomic coordinate data resulting 
# from the CCDC's data processing and validation procedures.
#
#######################################################################

data_ORESAH
_chemical_formula_moiety         'C4 H2 N7 O8 1-,H4 N1 1+'
_chemical_name_systematic        
'ammonium (5-(dinitromethylene)-4,5-dihydro-1H-1,2,4-triazol-3-yl)(dinitro)methanide'
_symmetry_cell_setting           monoclinic
_symmetry_space_group_name_H-M   'P 21/c'
_symmetry_Int_Tables_number      14
_space_group_name_Hall           '-P 2ybc'
loop_
_symmetry_equiv_pos_site_id
_symmetry_equiv_pos_as_xyz
1 x,y,z
2 -x,1/2+y,1/2-z
3 -x,-y,-z
4 x,1/2-y,1/2+z
_cell_length_a                   4.7794(9)
_cell_length_b                   16.946(3)
_cell_length_c                   12.510(2)
_cell_angle_alpha                90
_cell_angle_beta                 99.820(3)
_cell_angle_gamma                90
_cell_volume                     998.361
_exptl_crystal_colour            yellow
_exptl_crystal_description       needle
_cell_formula_units_Z            4
loop_
_atom_site_label
_atom_site_type_symbol
_atom_site_fract_x
_atom_site_fract_y
_atom_site_fract_z
O1 O 0.9811(4) 0.65113(13) -0.29021(15)
O2 O 1.2111(4) 0.59810(12) -0.14205(16)
N1 N 1.0192(5) 0.64161(14) -0.18983(18)
O3 O 0.5580(4) 0.74370(12) -0.26391(16)
O4 O 0.5123(5) 0.76327(13) -0.09616(18)
N2 N 0.6337(5) 0.73027(14) -0.16518(19)
C1 C 0.8509(6) 0.67919(16) -0.1253(2)
C2 C 0.8997(6) 0.66522(17) -0.0092(2)
N3 N 1.0943(5) 0.69869(15) 0.06285(18)
N4 N 1.0476(5) 0.66810(14) 0.15916(18)
H1 H 1.1507 0.6801 0.2223
C3 C 0.8281(6) 0.61794(16) 0.1473(2)
N5 N 0.7352(5) 0.61545(14) 0.03981(18)
H2 H 0.5931 0.5867 0.0066
C4 C 0.7147(6) 0.57495(17) 0.2296(2)
N6 N 0.4731(5) 0.52740(14) 0.20122(19)
O5 O 0.3683(4) 0.52362(11) 0.10266(15)
O6 O 0.3660(4) 0.49186(13) 0.27003(16)
N7 N 0.8406(5) 0.58353(14) 0.33791(18)
O7 O 0.7641(5) 0.54589(13) 0.41306(16)
O8 O 1.0390(4) 0.63276(13) 0.35690(16)
N8 N 0.4059(4) 0.62670(10) 0.56846(14)
H3 H 0.334(2) 0.6332(3) 0.4986(2)
H4 H 0.2892(8) 0.6456(3) 0.6106(3)
H5 H 0.5598(8) 0.6533(2) 0.5988(8)
H6 H 0.4337(11) 0.57547(10) 0.5820(4)
loop_
_geom_bond_atom_site_label_1
_geom_bond_atom_site_label_2
_geom_bond_site_symmetry_1
_geom_bond_site_symmetry_2
O1 N1 1_555 1_555
O2 N1 1_555 1_555
N1 C1 1_555 1_555
O3 N2 1_555 1_555
O4 N2 1_555 1_555
N2 C1 1_555 1_555
C1 C2 1_555 1_555
C2 N3 1_555 1_555
N3 N4 1_555 1_555
N4 H1 1_555 1_555
C3 N4 1_555 1_555
N5 C2 1_555 1_555
H2 N5 1_555 1_555
C4 C3 1_555 1_555
N6 C4 1_555 1_555
O5 N6 1_555 1_555
O6 N6 1_555 1_555
N7 C4 1_555 1_555
O7 N7 1_555 1_555
O8 N7 1_555 1_555
N8 H3 1_555 1_555
H4 N8 1_555 1_555
H5 N8 1_555 1_555
H6 N8 1_555 1_555
C3 N5 1_555 1_555

#END
