
#######################################################################
#
#                 Cambridge Crystallographic Data Centre
#                                CCDC 
#
#######################################################################
#
# If this CIF has been generated from an entry in the Cambridge 
# Structural Database, then it will include bibliographic, chemical, 
# crystal, experimental, refinement or atomic coordinate data resulting 
# from the CCDC's data processing and validation procedures.
#
#######################################################################

data_ORETIP
_chemical_name_common            
'2-Amino-4-phenyl-1,3-thiazol-3-ium saccharinate'
_chemical_formula_moiety         'C9 H9 N2 S1 1+,C7 H4 N1 O3 S1 1-'
_chemical_name_systematic        
'2-Amino-4-phenyl-1,3-thiazol-3-ium 3-oxo-3H-1,2-benzothiazol-2-ide 1,1-dioxide'
_symmetry_cell_setting           triclinic
_symmetry_space_group_name_H-M   'P -1'
_symmetry_Int_Tables_number      2
_space_group_name_Hall           '-P 1'
loop_
_symmetry_equiv_pos_site_id
_symmetry_equiv_pos_as_xyz
1 x,y,z
2 -x,-y,-z
_cell_length_a                   7.4584(7)
_cell_length_b                   8.6930(9)
_cell_length_c                   12.9179(14)
_cell_angle_alpha                108.952(2)
_cell_angle_beta                 91.751(1)
_cell_angle_gamma                97.228(1)
_cell_volume                     783.566
_exptl_crystal_colour            colorless
_exptl_crystal_description       block
_chemical_melting_point          '206-208 deg.C'
_cell_formula_units_Z            2
loop_
_atom_site_label
_atom_site_type_symbol
_atom_site_fract_x
_atom_site_fract_y
_atom_site_fract_z
S1 S 0.16780(12) 0.47001(9) 0.29429(7)
N1 N 0.0993(3) 0.3054(3) 0.3241(2)
O1 O 0.3016(3) 0.4412(3) 0.21540(18)
O2 O 0.0171(3) 0.5413(3) 0.26755(18)
O3 O 0.1141(3) 0.2184(2) 0.47252(16)
C1 C 0.1476(4) 0.3266(4) 0.4291(2)
C2 C 0.2482(4) 0.4925(3) 0.4912(2)
C3 C 0.2691(4) 0.5890(4) 0.4250(2)
C4 C 0.3574(5) 0.7472(4) 0.4626(3)
H4 H 0.3705 0.8108 0.4169
C5 C 0.4261(5) 0.8082(4) 0.5705(3)
H5 H 0.4860 0.9154 0.5984
C6 C 0.4078(5) 0.7136(4) 0.6379(3)
H6 H 0.4560 0.7575 0.7104
C7 C 0.3187(4) 0.5547(4) 0.5990(3)
H7 H 0.3064 0.4907 0.6445
S2 S 0.69268(14) -0.28321(11) 0.18441(8)
N2 N 0.8462(3) 0.0016(3) 0.20571(18)
H1 H 0.9068 0.0985 0.2335
N3 N 0.9058(4) -0.0784(3) 0.3577(2)
H2 H 0.9727 0.0140 0.3909
H3 H 0.8899 -0.1522 0.3888
C8 C 0.8285(4) -0.1064(4) 0.2600(3)
C9 C 0.7585(4) -0.0553(4) 0.1004(2)
C10 C 0.6701(5) -0.2073(4) 0.0775(3)
H8 H 0.6037 -0.2658 0.0112
C11 C 0.7702(4) 0.0480(4) 0.0306(2)
C12 C 0.7389(4) -0.0232(4) -0.0823(3)
H9 H 0.7088 -0.1365 -0.1134
C13 C 0.7522(5) 0.0731(5) -0.1486(3)
H10 H 0.7292 0.0243 -0.2241
C14 C 0.7988(5) 0.2400(5) -0.1045(3)
H11 H 0.8092 0.3041 -0.1499
C15 C 0.8300(5) 0.3118(4) 0.0069(3)
H12 H 0.8622 0.4251 0.0371
C16 C 0.8139(4) 0.2169(4) 0.0745(3)
H13 H 0.8327 0.2671 0.1502
loop_
_geom_bond_atom_site_label_1
_geom_bond_atom_site_label_2
_geom_bond_site_symmetry_1
_geom_bond_site_symmetry_2
S1 N1 1_555 1_555
S2 C8 1_555 1_555
N1 C1 1_555 1_555
N2 H1 1_555 1_555
N3 H2 1_555 1_555
H3 N3 1_555 1_555
O1 S1 1_555 1_555
O2 S1 1_555 1_555
O3 C1 1_555 1_555
C1 C2 1_555 1_555
C2 C3 1_555 1_555
C3 S1 1_555 1_555
C4 C3 1_555 1_555
H4 C4 1_555 1_555
C5 C4 1_555 1_555
H5 C5 1_555 1_555
C6 C5 1_555 1_555
H6 C6 1_555 1_555
C7 C2 1_555 1_555
H7 C7 1_555 1_555
C8 N2 1_555 1_555
C9 N2 1_555 1_555
C10 S2 1_555 1_555
H8 C10 1_555 1_555
C11 C9 1_555 1_555
C12 C11 1_555 1_555
H9 C12 1_555 1_555
C13 C12 1_555 1_555
H10 C13 1_555 1_555
C14 C13 1_555 1_555
H11 C14 1_555 1_555
C15 C14 1_555 1_555
H12 C15 1_555 1_555
C16 C11 1_555 1_555
H13 C16 1_555 1_555
N3 C8 1_555 1_555
C6 C7 1_555 1_555
C9 C10 1_555 1_555
C15 C16 1_555 1_555

#END
