
#######################################################################
#
#                 Cambridge Crystallographic Data Centre
#                                CCDC 
#
#######################################################################
#
# If this CIF has been generated from an entry in the Cambridge 
# Structural Database, then it will include bibliographic, chemical, 
# crystal, experimental, refinement or atomic coordinate data resulting 
# from the CCDC's data processing and validation procedures.
#
#######################################################################

data_ORETOV
_chemical_name_common            '2-Aminopyrimidinium saccharinate'
_chemical_formula_moiety         'C4 H6 N3 1+,C7 H4 N1 O3 S1 1-'
_chemical_name_systematic        
'2-Aminopyrimidinium 3-oxo-3H-1,2-benzothiazol-2-ide 1,1-dioxide'
_symmetry_cell_setting           monoclinic
_symmetry_space_group_name_H-M   'P 21/c'
_symmetry_Int_Tables_number      14
_space_group_name_Hall           '-P 2ybc'
loop_
_symmetry_equiv_pos_site_id
_symmetry_equiv_pos_as_xyz
1 x,y,z
2 -x,1/2+y,1/2-z
3 -x,-y,-z
4 x,1/2-y,1/2+z
_cell_length_a                   7.1782(9)
_cell_length_b                   13.5105(16)
_cell_length_c                   12.2251(12)
_cell_angle_alpha                90
_cell_angle_beta                 93.341(1)
_cell_angle_gamma                90
_cell_volume                     1183.59
_exptl_crystal_colour            colorless
_exptl_crystal_description       block
_chemical_melting_point          '185-186 deg.C'
_cell_formula_units_Z            4
loop_
_atom_site_label
_atom_site_type_symbol
_atom_site_fract_x
_atom_site_fract_y
_atom_site_fract_z
N1 N 0.7455(3) 0.10951(15) -0.00610(16)
O1 O 0.8878(3) 0.25280(13) 0.10013(15)
O2 O 0.5550(3) 0.25519(13) 0.05457(16)
O3 O 0.7359(3) -0.06027(13) -0.00804(14)
S1 S 0.71792(10) 0.19693(4) 0.08171(5)
C1 C 0.7210(3) 0.02022(18) 0.0398(2)
C2 C 0.6770(3) 0.02470(17) 0.15722(19)
C3 C 0.6795(3) 0.12041(17) 0.19514(18)
C4 C 0.6501(3) 0.14393(19) 0.30294(19)
H4 H 0.6528 0.2090 0.3276
C5 C 0.6163(4) 0.0657(2) 0.3722(2)
H5 H 0.5983 0.0784 0.4456
C6 C 0.6089(4) -0.0306(2) 0.3347(2)
H6 H 0.5834 -0.0816 0.3827
C7 C 0.6388(3) -0.05220(18) 0.2268(2)
H7 H 0.6334 -0.1171 0.2016
N2 N 0.8153(3) 0.58370(14) 0.28616(16)
H1 H 0.7930 0.5740 0.3537
N3 N 0.8630(3) 0.41616(15) 0.26432(17)
H2 H 0.8910 0.3665 0.2244
H3 H 0.8381 0.4071 0.3316
C8 C 0.8580(3) 0.50619(18) 0.22234(19)
N4 N 0.8972(3) 0.51861(16) 0.11722(17)
C9 C 0.8918(4) 0.6098(2) 0.0788(2)
H8 H 0.9201 0.6196 0.0063
C10 C 0.8465(4) 0.6921(2) 0.1396(2)
H9 H 0.8432 0.7553 0.1093
C11 C 0.8076(4) 0.67598(19) 0.2447(2)
H10 H 0.7753 0.7288 0.2886
loop_
_geom_bond_atom_site_label_1
_geom_bond_atom_site_label_2
_geom_bond_site_symmetry_1
_geom_bond_site_symmetry_2
N1 S1 1_555 1_555
N2 H1 1_555 1_555
N3 H2 1_555 1_555
H3 N3 1_555 1_555
O1 S1 1_555 1_555
O2 S1 1_555 1_555
O3 C1 1_555 1_555
S1 C3 1_555 1_555
C1 N1 1_555 1_555
C2 C1 1_555 1_555
C3 C2 1_555 1_555
C4 C3 1_555 1_555
H4 C4 1_555 1_555
C5 C4 1_555 1_555
H5 C5 1_555 1_555
C6 C5 1_555 1_555
H6 C6 1_555 1_555
C7 C2 1_555 1_555
H7 C7 1_555 1_555
C8 N2 1_555 1_555
N4 C8 1_555 1_555
C9 N4 1_555 1_555
H8 C9 1_555 1_555
C10 C9 1_555 1_555
H9 C10 1_555 1_555
C11 N2 1_555 1_555
H10 C11 1_555 1_555
N3 C8 1_555 1_555
C6 C7 1_555 1_555
C10 C11 1_555 1_555

#END
