
#######################################################################
#
#                 Cambridge Crystallographic Data Centre
#                                CCDC 
#
#######################################################################
#
# If this CIF has been generated from an entry in the Cambridge 
# Structural Database, then it will include bibliographic, chemical, 
# crystal, experimental, refinement or atomic coordinate data resulting 
# from the CCDC's data processing and validation procedures.
#
#######################################################################

data_OREXIU
_chemical_formula_moiety         'C25 H23 N1 O3 S1'
_chemical_name_systematic        
1-((4-methylphenyl)sulfonyl)-4-phenyl-5-vinyl-1,3,4,5-tetrahydro-2H-1-benzazepin-2-one
_symmetry_cell_setting           orthorhombic
_symmetry_space_group_name_H-M   'P 21 21 21'
_symmetry_Int_Tables_number      19
_space_group_name_Hall           'P 2ac 2ab'
loop_
_symmetry_equiv_pos_site_id
_symmetry_equiv_pos_as_xyz
1 x,y,z
2 1/2-x,-y,1/2+z
3 -x,1/2+y,1/2-z
4 1/2+x,1/2-y,-z
_cell_length_a                   9.7547(3)
_cell_length_b                   12.6902(3)
_cell_length_c                   17.1960(4)
_cell_angle_alpha                90
_cell_angle_beta                 90
_cell_angle_gamma                90
_cell_volume                     2128.68
_exptl_crystal_colour            colorless
_exptl_crystal_description       prism
_cell_formula_units_Z            4
loop_
_atom_site_label
_atom_site_type_symbol
_atom_site_fract_x
_atom_site_fract_y
_atom_site_fract_z
N1 N 0.5350(2) 0.54045(17) 0.66540(11)
O1 O 0.7035(2) 0.43066(16) 0.62269(10)
S1 S 0.63868(7) 0.64717(5) 0.65634(3)
O2 O 0.5536(2) 0.73496(15) 0.67588(10)
O3 O 0.7618(2) 0.62855(19) 0.69908(10)
C1 C 0.1545(3) 0.5402(2) 0.65100(15)
H1 H 0.0846 0.5231 0.6147
C2 C 0.1186(3) 0.5761(2) 0.72462(15)
H2 H 0.0246 0.5835 0.738
C3 C 0.2188(3) 0.6010(2) 0.77853(15)
H3 H 0.1939 0.6254 0.8288
C4 C 0.3567(3) 0.5899(2) 0.75854(14)
H4 H 0.4263 0.6064 0.7952
C5 C 0.3918(3) 0.55454(19) 0.68439(14)
C6 C 0.2918(3) 0.52903(19) 0.62976(14)
C7 C 0.3350(2) 0.48535(19) 0.55094(13)
H5 H 0.4141 0.5286 0.5322
C8 C 0.2240(3) 0.4919(2) 0.49015(14)
H6 H 0.15 0.4434 0.493
C9 C 0.2241(3) 0.5611(2) 0.43354(15)
H7 H 0.2968 0.6106 0.4293
H8 H 0.1515 0.5618 0.3967
C10 C 0.3866(3) 0.36979(19) 0.56025(13)
H9 H 0.3038 0.3247 0.5684
C11 C 0.4787(3) 0.3562(2) 0.63313(13)
H10 H 0.4203 0.3564 0.6802
H11 H 0.5256 0.2871 0.6304
C12 C 0.5842(3) 0.4416(2) 0.64016(13)
C13 C 0.4564(3) 0.33075(19) 0.48646(13)
C14 C 0.4124(3) 0.23766(19) 0.45206(13)
H12 H 0.3393 0.1991 0.4749
C15 C 0.4743(3) 0.2003(2) 0.38441(13)
H13 H 0.4435 0.1363 0.3617
C16 C 0.5806(3) 0.2561(2) 0.35010(13)
H14 H 0.6226 0.2307 0.3039
C17 C 0.6250(3) 0.3493(2) 0.38384(12)
H15 H 0.6977 0.3879 0.3607
C18 C 0.5635(3) 0.38643(19) 0.45139(13)
H16 H 0.5945 0.4504 0.474
C19 C 0.6759(3) 0.6512(2) 0.55631(14)
C20 C 0.5797(3) 0.6956(2) 0.50641(15)
H17 H 0.4988 0.7271 0.5266
C21 C 0.6031(3) 0.6933(2) 0.42687(15)
H18 H 0.5381 0.7242 0.3926
C22 C 0.7212(3) 0.6460(2) 0.39631(15)
C23 C 0.8172(3) 0.6049(2) 0.44779(17)
H19 H 0.8992 0.5748 0.4279
C24 C 0.7958(3) 0.6067(2) 0.52783(16)
H20 H 0.8621 0.5781 0.5623
C25 C 0.7426(4) 0.6383(3) 0.30966(16)
H21 H 0.8353 0.6623 0.2966
H22 H 0.6752 0.6826 0.2829
H23 H 0.7313 0.5649 0.2931
loop_
_geom_bond_atom_site_label_1
_geom_bond_atom_site_label_2
_geom_bond_site_symmetry_1
_geom_bond_site_symmetry_2
N1 S1 1_555 1_555
O1 C12 1_555 1_555
S1 O2 1_555 1_555
O3 S1 1_555 1_555
C1 H1 1_555 1_555
C2 C1 1_555 1_555
H2 C2 1_555 1_555
C3 C2 1_555 1_555
H3 C3 1_555 1_555
C4 C3 1_555 1_555
H4 C4 1_555 1_555
C5 N1 1_555 1_555
C6 C1 1_555 1_555
C7 C6 1_555 1_555
H5 C7 1_555 1_555
C8 C7 1_555 1_555
H6 C8 1_555 1_555
C9 C8 1_555 1_555
H7 C9 1_555 1_555
H8 C9 1_555 1_555
C10 C7 1_555 1_555
H9 C10 1_555 1_555
C11 C10 1_555 1_555
H10 C11 1_555 1_555
H11 C11 1_555 1_555
C12 N1 1_555 1_555
C13 C10 1_555 1_555
C14 C13 1_555 1_555
H12 C14 1_555 1_555
C15 C14 1_555 1_555
H13 C15 1_555 1_555
C16 C15 1_555 1_555
H14 C16 1_555 1_555
C17 C16 1_555 1_555
H15 C17 1_555 1_555
C18 C13 1_555 1_555
H16 C18 1_555 1_555
C19 S1 1_555 1_555
C20 C19 1_555 1_555
H17 C20 1_555 1_555
C21 C20 1_555 1_555
H18 C21 1_555 1_555
C22 C21 1_555 1_555
C23 C22 1_555 1_555
H19 C23 1_555 1_555
C24 C19 1_555 1_555
H20 C24 1_555 1_555
C25 C22 1_555 1_555
H21 C25 1_555 1_555
H22 C25 1_555 1_555
H23 C25 1_555 1_555
C4 C5 1_555 1_555
C5 C6 1_555 1_555
C11 C12 1_555 1_555
C17 C18 1_555 1_555
C23 C24 1_555 1_555

#END
