
#######################################################################
#
#                 Cambridge Crystallographic Data Centre
#                                CCDC 
#
#######################################################################
#
# If this CIF has been generated from an entry in the Cambridge 
# Structural Database, then it will include bibliographic, chemical, 
# crystal, experimental, refinement or atomic coordinate data resulting 
# from the CCDC's data processing and validation procedures.
#
#######################################################################

data_OREYER
_chemical_formula_moiety         'C4 H12 N1 1+,2(C25 H26 F7 N3 O1 S1),Cl1 1-'
_chemical_name_systematic        
'tetramethylammonium chloride bis(1-(3,5-bis(trifluoromethyl)phenyl)-3-((R)-1-((S)-2-(4-fluorophenyl)pyrrolidin-1-yl)-3,3-dimethyl-1-oxobutan-2-yl)thiourea)'
_symmetry_cell_setting           monoclinic
_symmetry_space_group_name_H-M   'P 21'
_symmetry_Int_Tables_number      4
_space_group_name_Hall           'P 2yb'
loop_
_symmetry_equiv_pos_site_id
_symmetry_equiv_pos_as_xyz
1 x,y,z
2 -x,1/2+y,-z
_cell_length_a                   10.1941(8)
_cell_length_b                   26.676(2)
_cell_length_c                   12.0718(9)
_cell_angle_alpha                90
_cell_angle_beta                 113.1070(10)
_cell_angle_gamma                90
_cell_volume                     3019.41
_exptl_crystal_colour            colorless
_exptl_crystal_description       block
_cell_formula_units_Z            2
loop_
_atom_site_label
_atom_site_type_symbol
_atom_site_fract_x
_atom_site_fract_y
_atom_site_fract_z
C1 C 0.2534(2) -0.10403(8) -0.07699(18)
H1 H 0.1566 -0.0974 -0.0910
C2 C 0.3456(2) -0.12066(9) 0.03525(19)
H2 H 0.3134 -0.1254 0.0985
C3 C 0.4851(2) -0.13009(9) 0.05274(19)
C4 C 0.5355(2) -0.12331(9) -0.0351(2)
H3 H 0.6326 -0.1299 -0.0201
C5 C 0.4425(2) -0.10670(8) -0.14663(19)
H4 H 0.4763 -0.1019 -0.2089
C6 C 0.3002(2) -0.09693(7) -0.16945(17)
C7 C 0.2032(2) -0.07783(8) -0.29375(16)
H5 H 0.2145 -0.0994 -0.3571
C8 C 0.2329(2) -0.02311(8) -0.3144(2)
H6 H 0.3349 -0.0147 -0.2703
H7 H 0.2052 -0.0160 -0.4011
C9 C 0.1391(2) 0.00553(8) -0.2639(2)
H8 H 0.1835 0.0067 -0.1748
H9 H 0.1216 0.0402 -0.2957
C10 C 0.0018(2) -0.02468(7) -0.30755(19)
H10 H -0.0467 -0.0218 -0.2510
H11 H -0.0643 -0.0136 -0.3885
C11 C -0.0235(2) -0.11889(7) -0.32867(16)
C12 C -0.1760(2) -0.11605(7) -0.33380(16)
H12 H -0.1919 -0.0813 -0.3103
C13 C -0.1472(2) -0.13794(7) -0.12685(17)
C14 C -0.1044(2) -0.18105(7) 0.06855(16)
C15 C -0.1635(2) -0.22015(7) 0.10943(17)
H13 H -0.2271 -0.2430 0.0536
C16 C -0.1297(2) -0.22596(7) 0.23192(17)
C17 C -0.0380(2) -0.19327(7) 0.31536(17)
H14 H -0.0171 -0.1969 0.3989
C18 C 0.0227(2) -0.15495(7) 0.27326(17)
C19 C -0.0077(2) -0.14854(7) 0.15201(16)
H15 H 0.0364 -0.1224 0.1257
C20 C -0.2939(2) -0.12743(8) -0.45890(17)
C21 C -0.2872(2) -0.18074(8) -0.50156(19)
H16 H -0.1936 -0.1866 -0.5043
H17 H -0.3618 -0.1854 -0.5822
H18 H -0.3019 -0.2046 -0.4457
C22 C -0.2775(2) -0.09021(9) -0.54849(18)
H19 H -0.2865 -0.0560 -0.5229
H20 H -0.3520 -0.0963 -0.6285
H21 H -0.1836 -0.0944 -0.5517
C23 C -0.4391(2) -0.11926(11) -0.4508(2)
H22 H -0.4493 -0.1427 -0.3921
H23 H -0.5156 -0.1252 -0.5299
H24 H -0.4451 -0.0848 -0.4253
C24 C -0.1972(2) -0.26838(9) 0.27103(18)
C25 C 0.1254(2) -0.11996(8) 0.36327(17)
N1 N 0.05213(17) -0.07650(6) -0.31078(13)
N2 N -0.18290(18) -0.15053(6) -0.24240(14)
N3 N -0.13917(19) -0.17843(6) -0.05561(14)
O1 O 0.02981(15) -0.15990(5) -0.33453(13)
F1 F 0.57655(15) -0.14634(6) 0.16302(12)
F2 F -0.1927(2) -0.31092(5) 0.21818(16)
F3 F -0.33543(17) -0.25936(7) 0.24566(17)
F4 F -0.14080(18) -0.27575(6) 0.38945(12)
F5 F 0.21776(12) -0.14427(4) 0.45895(10)
F6 F 0.05890(14) -0.08690(5) 0.40731(11)
F7 F 0.20227(15) -0.09335(5) 0.31683(11)
S1 S -0.12127(6) -0.078423(18) -0.07809(4)
H25 H -0.191(2) -0.1807(9) -0.2585(18)
H26 H -0.168(2) -0.2075(9) -0.091(2)
Cl1 Cl -0.29874(5) -0.265257(18) -0.23226(4)
C26 C -0.6458(3) -0.30996(8) -0.2575(2)
H27 H -0.5461 -0.3013 -0.2094
H28 H -0.6548 -0.3217 -0.3371
H29 H -0.6762 -0.3366 -0.2168
C27 C -0.7298(3) -0.24795(9) -0.1522(2)
H30 H -0.7609 -0.2752 -0.1137
H31 H -0.7921 -0.2188 -0.1625
H32 H -0.6313 -0.2387 -0.1015
C28 C -0.6878(3) -0.22329(9) -0.3292(2)
H33 H -0.5872 -0.2160 -0.2808
H34 H -0.7450 -0.1932 -0.3343
H35 H -0.6987 -0.2335 -0.4104
C29 C -0.8882(2) -0.27805(9) -0.3482(2)
H36 H -0.8934 -0.2910 -0.4257
H37 H -0.9482 -0.2481 -0.3616
H38 H -0.9220 -0.3037 -0.3075
N4 N -0.73745(18) -0.26477(7) -0.27139(15)
C30 C 0.1482(2) -0.42177(8) -0.40258(17)
H39 H 0.0648 -0.4202 -0.3857
C31 C 0.1400(2) -0.40869(9) -0.51709(19)
H40 H 0.0530 -0.3974 -0.5776
C32 C 0.2613(3) -0.41261(9) -0.53945(19)
C33 C 0.3896(3) -0.42731(9) -0.4544(2)
H41 H 0.4721 -0.4292 -0.4725
C34 C 0.3959(2) -0.43945(8) -0.34036(19)
H42 H 0.4841 -0.4497 -0.2797
C35 C 0.2750(2) -0.43686(7) -0.31355(17)
C36 C 0.2887(2) -0.44972(7) -0.18559(17)
H43 H 0.3537 -0.4252 -0.1269
C37 C 0.3412(2) -0.50309(8) -0.14787(19)
H44 H 0.4126 -0.5132 -0.1803
H45 H 0.3833 -0.5066 -0.0591
C38 C 0.2046(2) -0.53384(7) -0.20388(19)
H46 H 0.2145 -0.5667 -0.1634
H47 H 0.1798 -0.5394 -0.2909
C39 C 0.0925(2) -0.50150(7) -0.18360(18)
H48 H -0.0014 -0.5048 -0.2515
H49 H 0.0825 -0.5109 -0.1080
C40 C 0.0886(2) -0.40747(7) -0.16109(16)
C41 C -0.0615(2) -0.41067(7) -0.15839(16)
H50 H -0.0996 -0.4452 -0.1837
C42 C -0.2274(2) -0.38597(7) -0.36351(17)
C43 C -0.3999(2) -0.34168(7) -0.54502(17)
C44 C -0.5046(2) -0.30488(7) -0.56906(18)
H51 H -0.5081 -0.2849 -0.5051
C45 C -0.6036(2) -0.29711(8) -0.68526(18)
C46 C -0.6006(2) -0.32565(8) -0.78029(18)
H52 H -0.6691 -0.3207 -0.8599
C47 C -0.4951(2) -0.36149(7) -0.75594(17)
C48 C -0.3950(2) -0.36995(7) -0.64096(16)
H53 H -0.3234 -0.3947 -0.6271
C49 C -0.0625(2) -0.40019(8) -0.03189(17)
C50 C -0.0100(3) -0.34756(8) 0.01441(19)
H54 H 0.0872 -0.3431 0.0185
H55 H -0.0104 -0.3432 0.0949
H56 H -0.0731 -0.3226 -0.0405
C51 C 0.0324(2) -0.43909(9) 0.05543(18)
H57 H -0.0039 -0.4728 0.0273
H58 H 0.0321 -0.4336 0.1356
H59 H 0.1300 -0.4360 0.0596
C52 C -0.2158(2) -0.40654(10) -0.0411(2)
H60 H -0.2765 -0.3806 -0.0943
H61 H -0.2177 -0.4033 0.0391
H62 H -0.2514 -0.4397 -0.0742
C53 C -0.4916(2) -0.39202(8) -0.85854(18)
F8 F -0.37022(14) -0.41684(5) -0.83188(11)
F9 F -0.50736(15) -0.36351(5) -0.95487(10)
F10 F -0.59713(16) -0.42568(5) -0.89696(12)
C54 C -0.7183(9) -0.2593(3) -0.7050(8)
F11 F -0.7977(11) -0.2507(4) -0.8199(6)
F12 F -0.6679(6) -0.21655(19) -0.6482(5)
F13 F -0.8121(5) -0.2755(2) -0.6568(5)
N5 N 0.14907(17) -0.45000(6) -0.17616(13)
N6 N -0.15288(19) -0.37525(6) -0.24677(14)
N7 N -0.30341(19) -0.34581(6) -0.42581(15)
O2 O 0.14569(15) -0.36618(5) -0.15473(13)
F14 F 0.25401(17) -0.40128(6) -0.65173(13)
S2 S -0.22740(6) -0.443031(18) -0.42195(4)
H63 H -0.305(2) -0.3217(8) -0.382(2)
H64 H -0.154(2) -0.3453(9) -0.228(2)
C55? C -0.7119(13) -0.2573(5) -0.7051(13)
F15? F -0.8175(17) -0.2596(6) -0.8110(9)
F16? F -0.6606(9) -0.2108(3) -0.6946(7)
F17? F -0.7706(8) -0.2586(3) -0.6238(7)
loop_
_geom_bond_atom_site_label_1
_geom_bond_atom_site_label_2
_geom_bond_site_symmetry_1
_geom_bond_site_symmetry_2
C1 H1 1_555 1_555
C2 C1 1_555 1_555
H2 C2 1_555 1_555
C3 C2 1_555 1_555
C4 C3 1_555 1_555
H3 C4 1_555 1_555
C5 C4 1_555 1_555
H4 C5 1_555 1_555
C6 C1 1_555 1_555
C7 C6 1_555 1_555
H5 C7 1_555 1_555
C8 C7 1_555 1_555
H6 C8 1_555 1_555
H7 C8 1_555 1_555
C9 C8 1_555 1_555
H8 C9 1_555 1_555
H9 C9 1_555 1_555
C10 C9 1_555 1_555
H10 C10 1_555 1_555
H11 C10 1_555 1_555
C11 C12 1_555 1_555
C12 H12 1_555 1_555
C13 N2 1_555 1_555
C14 C15 1_555 1_555
C15 H13 1_555 1_555
C16 C15 1_555 1_555
C17 C16 1_555 1_555
H14 C17 1_555 1_555
C18 C17 1_555 1_555
C19 C14 1_555 1_555
H15 C19 1_555 1_555
C20 C12 1_555 1_555
C21 C20 1_555 1_555
H16 C21 1_555 1_555
H17 C21 1_555 1_555
H18 C21 1_555 1_555
C22 C20 1_555 1_555
H19 C22 1_555 1_555
H20 C22 1_555 1_555
H21 C22 1_555 1_555
C23 C20 1_555 1_555
H22 C23 1_555 1_555
H23 C23 1_555 1_555
H24 C23 1_555 1_555
C24 C16 1_555 1_555
C25 C18 1_555 1_555
N1 C7 1_555 1_555
N2 C12 1_555 1_555
N3 C13 1_555 1_555
O1 C11 1_555 1_555
F1 C3 1_555 1_555
F2 C24 1_555 1_555
F3 C24 1_555 1_555
F4 C24 1_555 1_555
F5 C25 1_555 1_555
F6 C25 1_555 1_555
F7 C25 1_555 1_555
S1 C13 1_555 1_555
H25 N2 1_555 1_555
H26 N3 1_555 1_555
C26 H27 1_555 1_555
H28 C26 1_555 1_555
H29 C26 1_555 1_555
C27 H30 1_555 1_555
H31 C27 1_555 1_555
H32 C27 1_555 1_555
C28 H33 1_555 1_555
H34 C28 1_555 1_555
H35 C28 1_555 1_555
C29 H36 1_555 1_555
H37 C29 1_555 1_555
H38 C29 1_555 1_555
N4 C26 1_555 1_555
C30 H39 1_555 1_555
C31 C30 1_555 1_555
H40 C31 1_555 1_555
C32 C31 1_555 1_555
C33 C32 1_555 1_555
H41 C33 1_555 1_555
C34 C33 1_555 1_555
H42 C34 1_555 1_555
C35 C30 1_555 1_555
C36 C35 1_555 1_555
H43 C36 1_555 1_555
C37 C36 1_555 1_555
H44 C37 1_555 1_555
H45 C37 1_555 1_555
C38 C37 1_555 1_555
H46 C38 1_555 1_555
H47 C38 1_555 1_555
C39 C38 1_555 1_555
H48 C39 1_555 1_555
H49 C39 1_555 1_555
C40 C41 1_555 1_555
C41 H50 1_555 1_555
C42 N6 1_555 1_555
C43 C44 1_555 1_555
C44 H51 1_555 1_555
C45 C44 1_555 1_555
C46 C45 1_555 1_555
H52 C46 1_555 1_555
C47 C46 1_555 1_555
C48 C43 1_555 1_555
H53 C48 1_555 1_555
C49 C41 1_555 1_555
C50 C49 1_555 1_555
H54 C50 1_555 1_555
H55 C50 1_555 1_555
H56 C50 1_555 1_555
C51 C49 1_555 1_555
H57 C51 1_555 1_555
H58 C51 1_555 1_555
H59 C51 1_555 1_555
C52 C49 1_555 1_555
H60 C52 1_555 1_555
H61 C52 1_555 1_555
H62 C52 1_555 1_555
C53 C47 1_555 1_555
F8 C53 1_555 1_555
F9 C53 1_555 1_555
F10 C53 1_555 1_555
C54 C45 1_555 1_555
F11 C54 1_555 1_555
F12 C54 1_555 1_555
F13 C54 1_555 1_555
N5 C36 1_555 1_555
N6 C41 1_555 1_555
N7 C42 1_555 1_555
O2 C40 1_555 1_555
F14 C32 1_555 1_555
S2 C42 1_555 1_555
H63 N7 1_555 1_555
H64 N6 1_555 1_555
C5 C6 1_555 1_555
C10 N1 1_555 1_555
C11 N1 1_555 1_555
C14 N3 1_555 1_555
C18 C19 1_555 1_555
C27 N4 1_555 1_555
C28 N4 1_555 1_555
C29 N4 1_555 1_555
C34 C35 1_555 1_555
C39 N5 1_555 1_555
C40 N5 1_555 1_555
C43 N7 1_555 1_555
C47 C48 1_555 1_555

#END
