
#######################################################################
#
#                 Cambridge Crystallographic Data Centre
#                                CCDC 
#
#######################################################################
#
# If this CIF has been generated from an entry in the Cambridge 
# Structural Database, then it will include bibliographic, chemical, 
# crystal, experimental, refinement or atomic coordinate data resulting 
# from the CCDC's data processing and validation procedures.
#
#######################################################################

data_ORIBEY
_chemical_formula_moiety         'C23 H22 N2 O6 S1'
_chemical_name_systematic        
"methyl 3'-methyl-2'-(1-(((4-nitrophenyl)sulfonyl)amino)ethyl)biphenyl-4-carboxylate"
_symmetry_cell_setting           triclinic
_symmetry_space_group_name_H-M   'P 1'
_symmetry_Int_Tables_number      1
_space_group_name_Hall           'P 1'
loop_
_symmetry_equiv_pos_site_id
_symmetry_equiv_pos_as_xyz
1 x,y,z
_cell_length_a                   6.2719(2)
_cell_length_b                   9.7785(3)
_cell_length_c                   10.0673(4)
_cell_angle_alpha                115.4260(10)
_cell_angle_beta                 93.8290(10)
_cell_angle_gamma                100.8960(10)
_cell_volume                     539.897
_exptl_crystal_colour            colorless
_exptl_crystal_description       needle
_cell_formula_units_Z            1
loop_
_atom_site_label
_atom_site_type_symbol
_atom_site_fract_x
_atom_site_fract_y
_atom_site_fract_z
S1 S 0.75431(6) 0.58600(5) 0.63231(5)
O1 O 0.1106(5) 1.0596(3) 0.9498(3)
O2 O 0.0388(4) 0.9047(3) 1.0513(3)
O3 O 0.8825(3) 0.67716(19) 0.57307(18)
O4 O 0.8597(2) 0.53237(18) 0.72543(16)
O5 O 0.0761(3) 1.08534(17) 0.61198(18)
O6 O 0.3950(3) 1.24529(17) 0.62944(17)
N1 N 0.1337(4) 0.9477(3) 0.9692(3)
N2 N 0.5983(3) 0.43174(19) 0.49532(17)
H1 H 0.542(4) 0.366(2) 0.527(2)
C1 C 0.2944(4) 0.8617(3) 0.8880(3)
C2 C 0.3084(4) 0.7273(3) 0.8980(3)
H2 H 0.2231 0.6933 0.9575
C3 C 0.4508(3) 0.6432(2) 0.8184(2)
H3 H 0.4621 0.5489 0.8209
C4 C 0.5765(4) 0.6977(2) 0.7350(2)
C5 C 0.5613(4) 0.8349(3) 0.7279(2)
H4 H 0.6490 0.8713 0.6708
C6 C 0.4156(5) 0.9174(3) 0.8058(3)
H5 H 0.4004 1.0106 0.8021
C7 C 0.4508(3) 0.4527(2) 0.3873(2)
H6 H 0.4261 0.5599 0.4399
C8 C 0.2266(3) 0.3372(3) 0.3486(2)
H7 H 0.2475 0.2310 0.3126
H8 H 0.1322 0.3432 0.2707
H9 H 0.1569 0.3635 0.4378
C9 C 0.5567(3) 0.4446(2) 0.2530(2)
C10 C 0.6494(3) 0.3196(2) 0.1699(2)
C11 C 0.7518(4) 0.3208(3) 0.0517(2)
H10 H 0.8128 0.2359 -0.0048
C12 C 0.7666(4) 0.4434(3) 0.0146(2)
H11 H 0.8377 0.4424 -0.0661
C13 C 0.6776(4) 0.5661(3) 0.0958(2)
H12 H 0.6901 0.6510 0.0719
C14 C 0.5690(3) 0.5673(2) 0.2131(2)
C15 C 0.6501(4) 0.1834(2) 0.2045(2)
H13 H 0.7085 0.1054 0.1267
H14 H 0.4994 0.1362 0.2079
H15 H 0.7428 0.2204 0.3013
C16 C 0.4801(3) 0.7067(2) 0.2959(2)
C17 C 0.2643(3) 0.6940(2) 0.3265(2)
H16 H 0.1651 0.5940 0.2861
C18 C 0.1937(3) 0.8252(2) 0.4148(2)
H17 H 0.0485 0.8146 0.4373
C19 C 0.3356(3) 0.9727(2) 0.4707(2)
C20 C 0.5451(3) 0.9878(2) 0.4324(2)
H18 H 0.6395 1.0886 0.4657
C21 C 0.6162(3) 0.8558(2) 0.3456(2)
H19 H 0.7592 0.8671 0.3198
C22 C 0.2752(3) 1.1151(2) 0.5768(2)
C23 C 0.0144(4) 1.2198(3) 0.7221(3)
H20 H 0.1196 1.2655 0.8153
H21 H -0.1336 1.1871 0.7406
H22 H 0.0155 1.2975 0.6849
loop_
_geom_bond_atom_site_label_1
_geom_bond_atom_site_label_2
_geom_bond_site_symmetry_1
_geom_bond_site_symmetry_2
S1 O3 1_555 1_555
O1 N1 1_555 1_555
O2 N1 1_555 1_555
O4 S1 1_555 1_555
O5 C22 1_555 1_555
O6 C22 1_555 1_555
N1 C1 1_555 1_555
N2 S1 1_555 1_555
H1 N2 1_555 1_555
C1 C2 1_555 1_555
C2 H2 1_555 1_555
C3 C2 1_555 1_555
H3 C3 1_555 1_555
C4 S1 1_555 1_555
C5 C4 1_555 1_555
H4 C5 1_555 1_555
C6 C1 1_555 1_555
H5 C6 1_555 1_555
C7 N2 1_555 1_555
H6 C7 1_555 1_555
C8 C7 1_555 1_555
H7 C8 1_555 1_555
H8 C8 1_555 1_555
H9 C8 1_555 1_555
C9 C7 1_555 1_555
C10 C9 1_555 1_555
C11 C10 1_555 1_555
H10 C11 1_555 1_555
C12 C11 1_555 1_555
H11 C12 1_555 1_555
C13 C12 1_555 1_555
H12 C13 1_555 1_555
C14 C9 1_555 1_555
C15 C10 1_555 1_555
H13 C15 1_555 1_555
H14 C15 1_555 1_555
H15 C15 1_555 1_555
C16 C14 1_555 1_555
C17 C16 1_555 1_555
H16 C17 1_555 1_555
C18 C17 1_555 1_555
H17 C18 1_555 1_555
C19 C18 1_555 1_555
C20 C19 1_555 1_555
H18 C20 1_555 1_555
C21 C16 1_555 1_555
H19 C21 1_555 1_555
C22 C19 1_555 1_555
C23 O5 1_555 1_555
H20 C23 1_555 1_555
H21 C23 1_555 1_555
H22 C23 1_555 1_555
C3 C4 1_555 1_555
C5 C6 1_555 1_555
C13 C14 1_555 1_555
C20 C21 1_555 1_555

#END
