
#######################################################################
#
#                 Cambridge Crystallographic Data Centre
#                                CCDC 
#
#######################################################################
#
# If this CIF has been generated from an entry in the Cambridge 
# Structural Database, then it will include bibliographic, chemical, 
# crystal, experimental, refinement or atomic coordinate data resulting 
# from the CCDC's data processing and validation procedures.
#
#######################################################################

data_ORIDIE
_chemical_formula_moiety         'C19 H17 Br1 O3'
_chemical_name_systematic        
2-(4-bromophenyl)-2-hydroxy-3-propionyl-3,4-dihydronaphthalen-1(2H)-one
_symmetry_cell_setting           orthorhombic
_symmetry_space_group_name_H-M   'P 21 21 21'
_symmetry_Int_Tables_number      19
_space_group_name_Hall           'P 2ac 2ab'
loop_
_symmetry_equiv_pos_site_id
_symmetry_equiv_pos_as_xyz
1 x,y,z
2 1/2-x,-y,1/2+z
3 1/2+x,1/2-y,-z
4 -x,1/2+y,1/2-z
_cell_length_a                   6.0467(4)
_cell_length_b                   9.9294(8)
_cell_length_c                   27.622(2)
_cell_angle_alpha                90
_cell_angle_beta                 90
_cell_angle_gamma                90
_cell_volume                     1658.43
_exptl_crystal_colour            colorless
_exptl_crystal_description       prism
_cell_formula_units_Z            4
loop_
_atom_site_label
_atom_site_type_symbol
_atom_site_fract_x
_atom_site_fract_y
_atom_site_fract_z
Br1 Br -0.09914(9) 0.58079(6) 0.16555(2)
O1 O 0.7773(4) 0.7059(2) 0.35374(9)
O2 O 0.7457(4) 0.4560(2) 0.32173(9)
H1 H 0.8297 0.5136 0.3110
O3 O 0.6998(5) 0.4477(3) 0.43691(11)
C1 C 0.1089(6) 0.5718(4) 0.21703(12)
C2 C 0.2458(7) 0.4631(4) 0.21940(14)
H2 H 0.2432 0.3981 0.1952
C3 C 0.3878(7) 0.4507(3) 0.25802(13)
H3 H 0.4814 0.3765 0.2595
C4 C 0.3957(5) 0.5448(3) 0.29460(11)
C5 C 0.2566(6) 0.6541(4) 0.29062(13)
H4 H 0.2594 0.7202 0.3145
C6 C 0.1122(6) 0.6678(3) 0.25179(13)
H5 H 0.0189 0.7420 0.2497
C7 C 0.5482(5) 0.5181(3) 0.33817(11)
C8 C 0.6044(6) 0.6494(3) 0.36409(11)
C9 C 0.4458(5) 0.7029(3) 0.39902(11)
C10 C 0.4686(6) 0.8356(3) 0.41584(13)
H6 H 0.5866 0.8882 0.4054
C11 C 0.3172(7) 0.8879(4) 0.44768(13)
H7 H 0.3336 0.9755 0.4590
C12 C 0.1411(7) 0.8110(4) 0.46295(13)
H8 H 0.0376 0.8472 0.4842
C13 C 0.1181(6) 0.6806(4) 0.44678(12)
H9 H -0.0006 0.6292 0.4576
C14 C 0.2678(5) 0.6247(3) 0.41483(11)
C15 C 0.2340(5) 0.4822(3) 0.39672(13)
H10 H 0.1140 0.4823 0.3734
H11 H 0.1893 0.4261 0.4238
C16 C 0.4385(5) 0.4193(3) 0.37297(11)
H12 H 0.3900 0.3408 0.3542
C17 C 0.6000(6) 0.3708(3) 0.41140(12)
C18 C 0.6228(7) 0.2226(3) 0.41711(15)
H13 H 0.6751 0.1853 0.3867
H14 H 0.4776 0.1850 0.4233
C19 C 0.7779(9) 0.1776(4) 0.45719(17)
H15 H 0.9279 0.1963 0.4480
H16 H 0.7606 0.0826 0.4625
H17 H 0.7432 0.2253 0.4864
loop_
_geom_bond_atom_site_label_1
_geom_bond_atom_site_label_2
_geom_bond_site_symmetry_1
_geom_bond_site_symmetry_2
Br1 C1 1_555 1_555
O1 C8 1_555 1_555
O2 H1 1_555 1_555
O3 C17 1_555 1_555
C1 C2 1_555 1_555
C2 H2 1_555 1_555
C3 C2 1_555 1_555
H3 C3 1_555 1_555
C4 C3 1_555 1_555
C5 C4 1_555 1_555
H4 C5 1_555 1_555
C6 C1 1_555 1_555
H5 C6 1_555 1_555
C7 O2 1_555 1_555
C8 C7 1_555 1_555
C9 C8 1_555 1_555
C10 C9 1_555 1_555
H6 C10 1_555 1_555
C11 C10 1_555 1_555
H7 C11 1_555 1_555
C12 C11 1_555 1_555
H8 C12 1_555 1_555
C13 C12 1_555 1_555
H9 C13 1_555 1_555
C14 C9 1_555 1_555
C15 C14 1_555 1_555
H10 C15 1_555 1_555
H11 C15 1_555 1_555
C16 C7 1_555 1_555
H12 C16 1_555 1_555
C17 C16 1_555 1_555
C18 C17 1_555 1_555
H13 C18 1_555 1_555
H14 C18 1_555 1_555
C19 C18 1_555 1_555
H15 C19 1_555 1_555
H16 C19 1_555 1_555
H17 C19 1_555 1_555
C4 C7 1_555 1_555
C5 C6 1_555 1_555
C13 C14 1_555 1_555
C15 C16 1_555 1_555

#END
