
#######################################################################
#
#                 Cambridge Crystallographic Data Centre
#                                CCDC 
#
#######################################################################
#
# If this CIF has been generated from an entry in the Cambridge 
# Structural Database, then it will include bibliographic, chemical, 
# crystal, experimental, refinement or atomic coordinate data resulting 
# from the CCDC's data processing and validation procedures.
#
#######################################################################

data_ORIDEA
_chemical_formula_moiety         'C19 H17 Cl1 O4'
_chemical_name_systematic        
'ethyl 3-(4-chlorophenyl)-3-hydroxy-4-oxo-1,2,3,4-tetrahydronaphthalene-2-carboxylate'
_symmetry_cell_setting           orthorhombic
_symmetry_space_group_name_H-M   'P 21 21 21'
_symmetry_Int_Tables_number      19
_space_group_name_Hall           'P 2ac 2ab'
loop_
_symmetry_equiv_pos_site_id
_symmetry_equiv_pos_as_xyz
1 x,y,z
2 1/2-x,-y,1/2+z
3 -x,1/2+y,1/2-z
4 1/2+x,1/2-y,-z
_cell_length_a                   6.2378(12)
_cell_length_b                   11.146(2)
_cell_length_c                   23.681(5)
_cell_angle_alpha                90
_cell_angle_beta                 90
_cell_angle_gamma                90
_cell_volume                     1646.46
_exptl_crystal_colour            colorless
_exptl_crystal_description       prism
_cell_formula_units_Z            4
loop_
_atom_site_label
_atom_site_type_symbol
_atom_site_fract_x
_atom_site_fract_y
_atom_site_fract_z
Cl1 Cl -0.18384(15) 0.13326(8) 0.13770(3)
O1 O 0.6948(3) -0.01848(18) 0.28657(8)
H1 H 0.6632 -0.0806 0.2700
O2 O 0.7341(3) 0.20039(18) 0.32840(8)
O3 O 0.5694(3) -0.20585(16) 0.41029(8)
C1 C 0.2423(4) 0.1249(2) 0.40106(9)
O4 O 0.6951(4) -0.02094(18) 0.42106(10)
C2 C 0.4134(4) -0.0565(2) 0.35297(10)
H2 H 0.3722 -0.1297 0.3327
C3 C 0.5682(4) 0.1497(2) 0.34129(10)
C4 C 0.4132(4) 0.1967(2) 0.38274(10)
C5 C 0.3413(4) 0.0617(2) 0.26469(9)
C6 C 0.5072(4) 0.0331(2) 0.31033(10)
C7 C 0.2122(4) -0.0025(2) 0.38058(10)
H3 H 0.0957 -0.0041 0.3535
H4 H 0.1709 -0.0524 0.4123
C8 C 0.2820(6) 0.3609(3) 0.43860(12)
H5 H 0.2947 0.4396 0.4512
C9 C 0.2745(4) 0.1775(2) 0.25234(10)
H6 H 0.3368 0.2417 0.2713
C10 C 0.5756(4) -0.0891(2) 0.39797(10)
C11 C 0.0953(5) -0.0119(2) 0.19334(11)
H7 H 0.0367 -0.0752 0.1729
C12 C 0.0263(4) 0.1051(2) 0.18447(10)
C13 C 0.1174(5) 0.1993(2) 0.21253(11)
H8 H 0.0740 0.2775 0.2049
C14 C 0.0944(5) 0.1739(3) 0.43847(11)
H9 H -0.0193 0.1273 0.4513
C15 C 0.6948(6) -0.3812(3) 0.45709(13)
H10 H 0.7940 -0.4117 0.4846
H11 H 0.5510 -0.3991 0.4688
H12 H 0.7224 -0.4181 0.4212
C16 C 0.7216(5) -0.2477(2) 0.45201(11)
H13 H 0.6945 -0.2095 0.4881
H14 H 0.8666 -0.2285 0.4403
C17 C 0.2525(5) -0.0319(2) 0.23302(10)
H15 H 0.3011 -0.1097 0.2390
C18 C 0.4316(5) 0.3144(2) 0.40159(11)
H16 H 0.5448 0.3619 0.3892
C19 C 0.1146(6) 0.2911(3) 0.45684(12)
H17 H 0.0142 0.3228 0.4817
loop_
_geom_bond_atom_site_label_1
_geom_bond_atom_site_label_2
_geom_bond_site_symmetry_1
_geom_bond_site_symmetry_2
Cl1 C12 1_555 1_555
O1 H1 1_555 1_555
O2 C3 1_555 1_555
O3 C10 1_555 1_555
C1 C4 1_555 1_555
O4 C10 1_555 1_555
C2 H2 1_555 1_555
C3 C4 1_555 1_555
C4 C18 1_555 1_555
C5 C6 1_555 1_555
C6 O1 1_555 1_555
C7 C1 1_555 1_555
H3 C7 1_555 1_555
H4 C7 1_555 1_555
C8 H5 1_555 1_555
C9 C5 1_555 1_555
H6 C9 1_555 1_555
C10 C2 1_555 1_555
C11 H7 1_555 1_555
C12 C11 1_555 1_555
C13 C9 1_555 1_555
H8 C13 1_555 1_555
C14 C1 1_555 1_555
H9 C14 1_555 1_555
C15 H10 1_555 1_555
H11 C15 1_555 1_555
H12 C15 1_555 1_555
C16 O3 1_555 1_555
H13 C16 1_555 1_555
H14 C16 1_555 1_555
C17 C5 1_555 1_555
H15 C17 1_555 1_555
C18 C8 1_555 1_555
H16 C18 1_555 1_555
C19 C8 1_555 1_555
H17 C19 1_555 1_555
C2 C6 1_555 1_555
C2 C7 1_555 1_555
C3 C6 1_555 1_555
C11 C17 1_555 1_555
C12 C13 1_555 1_555
C14 C19 1_555 1_555
C15 C16 1_555 1_555

#END
