
#######################################################################
#
#                 Cambridge Crystallographic Data Centre
#                                CCDC 
#
#######################################################################
#
# If this CIF has been generated from an entry in the Cambridge 
# Structural Database, then it will include bibliographic, chemical, 
# crystal, experimental, refinement or atomic coordinate data resulting 
# from the CCDC's data processing and validation procedures.
#
#######################################################################

data_ORIGED02
_chemical_formula_moiety         'C44 H45 N4 O3 P1 S1,0.5(C1 H2 Cl2),H2 O1'
_chemical_name_systematic        
"3-((4-((2-(diphenylphosphino)ethyl)sulfanyl)phenyl)amino)-4-((6'-methoxy-10,11-dihydrocinchonan-9-yl)amino)cyclobut-3-ene-1,2-dione dichloromethane solvate monohydrate"
_symmetry_cell_setting           monoclinic
_symmetry_space_group_name_H-M   'C 2'
_symmetry_Int_Tables_number      5
_space_group_name_Hall           'C 2y'
loop_
_symmetry_equiv_pos_site_id
_symmetry_equiv_pos_as_xyz
1 x,y,z
2 -x,y,-z
3 1/2+x,1/2+y,z
4 1/2-x,1/2+y,-z
_cell_length_a                   48.8875(19)
_cell_length_b                   6.1721(2)
_cell_length_c                   13.7803(5)
_cell_angle_alpha                90
_cell_angle_beta                 103.831(3)
_cell_angle_gamma                90
_cell_volume                     4037.49
_exptl_crystal_colour            colorless
_exptl_crystal_description       plate
_cell_formula_units_Z            4
_exptl_crystal_recrystallization_method 'Vapour deposition'
loop_
_atom_site_label
_atom_site_type_symbol
_atom_site_fract_x
_atom_site_fract_y
_atom_site_fract_z
S1 S 0.56946(2) 0.3372(2) 0.03066(9)
P1 P 0.56525(3) -0.1216(3) 0.27792(10)
O1 O 0.69953(6) 0.8248(5) 0.1158(2)
O2 O 0.76273(6) 0.8012(5) 0.2530(2)
O3 O 0.84836(7) 0.9193(5) 0.5264(2)
N1 N 0.69513(7) 0.2841(5) 0.1236(2)
H1 H 0.7018 0.1542 0.1163
N2 N 0.75973(7) 0.2734(5) 0.2555(2)
H2 H 0.7541 0.1379 0.2472
N3 N 0.80452(8) 0.2204(6) 0.1632(2)
N4 N 0.79416(8) 0.1996(6) 0.6299(3)
C1 C 0.56897(11) -0.0224(9) 0.4060(4)
C2 C 0.5910(2) 0.1053(15) 0.4506(6)
H3 H 0.6043 0.1468 0.4135
C3 C 0.5950(2) 0.1769(17) 0.5477(6)
H4 H 0.6103 0.2705 0.5756
C4 C 0.5769(4) 0.113(4) 0.6034(19)
H5 H 0.5792 0.1691 0.6691
C5 C 0.5553(2) -0.0310(19) 0.5669(7)
H6 H 0.5431 -0.0779 0.6071
C6 C 0.5519(2) -0.1058(18) 0.4682(6)
H7 H 0.5380 -0.2128 0.4426
C7 C 0.52716(12) -0.1300(10) 0.2317(4)
C8 C 0.57263(11) 0.1282(10) 0.2138(4)
H8 H 0.5634 0.2535 0.2376
H9 H 0.5932 0.1553 0.2301
C9 C 0.56163(10) 0.1043(10) 0.1003(4)
H10 H 0.5410 0.0827 0.0847
H11 H 0.5701 -0.0266 0.0780
C10 C 0.60675(9) 0.3250(8) 0.0568(3)
C11 C 0.62039(9) 0.1424(7) 0.0333(3)
H12 H 0.6096 0.0224 0.0024
C12 C 0.64955(9) 0.1318(7) 0.0541(3)
H13 H 0.6585 0.0045 0.0382
C13 C 0.66581(9) 0.3081(7) 0.0983(3)
C14 C 0.65217(9) 0.4935(7) 0.1207(3)
H14 H 0.6629 0.6152 0.1499
C15 C 0.62303(9) 0.5013(8) 0.1005(3)
H15 H 0.6140 0.6281 0.1166
C16 C 0.71417(9) 0.4414(6) 0.1581(3)
C17 C 0.71521(9) 0.6780(7) 0.1539(3)
C18 C 0.74472(9) 0.6683(7) 0.2165(3)
C19 C 0.74233(9) 0.4301(6) 0.2153(3)
C20 C 0.78848(8) 0.3212(7) 0.3141(3)
H16 H 0.7925 0.4776 0.3045
C21 C 0.79079(8) 0.2833(6) 0.4253(3)
C22 C 0.77825(9) 0.1062(7) 0.4562(3)
H17 H 0.7681 0.0065 0.4084
C23 C 0.78035(9) 0.0718(7) 0.5583(3)
H18 H 0.7712 -0.0517 0.5770
C24 C 0.80705(9) 0.3775(7) 0.6013(3)
C25 C 0.82287(10) 0.5113(7) 0.6765(3)
H19 H 0.8238 0.4768 0.7445
C26 C 0.83691(10) 0.6900(7) 0.6551(3)
H20 H 0.8478 0.7764 0.7074
C27 C 0.83512(9) 0.7442(7) 0.5546(3)
C28 C 0.81985(9) 0.6186(7) 0.4793(3)
H21 H 0.8188 0.6591 0.4119
C29 C 0.80558(9) 0.4296(7) 0.4986(3)
C30 C 0.86462(10) 1.0561(8) 0.6014(3)
H22 H 0.8725 1.1753 0.5697
H23 H 0.8800 0.9723 0.6435
H24 H 0.8526 1.1151 0.6426
C31 C 0.80955(9) 0.1849(7) 0.2729(3)
H25 H 0.8055 0.0289 0.2835
C32 C 0.84097(9) 0.2261(7) 0.3242(3)
H26 H 0.8425 0.3209 0.3831
H27 H 0.8505 0.0871 0.3470
C33 C 0.85510(9) 0.3346(7) 0.2490(3)
H28 H 0.8747 0.3806 0.2827
C34 C 0.83755(9) 0.5305(7) 0.2051(3)
H29 H 0.8475 0.6152 0.1631
H30 H 0.8345 0.6254 0.2595
C35 C 0.80906(10) 0.4501(7) 0.1415(3)
H31 H 0.7937 0.5392 0.1560
H32 H 0.8087 0.4667 0.0698
C36 C 0.82528(9) 0.0887(7) 0.1266(3)
H33 H 0.8199 0.0847 0.0526
H34 H 0.8250 -0.0617 0.1512
C37 C 0.85566(9) 0.1816(7) 0.1618(3)
H35 H 0.8593 0.2723 0.1061
C38 C 0.87825(9) 0.0080(7) 0.1840(3)
H36 H 0.8742 -0.1012 0.1299
H37 H 0.8775 -0.0659 0.2471
C39 C 0.90775(11) 0.0962(9) 0.1934(5)
H38 H 0.9084 0.1777 0.1329
H39 H 0.9212 -0.0243 0.2018
H40 H 0.9128 0.1922 0.2516
C40 C 0.5095(6) 0.016(4) 0.242(2)
H41 H 0.5162 0.1405 0.2804
C41 C 0.4805(4) -0.003(3) 0.1971(12)
H42 H 0.4677 0.1045 0.2083
C42 C 0.4712(3) -0.177(3) 0.1377(12)
H43 H 0.4518 -0.1897 0.1050
C43 C 0.4905(3) -0.338(3) 0.1251(9)
H44 H 0.4839 -0.4616 0.0857
C44 C 0.5192(3) -0.318(3) 0.1694(11)
H45 H 0.5326 -0.4221 0.1593
Cl1 Cl 0.48930(5) 0.4910(5) 0.39154(16)
C45 C 0.5000 0.335(3) 0.5000
H46 H 0.4842 0.2400 0.5068
Cl1A Cl 0.51070(5) 0.4910(5) 0.60846(16)
H46A H 0.5158 0.2400 0.4932
O4 O 0.75154(7) 0.1197(6) 0.0317(2)
H47 H 0.7397 0.0773 0.0656
H48 H 0.7463 0.2442 0.0043
C46? C 0.5105(9) 0.072(6) 0.252(3)
H49? H 0.5202 0.1857 0.2928
C47? C 0.4816(5) 0.091(4) 0.2107(17)
H50? H 0.4718 0.2202 0.2191
C48? C 0.4678(5) -0.078(4) 0.1588(17)
H51? H 0.4482 -0.0622 0.1300
C49? C 0.4795(5) -0.260(4) 0.1458(18)
H52? H 0.4685 -0.3766 0.1117
C50? C 0.5092(5) -0.284(4) 0.1835(18)
H53? H 0.5172 -0.4208 0.1739
C51? C 0.5760(6) 0.201(5) 0.4356(17)
H54? H 0.5790 0.3076 0.3893
C52? C 0.5781(6) 0.251(5) 0.5388(17)
H55? H 0.5832 0.3932 0.5632
C53? C 0.5726(14) 0.090(13) 0.604(6)
H56? H 0.5743 0.1154 0.6734
C54? C 0.5650(7) -0.097(6) 0.562(2)
H57? H 0.5586 -0.2034 0.6013
C55? C 0.5654(8) -0.157(6) 0.463(2)
H58? H 0.5627 -0.3043 0.4423
H59? H 0.4842 0.2401 0.5068
H60? H 0.7849 0.1755 0.1290
loop_
_geom_bond_atom_site_label_1
_geom_bond_atom_site_label_2
_geom_bond_site_symmetry_1
_geom_bond_site_symmetry_2
S1 C9 1_555 1_555
P1 C1 1_555 1_555
O1 C17 1_555 1_555
O2 C18 1_555 1_555
O3 C27 1_555 1_555
N1 H1 1_555 1_555
N2 H2 1_555 1_555
N3 C31 1_555 1_555
N4 C23 1_555 1_555
C1 C2 1_555 1_555
C2 H3 1_555 1_555
C3 C2 1_555 1_555
H4 C3 1_555 1_555
C4 C3 1_555 1_555
H5 C4 1_555 1_555
C5 C4 1_555 1_555
H6 C5 1_555 1_555
C6 C1 1_555 1_555
H7 C6 1_555 1_555
C7 P1 1_555 1_555
C8 P1 1_555 1_555
H8 C8 1_555 1_555
H9 C8 1_555 1_555
C9 C8 1_555 1_555
H10 C9 1_555 1_555
H11 C9 1_555 1_555
C10 S1 1_555 1_555
C11 C10 1_555 1_555
H12 C11 1_555 1_555
C12 C11 1_555 1_555
H13 C12 1_555 1_555
C13 N1 1_555 1_555
C14 C13 1_555 1_555
H14 C14 1_555 1_555
C15 C10 1_555 1_555
H15 C15 1_555 1_555
C16 N1 1_555 1_555
C17 C16 1_555 1_555
C18 C17 1_555 1_555
C19 N2 1_555 1_555
C20 N2 1_555 1_555
H16 C20 1_555 1_555
C21 C20 1_555 1_555
C22 C21 1_555 1_555
H17 C22 1_555 1_555
C23 C22 1_555 1_555
H18 C23 1_555 1_555
C24 N4 1_555 1_555
C25 C24 1_555 1_555
H19 C25 1_555 1_555
C26 C25 1_555 1_555
H20 C26 1_555 1_555
C27 C26 1_555 1_555
C28 C27 1_555 1_555
H21 C28 1_555 1_555
C29 C21 1_555 1_555
C30 O3 1_555 1_555
H22 C30 1_555 1_555
H23 C30 1_555 1_555
H24 C30 1_555 1_555
C31 C20 1_555 1_555
H25 C31 1_555 1_555
C32 C31 1_555 1_555
H26 C32 1_555 1_555
H27 C32 1_555 1_555
C33 C32 1_555 1_555
H28 C33 1_555 1_555
C34 C33 1_555 1_555
H29 C34 1_555 1_555
H30 C34 1_555 1_555
C35 N3 1_555 1_555
H31 C35 1_555 1_555
H32 C35 1_555 1_555
C36 N3 1_555 1_555
H33 C36 1_555 1_555
H34 C36 1_555 1_555
C37 C33 1_555 1_555
H35 C37 1_555 1_555
C38 C37 1_555 1_555
H36 C38 1_555 1_555
H37 C38 1_555 1_555
C39 C38 1_555 1_555
H38 C39 1_555 1_555
H39 C39 1_555 1_555
H40 C39 1_555 1_555
C40 C7 1_555 1_555
H41 C40 1_555 1_555
C41 C40 1_555 1_555
H42 C41 1_555 1_555
C42 C41 1_555 1_555
H43 C42 1_555 1_555
C43 C42 1_555 1_555
H44 C43 1_555 1_555
C44 C7 1_555 1_555
H45 C44 1_555 1_555
Cl1 C45 1_555 1_555
C45 H46 1_555 1_555
O4 H47 1_555 1_555
H48 O4 1_555 1_555
Cl1A C45 1_555 1_555
H46A C45 1_555 1_555
C5 C6 1_555 1_555
C12 C13 1_555 1_555
C14 C15 1_555 1_555
C16 C19 1_555 1_555
C18 C19 1_555 1_555
C24 C29 1_555 1_555
C28 C29 1_555 1_555
C34 C35 1_555 1_555
C36 C37 1_555 1_555
C43 C44 1_555 1_555

#END
