
#######################################################################
#
#                 Cambridge Crystallographic Data Centre
#                                CCDC 
#
#######################################################################
#
# If this CIF has been generated from an entry in the Cambridge 
# Structural Database, then it will include bibliographic, chemical, 
# crystal, experimental, refinement or atomic coordinate data resulting 
# from the CCDC's data processing and validation procedures.
#
#######################################################################

data_ORIGON02
_chemical_formula_moiety         'C32 H12 B1 F24 1-,C5 H6 N1 1+'
_chemical_name_systematic        
'pyridinium tetrakis(3,5-bis(trifluoromethyl)phenyl)borate'
_symmetry_cell_setting           triclinic
_symmetry_space_group_name_H-M   'P -1'
_symmetry_Int_Tables_number      2
_space_group_name_Hall           '-P 1'
loop_
_symmetry_equiv_pos_site_id
_symmetry_equiv_pos_as_xyz
1 x,y,z
2 -x,-y,-z
_cell_length_a                   12.3832(6)
_cell_length_b                   12.7027(6)
_cell_length_c                   13.6428(6)
_cell_angle_alpha                79.884(3)
_cell_angle_beta                 76.218(3)
_cell_angle_gamma                63.750(3)
_cell_volume                     1863.19
_exptl_crystal_colour            colorless
_exptl_crystal_description       plate
_cell_formula_units_Z            2
_exptl_crystal_recrystallization_method 'Vapour deposition'
loop_
_atom_site_label
_atom_site_type_symbol
_atom_site_fract_x
_atom_site_fract_y
_atom_site_fract_z
C33 C 0.9661(3) 0.5756(3) -0.0834(2)
H13 H 0.9426 0.6281 -0.1411
C34 C 0.9194(3) 0.4939(3) -0.0496(2)
H14 H 0.8635 0.4893 -0.0839
N1 N 0.9532(2) 0.4184(2) 0.0338(2)
H15 H 0.9228 0.3658 0.0555
C33A C 1.0339(3) 0.4244(3) 0.0834(2)
H13A H 1.0574 0.3719 0.1411
C34A C 1.0806(3) 0.5061(3) 0.0496(2)
H14A H 1.1365 0.5107 0.0839
N1A N 1.0468(2) 0.5816(2) -0.0338(2)
H15A H 1.0772 0.6342 -0.0555
C35 C 0.5468(3) -0.1164(3) 0.4822(2)
C36 C 0.6049(3) -0.0480(3) 0.4314(2)
H16 H 0.679(2) -0.075(3) 0.384(2)
H17 H 0.5971 0.1115 0.4159
H18 H 0.5793 -0.1971 0.4700
N2 N 0.5589(2) 0.0680(2) 0.44883(19)
C35A C 0.4532(3) 0.1164(3) 0.5178(2)
C36A C 0.3951(3) 0.0480(3) 0.5686(2)
H16A H 0.321(2) 0.075(3) 0.616(2)
H17A H 0.4029 -0.1115 0.5841
H18A H 0.4207 0.1971 0.5300
N2A N 0.4411(2) -0.0680(2) 0.55117(19)
F1 F 0.44071(18) 0.65140(19) 0.05844(17)
F2 F 0.6024(2) 0.6136(2) -0.04892(15)
F3 F 0.5279(2) 0.76720(15) 0.03192(19)
F4 F 0.86278(19) 0.67532(17) 0.21311(18)
F5 F 0.74597(19) 0.6734(2) 0.35404(19)
F6 F 0.91582(17) 0.52416(15) 0.31548(17)
F7 F 0.5036(2) 0.3402(3) 0.61976(19)
F8 F 0.6421(3) 0.3962(3) 0.6079(2)
F9 F 0.6372(2) 0.2505(2) 0.70981(15)
F10 F 0.95116(18) -0.12262(17) 0.58376(15)
F11 F 0.9993(2) -0.14529(17) 0.42787(16)
F12 F 0.8356(2) -0.1564(2) 0.5136(3)
F13 F 0.2466(3) 0.4768(3) 0.2590(3)
F14 F 0.2547(4) 0.3880(4) 0.4083(3)
F15 F 0.1824(3) 0.3393(3) 0.3044(4)
F16 F 0.48680(15) -0.06752(13) 0.25325(12)
F17 F 0.66547(13) -0.09508(12) 0.16742(13)
F18 F 0.50782(14) -0.00791(13) 0.09620(12)
F19 F 0.83425(15) 0.15961(15) -0.14852(12)
F20 F 1.02128(15) 0.13194(16) -0.20171(12)
F21 F 0.88316(17) 0.30460(13) -0.16985(12)
F22 F 1.28335(12) -0.01332(13) 0.05207(12)
F23 F 1.24132(14) 0.16350(14) 0.07744(14)
F24 F 1.21221(14) 0.04363(17) 0.20246(12)
C1 C 0.70753(19) 0.39401(18) 0.21858(17)
C2 C 0.6361(2) 0.46801(19) 0.14784(17)
H1 H 0.5946 0.4388 0.1172
C3 C 0.6236(2) 0.58336(19) 0.12061(18)
C4 C 0.6834(2) 0.62914(19) 0.16325(19)
H2 H 0.6756 0.7075 0.1447
C5 C 0.7546(2) 0.5573(2) 0.23349(19)
C6 C 0.7665(2) 0.44266(19) 0.26127(18)
H3 H 0.8155 0.3960 0.3102
C7 C 0.5490(2) 0.6553(2) 0.0418(2)
C8 C 0.8192(2) 0.6059(2) 0.2815(2)
C9 C 0.7581(2) 0.19956(19) 0.35329(17)
C10 C 0.6929(2) 0.2687(2) 0.43556(18)
H4 H 0.6445 0.3504 0.4227
C11 C 0.6970(2) 0.2213(2) 0.53546(19)
C12 C 0.7661(2) 0.1031(2) 0.55834(19)
H5 H 0.7689 0.0711 0.6266
C13 C 0.8314(2) 0.0326(2) 0.47817(19)
C14 C 0.8279(2) 0.0797(2) 0.37848(18)
H6 H 0.8743 0.0292 0.3255
C15 C 0.6223(3) 0.3018(3) 0.6191(2)
C16 C 0.9027(3) -0.0973(3) 0.5014(2)
C17 C 0.4962(2) 0.31048(19) 0.26686(17)
H7 H 0.4823 0.3833 0.2883
C18 C 0.3966(2) 0.2846(2) 0.27261(17)
C19 C 0.4125(2) 0.1785(2) 0.24451(18)
H8 H 0.3445 0.1606 0.2494
C20 C 0.5310(2) 0.09887(19) 0.20889(17)
C21 C 0.63047(19) 0.12530(18) 0.20043(17)
H9 H 0.7100 0.0699 0.1738
C22 C 0.61687(19) 0.23185(18) 0.23015(16)
C23 C 0.2699(2) 0.3728(2) 0.31106(18)
C24 C 0.5476(2) -0.0169(2) 0.18065(18)
C25 C 0.85399(19) 0.19413(17) 0.14993(17)
C26 C 0.84011(19) 0.20148(18) 0.04926(17)
H10 H 0.7602 0.2289 0.0349
C27 C 0.9402(2) 0.16974(18) -0.03013(17)
C28 C 1.0586(2) 0.12700(19) -0.01195(17)
H11 H 1.1269 0.1049 -0.0659
C29 C 1.07466(19) 0.11727(19) 0.08719(18)
C30 C 0.97468(19) 0.15111(18) 0.16626(17)
H12 H 0.9884 0.1450 0.2331
C31 C 0.9195(2) 0.1907(2) -0.13712(18)
C32 C 1.2023(2) 0.0766(2) 0.10531(19)
B1 B 0.7349(2) 0.2540(2) 0.23821(19)
N3? N 0.5468(3) -0.1164(3) 0.4822(2)
H19? H 0.5769 -0.1911 0.4709
F25? F 0.2556(5) 0.4848(4) 0.2927(5)
F26? F 0.2386(5) 0.3562(5) 0.4123(4)
F27? F 0.1853(4) 0.3662(5) 0.2696(5)
C37? C 0.9532(2) 0.4184(2) 0.0338(2)
C38? C 0.5589(2) 0.0680(2) 0.44883(19)
H20? H 0.9204 0.3617 0.0573
loop_
_geom_bond_atom_site_label_1
_geom_bond_atom_site_label_2
_geom_bond_site_symmetry_1
_geom_bond_site_symmetry_2
F1 C7 1_555 1_555
F2 C7 1_555 1_555
F3 C7 1_555 1_555
F4 C8 1_555 1_555
F5 C8 1_555 1_555
F6 C8 1_555 1_555
F7 C15 1_555 1_555
F8 C15 1_555 1_555
F9 C15 1_555 1_555
F10 C16 1_555 1_555
F11 C16 1_555 1_555
F12 C16 1_555 1_555
F13 C23 1_555 1_555
F14 C23 1_555 1_555
F15 C23 1_555 1_555
F16 C24 1_555 1_555
F17 C24 1_555 1_555
F18 C24 1_555 1_555
F19 C31 1_555 1_555
F20 C31 1_555 1_555
F21 C31 1_555 1_555
F22 C32 1_555 1_555
F23 C32 1_555 1_555
F24 C32 1_555 1_555
C1 C2 1_555 1_555
C2 H1 1_555 1_555
C3 C2 1_555 1_555
C4 C3 1_555 1_555
H2 C4 1_555 1_555
C5 C4 1_555 1_555
C6 C1 1_555 1_555
H3 C6 1_555 1_555
C7 C3 1_555 1_555
C8 C5 1_555 1_555
C9 C10 1_555 1_555
C10 H4 1_555 1_555
C11 C10 1_555 1_555
C12 C11 1_555 1_555
H5 C12 1_555 1_555
C13 C12 1_555 1_555
C14 C9 1_555 1_555
H6 C14 1_555 1_555
C15 C11 1_555 1_555
C16 C13 1_555 1_555
C17 H7 1_555 1_555
C18 C17 1_555 1_555
C19 C18 1_555 1_555
H8 C19 1_555 1_555
C20 C19 1_555 1_555
C21 C20 1_555 1_555
H9 C21 1_555 1_555
C22 C17 1_555 1_555
C23 C18 1_555 1_555
C24 C20 1_555 1_555
C25 C26 1_555 1_555
C26 H10 1_555 1_555
C27 C26 1_555 1_555
C28 C27 1_555 1_555
H11 C28 1_555 1_555
C29 C28 1_555 1_555
C30 C25 1_555 1_555
H12 C30 1_555 1_555
C31 C27 1_555 1_555
C32 C29 1_555 1_555
B1 C1 1_555 1_555
C33 H13 1_555 1_555
C34 C33 1_555 1_555
H14 C34 1_555 1_555
N1 C34 1_555 1_555
H15 N1 1_555 1_555
C35 C36 1_555 1_555
C36 H16 1_555 1_555
H17 N2 1_555 1_555
H18 C35 1_555 1_555
N2 C36 1_555 1_555
C33A N1 1_555 1_555
H13A C33A 1_555 1_555
C34A C33A 1_555 1_555
H14A C34A 1_555 1_555
N1A C33 1_555 1_555
H15A N1A 1_555 1_555
C35A N2 1_555 1_555
C36A C35A 1_555 1_555
H16A C36A 1_555 1_555
H17A N2A 1_555 1_555
H18A C35A 1_555 1_555
N2A C35 1_555 1_555
C5 C6 1_555 1_555
C9 B1 1_555 1_555
C13 C14 1_555 1_555
C21 C22 1_555 1_555
C22 B1 1_555 1_555
C25 B1 1_555 1_555
C29 C30 1_555 1_555
C34A N1A 1_555 1_555
C36A N2A 1_555 1_555

#END
