
#######################################################################
#
#                 Cambridge Crystallographic Data Centre
#                                CCDC 
#
#######################################################################
#
# If this CIF has been generated from an entry in the Cambridge 
# Structural Database, then it will include bibliographic, chemical, 
# crystal, experimental, refinement or atomic coordinate data resulting 
# from the CCDC's data processing and validation procedures.
#
#######################################################################

data_ORIKEG
_chemical_formula_moiety         'C41 H42 N2 O4'
_chemical_name_systematic        
(-)-(4S,4'S)-2,2'-((R)-4,4,4',4',6,6'-Hexamethyl-2,2'-spirobi[chroman]-8,8'-diyl)bis(4-phenyl-4,5-dihydrooxazole)
_symmetry_cell_setting           monoclinic
_symmetry_space_group_name_H-M   'P 21'
_symmetry_Int_Tables_number      4
_space_group_name_Hall           'P 2yb'
loop_
_symmetry_equiv_pos_site_id
_symmetry_equiv_pos_as_xyz
1 x,y,z
2 -x,1/2+y,-z
_cell_length_a                   11.0978(11)
_cell_length_b                   10.0421(10)
_cell_length_c                   15.8898(16)
_cell_angle_alpha                90
_cell_angle_beta                 99.529(2)
_cell_angle_gamma                90
_cell_volume                     1746.41
_exptl_crystal_colour            colorless
_exptl_crystal_description       prismatic
_chemical_melting_point          '184-185 deg.C'
_cell_formula_units_Z            2
loop_
_atom_site_label
_atom_site_type_symbol
_atom_site_fract_x
_atom_site_fract_y
_atom_site_fract_z
N1 N 0.3387(3) 0.6759(4) 0.17356(19)
N2 N 0.2480(3) 0.0757(4) 0.1936(2)
O1 O 0.36685(17) 0.5196(2) 0.40394(14)
O2 O 0.4222(2) 0.7332(3) 0.30621(15)
O3 O 0.36545(18) 0.2896(2) 0.41217(14)
O4 O 0.2200(2) 0.1001(3) 0.32819(15)
C1 C 0.3867(3) 0.4092(3) 0.46094(19)
C2 C 0.2980(3) 0.4147(4) 0.5234(2)
H1 H 0.3180 0.4917 0.5600
H2 H 0.3104 0.3362 0.5594
C3 C 0.1621(3) 0.4225(4) 0.4845(2)
C4 C 0.1473(3) 0.4961(3) 0.3997(2)
C5 C 0.0327(3) 0.5256(5) 0.3553(3)
H3 H -0.0349 0.4996 0.3790
C6 C 0.0125(4) 0.5908(6) 0.2786(3)
C7 C 0.1140(4) 0.6347(5) 0.2464(2)
H4 H 0.1028 0.6808 0.1949
C8 C 0.2318(3) 0.6119(4) 0.2886(2)
C9 C 0.2483(3) 0.5412(3) 0.3652(2)
C10 C 0.3334(3) 0.6713(4) 0.2519(2)
C11 C 0.4450(4) 0.7579(5) 0.1633(2)
H5 H 0.4162 0.8437 0.1382
C12 C 0.5093(4) 0.7810(5) 0.2562(2)
H6 H 0.5851 0.7311 0.2682
H7 H 0.5266 0.8747 0.2669
C13 C 0.5269(4) 0.6950(5) 0.1087(2)
C14 C 0.5851(5) 0.7697(7) 0.0552(3)
H8 H 0.5727 0.8613 0.0525
C15 C 0.6617(6) 0.7120(11) 0.0050(4)
H9 H 0.6971 0.7637 -0.0329
C16 C 0.6843(6) 0.5808(11) 0.0117(4)
H10 H 0.7392 0.5426 -0.0197
C17 C 0.6294(6) 0.5044(7) 0.0625(4)
H11 H 0.6443 0.4132 0.0650
C18 C 0.5502(5) 0.5600(6) 0.1117(3)
H12 H 0.5125 0.5058 0.1470
C19 C 0.5170(3) 0.4133(4) 0.5072(2)
H13 H 0.5280 0.3419 0.5489
H14 H 0.5293 0.4967 0.5383
C20 C 0.6156(3) 0.4005(3) 0.4510(2)
C21 C 0.5700(3) 0.3080(3) 0.3764(2)
C22 C 0.6481(3) 0.2703(4) 0.3213(2)
H15 H 0.7281 0.3014 0.3321
C23 C 0.6144(4) 0.1900(5) 0.2520(3)
C24 C 0.4953(4) 0.1437(4) 0.2372(2)
H16 H 0.4695 0.0907 0.1896
C25 C 0.4138(3) 0.1745(3) 0.2913(2)
C26 C 0.4503(3) 0.2595(3) 0.3610(2)
C27 C 0.2901(3) 0.1166(4) 0.2676(2)
C28 C 0.1242(4) 0.0272(5) 0.1945(2)
H17 H 0.1206 -0.0674 0.1791
C29 C 0.1083(4) 0.0406(5) 0.2880(2)
H18 H 0.0390 0.0969 0.2935
H19 H 0.0966 -0.0459 0.3127
C30 C 0.0312(3) 0.1020(5) 0.1312(2)
C31 C -0.0531(4) 0.0352(6) 0.0735(3)
H20 H -0.0554 -0.0573 0.0742
C32 C -0.1354(5) 0.1055(9) 0.0140(3)
H21 H -0.1914 0.0600 -0.0258
C33 C -0.1337(5) 0.2389(9) 0.0143(3)
H22 H -0.1889 0.2853 -0.0256
C34 C -0.0524(5) 0.3078(7) 0.0720(4)
H23 H -0.0523 0.4004 0.0718
C35 C 0.0303(4) 0.2377(6) 0.1311(3)
H24 H 0.0857 0.2839 0.1709
C36 C 0.1066(3) 0.2828(4) 0.4712(3)
H25 H 0.0223 0.2897 0.4452
H26 H 0.1122 0.2387 0.5253
H27 H 0.1504 0.2324 0.4348
C37 C 0.0962(3) 0.4970(4) 0.5476(2)
H28 H 0.1259 0.5868 0.5538
H29 H 0.1115 0.4531 0.6020
H30 H 0.0100 0.4977 0.5266
C38 C -0.1164(4) 0.6205(10) 0.2318(4)
H31 H -0.1534 0.6871 0.2626
H32 H -0.1645 0.5406 0.2281
H33 H -0.1122 0.6524 0.1754
C39 C 0.7297(3) 0.3425(4) 0.5057(3)
H34 H 0.7959 0.3427 0.4737
H35 H 0.7135 0.2528 0.5215
H36 H 0.7513 0.3955 0.5562
C40 C 0.6469(3) 0.5368(4) 0.4186(3)
H37 H 0.6802 0.5920 0.4661
H38 H 0.5742 0.5775 0.3881
H39 H 0.7059 0.5269 0.3812
C41 C 0.7049(5) 0.1479(7) 0.1940(4)
H40 H 0.7706 0.2111 0.1990
H41 H 0.6638 0.1450 0.1359
H42 H 0.7369 0.0614 0.2108
loop_
_geom_bond_atom_site_label_1
_geom_bond_atom_site_label_2
_geom_bond_site_symmetry_1
_geom_bond_site_symmetry_2
N1 C10 1_555 1_555
N2 C27 1_555 1_555
O1 C1 1_555 1_555
O2 C10 1_555 1_555
O3 C1 1_555 1_555
O4 C27 1_555 1_555
C1 C2 1_555 1_555
C2 H1 1_555 1_555
H2 C2 1_555 1_555
C3 C2 1_555 1_555
C4 C3 1_555 1_555
C5 C4 1_555 1_555
H3 C5 1_555 1_555
C6 C5 1_555 1_555
C7 C6 1_555 1_555
H4 C7 1_555 1_555
C8 C7 1_555 1_555
C9 O1 1_555 1_555
C10 C8 1_555 1_555
C11 N1 1_555 1_555
H5 C11 1_555 1_555
C12 O2 1_555 1_555
H6 C12 1_555 1_555
H7 C12 1_555 1_555
C13 C11 1_555 1_555
C14 C13 1_555 1_555
H8 C14 1_555 1_555
C15 C14 1_555 1_555
H9 C15 1_555 1_555
C16 C15 1_555 1_555
H10 C16 1_555 1_555
C17 C16 1_555 1_555
H11 C17 1_555 1_555
C18 C13 1_555 1_555
H12 C18 1_555 1_555
C19 C1 1_555 1_555
H13 C19 1_555 1_555
H14 C19 1_555 1_555
C20 C19 1_555 1_555
C21 C20 1_555 1_555
C22 C21 1_555 1_555
H15 C22 1_555 1_555
C23 C22 1_555 1_555
C24 C23 1_555 1_555
H16 C24 1_555 1_555
C25 C24 1_555 1_555
C26 O3 1_555 1_555
C27 C25 1_555 1_555
C28 N2 1_555 1_555
H17 C28 1_555 1_555
C29 O4 1_555 1_555
H18 C29 1_555 1_555
H19 C29 1_555 1_555
C30 C28 1_555 1_555
C31 C30 1_555 1_555
H20 C31 1_555 1_555
C32 C31 1_555 1_555
H21 C32 1_555 1_555
C33 C32 1_555 1_555
H22 C33 1_555 1_555
C34 C33 1_555 1_555
H23 C34 1_555 1_555
C35 C30 1_555 1_555
H24 C35 1_555 1_555
C36 C3 1_555 1_555
H25 C36 1_555 1_555
H26 C36 1_555 1_555
H27 C36 1_555 1_555
C37 C3 1_555 1_555
H28 C37 1_555 1_555
H29 C37 1_555 1_555
H30 C37 1_555 1_555
C38 C6 1_555 1_555
H31 C38 1_555 1_555
H32 C38 1_555 1_555
H33 C38 1_555 1_555
C39 C20 1_555 1_555
H34 C39 1_555 1_555
H35 C39 1_555 1_555
H36 C39 1_555 1_555
C40 C20 1_555 1_555
H37 C40 1_555 1_555
H38 C40 1_555 1_555
H39 C40 1_555 1_555
C41 C23 1_555 1_555
H40 C41 1_555 1_555
H41 C41 1_555 1_555
H42 C41 1_555 1_555
C4 C9 1_555 1_555
C8 C9 1_555 1_555
C11 C12 1_555 1_555
C17 C18 1_555 1_555
C21 C26 1_555 1_555
C25 C26 1_555 1_555
C28 C29 1_555 1_555
C34 C35 1_555 1_555

#END
