
#######################################################################
#
#                 Cambridge Crystallographic Data Centre
#                                CCDC 
#
#######################################################################
#
# If this CIF has been generated from an entry in the Cambridge 
# Structural Database, then it will include bibliographic, chemical, 
# crystal, experimental, refinement or atomic coordinate data resulting 
# from the CCDC's data processing and validation procedures.
#
#######################################################################

data_ORIPEM
_chemical_formula_moiety         'C25 H21 Cl1 F3 N4 O4 P1'
_chemical_name_systematic        
'diethyl ((5-(4-chlorophenyl)-2-furyl)((3-cyano-1-(2,3,4-trifluorophenyl)-1H-pyrazol-5-yl)amino)methyl)phosphonate'
_symmetry_cell_setting           monoclinic
_symmetry_space_group_name_H-M   'P 21/n'
_symmetry_Int_Tables_number      14
_space_group_name_Hall           '-P 2yn'
loop_
_symmetry_equiv_pos_site_id
_symmetry_equiv_pos_as_xyz
1 x,y,z
2 1/2-x,1/2+y,1/2-z
3 -x,-y,-z
4 1/2+x,1/2-y,1/2+z
_cell_length_a                   10.091(2)
_cell_length_b                   22.248(4)
_cell_length_c                   11.091(2)
_cell_angle_alpha                90
_cell_angle_beta                 91.82(3)
_cell_angle_gamma                90
_cell_volume                     2488.72
_exptl_crystal_colour            colorless
_exptl_crystal_description       block
_chemical_melting_point          '407.15-408.15 K'
_cell_formula_units_Z            4
loop_
_atom_site_label
_atom_site_type_symbol
_atom_site_fract_x
_atom_site_fract_y
_atom_site_fract_z
P1 P 0.50929(12) 0.11242(5) 0.58268(13)
Cl1 Cl 1.26242(15) 0.30275(9) 0.37540(19)
N1 N 0.5968(3) 0.01503(15) 0.6883(3)
H1 H 0.5262 -0.0002 0.6554
C1 C 0.6411(4) 0.07359(18) 0.6502(4)
H2 H 0.6743 0.0961 0.7208
F1 F 0.5498(4) -0.17564(16) 0.7635(4)
O1 O 0.4365(3) 0.12837(16) 0.6995(3)
N2 N 0.6139(3) -0.06285(16) 0.8320(3)
O2 O 0.5596(3) 0.17295(14) 0.5365(4)
F2 F 0.3163(5) -0.2149(2) 0.7475(5)
C2 C 0.3274(5) 0.0985(2) 0.7409(5)
H3 H 0.3421 0.0858 0.8240
H4 H 0.3069 0.0635 0.6917
O3 O 0.4445(3) 0.07813(12) 0.4892(3)
N3 N 0.6931(4) -0.08641(16) 0.9189(3)
F3 F 0.1363(3) -0.14590(19) 0.8114(3)
C3 C 0.2254(5) 0.1409(2) 0.7315(5)
H5 H 0.1447 0.1235 0.7589
H6 H 0.2482 0.1753 0.7802
H7 H 0.2133 0.1531 0.6488
O4 O 0.8212(3) 0.11917(13) 0.5587(3)
N4 N 0.9731(4) -0.0707(2) 1.0600(5)
C4 C 0.5615(5) 0.2246(3) 0.5889(5)
H8 H 0.6230 0.2215 0.6577
H9 H 0.4742 0.2307 0.6211
C5 C 0.5940(8) 0.2778(3) 0.5271(7)
H10 H 0.5899 0.3114 0.5812
H11 H 0.6821 0.2744 0.4975
H12 H 0.5322 0.2837 0.4606
C6 C 0.6645(4) -0.01624(19) 0.7748(4)
C7 C 0.7788(4) -0.00724(18) 0.8279(4)
H13 H 0.8395 0.0228 0.8112
C8 C 0.7918(4) -0.0523(2) 0.9161(4)
C9 C 0.8944(5) -0.0631(2) 0.9919(5)
C10 C 0.4863(5) -0.0821(3) 0.8251(4)
C11 C 0.4650(6) -0.1395(3) 0.7803(6)
C12 C 0.3472(7) -0.1641(3) 0.7808(7)
C13 C 0.2507(6) -0.1230(3) 0.8170(5)
C14 C 0.2745(6) -0.0653(3) 0.8536(5)
H14 H 0.2041 -0.0398 0.8696
C15 C 0.4003(5) -0.0452(3) 0.8663(5)
H15 H 0.4228 -0.0084 0.9011
C16 C 0.7444(4) 0.0684(2) 0.5659(4)
C17 C 0.7909(5) 0.0255(2) 0.4947(4)
H16 H 0.7581 -0.0134 0.4872
C18 C 0.8921(5) 0.0482(2) 0.4366(5)
H17 H 0.9429 0.0284 0.3803
C19 C 0.9080(5) 0.1071(2) 0.4760(5)
C20 C 0.9973(4) 0.1530(2) 0.4533(4)
C21 C 0.9716(5) 0.2148(3) 0.4870(5)
H18 H 0.8949 0.2228 0.5285
C22 C 1.0491(6) 0.2601(3) 0.4629(5)
H19 H 1.0320 0.2995 0.4854
C23 C 1.1616(5) 0.2426(3) 0.3987(5)
C24 C 1.1846(6) 0.1855(3) 0.3669(6)
H20 H 1.2599 0.1761 0.3246
C25 C 1.1015(6) 0.1430(3) 0.3950(5)
H21 H 1.1194 0.1038 0.3714
loop_
_geom_bond_atom_site_label_1
_geom_bond_atom_site_label_2
_geom_bond_site_symmetry_1
_geom_bond_site_symmetry_2
P1 C1 1_555 1_555
Cl1 C23 1_555 1_555
N1 H1 1_555 1_555
C1 N1 1_555 1_555
H2 C1 1_555 1_555
F1 C11 1_555 1_555
O1 P1 1_555 1_555
N2 N3 1_555 1_555
O2 P1 1_555 1_555
F2 C12 1_555 1_555
C2 O1 1_555 1_555
H3 C2 1_555 1_555
H4 C2 1_555 1_555
O3 P1 1_555 1_555
N3 C8 1_555 1_555
F3 C13 1_555 1_555
C3 C2 1_555 1_555
H5 C3 1_555 1_555
H6 C3 1_555 1_555
H7 C3 1_555 1_555
O4 C16 1_555 1_555
N4 C9 1_555 1_555
C4 O2 1_555 1_555
H8 C4 1_555 1_555
H9 C4 1_555 1_555
C5 C4 1_555 1_555
H10 C5 1_555 1_555
H11 C5 1_555 1_555
H12 C5 1_555 1_555
C6 N1 1_555 1_555
C7 C6 1_555 1_555
H13 C7 1_555 1_555
C8 C7 1_555 1_555
C9 C8 1_555 1_555
C10 N2 1_555 1_555
C11 C10 1_555 1_555
C12 C11 1_555 1_555
C13 C12 1_555 1_555
C14 C13 1_555 1_555
H14 C14 1_555 1_555
C15 C10 1_555 1_555
H15 C15 1_555 1_555
C16 C1 1_555 1_555
C17 C16 1_555 1_555
H16 C17 1_555 1_555
C18 C17 1_555 1_555
H17 C18 1_555 1_555
C19 O4 1_555 1_555
C20 C19 1_555 1_555
C21 C20 1_555 1_555
H18 C21 1_555 1_555
C22 C21 1_555 1_555
H19 C22 1_555 1_555
C23 C22 1_555 1_555
C24 C23 1_555 1_555
H20 C24 1_555 1_555
C25 C20 1_555 1_555
H21 C25 1_555 1_555
N2 C6 1_555 1_555
C14 C15 1_555 1_555
C18 C19 1_555 1_555
C24 C25 1_555 1_555

#END
