
#######################################################################
#
#                 Cambridge Crystallographic Data Centre
#                                CCDC 
#
#######################################################################
#
# If this CIF has been generated from an entry in the Cambridge 
# Structural Database, then it will include bibliographic, chemical, 
# crystal, experimental, refinement or atomic coordinate data resulting 
# from the CCDC's data processing and validation procedures.
#
#######################################################################

data_ORIPUC
_chemical_formula_moiety         'C31 H29 Br2 N1 O4'
_chemical_name_systematic        
(M)-9,14-dibromo-10,13-dimethoxy-11,12-dimethyl-4-propyl-6,7-dihydro-1H-dinaphtho[2,1-e:1',2'-g]isoindole-3,5(2H,4H)-dione
_symmetry_cell_setting           tetragonal
_symmetry_space_group_name_H-M   'P 41'
_symmetry_Int_Tables_number      76
_space_group_name_Hall           'P 4w'
loop_
_symmetry_equiv_pos_site_id
_symmetry_equiv_pos_as_xyz
1 x,y,z
2 -x,-y,1/2+z
3 -y,x,1/4+z
4 y,-x,3/4+z
_cell_length_a                   12.347(3)
_cell_length_b                   12.347(3)
_cell_length_c                   18.073(4)
_cell_angle_alpha                90
_cell_angle_beta                 90
_cell_angle_gamma                90
_cell_volume                     2755.2
_exptl_crystal_colour            yellow
_exptl_crystal_description       plate
_cell_formula_units_Z            4
loop_
_atom_site_label
_atom_site_type_symbol
_atom_site_fract_x
_atom_site_fract_y
_atom_site_fract_z
Br1 Br 0.51660(10) 0.42865(9) 0.64298(7)
Br2 Br 0.65154(7) 1.09191(8) 0.80663(5)
O1 O 0.0267(7) 0.8806(7) 0.3752(5)
O2 O 0.1993(7) 1.2053(6) 0.3938(4)
O3 O 0.6369(5) 0.6290(6) 0.5851(4)
O4 O 0.4821(5) 0.9137(5) 0.8069(3)
N1 N 0.0967(8) 1.0542(7) 0.3735(5)
C1 C 0.0227(11) 1.1931(12) 0.1878(8)
H1 H 0.0577 1.1979 0.1405
H2 H 0.0090 1.2647 0.2063
H3 H -0.0447 1.1549 0.1826
C2 C 0.0958(10) 1.1323(11) 0.2418(6)
H4 H 0.1589 1.1760 0.2533
H5 H 0.1204 1.0652 0.2195
C3 C 0.0303(11) 1.1070(11) 0.3152(7)
H6 H 0.0012 1.1742 0.3347
H7 H -0.0303 1.0602 0.3032
C4 C 0.0920(9) 0.9463(9) 0.3968(5)
C5 C 0.1820(7) 0.9315(7) 0.4508(4)
C6 C 0.2210(6) 0.8411(7) 0.4858(4)
C7 C 0.1688(8) 0.7316(7) 0.4827(5)
H8 H 0.2021 0.6883 0.4441
H9 H 0.0923 0.7390 0.4715
C8 C 0.1833(7) 0.6758(7) 0.5581(5)
H10 H 0.1496 0.7187 0.5967
H11 H 0.1492 0.6050 0.5575
C9 C 0.3009(6) 0.6644(7) 0.5729(4)
C10 C 0.3459(7) 0.5693(7) 0.5988(5)
H12 H 0.3014 0.5113 0.6112
C11 C 0.4567(7) 0.5601(7) 0.6062(5)
C12 C 0.5251(6) 0.6434(7) 0.5841(4)
C13 C 0.4836(6) 0.7413(6) 0.5573(5)
C14 C 0.3695(6) 0.7537(6) 0.5561(4)
C15 C 0.3146(6) 0.8552(6) 0.5311(4)
C16 C 0.6873(9) 0.6711(12) 0.6500(7)
H13 H 0.7642 0.6613 0.6466
H14 H 0.6603 0.6335 0.6927
H15 H 0.6711 0.7469 0.6544
C17 C 0.5612(7) 0.8232(7) 0.5259(5)
H16 H 0.5913 0.8657 0.5653
H17 H 0.5235 0.8697 0.4921
H18 H 0.6185 0.7864 0.5002
C18 C 0.3509(6) 0.9605(6) 0.5497(4)
C19 C 0.4239(6) 0.9844(6) 0.6131(4)
C20 C 0.4161(6) 0.9326(6) 0.6817(4)
C21 C 0.4890(6) 0.9635(6) 0.7382(4)
C22 C 0.5621(7) 1.0468(7) 0.7268(5)
C23 C 0.5641(6) 1.1029(7) 0.6616(5)
H19 H 0.6106 1.1616 0.6558
C24 C 0.4961(6) 1.0716(6) 0.6037(5)
C25 C 0.4900(8) 1.1377(7) 0.5336(5)
H20 H 0.5227 1.0984 0.4929
H21 H 0.5281 1.2057 0.5398
C26 C 0.3696(8) 1.1585(6) 0.5178(4)
H22 H 0.3372 1.1980 0.5586
H23 H 0.3619 1.2018 0.4732
C27 C 0.3132(7) 1.0511(6) 0.5079(4)
C28 C 0.2319(8) 1.0339(7) 0.4592(4)
C29 C 0.1778(9) 1.1115(8) 0.4071(5)
C30 C 0.3272(6) 0.8550(7) 0.7041(4)
H24 H 0.2689 0.8592 0.6691
H25 H 0.3010 0.8740 0.7524
H26 H 0.3553 0.7826 0.7051
C31 C 0.5511(8) 0.8211(8) 0.8124(6)
H27 H 0.5306 0.7688 0.7757
H28 H 0.5440 0.7897 0.8607
H29 H 0.6249 0.8427 0.8045
loop_
_geom_bond_atom_site_label_1
_geom_bond_atom_site_label_2
_geom_bond_site_symmetry_1
_geom_bond_site_symmetry_2
Br1 C11 1_555 1_555
Br2 C22 1_555 1_555
O1 C4 1_555 1_555
O2 C29 1_555 1_555
O3 C12 1_555 1_555
O4 C21 1_555 1_555
N1 C3 1_555 1_555
C1 H1 1_555 1_555
H2 C1 1_555 1_555
H3 C1 1_555 1_555
C2 C1 1_555 1_555
H4 C2 1_555 1_555
H5 C2 1_555 1_555
C3 C2 1_555 1_555
H6 C3 1_555 1_555
H7 C3 1_555 1_555
C4 N1 1_555 1_555
C5 C4 1_555 1_555
C6 C5 1_555 1_555
C7 C6 1_555 1_555
H8 C7 1_555 1_555
H9 C7 1_555 1_555
C8 C7 1_555 1_555
H10 C8 1_555 1_555
H11 C8 1_555 1_555
C9 C8 1_555 1_555
C10 C9 1_555 1_555
H12 C10 1_555 1_555
C11 C10 1_555 1_555
C12 C11 1_555 1_555
C13 C12 1_555 1_555
C14 C9 1_555 1_555
C15 C6 1_555 1_555
C16 O3 1_555 1_555
H13 C16 1_555 1_555
H14 C16 1_555 1_555
H15 C16 1_555 1_555
C17 C13 1_555 1_555
H16 C17 1_555 1_555
H17 C17 1_555 1_555
H18 C17 1_555 1_555
C18 C15 1_555 1_555
C19 C18 1_555 1_555
C20 C19 1_555 1_555
C21 C20 1_555 1_555
C22 C21 1_555 1_555
C23 C22 1_555 1_555
H19 C23 1_555 1_555
C24 C19 1_555 1_555
C25 C24 1_555 1_555
H20 C25 1_555 1_555
H21 C25 1_555 1_555
C26 C25 1_555 1_555
H22 C26 1_555 1_555
H23 C26 1_555 1_555
C27 C18 1_555 1_555
C28 C5 1_555 1_555
C29 N1 1_555 1_555
C30 C20 1_555 1_555
H24 C30 1_555 1_555
H25 C30 1_555 1_555
H26 C30 1_555 1_555
C31 O4 1_555 1_555
H27 C31 1_555 1_555
H28 C31 1_555 1_555
H29 C31 1_555 1_555
C13 C14 1_555 1_555
C14 C15 1_555 1_555
C23 C24 1_555 1_555
C26 C27 1_555 1_555
C27 C28 1_555 1_555
C28 C29 1_555 1_555

#END
