
#######################################################################
#
#                 Cambridge Crystallographic Data Centre
#                                CCDC 
#
#######################################################################
#
# If this CIF has been generated from an entry in the Cambridge 
# Structural Database, then it will include bibliographic, chemical, 
# crystal, experimental, refinement or atomic coordinate data resulting 
# from the CCDC's data processing and validation procedures.
#
#######################################################################

data_OROPOC
_chemical_formula_moiety         'C22 H27 N1 O2'
_chemical_name_systematic        
N,N-diethyl-3-methyl-4-(4-methylphenyl)-4-oxo-3-phenylbutanamide
_symmetry_cell_setting           monoclinic
_symmetry_space_group_name_H-M   'P 21/n'
_symmetry_Int_Tables_number      14
_space_group_name_Hall           '-P 2yn'
loop_
_symmetry_equiv_pos_site_id
_symmetry_equiv_pos_as_xyz
1 x,y,z
2 1/2-x,1/2+y,1/2-z
3 -x,-y,-z
4 1/2+x,1/2-y,1/2+z
_cell_length_a                   6.3642(5)
_cell_length_b                   16.7315(16)
_cell_length_c                   18.6110(19)
_cell_angle_alpha                90
_cell_angle_beta                 96.317(7)
_cell_angle_gamma                90
_cell_volume                     1969.72
_exptl_crystal_colour            colorless
_exptl_crystal_description       prismatic
_cell_formula_units_Z            4
loop_
_atom_site_label
_atom_site_type_symbol
_atom_site_fract_x
_atom_site_fract_y
_atom_site_fract_z
N1 N 0.2667(3) 0.65912(13) 0.62380(16)
O1 O 0.8579(2) 0.48270(12) 0.74022(11)
O2 O 0.5931(3) 0.62235(12) 0.67110(13)
C1 C 0.6667(3) 0.48513(14) 0.73975(14)
C2 C 0.5207(3) 0.45908(14) 0.67183(13)
C3 C 0.3363(3) 0.51829(13) 0.65472(13)
H1 H 0.2576 0.5036 0.6090
H2 H 0.2414 0.5141 0.6919
C4 C 0.4096(4) 0.60409(16) 0.65035(16)
C5 C 0.6492(4) 0.45459(18) 0.60654(15)
H3 H 0.5598 0.4360 0.5650
H4 H 0.7652 0.4182 0.6171
H5 H 0.7026 0.5067 0.5969
C6 C 0.5721(3) 0.51053(14) 0.80612(14)
C7 C 0.3774(3) 0.48460(15) 0.82441(14)
H6 H 0.3001 0.4475 0.7952
C8 C 0.2975(4) 0.51340(17) 0.88559(15)
H7 H 0.1680 0.4945 0.8971
C9 C 0.4048(5) 0.56935(18) 0.92978(16)
C10 C 0.6014(5) 0.59351(18) 0.91254(18)
H8 H 0.6790 0.6300 0.9423
C11 C 0.6849(4) 0.56469(16) 0.85215(16)
H9 H 0.8178 0.5817 0.8422
C12 C 0.3095(6) 0.6047(2) 0.9933(2)
H10 H 0.4157 0.6081 1.0340
H11 H 0.1958 0.5713 1.0054
H12 H 0.2563 0.6572 0.9810
C13 C 0.4452(3) 0.37344(13) 0.68511(12)
C14 C 0.2403(3) 0.34794(14) 0.66545(14)
H13 H 0.1386 0.3848 0.6473
C15 C 0.1840(4) 0.26897(16) 0.67219(15)
H14 H 0.0458 0.2529 0.6580
C16 C 0.3321(5) 0.21355(16) 0.70002(17)
H15 H 0.2946 0.1602 0.7043
C17 C 0.5356(5) 0.23821(17) 0.72128(16)
H16 H 0.6359 0.2015 0.7408
C18 C 0.5909(4) 0.31695(16) 0.71380(14)
H17 H 0.7292 0.3328 0.7283
C19 C 0.0428(4) 0.64338(17) 0.60434(16)
H18 H -0.0374 0.6877 0.6211
H19 H 0.0047 0.5959 0.6298
C20 C -0.0216(5) 0.6318(2) 0.52548(18)
H20 H 0.0117 0.6790 0.4997
H21 H -0.1709 0.6220 0.5176
H22 H 0.0531 0.5870 0.5085
C21 C 0.3256(7) 0.7445(3) 0.6315(3)
H23 H 0.4158 0.7532 0.6763
H24 H 0.2002 0.7774 0.6319
C22 C 0.4410(9) 0.7656(4) 0.5681(4)
H25 H 0.5824 0.7449 0.5756
H26 H 0.4459 0.8227 0.5632
H27 H 0.3686 0.7428 0.5250
C23? C 0.3692(19) 0.7301(7) 0.5797(9)
H28? H 0.5081 0.7153 0.5673
H29? H 0.2792 0.7436 0.5360
C24? C 0.382(2) 0.7955(8) 0.6313(8)
H30? H 0.2429 0.8158 0.6354
H31? H 0.4685 0.8374 0.6150
H32? H 0.4436 0.7767 0.6776
loop_
_geom_bond_atom_site_label_1
_geom_bond_atom_site_label_2
_geom_bond_site_symmetry_1
_geom_bond_site_symmetry_2
N1 C4 1_555 1_555
O1 C1 1_555 1_555
O2 C4 1_555 1_555
C1 C2 1_555 1_555
C2 C3 1_555 1_555
C3 H1 1_555 1_555
H2 C3 1_555 1_555
C4 C3 1_555 1_555
C5 C2 1_555 1_555
H3 C5 1_555 1_555
H4 C5 1_555 1_555
H5 C5 1_555 1_555
C6 C1 1_555 1_555
C7 C6 1_555 1_555
H6 C7 1_555 1_555
C8 C7 1_555 1_555
H7 C8 1_555 1_555
C9 C8 1_555 1_555
C10 C9 1_555 1_555
H8 C10 1_555 1_555
C11 C6 1_555 1_555
H9 C11 1_555 1_555
C12 C9 1_555 1_555
H10 C12 1_555 1_555
H11 C12 1_555 1_555
H12 C12 1_555 1_555
C13 C2 1_555 1_555
C14 C13 1_555 1_555
H13 C14 1_555 1_555
C15 C14 1_555 1_555
H14 C15 1_555 1_555
C16 C15 1_555 1_555
H15 C16 1_555 1_555
C17 C16 1_555 1_555
H16 C17 1_555 1_555
C18 C13 1_555 1_555
H17 C18 1_555 1_555
C19 N1 1_555 1_555
H18 C19 1_555 1_555
H19 C19 1_555 1_555
C20 C19 1_555 1_555
H20 C20 1_555 1_555
H21 C20 1_555 1_555
H22 C20 1_555 1_555
C21 N1 1_555 1_555
H23 C21 1_555 1_555
H24 C21 1_555 1_555
C22 C21 1_555 1_555
H25 C22 1_555 1_555
H26 C22 1_555 1_555
H27 C22 1_555 1_555
C10 C11 1_555 1_555
C17 C18 1_555 1_555

#END
