
#######################################################################
#
#                 Cambridge Crystallographic Data Centre
#                                CCDC 
#
#######################################################################
#
# If this CIF has been generated from an entry in the Cambridge 
# Structural Database, then it will include bibliographic, chemical, 
# crystal, experimental, refinement or atomic coordinate data resulting 
# from the CCDC's data processing and validation procedures.
#
#######################################################################

data_ORULUJ
_chemical_formula_moiety         'C132 H200 K8 O18,2(C4 H8 O1)'
_chemical_name_systematic        
"bis(\m~4~-2,2'-Methylenebis(6-t-butyl-4-methylphenolato))-bis(\m~3~-\h^6^-2,2'-methylenebis(6-t-butyl-4-methylphenolato))-bis(\m~2~-tetrahydrofuran)-octakis(tetrahydrofuran)-octa-potassium tetrahydrofuran solvate"
_symmetry_cell_setting           triclinic
_symmetry_space_group_name_H-M   'P -1'
_symmetry_Int_Tables_number      2
_space_group_name_Hall           '-P 1'
loop_
_symmetry_equiv_pos_site_id
_symmetry_equiv_pos_as_xyz
1 x,y,z
2 -x,-y,-z
_cell_length_a                   13.443(3)
_cell_length_b                   14.133(2)
_cell_length_c                   21.069(4)
_cell_angle_alpha                91.634(4)
_cell_angle_beta                 106.630(4)
_cell_angle_gamma                104.184(5)
_cell_volume                     3697.52
_exptl_crystal_colour            colorless
_exptl_crystal_description       block
_cell_formula_units_Z            1
loop_
_atom_site_label
_atom_site_type_symbol
_atom_site_fract_x
_atom_site_fract_y
_atom_site_fract_z
K1 K 0.62225(11) 0.63607(9) 0.52234(6)
K2 K 0.53358(11) 0.63707(10) 0.73344(7)
K3 K 0.82479(12) 0.67120(10) 0.73888(7)
K4 K 0.92580(13) 0.95667(11) 0.75903(7)
O1 O 0.4903(3) 0.5649(4) 0.5845(3)
O2 O 0.6800(3) 0.5500(3) 0.78346(18)
O3 O 0.8033(3) 0.7324(2) 0.61754(19)
O4 O 0.7691(3) 0.8238(3) 0.77727(18)
O5 O 0.5599(9) 0.7889(9) 0.4613(6)
O7 O 0.4220(11) 0.6018(10) 0.8182(7)
O9 O 0.9676(13) 0.5652(12) 0.7319(8)
O11 O 1.0468(10) 0.8291(9) 0.8337(6)
O13 O 1.0139(10) 1.1323(10) 0.8368(7)
C1 C 0.4278(4) 0.4994(4) 0.6069(3)
C2 C 0.3154(4) 0.4930(4) 0.5928(3)
C3 C 0.2538(5) 0.4160(5) 0.6164(3)
H1 H 0.1800 0.4088 0.6049
C4 C 0.2948(6) 0.3500(6) 0.6556(4)
C5 C 0.4040(5) 0.3588(5) 0.6703(3)
H2 H 0.4335 0.3152 0.6969
C6 C 0.4709(4) 0.4305(4) 0.6465(2)
C7 C 0.6859(4) 0.4593(4) 0.7825(3)
C8 C 0.7373(4) 0.4182(4) 0.8407(3)
C9 C 0.7432(5) 0.3223(5) 0.8352(3)
H3 H 0.7762 0.2969 0.8735
C10 C 0.7027(6) 0.2622(5) 0.7760(4)
C11 C 0.6523(5) 0.3010(5) 0.7202(3)
H4 H 0.6235 0.2614 0.6799
C12 C 0.6427(4) 0.3968(4) 0.7217(3)
C13 C 0.5878(5) 0.4350(5) 0.6600(3)
H5 H 0.6202 0.4439 0.6237
C14 C 0.2658(5) 0.5661(5) 0.5509(4)
C15 C 0.1433(5) 0.5451(7) 0.5399(5)
H6 H 0.1149 0.5896 0.5109
H7 H 0.1304 0.5539 0.5820
H8 H 0.1085 0.4788 0.5201
C16 C 0.3165(7) 0.6686(6) 0.5889(5)
H9 H 0.3894 0.6914 0.5878
H10 H 0.3161 0.6659 0.6342
H11 H 0.2760 0.7128 0.5683
C17 C 0.2804(7) 0.5633(8) 0.4829(4)
H12 H 0.3557 0.5761 0.4871
H13 H 0.2519 0.6123 0.4589
H14 H 0.2431 0.4997 0.4590
C18 C 0.2212(7) 0.2678(8) 0.6781(6)
H15 H 0.1489 0.2566 0.6493
H16 H 0.2236 0.2857 0.7230
H17 H 0.2445 0.2090 0.6765
C19 C 0.7834(5) 0.4830(4) 0.9088(3)
C20 C 0.8335(7) 0.4250(6) 0.9657(4)
H18 H 0.8573 0.4652 1.0075
H19 H 0.8937 0.4077 0.9573
H20 H 0.7804 0.3664 0.9673
C21 C 0.8709(6) 0.5724(5) 0.9058(3)
H21 H 0.8411 0.6108 0.8722
H22 H 0.9275 0.5516 0.8950
H23 H 0.8993 0.6114 0.9482
C22 C 0.6942(6) 0.5157(5) 0.9272(3)
H24 H 0.7247 0.5594 0.9676
H25 H 0.6427 0.4593 0.9336
H26 H 0.6591 0.5489 0.8920
C23 C 0.7099(8) 0.1532(5) 0.7729(5)
H27 H 0.6526 0.1150 0.7358
H28 H 0.7035 0.1267 0.8135
H29 H 0.7779 0.1511 0.7676
C24 C 0.8194(4) 0.8281(4) 0.6182(2)
C25 C 0.9121(4) 0.8905(4) 0.6064(2)
C26 C 0.9211(4) 0.9898(4) 0.6057(3)
H30 H 0.9858 1.0315 0.5982
C27 C 0.8468(5) 1.0342(4) 0.6170(3)
C28 C 0.7578(4) 0.9741(4) 0.6306(3)
H31 H 0.6992 1.0021 0.6335
C29 C 0.7435(4) 0.8735(4) 0.6318(2)
C30 C 0.6806(4) 0.8504(4) 0.7677(2)
C31 C 0.6441(5) 0.8787(4) 0.8216(3)
C32 C 0.5446(5) 0.9003(4) 0.8055(3)
H32 H 0.5212 0.9182 0.8405
C33 C 0.4794(5) 0.8970(5) 0.7426(3)
C34 C 0.5161(4) 0.8714(4) 0.6913(3)
H33 H 0.4760 0.8782 0.6456
C35 C 0.6119(4) 0.8477(3) 0.7020(2)
C36 C 0.6440(4) 0.8102(4) 0.6444(2)
C37 C 0.9978(4) 0.8455(5) 0.5912(3)
C38 C 1.0921(6) 0.9235(6) 0.5813(4)
H34 H 1.1430 0.8923 0.5719
H35 H 1.1266 0.9684 0.6210
H36 H 1.0659 0.9588 0.5446
C39 C 1.0462(6) 0.7929(7) 0.6492(4)
H37 H 0.9900 0.7431 0.6577
H38 H 1.0820 0.8392 0.6881
H39 H 1.0971 0.7631 0.6385
C40 C 0.9478(6) 0.7769(6) 0.5272(4)
H40 H 0.8951 0.7215 0.5336
H41 H 1.0028 0.7547 0.5154
H42 H 0.9138 0.8110 0.4922
C41 C 0.8573(7) 1.1417(5) 0.6130(5)
H43 H 0.8651 1.1583 0.5705
H44 H 0.9195 1.1786 0.6478
H45 H 0.7941 1.1570 0.6181
C42 C 0.7101(6) 0.8820(5) 0.8938(3)
C43 C 0.6582(8) 0.9173(7) 0.9432(3)
H46 H 0.6592 0.9850 0.9392
H47 H 0.6979 0.9104 0.9878
H48 H 0.5851 0.8785 0.9334
C44 C 0.8219(7) 0.9514(7) 0.9064(3)
H49 H 0.8605 0.9249 0.8816
H50 H 0.8604 0.9589 0.9531
H51 H 0.8152 1.0143 0.8925
C45 C 0.7195(8) 0.7777(6) 0.9085(4)
H52 H 0.6492 0.7354 0.9034
H53 H 0.7646 0.7799 0.9534
H54 H 0.7505 0.7529 0.8781
C46 C 0.3700(7) 0.9180(9) 0.7292(5)
H55 H 0.3462 0.9087 0.7680
H56 H 0.3191 0.8741 0.6922
H57 H 0.3757 0.9845 0.7190
C47 C 0.4774(14) 0.8353(14) 0.4588(12)
C49 C 0.5015(12) 0.9280(14) 0.4254(10)
C51 C 0.6240(12) 0.9627(11) 0.4464(9)
C53 C 0.6567(14) 0.8677(11) 0.4559(10)
C55 C 0.404(3) 0.5013(17) 0.8333(15)
C57 C 0.408(2) 0.5242(19) 0.9041(14)
C59 C 0.391(2) 0.6221(18) 0.9081(12)
C61 C 0.353(2) 0.656(2) 0.8370(12)
C63 C 0.965(2) 0.4765(15) 0.7707(12)
C65 C 0.952(2) 0.3898(18) 0.7234(12)
C67 C 0.967(2) 0.4314(19) 0.6606(13)
C69 C 0.975(2) 0.5396(18) 0.6673(11)
C71 C 1.1569(15) 0.837(2) 0.8333(11)
C73 C 1.2364(19) 0.8727(19) 0.9027(11)
C75 C 1.1570(19) 0.829(2) 0.9384(14)
C77 C 1.051(2) 0.8514(19) 0.9046(9)
C79 C 1.065(3) 1.2225(18) 0.8107(16)
C81 C 1.046(3) 1.291(2) 0.8614(15)
C83 C 1.080(2) 1.269(2) 0.9264(15)
C85 C 1.007(3) 1.174(2) 0.8994(13)
K1A K 0.37775(11) 0.36393(9) 0.47766(6)
K2A K 0.46642(11) 0.36293(10) 0.26656(7)
K3A K 0.17521(12) 0.32880(10) 0.26112(7)
K4A K 0.07420(13) 0.04333(11) 0.24097(7)
O1A O 0.5097(3) 0.4351(4) 0.4155(3)
O2A O 0.3200(3) 0.4500(3) 0.21654(18)
O3A O 0.1967(3) 0.2676(2) 0.38246(19)
O4A O 0.2309(3) 0.1762(3) 0.22273(18)
O5A O 0.4401(9) 0.2111(9) 0.5387(6)
O7A O 0.5780(11) 0.3982(10) 0.1818(7)
O9A O 0.0324(13) 0.4348(12) 0.2681(8)
O11A O -0.0468(10) 0.1709(9) 0.1663(6)
O13A O -0.0139(10) -0.1323(10) 0.1632(7)
C1A C 0.5722(4) 0.5006(4) 0.3931(3)
C2A C 0.6846(4) 0.5070(4) 0.4072(3)
C3A C 0.7462(5) 0.5840(5) 0.3836(3)
H1A H 0.8200 0.5912 0.3951
C4A C 0.7052(6) 0.6500(6) 0.3444(4)
C5A C 0.5960(5) 0.6412(5) 0.3297(3)
H2A H 0.5665 0.6848 0.3031
C6A C 0.5291(4) 0.5695(4) 0.3535(2)
C7A C 0.3141(4) 0.5407(4) 0.2175(3)
C8A C 0.2627(4) 0.5818(4) 0.1593(3)
C9A C 0.2568(5) 0.6777(5) 0.1648(3)
H3A H 0.2238 0.7031 0.1265
C10A C 0.2973(6) 0.7378(5) 0.2240(4)
C11A C 0.3477(5) 0.6990(5) 0.2798(3)
H4A H 0.3765 0.7386 0.3201
C12A C 0.3573(4) 0.6032(4) 0.2783(3)
C13A C 0.4122(5) 0.5650(5) 0.3400(3)
H5A H 0.3798 0.5561 0.3763
C14A C 0.7342(5) 0.4339(5) 0.4491(4)
C15A C 0.8567(5) 0.4549(7) 0.4601(5)
H6A H 0.8851 0.4104 0.4891
H7A H 0.8696 0.4461 0.4180
H8A H 0.8915 0.5212 0.4799
C16A C 0.6835(7) 0.3314(6) 0.4111(5)
H9A H 0.6106 0.3086 0.4122
H10A H 0.6839 0.3341 0.3658
H11A H 0.7240 0.2872 0.4317
C17A C 0.7196(7) 0.4367(8) 0.5171(4)
H12A H 0.6443 0.4239 0.5129
H13A H 0.7481 0.3877 0.5411
H14A H 0.7569 0.5003 0.5410
C18A C 0.7788(7) 0.7322(8) 0.3219(6)
H15A H 0.8511 0.7434 0.3507
H16A H 0.7764 0.7143 0.2770
H17A H 0.7555 0.7910 0.3235
C19A C 0.2166(5) 0.5170(4) 0.0912(3)
C20A C 0.1665(7) 0.5750(6) 0.0343(4)
H18A H 0.1427 0.5348 -0.0075
H19A H 0.1063 0.5923 0.0427
H20A H 0.2196 0.6336 0.0327
C21A C 0.1291(6) 0.4276(5) 0.0942(3)
H21A H 0.1589 0.3892 0.1278
H22A H 0.0725 0.4484 0.1050
H23A H 0.1007 0.3886 0.0518
C22A C 0.3058(6) 0.4843(5) 0.0728(3)
H24A H 0.2753 0.4406 0.0324
H25A H 0.3573 0.5407 0.0664
H26A H 0.3409 0.4511 0.1080
C23A C 0.2901(8) 0.8468(5) 0.2271(5)
H27A H 0.3474 0.8850 0.2642
H28A H 0.2965 0.8733 0.1865
H29A H 0.2221 0.8489 0.2324
C24A C 0.1806(4) 0.1719(4) 0.3818(2)
C25A C 0.0879(4) 0.1095(4) 0.3936(2)
C26A C 0.0789(4) 0.0102(4) 0.3943(3)
H30A H 0.0142 -0.0315 0.4018
C27A C 0.1532(5) -0.0342(4) 0.3830(3)
C28A C 0.2422(4) 0.0259(4) 0.3694(3)
H31A H 0.3008 -0.0021 0.3665
C29A C 0.2565(4) 0.1265(4) 0.3682(2)
C30A C 0.3194(4) 0.1496(4) 0.2323(2)
C31A C 0.3559(5) 0.1213(4) 0.1784(3)
C32A C 0.4554(5) 0.0997(4) 0.1945(3)
H32A H 0.4788 0.0818 0.1595
C33A C 0.5206(5) 0.1030(5) 0.2574(3)
C34A C 0.4839(4) 0.1286(4) 0.3087(3)
H33A H 0.5240 0.1218 0.3544
C35A C 0.3881(4) 0.1523(3) 0.2980(2)
C36A C 0.3560(4) 0.1898(4) 0.3556(2)
C37A C 0.0022(4) 0.1545(5) 0.4088(3)
C38A C -0.0921(6) 0.0765(6) 0.4187(4)
H34A H -0.1430 0.1077 0.4281
H35A H -0.1266 0.0316 0.3790
H36A H -0.0659 0.0412 0.4554
C39A C -0.0462(6) 0.2071(7) 0.3508(4)
H37A H 0.0100 0.2569 0.3423
H38A H -0.0820 0.1608 0.3119
H39A H -0.0971 0.2369 0.3615
C40A C 0.0522(6) 0.2231(6) 0.4728(4)
H40A H 0.1049 0.2785 0.4664
H41A H -0.0028 0.2453 0.4846
H42A H 0.0862 0.1890 0.5078
C41A C 0.1427(7) -0.1417(5) 0.3870(5)
H43A H 0.1349 -0.1583 0.4295
H44A H 0.0805 -0.1786 0.3522
H45A H 0.2059 -0.1570 0.3819
C42A C 0.2899(6) 0.1180(5) 0.1062(3)
C43A C 0.3418(8) 0.0827(7) 0.0568(3)
H46A H 0.3408 0.0150 0.0608
H47A H 0.3021 0.0896 0.0122
H48A H 0.4149 0.1215 0.0666
C44A C 0.1781(7) 0.0486(7) 0.0936(3)
H49A H 0.1395 0.0751 0.1184
H50A H 0.1396 0.0411 0.0469
H51A H 0.1848 -0.0143 0.1075
C45A C 0.2805(8) 0.2223(6) 0.0915(4)
H52A H 0.3508 0.2646 0.0966
H53A H 0.2354 0.2201 0.0466
H54A H 0.2495 0.2471 0.1219
C46A C 0.6300(7) 0.0820(9) 0.2708(5)
H55A H 0.6538 0.0913 0.2320
H56A H 0.6809 0.1259 0.3078
H57A H 0.6243 0.0155 0.2810
C47A C 0.5226(14) 0.1647(14) 0.5412(12)
C49A C 0.4985(12) 0.0720(14) 0.5746(10)
C51A C 0.3760(12) 0.0373(11) 0.5536(9)
C53A C 0.3433(14) 0.1323(11) 0.5441(10)
C55A C 0.596(3) 0.4987(17) 0.1667(15)
C57A C 0.592(2) 0.4758(19) 0.0959(14)
C59A C 0.609(2) 0.3779(18) 0.0919(12)
C61A C 0.647(2) 0.344(2) 0.1630(12)
C63A C 0.035(2) 0.5235(15) 0.2293(12)
C65A C 0.048(2) 0.6102(18) 0.2766(12)
C67A C 0.033(2) 0.5686(19) 0.3394(13)
C69A C 0.025(2) 0.4604(18) 0.3327(11)
C71A C -0.1569(15) 0.163(2) 0.1667(11)
C73A C -0.2364(19) 0.1273(19) 0.0973(11)
C75A C -0.1570(19) 0.171(2) 0.0616(14)
C77A C -0.051(2) 0.1486(19) 0.0954(9)
C79A C -0.065(3) -0.2225(18) 0.1893(16)
C81A C -0.046(3) -0.291(2) 0.1386(15)
C83A C -0.080(2) -0.269(2) 0.0736(15)
C85A C -0.007(3) -0.174(2) 0.1006(13)
O15 O 0.468(3) 0.255(2) 0.9294(16)
C87 C 0.452(3) 0.265(2) 0.8605(16)
C89 C 0.423(3) 0.162(2) 0.8264(17)
C91 C 0.467(3) 0.105(2) 0.8830(18)
C93 C 0.541(3) 0.197(3) 0.931(2)
O6? O 0.5898(9) 0.8034(9) 0.4723(6)
O8? O 0.3823(11) 0.5930(10) 0.7964(7)
O10? O 0.9580(13) 0.5539(12) 0.7446(8)
O12? O 1.0658(10) 0.8764(9) 0.8390(6)
O14? O 1.0538(10) 1.1166(9) 0.8363(6)
O16? O 0.483(3) 0.135(3) 0.9333(16)
C48? C 0.5059(14) 0.8522(14) 0.4649(12)
C50? C 0.5395(15) 0.9319(15) 0.4219(10)
C52? C 0.6236(13) 0.9095(12) 0.3955(8)
C54? C 0.6671(14) 0.8421(13) 0.4421(9)
C56? C 0.378(3) 0.5001(18) 0.8216(15)
C58? C 0.356(2) 0.4987(19) 0.8871(14)
C60? C 0.318(2) 0.5866(19) 0.8864(14)
C62? C 0.388(2) 0.6597(18) 0.8533(12)
C64? C 0.905(2) 0.4581(16) 0.7053(13)
C66? C 0.988(2) 0.421(2) 0.6850(14)
C68? C 1.093(2) 0.4877(18) 0.7229(13)
C70? C 1.0729(16) 0.5689(18) 0.7595(13)
C72? C 1.1815(15) 0.9024(18) 0.8507(12)
C74? C 1.209(2) 0.8287(18) 0.9049(12)
C76? C 1.1242(19) 0.797(2) 0.9396(13)
C78? C 1.031(2) 0.8024(17) 0.8817(12)
C80? C 1.013(2) 1.195(2) 0.8051(17)
C82? C 1.126(2) 1.181(2) 0.8258(12)
C84? C 1.145(3) 1.2509(18) 0.8883(15)
C86? C 1.091(3) 1.147(2) 0.9071(10)
C88? C 0.374(3) 0.120(2) 0.8867(18)
C90? C 0.381(3) 0.221(3) 0.8642(19)
C92? C 0.481(3) 0.226(3) 0.8433(19)
C94? C 0.545(3) 0.164(3) 0.8857(19)
loop_
_geom_bond_atom_site_label_1
_geom_bond_atom_site_label_2
_geom_bond_site_symmetry_1
_geom_bond_site_symmetry_2
K1 O1 1_555 1_555
K2 O1 1_555 1_555
K3 O2 1_555 1_555
K4 O4 1_555 1_555
O1 C1 1_555 1_555
O2 K2 1_555 1_555
O3 K1 1_555 1_555
O4 K3 1_555 1_555
O5 K1 1_555 1_555
O7 K2 1_555 1_555
O9 K3 1_555 1_555
O11 K3 1_555 1_555
O13 K4 1_555 1_555
O15 C87 1_555 1_555
C1 C2 1_555 1_555
C2 C3 1_555 1_555
C3 H1 1_555 1_555
C4 C3 1_555 1_555
C5 C4 1_555 1_555
H2 C5 1_555 1_555
C6 C1 1_555 1_555
C7 O2 1_555 1_555
C8 C7 1_555 1_555
C9 C8 1_555 1_555
H3 C9 1_555 1_555
C10 C9 1_555 1_555
C11 C10 1_555 1_555
H4 C11 1_555 1_555
C12 C7 1_555 1_555
C13 C6 1_555 1_555
H5 C13 1_555 1_555
C14 C2 1_555 1_555
C15 C14 1_555 1_555
H6 C15 1_555 1_555
H7 C15 1_555 1_555
H8 C15 1_555 1_555
C16 C14 1_555 1_555
H9 C16 1_555 1_555
H10 C16 1_555 1_555
H11 C16 1_555 1_555
C17 C14 1_555 1_555
H12 C17 1_555 1_555
H13 C17 1_555 1_555
H14 C17 1_555 1_555
C18 C4 1_555 1_555
H15 C18 1_555 1_555
H16 C18 1_555 1_555
H17 C18 1_555 1_555
C19 C8 1_555 1_555
C20 C19 1_555 1_555
H18 C20 1_555 1_555
H19 C20 1_555 1_555
H20 C20 1_555 1_555
C21 C19 1_555 1_555
H21 C21 1_555 1_555
H22 C21 1_555 1_555
H23 C21 1_555 1_555
C22 C19 1_555 1_555
H24 C22 1_555 1_555
H25 C22 1_555 1_555
H26 C22 1_555 1_555
C23 C10 1_555 1_555
H27 C23 1_555 1_555
H28 C23 1_555 1_555
H29 C23 1_555 1_555
C24 K4 1_555 1_555
C25 K4 1_555 1_555
C26 K4 1_555 1_555
H30 C26 1_555 1_555
C27 K4 1_555 1_555
C28 K4 1_555 1_555
H31 C28 1_555 1_555
C29 K4 1_555 1_555
C30 O4 1_555 1_555
C31 C30 1_555 1_555
C32 C31 1_555 1_555
H32 C32 1_555 1_555
C33 C32 1_555 1_555
C34 C33 1_555 1_555
H33 C34 1_555 1_555
C35 C30 1_555 1_555
C36 C29 1_555 1_555
C37 C25 1_555 1_555
C38 C37 1_555 1_555
H34 C38 1_555 1_555
H35 C38 1_555 1_555
H36 C38 1_555 1_555
C39 C37 1_555 1_555
H37 C39 1_555 1_555
H38 C39 1_555 1_555
H39 C39 1_555 1_555
C40 C37 1_555 1_555
H40 C40 1_555 1_555
H41 C40 1_555 1_555
H42 C40 1_555 1_555
C41 C27 1_555 1_555
H43 C41 1_555 1_555
H44 C41 1_555 1_555
H45 C41 1_555 1_555
C42 C31 1_555 1_555
C43 C42 1_555 1_555
H46 C43 1_555 1_555
H47 C43 1_555 1_555
H48 C43 1_555 1_555
C44 C42 1_555 1_555
H49 C44 1_555 1_555
H50 C44 1_555 1_555
H51 C44 1_555 1_555
C45 C42 1_555 1_555
H52 C45 1_555 1_555
H53 C45 1_555 1_555
H54 C45 1_555 1_555
C46 C33 1_555 1_555
H55 C46 1_555 1_555
H56 C46 1_555 1_555
H57 C46 1_555 1_555
C47 O5 1_555 1_555
C49 C47 1_555 1_555
C51 C49 1_555 1_555
C53 O5 1_555 1_555
C55 O7 1_555 1_555
C57 C55 1_555 1_555
C59 C57 1_555 1_555
C61 O7 1_555 1_555
C63 O9 1_555 1_555
C65 C63 1_555 1_555
C67 C65 1_555 1_555
C69 O9 1_555 1_555
C71 O11 1_555 1_555
C73 C71 1_555 1_555
C75 C73 1_555 1_555
C77 O11 1_555 1_555
C79 O13 1_555 1_555
C81 C79 1_555 1_555
C83 C81 1_555 1_555
C85 O13 1_555 1_555
C87 C89 1_555 1_555
C89 C91 1_555 1_555
C91 C93 1_555 1_555
C93 O15 1_555 1_555
K1A O1 1_555 1_555
K2A O1A 1_555 1_555
K3A O2A 1_555 1_555
K4A O4A 1_555 1_555
O1A K1 1_555 1_555
O2A K2A 1_555 1_555
O3A K1A 1_555 1_555
O4A K3A 1_555 1_555
O5A K1A 1_555 1_555
O7A K2A 1_555 1_555
O9A K3A 1_555 1_555
O11A K3A 1_555 1_555
O13A K4A 1_555 1_555
C1A O1A 1_555 1_555
C2A C1A 1_555 1_555
C3A C2A 1_555 1_555
H1A C3A 1_555 1_555
C4A C3A 1_555 1_555
C5A C4A 1_555 1_555
H2A C5A 1_555 1_555
C6A C1A 1_555 1_555
C7A O2A 1_555 1_555
C8A C7A 1_555 1_555
C9A C8A 1_555 1_555
H3A C9A 1_555 1_555
C10A C9A 1_555 1_555
C11A C10A 1_555 1_555
H4A C11A 1_555 1_555
C12A C7A 1_555 1_555
C13A C6A 1_555 1_555
H5A C13A 1_555 1_555
C14A C2A 1_555 1_555
C15A C14A 1_555 1_555
H6A C15A 1_555 1_555
H7A C15A 1_555 1_555
H8A C15A 1_555 1_555
C16A C14A 1_555 1_555
H9A C16A 1_555 1_555
H10A C16A 1_555 1_555
H11A C16A 1_555 1_555
C17A C14A 1_555 1_555
H12A C17A 1_555 1_555
H13A C17A 1_555 1_555
H14A C17A 1_555 1_555
C18A C4A 1_555 1_555
H15A C18A 1_555 1_555
H16A C18A 1_555 1_555
H17A C18A 1_555 1_555
C19A C8A 1_555 1_555
C20A C19A 1_555 1_555
H18A C20A 1_555 1_555
H19A C20A 1_555 1_555
H20A C20A 1_555 1_555
C21A C19A 1_555 1_555
H21A C21A 1_555 1_555
H22A C21A 1_555 1_555
H23A C21A 1_555 1_555
C22A C19A 1_555 1_555
H24A C22A 1_555 1_555
H25A C22A 1_555 1_555
H26A C22A 1_555 1_555
C23A C10A 1_555 1_555
H27A C23A 1_555 1_555
H28A C23A 1_555 1_555
H29A C23A 1_555 1_555
C24A K4A 1_555 1_555
C25A K4A 1_555 1_555
C26A K4A 1_555 1_555
H30A C26A 1_555 1_555
C27A K4A 1_555 1_555
C28A K4A 1_555 1_555
H31A C28A 1_555 1_555
C29A K4A 1_555 1_555
C30A O4A 1_555 1_555
C31A C30A 1_555 1_555
C32A C31A 1_555 1_555
H32A C32A 1_555 1_555
C33A C32A 1_555 1_555
C34A C33A 1_555 1_555
H33A C34A 1_555 1_555
C35A C30A 1_555 1_555
C36A C29A 1_555 1_555
C37A C25A 1_555 1_555
C38A C37A 1_555 1_555
H34A C38A 1_555 1_555
H35A C38A 1_555 1_555
H36A C38A 1_555 1_555
C39A C37A 1_555 1_555
H37A C39A 1_555 1_555
H38A C39A 1_555 1_555
H39A C39A 1_555 1_555
C40A C37A 1_555 1_555
H40A C40A 1_555 1_555
H41A C40A 1_555 1_555
H42A C40A 1_555 1_555
C41A C27A 1_555 1_555
H43A C41A 1_555 1_555
H44A C41A 1_555 1_555
H45A C41A 1_555 1_555
C42A C31A 1_555 1_555
C43A C42A 1_555 1_555
H46A C43A 1_555 1_555
H47A C43A 1_555 1_555
H48A C43A 1_555 1_555
C44A C42A 1_555 1_555
H49A C44A 1_555 1_555
H50A C44A 1_555 1_555
H51A C44A 1_555 1_555
C45A C42A 1_555 1_555
H52A C45A 1_555 1_555
H53A C45A 1_555 1_555
H54A C45A 1_555 1_555
C46A C33A 1_555 1_555
H55A C46A 1_555 1_555
H56A C46A 1_555 1_555
H57A C46A 1_555 1_555
C47A O5A 1_555 1_555
C49A C47A 1_555 1_555
C51A C49A 1_555 1_555
C53A O5A 1_555 1_555
C55A O7A 1_555 1_555
C57A C55A 1_555 1_555
C59A C57A 1_555 1_555
C61A O7A 1_555 1_555
C63A O9A 1_555 1_555
C65A C63A 1_555 1_555
C67A C65A 1_555 1_555
C69A O9A 1_555 1_555
C71A O11A 1_555 1_555
C73A C71A 1_555 1_555
C75A C73A 1_555 1_555
C77A O11A 1_555 1_555
C79A O13A 1_555 1_555
C81A C79A 1_555 1_555
C83A C81A 1_555 1_555
C85A O13A 1_555 1_555
K3 O3 1_555 1_555
K4 O11 1_555 1_555
O3 C24 1_555 1_555
C5 C6 1_555 1_555
C11 C12 1_555 1_555
C12 C13 1_555 1_555
C24 C25 1_555 1_555
C24 C29 1_555 1_555
C25 C26 1_555 1_555
C26 C27 1_555 1_555
C27 C28 1_555 1_555
C28 C29 1_555 1_555
C34 C35 1_555 1_555
C35 C36 1_555 1_555
C51 C53 1_555 1_555
C59 C61 1_555 1_555
C67 C69 1_555 1_555
C75 C77 1_555 1_555
C83 C85 1_555 1_555
K1A O1A 1_555 1_555
K3A O3A 1_555 1_555
K4A O11A 1_555 1_555
O3A C24A 1_555 1_555
C5A C6A 1_555 1_555
C11A C12A 1_555 1_555
C12A C13A 1_555 1_555
C24A C25A 1_555 1_555
C24A C29A 1_555 1_555
C25A C26A 1_555 1_555
C26A C27A 1_555 1_555
C27A C28A 1_555 1_555
C28A C29A 1_555 1_555
C34A C35A 1_555 1_555
C35A C36A 1_555 1_555
C51A C53A 1_555 1_555
C59A C61A 1_555 1_555
C67A C69A 1_555 1_555
C75A C77A 1_555 1_555
C83A C85A 1_555 1_555

#END
