
#######################################################################
#
#                 Cambridge Crystallographic Data Centre
#                                CCDC 
#
#######################################################################
#
# If this CIF has been generated from an entry in the Cambridge 
# Structural Database, then it will include bibliographic, chemical, 
# crystal, experimental, refinement or atomic coordinate data resulting 
# from the CCDC's data processing and validation procedures.
#
#######################################################################

data_ORUMAQ
_chemical_formula_moiety         'C52 H76 N2 Na2 O4,2(C4 H8 O1)'
_chemical_name_systematic        
'bis(\m~2~-2,4-Di-t-butyl-6-(((4-methylphenyl)amino)methyl)phenolato)-bis(tetrahydrofuran)-di-sodium tetrahydrofuran solvate'
_symmetry_cell_setting           triclinic
_symmetry_space_group_name_H-M   'P -1'
_symmetry_Int_Tables_number      2
_space_group_name_Hall           '-P 1'
loop_
_symmetry_equiv_pos_site_id
_symmetry_equiv_pos_as_xyz
1 x,y,z
2 -x,-y,-z
_cell_length_a                   10.8063(6)
_cell_length_b                   11.8902(5)
_cell_length_c                   13.8371(11)
_cell_angle_alpha                69.519(15)
_cell_angle_beta                 71.384(16)
_cell_angle_gamma                65.308(13)
_cell_volume                     1481.64
_exptl_crystal_colour            colorless
_exptl_crystal_description       block
_cell_formula_units_Z            1
loop_
_atom_site_label
_atom_site_type_symbol
_atom_site_fract_x
_atom_site_fract_y
_atom_site_fract_z
Na1 Na 0.51124(14) -0.07509(14) 0.42429(10)
O1 O 0.5700(2) 0.0931(2) 0.40646(18)
O2 O 0.3429(3) -0.0983(3) 0.3724(2)
N1 N 0.7314(3) -0.1378(3) 0.2952(2)
H1 H 0.700(4) -0.092(4) 0.236(3)
C1 C 0.6419(3) 0.1438(3) 0.3178(2)
C2 C 0.6000(3) 0.2767(3) 0.2674(3)
C3 C 0.6839(4) 0.3204(3) 0.1733(3)
H2 H 0.6552 0.4075 0.1412
C4 C 0.8071(4) 0.2421(3) 0.1250(3)
C5 C 0.8462(3) 0.1124(3) 0.1751(3)
H3 H 0.9282 0.0567 0.1449
C6 C 0.7674(3) 0.0634(3) 0.2680(3)
C7 C 0.8144(3) -0.0795(3) 0.3152(3)
H4 H 0.9118 -0.1177 0.2850
H5 H 0.8052 -0.0967 0.3905
C8 C 0.7852(3) -0.2710(3) 0.3065(2)
C9 C 0.8788(4) -0.3540(3) 0.3706(3)
H6 H 0.9108 -0.3223 0.4068
C10 C 0.9247(4) -0.4841(4) 0.3808(3)
H7 H 0.9873 -0.5384 0.4246
C11 C 0.8819(5) -0.5364(4) 0.3291(3)
C12 C 0.7882(4) -0.4522(4) 0.2652(3)
H8 H 0.7568 -0.4844 0.2289
C13 C 0.7400(4) -0.3222(3) 0.2535(3)
H9 H 0.6769 -0.2682 0.2100
C14 C 0.9366(6) -0.6795(4) 0.3391(5)
H10 H 1.0188 -0.7008 0.2858
H11 H 0.8668 -0.7032 0.3303
H12 H 0.9586 -0.7249 0.4074
C15 C 0.4660(4) 0.3714(4) 0.3166(3)
C16 C 0.4310(5) 0.5079(4) 0.2445(4)
H13 H 0.5009 0.5418 0.2372
H14 H 0.3420 0.5611 0.2748
H15 H 0.4284 0.5058 0.1764
C17 C 0.4834(5) 0.3781(4) 0.4199(3)
H16 H 0.5101 0.2936 0.4655
H17 H 0.3969 0.4308 0.4538
H18 H 0.5540 0.4142 0.4052
C18 C 0.3399(4) 0.3308(5) 0.3361(4)
H19 H 0.3286 0.3299 0.2704
H20 H 0.2575 0.3905 0.3672
H21 H 0.3552 0.2469 0.3830
C19 C 0.8987(4) 0.2918(4) 0.0221(3)
C20 C 0.8330(6) 0.4341(5) -0.0250(4)
H22 H 0.8933 0.4607 -0.0893
H23 H 0.8194 0.4808 0.0240
H24 H 0.7449 0.4507 -0.0393
C21 C 0.9283(7) 0.2224(6) -0.0591(4)
H25 H 0.9699 0.1322 -0.0309
H26 H 0.9909 0.2515 -0.1205
H27 H 0.8430 0.2392 -0.0780
C22 C 1.0359(6) 0.2733(7) 0.0448(4)
H28 H 1.0812 0.1843 0.0750
H29 H 1.0182 0.3219 0.0934
H30 H 1.0948 0.3019 -0.0196
C23 C 0.2064(5) -0.0338(6) 0.4145(5)
H31 H 0.1908 0.0567 0.3988
H32 H 0.1869 -0.0668 0.4904
C24 C 0.1152(5) -0.0531(7) 0.3670(6)
H33 H 0.0407 -0.0767 0.4209
H34 H 0.0744 0.0246 0.3165
C25 C 0.2007(5) -0.1540(8) 0.3155(7)
H35 H 0.1949 -0.1259 0.2418
H36 H 0.1711 -0.2278 0.3487
C26 C 0.3435(5) -0.1863(6) 0.3260(5)
H37 H 0.3762 -0.2725 0.3697
H38 H 0.4051 -0.1819 0.2573
Na1A Na 0.48876(14) 0.07509(14) 0.57571(10)
O1A O 0.4300(2) -0.0931(2) 0.59354(18)
O2A O 0.6571(3) 0.0983(3) 0.6276(2)
N1A N 0.2686(3) 0.1378(3) 0.7048(2)
H1A H 0.300(4) 0.092(4) 0.764(3)
C1A C 0.3581(3) -0.1438(3) 0.6822(2)
C2A C 0.4000(3) -0.2767(3) 0.7326(3)
C3A C 0.3161(4) -0.3204(3) 0.8267(3)
H2A H 0.3448 -0.4075 0.8588
C4A C 0.1929(4) -0.2421(3) 0.8750(3)
C5A C 0.1538(3) -0.1124(3) 0.8249(3)
H3A H 0.0718 -0.0567 0.8551
C6A C 0.2326(3) -0.0634(3) 0.7320(3)
C7A C 0.1856(3) 0.0795(3) 0.6848(3)
H4A H 0.0882 0.1177 0.7150
H5A H 0.1948 0.0967 0.6095
C8A C 0.2148(3) 0.2710(3) 0.6935(2)
C9A C 0.1212(4) 0.3540(3) 0.6294(3)
H6A H 0.0892 0.3223 0.5932
C10A C 0.0753(4) 0.4841(4) 0.6192(3)
H7A H 0.0127 0.5384 0.5754
C11A C 0.1181(5) 0.5364(4) 0.6709(3)
C12A C 0.2118(4) 0.4522(4) 0.7348(3)
H8A H 0.2432 0.4844 0.7711
C13A C 0.2600(4) 0.3222(3) 0.7465(3)
H9A H 0.3231 0.2682 0.7900
C14A C 0.0634(6) 0.6795(4) 0.6609(5)
H10A H -0.0188 0.7008 0.7142
H11A H 0.1332 0.7032 0.6697
H12A H 0.0414 0.7249 0.5926
C15A C 0.5340(4) -0.3714(4) 0.6834(3)
C16A C 0.5690(5) -0.5079(4) 0.7555(4)
H13A H 0.4991 -0.5418 0.7628
H14A H 0.6580 -0.5611 0.7252
H15A H 0.5716 -0.5058 0.8236
C17A C 0.5166(5) -0.3781(4) 0.5801(3)
H16A H 0.4899 -0.2936 0.5345
H17A H 0.6031 -0.4308 0.5462
H18A H 0.4460 -0.4142 0.5948
C18A C 0.6601(4) -0.3308(5) 0.6639(4)
H19A H 0.6714 -0.3299 0.7296
H20A H 0.7425 -0.3905 0.6328
H21A H 0.6448 -0.2469 0.6170
C19A C 0.1013(4) -0.2918(4) 0.9779(3)
C20A C 0.1670(6) -0.4341(5) 1.0250(4)
H22A H 0.1067 -0.4607 1.0893
H23A H 0.1806 -0.4808 0.9760
H24A H 0.2551 -0.4507 1.0393
C21A C 0.0717(7) -0.2224(6) 1.0591(4)
H25A H 0.0301 -0.1322 1.0309
H26A H 0.0091 -0.2515 1.1205
H27A H 0.1570 -0.2392 1.0780
C22A C -0.0359(6) -0.2733(7) 0.9552(4)
H28A H -0.0812 -0.1843 0.9250
H29A H -0.0182 -0.3219 0.9066
H30A H -0.0948 -0.3019 1.0196
C23A C 0.7936(5) 0.0338(6) 0.5855(5)
H31A H 0.8092 -0.0567 0.6012
H32A H 0.8131 0.0668 0.5096
C24A C 0.8848(5) 0.0531(7) 0.6330(6)
H33A H 0.9593 0.0767 0.5791
H34A H 0.9256 -0.0246 0.6835
C25A C 0.7993(5) 0.1540(8) 0.6845(7)
H35A H 0.8051 0.1259 0.7582
H36A H 0.8289 0.2278 0.6513
C26A C 0.6565(5) 0.1863(6) 0.6740(5)
H37A H 0.6238 0.2725 0.6303
H38A H 0.5949 0.1819 0.7427
O3 O 0.5656(4) 0.0132(3) 0.1149(3)
C27 C 0.6381(7) 0.0644(6) 0.0185(5)
H39 H 0.6694 0.0090 -0.0283
H40 H 0.7191 0.0720 0.0282
C28 C 0.5455(10) 0.1899(8) -0.0267(6)
H41 H 0.5936 0.2513 -0.0565
H42 H 0.5108 0.1861 -0.0816
C29 C 0.4322(10) 0.2255(7) 0.0605(7)
H43 H 0.4356 0.2960 0.0783
H44 H 0.3432 0.2513 0.0420
C30 C 0.4508(7) 0.1130(6) 0.1485(5)
H45 H 0.4660 0.1307 0.2063
H46 H 0.3681 0.0893 0.1731
loop_
_geom_bond_atom_site_label_1
_geom_bond_atom_site_label_2
_geom_bond_site_symmetry_1
_geom_bond_site_symmetry_2
Na1 O1 1_555 1_555
O1 C1 1_555 1_555
O2 Na1 1_555 1_555
O3 C27 1_555 1_555
N1 Na1 1_555 1_555
H1 N1 1_555 1_555
C1 C2 1_555 1_555
C2 C3 1_555 1_555
C3 H2 1_555 1_555
C4 C3 1_555 1_555
C5 C4 1_555 1_555
H3 C5 1_555 1_555
C6 C1 1_555 1_555
C7 N1 1_555 1_555
H4 C7 1_555 1_555
H5 C7 1_555 1_555
C8 N1 1_555 1_555
C9 C8 1_555 1_555
H6 C9 1_555 1_555
C10 C9 1_555 1_555
H7 C10 1_555 1_555
C11 C10 1_555 1_555
C12 C11 1_555 1_555
H8 C12 1_555 1_555
C13 C8 1_555 1_555
H9 C13 1_555 1_555
C14 C11 1_555 1_555
H10 C14 1_555 1_555
H11 C14 1_555 1_555
H12 C14 1_555 1_555
C15 C2 1_555 1_555
C16 C15 1_555 1_555
H13 C16 1_555 1_555
H14 C16 1_555 1_555
H15 C16 1_555 1_555
C17 C15 1_555 1_555
H16 C17 1_555 1_555
H17 C17 1_555 1_555
H18 C17 1_555 1_555
C18 C15 1_555 1_555
H19 C18 1_555 1_555
H20 C18 1_555 1_555
H21 C18 1_555 1_555
C19 C4 1_555 1_555
C20 C19 1_555 1_555
H22 C20 1_555 1_555
H23 C20 1_555 1_555
H24 C20 1_555 1_555
C21 C19 1_555 1_555
H25 C21 1_555 1_555
H26 C21 1_555 1_555
H27 C21 1_555 1_555
C22 C19 1_555 1_555
H28 C22 1_555 1_555
H29 C22 1_555 1_555
H30 C22 1_555 1_555
C23 O2 1_555 1_555
H31 C23 1_555 1_555
H32 C23 1_555 1_555
C24 C23 1_555 1_555
H33 C24 1_555 1_555
H34 C24 1_555 1_555
C25 C24 1_555 1_555
H35 C25 1_555 1_555
H36 C25 1_555 1_555
C26 O2 1_555 1_555
H37 C26 1_555 1_555
H38 C26 1_555 1_555
C27 H39 1_555 1_555
H40 C27 1_555 1_555
C28 C27 1_555 1_555
H41 C28 1_555 1_555
H42 C28 1_555 1_555
C29 C28 1_555 1_555
H43 C29 1_555 1_555
H44 C29 1_555 1_555
C30 O3 1_555 1_555
H45 C30 1_555 1_555
H46 C30 1_555 1_555
Na1A O1 1_555 1_555
O1A Na1 1_555 1_555
O2A Na1A 1_555 1_555
N1A Na1A 1_555 1_555
H1A N1A 1_555 1_555
C1A O1A 1_555 1_555
C2A C1A 1_555 1_555
C3A C2A 1_555 1_555
H2A C3A 1_555 1_555
C4A C3A 1_555 1_555
C5A C4A 1_555 1_555
H3A C5A 1_555 1_555
C6A C1A 1_555 1_555
C7A N1A 1_555 1_555
H4A C7A 1_555 1_555
H5A C7A 1_555 1_555
C8A N1A 1_555 1_555
C9A C8A 1_555 1_555
H6A C9A 1_555 1_555
C10A C9A 1_555 1_555
H7A C10A 1_555 1_555
C11A C10A 1_555 1_555
C12A C11A 1_555 1_555
H8A C12A 1_555 1_555
C13A C8A 1_555 1_555
H9A C13A 1_555 1_555
C14A C11A 1_555 1_555
H10A C14A 1_555 1_555
H11A C14A 1_555 1_555
H12A C14A 1_555 1_555
C15A C2A 1_555 1_555
C16A C15A 1_555 1_555
H13A C16A 1_555 1_555
H14A C16A 1_555 1_555
H15A C16A 1_555 1_555
C17A C15A 1_555 1_555
H16A C17A 1_555 1_555
H17A C17A 1_555 1_555
H18A C17A 1_555 1_555
C18A C15A 1_555 1_555
H19A C18A 1_555 1_555
H20A C18A 1_555 1_555
H21A C18A 1_555 1_555
C19A C4A 1_555 1_555
C20A C19A 1_555 1_555
H22A C20A 1_555 1_555
H23A C20A 1_555 1_555
H24A C20A 1_555 1_555
C21A C19A 1_555 1_555
H25A C21A 1_555 1_555
H26A C21A 1_555 1_555
H27A C21A 1_555 1_555
C22A C19A 1_555 1_555
H28A C22A 1_555 1_555
H29A C22A 1_555 1_555
H30A C22A 1_555 1_555
C23A O2A 1_555 1_555
H31A C23A 1_555 1_555
H32A C23A 1_555 1_555
C24A C23A 1_555 1_555
H33A C24A 1_555 1_555
H34A C24A 1_555 1_555
C25A C24A 1_555 1_555
H35A C25A 1_555 1_555
H36A C25A 1_555 1_555
C26A O2A 1_555 1_555
H37A C26A 1_555 1_555
H38A C26A 1_555 1_555
C5 C6 1_555 1_555
C6 C7 1_555 1_555
C12 C13 1_555 1_555
C25 C26 1_555 1_555
C29 C30 1_555 1_555
Na1A O1A 1_555 1_555
C5A C6A 1_555 1_555
C6A C7A 1_555 1_555
C12A C13A 1_555 1_555
C25A C26A 1_555 1_555

#END
