
#######################################################################
#
#                 Cambridge Crystallographic Data Centre
#                                CCDC 
#
#######################################################################
#
# If this CIF has been generated from an entry in the Cambridge 
# Structural Database, then it will include bibliographic, chemical, 
# crystal, experimental, refinement or atomic coordinate data resulting 
# from the CCDC's data processing and validation procedures.
#
#######################################################################

data_ORURID
_chemical_formula_moiety         'C18 H20 N2 O4 S2'
_chemical_name_systematic        
2,6-bis(3-(methylsulfanyl)propyl)pyrrolo[3,4-f]isoindole-1,3,5,7(2H,6H)-tetrone
_symmetry_cell_setting           triclinic
_symmetry_space_group_name_H-M   'P -1'
_symmetry_Int_Tables_number      2
_space_group_name_Hall           '-P 1'
loop_
_symmetry_equiv_pos_site_id
_symmetry_equiv_pos_as_xyz
1 x,y,z
2 -x,-y,-z
_cell_length_a                   5.1136(9)
_cell_length_b                   14.397(3)
_cell_length_c                   19.864(4)
_cell_angle_alpha                70.822(2)
_cell_angle_beta                 88.267(2)
_cell_angle_gamma                88.737(2)
_cell_volume                     1380.49
_exptl_crystal_colour            colorless
_exptl_crystal_description       plate
_cell_formula_units_Z            3
loop_
_atom_site_label
_atom_site_type_symbol
_atom_site_fract_x
_atom_site_fract_y
_atom_site_fract_z
S1 S 1.0816(2) 0.81661(8) 0.37690(6)
O1 O 0.6063(5) 1.10876(19) 0.12106(14)
O2 O 1.3205(5) 0.90231(19) 0.17920(14)
N1 N 0.9633(6) 1.0079(2) 0.16770(16)
C1 C 0.9195(10) 0.8289(4) 0.4554(2)
H1 H 0.8619 0.8972 0.4459
H2 H 1.0411 0.8102 0.4950
H3 H 0.7674 0.7858 0.4680
C2 C 0.8160(8) 0.8524(3) 0.3156(2)
H4 H 0.8581 0.8305 0.2742
H5 H 0.6563 0.8177 0.3395
C3 C 0.7577(7) 0.9617(3) 0.2888(2)
H6 H 0.7408 0.9854 0.3302
H7 H 0.5871 0.9728 0.2650
C4 C 0.9620(7) 1.0221(3) 0.23731(19)
H8 H 0.9293 1.0926 0.2307
H9 H 1.1368 1.0043 0.2583
C5 C 0.7887(7) 1.0571(3) 0.1147(2)
C6 C 0.8757(7) 1.0336(2) 0.04959(19)
C7 C 1.0930(7) 0.9701(3) 0.06731(19)
C8 C 1.1494(7) 0.9527(3) 0.14418(19)
C9 C 0.7772(7) 1.0650(3) -0.01828(19)
H10 H 0.6298 1.1081 -0.0305
S1A S 0.9184(2) 1.18339(8) -0.37690(6)
O1A O 1.3937(5) 0.89124(19) -0.12106(14)
O2A O 0.6795(5) 1.09769(19) -0.17920(14)
N1A N 1.0367(6) 0.9921(2) -0.16770(16)
C1A C 1.0805(10) 1.1711(4) -0.4554(2)
H1A H 1.1381 1.1028 -0.4459
H2A H 0.9589 1.1898 -0.4950
H3A H 1.2326 1.2142 -0.4680
C2A C 1.1840(8) 1.1476(3) -0.3156(2)
H4A H 1.1419 1.1695 -0.2742
H5A H 1.3437 1.1823 -0.3395
C3A C 1.2423(7) 1.0383(3) -0.2888(2)
H6A H 1.2592 1.0146 -0.3302
H7A H 1.4129 1.0272 -0.2650
C4A C 1.0380(7) 0.9779(3) -0.23731(19)
H8A H 1.0707 0.9074 -0.2307
H9A H 0.8632 0.9957 -0.2583
C5A C 1.2113(7) 0.9429(3) -0.1147(2)
C6A C 1.1243(7) 0.9664(2) -0.04959(19)
C7A C 0.9070(7) 1.0299(3) -0.06731(19)
C8A C 0.8506(7) 1.0473(3) -0.14418(19)
C9A C 1.2228(7) 0.9350(3) 0.01828(19)
H10A H 1.3702 0.8919 0.0305
S2 S 0.5664(2) 0.13861(8) 1.40551(6)
S3 S 0.0900(2) 0.56808(9) 0.60921(6)
O3 O 0.0850(5) 0.2394(2) 1.13362(15)
O4 O 0.7944(5) 0.4394(2) 1.09655(15)
O5 O 0.1877(5) 0.2358(2) 0.83240(15)
O6 O 0.8858(5) 0.4424(2) 0.79276(15)
N2 N 0.4370(6) 0.3385(2) 1.13303(17)
N3 N 0.5426(6) 0.3387(2) 0.79441(16)
C10 C 0.3046(9) 0.0577(3) 1.4068(2)
H11 H 0.1373 0.0891 1.4126
H12 H 0.3261 -0.0037 1.4466
H13 H 0.3068 0.0433 1.3618
C11 C 0.4651(9) 0.2482(3) 1.3359(2)
H14 H 0.2776 0.2610 1.3439
H15 H 0.5646 0.3045 1.3397
C12 C 0.5029(8) 0.2440(3) 1.2609(2)
H16 H 0.4047 0.1879 1.2565
H17 H 0.6906 0.2334 1.2517
C13 C 0.4072(8) 0.3396(3) 1.2057(2)
H18 H 0.2203 0.3504 1.2157
H19 H 0.5065 0.3953 1.2103
C14 C 0.2709(7) 0.2868(3) 1.1037(2)
C15 C 0.3663(7) 0.3067(3) 1.0288(2)
C16 C 0.5816(7) 0.3684(3) 1.0172(2)
C17 C 0.6289(7) 0.3888(3) 1.0847(2)
C18 C 0.2698(7) 0.2742(3) 0.9762(2)
H20 H 0.1232 0.2323 0.9841
C19 C 0.4031(7) 0.3075(3) 0.9113(2)
C20 C 0.6173(7) 0.3694(3) 0.8993(2)
C21 C 0.7150(7) 0.4026(3) 0.9517(2)
H21 H 0.8606 0.4450 0.9436
C22 C 0.3538(7) 0.2867(3) 0.8440(2)
C23 C 0.7085(7) 0.3907(3) 0.8239(2)
C24 C 0.5768(7) 0.3358(3) 0.7216(2)
H22 H 0.5793 0.2663 0.7231
H23 H 0.7481 0.3645 0.7019
C25 C 0.3628(8) 0.3912(3) 0.6725(2)
H24 H 0.1939 0.3582 0.6895
H25 H 0.4001 0.3883 0.6241
C26 C 0.3375(8) 0.4980(3) 0.6686(2)
H26 H 0.5085 0.5300 0.6530
H27 H 0.2971 0.5003 0.7171
C27 C 0.2482(14) 0.5840(5) 0.5247(3)
H28 H 0.4202 0.6134 0.5234
H29 H 0.1412 0.6275 0.4867
H30 H 0.2701 0.5200 0.5178
loop_
_geom_bond_atom_site_label_1
_geom_bond_atom_site_label_2
_geom_bond_site_symmetry_1
_geom_bond_site_symmetry_2
S1 C1 1_555 1_555
S2 C10 1_555 1_555
S3 C26 1_555 1_555
O1 C5 1_555 1_555
O2 C8 1_555 1_555
O3 C14 1_555 1_555
O4 C17 1_555 1_555
O5 C22 1_555 1_555
O6 C23 1_555 1_555
N1 C4 1_555 1_555
N2 C13 1_555 1_555
N3 C22 1_555 1_555
C1 H1 1_555 1_555
H2 C1 1_555 1_555
H3 C1 1_555 1_555
C2 S1 1_555 1_555
H4 C2 1_555 1_555
H5 C2 1_555 1_555
C3 C2 1_555 1_555
H6 C3 1_555 1_555
H7 C3 1_555 1_555
C4 C3 1_555 1_555
H8 C4 1_555 1_555
H9 C4 1_555 1_555
C5 N1 1_555 1_555
C6 C5 1_555 1_555
C7 C6 1_555 1_555
C8 N1 1_555 1_555
C9 C6 1_555 1_555
H10 C9 1_555 1_555
C10 H11 1_555 1_555
H12 C10 1_555 1_555
H13 C10 1_555 1_555
C11 S2 1_555 1_555
H14 C11 1_555 1_555
H15 C11 1_555 1_555
C12 C11 1_555 1_555
H16 C12 1_555 1_555
H17 C12 1_555 1_555
C13 C12 1_555 1_555
H18 C13 1_555 1_555
H19 C13 1_555 1_555
C14 N2 1_555 1_555
C15 C14 1_555 1_555
C16 C15 1_555 1_555
C17 N2 1_555 1_555
C18 C15 1_555 1_555
H20 C18 1_555 1_555
C19 C18 1_555 1_555
C20 C19 1_555 1_555
C21 C16 1_555 1_555
H21 C21 1_555 1_555
C22 C19 1_555 1_555
C23 N3 1_555 1_555
C24 N3 1_555 1_555
H22 C24 1_555 1_555
H23 C24 1_555 1_555
C25 C24 1_555 1_555
H24 C25 1_555 1_555
H25 C25 1_555 1_555
C26 C25 1_555 1_555
H26 C26 1_555 1_555
H27 C26 1_555 1_555
C27 S3 1_555 1_555
H28 C27 1_555 1_555
H29 C27 1_555 1_555
H30 C27 1_555 1_555
S1A C1A 1_555 1_555
O1A C5A 1_555 1_555
O2A C8A 1_555 1_555
N1A C4A 1_555 1_555
C1A H1A 1_555 1_555
H2A C1A 1_555 1_555
H3A C1A 1_555 1_555
C2A S1A 1_555 1_555
H4A C2A 1_555 1_555
H5A C2A 1_555 1_555
C3A C2A 1_555 1_555
H6A C3A 1_555 1_555
H7A C3A 1_555 1_555
C4A C3A 1_555 1_555
H8A C4A 1_555 1_555
H9A C4A 1_555 1_555
C5A N1A 1_555 1_555
C6A C5A 1_555 1_555
C7A C9 1_555 1_555
C8A N1A 1_555 1_555
C9A C7 1_555 1_555
H10A C9A 1_555 1_555
C7 C8 1_555 1_555
C16 C17 1_555 1_555
C20 C21 1_555 1_555
C20 C23 1_555 1_555
C6A C7A 1_555 1_555
C6A C9A 1_555 1_555
C7A C8A 1_555 1_555

#END
