
#######################################################################
#
#                 Cambridge Crystallographic Data Centre
#                                CCDC 
#
#######################################################################
#
# If this CIF has been generated from an entry in the Cambridge 
# Structural Database, then it will include bibliographic, chemical, 
# crystal, experimental, refinement or atomic coordinate data resulting 
# from the CCDC's data processing and validation procedures.
#
#######################################################################

data_ORUTUS
_chemical_formula_moiety         'C37 H27 N3,0.59(C1 H2 Cl2),0.41(C1 H1 Cl3)'
_chemical_name_systematic        
'31-(4-methylphenyl)-31,32,33-triazaheptacyclo[26.2.1.1^8,11^.1^18,21^.0^2,7^.0^12,17^.0^22,27^]tritriaconta-1(30),2,4,6,8,10,12,14,16,18,20,22,24,26,28-pentadecaene chloroform dichloromethane solvate'
_symmetry_cell_setting           triclinic
_symmetry_space_group_name_H-M   'P -1'
_symmetry_Int_Tables_number      2
_space_group_name_Hall           '-P 1'
loop_
_symmetry_equiv_pos_site_id
_symmetry_equiv_pos_as_xyz
1 x,y,z
2 -x,-y,-z
_cell_length_a                   10.642(2)
_cell_length_b                   16.739(2)
_cell_length_c                   18.487(2)
_cell_angle_alpha                69.064(12)
_cell_angle_beta                 83.49(3)
_cell_angle_gamma                84.56(2)
_cell_volume                     3050.72
_exptl_crystal_colour            colorless
_exptl_crystal_description       prism
_cell_formula_units_Z            4
_exptl_crystal_recrystallization_method 'Vapour deposition'
loop_
_atom_site_label
_atom_site_type_symbol
_atom_site_fract_x
_atom_site_fract_y
_atom_site_fract_z
C1 C 0.9933(3) -0.06760(17) 0.34413(17)
C2 C 1.0784(3) -0.10423(19) 0.39966(18)
H1 H 1.0575 -0.1288 0.4541
C3 C 1.2008(3) -0.09903(19) 0.36196(18)
H2 H 1.2772 -0.1197 0.3863
C4 C 1.1910(3) -0.05892(18) 0.28369(17)
N1 N 1.0641(2) -0.03914(15) 0.27357(14)
H3 H 1.0327 -0.0122 0.2285
C5 C 1.2934(3) -0.04385(19) 0.22058(17)
C6 C 1.3970(3) -0.1035(2) 0.23317(19)
H4 H 1.3963 -0.1515 0.2802
C7 C 1.5009(3) -0.0946(2) 0.1790(2)
H5 H 1.5706 -0.1357 0.1892
C8 C 1.5024(3) -0.0255(2) 0.1102(2)
H6 H 1.5730 -0.0190 0.0726
C9 C 1.4007(3) 0.0341(2) 0.09614(19)
H7 H 1.4025 0.0813 0.0485
C10 C 1.2951(3) 0.0267(2) 0.15018(18)
C11 C 1.1933(3) 0.0951(2) 0.12853(17)
C12 C 1.1764(3) 0.1748(2) 0.13475(19)
H8 H 1.2251 0.1964 0.1629
C13 C 1.0733(3) 0.2191(2) 0.0917(2)
H9 H 1.0411 0.2758 0.0858
C14 C 1.0284(3) 0.1664(2) 0.06020(17)
N2 N 1.1009(2) 0.09045(17) 0.08417(15)
H10 H 1.0896 0.0451 0.0726
C15 C 0.9314(3) 0.1807(2) 0.00486(18)
C16 C 0.9276(3) 0.2570(2) -0.05891(19)
H11 H 0.9804 0.3013 -0.0628
C17 C 0.8476(3) 0.2689(3) -0.1166(2)
H12 H 0.8445 0.3215 -0.1592
C18 C 0.7729(3) 0.2044(3) -0.11193(19)
H13 H 0.7223 0.2111 -0.1531
C19 C 0.7709(3) 0.1294(3) -0.04723(19)
H14 H 0.7167 0.0860 -0.0437
C20 C 0.8478(3) 0.1175(2) 0.01236(17)
C21 C 0.8385(3) 0.0416(2) 0.08488(18)
C22 C 0.8778(3) -0.0428(2) 0.10116(18)
H15 H 0.9091 -0.0688 0.0641
C23 C 0.8636(3) -0.0846(2) 0.18248(19)
H16 H 0.8845 -0.1434 0.2098
C24 C 0.8143(3) -0.02511(19) 0.21540(17)
N3 N 0.7988(2) 0.05239(16) 0.15507(14)
C25 C 0.7710(3) -0.03553(18) 0.29666(17)
C26 C 0.6411(3) -0.02543(19) 0.31595(19)
H17 H 0.5850 -0.0095 0.2760
C27 C 0.5918(3) -0.0380(2) 0.39152(19)
H18 H 0.5031 -0.0311 0.4033
C28 C 0.6734(3) -0.06077(19) 0.44966(18)
H19 H 0.6407 -0.0704 0.5019
C29 C 0.8025(3) -0.06957(18) 0.43206(17)
H20 H 0.8573 -0.0842 0.4726
C30 C 0.8549(3) -0.05748(17) 0.35585(17)
C31 C 0.7463(3) 0.13148(19) 0.16285(17)
C32 C 0.8016(3) 0.1668(2) 0.20784(18)
H21 H 0.8737 0.1387 0.2343
C33 C 0.7502(3) 0.2439(2) 0.21370(19)
H22 H 0.7883 0.2684 0.2443
C34 C 0.6445(3) 0.2859(2) 0.17598(19)
C35 C 0.5904(3) 0.2486(2) 0.13189(19)
H23 H 0.5177 0.2763 0.1058
C36 C 0.6405(3) 0.1717(2) 0.12518(18)
H24 H 0.6022 0.1469 0.0949
C37 C 0.5869(4) 0.3683(2) 0.1841(2)
H25 H 0.6269 0.4169 0.1437
H26 H 0.6007 0.3690 0.2354
H27 H 0.4958 0.3727 0.1786
C38 C -0.0460(3) 0.52713(18) 0.32380(18)
C39 C -0.0946(3) 0.5364(2) 0.25573(19)
H28 H -0.0685 0.5755 0.2058
C40 C -0.1904(3) 0.4778(2) 0.2722(2)
H29 H -0.2390 0.4702 0.2353
C41 C -0.2009(3) 0.43386(19) 0.35073(19)
N4 N -0.1115(2) 0.46368(15) 0.38123(14)
H30 H -0.0977 0.4449 0.4308
C42 C -0.2993(3) 0.3769(2) 0.40143(18)
C43 C -0.4109(3) 0.4181(2) 0.4209(2)
H31 H -0.4182 0.4790 0.4024
C44 C -0.5116(3) 0.3730(2) 0.4663(2)
H32 H -0.5874 0.4025 0.4779
C45 C -0.5005(3) 0.2847(2) 0.4946(2)
H33 H -0.5682 0.2530 0.5266
C46 C -0.3911(3) 0.2427(2) 0.47614(18)
H34 H -0.3848 0.1818 0.4959
C47 C -0.2882(3) 0.28679(19) 0.42906(17)
C48 C -0.1807(3) 0.23417(19) 0.41060(17)
C49 C -0.1817(3) 0.1522(2) 0.41006(18)
H35 H -0.2542 0.1198 0.4195
C50 C -0.0574(3) 0.1251(2) 0.39327(18)
H36 H -0.0310 0.0710 0.3889
C51 C 0.0207(3) 0.18980(18) 0.38415(16)
N5 N -0.0563(2) 0.25646(15) 0.39403(14)
H37 H -0.0301 0.3062 0.3903
C52 C 0.1586(3) 0.18984(18) 0.36523(16)
C53 C 0.2143(3) 0.1273(2) 0.33501(18)
H38 H 0.1620 0.0879 0.3284
C54 C 0.3424(3) 0.1219(2) 0.31486(18)
H39 H 0.3773 0.0786 0.2951
C55 C 0.4210(3) 0.1789(2) 0.32302(18)
H40 H 0.5095 0.1753 0.3088
C56 C 0.3686(3) 0.24114(19) 0.35217(17)
H41 H 0.4218 0.2811 0.3571
C57 C 0.2382(3) 0.24672(18) 0.37475(16)
C58 C 0.1928(3) 0.31064(18) 0.41132(17)
C59 C 0.1544(3) 0.29948(18) 0.48738(17)
H42 H 0.1432 0.2462 0.5285
C60 C 0.1342(3) 0.38153(18) 0.49389(17)
H43 H 0.1080 0.3930 0.5402
C61 C 0.1591(3) 0.44159(18) 0.42130(17)
N6 N 0.1956(2) 0.39833(15) 0.37043(14)
C62 C 0.1385(3) 0.53568(18) 0.39367(17)
C63 C 0.2118(3) 0.58537(19) 0.41677(18)
H44 H 0.2735 0.5582 0.4525
C64 C 0.1958(3) 0.6746(2) 0.38809(19)
H45 H 0.2443 0.7079 0.4056
C65 C 0.1088(3) 0.71423(19) 0.33403(18)
H46 H 0.1007 0.7750 0.3122
C66 C 0.0338(3) 0.66563(19) 0.31176(18)
H47 H -0.0265 0.6936 0.2752
C67 C 0.0448(3) 0.57625(18) 0.34187(16)
C68 C 0.2342(3) 0.43751(18) 0.28977(17)
C69 C 0.3271(3) 0.4963(2) 0.26628(19)
H48 H 0.3666 0.5098 0.3037
C70 C 0.3621(4) 0.5356(2) 0.1874(2)
H49 H 0.4238 0.5773 0.1716
C71 C 0.3101(4) 0.5157(2) 0.1319(2)
C72 C 0.2201(4) 0.4550(3) 0.1567(2)
H50 H 0.1846 0.4391 0.1193
C73 C 0.1800(3) 0.4165(2) 0.23481(19)
H51 H 0.1162 0.3762 0.2503
C74 C 0.3497(5) 0.5581(3) 0.0466(2)
H52 H 0.3095 0.6161 0.0278
H53 H 0.3234 0.5246 0.0176
H54 H 0.4420 0.5612 0.0391
C75 C 0.3399(5) 0.3471(3) 0.6634(4)
H55 H 0.3374 0.3852 0.6084
H56 H 0.2781 0.3714 0.6954
Cl1 Cl 0.49191(13) 0.34301(9) 0.69257(14)
Cl2 Cl 0.29702(11) 0.24405(8) 0.67361(6)
Cl3 Cl 0.47819(11) 0.25112(7) 0.94055(7)
Cl4 Cl 0.24751(15) 0.24249(14) 0.87715(12)
Cl5 Cl 0.2670(12) 0.3822(11) 0.9275(11)
C76 C 0.3139(5) 0.2735(3) 0.9441(3)
H57 H 0.2772 0.2390 0.9972
Cl6? Cl 0.2779(10) 0.2724(6) 0.8382(7)
Cl7? Cl 0.3004(12) 0.2933(13) 0.6715(8)
Cl8? Cl 0.4908(16) 0.3373(10) 0.7343(11)
C77? C 0.339(4) 0.329(3) 0.732(2)
H58? H 0.3001 0.3885 0.7171
Cl9? Cl 0.0760(3) 0.5556(2) 0.9330(3)
C78? C 0.163(2) 0.4536(10) 0.9446(17)
H59? H 0.0981 0.4285 0.9262
H60? H 0.1480 0.4289 1.0019
Cl10? Cl 0.289(2) 0.3806(19) 0.936(2)
loop_
_geom_bond_atom_site_label_1
_geom_bond_atom_site_label_2
_geom_bond_site_symmetry_1
_geom_bond_site_symmetry_2
C1 C2 1_555 1_555
C2 H1 1_555 1_555
C3 C2 1_555 1_555
H2 C3 1_555 1_555
C4 C3 1_555 1_555
N1 C1 1_555 1_555
H3 N1 1_555 1_555
C5 C4 1_555 1_555
C6 C5 1_555 1_555
H4 C6 1_555 1_555
C7 C6 1_555 1_555
H5 C7 1_555 1_555
C8 C7 1_555 1_555
H6 C8 1_555 1_555
C9 C8 1_555 1_555
H7 C9 1_555 1_555
C10 C5 1_555 1_555
C11 C10 1_555 1_555
C12 C11 1_555 1_555
H8 C12 1_555 1_555
C13 C12 1_555 1_555
H9 C13 1_555 1_555
C14 C13 1_555 1_555
N2 C11 1_555 1_555
H10 N2 1_555 1_555
C15 C14 1_555 1_555
C16 C15 1_555 1_555
H11 C16 1_555 1_555
C17 C16 1_555 1_555
H12 C17 1_555 1_555
C18 C17 1_555 1_555
H13 C18 1_555 1_555
C19 C18 1_555 1_555
H14 C19 1_555 1_555
C20 C15 1_555 1_555
C21 C20 1_555 1_555
C22 C21 1_555 1_555
H15 C22 1_555 1_555
C23 C22 1_555 1_555
H16 C23 1_555 1_555
C24 C23 1_555 1_555
N3 C21 1_555 1_555
C25 C24 1_555 1_555
C26 C25 1_555 1_555
H17 C26 1_555 1_555
C27 C26 1_555 1_555
H18 C27 1_555 1_555
C28 C27 1_555 1_555
H19 C28 1_555 1_555
C29 C28 1_555 1_555
H20 C29 1_555 1_555
C30 C1 1_555 1_555
C31 N3 1_555 1_555
C32 C31 1_555 1_555
H21 C32 1_555 1_555
C33 C32 1_555 1_555
H22 C33 1_555 1_555
C34 C33 1_555 1_555
C35 C34 1_555 1_555
H23 C35 1_555 1_555
C36 C31 1_555 1_555
H24 C36 1_555 1_555
C37 C34 1_555 1_555
H25 C37 1_555 1_555
H26 C37 1_555 1_555
H27 C37 1_555 1_555
C38 C39 1_555 1_555
C39 H28 1_555 1_555
C40 C39 1_555 1_555
H29 C40 1_555 1_555
C41 C40 1_555 1_555
N4 C38 1_555 1_555
H30 N4 1_555 1_555
C42 C41 1_555 1_555
C43 C42 1_555 1_555
H31 C43 1_555 1_555
C44 C43 1_555 1_555
H32 C44 1_555 1_555
C45 C44 1_555 1_555
H33 C45 1_555 1_555
C46 C45 1_555 1_555
H34 C46 1_555 1_555
C47 C42 1_555 1_555
C48 C47 1_555 1_555
C49 C48 1_555 1_555
H35 C49 1_555 1_555
C50 C49 1_555 1_555
H36 C50 1_555 1_555
C51 C50 1_555 1_555
N5 C48 1_555 1_555
H37 N5 1_555 1_555
C52 C51 1_555 1_555
C53 C52 1_555 1_555
H38 C53 1_555 1_555
C54 C53 1_555 1_555
H39 C54 1_555 1_555
C55 C54 1_555 1_555
H40 C55 1_555 1_555
C56 C55 1_555 1_555
H41 C56 1_555 1_555
C57 C52 1_555 1_555
C58 C57 1_555 1_555
C59 C58 1_555 1_555
H42 C59 1_555 1_555
C60 C59 1_555 1_555
H43 C60 1_555 1_555
C61 C60 1_555 1_555
N6 C58 1_555 1_555
C62 C61 1_555 1_555
C63 C62 1_555 1_555
H44 C63 1_555 1_555
C64 C63 1_555 1_555
H45 C64 1_555 1_555
C65 C64 1_555 1_555
H46 C65 1_555 1_555
C66 C65 1_555 1_555
H47 C66 1_555 1_555
C67 C38 1_555 1_555
C68 N6 1_555 1_555
C69 C68 1_555 1_555
H48 C69 1_555 1_555
C70 C69 1_555 1_555
H49 C70 1_555 1_555
C71 C70 1_555 1_555
C72 C71 1_555 1_555
H50 C72 1_555 1_555
C73 C68 1_555 1_555
H51 C73 1_555 1_555
C74 C71 1_555 1_555
H52 C74 1_555 1_555
H53 C74 1_555 1_555
H54 C74 1_555 1_555
C75 H55 1_555 1_555
H56 C75 1_555 1_555
Cl1 C75 1_555 1_555
Cl2 C75 1_555 1_555
Cl3 C76 1_555 1_555
Cl4 C76 1_555 1_555
Cl5 C76 1_555 1_555
C76 H57 1_555 1_555
C4 N1 1_555 1_555
C9 C10 1_555 1_555
C14 N2 1_555 1_555
C19 C20 1_555 1_555
C24 N3 1_555 1_555
C25 C30 1_555 1_555
C29 C30 1_555 1_555
C35 C36 1_555 1_555
C41 N4 1_555 1_555
C46 C47 1_555 1_555
C51 N5 1_555 1_555
C56 C57 1_555 1_555
C61 N6 1_555 1_555
C62 C67 1_555 1_555
C66 C67 1_555 1_555
C72 C73 1_555 1_555

#END
