
#######################################################################
#
#                 Cambridge Crystallographic Data Centre
#                                CCDC 
#
#######################################################################
#
# If this CIF has been generated from an entry in the Cambridge 
# Structural Database, then it will include bibliographic, chemical, 
# crystal, experimental, refinement or atomic coordinate data resulting 
# from the CCDC's data processing and validation procedures.
#
#######################################################################

data_ORUVEE
_chemical_formula_moiety         'C60 H42 N6'
_chemical_name_systematic        
61,62,63,64,65,66-hexaazatridecacyclo[56.2.1.1^8,11^.1^18,21^.1^28,31^.1^38,41^.1^48,51^.0^2,7^.0^12,17^.0^22,27^.0^32,37^.0^42,47^.0^52,57^]hexahexaconta-1(60),2,4,6,8,10,12,14,16,18,20,22,24,26,28,30,32,34,36,38,40,42,44,46,48,50,52,54,56,58-triacontaene
_symmetry_cell_setting           triclinic
_symmetry_space_group_name_H-M   'P -1'
_symmetry_Int_Tables_number      2
_space_group_name_Hall           '-P 1'
loop_
_symmetry_equiv_pos_site_id
_symmetry_equiv_pos_as_xyz
1 x,y,z
2 -x,-y,-z
_cell_length_a                   10.419(4)
_cell_length_b                   10.654(3)
_cell_length_c                   10.842(3)
_cell_angle_alpha                96.4618(4)
_cell_angle_beta                 112.441(6)
_cell_angle_gamma                101.170(11)
_cell_volume                     1067.97
_exptl_crystal_colour            colorless
_exptl_crystal_description       prism
_cell_formula_units_Z            1
_exptl_crystal_recrystallization_method 'Vapour deposition'
loop_
_atom_site_label
_atom_site_type_symbol
_atom_site_fract_x
_atom_site_fract_y
_atom_site_fract_z
C1 C 0.19171(12) 0.46533(10) 0.73855(10)
C2 C 0.08289(13) 0.51869(11) 0.66662(11)
H1 H 0.0884 0.5788 0.6093
C3 C -0.03799(13) 0.46926(11) 0.69209(11)
H2 H -0.1286 0.4886 0.6538
C4 C -0.00115(12) 0.38790(10) 0.78235(11)
C5 C -0.09164(13) 0.30374(10) 0.83354(11)
C6 C -0.06454(13) 0.32600(11) 0.97190(11)
H3 H 0.0190 0.3901 1.0350
C7 C -0.15694(14) 0.25655(11) 1.01870(12)
H4 H -0.1368 0.2730 1.1130
C8 C -0.27942(14) 0.16263(11) 0.92697(12)
H5 H -0.3457 0.1175 0.9578
C9 C -0.30467(13) 0.13492(11) 0.79067(12)
H6 H -0.3869 0.0685 0.7291
C10 C -0.21143(13) 0.20275(10) 0.74194(11)
C11 C -0.23711(13) 0.16346(10) 0.59790(11)
C12 C -0.36099(13) 0.11989(11) 0.48015(11)
H7 H -0.4561 0.1117 0.4731
C13 C -0.32175(13) 0.08934(11) 0.37130(11)
H8 H -0.3858 0.0571 0.2781
C14 C -0.17437(12) 0.11459(10) 0.42415(11)
C15 C -0.07087(12) 0.11283(10) 0.36292(11)
C16 C 0.05972(13) 0.20989(11) 0.42147(11)
H9 H 0.0787 0.2725 0.5001
C17 C 0.16128(13) 0.21713(11) 0.36835(12)
H10 H 0.2496 0.2827 0.4112
C18 C 0.13356(14) 0.12796(11) 0.25172(12)
H11 H 0.2018 0.1334 0.2130
C19 C 0.00589(14) 0.03125(11) 0.19251(11)
H12 H -0.0124 -0.0294 0.1128
C20 C -0.09688(13) 0.02017(10) 0.24646(11)
C21 C -0.22396(13) -0.09265(10) 0.18152(11)
C22 C 0.30739(13) 0.14731(11) 0.95447(11)
H13 H 0.3014 0.1121 1.0294
N1 N 0.26849(10) 0.17582(9) 0.74556(9)
H14 H 0.2329 0.1629 0.6560
C23 C 0.37660(13) 0.28196(10) 0.83284(12)
C24 C 0.42478(13) 0.39820(11) 0.78235(11)
C25 C 0.56135(14) 0.42724(12) 0.78302(13)
H15 H 0.6240 0.3736 0.8183
C26 C 0.60723(15) 0.53296(13) 0.73314(14)
H16 H 0.7011 0.5525 0.7354
C27 C 0.51476(14) 0.61016(12) 0.67979(13)
H17 H 0.5436 0.6802 0.6411
C28 C 0.38168(13) 0.58571(11) 0.68271(12)
H18 H 0.3206 0.6408 0.6479
C29 C 0.33383(13) 0.48115(10) 0.73602(11)
N2 N 0.13834(10) 0.38661(9) 0.81062(9)
H19 H 0.1872 0.3421 0.8666
N3 N -0.12530(10) 0.15972(9) 0.56207(9)
H20 H -0.0341 0.1831 0.6196
C30 C 0.40365(13) 0.26503(11) 0.96291(12)
H21 H 0.4745 0.3222 1.0444
C1A C -0.19171(12) -0.46533(10) 0.26145(10)
C2A C -0.08289(13) -0.51869(11) 0.33338(11)
H1A H -0.0884 -0.5788 0.3907
C3A C 0.03799(13) -0.46926(11) 0.30791(11)
H2A H 0.1286 -0.4886 0.3462
C4A C 0.00115(12) -0.38790(10) 0.21765(11)
C5A C 0.09164(13) -0.30374(10) 0.16646(11)
C6A C 0.06454(13) -0.32600(11) 0.02810(11)
H3A H -0.0190 -0.3901 -0.0350
C7A C 0.15694(14) -0.25655(11) -0.01870(12)
H4A H 0.1368 -0.2730 -0.1130
C8A C 0.27942(14) -0.16263(11) 0.07303(12)
H5A H 0.3457 -0.1175 0.0422
C9A C 0.30467(13) -0.13492(11) 0.20933(12)
H6A H 0.3869 -0.0685 0.2709
C10A C 0.21143(13) -0.20275(10) 0.25806(11)
C11A C 0.23711(13) -0.16346(10) 0.40210(11)
C12A C 0.36099(13) -0.11989(11) 0.51985(11)
H7A H 0.4561 -0.1117 0.5269
C13A C 0.32175(13) -0.08934(11) 0.62870(11)
H8A H 0.3858 -0.0571 0.7219
C14A C 0.17437(12) -0.11459(10) 0.57585(11)
C15A C 0.07087(12) -0.11283(10) 0.63708(11)
C16A C -0.05972(13) -0.20989(11) 0.57853(11)
H9A H -0.0787 -0.2725 0.4999
C17A C -0.16128(13) -0.21713(11) 0.63165(12)
H10A H -0.2496 -0.2827 0.5888
C18A C -0.13356(14) -0.12796(11) 0.74828(12)
H11A H -0.2018 -0.1334 0.7870
C19A C -0.00589(14) -0.03125(11) 0.80749(11)
H12A H 0.0124 0.0294 0.8872
C20A C 0.09688(13) -0.02017(10) 0.75354(11)
C21A C 0.22396(13) 0.09265(10) 0.81848(11)
C22A C -0.30739(13) -0.14731(11) 0.04553(11)
H13A H -0.3014 -0.1121 -0.0294
N1A N -0.26849(10) -0.17582(9) 0.25444(9)
H14A H -0.2329 -0.1629 0.3440
C23A C -0.37660(13) -0.28196(10) 0.16716(12)
C24A C -0.42478(13) -0.39820(11) 0.21765(11)
C25A C -0.56135(14) -0.42724(12) 0.21698(13)
H15A H -0.6240 -0.3736 0.1817
C26A C -0.60723(15) -0.53296(13) 0.26686(14)
H16A H -0.7011 -0.5525 0.2646
C27A C -0.51476(14) -0.61016(12) 0.32021(13)
H17A H -0.5436 -0.6802 0.3589
C28A C -0.38168(13) -0.58571(11) 0.31729(12)
H18A H -0.3206 -0.6408 0.3521
C29A C -0.33383(13) -0.48115(10) 0.26398(11)
N2A N -0.13834(10) -0.38661(9) 0.18938(9)
H19A H -0.1872 -0.3421 0.1334
N3A N 0.12530(10) -0.15972(9) 0.43793(9)
H20A H 0.0341 -0.1831 0.3804
C30A C -0.40365(13) -0.26503(11) 0.03709(12)
H21A H -0.4745 -0.3222 -0.0444
loop_
_geom_bond_atom_site_label_1
_geom_bond_atom_site_label_2
_geom_bond_site_symmetry_1
_geom_bond_site_symmetry_2
C1 C2 1_555 1_555
C2 H1 1_555 1_555
C3 C2 1_555 1_555
H2 C3 1_555 1_555
C4 C3 1_555 1_555
C5 C4 1_555 1_555
C6 C5 1_555 1_555
H3 C6 1_555 1_555
C7 C6 1_555 1_555
H4 C7 1_555 1_555
C8 C7 1_555 1_555
H5 C8 1_555 1_555
C9 C8 1_555 1_555
H6 C9 1_555 1_555
C10 C5 1_555 1_555
C11 C10 1_555 1_555
C12 C11 1_555 1_555
H7 C12 1_555 1_555
C13 C12 1_555 1_555
H8 C13 1_555 1_555
C14 C13 1_555 1_555
C15 C14 1_555 1_555
C16 C15 1_555 1_555
H9 C16 1_555 1_555
C17 C16 1_555 1_555
H10 C17 1_555 1_555
C18 C17 1_555 1_555
H11 C18 1_555 1_555
C19 C18 1_555 1_555
H12 C19 1_555 1_555
C20 C15 1_555 1_555
C21 C20 1_555 1_555
C22 H13 1_555 1_555
N1 H14 1_555 1_555
C23 N1 1_555 1_555
C24 C23 1_555 1_555
C25 C24 1_555 1_555
H15 C25 1_555 1_555
C26 C25 1_555 1_555
H16 C26 1_555 1_555
C27 C26 1_555 1_555
H17 C27 1_555 1_555
C28 C27 1_555 1_555
H18 C28 1_555 1_555
C29 C1 1_555 1_555
N2 C1 1_555 1_555
H19 N2 1_555 1_555
N3 C11 1_555 1_555
H20 N3 1_555 1_555
C30 C22 1_555 1_555
H21 C30 1_555 1_555
C1A C2A 1_555 1_555
C2A H1A 1_555 1_555
C3A C2A 1_555 1_555
H2A C3A 1_555 1_555
C4A C3A 1_555 1_555
C5A C4A 1_555 1_555
C6A C5A 1_555 1_555
H3A C6A 1_555 1_555
C7A C6A 1_555 1_555
H4A C7A 1_555 1_555
C8A C7A 1_555 1_555
H5A C8A 1_555 1_555
C9A C8A 1_555 1_555
H6A C9A 1_555 1_555
C10A C5A 1_555 1_555
C11A C10A 1_555 1_555
C12A C11A 1_555 1_555
H7A C12A 1_555 1_555
C13A C12A 1_555 1_555
H8A C13A 1_555 1_555
C14A C13A 1_555 1_555
C15A C14A 1_555 1_555
C16A C15A 1_555 1_555
H9A C16A 1_555 1_555
C17A C16A 1_555 1_555
H10A C17A 1_555 1_555
C18A C17A 1_555 1_555
H11A C18A 1_555 1_555
C19A C18A 1_555 1_555
H12A C19A 1_555 1_555
C20A C15A 1_555 1_555
C21A C22 1_555 1_555
C22A C21 1_555 1_555
H13A C22A 1_555 1_555
N1A C21 1_555 1_555
H14A N1A 1_555 1_555
C23A N1A 1_555 1_555
C24A C23A 1_555 1_555
C25A C24A 1_555 1_555
H15A C25A 1_555 1_555
C26A C25A 1_555 1_555
H16A C26A 1_555 1_555
C27A C26A 1_555 1_555
H17A C27A 1_555 1_555
C28A C27A 1_555 1_555
H18A C28A 1_555 1_555
C29A C1A 1_555 1_555
N2A C1A 1_555 1_555
H19A N2A 1_555 1_555
N3A C11A 1_555 1_555
H20A N3A 1_555 1_555
C30A C22A 1_555 1_555
H21A C30A 1_555 1_555
C4 N2 1_555 1_555
C9 C10 1_555 1_555
C14 N3 1_555 1_555
C19 C20 1_555 1_555
N1 C21A 1_555 1_555
C23 C30 1_555 1_555
C24 C29 1_555 1_555
C28 C29 1_555 1_555
C4A N2A 1_555 1_555
C9A C10A 1_555 1_555
C14A N3A 1_555 1_555
C19A C20A 1_555 1_555
C20A C21A 1_555 1_555
C23A C30A 1_555 1_555
C24A C29A 1_555 1_555
C28A C29A 1_555 1_555

#END
