
#######################################################################
#
#                 Cambridge Crystallographic Data Centre
#                                CCDC 
#
#######################################################################
#
# If this CIF has been generated from an entry in the Cambridge 
# Structural Database, then it will include bibliographic, chemical, 
# crystal, experimental, refinement or atomic coordinate data resulting 
# from the CCDC's data processing and validation procedures.
#
#######################################################################

data_ORUWUV
_chemical_formula_moiety         'C17 H14 O2'
_chemical_name_systematic        5-(4-methylphenyl)-4-phenylfuran-2(5H)-one
_symmetry_cell_setting           monoclinic
_symmetry_space_group_name_H-M   'P 21/c'
_symmetry_Int_Tables_number      14
_space_group_name_Hall           '-P 2ybc'
loop_
_symmetry_equiv_pos_site_id
_symmetry_equiv_pos_as_xyz
1 x,y,z
2 -x,1/2+y,1/2-z
3 -x,-y,-z
4 x,1/2-y,1/2+z
_cell_length_a                   13.6594(14)
_cell_length_b                   5.9624(5)
_cell_length_c                   17.4715(18)
_cell_angle_alpha                90
_cell_angle_beta                 106.688(12)
_cell_angle_gamma                90
_cell_volume                     1363
_cell_formula_units_Z            4
loop_
_atom_site_label
_atom_site_type_symbol
_atom_site_fract_x
_atom_site_fract_y
_atom_site_fract_z
O1 O 0.31607(15) 0.8038(4) 0.34602(12)
O2 O 0.40814(17) 0.4873(4) 0.37174(13)
C1 C 0.3819(2) 0.6611(6) 0.39627(19)
C2 C 0.4068(2) 0.7520(5) 0.47643(18)
H1 H 0.4518 0.6870 0.5212
C3 C 0.3560(2) 0.9416(5) 0.47666(17)
C4 C 0.3566(2) 1.0841(5) 0.54514(16)
C5 C 0.4083(2) 1.0165(6) 0.62234(18)
H2 H 0.4440 0.8817 0.6301
C6 C 0.4074(2) 1.1456(7) 0.6876(2)
H3 H 0.4414 1.0967 0.7389
C7 C 0.3562(3) 1.3465(7) 0.6767(2)
H4 H 0.3556 1.4339 0.7207
C8 C 0.3062(3) 1.4184(6) 0.6013(2)
H5 H 0.2723 1.5556 0.5940
C9 C 0.3057(2) 1.2884(5) 0.5359(2)
H6 H 0.2707 1.3381 0.4849
C10 C 0.2943(2) 0.9925(5) 0.39170(17)
H7 H 0.3199 1.1309 0.3740
C11 C 0.1804(2) 1.0124(5) 0.37827(17)
C12 C 0.1267(2) 0.8564(5) 0.4081(2)
H8 H 0.1606 0.7325 0.4357
C13 C 0.0231(3) 0.8816(7) 0.3974(2)
H9 H -0.0116 0.7739 0.4182
C14 C -0.0299(3) 1.0616(7) 0.3570(2)
C15 C 0.0229(3) 1.2152(7) 0.3264(2)
H10 H -0.0117 1.3374 0.2980
C16 C 0.1277(3) 1.1926(6) 0.3367(2)
H11 H 0.1620 1.2996 0.3155
C17 C -0.1434(3) 1.0903(8) 0.3470(3)
H12 H -0.1758 0.9458 0.3408
H13 H -0.1734 1.1799 0.3006
H14 H -0.1528 1.1632 0.3934
loop_
_geom_bond_atom_site_label_1
_geom_bond_atom_site_label_2
_geom_bond_site_symmetry_1
_geom_bond_site_symmetry_2
O1 C1 1_555 1_555
O2 C1 1_555 1_555
C1 C2 1_555 1_555
C2 H1 1_555 1_555
C3 C2 1_555 1_555
C4 C3 1_555 1_555
C5 C4 1_555 1_555
H2 C5 1_555 1_555
C6 C5 1_555 1_555
H3 C6 1_555 1_555
C7 C6 1_555 1_555
H4 C7 1_555 1_555
C8 C7 1_555 1_555
H5 C8 1_555 1_555
C9 C4 1_555 1_555
H6 C9 1_555 1_555
C10 O1 1_555 1_555
H7 C10 1_555 1_555
C11 C10 1_555 1_555
C12 C11 1_555 1_555
H8 C12 1_555 1_555
C13 C12 1_555 1_555
H9 C13 1_555 1_555
C14 C13 1_555 1_555
C15 C14 1_555 1_555
H10 C15 1_555 1_555
C16 C11 1_555 1_555
H11 C16 1_555 1_555
C17 C14 1_555 1_555
H12 C17 1_555 1_555
H13 C17 1_555 1_555
H14 C17 1_555 1_555
C3 C10 1_555 1_555
C8 C9 1_555 1_555
C15 C16 1_555 1_555

#END
