
#######################################################################
#
#                 Cambridge Crystallographic Data Centre
#                                CCDC 
#
#######################################################################
#
# If this CIF has been generated from an entry in the Cambridge 
# Structural Database, then it will include bibliographic, chemical, 
# crystal, experimental, refinement or atomic coordinate data resulting 
# from the CCDC's data processing and validation procedures.
#
#######################################################################

data_OSARUX
_chemical_formula_moiety         'C27 H26 N4 O3'
_chemical_name_systematic        
'benzyl (2-(2-(benzoylamino)-1,2,3,4-tetrahydroisoquinolin-1-yl)-1-cyanoethyl)carbamate'
_symmetry_cell_setting           monoclinic
_symmetry_space_group_name_H-M   'P 21'
_symmetry_Int_Tables_number      4
_space_group_name_Hall           'P 2yb'
loop_
_symmetry_equiv_pos_site_id
_symmetry_equiv_pos_as_xyz
1 x,y,z
2 -x,1/2+y,-z
_cell_length_a                   9.6224(8)
_cell_length_b                   20.0124(19)
_cell_length_c                   13.094(2)
_cell_angle_alpha                90
_cell_angle_beta                 102.589(11)
_cell_angle_gamma                90
_cell_volume                     2460.86
_exptl_crystal_colour            colorless
_exptl_crystal_description       prism
_cell_formula_units_Z            4
loop_
_atom_site_label
_atom_site_type_symbol
_atom_site_fract_x
_atom_site_fract_y
_atom_site_fract_z
O1 O 0.51251(11) 0.25600(6) 0.59538(9)
O2 O 0.49104(13) 0.42028(6) 0.29085(9)
O3 O 0.62172(12) 0.41383(6) 0.45848(9)
N1 N 0.29163(14) 0.34216(6) 0.56468(10)
N2 N 0.29322(14) 0.28177(7) 0.62168(10)
H1 H 0.224(2) 0.2736(10) 0.6500(15)
N3 N 0.40972(19) 0.20809(8) 0.22933(14)
N4 N 0.45743(14) 0.33670(7) 0.40240(10)
H2 H 0.476(2) 0.3246(10) 0.4630(16)
C1 C 0.17951(16) 0.34076(8) 0.46701(12)
H3 H 0.0881 0.3273 0.4856
C2 C 0.15885(16) 0.41056(8) 0.41765(12)
C3 C 0.07157(18) 0.41775(9) 0.31717(13)
H4 H 0.0267 0.3795 0.2814
C4 C 0.0500(2) 0.48038(10) 0.26938(15)
H5 H -0.0092 0.4845 0.2014
C5 C 0.1147(2) 0.53655(9) 0.32101(15)
H6 H 0.1012 0.5790 0.2879
C6 C 0.1995(2) 0.53063(9) 0.42157(15)
H7 H 0.2422 0.5693 0.4573
C7 C 0.22227(18) 0.46772(8) 0.47032(13)
C8 C 0.3123(2) 0.46259(9) 0.58025(13)
H8 H 0.2943 0.5019 0.6215
H9 H 0.4144 0.4627 0.5776
C9 C 0.27813(18) 0.39890(8) 0.63351(12)
H10 H 0.3451 0.3935 0.7021
H11 H 0.1801 0.4011 0.6454
C10 C 0.41271(16) 0.24465(8) 0.63935(12)
C11 C 0.42043(17) 0.18759(9) 0.71499(13)
C12 C 0.3522(2) 0.18964(12) 0.79909(17)
H12 H 0.2947 0.2268 0.8079
C13 C 0.3695(2) 0.13655(16) 0.8698(2)
H13 H 0.3245 0.1380 0.9275
C14 C 0.4522(2) 0.08158(12) 0.8564(2)
H14 H 0.4607 0.0450 0.9036
C15 C 0.5225(2) 0.07984(10) 0.77404(17)
H15 H 0.5803 0.0427 0.7657
C16 C 0.5071(2) 0.13332(9) 0.70383(14)
H16 H 0.5559 0.1327 0.6481
C17 C 0.21692(16) 0.28740(8) 0.39162(12)
H17 H 0.2510 0.2467 0.4323
H18 H 0.1292 0.2754 0.3399
C18 C 0.33127(15) 0.30987(8) 0.33236(11)
H19 H 0.2895 0.3455 0.2814
C19 C 0.37285(18) 0.25219(8) 0.27266(13)
C20 C 0.51953(16) 0.39281(8) 0.37578(12)
C21 C 0.7012(2) 0.47313(10) 0.43864(14)
H20 H 0.6360 0.5066 0.3979
H21 H 0.7737 0.4609 0.3987
C22 C 0.77135(18) 0.50093(8) 0.54380(13)
C23 C 0.91107(19) 0.48264(8) 0.58926(13)
H22 H 0.9615 0.4540 0.5521
C24 C 0.9779(2) 0.50557(9) 0.68816(14)
H23 H 1.0731 0.4929 0.7183
C25 C 0.9040(2) 0.54709(9) 0.74209(14)
H24 H 0.9490 0.5623 0.8100
C26 C 0.7655(2) 0.56699(9) 0.69901(16)
H25 H 0.7163 0.5960 0.7364
C27 C 0.6989(2) 0.54343(9) 0.59889(17)
H26 H 0.6040 0.5566 0.5686
O4 O 1.04571(11) 0.26832(6) 0.71949(8)
O5 O 1.12248(13) 0.30887(6) 1.11484(8)
O6 O 1.19104(12) 0.35681(6) 0.97552(8)
N5 N 0.81756(13) 0.31015(7) 0.79312(9)
N6 N 0.80491(14) 0.27658(7) 0.69661(10)
H27 H 0.723(2) 0.2682(10) 0.6590(16)
N7 N 1.09241(17) 0.09491(8) 0.99962(14)
N8 N 1.06456(14) 0.26326(7) 0.95023(10)
H28 H 1.054(2) 0.2740(10) 0.8860(17)
C28 C 0.74565(16) 0.27139(8) 0.86324(12)
H29 H 0.6480 0.2595 0.8231
C29 C 0.73049(16) 0.31374(9) 0.95749(12)
C30 C 0.66923(19) 0.28460(10) 1.03494(14)
H30 H 0.6381 0.2394 1.0281
C31 C 0.6540(2) 0.32205(12) 1.12209(15)
H31 H 0.6122 0.3022 1.1740
C32 C 0.6994(2) 0.38784(11) 1.13321(15)
H32 H 0.6910 0.4126 1.1934
C33 C 0.7571(2) 0.41729(10) 1.05633(13)
H33 H 0.7873 0.4626 1.0637
C34 C 0.77156(17) 0.38103(8) 0.96744(12)
C35 C 0.82188(17) 0.41615(8) 0.88002(12)
H34 H 0.9273 0.4170 0.8953
H35 H 0.7872 0.4629 0.8744
C36 C 0.76560(17) 0.37960(8) 0.77721(13)
H36 H 0.6602 0.3805 0.7592
H37 H 0.8014 0.4009 0.7197
C37 C 0.92404(16) 0.25954(8) 0.66491(11)
C38 C 0.90287(16) 0.22768(8) 0.55919(12)
C39 C 1.00360(17) 0.18107(8) 0.54260(12)
H38 H 1.0805 0.1692 0.5984
C40 C 0.99161(19) 0.15206(9) 0.44464(14)
H39 H 1.0612 0.1209 0.4335
C41 C 0.8791(2) 0.16834(11) 0.36341(14)
H40 H 0.8712 0.1483 0.2966
C42 C 0.7775(2) 0.21398(13) 0.37953(14)
H41 H 0.6994 0.2246 0.3239
C43 C 0.78942(19) 0.24459(11) 0.47738(14)
H42 H 0.7208 0.2765 0.4878
C44 C 0.82874(17) 0.20573(8) 0.89473(13)
H43 H 0.7662 0.1742 0.9218
H44 H 0.8513 0.1855 0.8313
C45 C 0.96849(16) 0.21379(8) 0.97786(12)
H45 H 0.9444 0.2273 1.0455
C46 C 1.04032(17) 0.14690(9) 0.99240(13)
C47 C 1.12561(16) 0.30961(8) 1.02246(12)
C48 C 1.26276(18) 0.40916(9) 1.04464(12)
H46 H 1.3486 0.3911 1.0925
H47 H 1.1984 0.4275 1.0872
C49 C 1.30381(17) 0.46300(8) 0.97609(12)
C50 C 1.41363(18) 0.45235(8) 0.92321(13)
H48 H 1.4610 0.4104 0.9288
C51 C 1.45376(19) 0.50289(9) 0.86250(14)
H49 H 1.5283 0.4952 0.8269
C52 C 1.3853(2) 0.56489(9) 0.85346(14)
H50 H 1.4137 0.5995 0.8127
C53 C 1.2751(2) 0.57530(9) 0.90496(14)
H51 H 1.2274 0.6171 0.8990
C54 C 1.23444(18) 0.52458(9) 0.96533(13)
H52 H 1.1584 0.5321 0.9996
loop_
_geom_bond_atom_site_label_1
_geom_bond_atom_site_label_2
_geom_bond_site_symmetry_1
_geom_bond_site_symmetry_2
O1 C10 1_555 1_555
O2 C20 1_555 1_555
O3 C20 1_555 1_555
N1 N2 1_555 1_555
N2 H1 1_555 1_555
N3 C19 1_555 1_555
N4 H2 1_555 1_555
C1 N1 1_555 1_555
H3 C1 1_555 1_555
C2 C1 1_555 1_555
C3 C2 1_555 1_555
H4 C3 1_555 1_555
C4 C3 1_555 1_555
H5 C4 1_555 1_555
C5 C4 1_555 1_555
H6 C5 1_555 1_555
C6 C5 1_555 1_555
H7 C6 1_555 1_555
C7 C2 1_555 1_555
C8 C7 1_555 1_555
H8 C8 1_555 1_555
H9 C8 1_555 1_555
C9 N1 1_555 1_555
H10 C9 1_555 1_555
H11 C9 1_555 1_555
C10 N2 1_555 1_555
C11 C10 1_555 1_555
C12 C11 1_555 1_555
H12 C12 1_555 1_555
C13 C12 1_555 1_555
H13 C13 1_555 1_555
C14 C13 1_555 1_555
H14 C14 1_555 1_555
C15 C14 1_555 1_555
H15 C15 1_555 1_555
C16 C11 1_555 1_555
H16 C16 1_555 1_555
C17 C1 1_555 1_555
H17 C17 1_555 1_555
H18 C17 1_555 1_555
C18 N4 1_555 1_555
H19 C18 1_555 1_555
C19 C18 1_555 1_555
C20 N4 1_555 1_555
C21 O3 1_555 1_555
H20 C21 1_555 1_555
H21 C21 1_555 1_555
C22 C21 1_555 1_555
C23 C22 1_555 1_555
H22 C23 1_555 1_555
C24 C23 1_555 1_555
H23 C24 1_555 1_555
C25 C24 1_555 1_555
H24 C25 1_555 1_555
C26 C25 1_555 1_555
H25 C26 1_555 1_555
C27 C22 1_555 1_555
H26 C27 1_555 1_555
O4 C37 1_555 1_555
O5 C47 1_555 1_555
O6 C47 1_555 1_555
N5 N6 1_555 1_555
N6 H27 1_555 1_555
N7 C46 1_555 1_555
N8 H28 1_555 1_555
C28 N5 1_555 1_555
H29 C28 1_555 1_555
C29 C28 1_555 1_555
C30 C29 1_555 1_555
H30 C30 1_555 1_555
C31 C30 1_555 1_555
H31 C31 1_555 1_555
C32 C31 1_555 1_555
H32 C32 1_555 1_555
C33 C32 1_555 1_555
H33 C33 1_555 1_555
C34 C29 1_555 1_555
C35 C34 1_555 1_555
H34 C35 1_555 1_555
H35 C35 1_555 1_555
C36 N5 1_555 1_555
H36 C36 1_555 1_555
H37 C36 1_555 1_555
C37 N6 1_555 1_555
C38 C37 1_555 1_555
C39 C38 1_555 1_555
H38 C39 1_555 1_555
C40 C39 1_555 1_555
H39 C40 1_555 1_555
C41 C40 1_555 1_555
H40 C41 1_555 1_555
C42 C41 1_555 1_555
H41 C42 1_555 1_555
C43 C38 1_555 1_555
H42 C43 1_555 1_555
C44 C28 1_555 1_555
H43 C44 1_555 1_555
H44 C44 1_555 1_555
C45 N8 1_555 1_555
H45 C45 1_555 1_555
C46 C45 1_555 1_555
C47 N8 1_555 1_555
C48 O6 1_555 1_555
H46 C48 1_555 1_555
H47 C48 1_555 1_555
C49 C48 1_555 1_555
C50 C49 1_555 1_555
H48 C50 1_555 1_555
C51 C50 1_555 1_555
H49 C51 1_555 1_555
C52 C51 1_555 1_555
H50 C52 1_555 1_555
C53 C52 1_555 1_555
H51 C53 1_555 1_555
C54 C49 1_555 1_555
H52 C54 1_555 1_555
C6 C7 1_555 1_555
C8 C9 1_555 1_555
C15 C16 1_555 1_555
C17 C18 1_555 1_555
C26 C27 1_555 1_555
C33 C34 1_555 1_555
C35 C36 1_555 1_555
C42 C43 1_555 1_555
C44 C45 1_555 1_555
C53 C54 1_555 1_555

#END
