
#######################################################################
#
#                 Cambridge Crystallographic Data Centre
#                                CCDC 
#
#######################################################################
#
# If this CIF has been generated from an entry in the Cambridge 
# Structural Database, then it will include bibliographic, chemical, 
# crystal, experimental, refinement or atomic coordinate data resulting 
# from the CCDC's data processing and validation procedures.
#
#######################################################################

data_OSASEI
_chemical_formula_moiety         'C9 H15 N3 2+,2(N1 O3 1-)'
_chemical_name_systematic        
'4-(pyridin-1-ium-4-yl)piperazin-1-ium dinitrate'
_symmetry_cell_setting           monoclinic
_symmetry_space_group_name_H-M   'P 21/n'
_symmetry_Int_Tables_number      14
_space_group_name_Hall           '-P 2yn'
loop_
_symmetry_equiv_pos_site_id
_symmetry_equiv_pos_as_xyz
1 x,y,z
2 1/2-x,1/2+y,1/2-z
3 -x,-y,-z
4 1/2+x,1/2-y,1/2+z
_cell_length_a                   10.3877(11)
_cell_length_b                   6.7075(7)
_cell_length_c                   17.9097(16)
_cell_angle_alpha                90
_cell_angle_beta                 92.577(3)
_cell_angle_gamma                90
_cell_volume                     1246.61
_exptl_crystal_colour            colorless
_exptl_crystal_description       lamellar
_cell_formula_units_Z            4
loop_
_atom_site_label
_atom_site_type_symbol
_atom_site_fract_x
_atom_site_fract_y
_atom_site_fract_z
N1 N -0.3367(3) 0.3059(6) 0.06836(19)
H1 H -0.364(4) 0.175(8) 0.062(3)
H2 H -0.399(3) 0.385(6) 0.052(3)
C1 C -0.2238(4) 0.3303(7) 0.0211(2)
H3 H -0.1969 0.4688 0.0216
H4 H -0.2477 0.2939 -0.0300
C2 C -0.1135(4) 0.2009(7) 0.0497(2)
H5 H -0.1364 0.0619 0.0421
H6 H -0.0385 0.2283 0.0210
N2 N -0.0808(3) 0.2345(5) 0.12898(16)
C3 C -0.1931(4) 0.2200(7) 0.1761(2)
H7 H -0.1677 0.2577 0.2269
H8 H -0.2229 0.0830 0.1767
C4 C -0.3013(4) 0.3531(7) 0.1475(2)
H9 H -0.3757 0.3345 0.1776
H10 H -0.2747 0.4914 0.1516
C5 C 0.0399(4) 0.2082(5) 0.15808(19)
C6 C 0.1490(4) 0.1966(6) 0.1131(2)
H11 H 0.1379 0.2018 0.0613
C7 C 0.2686(4) 0.1781(7) 0.1452(2)
H12 H 0.3387 0.1716 0.1147
N3 N 0.2894(4) 0.1686(6) 0.2195(2)
H13 H 0.369(5) 0.160(7) 0.241(3)
C8 C 0.1888(4) 0.1761(7) 0.2641(2)
H14 H 0.2038 0.1683 0.3156
C9 C 0.0668(4) 0.1946(6) 0.2360(2)
H15 H -0.0007 0.1985 0.2684
N4 N -0.0319(4) 0.7073(5) 0.1477(2)
O1 O -0.1260(4) 0.7470(5) 0.1060(2)
O2 O 0.0761(3) 0.6922(7) 0.12285(18)
O3 O -0.0438(3) 0.6769(6) 0.21620(17)
N5 N -0.0546(3) 0.3134(6) 0.42938(19)
O4 O -0.0497(3) 0.4368(5) 0.37852(17)
O5 O 0.0033(3) 0.1512(5) 0.42421(19)
O6 O -0.1148(3) 0.3540(7) 0.48539(18)
loop_
_geom_bond_atom_site_label_1
_geom_bond_atom_site_label_2
_geom_bond_site_symmetry_1
_geom_bond_site_symmetry_2
N1 H1 1_555 1_555
H2 N1 1_555 1_555
C1 N1 1_555 1_555
H3 C1 1_555 1_555
H4 C1 1_555 1_555
C2 C1 1_555 1_555
H5 C2 1_555 1_555
H6 C2 1_555 1_555
N2 C2 1_555 1_555
C3 N2 1_555 1_555
H7 C3 1_555 1_555
H8 C3 1_555 1_555
C4 N1 1_555 1_555
H9 C4 1_555 1_555
H10 C4 1_555 1_555
C5 N2 1_555 1_555
C6 C5 1_555 1_555
H11 C6 1_555 1_555
C7 C6 1_555 1_555
H12 C7 1_555 1_555
N3 C7 1_555 1_555
H13 N3 1_555 1_555
C8 N3 1_555 1_555
H14 C8 1_555 1_555
C9 C5 1_555 1_555
H15 C9 1_555 1_555
N4 O1 1_555 1_555
O2 N4 1_555 1_555
O3 N4 1_555 1_555
N5 O4 1_555 1_555
O5 N5 1_555 1_555
O6 N5 1_555 1_555
C3 C4 1_555 1_555
C8 C9 1_555 1_555

#END
