
#######################################################################
#
#                 Cambridge Crystallographic Data Centre
#                                CCDC 
#
#######################################################################
#
# If this CIF has been generated from an entry in the Cambridge 
# Structural Database, then it will include bibliographic, chemical, 
# crystal, experimental, refinement or atomic coordinate data resulting 
# from the CCDC's data processing and validation procedures.
#
#######################################################################

data_OSEFOJ
_chemical_formula_moiety         'C23 H22 S2'
_chemical_name_systematic        
1a-t-butyl-1-phenyl-3,4-dihydro-1aH-2,5-dithiabenzo[a]cyclobuta[cd]azulene
_symmetry_cell_setting           monoclinic
_symmetry_space_group_name_H-M   'P 21'
_symmetry_Int_Tables_number      4
_space_group_name_Hall           'P 2yb'
loop_
_symmetry_equiv_pos_site_id
_symmetry_equiv_pos_as_xyz
1 x,y,z
2 -x,1/2+y,-z
_cell_length_a                   10.023(4)
_cell_length_b                   7.569(3)
_cell_length_c                   13.421(5)
_cell_angle_alpha                90
_cell_angle_beta                 108.949(7)
_cell_angle_gamma                90
_cell_volume                     962.995
_exptl_crystal_colour            red
_exptl_crystal_description       prismatic
_cell_formula_units_Z            2
loop_
_atom_site_label
_atom_site_type_symbol
_atom_site_fract_x
_atom_site_fract_y
_atom_site_fract_z
S1 S 0.3915(2) 0.0312(3) -0.00733(12)
S2 S 0.39573(18) 0.0156(2) 0.29820(11)
C1 C 0.1889(5) 0.4665(8) 0.0443(4)
C2 C 0.0862(6) 0.5939(10) 0.0008(5)
H1 H 0.0551 0.6686 0.0437
C3 C 0.0314(6) 0.6067(12) -0.1082(5)
H2 H -0.0352 0.6934 -0.1384
C4 C 0.0743(7) 0.4916(11) -0.1734(5)
H3 H 0.0349 0.5023 -0.2462
C5 C 0.1737(6) 0.3629(11) -0.1320(5)
H4 H 0.1999 0.2850 -0.1759
C6 C 0.2352(6) 0.3515(8) -0.0214(4)
C7 C 0.3443(6) 0.2270(8) 0.0427(4)
C8 C 0.3730(5) 0.2804(8) 0.1434(4)
C9 C 0.2726(6) 0.4136(8) 0.1520(4)
C10 C 0.2960(6) 0.3772(8) 0.2568(4)
C11 C 0.4219(6) 0.2479(9) 0.2637(4)
C12 C 0.3270(7) -0.0950(9) 0.1718(5)
H5 H 0.2976 -0.2130 0.1838
H6 H 0.2436 -0.0320 0.1295
C13 C 0.4296(8) -0.1110(9) 0.1073(5)
H7 H 0.4290 -0.2326 0.0843
H8 H 0.5242 -0.0850 0.1535
C14 C 0.2173(6) 0.4196(9) 0.3290(4)
C15 C 0.1119(6) 0.5432(12) 0.3014(5)
H9 H 0.0914 0.6011 0.2370
C16 C 0.0347(7) 0.5838(13) 0.3680(6)
H10 H -0.0345 0.6708 0.3490
C17 C 0.0612(7) 0.4949(12) 0.4620(5)
H11 H 0.0085 0.5205 0.5058
C18 C 0.1652(7) 0.3686(11) 0.4914(5)
H12 H 0.1831 0.3099 0.5553
C19 C 0.2438(7) 0.3283(10) 0.4256(5)
H13 H 0.3134 0.2419 0.4451
C20 C 0.5722(6) 0.3150(10) 0.3244(5)
C21 C 0.5840(7) 0.5105(12) 0.3015(6)
H14 H 0.5628 0.5274 0.2271
H15 H 0.6782 0.5507 0.3377
H16 H 0.5184 0.5768 0.3253
C22 C 0.6075(7) 0.2907(13) 0.4445(5)
H17 H 0.5404 0.3546 0.4679
H18 H 0.7006 0.3350 0.4800
H19 H 0.6035 0.1675 0.4603
C23 C 0.6823(7) 0.2149(13) 0.2878(5)
H20 H 0.6799 0.0915 0.3037
H21 H 0.7747 0.2612 0.3237
H22 H 0.6609 0.2299 0.2132
loop_
_geom_bond_atom_site_label_1
_geom_bond_atom_site_label_2
_geom_bond_site_symmetry_1
_geom_bond_site_symmetry_2
S1 C7 1_555 1_555
S2 C11 1_555 1_555
C1 C2 1_555 1_555
C2 H1 1_555 1_555
C3 C2 1_555 1_555
H2 C3 1_555 1_555
C4 C3 1_555 1_555
H3 C4 1_555 1_555
C5 C4 1_555 1_555
H4 C5 1_555 1_555
C6 C1 1_555 1_555
C7 C6 1_555 1_555
C8 C7 1_555 1_555
C9 C1 1_555 1_555
C10 C9 1_555 1_555
C11 C8 1_555 1_555
C12 S2 1_555 1_555
H5 C12 1_555 1_555
H6 C12 1_555 1_555
C13 S1 1_555 1_555
H7 C13 1_555 1_555
H8 C13 1_555 1_555
C14 C10 1_555 1_555
C15 C14 1_555 1_555
H9 C15 1_555 1_555
C16 C15 1_555 1_555
H10 C16 1_555 1_555
C17 C16 1_555 1_555
H11 C17 1_555 1_555
C18 C17 1_555 1_555
H12 C18 1_555 1_555
C19 C14 1_555 1_555
H13 C19 1_555 1_555
C20 C11 1_555 1_555
C21 C20 1_555 1_555
H14 C21 1_555 1_555
H15 C21 1_555 1_555
H16 C21 1_555 1_555
C22 C20 1_555 1_555
H17 C22 1_555 1_555
H18 C22 1_555 1_555
H19 C22 1_555 1_555
C23 C20 1_555 1_555
H20 C23 1_555 1_555
H21 C23 1_555 1_555
H22 C23 1_555 1_555
C5 C6 1_555 1_555
C8 C9 1_555 1_555
C10 C11 1_555 1_555
C12 C13 1_555 1_555
C18 C19 1_555 1_555

#END
