
#######################################################################
#
#                 Cambridge Crystallographic Data Centre
#                                CCDC 
#
#######################################################################
#
# If this CIF has been generated from an entry in the Cambridge 
# Structural Database, then it will include bibliographic, chemical, 
# crystal, experimental, refinement or atomic coordinate data resulting 
# from the CCDC's data processing and validation procedures.
#
#######################################################################

data_OSEFUP
_chemical_formula_moiety         'C15 H16 O1 S2'
_chemical_name_systematic        
2-(3-phenyl-1,4-dithian-2-ylidene)cyclopentanone
_symmetry_cell_setting           monoclinic
_symmetry_space_group_name_H-M   'P 21/c'
_symmetry_Int_Tables_number      14
_space_group_name_Hall           '-P 2ybc'
loop_
_symmetry_equiv_pos_site_id
_symmetry_equiv_pos_as_xyz
1 x,y,z
2 -x,1/2+y,1/2-z
3 -x,-y,-z
4 x,1/2-y,1/2+z
_cell_length_a                   15.567(2)
_cell_length_b                   7.3046(11)
_cell_length_c                   12.5049(18)
_cell_angle_alpha                90
_cell_angle_beta                 107.222(3)
_cell_angle_gamma                90
_cell_volume                     1358.19
_exptl_crystal_colour            colorless
_exptl_crystal_description       prismatic
_cell_formula_units_Z            4
loop_
_atom_site_label
_atom_site_type_symbol
_atom_site_fract_x
_atom_site_fract_y
_atom_site_fract_z
S1 S 0.27201(5) 0.34100(9) 0.11181(6)
S2 S 0.26746(5) 0.44205(10) 0.37470(5)
O1 O 0.37728(15) 0.9175(3) 0.26865(18)
C1 C 0.39704(16) 0.8314(3) 0.1962(2)
C2 C 0.4667(2) 0.8903(5) 0.1424(3)
H1 H 0.4524 1.0112 0.1099
H2 H 0.5254 0.8951 0.1978
C3 C 0.4672(2) 0.7564(5) 0.0548(3)
H3 H 0.5278 0.7114 0.0656
H4 H 0.4466 0.8138 -0.0183
C4 C 0.40605(18) 0.6007(4) 0.0614(2)
H5 H 0.4404 0.4891 0.0841
H6 H 0.3620 0.5804 -0.0108
C5 C 0.36019(14) 0.6547(3) 0.14713(17)
C6 C 0.29981(14) 0.5530(3) 0.17746(17)
C7 C 0.1959(2) 0.2459(4) 0.1808(3)
H7 H 0.1417 0.3197 0.1615
H8 H 0.1791 0.1240 0.1512
C8 C 0.2298(2) 0.2332(4) 0.3033(3)
H9 H 0.2793 0.1466 0.3227
H10 H 0.1824 0.1837 0.3307
C9 C 0.25614(15) 0.6118(3) 0.26390(17)
H11 H 0.2928 0.7153 0.3017
C10 C 0.16249(15) 0.6907(3) 0.21824(19)
C11 C 0.11519(17) 0.6895(4) 0.1062(2)
H12 H 0.1399 0.6328 0.0556
C12 C 0.0312(2) 0.7715(5) 0.0677(3)
H13 H -0.0002 0.7678 -0.0082
C13 C -0.0052(2) 0.8570(4) 0.1402(3)
H14 H -0.0615 0.9120 0.1142
C14 C 0.0410(2) 0.8620(4) 0.2516(3)
H15 H 0.0165 0.9217 0.3014
C15 C 0.12346(18) 0.7791(4) 0.2901(2)
H16 H 0.1539 0.7825 0.3662
loop_
_geom_bond_atom_site_label_1
_geom_bond_atom_site_label_2
_geom_bond_site_symmetry_1
_geom_bond_site_symmetry_2
S1 C6 1_555 1_555
S2 C8 1_555 1_555
O1 C1 1_555 1_555
C1 C2 1_555 1_555
C2 H1 1_555 1_555
H2 C2 1_555 1_555
C3 C2 1_555 1_555
H3 C3 1_555 1_555
H4 C3 1_555 1_555
C4 C3 1_555 1_555
H5 C4 1_555 1_555
H6 C4 1_555 1_555
C5 C1 1_555 1_555
C6 C5 1_555 1_555
C7 S1 1_555 1_555
H7 C7 1_555 1_555
H8 C7 1_555 1_555
C8 C7 1_555 1_555
H9 C8 1_555 1_555
H10 C8 1_555 1_555
C9 S2 1_555 1_555
H11 C9 1_555 1_555
C10 C9 1_555 1_555
C11 C10 1_555 1_555
H12 C11 1_555 1_555
C12 C11 1_555 1_555
H13 C12 1_555 1_555
C13 C12 1_555 1_555
H14 C13 1_555 1_555
C14 C13 1_555 1_555
H15 C14 1_555 1_555
C15 C10 1_555 1_555
H16 C15 1_555 1_555
C4 C5 1_555 1_555
C6 C9 1_555 1_555
C14 C15 1_555 1_555

#END
