
#######################################################################
#
#                 Cambridge Crystallographic Data Centre
#                                CCDC 
#
#######################################################################
#
# If this CIF has been generated from an entry in the Cambridge 
# Structural Database, then it will include bibliographic, chemical, 
# crystal, experimental, refinement or atomic coordinate data resulting 
# from the CCDC's data processing and validation procedures.
#
#######################################################################

data_OSEGUQ
_chemical_formula_moiety         'C29 H20 S2'
_chemical_name_systematic        
9-phenyl-2,3-dihydro-9H-dibenzo[1,2:5,6]fluoreno[3,4-b][1,4]dithiine
_symmetry_cell_setting           monoclinic
_symmetry_space_group_name_H-M   'P 21/c'
_symmetry_Int_Tables_number      14
_space_group_name_Hall           '-P 2ybc'
loop_
_symmetry_equiv_pos_site_id
_symmetry_equiv_pos_as_xyz
1 x,y,z
2 -x,1/2+y,1/2-z
3 -x,-y,-z
4 x,1/2-y,1/2+z
_cell_length_a                   15.8061(19)
_cell_length_b                   6.3393(8)
_cell_length_c                   21.023(3)
_cell_angle_alpha                90
_cell_angle_beta                 95.291(3)
_cell_angle_gamma                90
_cell_volume                     2097.52
_exptl_crystal_colour            yellow
_exptl_crystal_description       prismatic
_cell_formula_units_Z            4
loop_
_atom_site_label
_atom_site_type_symbol
_atom_site_fract_x
_atom_site_fract_y
_atom_site_fract_z
S1 S 0.20031(6) 0.71348(11) 0.35973(3)
S2 S 0.08162(5) 1.08482(12) 0.28165(4)
C1 C 0.12818(15) 0.6579(4) 0.14726(10)
C2 C 0.09189(16) 0.6120(4) 0.08496(12)
H1 H 0.1093 0.4921 0.0642
C3 C 0.03256(19) 0.7382(5) 0.05499(13)
H2 H 0.0090 0.7043 0.0141
C4 C 0.00620(19) 0.9194(5) 0.08491(14)
H3 H -0.0342 1.0070 0.0635
C5 C 0.03883(17) 0.9693(4) 0.14490(13)
H4 H 0.0203 1.0907 0.1642
C6 C 0.10058(15) 0.8398(4) 0.17853(11)
C7 C 0.12862(15) 0.8731(4) 0.24393(11)
C8 C 0.18687(15) 0.7402(3) 0.27608(11)
C9 C 0.22758(14) 0.5847(3) 0.24029(10)
C10 C 0.19239(15) 0.5358(3) 0.17948(11)
C11 C 0.22727(16) 0.3301(3) 0.15783(11)
H5 H 0.1824 0.2236 0.1580
C12 C 0.29370(16) 0.2809(4) 0.21145(12)
C13 C 0.29832(15) 0.4369(3) 0.25761(10)
C14 C 0.36911(16) 0.4383(4) 0.30555(11)
C15 C 0.42314(17) 0.2575(4) 0.30897(13)
C16 C 0.40998(19) 0.0940(4) 0.26397(14)
H6 H 0.4444 -0.0251 0.2678
C17 C 0.34837(19) 0.1070(4) 0.21547(13)
H7 H 0.3422 0.0009 0.1848
C18 C 0.49257(19) 0.2524(5) 0.35622(15)
H8 H 0.5259 0.1315 0.3607
C19 C 0.5117(2) 0.4165(6) 0.39468(16)
H9 H 0.5576 0.4086 0.4256
C20 C 0.46303(19) 0.5987(5) 0.38855(14)
H10 H 0.4783 0.7146 0.4142
C21 C 0.39337(17) 0.6106(4) 0.34553(12)
H11 H 0.3614 0.7340 0.3425
C22 C 0.26310(16) 0.3219(4) 0.09388(11)
C23 C 0.2510(2) 0.1446(5) 0.05583(14)
H12 H 0.2178 0.0338 0.0685
C24 C 0.2881(3) 0.1322(7) -0.00074(16)
H13 H 0.2794 0.0131 -0.0264
C25 C 0.3366(3) 0.2900(8) -0.01925(15)
H14 H 0.3624 0.2779 -0.0571
C26 C 0.3488(2) 0.4698(7) 0.01723(15)
H15 H 0.3818 0.5801 0.0040
C27 C 0.31121(17) 0.4830(5) 0.07358(12)
H16 H 0.3187 0.6043 0.0984
C28 C 0.1562(2) 1.1265(4) 0.34826(14)
H17 H 0.2119 1.1493 0.3337
H18 H 0.1408 1.2524 0.3708
C29 C 0.1599(2) 0.9439(4) 0.39278(13)
H19 H 0.1033 0.9155 0.4048
H20 H 0.1955 0.9806 0.4313
loop_
_geom_bond_atom_site_label_1
_geom_bond_atom_site_label_2
_geom_bond_site_symmetry_1
_geom_bond_site_symmetry_2
S1 C8 1_555 1_555
S2 C7 1_555 1_555
C1 C2 1_555 1_555
C2 H1 1_555 1_555
C3 C2 1_555 1_555
H2 C3 1_555 1_555
C4 C3 1_555 1_555
H3 C4 1_555 1_555
C5 C4 1_555 1_555
H4 C5 1_555 1_555
C6 C1 1_555 1_555
C7 C6 1_555 1_555
C8 C7 1_555 1_555
C9 C8 1_555 1_555
C10 C1 1_555 1_555
C11 C10 1_555 1_555
H5 C11 1_555 1_555
C12 C11 1_555 1_555
C13 C9 1_555 1_555
C14 C13 1_555 1_555
C15 C14 1_555 1_555
C16 C15 1_555 1_555
H6 C16 1_555 1_555
C17 C12 1_555 1_555
H7 C17 1_555 1_555
C18 C15 1_555 1_555
H8 C18 1_555 1_555
C19 C18 1_555 1_555
H9 C19 1_555 1_555
C20 C19 1_555 1_555
H10 C20 1_555 1_555
C21 C14 1_555 1_555
H11 C21 1_555 1_555
C22 C11 1_555 1_555
C23 C22 1_555 1_555
H12 C23 1_555 1_555
C24 C23 1_555 1_555
H13 C24 1_555 1_555
C25 C24 1_555 1_555
H14 C25 1_555 1_555
C26 C25 1_555 1_555
H15 C26 1_555 1_555
C27 C22 1_555 1_555
H16 C27 1_555 1_555
C28 S2 1_555 1_555
H17 C28 1_555 1_555
H18 C28 1_555 1_555
C29 S1 1_555 1_555
H19 C29 1_555 1_555
H20 C29 1_555 1_555
C5 C6 1_555 1_555
C9 C10 1_555 1_555
C12 C13 1_555 1_555
C16 C17 1_555 1_555
C20 C21 1_555 1_555
C26 C27 1_555 1_555
C28 C29 1_555 1_555

#END
