
#######################################################################
#
#                 Cambridge Crystallographic Data Centre
#                                CCDC 
#
#######################################################################
#
# If this CIF has been generated from an entry in the Cambridge 
# Structural Database, then it will include bibliographic, chemical, 
# crystal, experimental, refinement or atomic coordinate data resulting 
# from the CCDC's data processing and validation procedures.
#
#######################################################################

data_OSEHAX
_chemical_formula_moiety         'C28 H24 O3 S2'
_chemical_name_systematic        
'10,11,12-trimethoxy-9-phenyl-2,3-dihydro-9H-benzo[1,2]fluoreno[3,4-b][1,4]dithiine unknown solvate'
_symmetry_cell_setting           triclinic
_symmetry_space_group_name_H-M   'P -1'
_symmetry_Int_Tables_number      2
_space_group_name_Hall           '-P 1'
loop_
_symmetry_equiv_pos_site_id
_symmetry_equiv_pos_as_xyz
1 x,y,z
2 -x,-y,-z
_cell_length_a                   9.8628(16)
_cell_length_b                   11.7010(19)
_cell_length_c                   12.236(2)
_cell_angle_alpha                108.538(3)
_cell_angle_beta                 104.931(3)
_cell_angle_gamma                90.240(3)
_cell_volume                     1287.89
_exptl_crystal_colour            colorless
_exptl_crystal_description       block
_cell_formula_units_Z            2
loop_
_atom_site_label
_atom_site_type_symbol
_atom_site_fract_x
_atom_site_fract_y
_atom_site_fract_z
S1 S 0.69395(6) -0.14366(5) 0.23093(4)
S2 S 0.79448(5) 0.10324(5) 0.44603(4)
O1 O 0.62656(13) 0.10100(11) 0.96208(10)
O2 O 0.77836(14) 0.32789(11) 1.03822(11)
O3 O 0.88720(15) 0.39575(11) 0.88777(12)
C1 C 0.68825(17) -0.00838(15) 0.57712(14)
C2 C 0.72488(17) 0.09350(15) 0.69211(14)
C3 C 0.79771(18) 0.20666(15) 0.72708(15)
H1 H 0.8332 0.2305 0.6734
C4 C 0.81653(18) 0.28354(15) 0.84355(16)
C5 C 0.75919(18) 0.24971(16) 0.92288(15)
C6 C 0.68731(18) 0.13586(16) 0.88772(14)
C7 C 0.67139(17) 0.05796(15) 0.77227(14)
C8 C 0.60243(17) -0.06949(15) 0.71765(14)
H2 H 0.5028 -0.0699 0.7168
C9 C 0.61521(17) -0.10136(15) 0.59082(14)
C10 C 0.56209(18) -0.20962(15) 0.49605(15)
C11 C 0.4833(2) -0.30391(17) 0.50661(18)
H3 H 0.4647 -0.2957 0.5793
C12 C 0.4335(2) -0.40787(18) 0.4114(2)
H4 H 0.3803 -0.4689 0.4195
C13 C 0.4622(2) -0.4222(2) 0.3032(2)
H5 H 0.4296 -0.4938 0.2396
C14 C 0.5365(2) -0.33403(19) 0.28869(18)
H6 H 0.5538 -0.3455 0.2149
C15 C 0.58902(19) -0.22381(16) 0.38374(15)
C16 C 0.66415(18) -0.12709(17) 0.37064(15)
C17 C 0.71408(17) -0.02025(16) 0.46510(14)
C18 C 0.8783(2) -0.0918(2) 0.2839(2)
H7 H 0.9258 -0.1360 0.3353
H8 H 0.9173 -0.1104 0.2158
C19 C 0.9080(2) 0.0396(2) 0.35099(19)
H9 H 0.9004 0.0824 0.2938
H10 H 1.0047 0.0547 0.4005
C20 C 0.67532(18) -0.15084(15) 0.78512(14)
C21 C 0.6120(2) -0.19640(17) 0.85133(17)
H11 H 0.5192 -0.1823 0.8508
C22 C 0.6843(3) -0.26375(18) 0.91971(18)
H12 H 0.6396 -0.2943 0.9642
C23 C 0.8195(3) -0.2846(2) 0.9213(2)
H13 H 0.8684 -0.3284 0.9679
C24 C 0.8836(3) -0.2416(2) 0.8549(3)
H14 H 0.9759 -0.2575 0.8547
C25 C 0.8124(2) -0.1740(2) 0.7870(2)
H15 H 0.8578 -0.1441 0.7424
C26 C 0.7226(2) 0.0832(2) 1.06312(17)
H16 H 0.7956 0.0366 1.0379
H17 H 0.6731 0.0405 1.0987
H18 H 0.7637 0.1603 1.1208
C27 C 0.6779(3) 0.4141(2) 1.0494(2)
H19 H 0.5847 0.3729 1.0193
H20 H 0.6872 0.4660 1.0042
H21 H 0.6936 0.4618 1.1322
C28 C 0.9578(2) 0.42975(19) 0.8146(2)
H22 H 0.8900 0.4371 0.7458
H23 H 1.0189 0.3692 0.7891
H24 H 1.0126 0.5061 0.8593
loop_
_geom_bond_atom_site_label_1
_geom_bond_atom_site_label_2
_geom_bond_site_symmetry_1
_geom_bond_site_symmetry_2
S1 C16 1_555 1_555
S2 C17 1_555 1_555
O1 C6 1_555 1_555
O2 C5 1_555 1_555
O3 C4 1_555 1_555
C1 C2 1_555 1_555
C2 C3 1_555 1_555
C3 H1 1_555 1_555
C4 C3 1_555 1_555
C5 C4 1_555 1_555
C6 C5 1_555 1_555
C7 C2 1_555 1_555
C8 C7 1_555 1_555
H2 C8 1_555 1_555
C9 C1 1_555 1_555
C10 C9 1_555 1_555
C11 C10 1_555 1_555
H3 C11 1_555 1_555
C12 C11 1_555 1_555
H4 C12 1_555 1_555
C13 C12 1_555 1_555
H5 C13 1_555 1_555
C14 C13 1_555 1_555
H6 C14 1_555 1_555
C15 C10 1_555 1_555
C16 C15 1_555 1_555
C17 C1 1_555 1_555
C18 S1 1_555 1_555
H7 C18 1_555 1_555
H8 C18 1_555 1_555
C19 S2 1_555 1_555
H9 C19 1_555 1_555
H10 C19 1_555 1_555
C20 C8 1_555 1_555
C21 C20 1_555 1_555
H11 C21 1_555 1_555
C22 C21 1_555 1_555
H12 C22 1_555 1_555
C23 C22 1_555 1_555
H13 C23 1_555 1_555
C24 C23 1_555 1_555
H14 C24 1_555 1_555
C25 C20 1_555 1_555
H15 C25 1_555 1_555
C26 O1 1_555 1_555
H16 C26 1_555 1_555
H17 C26 1_555 1_555
H18 C26 1_555 1_555
C27 O2 1_555 1_555
H19 C27 1_555 1_555
H20 C27 1_555 1_555
H21 C27 1_555 1_555
C28 O3 1_555 1_555
H22 C28 1_555 1_555
H23 C28 1_555 1_555
H24 C28 1_555 1_555
C6 C7 1_555 1_555
C8 C9 1_555 1_555
C14 C15 1_555 1_555
C16 C17 1_555 1_555
C18 C19 1_555 1_555
C24 C25 1_555 1_555

#END
