
#######################################################################
#
#                 Cambridge Crystallographic Data Centre
#                                CCDC 
#
#######################################################################
#
# If this CIF has been generated from an entry in the Cambridge 
# Structural Database, then it will include bibliographic, chemical, 
# crystal, experimental, refinement or atomic coordinate data resulting 
# from the CCDC's data processing and validation procedures.
#
#######################################################################

data_OSENIK
_chemical_formula_moiety         'C40 H65 Li1 O5'
_chemical_name_systematic        
(3,3',5,5'-tetra-t-butylbiphenyl-2,2'-diolato)-tris(tetrahydrofuran)-lithium
_symmetry_cell_setting           monoclinic
_symmetry_space_group_name_H-M   'P 21/n'
_symmetry_Int_Tables_number      14
_space_group_name_Hall           '-P 2yn'
loop_
_symmetry_equiv_pos_site_id
_symmetry_equiv_pos_as_xyz
1 x,y,z
2 1/2-x,1/2+y,1/2-z
3 -x,-y,-z
4 1/2+x,1/2-y,1/2+z
_cell_length_a                   9.9309(12)
_cell_length_b                   17.883(2)
_cell_length_c                   23.512(3)
_cell_angle_alpha                90
_cell_angle_beta                 98.839(2)
_cell_angle_gamma                90
_cell_volume                     4126.01
_exptl_crystal_colour            colorless
_exptl_crystal_description       block
_cell_formula_units_Z            4
loop_
_atom_site_label
_atom_site_type_symbol
_atom_site_fract_x
_atom_site_fract_y
_atom_site_fract_z
O1 O 0.27540(18) 0.36824(12) 0.19887(8)
H1 H 0.3055 0.3930 0.2274
C1 C 0.0652(3) 0.37827(17) 0.13416(12)
O2 O 0.3110(2) 0.43143(11) 0.29610(8)
C2 C 0.0661(3) 0.36105(15) 0.23757(12)
C3 C -0.0766(3) 0.38126(17) 0.12796(13)
H2 H -0.1253 0.3854 0.0910
C4 C 0.1360(3) 0.37020(16) 0.19079(12)
C5 C -0.1488(3) 0.37836(18) 0.17368(14)
C6 C 0.1362(3) 0.34162(16) 0.29700(12)
C7 C 0.2578(3) 0.37589(17) 0.32321(13)
C8 C -0.0745(3) 0.36698(16) 0.22817(13)
H3 H -0.1212 0.3632 0.2595
C9 C 0.1395(3) 0.38302(19) 0.08219(13)
C10 C -0.3056(3) 0.3851(2) 0.16529(16)
C11 C 0.2480(4) 0.29951(19) 0.40652(14)
H4 H 0.2861 0.2853 0.4436
C12 C 0.0725(3) 0.28858(18) 0.32738(13)
H5 H -0.0073 0.2661 0.3094
C13 C 0.1238(4) 0.26805(18) 0.38362(14)
C14 C 0.3192(3) 0.35029(18) 0.37851(13)
C15 C 0.4590(4) 0.3817(2) 0.40693(15)
O3 O 0.1224(4) 0.54392(19) 0.35947(16)
C16 C 0.2267(4) 0.3146(2) 0.07765(15)
H6 H 0.2721 0.3191 0.0446
H7 H 0.1701 0.2708 0.0738
H8 H 0.2933 0.3104 0.1117
C17 C 0.0499(4) 0.2134(2) 0.41830(16)
C18 C 0.2283(4) 0.4537(2) 0.08587(16)
H9 H 0.2865 0.4551 0.1225
H10 H 0.1709 0.4971 0.0819
H11 H 0.2831 0.4530 0.0556
O4 O 0.1309(4) 0.58396(18) 0.23356(17)
C19 C 0.5649(4) 0.3757(3) 0.3665(2)
H12 H 0.6471 0.4006 0.3833
H13 H 0.5302 0.3988 0.3303
H14 H 0.5840 0.3239 0.3603
C20 C 0.0396(4) 0.3880(3) 0.02541(15)
H15 H -0.0194 0.4303 0.0267
H16 H -0.0140 0.3431 0.0202
H17 H 0.0898 0.3937 -0.0061
C21 C 0.5121(6) 0.3407(3) 0.4635(2)
H18 H 0.5275 0.2891 0.4555
H19 H 0.4459 0.3444 0.4891
H20 H 0.5960 0.3632 0.4811
C22 C 0.4417(5) 0.4656(3) 0.42212(18)
H21 H 0.3813 0.4697 0.4502
H22 H 0.4041 0.4925 0.3880
H23 H 0.5288 0.4864 0.4375
C23 C -0.3578(6) 0.4196(8) 0.1071(4)
H24 H -0.4173 0.4606 0.1120
H25 H -0.4069 0.3826 0.0825
H26 H -0.2821 0.4373 0.0899
Li1 Li 0.2444(7) 0.5299(3) 0.2982(3)
C24 C 0.1377(8) 0.1488(4) 0.4381(4)
H27 H 0.2018 0.1630 0.4711
H28 H 0.1859 0.1331 0.4078
H29 H 0.0822 0.1084 0.4481
C25 C 0.1491(11) 0.6545(6) 0.2089(5)
H30 H 0.1694 0.6917 0.2391
H31 H 0.2253 0.6525 0.1876
C26 C -0.0763(9) 0.1839(6) 0.3860(3)
H32 H -0.1234 0.1551 0.4112
H33 H -0.0553 0.1527 0.3553
H34 H -0.1331 0.2246 0.3702
C27 C 0.0069(10) 0.5635(4) 0.2056(4)
H35 H -0.0513 0.5492 0.2333
H36 H 0.0165 0.5206 0.1812
C28 C -0.3660(5) 0.3161(5) 0.1653(8)
H37 H -0.3349 0.2850 0.1366
H38 H -0.4631 0.3216 0.1568
H39 H -0.3420 0.2934 0.2024
C29 C -0.0593(10) 0.5225(6) 0.4066(5)
H40 H -0.0648 0.4950 0.4417
H41 H -0.1493 0.5254 0.3839
C30 C 0.0287(8) 0.4916(4) 0.3772(4)
H42 H -0.0208 0.4674 0.3434
H43 H 0.0794 0.4534 0.4007
C31 C 0.0269(11) 0.2506(5) 0.4723(3)
H44 H 0.1120 0.2552 0.4976
H45 H -0.0351 0.2212 0.4906
H46 H -0.0111 0.2994 0.4636
C32 C -0.3489(5) 0.4380(6) 0.2033(4)
H47 H -0.3269 0.4202 0.2422
H48 H -0.4456 0.4450 0.1940
H49 H -0.3035 0.4847 0.1997
C33 C -0.0507(11) 0.6210(7) 0.1730(6)
H50 H -0.0795 0.6041 0.1338
H51 H -0.1305 0.6387 0.1881
C34 C 0.0350(12) 0.6740(8) 0.1734(8)
H52 H -0.0021 0.7198 0.1867
H53 H 0.0554 0.6824 0.1348
C35 C 0.1079(10) 0.6058(5) 0.3923(5)
H54 H 0.1890 0.6126 0.4205
H55 H 0.0961 0.6499 0.3680
C36 C -0.0017(13) 0.5967(8) 0.4191(5)
H56 H -0.0695 0.6345 0.4059
H57 H 0.0250 0.6026 0.4603
O5 O 0.3977(3) 0.59772(15) 0.30984(14)
C37 C 0.5055(7) 0.5838(4) 0.2794(3)
H58 H 0.4776 0.5933 0.2387
H59 H 0.5349 0.5322 0.2843
C38 C 0.5821(8) 0.6642(5) 0.3545(4)
H60 H 0.6125 0.7157 0.3595
H61 H 0.6234 0.6352 0.3875
C39 C 0.4354(7) 0.6596(3) 0.3473(3)
H62 H 0.4050 0.6517 0.3841
H63 H 0.3947 0.7054 0.3305
C40 C 0.6151(7) 0.6340(5) 0.3028(4)
H64 H 0.7006 0.6069 0.3103
H65 H 0.6244 0.6737 0.2756
loop_
_geom_bond_atom_site_label_1
_geom_bond_atom_site_label_2
_geom_bond_site_symmetry_1
_geom_bond_site_symmetry_2
O1 H1 1_555 1_555
C1 C3 1_555 1_555
O2 C7 1_555 1_555
C2 C4 1_555 1_555
C3 H2 1_555 1_555
C4 O1 1_555 1_555
C5 C3 1_555 1_555
C6 C2 1_555 1_555
C7 C6 1_555 1_555
C8 C2 1_555 1_555
H3 C8 1_555 1_555
C9 C1 1_555 1_555
C10 C5 1_555 1_555
C11 H4 1_555 1_555
C12 C6 1_555 1_555
H5 C12 1_555 1_555
C13 C11 1_555 1_555
C14 C7 1_555 1_555
C15 C14 1_555 1_555
O3 Li1 1_555 1_555
C16 C9 1_555 1_555
H6 C16 1_555 1_555
H7 C16 1_555 1_555
H8 C16 1_555 1_555
C17 C13 1_555 1_555
C18 C9 1_555 1_555
H9 C18 1_555 1_555
H10 C18 1_555 1_555
H11 C18 1_555 1_555
O4 Li1 1_555 1_555
C19 C15 1_555 1_555
H12 C19 1_555 1_555
H13 C19 1_555 1_555
H14 C19 1_555 1_555
C20 C9 1_555 1_555
H15 C20 1_555 1_555
H16 C20 1_555 1_555
H17 C20 1_555 1_555
C21 C15 1_555 1_555
H18 C21 1_555 1_555
H19 C21 1_555 1_555
H20 C21 1_555 1_555
C22 C15 1_555 1_555
H21 C22 1_555 1_555
H22 C22 1_555 1_555
H23 C22 1_555 1_555
C23 C10 1_555 1_555
H24 C23 1_555 1_555
H25 C23 1_555 1_555
H26 C23 1_555 1_555
Li1 O2 1_555 1_555
C24 C17 1_555 1_555
H27 C24 1_555 1_555
H28 C24 1_555 1_555
H29 C24 1_555 1_555
C25 O4 1_555 1_555
H30 C25 1_555 1_555
H31 C25 1_555 1_555
C26 C17 1_555 1_555
H32 C26 1_555 1_555
H33 C26 1_555 1_555
H34 C26 1_555 1_555
C27 O4 1_555 1_555
H35 C27 1_555 1_555
H36 C27 1_555 1_555
C28 C10 1_555 1_555
H37 C28 1_555 1_555
H38 C28 1_555 1_555
H39 C28 1_555 1_555
C29 H40 1_555 1_555
H41 C29 1_555 1_555
C30 O3 1_555 1_555
H42 C30 1_555 1_555
H43 C30 1_555 1_555
C31 C17 1_555 1_555
H44 C31 1_555 1_555
H45 C31 1_555 1_555
H46 C31 1_555 1_555
C32 C10 1_555 1_555
H47 C32 1_555 1_555
H48 C32 1_555 1_555
H49 C32 1_555 1_555
C33 C27 1_555 1_555
H50 C33 1_555 1_555
H51 C33 1_555 1_555
C34 C25 1_555 1_555
H52 C34 1_555 1_555
H53 C34 1_555 1_555
C35 O3 1_555 1_555
H54 C35 1_555 1_555
H55 C35 1_555 1_555
C36 C29 1_555 1_555
H56 C36 1_555 1_555
H57 C36 1_555 1_555
O5 Li1 1_555 1_555
C37 O5 1_555 1_555
H58 C37 1_555 1_555
H59 C37 1_555 1_555
C38 H60 1_555 1_555
H61 C38 1_555 1_555
C39 O5 1_555 1_555
H62 C39 1_555 1_555
H63 C39 1_555 1_555
C40 C37 1_555 1_555
H64 C40 1_555 1_555
H65 C40 1_555 1_555
C1 C4 1_555 1_555
C5 C8 1_555 1_555
C11 C14 1_555 1_555
C12 C13 1_555 1_555
C29 C30 1_555 1_555
C33 C34 1_555 1_555
C35 C36 1_555 1_555
C38 C39 1_555 1_555
C38 C40 1_555 1_555

#END
