
#######################################################################
#
#                 Cambridge Crystallographic Data Centre
#                                CCDC 
#
#######################################################################
#
# If this CIF has been generated from an entry in the Cambridge 
# Structural Database, then it will include bibliographic, chemical, 
# crystal, experimental, refinement or atomic coordinate data resulting 
# from the CCDC's data processing and validation procedures.
#
#######################################################################

data_OSETOX
_chemical_formula_moiety         'C19 H22 N4 O2'
_chemical_name_systematic        
6-((4-methoxyphenyl)amino)-3,3-dimethyl-8-(methylamino)-3,4-dihydro-1H-pyrano[3,4-c]pyridine-5-carbonitrile
_symmetry_cell_setting           triclinic
_symmetry_space_group_name_H-M   'P -1'
_symmetry_Int_Tables_number      2
_space_group_name_Hall           '-P 1'
loop_
_symmetry_equiv_pos_site_id
_symmetry_equiv_pos_as_xyz
1 x,y,z
2 -x,-y,-z
_cell_length_a                   8.4531(17)
_cell_length_b                   9.0608(18)
_cell_length_c                   12.057(2)
_cell_angle_alpha                99.97(3)
_cell_angle_beta                 103.72(3)
_cell_angle_gamma                90.92(3)
_cell_volume                     881.994
_exptl_crystal_colour            colorless
_exptl_crystal_description       prism
_cell_formula_units_Z            2
loop_
_atom_site_label
_atom_site_type_symbol
_atom_site_fract_x
_atom_site_fract_y
_atom_site_fract_z
C1 C 0.60367(18) -0.15641(13) -0.12096(11)
H1 H 0.551(2) -0.2122(19) -0.0774(14)
H2 H 0.6793(19) -0.2185(18) -0.1569(13)
O1 O 0.47369(12) -0.11828(10) -0.20765(8)
C2 C 0.51867(16) -0.00634(14) -0.26801(11)
C3 C 0.56559(17) 0.14028(14) -0.18055(11)
H3 H 0.6126(19) 0.2150(19) -0.2170(14)
H4 H 0.4643(19) 0.1826(18) -0.1609(14)
C4 C 0.68491(15) 0.11789(12) -0.07135(10)
C5 C 0.77895(16) 0.24091(12) 0.00560(10)
C6 C 0.88644(16) 0.21589(13) 0.10813(10)
N1 N 0.90585(13) 0.07950(11) 0.13449(9)
C7 C 0.81654(15) -0.03664(12) 0.06055(10)
C8 C 0.70193(15) -0.02186(12) -0.04326(10)
C9 C 0.6569(2) -0.05611(19) -0.32377(14)
H5 H 0.759(2) -0.0598(19) -0.2648(15)
H6 H 0.675(2) 0.011(2) -0.3721(17)
H7 H 0.627(2) -0.154(2) -0.3752(18)
C10 C 0.3645(2) 0.00936(19) -0.35869(15)
H8 H 0.329(3) -0.083(3) -0.4150(19)
H9 H 0.383(2) 0.090(2) -0.4019(16)
H10 H 0.271(3) 0.031(2) -0.3214(19)
C11 C 0.76552(19) 0.38824(14) -0.01907(12)
N2 N 0.7578(2) 0.50721(14) -0.03803(14)
H11 H 0.7965(19) -0.2471(19) 0.0357(14)
N3 N 0.83886(15) -0.17374(12) 0.08926(10)
C12 C 0.9539(2) -0.20170(17) 0.19151(14)
H12 H 1.058(3) -0.222(3) 0.179(2)
H13 H 0.914(3) -0.285(3) 0.217(2)
H14 H 0.968(3) -0.123(3) 0.256(2)
H15 H 0.987(2) 0.413(2) 0.1556(17)
N4 N 0.97831(16) 0.33509(12) 0.18309(10)
C13 C 1.05373(15) 0.34555(13) 0.30192(11)
C14 C 1.17998(18) 0.45332(15) 0.35266(12)
H16 H 1.214(2) 0.513(2) 0.3004(15)
C15 C 1.25217(19) 0.47499(16) 0.47088(13)
H17 H 1.338(2) 0.552(2) 0.5023(17)
C16 C 1.19934(18) 0.38760(15) 0.53937(12)
C17 C 1.07366(19) 0.27899(16) 0.48826(12)
H18 H 1.038(2) 0.219(2) 0.5375(17)
C18 C 1.00098(18) 0.25864(15) 0.37152(12)
H19 H 0.914(2) 0.184(2) 0.3369(16)
O2 O 1.26044(16) 0.39814(13) 0.65653(9)
C19 C 1.3789(3) 0.5145(3) 0.71507(18)
H20 H 1.477(3) 0.495(3) 0.687(2)
H21 H 1.400(3) 0.505(3) 0.798(2)
H22 H 1.340(3) 0.606(3) 0.701(2)
loop_
_geom_bond_atom_site_label_1
_geom_bond_atom_site_label_2
_geom_bond_site_symmetry_1
_geom_bond_site_symmetry_2
C1 H1 1_555 1_555
H2 C1 1_555 1_555
O1 C1 1_555 1_555
C2 O1 1_555 1_555
C3 C2 1_555 1_555
H3 C3 1_555 1_555
H4 C3 1_555 1_555
C4 C3 1_555 1_555
C5 C4 1_555 1_555
C6 C5 1_555 1_555
N1 C6 1_555 1_555
C7 N1 1_555 1_555
C8 C1 1_555 1_555
C9 C2 1_555 1_555
H5 C9 1_555 1_555
H6 C9 1_555 1_555
H7 C9 1_555 1_555
C10 C2 1_555 1_555
H8 C10 1_555 1_555
H9 C10 1_555 1_555
H10 C10 1_555 1_555
C11 C5 1_555 1_555
N2 C11 1_555 1_555
H11 N3 1_555 1_555
N3 C7 1_555 1_555
C12 N3 1_555 1_555
H12 C12 1_555 1_555
H13 C12 1_555 1_555
H14 C12 1_555 1_555
H15 N4 1_555 1_555
N4 C6 1_555 1_555
C13 N4 1_555 1_555
C14 C13 1_555 1_555
H16 C14 1_555 1_555
C15 C14 1_555 1_555
H17 C15 1_555 1_555
C16 C15 1_555 1_555
C17 C16 1_555 1_555
H18 C17 1_555 1_555
C18 C13 1_555 1_555
H19 C18 1_555 1_555
O2 C16 1_555 1_555
C19 O2 1_555 1_555
H20 C19 1_555 1_555
H21 C19 1_555 1_555
H22 C19 1_555 1_555
C4 C8 1_555 1_555
C7 C8 1_555 1_555
C17 C18 1_555 1_555

#END
