
#######################################################################
#
#                 Cambridge Crystallographic Data Centre
#                                CCDC 
#
#######################################################################
#
# If this CIF has been generated from an entry in the Cambridge 
# Structural Database, then it will include bibliographic, chemical, 
# crystal, experimental, refinement or atomic coordinate data resulting 
# from the CCDC's data processing and validation procedures.
#
#######################################################################

data_OSETUD
_chemical_formula_moiety         'C21 H24 N2 O5 S1'
_chemical_name_systematic        
'(R)-methyl 1,4,4-trimethyl-3-(((4-methylphenyl)sulfonyl)amino)-2-oxo-1,2,3,4-tetrahydroquinoline-6-carboxylate'
_symmetry_cell_setting           tetragonal
_symmetry_space_group_name_H-M   'P 43 21 2'
_symmetry_Int_Tables_number      96
_space_group_name_Hall           'P 4nw 2abw'
loop_
_symmetry_equiv_pos_site_id
_symmetry_equiv_pos_as_xyz
1 x,y,z
2 -x,-y,1/2+z
3 1/2-y,1/2+x,3/4+z
4 1/2+y,1/2-x,1/4+z
5 1/2-x,1/2+y,3/4-z
6 1/2+x,1/2-y,1/4-z
7 y,x,-z
8 -y,-x,1/2-z
_cell_length_a                   10.8044(11)
_cell_length_b                   10.8044(11)
_cell_length_c                   36.526(5)
_cell_angle_alpha                90
_cell_angle_beta                 90
_cell_angle_gamma                90
_cell_volume                     4263.86
_exptl_crystal_colour            colorless
_exptl_crystal_description       Prism
_chemical_melting_point          '201-203 deg.C'
_cell_formula_units_Z            8
_exptl_crystal_recrystallization_method dichloromethane/hexane
loop_
_atom_site_label
_atom_site_type_symbol
_atom_site_fract_x
_atom_site_fract_y
_atom_site_fract_z
S1 S 0.04601(6) 0.51982(6) 0.102417(14)
O1 O 0.09540(17) 0.65932(18) 0.01401(4)
O2 O -0.61406(16) 0.4600(2) -0.06644(6)
O3 O -0.56106(17) 0.29324(18) -0.03298(6)
O4 O -0.07155(17) 0.49238(18) 0.11855(5)
O5 O 0.15685(19) 0.4690(2) 0.11768(5)
N1 N -0.08154(19) 0.64184(19) -0.01894(5)
N2 N 0.04201(19) 0.47101(18) 0.06033(5)
C1 C -0.4172(2) 0.4601(2) -0.03987(6)
C2 C -0.3927(2) 0.5737(2) -0.05567(6)
H1 H -0.4524 0.6113 -0.0712
C3 C -0.2817(2) 0.6328(2) -0.04888(6)
H2 H -0.2646 0.7102 -0.0602
C4 C -0.1945(2) 0.5793(2) -0.02553(5)
C5 C -0.2170(2) 0.4636(2) -0.00929(6)
C6 C -0.3287(2) 0.4054(2) -0.01694(6)
H3 H -0.3455 0.3268 -0.0064
C7 C -0.1198(2) 0.4053(2) 0.01557(6)
C8 C -0.05626(19) 0.5139(2) 0.03584(5)
H4 H -0.1205 0.5551 0.0513
C9 C -0.0053(2) 0.6108(2) 0.00959(6)
C10 C 0.0610(2) 0.6822(2) 0.10147(5)
C11 C -0.0412(2) 0.7572(2) 0.10774(6)
H5 H -0.1194 0.7213 0.1130
C12 C -0.0284(2) 0.8854(2) 0.10633(6)
H6 H -0.0983 0.9366 0.1108
C13 C 0.0855(3) 0.9394(2) 0.09844(6)
C14 C 0.1865(2) 0.8621(3) 0.09217(6)
H7 H 0.2648 0.8979 0.0869
C15 C 0.1757(2) 0.7351(2) 0.09337(6)
H8 H 0.2455 0.6841 0.0887
C16 C 0.1001(3) 1.0781(3) 0.09676(9)
H9 H 0.0216 1.1177 0.1033
H10 H 0.1237 1.1026 0.0719
H11 H 0.1647 1.1040 0.1140
C17 C -0.0452(3) 0.7451(3) -0.04278(7)
H12 H 0.0403 0.7691 -0.0374
H13 H -0.1002 0.8157 -0.0384
H14 H -0.0516 0.7194 -0.0684
C18 C -0.1770(3) 0.3176(2) 0.04392(8)
H15 H -0.2379 0.3628 0.0587
H16 H -0.1118 0.2851 0.0599
H17 H -0.2180 0.2488 0.0313
C19 C -0.0247(3) 0.3348(3) -0.00776(8)
H18 H -0.0644 0.2626 -0.0189
H19 H 0.0439 0.3076 0.0078
H20 H 0.0069 0.3894 -0.0270
C20 C -0.5359(2) 0.3942(3) -0.04575(7)
C21 C -0.7325(3) 0.4017(4) -0.07314(12)
H21 H -0.7198 0.3239 -0.0864
H22 H -0.7844 0.4570 -0.0878
H23 H -0.7734 0.3847 -0.0497
H24 H 0.107(3) 0.474(3) 0.0526(8)
loop_
_geom_bond_atom_site_label_1
_geom_bond_atom_site_label_2
_geom_bond_site_symmetry_1
_geom_bond_site_symmetry_2
S1 O4 1_555 1_555
O1 C9 1_555 1_555
O2 C20 1_555 1_555
O3 C20 1_555 1_555
O5 S1 1_555 1_555
N1 C4 1_555 1_555
N2 S1 1_555 1_555
C1 C2 1_555 1_555
C2 H1 1_555 1_555
C3 C2 1_555 1_555
H2 C3 1_555 1_555
C4 C3 1_555 1_555
C5 C4 1_555 1_555
C6 C1 1_555 1_555
H3 C6 1_555 1_555
C7 C5 1_555 1_555
C8 N2 1_555 1_555
H4 C8 1_555 1_555
C9 N1 1_555 1_555
C10 S1 1_555 1_555
C11 C10 1_555 1_555
H5 C11 1_555 1_555
C12 C11 1_555 1_555
H6 C12 1_555 1_555
C13 C12 1_555 1_555
C14 C13 1_555 1_555
H7 C14 1_555 1_555
C15 C10 1_555 1_555
H8 C15 1_555 1_555
C16 C13 1_555 1_555
H9 C16 1_555 1_555
H10 C16 1_555 1_555
H11 C16 1_555 1_555
C17 N1 1_555 1_555
H12 C17 1_555 1_555
H13 C17 1_555 1_555
H14 C17 1_555 1_555
C18 C7 1_555 1_555
H15 C18 1_555 1_555
H16 C18 1_555 1_555
H17 C18 1_555 1_555
C19 C7 1_555 1_555
H18 C19 1_555 1_555
H19 C19 1_555 1_555
H20 C19 1_555 1_555
C20 C1 1_555 1_555
C21 O2 1_555 1_555
H21 C21 1_555 1_555
H22 C21 1_555 1_555
H23 C21 1_555 1_555
H24 N2 1_555 1_555
C5 C6 1_555 1_555
C7 C8 1_555 1_555
C8 C9 1_555 1_555
C14 C15 1_555 1_555

#END
