
#######################################################################
#
#                 Cambridge Crystallographic Data Centre
#                                CCDC 
#
#######################################################################
#
# If this CIF has been generated from an entry in the Cambridge 
# Structural Database, then it will include bibliographic, chemical, 
# crystal, experimental, refinement or atomic coordinate data resulting 
# from the CCDC's data processing and validation procedures.
#
#######################################################################

data_OSEVOZ
_chemical_formula_moiety         'C20 H12 N2 O1 S2'
_chemical_name_systematic        2,6-bis(1,3-benzothiazol-2-yl)phenol
_symmetry_cell_setting           orthorhombic
_symmetry_space_group_name_H-M   'P b c a'
_symmetry_Int_Tables_number      61
_space_group_name_Hall           '-P 2ac 2ab'
loop_
_symmetry_equiv_pos_site_id
_symmetry_equiv_pos_as_xyz
1 x,y,z
2 1/2-x,-y,1/2+z
3 1/2+x,1/2-y,-z
4 -x,1/2+y,1/2-z
5 -x,-y,-z
6 1/2+x,y,1/2-z
7 1/2-x,1/2+y,z
8 x,1/2-y,1/2+z
_cell_length_a                   7.38990(10)
_cell_length_b                   13.5531(2)
_cell_length_c                   32.123(2)
_cell_angle_alpha                90
_cell_angle_beta                 90
_cell_angle_gamma                90
_cell_volume                     3217.31
_exptl_crystal_colour            colorless
_cell_formula_units_Z            8
loop_
_atom_site_label
_atom_site_type_symbol
_atom_site_fract_x
_atom_site_fract_y
_atom_site_fract_z
S1 S 0.19010(18) 0.14804(9) 0.15627(3)
S2 S 0.03998(19) -0.11502(9) 0.34714(4)
O1 O 0.1726(5) 0.0836(2) 0.23537(9)
H1 H 0.1806 0.0939 0.2605
N1 N 0.1525(5) 0.0485(3) 0.31481(12)
N2 N 0.1109(6) -0.0081(3) 0.11338(12)
C1 C 0.0750(6) -0.0742(3) 0.26190(14)
C2 C 0.1277(6) 0.0248(4) 0.15147(14)
C3 C 0.0975(6) -0.0211(4) 0.38045(14)
C4 C 0.1453(7) 0.0663(4) 0.08521(14)
C5 C 0.0920(6) -0.0406(3) 0.18754(14)
C6 C 0.2063(7) 0.1477(4) 0.37814(16)
H2 H 0.2463 0.2024 0.3632
C7 C 0.1145(7) -0.0094(3) 0.22891(14)
C8 C 0.2300(7) 0.2403(4) 0.07805(15)
H3 H 0.2608 0.3006 0.0898
C9 C 0.0368(7) -0.1369(4) 0.18026(16)
H4 H 0.0237 -0.1586 0.1530
C10 C 0.1917(7) 0.1575(4) 0.10267(14)
C11 C 0.1541(6) 0.0620(4) 0.35761(14)
C12 C 0.0205(7) -0.1692(4) 0.25287(16)
H5 H -0.0035 -0.2126 0.2746
C13 C 0.1979(8) 0.1502(5) 0.42102(16)
H6 H 0.2307 0.2074 0.4351
C14 C 0.2198(8) 0.2278(4) 0.03534(16)
H7 H 0.2436 0.2814 0.0181
C15 C 0.1396(7) 0.0574(4) 0.04193(16)
H8 H 0.1117 -0.0029 0.0297
C16 C 0.0952(6) -0.0406(3) 0.30492(14)
C17 C 0.1414(8) 0.0690(5) 0.44325(17)
H9 H 0.1385 0.0723 0.4722
C18 C 0.0010(7) -0.2011(4) 0.21252(15)
H10 H -0.0359 -0.2654 0.2070
C19 C 0.0891(8) -0.0169(4) 0.42382(16)
H11 H 0.0492 -0.0708 0.4392
C20 C 0.1752(8) 0.1379(5) 0.01761(17)
H12 H 0.1694 0.1322 -0.0112
loop_
_geom_bond_atom_site_label_1
_geom_bond_atom_site_label_2
_geom_bond_site_symmetry_1
_geom_bond_site_symmetry_2
S1 C2 1_555 1_555
S2 C3 1_555 1_555
O1 H1 1_555 1_555
N1 C11 1_555 1_555
N2 C2 1_555 1_555
C1 C7 1_555 1_555
C2 C5 1_555 1_555
C3 C11 1_555 1_555
C4 N2 1_555 1_555
C5 C7 1_555 1_555
C6 H2 1_555 1_555
C7 O1 1_555 1_555
C8 H3 1_555 1_555
C9 C5 1_555 1_555
H4 C9 1_555 1_555
C10 S1 1_555 1_555
C11 C6 1_555 1_555
C12 C1 1_555 1_555
H5 C12 1_555 1_555
C13 C6 1_555 1_555
H6 C13 1_555 1_555
C14 C8 1_555 1_555
H7 C14 1_555 1_555
C15 C4 1_555 1_555
H8 C15 1_555 1_555
C16 S2 1_555 1_555
C17 C13 1_555 1_555
H9 C17 1_555 1_555
C18 C9 1_555 1_555
H10 C18 1_555 1_555
C19 C3 1_555 1_555
H11 C19 1_555 1_555
C20 C14 1_555 1_555
H12 C20 1_555 1_555
N1 C16 1_555 1_555
C1 C16 1_555 1_555
C4 C10 1_555 1_555
C8 C10 1_555 1_555
C12 C18 1_555 1_555
C15 C20 1_555 1_555
C17 C19 1_555 1_555

#END
