
#######################################################################
#
#                 Cambridge Crystallographic Data Centre
#                                CCDC 
#
#######################################################################
#
# If this CIF has been generated from an entry in the Cambridge 
# Structural Database, then it will include bibliographic, chemical, 
# crystal, experimental, refinement or atomic coordinate data resulting 
# from the CCDC's data processing and validation procedures.
#
#######################################################################

data_OSEYIW
_chemical_formula_moiety         'C15 H12 N2 O2 S1'
_chemical_name_systematic        N-(2-(1,3-benzothiazol-2-yl)phenoxy)acetamide
_symmetry_cell_setting           orthorhombic
_symmetry_space_group_name_H-M   'P 21 21 21'
_symmetry_Int_Tables_number      19
_space_group_name_Hall           'P 2ac 2ab'
loop_
_symmetry_equiv_pos_site_id
_symmetry_equiv_pos_as_xyz
1 x,y,z
2 1/2-x,-y,1/2+z
3 -x,1/2+y,1/2-z
4 1/2+x,1/2-y,-z
_cell_length_a                   4.7941(7)
_cell_length_b                   15.333(2)
_cell_length_c                   17.698(3)
_cell_angle_alpha                90
_cell_angle_beta                 90
_cell_angle_gamma                90
_cell_volume                     1300.94
_exptl_crystal_colour            colorless
_exptl_crystal_description       block
_cell_formula_units_Z            4
_chemical_properties_physical    'Hygroscopic, Heat-sensitive'
_exptl_crystal_recrystallization_method dichloromethane
loop_
_atom_site_label
_atom_site_type_symbol
_atom_site_fract_x
_atom_site_fract_y
_atom_site_fract_z
S1 S 0.9265(3) 0.41953(9) 0.84670(6)
N1 N 1.1126(9) 0.5753(3) 0.8778(2)
N2 N 0.4341(9) 0.4046(3) 0.6778(2)
H1 H 0.2605 0.4090 0.6621
O1 O 0.5315(8) 0.4508(2) 0.74160(16)
O2 O 0.8747(8) 0.3577(2) 0.6546(2)
C1 C 1.1782(11) 0.4297(3) 0.9166(2)
C2 C 1.3001(11) 0.3643(4) 0.9611(3)
H2 H 1.2470 0.3049 0.9556
C3 C 1.5006(12) 0.3889(4) 1.0135(3)
H3 H 1.5859 0.3459 1.0443
C4 C 1.5791(12) 0.4766(3) 1.0214(3)
H4 H 1.7200 0.4917 1.0568
C5 C 1.4555(11) 0.5415(4) 0.9786(2)
H5 H 1.5061 0.6009 0.9853
C6 C 1.2535(11) 0.5174(3) 0.9253(2)
C7 C 0.9395(11) 0.5335(3) 0.8334(2)
C8 C 0.7706(10) 0.5800(4) 0.7760(2)
C9 C 0.8101(11) 0.6702(3) 0.7666(3)
H6 H 0.9410 0.6996 0.7979
C10 C 0.6637(12) 0.7170(4) 0.7133(3)
H7 H 0.6947 0.7779 0.7080
C11 C 0.4699(12) 0.6750(4) 0.6671(3)
H8 H 0.3677 0.7074 0.6306
C12 C 0.4263(11) 0.5855(3) 0.6746(2)
H9 H 0.2955 0.5564 0.6431
C13 C 0.5759(11) 0.5393(3) 0.7285(2)
C14 C 0.6222(11) 0.3531(3) 0.6419(3)
C15 C 0.5002(12) 0.2943(4) 0.5826(2)
H10 H 0.2968 0.3007 0.5821
H11 H 0.5756 0.3101 0.5330
H12 H 0.5485 0.2336 0.5940
loop_
_geom_bond_atom_site_label_1
_geom_bond_atom_site_label_2
_geom_bond_site_symmetry_1
_geom_bond_site_symmetry_2
S1 C1 1_555 1_555
N1 C6 1_555 1_555
N2 H1 1_555 1_555
O1 N2 1_555 1_555
O2 C14 1_555 1_555
C1 C2 1_555 1_555
C2 H2 1_555 1_555
C3 C2 1_555 1_555
H3 C3 1_555 1_555
C4 C3 1_555 1_555
H4 C4 1_555 1_555
C5 C4 1_555 1_555
H5 C5 1_555 1_555
C6 C1 1_555 1_555
C7 S1 1_555 1_555
C8 C7 1_555 1_555
C9 C8 1_555 1_555
H6 C9 1_555 1_555
C10 C9 1_555 1_555
H7 C10 1_555 1_555
C11 C10 1_555 1_555
H8 C11 1_555 1_555
C12 C11 1_555 1_555
H9 C12 1_555 1_555
C13 O1 1_555 1_555
C14 N2 1_555 1_555
C15 C14 1_555 1_555
H10 C15 1_555 1_555
H11 C15 1_555 1_555
H12 C15 1_555 1_555
N1 C7 1_555 1_555
C5 C6 1_555 1_555
C8 C13 1_555 1_555
C12 C13 1_555 1_555

#END
