
#######################################################################
#
#                 Cambridge Crystallographic Data Centre
#                                CCDC 
#
#######################################################################
#
# If this CIF has been generated from an entry in the Cambridge 
# Structural Database, then it will include bibliographic, chemical, 
# crystal, experimental, refinement or atomic coordinate data resulting 
# from the CCDC's data processing and validation procedures.
#
#######################################################################

data_OSEZET
_chemical_formula_moiety         'C21 H14 N2 O2 S1'
_chemical_name_systematic        
2-(1,3-benzothiazol-2-yl)-6-(6-methyl-1,3-benzoxazol-2-yl)phenol
_symmetry_cell_setting           triclinic
_symmetry_space_group_name_H-M   'P -1'
_symmetry_Int_Tables_number      2
_space_group_name_Hall           '-P 1'
loop_
_symmetry_equiv_pos_site_id
_symmetry_equiv_pos_as_xyz
1 x,y,z
2 -x,-y,-z
_cell_length_a                   4.6897(7)
_cell_length_b                   12.449(3)
_cell_length_c                   15.119(4)
_cell_angle_alpha                109.35(2)
_cell_angle_beta                 96.794(16)
_cell_angle_gamma                99.101(16)
_cell_volume                     808.411
_cell_formula_units_Z            2
loop_
_atom_site_label
_atom_site_type_symbol
_atom_site_fract_x
_atom_site_fract_y
_atom_site_fract_z
S1 S 0.7132(4) 0.33417(18) 0.20185(15)
N1 N 0.7834(10) 0.1277(4) 0.1112(4)
O1 O -0.1544(9) 0.1306(4) 0.4630(3)
O2 O 0.3829(9) 0.3056(4) 0.3293(3)
H1 H 0.2888 0.3281 0.3745
N2 N 0.0541(9) 0.3263(4) 0.4656(3)
C1 C 0.3385(13) 0.1887(5) 0.3026(5)
C2 C 0.4717(13) 0.1272(5) 0.2278(5)
C3 C 0.4260(13) 0.0069(5) 0.2005(5)
H2 H 0.5132 -0.0351 0.1499
C4 C 0.2585(14) -0.0531(5) 0.2445(5)
H3 H 0.2340 -0.1353 0.2249
C5 C 0.1261(13) 0.0056(6) 0.3169(5)
H4 H 0.0089 -0.0365 0.3466
C6 C 0.1628(13) 0.1280(5) 0.3473(5)
C7 C 0.6567(13) 0.1864(6) 0.1793(4)
C8 C 0.9347(13) 0.2034(5) 0.0751(5)
C9 C 0.9147(15) 0.3208(6) 0.1182(6)
C10 C 1.0546(19) 0.4060(7) 0.0856(8)
H5 H 1.0428 0.4854 0.1130
C11 C 1.2095(19) 0.3696(10) 0.0125(8)
H6 H 1.3050 0.4256 -0.0104
C12 C 1.2293(18) 0.2585(8) -0.0271(6)
H7 H 1.3367 0.2378 -0.0775
C13 C 1.0992(15) 0.1738(7) 0.0029(5)
H8 H 1.1205 0.0957 -0.0251
C14 C 0.0223(13) 0.1896(5) 0.4219(4)
C15 C -0.2510(14) 0.2142(5) 0.5320(4)
C16 C -0.1259(17) 0.3243(6) 0.5308(6)
C17 C -0.166(2) 0.4258(8) 0.5920(7)
H9 H -0.0778 0.4998 0.5916
C18 C -0.337(2) 0.4132(7) 0.6520(7)
H10 H -0.3720 0.4828 0.6953
C19 C -0.4777(18) 0.3053(9) 0.6599(6)
C20 C -0.4306(15) 0.1989(7) 0.5934(5)
H11 H -0.5177 0.1241 0.5924
C21 C -0.645(2) 0.3045(8) 0.7345(7)
H12 H -0.5261 0.3552 0.7965
H13 H -0.6973 0.2249 0.7340
H14 H -0.8242 0.3329 0.7234
loop_
_geom_bond_atom_site_label_1
_geom_bond_atom_site_label_2
_geom_bond_site_symmetry_1
_geom_bond_site_symmetry_2
S1 C7 1_555 1_555
N1 C7 1_555 1_555
O1 C14 1_555 1_555
O2 H1 1_555 1_555
N2 C14 1_555 1_555
C1 O2 1_555 1_555
C2 C1 1_555 1_555
C3 C2 1_555 1_555
H2 C3 1_555 1_555
C4 C3 1_555 1_555
H3 C4 1_555 1_555
C5 C4 1_555 1_555
H4 C5 1_555 1_555
C6 C1 1_555 1_555
C7 C2 1_555 1_555
C8 N1 1_555 1_555
C9 S1 1_555 1_555
C10 C9 1_555 1_555
H5 C10 1_555 1_555
C11 C10 1_555 1_555
H6 C11 1_555 1_555
C12 C11 1_555 1_555
H7 C12 1_555 1_555
C13 C8 1_555 1_555
H8 C13 1_555 1_555
C14 C6 1_555 1_555
C15 O1 1_555 1_555
C16 N2 1_555 1_555
C17 C16 1_555 1_555
H9 C17 1_555 1_555
C18 C17 1_555 1_555
H10 C18 1_555 1_555
C19 C18 1_555 1_555
C20 C15 1_555 1_555
H11 C20 1_555 1_555
C21 C19 1_555 1_555
H12 C21 1_555 1_555
H13 C21 1_555 1_555
H14 C21 1_555 1_555
C5 C6 1_555 1_555
C8 C9 1_555 1_555
C12 C13 1_555 1_555
C15 C16 1_555 1_555
C19 C20 1_555 1_555

#END
