
#######################################################################
#
#                 Cambridge Crystallographic Data Centre
#                                CCDC 
#
#######################################################################
#
# If this CIF has been generated from an entry in the Cambridge 
# Structural Database, then it will include bibliographic, chemical, 
# crystal, experimental, refinement or atomic coordinate data resulting 
# from the CCDC's data processing and validation procedures.
#
#######################################################################

data_OSIGUU
_chemical_formula_moiety         'C9 H10 N6 O4'
_chemical_name_systematic        
'ethyl 1-(1-methyl-4-nitro-1H-imidazol-5-yl)-1H-1,2,3-triazole-4-carboxylate'
_symmetry_cell_setting           monoclinic
_symmetry_space_group_name_H-M   'P 21/c'
_symmetry_Int_Tables_number      14
_space_group_name_Hall           '-P 2ybc'
loop_
_symmetry_equiv_pos_site_id
_symmetry_equiv_pos_as_xyz
1 x,y,z
2 -x,1/2+y,1/2-z
3 -x,-y,-z
4 x,1/2-y,1/2+z
_cell_length_a                   5.2740(4)
_cell_length_b                   8.9695(5)
_cell_length_c                   26.0080(18)
_cell_angle_alpha                90
_cell_angle_beta                 92.6220(15)
_cell_angle_gamma                90
_cell_volume                     1229.02
_exptl_crystal_colour            colorless
_exptl_crystal_description       Plate
_cell_formula_units_Z            4
loop_
_atom_site_label
_atom_site_type_symbol
_atom_site_fract_x
_atom_site_fract_y
_atom_site_fract_z
O1 O 1.0819(2) 0.23443(12) 0.50244(4)
O2 O 0.7805(2) 0.39908(13) 0.47642(4)
N1 N 0.1671(2) 0.46011(15) 0.72785(5)
O3 O 0.5673(3) 0.64769(14) 0.64489(5)
N2 N 0.9275(2) 0.23602(15) 0.60093(5)
N3 N 0.8022(2) 0.24337(15) 0.64266(5)
N4 N 0.5856(2) 0.32383(13) 0.63064(5)
N5 N 0.3102(2) 0.24497(13) 0.69721(5)
C1 C 0.4184(3) 0.35504(16) 0.66985(5)
O4 O 0.3005(3) 0.73876(13) 0.69695(6)
C2 C 0.3296(3) 0.48557(17) 0.68955(6)
C3 C 0.7961(3) 0.31070(15) 0.56225(5)
N6 N 0.4015(3) 0.63382(15) 0.67596(5)
C4 C 0.5781(3) 0.36735(16) 0.58110(6)
H1 H 0.4505 0.4245 0.5632
C5 C 0.1610(3) 0.31371(17) 0.73135(6)
H2 H 0.0628 0.2615 0.7552
C6 C 0.8829(3) 0.32206(16) 0.50915(6)
C7 C 0.3272(3) 0.08387(17) 0.68865(6)
H3 H 0.2775 0.0613 0.6527
H4 H 0.2134 0.0320 0.7114
H5 H 0.5020 0.0506 0.6961
C8 C 1.1823(4) 0.2347(2) 0.45115(7)
H6 H 1.246(4) 0.335(2) 0.4417(8)
H7 H 1.043(4) 0.226(3) 0.4246(8)
C9 C 1.3577(7) 0.1008(4) 0.44905(15)
H8 H 1.4979 0.1124 0.4748
H9 H 1.4258 0.0937 0.4147
H10 H 1.2627 0.0099 0.4563
C10? C 1.0304(11) 0.1358(6) 0.41635(19)
H11? H 1.0186 0.0368 0.4320
H12? H 1.1122 0.1276 0.3834
H13? H 0.8597 0.1774 0.4106
loop_
_geom_bond_atom_site_label_1
_geom_bond_atom_site_label_2
_geom_bond_site_symmetry_1
_geom_bond_site_symmetry_2
O1 C6 1_555 1_555
O2 C6 1_555 1_555
N1 C2 1_555 1_555
O3 N6 1_555 1_555
N2 N3 1_555 1_555
N3 N4 1_555 1_555
N4 C1 1_555 1_555
N5 C1 1_555 1_555
C1 C2 1_555 1_555
O4 N6 1_555 1_555
C2 N6 1_555 1_555
C3 N2 1_555 1_555
C4 N4 1_555 1_555
H1 C4 1_555 1_555
C5 N1 1_555 1_555
H2 C5 1_555 1_555
C6 C3 1_555 1_555
C7 N5 1_555 1_555
H3 C7 1_555 1_555
H4 C7 1_555 1_555
H5 C7 1_555 1_555
C8 O1 1_555 1_555
H6 C8 1_555 1_555
H7 C8 1_555 1_555
C9 C8 1_555 1_555
H8 C9 1_555 1_555
H9 C9 1_555 1_555
H10 C9 1_555 1_555
N5 C5 1_555 1_555
C3 C4 1_555 1_555

#END
