
#######################################################################
#
#                 Cambridge Crystallographic Data Centre
#                                CCDC 
#
#######################################################################
#
# If this CIF has been generated from an entry in the Cambridge 
# Structural Database, then it will include bibliographic, chemical, 
# crystal, experimental, refinement or atomic coordinate data resulting 
# from the CCDC's data processing and validation procedures.
#
#######################################################################

data_OSILEJ
_chemical_formula_moiety         'C13 H12 Br1 N1 O4'
_chemical_name_systematic        
'ethyl 4-bromo-1-nitro-1,1a,6,6a-tetrahydrocyclopropa[a]indene-1-carboxylate'
_symmetry_cell_setting           orthorhombic
_symmetry_space_group_name_H-M   'P 21 21 21'
_symmetry_Int_Tables_number      19
_space_group_name_Hall           'P 2ac 2ab'
loop_
_symmetry_equiv_pos_site_id
_symmetry_equiv_pos_as_xyz
1 x,y,z
2 1/2-x,-y,1/2+z
3 -x,1/2+y,1/2-z
4 1/2+x,1/2-y,-z
_cell_length_a                   9.785(5)
_cell_length_b                   11.138(5)
_cell_length_c                   12.988(6)
_cell_angle_alpha                90
_cell_angle_beta                 90
_cell_angle_gamma                90
_cell_volume                     1415.5
_exptl_crystal_colour            colorless
_exptl_crystal_description       prismatic
_cell_formula_units_Z            4
loop_
_atom_site_label
_atom_site_type_symbol
_atom_site_fract_x
_atom_site_fract_y
_atom_site_fract_z
Br1 Br 1.07656(6) 0.40367(6) 0.83927(5)
N1 N 0.2917(4) 0.1570(4) 0.7802(4)
O1 O 0.4530(4) 0.3872(3) 0.6836(3)
O2 O 0.5353(4) 0.2077(3) 0.6425(3)
O3 O 0.2378(4) 0.1684(4) 0.6951(3)
O4 O 0.2435(4) 0.0976(3) 0.8501(3)
C1 C 0.6584(4) 0.2084(4) 0.8642(3)
C2 C 0.7738(4) 0.1442(4) 0.8349(4)
H1 H 0.7672 0.0624 0.8213
C3 C 0.8972(4) 0.2012(4) 0.8261(4)
H2 H 0.9749 0.1587 0.8068
C4 C 0.9044(4) 0.3235(4) 0.8463(3)
C5 C 0.7922(5) 0.3893(5) 0.8761(3)
H3 H 0.7998 0.4710 0.8895
C6 C 0.6689(5) 0.3319(4) 0.8856(3)
C7 C 0.5315(5) 0.3816(4) 0.9164(4)
H4 H 0.5056 0.4481 0.8724
H5 H 0.5327 0.4089 0.9874
C8 C 0.4339(5) 0.2768(4) 0.9032(3)
H6 H 0.3578 0.2684 0.9517
C9 C 0.5164(4) 0.1670(4) 0.8765(3)
H7 H 0.4959 0.0889 0.9077
C10 C 0.4195(5) 0.2237(4) 0.7977(3)
C11 C 0.4693(5) 0.2836(5) 0.7019(4)
C12 C 0.5899(15) 0.2424(13) 0.5424(13)
H8 H 0.5394 0.3095 0.5138
H9 H 0.5868 0.1759 0.4943
C13 C 0.7415(16) 0.2791(18) 0.5674(11)
H10 H 0.7435 0.3260 0.6293
H11 H 0.7778 0.3255 0.5114
H12 H 0.7958 0.2080 0.5765
C14? C 0.615(2) 0.2781(19) 0.5595(18)
H13? H 0.6822 0.3322 0.5888
H14? H 0.5552 0.3215 0.5130
C15? C 0.682(2) 0.1655(18) 0.5076(16)
H15? H 0.7587 0.1397 0.5478
H16? H 0.7115 0.1860 0.4395
H17? H 0.6158 0.1018 0.5039
loop_
_geom_bond_atom_site_label_1
_geom_bond_atom_site_label_2
_geom_bond_site_symmetry_1
_geom_bond_site_symmetry_2
Br1 C4 1_555 1_555
N1 O3 1_555 1_555
O1 C11 1_555 1_555
O2 C11 1_555 1_555
O4 N1 1_555 1_555
C1 C2 1_555 1_555
C2 H1 1_555 1_555
C3 C2 1_555 1_555
H2 C3 1_555 1_555
C4 C3 1_555 1_555
C5 C4 1_555 1_555
H3 C5 1_555 1_555
C6 C1 1_555 1_555
C7 C6 1_555 1_555
H4 C7 1_555 1_555
H5 C7 1_555 1_555
C8 C7 1_555 1_555
H6 C8 1_555 1_555
C9 C1 1_555 1_555
H7 C9 1_555 1_555
C10 N1 1_555 1_555
C11 C10 1_555 1_555
C12 O2 1_555 1_555
H8 C12 1_555 1_555
H9 C12 1_555 1_555
C13 C12 1_555 1_555
H10 C13 1_555 1_555
H11 C13 1_555 1_555
H12 C13 1_555 1_555
C5 C6 1_555 1_555
C8 C9 1_555 1_555
C8 C10 1_555 1_555
C9 C10 1_555 1_555

#END
