
#######################################################################
#
#                 Cambridge Crystallographic Data Centre
#                                CCDC 
#
#######################################################################
#
# If this CIF has been generated from an entry in the Cambridge 
# Structural Database, then it will include bibliographic, chemical, 
# crystal, experimental, refinement or atomic coordinate data resulting 
# from the CCDC's data processing and validation procedures.
#
#######################################################################

data_OSILIN
_chemical_formula_moiety         'C24 H28 O8'
_chemical_name_systematic        
'ethyl 1-(2-ethoxy-2-oxoethyl)-5-hydroxy-3-(4-hydroxy-3-methoxyphenyl)-6-methoxyindane-2-carboxylate'
_symmetry_cell_setting           monoclinic
_symmetry_space_group_name_H-M   'P 2/c'
_symmetry_Int_Tables_number      13
_space_group_name_Hall           '-P 2yc'
loop_
_symmetry_equiv_pos_site_id
_symmetry_equiv_pos_as_xyz
1 x,y,z
2 -x,y,1/2-z
3 -x,-y,-z
4 x,-y,1/2+z
_cell_length_a                   18.879(6)
_cell_length_b                   6.5980(16)
_cell_length_c                   20.643(5)
_cell_angle_alpha                90
_cell_angle_beta                 112.453(12)
_cell_angle_gamma                90
_cell_volume                     2376.44
_exptl_crystal_colour            colorless
_exptl_crystal_description       prism
_cell_formula_units_Z            4
loop_
_atom_site_label
_atom_site_type_symbol
_atom_site_fract_x
_atom_site_fract_y
_atom_site_fract_z
O1 O 0.10467(11) 0.3620(2) 0.74977(9)
O2 O 0.15842(13) 0.0079(2) 0.80997(9)
O3 O 0.04286(11) 0.6848(2) 0.35338(8)
O4 O -0.01016(11) 0.3695(2) 0.40261(10)
O5 O 0.4346(2) -0.0901(5) 0.81332(17)
O6 O 0.3801(2) -0.3514(5) 0.74537(15)
O7 O 0.37409(15) 0.2244(3) 0.55083(14)
O8 O 0.33882(17) -0.0845(3) 0.51411(16)
C1 C 0.15268(15) 0.2517(3) 0.72734(11)
C2 C 0.18089(16) 0.0640(3) 0.75663(11)
C3 C 0.22663(15) -0.0494(3) 0.73213(12)
C4 C 0.24476(14) 0.0291(3) 0.67713(11)
C5 C 0.21760(14) 0.2171(3) 0.64920(11)
C6 C 0.17163(15) 0.3298(3) 0.67396(12)
C7 C 0.24662(14) 0.2739(3) 0.59330(11)
C8 C 0.27268(15) 0.0668(3) 0.57583(12)
C9 C 0.29502(15) -0.0624(3) 0.64300(13)
C10 C 0.19101(14) 0.3839(3) 0.53005(11)
C11 C 0.11528(15) 0.3212(3) 0.49813(11)
C12 C 0.06514(15) 0.4188(3) 0.43885(12)
C13 C 0.09090(16) 0.5838(3) 0.41151(11)
C14 C 0.16564(17) 0.6460(3) 0.44270(12)
C15 C 0.21593(16) 0.5469(3) 0.50159(12)
C16 C 0.33370(17) 0.0834(4) 0.54596(15)
C17 C 0.37994(18) -0.0440(5) 0.68998(17)
C18 C 0.4023(2) -0.1595(7) 0.7566(2)
C19 C -0.0384(2) 0.1934(5) 0.4232(2)
C20 C 0.1812(3) -0.1844(5) 0.8413(2)
C21 C 0.3985(3) -0.0944(7) 0.4858(3)
C22 C 0.3934(4) -0.4894(12) 0.8080(3)
C23 C 0.4233(5) -0.2829(14) 0.4882(6)
C24 C 0.4677(7) -0.5539(18) 0.8233(5)
H1 H 0.2454 -0.1780 0.7519
H2 H 0.1534 0.4592 0.6546
H3 H 0.2907 0.3568 0.6140
H4 H 0.2293 0.0045 0.5413
H5 H 0.2820 -0.2005 0.6316
H6 H 0.0977 0.2101 0.5172
H7 H 0.1831 0.7580 0.4239
H8 H 0.2678 0.5900 0.5225
H9 H 0.3782 -0.0486 0.4386
H10 H 0.4402 -0.0104 0.5127
H11 H 0.3886 -0.4175 0.8460
H12 H 0.3585 -0.6001 0.7956
H13 H 0.0975 0.2863 0.7919
H14 H -0.0880 0.1639 0.3892
H15 H -0.0048 0.0839 0.4256
H16 H 0.1596 -0.2079 0.8753
H17 H -0.0414 0.2122 0.4677
H18 H -0.0137 0.6207 0.3269
H19 H 0.4094 -0.0926 0.6648
H20 H 0.1635 -0.2848 0.8057
H21 H 0.2355 -0.1907 0.8630
H22 H 0.3912 0.0952 0.7010
H23 H 0.4648 -0.3060 0.5315
H24 H 0.4397 -0.3045 0.4507
H25 H 0.3826 -0.3737 0.4840
H26 H 0.4674 -0.6740 0.7978
H27 H 0.4914 -0.5806 0.8721
H28 H 0.4956 -0.4512 0.8109
loop_
_geom_bond_atom_site_label_1
_geom_bond_atom_site_label_2
_geom_bond_site_symmetry_1
_geom_bond_site_symmetry_2
O1 C1 1_555 1_555
O2 C2 1_555 1_555
O3 C13 1_555 1_555
O4 C12 1_555 1_555
O5 C18 1_555 1_555
O6 C18 1_555 1_555
O7 C16 1_555 1_555
O8 C16 1_555 1_555
C1 C2 1_555 1_555
C2 C3 1_555 1_555
C3 C4 1_555 1_555
C4 C5 1_555 1_555
C5 C6 1_555 1_555
C6 C1 1_555 1_555
C7 C5 1_555 1_555
C8 C7 1_555 1_555
C9 C4 1_555 1_555
C10 C7 1_555 1_555
C11 C10 1_555 1_555
C12 C11 1_555 1_555
C13 C12 1_555 1_555
C14 C13 1_555 1_555
C15 C10 1_555 1_555
C16 C8 1_555 1_555
C17 C9 1_555 1_555
C18 C17 1_555 1_555
C19 O4 1_555 1_555
C20 O2 1_555 1_555
C21 O8 1_555 1_555
C22 O6 1_555 1_555
C23 C21 1_555 1_555
C24 C22 1_555 1_555
H1 C3 1_555 1_555
H2 C6 1_555 1_555
H3 C7 1_555 1_555
H4 C8 1_555 1_555
H5 C9 1_555 1_555
H6 C11 1_555 1_555
H7 C14 1_555 1_555
H8 C15 1_555 1_555
H9 C21 1_555 1_555
H10 C21 1_555 1_555
H11 C22 1_555 1_555
H12 C22 1_555 1_555
H13 O1 1_555 1_555
H14 C19 1_555 1_555
H15 C19 1_555 1_555
H16 C20 1_555 1_555
H17 C19 1_555 1_555
H18 O3 1_555 1_555
H19 C17 1_555 1_555
H20 C20 1_555 1_555
H21 C20 1_555 1_555
H22 C17 1_555 1_555
H23 C23 1_555 1_555
H24 C23 1_555 1_555
H25 C23 1_555 1_555
H26 C24 1_555 1_555
H27 C24 1_555 1_555
H28 C24 1_555 1_555
C8 C9 1_555 1_555
C14 C15 1_555 1_555

#END
