
#######################################################################
#
#                 Cambridge Crystallographic Data Centre
#                                CCDC 
#
#######################################################################
#
# If this CIF has been generated from an entry in the Cambridge 
# Structural Database, then it will include bibliographic, chemical, 
# crystal, experimental, refinement or atomic coordinate data resulting 
# from the CCDC's data processing and validation procedures.
#
#######################################################################

data_OSILUZ
_chemical_formula_moiety         'C15 H17 N1 O4'
_chemical_name_systematic        
'ethyl 2-methyl-1-nitro-3-(2-phenylvinyl)cyclopropanecarboxylate'
_symmetry_cell_setting           orthorhombic
_symmetry_space_group_name_H-M   'P 21 21 21'
_symmetry_Int_Tables_number      19
_space_group_name_Hall           'P 2ac 2ab'
loop_
_symmetry_equiv_pos_site_id
_symmetry_equiv_pos_as_xyz
1 x,y,z
2 1/2+x,1/2-y,-z
3 -x,1/2+y,1/2-z
4 1/2-x,-y,1/2+z
_cell_length_a                   6.4861(8)
_cell_length_b                   11.1688(13)
_cell_length_c                   19.665(2)
_cell_angle_alpha                90
_cell_angle_beta                 90
_cell_angle_gamma                90
_cell_volume                     1424.57
_exptl_crystal_colour            colorless
_exptl_crystal_description       Block
_cell_formula_units_Z            4
_exptl_crystal_recrystallization_method 'Petroleum ether'
loop_
_atom_site_label
_atom_site_type_symbol
_atom_site_fract_x
_atom_site_fract_y
_atom_site_fract_z
N1 N -0.2541(3) -0.13708(18) 0.74695(10)
O1 O 0.0719(3) -0.21986(18) 0.84877(9)
O2 O -0.1497(3) -0.10646(16) 0.90636(8)
O3 O -0.2949(3) -0.09959(18) 0.69022(8)
O4 O -0.3347(3) -0.22436(15) 0.77340(11)
C1 C -0.2998(4) 0.39478(19) 0.93334(11)
H1 H -0.4289 0.3937 0.9105
C2 C -0.2708(4) 0.4712(2) 0.98815(12)
H2 H -0.3808 0.5208 1.0031
C3 C -0.0836(5) 0.4756(2) 1.02100(12)
H3 H -0.0640 0.5285 1.0582
C4 C 0.0754(4) 0.4026(2) 0.99957(11)
H4 H 0.2048 0.4054 1.0222
C5 C 0.0470(4) 0.32545(19) 0.94533(11)
H5 H 0.1577 0.2758 0.9310
C6 C -0.1414(3) 0.31954(17) 0.91147(10)
C7 C -0.1789(3) 0.23692(18) 0.85466(10)
H6 H -0.2926 0.2536 0.8257
C8 C -0.0663(3) 0.14098(18) 0.84065(10)
H7 H 0.0438 0.1209 0.8704
C9 C -0.1041(3) 0.06408(18) 0.78110(11)
H8 H -0.2092 0.0956 0.7485
C10 C -0.1000(3) -0.07230(18) 0.78768(10)
C11 C 0.0663(3) -0.00830(19) 0.74871(11)
H9 H 0.0549 -0.0161 0.6982
C12 C 0.2835(4) -0.0077(2) 0.77499(14)
H10 H 0.3474 -0.0858 0.7663
H11 H 0.2825 0.0080 0.8240
H12 H 0.3624 0.0550 0.7518
C13 C -0.0656(3) -0.13397(19) 0.85496(11)
C14 C 0.1127(6) -0.2903(3) 0.91001(16)
H13 H 0.0849 -0.2413 0.9509
H14 H 0.0208 -0.3611 0.9111
C15 C 0.3251(6) -0.3286(3) 0.90988(18)
H15 H 0.4150 -0.2588 0.9042
H16 H 0.3477 -0.3846 0.8723
H17 H 0.3569 -0.3683 0.9531
loop_
_geom_bond_atom_site_label_1
_geom_bond_atom_site_label_2
_geom_bond_site_symmetry_1
_geom_bond_site_symmetry_2
N1 O3 1_555 1_555
O1 C13 1_555 1_555
O2 C13 1_555 1_555
O4 N1 1_555 1_555
C1 H1 1_555 1_555
C2 C1 1_555 1_555
H2 C2 1_555 1_555
C3 C2 1_555 1_555
H3 C3 1_555 1_555
C4 C3 1_555 1_555
H4 C4 1_555 1_555
C5 C4 1_555 1_555
H5 C5 1_555 1_555
C6 C1 1_555 1_555
C7 C6 1_555 1_555
H6 C7 1_555 1_555
C8 C7 1_555 1_555
H7 C8 1_555 1_555
C9 C8 1_555 1_555
H8 C9 1_555 1_555
C10 N1 1_555 1_555
C11 C9 1_555 1_555
H9 C11 1_555 1_555
C12 C11 1_555 1_555
H10 C12 1_555 1_555
H11 C12 1_555 1_555
H12 C12 1_555 1_555
C13 C10 1_555 1_555
C14 O1 1_555 1_555
H13 C14 1_555 1_555
H14 C14 1_555 1_555
C15 C14 1_555 1_555
H15 C15 1_555 1_555
H16 C15 1_555 1_555
H17 C15 1_555 1_555
C5 C6 1_555 1_555
C9 C10 1_555 1_555
C10 C11 1_555 1_555

#END
