
#######################################################################
#
#                 Cambridge Crystallographic Data Centre
#                                CCDC 
#
#######################################################################
#
# If this CIF has been generated from an entry in the Cambridge 
# Structural Database, then it will include bibliographic, chemical, 
# crystal, experimental, refinement or atomic coordinate data resulting 
# from the CCDC's data processing and validation procedures.
#
#######################################################################

data_OSOGUA
_chemical_formula_moiety         'C27 H33 N2 O4 1+,F6 P1 1-'
_chemical_name_systematic        
'2-(2-(4-(bis(2-ethoxy-2-oxoethyl)amino)phenyl)vinyl)-1,3,3-trimethyl-3H-indolium hexafluorophosphate'
_symmetry_cell_setting           triclinic
_symmetry_space_group_name_H-M   'P -1'
_symmetry_Int_Tables_number      2
_space_group_name_Hall           '-P 1'
loop_
_symmetry_equiv_pos_site_id
_symmetry_equiv_pos_as_xyz
1 x,y,z
2 -x,-y,-z
_cell_length_a                   10.820(6)
_cell_length_b                   11.364(7)
_cell_length_c                   12.581(7)
_cell_angle_alpha                90.262(7)
_cell_angle_beta                 91.648(7)
_cell_angle_gamma                112.836(7)
_cell_volume                     1424.89
_exptl_crystal_colour            red
_exptl_crystal_description       block
_cell_formula_units_Z            2
loop_
_atom_site_label
_atom_site_type_symbol
_atom_site_fract_x
_atom_site_fract_y
_atom_site_fract_z
C5 C 0.9711(18) 0.8361(15) 1.2838(17)
H11 H 0.8892 0.8467 1.2626
H12 H 0.9687 0.8187 1.3593
C6 C 1.0862(15) 0.9501(12) 1.2620(18)
H13 H 1.1648 0.9305 1.2612
H14 H 1.0973 1.0135 1.3161
H15 H 1.0730 0.9822 1.1940
C7 C 0.7469(18) 0.0339(14) 1.037(2)
H16 H 0.8032 0.0724 0.9781
H17 H 0.8052 0.0308 1.0964
C8 C 0.6642(19) -0.0880(13) 1.0090(19)
H18 H 0.6436 -0.1400 1.0711
H19 H 0.7080 -0.1218 0.9592
H20 H 0.5827 -0.0879 0.9768
C9 C 0.3688(5) 0.6928(4) 0.4012(3)
C10 C 0.2724(5) 0.6718(5) 0.3238(4)
H21 H 0.1902 0.6030 0.3257
C11 C 0.3030(6) 0.7584(6) 0.2419(4)
H22 H 0.2400 0.7483 0.1870
C12 C 0.4238(6) 0.8578(5) 0.2407(4)
H23 H 0.4420 0.9140 0.1843
C13 C 0.5189(5) 0.8779(5) 0.3191(4)
H24 H 0.6012 0.9466 0.3167
C14 C 0.4907(4) 0.7940(4) 0.4026(3)
C15 C 0.5704(4) 0.7907(4) 0.5000(3)
C16 C 0.4773(4) 0.6658(4) 0.5487(4)
C17 C 0.2446(5) 0.5074(4) 0.5138(4)
H25 H 0.2550 0.4753 0.5825
H26 H 0.2312 0.4424 0.4605
H27 H 0.1683 0.5308 0.5130
C18 C 0.7071(4) 0.7926(5) 0.4689(4)
H28 H 0.6940 0.7211 0.4225
H29 H 0.7570 0.7873 0.5318
H30 H 0.7558 0.8705 0.4330
C19 C 0.5851(5) 0.9010(4) 0.5744(4)
H31 H 0.6295 0.9802 0.5389
H32 H 0.6373 0.8980 0.6366
H33 H 0.4979 0.8945 0.5949
C20 C 0.4992(5) 0.6068(4) 0.6431(3)
H34 H 0.4312 0.5315 0.6638
C21 C 0.6124(5) 0.6538(4) 0.7041(4)
H35 H 0.6785 0.7294 0.6818
C22 C 0.6429(4) 0.6005(4) 0.7995(3)
C23 C 0.5620(5) 0.4826(4) 0.8391(4)
H36 H 0.4812 0.4350 0.8036
C24 C 0.5978(4) 0.4351(4) 0.9284(4)
H37 H 0.5402 0.3567 0.9534
C25 C 0.7192(4) 0.5014(4) 0.9831(3)
C26 C 0.8004(5) 0.6206(5) 0.9440(4)
H38 H 0.8805 0.6694 0.9799
C27 C 0.7631(5) 0.6655(5) 0.8540(4)
H39 H 0.8209 0.7432 0.8281
C28 C 0.6873(5) 0.3237(5) 1.1058(4)
H40 H 0.5928 0.2946 1.0856
H41 H 0.6948 0.3181 1.1824
C29 C 0.7473(6) 0.2394(5) 1.0529(4)
C30 C 0.8807(5) 0.5292(5) 1.1295(4)
H42 H 0.9491 0.5687 1.0781
H43 H 0.9090 0.4731 1.1727
C31 C 0.8677(5) 0.6296(5) 1.1984(4)
N1 N 0.3642(4) 0.6186(3) 0.4916(3)
N2 N 0.7560(4) 0.4553(4) 1.0744(3)
O1 O 0.8483(5) 0.2771(4) 1.0061(3)
O2 O 0.6749(4) 0.1180(4) 1.0689(4)
O3 O 0.7670(4) 0.6275(4) 1.2353(3)
O4 O 0.9834(4) 0.7225(4) 1.2188(3)
F1 F 0.8939(6) 0.1987(8) 0.2519(4)
F2 F 0.8529(6) 0.1029(5) 0.4005(8)
F3 F 0.9299(5) 0.2965(6) 0.4790(3)
F4 F 0.9615(5) 0.3787(4) 0.3323(5)
F5 F 1.0508(4) 0.2393(4) 0.3722(4)
F6 F 0.7629(4) 0.2398(5) 0.3556(4)
P1 P 0.90649(13) 0.23692(14) 0.36725(12)
C1? C 1.009(2) 0.8184(15) 1.3001(15)
H1? H 1.0962 0.8380 1.3343
H2? H 0.9412 0.7893 1.3536
C2? C 1.004(3) 0.9336(17) 1.246(2)
H3? H 1.0545 0.9484 1.1825
H4? H 1.0424 1.0066 1.2930
H5? H 0.9127 0.9198 1.2283
C3? C 0.714(3) 0.0221(18) 1.0151(18)
H6? H 0.6356 -0.0375 0.9768
H7? H 0.7796 0.0660 0.9627
C4? C 0.767(3) -0.047(2) 1.0776(15)
H8? H 0.8611 0.0008 1.0906
H9? H 0.7539 -0.1263 1.0417
H10? H 0.7224 -0.0653 1.1441
loop_
_geom_bond_atom_site_label_1
_geom_bond_atom_site_label_2
_geom_bond_site_symmetry_1
_geom_bond_site_symmetry_2
C5 H11 1_555 1_555
H12 C5 1_555 1_555
C6 C5 1_555 1_555
H13 C6 1_555 1_555
H14 C6 1_555 1_555
H15 C6 1_555 1_555
C7 H16 1_555 1_555
H17 C7 1_555 1_555
C8 C7 1_555 1_555
H18 C8 1_555 1_555
H19 C8 1_555 1_555
H20 C8 1_555 1_555
C9 C10 1_555 1_555
C10 H21 1_555 1_555
C11 C10 1_555 1_555
H22 C11 1_555 1_555
C12 C11 1_555 1_555
H23 C12 1_555 1_555
C13 C12 1_555 1_555
H24 C13 1_555 1_555
C14 C9 1_555 1_555
C15 C14 1_555 1_555
C16 C15 1_555 1_555
C17 H25 1_555 1_555
H26 C17 1_555 1_555
H27 C17 1_555 1_555
C18 C15 1_555 1_555
H28 C18 1_555 1_555
H29 C18 1_555 1_555
H30 C18 1_555 1_555
C19 C15 1_555 1_555
H31 C19 1_555 1_555
H32 C19 1_555 1_555
H33 C19 1_555 1_555
C20 C16 1_555 1_555
H34 C20 1_555 1_555
C21 C20 1_555 1_555
H35 C21 1_555 1_555
C22 C21 1_555 1_555
C23 C22 1_555 1_555
H36 C23 1_555 1_555
C24 C23 1_555 1_555
H37 C24 1_555 1_555
C25 C24 1_555 1_555
C26 C25 1_555 1_555
H38 C26 1_555 1_555
C27 C22 1_555 1_555
H39 C27 1_555 1_555
C28 H40 1_555 1_555
H41 C28 1_555 1_555
C29 C28 1_555 1_555
C30 H42 1_555 1_555
H43 C30 1_555 1_555
C31 C30 1_555 1_555
N1 C9 1_555 1_555
N2 C25 1_555 1_555
O1 C29 1_555 1_555
O2 C7 1_555 1_555
O3 C31 1_555 1_555
O4 C5 1_555 1_555
F1 P1 1_555 1_555
F2 P1 1_555 1_555
F3 P1 1_555 1_555
F4 P1 1_555 1_555
F5 P1 1_555 1_555
F6 P1 1_555 1_555
C13 C14 1_555 1_555
C16 N1 1_555 1_555
C17 N1 1_555 1_555
C26 C27 1_555 1_555
C28 N2 1_555 1_555
C29 O2 1_555 1_555
C30 N2 1_555 1_555
C31 O4 1_555 1_555

#END
