
#######################################################################
#
#                 Cambridge Crystallographic Data Centre
#                                CCDC 
#
#######################################################################
#
# If this CIF has been generated from an entry in the Cambridge 
# Structural Database, then it will include bibliographic, chemical, 
# crystal, experimental, refinement or atomic coordinate data resulting 
# from the CCDC's data processing and validation procedures.
#
#######################################################################

data_OSOMAL
_chemical_formula_moiety         'C19 H21 N1 O4'
_chemical_name_systematic        
3,9,10-Trimethoxy-5,6,7,11b-tetrahydro-6aH-indeno[2,1-c]quinolin-6a-ol
_chemical_properties_biological  'anticancer activity'
_symmetry_cell_setting           triclinic
_symmetry_space_group_name_H-M   'P -1'
_symmetry_Int_Tables_number      2
_space_group_name_Hall           '-P 1'
loop_
_symmetry_equiv_pos_site_id
_symmetry_equiv_pos_as_xyz
1 x,y,z
2 -x,-y,-z
_cell_length_a                   5.5042(16)
_cell_length_b                   9.642(3)
_cell_length_c                   15.981(5)
_cell_angle_alpha                74.599(4)
_cell_angle_beta                 89.334(4)
_cell_angle_gamma                83.860(4)
_cell_volume                     812.864
_exptl_crystal_colour            colorless
_exptl_crystal_description       block
_cell_formula_units_Z            2
loop_
_atom_site_label
_atom_site_type_symbol
_atom_site_fract_x
_atom_site_fract_y
_atom_site_fract_z
C1 C -0.0967(7) 0.0133(4) 0.3721(2)
H1 H -0.2180 0.0463 0.4054
C2 C 0.0024(7) 0.1079(4) 0.3021(2)
H2 H -0.0573 0.2053 0.2888
C3 C 0.1843(6) 0.0656(4) 0.2513(2)
C4 C 0.2715(7) -0.0822(4) 0.2709(2)
C5 C 0.1713(7) -0.1790(4) 0.3405(2)
H3 H 0.2271 -0.2769 0.3533
C6 C -0.0083(7) -0.1321(4) 0.3906(2)
C7 C 0.5952(7) -0.0263(4) 0.1664(2)
H4 H 0.6971 -0.0714 0.1289
H5 H 0.7012 0.0061 0.2037
C8 C 0.4339(7) 0.1016(4) 0.1119(2)
C9 C 0.5841(7) 0.2220(4) 0.0610(2)
H6 H 0.7474 0.1825 0.0502
H7 H 0.5047 0.2736 0.0060
C10 C 0.5918(6) 0.3202(3) 0.1207(2)
C11 C 0.2728(6) 0.1713(3) 0.1725(2)
H8 H 0.1274 0.2224 0.1386
C12 C 0.4249(6) 0.2859(3) 0.1866(2)
C13 C 0.4137(6) 0.3558(3) 0.2529(2)
H9 H 0.3051 0.3312 0.2981
C14 C 0.5650(6) 0.4616(3) 0.2507(2)
C15 C 0.7248(7) 0.5034(3) 0.1817(2)
C16 C 0.7387(7) 0.4318(4) 0.1167(2)
H10 H 0.8447 0.4578 0.0708
C17 C -0.3008(9) -0.2011(5) 0.5017(3)
H11 H -0.2655 -0.1332 0.5331
H12 H -0.3485 -0.2869 0.5416
H13 H -0.4315 -0.1585 0.4606
C18 C 0.7552(10) 0.4875(6) 0.3775(3)
H14 H 0.7729 0.3842 0.3998
H15 H 0.7251 0.5315 0.4245
H16 H 0.9024 0.5179 0.3489
C19 C 1.0321(8) 0.6575(4) 0.1184(3)
H17 H 1.1451 0.5759 0.1157
H18 H 1.1197 0.7307 0.1311
H19 H 0.9472 0.6959 0.0637
N1 N 0.4466(6) -0.1305(3) 0.2188(2)
H20 H 0.4661 -0.2196 0.2177
O1 O 0.5517(5) 0.5315(3) 0.31608(16)
O2 O 0.8589(5) 0.6127(3) 0.18557(17)
O3 O 0.2847(5) 0.0564(3) 0.05314(16)
H21 H 0.2562 -0.0272 0.0748
O4 O -0.0911(6) -0.2374(3) 0.45737(18)
loop_
_geom_bond_atom_site_label_1
_geom_bond_atom_site_label_2
_geom_bond_site_symmetry_1
_geom_bond_site_symmetry_2
C1 H1 1_555 1_555
C2 C1 1_555 1_555
H2 C2 1_555 1_555
C3 C2 1_555 1_555
C4 C3 1_555 1_555
C5 C4 1_555 1_555
H3 C5 1_555 1_555
C6 C1 1_555 1_555
C7 H4 1_555 1_555
H5 C7 1_555 1_555
C8 C7 1_555 1_555
C9 C8 1_555 1_555
H6 C9 1_555 1_555
H7 C9 1_555 1_555
C10 C9 1_555 1_555
C11 C3 1_555 1_555
H8 C11 1_555 1_555
C12 C10 1_555 1_555
C13 C12 1_555 1_555
H9 C13 1_555 1_555
C14 C13 1_555 1_555
C15 C14 1_555 1_555
C16 C10 1_555 1_555
H10 C16 1_555 1_555
C17 H11 1_555 1_555
H12 C17 1_555 1_555
H13 C17 1_555 1_555
C18 H14 1_555 1_555
H15 C18 1_555 1_555
H16 C18 1_555 1_555
C19 H17 1_555 1_555
H18 C19 1_555 1_555
H19 C19 1_555 1_555
N1 C4 1_555 1_555
H20 N1 1_555 1_555
O1 C14 1_555 1_555
O2 C15 1_555 1_555
O3 C8 1_555 1_555
H21 O3 1_555 1_555
O4 C6 1_555 1_555
C5 C6 1_555 1_555
C7 N1 1_555 1_555
C8 C11 1_555 1_555
C11 C12 1_555 1_555
C15 C16 1_555 1_555
C17 O4 1_555 1_555
C18 O1 1_555 1_555
C19 O2 1_555 1_555

#END
