
#######################################################################
#
#                 Cambridge Crystallographic Data Centre
#                                CCDC 
#
#######################################################################
#
# If this CIF has been generated from an entry in the Cambridge 
# Structural Database, then it will include bibliographic, chemical, 
# crystal, experimental, refinement or atomic coordinate data resulting 
# from the CCDC's data processing and validation procedures.
#
#######################################################################

data_OSORAQ
_chemical_formula_moiety         'C15 H23 Cl1 N2 S1 Si1'
_chemical_name_systematic        
1,3-Di-t-butyl-2-chloro-4-phenyl-2-thioxo-1,2-dihydro-1\l^5^,3,2-diazasiletene
_symmetry_cell_setting           monoclinic
_symmetry_space_group_name_H-M   'C 2/c'
_symmetry_Int_Tables_number      15
_space_group_name_Hall           '-C 2yn'
loop_
_symmetry_equiv_pos_site_id
_symmetry_equiv_pos_as_xyz
1 x,y,z
2 -x,y,1/2-z
3 1/2+x,1/2+y,z
4 1/2-x,1/2+y,1/2-z
5 -x,-y,-z
6 x,-y,1/2+z
7 1/2-x,1/2-y,-z
8 1/2+x,1/2-y,1/2+z
_cell_length_a                   14.4427(9)
_cell_length_b                   10.9192(7)
_cell_length_c                   12.7686(8)
_cell_angle_alpha                90
_cell_angle_beta                 117.510(3)
_cell_angle_gamma                90
_cell_volume                     1785.96
_exptl_crystal_colour            colorless
_exptl_crystal_description       block
_cell_formula_units_Z            4
_chemical_properties_physical    moisture-sensitive
loop_
_atom_site_label
_atom_site_type_symbol
_atom_site_fract_x
_atom_site_fract_y
_atom_site_fract_z
Si1 Si 1.0000 0.64849(7) 0.2500
C1 C 1.0000 0.4423(2) 0.2500
C2 C 1.0000 0.3073(3) 0.2500
C3 C 0.98059(17) 0.24298(17) 0.3332(2)
H1 H 0.9671 0.2859 0.3894
C4 C 0.98134(18) 0.1155(2) 0.3321(2)
H2 H 0.9689 0.0714 0.3885
C5 C 1.0000 0.0524(3) 0.2500
H3 H 1.0000 -0.0346 0.2500
C6 C 1.19031(16) 0.49252(18) 0.40195(19)
C7 C 1.23939(19) 0.3815(2) 0.3748(3)
H4 H 1.2011 0.3075 0.3750
H5 H 1.3124 0.3740 0.4350
H6 H 1.2363 0.3916 0.2970
C8 C 1.1876(2) 0.4769(3) 0.5191(2)
H7 H 1.1560 0.5496 0.5346
H8 H 1.2588 0.4667 0.5828
H9 H 1.1461 0.4044 0.5152
C9 C 1.25228(18) 0.6067(2) 0.4048(3)
H10 H 1.3219 0.6025 0.4728
H11 H 1.2159 0.6797 0.4116
H12 H 1.2589 0.6114 0.3319
Cl1 Cl 0.9763(5) 0.7285(3) 0.3711(5)
S1 S 1.0247(5) 0.7604(3) 0.1336(6)
N1 N 1.08258(13) 0.51523(14) 0.30757(15)
C3A C 1.01941(17) 0.24298(17) 0.1668(2)
H1A H 1.0329 0.2859 0.1106
C4A C 1.01866(18) 0.1155(2) 0.1679(2)
H2A H 1.0311 0.0714 0.1115
C6A C 0.80969(16) 0.49252(18) 0.09805(19)
C7A C 0.76061(19) 0.3815(2) 0.1252(3)
H4A H 0.7989 0.3075 0.1250
H5A H 0.6876 0.3740 0.0650
H6A H 0.7637 0.3916 0.2030
C8A C 0.8124(2) 0.4769(3) -0.0191(2)
H7A H 0.8440 0.5496 -0.0346
H8A H 0.7412 0.4667 -0.0828
H9A H 0.8539 0.4044 -0.0152
C9A C 0.74772(18) 0.6067(2) 0.0952(3)
H10A H 0.6781 0.6025 0.0272
H11A H 0.7841 0.6797 0.0884
H12A H 0.7411 0.6114 0.1681
Cl1A Cl 1.0237(5) 0.7285(3) 0.1289(5)
S1A S 0.9753(5) 0.7604(3) 0.3664(6)
N1A N 0.91742(13) 0.51523(14) 0.19243(15)
loop_
_geom_bond_atom_site_label_1
_geom_bond_atom_site_label_2
_geom_bond_site_symmetry_1
_geom_bond_site_symmetry_2
Si1 Cl1 1_555 1_555
C1 C2 1_555 1_555
C2 C3 1_555 1_555
C3 H1 1_555 1_555
C4 C3 1_555 1_555
H2 C4 1_555 1_555
C5 C4 1_555 1_555
H3 C5 1_555 1_555
C6 C7 1_555 1_555
C7 H4 1_555 1_555
H5 C7 1_555 1_555
H6 C7 1_555 1_555
C8 C6 1_555 1_555
H7 C8 1_555 1_555
H8 C8 1_555 1_555
H9 C8 1_555 1_555
C9 C6 1_555 1_555
H10 C9 1_555 1_555
H11 C9 1_555 1_555
H12 C9 1_555 1_555
S1 Si1 1_555 1_555
N1 Si1 1_555 1_555
C3A C2 1_555 1_555
H1A C3A 1_555 1_555
C4A C5 1_555 1_555
H2A C4A 1_555 1_555
C6A C7A 1_555 1_555
C7A H4A 1_555 1_555
H5A C7A 1_555 1_555
H6A C7A 1_555 1_555
C8A C6A 1_555 1_555
H7A C8A 1_555 1_555
H8A C8A 1_555 1_555
H9A C8A 1_555 1_555
C9A C6A 1_555 1_555
H10A C9A 1_555 1_555
H11A C9A 1_555 1_555
H12A C9A 1_555 1_555
Cl1A Si1 1_555 1_555
S1A Si1 1_555 1_555
N1A Si1 1_555 1_555
C1 N1 1_555 1_555
C1 N1A 1_555 1_555
C6 N1 1_555 1_555
C3A C4A 1_555 1_555
C6A N1A 1_555 1_555

#END
