
#######################################################################
#
#                 Cambridge Crystallographic Data Centre
#                                CCDC 
#
#######################################################################
#
# If this CIF has been generated from an entry in the Cambridge 
# Structural Database, then it will include bibliographic, chemical, 
# crystal, experimental, refinement or atomic coordinate data resulting 
# from the CCDC's data processing and validation procedures.
#
#######################################################################

data_OSORIY
_chemical_formula_moiety         'C30 H46 N4 Se2 Si2'
_chemical_name_systematic        
1,2-bis(1-t-Butylamido-1-t-butylimino-1-phenylmethane)-1,2-diselenoxodisilane
_symmetry_cell_setting           monoclinic
_symmetry_space_group_name_H-M   'C 2/c'
_symmetry_Int_Tables_number      15
_space_group_name_Hall           '-C 2yn'
loop_
_symmetry_equiv_pos_site_id
_symmetry_equiv_pos_as_xyz
1 x,y,z
2 -x,y,1/2-z
3 1/2+x,1/2+y,z
4 1/2-x,1/2+y,1/2-z
5 -x,-y,-z
6 x,-y,1/2+z
7 1/2-x,1/2-y,-z
8 1/2+x,1/2-y,1/2+z
_cell_length_a                   25.812(6)
_cell_length_b                   9.040(2)
_cell_length_c                   17.857(4)
_cell_angle_alpha                90
_cell_angle_beta                 127.016(7)
_cell_angle_gamma                90
_cell_volume                     3327.02
_exptl_crystal_colour            colorless
_exptl_crystal_description       plate
_chemical_melting_point          288.8deg.C
_cell_formula_units_Z            4
_chemical_properties_physical    'air- and moisture-sensitive'
loop_
_atom_site_label
_atom_site_type_symbol
_atom_site_fract_x
_atom_site_fract_y
_atom_site_fract_z
C1 C 0.0907(3) 0.1526(6) 0.4925(3)
C2 C 0.1571(3) 0.1571(8) 0.5870(4)
H1 H 0.1907 0.1406 0.5783
H2 H 0.1598 0.0796 0.6277
H3 H 0.1637 0.2540 0.6162
C3 C 0.0387(3) 0.2012(7) 0.5030(4)
H4 H 0.0471 0.3034 0.5259
H5 H 0.0398 0.1363 0.5479
H6 H -0.0040 0.1951 0.4421
C4 C 0.0759(3) -0.0004(6) 0.4507(4)
H7 H 0.0318 -0.0024 0.3918
H8 H 0.0792 -0.0718 0.4947
H9 H 0.1070 -0.0266 0.4385
C5 C 0.1086(2) 0.3914(6) 0.4307(3)
C6 C 0.1425(2) 0.4868(6) 0.5158(3)
C7 C 0.1058(3) 0.5729(6) 0.5328(4)
H10 H 0.0598 0.5682 0.4915
C8 C 0.1369(3) 0.6657(6) 0.6105(4)
H11 H 0.1121 0.7243 0.6227
C9 C 0.2033(3) 0.6724(7) 0.6695(4)
H12 H 0.2244 0.7365 0.7223
C10 C 0.2399(3) 0.5873(7) 0.6533(4)
H13 H 0.2859 0.5933 0.6947
C11 C 0.2098(3) 0.4931(6) 0.5769(4)
H14 H 0.2350 0.4332 0.5663
C12 C 0.1140(3) 0.5538(6) 0.3173(4)
C13 C 0.1116(3) 0.7006(6) 0.3564(4)
H15 H 0.0694 0.7117 0.3441
H16 H 0.1180 0.7815 0.3262
H17 H 0.1460 0.7034 0.4242
C14 C 0.0657(3) 0.5561(6) 0.2102(4)
H18 H 0.0647 0.4586 0.1854
H19 H 0.0791 0.6307 0.1852
H20 H 0.0223 0.5805 0.1914
C15 C 0.1824(3) 0.5205(7) 0.3487(4)
H21 H 0.2129 0.5242 0.4173
H22 H 0.1948 0.5942 0.3220
H23 H 0.1833 0.4217 0.3270
N1 N 0.0881(2) 0.2523(5) 0.4229(3)
N2 N 0.0920(2) 0.4290(5) 0.3466(3)
Se1 Se 0.10631(3) 0.10522(6) 0.26412(4)
Si1 Si 0.05783(7) 0.24500(17) 0.30036(10)
C1A C -0.0907(3) 0.1526(6) 0.0075(3)
C2A C -0.1571(3) 0.1571(8) -0.0870(4)
H1A H -0.1907 0.1406 -0.0783
H2A H -0.1598 0.0796 -0.1277
H3A H -0.1637 0.2540 -0.1162
C3A C -0.0387(3) 0.2012(7) -0.0030(4)
H4A H -0.0471 0.3034 -0.0259
H5A H -0.0398 0.1363 -0.0479
H6A H 0.0040 0.1951 0.0579
C4A C -0.0759(3) -0.0004(6) 0.0493(4)
H7A H -0.0318 -0.0024 0.1082
H8A H -0.0792 -0.0718 0.0053
H9A H -0.1070 -0.0266 0.0615
C5A C -0.1086(2) 0.3914(6) 0.0693(3)
C6A C -0.1425(2) 0.4868(6) -0.0158(3)
C7A C -0.1058(3) 0.5729(6) -0.0328(4)
H10A H -0.0598 0.5682 0.0085
C8A C -0.1369(3) 0.6657(6) -0.1105(4)
H11A H -0.1121 0.7243 -0.1227
C9A C -0.2033(3) 0.6724(7) -0.1695(4)
H12A H -0.2244 0.7365 -0.2223
C10A C -0.2399(3) 0.5873(7) -0.1533(4)
H13A H -0.2859 0.5933 -0.1947
C11A C -0.2098(3) 0.4931(6) -0.0769(4)
H14A H -0.2350 0.4332 -0.0663
C12A C -0.1140(3) 0.5538(6) 0.1827(4)
C13A C -0.1116(3) 0.7006(6) 0.1436(4)
H15A H -0.0694 0.7117 0.1559
H16A H -0.1180 0.7815 0.1738
H17A H -0.1460 0.7034 0.0758
C14A C -0.0657(3) 0.5561(6) 0.2898(4)
H18A H -0.0647 0.4586 0.3146
H19A H -0.0791 0.6307 0.3148
H20A H -0.0223 0.5805 0.3086
C15A C -0.1824(3) 0.5205(7) 0.1513(4)
H21A H -0.2129 0.5242 0.0827
H22A H -0.1948 0.5942 0.1780
H23A H -0.1833 0.4217 0.1730
N1A N -0.0881(2) 0.2523(5) 0.0771(3)
N2A N -0.0920(2) 0.4290(5) 0.1534(3)
Se1A Se -0.10631(3) 0.10522(6) 0.23588(4)
Si1A Si -0.05783(7) 0.24500(17) 0.19964(10)
loop_
_geom_bond_atom_site_label_1
_geom_bond_atom_site_label_2
_geom_bond_site_symmetry_1
_geom_bond_site_symmetry_2
C1 C2 1_555 1_555
C2 H1 1_555 1_555
H2 C2 1_555 1_555
H3 C2 1_555 1_555
C3 C1 1_555 1_555
H4 C3 1_555 1_555
H5 C3 1_555 1_555
H6 C3 1_555 1_555
C4 C1 1_555 1_555
H7 C4 1_555 1_555
H8 C4 1_555 1_555
H9 C4 1_555 1_555
C5 C6 1_555 1_555
C6 C7 1_555 1_555
C7 H10 1_555 1_555
C8 C7 1_555 1_555
H11 C8 1_555 1_555
C9 C8 1_555 1_555
H12 C9 1_555 1_555
C10 C9 1_555 1_555
H13 C10 1_555 1_555
C11 C6 1_555 1_555
H14 C11 1_555 1_555
C12 C13 1_555 1_555
C13 H15 1_555 1_555
H16 C13 1_555 1_555
H17 C13 1_555 1_555
C14 C12 1_555 1_555
H18 C14 1_555 1_555
H19 C14 1_555 1_555
H20 C14 1_555 1_555
C15 C12 1_555 1_555
H21 C15 1_555 1_555
H22 C15 1_555 1_555
H23 C15 1_555 1_555
N1 C1 1_555 1_555
N2 C5 1_555 1_555
Se1 Si1 1_555 1_555
Si1 N1 1_555 1_555
C1A C2A 1_555 1_555
C2A H1A 1_555 1_555
H2A C2A 1_555 1_555
H3A C2A 1_555 1_555
C3A C1A 1_555 1_555
H4A C3A 1_555 1_555
H5A C3A 1_555 1_555
H6A C3A 1_555 1_555
C4A C1A 1_555 1_555
H7A C4A 1_555 1_555
H8A C4A 1_555 1_555
H9A C4A 1_555 1_555
C5A C6A 1_555 1_555
C6A C7A 1_555 1_555
C7A H10A 1_555 1_555
C8A C7A 1_555 1_555
H11A C8A 1_555 1_555
C9A C8A 1_555 1_555
H12A C9A 1_555 1_555
C10A C9A 1_555 1_555
H13A C10A 1_555 1_555
C11A C6A 1_555 1_555
H14A C11A 1_555 1_555
C12A C13A 1_555 1_555
C13A H15A 1_555 1_555
H16A C13A 1_555 1_555
H17A C13A 1_555 1_555
C14A C12A 1_555 1_555
H18A C14A 1_555 1_555
H19A C14A 1_555 1_555
H20A C14A 1_555 1_555
C15A C12A 1_555 1_555
H21A C15A 1_555 1_555
H22A C15A 1_555 1_555
H23A C15A 1_555 1_555
N1A C1A 1_555 1_555
N2A C5A 1_555 1_555
Se1A Si1A 1_555 1_555
Si1A Si1 1_555 1_555
C5 N1 1_555 1_555
C10 C11 1_555 1_555
C12 N2 1_555 1_555
N2 Si1 1_555 1_555
C5A N1A 1_555 1_555
C10A C11A 1_555 1_555
C12A N2A 1_555 1_555
N1A Si1A 1_555 1_555
N2A Si1A 1_555 1_555

#END
