
#######################################################################
#
#                 Cambridge Crystallographic Data Centre
#                                CCDC 
#
#######################################################################
#
# If this CIF has been generated from an entry in the Cambridge 
# Structural Database, then it will include bibliographic, chemical, 
# crystal, experimental, refinement or atomic coordinate data resulting 
# from the CCDC's data processing and validation procedures.
#
#######################################################################

data_OSOREU
_chemical_formula_moiety         'C30 H48 N4 S2 Si2'
_chemical_name_systematic        
1,3,7,9-Tetra-t-butyl-2,8-diphenyl-5,10-dithia-1,3,7,9-tetra-aza-4,6-disiladispiro[3.1.3.1]decane
_symmetry_cell_setting           triclinic
_symmetry_space_group_name_H-M   'P -1'
_symmetry_Int_Tables_number      2
_space_group_name_Hall           '-P 1'
loop_
_symmetry_equiv_pos_site_id
_symmetry_equiv_pos_as_xyz
1 x,y,z
2 -x,-y,-z
_cell_length_a                   6.3048(3)
_cell_length_b                   10.7046(4)
_cell_length_c                   12.1115(5)
_cell_angle_alpha                78.643(3)
_cell_angle_beta                 85.360(2)
_cell_angle_gamma                88.261(2)
_cell_volume                     798.691
_exptl_crystal_colour            colorless
_exptl_crystal_description       needle
_cell_formula_units_Z            1
_chemical_properties_physical    moisture-sensitive
loop_
_atom_site_label
_atom_site_type_symbol
_atom_site_fract_x
_atom_site_fract_y
_atom_site_fract_z
C1 C 0.8145(3) 0.43417(14) 0.71904(12)
C2 C 0.7133(3) 0.4507(2) 0.60599(16)
H1 H 0.5580 0.4534 0.6193
H2 H 0.7556 0.3788 0.5695
H3 H 0.7617 0.5303 0.5569
C3 C 1.0566(3) 0.42958(19) 0.69824(18)
H4 H 1.1053 0.5092 0.6492
H5 H 1.0985 0.3577 0.6617
H6 H 1.1213 0.4188 0.7705
C4 C 0.7356(4) 0.31129(18) 0.79278(18)
H7 H 0.8046 0.2964 0.8640
H8 H 0.7698 0.2405 0.7537
H9 H 0.5811 0.3172 0.8086
C5 C 0.8396(2) 0.66736(14) 0.74971(12)
H10 H 0.9966 0.6620 0.7572
C6 C 0.7940(2) 0.74374(14) 0.63502(12)
C7 C 0.5875(2) 0.76115(17) 0.60028(14)
H11 H 0.4710 0.7255 0.6499
C8 C 0.5516(3) 0.82997(18) 0.49408(14)
H12 H 0.4105 0.8414 0.4712
C9 C 0.7212(3) 0.88269(16) 0.42038(13)
H13 H 0.6961 0.9296 0.3473
C10 C 0.9251(2) 0.86642(15) 0.45403(13)
H14 H 1.0414 0.9024 0.4043
C11 C 0.9610(2) 0.79690(14) 0.56132(12)
H15 H 1.1022 0.7860 0.5840
C12 C 0.7582(2) 0.83676(14) 0.87637(13)
C13 C 0.9926(3) 0.87493(17) 0.85690(16)
H16 H 1.0798 0.8087 0.9006
H17 H 1.0097 0.9559 0.8812
H18 H 1.0383 0.8846 0.7764
C14 C 0.6227(3) 0.93946(16) 0.80567(15)
H19 H 0.6730 0.9496 0.7257
H20 H 0.6353 1.0205 0.8304
H21 H 0.4734 0.9137 0.8157
C15 C 0.6829(3) 0.82710(17) 1.00018(14)
H22 H 0.5340 0.8006 1.0124
H23 H 0.6952 0.9103 1.0212
H24 H 0.7710 0.7641 1.0468
S1 S 0.71097(6) 0.45554(4) 1.06047(3)
N1 N 0.7293(2) 0.71207(12) 0.84796(10)
N2 N 0.7483(2) 0.53823(12) 0.77792(11)
Si1 Si 0.62504(6) 0.56544(4) 0.90180(3)
C1A C 0.1855(3) 0.56583(14) 1.28096(12)
C2A C 0.2867(3) 0.5493(2) 1.39401(16)
H1A H 0.4420 0.5466 1.3807
H2A H 0.2444 0.6212 1.4305
H3A H 0.2383 0.4697 1.4431
C3A C -0.0566(3) 0.57042(19) 1.30176(18)
H4A H -0.1053 0.4908 1.3508
H5A H -0.0985 0.6423 1.3383
H6A H -0.1213 0.5812 1.2295
C4A C 0.2644(4) 0.68871(18) 1.20722(18)
H7A H 0.1954 0.7036 1.1360
H8A H 0.2302 0.7595 1.2463
H9A H 0.4189 0.6828 1.1914
C5A C 0.1604(2) 0.33264(14) 1.25029(12)
H10A H 0.0034 0.3380 1.2428
C6A C 0.2060(2) 0.25626(14) 1.36498(12)
C7A C 0.4125(2) 0.23885(17) 1.39972(14)
H11A H 0.5290 0.2745 1.3501
C8A C 0.4484(3) 0.17003(18) 1.50592(14)
H12A H 0.5895 0.1586 1.5288
C9A C 0.2788(3) 0.11731(16) 1.57962(13)
H13A H 0.3039 0.0704 1.6527
C10A C 0.0749(2) 0.13358(15) 1.54597(13)
H14A H -0.0414 0.0976 1.5957
C11A C 0.0390(2) 0.20310(14) 1.43868(12)
H15A H -0.1022 0.2140 1.4160
C12A C 0.2418(2) 0.16324(14) 1.12363(13)
C13A C 0.0074(3) 0.12507(17) 1.14310(16)
H16A H -0.0798 0.1913 1.0994
H17A H -0.0097 0.0441 1.1188
H18A H -0.0383 0.1154 1.2236
C14A C 0.3773(3) 0.06054(16) 1.19433(15)
H19A H 0.3270 0.0504 1.2743
H20A H 0.3647 -0.0205 1.1696
H21A H 0.5266 0.0863 1.1843
C15A C 0.3171(3) 0.17290(17) 0.99982(14)
H22A H 0.4660 0.1994 0.9876
H23A H 0.3048 0.0897 0.9788
H24A H 0.2290 0.2359 0.9532
S1A S 0.28903(6) 0.54446(4) 0.93953(3)
N1A N 0.2707(2) 0.28793(12) 1.15204(10)
N2A N 0.2517(2) 0.46177(12) 1.22208(11)
Si1A Si 0.37496(6) 0.43456(4) 1.09820(3)
loop_
_geom_bond_atom_site_label_1
_geom_bond_atom_site_label_2
_geom_bond_site_symmetry_1
_geom_bond_site_symmetry_2
C1 C2 1_555 1_555
C2 H1 1_555 1_555
H2 C2 1_555 1_555
H3 C2 1_555 1_555
C3 C1 1_555 1_555
H4 C3 1_555 1_555
H5 C3 1_555 1_555
H6 C3 1_555 1_555
C4 C1 1_555 1_555
H7 C4 1_555 1_555
H8 C4 1_555 1_555
H9 C4 1_555 1_555
C5 H10 1_555 1_555
C6 C5 1_555 1_555
C7 C6 1_555 1_555
H11 C7 1_555 1_555
C8 C7 1_555 1_555
H12 C8 1_555 1_555
C9 C8 1_555 1_555
H13 C9 1_555 1_555
C10 C9 1_555 1_555
H14 C10 1_555 1_555
C11 C6 1_555 1_555
H15 C11 1_555 1_555
C12 C13 1_555 1_555
C13 H16 1_555 1_555
H17 C13 1_555 1_555
H18 C13 1_555 1_555
C14 C12 1_555 1_555
H19 C14 1_555 1_555
H20 C14 1_555 1_555
H21 C14 1_555 1_555
C15 C12 1_555 1_555
H22 C15 1_555 1_555
H23 C15 1_555 1_555
H24 C15 1_555 1_555
S1 Si1 1_555 1_555
N1 C5 1_555 1_555
N2 C1 1_555 1_555
Si1 N1 1_555 1_555
C1A C2A 1_555 1_555
C2A H1A 1_555 1_555
H2A C2A 1_555 1_555
H3A C2A 1_555 1_555
C3A C1A 1_555 1_555
H4A C3A 1_555 1_555
H5A C3A 1_555 1_555
H6A C3A 1_555 1_555
C4A C1A 1_555 1_555
H7A C4A 1_555 1_555
H8A C4A 1_555 1_555
H9A C4A 1_555 1_555
C5A H10A 1_555 1_555
C6A C5A 1_555 1_555
C7A C6A 1_555 1_555
H11A C7A 1_555 1_555
C8A C7A 1_555 1_555
H12A C8A 1_555 1_555
C9A C8A 1_555 1_555
H13A C9A 1_555 1_555
C10A C9A 1_555 1_555
H14A C10A 1_555 1_555
C11A C6A 1_555 1_555
H15A C11A 1_555 1_555
C12A C13A 1_555 1_555
C13A H16A 1_555 1_555
H17A C13A 1_555 1_555
H18A C13A 1_555 1_555
C14A C12A 1_555 1_555
H19A C14A 1_555 1_555
H20A C14A 1_555 1_555
H21A C14A 1_555 1_555
C15A C12A 1_555 1_555
H22A C15A 1_555 1_555
H23A C15A 1_555 1_555
H24A C15A 1_555 1_555
S1A Si1 1_555 1_555
N1A C5A 1_555 1_555
N2A C1A 1_555 1_555
Si1A S1 1_555 1_555
C5 N2 1_555 1_555
C10 C11 1_555 1_555
C12 N1 1_555 1_555
N2 Si1 1_555 1_555
C5A N2A 1_555 1_555
C10A C11A 1_555 1_555
C12A N1A 1_555 1_555
S1A Si1A 1_555 1_555
N1A Si1A 1_555 1_555
N2A Si1A 1_555 1_555

#END
