
#######################################################################
#
#                 Cambridge Crystallographic Data Centre
#                                CCDC 
#
#######################################################################
#
# If this CIF has been generated from an entry in the Cambridge 
# Structural Database, then it will include bibliographic, chemical, 
# crystal, experimental, refinement or atomic coordinate data resulting 
# from the CCDC's data processing and validation procedures.
#
#######################################################################

data_OSOTOG
_chemical_formula_moiety         'C44 H55 Br1 N6 O9'
_chemical_name_systematic        
26-Bromo-24-methoxy-10-(4-methoxybenzyl)-3,4,6,7,9,12,13,15,29-nonamethyl-22-oxa-3,6,9,12,15,29-hexaazatetracyclo-[14.12.2.2^18,21^.1^23,27^]tritriaconta-18,20,23(31),24,26,32-hexaene-2,5,8,11,14,30-hexone
_chemical_properties_biological  'tested for antitumor activity'
_symmetry_cell_setting           monoclinic
_symmetry_space_group_name_H-M   'C 2'
_symmetry_Int_Tables_number      5
_space_group_name_Hall           'C 2y'
loop_
_symmetry_equiv_pos_site_id
_symmetry_equiv_pos_as_xyz
1 x,y,z
2 -x,y,-z
3 1/2+x,1/2+y,z
4 1/2-x,1/2+y,-z
_cell_length_a                   30.6207(9)
_cell_length_b                   12.3675(4)
_cell_length_c                   13.3862(4)
_cell_angle_alpha                90
_cell_angle_beta                 109.200(2)
_cell_angle_gamma                90
_cell_volume                     4787.4
_exptl_crystal_colour            colorless
_exptl_crystal_description       block
_chemical_melting_point          222-225deg.C
_cell_formula_units_Z            4
loop_
_atom_site_label
_atom_site_type_symbol
_atom_site_fract_x
_atom_site_fract_y
_atom_site_fract_z
Br1 Br 0.429430(19) 0.5122(3) 0.85239(4)
C1 C 0.40227(14) 0.6296(4) 0.5479(3)
C2 C 0.35870(13) 0.6763(4) 0.5259(3)
C3 C 0.33873(13) 0.8543(4) 0.8139(3)
H1 H 0.3439 0.9213 0.7803
H2 H 0.3641 0.8037 0.8199
H3 H 0.3375 0.8705 0.8846
C4 C 0.30224(14) 0.7901(5) 0.4246(3)
C5 C 0.25906(16) 0.7390(5) 0.3890(3)
H4 H 0.2546 0.6733 0.3501
C6 C 0.22342(15) 0.7879(5) 0.4128(3)
H5 H 0.1937 0.7550 0.3905
C7 C 0.22979(14) 0.8838(5) 0.4683(3)
C8 C 0.21418(12) 0.8349(4) 0.6292(3)
H6 H 0.2200 0.7615 0.6050
C9 C 0.14671(13) 0.7477(4) 0.6399(3)
C10 C 0.10780(14) 0.7344(4) 0.6865(3)
H7 H 0.1221 0.7284 0.7651
C11 C 0.19775(15) 0.9090(5) 0.5300(3)
H8 H 0.1653 0.8929 0.4874
H9 H 0.2001 0.9862 0.5509
C12 C 0.05524(13) 0.8666(4) 0.7291(3)
C13 C 0.06991(12) 0.8218(4) 0.8442(3)
H10 H 0.0815 0.7463 0.8441
C14 C 0.02700(14) 0.8189(5) 0.8816(3)
H11 H 0.0370 0.8091 0.9593
H12 H 0.0100 0.8882 0.8640
C15 C -0.00356(15) 0.7285(5) 0.8286(4)
C16 C 0.00618(18) 0.6233(6) 0.8662(7)
H13 H 0.0312 0.6117 0.9298
C17 C -0.0179(2) 0.5383(7) 0.8169(10)
H14 H -0.0104 0.4678 0.8456
C18 C -0.0555(2) 0.5537(5) 0.7199(9)
C19 C 0.42219(16) 0.5792(5) 0.6457(4)
H15 H 0.4516 0.5457 0.6621
C20 C 0.39908(14) 0.5781(4) 0.7181(3)
C21 C 0.35582(12) 0.6241(4) 0.6999(3)
C22 C 0.33138(13) 0.6198(4) 0.7798(3)
H16 H 0.3537 0.6417 0.8490
H17 H 0.3229 0.5436 0.7866
C23 C 0.28715(11) 0.6896(3) 0.7594(2)
H18 H 0.2628 0.6633 0.6940
C24 C 0.26030(13) 0.8778(4) 0.7041(2)
C25 C -0.06650(16) 0.6557(5) 0.6806(5)
H19 H -0.0915 0.6671 0.6170
C26 C -0.04106(16) 0.7412(5) 0.7338(3)
H20 H -0.0489 0.8118 0.7059
C27 C 0.10449(16) 1.0072(4) 0.9018(4)
H21 H 0.1325 1.0406 0.9503
H22 H 0.0773 1.0340 0.9174
H23 H 0.1017 1.0255 0.8287
C28 C 0.14101(13) 0.8505(4) 1.0018(3)
C29 C 0.14353(12) 0.7294(4) 1.0311(3)
H24 H 0.1188 0.6902 0.9748
C30 C 0.13480(17) 0.7135(5) 1.1367(3)
H25 H 0.1443 0.6404 1.1634
H26 H 0.1018 0.7232 1.1260
H27 H 0.1527 0.7667 1.1881
C31 C 0.22926(13) 0.7047(4) 1.1251(3)
H28 H 0.2401 0.6357 1.1605
H29 H 0.2216 0.7539 1.1743
H30 H 0.2536 0.7369 1.1021
C32 C 0.18914(12) 0.6241(4) 0.9514(2)
C33 C 0.23460(13) 0.5670(4) 0.9568(2)
H31 H 0.2605 0.5983 1.0166
C34 C 0.22927(16) 0.4486(4) 0.9789(3)
H32 H 0.1988 0.4232 0.9342
H33 H 0.2322 0.4393 1.0535
H34 H 0.2534 0.4067 0.9633
C35 C 0.27080(13) 0.6717(4) 0.8558(2)
C36 C 0.22521(13) 0.5127(4) 0.7683(2)
H35 H 0.2175 0.5534 0.7020
H36 H 0.1973 0.4778 0.7735
H37 H 0.2484 0.4575 0.7698
C37 C 0.0626(2) 0.8675(6) 0.5537(4)
H38 H 0.0896 0.8945 0.5376
H39 H 0.0401 0.9261 0.5449
H40 H 0.0484 0.8082 0.5054
C38 C 0.08094(18) 0.6318(5) 0.6469(4)
H41 H 0.0595 0.6188 0.6863
H42 H 0.1024 0.5709 0.6573
H43 H 0.0634 0.6393 0.5714
C39 C 0.17845(16) 0.8989(7) 0.7630(4)
H44 H 0.1622 0.8663 0.8075
H45 H 0.1625 0.9653 0.7307
H46 H 0.2103 0.9163 0.8064
C40 C 0.33640(12) 0.6720(4) 0.6007(2)
H47 H 0.3065 0.7031 0.5836
C41 C 0.30882(15) 0.8921(4) 0.4673(3)
H48 H 0.3375 0.9286 0.4808
C42 C 0.27215(15) 0.9402(4) 0.4901(3)
H49 H 0.2755 1.0106 0.5202
C43 C -0.0627(4) 0.3709(11) 0.666(2)
H50 H -0.0430 0.3692 0.6214
H51 H -0.0871 0.3163 0.6414
H52 H -0.0440 0.3555 0.7395
C44 C 0.4026(4) 0.6136(12) 0.3652(7)
H53 H 0.3691 0.6097 0.3499
H54 H 0.4139 0.5443 0.3478
H55 H 0.4098 0.6712 0.3228
N1 N 0.17908(11) 0.8235(4) 0.6807(2)
N2 N 0.29464(9) 0.8052(3) 0.7491(2)
N3 N 0.10748(12) 0.8880(4) 0.9153(2)
N4 N 0.18849(9) 0.6864(3) 1.0340(2)
N5 N 0.24376(10) 0.5862(3) 0.8572(2)
N6 N 0.07707(11) 0.8280(4) 0.6638(3)
O1 O 0.42501(11) 0.6368(4) 0.4769(3)
O2 O -0.08236(18) 0.4712(5) 0.6605(9)
O3 O 0.14810(11) 0.6885(4) 0.5669(2)
O4 O 0.17002(10) 0.9105(3) 1.0594(3)
O5 O 0.15464(10) 0.6074(4) 0.8740(2)
O6 O 0.28342(13) 0.7347(3) 0.9302(2)
O7 O 0.02573(9) 0.9381(4) 0.7036(2)
O8 O 0.26640(11) 0.9748(3) 0.7182(2)
O9 O 0.34148(11) 0.7279(4) 0.4304(2)
C45? C 0.3930(7) 0.7908(6) 0.1179(17)
H56? H 0.3655 0.7671 0.0575
Cl1? Cl 0.3865(4) 0.7444(8) 0.2362(6)
Cl2? Cl 0.4433(4) 0.7477(9) 0.0940(14)
Cl3? Cl 0.3962(3) 0.9326(5) 0.1161(7)
C46? C 0.4737(10) 0.644(3) 0.507(2)
H57? H 0.4865 0.6600 0.5826
H58? H 0.4821 0.7017 0.4666
H59? H 0.4862 0.5750 0.4923
loop_
_geom_bond_atom_site_label_1
_geom_bond_atom_site_label_2
_geom_bond_site_symmetry_1
_geom_bond_site_symmetry_2
Br1 C20 1_555 1_555
C1 C2 1_555 1_555
C2 C40 1_555 1_555
C3 H1 1_555 1_555
H2 C3 1_555 1_555
H3 C3 1_555 1_555
C4 C5 1_555 1_555
C5 H4 1_555 1_555
C6 C5 1_555 1_555
H5 C6 1_555 1_555
C7 C6 1_555 1_555
C8 H6 1_555 1_555
C9 C10 1_555 1_555
C10 H7 1_555 1_555
C11 C7 1_555 1_555
H8 C11 1_555 1_555
H9 C11 1_555 1_555
C12 C13 1_555 1_555
C13 H10 1_555 1_555
C14 C13 1_555 1_555
H11 C14 1_555 1_555
H12 C14 1_555 1_555
C15 C14 1_555 1_555
C16 C15 1_555 1_555
H13 C16 1_555 1_555
C17 C16 1_555 1_555
H14 C17 1_555 1_555
C18 C17 1_555 1_555
C19 C1 1_555 1_555
H15 C19 1_555 1_555
C20 C19 1_555 1_555
C21 C20 1_555 1_555
C22 C21 1_555 1_555
H16 C22 1_555 1_555
H17 C22 1_555 1_555
C23 C22 1_555 1_555
H18 C23 1_555 1_555
C24 C8 1_555 1_555
C25 C18 1_555 1_555
H19 C25 1_555 1_555
C26 C15 1_555 1_555
H20 C26 1_555 1_555
C27 H21 1_555 1_555
H22 C27 1_555 1_555
H23 C27 1_555 1_555
C28 C29 1_555 1_555
C29 H24 1_555 1_555
C30 C29 1_555 1_555
H25 C30 1_555 1_555
H26 C30 1_555 1_555
H27 C30 1_555 1_555
C31 H28 1_555 1_555
H29 C31 1_555 1_555
H30 C31 1_555 1_555
C32 C33 1_555 1_555
C33 H31 1_555 1_555
C34 C33 1_555 1_555
H32 C34 1_555 1_555
H33 C34 1_555 1_555
H34 C34 1_555 1_555
C35 C23 1_555 1_555
C36 H35 1_555 1_555
H36 C36 1_555 1_555
H37 C36 1_555 1_555
C37 H38 1_555 1_555
H39 C37 1_555 1_555
H40 C37 1_555 1_555
C38 C10 1_555 1_555
H41 C38 1_555 1_555
H42 C38 1_555 1_555
H43 C38 1_555 1_555
C39 H44 1_555 1_555
H45 C39 1_555 1_555
H46 C39 1_555 1_555
C40 C21 1_555 1_555
H47 C40 1_555 1_555
C41 C4 1_555 1_555
H48 C41 1_555 1_555
C42 C7 1_555 1_555
H49 C42 1_555 1_555
C43 H50 1_555 1_555
H51 C43 1_555 1_555
H52 C43 1_555 1_555
C44 H53 1_555 1_555
H54 C44 1_555 1_555
H55 C44 1_555 1_555
N1 C8 1_555 1_555
N2 C3 1_555 1_555
N3 C13 1_555 1_555
N4 C29 1_555 1_555
N5 C33 1_555 1_555
N6 C10 1_555 1_555
O1 C1 1_555 1_555
O2 C18 1_555 1_555
O3 C9 1_555 1_555
O4 C28 1_555 1_555
O5 C32 1_555 1_555
O6 C35 1_555 1_555
O7 C12 1_555 1_555
O8 C24 1_555 1_555
O9 C2 1_555 1_555
C4 O9 1_555 1_555
C8 C11 1_555 1_555
C9 N1 1_555 1_555
C12 N6 1_555 1_555
C23 N2 1_555 1_555
C24 N2 1_555 1_555
C25 C26 1_555 1_555
C27 N3 1_555 1_555
C28 N3 1_555 1_555
C31 N4 1_555 1_555
C32 N4 1_555 1_555
C35 N5 1_555 1_555
C36 N5 1_555 1_555
C37 N6 1_555 1_555
C39 N1 1_555 1_555
C41 C42 1_555 1_555
C43 O2 1_555 1_555
C44 O1 1_555 1_555

#END
