
#######################################################################
#
#                 Cambridge Crystallographic Data Centre
#                                CCDC 
#
#######################################################################
#
# If this CIF has been generated from an entry in the Cambridge 
# Structural Database, then it will include bibliographic, chemical, 
# crystal, experimental, refinement or atomic coordinate data resulting 
# from the CCDC's data processing and validation procedures.
#
#######################################################################

data_OSUFUE
_chemical_formula_moiety         'C19 H22 O5 S1'
_chemical_name_systematic        
'Ethyl 2-hydroxy-4-(4-(methylsulfanyl)phenyl)-8-oxo-3,4,5,6,7,8-hexahydro-2H-chromene-2-carboxylate'
_symmetry_cell_setting           monoclinic
_symmetry_space_group_name_H-M   'P 21'
_symmetry_Int_Tables_number      4
_space_group_name_Hall           'P 2yb'
loop_
_symmetry_equiv_pos_site_id
_symmetry_equiv_pos_as_xyz
1 x,y,z
2 -x,1/2+y,-z
_cell_length_a                   7.8373(7)
_cell_length_b                   8.6462(8)
_cell_length_c                   13.3583(12)
_cell_angle_alpha                90
_cell_angle_beta                 94.152(2)
_cell_angle_gamma                90
_cell_volume                     902.821
_exptl_crystal_colour            colorless
_exptl_crystal_description       plate
_cell_formula_units_Z            2
loop_
_atom_site_label
_atom_site_type_symbol
_atom_site_fract_x
_atom_site_fract_y
_atom_site_fract_z
S1 S 0.93417(8) -0.29910(10) 1.01638(5)
O1 O 0.1156(2) 0.1142(2) 0.65526(12)
O2 O -0.0685(2) -0.1043(3) 0.55884(13)
O3 O 0.3014(2) 0.2957(2) 0.59620(13)
H1 H 0.2256 0.3185 0.5521
O4 O 0.1800(4) 0.4706(3) 0.77357(19)
O5 O -0.0388(5) 0.3825(6) 0.6761(5)
C1 C 1.1497(3) -0.2814(4) 0.9793(2)
H2 H 1.1552 -0.3201 0.9115
H3 H 1.2263 -0.3411 1.0247
H4 H 1.1837 -0.1735 0.9818
C2 C 0.8129(3) -0.1855(3) 0.92782(17)
C3 C 0.6380(3) -0.1760(4) 0.9392(2)
H5 H 0.5918 -0.2270 0.9932
C4 C 0.5323(3) -0.0932(4) 0.8728(2)
H6 H 0.4147 -0.0886 0.8821
C5 C 0.5953(3) -0.0160(3) 0.79177(16)
C6 C 0.7705(3) -0.0240(3) 0.78141(17)
H7 H 0.8168 0.0279 0.7278
C7 C 0.8779(3) -0.1071(3) 0.84852(17)
H8 H 0.9959 -0.1103 0.8402
C8 C 0.4765(3) 0.0655(3) 0.71338(16)
H9 H 0.5490 0.1175 0.6659
C9 C 0.3668(3) 0.1889(4) 0.75791(17)
H10 H 0.4381 0.2779 0.7789
H11 H 0.3158 0.1477 0.8172
C10 C 0.2261(3) 0.2400(3) 0.68078(17)
C11 C 0.1979(3) -0.0203(3) 0.63143(16)
C12 C 0.0822(3) -0.1330(3) 0.57746(17)
C13 C 0.1603(4) -0.2842(4) 0.5517(2)
H12 H 0.1461 -0.3575 0.6064
H13 H 0.0986 -0.3255 0.4910
C14 C 0.3461(4) -0.2728(4) 0.5342(2)
H14 H 0.3595 -0.2133 0.4728
H15 H 0.3918 -0.3768 0.5245
C15 C 0.4465(4) -0.1962(4) 0.6207(2)
H16 H 0.4579 -0.2685 0.6773
H17 H 0.5617 -0.1728 0.6009
C16 C 0.3648(3) -0.0496(3) 0.65402(16)
C17 C 0.1182(3) 0.3702(4) 0.7232(2)
C18 C -0.1457(10) 0.5129(7) 0.7030(7)
H18 H -0.2065 0.5556 0.6425
H19 H -0.0738 0.5947 0.7346
C19 C -0.2699(11) 0.4587(9) 0.7732(8)
H20 H -0.3542 0.5389 0.7817
H21 H -0.2104 0.4353 0.8376
H22 H -0.3268 0.3664 0.7465
C20? C -0.1505(14) 0.4349(15) 0.7745(7)
C21? C -0.2568(19) 0.5295(17) 0.7021(9)
H23? H -0.0774 0.5028 0.8178
H24? H -0.2249 0.3772 0.8172
H25? H -0.3420 0.5851 0.7371
H26? H -0.3135 0.4628 0.6516
H27? H -0.1847 0.6029 0.6699
O6? O -0.0439(6) 0.3265(10) 0.7231(5)
loop_
_geom_bond_atom_site_label_1
_geom_bond_atom_site_label_2
_geom_bond_site_symmetry_1
_geom_bond_site_symmetry_2
S1 C1 1_555 1_555
O1 C10 1_555 1_555
O2 C12 1_555 1_555
O3 H1 1_555 1_555
O4 C17 1_555 1_555
O5 C17 1_555 1_555
C1 H2 1_555 1_555
H3 C1 1_555 1_555
H4 C1 1_555 1_555
C2 S1 1_555 1_555
C3 C2 1_555 1_555
H5 C3 1_555 1_555
C4 C3 1_555 1_555
H6 C4 1_555 1_555
C5 C4 1_555 1_555
C6 C5 1_555 1_555
H7 C6 1_555 1_555
C7 C2 1_555 1_555
H8 C7 1_555 1_555
C8 C5 1_555 1_555
H9 C8 1_555 1_555
C9 C8 1_555 1_555
H10 C9 1_555 1_555
H11 C9 1_555 1_555
C10 O3 1_555 1_555
C11 O1 1_555 1_555
C12 C11 1_555 1_555
C13 C12 1_555 1_555
H12 C13 1_555 1_555
H13 C13 1_555 1_555
C14 C13 1_555 1_555
H14 C14 1_555 1_555
H15 C14 1_555 1_555
C15 C14 1_555 1_555
H16 C15 1_555 1_555
H17 C15 1_555 1_555
C16 C8 1_555 1_555
C17 C10 1_555 1_555
C18 O5 1_555 1_555
H18 C18 1_555 1_555
H19 C18 1_555 1_555
C19 C18 1_555 1_555
H20 C19 1_555 1_555
H21 C19 1_555 1_555
H22 C19 1_555 1_555
C6 C7 1_555 1_555
C9 C10 1_555 1_555
C11 C16 1_555 1_555
C15 C16 1_555 1_555

#END
