
#######################################################################
#
#                 Cambridge Crystallographic Data Centre
#                                CCDC 
#
#######################################################################
#
# If this CIF has been generated from an entry in the Cambridge 
# Structural Database, then it will include bibliographic, chemical, 
# crystal, experimental, refinement or atomic coordinate data resulting 
# from the CCDC's data processing and validation procedures.
#
#######################################################################

data_OSUGIT
_chemical_formula_moiety         'C11 H5 Cl3 N4'
_chemical_name_systematic        2,6-Dichloro-9-(4-chlorophenyl)-9H-purine
_symmetry_cell_setting           monoclinic
_symmetry_space_group_name_H-M   'P 21/n'
_symmetry_Int_Tables_number      14
_space_group_name_Hall           '-P 2yn'
loop_
_symmetry_equiv_pos_site_id
_symmetry_equiv_pos_as_xyz
1 x,y,z
2 1/2-x,1/2+y,1/2-z
3 -x,-y,-z
4 1/2+x,1/2-y,1/2+z
_cell_length_a                   7.3206(10)
_cell_length_b                   19.054(3)
_cell_length_c                   8.7032(12)
_cell_angle_alpha                90
_cell_angle_beta                 99.593(2)
_cell_angle_gamma                90
_cell_volume                     1197
_exptl_crystal_colour            colorless
_exptl_crystal_description       block
_cell_formula_units_Z            4
loop_
_atom_site_label
_atom_site_type_symbol
_atom_site_fract_x
_atom_site_fract_y
_atom_site_fract_z
C1 C 0.0726(4) 0.75375(16) 0.2369(4)
C2 C 0.1421(4) 0.86372(15) 0.2061(3)
C3 C 0.1237(4) 0.85543(15) 0.0441(3)
C4 C 0.0757(4) 0.78871(18) -0.0103(4)
C5 C 0.1947(4) 0.96130(16) 0.0894(3)
H1 H 0.2243 1.0081 0.0756
C6 C 0.2193(4) 0.97027(14) 0.3788(3)
C7 C 0.1612(4) 1.03952(15) 0.3812(3)
H2 H 0.0988 1.0605 0.2911
C8 C 0.1969(4) 1.07695(15) 0.5186(3)
H3 H 0.1617 1.1238 0.5215
C9 C 0.2852(4) 1.04413(15) 0.6515(3)
C10 C 0.3386(4) 0.97482(16) 0.6507(3)
H4 H 0.3952 0.9534 0.7424
C11 C 0.3077(4) 0.93731(15) 0.5133(3)
H5 H 0.3453 0.8908 0.5107
Cl1 Cl 0.04188(16) 0.68474(5) 0.35993(12)
Cl2 Cl 0.04685(14) 0.77010(6) -0.20633(11)
Cl3 Cl 0.32771(12) 1.09137(4) 0.82548(9)
N1 N 0.1153(3) 0.81413(13) 0.3076(3)
N2 N 0.0509(4) 0.73699(14) 0.0859(3)
N3 N 0.1872(3) 0.93312(12) 0.2342(3)
N4 N 0.1574(4) 0.91770(14) -0.0265(3)
loop_
_geom_bond_atom_site_label_1
_geom_bond_atom_site_label_2
_geom_bond_site_symmetry_1
_geom_bond_site_symmetry_2
C1 Cl1 1_555 1_555
C2 C3 1_555 1_555
C3 C4 1_555 1_555
C4 Cl2 1_555 1_555
C5 H1 1_555 1_555
C6 C7 1_555 1_555
C7 H2 1_555 1_555
C8 C7 1_555 1_555
H3 C8 1_555 1_555
C9 C8 1_555 1_555
C10 C9 1_555 1_555
H4 C10 1_555 1_555
C11 C6 1_555 1_555
H5 C11 1_555 1_555
Cl3 C9 1_555 1_555
N1 C1 1_555 1_555
N2 C1 1_555 1_555
N3 C2 1_555 1_555
N4 C3 1_555 1_555
C2 N1 1_555 1_555
C4 N2 1_555 1_555
C5 N3 1_555 1_555
C5 N4 1_555 1_555
C6 N3 1_555 1_555
C10 C11 1_555 1_555

#END
