
#######################################################################
#
#                 Cambridge Crystallographic Data Centre
#                                CCDC 
#
#######################################################################
#
# If this CIF has been generated from an entry in the Cambridge 
# Structural Database, then it will include bibliographic, chemical, 
# crystal, experimental, refinement or atomic coordinate data resulting 
# from the CCDC's data processing and validation procedures.
#
#######################################################################

data_OTAJUQ
_chemical_formula_moiety         'C20 H15 Cl1 N4 O3 S1,0.5(C3 H6 O1)'
_chemical_name_systematic        
'4-chloro-N-(3-(4-(2,5-dioxoimidazolidin-4-yl)phenyl)-4-methyl-1,3-thiazol-2(3H)-ylidene)benzamide acetone solvate'
_symmetry_cell_setting           monoclinic
_symmetry_space_group_name_H-M   'C 2/c'
_symmetry_Int_Tables_number      15
_space_group_name_Hall           '-C 2yn'
loop_
_symmetry_equiv_pos_site_id
_symmetry_equiv_pos_as_xyz
1 x,y,z
2 -x,y,1/2-z
3 1/2+x,1/2+y,z
4 1/2-x,1/2+y,1/2-z
5 -x,-y,-z
6 x,-y,1/2+z
7 1/2-x,1/2-y,-z
8 1/2+x,1/2-y,1/2+z
_cell_length_a                   18.2105(19)
_cell_length_b                   11.0083(16)
_cell_length_c                   21.776(17)
_cell_angle_alpha                90
_cell_angle_beta                 105.43(3)
_cell_angle_gamma                90
_cell_volume                     4208.02
_cell_formula_units_Z            8
loop_
_atom_site_label
_atom_site_type_symbol
_atom_site_fract_x
_atom_site_fract_y
_atom_site_fract_z
C21 C -0.0020(13) 0.8351(6) 0.2560(10)
O4 O -0.0047(4) 0.9322(5) 0.2824(3)
C22 C -0.0274(5) 0.7359(8) 0.2847(4)
H16 H -0.0216 0.7536 0.3299
H17 H 0.0028 0.6640 0.2809
H18 H -0.0812 0.7204 0.2635
C23 C 0.0469(5) 0.8286(6) 0.2099(3)
H19 H 0.0186 0.8616 0.1686
H20 H 0.0604 0.7438 0.2046
H21 H 0.0934 0.8761 0.2265
C21A C 0.0020(13) 0.8351(6) 0.2440(10)
O4A O 0.0047(4) 0.9322(5) 0.2176(3)
C22A C 0.0274(5) 0.7359(8) 0.2153(4)
H16A H 0.0216 0.7536 0.1701
H17A H -0.0028 0.6640 0.2191
H18A H 0.0812 0.7204 0.2365
C23A C -0.0469(5) 0.8286(6) 0.2901(3)
H19A H -0.0186 0.8616 0.3314
H20A H -0.0604 0.7438 0.2954
H21A H -0.0934 0.8761 0.2735
S1 S 0.10014(4) 0.26400(6) 0.35154(3)
Cl1 Cl 0.21084(4) 1.04324(6) 0.47667(4)
O1 O 0.10568(10) 0.45714(16) 0.42734(8)
O2 O 0.00184(10) 0.86279(17) -0.04393(8)
C1 C 0.20273(14) 0.6117(2) 0.17451(12)
H1 H 0.2467 0.6619 0.1824
C2 C 0.18415(14) 0.8950(2) 0.45119(13)
C3 C 0.11314(14) 0.2356(2) 0.23785(12)
N1 N 0.09353(12) 0.73148(19) 0.01391(10)
H2 H 0.0868 0.6709 -0.0134
C4 C 0.19469(15) 0.8563(2) 0.39398(13)
H3 H 0.2152 0.9096 0.3685
C5 C 0.13506(14) 0.7010(2) 0.46909(12)
H4 H 0.1146 0.6481 0.4948
C6 C 0.14511(13) 0.6592(2) 0.41174(12)
C7 C 0.05153(14) 0.8341(2) 0.00368(12)
C8 C 0.08054(15) 0.5543(2) 0.10769(12)
H5 H 0.0408 0.5639 0.0696
C9 C 0.15460(14) 0.8193(2) 0.48948(13)
H6 H 0.1478 0.8475 0.5288
C10 C 0.19783(14) 0.5229(2) 0.21824(12)
H7 H 0.2382 0.5114 0.2557
C11 C 0.14410(14) 0.6287(2) 0.11903(12)
C12 C 0.15060(14) 0.7316(2) 0.07433(12)
H8 H 0.2024 0.7304 0.0668
C13 C 0.07448(15) 0.4660(2) 0.15134(13)
H9 H 0.0304 0.4161 0.1436
N2 N 0.07502(12) 0.90542(19) 0.05836(10)
H10 H 0.0529 0.9738 0.0644
C14 C 0.17486(15) 0.7383(2) 0.37427(13)
H11 H 0.1816 0.7108 0.3348
C15 C 0.13298(14) 0.4508(2) 0.20652(12)
O3 O 0.17288(11) 0.89993(18) 0.15121(9)
C16 C 0.13660(15) 0.8565(2) 0.10157(13)
C17 C 0.09951(14) 0.1730(2) 0.28641(13)
H12 H 0.0905 0.0879 0.2853
C18 C 0.12211(16) 0.1871(3) 0.17628(13)
H13 H 0.1236 0.0982 0.1779
H14 H 0.1696 0.2178 0.1691
H15 H 0.0790 0.2135 0.1414
C19 C 0.12537(14) 0.5309(2) 0.39136(12)
N3 N 0.13056(12) 0.50554(19) 0.33146(10)
C20 C 0.12022(13) 0.3918(2) 0.31184(12)
N4 N 0.12440(11) 0.36001(19) 0.25219(10)
loop_
_geom_bond_atom_site_label_1
_geom_bond_atom_site_label_2
_geom_bond_site_symmetry_1
_geom_bond_site_symmetry_2
S1 C17 1_555 1_555
Cl1 C2 1_555 1_555
O1 C19 1_555 1_555
O2 C7 1_555 1_555
C1 H1 1_555 1_555
C2 C4 1_555 1_555
C3 C17 1_555 1_555
N1 H2 1_555 1_555
C4 H3 1_555 1_555
C5 H4 1_555 1_555
C6 C5 1_555 1_555
C7 N1 1_555 1_555
C8 H5 1_555 1_555
C9 C2 1_555 1_555
H6 C9 1_555 1_555
C10 C1 1_555 1_555
H7 C10 1_555 1_555
C11 C1 1_555 1_555
C12 N1 1_555 1_555
H8 C12 1_555 1_555
C13 C8 1_555 1_555
H9 C13 1_555 1_555
N2 C7 1_555 1_555
H10 N2 1_555 1_555
C14 C4 1_555 1_555
H11 C14 1_555 1_555
C15 C10 1_555 1_555
O3 C16 1_555 1_555
C16 C12 1_555 1_555
C17 H12 1_555 1_555
C18 C3 1_555 1_555
H13 C18 1_555 1_555
H14 C18 1_555 1_555
H15 C18 1_555 1_555
C19 C6 1_555 1_555
N3 C19 1_555 1_555
C20 S1 1_555 1_555
N4 C3 1_555 1_555
C21 O4 1_555 1_555
O4 C21A 1_555 1_555
C22 C21 1_555 1_555
H16 C22 1_555 1_555
H17 C22 1_555 1_555
H18 C22 1_555 1_555
C23 C21 1_555 1_555
H19 C23 1_555 1_555
H20 C23 1_555 1_555
H21 C23 1_555 1_555
C21A C22 1_555 1_555
O4A C21 1_555 1_555
C22A C21 1_555 1_555
H16A C22A 1_555 1_555
H17A C22A 1_555 1_555
H18A C22A 1_555 1_555
C23A C21 1_555 1_555
H19A C23A 1_555 1_555
H20A C23A 1_555 1_555
H21A C23A 1_555 1_555
C5 C9 1_555 1_555
C6 C14 1_555 1_555
C8 C11 1_555 1_555
C11 C12 1_555 1_555
C13 C15 1_555 1_555
N2 C16 1_555 1_555
C15 N4 1_555 1_555
N3 C20 1_555 1_555
C20 N4 1_555 1_555
C23 C21A 1_555 1_555
C21A O4A 1_555 1_555
C21A C22A 1_555 1_555
C21A C23A 1_555 1_555

#END
