
#######################################################################
#
#                 Cambridge Crystallographic Data Centre
#                                CCDC 
#
#######################################################################
#
# If this CIF has been generated from an entry in the Cambridge 
# Structural Database, then it will include bibliographic, chemical, 
# crystal, experimental, refinement or atomic coordinate data resulting 
# from the CCDC's data processing and validation procedures.
#
#######################################################################

data_OTAKAX
_chemical_formula_moiety         'C21 H19 Cl1 N4 O4 S1'
_chemical_name_systematic        
4-chloro-N-(3-(4-((2,5-dioxoimidazolidin-4-yl)methyl)phenyl)-4-hydroxy-4-methyl-1,3-thiazolidin-2-ylidene)benzamide
_symmetry_cell_setting           monoclinic
_symmetry_space_group_name_H-M   'C 2/c'
_symmetry_Int_Tables_number      15
_space_group_name_Hall           '-C 2yn'
loop_
_symmetry_equiv_pos_site_id
_symmetry_equiv_pos_as_xyz
1 x,y,z
2 -x,y,1/2-z
3 1/2+x,1/2+y,z
4 1/2-x,1/2+y,1/2-z
5 -x,-y,-z
6 x,-y,1/2+z
7 1/2-x,1/2-y,-z
8 1/2+x,1/2-y,1/2+z
_cell_length_a                   12.2764(9)
_cell_length_b                   20.6768(10)
_cell_length_c                   16.8642(13)
_cell_angle_alpha                90
_cell_angle_beta                 100.989(7)
_cell_angle_gamma                90
_cell_volume                     4202.26
_cell_formula_units_Z            8
loop_
_atom_site_label
_atom_site_type_symbol
_atom_site_fract_x
_atom_site_fract_y
_atom_site_fract_z
S1 S 0.96001(7) 0.03233(4) 0.10642(6)
Cl1 Cl 0.48976(7) 0.36330(4) 0.13760(7)
O1 O 0.75377(17) 0.09043(10) 0.06762(13)
O2 O 0.86942(17) 0.43165(10) 0.16387(13)
N1 N 1.0848(2) 0.13295(11) 0.13516(15)
N2 N 0.90015(19) 0.16097(11) 0.11041(14)
O3 O 1.0703(2) 0.42701(11) -0.03923(14)
N3 N 0.9463(2) 0.42368(12) 0.04800(15)
H1 H 0.8872 0.4134 0.0142
C1 C 1.1162(2) 0.20051(13) 0.13374(17)
N4 N 1.0552(2) 0.44926(12) 0.16388(15)
H2 H 1.0769 0.4586 0.2141
C2 C 0.6800(2) 0.31388(15) 0.10571(17)
H3 H 0.7022 0.3565 0.1013
C3 C 0.6090(2) 0.18651(15) 0.11522(18)
H4 H 0.5848 0.1440 0.1170
C4 C 0.7912(2) 0.14459(14) 0.09073(17)
C5 C 0.7150(2) 0.19910(14) 0.09999(17)
C6 C 0.9771(2) 0.11622(14) 0.11667(18)
C7 C 0.7498(2) 0.26316(14) 0.09582(17)
H5 H 0.8206 0.2718 0.0863
C8 C 1.1828(2) 0.32868(14) 0.12923(18)
C9 C 0.5766(3) 0.29980(15) 0.12231(19)
C10 C 0.5400(3) 0.23691(16) 0.1277(2)
H6 H 0.4703 0.2287 0.1394
C11 C 1.1283(2) 0.44740(14) 0.10604(19)
H7 H 1.1600 0.4905 0.1016
C12 C 1.1289(2) 0.23743(14) 0.20286(17)
H8 H 1.1156 0.2197 0.2508
C13 C 1.1670(3) 0.08165(15) 0.1366(2)
C14 C 1.0478(3) 0.43130(14) 0.02783(19)
C15 C 1.1619(2) 0.30164(14) 0.20001(18)
H9 H 1.1701 0.3268 0.2464
C16 C 1.2222(2) 0.39774(14) 0.1264(2)
H10 H 1.2692 0.4009 0.0864
H11 H 1.2671 0.4086 0.1785
O4 O 1.1982(2) 0.08354(16) 0.05633(18)
H12 H 1.2647 0.0760 0.0611
C17 C 1.1334(3) 0.22653(15) 0.06192(18)
H13 H 1.1227 0.2015 0.0153
C18 C 1.1668(3) 0.29054(15) 0.0601(2)
H14 H 1.1788 0.3082 0.0118
C19 C 0.9497(3) 0.43470(14) 0.13050(19)
C20 C 1.1071(3) 0.02012(17) 0.1413(3)
H15 H 1.1207 0.0048 0.1967
H16 H 1.1339 -0.0124 0.1082
C21 C 1.2715(3) 0.09199(19) 0.1960(3)
H17 H 1.3057 0.1315 0.1837
H18 H 1.3211 0.0565 0.1935
H19 H 1.2551 0.0946 0.2494
loop_
_geom_bond_atom_site_label_1
_geom_bond_atom_site_label_2
_geom_bond_site_symmetry_1
_geom_bond_site_symmetry_2
S1 C6 1_555 1_555
Cl1 C9 1_555 1_555
O1 C4 1_555 1_555
O2 C19 1_555 1_555
N1 C1 1_555 1_555
N2 C4 1_555 1_555
O3 C14 1_555 1_555
N3 H1 1_555 1_555
C1 C12 1_555 1_555
N4 H2 1_555 1_555
C2 H3 1_555 1_555
C3 H4 1_555 1_555
C4 C5 1_555 1_555
C5 C3 1_555 1_555
C6 N1 1_555 1_555
C7 C2 1_555 1_555
H5 C7 1_555 1_555
C8 C15 1_555 1_555
C9 C2 1_555 1_555
C10 C3 1_555 1_555
H6 C10 1_555 1_555
C11 N4 1_555 1_555
H7 C11 1_555 1_555
C12 H8 1_555 1_555
C13 N1 1_555 1_555
C14 N3 1_555 1_555
C15 C12 1_555 1_555
H9 C15 1_555 1_555
C16 C8 1_555 1_555
H10 C16 1_555 1_555
H11 C16 1_555 1_555
O4 C13 1_555 1_555
H12 O4 1_555 1_555
C17 C1 1_555 1_555
H13 C17 1_555 1_555
C18 C8 1_555 1_555
H14 C18 1_555 1_555
C19 N3 1_555 1_555
C20 S1 1_555 1_555
H15 C20 1_555 1_555
H16 C20 1_555 1_555
C21 C13 1_555 1_555
H17 C21 1_555 1_555
H18 C21 1_555 1_555
H19 C21 1_555 1_555
N2 C6 1_555 1_555
N4 C19 1_555 1_555
C5 C7 1_555 1_555
C9 C10 1_555 1_555
C11 C14 1_555 1_555
C11 C16 1_555 1_555
C13 C20 1_555 1_555
C17 C18 1_555 1_555

#END
