
#######################################################################
#
#                 Cambridge Crystallographic Data Centre
#                                CCDC 
#
#######################################################################
#
# If this CIF has been generated from an entry in the Cambridge 
# Structural Database, then it will include bibliographic, chemical, 
# crystal, experimental, refinement or atomic coordinate data resulting 
# from the CCDC's data processing and validation procedures.
#
#######################################################################

data_OTAPUV
_chemical_formula_moiety         'C16 H14 Br1 F3 O6'
_chemical_name_systematic        
'Dimethyl 4-(4-bromophenyl)-2-hydroxy-2-(trifluoromethyl)-3,4-dihydro-2H-pyran-3,6-dicarboxylate'
_symmetry_cell_setting           monoclinic
_symmetry_space_group_name_H-M   'C 2/c'
_symmetry_Int_Tables_number      15
_space_group_name_Hall           '-C 2yn'
loop_
_symmetry_equiv_pos_site_id
_symmetry_equiv_pos_as_xyz
1 x,y,z
2 -x,y,1/2-z
3 1/2+x,1/2+y,z
4 1/2-x,1/2+y,1/2-z
5 -x,-y,-z
6 x,-y,1/2+z
7 1/2-x,1/2-y,-z
8 1/2+x,1/2-y,1/2+z
_cell_length_a                   25.0291(12)
_cell_length_b                   7.9466(3)
_cell_length_c                   20.7366(8)
_cell_angle_alpha                90
_cell_angle_beta                 123.2960(10)
_cell_angle_gamma                90
_cell_volume                     3447.39
_cell_formula_units_Z            8
loop_
_atom_site_label
_atom_site_type_symbol
_atom_site_fract_x
_atom_site_fract_y
_atom_site_fract_z
Br1 Br 0.12235(2) 0.48073(5) 0.37114(3)
F1 F 0.10860(11) 1.1583(2) 0.01320(13)
F2 F 0.07143(11) 1.4105(3) -0.01946(12)
F3 F 0.16505(11) 1.3702(3) 0.08240(13)
O1 O 0.01072(13) 1.2599(3) 0.02909(14)
O2 O 0.08158(12) 1.4448(3) 0.12564(14)
H1 H 0.0909 1.5218 0.1057
O3 O -0.11298(13) 1.2641(3) -0.07459(15)
O4 O -0.13558(13) 1.1802(3) 0.01166(15)
O5 O 0.19324(14) 1.2498(3) 0.27061(16)
O6 O 0.20964(13) 1.1094(3) 0.18887(15)
C1 C 0.1044(2) 0.6866(4) 0.3151(2)
C2 C 0.1319(2) 0.8343(5) 0.3546(2)
H2 H 0.1595 0.8346 0.4093
C3 C 0.1182(2) 0.9831(5) 0.3128(2)
H3 H 0.1365 1.0858 0.3394
C4 C 0.07859(19) 0.9833(4) 0.2333(2)
C5 C 0.0510(2) 0.8310(4) 0.1950(2)
H4 H 0.0234 0.8300 0.1403
C6 C 0.0635(2) 0.6820(4) 0.2356(2)
H5 H 0.0444 0.5793 0.2095
C7 C 0.06391(17) 1.1460(4) 0.1870(2)
H6 H 0.0769 1.2435 0.2232
C8 C -0.00533(19) 1.1615(4) 0.1265(2)
H7 H -0.0351 1.1337 0.1397
C9 C -0.02796(19) 1.2125(4) 0.0546(2)
C10 C 0.07569(18) 1.2936(4) 0.0887(2)
C11 C 0.10265(18) 1.1524(4) 0.1490(2)
H8 H 0.0973 1.0428 0.1224
C12 C -0.09586(19) 1.2226(4) -0.0098(2)
C13 C -0.20218(19) 1.1811(5) -0.0495(2)
H9 H -0.2274 1.1366 -0.0302
H10 H -0.2088 1.1108 -0.0921
H11 H -0.2157 1.2967 -0.0678
C14 C 0.17245(19) 1.1778(4) 0.2098(2)
C15 C 0.2776(2) 1.1415(5) 0.2401(3)
H12 H 0.3009 1.0758 0.2232
H13 H 0.2918 1.1087 0.2928
H14 H 0.2859 1.2616 0.2390
C16 C 0.10615(19) 1.3075(4) 0.0412(2)
loop_
_geom_bond_atom_site_label_1
_geom_bond_atom_site_label_2
_geom_bond_site_symmetry_1
_geom_bond_site_symmetry_2
Br1 C1 1_555 1_555
F1 C16 1_555 1_555
F2 C16 1_555 1_555
F3 C16 1_555 1_555
O1 C9 1_555 1_555
O2 H1 1_555 1_555
O3 C12 1_555 1_555
O4 C12 1_555 1_555
O5 C14 1_555 1_555
O6 C14 1_555 1_555
C1 C2 1_555 1_555
C2 H2 1_555 1_555
C3 C2 1_555 1_555
H3 C3 1_555 1_555
C4 C3 1_555 1_555
C5 C4 1_555 1_555
H4 C5 1_555 1_555
C6 C1 1_555 1_555
H5 C6 1_555 1_555
C7 C4 1_555 1_555
H6 C7 1_555 1_555
C8 C7 1_555 1_555
H7 C8 1_555 1_555
C9 C8 1_555 1_555
C10 O1 1_555 1_555
C11 C7 1_555 1_555
H8 C11 1_555 1_555
C12 C9 1_555 1_555
C13 O4 1_555 1_555
H9 C13 1_555 1_555
H10 C13 1_555 1_555
H11 C13 1_555 1_555
C14 C11 1_555 1_555
C15 O6 1_555 1_555
H12 C15 1_555 1_555
H13 C15 1_555 1_555
H14 C15 1_555 1_555
C16 C10 1_555 1_555
O2 C10 1_555 1_555
C5 C6 1_555 1_555
C10 C11 1_555 1_555

#END
