
#######################################################################
#
#                 Cambridge Crystallographic Data Centre
#                                CCDC 
#
#######################################################################
#
# If this CIF has been generated from an entry in the Cambridge 
# Structural Database, then it will include bibliographic, chemical, 
# crystal, experimental, refinement or atomic coordinate data resulting 
# from the CCDC's data processing and validation procedures.
#
#######################################################################

data_OTAPEF
_chemical_formula_moiety         'C24 H27 N1 O4 S1'
_chemical_name_systematic        
'Ethyl (2-allyl-4-phenyl-1-(phenylsulfonyl)-1,2,5,6-tetrahydropyridin-3-yl)acetate'
_symmetry_cell_setting           orthorhombic
_symmetry_space_group_name_H-M   'P b c a'
_symmetry_Int_Tables_number      61
_space_group_name_Hall           '-P 2ac 2ab'
loop_
_symmetry_equiv_pos_site_id
_symmetry_equiv_pos_as_xyz
1 x,y,z
2 1/2+x,1/2-y,-z
3 -x,1/2+y,1/2-z
4 1/2-x,-y,1/2+z
5 -x,-y,-z
6 1/2-x,1/2+y,z
7 x,1/2-y,1/2+z
8 1/2+x,y,1/2-z
_cell_length_a                   11.4404(4)
_cell_length_b                   13.4413(5)
_cell_length_c                   28.2666(10)
_cell_angle_alpha                90
_cell_angle_beta                 90
_cell_angle_gamma                90
_cell_volume                     4346.66
_exptl_crystal_colour            colorless
_cell_formula_units_Z            8
loop_
_atom_site_label
_atom_site_type_symbol
_atom_site_fract_x
_atom_site_fract_y
_atom_site_fract_z
S1 S 1.13020(3) 0.24577(3) 0.327256(11)
O1 O 1.18273(8) 0.29493(8) 0.28749(3)
O2 O 0.78098(9) -0.01340(8) 0.46333(3)
O3 O 0.90908(11) 0.10985(9) 0.45084(4)
O4 O 1.19408(8) 0.16973(8) 0.35164(3)
N1 N 1.00834(9) 0.19681(8) 0.30997(4)
C1 C 0.44416(12) 0.29228(11) 0.40251(6)
H1 H 0.3698 0.3104 0.4148
C2 C 0.45964(12) 0.28071(11) 0.35410(5)
H2 H 0.3958 0.2908 0.3331
C3 C 0.56843(12) 0.25436(10) 0.33639(5)
H3 H 0.5787 0.2476 0.3032
C4 C 0.66316(11) 0.23755(10) 0.36657(5)
C5 C 0.77974(11) 0.21319(10) 0.34565(4)
C6 C 0.82685(11) 0.29411(10) 0.31368(4)
H4 H 0.8553 0.3501 0.3333
H5 H 0.7628 0.3194 0.2934
C7 C 0.92580(11) 0.25732(10) 0.28247(4)
H6 H 0.8934 0.2170 0.2562
H7 H 0.9674 0.3149 0.2686
C8 C 1.09231(11) 0.34009(10) 0.36817(4)
C9 C 1.03443(12) 0.31270(11) 0.40954(5)
H8 H 1.0220 0.2445 0.4169
C10 C 0.99542(13) 0.38646(12) 0.43976(5)
H9 H 0.9553 0.3689 0.4680
C11 C 1.01449(14) 0.48589(12) 0.42916(5)
H10 H 0.9866 0.5361 0.4499
C12 C 0.83860(11) 0.12928(10) 0.35418(4)
C13 C 0.95805(11) 0.10831(10) 0.33265(4)
H11 H 1.0118 0.0873 0.3587
C14 C 0.95509(12) 0.02397(10) 0.29528(5)
H12 H 0.9210 -0.0366 0.3096
H13 H 0.9045 0.0443 0.2686
C15 C 1.07508(13) 0.00086(11) 0.27707(6)
H14 H 1.1283 -0.0308 0.2980
C16 C 1.11180(15) 0.02143(12) 0.23406(6)
H15 H 1.0609 0.0531 0.2122
H16 H 1.1892 0.0046 0.2249
C17 C 0.79145(11) 0.04795(10) 0.38592(4)
H17 H 0.8138 -0.0174 0.3725
H18 H 0.7050 0.0516 0.3861
C18 C 0.83532(12) 0.05412(11) 0.43645(5)
C19 C 0.81435(14) -0.01734(14) 0.51325(5)
H19 H 0.7772 0.0379 0.5308
H20 H 0.9002 -0.0112 0.5165
C20 C 0.77421(14) -0.11502(13) 0.53245(5)
H21 H 0.6896 -0.1214 0.5279
H22 H 0.7925 -0.1187 0.5663
H23 H 0.8142 -0.1691 0.5157
C21 C 0.53743(13) 0.27723(12) 0.43285(5)
H24 H 0.5270 0.2856 0.4660
C22 C 0.64656(12) 0.24981(11) 0.41518(5)
H25 H 0.7100 0.2394 0.4363
C23 C 1.11302(13) 0.43939(11) 0.35749(5)
H26 H 1.1534 0.4572 0.3294
C24 C 1.07390(14) 0.51217(12) 0.38847(5)
H27 H 1.0880 0.5803 0.3817
loop_
_geom_bond_atom_site_label_1
_geom_bond_atom_site_label_2
_geom_bond_site_symmetry_1
_geom_bond_site_symmetry_2
S1 O1 1_555 1_555
O2 C18 1_555 1_555
O3 C18 1_555 1_555
O4 S1 1_555 1_555
N1 S1 1_555 1_555
C1 H1 1_555 1_555
C2 C1 1_555 1_555
H2 C2 1_555 1_555
C3 C2 1_555 1_555
H3 C3 1_555 1_555
C4 C3 1_555 1_555
C5 C4 1_555 1_555
C6 C5 1_555 1_555
H4 C6 1_555 1_555
H5 C6 1_555 1_555
C7 N1 1_555 1_555
H6 C7 1_555 1_555
H7 C7 1_555 1_555
C8 S1 1_555 1_555
C9 C8 1_555 1_555
H8 C9 1_555 1_555
C10 C9 1_555 1_555
H9 C10 1_555 1_555
C11 C10 1_555 1_555
H10 C11 1_555 1_555
C12 C5 1_555 1_555
C13 N1 1_555 1_555
H11 C13 1_555 1_555
C14 C13 1_555 1_555
H12 C14 1_555 1_555
H13 C14 1_555 1_555
C15 C14 1_555 1_555
H14 C15 1_555 1_555
C16 C15 1_555 1_555
H15 C16 1_555 1_555
H16 C16 1_555 1_555
C17 C12 1_555 1_555
H17 C17 1_555 1_555
H18 C17 1_555 1_555
C18 C17 1_555 1_555
C19 O2 1_555 1_555
H19 C19 1_555 1_555
H20 C19 1_555 1_555
C20 C19 1_555 1_555
H21 C20 1_555 1_555
H22 C20 1_555 1_555
H23 C20 1_555 1_555
C21 C1 1_555 1_555
H24 C21 1_555 1_555
C22 C4 1_555 1_555
H25 C22 1_555 1_555
C23 C8 1_555 1_555
H26 C23 1_555 1_555
C24 C11 1_555 1_555
H27 C24 1_555 1_555
C6 C7 1_555 1_555
C12 C13 1_555 1_555
C21 C22 1_555 1_555
C23 C24 1_555 1_555

#END
