
#######################################################################
#
#                 Cambridge Crystallographic Data Centre
#                                CCDC 
#
#######################################################################
#
# If this CIF has been generated from an entry in the Cambridge 
# Structural Database, then it will include bibliographic, chemical, 
# crystal, experimental, refinement or atomic coordinate data resulting 
# from the CCDC's data processing and validation procedures.
#
#######################################################################

data_OTAQEG
_chemical_name_common            'Agomelatine ethylene glycol solvate'
_chemical_formula_moiety         'C15 H17 N1 O2,C2 H6 O2'
_chemical_name_systematic        
'N-(2-(7-Methoxy-1-naphthyl)ethyl)acetamide ethylene glycol solvate'
_symmetry_cell_setting           monoclinic
_symmetry_space_group_name_H-M   'P 21'
_symmetry_Int_Tables_number      4
_space_group_name_Hall           'P 2yb'
loop_
_symmetry_equiv_pos_site_id
_symmetry_equiv_pos_as_xyz
1 x,y,z
2 -x,1/2+y,-z
_cell_length_a                   13.054(1)
_cell_length_b                   7.347(1)
_cell_length_c                   8.766(1)
_cell_angle_alpha                90
_cell_angle_beta                 95.177(2)
_cell_angle_gamma                90
_cell_volume                     837.298
_cell_formula_units_Z            2
loop_
_atom_site_label
_atom_site_type_symbol
_atom_site_fract_x
_atom_site_fract_y
_atom_site_fract_z
C1 C 1.17555 2.07632 0.58528
C2 C 1.15730 2.20867 0.68829
H1 H 1.17742 2.18856 0.79151
C3 C 1.10961 2.37317 0.64495
H2 H 1.09676 2.46020 0.71802
C4 C 1.08298 2.40299 0.49614
H3 H 1.05342 2.51413 0.46606
C5 C 1.09834 2.27173 0.38361
C6 C 1.07110 2.30076 0.22835
H4 H 1.04212 2.41172 0.19774
C7 C 1.08511 2.17575 0.12131
H5 H 1.06504 2.19979 0.01860
C8 C 1.13028 2.00740 0.16549
C9 C 1.16080 1.97151 0.31580
H6 H 1.19062 1.85991 0.34399
C10 C 1.14651 2.10415 0.42803
O1 O 1.13698 1.88816 0.05083
C11 C 1.19750 1.73091 0.07931
H7 H 1.19522 1.65822 -0.01203
H8 H 1.26730 1.76556 0.10938
H9 H 1.17101 1.66132 0.16003
C12 C 1.37517 1.57995 0.53351
N1 N 1.37802 1.70542 0.64072
C13 C 1.33612 1.88677 0.61161
H10 H 1.37561 1.97325 0.67665
H11 H 1.34327 1.91957 0.50591
C14 C 1.22376 1.89964 0.64164
H12 H 1.21798 1.88886 0.75076
H13 H 1.18631 1.79919 0.59106
O2 O 1.34067 1.60999 0.40077
C15 C 1.41673 1.39798 0.58439
H14 H 1.43991 1.40253 0.69145
H15 H 1.36371 1.30774 0.56743
H16 H 1.47346 1.36675 0.52680
H17 H 1.41597 1.69249 0.72662
C16 C -0.62802 0.24565 0.15216
C17 C -0.58295 0.14002 0.02767
O3 O -0.59261 0.42867 0.16855
O4 O -0.47399 0.11914 0.04797
H18 H -0.60713 0.17861 0.26281
H19 H -0.71295 0.24367 0.13397
H20 H -0.60002 0.21139 -0.08201
H21 H -0.62001 0.00496 0.01486
H22 H -0.62696 0.47851 0.25027
H23 H -0.45629 0.05060 -0.03799
loop_
_geom_bond_atom_site_label_1
_geom_bond_atom_site_label_2
_geom_bond_site_symmetry_1
_geom_bond_site_symmetry_2
C1 C2 1_555 1_555
C2 H1 1_555 1_555
C3 C2 1_555 1_555
H2 C3 1_555 1_555
C4 C3 1_555 1_555
H3 C4 1_555 1_555
C5 C4 1_555 1_555
C6 C5 1_555 1_555
H4 C6 1_555 1_555
C7 C6 1_555 1_555
H5 C7 1_555 1_555
C8 C7 1_555 1_555
C9 C8 1_555 1_555
H6 C9 1_555 1_555
C10 C1 1_555 1_555
O1 C8 1_555 1_555
C11 O1 1_555 1_555
H7 C11 1_555 1_555
H8 C11 1_555 1_555
H9 C11 1_555 1_555
C12 N1 1_555 1_555
N1 C13 1_555 1_555
C13 H10 1_555 1_555
H11 C13 1_555 1_555
C14 C1 1_555 1_555
H12 C14 1_555 1_555
H13 C14 1_555 1_555
O2 C12 1_555 1_555
C15 C12 1_555 1_555
H14 C15 1_555 1_555
H15 C15 1_555 1_555
H16 C15 1_555 1_555
H17 N1 1_555 1_555
C16 C17 1_555 1_555
C17 O4 1_555 1_555
O3 C16 1_555 1_555
O4 H23 1_555 1_555
H18 C16 1_555 1_555
H19 C16 1_555 1_555
H20 C17 1_555 1_555
H21 C17 1_555 1_555
H22 O3 1_555 1_555
C5 C10 1_555 1_555
C9 C10 1_555 1_555
C13 C14 1_555 1_555

#END
