
#######################################################################
#
#                 Cambridge Crystallographic Data Centre
#                                CCDC 
#
#######################################################################
#
# If this CIF has been generated from an entry in the Cambridge 
# Structural Database, then it will include bibliographic, chemical, 
# crystal, experimental, refinement or atomic coordinate data resulting 
# from the CCDC's data processing and validation procedures.
#
#######################################################################

data_OTAROS
_chemical_name_common            
2-(morpholin-4-yl)-16-(pyrrolidin-1-yl)androstane-3,17-diol
_chemical_formula_moiety         'C27 H46 N2 O3'
_chemical_name_systematic        
(2\b,3\a,5\a,16\b,17\b)-2-(4-morpholinyl)-16-(1-pyrrolidinyl)androstan-3,17-diol
_symmetry_cell_setting           monoclinic
_symmetry_space_group_name_H-M   'P 21'
_symmetry_Int_Tables_number      4
_space_group_name_Hall           'P 2yb'
loop_
_symmetry_equiv_pos_site_id
_symmetry_equiv_pos_as_xyz
1 x,y,z
2 -x,1/2+y,-z
_cell_length_a                   5.99500(10)
_cell_length_b                   18.5747(4)
_cell_length_c                   11.4593(3)
_cell_angle_alpha                90
_cell_angle_beta                 95.7560(10)
_cell_angle_gamma                90
_cell_volume                     1269.62
_exptl_crystal_colour            colorless
_exptl_crystal_description       block
_cell_formula_units_Z            2
loop_
_atom_site_label
_atom_site_type_symbol
_atom_site_fract_x
_atom_site_fract_y
_atom_site_fract_z
O1 O 1.4015(3) -0.00281(15) 0.5840(2)
H1 H 1.2837 0.0099 0.6141
C1 C 1.1525(5) 0.09233(16) 0.2117(3)
H2 H 1.2455 0.1220 0.1636
H3 H 1.0367 0.1240 0.2403
C2 C 0.9528(4) 0.11683(13) -0.1850(3)
H4 H 1.0770 0.1360 -0.2281
C3 C 0.9687(5) -0.10018(18) 0.3962(3)
H5 H 0.9333 -0.1472 0.3579
H6 H 0.8332 -0.0815 0.4288
O2 O 0.5695(4) 0.30640(15) -0.2697(2)
C4 C 0.8974(4) 0.06003(15) 0.0207(2)
N1 N 1.1005(4) -0.11928(14) 0.6103(2)
O3 O 1.0721(3) 0.00450(14) -0.25203(18)
H7 H 1.0324 -0.0348 -0.2859
C5 C 1.0371(4) 0.03260(15) 0.1347(2)
H8 H 1.1603 0.0024 0.1080
C6 C 0.6621(5) -0.05524(19) 0.0206(3)
H9 H 0.6112 -0.0978 -0.0267
H10 H 0.5281 -0.0273 0.0371
C7 C 1.1677(4) 0.01205(17) 0.3915(2)
C8 C 0.7901(6) -0.07971(19) 0.1362(3)
H11 H 0.9075 -0.1145 0.1188
H12 H 0.6852 -0.1050 0.1836
C9 C 1.3010(4) 0.06211(18) 0.3172(3)
H13 H 1.3641 0.1024 0.3665
H14 H 1.4274 0.0351 0.2890
C10 C 0.8732(4) 0.04536(8) -0.2440(2)
H15 H 0.7991 0.0552 -0.3245
C11 C 0.9998(5) 0.05551(19) 0.4556(3)
H16 H 1.0808 0.0908 0.5074
H17 H 0.9161 0.0229 0.5024
H18 H 0.8954 0.0806 0.3981
C12 C 0.7091(5) 0.00757(18) -0.1716(3)
H19 H 0.6592 -0.0380 -0.2109
H20 H 0.5755 0.0385 -0.1675
C13 C 1.0560(4) -0.04659(17) 0.3105(3)
H21 H 1.1805 -0.0716 0.2749
C14 C 0.7014(4) 0.10771(19) 0.0521(3)
H22 H 0.6145 0.0818 0.1068
H23 H 0.6043 0.1193 -0.0194
H24 H 0.7607 0.1523 0.0889
C15 C 0.8127(4) -0.00890(16) -0.0477(3)
H25 H 0.9492 -0.0386 -0.0567
C16 C 0.9003(4) -0.01753(17) 0.2084(3)
H26 H 0.7800 0.0115 0.2405
N2 N 0.7690(3) 0.17114(5) -0.19470(18)
C17 C 0.8450(5) 0.24057(10) -0.1395(3)
H27 H 0.9705 0.2605 -0.1794
H28 H 0.8981 0.2329 -0.0559
C18 C 1.1657(4) -0.10671(17) 0.4914(2)
H29 H 1.2579 -0.1488 0.4708
C19 C 0.5015(6) 0.2416(2) -0.3247(4)
H30 H 0.4488 0.2514 -0.4078
H31 H 0.3739 0.2217 -0.2866
C20 C 1.3126(4) -0.03633(19) 0.4792(3)
H32 H 1.4443 -0.0517 0.4382
C21 C 1.2849(6) -0.15003(19) 0.6897(3)
H33 H 1.3984 -0.1129 0.7144
H34 H 1.3587 -0.1900 0.6513
C22 C 1.1703(7) -0.1773(2) 0.7945(3)
H35 H 1.1759 -0.1404 0.8572
H36 H 1.2432 -0.2218 0.8270
C23 C 0.6508(6) 0.2923(2) -0.1502(4)
H37 H 0.5275 0.2721 -0.1090
H38 H 0.6983 0.3382 -0.1114
C24 C 0.6879(6) 0.1862(2) -0.3193(2)
H39 H 0.6316 0.1412 -0.3582
H40 H 0.8130 0.2045 -0.3611
C25 C 0.9212(6) -0.1740(2) 0.6140(3)
H41 H 0.9531 -0.2171 0.5677
H42 H 0.7735 -0.1541 0.5835
C26 C 0.9270(6) -0.1922(2) 0.7448(3)
H43 H 0.8874 -0.2433 0.7560
H44 H 0.8214 -0.1614 0.7834
C27 C 1.0507(4) 0.10086(16) -0.0577(2)
H45 H 1.0935 0.1472 -0.0192
H46 H 1.1898 0.0725 -0.0607
loop_
_geom_bond_atom_site_label_1
_geom_bond_atom_site_label_2
_geom_bond_site_symmetry_1
_geom_bond_site_symmetry_2
O1 H1 1_555 1_555
C1 H2 1_555 1_555
H3 C1 1_555 1_555
C2 H4 1_555 1_555
C3 H5 1_555 1_555
H6 C3 1_555 1_555
O2 C19 1_555 1_555
C4 C5 1_555 1_555
N1 C18 1_555 1_555
O3 H7 1_555 1_555
C5 C1 1_555 1_555
H8 C5 1_555 1_555
C6 H9 1_555 1_555
H10 C6 1_555 1_555
C7 C9 1_555 1_555
C8 C6 1_555 1_555
H11 C8 1_555 1_555
H12 C8 1_555 1_555
C9 C1 1_555 1_555
H13 C9 1_555 1_555
H14 C9 1_555 1_555
C10 C2 1_555 1_555
H15 C10 1_555 1_555
C11 C7 1_555 1_555
H16 C11 1_555 1_555
H17 C11 1_555 1_555
H18 C11 1_555 1_555
C12 C10 1_555 1_555
H19 C12 1_555 1_555
H20 C12 1_555 1_555
C13 C3 1_555 1_555
H21 C13 1_555 1_555
C14 C4 1_555 1_555
H22 C14 1_555 1_555
H23 C14 1_555 1_555
H24 C14 1_555 1_555
C15 C4 1_555 1_555
H25 C15 1_555 1_555
C16 C5 1_555 1_555
H26 C16 1_555 1_555
N2 C2 1_555 1_555
C17 N2 1_555 1_555
H27 C17 1_555 1_555
H28 C17 1_555 1_555
C18 C3 1_555 1_555
H29 C18 1_555 1_555
C19 H30 1_555 1_555
H31 C19 1_555 1_555
C20 O1 1_555 1_555
H32 C20 1_555 1_555
C21 N1 1_555 1_555
H33 C21 1_555 1_555
H34 C21 1_555 1_555
C22 C21 1_555 1_555
H35 C22 1_555 1_555
H36 C22 1_555 1_555
C23 O2 1_555 1_555
H37 C23 1_555 1_555
H38 C23 1_555 1_555
C24 N2 1_555 1_555
H39 C24 1_555 1_555
H40 C24 1_555 1_555
C25 N1 1_555 1_555
H41 C25 1_555 1_555
H42 C25 1_555 1_555
C26 C22 1_555 1_555
H43 C26 1_555 1_555
H44 C26 1_555 1_555
C27 C2 1_555 1_555
H45 C27 1_555 1_555
H46 C27 1_555 1_555
C4 C27 1_555 1_555
O3 C10 1_555 1_555
C6 C15 1_555 1_555
C7 C13 1_555 1_555
C7 C20 1_555 1_555
C8 C16 1_555 1_555
C12 C15 1_555 1_555
C13 C16 1_555 1_555
C17 C23 1_555 1_555
C18 C20 1_555 1_555
C19 C24 1_555 1_555
C25 C26 1_555 1_555

#END
