
#######################################################################
#
#                 Cambridge Crystallographic Data Centre
#                                CCDC 
#
#######################################################################
#
# If this CIF has been generated from an entry in the Cambridge 
# Structural Database, then it will include bibliographic, chemical, 
# crystal, experimental, refinement or atomic coordinate data resulting 
# from the CCDC's data processing and validation procedures.
#
#######################################################################

data_OTAREI
_chemical_formula_moiety         'C38 H34 N10 4+,4(H1 O4 S1 1-),H2 O1'
_chemical_name_systematic        
'6,12,25,31,42,47-hexaaza-3,15,22,34-tetraazonianonacyclo[34.2.2.2^17,20^.1^3,6^.1^7,11^.1^12,15^.1^22,25^.1^26,30^.1^31,34^]octatetraconta-1(38),3(48),4,7(47),8,10,13,15(46),17,19,22(43),23,26(42),27,29,32,34(41),36,39,44-icosaene tetrakis(hydrogen sulfate) monohydrate'
_symmetry_cell_setting           monoclinic
_symmetry_space_group_name_H-M   'P 21/n'
_symmetry_Int_Tables_number      14
_space_group_name_Hall           '-P 2yn'
loop_
_symmetry_equiv_pos_site_id
_symmetry_equiv_pos_as_xyz
1 x,y,z
2 1/2-x,1/2+y,1/2-z
3 -x,-y,-z
4 1/2+x,1/2-y,1/2+z
_cell_length_a                   13.467(3)
_cell_length_b                   12.395(3)
_cell_length_c                   15.649(3)
_cell_angle_alpha                90
_cell_angle_beta                 95.73(3)
_cell_angle_gamma                90
_cell_volume                     2599.13
_exptl_crystal_colour            colorless
_exptl_crystal_description       Prism
_cell_formula_units_Z            2
loop_
_atom_site_label
_atom_site_type_symbol
_atom_site_fract_x
_atom_site_fract_y
_atom_site_fract_z
S2 S -0.16568(12) 1.63358(13) -0.32522(11)
O5 O -0.2385(3) 1.5694(4) -0.2787(3)
O6 O -0.1717(4) 1.6001(4) -0.4157(3)
O7 O -0.0634(3) 1.6200(4) -0.2813(3)
H2 H -0.0587 1.5607 -0.2580
O8 O -0.1919(3) 1.7518(3) -0.3177(3)
N1 N -0.2588(4) 1.3680(4) 0.0475(4)
N2 N -0.1446(4) 1.2550(4) 0.1009(3)
N3 N -0.1243(3) 1.0752(4) 0.0663(3)
N4 N -0.1173(4) 0.8973(4) 0.0262(3)
N5 N -0.2193(3) 0.8105(4) -0.0659(3)
C1 C -0.4664(6) 1.3852(7) 0.1122(5)
H3 H -0.4272 1.4331 0.1466
C2 C -0.4434(4) 1.3655(5) 0.0317(4)
C3 C -0.5074(6) 1.3050(7) -0.0227(5)
H4 H -0.4951 1.2958 -0.0797
C4 C -0.3495(5) 1.4124(5) 0.0013(4)
H5 H -0.3490 1.3978 -0.0596
H6 H -0.3500 1.4900 0.0089
C5 C -0.2263(5) 1.2674(5) 0.0441(4)
H7 H -0.2551 1.2137 0.0082
C6 C -0.1980(6) 1.4212(6) 0.1126(6)
H8 H -0.2061 1.4914 0.1318
C7 C -0.1265(6) 1.3522(6) 0.1418(5)
H9 H -0.0735 1.3673 0.1828
C8 C -0.0885(4) 1.1580(5) 0.1146(4)
C9 C -0.0070(4) 1.1534(6) 0.1758(5)
H10 H 0.0135 1.2130 0.2091
C10 C 0.0427(5) 1.0555(6) 0.1848(4)
H11 H 0.0982 1.0486 0.2248
C11 C 0.0102(4) 0.9681(5) 0.1347(4)
H12 H 0.0442 0.9028 0.1384
C12 C -0.0756(4) 0.9821(5) 0.0786(4)
C13 C -0.1994(4) 0.9054(5) -0.0317(4)
H13 H -0.2356 0.9681 -0.0448
C14 C -0.0867(5) 0.7905(5) 0.0258(5)
H14 H -0.0328 0.7608 0.0595
C15 C -0.1490(5) 0.7376(5) -0.0321(5)
H15 H -0.1454 0.6651 -0.0466
C16 C -0.3033(5) 0.7860(5) -0.1305(4)
H16 H -0.2799 0.7405 -0.1748
H17 H -0.3281 0.8525 -0.1573
C17 C -0.4091(6) 0.7428(6) -0.0078(6)
H18 H -0.3668 0.7849 0.0291
C18 C -0.3885(5) 0.7288(5) -0.0909(4)
C19 C -0.4512(6) 0.6652(7) -0.1460(5)
H19 H -0.4395 0.6559 -0.2031
N1B N -0.7412(4) 0.6320(4) -0.0475(4)
N2B N -0.8554(4) 0.7450(4) -0.1009(3)
N3B N -0.8757(3) 0.9248(4) -0.0663(3)
N4B N -0.8827(4) 1.1027(4) -0.0262(3)
N5B N -0.7807(3) 1.1895(4) 0.0659(3)
C1B C -0.5336(6) 0.6148(7) -0.1122(5)
H3B H -0.5728 0.5669 -0.1466
C2B C -0.5566(4) 0.6345(5) -0.0317(4)
C3B C -0.4926(6) 0.6950(7) 0.0227(5)
H4B H -0.5049 0.7042 0.0797
C4B C -0.6505(5) 0.5876(5) -0.0013(4)
H5B H -0.6510 0.6022 0.0596
H6B H -0.6500 0.5100 -0.0089
C5B C -0.7737(5) 0.7326(5) -0.0441(4)
H7B H -0.7449 0.7863 -0.0082
C6B C -0.8020(6) 0.5788(6) -0.1126(6)
H8B H -0.7939 0.5086 -0.1318
C7B C -0.8735(6) 0.6478(6) -0.1418(5)
H9B H -0.9265 0.6327 -0.1828
C8B C -0.9115(4) 0.8420(5) -0.1146(4)
C9B C -0.9930(4) 0.8466(6) -0.1758(5)
H10B H -1.0135 0.7870 -0.2091
C10B C -1.0427(5) 0.9445(6) -0.1848(4)
H11B H -1.0982 0.9514 -0.2248
C11B C -1.0102(4) 1.0319(5) -0.1347(4)
H12B H -1.0442 1.0972 -0.1384
C12B C -0.9244(4) 1.0179(5) -0.0786(4)
C13B C -0.8006(4) 1.0946(5) 0.0317(4)
H13B H -0.7644 1.0319 0.0448
C14B C -0.9133(5) 1.2095(5) -0.0258(5)
H14B H -0.9672 1.2392 -0.0595
C15B C -0.8510(5) 1.2624(5) 0.0321(5)
H15B H -0.8546 1.3349 0.0466
C16B C -0.6967(5) 1.2140(5) 0.1305(4)
H16B H -0.7201 1.2595 0.1748
H17B H -0.6719 1.1475 0.1573
C17B C -0.5909(6) 1.2572(6) 0.0078(6)
H18B H -0.6332 1.2151 -0.0291
C18B C -0.6115(5) 1.2712(5) 0.0909(4)
C19B C -0.5488(6) 1.3348(7) 0.1460(5)
H19B H -0.5605 1.3441 0.2031
S1 S -0.09212(13) 1.41341(14) -0.12651(12)
O1 O -0.0303(4) 1.4353(4) -0.2018(4)
H1 H -0.0453 1.4945 -0.2227
O2 O -0.0286(5) 1.4203(4) -0.0416(4)
O3 O -0.1277(4) 1.2962(3) -0.1346(3)
O4 O -0.1789(4) 1.4943(3) -0.1306(3)
H20? H -0.0207 1.4838 -0.0278
H21? H -0.1929 1.5138 -0.1804
H22? H -0.3429 1.0360 -0.0816
H23? H -0.2489 1.2607 -0.1658
H24? H -0.2888 1.0494 -0.2678
H25? H -0.1875 1.2950 -0.1507
loop_
_geom_bond_atom_site_label_1
_geom_bond_atom_site_label_2
_geom_bond_site_symmetry_1
_geom_bond_site_symmetry_2
S1 O1 1_555 1_555
O1 H1 1_555 1_555
O2 S1 1_555 1_555
O3 S1 1_555 1_555
O4 S1 1_555 1_555
S2 O5 1_555 1_555
O6 S2 1_555 1_555
O7 S2 1_555 1_555
H2 O7 1_555 1_555
O8 S2 1_555 1_555
N1 C4 1_555 1_555
N2 C5 1_555 1_555
N3 C8 1_555 1_555
N4 C12 1_555 1_555
N5 C13 1_555 1_555
C1 H3 1_555 1_555
C2 C1 1_555 1_555
C3 C2 1_555 1_555
H4 C3 1_555 1_555
C4 C2 1_555 1_555
H5 C4 1_555 1_555
H6 C4 1_555 1_555
C5 N1 1_555 1_555
H7 C5 1_555 1_555
C6 N1 1_555 1_555
H8 C6 1_555 1_555
C7 N2 1_555 1_555
H9 C7 1_555 1_555
C8 N2 1_555 1_555
C9 C8 1_555 1_555
H10 C9 1_555 1_555
C10 C9 1_555 1_555
H11 C10 1_555 1_555
C11 C10 1_555 1_555
H12 C11 1_555 1_555
C12 N3 1_555 1_555
C13 N4 1_555 1_555
H13 C13 1_555 1_555
C14 N4 1_555 1_555
H14 C14 1_555 1_555
C15 N5 1_555 1_555
H15 C15 1_555 1_555
C16 N5 1_555 1_555
H16 C16 1_555 1_555
H17 C16 1_555 1_555
C17 H18 1_555 1_555
C18 C16 1_555 1_555
C19 C18 1_555 1_555
H19 C19 1_555 1_555
N1B C4B 1_555 1_555
N2B C5B 1_555 1_555
N3B C8B 1_555 1_555
N4B C12B 1_555 1_555
N5B C13B 1_555 1_555
C1B C19 1_555 1_555
H3B C1B 1_555 1_555
C2B C1B 1_555 1_555
C3B C17 1_555 1_555
H4B C3B 1_555 1_555
C4B C2B 1_555 1_555
H5B C4B 1_555 1_555
H6B C4B 1_555 1_555
C5B N1B 1_555 1_555
H7B C5B 1_555 1_555
C6B N1B 1_555 1_555
H8B C6B 1_555 1_555
C7B N2B 1_555 1_555
H9B C7B 1_555 1_555
C8B N2B 1_555 1_555
C9B C8B 1_555 1_555
H10B C9B 1_555 1_555
C10B C9B 1_555 1_555
H11B C10B 1_555 1_555
C11B C10B 1_555 1_555
H12B C11B 1_555 1_555
C12B N3B 1_555 1_555
C13B N4B 1_555 1_555
H13B C13B 1_555 1_555
C14B N4B 1_555 1_555
H14B C14B 1_555 1_555
C15B N5B 1_555 1_555
H15B C15B 1_555 1_555
C16B N5B 1_555 1_555
H16B C16B 1_555 1_555
H17B C16B 1_555 1_555
C17B C3 1_555 1_555
H18B C17B 1_555 1_555
C18B C16B 1_555 1_555
C19B C1 1_555 1_555
H19B C19B 1_555 1_555
C6 C7 1_555 1_555
C11 C12 1_555 1_555
C14 C15 1_555 1_555
C17 C18 1_555 1_555
C2B C3B 1_555 1_555
C6B C7B 1_555 1_555
C11B C12B 1_555 1_555
C14B C15B 1_555 1_555
C17B C18B 1_555 1_555
C18B C19B 1_555 1_555

#END
