
#######################################################################
#
#                 Cambridge Crystallographic Data Centre
#                                CCDC 
#
#######################################################################
#
# If this CIF has been generated from an entry in the Cambridge 
# Structural Database, then it will include bibliographic, chemical, 
# crystal, experimental, refinement or atomic coordinate data resulting 
# from the CCDC's data processing and validation procedures.
#
#######################################################################

data_OTEDUN
_chemical_formula_moiety         'C30 H25 Cl1 N6,H2 O1,C1 H2 Cl2'
_chemical_name_systematic        
'7-Chloro-2-((5,7-dimethyl-1,8-naphthyridin-2-yl)(5,7-dimethyl-1,8-naphthyridin-2(1H)-ylidene)methyl)-4-methyl-1,8-naphthyridine dichloromethane solvate monohydrate'
_symmetry_cell_setting           monoclinic
_symmetry_space_group_name_H-M   'P 21/c'
_symmetry_Int_Tables_number      14
_space_group_name_Hall           '-P 2ybc'
loop_
_symmetry_equiv_pos_site_id
_symmetry_equiv_pos_as_xyz
1 x,y,z
2 -x,1/2+y,1/2-z
3 -x,-y,-z
4 x,1/2-y,1/2+z
_cell_length_a                   14.215(4)
_cell_length_b                   11.089(3)
_cell_length_c                   18.409(5)
_cell_angle_alpha                90
_cell_angle_beta                 101.018(4)
_cell_angle_gamma                90
_cell_volume                     2848.32
_exptl_crystal_colour            red
_exptl_crystal_description       block
_cell_formula_units_Z            4
loop_
_atom_site_label
_atom_site_type_symbol
_atom_site_fract_x
_atom_site_fract_y
_atom_site_fract_z
Cl1 Cl -0.35067(5) 0.44231(7) 0.04714(4)
N1 N -0.16548(15) 0.4654(2) 0.08706(12)
N2 N -0.00425(15) 0.50226(19) 0.11276(11)
N3 N 0.29252(16) 0.5711(2) 0.24273(12)
N4 N 0.41054(17) 0.6014(2) 0.34497(13)
N5 N 0.06556(15) 0.6834(2) 0.04792(12)
H3 H 0.019(2) 0.642(3) 0.0522(17)
N6 N -0.03947(15) 0.7962(2) -0.03523(11)
C1 C -0.23886(19) 0.4010(2) 0.09852(15)
C2 C -0.2353(2) 0.3041(2) 0.14737(16)
H4 H -0.2912 0.2593 0.1512
C3 C -0.1481(2) 0.2764(2) 0.18944(15)
H5 H -0.1426 0.2127 0.2245
C4 C -0.0668(2) 0.3422(2) 0.18085(14)
C5 C -0.07831(18) 0.4353(2) 0.12719(14)
C6 C 0.08523(18) 0.4810(2) 0.15130(14)
C7 C 0.1006(2) 0.3885(2) 0.20679(14)
H6 H 0.1637 0.3746 0.2336
C8 C 0.0278(2) 0.3204(2) 0.22210(14)
C9 C 0.0426(2) 0.2234(3) 0.28047(16)
H7 H 0.1098 0.2231 0.3059
H8 H 0.0263 0.1448 0.2571
H9 H 0.0013 0.2393 0.3164
C10 C 0.16251(18) 0.5539(2) 0.13730(14)
C11 C 0.26193(18) 0.5220(2) 0.17700(14)
C12 C 0.3183(2) 0.4428(3) 0.14313(15)
H10 H 0.2930 0.4076 0.0964
C13 C 0.4096(2) 0.4174(3) 0.17820(15)
H11 H 0.4485 0.3643 0.1561
C14 C 0.44592(18) 0.4704(2) 0.24752(14)
C15 C 0.38386(19) 0.5461(2) 0.27807(15)
C16 C 0.4994(2) 0.5856(3) 0.38041(16)
C17 C 0.5656(2) 0.5129(3) 0.35326(16)
H12 H 0.6287 0.5042 0.3813
C18 C 0.54109(19) 0.4546(3) 0.28759(15)
C19 C 0.6116(2) 0.3800(3) 0.25710(18)
H13 H 0.6733 0.3808 0.2916
H14 H 0.6198 0.4131 0.2093
H15 H 0.5881 0.2969 0.2502
C20 C 0.5311(3) 0.6512(4) 0.45286(18)
H16 H 0.4828 0.7116 0.4590
H17 H 0.5925 0.6913 0.4529
H18 H 0.5384 0.5933 0.4938
C21 C 0.15317(18) 0.6502(2) 0.08766(14)
C22 C 0.23410(18) 0.7204(2) 0.07561(14)
H19 H 0.2962 0.7020 0.1028
C23 C 0.22314(19) 0.8113(2) 0.02665(15)
H20 H 0.2781 0.8547 0.0191
C24 C 0.13086(19) 0.8449(2) -0.01452(14)
C25 C 0.05229(18) 0.7764(2) -0.00121(13)
C26 C -0.0551(2) 0.8857(2) -0.08427(14)
C27 C 0.0191(2) 0.9582(2) -0.10089(15)
H21 H 0.0045 1.0212 -0.1362
C28 C 0.1129(2) 0.9385(2) -0.06638(15)
C29 C 0.1933(2) 1.0134(3) -0.08454(17)
H22 H 0.1671 1.0755 -0.1207
H23 H 0.2373 0.9617 -0.1054
H24 H 0.2279 1.0521 -0.0394
C30 C -0.1587(2) 0.9061(3) -0.12262(15)
H25 H -0.1908 0.8282 -0.1331
H26 H -0.1600 0.9498 -0.1691
H27 H -0.1918 0.9536 -0.0903
Cl2 Cl 0.50733(5) 0.67905(7) 0.11077(5)
Cl3 Cl 0.69130(6) 0.68660(9) 0.21024(4)
C31 C 0.6234(2) 0.7411(3) 0.12695(16)
H28 H 0.6556 0.7200 0.0855
H29 H 0.6192 0.8301 0.1293
O1 O 0.79034(16) 0.7001(2) 0.01718(13)
H1 H 0.836(3) 0.720(3) 0.001(2)
H2 H 0.803(2) 0.634(3) 0.0312(18)
loop_
_geom_bond_atom_site_label_1
_geom_bond_atom_site_label_2
_geom_bond_site_symmetry_1
_geom_bond_site_symmetry_2
Cl1 C1 1_555 1_555
Cl2 C31 1_555 1_555
Cl3 C31 1_555 1_555
O1 H1 1_555 1_555
H2 O1 1_555 1_555
N1 C1 1_555 1_555
N2 C5 1_555 1_555
N3 C11 1_555 1_555
N4 C15 1_555 1_555
N5 H3 1_555 1_555
N6 C25 1_555 1_555
C1 C2 1_555 1_555
C2 H4 1_555 1_555
C3 C2 1_555 1_555
H5 C3 1_555 1_555
C4 C3 1_555 1_555
C5 N1 1_555 1_555
C6 N2 1_555 1_555
C7 C6 1_555 1_555
H6 C7 1_555 1_555
C8 C4 1_555 1_555
C9 C8 1_555 1_555
H7 C9 1_555 1_555
H8 C9 1_555 1_555
H9 C9 1_555 1_555
C10 C6 1_555 1_555
C11 C10 1_555 1_555
C12 C11 1_555 1_555
H10 C12 1_555 1_555
C13 C12 1_555 1_555
H11 C13 1_555 1_555
C14 C13 1_555 1_555
C15 N3 1_555 1_555
C16 N4 1_555 1_555
C17 C16 1_555 1_555
H12 C17 1_555 1_555
C18 C14 1_555 1_555
C19 C18 1_555 1_555
H13 C19 1_555 1_555
H14 C19 1_555 1_555
H15 C19 1_555 1_555
C20 C16 1_555 1_555
H16 C20 1_555 1_555
H17 C20 1_555 1_555
H18 C20 1_555 1_555
C21 N5 1_555 1_555
C22 C21 1_555 1_555
H19 C22 1_555 1_555
C23 C22 1_555 1_555
H20 C23 1_555 1_555
C24 C23 1_555 1_555
C25 N5 1_555 1_555
C26 N6 1_555 1_555
C27 C26 1_555 1_555
H21 C27 1_555 1_555
C28 C24 1_555 1_555
C29 C28 1_555 1_555
H22 C29 1_555 1_555
H23 C29 1_555 1_555
H24 C29 1_555 1_555
C30 C26 1_555 1_555
H25 C30 1_555 1_555
H26 C30 1_555 1_555
H27 C30 1_555 1_555
C31 H28 1_555 1_555
H29 C31 1_555 1_555
C4 C5 1_555 1_555
C7 C8 1_555 1_555
C10 C21 1_555 1_555
C14 C15 1_555 1_555
C17 C18 1_555 1_555
C24 C25 1_555 1_555
C27 C28 1_555 1_555

#END
