
#######################################################################
#
#                 Cambridge Crystallographic Data Centre
#                                CCDC 
#
#######################################################################
#
# If this CIF has been generated from an entry in the Cambridge 
# Structural Database, then it will include bibliographic, chemical, 
# crystal, experimental, refinement or atomic coordinate data resulting 
# from the CCDC's data processing and validation procedures.
#
#######################################################################

data_OTEFAV
_chemical_formula_moiety         'C27 H19 Cl1 N6,C1 H2 Cl2'
_chemical_name_systematic        
"2,2'-((7-Methyl-1,8-naphthyridin-2(1H)-ylidene)methylene)bis(7-methyl-1,8-naphthyridine) dichloromethane solvate"
_symmetry_cell_setting           monoclinic
_symmetry_space_group_name_H-M   'C 2/c'
_symmetry_Int_Tables_number      15
_space_group_name_Hall           '-C 2yn'
loop_
_symmetry_equiv_pos_site_id
_symmetry_equiv_pos_as_xyz
1 x,y,z
2 -x,y,1/2-z
3 1/2+x,1/2+y,z
4 1/2-x,1/2+y,1/2-z
5 -x,-y,-z
6 x,-y,1/2+z
7 1/2-x,1/2-y,-z
8 1/2+x,1/2-y,1/2+z
_cell_length_a                   31.115(3)
_cell_length_b                   11.6709(15)
_cell_length_c                   16.466(2)
_cell_angle_alpha                90
_cell_angle_beta                 119.257(2)
_cell_angle_gamma                90
_cell_volume                     5216.7
_exptl_crystal_colour            red
_cell_formula_units_Z            8
loop_
_atom_site_label
_atom_site_type_symbol
_atom_site_fract_x
_atom_site_fract_y
_atom_site_fract_z
Cl3 Cl 0.5203(4) 0.8817(10) 0.3748(8)
N1 N 0.22390(13) 0.7646(3) 0.3622(2)
H1 H 0.2206 0.8235 0.3901
N2 N 0.14056(14) 0.7393(4) 0.2992(3)
N3 N 0.26452(13) 0.9396(3) 0.4723(3)
N4 N 0.21534(14) 1.0581(3) 0.5030(3)
N5 N 0.38717(14) 0.8172(3) 0.4348(3)
N6 N 0.45843(17) 0.8450(4) 0.4287(4)
C1 C 0.18297(17) 0.7033(4) 0.3036(3)
C2 C 0.1008(2) 0.6796(6) 0.2432(4)
C3 C 0.0999(2) 0.5875(6) 0.1894(4)
H2 H 0.0705 0.5499 0.1507
C4 C 0.1427(2) 0.5535(5) 0.1944(4)
H3 H 0.1431 0.4926 0.1584
C5 C 0.18619(19) 0.6103(4) 0.2540(3)
C6 C 0.2336(2) 0.5805(4) 0.2683(3)
H4 H 0.2370 0.5191 0.2358
C7 C 0.27345(18) 0.6396(4) 0.3279(3)
H5 H 0.3043 0.6180 0.3371
C8 C 0.26950(16) 0.7358(4) 0.3781(3)
C9 C 0.26138(16) 1.0312(4) 0.5206(3)
C10 C 0.2113(2) 1.1444(4) 0.5510(4)
C11 C 0.2505(2) 1.2083(5) 0.6157(4)
H6 H 0.2454 1.2684 0.6472
C12 C 0.2967(2) 1.1812(5) 0.6324(4)
H7 H 0.3237 1.2228 0.6757
C13 C 0.30345(18) 1.0908(4) 0.5841(3)
C14 C 0.34941(19) 1.0539(4) 0.5960(4)
H8 H 0.3780 1.0926 0.6371
C15 C 0.35214(17) 0.9637(4) 0.5486(4)
H9 H 0.3826 0.9411 0.5565
C16 C 0.30883(15) 0.9014(4) 0.4857(3)
C17 C 0.43309(17) 0.7782(4) 0.4582(4)
C18 C 0.5029(2) 0.8116(6) 0.4474(5)
C19 C 0.5247(2) 0.7117(6) 0.4988(5)
H10 H 0.5564 0.6913 0.5118
C20 C 0.5006(2) 0.6464(5) 0.5288(4)
H11 H 0.5152 0.5807 0.5633
C21 C 0.45254(17) 0.6774(4) 0.5082(4)
C22 C 0.42357(19) 0.6150(4) 0.5350(4)
H12 H 0.4355 0.5476 0.5688
C23 C 0.37768(18) 0.6530(4) 0.5116(3)
H13 H 0.3577 0.6113 0.5281
C24 C 0.36084(16) 0.7567(4) 0.4618(3)
C25 C 0.31106(15) 0.8012(4) 0.4394(3)
C26 C 0.0521(7) 0.6869(16) 0.2379(16)
H14 H 0.0538 0.6529 0.2925
H15 H 0.0282 0.6468 0.1836
H16 H 0.0426 0.7658 0.2340
C27 C 0.1664(5) 1.1834(15) 0.5487(10)
H17 H 0.1390 1.1719 0.4875
H18 H 0.1693 1.2634 0.5641
H19 H 0.1613 1.1408 0.5931
Cl4 Cl 0.43548(11) 0.5981(3) 0.2336(2)
Cl5 Cl 0.37365(9) 0.5147(2) 0.30152(16)
C29 C 0.3857(3) 0.5170(6) 0.2104(4)
H23 H 0.3912 0.4393 0.1968
H24 H 0.3572 0.5469 0.1556
Cl1? Cl 0.0487(2) 0.7289(4) 0.2443(5)
Cl2? Cl 0.15041(16) 1.1713(7) 0.5207(4)
C28? C 0.5351(3) 0.8940(8) 0.4274(8)
H20? H 0.5144 0.9463 0.3790
H21? H 0.5547 0.8509 0.4079
H22? H 0.5562 0.9361 0.4828
loop_
_geom_bond_atom_site_label_1
_geom_bond_atom_site_label_2
_geom_bond_site_symmetry_1
_geom_bond_site_symmetry_2
Cl3 C18 1_555 1_555
Cl4 C29 1_555 1_555
Cl5 C29 1_555 1_555
N1 H1 1_555 1_555
N2 C1 1_555 1_555
N3 C9 1_555 1_555
N4 C9 1_555 1_555
N5 C17 1_555 1_555
N6 C17 1_555 1_555
C1 N1 1_555 1_555
C2 N2 1_555 1_555
C3 C2 1_555 1_555
H2 C3 1_555 1_555
C4 C3 1_555 1_555
H3 C4 1_555 1_555
C5 C1 1_555 1_555
C6 C5 1_555 1_555
H4 C6 1_555 1_555
C7 C6 1_555 1_555
H5 C7 1_555 1_555
C8 N1 1_555 1_555
C9 C13 1_555 1_555
C10 N4 1_555 1_555
C11 C10 1_555 1_555
H6 C11 1_555 1_555
C12 C11 1_555 1_555
H7 C12 1_555 1_555
C13 C12 1_555 1_555
C14 C13 1_555 1_555
H8 C14 1_555 1_555
C15 C14 1_555 1_555
H9 C15 1_555 1_555
C16 N3 1_555 1_555
C17 C21 1_555 1_555
C18 N6 1_555 1_555
C19 C18 1_555 1_555
H10 C19 1_555 1_555
C20 C19 1_555 1_555
H11 C20 1_555 1_555
C21 C20 1_555 1_555
C22 C21 1_555 1_555
H12 C22 1_555 1_555
C23 C22 1_555 1_555
H13 C23 1_555 1_555
C24 N5 1_555 1_555
C25 C8 1_555 1_555
C26 C2 1_555 1_555
H14 C26 1_555 1_555
H15 C26 1_555 1_555
H16 C26 1_555 1_555
C27 C10 1_555 1_555
H17 C27 1_555 1_555
H18 C27 1_555 1_555
H19 C27 1_555 1_555
C29 H23 1_555 1_555
H24 C29 1_555 1_555
C4 C5 1_555 1_555
C7 C8 1_555 1_555
C15 C16 1_555 1_555
C16 C25 1_555 1_555
C23 C24 1_555 1_555
C24 C25 1_555 1_555

#END
