
#######################################################################
#
#                 Cambridge Crystallographic Data Centre
#                                CCDC 
#
#######################################################################
#
# If this CIF has been generated from an entry in the Cambridge 
# Structural Database, then it will include bibliographic, chemical, 
# crystal, experimental, refinement or atomic coordinate data resulting 
# from the CCDC's data processing and validation procedures.
#
#######################################################################

data_OTEQAH
_chemical_formula_moiety         
'C320 H336 K3 N80 O96 3+,3(I1 1-),2(C4 H10 O1),14(C1 H1 Cl3)'
_chemical_name_systematic        
'octakis(\m-(6-(2-amino-6-oxo-1,6-dihydro-9H-purin-9-yl)-2,2-dimethyltetrahydrofuro[3,4-d][1,3]dioxol-4-yl)methyl benzoate)-octakis((6-(2-amino-6-oxo-1,6-dihydro-9H-purin-9-yl)-2,2-dimethyltetrahydrofuro[3,4-d][1,3]dioxol-4-yl)methyl benzoate)-tri-potassium tris(iodide) chloroform diethyl ether solvate'
_symmetry_cell_setting           orthorhombic
_symmetry_space_group_name_H-M   'C 2 2 21'
_symmetry_Int_Tables_number      20
_space_group_name_Hall           'C 2n 2'
loop_
_symmetry_equiv_pos_site_id
_symmetry_equiv_pos_as_xyz
1 x,y,z
2 -x,-y,1/2+z
3 -x,y,1/2-z
4 x,-y,-z
5 1/2+x,1/2+y,z
6 1/2-x,1/2-y,1/2+z
7 1/2-x,1/2+y,1/2-z
8 1/2+x,1/2-y,-z
_cell_length_a                   31.601(7)
_cell_length_b                   53.211(12)
_cell_length_c                   30.881(7)
_cell_angle_alpha                90
_cell_angle_beta                 90
_cell_angle_gamma                90
_cell_volume                     51927
_exptl_crystal_colour            yellow
_exptl_crystal_description       plate
_cell_formula_units_Z            4
loop_
_atom_site_label
_atom_site_type_symbol
_atom_site_fract_x
_atom_site_fract_y
_atom_site_fract_z
I1 I 0.0000 0.36208(5) 0.2500
I2 I 0.27646(7) 0.41059(4) 0.77835(8)
K1 K 0.5000 0.25109(9) 0.2500
K2 K 0.42141(10) 0.25036(7) 0.33216(11)
O1 O 0.4958(3) 0.21984(17) 0.3232(3)
C1 C 0.5225(4) 0.2168(2) 0.3530(4)
N1 N 0.5412(4) 0.2379(2) 0.3713(4)
H1 H 0.5330 0.2527 0.3618
C2 C 0.5718(5) 0.2373(2) 0.4036(4)
N2 N 0.5875(4) 0.2592(2) 0.4169(4)
H2 H 0.6071 0.2595 0.4371
H3 H 0.5781 0.2733 0.4056
N3 N 0.5861(4) 0.21608(18) 0.4209(4)
C3 C 0.5684(4) 0.19556(18) 0.4025(4)
C4 C 0.5380(4) 0.19468(19) 0.3705(4)
N4 N 0.5284(4) 0.16929(19) 0.3617(4)
C5 C 0.5529(4) 0.1566(2) 0.3869(4)
H4 H 0.5533 0.1388 0.3875
N5 N 0.5783(3) 0.17110(18) 0.4129(3)
C6 C 0.6090(4) 0.1621(3) 0.4443(3)
H5 H 0.6148 0.1439 0.4384
O2 O 0.5923(3) 0.16436(19) 0.4865(3)
C7 C 0.6205(4) 0.1781(2) 0.5142(4)
H6 H 0.6289 0.1677 0.5397
C8 C 0.6583(4) 0.1848(3) 0.4877(4)
H7 H 0.6602 0.2035 0.4874
C9 C 0.6506(3) 0.1765(3) 0.4418(4)
H8 H 0.6482 0.1913 0.4219
O3 O 0.6856(5) 0.1613(4) 0.4307(4)
C10 C 0.7085(4) 0.1556(2) 0.4693(4)
C11 C 0.6906(10) 0.1317(4) 0.4891(10)
H9 H 0.7018 0.1297 0.5185
H10 H 0.6988 0.1173 0.4714
H11 H 0.6597 0.1329 0.4903
C12 C 0.7549(5) 0.1543(7) 0.4593(9)
H12 H 0.7622 0.1674 0.4383
H13 H 0.7617 0.1378 0.4471
H14 H 0.7712 0.1569 0.4859
O4 O 0.6997(4) 0.1756(4) 0.4980(6)
C13 C 0.5956(5) 0.2016(3) 0.5289(5)
H15 H 0.5947 0.2143 0.5055
H16 H 0.5662 0.1970 0.5367
O5 O 0.6175(3) 0.21129(19) 0.5659(3)
C14 C 0.5994(4) 0.2308(2) 0.5857(3)
O6 O 0.5702(3) 0.2419(2) 0.5704(3)
C15 C 0.6236(3) 0.2387(2) 0.6251(3)
C16 C 0.6570(4) 0.2243(3) 0.6401(4)
H17 H 0.6648 0.2093 0.6255
C17 C 0.6796(4) 0.2322(3) 0.6777(4)
H18 H 0.7027 0.2226 0.6886
C18 C 0.6669(4) 0.2544(3) 0.6981(4)
H19 H 0.6815 0.2599 0.7232
C19 C 0.6339(5) 0.2683(3) 0.6828(4)
H20 H 0.6257 0.2834 0.6970
C20 C 0.6127(4) 0.2601(2) 0.6464(4)
H21 H 0.5897 0.2698 0.6357
O7 O 0.5012(3) 0.27949(16) 0.3272(3)
C21 C 0.5051(4) 0.30287(19) 0.3304(4)
N6 N 0.4794(4) 0.31843(18) 0.3054(4)
H22 H 0.4607 0.3112 0.2884
C22 C 0.4810(4) 0.3444(2) 0.3052(4)
N7 N 0.4540(4) 0.3562(2) 0.2791(4)
H23 H 0.4529 0.3727 0.2790
H24 H 0.4372 0.3475 0.2620
N8 N 0.5060(4) 0.35762(19) 0.3307(4)
C23 C 0.5308(4) 0.3428(2) 0.3556(4)
C24 C 0.5311(4) 0.31663(19) 0.3576(4)
N9 N 0.5625(4) 0.30912(19) 0.3869(4)
C25 C 0.5785(5) 0.3299(2) 0.4015(5)
H25 H 0.6000 0.3303 0.4229
N10 N 0.5617(3) 0.35121(17) 0.3834(3)
C26 C 0.5721(4) 0.37649(19) 0.3970(4)
H26 H 0.5995 0.3762 0.4132
O8 O 0.5397(3) 0.38526(18) 0.4249(3)
C27 C 0.5246(4) 0.4096(2) 0.4123(5)
H27 H 0.5254 0.4212 0.4378
C28 C 0.5552(4) 0.4186(2) 0.3782(5)
H28 H 0.5413 0.4293 0.3557
C29 C 0.5754(4) 0.3953(2) 0.3593(4)
H29 H 0.5609 0.3893 0.3325
O9 O 0.6179(3) 0.40236(19) 0.3520(4)
C30 C 0.6267(4) 0.4259(3) 0.3720(5)
C31 C 0.6658(5) 0.4228(4) 0.4002(7)
H30 H 0.6678 0.4369 0.4204
H31 H 0.6911 0.4224 0.3818
H32 H 0.6637 0.4071 0.4165
C32 C 0.6322(7) 0.4462(3) 0.3383(6)
H33 H 0.6097 0.4447 0.3166
H34 H 0.6598 0.4442 0.3242
H35 H 0.6307 0.4627 0.3522
O10 O 0.5915(3) 0.4310(2) 0.3985(4)
C33 C 0.4790(4) 0.4068(3) 0.3962(6)
H36 H 0.4788 0.4011 0.3657
H37 H 0.4637 0.3943 0.4140
O11 O 0.4591(4) 0.4307(2) 0.3996(5)
C34 C 0.4174(5) 0.4312(3) 0.3920(4)
O12 O 0.3992(4) 0.4135(3) 0.3771(4)
C35 C 0.3979(5) 0.4566(3) 0.3966(4)
C36 C 0.4203(6) 0.4765(4) 0.4140(6)
H38 H 0.4486 0.4741 0.4233
C37 C 0.4008(8) 0.5005(4) 0.4181(7)
H39 H 0.4157 0.5143 0.4300
C38 C 0.3590(8) 0.5030(4) 0.4039(6)
H40 H 0.3456 0.5189 0.4064
C39 C 0.3369(7) 0.4834(4) 0.3866(7)
H41 H 0.3085 0.4855 0.3772
C40 C 0.3569(6) 0.4603(4) 0.3833(5)
H42 H 0.3418 0.4465 0.3713
O13 O 0.4295(3) 0.28334(18) 0.2548(3)
C41 C 0.4002(4) 0.2859(2) 0.2275(4)
N11 N 0.3821(3) 0.26466(19) 0.2087(4)
H43 H 0.3922 0.2499 0.2164
C42 C 0.3496(4) 0.2650(2) 0.1790(4)
N12 N 0.3360(4) 0.2433(2) 0.1629(4)
H44 H 0.3163 0.2432 0.1427
H45 H 0.3467 0.2291 0.1723
N13 N 0.3329(4) 0.28618(19) 0.1641(4)
C43 C 0.3494(4) 0.30683(19) 0.1831(5)
C44 C 0.3818(4) 0.30801(19) 0.2134(4)
N14 N 0.3897(4) 0.33321(19) 0.2234(4)
C45 C 0.3631(5) 0.3459(2) 0.2002(5)
H46 H 0.3609 0.3637 0.2012
N15 N 0.3383(3) 0.33118(19) 0.1739(4)
C46 C 0.3057(3) 0.3407(3) 0.1448(4)
H47 H 0.3101 0.3591 0.1402
O14 O 0.2659(3) 0.33675(18) 0.1646(3)
C47 C 0.2381(4) 0.3225(2) 0.1373(4)
H48 H 0.2120 0.3327 0.1324
C48 C 0.2600(4) 0.3192(2) 0.0946(4)
H49 H 0.2578 0.3016 0.0834
C49 C 0.3054(4) 0.3273(3) 0.1011(4)
H50 H 0.3251 0.3126 0.1009
O15 O 0.3146(3) 0.3444(2) 0.0671(3)
C50 C 0.2794(4) 0.3460(2) 0.0387(4)
C51 C 0.2723(7) 0.3733(3) 0.0265(7)
H51 H 0.2511 0.3743 0.0034
H52 H 0.2990 0.3806 0.0163
H53 H 0.2623 0.3826 0.0518
C52 C 0.2854(6) 0.3296(4) -0.0005(5)
H54 H 0.2908 0.3122 0.0088
H55 H 0.3096 0.3357 -0.0174
H56 H 0.2598 0.3300 -0.0184
O16 O 0.2446(3) 0.3376(2) 0.0636(3)
C53 C 0.2252(4) 0.2984(3) 0.1603(5)
H57 H 0.2484 0.2859 0.1589
H58 H 0.2187 0.3018 0.1912
O17 O 0.1885(3) 0.28905(19) 0.1387(4)
C54 C 0.1720(4) 0.2679(2) 0.1552(4)
O18 O 0.1850(4) 0.2590(2) 0.1885(4)
C55 C 0.1298(4) 0.26172(19) 0.1365(4)
C56 C 0.1161(5) 0.2723(3) 0.0984(4)
H59 H 0.1338 0.2838 0.0834
C57 C 0.0757(5) 0.2661(3) 0.0812(5)
H60 H 0.0660 0.2734 0.0549
C58 C 0.0506(5) 0.2491(3) 0.1041(6)
H61 H 0.0235 0.2447 0.0931
C59 C 0.0644(5) 0.2386(3) 0.1421(6)
H62 H 0.0471 0.2270 0.1574
C60 C 0.1039(5) 0.2450(3) 0.1578(5)
H63 H 0.1134 0.2378 0.1842
O19 O 0.4246(3) 0.22323(16) 0.2485(3)
C61 C 0.4205(4) 0.19960(19) 0.2465(4)
N16 N 0.4457(4) 0.18404(17) 0.2717(4)
H64 H 0.4639 0.1914 0.2891
C62 C 0.4450(5) 0.1581(2) 0.2721(5)
N17 N 0.4710(4) 0.1461(2) 0.2990(4)
H65 H 0.4710 0.1295 0.2999
H66 H 0.4882 0.1546 0.3160
N18 N 0.4196(4) 0.14472(18) 0.2471(4)
C63 C 0.3942(4) 0.15979(19) 0.2228(4)
C64 C 0.3942(4) 0.18561(19) 0.2199(4)
N19 N 0.3645(4) 0.19349(19) 0.1891(4)
C65 C 0.3490(4) 0.1726(2) 0.1742(5)
H67 H 0.3271 0.1721 0.1531
N20 N 0.3667(3) 0.15124(16) 0.1912(4)
C66 C 0.3540(4) 0.12570(19) 0.1823(4)
H68 H 0.3374 0.1256 0.1547
O20 O 0.3274(3) 0.11712(18) 0.2158(3)
C67 C 0.3393(5) 0.0924(2) 0.2303(4)
H69 H 0.3141 0.0810 0.2294
C68 C 0.3719(5) 0.0834(2) 0.1981(4)
H70 H 0.3939 0.0724 0.2116
C69 C 0.3904(4) 0.1068(2) 0.1777(4)
H71 H 0.4169 0.1125 0.1923
O21 O 0.3970(4) 0.09954(19) 0.1340(3)
C70 C 0.3766(5) 0.0763(3) 0.1247(4)
C71 C 0.3487(7) 0.0792(4) 0.0850(6)
H72 H 0.3283 0.0654 0.0839
H73 H 0.3664 0.0789 0.0589
H74 H 0.3335 0.0952 0.0865
C72 C 0.4088(6) 0.0557(3) 0.1193(8)
H75 H 0.3960 0.0395 0.1267
H76 H 0.4330 0.0589 0.1385
H77 H 0.4186 0.0553 0.0892
O22 O 0.3508(5) 0.0714(3) 0.1609(4)
C73 C 0.3552(6) 0.0947(2) 0.2770(4)
H78 H 0.3842 0.1017 0.2775
H79 H 0.3364 0.1060 0.2938
O23 O 0.3550(4) 0.0700(2) 0.2956(3)
C74 C 0.3645(4) 0.0690(3) 0.3376(4)
O24 O 0.3755(4) 0.0870(2) 0.3578(4)
C75 C 0.3635(3) 0.0427(3) 0.3542(5)
C76 C 0.3499(5) 0.0236(3) 0.3273(6)
H80 H 0.3412 0.0269 0.2985
C77 C 0.3494(6) -0.0014(3) 0.3441(7)
H81 H 0.3403 -0.0151 0.3267
C78 C 0.3625(5) -0.0052(4) 0.3868(7)
H82 H 0.3622 -0.0218 0.3981
C79 C 0.3759(6) 0.0140(4) 0.4131(6)
H83 H 0.3847 0.0110 0.4420
C80 C 0.3760(4) 0.0379(3) 0.3957(5)
H84 H 0.3851 0.0515 0.4134
O25 O 0.4308(3) 0.22140(17) 0.4055(3)
C81 C 0.4303(4) 0.1981(2) 0.4100(4)
N21 N 0.4056(4) 0.18292(18) 0.3836(4)
H85 H 0.3902 0.1905 0.3637
C82 C 0.4028(4) 0.1571(2) 0.3858(4)
N22 N 0.3769(4) 0.1455(2) 0.3585(4)
H86 H 0.3757 0.1290 0.3580
H87 H 0.3608 0.1544 0.3409
N23 N 0.4266(4) 0.14314(19) 0.4119(4)
C83 C 0.4496(4) 0.1577(2) 0.4389(4)
C84 C 0.4529(4) 0.1836(2) 0.4394(4)
N24 N 0.4810(4) 0.1911(2) 0.4724(4)
C85 C 0.4931(5) 0.1700(2) 0.4891(5)
H88 H 0.5129 0.1692 0.5123
N25 N 0.4754(4) 0.14888(17) 0.4710(4)
C86 C 0.4841(4) 0.12322(19) 0.4836(4)
H89 H 0.4996 0.1235 0.5118
O26 O 0.5106(3) 0.11203(19) 0.4523(3)
C87 C 0.4916(4) 0.0907(3) 0.4328(4)
H90 H 0.5090 0.0755 0.4398
C88 C 0.4485(4) 0.0876(2) 0.4523(4)
H91 H 0.4258 0.0904 0.4302
C89 C 0.4455(4) 0.1064(2) 0.4886(4)
H92 H 0.4186 0.1163 0.4871
O27 O 0.4477(4) 0.0920(2) 0.5268(3)
C90 C 0.4326(5) 0.0675(2) 0.5169(5)
C91 C 0.4548(8) 0.0488(4) 0.5459(7)
H93 H 0.4381 0.0333 0.5475
H94 H 0.4578 0.0559 0.5750
H95 H 0.4829 0.0450 0.5341
C92 C 0.3850(5) 0.0675(4) 0.5214(8)
H96 H 0.3721 0.0732 0.4941
H97 H 0.3767 0.0789 0.5448
H98 H 0.3752 0.0505 0.5281
O28 O 0.4434(5) 0.0634(2) 0.4734(4)
C93 C 0.4910(6) 0.0943(3) 0.3838(4)
H99 H 0.4700 0.1073 0.3757
H100 H 0.5192 0.0998 0.3734
O29 O 0.4801(4) 0.0708(2) 0.3653(3)
C94 C 0.4735(4) 0.0710(3) 0.3227(4)
O30 O 0.4724(4) 0.0894(2) 0.3008(4)
C95 C 0.4634(3) 0.0454(2) 0.3060(5)
C96 C 0.4653(5) 0.0247(3) 0.3329(6)
H101 H 0.4731 0.0265 0.3625
C97 C 0.4554(5) 0.0005(3) 0.3156(7)
H102 H 0.4564 -0.0141 0.3333
C98 C 0.4442(5) -0.0011(4) 0.2722(7)
H103 H 0.4376 -0.0171 0.2604
C99 C 0.4423(6) 0.0195(4) 0.2458(6)
H104 H 0.4345 0.0180 0.2162
C100 C 0.4522(4) 0.0427(3) 0.2635(5)
H105 H 0.4512 0.0572 0.2456
O31 O 0.4245(3) 0.28400(19) 0.3969(3)
C101 C 0.4488(4) 0.2858(2) 0.4290(4)
N26 N 0.4658(4) 0.2644(2) 0.4479(3)
H106 H 0.4581 0.2498 0.4370
C102 C 0.4937(4) 0.2641(2) 0.4822(4)
N27 N 0.5054(4) 0.2420(2) 0.4977(4)
H107 H 0.5233 0.2412 0.5195
H108 H 0.4952 0.2281 0.4863
N28 N 0.5094(4) 0.28474(19) 0.5000(4)
C103 C 0.4923(5) 0.30575(19) 0.4825(4)
C104 C 0.4639(4) 0.3074(2) 0.4485(4)
N29 N 0.4572(4) 0.3329(2) 0.4384(4)
C105 C 0.4796(5) 0.3451(2) 0.4663(5)
H109 H 0.4807 0.3629 0.4674
N30 N 0.5018(4) 0.33007(19) 0.4941(3)
C106 C 0.5331(4) 0.3388(2) 0.5251(4)
H110 H 0.5297 0.3573 0.5289
O32 O 0.5740(3) 0.3339(2) 0.5091(3)
C107 C 0.5975(4) 0.3179(2) 0.5380(4)
H111 H 0.6218 0.3276 0.5504
C108 C 0.5680(4) 0.3103(2) 0.5740(3)
H112 H 0.5612 0.2920 0.5724
C109 C 0.5286(4) 0.3260(2) 0.5693(3)
H113 H 0.5020 0.3160 0.5722
O33 O 0.5330(4) 0.3448(2) 0.6022(3)
C110 C 0.5564(4) 0.3336(3) 0.6367(4)
C111 C 0.5803(6) 0.3542(3) 0.6607(6)
H114 H 0.5948 0.3469 0.6858
H115 H 0.5604 0.3671 0.6704
H116 H 0.6012 0.3618 0.6412
C112 C 0.5267(6) 0.3194(4) 0.6663(6)
H117 H 0.5025 0.3133 0.6496
H118 H 0.5168 0.3306 0.6893
H119 H 0.5417 0.3051 0.6792
O34 O 0.5845(3) 0.3170(2) 0.6164(3)
C113 C 0.6144(5) 0.2954(3) 0.5120(4)
H120 H 0.5919 0.2828 0.5072
H121 H 0.6255 0.3009 0.4836
O35 O 0.6478(3) 0.2852(2) 0.5384(3)
C114 C 0.6684(3) 0.2655(2) 0.5226(4)
O36 O 0.6562(3) 0.2539(2) 0.4921(3)
C115 C 0.7043(3) 0.2580(2) 0.5514(3)
C116 C 0.7156(4) 0.2731(3) 0.5859(4)
H122 H 0.7005 0.2882 0.5915
C117 C 0.7499(5) 0.2659(3) 0.6131(5)
H123 H 0.7583 0.2760 0.6370
C118 C 0.7708(5) 0.2435(3) 0.6035(5)
H124 H 0.7937 0.2384 0.6214
C119 C 0.7594(5) 0.2286(3) 0.5692(5)
H125 H 0.7742 0.2134 0.5634
C120 C 0.7259(4) 0.2361(2) 0.5431(4)
H126 H 0.7177 0.2259 0.5193
O37 O 0.3499(3) 0.27984(17) 0.3230(4)
C121 C 0.3461(4) 0.3033(2) 0.3228(5)
N31 N 0.3730(4) 0.31823(19) 0.3477(4)
H127 H 0.3923 0.3106 0.3635
C122 C 0.3718(4) 0.3440(2) 0.3494(5)
N32 N 0.4002(4) 0.3557(2) 0.3738(4)
H128 H 0.4008 0.3722 0.3747
H129 H 0.4184 0.3469 0.3892
N33 N 0.3447(4) 0.3577(2) 0.3266(4)
C123 C 0.3173(4) 0.3433(2) 0.3045(5)
C124 C 0.3152(4) 0.3175(2) 0.3025(5)
N34 N 0.2814(4) 0.3102(2) 0.2755(4)
C125 C 0.2639(5) 0.3314(2) 0.2645(5)
H130 H 0.2393 0.3324 0.2469
N35 N 0.2840(4) 0.35234(18) 0.2805(4)
C126 C 0.2718(4) 0.37819(19) 0.2727(4)
H131 H 0.2438 0.3781 0.2576
O38 O 0.3015(4) 0.3897(2) 0.2451(3)
C127 C 0.3204(4) 0.4112(3) 0.2654(5)
H132 H 0.3123 0.4266 0.2489
C128 C 0.3025(4) 0.4130(3) 0.3101(5)
H133 H 0.3250 0.4097 0.3322
C129 C 0.2675(4) 0.3940(2) 0.3137(4)
H134 H 0.2691 0.3837 0.3408
O39 O 0.2300(3) 0.4087(2) 0.3110(5)
C130 C 0.2395(5) 0.4324(3) 0.3304(5)
C131 C 0.2115(7) 0.4523(4) 0.3106(8)
H135 H 0.2218 0.4690 0.3189
H136 H 0.1824 0.4502 0.3210
H137 H 0.2120 0.4508 0.2790
C132 C 0.2353(8) 0.4297(5) 0.3785(5)
H138 H 0.2586 0.4194 0.3896
H139 H 0.2083 0.4215 0.3853
H140 H 0.2362 0.4463 0.3920
O40 O 0.2818(4) 0.4368(2) 0.3185(5)
C133 C 0.3686(4) 0.4080(3) 0.2630(6)
H141 H 0.3783 0.3950 0.2837
H142 H 0.3774 0.4030 0.2335
O41 O 0.3858(3) 0.4321(2) 0.2741(4)
C134 C 0.4276(4) 0.4318(3) 0.2799(4)
O42 O 0.4490(4) 0.4133(2) 0.2769(4)
C135 C 0.4445(5) 0.4572(3) 0.2908(3)
C136 C 0.4184(6) 0.4778(3) 0.2938(6)
H143 H 0.3888 0.4761 0.2889
C137 C 0.4361(7) 0.5018(3) 0.3043(6)
H144 H 0.4189 0.5163 0.3067
C138 C 0.4799(7) 0.5028(4) 0.3110(5)
H145 H 0.4924 0.5185 0.3179
C139 C 0.5054(6) 0.4821(4) 0.3079(6)
H146 H 0.5350 0.4834 0.3127
C140 C 0.4873(5) 0.4593(3) 0.2978(4)
H147 H 0.5046 0.4447 0.2957
O43 O 0.3586(3) 0.21620(19) 0.3295(3)
C141 C 0.3277(4) 0.2148(2) 0.3039(4)
N36 N 0.3103(3) 0.2366(2) 0.2860(4)
H148 H 0.3210 0.2511 0.2944
C142 C 0.2778(4) 0.2373(2) 0.2563(5)
N37 N 0.2644(4) 0.2594(2) 0.2422(4)
H149 H 0.2424 0.2603 0.2248
H150 H 0.2774 0.2733 0.2503
N38 N 0.2576(3) 0.21697(19) 0.2436(4)
C143 C 0.2740(4) 0.1958(2) 0.2604(4)
C144 C 0.3077(4) 0.1935(2) 0.2886(5)
N39 N 0.3139(4) 0.1680(2) 0.2982(4)
C145 C 0.2850(4) 0.1565(2) 0.2762(5)
H151 H 0.2815 0.1388 0.2769
N40 N 0.2601(3) 0.17201(19) 0.2517(4)
C146 C 0.2273(3) 0.1638(3) 0.2221(4)
H152 H 0.2204 0.1458 0.2281
O44 O 0.2427(3) 0.1660(2) 0.1793(3)
C147 C 0.2155(4) 0.1811(2) 0.1531(4)
H153 H 0.2069 0.1710 0.1273
C148 C 0.1764(4) 0.1865(3) 0.1794(4)
H154 H 0.1672 0.2044 0.1768
C149 C 0.1867(3) 0.1795(3) 0.2254(4)
H155 H 0.1911 0.1948 0.2438
O45 O 0.1523(3) 0.1650(2) 0.2404(4)
C150 C 0.1221(4) 0.1617(3) 0.2070(5)
C151 C 0.1111(8) 0.1339(3) 0.2056(8)
H156 H 0.0895 0.1309 0.1834
H157 H 0.1001 0.1286 0.2339
H158 H 0.1365 0.1241 0.1987
C152 C 0.0849(5) 0.1788(4) 0.2156(7)
H159 H 0.0950 0.1961 0.2192
H160 H 0.0704 0.1734 0.2421
H161 H 0.0652 0.1780 0.1912
O46 O 0.1428(4) 0.1690(3) 0.1687(4)
C153 C 0.2390(5) 0.2044(3) 0.1372(5)
H162 H 0.2426 0.2167 0.1610
H163 H 0.2673 0.1998 0.1261
O47 O 0.2138(4) 0.2150(2) 0.1033(3)
C154 C 0.2292(4) 0.2351(2) 0.0835(4)
O48 O 0.2594(4) 0.2464(2) 0.0961(4)
C155 C 0.2023(4) 0.2437(2) 0.0467(3)
C156 C 0.1680(4) 0.2292(3) 0.0346(5)
H164 H 0.1615 0.2141 0.0495
C157 C 0.1424(5) 0.2375(3) -0.0007(5)
H165 H 0.1186 0.2279 -0.0099
C158 C 0.1530(5) 0.2598(3) -0.0214(5)
H166 H 0.1361 0.2654 -0.0449
C159 C 0.1872(5) 0.2739(3) -0.0088(5)
H167 H 0.1939 0.2891 -0.0232
C160 C 0.2116(5) 0.2655(2) 0.0253(4)
H168 H 0.2354 0.2751 0.0342
K2B K 0.57859(10) 0.25036(7) 0.16784(11)
O1B O 0.5042(3) 0.21984(17) 0.1768(3)
C1B C 0.4775(4) 0.2168(2) 0.1470(4)
N1B N 0.4588(4) 0.2379(2) 0.1287(4)
H1B H 0.4670 0.2527 0.1382
C2B C 0.4282(5) 0.2373(2) 0.0964(4)
N2B N 0.4125(4) 0.2592(2) 0.0831(4)
H2B H 0.3929 0.2595 0.0629
H3B H 0.4219 0.2733 0.0944
N3B N 0.4139(4) 0.21608(18) 0.0791(4)
C3B C 0.4316(4) 0.19556(18) 0.0975(4)
C4B C 0.4620(4) 0.19468(19) 0.1295(4)
N4B N 0.4716(4) 0.16929(19) 0.1383(4)
C5B C 0.4471(4) 0.1566(2) 0.1131(4)
H4B H 0.4467 0.1388 0.1125
N5B N 0.4217(3) 0.17110(18) 0.0871(3)
C6B C 0.3910(4) 0.1621(3) 0.0557(3)
H5B H 0.3852 0.1439 0.0616
O2B O 0.4077(3) 0.16436(19) 0.0135(3)
C7B C 0.3795(4) 0.1781(2) -0.0142(4)
H6B H 0.3711 0.1677 -0.0397
C8B C 0.3417(4) 0.1848(3) 0.0123(4)
H7B H 0.3398 0.2035 0.0126
C9B C 0.3494(3) 0.1765(3) 0.0582(4)
H8B H 0.3518 0.1913 0.0781
O3B O 0.3144(5) 0.1613(4) 0.0693(4)
C10B C 0.2915(4) 0.1556(2) 0.0307(4)
C11B C 0.3094(10) 0.1317(4) 0.0109(10)
H9B H 0.2982 0.1297 -0.0185
H10B H 0.3012 0.1173 0.0286
H11B H 0.3403 0.1329 0.0097
C12B C 0.2451(5) 0.1543(7) 0.0407(9)
H12B H 0.2378 0.1674 0.0617
H13B H 0.2383 0.1378 0.0529
H14B H 0.2288 0.1569 0.0141
O4B O 0.3003(4) 0.1756(4) 0.0020(6)
C13B C 0.4044(5) 0.2016(3) -0.0289(5)
H15B H 0.4053 0.2143 -0.0055
H16B H 0.4338 0.1970 -0.0367
O5B O 0.3825(3) 0.21129(19) -0.0659(3)
C14B C 0.4006(4) 0.2308(2) -0.0857(3)
O6B O 0.4298(3) 0.2419(2) -0.0704(3)
C15B C 0.3764(3) 0.2387(2) -0.1251(3)
C16B C 0.3430(4) 0.2243(3) -0.1401(4)
H17B H 0.3352 0.2093 -0.1255
C17B C 0.3204(4) 0.2322(3) -0.1777(4)
H18B H 0.2973 0.2226 -0.1886
C18B C 0.3331(4) 0.2544(3) -0.1981(4)
H19B H 0.3185 0.2599 -0.2232
C19B C 0.3661(5) 0.2683(3) -0.1828(4)
H20B H 0.3743 0.2834 -0.1970
C20B C 0.3873(4) 0.2601(2) -0.1464(4)
H21B H 0.4103 0.2698 -0.1357
O7B O 0.4988(3) 0.27949(16) 0.1728(3)
C21B C 0.4949(4) 0.30287(19) 0.1696(4)
N6B N 0.5206(4) 0.31843(18) 0.1946(4)
H22B H 0.5393 0.3112 0.2116
C22B C 0.5190(4) 0.3444(2) 0.1948(4)
N7B N 0.5460(4) 0.3562(2) 0.2209(4)
H23B H 0.5471 0.3727 0.2210
H24B H 0.5628 0.3475 0.2380
N8B N 0.4940(4) 0.35762(19) 0.1693(4)
C23B C 0.4692(4) 0.3428(2) 0.1444(4)
C24B C 0.4689(4) 0.31663(19) 0.1424(4)
N9B N 0.4375(4) 0.30912(19) 0.1131(4)
C25B C 0.4215(5) 0.3299(2) 0.0985(5)
H25B H 0.4000 0.3303 0.0771
N10B N 0.4383(3) 0.35121(17) 0.1166(3)
C26B C 0.4279(4) 0.37649(19) 0.1030(4)
H26B H 0.4005 0.3762 0.0868
O8B O 0.4603(3) 0.38526(18) 0.0751(3)
C27B C 0.4754(4) 0.4096(2) 0.0877(5)
H27B H 0.4746 0.4212 0.0622
C28B C 0.4448(4) 0.4186(2) 0.1218(5)
H28B H 0.4587 0.4293 0.1443
C29B C 0.4246(4) 0.3953(2) 0.1407(4)
H29B H 0.4391 0.3893 0.1675
O9B O 0.3821(3) 0.40236(19) 0.1480(4)
C30B C 0.3733(4) 0.4259(3) 0.1280(5)
C31B C 0.3342(5) 0.4228(4) 0.0998(7)
H30B H 0.3322 0.4369 0.0796
H31B H 0.3089 0.4224 0.1182
H32B H 0.3363 0.4071 0.0835
C32B C 0.3678(7) 0.4462(3) 0.1617(6)
H33B H 0.3903 0.4447 0.1834
H34B H 0.3402 0.4442 0.1758
H35B H 0.3693 0.4627 0.1478
O10B O 0.4085(3) 0.4310(2) 0.1015(4)
C33B C 0.5210(4) 0.4068(3) 0.1038(6)
H36B H 0.5212 0.4011 0.1343
H37B H 0.5363 0.3943 0.0860
O11B O 0.5409(4) 0.4307(2) 0.1004(5)
C34B C 0.5826(5) 0.4312(3) 0.1080(4)
O12B O 0.6008(4) 0.4135(3) 0.1229(4)
C35B C 0.6021(5) 0.4566(3) 0.1034(4)
C36B C 0.5797(6) 0.4765(4) 0.0860(6)
H38B H 0.5514 0.4741 0.0767
C37B C 0.5992(8) 0.5005(4) 0.0819(7)
H39B H 0.5843 0.5143 0.0700
C38B C 0.6410(8) 0.5030(4) 0.0961(6)
H40B H 0.6544 0.5189 0.0936
C39B C 0.6631(7) 0.4834(4) 0.1134(7)
H41B H 0.6915 0.4855 0.1228
C40B C 0.6431(6) 0.4603(4) 0.1167(5)
H42B H 0.6582 0.4465 0.1287
O13B O 0.5705(3) 0.28334(18) 0.2452(3)
C41B C 0.5998(4) 0.2859(2) 0.2725(4)
N11B N 0.6179(3) 0.26466(19) 0.2913(4)
H43B H 0.6078 0.2499 0.2836
C42B C 0.6504(4) 0.2650(2) 0.3210(4)
N12B N 0.6640(4) 0.2433(2) 0.3371(4)
H44B H 0.6837 0.2432 0.3573
H45B H 0.6533 0.2291 0.3277
N13B N 0.6671(4) 0.28618(19) 0.3359(4)
C43B C 0.6506(4) 0.30683(19) 0.3169(5)
C44B C 0.6182(4) 0.30801(19) 0.2866(4)
N14B N 0.6103(4) 0.33321(19) 0.2766(4)
C45B C 0.6369(5) 0.3459(2) 0.2998(5)
H46B H 0.6391 0.3637 0.2988
N15B N 0.6617(3) 0.33118(19) 0.3261(4)
C46B C 0.6943(3) 0.3407(3) 0.3552(4)
H47B H 0.6899 0.3591 0.3598
O14B O 0.7341(3) 0.33675(18) 0.3354(3)
C47B C 0.7619(4) 0.3225(2) 0.3627(4)
H48B H 0.7880 0.3327 0.3676
C48B C 0.7400(4) 0.3192(2) 0.4054(4)
H49B H 0.7422 0.3016 0.4166
C49B C 0.6946(4) 0.3273(3) 0.3989(4)
H50B H 0.6749 0.3126 0.3991
O15B O 0.6854(3) 0.3444(2) 0.4329(3)
C50B C 0.7206(4) 0.3460(2) 0.4613(4)
C51B C 0.7277(7) 0.3733(3) 0.4735(7)
H51B H 0.7489 0.3743 0.4966
H52B H 0.7010 0.3806 0.4837
H53B H 0.7377 0.3826 0.4482
C52B C 0.7146(6) 0.3296(4) 0.5005(5)
H54B H 0.7092 0.3122 0.4912
H55B H 0.6904 0.3357 0.5174
H56B H 0.7402 0.3300 0.5184
O16B O 0.7554(3) 0.3376(2) 0.4364(3)
C53B C 0.7748(4) 0.2984(3) 0.3397(5)
H57B H 0.7516 0.2859 0.3411
H58B H 0.7813 0.3018 0.3088
O17B O 0.8115(3) 0.28905(19) 0.3613(4)
C54B C 0.8280(4) 0.2679(2) 0.3448(4)
O18B O 0.8150(4) 0.2590(2) 0.3115(4)
C55B C 0.8702(4) 0.26172(19) 0.3635(4)
C56B C 0.8839(5) 0.2723(3) 0.4016(4)
H59B H 0.8662 0.2838 0.4166
C57B C 0.9243(5) 0.2661(3) 0.4188(5)
H60B H 0.9340 0.2734 0.4451
C58B C 0.9494(5) 0.2491(3) 0.3959(6)
H61B H 0.9765 0.2447 0.4069
C59B C 0.9356(5) 0.2386(3) 0.3579(6)
H62B H 0.9529 0.2270 0.3426
C60B C 0.8961(5) 0.2450(3) 0.3422(5)
H63B H 0.8866 0.2378 0.3158
O19B O 0.5754(3) 0.22323(16) 0.2515(3)
C61B C 0.5795(4) 0.19960(19) 0.2535(4)
N16B N 0.5543(4) 0.18404(17) 0.2283(4)
H64B H 0.5361 0.1914 0.2109
C62B C 0.5550(5) 0.1581(2) 0.2279(5)
N17B N 0.5290(4) 0.1461(2) 0.2010(4)
H65B H 0.5290 0.1295 0.2001
H66B H 0.5118 0.1546 0.1840
N18B N 0.5804(4) 0.14472(18) 0.2529(4)
C63B C 0.6058(4) 0.15979(19) 0.2772(4)
C64B C 0.6058(4) 0.18561(19) 0.2801(4)
N19B N 0.6355(4) 0.19349(19) 0.3109(4)
C65B C 0.6510(4) 0.1726(2) 0.3258(5)
H67B H 0.6729 0.1721 0.3469
N20B N 0.6333(3) 0.15124(16) 0.3088(4)
C66B C 0.6460(4) 0.12570(19) 0.3177(4)
H68B H 0.6626 0.1256 0.3453
O20B O 0.6726(3) 0.11712(18) 0.2842(3)
C67B C 0.6607(5) 0.0924(2) 0.2697(4)
H69B H 0.6859 0.0810 0.2706
C68B C 0.6281(5) 0.0834(2) 0.3019(4)
H70B H 0.6061 0.0724 0.2884
C69B C 0.6096(4) 0.1068(2) 0.3223(4)
H71B H 0.5831 0.1125 0.3077
O21B O 0.6030(4) 0.09954(19) 0.3660(3)
C70B C 0.6234(5) 0.0763(3) 0.3753(4)
C71B C 0.6513(7) 0.0792(4) 0.4150(6)
H72B H 0.6717 0.0654 0.4161
H73B H 0.6336 0.0789 0.4411
H74B H 0.6665 0.0952 0.4135
C72B C 0.5912(6) 0.0557(3) 0.3807(8)
H75B H 0.6040 0.0395 0.3733
H76B H 0.5670 0.0589 0.3615
H77B H 0.5814 0.0553 0.4108
O22B O 0.6492(5) 0.0714(3) 0.3391(4)
C73B C 0.6448(6) 0.0947(2) 0.2230(4)
H78B H 0.6158 0.1017 0.2225
H79B H 0.6636 0.1060 0.2062
O23B O 0.6450(4) 0.0700(2) 0.2044(3)
C74B C 0.6355(4) 0.0690(3) 0.1624(4)
O24B O 0.6245(4) 0.0870(2) 0.1422(4)
C75B C 0.6365(3) 0.0427(3) 0.1458(5)
C76B C 0.6501(5) 0.0236(3) 0.1727(6)
H80B H 0.6588 0.0269 0.2015
C77B C 0.6506(6) -0.0014(3) 0.1559(7)
H81B H 0.6597 -0.0151 0.1733
C78B C 0.6375(5) -0.0052(4) 0.1132(7)
H82B H 0.6378 -0.0218 0.1019
C79B C 0.6241(6) 0.0140(4) 0.0869(6)
H83B H 0.6153 0.0110 0.0580
C80B C 0.6240(4) 0.0379(3) 0.1043(5)
H84B H 0.6149 0.0515 0.0866
O25B O 0.5692(3) 0.22140(17) 0.0945(3)
C81B C 0.5697(4) 0.1981(2) 0.0900(4)
N21B N 0.5944(4) 0.18292(18) 0.1164(4)
H85B H 0.6098 0.1905 0.1363
C82B C 0.5972(4) 0.1571(2) 0.1142(4)
N22B N 0.6231(4) 0.1455(2) 0.1415(4)
H86B H 0.6243 0.1290 0.1420
H87B H 0.6392 0.1544 0.1591
N23B N 0.5734(4) 0.14314(19) 0.0881(4)
C83B C 0.5504(4) 0.1577(2) 0.0611(4)
C84B C 0.5471(4) 0.1836(2) 0.0606(4)
N24B N 0.5190(4) 0.1911(2) 0.0276(4)
C85B C 0.5069(5) 0.1700(2) 0.0109(5)
H88B H 0.4871 0.1692 -0.0123
N25B N 0.5246(4) 0.14888(17) 0.0290(4)
C86B C 0.5159(4) 0.12322(19) 0.0164(4)
H89B H 0.5004 0.1235 -0.0118
O26B O 0.4894(3) 0.11203(19) 0.0477(3)
C87B C 0.5084(4) 0.0907(3) 0.0672(4)
H90B H 0.4910 0.0755 0.0602
C88B C 0.5515(4) 0.0876(2) 0.0477(4)
H91B H 0.5742 0.0904 0.0698
C89B C 0.5545(4) 0.1064(2) 0.0114(4)
H92B H 0.5814 0.1163 0.0129
O27B O 0.5523(4) 0.0920(2) -0.0268(3)
C90B C 0.5674(5) 0.0675(2) -0.0169(5)
C91B C 0.5452(8) 0.0488(4) -0.0459(7)
H93B H 0.5619 0.0333 -0.0475
H94B H 0.5422 0.0559 -0.0750
H95B H 0.5171 0.0450 -0.0341
C92B C 0.6150(5) 0.0675(4) -0.0214(8)
H96B H 0.6279 0.0732 0.0059
H97B H 0.6233 0.0789 -0.0448
H98B H 0.6248 0.0505 -0.0281
O28B O 0.5566(5) 0.0634(2) 0.0266(4)
C93B C 0.5090(6) 0.0943(3) 0.1162(4)
H99B H 0.5300 0.1073 0.1243
H100B H 0.4808 0.0998 0.1266
O29B O 0.5199(4) 0.0708(2) 0.1347(3)
C94B C 0.5265(4) 0.0710(3) 0.1773(4)
O30B O 0.5276(4) 0.0894(2) 0.1992(4)
C95B C 0.5366(3) 0.0454(2) 0.1940(5)
C96B C 0.5347(5) 0.0247(3) 0.1671(6)
H101B H 0.5269 0.0265 0.1375
C97B C 0.5446(5) 0.0005(3) 0.1844(7)
H102B H 0.5436 -0.0141 0.1667
C98B C 0.5558(5) -0.0011(4) 0.2278(7)
H103B H 0.5624 -0.0171 0.2396
C99B C 0.5577(6) 0.0195(4) 0.2542(6)
H104B H 0.5655 0.0180 0.2838
C100B C 0.5478(4) 0.0427(3) 0.2365(5)
H105B H 0.5488 0.0572 0.2544
O31B O 0.5755(3) 0.28400(19) 0.1031(3)
C101B C 0.5512(4) 0.2858(2) 0.0710(4)
N26B N 0.5342(4) 0.2644(2) 0.0521(3)
H106B H 0.5419 0.2498 0.0630
C102B C 0.5063(4) 0.2641(2) 0.0178(4)
N27B N 0.4946(4) 0.2420(2) 0.0023(4)
H107B H 0.4767 0.2412 -0.0195
H108B H 0.5048 0.2281 0.0137
N28B N 0.4906(4) 0.28474(19) 0.0000(4)
C103B C 0.5077(5) 0.30575(19) 0.0175(4)
C104B C 0.5361(4) 0.3074(2) 0.0515(4)
N29B N 0.5428(4) 0.3329(2) 0.0616(4)
C105B C 0.5204(5) 0.3451(2) 0.0337(5)
H109B H 0.5193 0.3629 0.0326
N30B N 0.4982(4) 0.33007(19) 0.0059(3)
C106B C 0.4669(4) 0.3388(2) -0.0251(4)
H110B H 0.4703 0.3573 -0.0289
O32B O 0.4260(3) 0.3339(2) -0.0091(3)
C107B C 0.4025(4) 0.3179(2) -0.0380(4)
H111B H 0.3782 0.3276 -0.0504
C108B C 0.4320(4) 0.3103(2) -0.0740(3)
H112B H 0.4388 0.2920 -0.0724
C109B C 0.4714(4) 0.3260(2) -0.0693(3)
H113B H 0.4980 0.3160 -0.0722
O33B O 0.4670(4) 0.3448(2) -0.1022(3)
C110B C 0.4436(4) 0.3336(3) -0.1367(4)
C111B C 0.4197(6) 0.3542(3) -0.1607(6)
H114B H 0.4052 0.3469 -0.1858
H115B H 0.4396 0.3671 -0.1704
H116B H 0.3988 0.3618 -0.1412
C112B C 0.4733(6) 0.3194(4) -0.1663(6)
H117B H 0.4975 0.3133 -0.1496
H118B H 0.4832 0.3306 -0.1893
H119B H 0.4583 0.3051 -0.1792
O34B O 0.4155(3) 0.3170(2) -0.1164(3)
C113B C 0.3856(5) 0.2954(3) -0.0120(4)
H120B H 0.4081 0.2828 -0.0072
H121B H 0.3745 0.3009 0.0164
O35B O 0.3522(3) 0.2852(2) -0.0384(3)
C114B C 0.3316(3) 0.2655(2) -0.0226(4)
O36B O 0.3438(3) 0.2539(2) 0.0079(3)
C115B C 0.2957(3) 0.2580(2) -0.0514(3)
C116B C 0.2844(4) 0.2731(3) -0.0859(4)
H122B H 0.2995 0.2882 -0.0915
C117B C 0.2501(5) 0.2659(3) -0.1131(5)
H123B H 0.2417 0.2760 -0.1370
C118B C 0.2292(5) 0.2435(3) -0.1035(5)
H124B H 0.2063 0.2384 -0.1214
C119B C 0.2406(5) 0.2286(3) -0.0692(5)
H125B H 0.2258 0.2134 -0.0634
C120B C 0.2741(4) 0.2361(2) -0.0431(4)
H126B H 0.2823 0.2259 -0.0193
O37B O 0.6501(3) 0.27984(17) 0.1770(4)
C121B C 0.6539(4) 0.3033(2) 0.1772(5)
N31B N 0.6270(4) 0.31823(19) 0.1523(4)
H127B H 0.6077 0.3106 0.1365
C122B C 0.6282(4) 0.3440(2) 0.1506(5)
N32B N 0.5998(4) 0.3557(2) 0.1262(4)
H128B H 0.5992 0.3722 0.1253
H129B H 0.5816 0.3469 0.1108
N33B N 0.6553(4) 0.3577(2) 0.1734(4)
C123B C 0.6827(4) 0.3433(2) 0.1955(5)
C124B C 0.6848(4) 0.3175(2) 0.1975(5)
N34B N 0.7186(4) 0.3102(2) 0.2245(4)
C125B C 0.7361(5) 0.3314(2) 0.2355(5)
H130B H 0.7607 0.3324 0.2531
N35B N 0.7160(4) 0.35234(18) 0.2195(4)
C126B C 0.7282(4) 0.37819(19) 0.2273(4)
H131B H 0.7562 0.3781 0.2424
O38B O 0.6985(4) 0.3897(2) 0.2549(3)
C127B C 0.6796(4) 0.4112(3) 0.2346(5)
H132B H 0.6877 0.4266 0.2511
C128B C 0.6975(4) 0.4130(3) 0.1899(5)
H133B H 0.6750 0.4097 0.1678
C129B C 0.7325(4) 0.3940(2) 0.1863(4)
H134B H 0.7309 0.3837 0.1592
O39B O 0.7700(3) 0.4087(2) 0.1890(5)
C130B C 0.7605(5) 0.4324(3) 0.1696(5)
C131B C 0.7885(7) 0.4523(4) 0.1894(8)
H135B H 0.7782 0.4690 0.1811
H136B H 0.8176 0.4502 0.1790
H137B H 0.7880 0.4508 0.2210
C132B C 0.7647(8) 0.4297(5) 0.1215(5)
H138B H 0.7414 0.4194 0.1104
H139B H 0.7917 0.4215 0.1147
H140B H 0.7638 0.4463 0.1080
O40B O 0.7182(4) 0.4368(2) 0.1815(5)
C133B C 0.6314(4) 0.4080(3) 0.2370(6)
H141B H 0.6217 0.3950 0.2163
H142B H 0.6226 0.4030 0.2665
O41B O 0.6142(3) 0.4321(2) 0.2259(4)
C134B C 0.5724(4) 0.4318(3) 0.2201(4)
O42B O 0.5510(4) 0.4133(2) 0.2231(4)
C135B C 0.5555(5) 0.4572(3) 0.2092(3)
C136B C 0.5816(6) 0.4778(3) 0.2062(6)
H143B H 0.6112 0.4761 0.2111
C137B C 0.5639(7) 0.5018(3) 0.1957(6)
H144B H 0.5811 0.5163 0.1933
C138B C 0.5201(7) 0.5028(4) 0.1890(5)
H145B H 0.5076 0.5185 0.1821
C139B C 0.4946(6) 0.4821(4) 0.1921(6)
H146B H 0.4650 0.4834 0.1873
C140B C 0.5127(5) 0.4593(3) 0.2022(4)
H147B H 0.4954 0.4447 0.2043
O43B O 0.6414(3) 0.21620(19) 0.1705(3)
C141B C 0.6723(4) 0.2148(2) 0.1961(4)
N36B N 0.6897(3) 0.2366(2) 0.2140(4)
H148B H 0.6790 0.2511 0.2056
C142B C 0.7222(4) 0.2373(2) 0.2437(5)
N37B N 0.7356(4) 0.2594(2) 0.2578(4)
H149B H 0.7576 0.2603 0.2752
H150B H 0.7226 0.2733 0.2497
N38B N 0.7424(3) 0.21697(19) 0.2564(4)
C143B C 0.7260(4) 0.1958(2) 0.2396(4)
C144B C 0.6923(4) 0.1935(2) 0.2114(5)
N39B N 0.6861(4) 0.1680(2) 0.2018(4)
C145B C 0.7150(4) 0.1565(2) 0.2238(5)
H151B H 0.7185 0.1388 0.2231
N40B N 0.7399(3) 0.17201(19) 0.2483(4)
C146B C 0.7727(3) 0.1638(3) 0.2779(4)
H152B H 0.7796 0.1458 0.2719
O44B O 0.7573(3) 0.1660(2) 0.3207(3)
C147B C 0.7845(4) 0.1811(2) 0.3469(4)
H153B H 0.7931 0.1710 0.3727
C148B C 0.8236(4) 0.1865(3) 0.3206(4)
H154B H 0.8328 0.2044 0.3232
C149B C 0.8133(3) 0.1795(3) 0.2746(4)
H155B H 0.8089 0.1948 0.2562
O45B O 0.8477(3) 0.1650(2) 0.2596(4)
C150B C 0.8779(4) 0.1617(3) 0.2930(5)
C151B C 0.8889(8) 0.1339(3) 0.2944(8)
H156B H 0.9105 0.1309 0.3166
H157B H 0.8999 0.1286 0.2661
H158B H 0.8635 0.1241 0.3013
C152B C 0.9151(5) 0.1788(4) 0.2844(7)
H159B H 0.9050 0.1961 0.2808
H160B H 0.9296 0.1734 0.2579
H161B H 0.9348 0.1780 0.3088
O46B O 0.8572(4) 0.1690(3) 0.3313(4)
C153B C 0.7610(5) 0.2044(3) 0.3628(5)
H162B H 0.7574 0.2167 0.3390
H163B H 0.7327 0.1998 0.3739
O47B O 0.7862(4) 0.2150(2) 0.3967(3)
C154B C 0.7708(4) 0.2351(2) 0.4165(4)
O48B O 0.7406(4) 0.2464(2) 0.4039(4)
C155B C 0.7977(4) 0.2437(2) 0.4533(3)
C156B C 0.8320(4) 0.2292(3) 0.4654(5)
H164B H 0.8385 0.2141 0.4505
C157B C 0.8576(5) 0.2375(3) 0.5007(5)
H165B H 0.8814 0.2279 0.5099
C158B C 0.8470(5) 0.2598(3) 0.5214(5)
H166B H 0.8639 0.2654 0.5449
C159B C 0.8128(5) 0.2739(3) 0.5088(5)
H167B H 0.8061 0.2891 0.5232
C160B C 0.7884(5) 0.2655(2) 0.4747(4)
H168B H 0.7646 0.2751 0.4658
H169? H 0.6708 0.2019 0.4921
H170? H 0.6497 0.1909 0.4208
O49? O 0.6823(6) 0.1586(4) 0.4319(5)
C161? C 0.7200(11) 0.1280(3) 0.4728(10)
H171? H 0.7158 0.1224 0.5027
H172? H 0.7497 0.1257 0.4646
H173? H 0.7019 0.1182 0.4534
C162? C 0.7462(8) 0.1728(6) 0.4653(10)
H174? H 0.7371 0.1902 0.4697
H175? H 0.7586 0.1710 0.4364
H176? H 0.7673 0.1683 0.4873
O50? O 0.6828(6) 0.1631(4) 0.5042(4)
C163? C 0.3897(11) 0.0630(6) 0.1826(11)
loop_
_geom_bond_atom_site_label_1
_geom_bond_atom_site_label_2
_geom_bond_site_symmetry_1
_geom_bond_site_symmetry_2
K1 O1 1_555 1_555
K2 O1 1_555 1_555
O1 C1 1_555 1_555
C1 N1 1_555 1_555
N1 H1 1_555 1_555
C2 N1 1_555 1_555
N2 C2 1_555 1_555
H2 N2 1_555 1_555
H3 N2 1_555 1_555
N3 C2 1_555 1_555
C3 N3 1_555 1_555
C4 C1 1_555 1_555
N4 C4 1_555 1_555
C5 N4 1_555 1_555
H4 C5 1_555 1_555
N5 C3 1_555 1_555
C6 N5 1_555 1_555
H5 C6 1_555 1_555
O2 C6 1_555 1_555
C7 O2 1_555 1_555
H6 C7 1_555 1_555
C8 C7 1_555 1_555
H7 C8 1_555 1_555
C9 C6 1_555 1_555
H8 C9 1_555 1_555
O3 C9 1_555 1_555
C10 O3 1_555 1_555
C11 C10 1_555 1_555
H9 C11 1_555 1_555
H10 C11 1_555 1_555
H11 C11 1_555 1_555
C12 C10 1_555 1_555
H12 C12 1_555 1_555
H13 C12 1_555 1_555
H14 C12 1_555 1_555
O4 C8 1_555 1_555
C13 C7 1_555 1_555
H15 C13 1_555 1_555
H16 C13 1_555 1_555
O5 C13 1_555 1_555
C14 O5 1_555 1_555
O6 C14 1_555 1_555
C15 C14 1_555 1_555
C16 C15 1_555 1_555
H17 C16 1_555 1_555
C17 C16 1_555 1_555
H18 C17 1_555 1_555
C18 C17 1_555 1_555
H19 C18 1_555 1_555
C19 C18 1_555 1_555
H20 C19 1_555 1_555
C20 C15 1_555 1_555
H21 C20 1_555 1_555
O7 K1 1_555 1_555
C21 O7 1_555 1_555
N6 C21 1_555 1_555
H22 N6 1_555 1_555
C22 N6 1_555 1_555
N7 C22 1_555 1_555
H23 N7 1_555 1_555
H24 N7 1_555 1_555
N8 C22 1_555 1_555
C23 N8 1_555 1_555
C24 C21 1_555 1_555
N9 C24 1_555 1_555
C25 N9 1_555 1_555
H25 C25 1_555 1_555
N10 C23 1_555 1_555
C26 N10 1_555 1_555
H26 C26 1_555 1_555
O8 C26 1_555 1_555
C27 O8 1_555 1_555
H27 C27 1_555 1_555
C28 C27 1_555 1_555
H28 C28 1_555 1_555
C29 C26 1_555 1_555
H29 C29 1_555 1_555
O9 C29 1_555 1_555
C30 O9 1_555 1_555
C31 C30 1_555 1_555
H30 C31 1_555 1_555
H31 C31 1_555 1_555
H32 C31 1_555 1_555
C32 C30 1_555 1_555
H33 C32 1_555 1_555
H34 C32 1_555 1_555
H35 C32 1_555 1_555
O10 C28 1_555 1_555
C33 C27 1_555 1_555
H36 C33 1_555 1_555
H37 C33 1_555 1_555
O11 C33 1_555 1_555
C34 O11 1_555 1_555
O12 C34 1_555 1_555
C35 C34 1_555 1_555
C36 C35 1_555 1_555
H38 C36 1_555 1_555
C37 C36 1_555 1_555
H39 C37 1_555 1_555
C38 C37 1_555 1_555
H40 C38 1_555 1_555
C39 C38 1_555 1_555
H41 C39 1_555 1_555
C40 C35 1_555 1_555
H42 C40 1_555 1_555
O13 K1 1_555 1_555
C41 O13 1_555 1_555
N11 C41 1_555 1_555
H43 N11 1_555 1_555
C42 N11 1_555 1_555
N12 C42 1_555 1_555
H44 N12 1_555 1_555
H45 N12 1_555 1_555
N13 C42 1_555 1_555
C43 N13 1_555 1_555
C44 C41 1_555 1_555
N14 C44 1_555 1_555
C45 N14 1_555 1_555
H46 C45 1_555 1_555
N15 C43 1_555 1_555
C46 N15 1_555 1_555
H47 C46 1_555 1_555
O14 C46 1_555 1_555
C47 O14 1_555 1_555
H48 C47 1_555 1_555
C48 C47 1_555 1_555
H49 C48 1_555 1_555
C49 C46 1_555 1_555
H50 C49 1_555 1_555
O15 C49 1_555 1_555
C50 O15 1_555 1_555
C51 C50 1_555 1_555
H51 C51 1_555 1_555
H52 C51 1_555 1_555
H53 C51 1_555 1_555
C52 C50 1_555 1_555
H54 C52 1_555 1_555
H55 C52 1_555 1_555
H56 C52 1_555 1_555
O16 C48 1_555 1_555
C53 C47 1_555 1_555
H57 C53 1_555 1_555
H58 C53 1_555 1_555
O17 C53 1_555 1_555
C54 O17 1_555 1_555
O18 C54 1_555 1_555
C55 C54 1_555 1_555
C56 C55 1_555 1_555
H59 C56 1_555 1_555
C57 C56 1_555 1_555
H60 C57 1_555 1_555
C58 C57 1_555 1_555
H61 C58 1_555 1_555
C59 C58 1_555 1_555
H62 C59 1_555 1_555
C60 C55 1_555 1_555
H63 C60 1_555 1_555
O19 K1 1_555 1_555
C61 O19 1_555 1_555
N16 C61 1_555 1_555
H64 N16 1_555 1_555
C62 N16 1_555 1_555
N17 C62 1_555 1_555
H65 N17 1_555 1_555
H66 N17 1_555 1_555
N18 C62 1_555 1_555
C63 N18 1_555 1_555
C64 C61 1_555 1_555
N19 C64 1_555 1_555
C65 N19 1_555 1_555
H67 C65 1_555 1_555
N20 C63 1_555 1_555
C66 N20 1_555 1_555
H68 C66 1_555 1_555
O20 C66 1_555 1_555
C67 O20 1_555 1_555
H69 C67 1_555 1_555
C68 C67 1_555 1_555
H70 C68 1_555 1_555
C69 C66 1_555 1_555
H71 C69 1_555 1_555
O21 C69 1_555 1_555
C70 O21 1_555 1_555
C71 C70 1_555 1_555
H72 C71 1_555 1_555
H73 C71 1_555 1_555
H74 C71 1_555 1_555
C72 C70 1_555 1_555
H75 C72 1_555 1_555
H76 C72 1_555 1_555
H77 C72 1_555 1_555
O22 C68 1_555 1_555
C73 C67 1_555 1_555
H78 C73 1_555 1_555
H79 C73 1_555 1_555
O23 C73 1_555 1_555
C74 O23 1_555 1_555
O24 C74 1_555 1_555
C75 C74 1_555 1_555
C76 C75 1_555 1_555
H80 C76 1_555 1_555
C77 C76 1_555 1_555
H81 C77 1_555 1_555
C78 C77 1_555 1_555
H82 C78 1_555 1_555
C79 C78 1_555 1_555
H83 C79 1_555 1_555
C80 C75 1_555 1_555
H84 C80 1_555 1_555
O25 K2 1_555 1_555
C81 O25 1_555 1_555
N21 C81 1_555 1_555
H85 N21 1_555 1_555
C82 N21 1_555 1_555
N22 C82 1_555 1_555
H86 N22 1_555 1_555
H87 N22 1_555 1_555
N23 C82 1_555 1_555
C83 N23 1_555 1_555
C84 C81 1_555 1_555
N24 C84 1_555 1_555
C85 N24 1_555 1_555
H88 C85 1_555 1_555
N25 C83 1_555 1_555
C86 N25 1_555 1_555
H89 C86 1_555 1_555
O26 C86 1_555 1_555
C87 O26 1_555 1_555
H90 C87 1_555 1_555
C88 C87 1_555 1_555
H91 C88 1_555 1_555
C89 C86 1_555 1_555
H92 C89 1_555 1_555
O27 C89 1_555 1_555
C90 O27 1_555 1_555
C91 C90 1_555 1_555
H93 C91 1_555 1_555
H94 C91 1_555 1_555
H95 C91 1_555 1_555
C92 C90 1_555 1_555
H96 C92 1_555 1_555
H97 C92 1_555 1_555
H98 C92 1_555 1_555
O28 C88 1_555 1_555
C93 C87 1_555 1_555
H99 C93 1_555 1_555
H100 C93 1_555 1_555
O29 C93 1_555 1_555
C94 O29 1_555 1_555
O30 C94 1_555 1_555
C95 C94 1_555 1_555
C96 C95 1_555 1_555
H101 C96 1_555 1_555
C97 C96 1_555 1_555
H102 C97 1_555 1_555
C98 C97 1_555 1_555
H103 C98 1_555 1_555
C99 C98 1_555 1_555
H104 C99 1_555 1_555
C100 C95 1_555 1_555
H105 C100 1_555 1_555
O31 K2 1_555 1_555
C101 O31 1_555 1_555
N26 C101 1_555 1_555
H106 N26 1_555 1_555
C102 N26 1_555 1_555
N27 C102 1_555 1_555
H107 N27 1_555 1_555
H108 N27 1_555 1_555
N28 C102 1_555 1_555
C103 N28 1_555 1_555
C104 C101 1_555 1_555
N29 C104 1_555 1_555
C105 N29 1_555 1_555
H109 C105 1_555 1_555
N30 C103 1_555 1_555
C106 N30 1_555 1_555
H110 C106 1_555 1_555
O32 C106 1_555 1_555
C107 O32 1_555 1_555
H111 C107 1_555 1_555
C108 C107 1_555 1_555
H112 C108 1_555 1_555
C109 C106 1_555 1_555
H113 C109 1_555 1_555
O33 C109 1_555 1_555
C110 O33 1_555 1_555
C111 C110 1_555 1_555
H114 C111 1_555 1_555
H115 C111 1_555 1_555
H116 C111 1_555 1_555
C112 C110 1_555 1_555
H117 C112 1_555 1_555
H118 C112 1_555 1_555
H119 C112 1_555 1_555
O34 C108 1_555 1_555
C113 C107 1_555 1_555
H120 C113 1_555 1_555
H121 C113 1_555 1_555
O35 C113 1_555 1_555
C114 O35 1_555 1_555
O36 C114 1_555 1_555
C115 C114 1_555 1_555
C116 C115 1_555 1_555
H122 C116 1_555 1_555
C117 C116 1_555 1_555
H123 C117 1_555 1_555
C118 C117 1_555 1_555
H124 C118 1_555 1_555
C119 C118 1_555 1_555
H125 C119 1_555 1_555
C120 C115 1_555 1_555
H126 C120 1_555 1_555
O37 K2 1_555 1_555
C121 O37 1_555 1_555
N31 C121 1_555 1_555
H127 N31 1_555 1_555
C122 N31 1_555 1_555
N32 C122 1_555 1_555
H128 N32 1_555 1_555
H129 N32 1_555 1_555
N33 C122 1_555 1_555
C123 N33 1_555 1_555
C124 C121 1_555 1_555
N34 C124 1_555 1_555
C125 N34 1_555 1_555
H130 C125 1_555 1_555
N35 C123 1_555 1_555
C126 N35 1_555 1_555
H131 C126 1_555 1_555
O38 C126 1_555 1_555
C127 O38 1_555 1_555
H132 C127 1_555 1_555
C128 C127 1_555 1_555
H133 C128 1_555 1_555
C129 C126 1_555 1_555
H134 C129 1_555 1_555
O39 C129 1_555 1_555
C130 O39 1_555 1_555
C131 C130 1_555 1_555
H135 C131 1_555 1_555
H136 C131 1_555 1_555
H137 C131 1_555 1_555
C132 C130 1_555 1_555
H138 C132 1_555 1_555
H139 C132 1_555 1_555
H140 C132 1_555 1_555
O40 C128 1_555 1_555
C133 C127 1_555 1_555
H141 C133 1_555 1_555
H142 C133 1_555 1_555
O41 C133 1_555 1_555
C134 O41 1_555 1_555
O42 C134 1_555 1_555
C135 C134 1_555 1_555
C136 C135 1_555 1_555
H143 C136 1_555 1_555
C137 C136 1_555 1_555
H144 C137 1_555 1_555
C138 C137 1_555 1_555
H145 C138 1_555 1_555
C139 C138 1_555 1_555
H146 C139 1_555 1_555
C140 C135 1_555 1_555
H147 C140 1_555 1_555
O43 K2 1_555 1_555
C141 O43 1_555 1_555
N36 C141 1_555 1_555
H148 N36 1_555 1_555
C142 N36 1_555 1_555
N37 C142 1_555 1_555
H149 N37 1_555 1_555
H150 N37 1_555 1_555
N38 C142 1_555 1_555
C143 N38 1_555 1_555
C144 C141 1_555 1_555
N39 C144 1_555 1_555
C145 N39 1_555 1_555
H151 C145 1_555 1_555
N40 C143 1_555 1_555
C146 N40 1_555 1_555
H152 C146 1_555 1_555
O44 C146 1_555 1_555
C147 O44 1_555 1_555
H153 C147 1_555 1_555
C148 C147 1_555 1_555
H154 C148 1_555 1_555
C149 C146 1_555 1_555
H155 C149 1_555 1_555
O45 C149 1_555 1_555
C150 O45 1_555 1_555
C151 C150 1_555 1_555
H156 C151 1_555 1_555
H157 C151 1_555 1_555
H158 C151 1_555 1_555
C152 C150 1_555 1_555
H159 C152 1_555 1_555
H160 C152 1_555 1_555
H161 C152 1_555 1_555
O46 C148 1_555 1_555
C153 C147 1_555 1_555
H162 C153 1_555 1_555
H163 C153 1_555 1_555
O47 C153 1_555 1_555
C154 O47 1_555 1_555
O48 C154 1_555 1_555
C155 C154 1_555 1_555
C156 C155 1_555 1_555
H164 C156 1_555 1_555
C157 C156 1_555 1_555
H165 C157 1_555 1_555
C158 C157 1_555 1_555
H166 C158 1_555 1_555
C159 C158 1_555 1_555
H167 C159 1_555 1_555
C160 C155 1_555 1_555
H168 C160 1_555 1_555
K2B O1B 1_555 1_555
O1B K1 1_555 1_555
C1B O1B 1_555 1_555
N1B C1B 1_555 1_555
H1B N1B 1_555 1_555
C2B N1B 1_555 1_555
N2B C2B 1_555 1_555
H2B N2B 1_555 1_555
H3B N2B 1_555 1_555
N3B C2B 1_555 1_555
C3B N3B 1_555 1_555
C4B C1B 1_555 1_555
N4B C4B 1_555 1_555
C5B N4B 1_555 1_555
H4B C5B 1_555 1_555
N5B C3B 1_555 1_555
C6B N5B 1_555 1_555
H5B C6B 1_555 1_555
O2B C6B 1_555 1_555
C7B O2B 1_555 1_555
H6B C7B 1_555 1_555
C8B C7B 1_555 1_555
H7B C8B 1_555 1_555
C9B C6B 1_555 1_555
H8B C9B 1_555 1_555
O3B C9B 1_555 1_555
C10B O3B 1_555 1_555
C11B C10B 1_555 1_555
H9B C11B 1_555 1_555
H10B C11B 1_555 1_555
H11B C11B 1_555 1_555
C12B C10B 1_555 1_555
H12B C12B 1_555 1_555
H13B C12B 1_555 1_555
H14B C12B 1_555 1_555
O4B C8B 1_555 1_555
C13B C7B 1_555 1_555
H15B C13B 1_555 1_555
H16B C13B 1_555 1_555
O5B C13B 1_555 1_555
C14B O5B 1_555 1_555
O6B C14B 1_555 1_555
C15B C14B 1_555 1_555
C16B C15B 1_555 1_555
H17B C16B 1_555 1_555
C17B C16B 1_555 1_555
H18B C17B 1_555 1_555
C18B C17B 1_555 1_555
H19B C18B 1_555 1_555
C19B C18B 1_555 1_555
H20B C19B 1_555 1_555
C20B C15B 1_555 1_555
H21B C20B 1_555 1_555
O7B K1 1_555 1_555
C21B O7B 1_555 1_555
N6B C21B 1_555 1_555
H22B N6B 1_555 1_555
C22B N6B 1_555 1_555
N7B C22B 1_555 1_555
H23B N7B 1_555 1_555
H24B N7B 1_555 1_555
N8B C22B 1_555 1_555
C23B N8B 1_555 1_555
C24B C21B 1_555 1_555
N9B C24B 1_555 1_555
C25B N9B 1_555 1_555
H25B C25B 1_555 1_555
N10B C23B 1_555 1_555
C26B N10B 1_555 1_555
H26B C26B 1_555 1_555
O8B C26B 1_555 1_555
C27B O8B 1_555 1_555
H27B C27B 1_555 1_555
C28B C27B 1_555 1_555
H28B C28B 1_555 1_555
C29B C26B 1_555 1_555
H29B C29B 1_555 1_555
O9B C29B 1_555 1_555
C30B O9B 1_555 1_555
C31B C30B 1_555 1_555
H30B C31B 1_555 1_555
H31B C31B 1_555 1_555
H32B C31B 1_555 1_555
C32B C30B 1_555 1_555
H33B C32B 1_555 1_555
H34B C32B 1_555 1_555
H35B C32B 1_555 1_555
O10B C28B 1_555 1_555
C33B C27B 1_555 1_555
H36B C33B 1_555 1_555
H37B C33B 1_555 1_555
O11B C33B 1_555 1_555
C34B O11B 1_555 1_555
O12B C34B 1_555 1_555
C35B C34B 1_555 1_555
C36B C35B 1_555 1_555
H38B C36B 1_555 1_555
C37B C36B 1_555 1_555
H39B C37B 1_555 1_555
C38B C37B 1_555 1_555
H40B C38B 1_555 1_555
C39B C38B 1_555 1_555
H41B C39B 1_555 1_555
C40B C35B 1_555 1_555
H42B C40B 1_555 1_555
O13B K1 1_555 1_555
C41B O13B 1_555 1_555
N11B C41B 1_555 1_555
H43B N11B 1_555 1_555
C42B N11B 1_555 1_555
N12B C42B 1_555 1_555
H44B N12B 1_555 1_555
H45B N12B 1_555 1_555
N13B C42B 1_555 1_555
C43B N13B 1_555 1_555
C44B C41B 1_555 1_555
N14B C44B 1_555 1_555
C45B N14B 1_555 1_555
H46B C45B 1_555 1_555
N15B C43B 1_555 1_555
C46B N15B 1_555 1_555
H47B C46B 1_555 1_555
O14B C46B 1_555 1_555
C47B O14B 1_555 1_555
H48B C47B 1_555 1_555
C48B C47B 1_555 1_555
H49B C48B 1_555 1_555
C49B C46B 1_555 1_555
H50B C49B 1_555 1_555
O15B C49B 1_555 1_555
C50B O15B 1_555 1_555
C51B C50B 1_555 1_555
H51B C51B 1_555 1_555
H52B C51B 1_555 1_555
H53B C51B 1_555 1_555
C52B C50B 1_555 1_555
H54B C52B 1_555 1_555
H55B C52B 1_555 1_555
H56B C52B 1_555 1_555
O16B C48B 1_555 1_555
C53B C47B 1_555 1_555
H57B C53B 1_555 1_555
H58B C53B 1_555 1_555
O17B C53B 1_555 1_555
C54B O17B 1_555 1_555
O18B C54B 1_555 1_555
C55B C54B 1_555 1_555
C56B C55B 1_555 1_555
H59B C56B 1_555 1_555
C57B C56B 1_555 1_555
H60B C57B 1_555 1_555
C58B C57B 1_555 1_555
H61B C58B 1_555 1_555
C59B C58B 1_555 1_555
H62B C59B 1_555 1_555
C60B C55B 1_555 1_555
H63B C60B 1_555 1_555
O19B K1 1_555 1_555
C61B O19B 1_555 1_555
N16B C61B 1_555 1_555
H64B N16B 1_555 1_555
C62B N16B 1_555 1_555
N17B C62B 1_555 1_555
H65B N17B 1_555 1_555
H66B N17B 1_555 1_555
N18B C62B 1_555 1_555
C63B N18B 1_555 1_555
C64B C61B 1_555 1_555
N19B C64B 1_555 1_555
C65B N19B 1_555 1_555
H67B C65B 1_555 1_555
N20B C63B 1_555 1_555
C66B N20B 1_555 1_555
H68B C66B 1_555 1_555
O20B C66B 1_555 1_555
C67B O20B 1_555 1_555
H69B C67B 1_555 1_555
C68B C67B 1_555 1_555
H70B C68B 1_555 1_555
C69B C66B 1_555 1_555
H71B C69B 1_555 1_555
O21B C69B 1_555 1_555
C70B O21B 1_555 1_555
C71B C70B 1_555 1_555
H72B C71B 1_555 1_555
H73B C71B 1_555 1_555
H74B C71B 1_555 1_555
C72B C70B 1_555 1_555
H75B C72B 1_555 1_555
H76B C72B 1_555 1_555
H77B C72B 1_555 1_555
O22B C68B 1_555 1_555
C73B C67B 1_555 1_555
H78B C73B 1_555 1_555
H79B C73B 1_555 1_555
O23B C73B 1_555 1_555
C74B O23B 1_555 1_555
O24B C74B 1_555 1_555
C75B C74B 1_555 1_555
C76B C75B 1_555 1_555
H80B C76B 1_555 1_555
C77B C76B 1_555 1_555
H81B C77B 1_555 1_555
C78B C77B 1_555 1_555
H82B C78B 1_555 1_555
C79B C78B 1_555 1_555
H83B C79B 1_555 1_555
C80B C75B 1_555 1_555
H84B C80B 1_555 1_555
O25B K2B 1_555 1_555
C81B O25B 1_555 1_555
N21B C81B 1_555 1_555
H85B N21B 1_555 1_555
C82B N21B 1_555 1_555
N22B C82B 1_555 1_555
H86B N22B 1_555 1_555
H87B N22B 1_555 1_555
N23B C82B 1_555 1_555
C83B N23B 1_555 1_555
C84B C81B 1_555 1_555
N24B C84B 1_555 1_555
C85B N24B 1_555 1_555
H88B C85B 1_555 1_555
N25B C83B 1_555 1_555
C86B N25B 1_555 1_555
H89B C86B 1_555 1_555
O26B C86B 1_555 1_555
C87B O26B 1_555 1_555
H90B C87B 1_555 1_555
C88B C87B 1_555 1_555
H91B C88B 1_555 1_555
C89B C86B 1_555 1_555
H92B C89B 1_555 1_555
O27B C89B 1_555 1_555
C90B O27B 1_555 1_555
C91B C90B 1_555 1_555
H93B C91B 1_555 1_555
H94B C91B 1_555 1_555
H95B C91B 1_555 1_555
C92B C90B 1_555 1_555
H96B C92B 1_555 1_555
H97B C92B 1_555 1_555
H98B C92B 1_555 1_555
O28B C88B 1_555 1_555
C93B C87B 1_555 1_555
H99B C93B 1_555 1_555
H100B C93B 1_555 1_555
O29B C93B 1_555 1_555
C94B O29B 1_555 1_555
O30B C94B 1_555 1_555
C95B C94B 1_555 1_555
C96B C95B 1_555 1_555
H101B C96B 1_555 1_555
C97B C96B 1_555 1_555
H102B C97B 1_555 1_555
C98B C97B 1_555 1_555
H103B C98B 1_555 1_555
C99B C98B 1_555 1_555
H104B C99B 1_555 1_555
C100B C95B 1_555 1_555
H105B C100B 1_555 1_555
O31B K2B 1_555 1_555
C101B O31B 1_555 1_555
N26B C101B 1_555 1_555
H106B N26B 1_555 1_555
C102B N26B 1_555 1_555
N27B C102B 1_555 1_555
H107B N27B 1_555 1_555
H108B N27B 1_555 1_555
N28B C102B 1_555 1_555
C103B N28B 1_555 1_555
C104B C101B 1_555 1_555
N29B C104B 1_555 1_555
C105B N29B 1_555 1_555
H109B C105B 1_555 1_555
N30B C103B 1_555 1_555
C106B N30B 1_555 1_555
H110B C106B 1_555 1_555
O32B C106B 1_555 1_555
C107B O32B 1_555 1_555
H111B C107B 1_555 1_555
C108B C107B 1_555 1_555
H112B C108B 1_555 1_555
C109B C106B 1_555 1_555
H113B C109B 1_555 1_555
O33B C109B 1_555 1_555
C110B O33B 1_555 1_555
C111B C110B 1_555 1_555
H114B C111B 1_555 1_555
H115B C111B 1_555 1_555
H116B C111B 1_555 1_555
C112B C110B 1_555 1_555
H117B C112B 1_555 1_555
H118B C112B 1_555 1_555
H119B C112B 1_555 1_555
O34B C108B 1_555 1_555
C113B C107B 1_555 1_555
H120B C113B 1_555 1_555
H121B C113B 1_555 1_555
O35B C113B 1_555 1_555
C114B O35B 1_555 1_555
O36B C114B 1_555 1_555
C115B C114B 1_555 1_555
C116B C115B 1_555 1_555
H122B C116B 1_555 1_555
C117B C116B 1_555 1_555
H123B C117B 1_555 1_555
C118B C117B 1_555 1_555
H124B C118B 1_555 1_555
C119B C118B 1_555 1_555
H125B C119B 1_555 1_555
C120B C115B 1_555 1_555
H126B C120B 1_555 1_555
O37B K2B 1_555 1_555
C121B O37B 1_555 1_555
N31B C121B 1_555 1_555
H127B N31B 1_555 1_555
C122B N31B 1_555 1_555
N32B C122B 1_555 1_555
H128B N32B 1_555 1_555
H129B N32B 1_555 1_555
N33B C122B 1_555 1_555
C123B N33B 1_555 1_555
C124B C121B 1_555 1_555
N34B C124B 1_555 1_555
C125B N34B 1_555 1_555
H130B C125B 1_555 1_555
N35B C123B 1_555 1_555
C126B N35B 1_555 1_555
H131B C126B 1_555 1_555
O38B C126B 1_555 1_555
C127B O38B 1_555 1_555
H132B C127B 1_555 1_555
C128B C127B 1_555 1_555
H133B C128B 1_555 1_555
C129B C126B 1_555 1_555
H134B C129B 1_555 1_555
O39B C129B 1_555 1_555
C130B O39B 1_555 1_555
C131B C130B 1_555 1_555
H135B C131B 1_555 1_555
H136B C131B 1_555 1_555
H137B C131B 1_555 1_555
C132B C130B 1_555 1_555
H138B C132B 1_555 1_555
H139B C132B 1_555 1_555
H140B C132B 1_555 1_555
O40B C128B 1_555 1_555
C133B C127B 1_555 1_555
H141B C133B 1_555 1_555
H142B C133B 1_555 1_555
O41B C133B 1_555 1_555
C134B O41B 1_555 1_555
O42B C134B 1_555 1_555
C135B C134B 1_555 1_555
C136B C135B 1_555 1_555
H143B C136B 1_555 1_555
C137B C136B 1_555 1_555
H144B C137B 1_555 1_555
C138B C137B 1_555 1_555
H145B C138B 1_555 1_555
C139B C138B 1_555 1_555
H146B C139B 1_555 1_555
C140B C135B 1_555 1_555
H147B C140B 1_555 1_555
O43B K2B 1_555 1_555
C141B O43B 1_555 1_555
N36B C141B 1_555 1_555
H148B N36B 1_555 1_555
C142B N36B 1_555 1_555
N37B C142B 1_555 1_555
H149B N37B 1_555 1_555
H150B N37B 1_555 1_555
N38B C142B 1_555 1_555
C143B N38B 1_555 1_555
C144B C141B 1_555 1_555
N39B C144B 1_555 1_555
C145B N39B 1_555 1_555
H151B C145B 1_555 1_555
N40B C143B 1_555 1_555
C146B N40B 1_555 1_555
H152B C146B 1_555 1_555
O44B C146B 1_555 1_555
C147B O44B 1_555 1_555
H153B C147B 1_555 1_555
C148B C147B 1_555 1_555
H154B C148B 1_555 1_555
C149B C146B 1_555 1_555
H155B C149B 1_555 1_555
O45B C149B 1_555 1_555
C150B O45B 1_555 1_555
C151B C150B 1_555 1_555
H156B C151B 1_555 1_555
H157B C151B 1_555 1_555
H158B C151B 1_555 1_555
C152B C150B 1_555 1_555
H159B C152B 1_555 1_555
H160B C152B 1_555 1_555
H161B C152B 1_555 1_555
O46B C148B 1_555 1_555
C153B C147B 1_555 1_555
H162B C153B 1_555 1_555
H163B C153B 1_555 1_555
O47B C153B 1_555 1_555
C154B O47B 1_555 1_555
O48B C154B 1_555 1_555
C155B C154B 1_555 1_555
C156B C155B 1_555 1_555
H164B C156B 1_555 1_555
C157B C156B 1_555 1_555
H165B C157B 1_555 1_555
C158B C157B 1_555 1_555
H166B C158B 1_555 1_555
C159B C158B 1_555 1_555
H167B C159B 1_555 1_555
C160B C155B 1_555 1_555
H168B C160B 1_555 1_555
K2 O7 1_555 1_555
K2 O13 1_555 1_555
K2 O19 1_555 1_555
C3 C4 1_555 1_555
C5 N5 1_555 1_555
C8 C9 1_555 1_555
C10 O4 1_555 1_555
C19 C20 1_555 1_555
C23 C24 1_555 1_555
C25 N10 1_555 1_555
C28 C29 1_555 1_555
C30 O10 1_555 1_555
C39 C40 1_555 1_555
C43 C44 1_555 1_555
C45 N15 1_555 1_555
C48 C49 1_555 1_555
C50 O16 1_555 1_555
C59 C60 1_555 1_555
C63 C64 1_555 1_555
C65 N20 1_555 1_555
C68 C69 1_555 1_555
C70 O22 1_555 1_555
C79 C80 1_555 1_555
C83 C84 1_555 1_555
C85 N25 1_555 1_555
C88 C89 1_555 1_555
C90 O28 1_555 1_555
C99 C100 1_555 1_555
C103 C104 1_555 1_555
C105 N30 1_555 1_555
C108 C109 1_555 1_555
C110 O34 1_555 1_555
C119 C120 1_555 1_555
C123 C124 1_555 1_555
C125 N35 1_555 1_555
C128 C129 1_555 1_555
C130 O40 1_555 1_555
C139 C140 1_555 1_555
C143 C144 1_555 1_555
C145 N40 1_555 1_555
C148 C149 1_555 1_555
C150 O46 1_555 1_555
C159 C160 1_555 1_555
K2B O7B 1_555 1_555
K2B O13B 1_555 1_555
K2B O19B 1_555 1_555
C3B C4B 1_555 1_555
C5B N5B 1_555 1_555
C8B C9B 1_555 1_555
C10B O4B 1_555 1_555
C19B C20B 1_555 1_555
C23B C24B 1_555 1_555
C25B N10B 1_555 1_555
C28B C29B 1_555 1_555
C30B O10B 1_555 1_555
C39B C40B 1_555 1_555
C43B C44B 1_555 1_555
C45B N15B 1_555 1_555
C48B C49B 1_555 1_555
C50B O16B 1_555 1_555
C59B C60B 1_555 1_555
C63B C64B 1_555 1_555
C65B N20B 1_555 1_555
C68B C69B 1_555 1_555
C70B O22B 1_555 1_555
C79B C80B 1_555 1_555
C83B C84B 1_555 1_555
C85B N25B 1_555 1_555
C88B C89B 1_555 1_555
C90B O28B 1_555 1_555
C99B C100B 1_555 1_555
C103B C104B 1_555 1_555
C105B N30B 1_555 1_555
C108B C109B 1_555 1_555
C110B O34B 1_555 1_555
C119B C120B 1_555 1_555
C123B C124B 1_555 1_555
C125B N35B 1_555 1_555
C128B C129B 1_555 1_555
C130B O40B 1_555 1_555
C139B C140B 1_555 1_555
C143B C144B 1_555 1_555
C145B N40B 1_555 1_555
C148B C149B 1_555 1_555
C150B O46B 1_555 1_555
C159B C160B 1_555 1_555

#END
