
#######################################################################
#
#                 Cambridge Crystallographic Data Centre
#                                CCDC 
#
#######################################################################
#
# If this CIF has been generated from an entry in the Cambridge 
# Structural Database, then it will include bibliographic, chemical, 
# crystal, experimental, refinement or atomic coordinate data resulting 
# from the CCDC's data processing and validation procedures.
#
#######################################################################

data_OTEYAP
_chemical_formula_moiety         'C16 H13 Cl1 O3'
_chemical_name_systematic        
6-chloro-3-hydroxy-2-methyl-3-phenyl-2,3-dihydro-4H-chromen-4-one
_symmetry_cell_setting           orthorhombic
_symmetry_space_group_name_H-M   'P 21 21 21'
_symmetry_Int_Tables_number      19
_space_group_name_Hall           'P 2ac 2ab'
loop_
_symmetry_equiv_pos_site_id
_symmetry_equiv_pos_as_xyz
1 x,y,z
2 1/2-x,-y,1/2+z
3 1/2+x,1/2-y,-z
4 -x,1/2+y,1/2-z
_cell_length_a                   11.829(2)
_cell_length_b                   12.023(2)
_cell_length_c                   19.877(4)
_cell_angle_alpha                90
_cell_angle_beta                 90
_cell_angle_gamma                90
_cell_volume                     2826.91
_exptl_crystal_colour            white
_exptl_crystal_description       Prism
_cell_formula_units_Z            8
loop_
_atom_site_label
_atom_site_type_symbol
_atom_site_fract_x
_atom_site_fract_y
_atom_site_fract_z
Cl1 Cl -0.26597(4) -0.17821(4) 0.45348(2)
O1 O 0.06805(9) -0.43041(10) 0.35545(5)
O2 O 0.08421(9) -0.57584(8) 0.25099(5)
H1 H 0.1154 -0.5750 0.2878
O3 O -0.15847(9) -0.40930(8) 0.20165(5)
C1 C -0.23126(14) -0.24537(12) 0.37887(8)
C2 C -0.30529(13) -0.24001(13) 0.32423(8)
H2 H -0.3719 -0.1994 0.3276
C3 C -0.27957(13) -0.29487(12) 0.26553(8)
H3 H -0.3288 -0.2913 0.2291
C4 C -0.18026(11) -0.35554(11) 0.26061(7)
C5 C -0.10485(11) -0.35928(11) 0.31459(6)
C6 C -0.13144(13) -0.30282(11) 0.37438(7)
H4 H -0.0817 -0.3044 0.4106
C7 C 0.00214(12) -0.41959(11) 0.30865(7)
C8 C 0.02791(12) -0.47320(11) 0.24033(7)
C9 C -0.08504(13) -0.50474(12) 0.20743(8)
H5 H -0.1225 -0.5594 0.2364
C10 C -0.07506(16) -0.55448(16) 0.13799(9)
H6 H -0.1491 -0.5716 0.1211
H7 H -0.0308 -0.6213 0.1402
H8 H -0.0390 -0.5021 0.1085
C11 C 0.09859(12) -0.39525(11) 0.19655(7)
C12 C 0.18479(14) -0.43894(14) 0.15738(9)
H9 H 0.2013 -0.5144 0.1601
C13 C 0.24657(15) -0.37216(17) 0.11430(9)
H10 H 0.3034 -0.4031 0.0879
C14 C 0.22419(15) -0.25960(15) 0.11025(7)
H11 H 0.2660 -0.2143 0.0816
C15 C 0.13892(16) -0.21550(13) 0.14932(8)
H12 H 0.1233 -0.1398 0.1470
C16 C 0.07642(14) -0.28230(12) 0.19186(7)
H13 H 0.0189 -0.2512 0.2176
Cl2 Cl -0.33246(5) -0.54658(4) 0.02121(2)
O4 O -0.22210(8) -0.14796(9) 0.12720(5)
O5 O -0.30566(10) 0.06230(9) 0.11678(7)
H14 H -0.2422 0.0393 0.1257
O6 O -0.52363(9) -0.09722(10) 0.03151(6)
C17 C -0.38698(14) -0.41234(13) 0.02630(7)
C18 C -0.48752(14) -0.38767(15) -0.00760(8)
H15 H -0.5252 -0.4430 -0.0314
C19 C -0.53006(14) -0.28262(16) -0.00574(8)
H16 H -0.5965 -0.2661 -0.0287
C20 C -0.47447(12) -0.19943(13) 0.03053(7)
C21 C -0.37459(12) -0.22406(12) 0.06482(6)
C22 C -0.33106(12) -0.33217(12) 0.06250(6)
H17 H -0.2647 -0.3496 0.0853
C23 C -0.31694(11) -0.13643(12) 0.10351(6)
C24 C -0.38139(12) -0.02787(12) 0.11336(8)
C25 C -0.45109(14) -0.00488(14) 0.04874(8)
H18 H -0.3979 0.0064 0.0115
C26 C -0.52453(19) 0.09638(18) 0.05360(11)
H19 H -0.5653 0.1060 0.0122
H20 H -0.4782 0.1606 0.0617
H21 H -0.5771 0.0875 0.0900
C27 C -0.45173(12) -0.03785(14) 0.17787(7)
C28 C -0.53346(16) -0.11827(18) 0.18636(8)
H22 H -0.5472 -0.1687 0.1519
C29 C -0.59575(17) -0.1254(2) 0.24550(9)
H23 H -0.6510 -0.1799 0.2500
C30 C -0.57637(19) -0.0533(2) 0.29674(9)
H24 H -0.6188 -0.0575 0.3361
C31 C -0.4944(2) 0.0252(2) 0.28999(11)
H25 H -0.4799 0.0735 0.3255
C32 C -0.43152(18) 0.03458(18) 0.23094(10)
H26 H -0.3762 0.0892 0.2271
loop_
_geom_bond_atom_site_label_1
_geom_bond_atom_site_label_2
_geom_bond_site_symmetry_1
_geom_bond_site_symmetry_2
Cl1 C1 1_555 1_555
O1 C7 1_555 1_555
O2 H1 1_555 1_555
O3 C4 1_555 1_555
C1 C2 1_555 1_555
C2 H2 1_555 1_555
C3 C2 1_555 1_555
H3 C3 1_555 1_555
C4 C3 1_555 1_555
C5 C4 1_555 1_555
C6 C1 1_555 1_555
H4 C6 1_555 1_555
C7 C5 1_555 1_555
C8 O2 1_555 1_555
C9 O3 1_555 1_555
H5 C9 1_555 1_555
C10 C9 1_555 1_555
H6 C10 1_555 1_555
H7 C10 1_555 1_555
H8 C10 1_555 1_555
C11 C8 1_555 1_555
C12 C11 1_555 1_555
H9 C12 1_555 1_555
C13 C12 1_555 1_555
H10 C13 1_555 1_555
C14 C13 1_555 1_555
H11 C14 1_555 1_555
C15 C14 1_555 1_555
H12 C15 1_555 1_555
C16 C11 1_555 1_555
H13 C16 1_555 1_555
Cl2 C17 1_555 1_555
O4 C23 1_555 1_555
O5 H14 1_555 1_555
O6 C20 1_555 1_555
C17 C18 1_555 1_555
C18 H15 1_555 1_555
C19 C18 1_555 1_555
H16 C19 1_555 1_555
C20 C19 1_555 1_555
C21 C20 1_555 1_555
C22 C17 1_555 1_555
H17 C22 1_555 1_555
C23 C21 1_555 1_555
C24 O5 1_555 1_555
C25 O6 1_555 1_555
H18 C25 1_555 1_555
C26 C25 1_555 1_555
H19 C26 1_555 1_555
H20 C26 1_555 1_555
H21 C26 1_555 1_555
C27 C24 1_555 1_555
C28 C27 1_555 1_555
H22 C28 1_555 1_555
C29 C28 1_555 1_555
H23 C29 1_555 1_555
C30 C29 1_555 1_555
H24 C30 1_555 1_555
C31 C30 1_555 1_555
H25 C31 1_555 1_555
C32 C27 1_555 1_555
H26 C32 1_555 1_555
C5 C6 1_555 1_555
C7 C8 1_555 1_555
C8 C9 1_555 1_555
C15 C16 1_555 1_555
C21 C22 1_555 1_555
C23 C24 1_555 1_555
C24 C25 1_555 1_555
C31 C32 1_555 1_555

#END
