
#######################################################################
#
#                 Cambridge Crystallographic Data Centre
#                                CCDC 
#
#######################################################################
#
# If this CIF has been generated from an entry in the Cambridge 
# Structural Database, then it will include bibliographic, chemical, 
# crystal, experimental, refinement or atomic coordinate data resulting 
# from the CCDC's data processing and validation procedures.
#
#######################################################################

data_OTEYET
_chemical_formula_moiety         'C28 H29 N1 O2'
_chemical_name_systematic        
1-(5-benzyl-2-(mesitylmethyl)-3-phenyl-2,3-dihydro-1,2-oxazol-4-yl)ethanone
_symmetry_cell_setting           orthorhombic
_symmetry_space_group_name_H-M   'P 21 21 21'
_symmetry_Int_Tables_number      19
_space_group_name_Hall           'P 2ac 2ab'
loop_
_symmetry_equiv_pos_site_id
_symmetry_equiv_pos_as_xyz
1 x,y,z
2 1/2-x,-y,1/2+z
3 -x,1/2+y,1/2-z
4 1/2+x,1/2-y,-z
_cell_length_a                   5.09750(10)
_cell_length_b                   10.80700(10)
_cell_length_c                   40.2707(4)
_cell_angle_alpha                90
_cell_angle_beta                 90
_cell_angle_gamma                90
_cell_volume                     2218.46
_exptl_crystal_colour            colorless
_exptl_crystal_description       prismatic
_cell_formula_units_Z            4
loop_
_atom_site_label
_atom_site_type_symbol
_atom_site_fract_x
_atom_site_fract_y
_atom_site_fract_z
N1 N 0.6050(3) 0.64950(13) 0.86028(3)
O1 O 0.7396(3) 0.57072(11) 0.88552(3)
O2 O 0.5610(3) 0.22834(11) 0.84029(3)
C1 C 1.1289(4) 0.47199(18) 0.93758(5)
H1 H 1.2337 0.5055 0.9203
C2 C 1.1835(4) 0.50247(19) 0.97035(5)
H2 H 1.3249 0.5567 0.9753
C3 C 1.0328(5) 0.45411(19) 0.99565(5)
H3 H 1.0691 0.4752 1.0181
C4 C 0.8296(5) 0.3751(2) 0.98824(5)
H4 H 0.7267 0.3410 1.0057
C5 C 0.7736(4) 0.34483(18) 0.95539(5)
H5 H 0.6320 0.2907 0.9505
C6 C 0.9235(4) 0.39332(16) 0.92978(4)
C7 C 0.8638(4) 0.35947(17) 0.89394(4)
H6 H 1.0316 0.3488 0.8819
H7 H 0.7712 0.2789 0.8936
C8 C 0.7004(4) 0.45280(15) 0.87580(4)
C9 C 0.5197(4) 0.44097(15) 0.85143(4)
C10 C 0.4037(4) 0.56775(16) 0.84496(4)
H8 H 0.2334 0.5765 0.8571
C11 C 0.3705(4) 0.60739(17) 0.80897(4)
C12 C 0.5432(4) 0.56787(19) 0.78459(4)
H9 H 0.6844 0.5144 0.7902
C13 C 0.5091(5) 0.6068(2) 0.75189(5)
H10 H 0.6246 0.5780 0.7351
C14 C 0.3082(5) 0.6869(2) 0.74384(5)
H11 H 0.2865 0.7138 0.7215
C15 C 0.1392(5) 0.7280(2) 0.76812(5)
H12 H 0.0029 0.7844 0.7626
C16 C 0.1680(4) 0.68691(19) 0.80081(5)
H13 H 0.0485 0.7136 0.8174
C17 C 0.4377(4) 0.32435(16) 0.83620(4)
C18 C 0.1944(4) 0.32417(17) 0.81484(4)
H14 H 0.2427 0.3423 0.7918
H15 H 0.0721 0.3874 0.8229
H16 H 0.1105 0.2427 0.8160
C19 C 0.4915(4) 0.75317(16) 0.87923(4)
H17 H 0.4032 0.7208 0.8993
H18 H 0.3583 0.7958 0.8655
C20 C 0.7017(4) 0.84428(15) 0.88929(4)
C21 C 0.8003(4) 0.92624(16) 0.86534(4)
C22 C 0.9978(4) 1.00927(16) 0.87421(4)
H19 H 1.0652 1.0643 0.8579
C23 C 1.0987(4) 1.01376(16) 0.90622(4)
C24 C 0.9970(4) 0.93243(16) 0.92976(4)
H20 H 1.0637 0.9348 0.9518
C25 C 0.8004(4) 0.84771(16) 0.92194(4)
C26 C 0.6960(4) 0.76316(17) 0.94886(4)
H21 H 0.7907 0.7788 0.9696
H22 H 0.7212 0.6767 0.9422
H23 H 0.5086 0.7792 0.9522
C27 C 0.6924(4) 0.93024(17) 0.83036(4)
H24 H 0.5149 0.9650 0.8307
H25 H 0.6867 0.8462 0.8212
H26 H 0.8057 0.9821 0.8165
C28 C 1.3106(4) 1.10508(17) 0.91508(5)
H27 H 1.3601 1.1523 0.8953
H28 H 1.4641 1.0605 0.9235
H29 H 1.2454 1.1618 0.9322
loop_
_geom_bond_atom_site_label_1
_geom_bond_atom_site_label_2
_geom_bond_site_symmetry_1
_geom_bond_site_symmetry_2
N1 O1 1_555 1_555
O1 C8 1_555 1_555
O2 C17 1_555 1_555
C1 H1 1_555 1_555
C2 C1 1_555 1_555
H2 C2 1_555 1_555
C3 C2 1_555 1_555
H3 C3 1_555 1_555
C4 C3 1_555 1_555
H4 C4 1_555 1_555
C5 C4 1_555 1_555
H5 C5 1_555 1_555
C6 C1 1_555 1_555
C7 C6 1_555 1_555
H6 C7 1_555 1_555
H7 C7 1_555 1_555
C8 C7 1_555 1_555
C9 C8 1_555 1_555
C10 N1 1_555 1_555
H8 C10 1_555 1_555
C11 C10 1_555 1_555
C12 C11 1_555 1_555
H9 C12 1_555 1_555
C13 C12 1_555 1_555
H10 C13 1_555 1_555
C14 C13 1_555 1_555
H11 C14 1_555 1_555
C15 C14 1_555 1_555
H12 C15 1_555 1_555
C16 C11 1_555 1_555
H13 C16 1_555 1_555
C17 C9 1_555 1_555
C18 C17 1_555 1_555
H14 C18 1_555 1_555
H15 C18 1_555 1_555
H16 C18 1_555 1_555
C19 N1 1_555 1_555
H17 C19 1_555 1_555
H18 C19 1_555 1_555
C20 C19 1_555 1_555
C21 C20 1_555 1_555
C22 C21 1_555 1_555
H19 C22 1_555 1_555
C23 C22 1_555 1_555
C24 C23 1_555 1_555
H20 C24 1_555 1_555
C25 C20 1_555 1_555
C26 C25 1_555 1_555
H21 C26 1_555 1_555
H22 C26 1_555 1_555
H23 C26 1_555 1_555
C27 C21 1_555 1_555
H24 C27 1_555 1_555
H25 C27 1_555 1_555
H26 C27 1_555 1_555
C28 C23 1_555 1_555
H27 C28 1_555 1_555
H28 C28 1_555 1_555
H29 C28 1_555 1_555
C5 C6 1_555 1_555
C9 C10 1_555 1_555
C15 C16 1_555 1_555
C24 C25 1_555 1_555

#END
