
#######################################################################
#
#                 Cambridge Crystallographic Data Centre
#                                CCDC 
#
#######################################################################
#
# If this CIF has been generated from an entry in the Cambridge 
# Structural Database, then it will include bibliographic, chemical, 
# crystal, experimental, refinement or atomic coordinate data resulting 
# from the CCDC's data processing and validation procedures.
#
#######################################################################

data_OTIBOK
_chemical_formula_moiety         'C22 H24 N2 O2'
_chemical_name_systematic        
rac-3,3'-diethyl-1,1'-dimethyl-1,1',3,3'-tetrahydro-2H,2'H-3,3'-biindole-2,2'-dione
_symmetry_cell_setting           orthorhombic
_symmetry_space_group_name_H-M   'F d d d'
_symmetry_Int_Tables_number      70
_space_group_name_Hall           '-F 2uv 2vw'
loop_
_symmetry_equiv_pos_site_id
_symmetry_equiv_pos_as_xyz
1 x,y,z
2 1/4-x,1/4-y,z
3 x,1/4-y,1/4-z
4 1/4-x,y,1/4-z
5 x,1/2+y,1/2+z
6 1/4-x,3/4-y,1/2+z
7 x,3/4-y,3/4-z
8 1/4-x,1/2+y,3/4-z
9 1/2+x,y,1/2+z
10 3/4-x,1/4-y,1/2+z
11 1/2+x,1/4-y,3/4-z
12 3/4-x,y,3/4-z
13 1/2+x,1/2+y,z
14 3/4-x,3/4-y,z
15 1/2+x,3/4-y,1/4-z
16 3/4-x,1/2+y,1/4-z
17 -x,-y,-z
18 3/4+x,3/4+y,-z
19 -x,3/4+y,3/4+z
20 3/4+x,-y,3/4+z
21 -x,1/2-y,1/2-z
22 3/4+x,1/4+y,1/2-z
23 -x,1/4+y,1/4+z
24 3/4+x,1/2-y,1/4+z
25 1/2-x,-y,1/2-z
26 1/4+x,3/4+y,1/2-z
27 1/2-x,3/4+y,1/4+z
28 1/4+x,-y,1/4+z
29 1/2-x,1/2-y,-z
30 1/4+x,1/4+y,-z
31 1/2-x,1/4+y,3/4+z
32 1/4+x,1/2-y,3/4+z
_cell_length_a                   14.4383(4)
_cell_length_b                   16.5487(6)
_cell_length_c                   31.6999(8)
_cell_angle_alpha                90
_cell_angle_beta                 90
_cell_angle_gamma                90
_cell_volume                     7574.22
_exptl_crystal_colour            colorless
_exptl_crystal_description       block
_cell_formula_units_Z            16
loop_
_atom_site_label
_atom_site_type_symbol
_atom_site_fract_x
_atom_site_fract_y
_atom_site_fract_z
O1 O 0.73896(9) 0.27144(8) 0.15291(4)
N1 N 0.80042(10) 0.24139(8) 0.08818(4)
C1 C 0.88218(12) 0.25798(10) 0.06605(5)
C2 C 0.90713(15) 0.23176(11) 0.02652(6)
H1 H 0.8674 0.2000 0.0104
C3 C 0.99364(15) 0.25435(13) 0.01141(6)
H2 H 1.0121 0.2378 -0.0153
C4 C 1.05246(14) 0.30089(13) 0.03544(6)
H3 H 1.1106 0.3143 0.0250
C5 C 1.02603(12) 0.32812(11) 0.07514(6)
H4 H 1.0660 0.3596 0.0913
C6 C 0.93930(11) 0.30759(10) 0.09017(5)
C7 C 0.88943(11) 0.32877(10) 0.13086(5)
C8 C 0.80018(12) 0.27812(10) 0.12653(5)
C9 C 0.94225(14) 0.30244(12) 0.17072(5)
H5 H 0.9974 0.3355 0.1736
H6 H 0.9035 0.3123 0.1952
C10 C 0.97057(19) 0.21422(14) 0.17043(8)
H7 H 1.0132 0.2048 0.1477
H8 H 0.9167 0.1810 0.1666
H9 H 0.9997 0.2009 0.1968
C11 C 0.72431(13) 0.19240(12) 0.07272(6)
H10 H 0.7125 0.2054 0.0437
H11 H 0.6698 0.2032 0.0892
H12 H 0.7402 0.1363 0.0751
O1M O 1.01104(9) 0.47856(8) 0.15291(4)
N1M N 0.94958(10) 0.50861(8) 0.08818(4)
C1M C 0.86782(12) 0.49202(10) 0.06605(5)
C2M C 0.84287(15) 0.51824(11) 0.02652(6)
H1M H 0.8826 0.5500 0.0104
C3M C 0.75636(15) 0.49565(13) 0.01141(6)
H2M H 0.7379 0.5122 -0.0153
C4M C 0.69754(14) 0.44911(13) 0.03544(6)
H3M H 0.6394 0.4357 0.0250
C5M C 0.72397(12) 0.42188(11) 0.07514(6)
H4M H 0.6840 0.3904 0.0913
C6M C 0.81070(11) 0.44241(10) 0.09017(5)
C7M C 0.86057(11) 0.42123(10) 0.13086(5)
C8M C 0.94982(12) 0.47188(10) 0.12653(5)
C9M C 0.80775(14) 0.44756(12) 0.17072(5)
H5M H 0.7526 0.4145 0.1736
H6M H 0.8465 0.4377 0.1952
C10M C 0.77943(19) 0.53578(14) 0.17043(8)
H7M H 0.7368 0.5452 0.1477
H8M H 0.8333 0.5690 0.1666
H9M H 0.7503 0.5491 0.1968
C11M C 1.02569(13) 0.55760(12) 0.07272(6)
H10M H 1.0375 0.5446 0.0437
H11M H 1.0802 0.5468 0.0892
H12M H 1.0098 0.6137 0.0751
loop_
_geom_bond_atom_site_label_1
_geom_bond_atom_site_label_2
_geom_bond_site_symmetry_1
_geom_bond_site_symmetry_2
O1 C8 1_555 1_555
N1 C1 1_555 1_555
C1 C2 1_555 1_555
C2 H1 1_555 1_555
C3 C2 1_555 1_555
H2 C3 1_555 1_555
C4 C3 1_555 1_555
H3 C4 1_555 1_555
C5 C4 1_555 1_555
H4 C5 1_555 1_555
C6 C1 1_555 1_555
C7 C6 1_555 1_555
C8 N1 1_555 1_555
C9 C7 1_555 1_555
H5 C9 1_555 1_555
H6 C9 1_555 1_555
C10 C9 1_555 1_555
H7 C10 1_555 1_555
H8 C10 1_555 1_555
H9 C10 1_555 1_555
C11 N1 1_555 1_555
H10 C11 1_555 1_555
H11 C11 1_555 1_555
H12 C11 1_555 1_555
O1M C8M 1_555 1_555
N1M C1M 1_555 1_555
C1M C2M 1_555 1_555
C2M H1M 1_555 1_555
C3M C2M 1_555 1_555
H2M C3M 1_555 1_555
C4M C3M 1_555 1_555
H3M C4M 1_555 1_555
C5M C4M 1_555 1_555
H4M C5M 1_555 1_555
C6M C1M 1_555 1_555
C7M C7 1_555 1_555
C8M N1M 1_555 1_555
C9M C7M 1_555 1_555
H5M C9M 1_555 1_555
H6M C9M 1_555 1_555
C10M C9M 1_555 1_555
H7M C10M 1_555 1_555
H8M C10M 1_555 1_555
H9M C10M 1_555 1_555
C11M N1M 1_555 1_555
H10M C11M 1_555 1_555
H11M C11M 1_555 1_555
H12M C11M 1_555 1_555
C5 C6 1_555 1_555
C7 C8 1_555 1_555
C5M C6M 1_555 1_555
C6M C7M 1_555 1_555
C7M C8M 1_555 1_555

#END
