
#######################################################################
#
#                 Cambridge Crystallographic Data Centre
#                                CCDC 
#
#######################################################################
#
# If this CIF has been generated from an entry in the Cambridge 
# Structural Database, then it will include bibliographic, chemical, 
# crystal, experimental, refinement or atomic coordinate data resulting 
# from the CCDC's data processing and validation procedures.
#
#######################################################################

data_OTIBAW
_chemical_formula_moiety         'C24 H8 N8 O20'
_chemical_name_systematic        
4,6,10,12,16,18,22,24-octanitro-2,8,14,20-tetraoxapentacyclo[19.3.1.1^3,7^.1^9,13^.1^15,19^]octacosa-1(25),3(28),4,6,9(27),10,12,15(26),16,18,21,23-dodecaene
_symmetry_cell_setting           monoclinic
_symmetry_space_group_name_H-M   'C c'
_symmetry_Int_Tables_number      9
_space_group_name_Hall           'C -2yc'
loop_
_symmetry_equiv_pos_site_id
_symmetry_equiv_pos_as_xyz
1 x,y,z
2 x,-y,1/2+z
3 1/2+x,1/2+y,z
4 1/2+x,1/2-y,1/2+z
_cell_length_a                   19.468(2)
_cell_length_b                   12.1352(13)
_cell_length_c                   11.6945(11)
_cell_angle_alpha                90
_cell_angle_beta                 92.665(4)
_cell_angle_gamma                90
_cell_volume                     2759.82
_exptl_crystal_description       column
_cell_formula_units_Z            4
loop_
_atom_site_label
_atom_site_type_symbol
_atom_site_fract_x
_atom_site_fract_y
_atom_site_fract_z
C1 C 0.6333(3) 0.7688(5) 0.3557(5)
C2 C 0.5789(3) 0.6966(5) 0.3681(5)
H1 H 0.5537 0.6979 0.4357
C3 C 0.5617(3) 0.6227(5) 0.2815(5)
C4 C 0.6024(3) 0.6150(5) 0.1864(5)
C5 C 0.6592(3) 0.6820(5) 0.1769(5)
H2 H 0.6881 0.6742 0.1141
C6 C 0.6732(3) 0.7597(5) 0.2594(5)
C7 C 0.5494(3) 0.8678(4) 0.6877(5)
C8 C 0.5705(3) 0.8751(5) 0.5757(5)
H3 H 0.5423 0.9114 0.5188
C9 C 0.6321(3) 0.8296(5) 0.5481(5)
C10 C 0.6744(3) 0.7788(5) 0.6303(5)
C11 C 0.6550(3) 0.7742(5) 0.7425(5)
H4 H 0.6841 0.7399 0.7993
C12 C 0.5935(3) 0.8195(5) 0.7716(5)
C13 C 0.3604(3) 0.8514(5) 0.4876(5)
C14 C 0.4090(3) 0.8352(5) 0.5750(5)
H5 H 0.4219 0.7625 0.5972
C15 C 0.4389(3) 0.9245(5) 0.6305(5)
C16 C 0.4202(3) 1.0297(5) 0.5996(5)
C17 C 0.3720(3) 1.0481(5) 0.5100(5)
H6 H 0.3601 1.1209 0.4869
C18 C 0.3420(3) 0.9582(5) 0.4557(5)
C19 C 0.4501(3) 0.5599(5) 0.3410(5)
C20 C 0.4218(3) 0.6619(5) 0.3663(5)
H7 H 0.4454 0.7280 0.3491
C21 C 0.3588(3) 0.6660(5) 0.4169(5)
C22 C 0.3256(3) 0.5697(5) 0.4450(5)
C23 C 0.3534(3) 0.4692(5) 0.4206(5)
H8 H 0.3310 0.4032 0.4416
C24 C 0.4145(3) 0.4649(5) 0.3651(5)
N1 N 0.5884(3) 0.5320(4) 0.0974(5)
N2 N 0.7313(3) 0.8344(5) 0.2465(4)
N3 N 0.7408(3) 0.7322(5) 0.6034(5)
N4 N 0.5740(3) 0.8122(5) 0.8913(4)
N5 N 0.2884(3) 0.9800(4) 0.3657(5)
N6 N 0.2579(3) 0.5659(5) 0.4964(5)
N7 N 0.4374(3) 0.3557(4) 0.3298(5)
O1 O 0.6522(2) 0.8457(3) 0.4369(3)
O2 O 0.5288(3) 0.5182(4) 0.0629(4)
O3 O 0.6370(3) 0.4818(4) 0.0621(5)
O4 O 0.7827(2) 0.7968(4) 0.2037(4)
O5 O 0.7246(3) 0.9303(4) 0.2773(4)
O6 O 0.4871(2) 0.9060(3) 0.7195(3)
O7 O 0.7509(2) 0.7103(5) 0.5030(5)
O8 O 0.7831(2) 0.7187(5) 0.6818(4)
O9 O 0.5852(2) 0.7263(4) 0.9411(4)
O10 O 0.5474(2) 0.8943(4) 0.9325(4)
O11 O 0.3259(2) 0.7664(3) 0.4328(4)
O12 O 0.3030(3) 1.0435(4) 0.2894(5)
O13 O 0.2335(2) 0.9336(4) 0.3745(4)
O14 O 0.5103(2) 0.5464(3) 0.2881(4)
O15 O 0.2173(2) 0.6420(4) 0.4758(4)
O16 O 0.2468(2) 0.4875(4) 0.5571(4)
O17 O 0.4181(3) 0.2756(4) 0.3825(5)
O18 O 0.4725(2) 0.3488(4) 0.2454(5)
N8 N 0.4469(6) 1.1249(8) 0.6665(11)
O19 O 0.4656(6) 1.1090(6) 0.7677(8)
O20 O 0.4470(11) 1.2150(7) 0.6204(19)
N9? N 0.4557(11) 1.1311(13) 0.642(2)
O21? O 0.5088(9) 1.1202(11) 0.7020(17)
O22? O 0.430(2) 1.2201(11) 0.614(4)
loop_
_geom_bond_atom_site_label_1
_geom_bond_atom_site_label_2
_geom_bond_site_symmetry_1
_geom_bond_site_symmetry_2
C1 C2 1_555 1_555
C2 H1 1_555 1_555
C3 C2 1_555 1_555
C4 C3 1_555 1_555
C5 C4 1_555 1_555
H2 C5 1_555 1_555
C6 C1 1_555 1_555
C7 C8 1_555 1_555
C8 H3 1_555 1_555
C9 C8 1_555 1_555
C10 C9 1_555 1_555
C11 C10 1_555 1_555
H4 C11 1_555 1_555
C12 C7 1_555 1_555
C13 C14 1_555 1_555
C14 H5 1_555 1_555
C15 C14 1_555 1_555
C16 C15 1_555 1_555
C17 C16 1_555 1_555
H6 C17 1_555 1_555
C18 C13 1_555 1_555
C19 C20 1_555 1_555
C20 H7 1_555 1_555
C21 C20 1_555 1_555
C22 C21 1_555 1_555
C23 C22 1_555 1_555
H8 C23 1_555 1_555
C24 C19 1_555 1_555
N1 C4 1_555 1_555
N2 C6 1_555 1_555
N3 C10 1_555 1_555
N4 C12 1_555 1_555
N5 C18 1_555 1_555
N6 C22 1_555 1_555
N7 C24 1_555 1_555
O1 C1 1_555 1_555
O2 N1 1_555 1_555
O3 N1 1_555 1_555
O4 N2 1_555 1_555
O5 N2 1_555 1_555
O6 C7 1_555 1_555
O7 N3 1_555 1_555
O8 N3 1_555 1_555
O9 N4 1_555 1_555
O10 N4 1_555 1_555
O11 C13 1_555 1_555
O12 N5 1_555 1_555
O13 N5 1_555 1_555
O14 C3 1_555 1_555
O15 N6 1_555 1_555
O16 N6 1_555 1_555
O17 N7 1_555 1_555
O18 N7 1_555 1_555
N8 C16 1_555 1_555
O19 N8 1_555 1_555
O20 N8 1_555 1_555
C5 C6 1_555 1_555
C9 O1 1_555 1_555
C11 C12 1_555 1_555
C15 O6 1_555 1_555
C17 C18 1_555 1_555
C19 O14 1_555 1_555
C21 O11 1_555 1_555
C23 C24 1_555 1_555

#END
