
#######################################################################
#
#                 Cambridge Crystallographic Data Centre
#                                CCDC 
#
#######################################################################
#
# If this CIF has been generated from an entry in the Cambridge 
# Structural Database, then it will include bibliographic, chemical, 
# crystal, experimental, refinement or atomic coordinate data resulting 
# from the CCDC's data processing and validation procedures.
#
#######################################################################

data_OTIDOM
_chemical_formula_moiety         'C10 H9 F3 N2,H2 O1'
_chemical_name_systematic        
'2-methyl-3-(2,2,2-trifluoroethyl)imidazo[1,2-a]pyridine monohydrate'
_symmetry_cell_setting           monoclinic
_symmetry_space_group_name_H-M   'P 21/c'
_symmetry_Int_Tables_number      14
_space_group_name_Hall           '-P 2ybc'
loop_
_symmetry_equiv_pos_site_id
_symmetry_equiv_pos_as_xyz
1 x,y,z
2 -x,1/2+y,1/2-z
3 -x,-y,-z
4 x,1/2-y,1/2+z
_cell_length_a                   8.9513(10)
_cell_length_b                   4.8424(6)
_cell_length_c                   25.886(3)
_cell_angle_alpha                90
_cell_angle_beta                 102.982(10)
_cell_angle_gamma                90
_cell_volume                     1093.37
_exptl_crystal_colour            colorless
_exptl_crystal_description       block
_cell_formula_units_Z            4
loop_
_atom_site_label
_atom_site_type_symbol
_atom_site_fract_x
_atom_site_fract_y
_atom_site_fract_z
F1 F 0.8552(3) 0.9003(5) 0.00326(8)
F2 F 0.7905(3) 0.4982(5) -0.02664(7)
F3 F 0.6265(2) 0.7637(5) -0.00516(8)
N1 N 0.7239(3) 1.0558(5) 0.16474(9)
C1 C 0.6822(3) 0.8498(6) 0.12849(10)
C2 C 0.8003(3) 0.7792(5) 0.10567(9)
N2 N 0.9217(2) 0.9477(4) 0.12920(8)
C3 C 0.8692(3) 1.1131(6) 0.16528(10)
C4 C 1.0693(3) 0.9666(7) 0.12276(12)
H1 H 1.1026 0.8554 0.0983
C5 C 1.1653(4) 1.1490(8) 0.15254(14)
H2 H 1.2660 1.1611 0.1488
C6 C 1.1164(4) 1.3209(7) 0.18905(13)
H3 H 1.1842 1.4465 0.2090
C7 C 0.9707(4) 1.3043(7) 0.19522(11)
H4 H 0.9379 1.4193 0.2192
C8 C 0.5246(3) 0.7276(7) 0.11794(13)
H5 H 0.4572 0.8338 0.0912
H6 H 0.4874 0.7299 0.1500
H7 H 0.5282 0.5406 0.1060
C9 C 0.8101(3) 0.5717(6) 0.06425(10)
H8 H 0.7414 0.4199 0.0668
H9 H 0.9135 0.4985 0.0712
C10 C 0.7704(4) 0.6838(7) 0.00921(11)
O1 O 0.5600(3) 0.2089(5) 0.24259(11)
H10 H 0.5239 0.3714 0.2422
H11 H 0.6121 0.1977 0.2172
loop_
_geom_bond_atom_site_label_1
_geom_bond_atom_site_label_2
_geom_bond_site_symmetry_1
_geom_bond_site_symmetry_2
F1 C10 1_555 1_555
F2 C10 1_555 1_555
F3 C10 1_555 1_555
N1 C1 1_555 1_555
C1 C2 1_555 1_555
C2 N2 1_555 1_555
N2 C3 1_555 1_555
C3 N1 1_555 1_555
C4 N2 1_555 1_555
H1 C4 1_555 1_555
C5 C4 1_555 1_555
H2 C5 1_555 1_555
C6 C5 1_555 1_555
H3 C6 1_555 1_555
C7 C3 1_555 1_555
H4 C7 1_555 1_555
C8 C1 1_555 1_555
H5 C8 1_555 1_555
H6 C8 1_555 1_555
H7 C8 1_555 1_555
C9 C2 1_555 1_555
H8 C9 1_555 1_555
H9 C9 1_555 1_555
C10 C9 1_555 1_555
O1 H10 1_555 1_555
H11 O1 1_555 1_555
C6 C7 1_555 1_555

#END
