
#######################################################################
#
#                 Cambridge Crystallographic Data Centre
#                                CCDC 
#
#######################################################################
#
# If this CIF has been generated from an entry in the Cambridge 
# Structural Database, then it will include bibliographic, chemical, 
# crystal, experimental, refinement or atomic coordinate data resulting 
# from the CCDC's data processing and validation procedures.
#
#######################################################################

data_OTIFUT
_chemical_formula_moiety         'C22 H18 Cl1 N3 O5'
_chemical_name_systematic        
'6-Ethyl 2-methyl 3-chloro-1,5-dicyano-4-oxo-7-(4,5,6,7-tetrahydro-1H-indol-2-yl)bicyclo[3.2.0]hepta-2,6-diene-2,6-dicarboxylate'
_symmetry_cell_setting           monoclinic
_symmetry_space_group_name_H-M   'P 21/n'
_symmetry_Int_Tables_number      14
_space_group_name_Hall           '-P 2yn'
loop_
_symmetry_equiv_pos_site_id
_symmetry_equiv_pos_as_xyz
1 x,y,z
2 1/2-x,1/2+y,1/2-z
3 -x,-y,-z
4 1/2+x,1/2-y,1/2+z
_cell_length_a                   12.381(2)
_cell_length_b                   16.615(3)
_cell_length_c                   21.214(4)
_cell_angle_alpha                90
_cell_angle_beta                 99.727(4)
_cell_angle_gamma                90
_cell_volume                     4301.2
_cell_formula_units_Z            8
loop_
_atom_site_label
_atom_site_type_symbol
_atom_site_fract_x
_atom_site_fract_y
_atom_site_fract_z
Cl1 Cl 0.23067(9) 1.49258(6) -0.08306(6)
O1 O 0.24852(19) 1.37358(17) -0.18784(13)
O2 O 0.49213(16) 1.16421(15) -0.10756(12)
O3 O 0.37480(17) 1.20282(15) -0.19516(12)
O4 O 0.1760(2) 1.32386(17) 0.07090(13)
O5 O 0.1423(2) 1.44357(16) 0.02956(14)
N1 N 0.45197(19) 1.13666(16) 0.02259(13)
H1 H 0.4868 1.1287 -0.0087
N2 N 0.0219(2) 1.17741(19) -0.03258(15)
N3 N 0.0777(2) 1.1837(2) -0.21198(16)
C1 C 0.4837(2) 1.1095(2) 0.08311(16)
C2 C 0.5803(3) 1.0585(2) 0.10403(18)
H2 H 0.5729 1.0079 0.0808
H3 H 0.646 1.0854 0.0958
C3 C 0.5877(3) 1.0437(3) 0.1727(2)
H4 H 0.6041 0.9868 0.1786
H5 H 0.6526 1.0722 0.1931
C4 C 0.5111(4) 1.0592(3) 0.2080(2)
H6 H 0.5492 1.0799 0.2485
H7 H 0.4805 1.0076 0.2172
C5 C 0.4186(3) 1.1126(2) 0.18804(17)
H8 H 0.4286 1.1616 0.2132
H9 H 0.3519 1.0868 0.1959
C6 C 0.4074(2) 1.13311(19) 0.11922(16)
C7 C 0.3284(2) 1.1762(2) 0.07877(16)
H10 H 0.2665 1.1996 0.0905
C8 C 0.3557(2) 1.17879(19) 0.01890(17)
C9 C 0.3025(2) 1.2121(2) -0.03889(16)
C10 C 0.1915(2) 1.25792(19) -0.05407(16)
C11 C 0.1919(2) 1.3449(2) -0.03561(16)
C12 C 0.2147(2) 1.3919(2) -0.08191(18)
C13 C 0.2266(2) 1.3472(2) -0.13935(19)
C14 C 0.2111(2) 1.2588(2) -0.12496(17)
C15 C 0.3178(2) 1.2157(2) -0.09980(18)
C16 C 0.4055(3) 1.1910(2) -0.13272(18)
C17 C 0.4497(3) 1.1813(3) -0.23786(18)
H11 H 0.5098 1.2194 -0.2333
H12 H 0.4797 1.1282 -0.2272
C18 C 0.3919(4) 1.1821(4) -0.3023(2)
H13 H 0.4414 1.1688 -0.331
H14 H 0.3618 1.2347 -0.3124
H15 H 0.3336 1.1433 -0.3067
C19 C 0.0960(3) 1.2128(2) -0.04150(17)
C20 C 0.1354(3) 1.2171(2) -0.17310(18)
C21 C 0.1719(3) 1.3688(2) 0.0275(2)
C22 C 0.1149(4) 1.4750(3) 0.0887(2)
H16 H 0.0901 1.5296 0.0823
H17 H 0.1786 1.4734 0.1215
H18 H 0.0578 1.4428 0.1014
Cl2 Cl 0.27961(8) 0.95513(6) 0.07043(6)
O6 O 0.2743(2) 0.82310(16) -0.02789(13)
O7 O 0.51194(17) 0.60959(17) 0.07118(12)
O8 O 0.40835(16) 0.65051(15) -0.02063(11)
O9 O 0.1880(2) 0.80340(18) 0.22846(13)
O10 O 0.2535(3) 0.91853(18) 0.20464(16)
N4 N 0.47312(19) 0.60296(17) 0.19975(13)
H19 H 0.5082 0.5908 0.1694
N5 N 0.0453(2) 0.65880(18) 0.14085(14)
N6 N 0.0913(2) 0.6442(2) -0.03403(16)
C23 C 0.5024(3) 0.5816(2) 0.26172(18)
C24 C 0.5997(3) 0.5321(3) 0.28806(18)
H20 H 0.6657 0.557 0.2782
H21 H 0.593 0.4789 0.2689
C25 C 0.6069(3) 0.5254(3) 0.3590(2)
H22 H 0.633 0.4715 0.3707
H23 H 0.6641 0.5621 0.378
C26 C 0.5229(4) 0.5381(5) 0.3876(3)
H24 H 0.5527 0.5518 0.4315
H25 H 0.4865 0.4866 0.3889
C27 C 0.4350(3) 0.5980(3) 0.36579(18)
H26 H 0.4521 0.6484 0.3884
H27 H 0.3658 0.5785 0.3754
C28 C 0.4254(3) 0.6117(3) 0.29498(18)
C29 C 0.3485(3) 0.6520(2) 0.25238(17)
H28 H 0.2868 0.678 0.262
C30 C 0.3785(2) 0.6472(2) 0.19319(18)
C31 C 0.3270(2) 0.67624(19) 0.13346(17)
C32 C 0.2228(2) 0.7275(2) 0.11539(16)
C33 C 0.2349(2) 0.8158(2) 0.12904(17)
C34 C 0.2557(2) 0.8563(2) 0.07804(18)
C35 C 0.2584(2) 0.8033(2) 0.02375(19)
C36 C 0.2391(2) 0.7183(2) 0.04429(16)
C37 C 0.3416(2) 0.6726(2) 0.07194(18)
C38 C 0.4299(3) 0.6399(2) 0.04191(19)
C39 C 0.4905(3) 0.6216(3) -0.05584(18)
H29 H 0.56 0.648 -0.041
H30 H 0.5005 0.564 -0.0498
C40 C 0.4535(4) 0.6393(3) -0.1221(2)
H31 H 0.5064 0.6201 -0.1468
H32 H 0.4448 0.6964 -0.1277
H33 H 0.3845 0.6131 -0.1363
C41 C 0.1222(3) 0.6904(2) 0.13110(16)
C42 C 0.1560(3) 0.6766(2) 0.00033(17)
C43 C 0.2283(3) 0.8497(3) 0.1918(2)
C44 C 0.1752(5) 0.8411(4) 0.2863(3)
H34 H 0.1444 0.8035 0.3127
H35 H 0.1273 0.8865 0.2773
H36 H 0.2454 0.8588 0.3082
C45? C 0.2110(11) 0.9405(6) 0.2688(5)
H37? H 0.2053 0.9747 0.3046
H38? H 0.1623 0.9594 0.2317
H39? H 0.2849 0.9414 0.2607
loop_
_geom_bond_atom_site_label_1
_geom_bond_atom_site_label_2
_geom_bond_site_symmetry_1
_geom_bond_site_symmetry_2
Cl1 C12 1_555 1_555
O1 C13 1_555 1_555
O2 C16 1_555 1_555
O3 C16 1_555 1_555
O4 C21 1_555 1_555
O5 C21 1_555 1_555
N1 H1 1_555 1_555
N2 C19 1_555 1_555
N3 C20 1_555 1_555
C1 N1 1_555 1_555
C2 C1 1_555 1_555
H2 C2 1_555 1_555
H3 C2 1_555 1_555
C3 C2 1_555 1_555
H4 C3 1_555 1_555
H5 C3 1_555 1_555
C4 C3 1_555 1_555
H6 C4 1_555 1_555
H7 C4 1_555 1_555
C5 C4 1_555 1_555
H8 C5 1_555 1_555
H9 C5 1_555 1_555
C6 C1 1_555 1_555
C7 C6 1_555 1_555
H10 C7 1_555 1_555
C8 N1 1_555 1_555
C9 C8 1_555 1_555
C10 C9 1_555 1_555
C11 C10 1_555 1_555
C12 C11 1_555 1_555
C13 C12 1_555 1_555
C14 C10 1_555 1_555
C15 C9 1_555 1_555
C16 C15 1_555 1_555
C17 O3 1_555 1_555
H11 C17 1_555 1_555
H12 C17 1_555 1_555
C18 C17 1_555 1_555
H13 C18 1_555 1_555
H14 C18 1_555 1_555
H15 C18 1_555 1_555
C19 C10 1_555 1_555
C20 C14 1_555 1_555
C21 C11 1_555 1_555
C22 O5 1_555 1_555
H16 C22 1_555 1_555
H17 C22 1_555 1_555
H18 C22 1_555 1_555
Cl2 C34 1_555 1_555
O6 C35 1_555 1_555
O7 C38 1_555 1_555
O8 C38 1_555 1_555
O9 C43 1_555 1_555
O10 C43 1_555 1_555
N4 H19 1_555 1_555
N5 C41 1_555 1_555
N6 C42 1_555 1_555
C23 N4 1_555 1_555
C24 C23 1_555 1_555
H20 C24 1_555 1_555
H21 C24 1_555 1_555
C25 C24 1_555 1_555
H22 C25 1_555 1_555
H23 C25 1_555 1_555
C26 C25 1_555 1_555
H24 C26 1_555 1_555
H25 C26 1_555 1_555
C27 C26 1_555 1_555
H26 C27 1_555 1_555
H27 C27 1_555 1_555
C28 C23 1_555 1_555
C29 C28 1_555 1_555
H28 C29 1_555 1_555
C30 N4 1_555 1_555
C31 C30 1_555 1_555
C32 C31 1_555 1_555
C33 C32 1_555 1_555
C34 C33 1_555 1_555
C35 C34 1_555 1_555
C36 C32 1_555 1_555
C37 C31 1_555 1_555
C38 C37 1_555 1_555
C39 O8 1_555 1_555
H29 C39 1_555 1_555
H30 C39 1_555 1_555
C40 C39 1_555 1_555
H31 C40 1_555 1_555
H32 C40 1_555 1_555
H33 C40 1_555 1_555
C41 C32 1_555 1_555
C42 C36 1_555 1_555
C43 C33 1_555 1_555
C44 O9 1_555 1_555
H34 C44 1_555 1_555
H35 C44 1_555 1_555
H36 C44 1_555 1_555
C5 C6 1_555 1_555
C7 C8 1_555 1_555
C13 C14 1_555 1_555
C14 C15 1_555 1_555
C27 C28 1_555 1_555
C29 C30 1_555 1_555
C35 C36 1_555 1_555
C36 C37 1_555 1_555

#END
