
#######################################################################
#
#                 Cambridge Crystallographic Data Centre
#                                CCDC 
#
#######################################################################
#
# If this CIF has been generated from an entry in the Cambridge 
# Structural Database, then it will include bibliographic, chemical, 
# crystal, experimental, refinement or atomic coordinate data resulting 
# from the CCDC's data processing and validation procedures.
#
#######################################################################

data_OTIFII
_chemical_formula_moiety         'C74 Cl10,C7 H8'
_chemical_name_systematic        
'decachloro-C~1~(14049)-C74fullerene toluene solvate'
_symmetry_cell_setting           monoclinic
_symmetry_space_group_name_H-M   'P 21/n'
_symmetry_Int_Tables_number      14
_space_group_name_Hall           '-P 2yn'
loop_
_symmetry_equiv_pos_site_id
_symmetry_equiv_pos_as_xyz
1 x,y,z
2 1/2-x,1/2+y,1/2-z
3 -x,-y,-z
4 1/2+x,1/2-y,1/2+z
_cell_length_a                   10.2877(7)
_cell_length_b                   19.4374(10)
_cell_length_c                   23.9460(11)
_cell_angle_alpha                90
_cell_angle_beta                 95.177(5)
_cell_angle_gamma                90
_cell_volume                     4768.86
_exptl_crystal_colour            'dark red'
_exptl_crystal_description       block
_cell_formula_units_Z            4
loop_
_atom_site_label
_atom_site_type_symbol
_atom_site_fract_x
_atom_site_fract_y
_atom_site_fract_z
Cl1 Cl 1.00561(12) 0.75728(6) 0.17551(5)
Cl2 Cl 0.78389(14) 0.88816(7) 0.55489(5)
Cl3 Cl 0.40909(14) 0.60465(7) 0.31509(6)
Cl4 Cl 0.53375(14) 0.61631(7) 0.43394(6)
Cl5 Cl 0.62988(13) 0.73115(7) 0.09385(5)
Cl6 Cl 0.33879(13) 0.66743(7) 0.18322(6)
Cl7 Cl 1.10868(12) 0.85713(7) 0.45849(5)
Cl8 Cl 0.49980(15) 0.78664(7) 0.53298(6)
Cl9 Cl 0.29785(13) 0.71233(7) 0.45383(6)
Cl10 Cl 1.06062(12) 0.70594(6) 0.33248(6)
C1 C 0.9805(5) 0.9571(2) 0.3363(2)
C2 C 0.9909(5) 0.8873(3) 0.3514(2)
C3 C 0.9369(5) 0.9959(3) 0.3827(2)
C4 C 0.8719(5) 0.9314(3) 0.1855(2)
C5 C 0.3012(5) 0.9533(3) 0.2937(2)
C6 C 0.4655(5) 1.0679(3) 0.2689(2)
C7 C 0.3972(5) 1.0294(3) 0.2254(2)
C8 C 0.8192(6) 1.0731(2) 0.3144(2)
C9 C 0.3148(5) 0.9736(3) 0.2377(2)
C10 C 0.9716(4) 0.8365(2) 0.3108(2)
C11 C 0.9635(5) 0.8788(3) 0.4129(2)
C12 C 0.7962(5) 0.9890(3) 0.1742(2)
C13 C 0.3180(5) 0.9233(3) 0.1933(2)
C14 C 0.3936(5) 0.8049(3) 0.1812(2)
C15 C 0.2953(5) 0.8323(3) 0.2627(2)
C16 C 0.2950(5) 0.8803(3) 0.3078(2)
C17 C 0.4811(5) 0.6875(3) 0.3309(2)
C18 C 0.7177(5) 0.7106(2) 0.3143(2)
C19 C 0.9253(5) 0.7664(2) 0.3264(2)
C20 C 0.3115(5) 0.8542(3) 0.2055(2)
C21 C 0.4915(5) 0.8779(3) 0.4476(2)
C22 C 0.9558(5) 0.8555(2) 0.2546(2)
C23 C 0.8871(5) 0.8111(3) 0.2080(2)
C24 C 0.8150(5) 0.7412(2) 0.2852(2)
C25 C 0.3829(5) 0.7444(3) 0.3218(2)
C26 C 0.9136(5) 0.9493(3) 0.4267(2)
C27 C 0.8268(5) 0.8644(3) 0.1682(2)
C28 C 0.4123(5) 0.7429(3) 0.2180(2)
C29 C 0.4843(5) 0.8271(3) 0.1478(2)
C30 C 0.3730(5) 0.7848(3) 0.3679(2)
C31 C 0.6185(5) 0.7940(3) 0.1493(2)
C32 C 0.7486(5) 0.7257(2) 0.3736(2)
C33 C 0.3924(5) 0.9030(3) 0.4056(2)
C34 C 0.3461(5) 0.7664(3) 0.2690(2)
C35 C 0.6008(6) 1.0873(3) 0.2628(2)
C36 C 0.8583(5) 1.0528(3) 0.3715(2)
C37 C 0.5836(6) 1.0302(3) 0.1686(2)
C38 C 0.4549(6) 1.0124(3) 0.1741(2)
C39 C 0.5942(5) 0.9927(3) 0.4503(2)
C40 C 0.7884(6) 1.0411(3) 0.2170(2)
C41 C 0.4056(6) 0.9464(3) 0.1550(2)
C42 C 0.4289(5) 0.7508(3) 0.4206(2)
C43 C 0.5573(5) 0.7303(3) 0.2370(2)
C44 C 0.5230(6) 0.6959(3) 0.3966(2)
C45 C 0.8616(5) 0.8231(3) 0.4182(2)
C46 C 0.5931(5) 0.9230(3) 0.4669(2)
C47 C 0.6873(6) 1.0970(2) 0.3114(2)
C48 C 0.7345(5) 0.9000(3) 0.4806(2)
C49 C 0.4910(6) 1.0191(3) 0.4148(2)
C50 C 0.6575(6) 1.0661(3) 0.2136(2)
C51 C 0.3374(5) 0.8559(3) 0.3628(2)
C52 C 0.6517(5) 0.7864(3) 0.4443(2)
C53 C 0.7854(5) 0.7652(2) 0.2313(2)
C54 C 0.8570(5) 0.7689(2) 0.3800(2)
C55 C 0.9515(5) 0.9776(3) 0.2799(2)
C56 C 0.5172(6) 1.0697(3) 0.3725(2)
C57 C 0.7037(5) 0.8568(3) 0.1412(2)
C58 C 0.5153(5) 0.8022(3) 0.4594(2)
C59 C 0.6436(6) 1.0907(3) 0.3668(2)
C60 C 0.5896(5) 0.7034(2) 0.2916(2)
C61 C 0.4911(6) 0.8983(3) 0.1336(2)
C62 C 0.6542(5) 0.7596(2) 0.2060(2)
C63 C 0.6690(6) 0.9817(3) 0.1443(2)
C64 C 0.7490(6) 1.0640(3) 0.4044(2)
C65 C 0.3494(5) 0.9983(3) 0.3356(2)
C66 C 0.4285(6) 1.0563(3) 0.3236(2)
C67 C 0.7551(5) 0.8332(3) 0.4502(2)
C68 C 0.8668(5) 1.0384(2) 0.2685(2)
C69 C 0.7251(5) 1.0162(3) 0.4455(2)
C70 C 0.9477(5) 0.9253(3) 0.2394(2)
C71 C 0.3922(5) 0.9730(3) 0.3924(2)
C72 C 0.8107(5) 0.9589(3) 0.4576(2)
C73 C 0.6508(5) 0.7318(3) 0.4080(2)
C74 C 0.6250(5) 0.9162(3) 0.1289(2)
C75 C 0.3295(8) 0.9608(5) 0.0041(4)
H1 H 0.3817 0.9906 -0.0161
C76 C 0.2734(9) 0.8497(5) 0.0395(4)
H2 H 0.2878 0.8015 0.0433
C77 C 0.3584(9) 0.8919(5) 0.0066(4)
C78 C 0.1453(10) 0.9481(5) 0.0616(4)
H3 H 0.0750 0.9671 0.0796
C79 C 0.2281(9) 0.9878(5) 0.0297(4)
H4 H 0.2118 1.0358 0.0260
C80 C 0.1771(10) 0.8794(5) 0.0636(4)
H5 H 0.1248 0.8504 0.0843
C81 C 0.4684(10) 0.8641(6) -0.0188(4)
H6 H 0.4618 0.8764 -0.0587
H7 H 0.4693 0.8140 -0.0149
H8 H 0.5493 0.8832 -0.0002
loop_
_geom_bond_atom_site_label_1
_geom_bond_atom_site_label_2
_geom_bond_site_symmetry_1
_geom_bond_site_symmetry_2
Cl1 C23 1_555 1_555
Cl2 C48 1_555 1_555
Cl3 C17 1_555 1_555
Cl4 C44 1_555 1_555
Cl5 C31 1_555 1_555
Cl6 C28 1_555 1_555
Cl7 C11 1_555 1_555
Cl8 C58 1_555 1_555
Cl9 C42 1_555 1_555
Cl10 C19 1_555 1_555
C1 C2 1_555 1_555
C2 C10 1_555 1_555
C3 C1 1_555 1_555
C4 C12 1_555 1_555
C5 C9 1_555 1_555
C6 C7 1_555 1_555
C7 C9 1_555 1_555
C8 C36 1_555 1_555
C9 C13 1_555 1_555
C10 C19 1_555 1_555
C11 C2 1_555 1_555
C12 C40 1_555 1_555
C13 C20 1_555 1_555
C14 C20 1_555 1_555
C15 C16 1_555 1_555
C16 C5 1_555 1_555
C17 C25 1_555 1_555
C18 C24 1_555 1_555
C19 C24 1_555 1_555
C20 C15 1_555 1_555
C21 C33 1_555 1_555
C22 C10 1_555 1_555
C23 C22 1_555 1_555
C24 C53 1_555 1_555
C25 C30 1_555 1_555
C26 C3 1_555 1_555
C27 C4 1_555 1_555
C28 C14 1_555 1_555
C29 C14 1_555 1_555
C30 C42 1_555 1_555
C31 C29 1_555 1_555
C32 C18 1_555 1_555
C33 C51 1_555 1_555
C34 C15 1_555 1_555
C35 C6 1_555 1_555
C36 C3 1_555 1_555
C37 C38 1_555 1_555
C38 C7 1_555 1_555
C39 C46 1_555 1_555
C40 C50 1_555 1_555
C41 C13 1_555 1_555
C42 C44 1_555 1_555
C43 C28 1_555 1_555
C44 C17 1_555 1_555
C45 C11 1_555 1_555
C46 C21 1_555 1_555
C47 C8 1_555 1_555
C48 C46 1_555 1_555
C49 C39 1_555 1_555
C50 C35 1_555 1_555
C51 C16 1_555 1_555
C52 C58 1_555 1_555
C53 C23 1_555 1_555
C54 C19 1_555 1_555
C55 C1 1_555 1_555
C56 C49 1_555 1_555
C57 C27 1_555 1_555
C58 C21 1_555 1_555
C59 C47 1_555 1_555
C60 C17 1_555 1_555
C61 C29 1_555 1_555
C62 C31 1_555 1_555
C63 C12 1_555 1_555
C64 C36 1_555 1_555
C65 C5 1_555 1_555
C66 C6 1_555 1_555
C67 C45 1_555 1_555
C68 C8 1_555 1_555
C69 C39 1_555 1_555
C70 C4 1_555 1_555
C71 C33 1_555 1_555
C72 C26 1_555 1_555
C73 C32 1_555 1_555
C74 C57 1_555 1_555
C75 H1 1_555 1_555
C76 H2 1_555 1_555
C77 C75 1_555 1_555
C78 H3 1_555 1_555
C79 C75 1_555 1_555
H4 C79 1_555 1_555
C80 C76 1_555 1_555
H5 C80 1_555 1_555
C81 C77 1_555 1_555
H6 C81 1_555 1_555
H7 C81 1_555 1_555
H8 C81 1_555 1_555
C11 C26 1_555 1_555
C18 C60 1_555 1_555
C22 C70 1_555 1_555
C23 C27 1_555 1_555
C25 C34 1_555 1_555
C28 C34 1_555 1_555
C30 C51 1_555 1_555
C31 C57 1_555 1_555
C32 C54 1_555 1_555
C35 C47 1_555 1_555
C37 C50 1_555 1_555
C37 C63 1_555 1_555
C38 C41 1_555 1_555
C40 C68 1_555 1_555
C41 C61 1_555 1_555
C42 C58 1_555 1_555
C43 C60 1_555 1_555
C43 C62 1_555 1_555
C44 C73 1_555 1_555
C45 C54 1_555 1_555
C48 C67 1_555 1_555
C48 C72 1_555 1_555
C49 C71 1_555 1_555
C52 C67 1_555 1_555
C52 C73 1_555 1_555
C53 C62 1_555 1_555
C55 C68 1_555 1_555
C55 C70 1_555 1_555
C56 C59 1_555 1_555
C56 C66 1_555 1_555
C59 C64 1_555 1_555
C61 C74 1_555 1_555
C63 C74 1_555 1_555
C64 C69 1_555 1_555
C65 C66 1_555 1_555
C65 C71 1_555 1_555
C69 C72 1_555 1_555
C76 C77 1_555 1_555
C78 C79 1_555 1_555
C78 C80 1_555 1_555

#END
