
#######################################################################
#
#                 Cambridge Crystallographic Data Centre
#                                CCDC 
#
#######################################################################
#
# If this CIF has been generated from an entry in the Cambridge 
# Structural Database, then it will include bibliographic, chemical, 
# crystal, experimental, refinement or atomic coordinate data resulting 
# from the CCDC's data processing and validation procedures.
#
#######################################################################

data_OTIGII
_chemical_formula_moiety         'C13 H19 N1 O5 S1'
_chemical_name_systematic        
4,4-Dimethoxy-1-(phenylsulfonyl)piperidin-3-ol
_symmetry_cell_setting           triclinic
_symmetry_space_group_name_H-M   'P -1'
_symmetry_Int_Tables_number      2
_space_group_name_Hall           '-P 1'
loop_
_symmetry_equiv_pos_site_id
_symmetry_equiv_pos_as_xyz
1 x,y,z
2 -x,-y,-z
_cell_length_a                   6.7112(2)
_cell_length_b                   10.0918(2)
_cell_length_c                   11.1626(3)
_cell_angle_alpha                79.9350(10)
_cell_angle_beta                 89.3710(10)
_cell_angle_gamma                75.6020(10)
_cell_volume                     720.588
_exptl_crystal_colour            colorless
_cell_formula_units_Z            2
loop_
_atom_site_label
_atom_site_type_symbol
_atom_site_fract_x
_atom_site_fract_y
_atom_site_fract_z
S1 S 0.28641(8) 0.67861(5) 0.05979(4)
O1 O 0.2739(2) 0.37645(15) 0.46115(14)
O2 O 0.4697(3) 0.72602(17) 0.04305(15)
O3 O 0.7228(2) 0.3429(2) 0.28501(15)
H1 H 0.6974 0.3598 0.2114
O4 O 0.4895(2) 0.17464(14) 0.41268(14)
O5 O 0.1957(3) 0.64051(18) -0.04017(13)
N1 N 0.3377(3) 0.54126(17) 0.16727(15)
C1 C -0.1981(5) 1.0024(3) 0.2054(3)
H2 H -0.2983 1.0679 0.2365
C2 C 0.0054(5) 0.9900(3) 0.2302(3)
H3 H 0.0434 1.0473 0.2777
C3 C 0.1543(4) 0.8922(2) 0.1846(2)
H4 H 0.2929 0.8837 0.2012
C4 C 0.0967(3) 0.8070(2) 0.11424(18)
C5 C 0.1756(3) 0.4671(2) 0.1935(2)
H5 H 0.1053 0.4658 0.1183
H6 H 0.0754 0.5137 0.2455
C6 C 0.2737(4) 0.3197(2) 0.2564(2)
H7 H 0.3643 0.2715 0.2009
H8 H 0.1670 0.2709 0.2776
C7 C 0.3959(3) 0.3169(2) 0.37095(18)
C8 C 0.1172(5) 0.3108(3) 0.5085(3)
H9 H 0.0127 0.3244 0.4463
H10 H 0.0572 0.3507 0.5766
H11 H 0.1762 0.2130 0.5344
C9 C 0.4453(3) 0.5511(2) 0.27863(19)
H12 H 0.3473 0.5987 0.3312
H13 H 0.5467 0.6043 0.2574
C10 C 0.5507(3) 0.4065(2) 0.34505(18)
H14 H 0.6007 0.4171 0.4241
C11 C 0.6249(4) 0.1429(3) 0.5160(2)
H15 H 0.7536 0.1629 0.4921
H16 H 0.6478 0.0461 0.5506
H17 H 0.5649 0.1981 0.5753
C12 C -0.1084(4) 0.8195(2) 0.0895(2)
H18 H -0.1476 0.7619 0.0427
C13 C -0.2552(4) 0.9189(3) 0.1350(3)
H19 H -0.3940 0.9291 0.1177
loop_
_geom_bond_atom_site_label_1
_geom_bond_atom_site_label_2
_geom_bond_site_symmetry_1
_geom_bond_site_symmetry_2
S1 O2 1_555 1_555
O1 C7 1_555 1_555
O3 H1 1_555 1_555
O4 C7 1_555 1_555
O5 S1 1_555 1_555
N1 S1 1_555 1_555
C1 H2 1_555 1_555
C2 C1 1_555 1_555
H3 C2 1_555 1_555
C3 C2 1_555 1_555
H4 C3 1_555 1_555
C4 S1 1_555 1_555
C5 N1 1_555 1_555
H5 C5 1_555 1_555
H6 C5 1_555 1_555
C6 C5 1_555 1_555
H7 C6 1_555 1_555
H8 C6 1_555 1_555
C7 C6 1_555 1_555
C8 O1 1_555 1_555
H9 C8 1_555 1_555
H10 C8 1_555 1_555
H11 C8 1_555 1_555
C9 N1 1_555 1_555
H12 C9 1_555 1_555
H13 C9 1_555 1_555
C10 O3 1_555 1_555
H14 C10 1_555 1_555
C11 O4 1_555 1_555
H15 C11 1_555 1_555
H16 C11 1_555 1_555
H17 C11 1_555 1_555
C12 C4 1_555 1_555
H18 C12 1_555 1_555
C13 C1 1_555 1_555
H19 C13 1_555 1_555
C3 C4 1_555 1_555
C7 C10 1_555 1_555
C9 C10 1_555 1_555
C12 C13 1_555 1_555

#END
