
#######################################################################
#
#                 Cambridge Crystallographic Data Centre
#                                CCDC 
#
#######################################################################
#
# If this CIF has been generated from an entry in the Cambridge 
# Structural Database, then it will include bibliographic, chemical, 
# crystal, experimental, refinement or atomic coordinate data resulting 
# from the CCDC's data processing and validation procedures.
#
#######################################################################

data_OTIGUU
_chemical_formula_moiety         'C15 H16 Br1 N1 O4 S1'
_chemical_name_systematic        
'Ethyl bromo(1-(phenylsulfonyl)-2,3-dihydropyridin-4(1H)-ylidene)acetate'
_symmetry_cell_setting           monoclinic
_symmetry_space_group_name_H-M   'P 21/c'
_symmetry_Int_Tables_number      14
_space_group_name_Hall           '-P 2ybc'
loop_
_symmetry_equiv_pos_site_id
_symmetry_equiv_pos_as_xyz
1 x,y,z
2 -x,1/2+y,1/2-z
3 -x,-y,-z
4 x,1/2-y,1/2+z
_cell_length_a                   10.0231(10)
_cell_length_b                   5.4646(6)
_cell_length_c                   28.654(3)
_cell_angle_alpha                90
_cell_angle_beta                 91.788(2)
_cell_angle_gamma                90
_cell_volume                     1568.68
_exptl_crystal_colour            yellow
_exptl_crystal_description       tabular
_cell_formula_units_Z            4
loop_
_atom_site_label
_atom_site_type_symbol
_atom_site_fract_x
_atom_site_fract_y
_atom_site_fract_z
S1 S 1.13128(10) 0.8447(2) 0.82557(4)
O1 O 0.7070(5) -0.0866(9) 0.98216(13)
O2 O 1.0625(3) 0.9242(7) 0.78369(11)
O3 O 1.1851(3) 1.0173(7) 0.85855(11)
O4 O 0.8263(4) 0.2425(9) 0.99929(12)
N1 N 1.0245(3) 0.6761(8) 0.85403(12)
C1 C 1.4520(5) 0.3009(10) 0.79030(18)
H1 H 1.5179 0.1822 0.7836
C2 C 1.4717(4) 0.4587(10) 0.82757(18)
H2 H 1.5517 0.4494 0.8461
C3 C 1.3753(4) 0.6307(10) 0.83803(16)
H3 H 1.3882 0.7393 0.8637
C4 C 1.2596(4) 0.6408(9) 0.81023(15)
C5 C 0.9356(4) 0.5247(10) 0.82868(15)
H4 H 0.9264 0.5461 0.7958
C6 C 0.8628(4) 0.3500(10) 0.84916(15)
C7 C 0.8649(4) 0.3117(9) 0.89959(15)
C8 C 0.7877(4) 0.1418(9) 0.91956(16)
C9 C 0.7790(5) 0.1057(10) 0.97061(18)
C10 C 1.3362(5) 0.3153(11) 0.76270(18)
H5 H 1.3238 0.2083 0.7368
C11 C 1.2383(4) 0.4848(10) 0.77263(16)
H6 H 1.1583 0.4939 0.7541
C12 C 0.9529(5) 0.4864(10) 0.92695(15)
H7 H 0.9860 0.4047 0.9559
H8 H 0.8993 0.6298 0.9361
C13 C 1.0711(5) 0.5739(10) 0.89979(15)
H9 H 1.1202 0.7011 0.9179
H10 H 1.1326 0.4355 0.8947
C14 C 0.6818(11) -0.1033(17) 1.0336(3)
H11 H 0.7670 -0.1203 1.0517
H12 H 0.6353 0.0453 1.0443
C15 C 0.5966(9) -0.3240(19) 1.0397(3)
H13 H 0.5107 -0.3003 1.0230
H14 H 0.5815 -0.3491 1.0729
H15 H 0.6416 -0.4677 1.0270
Br1 Br 0.67471(5) -0.06714(11) 0.881685(17)
H16 H 0.8068 0.2454 0.8297
Br2? Br 0.7620(8) 0.1266(17) 0.8198(3)
C16? C 0.732(2) -0.191(5) 1.0276(7)
C17? C 0.604(2) -0.128(4) 1.0483(8)
H17? H 0.8086 -0.1133 1.0443
H18? H 0.7460 -0.3706 1.0261
H19? H 0.5775 0.0372 1.0387
H20? H 0.6137 -0.1351 1.0825
H21? H 0.5353 -0.2452 1.0377
H22? H 0.7349 0.0372 0.8993
loop_
_geom_bond_atom_site_label_1
_geom_bond_atom_site_label_2
_geom_bond_site_symmetry_1
_geom_bond_site_symmetry_2
S1 O2 1_555 1_555
O1 C9 1_555 1_555
O3 S1 1_555 1_555
O4 C9 1_555 1_555
N1 S1 1_555 1_555
C1 H1 1_555 1_555
C2 C1 1_555 1_555
H2 C2 1_555 1_555
C3 C2 1_555 1_555
H3 C3 1_555 1_555
C4 S1 1_555 1_555
C5 N1 1_555 1_555
H4 C5 1_555 1_555
C6 C5 1_555 1_555
C7 C6 1_555 1_555
C8 C7 1_555 1_555
C9 C8 1_555 1_555
C10 C1 1_555 1_555
H5 C10 1_555 1_555
C11 C4 1_555 1_555
H6 C11 1_555 1_555
C12 C7 1_555 1_555
H7 C12 1_555 1_555
H8 C12 1_555 1_555
C13 N1 1_555 1_555
H9 C13 1_555 1_555
H10 C13 1_555 1_555
C14 O1 1_555 1_555
H11 C14 1_555 1_555
H12 C14 1_555 1_555
C15 C14 1_555 1_555
H13 C15 1_555 1_555
H14 C15 1_555 1_555
H15 C15 1_555 1_555
Br1 C8 1_555 1_555
H16 C6 1_555 1_555
C3 C4 1_555 1_555
C10 C11 1_555 1_555
C12 C13 1_555 1_555

#END
