
#######################################################################
#
#                 Cambridge Crystallographic Data Centre
#                                CCDC 
#
#######################################################################
#
# If this CIF has been generated from an entry in the Cambridge 
# Structural Database, then it will include bibliographic, chemical, 
# crystal, experimental, refinement or atomic coordinate data resulting 
# from the CCDC's data processing and validation procedures.
#
#######################################################################

data_OTIGOO
_chemical_formula_moiety         'C15 H17 N1 O4 S1'
_chemical_name_systematic        
'Ethyl (1-(phenylsulfonyl)-2,3-dihydropyridin-4(1H)-ylidene)acetate'
_symmetry_cell_setting           triclinic
_symmetry_space_group_name_H-M   'P -1'
_symmetry_Int_Tables_number      2
_space_group_name_Hall           '-P 1'
loop_
_symmetry_equiv_pos_site_id
_symmetry_equiv_pos_as_xyz
1 x,y,z
2 -x,-y,-z
_cell_length_a                   8.1105(3)
_cell_length_b                   8.1143(3)
_cell_length_c                   12.6883(4)
_cell_angle_alpha                82.176(2)
_cell_angle_beta                 76.3800(10)
_cell_angle_gamma                64.2050(10)
_cell_volume                     730.142
_exptl_crystal_colour            colorless
_exptl_crystal_description       tabular
_cell_formula_units_Z            2
loop_
_atom_site_label
_atom_site_type_symbol
_atom_site_fract_x
_atom_site_fract_y
_atom_site_fract_z
S1 S 0.70397(5) 0.31812(5) 0.15271(3)
O1 O -0.17372(14) 0.22032(15) 0.56664(8)
O2 O 0.09842(16) 0.17826(17) 0.60640(9)
O3 O 0.65503(15) 0.46463(14) 0.07273(8)
O4 O 0.84093(15) 0.29428(16) 0.21367(9)
N1 N 0.50857(17) 0.34983(16) 0.24354(9)
C1 C 0.8206(2) -0.2125(2) 0.01274(14)
H1 H 0.8400 -0.3241 -0.0147
C2 C 0.8804(2) -0.2154(2) 0.10630(14)
H2 H 0.9405 -0.3289 0.1430
C3 C 0.8533(2) -0.0533(2) 0.14739(13)
H3 H 0.8961 -0.0550 0.2113
C4 C 0.76221(19) 0.11148(19) 0.09317(12)
C5 C 0.5297(2) 0.2307(2) 0.34329(12)
H4 H 0.6241 0.2391 0.3769
H5 H 0.5744 0.1018 0.3244
C6 C 0.3464(2) 0.2867(2) 0.42337(12)
H6 H 0.3606 0.1951 0.4847
H7 H 0.3151 0.4059 0.4528
C7 C 0.1878(2) 0.30312(19) 0.37432(11)
C8 C 0.0363(2) 0.2764(2) 0.42675(12)
H8 H -0.0549 0.2963 0.3856
C9 C -0.0020(2) 0.2194(2) 0.54144(12)
C10 C -0.2379(2) 0.1759(2) 0.67874(12)
H9 H -0.2320 0.2574 0.7278
H10 H -0.1594 0.0474 0.6983
C11 C -0.4365(2) 0.2033(2) 0.68809(14)
H11 H -0.5118 0.3302 0.6670
H12 H -0.4874 0.1772 0.7633
H13 H -0.4398 0.1201 0.6401
C12 C 0.7009(2) 0.1161(2) -0.00118(12)
H14 H 0.6384 0.2295 -0.0374
C13 C 0.7325(2) -0.0480(2) -0.04149(13)
H15 H 0.6936 -0.0475 -0.1066
C14 C 0.2031(2) 0.3605(2) 0.26016(12)
H16 H 0.1019 0.3838 0.2263
C15 C 0.3519(2) 0.3821(2) 0.20047(12)
H17 H 0.3521 0.4205 0.1263
loop_
_geom_bond_atom_site_label_1
_geom_bond_atom_site_label_2
_geom_bond_site_symmetry_1
_geom_bond_site_symmetry_2
S1 O3 1_555 1_555
O1 C9 1_555 1_555
O2 C9 1_555 1_555
O4 S1 1_555 1_555
N1 S1 1_555 1_555
C1 H1 1_555 1_555
C2 C1 1_555 1_555
H2 C2 1_555 1_555
C3 C2 1_555 1_555
H3 C3 1_555 1_555
C4 S1 1_555 1_555
C5 N1 1_555 1_555
H4 C5 1_555 1_555
H5 C5 1_555 1_555
C6 C5 1_555 1_555
H6 C6 1_555 1_555
H7 C6 1_555 1_555
C7 C6 1_555 1_555
C8 C7 1_555 1_555
H8 C8 1_555 1_555
C9 C8 1_555 1_555
C10 O1 1_555 1_555
H9 C10 1_555 1_555
H10 C10 1_555 1_555
C11 C10 1_555 1_555
H11 C11 1_555 1_555
H12 C11 1_555 1_555
H13 C11 1_555 1_555
C12 C4 1_555 1_555
H14 C12 1_555 1_555
C13 C1 1_555 1_555
H15 C13 1_555 1_555
C14 C7 1_555 1_555
H16 C14 1_555 1_555
C15 N1 1_555 1_555
H17 C15 1_555 1_555
C3 C4 1_555 1_555
C12 C13 1_555 1_555
C14 C15 1_555 1_555

#END
