
#######################################################################
#
#                 Cambridge Crystallographic Data Centre
#                                CCDC 
#
#######################################################################
#
# If this CIF has been generated from an entry in the Cambridge 
# Structural Database, then it will include bibliographic, chemical, 
# crystal, experimental, refinement or atomic coordinate data resulting 
# from the CCDC's data processing and validation procedures.
#
#######################################################################

data_OTIMIP
_chemical_formula_moiety         'C24 H17 N1 O1'
_chemical_name_systematic        
10b-methyl-11-(phenylethynyl)-10b,11-dihydro-6H-isoindolo[2,1-a]indol-6-one
_symmetry_cell_setting           orthorhombic
_symmetry_space_group_name_H-M   'P n a 21'
_symmetry_Int_Tables_number      33
_space_group_name_Hall           'P 2c -2n'
loop_
_symmetry_equiv_pos_site_id
_symmetry_equiv_pos_as_xyz
1 x,y,z
2 -x,-y,1/2+z
3 1/2-x,1/2+y,1/2+z
4 1/2+x,1/2-y,z
_cell_length_a                   15.3059(8)
_cell_length_b                   12.1881(6)
_cell_length_c                   9.6280(6)
_cell_angle_alpha                90
_cell_angle_beta                 90
_cell_angle_gamma                90
_cell_volume                     1796.1
_exptl_crystal_colour            'light brown'
_exptl_crystal_description       block
_cell_formula_units_Z            4
loop_
_atom_site_label
_atom_site_type_symbol
_atom_site_fract_x
_atom_site_fract_y
_atom_site_fract_z
O1 O -0.15064(18) -0.3127(2) -0.3607(3)
N1 N -0.10148(16) -0.3674(2) -0.5775(3)
C1 C -0.0093(2) -0.3557(3) -0.5709(4)
C2 C 0.0381(2) -0.2782(3) -0.4973(4)
H1 H 0.0107 -0.2239 -0.4452
C3 C 0.1290(2) -0.2856(3) -0.5050(5)
H2 H 0.1630 -0.2353 -0.4564
C4 C 0.1696(2) -0.3654(3) -0.5827(5)
H3 H 0.2303 -0.3671 -0.5877
C5 C 0.1208(2) -0.4436(3) -0.6537(4)
H4 H 0.1482 -0.4987 -0.7044
C6 C -0.1501(3) -0.3924(3) -0.8198(4)
H5 H -0.1988 -0.3446 -0.8025
H6 H -0.1662 -0.4460 -0.8883
H7 H -0.1016 -0.3501 -0.8533
C7 C 0.0314(2) -0.4378(2) -0.6472(4)
C8 C -0.0368(2) -0.5159(2) -0.7061(4)
H8 H -0.0264 -0.5261 -0.8057
C9 C -0.1242(2) -0.4506(2) -0.6847(4)
C10 C -0.1999(2) -0.5091(2) -0.6174(4)
C11 C -0.2479(2) -0.5993(3) -0.6620(4)
H9 H -0.2350 -0.6334 -0.7460
C12 C -0.3152(2) -0.6372(3) -0.5794(5)
H10 H -0.3466 -0.6987 -0.6073
C13 C -0.3366(2) -0.5860(3) -0.4564(5)
H11 H -0.3827 -0.6126 -0.4030
C14 C -0.2899(2) -0.4948(3) -0.4115(4)
H12 H -0.3042 -0.4595 -0.3290
C15 C -0.2216(2) -0.4582(2) -0.4929(4)
C16 C -0.1571(2) -0.3698(3) -0.4655(4)
C17 C -0.0372(2) -0.6227(3) -0.6371(4)
C18 C -0.0466(2) -0.7099(3) -0.5822(4)
C19 C -0.0614(2) -0.8158(3) -0.5205(4)
C20 C -0.0801(2) -0.8271(3) -0.3805(4)
H13 H -0.0813 -0.7654 -0.3237
C21 C -0.0970(2) -0.9288(3) -0.3248(5)
H14 H -0.1094 -0.9357 -0.2306
C22 C -0.0955(2) -1.0203(3) -0.4084(5)
H15 H -0.1078 -1.0888 -0.3708
C23 C -0.0763(3) -1.0111(3) -0.5459(4)
H16 H -0.0746 -1.0735 -0.6015
C24 C -0.0592(2) -0.9090(3) -0.6035(4)
H17 H -0.0462 -0.9029 -0.6976
loop_
_geom_bond_atom_site_label_1
_geom_bond_atom_site_label_2
_geom_bond_site_symmetry_1
_geom_bond_site_symmetry_2
O1 C16 1_555 1_555
N1 C1 1_555 1_555
C1 C2 1_555 1_555
C2 H1 1_555 1_555
C3 C2 1_555 1_555
H2 C3 1_555 1_555
C4 C3 1_555 1_555
H3 C4 1_555 1_555
C5 C4 1_555 1_555
H4 C5 1_555 1_555
C6 H5 1_555 1_555
H6 C6 1_555 1_555
H7 C6 1_555 1_555
C7 C1 1_555 1_555
C8 C7 1_555 1_555
H8 C8 1_555 1_555
C9 N1 1_555 1_555
C10 C9 1_555 1_555
C11 C10 1_555 1_555
H9 C11 1_555 1_555
C12 C11 1_555 1_555
H10 C12 1_555 1_555
C13 C12 1_555 1_555
H11 C13 1_555 1_555
C14 C13 1_555 1_555
H12 C14 1_555 1_555
C15 C10 1_555 1_555
C16 N1 1_555 1_555
C17 C8 1_555 1_555
C18 C17 1_555 1_555
C19 C18 1_555 1_555
C20 C19 1_555 1_555
H13 C20 1_555 1_555
C21 C20 1_555 1_555
H14 C21 1_555 1_555
C22 C21 1_555 1_555
H15 C22 1_555 1_555
C23 C22 1_555 1_555
H16 C23 1_555 1_555
C24 C19 1_555 1_555
H17 C24 1_555 1_555
C5 C7 1_555 1_555
C6 C9 1_555 1_555
C8 C9 1_555 1_555
C14 C15 1_555 1_555
C15 C16 1_555 1_555
C23 C24 1_555 1_555

#END
