
#######################################################################
#
#                 Cambridge Crystallographic Data Centre
#                                CCDC 
#
#######################################################################
#
# If this CIF has been generated from an entry in the Cambridge 
# Structural Database, then it will include bibliographic, chemical, 
# crystal, experimental, refinement or atomic coordinate data resulting 
# from the CCDC's data processing and validation procedures.
#
#######################################################################

data_OTITIW01
_chemical_formula_moiety         'C30 H21 N2 O1 P1'
_chemical_name_systematic        9,9'-(phenylphosphoryl)bis(9H-carbazole)
_symmetry_cell_setting           triclinic
_symmetry_space_group_name_H-M   'P -1'
_symmetry_Int_Tables_number      2
_space_group_name_Hall           '-P 1'
loop_
_symmetry_equiv_pos_site_id
_symmetry_equiv_pos_as_xyz
1 x,y,z
2 -x,-y,-z
_cell_length_a                   9.7137(11)
_cell_length_b                   16.0797(15)
_cell_length_c                   16.7860(19)
_cell_angle_alpha                118.304(8)
_cell_angle_beta                 102.154(14)
_cell_angle_gamma                94.713(11)
_cell_volume                     2205.64
_exptl_crystal_colour            colorless
_exptl_crystal_description       Prism
_cell_formula_units_Z            4
_exptl_crystal_recrystallization_method Sublimation
_exptl_crystal_preparation       ', Luminescent'
loop_
_atom_site_label
_atom_site_type_symbol
_atom_site_fract_x
_atom_site_fract_y
_atom_site_fract_z
P1 P 0.14155(4) 0.34554(3) 0.10943(3)
O1 O 0.01209(12) 0.34478(8) 0.14089(8)
N1 N 0.11569(13) 0.36477(9) 0.01777(9)
N2 N 0.18502(13) 0.23560(9) 0.06626(9)
C1 C 0.29408(16) 0.43183(11) 0.20077(10)
C2 C 0.43495(18) 0.41822(12) 0.20639(11)
H1 H 0.452945 0.359906 0.160442
C3 C 0.54831(19) 0.48927(13) 0.27854(12)
H2 H 0.644218 0.479849 0.282249
C4 C 0.5222(2) 0.57430(13) 0.34552(12)
H3 H 0.600578 0.623993 0.394003
C5 C 0.3828(2) 0.58710(12) 0.34209(12)
H4 H 0.365447 0.644883 0.389243
C6 C 0.26795(18) 0.51619(11) 0.27030(11)
H5 H 0.172018 0.524930 0.268423
C7 C 0.18654(16) 0.43655(11) 0.00406(11)
C8 C 0.31261(17) 0.50633(12) 0.05871(12)
H6 H 0.367403 0.512672 0.116054
C9 C 0.35577(18) 0.56644(12) 0.02667(13)
H7 H 0.442091 0.614422 0.062984
C10 C 0.27718(19) 0.55901(12) -0.05676(13)
H8 H 0.309378 0.602035 -0.076117
C11 C 0.15267(18) 0.48922(12) -0.11129(12)
H9 H 0.098460 0.483452 -0.168494
C12 C 0.10745(16) 0.42714(11) -0.08112(11)
C13 C -0.01610(16) 0.34870(11) -0.12179(11)
C14 C -0.12979(18) 0.30868(12) -0.20413(12)
H10 H -0.134581 0.332648 -0.246405
C15 C -0.23527(18) 0.23359(13) -0.22313(12)
H11 H -0.314119 0.206035 -0.278592
C16 C -0.22694(17) 0.19790(12) -0.16152(12)
H12 H -0.300006 0.145501 -0.176505
C17 C -0.11529(17) 0.23651(11) -0.07902(11)
H13 H -0.111065 0.212325 -0.036943
C18 C -0.00978(16) 0.31220(11) -0.06061(11)
C19 C 0.14639(16) 0.16775(11) 0.09390(10)
C20 C 0.06530(17) 0.17385(12) 0.15482(11)
H14 H 0.025184 0.228741 0.184891
C21 C 0.04529(18) 0.09689(12) 0.16997(11)
H15 H -0.009521 0.099467 0.211452
C22 C 0.10303(18) 0.01567(12) 0.12626(12)
H16 H 0.087267 -0.035890 0.138287
C23 C 0.18319(17) 0.00989(11) 0.06545(11)
H17 H 0.222408 -0.045410 0.035214
C24 C 0.20531(15) 0.08670(11) 0.04940(10)
C25 C 0.28716(15) 0.10510(11) -0.00549(10)
C26 C 0.37253(17) 0.05220(12) -0.05994(11)
H18 H 0.377526 -0.011040 -0.071139
C27 C 0.44978(17) 0.09360(12) -0.09733(11)
H19 H 0.509501 0.058867 -0.133846
C28 C 0.44073(17) 0.18569(12) -0.08191(11)
H20 H 0.496634 0.213443 -0.106853
C29 C 0.35216(17) 0.23807(11) -0.03103(10)
H21 H 0.344296 0.300058 -0.022594
C30 C 0.27530(16) 0.19683(11) 0.00720(10)
P2 P 0.02658(4) 0.70277(3) 0.48275(3)
O2 O 0.03703(12) 0.63537(8) 0.38854(8)
N3 N -0.01636(13) 0.80501(9) 0.49038(9)
N4 N 0.18551(13) 0.74319(9) 0.56593(9)
C31 C -0.10538(16) 0.65543(11) 0.51859(11)
C32 C -0.17500(17) 0.71526(12) 0.58182(11)
H22 H -0.151800 0.783200 0.607446
C33 C -0.27787(18) 0.67559(13) 0.60723(12)
H23 H -0.325202 0.716328 0.650237
C34 C -0.31161(18) 0.57673(13) 0.56996(13)
H24 H -0.381068 0.549808 0.588266
C35 C -0.24478(19) 0.51672(13) 0.50612(13)
H25 H -0.269126 0.448788 0.480352
C36 C -0.14243(17) 0.55553(12) 0.47972(12)
H26 H -0.097561 0.514228 0.435257
C37 C -0.13184(16) 0.80007(12) 0.41857(11)
C38 C -0.19538(18) 0.72418(13) 0.32707(12)
H27 H -0.163477 0.664950 0.303280
C39 C -0.30799(19) 0.73899(15) 0.27186(13)
H28 H -0.354881 0.688284 0.209204
C40 C -0.35347(18) 0.82565(15) 0.30585(13)
H29 H -0.430832 0.833196 0.266243
C41 C -0.28815(17) 0.90132(14) 0.39642(12)
H30 H -0.318796 0.960999 0.419173
C42 C -0.17633(16) 0.88810(12) 0.45360(11)
C43 C -0.08875(15) 0.95041(11) 0.54983(11)
C44 C -0.08586(17) 1.04482(12) 0.61707(11)
H31 H -0.148908 1.080676 0.602002
C45 C 0.00960(17) 1.08582(11) 0.70590(11)
H32 H 0.012213 1.150171 0.752446
C46 C 0.10211(16) 1.03304(11) 0.72747(11)
H33 H 0.166511 1.061993 0.789154
C47 C 0.10268(16) 0.93944(11) 0.66132(10)
H34 H 0.167040 0.904409 0.676684
C48 C 0.00654(15) 0.89816(11) 0.57185(10)
C49 C 0.30434(16) 0.79713(11) 0.56145(11)
C50 C 0.31456(18) 0.81807(12) 0.49103(12)
H35 H 0.236662 0.794711 0.435715
C51 C 0.44263(18) 0.87421(13) 0.50491(13)
H36 H 0.452974 0.889327 0.457923
C52 C 0.55687(19) 0.90915(13) 0.58614(13)
H37 H 0.643161 0.948066 0.593824
C53 C 0.54648(18) 0.88801(12) 0.65565(13)
H38 H 0.624736 0.911750 0.710853
C54 C 0.41832(16) 0.83094(11) 0.64303(11)
C55 C 0.37185(16) 0.79648(11) 0.70026(11)
C56 C 0.44114(17) 0.80835(12) 0.78778(11)
H39 H 0.537078 0.844754 0.820426
C57 C 0.36792(18) 0.76627(12) 0.82619(12)
H40 H 0.413112 0.775056 0.886423
C58 C 0.22822(17) 0.71099(12) 0.77737(12)
H41 H 0.180662 0.681345 0.804358
C59 C 0.15720(17) 0.69835(11) 0.69030(11)
H42 H 0.061941 0.660777 0.657526
C60 C 0.22989(16) 0.74246(11) 0.65240(10)
loop_
_geom_bond_atom_site_label_1
_geom_bond_atom_site_label_2
_geom_bond_site_symmetry_1
_geom_bond_site_symmetry_2
P1 O1 1_555 1_555
N1 P1 1_555 1_555
N2 P1 1_555 1_555
C1 P1 1_555 1_555
C2 C1 1_555 1_555
H1 C2 1_555 1_555
C3 C2 1_555 1_555
H2 C3 1_555 1_555
C4 C3 1_555 1_555
H3 C4 1_555 1_555
C5 C4 1_555 1_555
H4 C5 1_555 1_555
C6 C1 1_555 1_555
H5 C6 1_555 1_555
C7 N1 1_555 1_555
C8 C7 1_555 1_555
H6 C8 1_555 1_555
C9 C8 1_555 1_555
H7 C9 1_555 1_555
C10 C9 1_555 1_555
H8 C10 1_555 1_555
C11 C10 1_555 1_555
H9 C11 1_555 1_555
C12 C7 1_555 1_555
C13 C12 1_555 1_555
C14 C13 1_555 1_555
H10 C14 1_555 1_555
C15 C14 1_555 1_555
H11 C15 1_555 1_555
C16 C15 1_555 1_555
H12 C16 1_555 1_555
C17 C16 1_555 1_555
H13 C17 1_555 1_555
C18 N1 1_555 1_555
C19 N2 1_555 1_555
C20 C19 1_555 1_555
H14 C20 1_555 1_555
C21 C20 1_555 1_555
H15 C21 1_555 1_555
C22 C21 1_555 1_555
H16 C22 1_555 1_555
C23 C22 1_555 1_555
H17 C23 1_555 1_555
C24 C19 1_555 1_555
C25 C24 1_555 1_555
C26 C25 1_555 1_555
H18 C26 1_555 1_555
C27 C26 1_555 1_555
H19 C27 1_555 1_555
C28 C27 1_555 1_555
H20 C28 1_555 1_555
C29 C28 1_555 1_555
H21 C29 1_555 1_555
C30 N2 1_555 1_555
P2 O2 1_555 1_555
N3 P2 1_555 1_555
N4 P2 1_555 1_555
C31 P2 1_555 1_555
C32 C31 1_555 1_555
H22 C32 1_555 1_555
C33 C32 1_555 1_555
H23 C33 1_555 1_555
C34 C33 1_555 1_555
H24 C34 1_555 1_555
C35 C34 1_555 1_555
H25 C35 1_555 1_555
C36 C31 1_555 1_555
H26 C36 1_555 1_555
C37 N3 1_555 1_555
C38 C37 1_555 1_555
H27 C38 1_555 1_555
C39 C38 1_555 1_555
H28 C39 1_555 1_555
C40 C39 1_555 1_555
H29 C40 1_555 1_555
C41 C40 1_555 1_555
H30 C41 1_555 1_555
C42 C37 1_555 1_555
C43 C42 1_555 1_555
C44 C43 1_555 1_555
H31 C44 1_555 1_555
C45 C44 1_555 1_555
H32 C45 1_555 1_555
C46 C45 1_555 1_555
H33 C46 1_555 1_555
C47 C46 1_555 1_555
H34 C47 1_555 1_555
C48 N3 1_555 1_555
C49 N4 1_555 1_555
C50 C49 1_555 1_555
H35 C50 1_555 1_555
C51 C50 1_555 1_555
H36 C51 1_555 1_555
C52 C51 1_555 1_555
H37 C52 1_555 1_555
C53 C52 1_555 1_555
H38 C53 1_555 1_555
C54 C49 1_555 1_555
C55 C54 1_555 1_555
C56 C55 1_555 1_555
H39 C56 1_555 1_555
C57 C56 1_555 1_555
H40 C57 1_555 1_555
C58 C57 1_555 1_555
H41 C58 1_555 1_555
C59 C58 1_555 1_555
H42 C59 1_555 1_555
C60 N4 1_555 1_555
C5 C6 1_555 1_555
C11 C12 1_555 1_555
C13 C18 1_555 1_555
C17 C18 1_555 1_555
C23 C24 1_555 1_555
C25 C30 1_555 1_555
C29 C30 1_555 1_555
C35 C36 1_555 1_555
C41 C42 1_555 1_555
C43 C48 1_555 1_555
C47 C48 1_555 1_555
C53 C54 1_555 1_555
C55 C60 1_555 1_555
C59 C60 1_555 1_555

#END
