
#######################################################################
#
#                 Cambridge Crystallographic Data Centre
#                                CCDC 
#
#######################################################################
#
# If this CIF has been generated from an entry in the Cambridge 
# Structural Database, then it will include bibliographic, chemical, 
# crystal, experimental, refinement or atomic coordinate data resulting 
# from the CCDC's data processing and validation procedures.
#
#######################################################################

data_OTOBEF
_chemical_formula_moiety         'C28 H20 N2'
_chemical_name_systematic        
2-(4-Methylphenyl)-1-phenyl-1H-phenanthro[9,10-d]imidazole
_symmetry_cell_setting           orthorhombic
_symmetry_space_group_name_H-M   'P 21 21 21'
_symmetry_Int_Tables_number      19
_space_group_name_Hall           'P 2ac 2ab'
loop_
_symmetry_equiv_pos_site_id
_symmetry_equiv_pos_as_xyz
1 x,y,z
2 1/2-x,-y,1/2+z
3 -x,1/2+y,1/2-z
4 1/2+x,1/2-y,-z
_cell_length_a                   10.527(2)
_cell_length_b                   18.843(4)
_cell_length_c                   20.461(4)
_cell_angle_alpha                90
_cell_angle_beta                 90
_cell_angle_gamma                90
_cell_volume                     4058.65
_exptl_crystal_description       block
_cell_formula_units_Z            8
loop_
_atom_site_label
_atom_site_type_symbol
_atom_site_fract_x
_atom_site_fract_y
_atom_site_fract_z
N1 N 0.1193(3) 0.38115(14) 0.16653(13)
C1 C 0.0414(3) 0.28091(16) 0.11935(14)
N2 N 0.1639(3) 0.26796(13) 0.14243(12)
C2 C 0.2354(3) 0.20227(16) 0.14023(15)
C3 C -0.0504(3) 0.23718(17) 0.08612(14)
C4 C -0.1026(3) 0.38379(17) 0.12192(15)
C5 C -0.1710(3) 0.26888(18) 0.07318(14)
C6 C 0.5161(3) 0.30515(18) 0.26116(14)
H1 H 0.5635 0.2688 0.2798
C7 C 0.3383(3) 0.19673(19) 0.09893(15)
H2 H 0.3588 0.2334 0.0704
C8 C 0.3299(3) 0.34171(16) 0.20179(14)
C9 C -0.1973(3) 0.34254(18) 0.09129(15)
C10 C 0.0173(3) 0.35037(16) 0.13570(14)
C11 C -0.1266(4) 0.45432(18) 0.13926(18)
H3 H -0.0642 0.4804 0.1607
C12 C -0.2370(4) 0.1592(2) 0.02106(18)
H4 H -0.2990 0.1337 -0.0013
C13 C 0.3761(3) 0.41103(18) 0.20463(18)
H5 H 0.3299 0.4476 0.1855
C14 C 0.2061(3) 0.33072(17) 0.17033(14)
C15 C 0.3823(4) 0.0821(2) 0.1443(2)
H6 H 0.4324 0.0415 0.1459
C16 C -0.0276(4) 0.16658(18) 0.06529(16)
H7 H 0.0509 0.1457 0.0732
C17 C -0.2411(4) 0.4855(2) 0.12508(19)
H8 H -0.2555 0.5328 0.1357
C18 C 0.2047(3) 0.14935(16) 0.18333(16)
H9 H 0.1346 0.1539 0.2107
C19 C -0.3350(4) 0.4459(2) 0.09476(19)
H10 H -0.4131 0.4668 0.0857
C20 C -0.3146(4) 0.3764(2) 0.07797(17)
H11 H -0.3790 0.3510 0.0574
C21 C 0.4106(4) 0.13541(19) 0.10092(18)
H12 H 0.4790 0.1302 0.0726
C22 C -0.2615(4) 0.2268(2) 0.04137(16)
H13 H -0.3418 0.2457 0.0338
C23 C 0.4013(3) 0.28886(17) 0.23186(15)
H14 H 0.3717 0.2424 0.2323
C24 C 0.5626(3) 0.37347(17) 0.26360(15)
C25 C -0.1204(4) 0.1287(2) 0.03361(17)
H15 H -0.1045 0.0822 0.0205
C26 C 0.2795(4) 0.08900(18) 0.18554(18)
H16 H 0.2603 0.0529 0.2150
C27 C 0.4894(4) 0.42590(18) 0.23549(17)
H17 H 0.5172 0.4727 0.2374
C28 C 0.6879(3) 0.38972(18) 0.29661(18)
H18 H 0.6749 0.4247 0.3301
H19 H 0.7469 0.4076 0.2649
H20 H 0.7213 0.3472 0.3158
N3 N 0.8305(2) 0.80021(13) 0.12779(12)
C29 C 0.7063(3) 0.79918(17) 0.10441(14)
N4 N 0.7571(3) 0.68911(13) 0.14001(12)
C30 C 0.6295(3) 0.85428(17) 0.07456(15)
C31 C 0.5368(3) 0.71083(17) 0.09808(14)
C32 C 0.9746(3) 0.70697(16) 0.17843(14)
C33 C 0.6644(3) 0.73157(17) 0.11282(14)
C34 C 0.4557(3) 0.76281(18) 0.07072(14)
C35 C 0.5049(4) 0.83370(19) 0.05649(15)
C36 C 0.3283(4) 0.7431(2) 0.05952(16)
H21 H 0.2723 0.7763 0.0420
C37 C 0.8562(3) 0.73168(17) 0.14786(15)
C38 C 1.1076(3) 0.60656(18) 0.20516(17)
H22 H 1.1267 0.5587 0.2000
C39 C 0.6690(4) 0.92372(19) 0.06107(19)
H23 H 0.7502 0.9378 0.0735
C40 C 1.1516(3) 0.7186(2) 0.25263(15)
H24 H 1.2006 0.7472 0.2798
C41 C 1.0060(3) 0.63528(16) 0.17143(15)
H25 H 0.9581 0.6066 0.1438
C42 C 1.1814(3) 0.6476(2) 0.24648(16)
C43 C 0.4907(4) 0.64257(19) 0.11175(15)
H26 H 0.5446 0.6085 0.1294
C44 C 0.3659(4) 0.6259(2) 0.09908(18)
H27 H 0.3358 0.5804 0.1076
C45 C 0.2852(4) 0.6768(2) 0.07369(18)
H28 H 0.2004 0.6656 0.0662
C46 C 0.4296(4) 0.8846(2) 0.02318(18)
H29 H 0.3488 0.8719 0.0090
C47 C 1.0499(3) 0.74822(17) 0.21916(15)
H30 H 1.0320 0.7963 0.2241
C48 C 0.5916(5) 0.9715(2) 0.0301(2)
H31 H 0.6201 1.0174 0.0218
C49 C 0.4724(5) 0.9514(2) 0.0114(2)
H32 H 0.4199 0.9838 -0.0097
C50 C 1.2915(4) 0.6157(2) 0.28418(19)
H33 H 1.3702 0.6325 0.2662
H34 H 1.2884 0.5649 0.2809
H35 H 1.2857 0.6294 0.3293
C51 C 0.9196(3) 0.85761(15) 0.12077(15)
C52 C 0.9965(3) 0.85867(16) 0.06668(15)
H36 H 0.9957 0.8210 0.0373
C53 C 1.0756(3) 0.9166(2) 0.05623(18)
H37 H 1.1282 0.9178 0.0197
C54 C 0.9214(4) 0.91246(17) 0.16491(16)
H38 H 0.8701 0.9111 0.2019
C55 C 1.0010(4) 0.97009(19) 0.1537(2)
H39 H 1.0028 1.0075 0.1834
C56 C 1.0762(4) 0.97209(19) 0.0996(2)
H40 H 1.1282 1.0112 0.0921
loop_
_geom_bond_atom_site_label_1
_geom_bond_atom_site_label_2
_geom_bond_site_symmetry_1
_geom_bond_site_symmetry_2
N1 C10 1_555 1_555
C1 N2 1_555 1_555
N2 C2 1_555 1_555
C2 C7 1_555 1_555
C3 C1 1_555 1_555
C4 C9 1_555 1_555
C5 C3 1_555 1_555
C6 H1 1_555 1_555
C7 H2 1_555 1_555
C8 C13 1_555 1_555
C9 C5 1_555 1_555
C10 C1 1_555 1_555
C11 C4 1_555 1_555
H3 C11 1_555 1_555
C12 H4 1_555 1_555
C13 H5 1_555 1_555
C14 N1 1_555 1_555
C15 H6 1_555 1_555
C16 C3 1_555 1_555
H7 C16 1_555 1_555
C17 C11 1_555 1_555
H8 C17 1_555 1_555
C18 C2 1_555 1_555
H9 C18 1_555 1_555
C19 C17 1_555 1_555
H10 C19 1_555 1_555
C20 C9 1_555 1_555
H11 C20 1_555 1_555
C21 C7 1_555 1_555
H12 C21 1_555 1_555
C22 C5 1_555 1_555
H13 C22 1_555 1_555
C23 C6 1_555 1_555
H14 C23 1_555 1_555
C24 C6 1_555 1_555
C25 C12 1_555 1_555
H15 C25 1_555 1_555
C26 C15 1_555 1_555
H16 C26 1_555 1_555
C27 C13 1_555 1_555
H17 C27 1_555 1_555
C28 C24 1_555 1_555
H18 C28 1_555 1_555
H19 C28 1_555 1_555
H20 C28 1_555 1_555
N3 C29 1_555 1_555
C29 C30 1_555 1_555
N4 C33 1_555 1_555
C30 C35 1_555 1_555
C31 C33 1_555 1_555
C32 C37 1_555 1_555
C33 C29 1_555 1_555
C34 C31 1_555 1_555
C35 C34 1_555 1_555
C36 C34 1_555 1_555
H21 C36 1_555 1_555
C37 N3 1_555 1_555
C38 H22 1_555 1_555
C39 C30 1_555 1_555
H23 C39 1_555 1_555
C40 H24 1_555 1_555
C41 C32 1_555 1_555
H25 C41 1_555 1_555
C42 C38 1_555 1_555
C43 C31 1_555 1_555
H26 C43 1_555 1_555
C44 C43 1_555 1_555
H27 C44 1_555 1_555
C45 C36 1_555 1_555
H28 C45 1_555 1_555
C46 C35 1_555 1_555
H29 C46 1_555 1_555
C47 C32 1_555 1_555
H30 C47 1_555 1_555
C48 C39 1_555 1_555
H31 C48 1_555 1_555
C49 C46 1_555 1_555
H32 C49 1_555 1_555
C50 C42 1_555 1_555
H33 C50 1_555 1_555
H34 C50 1_555 1_555
H35 C50 1_555 1_555
C51 N3 1_555 1_555
C52 C51 1_555 1_555
H36 C52 1_555 1_555
C53 C52 1_555 1_555
H37 C53 1_555 1_555
C54 C51 1_555 1_555
H38 C54 1_555 1_555
C55 C54 1_555 1_555
H39 C55 1_555 1_555
C56 C53 1_555 1_555
H40 C56 1_555 1_555
N2 C14 1_555 1_555
C4 C10 1_555 1_555
C8 C14 1_555 1_555
C8 C23 1_555 1_555
C12 C22 1_555 1_555
C15 C21 1_555 1_555
C16 C25 1_555 1_555
C18 C26 1_555 1_555
C19 C20 1_555 1_555
C24 C27 1_555 1_555
N4 C37 1_555 1_555
C38 C41 1_555 1_555
C40 C42 1_555 1_555
C40 C47 1_555 1_555
C44 C45 1_555 1_555
C48 C49 1_555 1_555
C55 C56 1_555 1_555

#END
