
#######################################################################
#
#                 Cambridge Crystallographic Data Centre
#                                CCDC 
#
#######################################################################
#
# If this CIF has been generated from an entry in the Cambridge 
# Structural Database, then it will include bibliographic, chemical, 
# crystal, experimental, refinement or atomic coordinate data resulting 
# from the CCDC's data processing and validation procedures.
#
#######################################################################

data_OTOBAB
_chemical_formula_moiety         'C28 H20 N2'
_chemical_name_systematic        
1-(4-Methylphenyl)-2-phenyl-1H-phenanthro[9,10-d]imidazole
_symmetry_cell_setting           triclinic
_symmetry_space_group_name_H-M   'P -1'
_symmetry_Int_Tables_number      2
_space_group_name_Hall           '-P 1'
loop_
_symmetry_equiv_pos_site_id
_symmetry_equiv_pos_as_xyz
1 x,y,z
2 -x,-y,-z
_cell_length_a                   9.776(2)
_cell_length_b                   12.364(3)
_cell_length_c                   18.480(4)
_cell_angle_alpha                73.75(3)
_cell_angle_beta                 80.53(3)
_cell_angle_gamma                76.89(3)
_cell_volume                     2076.32
_exptl_crystal_colour            colorless
_exptl_crystal_description       block
_cell_formula_units_Z            4
loop_
_atom_site_label
_atom_site_type_symbol
_atom_site_fract_x
_atom_site_fract_y
_atom_site_fract_z
N1 N 0.62200(12) 0.03898(10) 0.36485(7)
N2 N 0.81901(12) -0.09128(11) 0.39172(7)
C1 C 0.59378(16) -0.30426(13) 0.40186(8)
C2 C 0.45698(14) -0.10137(14) 0.37327(8)
C3 C 0.58724(14) -0.06762(13) 0.37542(8)
C4 C 0.71795(15) -0.26662(13) 0.40560(8)
C5 C 0.46212(15) -0.22074(14) 0.38686(8)
C6 C 0.53131(14) 0.15046(12) 0.35397(8)
C7 C 0.71035(14) -0.14575(13) 0.39152(8)
C8 C 0.76245(15) 0.01889(13) 0.37585(9)
C9 C 0.49564(17) 0.20254(15) 0.41257(9)
H1 H 0.5289 0.1658 0.4593
C10 C 0.35609(16) 0.36597(13) 0.33400(9)
C11 C 0.83906(15) 0.11150(13) 0.36848(10)
C12 C 0.84236(17) -0.34697(14) 0.42328(10)
H2 H 0.9231 -0.3217 0.4268
C13 C 0.6030(2) -0.42301(15) 0.41407(10)
H3 H 0.5233 -0.4501 0.4112
C14 C 0.33503(18) -0.25645(17) 0.38673(10)
H4 H 0.3354 -0.3344 0.3959
C15 C 0.48183(18) 0.20607(14) 0.28488(9)
H5 H 0.5074 0.1721 0.2444
C16 C 0.20748(17) -0.06410(19) 0.36019(11)
H6 H 0.1231 -0.0123 0.3510
C17 C 0.39404(19) 0.31248(15) 0.27588(10)
H7 H 0.3598 0.3488 0.2293
C18 C 0.41009(18) 0.30987(15) 0.40186(10)
H8 H 0.3882 0.3454 0.4416
C19 C 0.8463(2) -0.46168(15) 0.43537(11)
H9 H 0.9292 -0.5141 0.4472
C20 C 0.32748(16) -0.02488(16) 0.36042(10)
H10 H 0.3235 0.0535 0.3520
C21 C 0.7257(2) -0.49987(16) 0.42997(11)
H11 H 0.7286 -0.5779 0.4372
C22 C 0.21118(19) -0.1797(2) 0.37344(11)
H12 H 0.1292 -0.2059 0.3734
C23 C 0.2618(2) 0.48261(15) 0.32387(13)
H13 H 0.3168 0.5407 0.2994
H14 H 0.2193 0.4938 0.3725
H15 H 0.1892 0.4877 0.2932
C24 C 0.89853(19) 0.11598(17) 0.43008(12)
H16 H 0.8840 0.0638 0.4766
C25 C 0.8600(2) 0.19026(16) 0.30007(12)
H17 H 0.8191 0.1891 0.2584
C26 C 1.0012(2) 0.2734(2) 0.3550(2)
H18 H 1.0568 0.3273 0.3503
C27 C 0.9418(3) 0.27084(19) 0.29361(17)
H19 H 0.9566 0.3235 0.2474
C28 C 0.9789(2) 0.1966(2) 0.42339(18)
H20 H 1.0182 0.1991 0.4653
C29 C 0.25573(14) 0.24990(13) 0.07043(9)
N3 N 0.17050(13) 0.42033(11) 0.12502(7)
N4 N 0.21977(13) 0.55496(10) 0.02003(7)
C30 C 0.31011(15) 0.21626(13) 0.00305(9)
C31 C 0.31000(15) 0.42178(13) -0.07023(8)
C32 C 0.25644(14) 0.45061(13) 0.00046(8)
C33 C 0.22694(14) 0.37013(13) 0.06628(8)
C34 C 0.33739(15) 0.30308(14) -0.06792(9)
C35 C 0.23107(15) 0.66782(13) -0.02671(8)
C36 C 0.35962(15) 0.70112(14) -0.04405(9)
H21 H 0.4399 0.6506 -0.0259
C37 C 0.23415(17) 0.16785(14) 0.13880(10)
H22 H 0.1994 0.1914 0.1830
C38 C 0.16807(16) 0.53085(13) 0.09558(9)
C39 C 0.36961(17) 0.80991(14) -0.08852(9)
H23 H 0.4573 0.8317 -0.0999
C40 C 0.39191(18) 0.27159(17) -0.13593(10)
H24 H 0.4134 0.1942 -0.1355
C41 C 0.33598(19) 0.09840(15) 0.00768(11)
H25 H 0.3696 0.0733 -0.0361
C42 C 0.25415(19) 0.88631(14) -0.11622(9)
C43 C 0.33248(18) 0.50195(16) -0.13988(9)
H26 H 0.3126 0.5798 -0.1417
C44 C -0.01504(18) 0.61862(16) 0.18100(10)
H27 H -0.0717 0.5695 0.1776
C45 C 0.11629(18) 0.61763(14) 0.13927(9)
C46 C 0.4143(2) 0.35151(18) -0.20277(10)
H28 H 0.4505 0.3279 -0.2468
C47 C 0.11291(17) 0.74331(16) -0.05304(11)
H29 H 0.0252 0.7216 -0.0411
C48 C 0.2637(2) 0.05348(15) 0.14113(11)
H30 H 0.2508 -0.0008 0.1868
C49 C 0.3831(2) 0.46716(18) -0.20496(10)
H31 H 0.3966 0.5213 -0.2506
C50 C 0.3131(2) 0.01941(16) 0.07467(12)
H32 H 0.3309 -0.0581 0.0757
C51 C 0.1252(2) 0.85154(17) -0.09730(12)
H33 H 0.0448 0.9024 -0.1149
C52 C 0.1993(2) 0.69091(16) 0.14500(11)
H34 H 0.2873 0.6915 0.1168
C53 C -0.0620(2) 0.6920(2) 0.22749(11)
H35 H -0.1507 0.6927 0.2550
C54 C 0.0205(3) 0.76388(17) 0.23357(12)
H36 H -0.0119 0.8131 0.2653
C55 C 0.2666(3) 1.00394(16) -0.16665(12)
H37 H 0.3639 1.0117 -0.1755
H38 H 0.2119 1.0615 -0.1424
H39 H 0.2320 1.0133 -0.2142
C56 C 0.1517(3) 0.76338(17) 0.19264(12)
H40 H 0.2084 0.8118 0.1970
loop_
_geom_bond_atom_site_label_1
_geom_bond_atom_site_label_2
_geom_bond_site_symmetry_1
_geom_bond_site_symmetry_2
N1 C3 1_555 1_555
N2 C7 1_555 1_555
C1 C4 1_555 1_555
C2 C3 1_555 1_555
C3 C7 1_555 1_555
C4 C7 1_555 1_555
C5 C1 1_555 1_555
C6 N1 1_555 1_555
C8 N1 1_555 1_555
C9 C6 1_555 1_555
H1 C9 1_555 1_555
C10 C17 1_555 1_555
C11 C8 1_555 1_555
C12 C4 1_555 1_555
H2 C12 1_555 1_555
C13 C1 1_555 1_555
H3 C13 1_555 1_555
C14 C5 1_555 1_555
H4 C14 1_555 1_555
C15 C6 1_555 1_555
H5 C15 1_555 1_555
C16 H6 1_555 1_555
C17 C15 1_555 1_555
H7 C17 1_555 1_555
C18 C9 1_555 1_555
H8 C18 1_555 1_555
C19 C12 1_555 1_555
H9 C19 1_555 1_555
C20 C2 1_555 1_555
H10 C20 1_555 1_555
C21 C13 1_555 1_555
H11 C21 1_555 1_555
C22 C14 1_555 1_555
H12 C22 1_555 1_555
C23 C10 1_555 1_555
H13 C23 1_555 1_555
H14 C23 1_555 1_555
H15 C23 1_555 1_555
C24 C11 1_555 1_555
H16 C24 1_555 1_555
C25 C11 1_555 1_555
H17 C25 1_555 1_555
C26 H18 1_555 1_555
C27 C25 1_555 1_555
H19 C27 1_555 1_555
C28 C24 1_555 1_555
H20 C28 1_555 1_555
C29 C30 1_555 1_555
N3 C33 1_555 1_555
N4 C32 1_555 1_555
C30 C34 1_555 1_555
C31 C32 1_555 1_555
C32 C33 1_555 1_555
C33 C29 1_555 1_555
C34 C31 1_555 1_555
C35 N4 1_555 1_555
C36 C35 1_555 1_555
H21 C36 1_555 1_555
C37 C29 1_555 1_555
H22 C37 1_555 1_555
C38 N3 1_555 1_555
C39 C36 1_555 1_555
H23 C39 1_555 1_555
C40 C34 1_555 1_555
H24 C40 1_555 1_555
C41 C30 1_555 1_555
H25 C41 1_555 1_555
C42 C39 1_555 1_555
C43 C31 1_555 1_555
H26 C43 1_555 1_555
C44 H27 1_555 1_555
C45 C38 1_555 1_555
C46 C40 1_555 1_555
H28 C46 1_555 1_555
C47 C35 1_555 1_555
H29 C47 1_555 1_555
C48 C37 1_555 1_555
H30 C48 1_555 1_555
C49 C43 1_555 1_555
H31 C49 1_555 1_555
C50 C41 1_555 1_555
H32 C50 1_555 1_555
C51 C42 1_555 1_555
H33 C51 1_555 1_555
C52 C45 1_555 1_555
H34 C52 1_555 1_555
C53 C44 1_555 1_555
H35 C53 1_555 1_555
C54 C53 1_555 1_555
H36 C54 1_555 1_555
C55 C42 1_555 1_555
H37 C55 1_555 1_555
H38 C55 1_555 1_555
H39 C55 1_555 1_555
C56 C52 1_555 1_555
H40 C56 1_555 1_555
N2 C8 1_555 1_555
C2 C5 1_555 1_555
C10 C18 1_555 1_555
C16 C20 1_555 1_555
C16 C22 1_555 1_555
C19 C21 1_555 1_555
C26 C27 1_555 1_555
C26 C28 1_555 1_555
N4 C38 1_555 1_555
C44 C45 1_555 1_555
C46 C49 1_555 1_555
C47 C51 1_555 1_555
C48 C50 1_555 1_555
C54 C56 1_555 1_555

#END
