
#######################################################################
#
#                 Cambridge Crystallographic Data Centre
#                                CCDC 
#
#######################################################################
#
# If this CIF has been generated from an entry in the Cambridge 
# Structural Database, then it will include bibliographic, chemical, 
# crystal, experimental, refinement or atomic coordinate data resulting 
# from the CCDC's data processing and validation procedures.
#
#######################################################################

data_OTOFEJ
_chemical_formula_moiety         'C16 H13 N2 S1 1+,F6 P1 1-'
_chemical_name_systematic        
'1-Methyl-2-(methylsulfanyl)benzo[gh]perimidin-1-ium hexafluorophosphate'
_symmetry_cell_setting           triclinic
_symmetry_space_group_name_H-M   'P -1'
_symmetry_Int_Tables_number      2
_space_group_name_Hall           '-P 1'
loop_
_symmetry_equiv_pos_site_id
_symmetry_equiv_pos_as_xyz
1 x,y,z
2 -x,-y,-z
_cell_length_a                   8.1767(4)
_cell_length_b                   14.2491(8)
_cell_length_c                   28.0483(13)
_cell_angle_alpha                86.108(5)
_cell_angle_beta                 86.915(3)
_cell_angle_gamma                89.231(5)
_cell_volume                     3255.51
_exptl_crystal_colour            colorless
_exptl_crystal_description       prism
_cell_formula_units_Z            8
loop_
_atom_site_label
_atom_site_type_symbol
_atom_site_fract_x
_atom_site_fract_y
_atom_site_fract_z
P1 P 0.68233(10) 0.03208(6) 0.40640(3)
F1 F 0.6568(3) 0.14103(14) 0.41661(8)
F2 F 0.6453(3) 0.00382(16) 0.46214(7)
F3 F 0.4907(2) 0.02465(16) 0.39715(8)
F4 F 0.7172(2) 0.06149(14) 0.35019(6)
F5 F 0.8731(2) 0.03960(16) 0.41484(7)
F6 F 0.7061(3) -0.07617(14) 0.39564(8)
P2 P 0.80657(10) 0.46376(6) 0.09406(3)
F7 F 0.7703(3) 0.57307(15) 0.09972(8)
F8 F 0.7887(4) 0.44666(16) 0.15068(8)
F9 F 0.6177(3) 0.4451(2) 0.09141(11)
F10 F 0.8243(4) 0.48068(17) 0.03790(8)
F11 F 0.9960(3) 0.48321(17) 0.09642(11)
F12 F 0.8440(3) 0.35379(14) 0.08868(7)
P3 P 0.45556(11) 0.83052(6) 0.14630(3)
F13 F 0.4340(3) 0.94251(14) 0.14616(9)
F14 F 0.4681(3) 0.82390(16) 0.20311(7)
F15 F 0.2612(2) 0.81945(15) 0.15326(8)
F16 F 0.4423(3) 0.83610(17) 0.08925(8)
F17 F 0.6495(2) 0.84238(15) 0.13928(9)
F18 F 0.4781(2) 0.71872(13) 0.14634(7)
P4 P 0.01130(11) 0.68726(6) 0.34760(3)
F19 F 0.0125(3) 0.79530(15) 0.35740(8)
F20 F -0.0257(3) 0.65996(17) 0.40343(8)
F21 F -0.1818(2) 0.69399(15) 0.34001(9)
F22 F 0.0481(3) 0.71308(16) 0.29162(8)
F23 F 0.2041(2) 0.67900(16) 0.35489(8)
F24 F 0.0087(3) 0.57791(15) 0.33736(9)
S1 S 0.37494(10) 0.35142(7) 0.01681(4)
N1 N 0.6789(3) 0.30806(18) -0.01326(10)
N2 N 0.5616(3) 0.21275(19) 0.05263(10)
C1 C 0.8244(4) 0.2580(2) -0.01285(11)
C2 C 0.9595(4) 0.2791(2) -0.04619(12)
H1 H 0.9512 0.3288 -0.0703
C3 C 1.0999(4) 0.2275(2) -0.04307(12)
H2 H 1.1891 0.2427 -0.0652
C4 C 1.1191(4) 0.1512(2) -0.00790(12)
C5 C 1.2647(4) 0.0987(2) -0.00370(12)
H3 H 1.3560 0.1130 -0.0252
C6 C 1.2765(4) 0.0263(2) 0.03158(13)
H4 H 1.3771 -0.0072 0.0348
C7 C 1.1416(4) 0.0021(2) 0.06251(12)
H5 H 1.1503 -0.0490 0.0858
C8 C 0.9947(4) 0.0520(2) 0.05954(11)
C9 C 0.8520(4) 0.0305(2) 0.09052(11)
H6 H 0.8565 -0.0216 0.1134
C10 C 0.7108(4) 0.0821(2) 0.08821(11)
H7 H 0.6192 0.0657 0.1092
C11 C 0.7008(4) 0.1607(2) 0.05414(11)
C12 C 0.8373(4) 0.1825(2) 0.02182(11)
C13 C 0.9842(4) 0.1281(2) 0.02449(11)
C14 C 0.5537(4) 0.2838(2) 0.02011(12)
C15 C 0.6572(4) 0.3877(2) -0.04867(13)
H8 H 0.7626 0.4187 -0.0562
H9 H 0.5784 0.4328 -0.0355
H10 H 0.6163 0.3647 -0.0779
C16 C 0.2647(4) 0.3054(3) 0.07029(13)
H11 H 0.2467 0.2379 0.0683
H12 H 0.1587 0.3380 0.0736
H13 H 0.3283 0.3152 0.0981
S2 S 0.20312(11) -0.01233(7) 0.32236(3)
N3 N 0.5056(3) -0.05527(19) 0.28831(10)
N4 N 0.4005(3) 0.09707(19) 0.26596(10)
C17 C 0.6537(4) -0.0370(2) 0.26442(12)
C18 C 0.7866(4) -0.1028(2) 0.26484(13)
H14 H 0.7747 -0.1626 0.2817
C19 C 0.9312(4) -0.0788(2) 0.24066(12)
H15 H 1.0186 -0.1234 0.2409
C20 C 0.9570(4) 0.0105(2) 0.21503(12)
C21 C 1.1071(4) 0.0363(3) 0.19135(12)
H16 H 1.1957 -0.0075 0.1907
C22 C 1.1266(4) 0.1261(3) 0.16884(12)
H17 H 1.2295 0.1434 0.1537
C23 C 0.9971(4) 0.1907(3) 0.16827(12)
H18 H 1.0124 0.2512 0.1524
C24 C 0.8436(4) 0.1671(2) 0.19097(12)
C25 C 0.7060(4) 0.2304(2) 0.19104(12)
H19 H 0.7163 0.2905 0.1743
C26 C 0.5610(4) 0.2068(2) 0.21447(12)
H20 H 0.4713 0.2498 0.2135
C27 C 0.5429(4) 0.1176(2) 0.24049(11)
C28 C 0.6748(4) 0.0519(2) 0.23961(11)
C29 C 0.8247(4) 0.0770(2) 0.21473(11)
C30 C 0.3858(4) 0.0134(2) 0.28902(12)
C31 C 0.4725(5) -0.1480(2) 0.31369(13)
H21 H 0.5136 -0.1979 0.2937
H22 H 0.3542 -0.1551 0.3202
H23 H 0.5277 -0.1524 0.3439
C32 C 0.1027(4) 0.1007(3) 0.31637(13)
H24 H 0.1736 0.1488 0.3274
H25 H -0.0008 0.0989 0.3357
H26 H 0.0807 0.1160 0.2827
S3 S 1.09479(11) 0.13697(6) 0.49587(3)
N7 N 0.7894(3) 0.19457(18) 0.51479(9)
N8 N 0.9409(3) 0.28151(19) 0.45175(9)
C33 C 0.6541(4) 0.2516(2) 0.50953(12)
C34 C 0.5059(4) 0.2380(3) 0.53901(12)
H27 H 0.4989 0.1888 0.5636
C35 C 0.3746(4) 0.2970(3) 0.53127(13)
H28 H 0.2773 0.2876 0.5510
C36 C 0.3781(4) 0.3719(3) 0.49489(13)
C37 C 0.2421(4) 0.4310(3) 0.48561(14)
H29 H 0.1416 0.4210 0.5038
C38 C 0.2542(5) 0.5034(3) 0.45023(15)
H30 H 0.1614 0.5424 0.4441
C39 C 0.3997(5) 0.5199(3) 0.42358(14)
H31 H 0.4061 0.5712 0.4001
C40 C 0.5382(4) 0.4621(2) 0.43070(13)
C41 C 0.6923(4) 0.4766(2) 0.40409(12)
H32 H 0.7031 0.5283 0.3810
C42 C 0.8226(4) 0.4183(2) 0.41125(12)
H33 H 0.9226 0.4294 0.3930
C43 C 0.8107(4) 0.3403(2) 0.44598(11)
C44 C 0.6619(4) 0.3261(2) 0.47384(11)
C45 C 0.5250(4) 0.3865(2) 0.46647(12)
C46 C 0.9283(4) 0.2119(2) 0.48529(11)
C47 C 0.7874(5) 0.1154(2) 0.55163(13)
H34 H 0.8007 0.1395 0.5831
H35 H 0.8774 0.0716 0.5444
H36 H 0.6828 0.0825 0.5519
C48 C 1.2265(4) 0.1682(3) 0.44418(13)
H37 H 1.1777 0.1475 0.4156
H38 H 1.3336 0.1376 0.4477
H39 H 1.2402 0.2366 0.4410
S4 S 1.18838(11) 0.58490(7) 0.18148(3)
N5 N 0.8820(3) 0.59119(19) 0.21819(10)
N6 N 1.0330(3) 0.4505(2) 0.23553(10)
C49 C 0.7429(4) 0.5570(2) 0.24390(12)
C50 C 0.5952(4) 0.6105(2) 0.24864(12)
H40 H 0.5888 0.6726 0.2342
C51 C 0.4635(4) 0.5720(3) 0.27394(12)
H41 H 0.3663 0.6087 0.2773
C52 C 0.4653(4) 0.4780(2) 0.29577(12)
C53 C 0.3283(4) 0.4361(3) 0.32039(12)
H42 H 0.2281 0.4703 0.3230
C54 C 0.3386(4) 0.3448(3) 0.34094(13)
H43 H 0.2446 0.3168 0.3571
C55 C 0.4837(4) 0.2943(3) 0.33807(12)
H44 H 0.4886 0.2324 0.3529
C56 C 0.6250(4) 0.3329(2) 0.31349(12)
C57 C 0.7776(4) 0.2837(2) 0.30974(12)
H45 H 0.7865 0.2224 0.3250
C58 C 0.9114(4) 0.3222(2) 0.28477(12)
H46 H 1.0114 0.2875 0.2828
C59 C 0.9013(4) 0.4143(2) 0.26159(12)
C60 C 0.7523(4) 0.4656(2) 0.26570(11)
C61 C 0.6130(4) 0.4251(2) 0.29183(11)
C62 C 1.0199(4) 0.5358(2) 0.21473(12)
C63 C 0.8777(5) 0.6865(2) 0.19292(13)
H47 H 0.9894 0.7107 0.1880
H48 H 0.8113 0.7290 0.2123
H49 H 0.8296 0.6826 0.1619
C64 C 1.3140(5) 0.4820(3) 0.17444(14)
H50 H 1.3367 0.4526 0.2060
H51 H 1.4173 0.4999 0.1571
H52 H 1.2564 0.4374 0.1564
loop_
_geom_bond_atom_site_label_1
_geom_bond_atom_site_label_2
_geom_bond_site_symmetry_1
_geom_bond_site_symmetry_2
P1 F1 1_555 1_555
P2 F7 1_555 1_555
P3 F13 1_555 1_555
P4 F19 1_555 1_555
S1 C14 1_555 1_555
S2 C30 1_555 1_555
S3 C46 1_555 1_555
S4 C62 1_555 1_555
N1 C1 1_555 1_555
N2 C11 1_555 1_555
N3 C17 1_555 1_555
N4 C27 1_555 1_555
N5 C49 1_555 1_555
N6 C59 1_555 1_555
N7 C33 1_555 1_555
N8 C43 1_555 1_555
F2 P1 1_555 1_555
F3 P1 1_555 1_555
F4 P1 1_555 1_555
F5 P1 1_555 1_555
F6 P1 1_555 1_555
F8 P2 1_555 1_555
F9 P2 1_555 1_555
F10 P2 1_555 1_555
F11 P2 1_555 1_555
F12 P2 1_555 1_555
F14 P3 1_555 1_555
F15 P3 1_555 1_555
F16 P3 1_555 1_555
F17 P3 1_555 1_555
F18 P3 1_555 1_555
F20 P4 1_555 1_555
F21 P4 1_555 1_555
F22 P4 1_555 1_555
F23 P4 1_555 1_555
F24 P4 1_555 1_555
C1 C2 1_555 1_555
C2 H1 1_555 1_555
C3 C2 1_555 1_555
H2 C3 1_555 1_555
C4 C3 1_555 1_555
C5 C4 1_555 1_555
H3 C5 1_555 1_555
C6 C5 1_555 1_555
H4 C6 1_555 1_555
C7 C6 1_555 1_555
H5 C7 1_555 1_555
C8 C7 1_555 1_555
C9 C8 1_555 1_555
H6 C9 1_555 1_555
C10 C9 1_555 1_555
H7 C10 1_555 1_555
C11 C10 1_555 1_555
C12 C1 1_555 1_555
C13 C4 1_555 1_555
C14 N1 1_555 1_555
C15 N1 1_555 1_555
H8 C15 1_555 1_555
H9 C15 1_555 1_555
H10 C15 1_555 1_555
C16 S1 1_555 1_555
H11 C16 1_555 1_555
H12 C16 1_555 1_555
H13 C16 1_555 1_555
C17 C18 1_555 1_555
C18 H14 1_555 1_555
C19 C18 1_555 1_555
H15 C19 1_555 1_555
C20 C19 1_555 1_555
C21 C20 1_555 1_555
H16 C21 1_555 1_555
C22 C21 1_555 1_555
H17 C22 1_555 1_555
C23 C22 1_555 1_555
H18 C23 1_555 1_555
C24 C23 1_555 1_555
C25 C24 1_555 1_555
H19 C25 1_555 1_555
C26 C25 1_555 1_555
H20 C26 1_555 1_555
C27 C26 1_555 1_555
C28 C17 1_555 1_555
C29 C20 1_555 1_555
C30 N3 1_555 1_555
C31 N3 1_555 1_555
H21 C31 1_555 1_555
H22 C31 1_555 1_555
H23 C31 1_555 1_555
C32 S2 1_555 1_555
H24 C32 1_555 1_555
H25 C32 1_555 1_555
H26 C32 1_555 1_555
C33 C34 1_555 1_555
C34 H27 1_555 1_555
C35 C34 1_555 1_555
H28 C35 1_555 1_555
C36 C35 1_555 1_555
C37 C36 1_555 1_555
H29 C37 1_555 1_555
C38 C37 1_555 1_555
H30 C38 1_555 1_555
C39 C38 1_555 1_555
H31 C39 1_555 1_555
C40 C39 1_555 1_555
C41 C40 1_555 1_555
H32 C41 1_555 1_555
C42 C41 1_555 1_555
H33 C42 1_555 1_555
C43 C42 1_555 1_555
C44 C33 1_555 1_555
C45 C36 1_555 1_555
C46 N7 1_555 1_555
C47 N7 1_555 1_555
H34 C47 1_555 1_555
H35 C47 1_555 1_555
H36 C47 1_555 1_555
C48 S3 1_555 1_555
H37 C48 1_555 1_555
H38 C48 1_555 1_555
H39 C48 1_555 1_555
C49 C50 1_555 1_555
C50 H40 1_555 1_555
C51 C50 1_555 1_555
H41 C51 1_555 1_555
C52 C51 1_555 1_555
C53 C52 1_555 1_555
H42 C53 1_555 1_555
C54 C53 1_555 1_555
H43 C54 1_555 1_555
C55 C54 1_555 1_555
H44 C55 1_555 1_555
C56 C55 1_555 1_555
C57 C56 1_555 1_555
H45 C57 1_555 1_555
C58 C57 1_555 1_555
H46 C58 1_555 1_555
C59 C58 1_555 1_555
C60 C49 1_555 1_555
C61 C52 1_555 1_555
C62 N5 1_555 1_555
C63 N5 1_555 1_555
H47 C63 1_555 1_555
H48 C63 1_555 1_555
H49 C63 1_555 1_555
C64 S4 1_555 1_555
H50 C64 1_555 1_555
H51 C64 1_555 1_555
H52 C64 1_555 1_555
N2 C14 1_555 1_555
N4 C30 1_555 1_555
N6 C62 1_555 1_555
N8 C46 1_555 1_555
C8 C13 1_555 1_555
C11 C12 1_555 1_555
C12 C13 1_555 1_555
C24 C29 1_555 1_555
C27 C28 1_555 1_555
C28 C29 1_555 1_555
C40 C45 1_555 1_555
C43 C44 1_555 1_555
C44 C45 1_555 1_555
C56 C61 1_555 1_555
C59 C60 1_555 1_555
C60 C61 1_555 1_555

#END
