
#######################################################################
#
#                 Cambridge Crystallographic Data Centre
#                                CCDC 
#
#######################################################################
#
# If this CIF has been generated from an entry in the Cambridge 
# Structural Database, then it will include bibliographic, chemical, 
# crystal, experimental, refinement or atomic coordinate data resulting 
# from the CCDC's data processing and validation procedures.
#
#######################################################################

data_OTOFOT
_chemical_formula_moiety         'C30 H34,C6 N4'
_chemical_name_systematic        
'Ethene-1,1,2,2-tetracarbonitrile pentacyclo[22.2.2.2^11,14^.0^5,18^.0^7,20^]triaconta-1(26),5(18),6,11,13,19,24,27,29-nonaene'
_symmetry_cell_setting           triclinic
_symmetry_space_group_name_H-M   'P -1'
_symmetry_Int_Tables_number      2
_space_group_name_Hall           '-P 1'
loop_
_symmetry_equiv_pos_site_id
_symmetry_equiv_pos_as_xyz
1 x,y,z
2 -x,-y,-z
_cell_length_a                   10.381(5)
_cell_length_b                   10.699(5)
_cell_length_c                   13.514(5)
_cell_angle_alpha                73.14(2)
_cell_angle_beta                 76.68(2)
_cell_angle_gamma                74.74(2)
_cell_volume                     1366.36
_exptl_crystal_colour            black
_exptl_crystal_description       needle
_cell_formula_units_Z            2
loop_
_atom_site_label
_atom_site_type_symbol
_atom_site_fract_x
_atom_site_fract_y
_atom_site_fract_z
N1 N 1.2903(3) -0.0745(3) 0.8954(2)
N2 N 1.0287(3) -0.3389(3) 0.9474(2)
N3 N 1.0599(3) -0.2808(3) 0.6193(2)
N4 N 1.3309(3) -0.0216(3) 0.5686(2)
C31 C 1.2211(6) -0.1380(6) 0.7492(5)
C32 C 1.1349(6) -0.2228(6) 0.7663(5)
C33 C 1.2516(3) -0.1147(3) 0.8422(3)
C34 C 1.0842(3) -0.2806(3) 0.8749(2)
C35 C 1.1055(3) -0.2439(3) 0.6714(3)
C36 C 1.2742(3) -0.0804(3) 0.6392(2)
C1 C 0.5509(3) 0.1423(3) 0.6788(3)
C2 C 0.6065(3) -0.0076(3) 0.7267(3)
C3 C 0.7581(3) -0.0670(3) 0.6929(3)
C4 C 0.8532(3) -0.0041(3) 0.7226(2)
C5 C 0.8559(3) -0.0144(3) 0.8277(2)
C6 C 0.9284(3) 0.0603(3) 0.8542(2)
C7 C 1.0020(3) 0.1461(3) 0.7777(2)
C8 C 1.0098(3) 0.1446(3) 0.6732(2)
C9 C 0.9360(3) 0.0725(3) 0.6474(2)
C10 C 1.0635(3) 0.2404(3) 0.8054(3)
C11 C 1.0091(3) 0.3890(3) 0.7569(3)
C12 C 0.8564(3) 0.4492(3) 0.7904(3)
C13 C 0.7594(3) 0.3907(3) 0.7581(2)
C14 C 0.7512(3) 0.4047(3) 0.6527(2)
C15 C 0.6832(3) 0.3219(3) 0.6311(2)
C16 C 0.6091(3) 0.2379(3) 0.7091(2)
C17 C 0.5933(3) 0.2468(3) 0.8130(2)
C18 C 0.6769(3) 0.3149(3) 0.8352(2)
C19 C 0.4941(3) 0.1813(3) 0.9017(2)
C20 C 0.4081(3) 0.2688(3) 0.9748(2)
C21 C 0.2980(3) 0.3864(3) 0.9292(3)
C22 C 0.3568(3) 0.4905(3) 0.8420(2)
C23 C 0.4257(3) 0.5720(3) 0.8611(2)
C24 C 0.5038(3) 0.6484(3) 0.7809(2)
C25 C 0.5120(3) 0.6466(3) 0.6774(2)
C26 C 0.4299(3) 0.5757(3) 0.6562(2)
C27 C 0.3535(3) 0.4977(3) 0.7371(2)
C28 C 0.6106(3) 0.7120(3) 0.5890(2)
C29 C 0.6976(3) 0.6249(3) 0.5156(2)
C30 C 0.8091(3) 0.5089(3) 0.5624(3)
H1 H 0.563(4) 0.170(4) 0.598(3)
H2 H 0.449(3) 0.155(3) 0.698(2)
H3 H 0.586(4) -0.026(4) 0.804(3)
H4 H 0.539(4) -0.050(4) 0.704(3)
H5 H 0.761(3) -0.155(3) 0.731(2)
H6 H 0.786(3) -0.061(3) 0.614(2)
H7 H 0.800(3) -0.081(3) 0.881(3)
H8 H 0.927(3) 0.061(3) 0.925(2)
H9 H 1.071(3) 0.199(3) 0.610(2)
H10 H 0.940(4) 0.068(4) 0.581(3)
H11 H 1.052(5) 0.229(4) 0.880(4)
H12 H 1.173(4) 0.223(3) 0.776(2)
H13 H 1.065(4) 0.439(4) 0.775(3)
H14 H 1.026(4) 0.410(4) 0.681(3)
H15 H 0.832(3) 0.438(3) 0.865(2)
H16 H 0.853(3) 0.535(3) 0.756(2)
H17 H 0.697(3) 0.316(3) 0.549(3)
H18 H 0.676(3) 0.322(3) 0.911(2)
H19 H 0.431(4) 0.142(3) 0.869(3)
H20 H 0.546(3) 0.102(3) 0.950(2)
H21 H 0.352(3) 0.201(3) 1.045(2)
H22 H 0.490(5) 0.290(4) 1.002(3)
H23 H 0.237(5) 0.349(4) 0.899(3)
H24 H 0.253(4) 0.415(4) 0.983(3)
H25 H 0.418(4) 0.589(4) 0.926(3)
H26 H 0.551(4) 0.715(4) 0.798(3)
H27 H 0.427(3) 0.567(3) 0.590(2)
H28 H 0.298(3) 0.444(3) 0.714(2)
H29 H 0.563(3) 0.795(3) 0.545(2)
H30 H 0.668(3) 0.754(3) 0.619(2)
H31 H 0.645(3) 0.580(3) 0.491(2)
H32 H 0.748(4) 0.693(3) 0.454(3)
H33 H 0.868(3) 0.543(3) 0.590(2)
H34 H 0.859(3) 0.456(3) 0.496(3)
C37? C 1.1839(6) -0.1721(7) 0.7051(5)
C38? C 1.1736(7) -0.1883(7) 0.8086(6)
loop_
_geom_bond_atom_site_label_1
_geom_bond_atom_site_label_2
_geom_bond_site_symmetry_1
_geom_bond_site_symmetry_2
N1 C33 1_555 1_555
N2 C34 1_555 1_555
N3 C35 1_555 1_555
N4 C36 1_555 1_555
C1 C2 1_555 1_555
C2 C3 1_555 1_555
C3 C4 1_555 1_555
C4 C5 1_555 1_555
C5 C6 1_555 1_555
C6 C7 1_555 1_555
C7 C8 1_555 1_555
C8 C9 1_555 1_555
C9 C4 1_555 1_555
C10 C7 1_555 1_555
C11 C10 1_555 1_555
C12 C11 1_555 1_555
C13 C12 1_555 1_555
C14 C13 1_555 1_555
C15 C14 1_555 1_555
C16 C1 1_555 1_555
C17 C16 1_555 1_555
C18 C13 1_555 1_555
C19 C17 1_555 1_555
C20 C19 1_555 1_555
C21 C20 1_555 1_555
C22 C21 1_555 1_555
C23 C22 1_555 1_555
C24 C23 1_555 1_555
C25 C24 1_555 1_555
C26 C25 1_555 1_555
C27 C22 1_555 1_555
C28 C25 1_555 1_555
C29 C28 1_555 1_555
C30 C14 1_555 1_555
C31 C32 1_555 1_555
C32 C34 1_555 1_555
C33 C31 1_555 1_555
C35 C32 1_555 1_555
C36 C31 1_555 1_555
H1 C1 1_555 1_555
H2 C1 1_555 1_555
H3 C2 1_555 1_555
H4 C2 1_555 1_555
H5 C3 1_555 1_555
H6 C3 1_555 1_555
H7 C5 1_555 1_555
H8 C6 1_555 1_555
H9 C8 1_555 1_555
H10 C9 1_555 1_555
H11 C10 1_555 1_555
H12 C10 1_555 1_555
H13 C11 1_555 1_555
H14 C11 1_555 1_555
H15 C12 1_555 1_555
H16 C12 1_555 1_555
H17 C15 1_555 1_555
H18 C18 1_555 1_555
H19 C19 1_555 1_555
H20 C19 1_555 1_555
H21 C20 1_555 1_555
H22 C20 1_555 1_555
H23 C21 1_555 1_555
H24 C21 1_555 1_555
H25 C23 1_555 1_555
H26 C24 1_555 1_555
H27 C26 1_555 1_555
H28 C27 1_555 1_555
H29 C28 1_555 1_555
H30 C28 1_555 1_555
H31 C29 1_555 1_555
H32 C29 1_555 1_555
H33 C30 1_555 1_555
H34 C30 1_555 1_555
C15 C16 1_555 1_555
C17 C18 1_555 1_555
C26 C27 1_555 1_555
C29 C30 1_555 1_555

#END
