
#######################################################################
#
#                 Cambridge Crystallographic Data Centre
#                                CCDC 
#
#######################################################################
#
# If this CIF has been generated from an entry in the Cambridge 
# Structural Database, then it will include bibliographic, chemical, 
# crystal, experimental, refinement or atomic coordinate data resulting 
# from the CCDC's data processing and validation procedures.
#
#######################################################################

data_OTOGIO
_chemical_formula_moiety         'C42 H48,C6 N4'
_chemical_name_systematic        
'Ethene-1,1,2,2-tetracarbonitrile rac-heptacyclo[34.2.2.2^17,20^.0^5,30^.0^7,32^.0^11,24^.0^13,26^]dotetraconta-1(38),5(30),6,11(24),12,17,19,25,31,36,39,41-dodecaene'
_symmetry_cell_setting           triclinic
_symmetry_space_group_name_H-M   'P -1'
_symmetry_Int_Tables_number      2
_space_group_name_Hall           '-P 1'
loop_
_symmetry_equiv_pos_site_id
_symmetry_equiv_pos_as_xyz
1 x,y,z
2 -x,-y,-z
_cell_length_a                   11.199(4)
_cell_length_b                   11.767(4)
_cell_length_c                   15.256(5)
_cell_angle_alpha                75.526(15)
_cell_angle_beta                 74.155(16)
_cell_angle_gamma                88.167(17)
_cell_volume                     1871.22
_exptl_crystal_colour            black
_exptl_crystal_description       needle
_cell_formula_units_Z            2
loop_
_atom_site_label
_atom_site_type_symbol
_atom_site_fract_x
_atom_site_fract_y
_atom_site_fract_z
C1 C 0.2779(3) 0.3411(3) 0.8592(2)
H1 H 0.281(3) 0.261(2) 0.8471(18)
H2 H 0.272(3) 0.333(3) 0.927(2)
C2 C 0.1589(3) 0.3971(3) 0.8381(2)
H3 H 0.171(3) 0.410(2) 0.7631(19)
H4 H 0.092(3) 0.343(3) 0.871(2)
C3 C 0.1257(3) 0.5140(3) 0.8651(2)
H5 H 0.119(3) 0.501(2) 0.9359(18)
H6 H 0.037(3) 0.533(3) 0.855(2)
C4 C 0.2141(3) 0.6169(2) 0.80653(19)
C5 C 0.2436(3) 0.6468(2) 0.70858(19)
H7 H 0.199(3) 0.603(3) 0.681(2)
C6 C 0.3383(3) 0.7291(2) 0.6555(2)
H8 H 0.356(3) 0.742(3) 0.584(2)
C7 C 0.4077(3) 0.7847(2) 0.69760(19)
C8 C 0.3696(3) 0.7629(2) 0.7957(2)
H9 H 0.421(3) 0.803(3) 0.825(2)
C9 C 0.2751(3) 0.6801(2) 0.8490(2)
H10 H 0.256(3) 0.672(3) 0.919(2)
C10 C 0.5246(3) 0.8559(3) 0.6404(2)
H11 H 0.516(3) 0.937(3) 0.651(2)
H12 H 0.530(3) 0.866(3) 0.570(2)
C11 C 0.6433(3) 0.8013(3) 0.6632(2)
H13 H 0.715(3) 0.857(3) 0.627(2)
H14 H 0.634(3) 0.796(2) 0.734(2)
C12 C 0.6778(3) 0.6823(3) 0.6401(2)
H15 H 0.765(3) 0.667(2) 0.6493(18)
H16 H 0.681(3) 0.689(3) 0.569(2)
C13 C 0.5902(2) 0.5794(2) 0.69904(18)
C14 C 0.5306(3) 0.5174(2) 0.65474(19)
H17 H 0.553(3) 0.533(2) 0.585(2)
C15 C 0.4399(3) 0.4293(2) 0.70381(18)
C16 C 0.3964(3) 0.4107(2) 0.80211(18)
C17 C 0.4655(3) 0.4636(2) 0.84615(19)
H18 H 0.444(3) 0.449(2) 0.9185(19)
C18 C 0.5662(3) 0.5423(2) 0.79711(18)
C19 C 0.3933(3) 0.3554(3) 0.6498(2)
H19 H 0.352(3) 0.409(2) 0.6064(18)
H20 H 0.331(3) 0.287(3) 0.695(2)
C20 C 0.4966(3) 0.3007(3) 0.5854(2)
H21 H 0.450(2) 0.262(2) 0.5464(17)
H22 H 0.551(3) 0.364(3) 0.541(2)
C21 C 0.5682(3) 0.2030(3) 0.6346(2)
H23 H 0.628(3) 0.170(2) 0.5849(18)
H24 H 0.505(3) 0.142(3) 0.679(2)
C22 C 0.6457(3) 0.5817(3) 0.8510(2)
H25 H 0.591(3) 0.630(3) 0.898(2)
H26 H 0.710(3) 0.631(3) 0.811(2)
C23 C 0.7003(3) 0.4809(3) 0.9126(2)
H27 H 0.746(3) 0.524(2) 0.9501(19)
H28 H 0.631(3) 0.422(3) 0.958(2)
C24 C 0.7990(3) 0.4096(3) 0.8598(2)
H29 H 0.845(3) 0.358(2) 0.9058(19)
H30 H 0.864(3) 0.467(3) 0.815(2)
C25 C 0.6448(3) 0.2425(2) 0.69064(19)
C26 C 0.6079(3) 0.2046(3) 0.78848(19)
H31 H 0.536(3) 0.142(3) 0.820(2)
C27 C 0.6652(3) 0.2457(2) 0.84600(18)
C28 C 0.7521(3) 0.3401(3) 0.80425(19)
C29 C 0.7967(3) 0.3713(3) 0.7062(2)
H32 H 0.862(3) 0.435(3) 0.673(2)
C30 C 0.7496(3) 0.3190(2) 0.64831(19)
C31 C 0.6315(3) 0.1848(3) 0.9506(2)
H33 H 0.538(4) 0.192(3) 0.979(2)
H34 H 0.673(3) 0.227(3) 0.985(2)
C32 C 0.6589(3) 0.0532(3) 0.9723(2)
H35 H 0.618(3) 0.013(3) 1.048(2)
H36 H 0.601(4) 0.003(3) 0.937(3)
C33 C 0.7951(3) 0.0213(3) 0.9484(2)
H37 H 0.805(3) -0.068(3) 0.9740(19)
H38 H 0.841(3) 0.061(3) 0.984(2)
C34 C 0.8625(3) 0.0525(2) 0.84491(19)
C35 C 0.9622(3) 0.1339(3) 0.8076(2)
H39 H 0.995(3) 0.163(3) 0.853(2)
C36 C 1.0116(3) 0.1761(3) 0.7112(2)
H40 H 1.081(3) 0.241(3) 0.688(2)
C37 C 0.9614(3) 0.1396(2) 0.64755(19)
C38 C 0.8698(3) 0.0496(3) 0.6846(2)
H41 H 0.835(3) 0.020(3) 0.640(2)
C39 C 0.8209(3) 0.0059(3) 0.7815(2)
H42 H 0.752(3) -0.054(3) 0.802(2)
C40 C 0.9981(3) 0.2014(3) 0.5441(2)
H43 H 1.091(3) 0.205(3) 0.517(2)
H44 H 0.957(3) 0.153(2) 0.509(2)
C41 C 0.9572(3) 0.3289(3) 0.5205(2)
H45 H 0.997(3) 0.367(3) 0.447(2)
H46 H 0.996(3) 0.375(2) 0.5560(19)
C42 C 0.8166(3) 0.3469(3) 0.5437(2)
H47 H 0.803(3) 0.434(3) 0.513(2)
H48 H 0.785(4) 0.301(3) 0.511(2)
C43 C 0.0666(3) 0.8585(3) 0.7767(2)
C44 C 0.1547(3) 0.9368(3) 0.7236(2)
C45 C 0.0349(3) 0.8323(3) 0.8787(2)
C46 C 0.2237(3) 1.0000(3) 0.7665(2)
C47 C 0.0002(3) 0.7929(3) 0.7343(2)
C48 C 0.1872(3) 0.9620(3) 0.6216(2)
N1 N 0.0053(3) 0.8060(2) 0.95808(19)
N2 N 0.2802(3) 1.0516(2) 0.79622(19)
N3 N -0.0553(3) 0.7363(2) 0.70740(19)
N4 N 0.2178(3) 0.9839(2) 0.54184(19)
loop_
_geom_bond_atom_site_label_1
_geom_bond_atom_site_label_2
_geom_bond_site_symmetry_1
_geom_bond_site_symmetry_2
C1 H1 1_555 1_555
H2 C1 1_555 1_555
C2 C1 1_555 1_555
H3 C2 1_555 1_555
H4 C2 1_555 1_555
C3 C2 1_555 1_555
H5 C3 1_555 1_555
H6 C3 1_555 1_555
C4 C3 1_555 1_555
C5 C4 1_555 1_555
H7 C5 1_555 1_555
C6 C5 1_555 1_555
H8 C6 1_555 1_555
C7 C6 1_555 1_555
C8 C7 1_555 1_555
H9 C8 1_555 1_555
C9 C4 1_555 1_555
H10 C9 1_555 1_555
C10 C7 1_555 1_555
H11 C10 1_555 1_555
H12 C10 1_555 1_555
C11 C10 1_555 1_555
H13 C11 1_555 1_555
H14 C11 1_555 1_555
C12 C11 1_555 1_555
H15 C12 1_555 1_555
H16 C12 1_555 1_555
C13 C12 1_555 1_555
C14 C13 1_555 1_555
H17 C14 1_555 1_555
C15 C14 1_555 1_555
C16 C1 1_555 1_555
C17 C16 1_555 1_555
H18 C17 1_555 1_555
C18 C13 1_555 1_555
C19 C15 1_555 1_555
H19 C19 1_555 1_555
H20 C19 1_555 1_555
C20 C19 1_555 1_555
H21 C20 1_555 1_555
H22 C20 1_555 1_555
C21 C20 1_555 1_555
H23 C21 1_555 1_555
H24 C21 1_555 1_555
C22 C18 1_555 1_555
H25 C22 1_555 1_555
H26 C22 1_555 1_555
C23 C22 1_555 1_555
H27 C23 1_555 1_555
H28 C23 1_555 1_555
C24 C23 1_555 1_555
H29 C24 1_555 1_555
H30 C24 1_555 1_555
C25 C21 1_555 1_555
C26 C25 1_555 1_555
H31 C26 1_555 1_555
C27 C26 1_555 1_555
C28 C24 1_555 1_555
C29 C28 1_555 1_555
H32 C29 1_555 1_555
C30 C25 1_555 1_555
C31 C27 1_555 1_555
H33 C31 1_555 1_555
H34 C31 1_555 1_555
C32 C31 1_555 1_555
H35 C32 1_555 1_555
H36 C32 1_555 1_555
C33 C32 1_555 1_555
H37 C33 1_555 1_555
H38 C33 1_555 1_555
C34 C33 1_555 1_555
C35 C34 1_555 1_555
H39 C35 1_555 1_555
C36 C35 1_555 1_555
H40 C36 1_555 1_555
C37 C36 1_555 1_555
C38 C37 1_555 1_555
H41 C38 1_555 1_555
C39 C34 1_555 1_555
H42 C39 1_555 1_555
C40 C37 1_555 1_555
H43 C40 1_555 1_555
H44 C40 1_555 1_555
C41 C40 1_555 1_555
H45 C41 1_555 1_555
H46 C41 1_555 1_555
C42 C30 1_555 1_555
H47 C42 1_555 1_555
H48 C42 1_555 1_555
C43 C44 1_555 1_555
C44 C46 1_555 1_555
C45 C43 1_555 1_555
C46 N2 1_555 1_555
C47 C43 1_555 1_555
C48 C44 1_555 1_555
N1 C45 1_555 1_555
N3 C47 1_555 1_555
N4 C48 1_555 1_555
C8 C9 1_555 1_555
C15 C16 1_555 1_555
C17 C18 1_555 1_555
C27 C28 1_555 1_555
C29 C30 1_555 1_555
C38 C39 1_555 1_555
C41 C42 1_555 1_555

#END
