
#######################################################################
#
#                 Cambridge Crystallographic Data Centre
#                                CCDC 
#
#######################################################################
#
# If this CIF has been generated from an entry in the Cambridge 
# Structural Database, then it will include bibliographic, chemical, 
# crystal, experimental, refinement or atomic coordinate data resulting 
# from the CCDC's data processing and validation procedures.
#
#######################################################################

data_OTOGEK
_chemical_formula_moiety         'C42 H48,C6 N4'
_chemical_name_systematic        
'Ethene-1,1,2,2-tetracarbonitrile meso-heptacyclo[34.2.2.2^17,20^.0^5,30^.0^7,32^.0^11,24^.0^13,26^]dotetraconta-1(38),5(30),6,11(24),12,17,19,25,31,36,39,41-dodecaene'
_symmetry_cell_setting           triclinic
_symmetry_space_group_name_H-M   'P -1'
_symmetry_Int_Tables_number      2
_space_group_name_Hall           '-P 1'
loop_
_symmetry_equiv_pos_site_id
_symmetry_equiv_pos_as_xyz
1 x,y,z
2 -x,-y,-z
_cell_length_a                   8.7032(19)
_cell_length_b                   9.3541(17)
_cell_length_c                   11.401(3)
_cell_angle_alpha                81.007(11)
_cell_angle_beta                 82.968(12)
_cell_angle_gamma                81.469(11)
_cell_volume                     901.919
_exptl_crystal_colour            black
_exptl_crystal_description       needle
_cell_formula_units_Z            1
loop_
_atom_site_label
_atom_site_type_symbol
_atom_site_fract_x
_atom_site_fract_y
_atom_site_fract_z
C1 C 0.34614(17) 0.39244(17) 0.79855(13)
H1 H 0.285(2) 0.310(2) 0.7979(18)
H2 H 0.268(2) 0.482(2) 0.7917(17)
C2 C 0.40996(17) 0.37326(16) 0.92117(13)
H3 H 0.322(2) 0.384(2) 0.9820(18)
H4 H 0.471(2) 0.456(2) 0.9223(17)
C3 C 0.51040(17) 0.22733(17) 0.95966(13)
H5 H 0.450(2) 0.143(2) 0.9546(17)
H6 H 0.526(2) 0.224(2) 1.0470(19)
C4 C 0.66628(17) 0.20498(16) 0.88571(12)
C5 C 0.77384(17) 0.30401(16) 0.87675(13)
H7 H 0.753(2) 0.384(2) 0.9271(18)
C6 C 0.90302(17) 0.29865(16) 0.79208(13)
H8 H 0.972(2) 0.375(2) 0.7820(18)
C7 C 0.92955(16) 0.19390(16) 0.71444(13)
C8 C 0.83233(17) 0.08486(16) 0.73356(13)
H9 H 0.854(2) 0.006(2) 0.6808(18)
C9 C 0.70261(17) 0.09087(16) 0.81746(13)
H10 H 0.631(2) 0.017(2) 0.8222(17)
C10 C 1.05262(17) 0.20299(17) 0.60868(13)
H11 H 1.104(2) 0.293(2) 0.6078(17)
H12 H 1.135(2) 0.117(2) 0.6161(18)
C11 C 0.98965(17) 0.21001(16) 0.48680(13)
H13 H 0.934(2) 0.122(2) 0.4893(17)
H14 H 1.081(2) 0.203(2) 0.4269(17)
C12 C 0.88117(17) 0.34897(15) 0.44277(13)
H15 H 0.861(2) 0.343(2) 0.3591(18)
H16 H 0.935(2) 0.435(2) 0.4417(17)
C13 C 0.72698(16) 0.37244(15) 0.51888(12)
C14 C 0.69720(17) 0.48828(15) 0.58527(12)
H17 H 0.773(2) 0.557(2) 0.5737(17)
C15 C 0.56574(17) 0.50993(15) 0.66637(12)
C16 C 0.46947(16) 0.39884(16) 0.69299(12)
C17 C 0.49201(16) 0.28975(15) 0.61983(12)
H18 H 0.420(2) 0.215(2) 0.6337(18)
C18 C 0.61257(16) 0.27945(15) 0.52783(12)
C19 C 0.61114(17) 0.17304(15) 0.44074(13)
H19 H 0.706(2) 0.172(2) 0.3833(17)
H20 H 0.611(2) 0.073(2) 0.4852(18)
C20 C 0.46832(17) 0.20891(15) 0.36847(13)
H21 H 0.468(2) 0.127(2) 0.3239(16)
H22 H 0.371(2) 0.213(2) 0.4247(17)
C21 C 0.53498(18) 0.65016(16) 0.72186(13)
H23 H 0.432(2) 0.654(2) 0.7723(18)
H24 H 0.615(2) 0.651(2) 0.7754(18)
C1A C 0.65386(17) 0.60756(17) 0.20145(13)
H1A H 0.715(2) 0.690(2) 0.2021(18)
H2A H 0.732(2) 0.518(2) 0.2083(17)
C2A C 0.59004(17) 0.62674(16) 0.07883(13)
H3A H 0.678(2) 0.616(2) 0.0180(18)
H4A H 0.529(2) 0.544(2) 0.0777(17)
C3A C 0.48960(17) 0.77267(17) 0.04034(13)
H5A H 0.550(2) 0.857(2) 0.0454(17)
H6A H 0.474(2) 0.776(2) -0.0470(19)
C4A C 0.33372(17) 0.79502(16) 0.11429(12)
C5A C 0.22616(17) 0.69599(16) 0.12325(13)
H7A H 0.247(2) 0.616(2) 0.0729(18)
C6A C 0.09698(17) 0.70135(16) 0.20792(13)
H8A H 0.028(2) 0.625(2) 0.2180(18)
C7A C 0.07045(16) 0.80610(16) 0.28556(13)
C8A C 0.16767(17) 0.91514(16) 0.26644(13)
H9A H 0.146(2) 0.994(2) 0.3192(18)
C9A C 0.29739(17) 0.90913(16) 0.18254(13)
H10A H 0.369(2) 0.983(2) 0.1778(17)
C10A C -0.05262(17) 0.79701(17) 0.39132(13)
H11A H -0.104(2) 0.707(2) 0.3922(17)
H12A H -0.135(2) 0.883(2) 0.3839(18)
C11A C 0.01035(17) 0.78999(16) 0.51320(13)
H13A H 0.066(2) 0.878(2) 0.5107(17)
H14A H -0.081(2) 0.797(2) 0.5731(17)
C12A C 0.11883(17) 0.65103(15) 0.55723(13)
H15A H 0.139(2) 0.657(2) 0.6409(18)
H16A H 0.065(2) 0.565(2) 0.5583(17)
C13A C 0.27302(16) 0.62756(15) 0.48112(12)
C14A C 0.30280(17) 0.51172(15) 0.41473(12)
H17A H 0.227(2) 0.443(2) 0.4263(17)
C15A C 0.43426(17) 0.49007(15) 0.33363(12)
C16A C 0.53053(16) 0.60116(16) 0.30701(12)
C17A C 0.50799(16) 0.71025(15) 0.38017(12)
H18A H 0.580(2) 0.785(2) 0.3663(18)
C18A C 0.38743(16) 0.72055(15) 0.47217(12)
C19A C 0.38886(17) 0.82696(15) 0.55926(13)
H19A H 0.294(2) 0.828(2) 0.6167(17)
H20A H 0.389(2) 0.927(2) 0.5148(18)
C20A C 0.53168(17) 0.79109(15) 0.63153(13)
H21A H 0.532(2) 0.873(2) 0.6761(16)
H22A H 0.629(2) 0.787(2) 0.5753(17)
C21A C 0.46502(18) 0.34984(16) 0.27814(13)
H23A H 0.568(2) 0.346(2) 0.2277(18)
H24A H 0.385(2) 0.349(2) 0.2246(18)
C22 C 0.9435(2) -0.0430(2) 1.01413(16)
C23 C 0.81974(19) -0.00959(19) 1.10715(14)
C24 C 0.9475(2) -0.16801(18) 0.95087(15)
N1 N 0.71828(16) 0.00675(17) 1.17793(13)
N2 N 0.9397(2) -0.26642(17) 0.90733(15)
C22A C 1.0565(2) 0.0430(2) 0.98587(16)
C23A C 1.18026(19) 0.00959(19) 0.89285(14)
C24A C 1.0525(2) 0.16801(18) 1.04913(15)
N1A N 1.28172(16) -0.00675(17) 0.82207(13)
N2A N 1.0603(2) 0.26642(17) 1.09267(15)
loop_
_geom_bond_atom_site_label_1
_geom_bond_atom_site_label_2
_geom_bond_site_symmetry_1
_geom_bond_site_symmetry_2
C1 H1 1_555 1_555
H2 C1 1_555 1_555
C2 C1 1_555 1_555
H3 C2 1_555 1_555
H4 C2 1_555 1_555
C3 C2 1_555 1_555
H5 C3 1_555 1_555
H6 C3 1_555 1_555
C4 C3 1_555 1_555
C5 C4 1_555 1_555
H7 C5 1_555 1_555
C6 C5 1_555 1_555
H8 C6 1_555 1_555
C7 C6 1_555 1_555
C8 C7 1_555 1_555
H9 C8 1_555 1_555
C9 C4 1_555 1_555
H10 C9 1_555 1_555
C10 C7 1_555 1_555
H11 C10 1_555 1_555
H12 C10 1_555 1_555
C11 C10 1_555 1_555
H13 C11 1_555 1_555
H14 C11 1_555 1_555
C12 C11 1_555 1_555
H15 C12 1_555 1_555
H16 C12 1_555 1_555
C13 C12 1_555 1_555
C14 C13 1_555 1_555
H17 C14 1_555 1_555
C15 C14 1_555 1_555
C16 C1 1_555 1_555
C17 C16 1_555 1_555
H18 C17 1_555 1_555
C18 C13 1_555 1_555
C19 C18 1_555 1_555
H19 C19 1_555 1_555
H20 C19 1_555 1_555
C20 C19 1_555 1_555
H21 C20 1_555 1_555
H22 C20 1_555 1_555
C21 C15 1_555 1_555
H23 C21 1_555 1_555
H24 C21 1_555 1_555
C22 C23 1_555 1_555
C23 N1 1_555 1_555
C24 C22 1_555 1_555
N2 C24 1_555 1_555
C1A H1A 1_555 1_555
H2A C1A 1_555 1_555
C2A C1A 1_555 1_555
H3A C2A 1_555 1_555
H4A C2A 1_555 1_555
C3A C2A 1_555 1_555
H5A C3A 1_555 1_555
H6A C3A 1_555 1_555
C4A C3A 1_555 1_555
C5A C4A 1_555 1_555
H7A C5A 1_555 1_555
C6A C5A 1_555 1_555
H8A C6A 1_555 1_555
C7A C6A 1_555 1_555
C8A C7A 1_555 1_555
H9A C8A 1_555 1_555
C9A C4A 1_555 1_555
H10A C9A 1_555 1_555
C10A C7A 1_555 1_555
H11A C10A 1_555 1_555
H12A C10A 1_555 1_555
C11A C10A 1_555 1_555
H13A C11A 1_555 1_555
H14A C11A 1_555 1_555
C12A C11A 1_555 1_555
H15A C12A 1_555 1_555
H16A C12A 1_555 1_555
C13A C12A 1_555 1_555
C14A C13A 1_555 1_555
H17A C14A 1_555 1_555
C15A C14A 1_555 1_555
C16A C1A 1_555 1_555
C17A C16A 1_555 1_555
H18A C17A 1_555 1_555
C18A C13A 1_555 1_555
C19A C18A 1_555 1_555
H19A C19A 1_555 1_555
H20A C19A 1_555 1_555
C20A C21 1_555 1_555
H21A C20A 1_555 1_555
H22A C20A 1_555 1_555
C21A C20 1_555 1_555
H23A C21A 1_555 1_555
H24A C21A 1_555 1_555
C22A C22 1_555 1_555
C23A C22A 1_555 1_555
C24A C22A 1_555 1_555
N1A C23A 1_555 1_555
N2A C24A 1_555 1_555
C8 C9 1_555 1_555
C15 C16 1_555 1_555
C17 C18 1_555 1_555
C8A C9A 1_555 1_555
C15A C16A 1_555 1_555
C15A C21A 1_555 1_555
C17A C18A 1_555 1_555
C19A C20A 1_555 1_555

#END
