
#######################################################################
#
#                 Cambridge Crystallographic Data Centre
#                                CCDC 
#
#######################################################################
#
# If this CIF has been generated from an entry in the Cambridge 
# Structural Database, then it will include bibliographic, chemical, 
# crystal, experimental, refinement or atomic coordinate data resulting 
# from the CCDC's data processing and validation procedures.
#
#######################################################################

data_OTUSED
_chemical_formula_moiety         'C23 H24 N1 1+,F6 P1 1-'
_chemical_name_systematic        
'4-t-butyl-1-(9H-fluoren-2-ylmethyl)pyridinium hexafluorophosphate'
_symmetry_cell_setting           monoclinic
_symmetry_space_group_name_H-M   'P 21/n'
_symmetry_Int_Tables_number      14
_space_group_name_Hall           '-P 2yn'
loop_
_symmetry_equiv_pos_site_id
_symmetry_equiv_pos_as_xyz
1 x,y,z
2 1/2-x,1/2+y,1/2-z
3 -x,-y,-z
4 1/2+x,1/2-y,1/2+z
_cell_length_a                   14.0767(7)
_cell_length_b                   12.1996(8)
_cell_length_c                   14.3043(8)
_cell_angle_alpha                90
_cell_angle_beta                 117.806(2)
_cell_angle_gamma                90
_cell_volume                     2172.83
_exptl_crystal_colour            colorless
_exptl_crystal_description       prism
_cell_formula_units_Z            4
loop_
_atom_site_label
_atom_site_type_symbol
_atom_site_fract_x
_atom_site_fract_y
_atom_site_fract_z
C1 C 0.1434(6) 0.4769(4) 0.8747(5)
C2 C 0.0952(4) 0.3719(4) 0.8503(3)
H1 H 0.1341 0.3121 0.8424
C3 C -0.0077(3) 0.3541(4) 0.8375(3)
H2 H -0.0389 0.2831 0.8214
C4 C -0.0637(3) 0.4411(4) 0.8487(3)
C5 C -0.0200(3) 0.5453(4) 0.8703(3)
C6 C 0.0844(3) 0.5640(4) 0.8836(3)
H3 H 0.1142 0.6357 0.8985
C7 C -0.0968(3) 0.6266(3) 0.8757(3)
H4 H -0.0676 0.6614 0.9462
H5 H -0.1166 0.684 0.8208
C8 C -0.1895(3) 0.5528(4) 0.8548(3)
C9 C -0.2899(3) 0.5830(4) 0.8515(3)
H6 H -0.3066 0.6569 0.8591
C10 C -0.3634(3) 0.4942(4) 0.8362(3)
H7 H -0.43 0.5114 0.8346
C11 C -0.3432(3) 0.3849(4) 0.8235(3)
H8 H -0.3931 0.3279 0.8136
C12 C -0.2445(3) 0.3656(4) 0.8266(3)
H9 H -0.2264 0.2924 0.8186
C13 C -0.1744(4) 0.4443(4) 0.8403(3)
C14 C 0.25723(17) 0.4919(2) 0.89262(16)
H10 H 0.2848 0.5635 0.9272
H11 H 0.3033 0.4338 0.9407
N1 N 0.26390(13) 0.48720(16) 0.79089(13)
C15 C 0.33584(17) 0.4217(2) 0.78367(16)
H12 H 0.3797 0.376 0.8417
C16 C 0.34778(17) 0.4190(2) 0.69369(16)
H13 H 0.3993 0.3712 0.6902
C17 C 0.28581(15) 0.48521(18) 0.60800(15)
C18 C 0.21137(18) 0.5518(2) 0.61823(17)
H14 H 0.1666 0.5984 0.5614
C19 C 0.20153(18) 0.5515(2) 0.70913(18)
H15 H 0.1497 0.5975 0.7143
C20 C 0.29482(18) 0.48563(19) 0.50552(16)
C21 C 0.1864(2) 0.4483(3) 0.41544(18)
H16 H 0.1914 0.4442 0.3495
H17 H 0.1306 0.5011 0.4073
H18 H 0.1682 0.3759 0.4321
C22 C 0.3830(2) 0.4091(2) 0.5108(2)
H19 H 0.4521 0.4313 0.5693
H20 H 0.3868 0.4131 0.4442
H21 H 0.3666 0.3337 0.5222
C23 C 0.3203(3) 0.6023(2) 0.4842(2)
H22 H 0.3887 0.6262 0.5428
H23 H 0.2629 0.652 0.4779
H24 H 0.3257 0.6034 0.4183
P1 P 0.03252(5) 0.23850(5) 0.56572(5)
F1 F 0.06826(18) 0.19595(16) 0.68237(14)
F2 F 0.02462(11) 0.11374(12) 0.52894(13)
F3 F 0.15474(12) 0.24293(15) 0.58906(17)
F4 F -0.00546(13) 0.27810(14) 0.44717(12)
F5 F 0.03825(16) 0.36196(13) 0.60147(14)
F6 F -0.09113(13) 0.23305(14) 0.53944(16)
C24? C 0.1441(11) 0.4981(8) 0.8778(10)
C25? C 0.0859(7) 0.4070(7) 0.8580(6)
H25? H 0.1133 0.3383 0.8503
C26? C -0.0193(6) 0.4162(7) 0.8487(5)
C27? C -0.0573(6) 0.5150(8) 0.8608(5)
C28? C 0.0034(5) 0.6084(7) 0.8814(5)
H26? H -0.0239 0.677 0.8893
C29? C 0.1068(6) 0.6003(7) 0.8905(6)
H27? H 0.1509 0.6635 0.9051
C30? C -0.0975(5) 0.3237(6) 0.8267(5)
H28? H -0.1188 0.2906 0.7565
H29? H -0.0671 0.266 0.8816
C31? C -0.1872(6) 0.3783(7) 0.8299(5)
C32? C -0.2823(6) 0.3366(7) 0.8220(5)
H30? H -0.3004 0.2611 0.8113
C33? C -0.3394(6) 0.5332(7) 0.8425(5)
H31? H -0.3915 0.5828 0.8425
C34? C -0.3532(6) 0.4212(8) 0.8316(6)
H32? H -0.4172 0.3942 0.83
C35? C -0.2362(7) 0.5657(7) 0.8539(5)
H33? H -0.2151 0.6405 0.8655
C36? C -0.1645(7) 0.4840(7) 0.8477(6)
loop_
_geom_bond_atom_site_label_1
_geom_bond_atom_site_label_2
_geom_bond_site_symmetry_1
_geom_bond_site_symmetry_2
C1 C2 1_555 1_555
C2 H1 1_555 1_555
C3 C2 1_555 1_555
H2 C3 1_555 1_555
C4 C3 1_555 1_555
C5 C4 1_555 1_555
C6 C1 1_555 1_555
H3 C6 1_555 1_555
C7 C5 1_555 1_555
H4 C7 1_555 1_555
H5 C7 1_555 1_555
C8 C7 1_555 1_555
C9 C8 1_555 1_555
H6 C9 1_555 1_555
C10 C9 1_555 1_555
H7 C10 1_555 1_555
C11 C10 1_555 1_555
H8 C11 1_555 1_555
C12 C11 1_555 1_555
H9 C12 1_555 1_555
C13 C4 1_555 1_555
C14 C1 1_555 1_555
H10 C14 1_555 1_555
H11 C14 1_555 1_555
N1 C14 1_555 1_555
C15 N1 1_555 1_555
H12 C15 1_555 1_555
C16 C15 1_555 1_555
H13 C16 1_555 1_555
C17 C16 1_555 1_555
C18 C17 1_555 1_555
H14 C18 1_555 1_555
C19 N1 1_555 1_555
H15 C19 1_555 1_555
C20 C17 1_555 1_555
C21 C20 1_555 1_555
H16 C21 1_555 1_555
H17 C21 1_555 1_555
H18 C21 1_555 1_555
C22 C20 1_555 1_555
H19 C22 1_555 1_555
H20 C22 1_555 1_555
H21 C22 1_555 1_555
C23 C20 1_555 1_555
H22 C23 1_555 1_555
H23 C23 1_555 1_555
H24 C23 1_555 1_555
P1 F1 1_555 1_555
F2 P1 1_555 1_555
F3 P1 1_555 1_555
F4 P1 1_555 1_555
F5 P1 1_555 1_555
F6 P1 1_555 1_555
C5 C6 1_555 1_555
C8 C13 1_555 1_555
C12 C13 1_555 1_555
C18 C19 1_555 1_555

#END
