
#######################################################################
#
#                 Cambridge Crystallographic Data Centre
#                                CCDC 
#
#######################################################################
#
# If this CIF has been generated from an entry in the Cambridge 
# Structural Database, then it will include bibliographic, chemical, 
# crystal, experimental, refinement or atomic coordinate data resulting 
# from the CCDC's data processing and validation procedures.
#
#######################################################################

data_OVABIY
_chemical_formula_moiety         'C32 H53 Cl1 O6 Si2'
_chemical_name_systematic        
'methyl 12,14-bis((t-butyl(dimethyl)silyl)oxy)-11-chloro-10,17-dimethyl-4-oxo-2-oxapentacyclo[7.6.1.1^3,15^.0^1,6^.0^13,16^]heptadec-15(17)-ene-9-carboxylate'
_symmetry_cell_setting           orthorhombic
_symmetry_space_group_name_H-M   'P b c a'
_symmetry_Int_Tables_number      61
_space_group_name_Hall           '-P 2ac 2ab'
loop_
_symmetry_equiv_pos_site_id
_symmetry_equiv_pos_as_xyz
1 x,y,z
2 1/2-x,-y,1/2+z
3 1/2+x,1/2-y,-z
4 -x,1/2+y,1/2-z
5 -x,-y,-z
6 1/2+x,y,1/2-z
7 1/2-x,1/2+y,z
8 x,1/2-y,1/2+z
_cell_length_a                   13.8776(12)
_cell_length_b                   20.7288(14)
_cell_length_c                   24.5092(19)
_cell_angle_alpha                90
_cell_angle_beta                 90
_cell_angle_gamma                90
_cell_volume                     7050.46
_exptl_crystal_colour            colorless
_exptl_crystal_description       block
_cell_formula_units_Z            8
loop_
_atom_site_label
_atom_site_type_symbol
_atom_site_fract_x
_atom_site_fract_y
_atom_site_fract_z
Cl1 Cl 0.30542(16) 0.53463(12) 0.28957(10)
Si1 Si 0.15693(14) 0.46309(9) 0.41817(8)
Si2 Si 0.3649(2) 0.28670(13) 0.32778(13)
O1 O 0.2556(3) 0.4460(2) 0.38273(19)
O2 O 0.4214(3) 0.34519(18) 0.36136(18)
O3 O 0.6601(5) 0.5534(3) 0.4344(3)
O4 O 0.6795(4) 0.5730(3) 0.3451(2)
O5 O 0.6311(3) 0.4001(2) 0.48600(19)
O6 O 0.7247(5) 0.2417(3) 0.4884(3)
C1 C 0.4148(4) 0.4383(3) 0.4229(3)
H1 H 0.3950 0.4471 0.4605
C2 C 0.5244(4) 0.4587(3) 0.4205(2)
H2 H 0.5345 0.4880 0.4513
C3 C 0.5594(5) 0.4960(3) 0.3688(3)
C4 C 0.4789(5) 0.5363(3) 0.3407(3)
H3 H 0.5023 0.5480 0.3044
C5 C 0.3909(5) 0.4931(3) 0.3329(3)
H4 H 0.4109 0.4529 0.3152
C6 C 0.3466(5) 0.4775(3) 0.3880(3)
H5 H 0.3354 0.5185 0.4069
C7 C 0.4119(5) 0.3645(3) 0.4177(3)
H6 H 0.3541 0.3462 0.4346
C8 C 0.5008(5) 0.3478(3) 0.4488(3)
C9 C 0.5793(5) 0.3960(3) 0.4349(2)
C10 C 0.6469(5) 0.3652(3) 0.3916(3)
H7 H 0.6079 0.3345 0.3707
C11 C 0.6891(6) 0.4129(4) 0.3508(3)
H8 H 0.7342 0.4414 0.3691
H9 H 0.7235 0.3898 0.3224
C12 C 0.6084(6) 0.4517(3) 0.3260(3)
H10 H 0.5608 0.4227 0.3107
H11 H 0.6338 0.4780 0.2966
C13 C 0.7264(6) 0.3258(4) 0.4206(4)
H12 H 0.7485 0.2924 0.3959
H13 H 0.7806 0.3541 0.4278
C14 C 0.6980(6) 0.2953(4) 0.4722(4)
C15 C 0.6281(5) 0.3350(3) 0.5051(3)
H14 H 0.6414 0.3322 0.5443
C16 C 0.5265(5) 0.3121(3) 0.4914(3)
C17 C 0.1506(7) 0.4106(4) 0.4786(3)
H15 H 0.1596 0.3665 0.4677
H16 H 0.0887 0.4153 0.4956
H17 H 0.2001 0.4227 0.5040
C18 C 0.0512(5) 0.4483(4) 0.3732(3)
C19 C 0.0590(10) 0.3823(6) 0.3467(7)
H18 H 0.1243 0.3750 0.3354
H19 H 0.0173 0.3806 0.3155
H20 H 0.0402 0.3497 0.3724
C20 C -0.0414(7) 0.4533(7) 0.4038(5)
H21 H -0.0406 0.4237 0.4339
H22 H -0.0940 0.4429 0.3799
H23 H -0.0491 0.4965 0.4172
C21 C 0.0471(8) 0.4948(6) 0.3262(4)
H24 H 0.0414 0.5381 0.3399
H25 H -0.0077 0.4850 0.3037
H26 H 0.1049 0.4911 0.3049
C22 C 0.1605(6) 0.5487(4) 0.4408(4)
H27 H 0.2069 0.5534 0.4696
H28 H 0.0980 0.5612 0.4539
H29 H 0.1784 0.5757 0.4106
C23 C 0.4566(6) 0.5989(3) 0.3707(4)
H30 H 0.3943 0.6143 0.3598
H31 H 0.5046 0.6305 0.3620
H32 H 0.4568 0.5911 0.4094
C24 C 0.6389(6) 0.5431(4) 0.3878(4)
C25 C 0.7559(8) 0.6183(5) 0.3590(5)
H33 H 0.7922 0.6286 0.3268
H34 H 0.7978 0.5991 0.3856
H35 H 0.7281 0.6569 0.3737
C26 C 0.4771(6) 0.2592(3) 0.5212(4)
H36 H 0.5152 0.2206 0.5190
H37 H 0.4151 0.2515 0.5050
H38 H 0.4690 0.2712 0.5587
C27 C 0.2673(7) 0.2514(4) 0.3681(4)
H39 H 0.2939 0.2295 0.3992
H40 H 0.2321 0.2213 0.3461
H41 H 0.2248 0.2850 0.3803
C28 C 0.3197(9) 0.3256(5) 0.2613(4)
H42 H 0.2707 0.3568 0.2696
H43 H 0.2934 0.2929 0.2379
H44 H 0.3724 0.3466 0.2431
C29 C 0.4493(8) 0.2280(5) 0.3028(5)
C30 C 0.4978(9) 0.1974(4) 0.3625(6)
H45 H 0.5401 0.2288 0.3785
H46 H 0.5335 0.1588 0.3545
H47 H 0.4468 0.1875 0.3876
C31 C 0.3954(10) 0.1747(5) 0.2690(5)
H48 H 0.3400 0.1602 0.2890
H49 H 0.4380 0.1390 0.2628
H50 H 0.3753 0.1924 0.2346
C32 C 0.5296(8) 0.2554(5) 0.2682(4)
H51 H 0.5034 0.2716 0.2347
H52 H 0.5756 0.2221 0.2604
H53 H 0.5607 0.2898 0.2876
loop_
_geom_bond_atom_site_label_1
_geom_bond_atom_site_label_2
_geom_bond_site_symmetry_1
_geom_bond_site_symmetry_2
Cl1 C5 1_555 1_555
Si1 O1 1_555 1_555
Si2 O2 1_555 1_555
O1 C6 1_555 1_555
O2 C7 1_555 1_555
O3 C24 1_555 1_555
O4 C24 1_555 1_555
O5 C9 1_555 1_555
O6 C14 1_555 1_555
C1 H1 1_555 1_555
C2 C1 1_555 1_555
H2 C2 1_555 1_555
C3 C2 1_555 1_555
C4 C3 1_555 1_555
H3 C4 1_555 1_555
C5 C4 1_555 1_555
H4 C5 1_555 1_555
C6 C1 1_555 1_555
H5 C6 1_555 1_555
C7 C1 1_555 1_555
H6 C7 1_555 1_555
C8 C7 1_555 1_555
C9 C2 1_555 1_555
C10 C9 1_555 1_555
H7 C10 1_555 1_555
C11 C10 1_555 1_555
H8 C11 1_555 1_555
H9 C11 1_555 1_555
C12 C3 1_555 1_555
H10 C12 1_555 1_555
H11 C12 1_555 1_555
C13 C10 1_555 1_555
H12 C13 1_555 1_555
H13 C13 1_555 1_555
C14 C13 1_555 1_555
C15 O5 1_555 1_555
H14 C15 1_555 1_555
C16 C8 1_555 1_555
C17 Si1 1_555 1_555
H15 C17 1_555 1_555
H16 C17 1_555 1_555
H17 C17 1_555 1_555
C18 Si1 1_555 1_555
C19 C18 1_555 1_555
H18 C19 1_555 1_555
H19 C19 1_555 1_555
H20 C19 1_555 1_555
C20 C18 1_555 1_555
H21 C20 1_555 1_555
H22 C20 1_555 1_555
H23 C20 1_555 1_555
C21 C18 1_555 1_555
H24 C21 1_555 1_555
H25 C21 1_555 1_555
H26 C21 1_555 1_555
C22 Si1 1_555 1_555
H27 C22 1_555 1_555
H28 C22 1_555 1_555
H29 C22 1_555 1_555
C23 C4 1_555 1_555
H30 C23 1_555 1_555
H31 C23 1_555 1_555
H32 C23 1_555 1_555
C24 C3 1_555 1_555
C25 O4 1_555 1_555
H33 C25 1_555 1_555
H34 C25 1_555 1_555
H35 C25 1_555 1_555
C26 C16 1_555 1_555
H36 C26 1_555 1_555
H37 C26 1_555 1_555
H38 C26 1_555 1_555
C27 Si2 1_555 1_555
H39 C27 1_555 1_555
H40 C27 1_555 1_555
H41 C27 1_555 1_555
C28 Si2 1_555 1_555
H42 C28 1_555 1_555
H43 C28 1_555 1_555
H44 C28 1_555 1_555
C29 Si2 1_555 1_555
C30 C29 1_555 1_555
H45 C30 1_555 1_555
H46 C30 1_555 1_555
H47 C30 1_555 1_555
C31 C29 1_555 1_555
H48 C31 1_555 1_555
H49 C31 1_555 1_555
H50 C31 1_555 1_555
C32 C29 1_555 1_555
H51 C32 1_555 1_555
H52 C32 1_555 1_555
H53 C32 1_555 1_555
C5 C6 1_555 1_555
C8 C9 1_555 1_555
C11 C12 1_555 1_555
C14 C15 1_555 1_555
C15 C16 1_555 1_555

#END
