
#######################################################################
#
#                 Cambridge Crystallographic Data Centre
#                                CCDC 
#
#######################################################################
#
# If this CIF has been generated from an entry in the Cambridge 
# Structural Database, then it will include bibliographic, chemical, 
# crystal, experimental, refinement or atomic coordinate data resulting 
# from the CCDC's data processing and validation procedures.
#
#######################################################################

data_OVABEU
_chemical_formula_moiety         'C26 H36 O4 Si1'
_chemical_name_systematic        
'methyl 4-((t-butyl(dimethyl)silyl)oxy)-1,5-dimethyl-7-oxo-3a,4,7,9,10,10b-hexahydrocyclohepta[bc]acenaphthylene-10a(1H)-carboxylate'
_symmetry_cell_setting           triclinic
_symmetry_space_group_name_H-M   'P -1'
_symmetry_Int_Tables_number      2
_space_group_name_Hall           '-P 1'
loop_
_symmetry_equiv_pos_site_id
_symmetry_equiv_pos_as_xyz
1 x,y,z
2 -x,-y,-z
_cell_length_a                   7.892(2)
_cell_length_b                   11.6327(17)
_cell_length_c                   14.670(3)
_cell_angle_alpha                105.323(14)
_cell_angle_beta                 101.77(2)
_cell_angle_gamma                99.714(17)
_cell_volume                     1235.74
_exptl_crystal_colour            colorless
_exptl_crystal_description       block
_cell_formula_units_Z            2
loop_
_atom_site_label
_atom_site_type_symbol
_atom_site_fract_x
_atom_site_fract_y
_atom_site_fract_z
Si1 Si 0.6858(2) 0.74686(13) 0.11789(11)
O1 O 0.6137(6) 1.3339(3) 0.3204(3)
O2 O 0.7203(6) 1.3727(4) 0.4789(3)
O3 O 0.7166(5) 0.8747(3) 0.2050(2)
O4 O 0.7418(6) 0.9207(4) 0.6568(3)
C1 C 0.8728(7) 1.2631(4) 0.3713(3)
C2 C 0.9317(7) 1.2899(4) 0.2827(4)
H1 H 1.0439 1.2640 0.2843
C3 C 0.8094(8) 1.2134(5) 0.1840(4)
H2 H 0.8247 1.2377 0.1301
C4 C 0.6815(8) 1.1141(5) 0.1675(4)
H3 H 0.6158 1.0702 0.1037
C5 C 0.6428(7) 1.0730(4) 0.2508(4)
H4 H 0.5468 1.1093 0.2698
C6 C 0.8042(6) 1.1244(4) 0.3365(3)
H5 H 0.8999 1.0915 0.3137
C7 C 0.7619(7) 1.0606(4) 0.4090(4)
C8 C 0.8579(8) 1.1124(4) 0.5093(4)
C9 C 0.9812(8) 1.2381(4) 0.5414(4)
H6 H 1.0919 1.2355 0.5832
H7 H 0.9285 1.2949 0.5814
C10 C 1.0278(7) 1.2925(4) 0.4613(4)
H8 H 1.0689 1.3809 0.4893
H9 H 1.1251 1.2612 0.4410
C11 C 0.6411(7) 0.9520(5) 0.3584(4)
C12 C 0.5587(8) 0.8585(4) 0.3949(5)
C13 C 0.6050(8) 0.8632(5) 0.4919(5)
H10 H 0.5380 0.7974 0.5037
C14 C 0.7300(9) 0.9441(6) 0.5776(5)
C15 C 0.8458(8) 1.0603(5) 0.5820(4)
H11 H 0.9218 1.1048 0.6432
C16 C 0.7298(8) 1.3297(4) 0.3979(5)
C17 C 0.4707(8) 1.3919(6) 0.3400(5)
H12 H 0.3959 1.3916 0.2795
H13 H 0.5200 1.4749 0.3817
H14 H 0.4014 1.3475 0.3720
C18 C 0.5982(7) 0.9386(4) 0.2477(4)
H15 H 0.4730 0.8984 0.2143
C19 C 0.4187(8) 0.7518(5) 0.3223(4)
H16 H 0.3196 0.7806 0.2944
H17 H 0.3792 0.6948 0.3548
H18 H 0.4678 0.7117 0.2713
C20 C 0.4543(8) 0.6982(6) 0.0423(4)
H19 H 0.3778 0.6676 0.0781
H20 H 0.4454 0.6346 -0.0168
H21 H 0.4188 0.7669 0.0262
C21 C 0.7414(10) 0.6293(5) 0.1763(4)
H22 H 0.8683 0.6396 0.1944
H23 H 0.6868 0.5489 0.1309
H24 H 0.6978 0.6388 0.2337
C22 C 0.8442(10) 0.7713(5) 0.0438(4)
C23 C 1.0324(10) 0.8337(7) 0.1065(5)
H25 H 1.0329 0.9117 0.1499
H26 H 1.1090 0.8456 0.0650
H27 H 1.0742 0.7832 0.1441
C24 C 0.7879(10) 0.8543(6) -0.0189(5)
H28 H 0.6698 0.8170 -0.0606
H29 H 0.8694 0.8637 -0.0583
H30 H 0.7897 0.9333 0.0235
C25 C 0.8459(11) 0.6473(5) -0.0280(5)
H31 H 0.8707 0.5913 0.0080
H32 H 0.9363 0.6601 -0.0616
H33 H 0.7318 0.6135 -0.0747
C26 C 0.9793(8) 1.4272(4) 0.2914(4)
H34 H 1.0323 1.4374 0.2398
H35 H 1.0621 1.4719 0.3536
H36 H 0.8732 1.4577 0.2861
loop_
_geom_bond_atom_site_label_1
_geom_bond_atom_site_label_2
_geom_bond_site_symmetry_1
_geom_bond_site_symmetry_2
Si1 O3 1_555 1_555
O1 C16 1_555 1_555
O2 C16 1_555 1_555
O3 C18 1_555 1_555
O4 C14 1_555 1_555
C1 C2 1_555 1_555
C2 H1 1_555 1_555
C3 C2 1_555 1_555
H2 C3 1_555 1_555
C4 C3 1_555 1_555
H3 C4 1_555 1_555
C5 C4 1_555 1_555
H4 C5 1_555 1_555
C6 C1 1_555 1_555
H5 C6 1_555 1_555
C7 C6 1_555 1_555
C8 C7 1_555 1_555
C9 C8 1_555 1_555
H6 C9 1_555 1_555
H7 C9 1_555 1_555
C10 C1 1_555 1_555
H8 C10 1_555 1_555
H9 C10 1_555 1_555
C11 C7 1_555 1_555
C12 C11 1_555 1_555
C13 C12 1_555 1_555
H10 C13 1_555 1_555
C14 C13 1_555 1_555
C15 C8 1_555 1_555
H11 C15 1_555 1_555
C16 C1 1_555 1_555
C17 O1 1_555 1_555
H12 C17 1_555 1_555
H13 C17 1_555 1_555
H14 C17 1_555 1_555
C18 C5 1_555 1_555
H15 C18 1_555 1_555
C19 C12 1_555 1_555
H16 C19 1_555 1_555
H17 C19 1_555 1_555
H18 C19 1_555 1_555
C20 Si1 1_555 1_555
H19 C20 1_555 1_555
H20 C20 1_555 1_555
H21 C20 1_555 1_555
C21 Si1 1_555 1_555
H22 C21 1_555 1_555
H23 C21 1_555 1_555
H24 C21 1_555 1_555
C22 Si1 1_555 1_555
C23 C22 1_555 1_555
H25 C23 1_555 1_555
H26 C23 1_555 1_555
H27 C23 1_555 1_555
C24 C22 1_555 1_555
H28 C24 1_555 1_555
H29 C24 1_555 1_555
H30 C24 1_555 1_555
C25 C22 1_555 1_555
H31 C25 1_555 1_555
H32 C25 1_555 1_555
H33 C25 1_555 1_555
C26 C2 1_555 1_555
H34 C26 1_555 1_555
H35 C26 1_555 1_555
H36 C26 1_555 1_555
C5 C6 1_555 1_555
C9 C10 1_555 1_555
C11 C18 1_555 1_555
C14 C15 1_555 1_555

#END
