
#######################################################################
#
#                 Cambridge Crystallographic Data Centre
#                                CCDC 
#
#######################################################################
#
# If this CIF has been generated from an entry in the Cambridge 
# Structural Database, then it will include bibliographic, chemical, 
# crystal, experimental, refinement or atomic coordinate data resulting 
# from the CCDC's data processing and validation procedures.
#
#######################################################################

data_OVAHEA
_chemical_name_common            
'26,28-bis(n-propoxy)-25,27-(5,10,10,15,20,20-hexamethyl-7-((1-(dicyanomethylidene)-3-hydroxy-1,3-dihydro-2H-inden-2-ylidene)methyl)-calix[4]pyrrole-5,15-bis(2-(4-phenoxy)ethoxy))calix[4]arene chloroform solvate'
_chemical_formula_moiety         'C89 H84 N6 O7,2(C1 H1 Cl3)'
_chemical_name_systematic        
'(2-((1,37,42,42,51,51-hexamethyl-69,72-dipropoxy-6,9,29,32-tetraoxa-56,57,58,59-tetraazatridecacyclo[35.9.9.7^11,27^.2^2,5^.2^33,36^.1^17,21^.1^38,41^.1^43,46^.1^47,50^.1^52,55^.1^63,67^.0^10,15^.0^23,28^]doheptaconta-2,4,10,12,14,17(69),18,20,23,25,27,33,35,38,40,43,45,47,49,52,54,60,63(72),64,66,70-hexacosaen-39-yl)methylene)-3-oxo-2,3-dihydro-1H-inden-1-ylidene)malononitrile chloroform solvate'
_symmetry_cell_setting           triclinic
_symmetry_space_group_name_H-M   'P -1'
_symmetry_Int_Tables_number      2
_space_group_name_Hall           '-P 1'
loop_
_symmetry_equiv_pos_site_id
_symmetry_equiv_pos_as_xyz
1 x,y,z
2 -x,-y,-z
_cell_length_a                   14.8278(10)
_cell_length_b                   15.0838(10)
_cell_length_c                   20.0662(12)
_cell_angle_alpha                108.103(3)
_cell_angle_beta                 97.486(3)
_cell_angle_gamma                103.078(3)
_cell_volume                     4056.5
_exptl_crystal_colour            yellow
_exptl_crystal_description       needles
_cell_formula_units_Z            2
loop_
_atom_site_label
_atom_site_type_symbol
_atom_site_fract_x
_atom_site_fract_y
_atom_site_fract_z
C1 C 0.8883(3) 1.3226(3) 0.39233(19)
C2 C 0.8851(3) 1.4069(3) 0.3821(2)
H1 H 0.9384 1.4597 0.3884
C3 C 0.7885(3) 1.4029(3) 0.3603(2)
H2 H 0.7661 1.4522 0.3497
C4 C 0.7336(3) 1.3148(2) 0.35757(17)
C5 C 0.6274(2) 1.2687(2) 0.33624(16)
C6 C 0.5919(3) 1.2375(2) 0.25532(17)
C7 C 0.5014(2) 1.1864(2) 0.21169(17)
C8 C 0.5119(3) 1.1717(2) 0.13865(18)
H3 H 0.4626 1.1394 0.0967
C9 C 0.6041(3) 1.2121(2) 0.14026(17)
C10 C 0.6587(3) 1.2157(2) 0.08173(18)
C11 C 0.7536(3) 1.1999(2) 0.10343(17)
C12 C 0.8451(3) 1.2558(2) 0.11707(18)
H4 H 0.8643 1.3184 0.1136
C13 C 0.9062(3) 1.2046(2) 0.13722(19)
H5 H 0.9735 1.2261 0.1488
C14 C 0.8512(2) 1.1183(2) 0.13720(17)
C15 C 0.8774(2) 1.0384(2) 0.16002(17)
C16 C 0.9231(2) 1.0805(2) 0.23941(18)
C17 C 0.9739(3) 1.0452(3) 0.2822(2)
H6 H 0.9908 0.9861 0.2667
C18 C 0.9967(3) 1.1125(3) 0.3534(2)
H7 H 1.0315 1.1063 0.3941
C19 C 0.9601(3) 1.1875(3) 0.35357(19)
C20 C 0.9685(3) 1.2831(3) 0.4123(2)
C21 C 0.5788(3) 1.3450(2) 0.37324(18)
H8 H 0.6026 1.3685 0.4253
H9 H 0.5101 1.3153 0.3619
H10 H 0.5928 1.3996 0.3560
C22 C 0.6752(3) 1.3157(3) 0.0731(2)
H11 H 0.6141 1.3248 0.0562
H12 H 0.7151 1.3189 0.0381
H13 H 0.7070 1.3669 0.1195
C23 C 0.6023(3) 1.1361(3) 0.01023(18)
H14 H 0.5923 1.0723 0.0153
H15 H 0.6377 1.1384 -0.0275
H16 H 0.5407 1.1470 -0.0028
C24 C 0.9515(3) 1.0034(3) 0.11867(19)
H17 H 1.0080 1.0582 0.1296
H18 H 0.9243 0.9777 0.0669
H19 H 0.9690 0.9523 0.1333
C25 C 1.0635(3) 1.3562(4) 0.4197(3)
H20 H 1.1156 1.3285 0.4290
H21 H 1.0715 1.4166 0.4598
H22 H 1.0642 1.3701 0.3752
C26 C 0.9664(4) 1.2667(5) 0.4840(2)
H23 H 0.9055 1.2213 0.4802
H24 H 0.9743 1.3289 0.5223
H25 H 1.0180 1.2396 0.4954
C27 C 0.4239(3) 1.1505(3) 0.24020(19)
C28 C 0.3338(3) 1.0932(3) 0.20904(18)
C29 C 0.2871(3) 1.0536(3) 0.13270(19)
C30 C 0.2106(3) 0.9652(3) 0.1223(2)
C31 C 0.1576(3) 0.8952(3) 0.0585(2)
H26 H 0.1626 0.9028 0.0137
C32 C 0.0964(3) 0.8130(3) 0.0623(3)
H27 H 0.0603 0.7622 0.0192
C33 C 0.0871(3) 0.8040(3) 0.1275(3)
H28 H 0.0448 0.7470 0.1284
C34 C 0.1385(3) 0.8769(3) 0.1925(2)
H29 H 0.1300 0.8713 0.2372
C35 C 0.2027(3) 0.9581(3) 0.1893(2)
C36 C 0.2712(3) 1.0428(3) 0.24532(19)
C37 C 0.2727(3) 1.0711(3) 0.3172(2)
C38 C 0.2141(4) 1.0128(3) 0.3479(2)
C39 C 0.3279(3) 1.1639(3) 0.3696(2)
C40 C 0.6049(2) 1.1775(2) 0.35722(16)
C41 C 0.5725(2) 1.1771(2) 0.41916(16)
H30 H 0.5617 1.2343 0.4495
C42 C 0.5560(2) 1.0946(2) 0.43687(17)
H31 H 0.5316 1.0947 0.4784
C43 C 0.5746(2) 1.0113(2) 0.39483(17)
C44 C 0.6078(2) 1.0108(2) 0.33338(18)
H32 H 0.6211 0.9544 0.3041
C45 C 0.6214(2) 1.0932(2) 0.31519(17)
H33 H 0.6429 1.0920 0.2724
C46 C 0.5883(3) 0.8526(2) 0.3818(2)
H34 H 0.6584 0.8717 0.3947
H35 H 0.5680 0.8324 0.3290
C47 C 0.5486(3) 0.7704(2) 0.4058(2)
H36 H 0.5891 0.7259 0.4003
H37 H 0.5448 0.7953 0.4569
C48 C 0.3878(3) 0.6740(2) 0.39030(16)
C49 C 0.3975(3) 0.5956(2) 0.40981(17)
C50 C 0.3259(3) 0.5536(3) 0.43818(18)
H38 H 0.3307 0.4997 0.4520
C51 C 0.2482(3) 0.5882(3) 0.44675(19)
H39 H 0.2008 0.5594 0.4674
C52 C 0.2395(3) 0.6650(3) 0.42524(18)
H40 H 0.1856 0.6884 0.4307
C53 C 0.3087(3) 0.7084(2) 0.39570(17)
C54 C 0.2997(3) 0.7937(3) 0.37321(18)
H41 H 0.2395 0.8073 0.3827
H42 H 0.3520 0.8515 0.4042
C55 C 0.3015(2) 0.7817(2) 0.29564(18)
C56 C 0.2474(2) 0.6993(2) 0.23819(17)
C57 C 0.2539(2) 0.6881(2) 0.16770(18)
C58 C 0.3128(2) 0.7639(3) 0.15481(19)
H43 H 0.3166 0.7584 0.1068
C59 C 0.3657(3) 0.8471(3) 0.2106(2)
H44 H 0.4059 0.8984 0.2011
C60 C 0.3601(3) 0.8556(3) 0.2805(2)
H45 H 0.3970 0.9130 0.3189
C61 C 0.1957(3) 0.5970(3) 0.10616(18)
H46 H 0.2072 0.6060 0.0609
H47 H 0.1279 0.5917 0.1061
C62 C 0.2120(3) 0.5005(2) 0.10449(17)
C63 C 0.3008(2) 0.4882(2) 0.12000(17)
C64 C 0.3138(3) 0.3970(2) 0.11473(17)
C65 C 0.2343(3) 0.3167(3) 0.09081(18)
H48 H 0.2418 0.2540 0.0850
C66 C 0.1446(3) 0.3272(3) 0.07534(18)
H49 H 0.0906 0.2720 0.0598
C67 C 0.1332(3) 0.4180(3) 0.08253(18)
H50 H 0.0712 0.4247 0.0725
C68 C 0.4112(3) 0.3836(2) 0.13147(19)
H51 H 0.4433 0.3909 0.0924
H52 H 0.4025 0.3157 0.1295
C69 C 0.4781(3) 0.4498(2) 0.20217(18)
C70 C 0.4494(2) 0.4780(2) 0.26758(18)
C71 C 0.5136(3) 0.5335(2) 0.33183(18)
C72 C 0.6093(3) 0.5620(2) 0.3301(2)
H53 H 0.6547 0.5994 0.3736
C73 C 0.6391(3) 0.5367(3) 0.2666(2)
H54 H 0.7044 0.5577 0.2662
C74 C 0.5741(3) 0.4810(3) 0.2037(2)
H55 H 0.5955 0.4634 0.1601
C75 C 0.4833(3) 0.5567(2) 0.40356(18)
H56 H 0.4706 0.4967 0.4154
H57 H 0.5379 0.6050 0.4408
C76 C 0.4265(2) 0.5929(2) 0.09353(17)
H58 H 0.3829 0.6098 0.0609
H59 H 0.4470 0.5378 0.0646
C77 C 0.5108(2) 0.6790(2) 0.13464(18)
H60 H 0.4913 0.7304 0.1689
H61 H 0.5587 0.6596 0.1618
C78 C 0.6268(2) 0.7924(2) 0.10587(18)
C79 C 0.6706(2) 0.8439(2) 0.17678(17)
H62 H 0.6465 0.8251 0.2135
C80 C 0.7502(2) 0.9236(2) 0.19501(18)
H63 H 0.7791 0.9591 0.2442
C81 C 0.7885(2) 0.9522(2) 0.14253(17)
C82 C 0.7413(2) 0.8991(2) 0.07097(17)
H64 H 0.7651 0.9173 0.0340
C83 C 0.6618(2) 0.8216(2) 0.05249(17)
H65 H 0.6307 0.7880 0.0035
C84 C 0.0971(3) 0.6391(3) 0.2611(3)
C85 C 0.0329(6) 0.5428(7) 0.2579(4)
H66 H 0.0228 0.4936 0.2095
H67 H 0.0644 0.5197 0.2932
C86 C -0.0623(4) 0.5529(6) 0.2740(4)
H68 H -0.0528 0.5976 0.3233
H69 H -0.1033 0.4891 0.2686
H70 H -0.0923 0.5785 0.2405
C87 C 0.3148(2) 0.3590(2) 0.27019(19)
H71 H 0.3464 0.3537 0.3148
H72 H 0.3243 0.3086 0.2286
C88 C 0.2104(2) 0.3452(3) 0.26796(19)
H73 H 0.1813 0.3596 0.2267
H74 H 0.2019 0.3916 0.3124
C89 C 0.1604(3) 0.2428(3) 0.2612(2)
H75 H 0.1699 0.1966 0.2179
H76 H 0.0924 0.2355 0.2579
H77 H 0.1864 0.2297 0.3035
N1 N 0.7954(2) 1.2670(2) 0.37726(15)
N2 N 0.6510(2) 1.2528(2) 0.21195(14)
N3 N 0.7583(2) 1.1168(2) 0.11693(14)
N4 N 0.9154(2) 1.1668(2) 0.28386(16)
N5 N 0.1697(4) 0.9676(3) 0.3749(3)
N6 N 0.3652(3) 1.2372(3) 0.41332(18)
O1 O 0.55427(17) 0.93270(15) 0.41638(12)
O2 O 0.45525(16) 0.72051(16) 0.36094(12)
O3 O 0.38074(16) 0.56792(15) 0.14643(11)
O4 O 0.54836(16) 0.71290(16) 0.08215(12)
O5 O 0.18673(16) 0.62330(16) 0.24960(12)
O6 O 0.35361(16) 0.45341(15) 0.26790(11)
O7 O 0.3052(2) 1.0860(2) 0.08543(14)
H78 H 0.440(2) 1.162(2) 0.2927(19)
H79 H 0.706(3) 1.069(3) 0.1108(19)
H80 H 0.713(2) 1.286(2) 0.2286(17)
H81 H 0.774(3) 1.204(3) 0.379(2)
H82 H 0.889(3) 1.206(3) 0.2701(19)
H83 H 0.071(3) 0.657(3) 0.220(2)
H84 H 0.110(3) 0.692(3) 0.302(3)
C92 C 0.8174(3) 0.6285(3) 0.0863(2)
H90 H 0.8149 0.6439 0.0413
Cl1 Cl 0.70420(9) 0.57289(10) 0.08871(9)
Cl2 Cl 0.89272(8) 0.55296(8) 0.08567(6)
Cl3 Cl 0.86096(12) 0.73583(12) 0.15811(15)
C90? C 0.0429(18) 0.5695(16) 0.2903(10)
H85? H -0.0142 0.5877 0.3033
H86? H 0.0827 0.5682 0.3334
C91? C 0.0157(14) 0.4720(14) 0.2304(9)
H87? H -0.0128 0.4781 0.1857
H88? H -0.0302 0.4246 0.2424
H89? H 0.0723 0.4500 0.2241
loop_
_geom_bond_atom_site_label_1
_geom_bond_atom_site_label_2
_geom_bond_site_symmetry_1
_geom_bond_site_symmetry_2
C1 C2 1_555 1_555
C2 H1 1_555 1_555
C3 C2 1_555 1_555
H2 C3 1_555 1_555
C4 C3 1_555 1_555
C5 C4 1_555 1_555
C6 C5 1_555 1_555
C7 C6 1_555 1_555
C8 C7 1_555 1_555
H3 C8 1_555 1_555
C9 C8 1_555 1_555
C10 C9 1_555 1_555
C11 C10 1_555 1_555
C12 C11 1_555 1_555
H4 C12 1_555 1_555
C13 C12 1_555 1_555
H5 C13 1_555 1_555
C14 C13 1_555 1_555
C15 C14 1_555 1_555
C16 C15 1_555 1_555
C17 C16 1_555 1_555
H6 C17 1_555 1_555
C18 C17 1_555 1_555
H7 C18 1_555 1_555
C19 C18 1_555 1_555
C20 C1 1_555 1_555
C21 C5 1_555 1_555
H8 C21 1_555 1_555
H9 C21 1_555 1_555
H10 C21 1_555 1_555
C22 C10 1_555 1_555
H11 C22 1_555 1_555
H12 C22 1_555 1_555
H13 C22 1_555 1_555
C23 C10 1_555 1_555
H14 C23 1_555 1_555
H15 C23 1_555 1_555
H16 C23 1_555 1_555
C24 C15 1_555 1_555
H17 C24 1_555 1_555
H18 C24 1_555 1_555
H19 C24 1_555 1_555
C25 C20 1_555 1_555
H20 C25 1_555 1_555
H21 C25 1_555 1_555
H22 C25 1_555 1_555
C26 C20 1_555 1_555
H23 C26 1_555 1_555
H24 C26 1_555 1_555
H25 C26 1_555 1_555
C27 C7 1_555 1_555
C28 C27 1_555 1_555
C29 C28 1_555 1_555
C30 C29 1_555 1_555
C31 C30 1_555 1_555
H26 C31 1_555 1_555
C32 C31 1_555 1_555
H27 C32 1_555 1_555
C33 C32 1_555 1_555
H28 C33 1_555 1_555
C34 C33 1_555 1_555
H29 C34 1_555 1_555
C35 C30 1_555 1_555
C36 C28 1_555 1_555
C37 C36 1_555 1_555
C38 C37 1_555 1_555
C39 C37 1_555 1_555
C40 C5 1_555 1_555
C41 C40 1_555 1_555
H30 C41 1_555 1_555
C42 C41 1_555 1_555
H31 C42 1_555 1_555
C43 C42 1_555 1_555
C44 C43 1_555 1_555
H32 C44 1_555 1_555
C45 C40 1_555 1_555
H33 C45 1_555 1_555
C46 H34 1_555 1_555
H35 C46 1_555 1_555
C47 C46 1_555 1_555
H36 C47 1_555 1_555
H37 C47 1_555 1_555
C48 C49 1_555 1_555
C49 C50 1_555 1_555
C50 H38 1_555 1_555
C51 C50 1_555 1_555
H39 C51 1_555 1_555
C52 C51 1_555 1_555
H40 C52 1_555 1_555
C53 C48 1_555 1_555
C54 C53 1_555 1_555
H41 C54 1_555 1_555
H42 C54 1_555 1_555
C55 C54 1_555 1_555
C56 C55 1_555 1_555
C57 C56 1_555 1_555
C58 C57 1_555 1_555
H43 C58 1_555 1_555
C59 C58 1_555 1_555
H44 C59 1_555 1_555
C60 C55 1_555 1_555
H45 C60 1_555 1_555
C61 C57 1_555 1_555
H46 C61 1_555 1_555
H47 C61 1_555 1_555
C62 C61 1_555 1_555
C63 C62 1_555 1_555
C64 C63 1_555 1_555
C65 C64 1_555 1_555
H48 C65 1_555 1_555
C66 C65 1_555 1_555
H49 C66 1_555 1_555
C67 C62 1_555 1_555
H50 C67 1_555 1_555
C68 C64 1_555 1_555
H51 C68 1_555 1_555
H52 C68 1_555 1_555
C69 C68 1_555 1_555
C70 C69 1_555 1_555
C71 C70 1_555 1_555
C72 C71 1_555 1_555
H53 C72 1_555 1_555
C73 C72 1_555 1_555
H54 C73 1_555 1_555
C74 C69 1_555 1_555
H55 C74 1_555 1_555
C75 C49 1_555 1_555
H56 C75 1_555 1_555
H57 C75 1_555 1_555
C76 H58 1_555 1_555
H59 C76 1_555 1_555
C77 C76 1_555 1_555
H60 C77 1_555 1_555
H61 C77 1_555 1_555
C78 C79 1_555 1_555
C79 H62 1_555 1_555
C80 C79 1_555 1_555
H63 C80 1_555 1_555
C81 C15 1_555 1_555
C82 C81 1_555 1_555
H64 C82 1_555 1_555
C83 C78 1_555 1_555
H65 C83 1_555 1_555
C84 C85 1_555 1_555
C85 H66 1_555 1_555
H67 C85 1_555 1_555
C86 C85 1_555 1_555
H68 C86 1_555 1_555
H69 C86 1_555 1_555
H70 C86 1_555 1_555
C87 H71 1_555 1_555
H72 C87 1_555 1_555
C88 C87 1_555 1_555
H73 C88 1_555 1_555
H74 C88 1_555 1_555
C89 C88 1_555 1_555
H75 C89 1_555 1_555
H76 C89 1_555 1_555
H77 C89 1_555 1_555
N1 C1 1_555 1_555
N2 C6 1_555 1_555
N3 C11 1_555 1_555
N4 C16 1_555 1_555
N5 C38 1_555 1_555
N6 C39 1_555 1_555
O1 C43 1_555 1_555
O2 C47 1_555 1_555
O3 C63 1_555 1_555
O4 C77 1_555 1_555
O5 C56 1_555 1_555
O6 C70 1_555 1_555
O7 C29 1_555 1_555
H78 C27 1_555 1_555
H79 N3 1_555 1_555
H80 N2 1_555 1_555
H81 N1 1_555 1_555
H82 N4 1_555 1_555
H83 C84 1_555 1_555
H84 C84 1_555 1_555
C92 H90 1_555 1_555
Cl1 C92 1_555 1_555
Cl2 C92 1_555 1_555
Cl3 C92 1_555 1_555
C4 N1 1_555 1_555
C9 N2 1_555 1_555
C14 N3 1_555 1_555
C19 C20 1_555 1_555
C19 N4 1_555 1_555
C34 C35 1_555 1_555
C35 C36 1_555 1_555
C44 C45 1_555 1_555
C46 O1 1_555 1_555
C48 O2 1_555 1_555
C52 C53 1_555 1_555
C59 C60 1_555 1_555
C66 C67 1_555 1_555
C71 C75 1_555 1_555
C73 C74 1_555 1_555
C76 O3 1_555 1_555
C78 O4 1_555 1_555
C80 C81 1_555 1_555
C82 C83 1_555 1_555
C84 O5 1_555 1_555
C87 O6 1_555 1_555

#END
