
#######################################################################
#
#                 Cambridge Crystallographic Data Centre
#                                CCDC 
#
#######################################################################
#
# If this CIF has been generated from an entry in the Cambridge 
# Structural Database, then it will include bibliographic, chemical, 
# crystal, experimental, refinement or atomic coordinate data resulting 
# from the CCDC's data processing and validation procedures.
#
#######################################################################

data_OVAJOM
_chemical_formula_moiety         'C14 H17 N3 O3'
_chemical_name_systematic        
(1-methylhexahydropyrrolo[3,4-b]pyrrol-5(1H)-yl)(4-nitrophenyl)methanone
_symmetry_cell_setting           monoclinic
_symmetry_space_group_name_H-M   'P 21'
_symmetry_Int_Tables_number      4
_space_group_name_Hall           'P 2yb'
loop_
_symmetry_equiv_pos_site_id
_symmetry_equiv_pos_as_xyz
1 x,y,z
2 -x,1/2+y,-z
_cell_length_a                   7.0153(10)
_cell_length_b                   10.0042(14)
_cell_length_c                   9.5621(13)
_cell_angle_alpha                90
_cell_angle_beta                 93.822(2)
_cell_angle_gamma                90
_cell_volume                     669.599
_exptl_crystal_colour            colorless
_cell_formula_units_Z            2
_exptl_crystal_recrystallization_method 'Petroleum ether/Dichloromethane'
loop_
_atom_site_label
_atom_site_type_symbol
_atom_site_fract_x
_atom_site_fract_y
_atom_site_fract_z
C1 C 0.0916(4) 0.7185(3) 1.0542(3)
C2 C 0.2263(5) 0.6190(3) 1.0793(3)
H1 H 0.2099 0.5539 1.1468
C3 C 0.1106(5) 0.8165(3) 0.9555(3)
H2 H 0.0177 0.8822 0.9402
C4 C 0.3855(4) 0.6185(3) 1.0021(3)
H3 H 0.4778 0.5526 1.0183
C5 C 0.2721(5) 0.8152(3) 0.8790(3)
H4 H 0.2886 0.8816 0.8129
C6 C 0.4097(4) 0.7154(3) 0.9002(3)
C7 C 0.5842(4) 0.7209(3) 0.8173(3)
C8 C 0.5292(19) 0.4780(15) 0.7486(11)
H5 H 0.5705 0.4084 0.8144
H6 H 0.3959 0.4981 0.7604
C9 C 0.8414(12) 0.5907(10) 0.7032(9)
H7 H 0.9410 0.5508 0.7649
H8 H 0.8851 0.6751 0.6670
C10 C 0.5556(10) 0.4357(6) 0.6040(6)
H9 H 0.4609 0.4786 0.5387
C11 C 0.7627(12) 0.4915(8) 0.5821(8)
H10 H 0.7734 0.5289 0.4882
C12 C 0.5651(9) 0.2866(5) 0.5752(6)
H11 H 0.4751 0.2622 0.4980
H12 H 0.5350 0.2360 0.6575
C13 C 1.0721(10) 0.3863(8) 0.5551(7)
H13 H 1.0622 0.3991 0.4554
H14 H 1.1466 0.3078 0.5776
H15 H 1.1328 0.4627 0.5995
C14 C 0.7689(10) 0.2582(6) 0.5382(8)
H16 H 0.8132 0.1727 0.5755
H17 H 0.7790 0.2587 0.4375
N1 N -0.0801(4) 0.7171(3) 1.1355(3)
N2 N 0.6528(4) 0.6036(2) 0.7717(3)
N3 N 0.8781(6) 0.3697(4) 0.6059(4)
O1 O -0.1100(4) 0.6202(2) 1.2082(3)
O2 O -0.1853(4) 0.8145(3) 1.1246(3)
O3 O 0.6607(4) 0.8284(2) 0.7956(2)
C15? C 0.5645(19) 0.4757(16) 0.7541(13)
H18? H 0.4263 0.4832 0.7473
H19? H 0.6035 0.4162 0.8308
C16? C 0.8031(14) 0.6059(11) 0.6802(10)
H20? H 0.9220 0.5982 0.7375
H21? H 0.8027 0.6935 0.6368
C17? C 0.6428(14) 0.4248(8) 0.6086(8)
H22? H 0.5411 0.4238 0.5332
C18? C 0.8084(16) 0.5090(12) 0.5703(12)
H23? H 0.7674 0.5553 0.4831
C19? C 0.9739(16) 0.4138(9) 0.5348(9)
H24? H 1.0247 0.4363 0.4459
H25? H 1.0765 0.4136 0.6080
C20? C 0.5878(12) 0.1889(9) 0.6176(9)
H26? H 0.6472 0.1033 0.6333
H27? H 0.5238 0.1909 0.5257
H28? H 0.4967 0.2038 0.6865
C21? C 0.8675(14) 0.2833(9) 0.5277(8)
H29? H 0.8056 0.2701 0.4350
H30? H 0.9542 0.2094 0.5486
N4? N 0.7311(10) 0.2918(6) 0.6284(7)
loop_
_geom_bond_atom_site_label_1
_geom_bond_atom_site_label_2
_geom_bond_site_symmetry_1
_geom_bond_site_symmetry_2
C1 C2 1_555 1_555
C2 H1 1_555 1_555
C3 C1 1_555 1_555
H2 C3 1_555 1_555
C4 C2 1_555 1_555
H3 C4 1_555 1_555
C5 C3 1_555 1_555
H4 C5 1_555 1_555
C6 C4 1_555 1_555
C7 C6 1_555 1_555
C8 H5 1_555 1_555
H6 C8 1_555 1_555
C9 H7 1_555 1_555
H8 C9 1_555 1_555
C10 C8 1_555 1_555
H9 C10 1_555 1_555
C11 C9 1_555 1_555
H10 C11 1_555 1_555
C12 C10 1_555 1_555
H11 C12 1_555 1_555
H12 C12 1_555 1_555
C13 H13 1_555 1_555
H14 C13 1_555 1_555
H15 C13 1_555 1_555
C14 C12 1_555 1_555
H16 C14 1_555 1_555
H17 C14 1_555 1_555
N1 C1 1_555 1_555
N2 C7 1_555 1_555
N3 C11 1_555 1_555
O1 N1 1_555 1_555
O2 N1 1_555 1_555
O3 C7 1_555 1_555
C5 C6 1_555 1_555
C8 N2 1_555 1_555
C9 N2 1_555 1_555
C10 C11 1_555 1_555
C13 N3 1_555 1_555
C14 N3 1_555 1_555

#END
