
#######################################################################
#
#                 Cambridge Crystallographic Data Centre
#                                CCDC 
#
#######################################################################
#
# If this CIF has been generated from an entry in the Cambridge 
# Structural Database, then it will include bibliographic, chemical, 
# crystal, experimental, refinement or atomic coordinate data resulting 
# from the CCDC's data processing and validation procedures.
#
#######################################################################

data_OVAKOM
_chemical_formula_moiety         'C21 H18 N4 O2'
_chemical_name_systematic        
4-(((8-Hydroxyquinolin-5-yl)methylene)amino)-1,5-dimethyl-2-phenyl-1,2-dihydro-3H-pyrazol-3-one
_symmetry_cell_setting           monoclinic
_symmetry_space_group_name_H-M   'P 21/c'
_symmetry_Int_Tables_number      14
_space_group_name_Hall           '-P 2ybc'
loop_
_symmetry_equiv_pos_site_id
_symmetry_equiv_pos_as_xyz
1 x,y,z
2 -x,1/2+y,1/2-z
3 -x,-y,-z
4 x,1/2-y,1/2+z
_cell_length_a                   13.270(10)
_cell_length_b                   6.903(5)
_cell_length_c                   19.296(15)
_cell_angle_alpha                90
_cell_angle_beta                 95.297(12)
_cell_angle_gamma                90
_cell_volume                     1760.02
_exptl_crystal_colour            yellow
_exptl_crystal_description       block
_cell_formula_units_Z            4
loop_
_atom_site_label
_atom_site_type_symbol
_atom_site_fract_x
_atom_site_fract_y
_atom_site_fract_z
C1 C 0.03747(19) 0.7984(4) 0.13755(14)
N1 N -0.06395(16) 0.8432(3) 0.11815(12)
C2 C -0.2213(2) 1.2352(4) 0.03563(14)
N2 N -0.35843(18) 1.4605(4) -0.00471(12)
C3 C 0.0661(2) 0.6361(4) 0.17462(14)
C4 C -0.0875(2) 0.9973(5) 0.08361(15)
C5 C -0.1939(2) 1.0572(4) 0.06961(14)
C6 C -0.3245(2) 1.2905(4) 0.02596(14)
C7 C -0.3992(2) 1.1677(4) 0.05053(15)
C8 C 0.1252(2) 0.9186(4) 0.13391(14)
C9 C -0.3721(2) 0.9957(5) 0.08223(17)
C10 C -0.2700(2) 0.9434(5) 0.09163(16)
C11 C -0.1511(2) 1.3699(4) 0.01101(15)
C12 C 0.28941(19) 0.9100(4) 0.20573(16)
C13 C 0.0036(3) 0.4659(6) 0.1909(2)
C14 C 0.3005(2) 0.9146(4) 0.27805(18)
C15 C 0.3565(2) 1.0094(4) 0.1674(2)
C16 C 0.4335(2) 1.1160(5) 0.2018(2)
C17 C -0.2889(3) 1.5777(5) -0.02657(17)
C18 C -0.1845(2) 1.5375(5) -0.01949(17)
C19 C 0.3797(2) 1.0185(5) 0.31163(19)
C20 C 0.4456(3) 1.1203(5) 0.2735(2)
H1 H 0.3451(17) 1.011(4) 0.1184(14)
H2 H -0.137(2) 1.637(4) -0.0394(15)
H3 H -0.425(2) 0.911(4) 0.0989(15)
C21 C 0.2340(3) 0.4804(5) 0.2124(3)
O1 O -0.49870(14) 1.2197(3) 0.04302(12)
N3 N 0.16588(17) 0.6464(3) 0.19833(12)
H4 H -0.0784(19) 1.334(3) 0.0157(12)
N4 N 0.20610(16) 0.8129(3) 0.16818(12)
O2 O 0.13609(14) 1.0825(3) 0.10970(11)
H5 H -0.2490(18) 0.825(4) 0.1158(13)
H6 H 0.481(2) 1.180(5) 0.1741(16)
H7 H 0.292(3) 0.522(5) 0.2411(18)
H8 H 0.501(2) 1.194(4) 0.2996(15)
H9 H 0.254(2) 0.845(4) 0.3033(14)
H10 H 0.3874(19) 1.014(4) 0.3632(15)
H11 H -0.318(2) 1.693(5) -0.0497(15)
H12 H 0.240(4) 0.410(8) 0.174(3)
H13 H -0.0329(17) 1.087(3) 0.0694(12)
H14 H 0.008(2) 0.434(5) 0.2405(19)
H15 H 0.027(3) 0.345(7) 0.167(2)
H16 H -0.505(4) 1.352(6) 0.018(3)
H17 H 0.204(3) 0.394(7) 0.245(2)
H18 H -0.064(2) 0.487(5) 0.1700(16)
loop_
_geom_bond_atom_site_label_1
_geom_bond_atom_site_label_2
_geom_bond_site_symmetry_1
_geom_bond_site_symmetry_2
C1 N1 1_555 1_555
N1 C4 1_555 1_555
C2 C5 1_555 1_555
N2 C6 1_555 1_555
C3 C1 1_555 1_555
C4 C5 1_555 1_555
C5 C10 1_555 1_555
C6 C2 1_555 1_555
C7 C6 1_555 1_555
C8 C1 1_555 1_555
C9 C7 1_555 1_555
C10 C9 1_555 1_555
C11 C2 1_555 1_555
C12 C14 1_555 1_555
C13 C3 1_555 1_555
C14 C19 1_555 1_555
C15 C12 1_555 1_555
C16 C15 1_555 1_555
C17 N2 1_555 1_555
C18 C11 1_555 1_555
C19 C20 1_555 1_555
C20 C16 1_555 1_555
H1 C15 1_555 1_555
H2 C18 1_555 1_555
H3 C9 1_555 1_555
C21 N3 1_555 1_555
O1 C7 1_555 1_555
N3 C3 1_555 1_555
H4 C11 1_555 1_555
N4 C8 1_555 1_555
O2 C8 1_555 1_555
H5 C10 1_555 1_555
H6 C16 1_555 1_555
H7 C21 1_555 1_555
H8 C20 1_555 1_555
H9 C14 1_555 1_555
H10 C19 1_555 1_555
H11 C17 1_555 1_555
H12 C21 1_555 1_555
H13 C4 1_555 1_555
H14 C13 1_555 1_555
H15 C13 1_555 1_555
H16 O1 1_555 1_555
H17 C21 1_555 1_555
H18 C13 1_555 1_555
C12 N4 1_555 1_555
C17 C18 1_555 1_555
N3 N4 1_555 1_555

#END
