
#######################################################################
#
#                 Cambridge Crystallographic Data Centre
#                                CCDC 
#
#######################################################################
#
# If this CIF has been generated from an entry in the Cambridge 
# Structural Database, then it will include bibliographic, chemical, 
# crystal, experimental, refinement or atomic coordinate data resulting 
# from the CCDC's data processing and validation procedures.
#
#######################################################################

data_OVATOW
_chemical_formula_moiety         'C13 H19 N1 O2'
_chemical_name_systematic        
12-methyl-2-azatricyclo[5.3.3.0^1,6^]tridecane-3,9-dione
_symmetry_cell_setting           monoclinic
_symmetry_space_group_name_H-M   'P 21'
_symmetry_Int_Tables_number      4
_space_group_name_Hall           'P 2yb'
loop_
_symmetry_equiv_pos_site_id
_symmetry_equiv_pos_as_xyz
1 x,y,z
2 -x,1/2+y,-z
_cell_length_a                   7.6484(7)
_cell_length_b                   7.0465(6)
_cell_length_c                   10.9071(9)
_cell_angle_alpha                90
_cell_angle_beta                 98.254(9)
_cell_angle_gamma                90
_cell_volume                     581.743
_exptl_crystal_colour            colorless
_exptl_crystal_description       block
_cell_formula_units_Z            2
loop_
_atom_site_label
_atom_site_type_symbol
_atom_site_fract_x
_atom_site_fract_y
_atom_site_fract_z
O1 O 1.0819(2) 0.7175(2) 0.03307(15)
O2 O 0.8047(3) 0.2819(3) 0.51701(18)
N1 N 0.8901(2) 0.5432(3) 0.12370(17)
H1 H 0.9067 0.4511 0.0749
C1 C 0.9773(3) 0.7044(4) 0.1100(2)
C2 C 0.9418(4) 0.8748(4) 0.1853(2)
H2 H 0.8896 0.9724 0.1288
H3 H 1.0543 0.9230 0.2257
C3 C 0.8216(3) 0.8453(4) 0.2843(2)
H4 H 0.8924 0.8075 0.3614
H5 H 0.7635 0.9640 0.2986
C4 C 0.6831(3) 0.6946(3) 0.2451(2)
H6 H 0.6105 0.7396 0.1693
C5 C 0.7689(3) 0.5081(3) 0.2139(2)
C6 C 0.8759(3) 0.4219(4) 0.3321(2)
H7 H 0.9123 0.2947 0.3129
H8 H 0.9822 0.4968 0.3541
C7 C 0.7797(3) 0.4112(4) 0.4432(2)
C8 C 0.6603(4) 0.5753(4) 0.4612(2)
H9 H 0.7308 0.6768 0.5031
H10 H 0.5763 0.5352 0.5146
C9 C 0.5582(3) 0.6533(4) 0.3403(2)
H11 H 0.5019 0.7726 0.3590
C10 C 0.4134(3) 0.5155(4) 0.2843(2)
H12 H 0.3376 0.4871 0.3460
H13 H 0.3415 0.5771 0.2150
C11 C 0.4852(3) 0.3297(4) 0.2394(2)
H14 H 0.5419 0.2597 0.3120
C12 C 0.6255(3) 0.3710(3) 0.1557(2)
H15 H 0.6805 0.2526 0.1369
H16 H 0.5681 0.4244 0.0782
C13 C 0.3371(4) 0.2080(5) 0.1740(3)
H17 H 0.3851 0.0916 0.1474
H18 H 0.2781 0.2750 0.1032
H19 H 0.2543 0.1802 0.2298
loop_
_geom_bond_atom_site_label_1
_geom_bond_atom_site_label_2
_geom_bond_site_symmetry_1
_geom_bond_site_symmetry_2
O1 C1 1_555 1_555
O2 C7 1_555 1_555
N1 H1 1_555 1_555
C1 N1 1_555 1_555
C2 C1 1_555 1_555
H2 C2 1_555 1_555
H3 C2 1_555 1_555
C3 C2 1_555 1_555
H4 C3 1_555 1_555
H5 C3 1_555 1_555
C4 C3 1_555 1_555
H6 C4 1_555 1_555
C5 N1 1_555 1_555
C6 C5 1_555 1_555
H7 C6 1_555 1_555
H8 C6 1_555 1_555
C7 C6 1_555 1_555
C8 C7 1_555 1_555
H9 C8 1_555 1_555
H10 C8 1_555 1_555
C9 C4 1_555 1_555
H11 C9 1_555 1_555
C10 C9 1_555 1_555
H12 C10 1_555 1_555
H13 C10 1_555 1_555
C11 C10 1_555 1_555
H14 C11 1_555 1_555
C12 C5 1_555 1_555
H15 C12 1_555 1_555
H16 C12 1_555 1_555
C13 C11 1_555 1_555
H17 C13 1_555 1_555
H18 C13 1_555 1_555
H19 C13 1_555 1_555
C4 C5 1_555 1_555
C8 C9 1_555 1_555
C11 C12 1_555 1_555

#END
