
#######################################################################
#
#                 Cambridge Crystallographic Data Centre
#                                CCDC 
#
#######################################################################
#
# If this CIF has been generated from an entry in the Cambridge 
# Structural Database, then it will include bibliographic, chemical, 
# crystal, experimental, refinement or atomic coordinate data resulting 
# from the CCDC's data processing and validation procedures.
#
#######################################################################

data_OVATUC
_chemical_formula_moiety         'C16 H23 N1 O2'
_chemical_name_systematic        
2-allyl-12-methyl-2-azatricyclo[5.3.3.0^1,6^]tridecane-3,9-dione
_symmetry_cell_setting           orthorhombic
_symmetry_space_group_name_H-M   'P 21 21 21'
_symmetry_Int_Tables_number      19
_space_group_name_Hall           'P 2ac 2ab'
loop_
_symmetry_equiv_pos_site_id
_symmetry_equiv_pos_as_xyz
1 x,y,z
2 1/2-x,-y,1/2+z
3 1/2+x,1/2-y,-z
4 -x,1/2+y,1/2-z
_cell_length_a                   7.48040(11)
_cell_length_b                   10.49020(19)
_cell_length_c                   18.4048(3)
_cell_angle_alpha                90
_cell_angle_beta                 90
_cell_angle_gamma                90
_cell_volume                     1444.24
_exptl_crystal_colour            colorless
_exptl_crystal_description       block
_cell_formula_units_Z            4
loop_
_atom_site_label
_atom_site_type_symbol
_atom_site_fract_x
_atom_site_fract_y
_atom_site_fract_z
O1 O -0.3258(4) 0.2144(3) -0.55103(14)
O2 O 0.2102(3) -0.1051(3) -0.32342(14)
N1 N -0.2657(3) 0.05332(19) -0.47362(10)
C1 C -0.3023(4) 0.1777(3) -0.48776(16)
C2 C -0.3184(5) 0.2690(3) -0.4254(2)
H1 H -0.4440 0.2793 -0.4137
H2 H -0.2734 0.3514 -0.4408
C3 C -0.2201(4) 0.2294(3) -0.35732(18)
H3 H -0.2534 0.2842 -0.3171
H4 H -0.0920 0.2362 -0.3647
C4 C -0.2707(3) 0.0927(2) -0.34092(12)
H5 H -0.4016 0.0899 -0.3396
C5 C -0.2061(4) 0.0386(3) -0.26808(13)
H6 H -0.2436 0.0979 -0.2299
C6 C -0.0012(4) 0.0297(4) -0.26560(16)
H7 H 0.0478 0.1152 -0.2635
H8 H 0.0336 -0.0142 -0.2214
C7 C 0.0784(3) -0.0382(3) -0.32901(16)
C8 C -0.0068(3) -0.0151(2) -0.40190(12)
H9 H 0.0224 -0.0861 -0.4335
H10 H 0.0462 0.0608 -0.4229
C9 C -0.2127(3) 0.00174(19) -0.40142(10)
C10 C -0.2965(4) -0.0887(3) -0.25341(12)
H11 H -0.2497 -0.1239 -0.2085
H12 H -0.4237 -0.0747 -0.2468
C11 C -0.2692(3) -0.1850(2) -0.31412(13)
H13 H -0.1441 -0.2127 -0.3135
C12 C -0.3091(3) -0.1253(2) -0.38826(11)
H14 H -0.4369 -0.1116 -0.3924
H15 H -0.2744 -0.1850 -0.4260
C13 C -0.3880(4) -0.3018(3) -0.3034(2)
H16 H -0.3644 -0.3627 -0.3412
H17 H -0.5113 -0.2766 -0.3053
H18 H -0.3630 -0.3397 -0.2570
C14 C -0.2499(5) -0.0309(3) -0.53697(13)
H19 H -0.1672 -0.0992 -0.5254
H20 H -0.1995 0.0172 -0.5771
C15 C -0.4265(8) -0.0890(4) -0.56123(17)
H21 H -0.4216 -0.1466 -0.5996
C16 C -0.5852(7) -0.0661(4) -0.5336(3)
H22 H -0.5973 -0.0092 -0.4952
H23 H -0.6854 -0.1068 -0.5525
loop_
_geom_bond_atom_site_label_1
_geom_bond_atom_site_label_2
_geom_bond_site_symmetry_1
_geom_bond_site_symmetry_2
O1 C1 1_555 1_555
O2 C7 1_555 1_555
N1 C1 1_555 1_555
C1 C2 1_555 1_555
C2 H1 1_555 1_555
H2 C2 1_555 1_555
C3 C2 1_555 1_555
H3 C3 1_555 1_555
H4 C3 1_555 1_555
C4 C3 1_555 1_555
H5 C4 1_555 1_555
C5 C4 1_555 1_555
H6 C5 1_555 1_555
C6 C5 1_555 1_555
H7 C6 1_555 1_555
H8 C6 1_555 1_555
C7 C6 1_555 1_555
C8 C7 1_555 1_555
H9 C8 1_555 1_555
H10 C8 1_555 1_555
C9 N1 1_555 1_555
C10 C5 1_555 1_555
H11 C10 1_555 1_555
H12 C10 1_555 1_555
C11 C10 1_555 1_555
H13 C11 1_555 1_555
C12 C9 1_555 1_555
H14 C12 1_555 1_555
H15 C12 1_555 1_555
C13 C11 1_555 1_555
H16 C13 1_555 1_555
H17 C13 1_555 1_555
H18 C13 1_555 1_555
C14 N1 1_555 1_555
H19 C14 1_555 1_555
H20 C14 1_555 1_555
C15 C14 1_555 1_555
H21 C15 1_555 1_555
C16 C15 1_555 1_555
H22 C16 1_555 1_555
H23 C16 1_555 1_555
C4 C9 1_555 1_555
C8 C9 1_555 1_555
C11 C12 1_555 1_555

#END
