
#######################################################################
#
#                 Cambridge Crystallographic Data Centre
#                                CCDC 
#
#######################################################################
#
# If this CIF has been generated from an entry in the Cambridge 
# Structural Database, then it will include bibliographic, chemical, 
# crystal, experimental, refinement or atomic coordinate data resulting 
# from the CCDC's data processing and validation procedures.
#
#######################################################################

data_OVAVAK
_chemical_formula_moiety         'C16 H23 N1 O2'
_chemical_name_systematic        15-methyllycopodane-5,9-dione
_symmetry_cell_setting           orthorhombic
_symmetry_space_group_name_H-M   'P 21 21 21'
_symmetry_Int_Tables_number      19
_space_group_name_Hall           'P 2ac 2ab'
loop_
_symmetry_equiv_pos_site_id
_symmetry_equiv_pos_as_xyz
1 x,y,z
2 1/2-x,-y,1/2+z
3 1/2+x,1/2-y,-z
4 -x,1/2+y,1/2-z
_cell_length_a                   10.9468(4)
_cell_length_b                   13.1316(5)
_cell_length_c                   19.8805(8)
_cell_angle_alpha                90
_cell_angle_beta                 90
_cell_angle_gamma                90
_cell_volume                     2857.8
_exptl_crystal_colour            colorless
_exptl_crystal_description       block
_cell_formula_units_Z            8
loop_
_atom_site_label
_atom_site_type_symbol
_atom_site_fract_x
_atom_site_fract_y
_atom_site_fract_z
O1 O -0.2950(2) -0.3704(2) 0.49528(11)
O2 O -0.5775(2) -0.05080(17) 0.28370(15)
N1 N -0.4546(2) -0.31448(17) 0.43378(10)
C1 C -0.5116(2) -0.28609(17) 0.36861(11)
C2 C -0.4880(2) -0.17029(18) 0.35889(13)
H1 H -0.3990 -0.1624 0.3602
C3 C -0.5359(3) -0.1078(2) 0.41752(17)
H2 H -0.6243 -0.1116 0.4186
H3 H -0.5130 -0.0370 0.4115
C4 C -0.4842(3) -0.1468(3) 0.48422(16)
H4 H -0.3974 -0.1322 0.4861
H5 H -0.5234 -0.1112 0.5211
C5 C -0.5037(3) -0.2600(3) 0.49253(14)
H6 H -0.4629 -0.2833 0.5330
H7 H -0.5903 -0.2741 0.4970
C6 C -0.3431(3) -0.3588(2) 0.43958(14)
C7 C -0.2802(3) -0.3982(3) 0.37807(15)
H8 H -0.2951 -0.4709 0.3748
H9 H -0.1929 -0.3886 0.3836
C8 C -0.3188(2) -0.3489(2) 0.31276(14)
H10 H -0.2872 -0.3873 0.2749
H11 H -0.2872 -0.2800 0.3102
C9 C -0.4573(2) -0.34762(19) 0.31094(12)
H12 H -0.4840 -0.4181 0.3175
C10 C -0.5145(3) -0.3116(2) 0.24496(13)
H13 H -0.4764 -0.3498 0.2082
C11 C -0.4912(3) -0.1979(2) 0.23255(15)
H14 H -0.4052 -0.1880 0.2229
H15 H -0.5371 -0.1767 0.1932
C12 C -0.5262(2) -0.1320(2) 0.29060(16)
C13 C -0.6490(2) -0.31227(19) 0.37181(12)
H16 H -0.6578 -0.3834 0.3842
H17 H -0.6866 -0.2718 0.4070
C14 C -0.7179(2) -0.2938(2) 0.30624(13)
H18 H -0.7254 -0.2201 0.2999
C15 C -0.6507(3) -0.3374(3) 0.24555(14)
H19 H -0.6879 -0.3111 0.2048
H20 H -0.6602 -0.4108 0.2453
C16 C -0.8465(3) -0.3381(3) 0.31170(18)
H21 H -0.8415 -0.4107 0.3169
H22 H -0.8917 -0.3223 0.2717
H23 H -0.8872 -0.3093 0.3500
O3 O 0.1980(3) -0.5972(2) 0.16900(18)
O4 O -0.1461(2) -0.3415(2) -0.05412(10)
N2 N 0.11964(18) -0.45692(17) 0.12055(11)
C17 C 0.0149(2) -0.39142(18) 0.10070(11)
C18 C -0.0199(2) -0.42303(19) 0.02774(12)
H24 H -0.0382 -0.4960 0.0300
C19 C 0.0880(3) -0.4135(2) -0.02029(14)
H25 H 0.0650 -0.4392 -0.0643
H26 H 0.1102 -0.3424 -0.0251
C20 C 0.1965(3) -0.4732(3) 0.00602(16)
H27 H 0.2667 -0.4600 -0.0225
H28 H 0.1784 -0.5454 0.0035
C21 C 0.2286(2) -0.4459(3) 0.07814(17)
H29 H 0.2929 -0.4904 0.0943
H30 H 0.2580 -0.3762 0.0802
C22 C 0.1105(3) -0.5409(2) 0.15959(18)
C23 C -0.0080(3) -0.5642(3) 0.19344(17)
H31 H -0.0038 -0.5401 0.2395
H32 H -0.0183 -0.6375 0.1949
C24 C -0.1196(3) -0.5180(2) 0.16038(15)
H33 H -0.1366 -0.5520 0.1181
H34 H -0.1903 -0.5253 0.1894
C25 C -0.0927(2) -0.4065(2) 0.14838(12)
H35 H -0.0675 -0.3782 0.1919
C26 C -0.1993(2) -0.3405(2) 0.12365(14)
H36 H -0.2688 -0.3521 0.1537
C27 C -0.2383(2) -0.3711(3) 0.05214(15)
H37 H -0.2756 -0.4381 0.0538
H38 H -0.2997 -0.3235 0.0364
C28 C -0.1356(3) -0.3733(2) 0.00293(13)
C29 C 0.0541(2) -0.2790(2) 0.10593(13)
H39 H 0.0840 -0.2664 0.1511
H40 H 0.1212 -0.2673 0.0750
C30 C -0.0472(3) -0.20298(19) 0.09054(13)
H41 H -0.0659 -0.2078 0.0424
C31 C -0.1629(3) -0.2284(2) 0.12920(15)
H42 H -0.2292 -0.1866 0.1123
H43 H -0.1509 -0.2115 0.1762
C32 C -0.0008(4) -0.0950(2) 0.10441(17)
H44 H 0.0266 -0.0903 0.1502
H45 H -0.0658 -0.0471 0.0971
H46 H 0.0658 -0.0798 0.0746
loop_
_geom_bond_atom_site_label_1
_geom_bond_atom_site_label_2
_geom_bond_site_symmetry_1
_geom_bond_site_symmetry_2
O1 C6 1_555 1_555
O2 C12 1_555 1_555
N1 C1 1_555 1_555
C1 C2 1_555 1_555
C2 H1 1_555 1_555
C3 C2 1_555 1_555
H2 C3 1_555 1_555
H3 C3 1_555 1_555
C4 C3 1_555 1_555
H4 C4 1_555 1_555
H5 C4 1_555 1_555
C5 N1 1_555 1_555
H6 C5 1_555 1_555
H7 C5 1_555 1_555
C6 N1 1_555 1_555
C7 C6 1_555 1_555
H8 C7 1_555 1_555
H9 C7 1_555 1_555
C8 C7 1_555 1_555
H10 C8 1_555 1_555
H11 C8 1_555 1_555
C9 C1 1_555 1_555
H12 C9 1_555 1_555
C10 C9 1_555 1_555
H13 C10 1_555 1_555
C11 C10 1_555 1_555
H14 C11 1_555 1_555
H15 C11 1_555 1_555
C12 C2 1_555 1_555
C13 C1 1_555 1_555
H16 C13 1_555 1_555
H17 C13 1_555 1_555
C14 C13 1_555 1_555
H18 C14 1_555 1_555
C15 C10 1_555 1_555
H19 C15 1_555 1_555
H20 C15 1_555 1_555
C16 C14 1_555 1_555
H21 C16 1_555 1_555
H22 C16 1_555 1_555
H23 C16 1_555 1_555
O3 C22 1_555 1_555
O4 C28 1_555 1_555
N2 C17 1_555 1_555
C17 C18 1_555 1_555
C18 H24 1_555 1_555
C19 C18 1_555 1_555
H25 C19 1_555 1_555
H26 C19 1_555 1_555
C20 C19 1_555 1_555
H27 C20 1_555 1_555
H28 C20 1_555 1_555
C21 N2 1_555 1_555
H29 C21 1_555 1_555
H30 C21 1_555 1_555
C22 N2 1_555 1_555
C23 C22 1_555 1_555
H31 C23 1_555 1_555
H32 C23 1_555 1_555
C24 C23 1_555 1_555
H33 C24 1_555 1_555
H34 C24 1_555 1_555
C25 C17 1_555 1_555
H35 C25 1_555 1_555
C26 C25 1_555 1_555
H36 C26 1_555 1_555
C27 C26 1_555 1_555
H37 C27 1_555 1_555
H38 C27 1_555 1_555
C28 C18 1_555 1_555
C29 C17 1_555 1_555
H39 C29 1_555 1_555
H40 C29 1_555 1_555
C30 C29 1_555 1_555
H41 C30 1_555 1_555
C31 C26 1_555 1_555
H42 C31 1_555 1_555
H43 C31 1_555 1_555
C32 C30 1_555 1_555
H44 C32 1_555 1_555
H45 C32 1_555 1_555
H46 C32 1_555 1_555
C4 C5 1_555 1_555
C8 C9 1_555 1_555
C11 C12 1_555 1_555
C14 C15 1_555 1_555
C20 C21 1_555 1_555
C24 C25 1_555 1_555
C27 C28 1_555 1_555
C30 C31 1_555 1_555

#END
