
#######################################################################
#
#                 Cambridge Crystallographic Data Centre
#                                CCDC 
#
#######################################################################
#
# If this CIF has been generated from an entry in the Cambridge 
# Structural Database, then it will include bibliographic, chemical, 
# crystal, experimental, refinement or atomic coordinate data resulting 
# from the CCDC's data processing and validation procedures.
#
#######################################################################

data_OVAYOB
_chemical_name_common            lapatinib
_chemical_formula_moiety         'C29 H26 Cl1 F1 N4 O4 S1'
_chemical_name_systematic        
N-(3-chloro-4-((3-fluorobenzyl)oxy)phenyl)-6-(5-(((2-(methylsulfonyl)ethyl)amino)methyl)-2-furyl)quinazolin-4-amine
_chemical_properties_biological  'oral tyrosine kinase inhibitor'
_symmetry_cell_setting           monoclinic
_symmetry_space_group_name_H-M   'P 21/c'
_symmetry_Int_Tables_number      14
_space_group_name_Hall           '-P 2ybc'
loop_
_symmetry_equiv_pos_site_id
_symmetry_equiv_pos_as_xyz
1 x,y,z
2 -x,1/2+y,1/2-z
3 -x,-y,-z
4 x,1/2-y,1/2+z
_cell_length_a                   38.752(3)
_cell_length_b                   5.3361(4)
_cell_length_c                   12.5021(8)
_cell_angle_alpha                90
_cell_angle_beta                 90.447(5)
_cell_angle_gamma                90
_cell_volume                     2585.16
_exptl_crystal_colour            'light yellow'
_exptl_crystal_description       plate
_chemical_melting_point          '410.15 K'
_cell_formula_units_Z            4
_exptl_crystal_recrystallization_method methanol/water
loop_
_atom_site_label
_atom_site_type_symbol
_atom_site_fract_x
_atom_site_fract_y
_atom_site_fract_z
Cl1 Cl 0.12537(3) -0.2893(2) 0.54218(9)
S1 S 0.46790(3) 0.1832(2) 0.88634(9)
F1 F 0.04051(8) -0.5268(6) -0.0125(2)
O1 O 0.33407(8) 0.3911(6) 0.4485(2)
O2 O 0.47172(9) -0.0792(6) 0.8601(3)
O3 O 0.45062(9) 0.2419(7) 0.9848(3)
O4 O 0.11775(8) -0.7011(6) 0.3924(2)
N1 N 0.24451(10) 0.3336(7) 0.0148(3)
N2 N 0.21540(10) 0.0160(7) 0.1166(3)
N3 N 0.22452(10) -0.0339(7) 0.2979(3)
H1 H 0.2328(12) 0.023(9) 0.357(2)
N4 N 0.39978(11) 0.3998(8) 0.6599(3)
H2 H 0.4139(11) 0.383(11) 0.608(3)
C1 C 0.36811(12) 0.3135(10) 0.6095(4)
H3 H 0.3488 0.3274 0.6605
H4 H 0.3705 0.1353 0.5888
C2 C 0.36075(12) 0.4687(9) 0.5129(4)
C3 C 0.37626(13) 0.6717(9) 0.4703(4)
H5 H 0.3954 0.7601 0.4993
C4 C 0.35814(13) 0.7276(10) 0.3730(4)
H6 H 0.3629 0.8610 0.3251
C5 C 0.33289(12) 0.5542(9) 0.3624(3)
C6 C 0.30765(12) 0.5029(9) 0.2787(3)
C7 C 0.30904(12) 0.6452(9) 0.1831(4)
H7 H 0.3248 0.7808 0.1781
C8 C 0.28799(13) 0.5903(9) 0.0979(4)
H8 H 0.2895 0.6866 0.0342
C9 C 0.26417(12) 0.3934(9) 0.1037(3)
C10 C 0.26095(12) 0.2583(9) 0.2013(3)
C11 C 0.28350(12) 0.3135(9) 0.2876(3)
H9 H 0.2820 0.2199 0.3521
C12 C 0.23339(12) 0.0755(9) 0.2046(3)
C13 C 0.22267(12) 0.1472(9) 0.0279(4)
H10 H 0.2102 0.0984 -0.0345
C14 C 0.41232(13) 0.2390(9) 0.7464(4)
H11 H 0.4145 0.0637 0.7213
H12 H 0.3962 0.2430 0.8074
C15 C 0.44732(13) 0.3408(10) 0.7799(4)
H13 H 0.4445 0.5189 0.8003
H14 H 0.4627 0.3357 0.7171
C16 C 0.50920(13) 0.3218(10) 0.8892(4)
H15 H 0.5209 0.2890 0.8213
H16 H 0.5228 0.2502 0.9482
H17 H 0.5069 0.5030 0.8996
C17 C 0.19619(12) -0.1995(8) 0.3140(3)
C18 C 0.17631(11) -0.1686(9) 0.4059(3)
H18 H 0.1809 -0.0332 0.4533
C19 C 0.14978(12) -0.3353(9) 0.4282(3)
C20 C 0.14248(12) -0.5365(9) 0.3595(3)
C21 C 0.16184(12) -0.5573(9) 0.2676(3)
H19 H 0.1569 -0.6901 0.2192
C22 C 0.18810(12) -0.3916(8) 0.2436(3)
H20 H 0.2006 -0.4095 0.1790
C23 C 0.09806(12) -0.8285(9) 0.3108(4)
H21 H 0.0842 -0.9633 0.3440
H22 H 0.1140 -0.9067 0.2591
C24 C 0.07447(12) -0.6507(9) 0.2529(4)
C25 C 0.05677(13) -0.4651(9) 0.3103(4)
H23 H 0.0601 -0.4515 0.3854
C26 C 0.03450(13) -0.3017(9) 0.2585(4)
H24 H 0.0230 -0.1757 0.2983
C27 C 0.02883(13) -0.3199(10) 0.1490(4)
H25 H 0.0137 -0.2081 0.1127
C28 C 0.04590(13) -0.5047(10) 0.0955(4)
C29 C 0.06865(12) -0.6684(9) 0.1437(4)
H26 H 0.0802 -0.7919 0.1026
loop_
_geom_bond_atom_site_label_1
_geom_bond_atom_site_label_2
_geom_bond_site_symmetry_1
_geom_bond_site_symmetry_2
Cl1 C19 1_555 1_555
S1 O2 1_555 1_555
F1 C28 1_555 1_555
O1 C2 1_555 1_555
O3 S1 1_555 1_555
O4 C20 1_555 1_555
N1 C9 1_555 1_555
N2 C12 1_555 1_555
N3 H1 1_555 1_555
N4 H2 1_555 1_555
C1 N4 1_555 1_555
H3 C1 1_555 1_555
H4 C1 1_555 1_555
C2 C1 1_555 1_555
C3 C2 1_555 1_555
H5 C3 1_555 1_555
C4 C3 1_555 1_555
H6 C4 1_555 1_555
C5 O1 1_555 1_555
C6 C5 1_555 1_555
C7 C6 1_555 1_555
H7 C7 1_555 1_555
C8 C7 1_555 1_555
H8 C8 1_555 1_555
C9 C8 1_555 1_555
C10 C9 1_555 1_555
C11 C6 1_555 1_555
H9 C11 1_555 1_555
C12 N3 1_555 1_555
C13 N1 1_555 1_555
H10 C13 1_555 1_555
C14 N4 1_555 1_555
H11 C14 1_555 1_555
H12 C14 1_555 1_555
C15 S1 1_555 1_555
H13 C15 1_555 1_555
H14 C15 1_555 1_555
C16 S1 1_555 1_555
H15 C16 1_555 1_555
H16 C16 1_555 1_555
H17 C16 1_555 1_555
C17 N3 1_555 1_555
C18 C17 1_555 1_555
H18 C18 1_555 1_555
C19 C18 1_555 1_555
C20 C19 1_555 1_555
C21 C20 1_555 1_555
H19 C21 1_555 1_555
C22 C17 1_555 1_555
H20 C22 1_555 1_555
C23 O4 1_555 1_555
H21 C23 1_555 1_555
H22 C23 1_555 1_555
C24 C23 1_555 1_555
C25 C24 1_555 1_555
H23 C25 1_555 1_555
C26 C25 1_555 1_555
H24 C26 1_555 1_555
C27 C26 1_555 1_555
H25 C27 1_555 1_555
C28 C27 1_555 1_555
C29 C24 1_555 1_555
H26 C29 1_555 1_555
N2 C13 1_555 1_555
C4 C5 1_555 1_555
C10 C11 1_555 1_555
C10 C12 1_555 1_555
C14 C15 1_555 1_555
C21 C22 1_555 1_555
C28 C29 1_555 1_555

#END
