
#######################################################################
#
#                 Cambridge Crystallographic Data Centre
#                                CCDC 
#
#######################################################################
#
# If this CIF has been generated from an entry in the Cambridge 
# Structural Database, then it will include bibliographic, chemical, 
# crystal, experimental, refinement or atomic coordinate data resulting 
# from the CCDC's data processing and validation procedures.
#
#######################################################################

data_OVAYUH
_chemical_name_common            'lapatinib hydrate'
_chemical_formula_moiety         'C29 H26 Cl1 F1 N4 O4 S1,3.4(H2 O1)'
_chemical_name_systematic        
'N-(3-chloro-4-((3-fluorobenzyl)oxy)phenyl)-6-(5-(((2-(methylsulfonyl)ethyl)amino)methyl)-2-furyl)quinazolin-4-amine hydrate'
_chemical_properties_biological  'oral tyrosine kinase inhibitor'
_symmetry_cell_setting           tetragonal
_symmetry_space_group_name_H-M   'P 42 21 2'
_symmetry_Int_Tables_number      94
_space_group_name_Hall           'P 4n 2n'
loop_
_symmetry_equiv_pos_site_id
_symmetry_equiv_pos_as_xyz
1 x,y,z
2 -x,-y,z
3 1/2-y,1/2+x,1/2+z
4 1/2+y,1/2-x,1/2+z
5 1/2-x,1/2+y,1/2-z
6 1/2+x,1/2-y,1/2-z
7 y,x,-z
8 -y,-x,-z
_cell_length_a                   26.2160(4)
_cell_length_b                   26.2160(4)
_cell_length_c                   8.6021(2)
_cell_angle_alpha                90
_cell_angle_beta                 90
_cell_angle_gamma                90
_cell_volume                     5912.04
_exptl_crystal_colour            'light yellow'
_exptl_crystal_description       needle
_cell_formula_units_Z            8
_exptl_crystal_recrystallization_method methanol/water
loop_
_atom_site_label
_atom_site_type_symbol
_atom_site_fract_x
_atom_site_fract_y
_atom_site_fract_z
Cl1 Cl 0.27204(5) 0.07413(5) 0.52329(17)
F1 F 0.41582(12) 0.00463(11) 0.9899(4)
O1 O 0.22479(15) 0.40031(14) -0.0994(5)
S1 S 0.32322(14) 0.46588(13) -0.6724(4)
O2 O 0.3498(3) 0.4255(2) -0.7534(7)
O3 O 0.2682(2) 0.4634(2) -0.6758(7)
C1 C 0.3427(6) 0.5248(4) -0.747(3)
H1 H 0.3303 0.5284 -0.8538
H2 H 0.3800 0.5267 -0.7458
H3 H 0.3286 0.5523 -0.6827
O4 O 0.35907(13) 0.13318(14) 0.6201(4)
N1 N 0.08098(18) 0.2116(2) 0.0728(6)
N2 N 0.15550(17) 0.18875(18) 0.2185(5)
N3 N 0.22808(16) 0.24038(17) 0.2255(5)
H4 H 0.2421 0.2685 0.1897
N4 N 0.3311(2) 0.4259(2) -0.2139(7)
H5 H 0.3629 0.4377 -0.1916
C2 C 0.2928(2) 0.4608(2) -0.1443(8)
H6 H 0.2988 0.4630 -0.0309
H7 H 0.2975 0.4954 -0.1885
C3 C 0.2397(2) 0.4442(2) -0.1720(7)
C4 C 0.2008(2) 0.4630(2) -0.2588(7)
H8 H 0.2013 0.4931 -0.3203
C5 C 0.1585(2) 0.4286(2) -0.2395(7)
H9 H 0.1257 0.4316 -0.2853
C6 C 0.1749(2) 0.3910(2) -0.1429(6)
C7 C 0.1516(2) 0.3453(2) -0.0810(6)
C8 C 0.1009(2) 0.3329(2) -0.1229(6)
H10 H 0.0824 0.3554 -0.1888
C9 C 0.0780(2) 0.2894(2) -0.0707(6)
H11 H 0.0438 0.2820 -0.0994
C10 C 0.1051(2) 0.2552(2) 0.0257(7)
C11 C 0.1552(2) 0.2678(2) 0.0723(6)
C12 C 0.1783(2) 0.31246(19) 0.0152(6)
H12 H 0.2125 0.3201 0.0430
C13 C 0.1798(2) 0.2311(2) 0.1749(6)
C14 C 0.1076(2) 0.1819(2) 0.1639(7)
H13 H 0.0911 0.1514 0.1961
C15 C 0.3259(2) 0.4209(2) -0.3836(8)
H14 H 0.2896 0.4143 -0.4090
H15 H 0.3460 0.3911 -0.4189
C16 C 0.3436(2) 0.4682(2) -0.4721(8)
H16 H 0.3813 0.4704 -0.4679
H17 H 0.3295 0.4991 -0.4219
C17 C 0.25906(19) 0.21132(19) 0.3274(6)
C18 C 0.2504(2) 0.1614(2) 0.3696(6)
H18 H 0.2216 0.1437 0.3301
C19 C 0.28410(18) 0.1367(2) 0.4704(6)
C20 C 0.32734(18) 0.16090(19) 0.5270(6)
C21 C 0.33621(19) 0.21135(19) 0.4821(6)
H19 H 0.3656 0.2288 0.5189
C22 C 0.30239(19) 0.2361(2) 0.3841(6)
H20 H 0.3088 0.2704 0.3550
C23 C 0.40348(19) 0.1591(2) 0.6771(6)
H21 H 0.3933 0.1904 0.7335
H22 H 0.4258 0.1690 0.5893
C24 C 0.43147(19) 0.12375(19) 0.7844(6)
C25 C 0.47814(19) 0.1397(2) 0.8466(6)
H23 H 0.4923 0.1714 0.8155
C26 C 0.5037(2) 0.1097(2) 0.9525(6)
H24 H 0.5359 0.1205 0.9911
C27 C 0.4833(2) 0.0644(2) 1.0032(7)
H25 H 0.5002 0.0444 1.0793
C28 C 0.4374(2) 0.04898(19) 0.9403(6)
C29 C 0.41108(19) 0.07759(19) 0.8328(6)
H26 H 0.3795 0.0659 0.7923
O5 O 0.4303(3) 0.4702(3) -0.1305(12)
H27 H 0.434(6) 0.476(5) -0.227(5)
H28 H 0.411(8) 0.444(6) -0.125(17)
O6 O 0.1323(2) 0.1323(2) 0.5000
H29 H 0.1406(18) 0.1521(18) 0.425(2)
H29F H 0.1521(18) 0.1406(18) 0.575(2)
O7 O 0.3334(8) 0.3145(3) -0.1389(15)
H30 H 0.3655 0.3154 -0.1322
H31 H 0.3229 0.3188 -0.0407
O7F O 0.3145(3) 0.3334(8) 0.1389(15)
H30F H 0.3154 0.3655 0.1322
H31F H 0.3188 0.3229 0.0407
S2? S 0.3447(6) 0.4635(6) -0.6515(18)
O8? O 0.3907(8) 0.4377(8) -0.692(3)
O9? O 0.2963(9) 0.4392(9) -0.708(3)
C30? C 0.349(3) 0.5257(15) -0.725(12)
H32? H 0.3538 0.5244 -0.8378
H33? H 0.3787 0.5428 -0.6776
H34? H 0.3182 0.5445 -0.7000
H35? H 0.3278 0.3945 -0.1697
H36? H 0.3784 0.4770 -0.4361
H37? H 0.3209 0.4969 -0.4441
O10? O 0.3296(7) 0.2946(4) -0.1555(15)
H38? H 0.3608 0.2874 -0.1539
H39? H 0.3306 0.3293 -0.1672
O11? O 0.4079(13) 0.5005(12) -0.099(5)
H40? H 0.4041 0.5285 -0.1458
H41? H 0.3851 0.4802 -0.1351
H42? H 0.4106 0.5070 -0.0035
H43? H 0.4938 0.5270 -0.4439
H44? H 0.437(9) 0.498(2) -0.084(12)
O12? O 0.4933(6) 0.5280(5) -0.3458(15)
H45? H 0.5046 0.5000 -0.3133
H46? H 0.5184 0.5484 -0.3519
O13? O 0.4450(7) 0.5652(5) -0.0389(17)
H47? H 0.4192 0.5829 -0.0534
H48? H 0.4554 0.5562 -0.1360
loop_
_geom_bond_atom_site_label_1
_geom_bond_atom_site_label_2
_geom_bond_site_symmetry_1
_geom_bond_site_symmetry_2
Cl1 C19 1_555 1_555
F1 C28 1_555 1_555
O1 C3 1_555 1_555
S1 O2 1_555 1_555
O3 S1 1_555 1_555
C1 S1 1_555 1_555
H1 C1 1_555 1_555
H2 C1 1_555 1_555
H3 C1 1_555 1_555
O4 C20 1_555 1_555
N1 C10 1_555 1_555
N2 C13 1_555 1_555
N3 H4 1_555 1_555
N4 H5 1_555 1_555
C2 N4 1_555 1_555
H6 C2 1_555 1_555
H7 C2 1_555 1_555
C3 C2 1_555 1_555
C4 C3 1_555 1_555
H8 C4 1_555 1_555
C5 C4 1_555 1_555
H9 C5 1_555 1_555
C6 O1 1_555 1_555
C7 C6 1_555 1_555
C8 C7 1_555 1_555
H10 C8 1_555 1_555
C9 C8 1_555 1_555
H11 C9 1_555 1_555
C10 C9 1_555 1_555
C11 C10 1_555 1_555
C12 C7 1_555 1_555
H12 C12 1_555 1_555
C13 N3 1_555 1_555
C14 N1 1_555 1_555
H13 C14 1_555 1_555
C15 N4 1_555 1_555
H14 C15 1_555 1_555
H15 C15 1_555 1_555
C16 S1 1_555 1_555
H16 C16 1_555 1_555
H17 C16 1_555 1_555
C17 N3 1_555 1_555
C18 C17 1_555 1_555
H18 C18 1_555 1_555
C19 C18 1_555 1_555
C20 C19 1_555 1_555
C21 C20 1_555 1_555
H19 C21 1_555 1_555
C22 C17 1_555 1_555
H20 C22 1_555 1_555
C23 O4 1_555 1_555
H21 C23 1_555 1_555
H22 C23 1_555 1_555
C24 C23 1_555 1_555
C25 C24 1_555 1_555
H23 C25 1_555 1_555
C26 C25 1_555 1_555
H24 C26 1_555 1_555
C27 C26 1_555 1_555
H25 C27 1_555 1_555
C28 C27 1_555 1_555
C29 C24 1_555 1_555
H26 C29 1_555 1_555
O5 H27 1_555 1_555
H28 O5 1_555 1_555
O6 H29 1_555 1_555
O7 H30 1_555 1_555
H31 O7 1_555 1_555
H29F O6 1_555 1_555
O7F H30F 1_555 1_555
H31F O7F 1_555 1_555
N2 C14 1_555 1_555
C5 C6 1_555 1_555
C11 C12 1_555 1_555
C11 C13 1_555 1_555
C15 C16 1_555 1_555
C21 C22 1_555 1_555
C28 C29 1_555 1_555

#END
