
#######################################################################
#
#                 Cambridge Crystallographic Data Centre
#                                CCDC 
#
#######################################################################
#
# If this CIF has been generated from an entry in the Cambridge 
# Structural Database, then it will include bibliographic, chemical, 
# crystal, experimental, refinement or atomic coordinate data resulting 
# from the CCDC's data processing and validation procedures.
#
#######################################################################

data_OVEDUQ
_chemical_formula_moiety         'C36 H35 N5'
_chemical_name_systematic        
4-(((4-(dimethylamino)phenyl)imino)methyl)-N-(4-(((4-(dimethylamino)phenyl)imino)methyl)phenyl)-N-phenylaniline
_symmetry_cell_setting           monoclinic
_symmetry_space_group_name_H-M   'C 2/c'
_symmetry_Int_Tables_number      15
_space_group_name_Hall           '-C 2yn'
loop_
_symmetry_equiv_pos_site_id
_symmetry_equiv_pos_as_xyz
1 x,y,z
2 -x,y,1/2-z
3 1/2+x,1/2+y,z
4 1/2-x,1/2+y,1/2-z
5 -x,-y,-z
6 x,-y,1/2+z
7 1/2-x,1/2-y,-z
8 1/2+x,1/2-y,1/2+z
_cell_length_a                   15.6424(10)
_cell_length_b                   9.5888(8)
_cell_length_c                   20.3871(11)
_cell_angle_alpha                90
_cell_angle_beta                 108.266(6)
_cell_angle_gamma                90
_cell_volume                     2903.82
_exptl_crystal_colour            'light yellow'
_exptl_crystal_description       block
_cell_formula_units_Z            4
loop_
_atom_site_label
_atom_site_type_symbol
_atom_site_fract_x
_atom_site_fract_y
_atom_site_fract_z
C1 C 1.0000 1.7437(3) 0.7500
H1 H 1.0000 1.8407 0.7500
C2 C 1.06567(16) 1.6714(3) 0.79826(11)
H2 H 1.1110 1.7197 0.8309
C3 C 1.06541(14) 1.5268(2) 0.79906(9)
H3 H 1.1097 1.4794 0.8330
C4 C 1.0000 1.4522(3) 0.7500
C5 C 0.91898(11) 1.22868(18) 0.72143(8)
C6 C 0.91801(11) 1.1196(2) 0.67648(9)
H4 H 0.9705 1.0968 0.6666
C7 C 0.84090(12) 1.04492(19) 0.64634(8)
H5 H 0.8420 0.9717 0.6167
C8 C 0.76132(11) 1.07693(18) 0.65941(8)
C9 C 0.76294(12) 1.1835(2) 0.70568(9)
H6 H 0.7107 1.2050 0.7161
C10 C 0.84076(12) 1.2585(2) 0.73680(9)
H7 H 0.8405 1.3290 0.7680
C11 C 0.67752(12) 1.0038(2) 0.62297(8)
H8 H 0.6247 1.0282 0.6319
C12 C 0.59479(11) 0.8393(2) 0.54314(9)
C13 C 0.59777(12) 0.7503(2) 0.49080(10)
H9 H 0.6517 0.7404 0.4810
C14 C 0.52408(12) 0.6758(2) 0.45264(9)
H10 H 0.5290 0.6186 0.4172
C15 C 0.44166(11) 0.6840(2) 0.46578(8)
C16 C 0.43930(12) 0.7746(2) 0.51883(9)
H11 H 0.3857 0.7846 0.5291
C17 C 0.51307(12) 0.8492(2) 0.55624(9)
H12 H 0.5083 0.9080 0.5912
C18 C 0.37192(14) 0.5172(3) 0.37356(10)
H13 H 0.4102 0.4395 0.3929
H14 H 0.3957 0.5665 0.3421
H15 H 0.3125 0.4840 0.3492
C19 C 0.28881(12) 0.6010(3) 0.44989(10)
H16 H 0.2540 0.6848 0.4368
H17 H 0.3064 0.5901 0.4991
H18 H 0.2532 0.5223 0.4281
N1 N 1.0000 1.3052(2) 0.7500
N2 N 0.67543(10) 0.90831(17) 0.57964(7)
N3 N 0.36788(10) 0.60983(19) 0.42831(8)
C2A C 0.93433(16) 1.6714(3) 0.70174(11)
H2A H 0.8890 1.7197 0.6691
C3A C 0.93459(14) 1.5268(2) 0.70094(9)
H3A H 0.8903 1.4794 0.6670
C5A C 1.08102(11) 1.22868(18) 0.77857(8)
C6A C 1.08199(11) 1.1196(2) 0.82352(9)
H4A H 1.0295 1.0968 0.8334
C7A C 1.15910(12) 1.04492(19) 0.85366(8)
H5A H 1.1580 0.9717 0.8833
C8A C 1.23868(11) 1.07693(18) 0.84059(8)
C9A C 1.23706(12) 1.1835(2) 0.79432(9)
H6A H 1.2893 1.2050 0.7839
C10A C 1.15924(12) 1.2585(2) 0.76320(9)
H7A H 1.1595 1.3290 0.7320
C11A C 1.32248(12) 1.0038(2) 0.87703(8)
H8A H 1.3753 1.0282 0.8681
C12A C 1.40521(11) 0.8393(2) 0.95686(9)
C13A C 1.40223(12) 0.7503(2) 1.00920(10)
H9A H 1.3483 0.7404 1.0190
C14A C 1.47592(12) 0.6758(2) 1.04736(9)
H10A H 1.4710 0.6186 1.0828
C15A C 1.55834(11) 0.6840(2) 1.03422(8)
C16A C 1.56070(12) 0.7746(2) 0.98117(9)
H11A H 1.6143 0.7846 0.9709
C17A C 1.48693(12) 0.8492(2) 0.94376(9)
H12A H 1.4917 0.9080 0.9088
C18A C 1.62808(14) 0.5172(3) 1.12644(10)
H13A H 1.5898 0.4395 1.1071
H14A H 1.6043 0.5665 1.1579
H15A H 1.6875 0.4840 1.1508
C19A C 1.71119(12) 0.6010(3) 1.05011(10)
H16A H 1.7460 0.6848 1.0632
H17A H 1.6936 0.5901 1.0009
H18A H 1.7468 0.5223 1.0719
N2A N 1.32457(10) 0.90831(17) 0.92036(7)
N3A N 1.63212(10) 0.60983(19) 1.07169(8)
loop_
_geom_bond_atom_site_label_1
_geom_bond_atom_site_label_2
_geom_bond_site_symmetry_1
_geom_bond_site_symmetry_2
C1 H1 1_555 1_555
C2 C1 1_555 1_555
H2 C2 1_555 1_555
C3 C2 1_555 1_555
H3 C3 1_555 1_555
C4 C3 1_555 1_555
C5 C6 1_555 1_555
C6 H4 1_555 1_555
C7 C6 1_555 1_555
H5 C7 1_555 1_555
C8 C7 1_555 1_555
C9 C8 1_555 1_555
H6 C9 1_555 1_555
C10 C5 1_555 1_555
H7 C10 1_555 1_555
C11 C8 1_555 1_555
H8 C11 1_555 1_555
C12 C13 1_555 1_555
C13 H9 1_555 1_555
C14 C13 1_555 1_555
H10 C14 1_555 1_555
C15 C14 1_555 1_555
C16 C15 1_555 1_555
H11 C16 1_555 1_555
C17 C12 1_555 1_555
H12 C17 1_555 1_555
C18 H13 1_555 1_555
H14 C18 1_555 1_555
H15 C18 1_555 1_555
C19 H16 1_555 1_555
H17 C19 1_555 1_555
H18 C19 1_555 1_555
N1 C4 1_555 1_555
N2 C11 1_555 1_555
N3 C15 1_555 1_555
C2A C1 1_555 1_555
H2A C2A 1_555 1_555
C3A C4 1_555 1_555
H3A C3A 1_555 1_555
C5A N1 1_555 1_555
C6A C5A 1_555 1_555
H4A C6A 1_555 1_555
C7A C6A 1_555 1_555
H5A C7A 1_555 1_555
C8A C7A 1_555 1_555
C9A C8A 1_555 1_555
H6A C9A 1_555 1_555
C10A C5A 1_555 1_555
H7A C10A 1_555 1_555
C11A C8A 1_555 1_555
H8A C11A 1_555 1_555
C12A C13A 1_555 1_555
C13A H9A 1_555 1_555
C14A C13A 1_555 1_555
H10A C14A 1_555 1_555
C15A C14A 1_555 1_555
C16A C15A 1_555 1_555
H11A C16A 1_555 1_555
C17A C12A 1_555 1_555
H12A C17A 1_555 1_555
C18A H13A 1_555 1_555
H14A C18A 1_555 1_555
H15A C18A 1_555 1_555
C19A H16A 1_555 1_555
H17A C19A 1_555 1_555
H18A C19A 1_555 1_555
N2A C11A 1_555 1_555
N3A C15A 1_555 1_555
C5 N1 1_555 1_555
C9 C10 1_555 1_555
C12 N2 1_555 1_555
C16 C17 1_555 1_555
C18 N3 1_555 1_555
C19 N3 1_555 1_555
C2A C3A 1_555 1_555
C9A C10A 1_555 1_555
C12A N2A 1_555 1_555
C16A C17A 1_555 1_555
C18A N3A 1_555 1_555
C19A N3A 1_555 1_555

#END
