
#######################################################################
#
#                 Cambridge Crystallographic Data Centre
#                                CCDC 
#
#######################################################################
#
# If this CIF has been generated from an entry in the Cambridge 
# Structural Database, then it will include bibliographic, chemical, 
# crystal, experimental, refinement or atomic coordinate data resulting 
# from the CCDC's data processing and validation procedures.
#
#######################################################################

data_OVEKIL
_chemical_formula_moiety         'C21 H21 N3 O3'
_chemical_name_systematic        
3,3-dimethyl-11-(4-nitrophenyl)-2,3,4,5,10,11-hexahydro-1H-dibenzo[b,e][1,4]diazepin-1-one
_symmetry_cell_setting           monoclinic
_symmetry_space_group_name_H-M   'P 21/c'
_symmetry_Int_Tables_number      14
_space_group_name_Hall           '-P 2ybc'
loop_
_symmetry_equiv_pos_site_id
_symmetry_equiv_pos_as_xyz
1 x,y,z
2 -x,1/2+y,1/2-z
3 -x,-y,-z
4 x,1/2-y,1/2+z
_cell_length_a                   11.6617(17)
_cell_length_b                   11.7716(17)
_cell_length_c                   13.3406(19)
_cell_angle_alpha                90
_cell_angle_beta                 96.674(5)
_cell_angle_gamma                90
_cell_volume                     1818.95
_exptl_crystal_colour            yellow
_exptl_crystal_description       Needle
_cell_formula_units_Z            4
loop_
_atom_site_label
_atom_site_type_symbol
_atom_site_fract_x
_atom_site_fract_y
_atom_site_fract_z
N1 N 0.29769(14) 0.32298(15) 0.00348(12)
H1 H 0.3260 0.3881 -0.0095
N2 N 0.12319(14) 0.20069(15) -0.12062(12)
H2 H 0.0875 0.1808 -0.1780
O1 O 0.03585(13) 0.39020(14) 0.17707(10)
O2 O 0.34348(19) -0.1524(2) 0.32573(17)
C1 C 0.05819(16) 0.26273(17) -0.06319(13)
O3 O 0.48057(18) -0.0430(2) 0.39059(15)
C2 C 0.3786(2) 0.0271(2) -0.14888(17)
H3 H 0.3961 -0.0388 -0.1825
C3 C 0.4652(2) 0.0888(3) -0.09377(17)
H4 H 0.5417 0.0656 -0.0919
C4 C 0.43848(18) 0.1840(2) -0.04197(16)
H5 H 0.4971 0.2231 -0.0031
C5 C 0.32533(16) 0.22346(19) -0.04627(14)
C6 C 0.21625(15) 0.30833(17) 0.07997(13)
C7 C 0.25450(15) 0.21098(17) 0.15063(13)
C8 C 0.18808(18) 0.11658(19) 0.16362(15)
H6 H 0.1133 0.1127 0.1309
C9 C 0.23104(19) 0.0269(2) 0.22493(16)
H7 H 0.1862 -0.0371 0.2329
C10 C 0.34127(18) 0.03520(19) 0.27322(14)
N3 N 0.39114(19) -0.0598(2) 0.33449(15)
C11 C 0.23852(16) 0.16253(18) -0.10418(14)
C12 C -0.06236(17) 0.2841(2) -0.11413(15)
H8 H -0.0830 0.2233 -0.1619
H9 H -0.0623 0.3544 -0.1520
C13 C -0.15429(16) 0.29196(19) -0.04205(15)
C14 C -0.1738(2) 0.1771(2) 0.0057(2)
H10 H -0.1956 0.1224 -0.0464
H11 H -0.2342 0.1837 0.0485
H12 H -0.1039 0.1530 0.0450
C15 C -0.26770(19) 0.3336(3) -0.0995(2)
H13 H -0.2549 0.4046 -0.1318
H14 H -0.3240 0.3438 -0.0531
H15 H -0.2954 0.2785 -0.1496
C16 C -0.11209(17) 0.37765(19) 0.03943(16)
H16 H -0.1166 0.4531 0.0099
H17 H -0.1637 0.3758 0.0914
C17 C 0.00992(17) 0.35814(17) 0.08844(14)
C18 C 0.09288(15) 0.30598(16) 0.03175(13)
C19 C 0.40834(17) 0.1295(2) 0.26495(15)
H18 H 0.4818 0.1346 0.3002
C20 C 0.36477(17) 0.21603(19) 0.20362(15)
H19 H 0.4100 0.2801 0.1970
C21 C 0.2658(2) 0.0646(2) -0.15338(15)
H20 H 0.2073 0.0232 -0.1901
H21 H 0.2257(17) 0.3770(18) 0.1224(15)
loop_
_geom_bond_atom_site_label_1
_geom_bond_atom_site_label_2
_geom_bond_site_symmetry_1
_geom_bond_site_symmetry_2
N1 H1 1_555 1_555
N2 H2 1_555 1_555
O1 C17 1_555 1_555
O2 N3 1_555 1_555
C1 N2 1_555 1_555
O3 N3 1_555 1_555
C2 H3 1_555 1_555
C3 C2 1_555 1_555
H4 C3 1_555 1_555
C4 C3 1_555 1_555
H5 C4 1_555 1_555
C5 N1 1_555 1_555
C6 N1 1_555 1_555
C7 C6 1_555 1_555
C8 C7 1_555 1_555
H6 C8 1_555 1_555
C9 C8 1_555 1_555
H7 C9 1_555 1_555
C10 C9 1_555 1_555
N3 C10 1_555 1_555
C11 N2 1_555 1_555
C12 C1 1_555 1_555
H8 C12 1_555 1_555
H9 C12 1_555 1_555
C13 C12 1_555 1_555
C14 C13 1_555 1_555
H10 C14 1_555 1_555
H11 C14 1_555 1_555
H12 C14 1_555 1_555
C15 C13 1_555 1_555
H13 C15 1_555 1_555
H14 C15 1_555 1_555
H15 C15 1_555 1_555
C16 C13 1_555 1_555
H16 C16 1_555 1_555
H17 C16 1_555 1_555
C17 C16 1_555 1_555
C18 C1 1_555 1_555
C19 C10 1_555 1_555
H18 C19 1_555 1_555
C20 C7 1_555 1_555
H19 C20 1_555 1_555
C21 C2 1_555 1_555
H20 C21 1_555 1_555
H21 C6 1_555 1_555
C4 C5 1_555 1_555
C5 C11 1_555 1_555
C6 C18 1_555 1_555
C11 C21 1_555 1_555
C17 C18 1_555 1_555
C19 C20 1_555 1_555

#END
