
#######################################################################
#
#                 Cambridge Crystallographic Data Centre
#                                CCDC 
#
#######################################################################
#
# If this CIF has been generated from an entry in the Cambridge 
# Structural Database, then it will include bibliographic, chemical, 
# crystal, experimental, refinement or atomic coordinate data resulting 
# from the CCDC's data processing and validation procedures.
#
#######################################################################

data_OVEPUC
_chemical_formula_moiety         'C28 H24 O4'
_chemical_name_systematic        2,7,10,15-tetramethoxytetraphenylene
_symmetry_cell_setting           monoclinic
_symmetry_space_group_name_H-M   'P 21/n'
_symmetry_Int_Tables_number      14
_space_group_name_Hall           '-P 2yn'
loop_
_symmetry_equiv_pos_site_id
_symmetry_equiv_pos_as_xyz
1 x,y,z
2 1/2-x,1/2+y,1/2-z
3 -x,-y,-z
4 1/2+x,1/2-y,1/2+z
_cell_length_a                   10.4086(5)
_cell_length_b                   10.5211(5)
_cell_length_c                   20.5327(10)
_cell_angle_alpha                90
_cell_angle_beta                 100.022(2)
_cell_angle_gamma                90
_cell_volume                     2214.22
_cell_formula_units_Z            4
loop_
_atom_site_label
_atom_site_type_symbol
_atom_site_fract_x
_atom_site_fract_y
_atom_site_fract_z
C1 C 0.0982(2) 0.7646(2) 0.11663(10)
C2 C -0.0244(2) 0.7116(2) 0.11186(11)
H1 H -0.0852 0.7220 0.0733
C3 C -0.0570(2) 0.6437(2) 0.16359(11)
H2 H -0.1399 0.6086 0.1598
C4 C 0.0331(2) 0.6265(2) 0.22216(10)
C5 C 0.1552(2) 0.6821(2) 0.22719(9)
C6 C 0.1878(2) 0.7506(2) 0.17425(10)
H3 H 0.2701 0.7870 0.1778
C7 C 0.2567(2) 0.6667(2) 0.28785(10)
C8 C 0.3735(2) 0.6065(2) 0.28225(10)
H4 H 0.3843 0.5722 0.2418
C9 C 0.4739(2) 0.5970(2) 0.33599(11)
C10 C 0.4575(2) 0.6494(2) 0.39575(11)
H5 H 0.5245 0.6444 0.4321
C11 C 0.3431(2) 0.7084(2) 0.40145(10)
H6 H 0.3344 0.7442 0.4419
C12 C 0.2386(2) 0.7169(2) 0.34869(10)
C13 C 0.1169(2) 0.7807(2) 0.36023(10)
C14 C 0.1238(2) 0.9062(2) 0.38287(11)
H7 H 0.2012 0.9509 0.3841
C15 C 0.0204(3) 0.9659(2) 0.40335(11)
H8 H 0.0282 1.0497 0.4179
C16 C -0.0951(2) 0.9009(2) 0.40220(11)
C17 C -0.1068(2) 0.7772(2) 0.37819(10)
H9 H -0.1855 0.7342 0.3761
C18 C -0.0020(2) 0.7166(2) 0.35723(10)
C19 C -0.0190(2) 0.5804(2) 0.33653(10)
C20 C -0.0583(2) 0.4933(2) 0.38010(11)
H10 H -0.0720 0.5205 0.4214
C21 C -0.0771(2) 0.3670(2) 0.36297(11)
C22 C -0.0586(2) 0.3266(2) 0.30111(11)
H11 H -0.0713 0.2416 0.2891
C23 C -0.0216(2) 0.4117(2) 0.25769(11)
H12 H -0.0097 0.3835 0.2162
C24 C -0.0011(2) 0.5401(2) 0.27381(10)
C25 C 0.2451(3) 0.8858(3) 0.06506(12)
H13 H 0.2603 0.9447 0.1013
H14 H 0.2482 0.9300 0.0245
H15 H 0.3110 0.8210 0.0716
C26 C 0.6064(3) 0.4701(3) 0.27770(13)
H16 H 0.5373 0.4089 0.2681
H17 H 0.6889 0.4268 0.2856
H18 H 0.6034 0.5268 0.2408
C27 C -0.2978(3) 0.8955(3) 0.44055(16)
H19 H -0.3445 0.8571 0.4010
H20 H -0.3552 0.9511 0.4590
H21 H -0.2661 0.8304 0.4720
C28 C -0.1316(3) 0.3056(3) 0.46634(12)
H22 H -0.0535 0.3431 0.4905
H23 H -0.1527 0.2305 0.4889
H24 H -0.2021 0.3654 0.4634
O1 O 0.12112(17) 0.82934(17) 0.06195(7)
O2 O 0.59125(16) 0.54055(18) 0.33482(8)
O3 O -0.19190(18) 0.96567(16) 0.42531(9)
O4 O -0.11211(18) 0.27357(15) 0.40283(8)
loop_
_geom_bond_atom_site_label_1
_geom_bond_atom_site_label_2
_geom_bond_site_symmetry_1
_geom_bond_site_symmetry_2
C1 C2 1_555 1_555
C2 H1 1_555 1_555
C3 C2 1_555 1_555
H2 C3 1_555 1_555
C4 C3 1_555 1_555
C5 C4 1_555 1_555
C6 C1 1_555 1_555
H3 C6 1_555 1_555
C7 C5 1_555 1_555
C8 C7 1_555 1_555
H4 C8 1_555 1_555
C9 C8 1_555 1_555
C10 C9 1_555 1_555
H5 C10 1_555 1_555
C11 C10 1_555 1_555
H6 C11 1_555 1_555
C12 C7 1_555 1_555
C13 C12 1_555 1_555
C14 C13 1_555 1_555
H7 C14 1_555 1_555
C15 C14 1_555 1_555
H8 C15 1_555 1_555
C16 C15 1_555 1_555
C17 C16 1_555 1_555
H9 C17 1_555 1_555
C18 C13 1_555 1_555
C19 C18 1_555 1_555
C20 C19 1_555 1_555
H10 C20 1_555 1_555
C21 C20 1_555 1_555
C22 C21 1_555 1_555
H11 C22 1_555 1_555
C23 C22 1_555 1_555
H12 C23 1_555 1_555
C24 C4 1_555 1_555
C25 H13 1_555 1_555
H14 C25 1_555 1_555
H15 C25 1_555 1_555
C26 H16 1_555 1_555
H17 C26 1_555 1_555
H18 C26 1_555 1_555
C27 H19 1_555 1_555
H20 C27 1_555 1_555
H21 C27 1_555 1_555
C28 H22 1_555 1_555
H23 C28 1_555 1_555
H24 C28 1_555 1_555
O1 C1 1_555 1_555
O2 C9 1_555 1_555
O3 C16 1_555 1_555
O4 C21 1_555 1_555
C5 C6 1_555 1_555
C11 C12 1_555 1_555
C17 C18 1_555 1_555
C19 C24 1_555 1_555
C23 C24 1_555 1_555
C25 O1 1_555 1_555
C26 O2 1_555 1_555
C27 O3 1_555 1_555
C28 O4 1_555 1_555

#END
