
#######################################################################
#
#                 Cambridge Crystallographic Data Centre
#                                CCDC 
#
#######################################################################
#
# If this CIF has been generated from an entry in the Cambridge 
# Structural Database, then it will include bibliographic, chemical, 
# crystal, experimental, refinement or atomic coordinate data resulting 
# from the CCDC's data processing and validation procedures.
#
#######################################################################

data_OVEQUD
_chemical_formula_moiety         'C32 H20'
_chemical_name_systematic        'dibenzo[a,m]tetraphenylene unknown solvate'
_symmetry_cell_setting           triclinic
_symmetry_space_group_name_H-M   'P -1'
_symmetry_Int_Tables_number      2
_space_group_name_Hall           '-P 1'
loop_
_symmetry_equiv_pos_site_id
_symmetry_equiv_pos_as_xyz
1 x,y,z
2 -x,-y,-z
_cell_length_a                   12.070(7)
_cell_length_b                   14.138(9)
_cell_length_c                   15.147(9)
_cell_angle_alpha                89.879(10)
_cell_angle_beta                 71.427(10)
_cell_angle_gamma                84.632(9)
_cell_volume                     2438.36
_exptl_crystal_colour            colorless
_exptl_crystal_description       sheet
_cell_formula_units_Z            4
loop_
_atom_site_label
_atom_site_type_symbol
_atom_site_fract_x
_atom_site_fract_y
_atom_site_fract_z
C1 C 0.1547(4) 0.1333(3) 0.8761(4)
C2 C 0.0502(4) 0.0907(4) 0.9206(4)
H1 H 0.0427 0.0300 0.9012
C3 C -0.0392(5) 0.1356(5) 0.9904(4)
H2 H -0.1086 0.1071 1.0146
C4 C -0.0290(5) 0.2230(5) 1.0262(5)
H3 H -0.0873 0.2501 1.0785
C5 C 0.0662(5) 0.2683(4) 0.9844(5)
H4 H 0.0697 0.3292 1.0057
C6 C 0.1614(4) 0.2270(4) 0.9091(4)
C7 C 0.2595(4) 0.2728(4) 0.8665(4)
H5 H 0.2628 0.3347 0.8854
C8 C 0.3507(4) 0.2298(3) 0.7979(4)
H6 H 0.4170 0.2616 0.7717
C9 C 0.3473(4) 0.1366(3) 0.7649(3)
C10 C 0.4520(4) 0.0956(3) 0.6835(4)
C11 C 0.4757(5) 0.1394(4) 0.5992(4)
H7 H 0.4287 0.1934 0.5931
C12 C 0.5698(5) 0.1031(5) 0.5229(4)
H8 H 0.5853 0.1332 0.4662
C13 C 0.6392(5) 0.0238(5) 0.5311(4)
H9 H 0.7013 -0.0007 0.4799
C14 C 0.6168(4) -0.0193(4) 0.6152(4)
H10 H 0.6645 -0.0730 0.6209
C15 C 0.5222(4) 0.0166(3) 0.6932(3)
C16 C 0.5055(4) -0.0316(3) 0.7846(3)
C17 C 0.5946(4) -0.0320(3) 0.8292(3)
C18 C 0.6982(4) 0.0159(4) 0.7893(4)
H11 H 0.7061 0.0512 0.7361
C19 C 0.7856(5) 0.0097(5) 0.8294(5)
H12 H 0.8527 0.0406 0.8036
C20 C 0.7727(6) -0.0448(5) 0.9118(5)
H13 H 0.8326 -0.0498 0.9384
C21 C 0.6733(5) -0.0893(4) 0.9517(4)
H14 H 0.6658 -0.1236 1.0054
C22 C 0.5822(5) -0.0833(3) 0.9112(4)
C23 C 0.4815(5) -0.1287(4) 0.9497(4)
H15 H 0.4713 -0.1592 1.0058
C24 C 0.3956(5) -0.1299(4) 0.9069(4)
H16 H 0.3309 -0.1638 0.9325
C25 C 0.4068(4) -0.0798(3) 0.8247(3)
C26 C 0.3179(4) -0.0872(3) 0.7794(4)
C27 C 0.3034(4) -0.1774(4) 0.7477(4)
H17 H 0.3507 -0.2304 0.7556
C28 C 0.2187(5) -0.1877(4) 0.7047(5)
H18 H 0.2113 -0.2472 0.6822
C29 C 0.1475(5) -0.1115(5) 0.6956(4)
H19 H 0.0891 -0.1197 0.6692
C30 C 0.1596(4) -0.0215(4) 0.7245(4)
H20 H 0.1111 0.0303 0.7157
C31 C 0.2440(4) -0.0083(3) 0.7667(3)
C32 C 0.2521(4) 0.0900(3) 0.8009(3)
C33 C 0.3391(4) 0.2968(3) 0.2777(3)
H21 H 0.4016 0.2513 0.2733
C34 C 0.2525(5) 0.2727(4) 0.2501(4)
H22 H 0.2561 0.2119 0.2254
C35 C 0.1553(4) 0.3374(4) 0.2576(4)
C36 C 0.0598(5) 0.3161(5) 0.2268(4)
H23 H 0.0599 0.2554 0.2033
C37 C -0.0319(5) 0.3829(5) 0.2311(5)
H24 H -0.0919 0.3678 0.2092
C38 C -0.0348(5) 0.4739(5) 0.2687(4)
H25 H -0.0963 0.5197 0.2709
C39 C 0.0530(4) 0.4952(4) 0.3022(4)
H26 H 0.0475 0.5550 0.3298
C40 C 0.1514(4) 0.4307(3) 0.2968(3)
C41 C 0.2472(4) 0.4528(3) 0.3261(3)
C42 C 0.2403(4) 0.5482(3) 0.3709(3)
C43 C 0.1570(4) 0.5707(4) 0.4588(4)
H27 H 0.1104 0.5245 0.4898
C44 C 0.1425(5) 0.6610(4) 0.5007(4)
H28 H 0.0865 0.6750 0.5587
C45 C 0.2117(5) 0.7277(4) 0.4554(4)
H29 H 0.2033 0.7874 0.4839
C46 C 0.2950(4) 0.7102(4) 0.3676(4)
H30 H 0.3410 0.7575 0.3383
C47 C 0.3090(4) 0.6203(3) 0.3235(3)
C48 C 0.3974(4) 0.6007(3) 0.2313(3)
C49 C 0.3840(4) 0.6553(3) 0.1580(4)
H31 H 0.3199 0.7007 0.1682
C50 C 0.4662(5) 0.6420(4) 0.0693(4)
H32 H 0.4540 0.6763 0.0203
C51 C 0.5679(5) 0.5775(4) 0.0524(4)
C52 C 0.6537(6) 0.5680(4) -0.0373(4)
H33 H 0.6428 0.6029 -0.0865
C53 C 0.7514(6) 0.5074(5) -0.0502(4)
H34 H 0.8099 0.5038 -0.1079
C54 C 0.7672(6) 0.4491(5) 0.0223(5)
H35 H 0.8340 0.4066 0.0115
C55 C 0.6814(5) 0.4563(4) 0.1099(4)
H36 H 0.6910 0.4178 0.1573
C56 C 0.5801(4) 0.5217(4) 0.1273(3)
C57 C 0.4935(4) 0.5356(3) 0.2167(3)
C58 C 0.5142(4) 0.4830(4) 0.2979(3)
C59 C 0.6095(4) 0.5023(4) 0.3287(4)
H37 H 0.6561 0.5499 0.3007
C60 C 0.6339(5) 0.4523(5) 0.3986(4)
H38 H 0.6966 0.4657 0.4181
C61 C 0.5660(5) 0.3826(4) 0.4397(4)
H39 H 0.5821 0.3492 0.4878
C62 C 0.4730(5) 0.3607(4) 0.4107(4)
H40 H 0.4293 0.3114 0.4383
C63 C 0.4448(4) 0.4110(3) 0.3416(3)
C64 C 0.3419(4) 0.3883(3) 0.3137(3)
loop_
_geom_bond_atom_site_label_1
_geom_bond_atom_site_label_2
_geom_bond_site_symmetry_1
_geom_bond_site_symmetry_2
C1 C2 1_555 1_555
C2 H1 1_555 1_555
C3 C2 1_555 1_555
H2 C3 1_555 1_555
C4 C3 1_555 1_555
H3 C4 1_555 1_555
C5 C4 1_555 1_555
H4 C5 1_555 1_555
C6 C1 1_555 1_555
C7 C6 1_555 1_555
H5 C7 1_555 1_555
C8 C7 1_555 1_555
H6 C8 1_555 1_555
C9 C8 1_555 1_555
C10 C9 1_555 1_555
C11 C10 1_555 1_555
H7 C11 1_555 1_555
C12 C11 1_555 1_555
H8 C12 1_555 1_555
C13 C12 1_555 1_555
H9 C13 1_555 1_555
C14 C13 1_555 1_555
H10 C14 1_555 1_555
C15 C10 1_555 1_555
C16 C15 1_555 1_555
C17 C16 1_555 1_555
C18 C17 1_555 1_555
H11 C18 1_555 1_555
C19 C18 1_555 1_555
H12 C19 1_555 1_555
C20 C19 1_555 1_555
H13 C20 1_555 1_555
C21 C20 1_555 1_555
H14 C21 1_555 1_555
C22 C17 1_555 1_555
C23 C22 1_555 1_555
H15 C23 1_555 1_555
C24 C23 1_555 1_555
H16 C24 1_555 1_555
C25 C16 1_555 1_555
C26 C25 1_555 1_555
C27 C26 1_555 1_555
H17 C27 1_555 1_555
C28 C27 1_555 1_555
H18 C28 1_555 1_555
C29 C28 1_555 1_555
H19 C29 1_555 1_555
C30 C29 1_555 1_555
H20 C30 1_555 1_555
C31 C26 1_555 1_555
C32 C1 1_555 1_555
C33 H21 1_555 1_555
C34 C33 1_555 1_555
H22 C34 1_555 1_555
C35 C34 1_555 1_555
C36 C35 1_555 1_555
H23 C36 1_555 1_555
C37 C36 1_555 1_555
H24 C37 1_555 1_555
C38 C37 1_555 1_555
H25 C38 1_555 1_555
C39 C38 1_555 1_555
H26 C39 1_555 1_555
C40 C35 1_555 1_555
C41 C40 1_555 1_555
C42 C41 1_555 1_555
C43 C42 1_555 1_555
H27 C43 1_555 1_555
C44 C43 1_555 1_555
H28 C44 1_555 1_555
C45 C44 1_555 1_555
H29 C45 1_555 1_555
C46 C45 1_555 1_555
H30 C46 1_555 1_555
C47 C42 1_555 1_555
C48 C47 1_555 1_555
C49 C48 1_555 1_555
H31 C49 1_555 1_555
C50 C49 1_555 1_555
H32 C50 1_555 1_555
C51 C50 1_555 1_555
C52 C51 1_555 1_555
H33 C52 1_555 1_555
C53 C52 1_555 1_555
H34 C53 1_555 1_555
C54 C53 1_555 1_555
H35 C54 1_555 1_555
C55 C54 1_555 1_555
H36 C55 1_555 1_555
C56 C51 1_555 1_555
C57 C48 1_555 1_555
C58 C57 1_555 1_555
C59 C58 1_555 1_555
H37 C59 1_555 1_555
C60 C59 1_555 1_555
H38 C60 1_555 1_555
C61 C60 1_555 1_555
H39 C61 1_555 1_555
C62 C61 1_555 1_555
H40 C62 1_555 1_555
C63 C58 1_555 1_555
C64 C33 1_555 1_555
C5 C6 1_555 1_555
C9 C32 1_555 1_555
C14 C15 1_555 1_555
C21 C22 1_555 1_555
C24 C25 1_555 1_555
C30 C31 1_555 1_555
C31 C32 1_555 1_555
C39 C40 1_555 1_555
C41 C64 1_555 1_555
C46 C47 1_555 1_555
C55 C56 1_555 1_555
C56 C57 1_555 1_555
C62 C63 1_555 1_555
C63 C64 1_555 1_555

#END
