
#######################################################################
#
#                 Cambridge Crystallographic Data Centre
#                                CCDC 
#
#######################################################################
#
# If this CIF has been generated from an entry in the Cambridge 
# Structural Database, then it will include bibliographic, chemical, 
# crystal, experimental, refinement or atomic coordinate data resulting 
# from the CCDC's data processing and validation procedures.
#
#######################################################################

data_OVEQAJ
_chemical_formula_moiety         'C24 H12 N4 O8'
_chemical_name_systematic        
'2,7,10,15-tetranitrotetraphenylene unknown solvate'
_symmetry_cell_setting           triclinic
_symmetry_space_group_name_H-M   'P -1'
_symmetry_Int_Tables_number      2
_space_group_name_Hall           '-P 1'
loop_
_symmetry_equiv_pos_site_id
_symmetry_equiv_pos_as_xyz
1 x,y,z
2 -x,-y,-z
_cell_length_a                   8.9226(9)
_cell_length_b                   10.2313(11)
_cell_length_c                   14.4881(15)
_cell_angle_alpha                91.213(2)
_cell_angle_beta                 92.368(2)
_cell_angle_gamma                105.790(2)
_cell_volume                     1270.9
_exptl_crystal_colour            colorless
_exptl_crystal_description       BLOCK
_cell_formula_units_Z            2
loop_
_atom_site_label
_atom_site_type_symbol
_atom_site_fract_x
_atom_site_fract_y
_atom_site_fract_z
C1 C 0.5383(3) 0.9036(3) 0.16439(18)
H1 H 0.5751 0.9865 0.1967
C2 C 0.5752(3) 0.8939(3) 0.07392(19)
H2 H 0.6361 0.9686 0.0447
C3 C 0.5189(3) 0.7697(3) 0.02773(17)
C4 C 0.4281(3) 0.6575(3) 0.06907(17)
H3 H 0.3915 0.5754 0.0359
C5 C 0.3912(3) 0.6679(2) 0.16102(16)
C6 C 0.4473(3) 0.7929(2) 0.20893(16)
C7 C 0.4022(3) 0.8155(2) 0.30424(17)
C8 C 0.3210(3) 0.9133(3) 0.3194(2)
H4 H 0.2948 0.9596 0.2694
C9 C 0.2793(3) 0.9423(3) 0.4065(2)
H5 H 0.2226 1.0052 0.4155
C10 C 0.3235(3) 0.8760(2) 0.47934(18)
C11 C 0.4056(3) 0.7818(2) 0.46851(17)
H6 H 0.4350 0.7400 0.5199
C12 C 0.4453(3) 0.7485(2) 0.38082(16)
C13 C 0.5415(3) 0.6515(2) 0.37074(16)
C14 C 0.6903(3) 0.6847(2) 0.41291(17)
H7 H 0.7274 0.7657 0.4473
C15 C 0.7825(3) 0.5979(3) 0.40384(17)
C16 C 0.7313(3) 0.4746(3) 0.35645(19)
H8 H 0.7954 0.4170 0.3513
C17 C 0.5822(3) 0.4392(2) 0.31706(17)
H9 H 0.5443 0.3552 0.2864
C18 C 0.4862(3) 0.5265(2) 0.32196(16)
C19 C 0.3271(3) 0.4812(2) 0.27739(16)
C20 C 0.2224(3) 0.3640(3) 0.30799(18)
H10 H 0.2509 0.3213 0.3592
C21 C 0.0777(3) 0.3101(3) 0.2641(2)
H11 H 0.0074 0.2339 0.2862
C22 C 0.0408(3) 0.3727(3) 0.18693(19)
C23 C 0.1399(3) 0.4895(3) 0.15491(18)
H12 H 0.1109 0.5297 0.1026
C24 C 0.2831(3) 0.5466(2) 0.20113(16)
N1 N 0.5569(3) 0.7543(3) -0.06901(17)
N2 N -0.1101(3) 0.3147(3) 0.1369(2)
N3 N 0.9430(3) 0.6393(2) 0.44479(17)
N4 N 0.2821(3) 0.9064(2) 0.57365(18)
O1 O 0.6203(4) 0.8562(3) -0.10947(17)
O2 O 0.5199(4) 0.6417(3) -0.10500(16)
O3 O -0.1384(3) 0.3666(3) 0.0661(2)
O4 O -0.1975(4) 0.2153(4) 0.1640(2)
O5 O 1.0369(3) 0.5855(3) 0.4145(2)
O6 O 0.9738(2) 0.7263(3) 0.50560(16)
O7 O 0.3263(3) 0.8505(3) 0.63806(16)
O8 O 0.2045(3) 0.9864(2) 0.58212(19)
loop_
_geom_bond_atom_site_label_1
_geom_bond_atom_site_label_2
_geom_bond_site_symmetry_1
_geom_bond_site_symmetry_2
C1 H1 1_555 1_555
C2 C1 1_555 1_555
H2 C2 1_555 1_555
C3 C2 1_555 1_555
C4 C3 1_555 1_555
H3 C4 1_555 1_555
C5 C4 1_555 1_555
C6 C1 1_555 1_555
C7 C6 1_555 1_555
C8 C7 1_555 1_555
H4 C8 1_555 1_555
C9 C8 1_555 1_555
H5 C9 1_555 1_555
C10 C9 1_555 1_555
C11 C10 1_555 1_555
H6 C11 1_555 1_555
C12 C7 1_555 1_555
C13 C12 1_555 1_555
C14 C13 1_555 1_555
H7 C14 1_555 1_555
C15 C14 1_555 1_555
C16 C15 1_555 1_555
H8 C16 1_555 1_555
C17 C16 1_555 1_555
H9 C17 1_555 1_555
C18 C13 1_555 1_555
C19 C18 1_555 1_555
C20 C19 1_555 1_555
H10 C20 1_555 1_555
C21 C20 1_555 1_555
H11 C21 1_555 1_555
C22 C21 1_555 1_555
C23 C22 1_555 1_555
H12 C23 1_555 1_555
C24 C5 1_555 1_555
N1 C3 1_555 1_555
N2 C22 1_555 1_555
N3 C15 1_555 1_555
N4 C10 1_555 1_555
O1 N1 1_555 1_555
O2 N1 1_555 1_555
O3 N2 1_555 1_555
O4 N2 1_555 1_555
O5 N3 1_555 1_555
O6 N3 1_555 1_555
O7 N4 1_555 1_555
O8 N4 1_555 1_555
C5 C6 1_555 1_555
C11 C12 1_555 1_555
C17 C18 1_555 1_555
C19 C24 1_555 1_555
C23 C24 1_555 1_555

#END
