
#######################################################################
#
#                 Cambridge Crystallographic Data Centre
#                                CCDC 
#
#######################################################################
#
# If this CIF has been generated from an entry in the Cambridge 
# Structural Database, then it will include bibliographic, chemical, 
# crystal, experimental, refinement or atomic coordinate data resulting 
# from the CCDC's data processing and validation procedures.
#
#######################################################################

data_OVERAK
_chemical_formula_moiety         'C26 H20 O2,C1 H1 Cl3'
_chemical_name_systematic        
'2,7-dimethoxytetraphenylene chloroform solvate'
_symmetry_cell_setting           triclinic
_symmetry_space_group_name_H-M   'P -1'
_symmetry_Int_Tables_number      2
_space_group_name_Hall           '-P 1'
loop_
_symmetry_equiv_pos_site_id
_symmetry_equiv_pos_as_xyz
1 x,y,z
2 -x,-y,-z
_cell_length_a                   10.337(9)
_cell_length_b                   10.463(10)
_cell_length_c                   11.813(11)
_cell_angle_alpha                89.809(14)
_cell_angle_beta                 69.444(14)
_cell_angle_gamma                80.930(15)
_cell_volume                     1179.47
_exptl_crystal_colour            colorless
_exptl_crystal_description       block
_cell_formula_units_Z            2
loop_
_atom_site_label
_atom_site_type_symbol
_atom_site_fract_x
_atom_site_fract_y
_atom_site_fract_z
C1 C 1.0417(3) 0.2254(3) 0.4066(3)
H1 H 1.1223 0.1922 0.3417
C2 C 1.0531(3) 0.3049(3) 0.4958(3)
H2 H 1.1396 0.3252 0.4897
C3 C 0.9349(3) 0.3529(3) 0.5929(3)
C4 C 0.8061(3) 0.3223(3) 0.5997(3)
H3 H 0.7263 0.3548 0.6657
C5 C 0.7940(3) 0.2446(3) 0.5104(2)
C6 C 0.6539(3) 0.2100(3) 0.5273(2)
C7 C 0.5897(3) 0.1421(3) 0.6276(3)
H4 H 0.6366 0.1162 0.6803
C8 C 0.4576(3) 0.1127(3) 0.6504(3)
H5 H 0.4165 0.0667 0.7175
C9 C 0.3866(3) 0.1515(3) 0.5734(3)
H6 H 0.2976 0.1318 0.5884
C10 C 0.4481(3) 0.2198(3) 0.4738(3)
H7 H 0.3991 0.2466 0.4229
C11 C 0.5822(3) 0.2493(3) 0.4481(2)
C12 C 0.6422(3) 0.3246(3) 0.3407(2)
C13 C 0.5743(3) 0.4499(3) 0.3335(3)
H8 H 0.4944 0.4860 0.3978
C14 C 0.6231(4) 0.5202(3) 0.2338(3)
H9 H 0.5784 0.6043 0.2324
C15 C 0.7382(4) 0.4667(3) 0.1358(3)
H10 H 0.7707 0.5137 0.0675
C16 C 0.8053(3) 0.3417(3) 0.1400(3)
H11 H 0.8821 0.3051 0.0733
C17 C 0.7602(3) 0.2699(3) 0.2417(2)
C18 C 0.8346(3) 0.1353(3) 0.2408(2)
C19 C 0.8345(3) 0.0438(3) 0.1541(2)
H12 H 0.7858 0.0674 0.1023
C20 C 0.9062(3) -0.0810(3) 0.1453(3)
C21 C 0.9857(3) -0.1144(3) 0.2181(3)
H13 H 1.0378 -0.1971 0.2097
C22 C 0.9872(3) -0.0246(3) 0.3026(3)
H14 H 1.0405 -0.0477 0.3509
C23 C 0.9095(3) 0.1016(3) 0.3173(2)
C24 C 0.9143(3) 0.1938(3) 0.4108(2)
C25 C 1.0618(5) 0.4562(4) 0.6908(4)
H15 H 1.1198 0.3771 0.6966
H16 H 1.0446 0.5140 0.7593
H17 H 1.1085 0.4962 0.6177
C26 C 0.8237(4) -0.1506(4) -0.0060(3)
H18 H 0.7275 -0.1218 0.0439
H19 H 0.8307 -0.2275 -0.0534
H20 H 0.8575 -0.0839 -0.0590
O1 O 0.9323(3) 0.4286(2) 0.6889(2)
O2 O 0.9059(3) -0.1784(2) 0.0690(2)
C27 C 0.4874(4) 0.2688(4) 0.1045(3)
H21 H 0.5539 0.2882 0.1415
Cl1 Cl 0.33699(15) 0.38584(12) 0.15869(16)
Cl2 Cl 0.44345(15) 0.11688(12) 0.14833(13)
Cl3 Cl 0.5679(2) 0.2645(2) -0.05116(13)
loop_
_geom_bond_atom_site_label_1
_geom_bond_atom_site_label_2
_geom_bond_site_symmetry_1
_geom_bond_site_symmetry_2
C1 H1 1_555 1_555
C2 C1 1_555 1_555
H2 C2 1_555 1_555
C3 C2 1_555 1_555
C4 C3 1_555 1_555
H3 C4 1_555 1_555
C5 C4 1_555 1_555
C6 C5 1_555 1_555
C7 C6 1_555 1_555
H4 C7 1_555 1_555
C8 C7 1_555 1_555
H5 C8 1_555 1_555
C9 C8 1_555 1_555
H6 C9 1_555 1_555
C10 C9 1_555 1_555
H7 C10 1_555 1_555
C11 C6 1_555 1_555
C12 C11 1_555 1_555
C13 C12 1_555 1_555
H8 C13 1_555 1_555
C14 C13 1_555 1_555
H9 C14 1_555 1_555
C15 C14 1_555 1_555
H10 C15 1_555 1_555
C16 C15 1_555 1_555
H11 C16 1_555 1_555
C17 C12 1_555 1_555
C18 C17 1_555 1_555
C19 C18 1_555 1_555
H12 C19 1_555 1_555
C20 C19 1_555 1_555
C21 C20 1_555 1_555
H13 C21 1_555 1_555
C22 C21 1_555 1_555
H14 C22 1_555 1_555
C23 C18 1_555 1_555
C24 C1 1_555 1_555
C25 H15 1_555 1_555
H16 C25 1_555 1_555
H17 C25 1_555 1_555
C26 H18 1_555 1_555
H19 C26 1_555 1_555
H20 C26 1_555 1_555
O1 C3 1_555 1_555
O2 C20 1_555 1_555
C27 H21 1_555 1_555
Cl1 C27 1_555 1_555
Cl2 C27 1_555 1_555
Cl3 C27 1_555 1_555
C5 C24 1_555 1_555
C10 C11 1_555 1_555
C16 C17 1_555 1_555
C22 C23 1_555 1_555
C23 C24 1_555 1_555
C25 O1 1_555 1_555
C26 O2 1_555 1_555

#END
