
#######################################################################
#
#                 Cambridge Crystallographic Data Centre
#                                CCDC 
#
#######################################################################
#
# If this CIF has been generated from an entry in the Cambridge 
# Structural Database, then it will include bibliographic, chemical, 
# crystal, experimental, refinement or atomic coordinate data resulting 
# from the CCDC's data processing and validation procedures.
#
#######################################################################

data_OVERAT
_chemical_name_common            'Orthoveratric acid'
_chemical_formula_moiety         'C9 H10 O4'
_chemical_name_systematic        '2,3-Dimethoxybenzoic acid'
_symmetry_cell_setting           monoclinic
_symmetry_space_group_name_H-M   'P 21/c'
_symmetry_Int_Tables_number      14
_space_group_name_Hall           '-P 2ybc'
loop_
_symmetry_equiv_pos_site_id
_symmetry_equiv_pos_as_xyz
1 x,y,z
2 -x,1/2+y,1/2-z
3 -x,-y,-z
4 x,1/2-y,1/2+z
_cell_length_a                   8.34(1)
_cell_length_b                   7.05(1)
_cell_length_c                   16.76(2)
_cell_angle_alpha                90
_cell_angle_beta                 111.2(5)
_cell_angle_gamma                90
_cell_volume                     918.747
_cell_formula_units_Z            4
loop_
_atom_site_label
_atom_site_type_symbol
_atom_site_fract_x
_atom_site_fract_y
_atom_site_fract_z
C1 C -0.08350 0.38660 0.10460
C2 C -0.22990 0.40110 0.12820
C3 C -0.26200 0.57500 0.16420
C4 C -0.14900 0.72840 0.17700
C5 C -0.00180 0.70840 0.15540
C6 C 0.03210 0.54310 0.12020
C7 C -0.04920 0.21550 0.06210
O1 O -0.17680 0.12400 0.00730
O2 O 0.10830 0.16680 0.07820
O3 O -0.33420 0.24310 0.12280
C8 C -0.50290 0.25190 0.05450
O4 O -0.40940 0.57260 0.18520
C9 C -0.45640 0.74440 0.21880
H1 H -0.17000 0.83500 0.20000
H2 H 0.07300 0.80300 0.15700
H3 H 0.14000 0.51200 0.10800
H4 H 0.13900 0.11900 0.03000
H5 H -0.47900 0.24000 0.00300
H6 H -0.58000 0.12600 0.05000
H7 H -0.47100 0.83100 0.17800
H8 H -0.37400 0.79300 0.26500
H9 H -0.59500 0.69500 0.22500
loop_
_geom_bond_atom_site_label_1
_geom_bond_atom_site_label_2
_geom_bond_site_symmetry_1
_geom_bond_site_symmetry_2
C1 C2 1_555 1_555
C2 C3 1_555 1_555
C3 C4 1_555 1_555
C4 C5 1_555 1_555
C5 C6 1_555 1_555
C6 C1 1_555 1_555
C7 C1 1_555 1_555
O1 C7 1_555 1_555
O2 C7 1_555 1_555
O3 C2 1_555 1_555
C8 O3 1_555 1_555
O4 C3 1_555 1_555
C9 O4 1_555 1_555
H1 C4 1_555 1_555
H2 C5 1_555 1_555
H3 C6 1_555 1_555
H4 O2 1_555 1_555
H5 C8 1_555 1_555
H6 C8 1_555 1_555
H7 C9 1_555 1_555
H8 C9 1_555 1_555
H9 C9 1_555 1_555

#END
