
#######################################################################
#
#                 Cambridge Crystallographic Data Centre
#                                CCDC 
#
#######################################################################
#
# If this CIF has been generated from an entry in the Cambridge 
# Structural Database, then it will include bibliographic, chemical, 
# crystal, experimental, refinement or atomic coordinate data resulting 
# from the CCDC's data processing and validation procedures.
#
#######################################################################

data_OVEREO
_chemical_formula_moiety         'C24 H16 O4,C4 H8 O2'
_chemical_name_systematic        
'tetraphenylene-2,7,10,15-tetrol ethyl acetate solvate'
_symmetry_cell_setting           monoclinic
_symmetry_space_group_name_H-M   'C 2/c'
_symmetry_Int_Tables_number      15
_space_group_name_Hall           '-C 2yn'
loop_
_symmetry_equiv_pos_site_id
_symmetry_equiv_pos_as_xyz
1 x,y,z
2 -x,y,1/2-z
3 1/2+x,1/2+y,z
4 1/2-x,1/2+y,1/2-z
5 -x,-y,-z
6 x,-y,1/2+z
7 1/2-x,1/2-y,-z
8 1/2+x,1/2-y,1/2+z
_cell_length_a                   18.522(6)
_cell_length_b                   9.930(3)
_cell_length_c                   25.861(10)
_cell_angle_alpha                90
_cell_angle_beta                 106.109(5)
_cell_angle_gamma                90
_cell_volume                     4569.69
_cell_formula_units_Z            8
loop_
_atom_site_label
_atom_site_type_symbol
_atom_site_fract_x
_atom_site_fract_y
_atom_site_fract_z
C1 C 0.30034(13) 0.3754(3) 0.59930(11)
C2 C 0.31867(14) 0.3240(3) 0.65060(11)
H1 H 0.2866 0.3369 0.6722
C3 C 0.38485(14) 0.2533(3) 0.66999(10)
H2 H 0.3971 0.2195 0.7049
C4 C 0.43371(12) 0.2313(2) 0.63853(8)
C5 C 0.41304(11) 0.2795(2) 0.58564(8)
C6 C 0.34669(12) 0.3506(3) 0.56663(10)
H3 H 0.3330 0.3821 0.5314
C7 C 0.45657(11) 0.2457(2) 0.54649(8)
C8 C 0.42153(12) 0.1651(2) 0.50315(8)
H4 H 0.3735 0.1322 0.5001
C9 C 0.45689(13) 0.1329(2) 0.46447(8)
C10 C 0.52703(13) 0.1825(2) 0.46796(9)
H5 H 0.5510 0.1615 0.4418
C11 C 0.56177(12) 0.2641(2) 0.51085(9)
H6 H 0.6094 0.2979 0.5130
C12 C 0.52809(11) 0.2975(2) 0.55087(8)
C13 C 0.56649(11) 0.3895(2) 0.59544(8)
C14 C 0.58543(12) 0.5190(2) 0.58372(9)
H7 H 0.5726 0.5473 0.5480
C15 C 0.62278(13) 0.6068(2) 0.62354(10)
H8 H 0.6354 0.6928 0.6147
C16 C 0.64115(13) 0.5658(2) 0.67637(9)
C17 C 0.62408(12) 0.4375(2) 0.68918(9)
H9 H 0.6378 0.4099 0.7249
C18 C 0.58645(11) 0.3487(2) 0.64921(8)
C19 C 0.57541(12) 0.2075(2) 0.66544(8)
C20 C 0.63889(12) 0.1314(2) 0.68753(8)
H10 H 0.6860 0.1686 0.6908
C21 C 0.63366(12) 0.0009(2) 0.70483(9)
C22 C 0.56372(13) -0.0531(2) 0.70140(9)
H11 H 0.5595 -0.1399 0.7138
C23 C 0.50057(13) 0.0225(2) 0.67958(8)
H12 H 0.4538 -0.0149 0.6774
C24 C 0.50388(12) 0.1532(2) 0.66060(8)
O1 O 0.23778(10) 0.4527(3) 0.57741(8)
H13 H 0.2066 0.4397 0.5940
O2 O 0.41751(10) 0.05279(19) 0.42265(6)
H14 H 0.4456 0.0274 0.4051
O3 O 0.69848(9) -0.06898(17) 0.72419(8)
H15 H 0.6887 -0.1470 0.7301
O4 O 0.67733(12) 0.65590(17) 0.71553(7)
H16 H 0.6801 0.6243 0.7453
C25 C 0.56064(17) 0.6182(3) 0.83711(16)
H17 H 0.5223 0.6850 0.8344
H18 H 0.5626 0.5603 0.8672
H19 H 0.5493 0.5657 0.8047
C26 C 0.63387(16) 0.6848(3) 0.84487(12)
C27 C 0.71933(19) 0.8464(5) 0.89453(19)
H20 H 0.7616 0.7857 0.9072
H21 H 0.7231 0.8877 0.8614
C28 C 0.7213(2) 0.9489(5) 0.9343(2)
H22 H 0.6772 1.0042 0.9229
H23 H 0.7653 1.0036 0.9385
H24 H 0.7227 0.9071 0.9680
O5 O 0.67694(14) 0.6640(3) 0.81872(9)
O6 O 0.64917(11) 0.7715(3) 0.88461(10)
loop_
_geom_bond_atom_site_label_1
_geom_bond_atom_site_label_2
_geom_bond_site_symmetry_1
_geom_bond_site_symmetry_2
C1 C2 1_555 1_555
C2 H1 1_555 1_555
C3 C2 1_555 1_555
H2 C3 1_555 1_555
C4 C3 1_555 1_555
C5 C4 1_555 1_555
C6 C1 1_555 1_555
H3 C6 1_555 1_555
C7 C5 1_555 1_555
C8 C7 1_555 1_555
H4 C8 1_555 1_555
C9 C8 1_555 1_555
C10 C9 1_555 1_555
H5 C10 1_555 1_555
C11 C10 1_555 1_555
H6 C11 1_555 1_555
C12 C7 1_555 1_555
C13 C12 1_555 1_555
C14 C13 1_555 1_555
H7 C14 1_555 1_555
C15 C14 1_555 1_555
H8 C15 1_555 1_555
C16 C15 1_555 1_555
C17 C16 1_555 1_555
H9 C17 1_555 1_555
C18 C13 1_555 1_555
C19 C18 1_555 1_555
C20 C19 1_555 1_555
H10 C20 1_555 1_555
C21 C20 1_555 1_555
C22 C21 1_555 1_555
H11 C22 1_555 1_555
C23 C22 1_555 1_555
H12 C23 1_555 1_555
C24 C4 1_555 1_555
O1 C1 1_555 1_555
H13 O1 1_555 1_555
O2 C9 1_555 1_555
H14 O2 1_555 1_555
O3 C21 1_555 1_555
H15 O3 1_555 1_555
O4 C16 1_555 1_555
H16 O4 1_555 1_555
C25 H17 1_555 1_555
H18 C25 1_555 1_555
H19 C25 1_555 1_555
C26 C25 1_555 1_555
C27 H20 1_555 1_555
H21 C27 1_555 1_555
C28 C27 1_555 1_555
H22 C28 1_555 1_555
H23 C28 1_555 1_555
H24 C28 1_555 1_555
O5 C26 1_555 1_555
O6 C26 1_555 1_555
C5 C6 1_555 1_555
C11 C12 1_555 1_555
C17 C18 1_555 1_555
C19 C24 1_555 1_555
C23 C24 1_555 1_555
C27 O6 1_555 1_555

#END
