
#######################################################################
#
#                 Cambridge Crystallographic Data Centre
#                                CCDC 
#
#######################################################################
#
# If this CIF has been generated from an entry in the Cambridge 
# Structural Database, then it will include bibliographic, chemical, 
# crystal, experimental, refinement or atomic coordinate data resulting 
# from the CCDC's data processing and validation procedures.
#
#######################################################################

data_OVESIT
_chemical_formula_moiety         'C17 H23 N4 O6 P1'
_chemical_name_systematic        
'dimethyl ((3-((t-butoxycarbonyl)amino)-1-methyl-2-oxo-2,3-dihydro-1H-indol-3-yl)(diazo)methyl)phosphonate'
_symmetry_cell_setting           orthorhombic
_symmetry_space_group_name_H-M   'P 21 21 21'
_symmetry_Int_Tables_number      19
_space_group_name_Hall           'P 2ac 2ab'
loop_
_symmetry_equiv_pos_site_id
_symmetry_equiv_pos_as_xyz
1 x,y,z
2 1/2-x,-y,1/2+z
3 1/2+x,1/2-y,-z
4 -x,1/2+y,1/2-z
_cell_length_a                   9.73106(13)
_cell_length_b                   10.22183(14)
_cell_length_c                   19.6704(2)
_cell_angle_alpha                90
_cell_angle_beta                 90
_cell_angle_gamma                90
_cell_volume                     1956.6
_exptl_crystal_colour            'light yellow'
_exptl_crystal_description       block
_cell_formula_units_Z            4
loop_
_atom_site_label
_atom_site_type_symbol
_atom_site_fract_x
_atom_site_fract_y
_atom_site_fract_z
O1 O 0.4350(3) 0.4569(3) 0.86068(15)
O2 O 0.6334(3) 0.3629(3) 0.82357(15)
O3 O 0.8245(4) 0.6157(3) 0.7851(2)
N1 N 0.9474(4) 0.4331(4) 0.8165(2)
C1 C 0.9444(5) 0.3415(4) 0.8702(2)
C2 C 1.0147(5) 0.2258(5) 0.8751(2)
H1 H 1.0773 0.2002 0.8419
C3 C 1.0272(6) 0.4148(5) 0.7548(3)
H2 H 1.1232 0.4121 0.7659
H3 H 1.0101 0.4861 0.7241
H4 H 1.0010 0.3340 0.7335
C4 C 0.8256(5) 0.3057(7) 0.9743(2)
H5 H 0.7633 0.3322 1.0074
N2 N 0.6430(4) 0.5240(4) 0.8985(2)
H6 H 0.6059 0.5821 0.9243
C5 C 0.5685(5) 0.2515(4) 0.7880(2)
C6 C 0.6917(5) 0.1777(5) 0.7618(3)
H7 H 0.7458 0.2342 0.7334
H8 H 0.6615 0.1036 0.7358
H9 H 0.7464 0.1483 0.7994
C7 C 0.4795(7) 0.3019(5) 0.7306(3)
H10 H 0.3992 0.3434 0.7490
H11 H 0.4522 0.2302 0.7021
H12 H 0.5305 0.3642 0.7041
C8 C 0.8504(5) 0.3823(5) 0.9195(2)
C9 C 0.7922(5) 0.5138(5) 0.8980(3)
O4 O 1.0081(4) 0.7855(3) 1.00999(18)
C10 C 0.8528(5) 0.5300(4) 0.8250(3)
C11 C 0.9887(6) 0.1482(5) 0.9318(3)
H13 H 1.0353 0.0694 0.9369
C12 C 0.4863(7) 0.1702(5) 0.8373(3)
H14 H 0.5425 0.1481 0.8757
H15 H 0.4562 0.0914 0.8152
H16 H 0.4077 0.2191 0.8523
C13 C 0.8945(6) 0.1866(7) 0.9805(3)
H17 H 0.8771 0.1328 1.0177
C14 C 0.5594(5) 0.4471(4) 0.8606(2)
C15 C 0.8513(5) 0.6267(5) 0.9397(3)
N3 N 0.8153(10) 0.7580(7) 0.9051(4)
P1 P 0.9737(2) 0.6473(2) 0.99570(12)
O5 O 1.0936(7) 0.5529(9) 0.9768(5)
O6 O 0.9174(8) 0.5680(6) 1.0577(3)
C16 C 0.7845(13) 0.5560(10) 1.0774(6)
H18 H 0.7796 0.5032 1.1176
H19 H 0.7324 0.5153 1.0417
H20 H 0.7472 0.6411 1.0867
N4 N 0.7803(12) 0.8485(9) 0.8892(7)
C17 C 1.1737(19) 0.5649(19) 0.9414(10)
H21 H 1.2302 0.4879 0.9412
H22 H 1.2283 0.6392 0.9539
H23 H 1.1356 0.5783 0.8970
P2? P 0.9671(3) 0.7308(3) 0.94530(14)
O7? O 1.0866(8) 0.6735(9) 0.9000(5)
N5? N 0.8167(9) 0.5824(8) 1.0212(4)
O8? O 0.9063(8) 0.8324(7) 0.8920(4)
N6? N 0.7975(11) 0.6075(8) 1.0870(5)
C18? C 0.7774(12) 0.8877(10) 0.8885(8)
H24? H 0.7699 0.9386 0.8476
H25? H 0.7633 0.9432 0.9272
H26? H 0.7091 0.8199 0.8881
C19? C 1.1814(18) 0.594(2) 0.9118(8)
H27? H 1.2370 0.5839 0.8718
H28? H 1.1428 0.5109 0.9242
H29? H 1.2371 0.6261 0.9485
loop_
_geom_bond_atom_site_label_1
_geom_bond_atom_site_label_2
_geom_bond_site_symmetry_1
_geom_bond_site_symmetry_2
O1 C14 1_555 1_555
O2 C5 1_555 1_555
O3 C10 1_555 1_555
N1 C1 1_555 1_555
C1 C2 1_555 1_555
C2 H1 1_555 1_555
C3 N1 1_555 1_555
H2 C3 1_555 1_555
H3 C3 1_555 1_555
H4 C3 1_555 1_555
C4 H5 1_555 1_555
N2 H6 1_555 1_555
C5 C6 1_555 1_555
C6 H7 1_555 1_555
H8 C6 1_555 1_555
H9 C6 1_555 1_555
C7 C5 1_555 1_555
H10 C7 1_555 1_555
H11 C7 1_555 1_555
H12 C7 1_555 1_555
C8 C1 1_555 1_555
C9 N2 1_555 1_555
O4 P1 1_555 1_555
C10 N1 1_555 1_555
C11 C2 1_555 1_555
H13 C11 1_555 1_555
C12 C5 1_555 1_555
H14 C12 1_555 1_555
H15 C12 1_555 1_555
H16 C12 1_555 1_555
C13 C4 1_555 1_555
H17 C13 1_555 1_555
C14 O2 1_555 1_555
C15 C9 1_555 1_555
N3 C15 1_555 1_555
P1 C15 1_555 1_555
O5 P1 1_555 1_555
O6 P1 1_555 1_555
C16 O6 1_555 1_555
H18 C16 1_555 1_555
H19 C16 1_555 1_555
H20 C16 1_555 1_555
N4 N3 1_555 1_555
C17 O5 1_555 1_555
H21 C17 1_555 1_555
H22 C17 1_555 1_555
H23 C17 1_555 1_555
C4 C8 1_555 1_555
N2 C14 1_555 1_555
C8 C9 1_555 1_555
C9 C10 1_555 1_555
C11 C13 1_555 1_555

#END
