
#######################################################################
#
#                 Cambridge Crystallographic Data Centre
#                                CCDC 
#
#######################################################################
#
# If this CIF has been generated from an entry in the Cambridge 
# Structural Database, then it will include bibliographic, chemical, 
# crystal, experimental, refinement or atomic coordinate data resulting 
# from the CCDC's data processing and validation procedures.
#
#######################################################################

data_OVIKAH
_chemical_formula_moiety         'C27 H24 O2 Si1'
_chemical_name_systematic        
(S)-(3,4-dihydro-2H-chromen-4-yloxy)(triphenyl)silane
_symmetry_cell_setting           monoclinic
_symmetry_space_group_name_H-M   'P 21'
_symmetry_Int_Tables_number      4
_space_group_name_Hall           'P 2yb'
loop_
_symmetry_equiv_pos_site_id
_symmetry_equiv_pos_as_xyz
1 x,y,z
2 -x,1/2+y,-z
_cell_length_a                   10.9603(11)
_cell_length_b                   7.6260(8)
_cell_length_c                   13.2439(14)
_cell_angle_alpha                90
_cell_angle_beta                 92.830(3)
_cell_angle_gamma                90
_cell_volume                     1105.62
_exptl_crystal_colour            colorless
_exptl_crystal_description       plate
_cell_formula_units_Z            2
loop_
_atom_site_label
_atom_site_type_symbol
_atom_site_fract_x
_atom_site_fract_y
_atom_site_fract_z
Si1 Si 0.75557(6) 0.42958(9) 0.26675(5)
O1 O 0.68529(14) 0.5443(2) 0.17777(12)
O2 O 0.4934(2) 0.8067(3) 0.00100(16)
C1 C 0.6263(2) 0.7126(3) 0.18718(19)
H1 H 0.6459 0.7611 0.2546
C2 C 0.6750(2) 0.8324(4) 0.1081(2)
H2 H 0.6537 0.9529 0.1226
H3 H 0.7634 0.8237 0.1089
C3 C 0.6213(3) 0.7811(4) 0.0058(2)
H4 H 0.6578 0.8512 -0.0459
H5 H 0.6393 0.6588 -0.0071
C4 C 0.4328(3) 0.7464(4) 0.0806(2)
C5 C 0.3068(3) 0.7430(4) 0.0680(3)
H6 H 0.2691 0.7805 0.0074
C6 C 0.2381(3) 0.6858(5) 0.1429(4)
H7 H 0.1534 0.6851 0.1338
C7 C 0.2927(4) 0.6281(5) 0.2331(3)
H8 H 0.2456 0.5853 0.2842
C8 C 0.4185(3) 0.6352(4) 0.2463(2)
H9 H 0.4555 0.5986 0.3074
C9 C 0.4905(2) 0.6950(3) 0.1712(2)
C10 C 0.6512(2) 0.2653(3) 0.3191(2)
C11 C 0.5431(3) 0.2210(4) 0.2660(2)
H10 H 0.5219 0.2789 0.2060
C12 C 0.4670(3) 0.0934(5) 0.3004(4)
H11 H 0.3954 0.0664 0.2631
C13 C 0.4947(5) 0.0062(5) 0.3878(4)
H12 H 0.4424 -0.0800 0.4101
C14 C 0.6002(4) 0.0460(5) 0.4431(3)
H13 H 0.6200 -0.0127 0.5032
C15 C 0.6771(3) 0.1752(4) 0.4081(2)
H14 H 0.7485 0.2018 0.4460
C16 C 0.8195(2) 0.5765(3) 0.36845(19)
C17 C 0.7661(3) 0.5982(4) 0.4597(2)
H15 H 0.6948 0.5372 0.4716
C18 C 0.8155(4) 0.7080(5) 0.5341(3)
H16 H 0.7777 0.7197 0.5950
C19 C 0.9200(4) 0.7995(5) 0.5178(3)
H17 H 0.9545 0.8721 0.5679
C20 C 0.9724(3) 0.7832(5) 0.4286(3)
H18 H 1.0421 0.8480 0.4167
C21 C 0.9248(3) 0.6724(4) 0.3543(2)
H19 H 0.9639 0.6619 0.2939
C22 C 0.8817(2) 0.3171(4) 0.20436(19)
C23 C 0.9389(2) 0.3924(4) 0.1242(2)
H20 H 0.9101 0.4991 0.0987
C24 C 1.0370(3) 0.3145(5) 0.0811(2)
H21 H 1.0733 0.3690 0.0274
C25 C 1.0816(3) 0.1573(5) 0.1168(3)
H22 H 1.1479 0.1047 0.0877
C26 C 1.0274(3) 0.0791(4) 0.1955(2)
H23 H 1.0573 -0.0270 0.2210
C27 C 0.9279(3) 0.1577(4) 0.2378(2)
H24 H 0.8909 0.1010 0.2904
loop_
_geom_bond_atom_site_label_1
_geom_bond_atom_site_label_2
_geom_bond_site_symmetry_1
_geom_bond_site_symmetry_2
Si1 O1 1_555 1_555
O1 C1 1_555 1_555
O2 C3 1_555 1_555
C1 H1 1_555 1_555
C2 C1 1_555 1_555
H2 C2 1_555 1_555
H3 C2 1_555 1_555
C3 C2 1_555 1_555
H4 C3 1_555 1_555
H5 C3 1_555 1_555
C4 O2 1_555 1_555
C5 C4 1_555 1_555
H6 C5 1_555 1_555
C6 C5 1_555 1_555
H7 C6 1_555 1_555
C7 C6 1_555 1_555
H8 C7 1_555 1_555
C8 C7 1_555 1_555
H9 C8 1_555 1_555
C9 C1 1_555 1_555
C10 Si1 1_555 1_555
C11 C10 1_555 1_555
H10 C11 1_555 1_555
C12 C11 1_555 1_555
H11 C12 1_555 1_555
C13 C12 1_555 1_555
H12 C13 1_555 1_555
C14 C13 1_555 1_555
H13 C14 1_555 1_555
C15 C10 1_555 1_555
H14 C15 1_555 1_555
C16 Si1 1_555 1_555
C17 C16 1_555 1_555
H15 C17 1_555 1_555
C18 C17 1_555 1_555
H16 C18 1_555 1_555
C19 C18 1_555 1_555
H17 C19 1_555 1_555
C20 C19 1_555 1_555
H18 C20 1_555 1_555
C21 C16 1_555 1_555
H19 C21 1_555 1_555
C22 Si1 1_555 1_555
C23 C22 1_555 1_555
H20 C23 1_555 1_555
C24 C23 1_555 1_555
H21 C24 1_555 1_555
C25 C24 1_555 1_555
H22 C25 1_555 1_555
C26 C25 1_555 1_555
H23 C26 1_555 1_555
C27 C22 1_555 1_555
H24 C27 1_555 1_555
C4 C9 1_555 1_555
C8 C9 1_555 1_555
C14 C15 1_555 1_555
C20 C21 1_555 1_555
C26 C27 1_555 1_555

#END
