
#######################################################################
#
#                 Cambridge Crystallographic Data Centre
#                                CCDC 
#
#######################################################################
#
# If this CIF has been generated from an entry in the Cambridge 
# Structural Database, then it will include bibliographic, chemical, 
# crystal, experimental, refinement or atomic coordinate data resulting 
# from the CCDC's data processing and validation procedures.
#
#######################################################################

data_OVIKIP
_chemical_formula_moiety         'C28 H32 O1 Si1'
_chemical_name_systematic        
triphenyl((1,7,7-trimethylbicyclo[2.2.1]heptan-2-yl)oxy)silane
_symmetry_cell_setting           triclinic
_symmetry_space_group_name_H-M   'P 1'
_symmetry_Int_Tables_number      1
_space_group_name_Hall           'P 1'
loop_
_symmetry_equiv_pos_site_id
_symmetry_equiv_pos_as_xyz
1 x,y,z
_cell_length_a                   10.4387(6)
_cell_length_b                   11.1375(6)
_cell_length_c                   11.3286(6)
_cell_angle_alpha                91.3171(12)
_cell_angle_beta                 113.6586(10)
_cell_angle_gamma                104.2860(11)
_cell_volume                     1157.98
_exptl_crystal_colour            colorless
_exptl_crystal_description       plate
_cell_formula_units_Z            2
loop_
_atom_site_label
_atom_site_type_symbol
_atom_site_fract_x
_atom_site_fract_y
_atom_site_fract_z
Si1 Si 0.84674(6) 0.08089(5) 0.72677(5)
O1 O 0.87281(17) 0.08882(16) 0.59408(15)
C1 C 0.7754(2) 0.0409(2) 0.46095(19)
H1 H 0.6722 0.0254 0.4492
C2 C 0.8050(2) 0.1316(2) 0.3675(2)
C3 C 0.9695(3) 0.1675(3) 0.4060(2)
H2 H 1.0251 0.1947 0.5008
H3 H 0.9982 0.2354 0.3589
C4 C 0.9951(3) 0.0447(3) 0.3650(3)
H4 H 1.0386 0.0570 0.3014
H5 H 1.0595 0.0139 0.4414
C5 C 0.8416(3) -0.0457(2) 0.3033(2)
H6 H 0.8300 -0.1185 0.2430
C6 C 0.7992(3) -0.0811(2) 0.4158(2)
H7 H 0.8782 -0.1048 0.4867
H8 H 0.7089 -0.1512 0.3854
C7 C 0.7453(3) 0.0399(2) 0.2395(2)
C8 C 0.7429(3) 0.2420(2) 0.3622(2)
H9 H 0.6371 0.2116 0.3326
H10 H 0.7651 0.2955 0.3014
H11 H 0.7864 0.2903 0.4490
C9 C 0.5819(3) -0.0256(3) 0.1826(2)
H12 H 0.5561 -0.0604 0.2514
H13 H 0.5575 -0.0933 0.1137
H14 H 0.5274 0.0348 0.1462
C10 C 0.7757(4) 0.1001(3) 0.1298(3)
H15 H 0.7236 0.1640 0.1036
H16 H 0.7422 0.0358 0.0552
H17 H 0.8805 0.1389 0.1604
C11 C 1.0282(3) 0.1661(2) 0.8564(2)
C12 C 1.1569(3) 0.1565(2) 0.8508(2)
H18 H 1.1512 0.1058 0.7793
C13 C 1.2929(3) 0.2196(3) 0.9476(3)
H19 H 1.3789 0.2114 0.9422
C14 C 1.3023(3) 0.2941(2) 1.0514(2)
H20 H 1.3951 0.3382 1.1169
C15 C 1.1779(3) 0.3046(2) 1.0603(2)
H21 H 1.1848 0.3550 1.1327
C16 C 1.0430(3) 0.2419(2) 0.9641(2)
H22 H 0.9579 0.2505 0.9712
C17 C 0.7073(2) 0.1613(2) 0.7228(2)
C18 C 0.7200(3) 0.2840(2) 0.6914(2)
H23 H 0.7989 0.3244 0.6715
C19 C 0.6205(3) 0.3473(2) 0.6888(2)
H24 H 0.6315 0.4303 0.6682
C20 C 0.5046(3) 0.2884(2) 0.7167(2)
H25 H 0.4351 0.3309 0.7139
C21 C 0.4891(3) 0.1679(2) 0.7487(3)
H26 H 0.4100 0.1281 0.7686
C22 C 0.5906(3) 0.1055(2) 0.7516(2)
H27 H 0.5798 0.0229 0.7737
C23 C 0.7861(3) -0.0818(2) 0.7610(2)
C24 C 0.6770(3) -0.1757(2) 0.6639(2)
H28 H 0.6376 -0.1585 0.5768
C25 C 0.6249(3) -0.2941(2) 0.6922(2)
H29 H 0.5517 -0.3569 0.6246
C26 C 0.6803(3) -0.3201(2) 0.8199(2)
H30 H 0.6448 -0.4005 0.8397
C27 C 0.7871(3) -0.2283(3) 0.9175(2)
H31 H 0.8246 -0.2455 1.0047
C28 C 0.8400(3) -0.1109(2) 0.8887(2)
H32 H 0.9143 -0.0491 0.9568
Si2 Si 0.14670(6) 0.67969(5) 0.37098(5)
O2 O 0.13525(18) 0.69793(16) 0.50974(15)
C29 C 0.1976(2) 0.6483(2) 0.62772(19)
H33 H 0.3006 0.6514 0.6465
C30 C 0.1944(2) 0.7230(2) 0.7421(2)
C31 C 0.0357(3) 0.7247(2) 0.7020(2)
H34 H -0.0061 0.7472 0.6130
H35 H 0.0290 0.7852 0.7632
C32 C -0.0442(3) 0.5892(3) 0.7073(3)
H36 H -0.0849 0.5872 0.7728
H37 H -0.1238 0.5500 0.6214
C33 C 0.0768(2) 0.5241(2) 0.7464(2)
H38 H 0.0558 0.4441 0.7824
C34 C 0.1122(3) 0.5123(2) 0.6278(2)
H39 H 0.0221 0.4825 0.5465
H40 H 0.1729 0.4542 0.6379
C35 C 0.2117(2) 0.6277(2) 0.8421(2)
C36 C 0.3040(3) 0.8511(2) 0.7856(2)
H41 H 0.4019 0.8422 0.8086
H42 H 0.3009 0.8917 0.8617
H43 H 0.2800 0.9022 0.7148
C37 C 0.3535(3) 0.5904(3) 0.8871(2)
H44 H 0.3626 0.5560 0.8114
H45 H 0.3526 0.5270 0.9456
H46 H 0.4361 0.6641 0.9333
C38 C 0.1971(3) 0.6700(3) 0.9646(3)
H47 H 0.2818 0.7400 1.0173
H48 H 0.1920 0.6003 1.0153
H49 H 0.1082 0.6968 0.9395
C39 C -0.0371(3) 0.5901(2) 0.2445(2)
C40 C -0.1641(3) 0.6022(2) 0.2527(2)
H50 H -0.1567 0.6543 0.3240
C41 C -0.3004(3) 0.5387(3) 0.1574(2)
H51 H -0.3854 0.5485 0.1636
C42 C -0.3138(3) 0.4614(2) 0.0538(2)
H52 H -0.4076 0.4178 -0.0106
C43 C -0.1907(3) 0.4474(2) 0.0439(2)
H53 H -0.1991 0.3939 -0.0269
C44 C -0.0534(3) 0.5126(2) 0.1390(2)
H54 H 0.0311 0.5035 0.1311
C45 C 0.2100(2) 0.8394(2) 0.3320(2)
C46 C 0.3169(3) 0.9329(2) 0.4311(2)
H55 H 0.3526 0.9155 0.5184
C47 C 0.3714(3) 1.0499(2) 0.4045(2)
H56 H 0.4430 1.1125 0.4733
C48 C 0.3220(3) 1.0762(2) 0.2778(2)
H57 H 0.3603 1.1567 0.2597
C49 C 0.2169(3) 0.9857(2) 0.1771(2)
H58 H 0.1824 1.0038 0.0900
C50 C 0.1621(3) 0.8677(2) 0.2046(2)
H59 H 0.0908 0.8053 0.1354
C51 C 0.2803(3) 0.5914(2) 0.3773(2)
C52 C 0.2611(3) 0.4686(2) 0.4056(2)
H60 H 0.1792 0.4294 0.4220
C53 C 0.3601(3) 0.4022(2) 0.4103(2)
H61 H 0.3453 0.3187 0.4297
C54 C 0.4795(3) 0.4583(3) 0.3867(2)
H62 H 0.5473 0.4136 0.3904
C55 C 0.5005(3) 0.5792(3) 0.3578(3)
H63 H 0.5828 0.6177 0.3418
C56 C 0.4013(3) 0.6450(2) 0.3520(2)
H64 H 0.4159 0.7278 0.3305
loop_
_geom_bond_atom_site_label_1
_geom_bond_atom_site_label_2
_geom_bond_site_symmetry_1
_geom_bond_site_symmetry_2
Si1 O1 1_555 1_555
O1 C1 1_555 1_555
C1 H1 1_555 1_555
C2 C1 1_555 1_555
C3 C2 1_555 1_555
H2 C3 1_555 1_555
H3 C3 1_555 1_555
C4 C3 1_555 1_555
H4 C4 1_555 1_555
H5 C4 1_555 1_555
C5 C4 1_555 1_555
H6 C5 1_555 1_555
C6 C1 1_555 1_555
H7 C6 1_555 1_555
H8 C6 1_555 1_555
C7 C2 1_555 1_555
C8 C2 1_555 1_555
H9 C8 1_555 1_555
H10 C8 1_555 1_555
H11 C8 1_555 1_555
C9 C7 1_555 1_555
H12 C9 1_555 1_555
H13 C9 1_555 1_555
H14 C9 1_555 1_555
C10 C7 1_555 1_555
H15 C10 1_555 1_555
H16 C10 1_555 1_555
H17 C10 1_555 1_555
C11 Si1 1_555 1_555
C12 C11 1_555 1_555
H18 C12 1_555 1_555
C13 C12 1_555 1_555
H19 C13 1_555 1_555
C14 C13 1_555 1_555
H20 C14 1_555 1_555
C15 C14 1_555 1_555
H21 C15 1_555 1_555
C16 C11 1_555 1_555
H22 C16 1_555 1_555
C17 Si1 1_555 1_555
C18 C17 1_555 1_555
H23 C18 1_555 1_555
C19 C18 1_555 1_555
H24 C19 1_555 1_555
C20 C19 1_555 1_555
H25 C20 1_555 1_555
C21 C20 1_555 1_555
H26 C21 1_555 1_555
C22 C17 1_555 1_555
H27 C22 1_555 1_555
C23 Si1 1_555 1_555
C24 C23 1_555 1_555
H28 C24 1_555 1_555
C25 C24 1_555 1_555
H29 C25 1_555 1_555
C26 C25 1_555 1_555
H30 C26 1_555 1_555
C27 C26 1_555 1_555
H31 C27 1_555 1_555
C28 C23 1_555 1_555
H32 C28 1_555 1_555
Si2 O2 1_555 1_555
O2 C29 1_555 1_555
C29 H33 1_555 1_555
C30 C29 1_555 1_555
C31 C30 1_555 1_555
H34 C31 1_555 1_555
H35 C31 1_555 1_555
C32 C31 1_555 1_555
H36 C32 1_555 1_555
H37 C32 1_555 1_555
C33 C32 1_555 1_555
H38 C33 1_555 1_555
C34 C29 1_555 1_555
H39 C34 1_555 1_555
H40 C34 1_555 1_555
C35 C30 1_555 1_555
C36 C30 1_555 1_555
H41 C36 1_555 1_555
H42 C36 1_555 1_555
H43 C36 1_555 1_555
C37 C35 1_555 1_555
H44 C37 1_555 1_555
H45 C37 1_555 1_555
H46 C37 1_555 1_555
C38 C35 1_555 1_555
H47 C38 1_555 1_555
H48 C38 1_555 1_555
H49 C38 1_555 1_555
C39 Si2 1_555 1_555
C40 C39 1_555 1_555
H50 C40 1_555 1_555
C41 C40 1_555 1_555
H51 C41 1_555 1_555
C42 C41 1_555 1_555
H52 C42 1_555 1_555
C43 C42 1_555 1_555
H53 C43 1_555 1_555
C44 C39 1_555 1_555
H54 C44 1_555 1_555
C45 Si2 1_555 1_555
C46 C45 1_555 1_555
H55 C46 1_555 1_555
C47 C46 1_555 1_555
H56 C47 1_555 1_555
C48 C47 1_555 1_555
H57 C48 1_555 1_555
C49 C48 1_555 1_555
H58 C49 1_555 1_555
C50 C45 1_555 1_555
H59 C50 1_555 1_555
C51 Si2 1_555 1_555
C52 C51 1_555 1_555
H60 C52 1_555 1_555
C53 C52 1_555 1_555
H61 C53 1_555 1_555
C54 C53 1_555 1_555
H62 C54 1_555 1_555
C55 C54 1_555 1_555
H63 C55 1_555 1_555
C56 C51 1_555 1_555
H64 C56 1_555 1_555
C5 C6 1_555 1_555
C5 C7 1_555 1_555
C15 C16 1_555 1_555
C21 C22 1_555 1_555
C27 C28 1_555 1_555
C33 C34 1_555 1_555
C33 C35 1_555 1_555
C43 C44 1_555 1_555
C49 C50 1_555 1_555
C55 C56 1_555 1_555

#END
