
#######################################################################
#
#                 Cambridge Crystallographic Data Centre
#                                CCDC 
#
#######################################################################
#
# If this CIF has been generated from an entry in the Cambridge 
# Structural Database, then it will include bibliographic, chemical, 
# crystal, experimental, refinement or atomic coordinate data resulting 
# from the CCDC's data processing and validation procedures.
#
#######################################################################

data_OVIRAO
_chemical_formula_moiety         'C33 H25 Br1 O3'
_chemical_name_systematic        
8-(2-(4-bromophenyl)-2-oxoethyl)-3-(2-(2-phenylvinyl)phenyl)-3,3a,8,8a-tetrahydro-1H-indeno[1,2-c]furan-1-one
_symmetry_cell_setting           monoclinic
_symmetry_space_group_name_H-M   'C 2'
_symmetry_Int_Tables_number      5
_space_group_name_Hall           'C 2y'
loop_
_symmetry_equiv_pos_site_id
_symmetry_equiv_pos_as_xyz
1 x,y,z
2 -x,y,-z
3 1/2+x,1/2+y,z
4 1/2-x,1/2+y,-z
_cell_length_a                   28.515(18)
_cell_length_b                   7.530(5)
_cell_length_c                   15.194(10)
_cell_angle_alpha                90
_cell_angle_beta                 115.987(10)
_cell_angle_gamma                90
_cell_volume                     2932.57
_exptl_crystal_colour            colorless
_exptl_crystal_description       block
_cell_formula_units_Z            4
loop_
_atom_site_label
_atom_site_type_symbol
_atom_site_fract_x
_atom_site_fract_y
_atom_site_fract_z
Br1 Br 0.78617(4) 0.1934(4) 0.60657(7)
C1 C 0.8025(3) 0.1286(16) 0.5037(5)
C2 C 0.7702(3) 0.182(2) 0.4105(6)
H1 H 0.7394 0.2482 0.3978
C3 C 0.7828(3) 0.1400(17) 0.3356(5)
H2 H 0.7601 0.1743 0.2705
C4 C 0.8273(2) 0.0497(9) 0.3533(5)
C5 C 0.8592(3) 0.0030(11) 0.4478(5)
H3 H 0.8904 -0.0602 0.4610
C6 C 0.8479(3) 0.0435(14) 0.5240(5)
H4 H 0.8713 0.0130 0.5894
C7 C 0.8408(3) -0.0091(9) 0.2731(5)
C8 C 0.8074(2) 0.0570(8) 0.1702(4)
H5 H 0.8037 0.1875 0.1718
H6 H 0.7721 0.0043 0.1463
C9 C 0.8299(2) 0.0111(8) 0.0987(4)
H7 H 0.8345 -0.1207 0.1004
C10 C 0.7951(2) 0.0620(7) -0.0046(4)
C11 C 0.7415(2) 0.0329(8) -0.0565(4)
H8 H 0.7223 -0.0189 -0.0254
C12 C 0.7169(2) 0.0812(8) -0.1543(4)
H9 H 0.6803 0.0644 -0.1903
C13 C 0.7450(2) 0.1535(8) -0.2002(4)
H10 H 0.7276 0.1845 -0.2675
C14 C 0.7977(2) 0.1808(7) -0.1495(4)
H11 H 0.8167 0.2298 -0.1816
C15 C 0.8231(2) 0.1365(7) -0.0507(4)
C16 C 0.8810(2) 0.1376(7) 0.0172(4)
H12 H 0.8990 0.0417 -0.0019
C17 C 0.8828(2) 0.0965(8) 0.1173(4)
H13 H 0.9121 0.0126 0.1543
C18 C 0.8936(2) 0.2753(8) 0.1672(4)
C19 C 0.9111(2) 0.3143(8) 0.0327(5)
H14 H 0.9487 0.2862 0.0535
C20 C 0.8941(2) 0.4472(8) -0.0493(5)
C21 C 0.8642(2) 0.5931(8) -0.0495(5)
H15 H 0.8552 0.6099 0.0032
C22 C 0.8476(2) 0.7125(9) -0.1248(5)
H16 H 0.8257 0.8081 -0.1253
C23 C 0.8618(2) 0.6972(9) -0.1997(5)
H17 H 0.8517 0.7840 -0.2500
C24 C 0.8919(3) 0.5492(9) -0.2000(5)
H18 H 0.9018 0.5362 -0.2516
C25 C 0.9074(2) 0.4214(8) -0.1265(5)
C26 C 0.9360(2) 0.2607(8) -0.1311(5)
H19 H 0.9496 0.1862 -0.0750
C27 C 0.9442(2) 0.2121(10) -0.2065(5)
H20 H 0.9317 0.2904 -0.2610
C28 C 0.9707(2) 0.0495(10) -0.2158(5)
C29 C 0.9847(3) -0.0876(9) -0.1474(6)
H21 H 0.9772 -0.0785 -0.0926
C30 C 1.0097(3) -0.2370(9) -0.1592(7)
H22 H 1.0200 -0.3278 -0.1110
C31 C 1.0201(3) -0.2573(11) -0.2405(7)
H23 H 1.0367 -0.3608 -0.2490
C32 C 1.0053(3) -0.1215(14) -0.3073(6)
H24 H 1.0117 -0.1321 -0.3634
C33 C 0.9811(3) 0.0313(11) -0.2958(5)
H25 H 0.9718 0.1234 -0.3432
O1 O 0.8777(2) -0.1070(7) 0.2896(4)
O2 O 0.89240(18) 0.3157(6) 0.2419(3)
O3 O 0.90605(18) 0.3942(6) 0.1154(3)
loop_
_geom_bond_atom_site_label_1
_geom_bond_atom_site_label_2
_geom_bond_site_symmetry_1
_geom_bond_site_symmetry_2
Br1 C1 1_555 1_555
C1 C2 1_555 1_555
C2 H1 1_555 1_555
C3 C2 1_555 1_555
H2 C3 1_555 1_555
C4 C3 1_555 1_555
C5 C4 1_555 1_555
H3 C5 1_555 1_555
C6 C1 1_555 1_555
H4 C6 1_555 1_555
C7 C4 1_555 1_555
C8 C7 1_555 1_555
H5 C8 1_555 1_555
H6 C8 1_555 1_555
C9 C8 1_555 1_555
H7 C9 1_555 1_555
C10 C9 1_555 1_555
C11 C10 1_555 1_555
H8 C11 1_555 1_555
C12 C11 1_555 1_555
H9 C12 1_555 1_555
C13 C12 1_555 1_555
H10 C13 1_555 1_555
C14 C13 1_555 1_555
H11 C14 1_555 1_555
C15 C10 1_555 1_555
C16 C15 1_555 1_555
H12 C16 1_555 1_555
C17 C9 1_555 1_555
H13 C17 1_555 1_555
C18 C17 1_555 1_555
C19 C16 1_555 1_555
H14 C19 1_555 1_555
C20 C19 1_555 1_555
C21 C20 1_555 1_555
H15 C21 1_555 1_555
C22 C21 1_555 1_555
H16 C22 1_555 1_555
C23 C22 1_555 1_555
H17 C23 1_555 1_555
C24 C23 1_555 1_555
H18 C24 1_555 1_555
C25 C20 1_555 1_555
C26 C25 1_555 1_555
H19 C26 1_555 1_555
C27 C26 1_555 1_555
H20 C27 1_555 1_555
C28 C27 1_555 1_555
C29 C28 1_555 1_555
H21 C29 1_555 1_555
C30 C29 1_555 1_555
H22 C30 1_555 1_555
C31 C30 1_555 1_555
H23 C31 1_555 1_555
C32 C31 1_555 1_555
H24 C32 1_555 1_555
C33 C28 1_555 1_555
H25 C33 1_555 1_555
O1 C7 1_555 1_555
O2 C18 1_555 1_555
O3 C18 1_555 1_555
C5 C6 1_555 1_555
C14 C15 1_555 1_555
C16 C17 1_555 1_555
C19 O3 1_555 1_555
C24 C25 1_555 1_555
C32 C33 1_555 1_555

#END
