
#######################################################################
#
#                 Cambridge Crystallographic Data Centre
#                                CCDC 
#
#######################################################################
#
# If this CIF has been generated from an entry in the Cambridge 
# Structural Database, then it will include bibliographic, chemical, 
# crystal, experimental, refinement or atomic coordinate data resulting 
# from the CCDC's data processing and validation procedures.
#
#######################################################################

data_OVIYUP
_chemical_formula_moiety         'C21 H22 Br1 F3 N2 O1'
_chemical_name_systematic        
N-(4-bromophenyl)-4,4-dimethyl-2-phenyl-2-(2,2,2-trifluoroethyl)pyrrolidine-1-carboxamide
_symmetry_cell_setting           orthorhombic
_symmetry_space_group_name_H-M   'P 21 21 21'
_symmetry_Int_Tables_number      19
_space_group_name_Hall           'P 2ac 2ab'
loop_
_symmetry_equiv_pos_site_id
_symmetry_equiv_pos_as_xyz
1 x,y,z
2 1/2-x,-y,1/2+z
3 -x,1/2+y,1/2-z
4 1/2+x,1/2-y,-z
_cell_length_a                   14.5823(10)
_cell_length_b                   16.3674(12)
_cell_length_c                   17.4983(12)
_cell_angle_alpha                90
_cell_angle_beta                 90
_cell_angle_gamma                90
_cell_volume                     4176.4
_exptl_crystal_colour            colorless
_exptl_crystal_description       block
_cell_formula_units_Z            8
loop_
_atom_site_label
_atom_site_type_symbol
_atom_site_fract_x
_atom_site_fract_y
_atom_site_fract_z
Br1 Br 0.47468(2) 0.62166(2) 0.59506(2)
F1 F 0.83944(15) 0.30608(10) 0.21680(10)
F2 F 0.76742(12) 0.38344(12) 0.29515(9)
F3 F 0.90619(12) 0.41196(12) 0.26268(10)
O1 O 0.64647(12) 0.52753(10) 0.23848(9)
N1 N 0.62768(15) 0.40190(12) 0.18710(11)
N2 N 0.55383(15) 0.43675(12) 0.30068(12)
H1 H 0.5248 0.3898 0.2965
C1 C 0.60084(19) 0.31549(15) 0.19000(15)
H2 H 0.5346 0.3098 0.2011
H3 H 0.6362 0.2858 0.2295
C2 C 0.62370(19) 0.28333(15) 0.10950(14)
C3 C 0.5439(2) 0.29785(17) 0.05478(16)
H4 H 0.5259 0.3555 0.0567
H5 H 0.4918 0.2636 0.0698
H6 H 0.5628 0.2837 0.0027
C4 C 0.6476(2) 0.19218(15) 0.11109(16)
H7 H 0.6659 0.1745 0.0598
H8 H 0.5938 0.1608 0.1276
H9 H 0.6982 0.1829 0.1469
C5 C 0.70790(18) 0.33462(15) 0.08688(15)
H10 H 0.7081 0.3445 0.0311
H11 H 0.7650 0.3055 0.1007
C6 C 0.70185(17) 0.41733(14) 0.13086(14)
C7 C 0.79429(17) 0.43766(15) 0.17034(14)
H12 H 0.8427 0.4366 0.1307
H13 H 0.7905 0.4945 0.1895
C8 C 0.8259(2) 0.38450(18) 0.23559(15)
C9 C 0.67578(19) 0.48653(14) 0.07576(13)
C10 C 0.7426(2) 0.52140(16) 0.02879(15)
H14 H 0.8049 0.5056 0.0344
C11 C 0.7188(2) 0.57912(18) -0.02619(16)
H15 H 0.7650 0.6020 -0.0579
C12 C 0.6287(2) 0.60359(17) -0.03514(16)
H16 H 0.6127 0.6429 -0.0728
C13 C 0.5622(2) 0.56993(17) 0.01159(15)
H17 H 0.5001 0.5865 0.0062
C14 C 0.5854(2) 0.51196(16) 0.06648(14)
H18 H 0.5389 0.4894 0.0981
C15 C 0.61138(17) 0.45906(14) 0.24202(13)
C16 C 0.53783(17) 0.48375(14) 0.36739(14)
C17 C 0.46386(19) 0.46035(16) 0.41328(15)
H19 H 0.4252 0.4168 0.3974
C18 C 0.4464(2) 0.50002(17) 0.48148(15)
H20 H 0.3975 0.4828 0.5135
C19 C 0.50110(18) 0.56490(16) 0.50236(13)
C20 C 0.57308(19) 0.58995(16) 0.45790(14)
H21 H 0.6098 0.6350 0.4733
C21 C 0.59212(17) 0.54902(15) 0.39010(14)
H22 H 0.6424 0.5658 0.3593
Br2 Br 0.18235(2) 0.65825(2) 0.12478(2)
F4 F 0.65039(12) 0.73982(11) 0.34516(10)
F5 F 0.69377(16) 0.82602(14) 0.42984(11)
F6 F 0.78740(13) 0.73610(14) 0.38748(12)
O2 O 0.60018(12) 0.82324(10) 0.19529(10)
N3 N 0.73264(14) 0.75029(12) 0.19696(12)
N4 N 0.59383(15) 0.68475(13) 0.17758(13)
H23 H 0.6252 0.6388 0.1768
C22 C 0.78280(17) 0.67247(15) 0.19362(16)
H24 H 0.7659 0.6413 0.1473
H25 H 0.7696 0.6387 0.2392
C23 C 0.88401(18) 0.69731(16) 0.19138(16)
C24 C 0.91595(19) 0.71458(18) 0.10956(16)
H26 H 0.9126 0.6642 0.0794
H27 H 0.9794 0.7343 0.1104
H28 H 0.8763 0.7562 0.0865
C25 C 0.94515(19) 0.63154(18) 0.22679(18)
H29 H 0.9231 0.6186 0.2783
H30 H 1.0084 0.6516 0.2297
H31 H 0.9432 0.5822 0.1951
C26 C 0.88385(18) 0.77514(16) 0.24083(15)
H32 H 0.9337 0.8123 0.2246
H33 H 0.8934 0.7610 0.2953
C27 C 0.78871(17) 0.81715(15) 0.22985(14)
C28 C 0.74825(19) 0.84924(17) 0.30639(15)
H34 H 0.7941 0.8863 0.3297
H35 H 0.6936 0.8826 0.2941
C29 C 0.7207(2) 0.78763(19) 0.36595(16)
C30 C 0.79922(17) 0.89046(15) 0.17537(15)
C31 C 0.8440(2) 0.96034(18) 0.20095(18)
H36 H 0.8637 0.9635 0.2526
C32 C 0.8602(3) 1.02571(19) 0.1518(2)
H37 H 0.8902 1.0733 0.1704
C33 C 0.8331(2) 1.02182(18) 0.07643(18)
H38 H 0.8442 1.0664 0.0429
C34 C 0.78948(19) 0.95241(17) 0.05013(16)
H39 H 0.7714 0.9489 -0.0019
C35 C 0.77177(18) 0.88743(15) 0.09945(15)
H40 H 0.7405 0.8405 0.0809
C36 C 0.63980(17) 0.75681(14) 0.19050(13)
C37 C 0.49807(17) 0.68180(15) 0.16558(14)
C38 C 0.45435(18) 0.73285(15) 0.11369(14)
H41 H 0.4887 0.7726 0.0864
C39 C 0.36012(19) 0.72594(16) 0.10154(16)
H42 H 0.3298 0.7613 0.0666
C40 C 0.31156(18) 0.66713(16) 0.14085(16)
C41 C 0.35354(18) 0.61498(17) 0.19189(16)
H43 H 0.3190 0.5746 0.2182
C42 C 0.44713(18) 0.62258(16) 0.20410(14)
H44 H 0.4769 0.5870 0.2391
loop_
_geom_bond_atom_site_label_1
_geom_bond_atom_site_label_2
_geom_bond_site_symmetry_1
_geom_bond_site_symmetry_2
Br1 C19 1_555 1_555
F1 C8 1_555 1_555
F2 C8 1_555 1_555
F3 C8 1_555 1_555
O1 C15 1_555 1_555
N1 C1 1_555 1_555
N2 H1 1_555 1_555
C1 H2 1_555 1_555
H3 C1 1_555 1_555
C2 C1 1_555 1_555
C3 C2 1_555 1_555
H4 C3 1_555 1_555
H5 C3 1_555 1_555
H6 C3 1_555 1_555
C4 C2 1_555 1_555
H7 C4 1_555 1_555
H8 C4 1_555 1_555
H9 C4 1_555 1_555
C5 C2 1_555 1_555
H10 C5 1_555 1_555
H11 C5 1_555 1_555
C6 N1 1_555 1_555
C7 C6 1_555 1_555
H12 C7 1_555 1_555
H13 C7 1_555 1_555
C8 C7 1_555 1_555
C9 C6 1_555 1_555
C10 C9 1_555 1_555
H14 C10 1_555 1_555
C11 C10 1_555 1_555
H15 C11 1_555 1_555
C12 C11 1_555 1_555
H16 C12 1_555 1_555
C13 C12 1_555 1_555
H17 C13 1_555 1_555
C14 C9 1_555 1_555
H18 C14 1_555 1_555
C15 N1 1_555 1_555
C16 N2 1_555 1_555
C17 C16 1_555 1_555
H19 C17 1_555 1_555
C18 C17 1_555 1_555
H20 C18 1_555 1_555
C19 C18 1_555 1_555
C20 C19 1_555 1_555
H21 C20 1_555 1_555
C21 C16 1_555 1_555
H22 C21 1_555 1_555
Br2 C40 1_555 1_555
F4 C29 1_555 1_555
F5 C29 1_555 1_555
F6 C29 1_555 1_555
O2 C36 1_555 1_555
N3 C22 1_555 1_555
N4 H23 1_555 1_555
C22 H24 1_555 1_555
H25 C22 1_555 1_555
C23 C22 1_555 1_555
C24 C23 1_555 1_555
H26 C24 1_555 1_555
H27 C24 1_555 1_555
H28 C24 1_555 1_555
C25 C23 1_555 1_555
H29 C25 1_555 1_555
H30 C25 1_555 1_555
H31 C25 1_555 1_555
C26 C23 1_555 1_555
H32 C26 1_555 1_555
H33 C26 1_555 1_555
C27 N3 1_555 1_555
C28 C27 1_555 1_555
H34 C28 1_555 1_555
H35 C28 1_555 1_555
C29 C28 1_555 1_555
C30 C27 1_555 1_555
C31 C30 1_555 1_555
H36 C31 1_555 1_555
C32 C31 1_555 1_555
H37 C32 1_555 1_555
C33 C32 1_555 1_555
H38 C33 1_555 1_555
C34 C33 1_555 1_555
H39 C34 1_555 1_555
C35 C30 1_555 1_555
H40 C35 1_555 1_555
C36 N3 1_555 1_555
C37 N4 1_555 1_555
C38 C37 1_555 1_555
H41 C38 1_555 1_555
C39 C38 1_555 1_555
H42 C39 1_555 1_555
C40 C39 1_555 1_555
C41 C40 1_555 1_555
H43 C41 1_555 1_555
C42 C37 1_555 1_555
H44 C42 1_555 1_555
N2 C15 1_555 1_555
C5 C6 1_555 1_555
C13 C14 1_555 1_555
C20 C21 1_555 1_555
N4 C36 1_555 1_555
C26 C27 1_555 1_555
C34 C35 1_555 1_555
C41 C42 1_555 1_555

#END
