
#######################################################################
#
#                 Cambridge Crystallographic Data Centre
#                                CCDC 
#
#######################################################################
#
# If this CIF has been generated from an entry in the Cambridge 
# Structural Database, then it will include bibliographic, chemical, 
# crystal, experimental, refinement or atomic coordinate data resulting 
# from the CCDC's data processing and validation procedures.
#
#######################################################################

data_OVOFOW
_chemical_formula_moiety         'C19 H22 Br1 N1 O2'
_chemical_name_systematic        
1-(4-bromophenyl)-2-(2-(dimethylamino)-5-methoxyphenyl)-2-methylpropan-1-one
_symmetry_cell_setting           monoclinic
_symmetry_space_group_name_H-M   'C 2/c'
_symmetry_Int_Tables_number      15
_space_group_name_Hall           '-C 2yn'
loop_
_symmetry_equiv_pos_site_id
_symmetry_equiv_pos_as_xyz
1 x,y,z
2 -x,y,1/2-z
3 1/2+x,1/2+y,z
4 1/2-x,1/2+y,1/2-z
5 -x,-y,-z
6 x,-y,1/2+z
7 1/2-x,1/2-y,-z
8 1/2+x,1/2-y,1/2+z
_cell_length_a                   18.966(4)
_cell_length_b                   12.681(2)
_cell_length_c                   16.462(3)
_cell_angle_alpha                90
_cell_angle_beta                 116.614(3)
_cell_angle_gamma                90
_cell_volume                     3539.74
_exptl_crystal_colour            colorless
_exptl_crystal_description       block
_cell_formula_units_Z            8
loop_
_atom_site_label
_atom_site_type_symbol
_atom_site_fract_x
_atom_site_fract_y
_atom_site_fract_z
Br1 Br 0.47337(2) 0.36463(2) 0.12171(2)
O1 O 0.82508(11) 0.61537(13) 0.34953(12)
C1 C 0.57860(15) 0.4142(2) 0.18234(17)
C2 C 0.63817(15) 0.34884(19) 0.18568(17)
H1 H 0.6267 0.2816 0.1605
C3 C 0.73306(14) 0.48572(18) 0.26557(16)
C4 C 0.86998(14) 0.42740(18) 0.21672(15)
C5 C 0.71515(15) 0.38502(18) 0.22715(16)
H2 H 0.7556 0.3417 0.2295
C6 C 0.81423(14) 0.53256(18) 0.30809(15)
C7 C 0.82722(14) 0.48532(18) 0.13656(15)
C8 C 0.81546(16) 0.4432(2) 0.05369(16)
H3 H 0.7863 0.4814 0.0009
C9 C 0.90297(17) 0.3834(2) 0.38237(17)
H4 H 0.8623 0.3308 0.3593
H5 H 0.9049 0.4135 0.4368
H6 H 0.9529 0.3515 0.3956
C10 C 0.90113(14) 0.33042(19) 0.21028(15)
H7 H 0.9301 0.2915 0.2627
C11 C 0.84585(16) 0.3460(2) 0.04735(17)
H8 H 0.8369 0.3187 -0.0089
C12 C 0.59433(16) 0.51341(19) 0.22161(18)
H9 H 0.5537 0.5560 0.2197
C13 C 0.67163(16) 0.5478(2) 0.26377(17)
H10 H 0.6829 0.6137 0.2915
C14 C 0.88493(14) 0.47116(18) 0.31017(15)
C15 C 0.95748(15) 0.5441(2) 0.34486(17)
H11 H 1.0011 0.5070 0.3435
H12 H 0.9710 0.5655 0.4060
H13 H 0.9455 0.6053 0.3066
C16 C 0.88958(15) 0.29034(19) 0.12588(16)
O2 O 0.92465(11) 0.19482(13) 0.12886(12)
N1 N 0.79587(12) 0.58737(15) 0.14227(13)
C17 C 0.71208(16) 0.5998(2) 0.07968(17)
H14 H 0.7055 0.6028 0.0184
H15 H 0.6927 0.6638 0.0936
H16 H 0.6831 0.5409 0.0860
C18 C 0.84101(17) 0.6731(2) 0.12795(19)
H17 H 0.8960 0.6640 0.1681
H18 H 0.8234 0.7395 0.1402
H19 H 0.8331 0.6719 0.0661
C19 C 0.9133(2) 0.1531(2) 0.0427(2)
H20 H 0.8579 0.1450 0.0038
H21 H 0.9389 0.0858 0.0517
H22 H 0.9356 0.2008 0.0151
loop_
_geom_bond_atom_site_label_1
_geom_bond_atom_site_label_2
_geom_bond_site_symmetry_1
_geom_bond_site_symmetry_2
Br1 C1 1_555 1_555
O1 C6 1_555 1_555
C1 C2 1_555 1_555
C2 H1 1_555 1_555
C3 C5 1_555 1_555
C4 C7 1_555 1_555
C5 C2 1_555 1_555
H2 C5 1_555 1_555
C6 C3 1_555 1_555
C7 C8 1_555 1_555
C8 H3 1_555 1_555
C9 H4 1_555 1_555
H5 C9 1_555 1_555
H6 C9 1_555 1_555
C10 C4 1_555 1_555
H7 C10 1_555 1_555
C11 C8 1_555 1_555
H8 C11 1_555 1_555
C12 C1 1_555 1_555
H9 C12 1_555 1_555
C13 C3 1_555 1_555
H10 C13 1_555 1_555
C14 C4 1_555 1_555
C15 C14 1_555 1_555
H11 C15 1_555 1_555
H12 C15 1_555 1_555
H13 C15 1_555 1_555
C16 C10 1_555 1_555
O2 C16 1_555 1_555
N1 C7 1_555 1_555
C17 N1 1_555 1_555
H14 C17 1_555 1_555
H15 C17 1_555 1_555
H16 C17 1_555 1_555
C18 N1 1_555 1_555
H17 C18 1_555 1_555
H18 C18 1_555 1_555
H19 C18 1_555 1_555
C19 O2 1_555 1_555
H20 C19 1_555 1_555
H21 C19 1_555 1_555
H22 C19 1_555 1_555
C6 C14 1_555 1_555
C9 C14 1_555 1_555
C11 C16 1_555 1_555
C12 C13 1_555 1_555

#END
