
#######################################################################
#
#                 Cambridge Crystallographic Data Centre
#                                CCDC 
#
#######################################################################
#
# If this CIF has been generated from an entry in the Cambridge 
# Structural Database, then it will include bibliographic, chemical, 
# crystal, experimental, refinement or atomic coordinate data resulting 
# from the CCDC's data processing and validation procedures.
#
#######################################################################

data_OVOFAH
_chemical_compound_source        'roots of Iris tenuifolia'
_chemical_name_common            3'-hydroxy-5,7-dimethoxy-4-O-2'-cycloflavan
_chemical_formula_moiety         'C17 H16 O5'
_chemical_name_systematic        
11,13-Dimethoxy-8,16-dioxatetracyclo[7.7.1.0^2,7^.0^10,15^]heptadeca-2,4,6,10,12,14-hexaen-6-ol
_symmetry_cell_setting           orthorhombic
_symmetry_space_group_name_H-M   'P 21 21 21'
_symmetry_Int_Tables_number      19
_space_group_name_Hall           'P 2ac 2ab'
loop_
_symmetry_equiv_pos_site_id
_symmetry_equiv_pos_as_xyz
1 x,y,z
2 1/2-x,-y,1/2+z
3 1/2+x,1/2-y,-z
4 -x,1/2+y,1/2-z
_cell_length_a                   8.154
_cell_length_b                   14.158
_cell_length_c                   25.333
_cell_angle_alpha                90
_cell_angle_beta                 90
_cell_angle_gamma                90
_cell_volume                     2924.55
_exptl_crystal_colour            colorless
_exptl_crystal_description       plane
_cell_formula_units_Z            8
loop_
_atom_site_label
_atom_site_type_symbol
_atom_site_fract_x
_atom_site_fract_y
_atom_site_fract_z
O1 O -0.0487(3) 0.23237(10) -0.02470(6)
O4 O 0.05073(18) 0.26251(11) -0.16477(6)
O5 O -0.0421(3) -0.09529(11) -0.01234(7)
O7 O 0.2141(2) 0.05860(13) -0.16122(7)
O9 O -0.1595(3) 0.28050(16) -0.24369(7)
H1 H -0.0711 0.3059 -0.2497
C1 C 0.1309(3) 0.05742(16) -0.11447(8)
C3 C 0.0889(3) -0.02513(16) -0.08843(9)
H3 H 0.1181 -0.0837 -0.1021
C5 C 0.0016(3) -0.01810(15) -0.04107(9)
C7 C -0.0437(3) 0.06791(15) -0.02100(8)
H5 H -0.1039 0.0714 0.0101
C10 C 0.0007(3) 0.14918(15) -0.04736(8)
C12 C -0.0236(4) 0.31538(16) -0.05709(9)
H8 H -0.0361 0.3716 -0.0349
C13 C 0.1468(3) 0.31478(18) -0.07963(11)
H9 H 0.2270 0.3040 -0.0520
H10 H 0.1709 0.3747 -0.0966
C16 C 0.1507(3) 0.23578(17) -0.11929(9)
H14 H 0.2641 0.2265 -0.1310
C17 C 0.0912(3) 0.14639(15) -0.09401(8)
C19 C -0.1016(3) 0.29483(14) -0.15173(9)
C21 C -0.2102(3) 0.30333(16) -0.19397(9)
C23 C -0.3682(3) 0.33342(18) -0.18551(12)
H15 H -0.4417 0.3380 -0.2135
C25 C -0.4166(3) 0.35690(18) -0.13457(13)
H17 H -0.5237 0.3767 -0.1283
C28 C -0.3082(4) 0.35110(17) -0.09358(11)
H20 H -0.3420 0.3683 -0.0599
C30 C -0.1484(3) 0.31996(14) -0.10124(9)
C31 C 0.2446(4) -0.0295(2) -0.18619(11)
H21 H 0.3031 -0.0191 -0.2186
H22 H 0.1422 -0.0602 -0.1936
H23 H 0.3090 -0.0687 -0.1632
C33 C -0.0042(5) -0.18540(19) -0.03123(13)
H27 H -0.0427 -0.2320 -0.0067
H28 H 0.1125 -0.1912 -0.0352
H29 H -0.0563 -0.1949 -0.0648
O2 O -0.3995(2) -0.30667(11) -0.09773(7)
O3 O -0.07023(19) -0.32186(12) -0.19435(6)
O6 O -0.4421(3) 0.01948(12) -0.08253(8)
O8 O -0.1800(3) -0.11919(16) -0.23591(8)
O10 O 0.2524(2) -0.32889(17) -0.16999(8)
H2 H 0.2071 -0.2972 -0.1928
C2 C -0.2601(3) -0.12234(18) -0.18828(10)
C4 C -0.3080(3) -0.04239(18) -0.16063(10)
H4 H -0.2865 0.0177 -0.1737
C6 C -0.3897(3) -0.05491(16) -0.11238(9)
C8 C -0.4203(3) -0.14265(16) -0.09271(9)
H6 H -0.4752 -0.1497 -0.0608
C9 C -0.3686(3) -0.22150(16) -0.12067(9)
C11 C -0.3217(3) -0.38733(17) -0.12238(11)
H7 H -0.3731 -0.4451 -0.1089
C14 C -0.3442(3) -0.3838(2) -0.18119(11)
H11 H -0.4591 -0.3756 -0.1900
H12 H -0.3052 -0.4417 -0.1974
C15 C -0.2450(3) -0.30026(19) -0.20023(10)
H13 H -0.2690 -0.2892 -0.2376
C18 C -0.2894(3) -0.21380(17) -0.16938(9)
C20 C -0.0284(3) -0.35711(15) -0.14579(8)
C22 C 0.1391(3) -0.36001(18) -0.13491(9)
C24 C 0.1921(3) -0.39565(19) -0.08690(10)
H16 H 0.3036 -0.3973 -0.0793
C26 C 0.0821(4) -0.42835(18) -0.05058(10)
H18 H 0.1190 -0.4526 -0.0186
C27 C -0.0844(4) -0.42541(16) -0.06129(10)
H19 H -0.1589 -0.4472 -0.0363
C29 C -0.1411(3) -0.39002(15) -0.10932(9)
C32 C -0.1700(5) -0.0318(3) -0.26299(14)
H24 H -0.1098 -0.0401 -0.2952
H25 H -0.1150 0.0137 -0.2412
H26 H -0.2786 -0.0097 -0.2709
C34 C -0.4153(5) 0.1115(2) -0.10080(15)
H30 H -0.4588 0.1559 -0.0758
H31 H -0.4692 0.1197 -0.1342
H32 H -0.2997 0.1219 -0.1050
loop_
_geom_bond_atom_site_label_1
_geom_bond_atom_site_label_2
_geom_bond_site_symmetry_1
_geom_bond_site_symmetry_2
O1 C10 1_555 1_555
O2 C9 1_555 1_555
O3 C15 1_555 1_555
O4 C16 1_555 1_555
O5 C5 1_555 1_555
O6 C6 1_555 1_555
O7 C1 1_555 1_555
O8 C2 1_555 1_555
O9 H1 1_555 1_555
O10 H2 1_555 1_555
C1 C3 1_555 1_555
C2 C4 1_555 1_555
C3 H3 1_555 1_555
C4 H4 1_555 1_555
C5 C3 1_555 1_555
C6 C4 1_555 1_555
C7 C5 1_555 1_555
H5 C7 1_555 1_555
C8 C6 1_555 1_555
H6 C8 1_555 1_555
C9 C8 1_555 1_555
C10 C7 1_555 1_555
C11 O2 1_555 1_555
H7 C11 1_555 1_555
C12 O1 1_555 1_555
H8 C12 1_555 1_555
C13 C12 1_555 1_555
H9 C13 1_555 1_555
H10 C13 1_555 1_555
C14 C11 1_555 1_555
H11 C14 1_555 1_555
H12 C14 1_555 1_555
C15 C14 1_555 1_555
H13 C15 1_555 1_555
C16 C13 1_555 1_555
H14 C16 1_555 1_555
C17 C1 1_555 1_555
C18 C2 1_555 1_555
C19 O4 1_555 1_555
C20 O3 1_555 1_555
C21 O9 1_555 1_555
C22 O10 1_555 1_555
C23 C21 1_555 1_555
H15 C23 1_555 1_555
C24 C22 1_555 1_555
H16 C24 1_555 1_555
C25 C23 1_555 1_555
H17 C25 1_555 1_555
C26 C24 1_555 1_555
H18 C26 1_555 1_555
C27 C26 1_555 1_555
H19 C27 1_555 1_555
C28 C25 1_555 1_555
H20 C28 1_555 1_555
C29 C11 1_555 1_555
C30 C12 1_555 1_555
C31 O7 1_555 1_555
H21 C31 1_555 1_555
H22 C31 1_555 1_555
H23 C31 1_555 1_555
C32 O8 1_555 1_555
H24 C32 1_555 1_555
H25 C32 1_555 1_555
H26 C32 1_555 1_555
C33 O5 1_555 1_555
H27 C33 1_555 1_555
H28 C33 1_555 1_555
H29 C33 1_555 1_555
C34 O6 1_555 1_555
H30 C34 1_555 1_555
H31 C34 1_555 1_555
H32 C34 1_555 1_555
C9 C18 1_555 1_555
C10 C17 1_555 1_555
C15 C18 1_555 1_555
C16 C17 1_555 1_555
C19 C21 1_555 1_555
C19 C30 1_555 1_555
C20 C22 1_555 1_555
C20 C29 1_555 1_555
C27 C29 1_555 1_555
C28 C30 1_555 1_555

#END
