
#######################################################################
#
#                 Cambridge Crystallographic Data Centre
#                                CCDC 
#
#######################################################################
#
# If this CIF has been generated from an entry in the Cambridge 
# Structural Database, then it will include bibliographic, chemical, 
# crystal, experimental, refinement or atomic coordinate data resulting 
# from the CCDC's data processing and validation procedures.
#
#######################################################################

data_OVOGIQ
_chemical_formula_moiety         'C21 H21 Cl1 N2 O2'
_chemical_name_systematic        
(E)-N-(1-Chloro-3-oxo-1-phenyl-3-(piperidin-1-yl)prop-1-en-2-yl)benzamide
_symmetry_cell_setting           monoclinic
_symmetry_space_group_name_H-M   'C 2/c'
_symmetry_Int_Tables_number      15
_space_group_name_Hall           '-C 2yn'
loop_
_symmetry_equiv_pos_site_id
_symmetry_equiv_pos_as_xyz
1 x,y,z
2 -x,y,1/2-z
3 1/2+x,1/2+y,z
4 1/2-x,1/2+y,1/2-z
5 -x,-y,-z
6 x,-y,1/2+z
7 1/2-x,1/2-y,-z
8 1/2+x,1/2-y,1/2+z
_cell_length_a                   21.839(3)
_cell_length_b                   12.0943(15)
_cell_length_c                   29.530(3)
_cell_angle_alpha                90
_cell_angle_beta                 98.908(6)
_cell_angle_gamma                90
_cell_volume                     7705.6
_cell_formula_units_Z            16
loop_
_atom_site_label
_atom_site_type_symbol
_atom_site_fract_x
_atom_site_fract_y
_atom_site_fract_z
N1 N 0.4503(3) 0.3418(8) 0.6237(2)
C1 C 0.4975(4) 0.3243(13) 0.5940(3)
H1 H 0.5056 0.3942 0.5800
H2 H 0.5357 0.3007 0.6128
C2 C 0.4812(5) 0.2472(14) 0.5599(3)
H3 H 0.4834 0.1741 0.5737
H4 H 0.5113 0.2498 0.5389
C3 C 0.4164(4) 0.2638(10) 0.5326(3)
H5 H 0.4163 0.3280 0.5129
H6 H 0.4049 0.1998 0.5134
C4 C 0.3696(5) 0.2801(12) 0.5651(3)
H7 H 0.3299 0.3003 0.5475
H8 H 0.3642 0.2108 0.5805
C5 C 0.3876(4) 0.3613(12) 0.5977(4)
H9 H 0.3579 0.3640 0.6189
H10 H 0.3870 0.4326 0.5825
C6 C 0.4615(4) 0.3637(7) 0.6684(3)
C7 C 0.5272(4) 0.3516(7) 0.6942(2)
C8 C 0.5551(4) 0.2543(7) 0.7034(2)
C9 C 0.6182(4) 0.2382(7) 0.7284(3)
C10 C 0.6670(4) 0.3022(7) 0.7184(3)
H11 H 0.6594 0.3583 0.6967
C11 C 0.7260(4) 0.2841(9) 0.7399(3)
H12 H 0.7580 0.3283 0.7328
C12 C 0.7388(5) 0.2022(10) 0.7718(4)
H13 H 0.7793 0.1900 0.7859
C13 C 0.6915(5) 0.1376(9) 0.7831(3)
H14 H 0.6997 0.0819 0.8050
C14 C 0.6312(4) 0.1570(8) 0.7614(3)
H15 H 0.5991 0.1144 0.7693
C15 C 0.5468(3) 0.5490(7) 0.6938(3)
C16 C 0.5671(3) 0.6471(6) 0.7222(2)
C17 C 0.5565(4) 0.7504(8) 0.7026(3)
H16 H 0.5384 0.7559 0.6720
C18 C 0.5721(4) 0.8444(7) 0.7272(3)
H17 H 0.5640 0.9132 0.7135
C19 C 0.5997(4) 0.8375(7) 0.7721(3)
H18 H 0.6105 0.9013 0.7890
C20 C 0.6110(4) 0.7363(7) 0.7915(3)
H19 H 0.6295 0.7317 0.8220
C21 C 0.5959(4) 0.6412(7) 0.7675(3)
H20 H 0.6048 0.5728 0.7814
N2 N 0.5521(3) 0.4483(5) 0.7152(2)
H21 H 0.5717 0.4445 0.7428
O1 O 0.4215(2) 0.3959(5) 0.69007(16)
O2 O 0.5253(3) 0.5543(5) 0.65321(17)
Cl1 Cl 0.51544(10) 0.1342(2) 0.68499(8)
C22 C 0.2538(4) 0.5818(7) 0.6426(3)
H22 H 0.2539 0.6196 0.6716
H23 H 0.2934 0.5952 0.6327
C23 C 0.2463(4) 0.4607(7) 0.6495(3)
H24 H 0.2770 0.4359 0.6748
H25 H 0.2534 0.4214 0.6222
C24 C 0.1822(4) 0.4337(8) 0.6597(3)
H26 H 0.1773 0.3542 0.6614
H27 H 0.1769 0.4651 0.6891
C25 C 0.1339(4) 0.4805(8) 0.6225(3)
H28 H 0.1371 0.4440 0.5936
H29 H 0.0929 0.4660 0.6299
C26 C 0.1424(4) 0.6035(7) 0.6173(3)
H30 H 0.1125 0.6308 0.5920
H31 H 0.1350 0.6408 0.6450
C27 C 0.2121(4) 0.6766(6) 0.5689(2)
C28 C 0.2777(4) 0.6994(6) 0.5608(2)
C29 C 0.3122(4) 0.7819(7) 0.5807(2)
C30 C 0.3755(4) 0.8108(6) 0.5718(2)
C31 C 0.4218(4) 0.7328(8) 0.5795(3)
H32 H 0.4133 0.6637 0.5909
C32 C 0.4811(4) 0.7555(10) 0.5705(3)
H33 H 0.5119 0.7017 0.5751
C33 C 0.4935(5) 0.8589(10) 0.5547(3)
H34 H 0.5333 0.8762 0.5493
C34 C 0.4475(5) 0.9360(9) 0.5468(3)
H35 H 0.4562 1.0051 0.5355
C35 C 0.3886(4) 0.9134(8) 0.5552(3)
H36 H 0.3578 0.9670 0.5498
C36 C 0.2813(4) 0.5338(7) 0.5143(2)
C37 C 0.3037(4) 0.4837(7) 0.4742(3)
C38 C 0.2744(4) 0.3879(7) 0.4565(3)
H37 H 0.2409 0.3604 0.4690
C39 C 0.2945(5) 0.3328(9) 0.4206(3)
H38 H 0.2753 0.2674 0.4096
C40 C 0.3422(5) 0.3742(9) 0.4015(3)
H39 H 0.3552 0.3374 0.3770
C41 C 0.3713(4) 0.4694(8) 0.4177(3)
H40 H 0.4039 0.4972 0.4042
C42 C 0.3523(4) 0.5249(7) 0.4544(3)
H41 H 0.3722 0.5896 0.4656
N3 N 0.2046(3) 0.6277(6) 0.6088(2)
N4 N 0.2975(3) 0.6426(5) 0.52413(19)
H42 H 0.3203 0.6765 0.5073
O3 O 0.1694(3) 0.7059(5) 0.54009(17)
O4 O 0.2498(3) 0.4809(5) 0.53810(19)
Cl2 Cl 0.28177(10) 0.86776(18) 0.61874(6)
loop_
_geom_bond_atom_site_label_1
_geom_bond_atom_site_label_2
_geom_bond_site_symmetry_1
_geom_bond_site_symmetry_2
N1 C1 1_555 1_555
C1 H1 1_555 1_555
H2 C1 1_555 1_555
C2 C1 1_555 1_555
H3 C2 1_555 1_555
H4 C2 1_555 1_555
C3 C2 1_555 1_555
H5 C3 1_555 1_555
H6 C3 1_555 1_555
C4 C3 1_555 1_555
H7 C4 1_555 1_555
H8 C4 1_555 1_555
C5 N1 1_555 1_555
H9 C5 1_555 1_555
H10 C5 1_555 1_555
C6 N1 1_555 1_555
C7 C6 1_555 1_555
C8 C7 1_555 1_555
C9 C8 1_555 1_555
C10 C9 1_555 1_555
H11 C10 1_555 1_555
C11 C10 1_555 1_555
H12 C11 1_555 1_555
C12 C11 1_555 1_555
H13 C12 1_555 1_555
C13 C12 1_555 1_555
H14 C13 1_555 1_555
C14 C9 1_555 1_555
H15 C14 1_555 1_555
C15 C16 1_555 1_555
C16 C17 1_555 1_555
C17 H16 1_555 1_555
C18 C17 1_555 1_555
H17 C18 1_555 1_555
C19 C18 1_555 1_555
H18 C19 1_555 1_555
C20 C19 1_555 1_555
H19 C20 1_555 1_555
C21 C16 1_555 1_555
H20 C21 1_555 1_555
N2 C7 1_555 1_555
H21 N2 1_555 1_555
O1 C6 1_555 1_555
O2 C15 1_555 1_555
Cl1 C8 1_555 1_555
C22 H22 1_555 1_555
H23 C22 1_555 1_555
C23 C22 1_555 1_555
H24 C23 1_555 1_555
H25 C23 1_555 1_555
C24 C23 1_555 1_555
H26 C24 1_555 1_555
H27 C24 1_555 1_555
C25 C24 1_555 1_555
H28 C25 1_555 1_555
H29 C25 1_555 1_555
C26 C25 1_555 1_555
H30 C26 1_555 1_555
H31 C26 1_555 1_555
C27 C28 1_555 1_555
C28 C29 1_555 1_555
C29 C30 1_555 1_555
C30 C31 1_555 1_555
C31 H32 1_555 1_555
C32 C31 1_555 1_555
H33 C32 1_555 1_555
C33 C32 1_555 1_555
H34 C33 1_555 1_555
C34 C33 1_555 1_555
H35 C34 1_555 1_555
C35 C30 1_555 1_555
H36 C35 1_555 1_555
C36 C37 1_555 1_555
C37 C38 1_555 1_555
C38 H37 1_555 1_555
C39 C38 1_555 1_555
H38 C39 1_555 1_555
C40 C39 1_555 1_555
H39 C40 1_555 1_555
C41 C40 1_555 1_555
H40 C41 1_555 1_555
C42 C37 1_555 1_555
H41 C42 1_555 1_555
N3 C22 1_555 1_555
N4 C28 1_555 1_555
H42 N4 1_555 1_555
O3 C27 1_555 1_555
O4 C36 1_555 1_555
Cl2 C29 1_555 1_555
C4 C5 1_555 1_555
C13 C14 1_555 1_555
C15 N2 1_555 1_555
C20 C21 1_555 1_555
C26 N3 1_555 1_555
C27 N3 1_555 1_555
C34 C35 1_555 1_555
C36 N4 1_555 1_555
C41 C42 1_555 1_555

#END
