
#######################################################################
#
#                 Cambridge Crystallographic Data Centre
#                                CCDC 
#
#######################################################################
#
# If this CIF has been generated from an entry in the Cambridge 
# Structural Database, then it will include bibliographic, chemical, 
# crystal, experimental, refinement or atomic coordinate data resulting 
# from the CCDC's data processing and validation procedures.
#
#######################################################################

data_OVOGEM
_chemical_formula_moiety         'C21 H21 Cl1 N2 O2'
_chemical_name_systematic        
(Z)-N-(1-Chloro-3-oxo-1-phenyl-3-(piperidin-1-yl)prop-1-en-2-yl)benzamide
_symmetry_cell_setting           monoclinic
_symmetry_space_group_name_H-M   'P 21/c'
_symmetry_Int_Tables_number      14
_space_group_name_Hall           '-P 2ybc'
loop_
_symmetry_equiv_pos_site_id
_symmetry_equiv_pos_as_xyz
1 x,y,z
2 -x,1/2+y,1/2-z
3 -x,-y,-z
4 x,1/2-y,1/2+z
_cell_length_a                   12.3001(11)
_cell_length_b                   8.8151(7)
_cell_length_c                   35.062(3)
_cell_angle_alpha                90
_cell_angle_beta                 97.855(3)
_cell_angle_gamma                90
_cell_volume                     3765.98
_cell_formula_units_Z            8
loop_
_atom_site_label
_atom_site_type_symbol
_atom_site_fract_x
_atom_site_fract_y
_atom_site_fract_z
C1 C 0.75334(16) 0.3935(2) 0.43652(5)
C2 C 0.87166(15) 0.5657(2) 0.40863(5)
C3 C 0.81984(15) 0.7035(2) 0.42430(5)
C4 C 0.82277(16) 0.9151(2) 0.46819(6)
H1 H 0.7579 0.9418 0.4505
H2 H 0.8740 0.9991 0.4691
C5 C 0.79118(17) 0.8883(2) 0.50803(6)
H3 H 0.7339 0.8120 0.5066
H4 H 0.7625 0.9814 0.5175
C6 C 0.89031(16) 0.8356(2) 0.53586(6)
H5 H 0.9438 0.9170 0.5398
H6 H 0.8674 0.8111 0.5605
C7 C 0.94250(16) 0.6972(2) 0.52010(6)
H7 H 0.8927 0.6119 0.5199
H8 H 1.0092 0.6718 0.5370
C8 C 0.96976(15) 0.7234(2) 0.47950(5)
H9 H 1.0287 0.7969 0.4803
H10 H 0.9946 0.6292 0.4693
C9 C 0.96439(15) 0.5760(2) 0.39278(5)
C10 C 1.02601(17) 0.7166(2) 0.38789(6)
C11 C 1.13812(18) 0.7258(3) 0.40026(7)
H11 H 1.1759 0.6428 0.4119
C12 C 1.1930(2) 0.8605(4) 0.39509(10)
H12 H 1.2675 0.8683 0.4041
C13 C 1.1387(3) 0.9822(4) 0.37694(9)
H13 H 1.1769 1.0705 0.3728
C14 C 1.0289(3) 0.9731(3) 0.36499(8)
H14 H 0.9919 1.0563 0.3532
C15 C 0.9720(2) 0.8411(2) 0.37028(6)
H15 H 0.8970 0.8361 0.3620
C16 C 0.67340(15) 0.2652(2) 0.43116(5)
C17 C 0.61231(18) 0.2405(2) 0.46111(6)
H16 H 0.6238 0.3015 0.4829
C18 C 0.53458(19) 0.1262(2) 0.45895(7)
H17 H 0.4934 0.1118 0.4790
C19 C 0.51854(17) 0.0342(2) 0.42703(7)
H18 H 0.4668 -0.0433 0.4256
C20 C 0.57908(16) 0.0563(2) 0.39706(6)
H19 H 0.5685 -0.0070 0.3756
C21 C 0.65577(16) 0.1729(2) 0.39881(6)
H20 H 0.6952 0.1889 0.3784
N1 N 0.80718(13) 0.43293(17) 0.40639(5)
H21 H 0.8018 0.3770 0.3861
N2 N 0.87305(12) 0.77909(17) 0.45428(4)
O1 O 0.77091(12) 0.46283(16) 0.46708(4)
O2 O 0.72962(10) 0.74517(15) 0.40743(4)
Cl1 Cl 1.01925(4) 0.41174(6) 0.374763(15)
C22 C 0.52582(15) 0.4956(2) 0.34463(6)
C23 C 0.67842(15) 0.5843(2) 0.31384(5)
C24 C 0.70578(15) 0.4268(2) 0.30094(6)
C25 C 0.69989(19) 0.2367(2) 0.25091(6)
H22 H 0.6371 0.1710 0.2518
H23 H 0.7615 0.1948 0.2679
C26 C 0.7277(2) 0.2426(3) 0.20985(6)
H24 H 0.7970 0.2950 0.2097
H25 H 0.7362 0.1401 0.2007
C27 C 0.6395(2) 0.3229(3) 0.18300(6)
H26 H 0.5716 0.2658 0.1811
H27 H 0.6613 0.3295 0.1575
C28 C 0.6217(2) 0.4808(3) 0.19803(6)
H28 H 0.5637 0.5310 0.1812
H29 H 0.6883 0.5400 0.1984
C29 C 0.59092(17) 0.4714(3) 0.23833(6)
H30 H 0.5830 0.5730 0.2482
H31 H 0.5209 0.4200 0.2375
C30 C 0.72161(15) 0.7088(2) 0.30030(5)
C31 C 0.79910(15) 0.7146(2) 0.27154(5)
C32 C 0.77784(17) 0.8093(2) 0.23938(6)
H32 H 0.7142 0.8675 0.2359
C33 C 0.85101(18) 0.8168(2) 0.21275(6)
H33 H 0.8360 0.8797 0.1914
C34 C 0.94591(19) 0.7317(2) 0.21766(6)
H34 H 0.9956 0.7387 0.2000
C35 C 0.96668(18) 0.6362(3) 0.24894(6)
H35 H 1.0299 0.5771 0.2520
C36 C 0.89396(16) 0.6275(2) 0.27587(6)
H36 H 0.9089 0.5630 0.2969
C37 C 0.47003(15) 0.4967(2) 0.38020(6)
C38 C 0.38852(17) 0.3891(2) 0.38250(6)
H37 H 0.3694 0.3218 0.3623
C39 C 0.33573(18) 0.3821(3) 0.41503(7)
H38 H 0.2815 0.3096 0.4164
C40 C 0.36271(18) 0.4809(3) 0.44514(7)
H39 H 0.3272 0.4754 0.4669
C41 C 0.44307(19) 0.5884(3) 0.44280(7)
H40 H 0.4619 0.6556 0.4631
C42 C 0.49601(17) 0.5970(2) 0.41034(6)
H41 H 0.5493 0.6708 0.4089
N3 N 0.61477(12) 0.58808(18) 0.34446(4)
H42 H 0.6324 0.6497 0.3633
N4 N 0.67490(13) 0.38896(18) 0.26419(5)
O3 O 0.49298(12) 0.41541(18) 0.31686(4)
O4 O 0.75877(11) 0.34253(15) 0.32497(4)
Cl2 Cl 0.68683(4) 0.88730(6) 0.316854(14)
loop_
_geom_bond_atom_site_label_1
_geom_bond_atom_site_label_2
_geom_bond_site_symmetry_1
_geom_bond_site_symmetry_2
C1 C16 1_555 1_555
C2 C3 1_555 1_555
C3 N2 1_555 1_555
C4 H1 1_555 1_555
H2 C4 1_555 1_555
C5 C4 1_555 1_555
H3 C5 1_555 1_555
H4 C5 1_555 1_555
C6 C5 1_555 1_555
H5 C6 1_555 1_555
H6 C6 1_555 1_555
C7 C6 1_555 1_555
H7 C7 1_555 1_555
H8 C7 1_555 1_555
C8 C7 1_555 1_555
H9 C8 1_555 1_555
H10 C8 1_555 1_555
C9 C2 1_555 1_555
C10 C9 1_555 1_555
C11 C10 1_555 1_555
H11 C11 1_555 1_555
C12 C11 1_555 1_555
H12 C12 1_555 1_555
C13 C12 1_555 1_555
H13 C13 1_555 1_555
C14 C13 1_555 1_555
H14 C14 1_555 1_555
C15 C10 1_555 1_555
H15 C15 1_555 1_555
C16 C17 1_555 1_555
C17 H16 1_555 1_555
C18 C17 1_555 1_555
H17 C18 1_555 1_555
C19 C18 1_555 1_555
H18 C19 1_555 1_555
C20 C19 1_555 1_555
H19 C20 1_555 1_555
C21 C16 1_555 1_555
H20 C21 1_555 1_555
N1 C1 1_555 1_555
H21 N1 1_555 1_555
N2 C4 1_555 1_555
O1 C1 1_555 1_555
O2 C3 1_555 1_555
Cl1 C9 1_555 1_555
C22 C37 1_555 1_555
C23 C24 1_555 1_555
C24 N4 1_555 1_555
C25 H22 1_555 1_555
H23 C25 1_555 1_555
C26 C25 1_555 1_555
H24 C26 1_555 1_555
H25 C26 1_555 1_555
C27 C26 1_555 1_555
H26 C27 1_555 1_555
H27 C27 1_555 1_555
C28 C27 1_555 1_555
H28 C28 1_555 1_555
H29 C28 1_555 1_555
C29 C28 1_555 1_555
H30 C29 1_555 1_555
H31 C29 1_555 1_555
C30 C23 1_555 1_555
C31 C30 1_555 1_555
C32 C31 1_555 1_555
H32 C32 1_555 1_555
C33 C32 1_555 1_555
H33 C33 1_555 1_555
C34 C33 1_555 1_555
H34 C34 1_555 1_555
C35 C34 1_555 1_555
H35 C35 1_555 1_555
C36 C31 1_555 1_555
H36 C36 1_555 1_555
C37 C38 1_555 1_555
C38 H37 1_555 1_555
C39 C38 1_555 1_555
H38 C39 1_555 1_555
C40 C39 1_555 1_555
H39 C40 1_555 1_555
C41 C40 1_555 1_555
H40 C41 1_555 1_555
C42 C37 1_555 1_555
H41 C42 1_555 1_555
N3 C22 1_555 1_555
H42 N3 1_555 1_555
N4 C25 1_555 1_555
O3 C22 1_555 1_555
O4 C24 1_555 1_555
Cl2 C30 1_555 1_555
C2 N1 1_555 1_555
C8 N2 1_555 1_555
C14 C15 1_555 1_555
C20 C21 1_555 1_555
C23 N3 1_555 1_555
C29 N4 1_555 1_555
C35 C36 1_555 1_555
C41 C42 1_555 1_555

#END
