
#######################################################################
#
#                 Cambridge Crystallographic Data Centre
#                                CCDC 
#
#######################################################################
#
# If this CIF has been generated from an entry in the Cambridge 
# Structural Database, then it will include bibliographic, chemical, 
# crystal, experimental, refinement or atomic coordinate data resulting 
# from the CCDC's data processing and validation procedures.
#
#######################################################################

data_OVOKUH
_chemical_formula_moiety         'C15 H12 Cl1 N1 O2'
_chemical_name_systematic        
'ethyl 3-chloropyrido[2,1-a]isoindole-6-carboxylate'
_symmetry_cell_setting           monoclinic
_symmetry_space_group_name_H-M   'P 21/c'
_symmetry_Int_Tables_number      14
_space_group_name_Hall           '-P 2ybc'
loop_
_symmetry_equiv_pos_site_id
_symmetry_equiv_pos_as_xyz
1 x,y,z
2 -x,1/2+y,1/2-z
3 -x,-y,-z
4 x,1/2-y,1/2+z
_cell_length_a                   11.4660(3)
_cell_length_b                   16.5965(4)
_cell_length_c                   20.5339(7)
_cell_angle_alpha                90
_cell_angle_beta                 93.942(3)
_cell_angle_gamma                90
_cell_volume                     3898.26
_exptl_crystal_colour            colorless
_exptl_crystal_description       Plane
_cell_formula_units_Z            12
loop_
_atom_site_label
_atom_site_type_symbol
_atom_site_fract_x
_atom_site_fract_y
_atom_site_fract_z
Cl1 Cl 0.67082(6) 0.39683(5) 0.23169(4)
O1 O 1.07573(14) 0.28732(9) 0.26235(8)
O2 O 1.26187(13) 0.33085(8) 0.27324(8)
N1 N 1.00356(15) 0.45434(10) 0.25323(8)
C1 C 0.7998(2) 0.45182(14) 0.23789(12)
C2 C 0.90136(19) 0.41150(13) 0.24716(11)
H1 H 0.9021 0.3555 0.2494
C3 C 1.00167(19) 0.53851(12) 0.25002(10)
C4 C 0.8958(2) 0.57835(14) 0.24043(11)
H2 H 0.8942 0.6343 0.2382
C5 C 0.7936(2) 0.53577(14) 0.23419(12)
H3 H 0.7220 0.5619 0.2277
C6 C 1.11873(19) 0.56493(12) 0.25781(10)
C7 C 1.1656(2) 0.64310(13) 0.25822(12)
H4 H 1.1171 0.6879 0.2534
C8 C 1.2839(2) 0.65163(15) 0.26583(13)
H5 H 1.3168 0.7029 0.2664
C9 C 1.3565(2) 0.58358(15) 0.27287(13)
H6 H 1.4370 0.5910 0.2777
C10 C 1.3132(2) 0.50687(14) 0.27288(12)
H7 H 1.3631 0.4628 0.2778
C11 C 1.19115(18) 0.49606(12) 0.26521(10)
C12 C 1.11839(18) 0.42717(12) 0.26228(10)
C13 C 1.14525(18) 0.34249(13) 0.26569(10)
C14 C 1.2997(2) 0.24803(13) 0.27470(12)
H8 H 1.2739 0.2214 0.2342
H9 H 1.2666 0.2198 0.3104
C15 C 1.4293(2) 0.24728(17) 0.28353(17)
H10 H 1.4566 0.1926 0.2846
H11 H 1.4538 0.2735 0.3238
H12 H 1.4612 0.2752 0.2479
Cl2 Cl 0.64312(6) 0.25375(4) 0.07237(4)
O3 O 1.23479(13) 0.31742(9) 0.10862(8)
O4 O 1.05007(14) 0.36244(9) 0.09109(9)
C16 C 0.7712(2) 0.19826(15) 0.07346(12)
C17 C 0.8741(2) 0.23865(14) 0.08179(11)
H13 H 0.8753 0.2945 0.0852
C18 C 0.9741(2) 0.11119(12) 0.08107(10)
C19 C 0.8668(2) 0.07208(14) 0.07174(12)
H14 H 0.8645 0.0162 0.0685
C20 C 0.7657(2) 0.11476(15) 0.06737(13)
H15 H 0.6940 0.0888 0.0604
C21 C 1.0907(2) 0.08416(12) 0.08969(10)
C22 C 1.1373(2) 0.00593(14) 0.09123(11)
H16 H 1.0890 -0.0388 0.0851
C23 C 1.2551(2) -0.00263(16) 0.10200(13)
H17 H 1.2877 -0.0540 0.1035
C24 C 1.3277(2) 0.06461(15) 0.11085(12)
H18 H 1.4078 0.0567 0.1186
C25 C 1.2853(2) 0.14185(15) 0.10852(11)
H19 H 1.3356 0.1857 0.1136
C26 C 1.1635(2) 0.15320(12) 0.09818(10)
C27 C 1.09117(19) 0.22195(12) 0.09448(10)
C28 C 1.11902(19) 0.30636(13) 0.09776(10)
C29 C 1.27542(19) 0.39973(13) 0.10929(11)
H20 H 1.2386 0.4303 0.1425
H21 H 1.2564 0.4249 0.0673
C30 C 1.4045(2) 0.39760(17) 0.12370(15)
H22 H 1.4347 0.4516 0.1245
H23 H 1.4398 0.3672 0.0905
H24 H 1.4221 0.3726 0.1654
N2 N 0.97598(15) 0.19538(10) 0.08513(8)
Cl3 Cl 1.29985(6) 0.75213(5) 0.10281(4)
O5 O 0.89516(14) 0.86072(9) 0.07329(8)
O6 O 0.70968(13) 0.81660(9) 0.06345(8)
C31 C 1.1726(2) 0.69629(16) 0.09106(12)
C32 C 1.0699(2) 0.73650(14) 0.08479(11)
H25 H 1.0684 0.7925 0.0860
C33 C 0.9705(2) 0.60926(12) 0.07560(10)
C34 C 1.0777(2) 0.56995(15) 0.08173(12)
H26 H 1.0802 0.5140 0.0806
C35 C 1.1788(2) 0.61240(16) 0.08935(13)
H27 H 1.2507 0.5862 0.0933
C36 C 0.85347(19) 0.58240(12) 0.06839(10)
C37 C 0.8056(2) 0.50466(13) 0.06596(11)
H28 H 0.8538 0.4595 0.0682
C38 C 0.6873(2) 0.49651(15) 0.06019(13)
H29 H 0.6543 0.4453 0.0584
C39 C 0.6148(2) 0.56443(15) 0.05699(13)
H30 H 0.5341 0.5572 0.0535
C40 C 0.6589(2) 0.64141(14) 0.05879(12)
H31 H 0.6092 0.6857 0.0560
C41 C 0.78063(19) 0.65166(12) 0.06489(10)
C42 C 0.85339(18) 0.72069(12) 0.06975(10)
C43 C 0.82569(19) 0.80518(13) 0.06905(10)
C44 C 0.6707(2) 0.89918(13) 0.06238(12)
H32 H 0.7028 0.9279 0.0266
H33 H 0.6962 0.9259 0.1029
C45 C 0.5409(2) 0.89809(18) 0.05393(18)
H34 H 0.5119 0.9524 0.0530
H35 H 0.5102 0.8695 0.0896
H36 H 0.5168 0.8717 0.0137
N3 N 0.96806(15) 0.69339(10) 0.07659(8)
loop_
_geom_bond_atom_site_label_1
_geom_bond_atom_site_label_2
_geom_bond_site_symmetry_1
_geom_bond_site_symmetry_2
Cl1 C1 1_555 1_555
O1 C13 1_555 1_555
O2 C13 1_555 1_555
N1 C2 1_555 1_555
C1 C2 1_555 1_555
C2 H1 1_555 1_555
C3 N1 1_555 1_555
C4 C3 1_555 1_555
H2 C4 1_555 1_555
C5 C1 1_555 1_555
H3 C5 1_555 1_555
C6 C3 1_555 1_555
C7 C6 1_555 1_555
H4 C7 1_555 1_555
C8 C7 1_555 1_555
H5 C8 1_555 1_555
C9 C8 1_555 1_555
H6 C9 1_555 1_555
C10 C9 1_555 1_555
H7 C10 1_555 1_555
C11 C6 1_555 1_555
C12 N1 1_555 1_555
C13 C12 1_555 1_555
C14 O2 1_555 1_555
H8 C14 1_555 1_555
H9 C14 1_555 1_555
C15 C14 1_555 1_555
H10 C15 1_555 1_555
H11 C15 1_555 1_555
H12 C15 1_555 1_555
Cl2 C16 1_555 1_555
O3 C28 1_555 1_555
O4 C28 1_555 1_555
C16 C17 1_555 1_555
C17 H13 1_555 1_555
C18 C19 1_555 1_555
C19 H14 1_555 1_555
C20 C16 1_555 1_555
H15 C20 1_555 1_555
C21 C18 1_555 1_555
C22 C21 1_555 1_555
H16 C22 1_555 1_555
C23 C22 1_555 1_555
H17 C23 1_555 1_555
C24 C23 1_555 1_555
H18 C24 1_555 1_555
C25 C24 1_555 1_555
H19 C25 1_555 1_555
C26 C21 1_555 1_555
C27 C26 1_555 1_555
C28 C27 1_555 1_555
C29 O3 1_555 1_555
H20 C29 1_555 1_555
H21 C29 1_555 1_555
C30 C29 1_555 1_555
H22 C30 1_555 1_555
H23 C30 1_555 1_555
H24 C30 1_555 1_555
N2 C17 1_555 1_555
Cl3 C31 1_555 1_555
O5 C43 1_555 1_555
O6 C43 1_555 1_555
C31 C32 1_555 1_555
C32 H25 1_555 1_555
C33 C34 1_555 1_555
C34 H26 1_555 1_555
C35 C31 1_555 1_555
H27 C35 1_555 1_555
C36 C33 1_555 1_555
C37 C36 1_555 1_555
H28 C37 1_555 1_555
C38 C37 1_555 1_555
H29 C38 1_555 1_555
C39 C38 1_555 1_555
H30 C39 1_555 1_555
C40 C39 1_555 1_555
H31 C40 1_555 1_555
C41 C36 1_555 1_555
C42 C41 1_555 1_555
C43 C42 1_555 1_555
C44 O6 1_555 1_555
H32 C44 1_555 1_555
H33 C44 1_555 1_555
C45 C44 1_555 1_555
H34 C45 1_555 1_555
H35 C45 1_555 1_555
H36 C45 1_555 1_555
N3 C32 1_555 1_555
C4 C5 1_555 1_555
C10 C11 1_555 1_555
C11 C12 1_555 1_555
C18 N2 1_555 1_555
C19 C20 1_555 1_555
C25 C26 1_555 1_555
C27 N2 1_555 1_555
C33 N3 1_555 1_555
C34 C35 1_555 1_555
C40 C41 1_555 1_555
C42 N3 1_555 1_555

#END
