
#######################################################################
#
#                 Cambridge Crystallographic Data Centre
#                                CCDC 
#
#######################################################################
#
# If this CIF has been generated from an entry in the Cambridge 
# Structural Database, then it will include bibliographic, chemical, 
# crystal, experimental, refinement or atomic coordinate data resulting 
# from the CCDC's data processing and validation procedures.
#
#######################################################################

data_OVOLAO
_chemical_formula_moiety         'C27 H25 N1 O5'
_chemical_name_systematic        
'(3R,4S,5R)-5-hydroxy-3,5-diphenylocta-1,7-dien-4-yl 4-nitrobenzoate'
_symmetry_cell_setting           monoclinic
_symmetry_space_group_name_H-M   'P 21'
_symmetry_Int_Tables_number      4
_space_group_name_Hall           'P 2yb'
loop_
_symmetry_equiv_pos_site_id
_symmetry_equiv_pos_as_xyz
1 x,y,z
2 -x,1/2+y,-z
_cell_length_a                   5.7846(18)
_cell_length_b                   10.081(2)
_cell_length_c                   20.654(18)
_cell_angle_alpha                90
_cell_angle_beta                 95.51(3)
_cell_angle_gamma                90
_cell_volume                     1198.86
_exptl_crystal_colour            colorless
_exptl_crystal_description       block
_chemical_melting_point          '146.5-147.3 deg.C'
_cell_formula_units_Z            2
loop_
_atom_site_label
_atom_site_type_symbol
_atom_site_fract_x
_atom_site_fract_y
_atom_site_fract_z
O1 O 0.6484(8) 0.4745(4) 0.2903(2)
N1 N 0.774(2) -0.0162(10) 0.4811(5)
C1 C 0.5584(13) 0.2872(7) 0.3504(3)
C2 C 0.7763(14) 0.2908(8) 0.3838(4)
H1 H 0.8758 0.3611 0.3775
O2 O 0.2792(9) 0.4039(6) 0.2805(3)
C3 C 0.8468(16) 0.1912(9) 0.4263(4)
H2 H 0.9943 0.1928 0.4486
O3 O 0.973(3) -0.0297(15) 0.4965(9)
C4 C 0.4819(17) 0.0832(9) 0.4041(4)
H3 H 0.3828 0.0133 0.4114
O4 O 0.9968(7) 0.6098(5) 0.2168(3)
H4 H 1.056(10) 0.544(10) 0.242(5)
O5 O 0.6369(19) -0.0867(9) 0.5031(4)
C5 C 0.6977(17) 0.0894(9) 0.4355(4)
C6 C 0.4766(12) 0.3941(7) 0.3033(3)
C7 C 0.4123(14) 0.1836(8) 0.3608(4)
H5 H 0.2648 0.1809 0.3386
C8 C 0.6042(11) 0.5881(7) 0.2476(3)
H6 H 0.4422 0.5859 0.2288
C9 C 0.6404(14) 0.7091(7) 0.2932(4)
H7 H 0.7986 0.7031 0.3147
C10 C 0.6196(13) 0.8425(7) 0.2592(4)
C11 C 0.4171(14) 0.8770(8) 0.2225(4)
H8 H 0.2925 0.8183 0.2191
C12 C 0.3962(15) 0.9969(8) 0.1907(5)
H9 H 0.2596 1.0179 0.1654
C13 C 0.5766(17) 1.0850(9) 0.1965(5)
H10 H 0.5636 1.1658 0.1746
C14 C 0.7759(16) 1.0543(8) 0.2343(5)
H11 H 0.8974 1.1150 0.2391
C15 C 0.7975(13) 0.9336(8) 0.2654(4)
H12 H 0.9341 0.9133 0.2910
C16 C 0.478(2) 0.7031(10) 0.3455(5)
H13 H 0.3219 0.7159 0.3317
C17 C 0.524(4) 0.6833(16) 0.4053(8)
H14 H 0.6764 0.6698 0.4225
H15 H 0.4045 0.6822 0.4325
C18 C 0.4737(12) 0.6560(8) 0.1011(4)
H16 H 0.3753 0.5889 0.1126
C19 C 0.6890(12) 0.6707(7) 0.1360(3)
C20 C 0.4018(15) 0.7376(10) 0.0502(4)
H17 H 0.2573 0.7246 0.0272
C21 C 0.5435(17) 0.8390(11) 0.0329(4)
H18 H 0.4942 0.8962 -0.0010
C22 C 0.7582(16) 0.8544(9) 0.0664(4)
H19 H 0.8555 0.9220 0.0547
C23 C 0.8310(13) 0.7711(7) 0.1169(4)
H20 H 0.9782 0.7823 0.1386
C24 C 0.7673(11) 0.5767(7) 0.1922(3)
C25 C 0.7651(12) 0.4332(7) 0.1661(4)
H21 H 0.8152 0.3742 0.2018
H22 H 0.6065 0.4097 0.1509
C26 C 1.0709(17) 0.3193(10) 0.1116(5)
H23 H 1.0981 0.2623 0.1469
H24 H 1.1569 0.3110 0.0760
C27 C 0.9150(14) 0.4094(8) 0.1120(4)
H25 H 0.8931 0.4645 0.0758
loop_
_geom_bond_atom_site_label_1
_geom_bond_atom_site_label_2
_geom_bond_site_symmetry_1
_geom_bond_site_symmetry_2
O1 C6 1_555 1_555
N1 O3 1_555 1_555
C1 C2 1_555 1_555
C2 H1 1_555 1_555
O2 C6 1_555 1_555
C3 C2 1_555 1_555
H2 C3 1_555 1_555
C4 H3 1_555 1_555
O4 H4 1_555 1_555
O5 N1 1_555 1_555
C5 N1 1_555 1_555
C6 C1 1_555 1_555
C7 C1 1_555 1_555
H5 C7 1_555 1_555
C8 O1 1_555 1_555
H6 C8 1_555 1_555
C9 C8 1_555 1_555
H7 C9 1_555 1_555
C10 C9 1_555 1_555
C11 C10 1_555 1_555
H8 C11 1_555 1_555
C12 C11 1_555 1_555
H9 C12 1_555 1_555
C13 C12 1_555 1_555
H10 C13 1_555 1_555
C14 C13 1_555 1_555
H11 C14 1_555 1_555
C15 C10 1_555 1_555
H12 C15 1_555 1_555
C16 C9 1_555 1_555
H13 C16 1_555 1_555
C17 C16 1_555 1_555
H14 C17 1_555 1_555
H15 C17 1_555 1_555
C18 H16 1_555 1_555
C19 C18 1_555 1_555
C20 C18 1_555 1_555
H17 C20 1_555 1_555
C21 C20 1_555 1_555
H18 C21 1_555 1_555
C22 C21 1_555 1_555
H19 C22 1_555 1_555
C23 C19 1_555 1_555
H20 C23 1_555 1_555
C24 O4 1_555 1_555
C25 C24 1_555 1_555
H21 C25 1_555 1_555
H22 C25 1_555 1_555
C26 H23 1_555 1_555
H24 C26 1_555 1_555
C27 C25 1_555 1_555
H25 C27 1_555 1_555
C3 C5 1_555 1_555
C4 C5 1_555 1_555
C4 C7 1_555 1_555
C8 C24 1_555 1_555
C14 C15 1_555 1_555
C19 C24 1_555 1_555
C22 C23 1_555 1_555
C26 C27 1_555 1_555

#END
