
#######################################################################
#
#                 Cambridge Crystallographic Data Centre
#                                CCDC 
#
#######################################################################
#
# If this CIF has been generated from an entry in the Cambridge 
# Structural Database, then it will include bibliographic, chemical, 
# crystal, experimental, refinement or atomic coordinate data resulting 
# from the CCDC's data processing and validation procedures.
#
#######################################################################

data_OVOLES
_chemical_formula_moiety         'C17 H15 N1 O4'
_chemical_name_systematic        
(2S,3R)-2-hydroxy-3-(4-nitrophenyl)-1-phenylpent-4-en-1-one
_symmetry_cell_setting           triclinic
_symmetry_space_group_name_H-M   'P 1'
_symmetry_Int_Tables_number      1
_space_group_name_Hall           'P 1'
loop_
_symmetry_equiv_pos_site_id
_symmetry_equiv_pos_as_xyz
1 x,y,z
_cell_length_a                   6.4718(4)
_cell_length_b                   7.7276(6)
_cell_length_c                   7.9956(5)
_cell_angle_alpha                68.426(7)
_cell_angle_beta                 85.638(5)
_cell_angle_gamma                87.899(6)
_cell_volume                     370.765
_exptl_crystal_colour            yellow
_exptl_crystal_description       block
_chemical_melting_point          '68.8-70 deg.C'
_cell_formula_units_Z            1
loop_
_atom_site_label
_atom_site_type_symbol
_atom_site_fract_x
_atom_site_fract_y
_atom_site_fract_z
O1 O 0.4124(3) 0.6567(2) 0.9685(2)
O2 O 0.4985(3) 0.3335(2) 1.2083(2)
H1 H 0.4057 0.4107 1.2006
O3 O 0.8376(3) -0.5495(2) 1.4946(3)
O4 O 1.0923(5) -0.5069(4) 1.3092(4)
N1 N 0.9316(3) -0.4551(3) 1.3572(2)
C1 C 0.6642(4) 0.8894(3) 0.6818(3)
H2 H 0.5278 0.9275 0.6939
C2 C 0.8009(5) 1.0066(4) 0.5531(4)
H3 H 0.7555 1.1225 0.4770
C3 C 1.0023(5) 0.9537(4) 0.5366(4)
H4 H 1.0944 1.0350 0.4514
C4 C 1.0706(4) 0.7807(4) 0.6452(4)
H5 H 1.2078 0.7448 0.6325
C5 C 0.9347(3) 0.6614(3) 0.7728(3)
H6 H 0.9810 0.5445 0.8455
C6 C 0.7300(3) 0.7129(3) 0.7945(3)
C7 C 0.5812(3) 0.5962(3) 0.9369(3)
C8 C 0.6332(3) 0.3951(3) 1.0505(3)
H7 H 0.7758 0.3894 1.0857
C9 C 0.6167(3) 0.2675(3) 0.9401(2)
H8 H 0.7098 0.3175 0.8312
C10 C 0.4015(3) 0.2708(3) 0.8807(3)
H9 H 0.2926 0.2423 0.9689
C11 C 0.3563(4) 0.3105(3) 0.7153(3)
H10 H 0.4612 0.3396 0.6234
H11 H 0.2191 0.3097 0.6886
C12 C 0.6940(3) 0.0736(3) 1.0477(2)
C13 C 0.8929(3) 0.0189(3) 1.0087(3)
H12 H 0.9744 0.1007 0.9137
C14 C 0.9724(3) -0.1530(3) 1.1069(3)
H13 H 1.1058 -0.1878 1.0791
C15 C 0.8499(3) -0.2722(3) 1.2472(2)
C16 C 0.6504(3) -0.2258(3) 1.2885(3)
H14 H 0.5691 -0.3093 1.3824
C17 C 0.5736(3) -0.0531(3) 1.1878(3)
H15 H 0.4386 -0.0206 1.2140
loop_
_geom_bond_atom_site_label_1
_geom_bond_atom_site_label_2
_geom_bond_site_symmetry_1
_geom_bond_site_symmetry_2
O1 C7 1_555 1_555
O2 H1 1_555 1_555
O3 N1 1_555 1_555
O4 N1 1_555 1_555
N1 C15 1_555 1_555
C1 H2 1_555 1_555
C2 C1 1_555 1_555
H3 C2 1_555 1_555
C3 C2 1_555 1_555
H4 C3 1_555 1_555
C4 C3 1_555 1_555
H5 C4 1_555 1_555
C5 C4 1_555 1_555
H6 C5 1_555 1_555
C6 C1 1_555 1_555
C7 C6 1_555 1_555
C8 O2 1_555 1_555
H7 C8 1_555 1_555
C9 C8 1_555 1_555
H8 C9 1_555 1_555
C10 C9 1_555 1_555
H9 C10 1_555 1_555
C11 C10 1_555 1_555
H10 C11 1_555 1_555
H11 C11 1_555 1_555
C12 C9 1_555 1_555
C13 C12 1_555 1_555
H12 C13 1_555 1_555
C14 C13 1_555 1_555
H13 C14 1_555 1_555
C15 C14 1_555 1_555
C16 C15 1_555 1_555
H14 C16 1_555 1_555
C17 C12 1_555 1_555
H15 C17 1_555 1_555
C5 C6 1_555 1_555
C7 C8 1_555 1_555
C16 C17 1_555 1_555

#END
