
#######################################################################
#
#                 Cambridge Crystallographic Data Centre
#                                CCDC 
#
#######################################################################
#
# If this CIF has been generated from an entry in the Cambridge 
# Structural Database, then it will include bibliographic, chemical, 
# crystal, experimental, refinement or atomic coordinate data resulting 
# from the CCDC's data processing and validation procedures.
#
#######################################################################

data_OVOMIW
_chemical_formula_moiety         'C33 H30 N9 P1 S1'
_chemical_name_systematic        
"N,N',N''-Trimethyl-N''',N'''',N'''''-tris(quinolin-2-ylmethylene)phosphorothioic trihydrazide"
_symmetry_cell_setting           monoclinic
_symmetry_space_group_name_H-M   'P 21/n'
_symmetry_Int_Tables_number      14
_space_group_name_Hall           '-P 2yn'
loop_
_symmetry_equiv_pos_site_id
_symmetry_equiv_pos_as_xyz
1 x,y,z
2 1/2-x,1/2+y,1/2-z
3 -x,-y,-z
4 1/2+x,1/2-y,1/2+z
_cell_length_a                   13.759(4)
_cell_length_b                   11.094(3)
_cell_length_c                   21.215(6)
_cell_angle_alpha                90
_cell_angle_beta                 108.781(5)
_cell_angle_gamma                90
_cell_volume                     3065.89
_exptl_crystal_colour            yellow
_cell_formula_units_Z            4
loop_
_atom_site_label
_atom_site_type_symbol
_atom_site_fract_x
_atom_site_fract_y
_atom_site_fract_z
C1 C 0.63725(17) 0.1337(2) 0.26912(11)
H1 H 0.6463 0.0995 0.3132
H2 H 0.5655 0.1578 0.2484
H3 H 0.6818 0.2043 0.2736
C2 C 0.59147(16) 0.2268(2) 0.05456(10)
H4 H 0.5829 0.3140 0.0581
H5 H 0.5239 0.1888 0.0360
H6 H 0.6325 0.2110 0.0253
C3 C 0.61231(17) -0.1858(2) 0.11056(12)
H7 H 0.6119 -0.2259 0.0693
H8 H 0.5425 -0.1844 0.1131
H9 H 0.6575 -0.2298 0.1489
C4 C 0.82249(16) 0.01432(19) 0.30499(10)
H10 H 0.7990 0.0567 0.3362
C5 C 0.78754(15) 0.29222(18) 0.13427(10)
H11 H 0.7521 0.3349 0.0947
C6 C 0.79770(16) -0.12447(19) 0.09240(10)
H12 H 0.7730 -0.2050 0.0866
C7 C 0.92830(16) -0.03094(18) 0.32438(10)
C8 C 0.96902(17) -0.08266(19) 0.27670(11)
H13 H 0.9274 -0.0908 0.2315
C9 C 1.06759(17) -0.1199(2) 0.29678(11)
H14 H 1.0955 -0.1552 0.2656
C10 C 1.12946(17) -0.1065(2) 0.36398(11)
C11 C 1.23370(17) -0.1421(2) 0.38897(12)
H15 H 1.2654 -0.1776 0.3598
C12 C 1.28910(18) -0.1259(2) 0.45432(12)
H16 H 1.3590 -0.1502 0.4704
C13 C 1.24330(19) -0.0735(2) 0.49817(12)
H17 H 1.2828 -0.0619 0.5436
C14 C 1.14217(18) -0.03907(19) 0.47607(12)
H18 H 1.1116 -0.0055 0.5063
C15 C 1.08352(17) -0.05346(18) 0.40828(11)
C16 C 0.89425(16) 0.32152(18) 0.17205(10)
C17 C 1.03072(16) 0.44939(18) 0.18411(10)
C18 C 1.06925(18) 0.5558(2) 0.16417(12)
H19 H 1.0265 0.6022 0.1283
C19 C 1.16709(18) 0.5921(2) 0.19609(12)
H20 H 1.1920 0.6638 0.1822
C20 C 1.23249(18) 0.5249(2) 0.24973(12)
H21 H 1.3008 0.5512 0.2716
C21 C 1.19680(17) 0.4223(2) 0.26973(11)
H22 H 1.2409 0.3769 0.3055
C22 C 1.09541(16) 0.38238(18) 0.23821(10)
C23 C 1.05237(17) 0.27909(19) 0.25844(11)
H23 H 1.0928 0.2308 0.2943
C24 C 0.95305(16) 0.24992(19) 0.22622(11)
H24 H 0.9230 0.1818 0.2399
C25 C 0.89916(16) -0.09376(19) 0.08705(10)
C26 C 1.04173(16) -0.15800(19) 0.06189(10)
C27 C 1.09414(17) -0.2505(2) 0.04079(10)
H25 H 1.0642 -0.3284 0.0317
C28 C 1.18782(17) -0.2293(2) 0.03330(11)
H26 H 1.2229 -0.2929 0.0198
C29 C 1.23238(17) -0.1144(2) 0.04536(11)
H27 H 1.2970 -0.1004 0.0395
C30 C 1.18328(17) -0.0224(2) 0.06552(10)
H28 H 1.2141 0.0552 0.0736
C31 C 1.08727(16) -0.04162(19) 0.07448(10)
C32 C 1.03235(17) 0.04922(19) 0.09545(10)
H29 H 1.0607 0.1278 0.1053
C33 C 0.93913(16) 0.02410(19) 0.10149(10)
H30 H 0.9015 0.0847 0.1152
N1 N 0.66439(13) 0.04355(15) 0.22752(9)
N2 N 0.76218(13) -0.00366(16) 0.24581(9)
N3 N 0.98304(14) -0.01543(16) 0.38775(9)
N4 N 0.64359(13) 0.17721(16) 0.12032(9)
N5 N 0.74309(13) 0.20765(15) 0.15579(9)
N6 N 0.93147(13) 0.41789(15) 0.15088(9)
N7 N 0.64942(13) -0.06280(15) 0.11110(9)
N8 N 0.74410(13) -0.03945(15) 0.10508(9)
N9 N 0.94787(13) -0.18315(16) 0.06854(8)
P1 P 0.60199(4) 0.04964(5) 0.14511(3)
S1 S 0.45570(4) 0.04466(6) 0.12351(3)
loop_
_geom_bond_atom_site_label_1
_geom_bond_atom_site_label_2
_geom_bond_site_symmetry_1
_geom_bond_site_symmetry_2
C1 H1 1_555 1_555
H2 C1 1_555 1_555
H3 C1 1_555 1_555
C2 H4 1_555 1_555
H5 C2 1_555 1_555
H6 C2 1_555 1_555
C3 H7 1_555 1_555
H8 C3 1_555 1_555
H9 C3 1_555 1_555
C4 H10 1_555 1_555
C5 H11 1_555 1_555
C6 H12 1_555 1_555
C7 C4 1_555 1_555
C8 C7 1_555 1_555
H13 C8 1_555 1_555
C9 C8 1_555 1_555
H14 C9 1_555 1_555
C10 C9 1_555 1_555
C11 C10 1_555 1_555
H15 C11 1_555 1_555
C12 C11 1_555 1_555
H16 C12 1_555 1_555
C13 C12 1_555 1_555
H17 C13 1_555 1_555
C14 C13 1_555 1_555
H18 C14 1_555 1_555
C15 C10 1_555 1_555
C16 C5 1_555 1_555
C17 C18 1_555 1_555
C18 H19 1_555 1_555
C19 C18 1_555 1_555
H20 C19 1_555 1_555
C20 C19 1_555 1_555
H21 C20 1_555 1_555
C21 C20 1_555 1_555
H22 C21 1_555 1_555
C22 C17 1_555 1_555
C23 C22 1_555 1_555
H23 C23 1_555 1_555
C24 C16 1_555 1_555
H24 C24 1_555 1_555
C25 C6 1_555 1_555
C26 C27 1_555 1_555
C27 H25 1_555 1_555
C28 C27 1_555 1_555
H26 C28 1_555 1_555
C29 C28 1_555 1_555
H27 C29 1_555 1_555
C30 C29 1_555 1_555
H28 C30 1_555 1_555
C31 C26 1_555 1_555
C32 C31 1_555 1_555
H29 C32 1_555 1_555
C33 C25 1_555 1_555
H30 C33 1_555 1_555
N1 C1 1_555 1_555
N2 C4 1_555 1_555
N3 C7 1_555 1_555
N4 C2 1_555 1_555
N5 C5 1_555 1_555
N6 C16 1_555 1_555
N7 C3 1_555 1_555
N8 C6 1_555 1_555
N9 C25 1_555 1_555
P1 N1 1_555 1_555
S1 P1 1_555 1_555
C14 C15 1_555 1_555
C15 N3 1_555 1_555
C17 N6 1_555 1_555
C21 C22 1_555 1_555
C23 C24 1_555 1_555
C26 N9 1_555 1_555
C30 C31 1_555 1_555
C32 C33 1_555 1_555
N1 N2 1_555 1_555
N4 N5 1_555 1_555
N4 P1 1_555 1_555
N7 N8 1_555 1_555
N7 P1 1_555 1_555

#END
