
#######################################################################
#
#                 Cambridge Crystallographic Data Centre
#                                CCDC 
#
#######################################################################
#
# If this CIF has been generated from an entry in the Cambridge 
# Structural Database, then it will include bibliographic, chemical, 
# crystal, experimental, refinement or atomic coordinate data resulting 
# from the CCDC's data processing and validation procedures.
#
#######################################################################

data_OVOPIZ
_chemical_name_common            
15a-hydroxy-17a-oxa-D-homo-androst-4-ene-3,17-dione
_chemical_formula_moiety         'C19 H26 O4'
_chemical_name_systematic        
4-Hydroxy-10a,12a-dimethyl-3,4,4a,5,6,9,10,10a,10b,11,12,12a-dodecahydro-2H-naphtho[2,1-f]chromene-2,8(4bH)-dione
_symmetry_cell_setting           orthorhombic
_symmetry_space_group_name_H-M   'P 21 21 2'
_symmetry_Int_Tables_number      18
_space_group_name_Hall           'P 2 2ab'
loop_
_symmetry_equiv_pos_site_id
_symmetry_equiv_pos_as_xyz
1 x,y,z
2 -x,-y,z
3 1/2-x,1/2+y,-z
4 1/2+x,1/2-y,-z
_cell_length_a                   26.583(5)
_cell_length_b                   7.8115(16)
_cell_length_c                   8.0773(16)
_cell_angle_alpha                90
_cell_angle_beta                 90
_cell_angle_gamma                90
_cell_volume                     1677.28
_exptl_crystal_colour            colorless
_exptl_crystal_description       prism
_cell_formula_units_Z            4
loop_
_atom_site_label
_atom_site_type_symbol
_atom_site_fract_x
_atom_site_fract_y
_atom_site_fract_z
O1 O 0.44621(8) 0.2041(3) 1.2403(3)
O2 O 0.58916(8) 0.7916(4) 0.5651(3)
H1 H 0.5818 0.8023 0.4670
O3 O 0.70834(7) 0.8639(2) 0.8096(3)
O4 O 0.71041(11) 1.0927(3) 0.6527(3)
C1 C 0.57621(14) 0.3263(5) 1.2369(4)
H2 H 0.6051 0.3035 1.3068
H3 H 0.5683 0.4470 1.2480
C2 C 0.53331(13) 0.2269(6) 1.3011(4)
H4 H 0.5227 0.2762 1.4057
H5 H 0.5444 0.1107 1.3226
C3 C 0.48968(10) 0.2216(4) 1.1881(3)
C4 C 0.49985(9) 0.2245(3) 1.0143(3)
H6 H 0.4734 0.2037 0.9418
C5 C 0.54555(9) 0.2555(3) 0.9500(3)
C6 C 0.55223(10) 0.2616(4) 0.7664(3)
H7 H 0.5204 0.2390 0.7121
H8 H 0.5761 0.1745 0.7320
C7 C 0.57151(10) 0.4380(4) 0.7166(3)
H9 H 0.5471 0.5243 0.7485
H10 H 0.5755 0.4428 0.5974
C8 C 0.62197(8) 0.4759(3) 0.8001(3)
H11 H 0.6466 0.3924 0.7600
C9 C 0.61802(9) 0.4573(3) 0.9898(3)
H12 H 0.5968 0.5525 1.0268
C10 C 0.59178(9) 0.2921(4) 1.0534(3)
C11 C 0.66968(10) 0.4879(4) 1.0685(4)
H13 H 0.6665 0.4835 1.1880
H14 H 0.6925 0.3973 1.0349
C12 C 0.69189(10) 0.6610(4) 1.0182(4)
H15 H 0.6715 0.7520 1.0646
H16 H 0.7255 0.6714 1.0638
C13 C 0.69439(9) 0.6823(3) 0.8314(4)
C14 C 0.64165(9) 0.6565(3) 0.7594(3)
H17 H 0.6199 0.7351 0.8212
C15 C 0.63718(9) 0.7113(4) 0.5791(3)
H18 H 0.6383 0.6101 0.5076
C16 C 0.67886(12) 0.8367(4) 0.5277(4)
H19 H 0.7061 0.7720 0.4779
H20 H 0.6656 0.9129 0.4436
C17 C 0.69990(11) 0.9425(4) 0.6653(4)
C18 C 0.73511(10) 0.5700(4) 0.7552(5)
H21 H 0.7338 0.5794 0.6368
H22 H 0.7297 0.4531 0.7869
H23 H 0.7675 0.6069 0.7939
C19 C 0.62629(12) 0.1341(4) 1.0399(6)
H24 H 0.6074 0.0328 1.0656
H25 H 0.6537 0.1453 1.1163
H26 H 0.6392 0.1258 0.9292
loop_
_geom_bond_atom_site_label_1
_geom_bond_atom_site_label_2
_geom_bond_site_symmetry_1
_geom_bond_site_symmetry_2
O1 C3 1_555 1_555
O2 H1 1_555 1_555
O3 C13 1_555 1_555
O4 C17 1_555 1_555
C1 H2 1_555 1_555
H3 C1 1_555 1_555
C2 C1 1_555 1_555
H4 C2 1_555 1_555
H5 C2 1_555 1_555
C3 C2 1_555 1_555
C4 C3 1_555 1_555
H6 C4 1_555 1_555
C5 C4 1_555 1_555
C6 C5 1_555 1_555
H7 C6 1_555 1_555
H8 C6 1_555 1_555
C7 C6 1_555 1_555
H9 C7 1_555 1_555
H10 C7 1_555 1_555
C8 C7 1_555 1_555
H11 C8 1_555 1_555
C9 C8 1_555 1_555
H12 C9 1_555 1_555
C10 C1 1_555 1_555
C11 C9 1_555 1_555
H13 C11 1_555 1_555
H14 C11 1_555 1_555
C12 C11 1_555 1_555
H15 C12 1_555 1_555
H16 C12 1_555 1_555
C13 C12 1_555 1_555
C14 C8 1_555 1_555
H17 C14 1_555 1_555
C15 O2 1_555 1_555
H18 C15 1_555 1_555
C16 C15 1_555 1_555
H19 C16 1_555 1_555
H20 C16 1_555 1_555
C17 O3 1_555 1_555
C18 C13 1_555 1_555
H21 C18 1_555 1_555
H22 C18 1_555 1_555
H23 C18 1_555 1_555
C19 C10 1_555 1_555
H24 C19 1_555 1_555
H25 C19 1_555 1_555
H26 C19 1_555 1_555
C5 C10 1_555 1_555
C9 C10 1_555 1_555
C13 C14 1_555 1_555
C14 C15 1_555 1_555
C16 C17 1_555 1_555

#END
