
#######################################################################
#
#                 Cambridge Crystallographic Data Centre
#                                CCDC 
#
#######################################################################
#
# If this CIF has been generated from an entry in the Cambridge 
# Structural Database, then it will include bibliographic, chemical, 
# crystal, experimental, refinement or atomic coordinate data resulting 
# from the CCDC's data processing and validation procedures.
#
#######################################################################

data_OVOQUM
_chemical_name_common            1alpha-hydroxylarenobufagin
_chemical_formula_moiety         'C24 H32 O7'
_chemical_name_systematic        
1,3,11,14-Tetrahydroxy-12-oxobufa-20,22-dienolide
_symmetry_cell_setting           monoclinic
_symmetry_space_group_name_H-M   'P 21'
_symmetry_Int_Tables_number      4
_space_group_name_Hall           'P 2yb'
loop_
_symmetry_equiv_pos_site_id
_symmetry_equiv_pos_as_xyz
1 x,y,z
2 -x,1/2+y,-z
_cell_length_a                   8.9374(7)
_cell_length_b                   11.6694(6)
_cell_length_c                   10.8617(10)
_cell_angle_alpha                90
_cell_angle_beta                 109.358(9)
_cell_angle_gamma                90
_cell_volume                     1068.77
_cell_formula_units_Z            2
loop_
_atom_site_label
_atom_site_type_symbol
_atom_site_fract_x
_atom_site_fract_y
_atom_site_fract_z
O1 O 0.7115(3) 0.2939(2) 0.1247(3)
H1 H 0.6904 0.3012 0.0457
O2 O 0.5576(3) 0.2536(3) -0.1318(3)
H2 H 0.6158 0.2230 -0.1668
O3 O 0.5677(3) 0.0440(3) 0.3330(3)
H3 H 0.5512 -0.0203 0.3563
O4 O 0.3681(3) -0.0434(3) 0.4310(3)
O5 O -0.0041(3) 0.2481(2) 0.3164(3)
H4 H -0.0820 0.2527 0.2502
O6 O -0.0175(3) 0.0417(3) 0.7676(3)
O7 O -0.1869(4) 0.1384(3) 0.8361(3)
C1 C 0.6081(4) 0.2080(3) 0.1503(4)
H5 H 0.6661 0.1702 0.2330
C2 C 0.5696(4) 0.1184(4) 0.0435(4)
H6 H 0.5120 0.0560 0.0663
H7 H 0.6677 0.0875 0.0375
C3 C 0.4713(5) 0.1663(4) -0.0883(4)
H8 H 0.4426 0.1041 -0.1524
C4 C 0.3215(5) 0.2211(4) -0.0787(4)
H9 H 0.2540 0.1617 -0.0629
H10 H 0.2642 0.2572 -0.1614
C5 C 0.3550(5) 0.3106(3) 0.0299(4)
H11 H 0.4146 0.3727 0.0069
C6 C 0.1973(5) 0.3625(4) 0.0325(4)
H12 H 0.2192 0.4328 0.0831
H13 H 0.1318 0.3817 -0.0558
C7 C 0.1070(5) 0.2814(4) 0.0908(4)
H14 H 0.0730 0.2154 0.0341
H15 H 0.0130 0.3197 0.0961
C8 C 0.2078(4) 0.2410(3) 0.2270(4)
H16 H 0.2439 0.3100 0.2799
C9 C 0.3591(4) 0.1796(3) 0.2195(4)
H17 H 0.3230 0.1185 0.1544
C10 C 0.4579(4) 0.2656(3) 0.1657(4)
C11 C 0.4518(4) 0.1216(4) 0.3487(4)
H18 H 0.5074 0.1814 0.4103
C12 C 0.3444(4) 0.0577(4) 0.4077(4)
C13 C 0.2080(4) 0.1245(3) 0.4306(4)
C14 C 0.1104(4) 0.1714(3) 0.2935(4)
C15 C 0.0272(4) 0.0648(3) 0.2247(4)
H19 H 0.0993 0.0166 0.1978
H20 H -0.0625 0.0846 0.1484
C16 C -0.0280(5) 0.0041(3) 0.3278(4)
H21 H -0.0300 -0.0783 0.3154
H22 H -0.1335 0.0295 0.3220
C17 C 0.0940(4) 0.0369(3) 0.4620(4)
H23 H 0.1564 -0.0319 0.4968
C18 C 0.2755(5) 0.2165(4) 0.5335(4)
H24 H 0.3333 0.1808 0.6151
H25 H 0.1904 0.2613 0.5438
H26 H 0.3453 0.2653 0.5065
C19 C 0.5172(5) 0.3654(4) 0.2603(4)
H27 H 0.4284 0.4038 0.2730
H28 H 0.5746 0.4183 0.2250
H29 H 0.5859 0.3368 0.3425
C20 C 0.0175(4) 0.0744(3) 0.5621(4)
C21 C 0.0509(5) 0.0183(3) 0.6752(4)
H30 H 0.1254 -0.0404 0.6920
C22 C -0.0974(5) 0.1648(4) 0.5411(4)
H31 H -0.1250 0.2068 0.4640
C23 C -0.1660(5) 0.1900(4) 0.6315(4)
H32 H -0.2382 0.2501 0.6164
C24 C -0.1298(5) 0.1265(3) 0.7490(4)
loop_
_geom_bond_atom_site_label_1
_geom_bond_atom_site_label_2
_geom_bond_site_symmetry_1
_geom_bond_site_symmetry_2
O1 H1 1_555 1_555
O2 H2 1_555 1_555
O3 H3 1_555 1_555
O4 C12 1_555 1_555
O5 H4 1_555 1_555
O6 C21 1_555 1_555
O7 C24 1_555 1_555
C1 O1 1_555 1_555
H5 C1 1_555 1_555
C2 C1 1_555 1_555
H6 C2 1_555 1_555
H7 C2 1_555 1_555
C3 O2 1_555 1_555
H8 C3 1_555 1_555
C4 C3 1_555 1_555
H9 C4 1_555 1_555
H10 C4 1_555 1_555
C5 C4 1_555 1_555
H11 C5 1_555 1_555
C6 C5 1_555 1_555
H12 C6 1_555 1_555
H13 C6 1_555 1_555
C7 C6 1_555 1_555
H14 C7 1_555 1_555
H15 C7 1_555 1_555
C8 C7 1_555 1_555
H16 C8 1_555 1_555
C9 C8 1_555 1_555
H17 C9 1_555 1_555
C10 C1 1_555 1_555
C11 O3 1_555 1_555
H18 C11 1_555 1_555
C12 C11 1_555 1_555
C13 C12 1_555 1_555
C14 O5 1_555 1_555
C15 C14 1_555 1_555
H19 C15 1_555 1_555
H20 C15 1_555 1_555
C16 C15 1_555 1_555
H21 C16 1_555 1_555
H22 C16 1_555 1_555
C17 C13 1_555 1_555
H23 C17 1_555 1_555
C18 C13 1_555 1_555
H24 C18 1_555 1_555
H25 C18 1_555 1_555
H26 C18 1_555 1_555
C19 C10 1_555 1_555
H27 C19 1_555 1_555
H28 C19 1_555 1_555
H29 C19 1_555 1_555
C20 C17 1_555 1_555
C21 C20 1_555 1_555
H30 C21 1_555 1_555
C22 C20 1_555 1_555
H31 C22 1_555 1_555
C23 C22 1_555 1_555
H32 C23 1_555 1_555
C24 O6 1_555 1_555
C2 C3 1_555 1_555
C5 C10 1_555 1_555
C8 C14 1_555 1_555
C9 C10 1_555 1_555
C9 C11 1_555 1_555
C13 C14 1_555 1_555
C16 C17 1_555 1_555
C23 C24 1_555 1_555

#END
