
#######################################################################
#
#                 Cambridge Crystallographic Data Centre
#                                CCDC 
#
#######################################################################
#
# If this CIF has been generated from an entry in the Cambridge 
# Structural Database, then it will include bibliographic, chemical, 
# crystal, experimental, refinement or atomic coordinate data resulting 
# from the CCDC's data processing and validation procedures.
#
#######################################################################

data_OVOREX
_chemical_name_common            'Bufotricosaroide A hemihydrate'
_chemical_formula_moiety         'C23 H36 O4,0.5(H2 O1)'
_chemical_name_systematic        
'5,7-Dihydroxy-10,14,17-trimethyl-18-oxapentacyclo[13.3.2.0^1,14^.0^2,11^.0^5,10^]icosane-16-carbaldehyde hemihydrate'
_symmetry_cell_setting           monoclinic
_symmetry_space_group_name_H-M   'C 2'
_symmetry_Int_Tables_number      5
_space_group_name_Hall           'C 2y'
loop_
_symmetry_equiv_pos_site_id
_symmetry_equiv_pos_as_xyz
1 x,y,z
2 -x,y,-z
3 1/2+x,1/2+y,z
4 1/2-x,1/2+y,-z
_cell_length_a                   14.1328(13)
_cell_length_b                   7.5818(8)
_cell_length_c                   19.5897(19)
_cell_angle_alpha                90
_cell_angle_beta                 97.706(2)
_cell_angle_gamma                90
_cell_volume                     2080.12
_exptl_crystal_colour            colorless
_exptl_crystal_description       plate
_cell_formula_units_Z            4
loop_
_atom_site_label
_atom_site_type_symbol
_atom_site_fract_x
_atom_site_fract_y
_atom_site_fract_z
O1 O 0.16080(19) 0.5660(4) 0.04506(14)
H1 H 0.1698 0.6432 0.0159
O2 O 0.3146(2) 0.3595(4) 0.03002(13)
H2 H 0.3368 0.2608 0.0209
O3 O 0.64887(18) 0.3170(3) 0.28596(13)
O4 O 0.8140(3) 0.4622(5) 0.47473(16)
C1 C 0.2185(3) 0.3004(6) 0.1537(2)
H3 H 0.1865 0.2550 0.1091
H4 H 0.1995 0.2235 0.1904
C2 C 0.1819(3) 0.4866(5) 0.1641(2)
H5 H 0.1113 0.4847 0.1601
H6 H 0.2070 0.5279 0.2110
C3 C 0.2126(3) 0.6133(6) 0.1114(2)
H7 H 0.1952 0.7363 0.1233
C4 C 0.3203(3) 0.6037(5) 0.1083(2)
H8 H 0.3546 0.6539 0.1513
H9 H 0.3355 0.6775 0.0695
C5 C 0.3570(3) 0.4151(5) 0.0991(2)
C6 C 0.4649(3) 0.4174(6) 0.0976(2)
H10 H 0.4803 0.5099 0.0652
H11 H 0.4848 0.3024 0.0802
C7 C 0.5215(3) 0.4523(6) 0.1686(2)
H12 H 0.5904 0.4383 0.1657
H13 H 0.5106 0.5757 0.1822
C8 C 0.4935(3) 0.3286(5) 0.2239(2)
H14 H 0.5085 0.2060 0.2099
C9 C 0.3846(3) 0.3365(5) 0.22561(19)
H15 H 0.3689 0.4627 0.2340
C10 C 0.3272(3) 0.2853(5) 0.1543(2)
C11 C 0.3530(3) 0.2300(6) 0.2855(2)
H16 H 0.2853 0.2577 0.2890
H17 H 0.3570 0.1027 0.2751
C12 C 0.4129(3) 0.2671(6) 0.3554(2)
H18 H 0.3933 0.1853 0.3903
H19 H 0.4003 0.3889 0.3700
C13 C 0.5208(3) 0.2453(5) 0.3523(2)
C14 C 0.5512(3) 0.3616(5) 0.2941(2)
C15 C 0.5471(3) 0.5503(5) 0.3231(2)
H20 H 0.5972 0.6249 0.3071
H21 H 0.4841 0.6044 0.3077
C16 C 0.5634(3) 0.5332(6) 0.4018(2)
H22 H 0.5068 0.5743 0.4220
H23 H 0.6197 0.6029 0.4217
C17 C 0.5805(3) 0.3343(6) 0.4152(2)
H24 H 0.5590 0.2965 0.4595
C18 C 0.5438(3) 0.0472(6) 0.3451(2)
H25 H 0.5229 -0.0183 0.3835
H26 H 0.6128 0.0321 0.3457
H27 H 0.5104 0.0024 0.3015
C19 C 0.3476(3) 0.0931(5) 0.1353(2)
H28 H 0.3109 0.0642 0.0907
H29 H 0.3289 0.0138 0.1707
H30 H 0.4159 0.0790 0.1325
C20 C 0.6880(3) 0.2895(6) 0.4130(2)
H31 H 0.6952 0.1583 0.4154
C21 C 0.7465(3) 0.3662(7) 0.4751(2)
H32 H 0.7286 0.3365 0.5187
C22 C 0.7202(3) 0.3520(6) 0.34500(19)
H33 H 0.7326 0.4818 0.3479
C23 C 0.8087(3) 0.2604(6) 0.3297(2)
H34 H 0.8264 0.3046 0.2862
H35 H 0.7969 0.1331 0.3260
H36 H 0.8608 0.2833 0.3670
O5 O 0.0000 0.3392(7) 0.0000
H37 H 0.060(5) 0.457(10) 0.026(3)
H37A H -0.060(5) 0.457(10) -0.026(3)
loop_
_geom_bond_atom_site_label_1
_geom_bond_atom_site_label_2
_geom_bond_site_symmetry_1
_geom_bond_site_symmetry_2
O1 H1 1_555 1_555
O2 H2 1_555 1_555
O3 C14 1_555 1_555
O4 C21 1_555 1_555
C1 H3 1_555 1_555
H4 C1 1_555 1_555
C2 C1 1_555 1_555
H5 C2 1_555 1_555
H6 C2 1_555 1_555
C3 O1 1_555 1_555
H7 C3 1_555 1_555
C4 C3 1_555 1_555
H8 C4 1_555 1_555
H9 C4 1_555 1_555
C5 O2 1_555 1_555
C6 C5 1_555 1_555
H10 C6 1_555 1_555
H11 C6 1_555 1_555
C7 C6 1_555 1_555
H12 C7 1_555 1_555
H13 C7 1_555 1_555
C8 C7 1_555 1_555
H14 C8 1_555 1_555
C9 C8 1_555 1_555
H15 C9 1_555 1_555
C10 C1 1_555 1_555
C11 C9 1_555 1_555
H16 C11 1_555 1_555
H17 C11 1_555 1_555
C12 C11 1_555 1_555
H18 C12 1_555 1_555
H19 C12 1_555 1_555
C13 C12 1_555 1_555
C14 C8 1_555 1_555
C15 C14 1_555 1_555
H20 C15 1_555 1_555
H21 C15 1_555 1_555
C16 C15 1_555 1_555
H22 C16 1_555 1_555
H23 C16 1_555 1_555
C17 C13 1_555 1_555
H24 C17 1_555 1_555
C18 C13 1_555 1_555
H25 C18 1_555 1_555
H26 C18 1_555 1_555
H27 C18 1_555 1_555
C19 C10 1_555 1_555
H28 C19 1_555 1_555
H29 C19 1_555 1_555
H30 C19 1_555 1_555
C20 C17 1_555 1_555
H31 C20 1_555 1_555
C21 C20 1_555 1_555
H32 C21 1_555 1_555
C22 O3 1_555 1_555
H33 C22 1_555 1_555
C23 C22 1_555 1_555
H34 C23 1_555 1_555
H35 C23 1_555 1_555
H36 C23 1_555 1_555
O5 H37 1_555 1_555
H37A O5 1_555 1_555
C2 C3 1_555 1_555
C4 C5 1_555 1_555
C5 C10 1_555 1_555
C9 C10 1_555 1_555
C13 C14 1_555 1_555
C16 C17 1_555 1_555
C20 C22 1_555 1_555

#END
