
#######################################################################
#
#                 Cambridge Crystallographic Data Centre
#                                CCDC 
#
#######################################################################
#
# If this CIF has been generated from an entry in the Cambridge 
# Structural Database, then it will include bibliographic, chemical, 
# crystal, experimental, refinement or atomic coordinate data resulting 
# from the CCDC's data processing and validation procedures.
#
#######################################################################

data_OVOROI
_chemical_formula_moiety         
'C36 H60 O30,K1 1+,0.5(I3 1-),0.5(I2),15(H2 O1),0.5(H1 O1 1-)'
_chemical_name_systematic        
'\a-cyclodextrin potassium hemikis(tri-iodide) hemikis(di-iodine) hemihydroxide pentadecahydrate'
_symmetry_cell_setting           tetragonal
_symmetry_space_group_name_H-M   'P 42 21 2'
_symmetry_Int_Tables_number      94
_space_group_name_Hall           'P 4n 2n'
loop_
_symmetry_equiv_pos_site_id
_symmetry_equiv_pos_as_xyz
1 x,y,z
2 -x,-y,z
3 1/2+x,1/2-y,1/2-z
4 1/2-x,1/2+y,1/2-z
5 -y,-x,-z
6 y,x,-z
7 1/2+y,1/2-x,1/2+z
8 1/2-y,1/2+x,1/2+z
_cell_length_a                   19.826(4)
_cell_length_b                   19.826(4)
_cell_length_c                   30.613(6)
_cell_angle_alpha                90
_cell_angle_beta                 90
_cell_angle_gamma                90
_cell_volume                     12033.1
_exptl_crystal_colour            purple
_exptl_crystal_description       Needle
_cell_formula_units_Z            8
loop_
_atom_site_label
_atom_site_type_symbol
_atom_site_fract_x
_atom_site_fract_y
_atom_site_fract_z
I3 I 1.0000 0.5000 0.41562(5)
I4 I 1.0000 0.5000 0.31569(5)
I5 I 1.0180(5) 0.4739(4) 0.22275(15)
I5A I 0.9820(5) 0.5261(4) 0.22275(15)
O1 O 1.1409(3) 0.2489(4) 0.6709(2)
H1 H 1.1559 0.2835 0.6833
O2 O 0.7438(4) 0.3546(3) 0.6704(2)
H2 H 0.7583 0.3937 0.6754
O3 O 0.8566(4) 0.2598(4) 0.6721(3)
H3 H 0.8194 0.2536 0.6846
O4 O 1.0005(4) 0.1969(4) 0.6712(2)
H4 H 1.0259 0.1985 0.6932
O5 O 1.1584(3) 0.3496(3) 0.6072(2)
O6 O 0.7232(4) 0.5047(4) 0.6707(2)
H5 H 0.7263 0.5234 0.6952
O7 O 0.9542(3) 0.2858(3) 0.6083(2)
O8 O 1.0289(3) 0.2416(3) 0.5568(2)
O9 O 0.7971(3) 0.4388(3) 0.6065(2)
O10 O 1.2319(3) 0.3960(3) 0.5562(2)
O11 O 0.7997(3) 0.3502(3) 0.5569(2)
C1 C 1.1242(5) 0.2873(5) 0.5977(3)
H6 H 1.1575 0.2518 0.5891
C2 C 1.1039(5) 0.3094(5) 0.5168(3)
H7 H 1.0677 0.3156 0.4949
H8 H 1.1316 0.3509 0.5173
C3 C 0.7683(5) 0.3761(5) 0.5950(3)
H9 H 0.7192 0.3826 0.5891
C4 C 0.7948(4) 0.5041(5) 0.5171(3)
H10 H 0.8234 0.5299 0.4965
H11 H 0.8137 0.4580 0.5196
O12 O 1.1448(4) 0.2539(4) 0.5046(3)
H12 H 1.1656 0.2632 0.4815
O13 O 0.8737(5) 0.2531(4) 0.5055(3)
H13 H 0.9069 0.2278 0.5008
C5 C 0.7618(4) 0.5004(5) 0.5976(3)
H14 H 0.7142 0.4903 0.5891
C6 C 0.8974(5) 0.3192(5) 0.5180(4)
H15 H 0.8828 0.3524 0.4958
H16 H 0.9474 0.3191 0.5185
C7 C 0.8830(5) 0.2898(5) 0.5990(3)
H17 H 0.8656 0.2444 0.5903
C8 C 0.8500(5) 0.3123(5) 0.6408(3)
H18 H 0.8733 0.3536 0.6518
C9 C 0.9918(5) 0.2291(5) 0.5952(3)
H19 H 0.9603 0.1906 0.5899
C10 C 1.0385(5) 0.2110(5) 0.6330(3)
H20 H 1.0640 0.1693 0.6248
C11 C 0.8716(5) 0.3406(5) 0.5620(3)
H21 H 0.8928 0.3846 0.5702
C12 C 1.2266(5) 0.3553(5) 0.5939(3)
H22 H 1.2458 0.3096 0.5880
C13 C 1.2635(5) 0.3883(5) 0.6316(3)
H23 H 1.3124 0.3916 0.6238
C14 C 1.0893(5) 0.2677(5) 0.6403(3)
H24 H 1.0649 0.3080 0.6520
C15 C 0.7629(5) 0.5408(5) 0.6398(3)
H25 H 0.8103 0.5436 0.6507
C16 C 0.7965(5) 0.5378(4) 0.5614(3)
H26 H 0.8449 0.5434 0.5698
C17 C 1.0729(4) 0.2986(5) 0.5610(3)
H27 H 1.0451 0.3391 0.5684
C18 C 0.7765(5) 0.3280(5) 0.6333(3)
H28 H 0.7533 0.2849 0.6255
O14 O 1.2578(3) 0.3485(3) 0.6699(2)
H29 H 1.2237 0.3236 0.6680
O15 O 0.7267(3) 0.5000(4) 0.4997(2)
O1A O 0.8591(3) 0.7511(4) 0.6709(2)
H1A H 0.8441 0.7165 0.6833
O2A O 1.2562(4) 0.6454(3) 0.6704(2)
H2A H 1.2417 0.6063 0.6754
O3A O 1.1434(4) 0.7402(4) 0.6721(3)
H3A H 1.1806 0.7464 0.6846
O4A O 0.9995(4) 0.8031(4) 0.6712(2)
H4A H 0.9741 0.8015 0.6932
O5A O 0.8416(3) 0.6504(3) 0.6072(2)
O6A O 1.2768(4) 0.4953(4) 0.6707(2)
H5A H 1.2737 0.4766 0.6952
O7A O 1.0458(3) 0.7142(3) 0.6083(2)
O8A O 0.9711(3) 0.7584(3) 0.5568(2)
O9A O 1.2029(3) 0.5612(3) 0.6065(2)
O10A O 0.7681(3) 0.6040(3) 0.5562(2)
O11A O 1.2003(3) 0.6498(3) 0.5569(2)
C1A C 0.8758(5) 0.7127(5) 0.5977(3)
H6A H 0.8425 0.7482 0.5891
C2A C 0.8961(5) 0.6906(5) 0.5168(3)
H7A H 0.9323 0.6844 0.4949
H8A H 0.8684 0.6491 0.5173
C3A C 1.2317(5) 0.6239(5) 0.5950(3)
H9A H 1.2808 0.6174 0.5891
C4A C 1.2052(4) 0.4959(5) 0.5171(3)
H10A H 1.1766 0.4701 0.4965
H11A H 1.1863 0.5420 0.5196
O12A O 0.8552(4) 0.7461(4) 0.5046(3)
H12A H 0.8344 0.7368 0.4815
O13A O 1.1263(5) 0.7469(4) 0.5055(3)
H13A H 1.0931 0.7722 0.5008
C5A C 1.2382(4) 0.4996(5) 0.5976(3)
H14A H 1.2858 0.5097 0.5891
C6A C 1.1026(5) 0.6808(5) 0.5180(4)
H15A H 1.1172 0.6476 0.4958
H16A H 1.0526 0.6809 0.5185
C7A C 1.1170(5) 0.7102(5) 0.5990(3)
H17A H 1.1344 0.7556 0.5903
C8A C 1.1500(5) 0.6877(5) 0.6408(3)
H18A H 1.1267 0.6464 0.6518
C9A C 1.0082(5) 0.7709(5) 0.5952(3)
H19A H 1.0397 0.8094 0.5899
C10A C 0.9615(5) 0.7890(5) 0.6330(3)
H20A H 0.9360 0.8307 0.6248
C11A C 1.1284(5) 0.6594(5) 0.5620(3)
H21A H 1.1072 0.6154 0.5702
C12A C 0.7734(5) 0.6447(5) 0.5939(3)
H22A H 0.7542 0.6904 0.5880
C13A C 0.7365(5) 0.6117(5) 0.6316(3)
H23A H 0.6876 0.6084 0.6238
C14A C 0.9107(5) 0.7323(5) 0.6403(3)
H24A H 0.9351 0.6920 0.6520
C15A C 1.2371(5) 0.4592(5) 0.6398(3)
H25A H 1.1897 0.4564 0.6507
C16A C 1.2035(5) 0.4622(4) 0.5614(3)
H26A H 1.1551 0.4566 0.5698
C17A C 0.9271(4) 0.7014(5) 0.5610(3)
H27A H 0.9549 0.6609 0.5684
C18A C 1.2235(5) 0.6720(5) 0.6333(3)
H28A H 1.2467 0.7151 0.6255
O14A O 0.7422(3) 0.6515(3) 0.6699(2)
H29A H 0.7763 0.6764 0.6680
O15A O 1.2733(3) 0.5000(4) 0.4997(2)
O16 O 1.5000 0.5000 0.7329(3)
O17 O 1.4286(6) 0.6113(6) 0.6063(4)
O18 O 1.3926(7) 0.5981(7) 0.7015(4)
K1 K 1.4291(17) 0.4737(16) 0.6674(8)
O19 O 1.4341(5) 0.4165(5) 0.5842(3)
O20 O 0.8090(3) 0.2894(3) 0.75739(18)
H30 H 0.7823 0.2583 0.7644
O21 O 1.2090(3) 0.3123(3) 0.75537(19)
H31 H 1.2504 0.3030 0.7559
O22 O 1.1830(3) 0.3979(3) 0.8226(2)
O23 O 0.8073(3) 0.3901(3) 0.8243(2)
O24 O 0.9942(3) 0.2873(3) 0.8238(2)
O25 O 0.9352(3) 0.2160(4) 0.7592(2)
H32 H 0.9766 0.2212 0.7641
O26 O 1.0803(4) 0.2442(4) 0.7549(2)
H33 H 1.0570 0.2132 0.7660
O27 O 0.9116(3) 0.2583(3) 0.8739(2)
O28 O 0.7369(4) 0.5545(3) 0.7537(2)
H34 H 0.7592 0.5905 0.7527
O29 O 0.7379(4) 0.4515(3) 0.8712(2)
O30 O 1.0811(4) 0.2404(4) 0.9269(3)
H35 H 1.0467 0.2184 0.9342
O31 O 0.8066(3) 0.2917(3) 0.9308(2)
H36 H 0.8259 0.2542 0.9330
O32 O 1.1635(3) 0.3095(3) 0.8712(2)
C19 C 1.0617(5) 0.3047(5) 0.9120(3)
H37 H 1.0772 0.3394 0.9330
H38 H 1.0119 0.3071 0.9104
C20 C 0.8270(4) 0.3220(4) 0.8331(3)
H39 H 0.7871 0.2937 0.8411
C21 C 0.8528(5) 0.3403(5) 0.9144(3)
H40 H 0.8910 0.3445 0.9350
H41 H 0.8300 0.3847 0.9128
C22 C 0.9469(5) 0.2378(5) 0.8353(3)
H42 H 0.9701 0.1938 0.8405
C23 C 1.2344(5) 0.4476(4) 0.8293(3)
C24 C 0.7170(5) 0.4503(5) 0.7924(3)
H43 H 0.6694 0.4656 0.7965
C25 C 0.8982(5) 0.2316(4) 0.7972(3)
H44 H 0.8655 0.1944 0.8033
C26 C 1.1968(5) 0.3297(4) 0.8328(3)
H45 H 1.2465 0.3249 0.8376
C27 C 1.1770(5) 0.2864(5) 0.7942(3)
H46 H 1.1909 0.2385 0.7992
C28 C 1.0909(4) 0.3192(5) 0.8678(3)
H47 H 1.0816 0.3674 0.8601
C29 C 0.7405(5) 0.4109(5) 0.8323(3)
H48 H 0.7112 0.3703 0.8362
C30 C 0.8796(5) 0.3225(5) 0.8698(3)
H49 H 0.9151 0.3563 0.8620
C31 C 1.0647(4) 0.2742(5) 0.8315(3)
H50 H 1.0717 0.2257 0.8392
C32 C 0.7635(5) 0.5118(5) 0.7873(3)
H51 H 0.8100 0.4967 0.7793
C33 C 0.8597(5) 0.2968(5) 0.7909(3)
H52 H 0.8925 0.3319 0.7809
C34 C 0.7836(5) 0.5074(5) 0.8687(3)
H53 H 0.8307 0.4900 0.8651
O33 O 0.7217(4) 0.4091(4) 0.7548(2)
C35 C 1.0998(4) 0.2908(5) 0.7883(3)
O34 O 0.7139(7) 0.5736(6) 0.9172(4)
H54 H 0.6865 0.5554 0.8999
C36 C 0.7783(7) 0.5445(6) 0.9116(3)
H55 H 0.7872 0.5128 0.9359
H56 H 0.8130 0.5804 0.9127
O20A O 1.1910(3) 0.7106(3) 0.75739(18)
H30A H 1.2177 0.7417 0.7644
O21A O 0.7910(3) 0.6877(3) 0.75537(19)
H31A H 0.7496 0.6970 0.7559
O22A O 0.8170(3) 0.6021(3) 0.8226(2)
O23A O 1.1927(3) 0.6099(3) 0.8243(2)
O24A O 1.0058(3) 0.7127(3) 0.8238(2)
O25A O 1.0648(3) 0.7840(4) 0.7592(2)
H32A H 1.0234 0.7788 0.7641
O26A O 0.9197(4) 0.7558(4) 0.7549(2)
H33A H 0.9430 0.7868 0.7660
O27A O 1.0884(3) 0.7417(3) 0.8739(2)
O28A O 1.2631(4) 0.4455(3) 0.7537(2)
H34A H 1.2408 0.4095 0.7527
O29A O 1.2621(4) 0.5485(3) 0.8712(2)
O30A O 0.9189(4) 0.7596(4) 0.9269(3)
H35A H 0.9533 0.7816 0.9342
O31A O 1.1934(3) 0.7083(3) 0.9308(2)
H36A H 1.1741 0.7458 0.9330
O32A O 0.8365(3) 0.6905(3) 0.8712(2)
C19A C 0.9383(5) 0.6953(5) 0.9120(3)
H37A H 0.9228 0.6606 0.9330
H38A H 0.9881 0.6929 0.9104
C20A C 1.1730(4) 0.6780(4) 0.8331(3)
H39A H 1.2129 0.7063 0.8411
C21A C 1.1472(5) 0.6597(5) 0.9144(3)
H40A H 1.1090 0.6555 0.9350
H41A H 1.1700 0.6153 0.9128
C22A C 1.0531(5) 0.7622(5) 0.8353(3)
H42A H 1.0299 0.8062 0.8405
C23A C 0.7656(5) 0.5524(4) 0.8293(3)
C24A C 1.2830(5) 0.5497(5) 0.7924(3)
H43A H 1.3306 0.5344 0.7965
C25A C 1.1018(5) 0.7684(4) 0.7972(3)
H44A H 1.1345 0.8056 0.8033
C26A C 0.8032(5) 0.6703(4) 0.8328(3)
H45A H 0.7535 0.6751 0.8376
C27A C 0.8230(5) 0.7136(5) 0.7942(3)
H46A H 0.8091 0.7615 0.7992
C28A C 0.9091(4) 0.6808(5) 0.8678(3)
H47A H 0.9184 0.6326 0.8601
C29A C 1.2595(5) 0.5891(5) 0.8323(3)
H48A H 1.2888 0.6297 0.8362
C30A C 1.1204(5) 0.6775(5) 0.8698(3)
H49A H 1.0849 0.6437 0.8620
C31A C 0.9353(4) 0.7258(5) 0.8315(3)
H50A H 0.9283 0.7743 0.8392
C32A C 1.2365(5) 0.4882(5) 0.7873(3)
H51A H 1.1900 0.5033 0.7793
C33A C 1.1403(5) 0.7032(5) 0.7909(3)
H52A H 1.1075 0.6681 0.7809
C34A C 1.2164(5) 0.4926(5) 0.8687(3)
H53A H 1.1693 0.5100 0.8651
O33A O 1.2783(4) 0.5909(4) 0.7548(2)
C35A C 0.9002(4) 0.7092(5) 0.7883(3)
O34A O 1.2861(7) 0.4264(6) 0.9172(4)
H54A H 1.3135 0.4446 0.8999
C36A C 1.2217(7) 0.4555(6) 0.9116(3)
H55A H 1.2128 0.4872 0.9359
H56A H 1.1870 0.4196 0.9127
O35 O 0.6864(4) 0.6209(4) 0.4660(2)
O36 O 1.4007(5) 0.5310(5) 0.5330(3)
O37 O 1.1018(7) 0.9118(7) 0.7292(5)
O38 O 0.3602(7) 0.4547(7) 0.0004(5)
O39 O 0.2426(11) 0.2024(11) 0.0280(6)
O40 O 0.6143(10) 0.3857(10) 0.0000
O41 O 0.5709(14) 0.4824(13) 0.0685(8)
O42 O 1.4685(13) 0.5651(13) 0.8058(7)
O43 O 0.5000 0.5000 0.1163(16)
O44 O 0.5644(14) 0.3412(14) 0.0495(9)
O45 O 0.4369(14) 0.4033(13) 0.1341(8)
I1 I 1.0000 0.5000 0.51934(4)
I2 I 1.0000 0.5000 0.61400(4)
O46? O 0.2885(16) 0.2350(15) 0.0539(9)
O47? O 1.4137(12) 0.6060(13) 0.7422(7)
loop_
_geom_bond_atom_site_label_1
_geom_bond_atom_site_label_2
_geom_bond_site_symmetry_1
_geom_bond_site_symmetry_2
I1 I2 1_555 1_555
I3 I4 1_555 1_555
I4 I5 1_555 1_555
I5 I5A 1_555 1_555
O1 H1 1_555 1_555
O2 H2 1_555 1_555
O3 H3 1_555 1_555
O4 H4 1_555 1_555
O5 C1 1_555 1_555
O6 H5 1_555 1_555
O7 C7 1_555 1_555
O8 C9 1_555 1_555
O9 C3 1_555 1_555
O10 C12 1_555 1_555
O11 C3 1_555 1_555
C1 H6 1_555 1_555
C2 H7 1_555 1_555
H8 C2 1_555 1_555
C3 H9 1_555 1_555
C4 H10 1_555 1_555
H11 C4 1_555 1_555
O12 C2 1_555 1_555
H12 O12 1_555 1_555
O13 H13 1_555 1_555
C5 O9 1_555 1_555
H14 C5 1_555 1_555
C6 O13 1_555 1_555
H15 C6 1_555 1_555
H16 C6 1_555 1_555
C7 H17 1_555 1_555
C8 O3 1_555 1_555
H18 C8 1_555 1_555
C9 O7 1_555 1_555
H19 C9 1_555 1_555
C10 O4 1_555 1_555
H20 C10 1_555 1_555
C11 O11 1_555 1_555
H21 C11 1_555 1_555
C12 O5 1_555 1_555
H22 C12 1_555 1_555
C13 C12 1_555 1_555
H23 C13 1_555 1_555
C14 O1 1_555 1_555
H24 C14 1_555 1_555
C15 O6 1_555 1_555
H25 C15 1_555 1_555
C16 C4 1_555 1_555
H26 C16 1_555 1_555
C17 O8 1_555 1_555
H27 C17 1_555 1_555
C18 O2 1_555 1_555
H28 C18 1_555 1_555
O14 C13 1_555 1_555
H29 O14 1_555 1_555
O15 C4 1_555 1_555
O20 H30 1_555 1_555
O21 H31 1_555 1_555
O22 C23 1_555 1_555
O23 C20 1_555 1_555
O24 C22 1_555 1_555
O25 H32 1_555 1_555
O26 H33 1_555 1_555
O27 C22 1_555 1_555
O28 H34 1_555 1_555
O29 C29 1_555 1_555
O30 H35 1_555 1_555
O31 H36 1_555 1_555
O32 C26 1_555 1_555
C19 O30 1_555 1_555
H37 C19 1_555 1_555
H38 C19 1_555 1_555
C20 H39 1_555 1_555
C21 O31 1_555 1_555
H40 C21 1_555 1_555
H41 C21 1_555 1_555
C22 H42 1_555 1_555
C23 C32A 1_555 1_555
C24 H43 1_555 1_555
C25 O25 1_555 1_555
H44 C25 1_555 1_555
C26 O22 1_555 1_555
H45 C26 1_555 1_555
C27 O21 1_555 1_555
H46 C27 1_555 1_555
C28 O32 1_555 1_555
H47 C28 1_555 1_555
C29 O23 1_555 1_555
H48 C29 1_555 1_555
C30 O27 1_555 1_555
H49 C30 1_555 1_555
C31 O24 1_555 1_555
H50 C31 1_555 1_555
C32 O28 1_555 1_555
H51 C32 1_555 1_555
C33 O20 1_555 1_555
H52 C33 1_555 1_555
C34 O29 1_555 1_555
H53 C34 1_555 1_555
O33 C24 1_555 1_555
C35 O26 1_555 1_555
O34 H54 1_555 1_555
C36 C34 1_555 1_555
H55 C36 1_555 1_555
H56 C36 1_555 1_555
I5A I4 1_555 1_555
O1A H1A 1_555 1_555
O2A H2A 1_555 1_555
O3A H3A 1_555 1_555
O4A H4A 1_555 1_555
O5A C1A 1_555 1_555
O6A H5A 1_555 1_555
O7A C7A 1_555 1_555
O8A C9A 1_555 1_555
O9A C3A 1_555 1_555
O10A C16 1_555 1_555
O11A C3A 1_555 1_555
C1A H6A 1_555 1_555
C2A H7A 1_555 1_555
H8A C2A 1_555 1_555
C3A H9A 1_555 1_555
C4A H10A 1_555 1_555
H11A C4A 1_555 1_555
O12A C2A 1_555 1_555
H12A O12A 1_555 1_555
O13A H13A 1_555 1_555
C5A O9A 1_555 1_555
H14A C5A 1_555 1_555
C6A O13A 1_555 1_555
H15A C6A 1_555 1_555
H16A C6A 1_555 1_555
C7A H17A 1_555 1_555
C8A O3A 1_555 1_555
H18A C8A 1_555 1_555
C9A O7A 1_555 1_555
H19A C9A 1_555 1_555
C10A O4A 1_555 1_555
H20A C10A 1_555 1_555
C11A O11A 1_555 1_555
H21A C11A 1_555 1_555
C12A O5A 1_555 1_555
H22A C12A 1_555 1_555
C13A C15 1_555 1_555
H23A C13A 1_555 1_555
C14A O1A 1_555 1_555
H24A C14A 1_555 1_555
C15A C13 1_555 1_555
H25A C15A 1_555 1_555
C16A O10 1_555 1_555
H26A C16A 1_555 1_555
C17A O8A 1_555 1_555
H27A C17A 1_555 1_555
C18A O2A 1_555 1_555
H28A C18A 1_555 1_555
O14A C13A 1_555 1_555
H29A O14A 1_555 1_555
O15A C4A 1_555 1_555
O20A H30A 1_555 1_555
O21A H31A 1_555 1_555
O22A C23A 1_555 1_555
O23A C20A 1_555 1_555
O24A C22A 1_555 1_555
O25A H32A 1_555 1_555
O26A H33A 1_555 1_555
O27A C22A 1_555 1_555
O28A H34A 1_555 1_555
O29A C29A 1_555 1_555
O30A H35A 1_555 1_555
O31A H36A 1_555 1_555
O32A C26A 1_555 1_555
C19A O30A 1_555 1_555
H37A C19A 1_555 1_555
H38A C19A 1_555 1_555
C20A H39A 1_555 1_555
C21A O31A 1_555 1_555
H40A C21A 1_555 1_555
H41A C21A 1_555 1_555
C22A H42A 1_555 1_555
C23A C32 1_555 1_555
C24A H43A 1_555 1_555
C25A O25A 1_555 1_555
H44A C25A 1_555 1_555
C26A O22A 1_555 1_555
H45A C26A 1_555 1_555
C27A O21A 1_555 1_555
H46A C27A 1_555 1_555
C28A O32A 1_555 1_555
H47A C28A 1_555 1_555
C29A O23A 1_555 1_555
H48A C29A 1_555 1_555
C30A O27A 1_555 1_555
H49A C30A 1_555 1_555
C31A O24A 1_555 1_555
H50A C31A 1_555 1_555
C32A O28A 1_555 1_555
H51A C32A 1_555 1_555
C33A O20A 1_555 1_555
H52A C33A 1_555 1_555
C34A C23 1_555 1_555
H53A C34A 1_555 1_555
O33A C24A 1_555 1_555
C35A O26A 1_555 1_555
O34A H54A 1_555 1_555
C36A C34A 1_555 1_555
H55A C36A 1_555 1_555
H56A C36A 1_555 1_555
C1 C14 1_555 1_555
C1 C17 1_555 1_555
C2 C17 1_555 1_555
C3 C18 1_555 1_555
C5 C15 1_555 1_555
C5 C16 1_555 1_555
C6 C11 1_555 1_555
C7 C8 1_555 1_555
C7 C11 1_555 1_555
C8 C18 1_555 1_555
C9 C10 1_555 1_555
C10 C14 1_555 1_555
C19 C28 1_555 1_555
C20 C30 1_555 1_555
C20 C33 1_555 1_555
C21 C30 1_555 1_555
C22 C25 1_555 1_555
C24 C29 1_555 1_555
C24 C32 1_555 1_555
C25 C33 1_555 1_555
C26 C27 1_555 1_555
C27 C35 1_555 1_555
C28 C31 1_555 1_555
C31 C35 1_555 1_555
C34 C23A 1_555 1_555
O34 C36 1_555 1_555
O6A C15A 1_555 1_555
O10A C12A 1_555 1_555
C1A C14A 1_555 1_555
C1A C17A 1_555 1_555
C2A C17A 1_555 1_555
C3A C18A 1_555 1_555
C4A C16A 1_555 1_555
C5A C15A 1_555 1_555
C5A C16A 1_555 1_555
C6A C11A 1_555 1_555
C7A C8A 1_555 1_555
C7A C11A 1_555 1_555
C8A C18A 1_555 1_555
C9A C10A 1_555 1_555
C10A C14A 1_555 1_555
C12A C13A 1_555 1_555
O29A C34A 1_555 1_555
C19A C28A 1_555 1_555
C20A C30A 1_555 1_555
C20A C33A 1_555 1_555
C21A C30A 1_555 1_555
C22A C25A 1_555 1_555
C24A C29A 1_555 1_555
C24A C32A 1_555 1_555
C25A C33A 1_555 1_555
C26A C27A 1_555 1_555
C27A C35A 1_555 1_555
C28A C31A 1_555 1_555
C31A C35A 1_555 1_555
O34A C36A 1_555 1_555

#END
