
#######################################################################
#
#                 Cambridge Crystallographic Data Centre
#                                CCDC 
#
#######################################################################
#
# If this CIF has been generated from an entry in the Cambridge 
# Structural Database, then it will include bibliographic, chemical, 
# crystal, experimental, refinement or atomic coordinate data resulting 
# from the CCDC's data processing and validation procedures.
#
#######################################################################

data_OVORAT
_chemical_name_common            
'5beta-hydroxyl-14alpha-artebufogenin methanol solvate'
_chemical_formula_moiety         'C24 H32 O5,2(C1 H4 O1)'
_chemical_name_systematic        
'3,5-Dihydroxy-15-oxobufa-20,22-dienolide methanol solvate'
_symmetry_cell_setting           monoclinic
_symmetry_space_group_name_H-M   'P 21'
_symmetry_Int_Tables_number      4
_space_group_name_Hall           'P 2yb'
loop_
_symmetry_equiv_pos_site_id
_symmetry_equiv_pos_as_xyz
1 x,y,z
2 -x,1/2+y,-z
_cell_length_a                   8.9124(12)
_cell_length_b                   11.6411(16)
_cell_length_c                   12.4847(16)
_cell_angle_alpha                90
_cell_angle_beta                 106.338(2)
_cell_angle_gamma                90
_cell_volume                     1242.98
_exptl_crystal_colour            colorless
_exptl_crystal_description       plate
_cell_formula_units_Z            2
loop_
_atom_site_label
_atom_site_type_symbol
_atom_site_fract_x
_atom_site_fract_y
_atom_site_fract_z
O1 O 0.1009(3) 0.9822(2) 0.9270(2)
H1 H 0.0995 1.0543 0.9287
O2 O 0.1920(3) 0.7788(2) 1.01110(18)
H2 H 0.1837 0.8505 1.0147
O3 O 0.3265(3) 0.3495(2) 0.6800(2)
O4 O 1.1331(3) 0.5032(3) 0.4451(2)
O5 O 0.9629(4) 0.4042(3) 0.5281(3)
C1 C 0.4076(4) 0.9084(3) 0.9084(2)
H5 H 0.4019 0.9371 0.9818
H6 H 0.5132 0.9263 0.9018
C2 C 0.2875(4) 0.9727(3) 0.8171(3)
H7 H 0.3060 1.0565 0.8266
H8 H 0.2986 0.9506 0.7431
C3 C 0.1230(4) 0.9446(3) 0.8225(3)
H9 H 0.0452 0.9840 0.7596
C4 C 0.0949(4) 0.8175(3) 0.8138(3)
H10 H 0.0989 0.7913 0.7392
H11 H -0.0114 0.8016 0.8200
C5 C 0.2142(3) 0.7476(3) 0.9038(2)
C6 C 0.1799(4) 0.6205(3) 0.8901(3)
H12 H 0.0682 0.6075 0.8847
H13 H 0.2429 0.5797 0.9573
C7 C 0.2153(4) 0.5692(3) 0.7869(3)
H14 H 0.1446 0.6035 0.7186
H15 H 0.1963 0.4853 0.7846
C8 C 0.3868(3) 0.5925(3) 0.7896(2)
H16 H 0.4574 0.5522 0.8554
C9 C 0.4211(3) 0.7220(2) 0.7999(2)
H17 H 0.3464 0.7587 0.7337
C10 C 0.3863(3) 0.7764(3) 0.9053(2)
C11 C 0.5868(4) 0.7503(3) 0.7914(3)
H18 H 0.6002 0.8348 0.7916
H19 H 0.6653 0.7191 0.8577
C12 C 0.6170(4) 0.7002(3) 0.6850(2)
H20 H 0.5469 0.7381 0.6186
H21 H 0.7262 0.7165 0.6856
C13 C 0.5891(3) 0.5713(2) 0.6768(2)
C14 C 0.4203(3) 0.5489(2) 0.6836(2)
H22 H 0.3506 0.5944 0.6213
C15 C 0.3962(3) 0.4241(3) 0.6469(2)
C16 C 0.4823(3) 0.4077(3) 0.5580(3)
H23 H 0.4070 0.3948 0.4838
H24 H 0.5539 0.3410 0.5764
C17 C 0.5749(3) 0.5196(3) 0.5584(2)
H25 H 0.5063 0.5723 0.5024
C18 C 0.7107(3) 0.5059(3) 0.7676(2)
H26 H 0.7172 0.5396 0.8407
H27 H 0.8130 0.5112 0.7531
H28 H 0.6799 0.4250 0.7671
C19 C 0.5011(4) 0.7274(3) 1.0123(3)
H29 H 0.4785 0.7611 1.0780
H30 H 0.6086 0.7461 1.0130
H31 H 0.4891 0.6437 1.0137
C20 C 0.7259(3) 0.5080(3) 0.5285(2)
C21 C 0.8272(4) 0.4100(3) 0.5566(3)
H32 H 0.7985 0.3478 0.5961
C22 C 0.7736(4) 0.5938(3) 0.4720(2)
H33 H 0.7080 0.6591 0.4503
C23 C 0.9117(3) 0.5902(2) 0.44525(19)
H34 H 0.9397 0.6534 0.4067
C24 C 1.0122(4) 0.4975(3) 0.4724(2)
O6 O 0.0710(3) 1.2086(2) 0.9378(2)
H3 H -0.0106 1.2191 0.9576
C25 C 0.0689(5) 1.2805(5) 0.8475(4)
H35 H 0.1553 1.2599 0.8169
H36 H 0.0806 1.3606 0.8727
H37 H -0.0307 1.2713 0.7895
O7 O 1.2845(3) 0.6657(3) 0.3482(2)
H4 H 1.2171 0.6264 0.3671
C26 C 1.3296(5) 0.6083(5) 0.2625(3)
H38 H 1.3924 0.5407 0.2935
H39 H 1.3915 0.6603 0.2301
H40 H 1.2361 0.5840 0.2044
loop_
_geom_bond_atom_site_label_1
_geom_bond_atom_site_label_2
_geom_bond_site_symmetry_1
_geom_bond_site_symmetry_2
O1 H1 1_555 1_555
O2 H2 1_555 1_555
O3 C15 1_555 1_555
O4 C24 1_555 1_555
O5 C21 1_555 1_555
O6 H3 1_555 1_555
O7 H4 1_555 1_555
C1 H5 1_555 1_555
H6 C1 1_555 1_555
C2 C1 1_555 1_555
H7 C2 1_555 1_555
H8 C2 1_555 1_555
C3 O1 1_555 1_555
H9 C3 1_555 1_555
C4 C3 1_555 1_555
H10 C4 1_555 1_555
H11 C4 1_555 1_555
C5 O2 1_555 1_555
C6 C5 1_555 1_555
H12 C6 1_555 1_555
H13 C6 1_555 1_555
C7 C6 1_555 1_555
H14 C7 1_555 1_555
H15 C7 1_555 1_555
C8 C7 1_555 1_555
H16 C8 1_555 1_555
C9 C8 1_555 1_555
H17 C9 1_555 1_555
C10 C1 1_555 1_555
C11 C9 1_555 1_555
H18 C11 1_555 1_555
H19 C11 1_555 1_555
C12 C11 1_555 1_555
H20 C12 1_555 1_555
H21 C12 1_555 1_555
C13 C12 1_555 1_555
C14 C8 1_555 1_555
H22 C14 1_555 1_555
C15 C14 1_555 1_555
C16 C15 1_555 1_555
H23 C16 1_555 1_555
H24 C16 1_555 1_555
C17 C13 1_555 1_555
H25 C17 1_555 1_555
C18 C13 1_555 1_555
H26 C18 1_555 1_555
H27 C18 1_555 1_555
H28 C18 1_555 1_555
C19 C10 1_555 1_555
H29 C19 1_555 1_555
H30 C19 1_555 1_555
H31 C19 1_555 1_555
C20 C17 1_555 1_555
C21 C20 1_555 1_555
H32 C21 1_555 1_555
C22 C20 1_555 1_555
H33 C22 1_555 1_555
C23 C22 1_555 1_555
H34 C23 1_555 1_555
C24 O5 1_555 1_555
C25 O6 1_555 1_555
H35 C25 1_555 1_555
H36 C25 1_555 1_555
H37 C25 1_555 1_555
C26 O7 1_555 1_555
H38 C26 1_555 1_555
H39 C26 1_555 1_555
H40 C26 1_555 1_555
C2 C3 1_555 1_555
C4 C5 1_555 1_555
C5 C10 1_555 1_555
C9 C10 1_555 1_555
C13 C14 1_555 1_555
C16 C17 1_555 1_555
C23 C24 1_555 1_555

#END
