
#######################################################################
#
#                 Cambridge Crystallographic Data Centre
#                                CCDC 
#
#######################################################################
#
# If this CIF has been generated from an entry in the Cambridge 
# Structural Database, then it will include bibliographic, chemical, 
# crystal, experimental, refinement or atomic coordinate data resulting 
# from the CCDC's data processing and validation procedures.
#
#######################################################################

data_OVOTOJ
_chemical_formula_moiety         'C27 H19 N1'
_chemical_name_systematic        
9-(4-((4-Methylphenyl)ethynyl)phenyl)-9H-carbazole
_symmetry_cell_setting           monoclinic
_symmetry_space_group_name_H-M   'P 21/c'
_symmetry_Int_Tables_number      14
_space_group_name_Hall           '-P 2ybc'
loop_
_symmetry_equiv_pos_site_id
_symmetry_equiv_pos_as_xyz
1 x,y,z
2 -x,1/2+y,1/2-z
3 -x,-y,-z
4 x,1/2-y,1/2+z
_cell_length_a                   8.2780(17)
_cell_length_b                   29.283(6)
_cell_length_c                   8.4660(17)
_cell_angle_alpha                90
_cell_angle_beta                 103.98(3)
_cell_angle_gamma                90
_cell_volume                     1991.41
_exptl_crystal_colour            colorless
_exptl_crystal_description       block
_chemical_melting_point          '479 K'
_cell_formula_units_Z            4
loop_
_atom_site_label
_atom_site_type_symbol
_atom_site_fract_x
_atom_site_fract_y
_atom_site_fract_z
N1 N 0.3153(3) 0.65620(9) 0.7245(3)
C1 C -0.1723(6) 0.69629(16) 0.6619(7)
H1 H -0.2816 0.7056 0.6524
C2 C -0.1369(5) 0.67067(16) 0.5397(6)
H2 H -0.2222 0.6633 0.4499
C3 C 0.0222(4) 0.65554(13) 0.5462(4)
H3 H 0.0457 0.6378 0.4633
C4 C 0.1473(4) 0.66802(11) 0.6831(4)
C5 C 0.1098(4) 0.69364(12) 0.8101(4)
C6 C -0.0521(5) 0.70900(14) 0.7999(6)
H4 H -0.0782 0.7268 0.8812
C7 C 0.3872(4) 0.67530(11) 0.8772(4)
C8 C 0.5545(4) 0.67425(12) 0.9624(4)
H5 H 0.6344 0.6587 0.9228
C9 C 0.5945(5) 0.69755(14) 1.1084(5)
H6 H 0.7049 0.6979 1.1678
C10 C 0.4767(7) 0.72036(14) 1.1697(5)
H7 H 0.5087 0.7352 1.2694
C11 C 0.3107(6) 0.72129(13) 1.0836(5)
H8 H 0.2312 0.7366 1.1247
C12 C 0.2665(5) 0.69870(11) 0.9337(4)
C13 C 0.3967(4) 0.62881(11) 0.6301(4)
C14 C 0.3875(4) 0.63947(11) 0.4691(4)
H9 H 0.3286 0.6651 0.4225
C15 C 0.4660(4) 0.61196(12) 0.3767(4)
H10 H 0.4576 0.6190 0.2679
C16 C 0.5574(4) 0.57383(11) 0.4458(4)
C17 C 0.5666(4) 0.56413(11) 0.6084(4)
H11 H 0.6290 0.5392 0.6567
C18 C 0.4854(4) 0.59064(11) 0.7001(4)
H12 H 0.4901 0.5830 0.8077
C19 C 0.6413(4) 0.54568(12) 0.3525(4)
C20 C 0.7094(4) 0.52108(13) 0.2768(4)
C21 C 0.7875(4) 0.49080(11) 0.1830(4)
C22 C 0.7380(4) 0.49026(12) 0.0151(4)
H13 H 0.6548 0.5100 -0.0387
C23 C 0.8114(4) 0.46054(13) -0.0736(4)
H14 H 0.7781 0.4610 -0.1867
C24 C 0.9326(4) 0.43037(12) 0.0021(5)
C25 C 0.9830(4) 0.43130(12) 0.1679(5)
H15 H 1.0680 0.4119 0.2202
C26 C 0.9112(4) 0.46032(13) 0.2604(4)
H16 H 0.9452 0.4595 0.3734
C27 C 1.0102(5) 0.39810(14) -0.0990(5)
H17 H 1.0911 0.3792 -0.0282
H18 H 1.0636 0.4155 -0.1682
H19 H 0.9251 0.3792 -0.1648
loop_
_geom_bond_atom_site_label_1
_geom_bond_atom_site_label_2
_geom_bond_site_symmetry_1
_geom_bond_site_symmetry_2
N1 C4 1_555 1_555
C1 H1 1_555 1_555
C2 C1 1_555 1_555
H2 C2 1_555 1_555
C3 C2 1_555 1_555
H3 C3 1_555 1_555
C4 C3 1_555 1_555
C5 C4 1_555 1_555
C6 C1 1_555 1_555
H4 C6 1_555 1_555
C7 N1 1_555 1_555
C8 C7 1_555 1_555
H5 C8 1_555 1_555
C9 C8 1_555 1_555
H6 C9 1_555 1_555
C10 C9 1_555 1_555
H7 C10 1_555 1_555
C11 C10 1_555 1_555
H8 C11 1_555 1_555
C12 C5 1_555 1_555
C13 N1 1_555 1_555
C14 C13 1_555 1_555
H9 C14 1_555 1_555
C15 C14 1_555 1_555
H10 C15 1_555 1_555
C16 C15 1_555 1_555
C17 C16 1_555 1_555
H11 C17 1_555 1_555
C18 C13 1_555 1_555
H12 C18 1_555 1_555
C19 C16 1_555 1_555
C20 C19 1_555 1_555
C21 C20 1_555 1_555
C22 C21 1_555 1_555
H13 C22 1_555 1_555
C23 C22 1_555 1_555
H14 C23 1_555 1_555
C24 C23 1_555 1_555
C25 C24 1_555 1_555
H15 C25 1_555 1_555
C26 C21 1_555 1_555
H16 C26 1_555 1_555
C27 C24 1_555 1_555
H17 C27 1_555 1_555
H18 C27 1_555 1_555
H19 C27 1_555 1_555
C5 C6 1_555 1_555
C7 C12 1_555 1_555
C11 C12 1_555 1_555
C17 C18 1_555 1_555
C25 C26 1_555 1_555

#END
