
#######################################################################
#
#                 Cambridge Crystallographic Data Centre
#                                CCDC 
#
#######################################################################
#
# If this CIF has been generated from an entry in the Cambridge 
# Structural Database, then it will include bibliographic, chemical, 
# crystal, experimental, refinement or atomic coordinate data resulting 
# from the CCDC's data processing and validation procedures.
#
#######################################################################

data_OVOTEZ
_chemical_formula_moiety         'C26 H17 N1'
_chemical_name_systematic        9-(4-(Phenylethynyl)phenyl)-9H-carbazole
_symmetry_cell_setting           monoclinic
_symmetry_space_group_name_H-M   'C 2/c'
_symmetry_Int_Tables_number      15
_space_group_name_Hall           '-C 2yn'
loop_
_symmetry_equiv_pos_site_id
_symmetry_equiv_pos_as_xyz
1 x,y,z
2 -x,y,1/2-z
3 1/2+x,1/2+y,z
4 1/2-x,1/2+y,1/2-z
5 -x,-y,-z
6 x,-y,1/2+z
7 1/2-x,1/2-y,-z
8 1/2+x,1/2-y,1/2+z
_cell_length_a                   17.772(4)
_cell_length_b                   7.0790(14)
_cell_length_c                   30.194(6)
_cell_angle_alpha                90
_cell_angle_beta                 95.28(3)
_cell_angle_gamma                90
_cell_volume                     3782.53
_exptl_crystal_colour            colorless
_exptl_crystal_description       needle
_chemical_melting_point          '419 K'
_cell_formula_units_Z            8
loop_
_atom_site_label
_atom_site_type_symbol
_atom_site_fract_x
_atom_site_fract_y
_atom_site_fract_z
N1 N 0.73323(18) 0.5577(5) 0.64975(11)
C1 C 0.9370(3) 0.7984(8) 0.69084(18)
H1 H 0.9824 0.8552 0.7012
C2 C 0.8724(3) 0.8592(7) 0.70636(16)
H2 H 0.8733 0.9563 0.7272
C3 C 0.8031(2) 0.7730(6) 0.69053(13)
C4 C 0.8053(2) 0.6262(6) 0.65924(13)
C5 C 0.8734(2) 0.5683(7) 0.64351(16)
H3 H 0.8745 0.4734 0.6223
C6 C 0.9377(3) 0.6557(8) 0.66033(18)
H4 H 0.9836 0.6175 0.6508
C7 C 0.7256(2) 0.7914(6) 0.70000(13)
C8 C 0.6879(3) 0.9088(6) 0.72854(15)
H5 H 0.7145 0.9971 0.7467
C9 C 0.6142(3) 0.8904(7) 0.72891(17)
H6 H 0.5892 0.9700 0.7472
C10 C 0.5716(3) 0.7569(6) 0.70316(14)
H7 H 0.5196 0.7486 0.7045
C11 C 0.6084(2) 0.6358(6) 0.67535(13)
H8 H 0.5820 0.5445 0.6581
C12 C 0.6833(2) 0.6573(5) 0.67468(12)
C13 C 0.7109(2) 0.4098(5) 0.61844(13)
C14 C 0.6838(3) 0.2413(6) 0.63379(14)
H9 H 0.6808 0.2244 0.6641
C15 C 0.6610(3) 0.0973(6) 0.60457(16)
H10 H 0.6439 -0.0168 0.6151
C16 C 0.6640(2) 0.1251(6) 0.55981(14)
C17 C 0.6879(2) 0.2965(6) 0.54456(15)
H11 H 0.6877 0.3171 0.5141
C18 C 0.7119(2) 0.4379(6) 0.57396(15)
H12 H 0.7288 0.5522 0.5634
C19 C 0.6411(2) -0.0225(7) 0.52799(16)
C20 C 0.6224(2) -0.1412(6) 0.50169(15)
C21 C 0.5994(2) -0.2884(6) 0.47061(13)
C22 C 0.5261(3) -0.3374(8) 0.46139(17)
H13 H 0.4896 -0.2699 0.4749
C23 C 0.5029(3) -0.4827(9) 0.43288(18)
H14 H 0.4520 -0.5138 0.4281
C24 C 0.5552(3) -0.5796(8) 0.41192(17)
H15 H 0.5401 -0.6786 0.3929
C25 C 0.6300(3) -0.5326(7) 0.41863(14)
H16 H 0.6653 -0.5970 0.4035
C26 C 0.6534(2) -0.3891(6) 0.44803(14)
H17 H 0.7044 -0.3588 0.4529
loop_
_geom_bond_atom_site_label_1
_geom_bond_atom_site_label_2
_geom_bond_site_symmetry_1
_geom_bond_site_symmetry_2
N1 C4 1_555 1_555
C1 H1 1_555 1_555
C2 C1 1_555 1_555
H2 C2 1_555 1_555
C3 C2 1_555 1_555
C4 C3 1_555 1_555
C5 C4 1_555 1_555
H3 C5 1_555 1_555
C6 C1 1_555 1_555
H4 C6 1_555 1_555
C7 C3 1_555 1_555
C8 C7 1_555 1_555
H5 C8 1_555 1_555
C9 C8 1_555 1_555
H6 C9 1_555 1_555
C10 C9 1_555 1_555
H7 C10 1_555 1_555
C11 C10 1_555 1_555
H8 C11 1_555 1_555
C12 N1 1_555 1_555
C13 N1 1_555 1_555
C14 C13 1_555 1_555
H9 C14 1_555 1_555
C15 C14 1_555 1_555
H10 C15 1_555 1_555
C16 C15 1_555 1_555
C17 C16 1_555 1_555
H11 C17 1_555 1_555
C18 C13 1_555 1_555
H12 C18 1_555 1_555
C19 C16 1_555 1_555
C20 C19 1_555 1_555
C21 C20 1_555 1_555
C22 C21 1_555 1_555
H13 C22 1_555 1_555
C23 C22 1_555 1_555
H14 C23 1_555 1_555
C24 C23 1_555 1_555
H15 C24 1_555 1_555
C25 C24 1_555 1_555
H16 C25 1_555 1_555
C26 C21 1_555 1_555
H17 C26 1_555 1_555
C5 C6 1_555 1_555
C7 C12 1_555 1_555
C11 C12 1_555 1_555
C17 C18 1_555 1_555
C25 C26 1_555 1_555

#END
