
#######################################################################
#
#                 Cambridge Crystallographic Data Centre
#                                CCDC 
#
#######################################################################
#
# If this CIF has been generated from an entry in the Cambridge 
# Structural Database, then it will include bibliographic, chemical, 
# crystal, experimental, refinement or atomic coordinate data resulting 
# from the CCDC's data processing and validation procedures.
#
#######################################################################

data_OVOTUP
_chemical_formula_moiety         'C26 H16 Br1 N1'
_chemical_name_systematic        
9-(4-((4-Bromophenyl)ethynyl)phenyl)-9H-carbazole
_symmetry_cell_setting           monoclinic
_symmetry_space_group_name_H-M   'P 21/c'
_symmetry_Int_Tables_number      14
_space_group_name_Hall           '-P 2ybc'
loop_
_symmetry_equiv_pos_site_id
_symmetry_equiv_pos_as_xyz
1 x,y,z
2 -x,1/2+y,1/2-z
3 -x,-y,-z
4 x,1/2-y,1/2+z
_cell_length_a                   8.3720(17)
_cell_length_b                   28.436(6)
_cell_length_c                   8.6420(17)
_cell_angle_alpha                90
_cell_angle_beta                 105.57(3)
_cell_angle_gamma                90
_cell_volume                     1981.87
_exptl_crystal_colour            colorless
_exptl_crystal_description       block
_chemical_melting_point          '474 K'
_cell_formula_units_Z            4
loop_
_atom_site_label
_atom_site_type_symbol
_atom_site_fract_x
_atom_site_fract_y
_atom_site_fract_z
Br1 Br 1.03945(11) -0.11041(3) -0.10127(11)
N1 N 0.3111(7) 0.1566(2) 0.7074(7)
C1 C -0.1759(10) 0.1939(3) 0.6424(12)
H1 H -0.2860 0.2019 0.6324
C2 C -0.1346(11) 0.1693(3) 0.5217(10)
H2 H -0.2187 0.1622 0.4300
C3 C 0.0224(10) 0.1547(3) 0.5281(10)
H3 H 0.0468 0.1374 0.4462
C4 C 0.1435(9) 0.1678(2) 0.6666(9)
C5 C 0.1067(10) 0.1938(3) 0.7914(9)
C6 C -0.0542(11) 0.2068(3) 0.7789(12)
H4 H -0.0809 0.2239 0.8603
C7 C 0.3861(9) 0.1760(3) 0.8614(8)
C8 C 0.5492(10) 0.1753(3) 0.9461(9)
H5 H 0.6292 0.1604 0.9066
C9 C 0.5894(10) 0.1976(3) 1.0930(10)
H6 H 0.6989 0.1975 1.1550
C10 C 0.4705(13) 0.2202(3) 1.1502(9)
H7 H 0.5023 0.2357 1.2484
C11 C 0.3078(11) 0.2201(2) 1.0655(10)
H8 H 0.2289 0.2345 1.1077
C12 C 0.2598(10) 0.1984(3) 0.9145(10)
C13 C 0.3949(8) 0.1295(3) 0.6169(8)
C14 C 0.3824(8) 0.1392(3) 0.4554(8)
H9 H 0.3198 0.1647 0.4056
C15 C 0.4614(8) 0.1115(3) 0.3706(8)
H10 H 0.4508 0.1184 0.2631
C16 C 0.5548(8) 0.0744(3) 0.4382(9)
C17 C 0.5671(8) 0.0629(3) 0.5991(9)
H11 H 0.6290 0.0370 0.6469
C18 C 0.4866(8) 0.0904(3) 0.6845(9)
H12 H 0.4935 0.0827 0.7907
C19 C 0.6372(9) 0.0453(3) 0.3469(9)
C20 C 0.7062(10) 0.0203(3) 0.2739(9)
C21 C 0.7864(9) -0.0109(3) 0.1865(9)
C22 C 0.7407(9) -0.0096(3) 0.0203(9)
H13 H 0.6599 0.0116 -0.0330
C23 C 0.8134(9) -0.0393(3) -0.0674(9)
H14 H 0.7810 -0.0388 -0.1791
C24 C 0.9366(9) -0.0700(3) 0.0157(9)
C25 C 0.9873(9) -0.0713(3) 0.1818(9)
H15 H 1.0696 -0.0920 0.2353
C26 C 0.9145(9) -0.0418(3) 0.2642(9)
H16 H 0.9499 -0.0418 0.3758
loop_
_geom_bond_atom_site_label_1
_geom_bond_atom_site_label_2
_geom_bond_site_symmetry_1
_geom_bond_site_symmetry_2
Br1 C24 1_555 1_555
N1 C4 1_555 1_555
C1 H1 1_555 1_555
C2 C1 1_555 1_555
H2 C2 1_555 1_555
C3 C2 1_555 1_555
H3 C3 1_555 1_555
C4 C3 1_555 1_555
C5 C4 1_555 1_555
C6 C1 1_555 1_555
H4 C6 1_555 1_555
C7 N1 1_555 1_555
C8 C7 1_555 1_555
H5 C8 1_555 1_555
C9 C8 1_555 1_555
H6 C9 1_555 1_555
C10 C9 1_555 1_555
H7 C10 1_555 1_555
C11 C10 1_555 1_555
H8 C11 1_555 1_555
C12 C5 1_555 1_555
C13 N1 1_555 1_555
C14 C13 1_555 1_555
H9 C14 1_555 1_555
C15 C14 1_555 1_555
H10 C15 1_555 1_555
C16 C15 1_555 1_555
C17 C16 1_555 1_555
H11 C17 1_555 1_555
C18 C13 1_555 1_555
H12 C18 1_555 1_555
C19 C16 1_555 1_555
C20 C19 1_555 1_555
C21 C20 1_555 1_555
C22 C21 1_555 1_555
H13 C22 1_555 1_555
C23 C22 1_555 1_555
H14 C23 1_555 1_555
C24 C23 1_555 1_555
C25 C24 1_555 1_555
H15 C25 1_555 1_555
C26 C21 1_555 1_555
H16 C26 1_555 1_555
C5 C6 1_555 1_555
C7 C12 1_555 1_555
C11 C12 1_555 1_555
C17 C18 1_555 1_555
C25 C26 1_555 1_555

#END
