
#######################################################################
#
#                 Cambridge Crystallographic Data Centre
#                                CCDC 
#
#######################################################################
#
# If this CIF has been generated from an entry in the Cambridge 
# Structural Database, then it will include bibliographic, chemical, 
# crystal, experimental, refinement or atomic coordinate data resulting 
# from the CCDC's data processing and validation procedures.
#
#######################################################################

data_OVOYOP
_chemical_formula_moiety         'C144 H150 N6 O12 Se3'
_chemical_name_systematic        
tris(1,3,7,9-tetraoxo-2,8-di(undecan-6-yl)-1,2,3,7,8,9-hexahydro-5-selena-2,8-diazadibenzo[cd,lm]cyclopenta[ghi]perylene-11,12-diyl)benzene
_symmetry_cell_setting           monoclinic
_symmetry_space_group_name_H-M   'C 2/c'
_symmetry_Int_Tables_number      15
_space_group_name_Hall           '-C 2yn'
loop_
_symmetry_equiv_pos_site_id
_symmetry_equiv_pos_as_xyz
1 x,y,z
2 -x,y,1/2-z
3 1/2+x,1/2+y,z
4 1/2-x,1/2+y,1/2-z
5 -x,-y,-z
6 x,-y,1/2+z
7 1/2-x,1/2-y,-z
8 1/2+x,1/2-y,1/2+z
_cell_length_a                   24.871(5)
_cell_length_b                   40.663(8)
_cell_length_c                   31.272(6)
_cell_angle_alpha                90
_cell_angle_beta                 102.71(3)
_cell_angle_gamma                90
_cell_volume                     30851.3
_cell_formula_units_Z            8
loop_
_atom_site_label
_atom_site_type_symbol
_atom_site_fract_x
_atom_site_fract_y
_atom_site_fract_z
Se1 Se 0.64558(5) 0.23298(2) 0.49450(4)
Se2 Se 1.10555(6) 0.28601(3) 0.25939(5)
Se3 Se 1.03878(7) -0.04865(3) 0.45420(4)
O1 O 0.6725(5) 0.3220(2) 0.3532(4)
O2 O 0.8104(3) 0.27382(18) 0.2972(2)
O3 O 0.7183(4) 0.12302(19) 0.6071(3)
O4 O 0.8508(4) 0.07347(19) 0.5502(3)
O5 O 0.9100(4) 0.30438(16) 0.4372(3)
O6 O 1.0178(5) 0.3719(2) 0.3715(4)
O7 O 1.1540(3) 0.15933(18) 0.2047(2)
O8 O 1.0900(4) 0.08743(19) 0.2967(3)
O9 O 0.8039(4) -0.05651(19) 0.4315(3)
O10 O 0.7421(3) 0.04791(19) 0.3972(2)
O11 O 1.1786(4) 0.1289(3) 0.4311(4)
O12 O 1.2365(4) 0.0295(2) 0.4634(4)
N1 N 0.7373(5) 0.2967(2) 0.3251(3)
N2 N 0.9659(5) 0.3360(2) 0.4090(4)
N3 N 1.1183(4) 0.1229(2) 0.2504(2)
N4 N 0.7753(6) -0.0062(3) 0.4147(4)
N5 N 1.2107(6) 0.0807(3) 0.4543(4)
N6 N 0.7926(5) 0.1015(3) 0.5857(3)
C1 C 0.7808(5) 0.2747(2) 0.3278(4)
C2 C 0.7117(6) 0.3021(3) 0.3611(4)
C3 C 0.7127(4) 0.2708(2) 0.3867(3)
C4 C 0.6739(4) 0.26921(19) 0.4154(3)
C5 C 0.6835(4) 0.2425(2) 0.4497(3)
C6 C 0.7210(4) 0.2193(2) 0.4500(3)
C7 C 0.7595(5) 0.2219(2) 0.4179(4)
C8 C 0.7509(4) 0.2466(2) 0.3876(3)
C9 C 0.7862(5) 0.2498(2) 0.3607(4)
C10 C 0.8274(4) 0.2259(2) 0.3604(4)
C11 C 0.8404(4) 0.2004(2) 0.3937(3)
C12 C 0.8037(4) 0.1978(2) 0.4232(4)
C13 C 0.8058(4) 0.1714(2) 0.4507(3)
C14 C 0.7744(4) 0.17230(18) 0.4856(3)
C15 C 0.7271(5) 0.1971(2) 0.4805(3)
C16 C 0.6978(4) 0.1986(2) 0.5116(4)
C17 C 0.7051(5) 0.1726(3) 0.5432(3)
C18 C 0.7407(4) 0.1483(2) 0.5480(3)
C19 C 0.7498(7) 0.1253(3) 0.5824(5)
C20 C 0.8162(5) 0.0960(3) 0.5436(4)
C21 C 0.8164(5) 0.1211(2) 0.5194(4)
C22 C 0.7741(4) 0.1488(2) 0.5154(3)
C23 C 0.8538(5) 0.1229(2) 0.4861(4)
C24 C 0.8498(5) 0.1474(2) 0.4564(3)
C25 C 0.9943(7) 0.3467(3) 0.3701(5)
C26 C 0.9420(5) 0.3082(3) 0.4195(4)
C27 C 0.9570(5) 0.2773(2) 0.3932(3)
C28 C 0.9407(4) 0.2469(2) 0.4011(4)
C29 C 0.9534(4) 0.2189(2) 0.3803(3)
C30 C 0.9919(4) 0.2239(2) 0.3477(3)
C31 C 1.0071(4) 0.2560(2) 0.3386(3)
C32 C 0.9957(5) 0.2858(2) 0.3600(4)
C33 C 1.0095(5) 0.3156(3) 0.3479(3)
C34 C 1.0407(5) 0.3191(3) 0.3214(3)
C35 C 1.0614(4) 0.2910(3) 0.3043(4)
C36 C 1.0389(4) 0.2599(2) 0.3096(3)
C37 C 1.0596(4) 0.2347(2) 0.2913(3)
C38 C 1.0983(4) 0.2417(3) 0.2622(3)
C39 C 1.1151(6) 0.2128(3) 0.2422(4)
C40 C 1.1034(4) 0.1826(3) 0.2546(3)
C41 C 1.1314(6) 0.1571(3) 0.2332(4)
C42 C 1.0718(5) 0.1746(3) 0.2835(3)
C43 C 1.0490(5) 0.1992(2) 0.3028(4)
C44 C 1.0153(4) 0.1969(2) 0.3348(3)
C45 C 1.0115(4) 0.1632(2) 0.3489(3)
C46 C 1.0335(4) 0.1383(2) 0.3307(3)
C47 C 1.0632(4) 0.1429(2) 0.2984(3)
C48 C 1.0950(5) 0.1159(3) 0.2845(3)
C49 C 0.7828(4) 0.0367(2) 0.4125(3)
C50 C 0.8238(7) -0.0253(3) 0.4317(4)
C51 C 0.8724(7) -0.0152(3) 0.4297(5)
C52 C 0.9133(6) -0.0401(3) 0.4383(4)
C53 C 0.9712(6) -0.0292(2) 0.4433(3)
C54 C 0.9805(5) 0.0101(2) 0.4413(3)
C55 C 0.9351(4) 0.0288(2) 0.4324(3)
C56 C 0.8842(5) 0.0198(3) 0.4298(4)
C57 C 0.8562(6) 0.0756(3) 0.4166(5)
C58 C 0.9028(5) 0.0870(2) 0.4214(3)
C59 C 0.9463(5) 0.0644(2) 0.4256(3)
C60 C 1.0023(5) 0.0756(2) 0.4282(3)
C61 C 1.0150(5) 0.1073(2) 0.4147(3)
C62 C 1.0694(5) 0.1127(2) 0.4205(3)
C63 C 1.1129(6) 0.0938(3) 0.4342(3)
C64 C 1.1717(6) 0.1015(4) 0.4381(5)
C65 C 1.1016(6) 0.0594(3) 0.4435(4)
C66 C 1.1417(6) 0.0350(3) 0.4537(3)
C67 C 1.1956(7) 0.0463(4) 0.4542(5)
C68 C 1.1289(4) -0.0020(2) 0.4634(3)
C69 C 1.0790(4) -0.0032(2) 0.4515(3)
C70 C 1.0310(4) 0.0161(2) 0.4462(3)
C71 C 1.0523(6) 0.0530(2) 0.4398(4)
C72 C 0.8872(4) 0.1809(2) 0.4018(3)
C73 C 0.8814(4) 0.1478(2) 0.4231(3)
C74 C 0.9177(5) 0.1226(2) 0.4177(3)
C75 C 0.9659(4) 0.1296(2) 0.4031(3)
C76 C 0.9703(4) 0.1586(2) 0.3812(3)
C77 C 0.9421(4) 0.1856(2) 0.3878(3)
C78 C 0.8370(4) 0.0413(3) 0.4198(4)
loop_
_geom_bond_atom_site_label_1
_geom_bond_atom_site_label_2
_geom_bond_site_symmetry_1
_geom_bond_site_symmetry_2
Se1 C5 1_555 1_555
Se2 C35 1_555 1_555
Se3 C53 1_555 1_555
O1 C2 1_555 1_555
O2 C1 1_555 1_555
O3 C19 1_555 1_555
O4 C20 1_555 1_555
O5 C26 1_555 1_555
O6 C25 1_555 1_555
O7 C41 1_555 1_555
O8 C48 1_555 1_555
O9 C50 1_555 1_555
O10 C49 1_555 1_555
O11 C64 1_555 1_555
O12 C67 1_555 1_555
N1 C1 1_555 1_555
N2 C25 1_555 1_555
N3 C41 1_555 1_555
N4 C49 1_555 1_555
N5 C64 1_555 1_555
N6 C19 1_555 1_555
C1 C9 1_555 1_555
C2 N1 1_555 1_555
C3 C2 1_555 1_555
C4 C3 1_555 1_555
C5 C4 1_555 1_555
C6 C5 1_555 1_555
C7 C6 1_555 1_555
C8 C3 1_555 1_555
C9 C8 1_555 1_555
C10 C9 1_555 1_555
C11 C10 1_555 1_555
C12 C7 1_555 1_555
C13 C12 1_555 1_555
C14 C13 1_555 1_555
C15 C6 1_555 1_555
C16 Se1 1_555 1_555
C17 C16 1_555 1_555
C18 C17 1_555 1_555
C19 C18 1_555 1_555
C20 N6 1_555 1_555
C21 C20 1_555 1_555
C22 C14 1_555 1_555
C23 C21 1_555 1_555
C24 C13 1_555 1_555
C25 C33 1_555 1_555
C26 N2 1_555 1_555
C27 C26 1_555 1_555
C28 C27 1_555 1_555
C29 C28 1_555 1_555
C30 C29 1_555 1_555
C31 C30 1_555 1_555
C32 C27 1_555 1_555
C33 C32 1_555 1_555
C34 C33 1_555 1_555
C35 C34 1_555 1_555
C36 C31 1_555 1_555
C37 C36 1_555 1_555
C38 Se2 1_555 1_555
C39 C38 1_555 1_555
C40 C39 1_555 1_555
C41 C40 1_555 1_555
C42 C40 1_555 1_555
C43 C37 1_555 1_555
C44 C30 1_555 1_555
C45 C44 1_555 1_555
C46 C45 1_555 1_555
C47 C42 1_555 1_555
C48 N3 1_555 1_555
C49 C78 1_555 1_555
C50 N4 1_555 1_555
C51 C50 1_555 1_555
C52 C51 1_555 1_555
C53 C52 1_555 1_555
C54 C53 1_555 1_555
C55 C54 1_555 1_555
C56 C51 1_555 1_555
C57 C58 1_555 1_555
C58 C59 1_555 1_555
C59 C55 1_555 1_555
C60 C59 1_555 1_555
C61 C60 1_555 1_555
C62 C61 1_555 1_555
C63 C62 1_555 1_555
C64 C63 1_555 1_555
C65 C63 1_555 1_555
C66 C65 1_555 1_555
C67 N5 1_555 1_555
C68 C66 1_555 1_555
C69 Se3 1_555 1_555
C70 C54 1_555 1_555
C71 C60 1_555 1_555
C72 C11 1_555 1_555
C73 C24 1_555 1_555
C74 C58 1_555 1_555
C75 C61 1_555 1_555
C76 C45 1_555 1_555
C77 C29 1_555 1_555
C78 C56 1_555 1_555
C7 C8 1_555 1_555
C11 C12 1_555 1_555
C14 C15 1_555 1_555
C15 C16 1_555 1_555
C18 C22 1_555 1_555
C21 C22 1_555 1_555
C23 C24 1_555 1_555
C31 C32 1_555 1_555
C35 C36 1_555 1_555
C37 C38 1_555 1_555
C42 C43 1_555 1_555
C43 C44 1_555 1_555
C46 C47 1_555 1_555
C47 C48 1_555 1_555
C55 C56 1_555 1_555
C57 C78 1_555 1_555
C65 C71 1_555 1_555
C66 C67 1_555 1_555
C68 C69 1_555 1_555
C69 C70 1_555 1_555
C70 C71 1_555 1_555
C72 C73 1_555 1_555
C72 C77 1_555 1_555
C73 C74 1_555 1_555
C74 C75 1_555 1_555
C75 C76 1_555 1_555
C76 C77 1_555 1_555

#END
