
#######################################################################
#
#                 Cambridge Crystallographic Data Centre
#                                CCDC 
#
#######################################################################
#
# If this CIF has been generated from an entry in the Cambridge 
# Structural Database, then it will include bibliographic, chemical, 
# crystal, experimental, refinement or atomic coordinate data resulting 
# from the CCDC's data processing and validation procedures.
#
#######################################################################

data_OVOYIJ
_chemical_formula_moiety         'C102 H30 F42 N6 O12'
_chemical_name_systematic        
tris(2,9-bis(2,2,3,3,4,4,4-heptafluorobutyl)-1,3,8,10-tetraoxo-1,2,3,8,9,10-hexahydroisoquinolino[4',5',6':6,5,10]anthra[2,1,9-def]isoquinoline-5,6-diyl)benzene
_symmetry_cell_setting           monoclinic
_symmetry_space_group_name_H-M   'C 2/c'
_symmetry_Int_Tables_number      15
_space_group_name_Hall           '-C 2yn'
loop_
_symmetry_equiv_pos_site_id
_symmetry_equiv_pos_as_xyz
1 x,y,z
2 -x,y,1/2-z
3 1/2+x,1/2+y,z
4 1/2-x,1/2+y,1/2-z
5 -x,-y,-z
6 x,-y,1/2+z
7 1/2-x,1/2-y,-z
8 1/2+x,1/2-y,1/2+z
_cell_length_a                   29.2365(15)
_cell_length_b                   33.0466(16)
_cell_length_c                   32.1833(15)
_cell_angle_alpha                90
_cell_angle_beta                 91.677(4)
_cell_angle_gamma                90
_cell_volume                     31081.1
_exptl_crystal_colour            red
_exptl_crystal_description       Block
_cell_formula_units_Z            8
loop_
_atom_site_label
_atom_site_type_symbol
_atom_site_fract_x
_atom_site_fract_y
_atom_site_fract_z
C1 C 0.4769(3) 0.6495(3) 0.4053(2)
C2 C 0.4373(3) 0.6490(3) 0.4313(2)
C3 C 0.4145(3) 0.6833(3) 0.4407(3)
C4 C 0.4194(3) 0.7187(3) 0.4157(2)
C5 C 0.4589(3) 0.7192(3) 0.3868(3)
C6 C 0.4811(3) 0.6838(3) 0.3778(2)
C7 C 0.5091(3) 0.6167(3) 0.4089(3)
C8 C 0.5536(3) 0.6218(3) 0.3956(3)
H1 H 0.5634 0.6477 0.3866
C9 C 0.5831(3) 0.5899(3) 0.3954(2)
C10 C 0.6325(4) 0.5992(4) 0.3803(4)
C11 C 0.6456(3) 0.5236(4) 0.3854(3)
C12 C 0.6014(3) 0.5188(4) 0.4047(3)
C13 C 0.5704(3) 0.5506(3) 0.4071(3)
C14 C 0.5257(3) 0.5443(3) 0.4243(3)
C15 C 0.4962(3) 0.5797(3) 0.4234(3)
C16 C 0.4504(3) 0.5741(3) 0.4412(3)
C17 C 0.4211(3) 0.6068(3) 0.4438(2)
C18 C 0.3793(3) 0.6019(3) 0.4606(2)
H2 H 0.3598 0.6247 0.4630
C19 C 0.3643(3) 0.5637(3) 0.4744(2)
C20 C 0.3202(3) 0.5630(3) 0.4939(3)
C21 C 0.3376(4) 0.4875(3) 0.5096(3)
C22 C 0.3805(4) 0.4922(3) 0.4894(3)
C23 C 0.3940(3) 0.5300(3) 0.4730(3)
C24 C 0.4381(3) 0.5343(3) 0.4551(2)
C25 C 0.4680(3) 0.5020(3) 0.4534(3)
C26 C 0.4522(4) 0.4631(3) 0.4691(3)
H3 H 0.4716 0.4401 0.4679
C27 C 0.4116(4) 0.4594(3) 0.4848(3)
H4 H 0.4024 0.4333 0.4937
C28 C 0.5142(3) 0.5065(3) 0.4362(3)
C29 C 0.5434(3) 0.4745(3) 0.4318(3)
H5 H 0.5346 0.4481 0.4400
C30 C 0.5860(4) 0.4809(3) 0.4152(3)
H6 H 0.6052 0.4583 0.4108
C31 C 0.3878(3) 0.6906(3) 0.4785(2)
C32 C 0.3914(3) 0.6645(3) 0.5129(3)
H7 H 0.4116 0.6421 0.5118
C33 C 0.3671(3) 0.6702(3) 0.5474(3)
C34 C 0.3696(4) 0.6391(3) 0.5797(3)
C35 C 0.3084(4) 0.6748(3) 0.6176(3)
C36 C 0.3086(4) 0.7070(3) 0.5856(3)
C37 C 0.3350(3) 0.7018(3) 0.5504(2)
C38 C 0.3340(3) 0.7314(3) 0.5180(2)
C39 C 0.3595(3) 0.7260(2) 0.4825(2)
C40 C 0.3578(3) 0.7547(2) 0.4498(2)
C41 C 0.3856(3) 0.7504(3) 0.4149(2)
C42 C 0.3775(3) 0.7749(3) 0.3788(3)
H8 H 0.3909 0.7682 0.3531
C43 C 0.3493(3) 0.8094(3) 0.3820(3)
C44 C 0.3449(4) 0.8379(3) 0.3475(3)
C45 C 0.2913(4) 0.8782(3) 0.3871(3)
C46 C 0.2956(4) 0.8501(3) 0.4199(3)
C47 C 0.3239(3) 0.8147(3) 0.4183(2)
C48 C 0.3267(3) 0.7877(2) 0.4510(2)
C49 C 0.3012(3) 0.7945(3) 0.4880(3)
C50 C 0.2756(4) 0.8294(3) 0.4909(3)
H9 H 0.2606 0.8359 0.5159
C51 C 0.2721(4) 0.8554(3) 0.4552(3)
H10 H 0.2519 0.8779 0.4565
C52 C 0.3050(3) 0.7660(2) 0.5215(2)
C53 C 0.2778(3) 0.7689(3) 0.5571(3)
H11 H 0.2584 0.7917 0.5602
C54 C 0.2786(4) 0.7389(3) 0.5880(3)
H12 H 0.2585 0.7406 0.6106
C55 C 0.4760(3) 0.7578(3) 0.3708(3)
C56 C 0.4673(3) 0.7964(3) 0.3870(3)
H13 H 0.4498 0.7976 0.4114
C57 C 0.4813(3) 0.8316(3) 0.3713(3)
C58 C 0.4681(4) 0.8687(3) 0.3892(3)
C59 C 0.5096(4) 0.9054(4) 0.3355(4)
C60 C 0.5217(3) 0.8675(3) 0.3168(3)
C61 C 0.5086(3) 0.8306(3) 0.3345(3)
C62 C 0.5213(3) 0.7923(3) 0.3179(3)
C63 C 0.5064(3) 0.7550(3) 0.3361(2)
C64 C 0.5184(3) 0.7181(3) 0.3208(3)
C65 C 0.5072(3) 0.6818(3) 0.3397(2)
C66 C 0.5199(3) 0.6442(3) 0.3221(2)
H14 H 0.5104 0.6198 0.3349
C67 C 0.5452(3) 0.6421(3) 0.2873(2)
C68 C 0.5616(4) 0.6028(3) 0.2743(3)
C69 C 0.5969(3) 0.6389(4) 0.2142(3)
C70 C 0.5845(3) 0.6765(3) 0.2303(3)
C71 C 0.5598(3) 0.6789(3) 0.2679(3)
C72 C 0.5472(3) 0.7152(3) 0.2831(3)
C73 C 0.5608(3) 0.7531(3) 0.2643(3)
C74 C 0.5877(3) 0.7502(3) 0.2294(3)
H15 H 0.5991 0.7741 0.2171
C75 C 0.5981(3) 0.7129(3) 0.2123(3)
H16 H 0.6149 0.7120 0.1875
C76 C 0.5492(3) 0.7918(3) 0.2816(3)
C77 C 0.5615(3) 0.8306(3) 0.2649(3)
H17 H 0.5789 0.8320 0.2405
C78 C 0.5481(3) 0.8652(3) 0.2841(3)
H18 H 0.5588 0.8901 0.2731
N1 N 0.6572(3) 0.5621(3) 0.3763(3)
N2 N 0.3076(3) 0.5214(2) 0.5102(3)
N3 N 0.3389(3) 0.6441(2) 0.6131(2)
N4 N 0.3174(3) 0.8704(2) 0.3499(2)
N5 N 0.4840(3) 0.9059(3) 0.3691(3)
N6 N 0.5844(3) 0.6013(3) 0.2329(2)
O1 O 0.6448(3) 0.6310(3) 0.3731(3)
O2 O 0.6728(3) 0.4971(2) 0.3835(2)
O3 O 0.2945(2) 0.59017(19) 0.4976(2)
O4 O 0.3245(3) 0.4559(2) 0.5255(3)
O5 O 0.3950(3) 0.6090(2) 0.57815(19)
O6 O 0.2820(3) 0.6754(2) 0.64621(19)
O7 O 0.3665(3) 0.8330(2) 0.31501(19)
O8 O 0.2679(3) 0.9093(2) 0.3868(2)
O9 O 0.4446(3) 0.8706(2) 0.4205(2)
O10 O 0.5191(3) 0.9394(3) 0.3189(3)
O11 O 0.5578(3) 0.5707(2) 0.2919(2)
O12 O 0.61505(15) 0.63375(13) 0.18053(12)
F1 F 0.67498(15) 0.59715(13) 0.29685(12)
F2 F 0.68601(15) 0.53392(13) 0.29962(12)
F3 F 0.23157(15) 0.47042(13) 0.49180(12)
C79 C 0.3140(5) 0.8983(4) 0.3145(3)
H19 H 0.3180 0.8840 0.2879
H20 H 0.2841 0.9125 0.3136
C80 C 0.7046(4) 0.5684(4) 0.3598(4)
H21 H 0.7166 0.5948 0.3698
H22 H 0.7252 0.5470 0.3710
C81 C 0.6031(3) 0.5633(3) 0.2214(3)
H23 H 0.6087 0.5462 0.2463
H24 H 0.6324 0.5672 0.2074
C82 C 0.4734(5) 0.9437(4) 0.3907(5)
H25 H 0.4651 0.9635 0.3686
H26 H 0.4451 0.9384 0.4059
C83 C 0.3373(2) 0.6103(2) 0.64355(19)
H27 H 0.3053 0.6055 0.6516
H28 H 0.3491 0.5852 0.6311
C84 C 0.7056(2) 0.5677(2) 0.31335(19)
F4 F 0.2197(2) 0.5338(2) 0.47505(19)
C85 C 0.1824(2) 0.5022(2) 0.53338(19)
C86 C 0.26632(7) 0.51908(6) 0.53627(6)
H29 H 0.2704 0.4979 0.5578
H30 H 0.2612 0.5453 0.5503
F5 F 0.54773(7) 0.95732(6) 0.39791(6)
C87 C 0.56984(7) 0.54457(6) 0.19366(6)
F6 F 0.51021(7) 0.93233(6) 0.44584(6)
C88 C 0.55244(7) 0.47781(6) 0.15843(6)
F7 F 0.56909(7) 0.47054(6) 0.11856(6)
F8 F 0.51010(7) 0.49527(6) 0.15050(6)
F9 F 0.54474(7) 0.44045(6) 0.17508(6)
F10 F 0.57679(7) 0.49714(6) 0.23107(6)
F11 F 0.14207(7) 0.49092(6) 0.50070(6)
C89 C 0.22787(7) 0.50942(6) 0.50898(6)
C90 C 0.75442(7) 0.57790(6) 0.29953(6)
C91 C 0.74875(7) 0.56788(6) 0.25261(6)
F12 F 0.79257(7) 0.56739(6) 0.24006(6)
F13 F 0.72110(7) 0.59314(6) 0.23112(6)
F14 F 0.73413(7) 0.52926(6) 0.24922(6)
C92 C 0.49874(7) 0.96166(6) 0.41507(6)
C93 C 0.48589(7) 1.00297(6) 0.42835(6)
C94 C 0.50872(7) 1.03798(6) 0.40853(6)
F15 F 0.50975(7) 1.03049(6) 0.36758(6)
F16 F 0.54851(7) 1.04676(6) 0.43095(6)
F17 F 0.47781(7) 1.06730(6) 0.41397(6)
F18 F 0.49697(7) 1.00228(6) 0.47102(6)
F19 F 0.44008(7) 1.00806(6) 0.42675(6)
F20 F 0.55830(7) 0.56312(6) 0.15952(6)
F21 F 0.77941(7) 0.54906(6) 0.31589(6)
F22 F 0.17207(7) 0.54148(6) 0.54589(6)
F23 F 0.76689(7) 0.61508(6) 0.31263(6)
F24 F 0.53112(7) 0.53650(6) 0.20800(6)
F25 F 0.20478(7) 0.49741(6) 0.60367(6)
F26 F 0.19323(7) 0.44770(6) 0.55550(6)
F27 F 0.13271(7) 0.47754(6) 0.58645(6)
C95 C 0.17755(7) 0.47903(6) 0.57099(6)
C96 C 0.58358(7) 0.50184(6) 0.19176(6)
F28 F 0.62679(7) 0.49118(6) 0.18666(6)
F29 F 0.39369(7) 0.90684(6) 0.31901(6)
F30 F 0.35822(7) 0.94612(6) 0.35940(6)
C97 C 0.34728(7) 0.92314(6) 0.32232(6)
C98 C 0.34717(7) 0.95246(6) 0.29003(6)
C99 C 0.39192(7) 0.97366(6) 0.29358(6)
F31 F 0.40490(7) 0.97612(6) 0.25199(6)
F32 F 0.42656(7) 0.95812(6) 0.31954(6)
F33 F 0.38749(7) 1.01429(6) 0.30535(6)
F34 F 0.30697(7) 0.96656(6) 0.27476(6)
F35 F 0.35117(7) 0.92587(6) 0.24827(6)
C100 C 0.36573(7) 0.62174(6) 0.68038(6)
F36 F 0.40771(7) 0.62447(6) 0.66562(6)
C101 C 0.37022(7) 0.58849(6) 0.71206(6)
C102 C 0.32281(7) 0.57854(6) 0.72680(6)
F37 F 0.33217(7) 0.54760(6) 0.75409(6)
F38 F 0.29427(7) 0.57034(6) 0.69609(6)
F39 F 0.31128(7) 0.61278(6) 0.74753(6)
F40 F 0.38142(7) 0.54787(6) 0.69516(6)
F41 F 0.40118(7) 0.60073(6) 0.73934(6)
F42 F 0.36362(7) 0.65318(6) 0.70155(6)
loop_
_geom_bond_atom_site_label_1
_geom_bond_atom_site_label_2
_geom_bond_site_symmetry_1
_geom_bond_site_symmetry_2
C1 C2 1_555 1_555
C2 C3 1_555 1_555
C3 C4 1_555 1_555
C4 C5 1_555 1_555
C5 C6 1_555 1_555
C6 C1 1_555 1_555
C7 C1 1_555 1_555
C8 C7 1_555 1_555
H1 C8 1_555 1_555
C9 C8 1_555 1_555
C10 C9 1_555 1_555
C11 C12 1_555 1_555
C12 C13 1_555 1_555
C13 C9 1_555 1_555
C14 C13 1_555 1_555
C15 C7 1_555 1_555
C16 C15 1_555 1_555
C17 C2 1_555 1_555
C18 C17 1_555 1_555
H2 C18 1_555 1_555
C19 C18 1_555 1_555
C20 C19 1_555 1_555
C21 C22 1_555 1_555
C22 C23 1_555 1_555
C23 C19 1_555 1_555
C24 C16 1_555 1_555
C25 C24 1_555 1_555
C26 C25 1_555 1_555
H3 C26 1_555 1_555
C27 C22 1_555 1_555
H4 C27 1_555 1_555
C28 C14 1_555 1_555
C29 C28 1_555 1_555
H5 C29 1_555 1_555
C30 C12 1_555 1_555
H6 C30 1_555 1_555
C31 C3 1_555 1_555
C32 C31 1_555 1_555
H7 C32 1_555 1_555
C33 C32 1_555 1_555
C34 C33 1_555 1_555
C35 C36 1_555 1_555
C36 C37 1_555 1_555
C37 C33 1_555 1_555
C38 C37 1_555 1_555
C39 C31 1_555 1_555
C40 C39 1_555 1_555
C41 C4 1_555 1_555
C42 C41 1_555 1_555
H8 C42 1_555 1_555
C43 C42 1_555 1_555
C44 C43 1_555 1_555
C45 C46 1_555 1_555
C46 C47 1_555 1_555
C47 C43 1_555 1_555
C48 C40 1_555 1_555
C49 C48 1_555 1_555
C50 C49 1_555 1_555
H9 C50 1_555 1_555
C51 C46 1_555 1_555
H10 C51 1_555 1_555
C52 C38 1_555 1_555
C53 C52 1_555 1_555
H11 C53 1_555 1_555
C54 C36 1_555 1_555
H12 C54 1_555 1_555
C55 C5 1_555 1_555
C56 C55 1_555 1_555
H13 C56 1_555 1_555
C57 C56 1_555 1_555
C58 C57 1_555 1_555
C59 C60 1_555 1_555
C60 C61 1_555 1_555
C61 C57 1_555 1_555
C62 C61 1_555 1_555
C63 C55 1_555 1_555
C64 C63 1_555 1_555
C65 C6 1_555 1_555
C66 C65 1_555 1_555
H14 C66 1_555 1_555
C67 C66 1_555 1_555
C68 C67 1_555 1_555
C69 C70 1_555 1_555
C70 C71 1_555 1_555
C71 C67 1_555 1_555
C72 C64 1_555 1_555
C73 C72 1_555 1_555
C74 C73 1_555 1_555
H15 C74 1_555 1_555
C75 C70 1_555 1_555
H16 C75 1_555 1_555
C76 C62 1_555 1_555
C77 C76 1_555 1_555
H17 C77 1_555 1_555
C78 C60 1_555 1_555
H18 C78 1_555 1_555
N1 C10 1_555 1_555
N2 C20 1_555 1_555
N3 C34 1_555 1_555
N4 C44 1_555 1_555
N5 C58 1_555 1_555
N6 C68 1_555 1_555
O1 C10 1_555 1_555
O2 C11 1_555 1_555
O3 C20 1_555 1_555
O4 C21 1_555 1_555
O5 C34 1_555 1_555
O6 C35 1_555 1_555
O7 C44 1_555 1_555
O8 C45 1_555 1_555
O9 C58 1_555 1_555
O10 C59 1_555 1_555
O11 C68 1_555 1_555
O12 C69 1_555 1_555
F1 C84 1_555 1_555
F2 C84 1_555 1_555
F3 C89 1_555 1_555
C79 N4 1_555 1_555
H19 C79 1_555 1_555
H20 C79 1_555 1_555
C80 N1 1_555 1_555
H21 C80 1_555 1_555
H22 C80 1_555 1_555
C81 N6 1_555 1_555
H23 C81 1_555 1_555
H24 C81 1_555 1_555
C82 N5 1_555 1_555
H25 C82 1_555 1_555
H26 C82 1_555 1_555
C83 N3 1_555 1_555
H27 C83 1_555 1_555
H28 C83 1_555 1_555
C84 C80 1_555 1_555
F4 C89 1_555 1_555
C85 F11 1_555 1_555
C86 N2 1_555 1_555
H29 C86 1_555 1_555
H30 C86 1_555 1_555
F5 C92 1_555 1_555
C87 C81 1_555 1_555
F6 C92 1_555 1_555
C88 F7 1_555 1_555
F8 C88 1_555 1_555
F9 C88 1_555 1_555
F10 C96 1_555 1_555
C89 C85 1_555 1_555
C90 C84 1_555 1_555
C91 C90 1_555 1_555
F12 C91 1_555 1_555
F13 C91 1_555 1_555
F14 C91 1_555 1_555
C92 C82 1_555 1_555
C93 C92 1_555 1_555
C94 C93 1_555 1_555
F15 C94 1_555 1_555
F16 C94 1_555 1_555
F17 C94 1_555 1_555
F18 C93 1_555 1_555
F19 C93 1_555 1_555
F20 C87 1_555 1_555
F21 C90 1_555 1_555
F22 C85 1_555 1_555
F23 C90 1_555 1_555
F24 C87 1_555 1_555
F25 C95 1_555 1_555
F26 C95 1_555 1_555
F27 C95 1_555 1_555
C95 C85 1_555 1_555
C96 C87 1_555 1_555
F28 C96 1_555 1_555
F29 C97 1_555 1_555
F30 C97 1_555 1_555
C97 C79 1_555 1_555
C98 C97 1_555 1_555
C99 C98 1_555 1_555
F31 C99 1_555 1_555
F32 C99 1_555 1_555
F33 C99 1_555 1_555
F34 C98 1_555 1_555
F35 C98 1_555 1_555
C100 C83 1_555 1_555
F36 C100 1_555 1_555
C101 C100 1_555 1_555
C102 C101 1_555 1_555
F37 C102 1_555 1_555
F38 C102 1_555 1_555
F39 C102 1_555 1_555
F40 C101 1_555 1_555
F41 C101 1_555 1_555
F42 C100 1_555 1_555
C11 N1 1_555 1_555
C14 C15 1_555 1_555
C16 C17 1_555 1_555
C21 N2 1_555 1_555
C23 C24 1_555 1_555
C25 C28 1_555 1_555
C26 C27 1_555 1_555
C29 C30 1_555 1_555
C35 N3 1_555 1_555
C38 C39 1_555 1_555
C40 C41 1_555 1_555
C45 N4 1_555 1_555
C47 C48 1_555 1_555
C49 C52 1_555 1_555
C50 C51 1_555 1_555
C53 C54 1_555 1_555
C59 N5 1_555 1_555
C62 C63 1_555 1_555
C64 C65 1_555 1_555
C69 N6 1_555 1_555
C71 C72 1_555 1_555
C73 C76 1_555 1_555
C74 C75 1_555 1_555
C77 C78 1_555 1_555
C86 C89 1_555 1_555
C88 C96 1_555 1_555

#END
