
#######################################################################
#
#                 Cambridge Crystallographic Data Centre
#                                CCDC 
#
#######################################################################
#
# If this CIF has been generated from an entry in the Cambridge 
# Structural Database, then it will include bibliographic, chemical, 
# crystal, experimental, refinement or atomic coordinate data resulting 
# from the CCDC's data processing and validation procedures.
#
#######################################################################

data_OVUDEP
_chemical_formula_moiety         'C27 H53 N2 1+,C27 H53 N2 1+,2(I1 1-)'
_chemical_name_systematic        
'bis(1,3-Didodecyl-1H-imidazol-3-ium) bis(iodide)'
_symmetry_cell_setting           triclinic
_symmetry_space_group_name_H-M   'P -1'
_symmetry_Int_Tables_number      2
_space_group_name_Hall           '-P 1'
loop_
_symmetry_equiv_pos_site_id
_symmetry_equiv_pos_as_xyz
1 x,y,z
2 -x,-y,-z
_cell_length_a                   8.5027(8)
_cell_length_b                   8.6975(8)
_cell_length_c                   40.9499(11)
_cell_angle_alpha                93.251(5)
_cell_angle_beta                 94.148(5)
_cell_angle_gamma                99.009(8)
_cell_volume                     2976.02
_exptl_crystal_colour            colorless
_exptl_crystal_description       block
_cell_formula_units_Z            2
loop_
_atom_site_label
_atom_site_type_symbol
_atom_site_fract_x
_atom_site_fract_y
_atom_site_fract_z
I1 I 0.590087(15) 0.426356(14) 0.787200(3)
I2 I 0.889797(16) 0.757628(15) 0.702449(4)
N1 N 0.54071(17) 0.89311(17) 0.76551(4)
N2 N 0.40577(17) 0.79892(16) 0.72011(3)
C1 C 0.5205(2) 0.7763(2) 0.74241(4)
H1 H 0.5780 0.6911 0.7419
C2 C 0.3522(2) 0.9354(2) 0.72934(5)
H2 H 0.2711 0.9798 0.7179
C3 C 0.4367(2) 0.9939(2) 0.75767(5)
H3 H 0.4262 1.0873 0.7699
C4 C 0.6542(2) 0.9075(2) 0.79489(5)
H4 H 0.7128 1.0157 0.7980
H5 H 0.7331 0.8368 0.7916
C5 C 0.5700(2) 0.8675(2) 0.82556(4)
H6 H 0.5075 0.7611 0.8221
H7 H 0.4947 0.9413 0.8295
C6 C 0.6885(2) 0.8756(2) 0.85552(5)
H8 H 0.7546 0.9805 0.8581
H9 H 0.7607 0.7984 0.8519
C7 C 0.6074(2) 0.8436(2) 0.88706(5)
H10 H 0.5253 0.9118 0.8892
H11 H 0.5525 0.7340 0.8855
C8 C 0.7241(2) 0.8712(2) 0.91768(4)
H12 H 0.8044 0.8009 0.9157
H13 H 0.7814 0.9799 0.9187
C9 C 0.6459(2) 0.8446(2) 0.94964(4)
H14 H 0.5932 0.7345 0.9492
H15 H 0.5625 0.9115 0.9514
C10 C 0.7650(2) 0.8803(2) 0.97983(4)
H16 H 0.8484 0.8132 0.9779
H17 H 0.8181 0.9901 0.9800
C11 C 0.6913(2) 0.8555(2) 1.01235(4)
H18 H 0.6079 0.9224 1.0143
H19 H 0.6387 0.7455 1.0123
C12 C 0.8123(2) 0.8924(2) 1.04210(4)
H20 H 0.8644 1.0026 1.0421
H21 H 0.8961 0.8261 1.0399
C13 C 0.7416(2) 0.8674(2) 1.07487(5)
H22 H 0.6590 0.9350 1.0773
H23 H 0.6885 0.7577 1.0748
C14 C 0.8652(2) 0.9030(2) 1.10420(5)
H24 H 0.9186 1.0126 1.1042
H25 H 0.9475 0.8352 1.1018
C15 C 0.7948(3) 0.8788(3) 1.13700(5)
H26 H 0.8797 0.9055 1.1548
H27 H 0.7458 0.7693 1.1377
H28 H 0.7135 0.9458 1.1396
C16 C 0.3498(2) 0.7001(2) 0.68978(4)
H29 H 0.4251 0.7271 0.6729
H30 H 0.2441 0.7228 0.6816
C17 C 0.3361(2) 0.5280(2) 0.69463(4)
H31 H 0.2675 0.5014 0.7127
H32 H 0.4432 0.5024 0.7008
C18 C 0.2650(2) 0.4327(2) 0.66334(4)
H33 H 0.3288 0.4673 0.6450
H34 H 0.1551 0.4538 0.6582
C19 C 0.2593(2) 0.2578(2) 0.66536(4)
H35 H 0.1865 0.2208 0.6821
H36 H 0.3672 0.2370 0.6725
C20 C 0.2019(2) 0.1666(2) 0.63246(4)
H37 H 0.0945 0.1890 0.6253
H38 H 0.2750 0.2042 0.6158
C21 C 0.1934(2) -0.0093(2) 0.63343(4)
H39 H 0.1161 -0.0481 0.6492
H40 H 0.2995 -0.0319 0.6415
C22 C 0.1434(2) -0.0969(2) 0.60006(4)
H41 H 0.0355 -0.0776 0.5924
H42 H 0.2182 -0.0552 0.5841
C23 C 0.1409(2) -0.2723(2) 0.60066(4)
H43 H 0.0646 -0.3143 0.6164
H44 H 0.2482 -0.2915 0.6087
C24 C 0.0939(2) -0.3606(2) 0.56720(4)
H45 H -0.0152 -0.3450 0.5595
H46 H 0.1678 -0.3163 0.5513
C25 C 0.0978(2) -0.5352(2) 0.56789(4)
H47 H 0.2064 -0.5505 0.5760
H48 H 0.0227 -0.5795 0.5836
C26 C 0.0538(2) -0.6241(2) 0.53454(5)
H49 H -0.0517 -0.6031 0.5257
H50 H 0.1333 -0.5848 0.5192
C27 C 0.0471(3) -0.7991(2) 0.53587(6)
H51 H 0.0161 -0.8501 0.5139
H52 H -0.0315 -0.8389 0.5510
H53 H 0.1525 -0.8211 0.5436
N3 N 0.90477(17) 0.25235(17) 0.73875(4)
N4 N 1.07715(17) 0.43415(17) 0.76504(3)
C28 C 0.9427(2) 0.4057(2) 0.74555(4)
H54 H 0.8834 0.4821 0.7378
C29 C 1.1258(2) 0.2940(2) 0.77127(5)
H55 H 1.2177 0.2798 0.7847
C30 C 1.0181(2) 0.1808(2) 0.75468(5)
H56 H 1.0203 0.0718 0.7541
C31 C 0.7694(2) 0.1770(2) 0.71602(5)
H57 H 0.6793 0.2360 0.7176
H58 H 0.7335 0.0698 0.7224
C32 C 0.8152(2) 0.1703(2) 0.68095(4)
H59 H 0.9104 0.1183 0.6797
H60 H 0.8436 0.2778 0.6741
C33 C 0.6789(2) 0.0817(2) 0.65759(5)
H61 H 0.6352 -0.0167 0.6671
H62 H 0.5922 0.1452 0.6553
C34 C 0.7327(2) 0.0443(3) 0.62395(5)
H63 H 0.8187 -0.0199 0.6263
H64 H 0.7778 0.1428 0.6147
C35 C 0.5981(2) -0.0427(3) 0.60003(5)
H65 H 0.5502 -0.1391 0.6097
H66 H 0.5140 0.0233 0.5971
C36 C 0.6515(2) -0.0863(3) 0.56669(5)
H67 H 0.7350 -0.1530 0.5696
H68 H 0.7000 0.0099 0.5570
C37 C 0.5166(2) -0.1721(3) 0.54286(5)
H69 H 0.4322 -0.1061 0.5403
H70 H 0.4695 -0.2691 0.5524
C38 C 0.5679(2) -0.2138(3) 0.50910(5)
H71 H 0.6515 -0.2808 0.5115
H72 H 0.6154 -0.1171 0.4995
C39 C 0.4305(2) -0.2985(3) 0.48571(5)
H73 H 0.3475 -0.2309 0.4833
H74 H 0.3824 -0.3944 0.4955
C40 C 0.4787(2) -0.3432(3) 0.45180(5)
H75 H 0.5269 -0.2475 0.4419
H76 H 0.5612 -0.4114 0.4541
C41 C 0.3396(3) -0.4271(3) 0.42882(5)
H77 H 0.2576 -0.3583 0.4264
H78 H 0.2908 -0.5219 0.4389
C42 C 0.3856(3) -0.4741(3) 0.39489(6)
H79 H 0.2907 -0.5284 0.3816
H80 H 0.4656 -0.5435 0.3970
H81 H 0.4302 -0.3806 0.3843
C43 C 1.1587(2) 0.5919(2) 0.77690(4)
H82 H 1.1404 0.6656 0.7600
H83 H 1.2751 0.5911 0.7800
C44 C 1.1011(2) 0.6494(2) 0.80910(4)
H84 H 0.9835 0.6431 0.8064
H85 H 1.1482 0.7605 0.8140
C45 C 1.1438(2) 0.5575(2) 0.83817(4)
H86 H 1.2561 0.5405 0.8377
H87 H 1.0748 0.4540 0.8362
C46 C 1.1233(2) 0.6419(2) 0.87092(4)
H88 H 1.1895 0.7468 0.8724
H89 H 1.0103 0.6561 0.8715
C47 C 1.1699(2) 0.5560(2) 0.90060(4)
H90 H 1.2783 0.5302 0.8986
H91 H 1.0949 0.4567 0.9007
C48 C 1.1682(2) 0.6506(2) 0.93309(4)
H92 H 1.2434 0.7497 0.9330
H93 H 1.0599 0.6768 0.9350
C49 C 1.2139(2) 0.5656(2) 0.96291(4)
H94 H 1.3206 0.5361 0.9607
H95 H 1.1364 0.4683 0.9634
C50 C 1.2178(2) 0.6625(2) 0.99530(4)
H96 H 1.2957 0.7596 0.9948
H97 H 1.1113 0.6925 0.9975
C51 C 1.2628(2) 0.5773(2) 1.02521(4)
H98 H 1.1852 0.4800 1.0256
H99 H 1.3695 0.5476 1.0231
C52 C 1.2662(2) 0.6733(2) 1.05751(4)
H100 H 1.1597 0.7035 1.0596
H101 H 1.3443 0.7702 1.0571
C53 C 1.3102(3) 0.5884(2) 1.08747(5)
H102 H 1.4177 0.5600 1.0857
H103 H 1.2332 0.4906 1.0878
C54 C 1.3101(4) 0.6859(3) 1.11953(6)
H104 H 1.3433 0.6278 1.1379
H105 H 1.2023 0.7089 1.1221
H106 H 1.3846 0.7839 1.1192
loop_
_geom_bond_atom_site_label_1
_geom_bond_atom_site_label_2
_geom_bond_site_symmetry_1
_geom_bond_site_symmetry_2
N1 C1 1_555 1_555
N2 C1 1_555 1_555
C1 H1 1_555 1_555
C2 N2 1_555 1_555
H2 C2 1_555 1_555
C3 N1 1_555 1_555
H3 C3 1_555 1_555
C4 N1 1_555 1_555
H4 C4 1_555 1_555
H5 C4 1_555 1_555
C5 C4 1_555 1_555
H6 C5 1_555 1_555
H7 C5 1_555 1_555
C6 C5 1_555 1_555
H8 C6 1_555 1_555
H9 C6 1_555 1_555
C7 C6 1_555 1_555
H10 C7 1_555 1_555
H11 C7 1_555 1_555
C8 C7 1_555 1_555
H12 C8 1_555 1_555
H13 C8 1_555 1_555
C9 C8 1_555 1_555
H14 C9 1_555 1_555
H15 C9 1_555 1_555
C10 C9 1_555 1_555
H16 C10 1_555 1_555
H17 C10 1_555 1_555
C11 C10 1_555 1_555
H18 C11 1_555 1_555
H19 C11 1_555 1_555
C12 C11 1_555 1_555
H20 C12 1_555 1_555
H21 C12 1_555 1_555
C13 C12 1_555 1_555
H22 C13 1_555 1_555
H23 C13 1_555 1_555
C14 C13 1_555 1_555
H24 C14 1_555 1_555
H25 C14 1_555 1_555
C15 C14 1_555 1_555
H26 C15 1_555 1_555
H27 C15 1_555 1_555
H28 C15 1_555 1_555
C16 N2 1_555 1_555
H29 C16 1_555 1_555
H30 C16 1_555 1_555
C17 C16 1_555 1_555
H31 C17 1_555 1_555
H32 C17 1_555 1_555
C18 C17 1_555 1_555
H33 C18 1_555 1_555
H34 C18 1_555 1_555
C19 C18 1_555 1_555
H35 C19 1_555 1_555
H36 C19 1_555 1_555
C20 C19 1_555 1_555
H37 C20 1_555 1_555
H38 C20 1_555 1_555
C21 C20 1_555 1_555
H39 C21 1_555 1_555
H40 C21 1_555 1_555
C22 C21 1_555 1_555
H41 C22 1_555 1_555
H42 C22 1_555 1_555
C23 C22 1_555 1_555
H43 C23 1_555 1_555
H44 C23 1_555 1_555
C24 C23 1_555 1_555
H45 C24 1_555 1_555
H46 C24 1_555 1_555
C25 C24 1_555 1_555
H47 C25 1_555 1_555
H48 C25 1_555 1_555
C26 C25 1_555 1_555
H49 C26 1_555 1_555
H50 C26 1_555 1_555
C27 C26 1_555 1_555
H51 C27 1_555 1_555
H52 C27 1_555 1_555
H53 C27 1_555 1_555
N3 C28 1_555 1_555
N4 C28 1_555 1_555
C28 H54 1_555 1_555
C29 N4 1_555 1_555
H55 C29 1_555 1_555
C30 N3 1_555 1_555
H56 C30 1_555 1_555
C31 N3 1_555 1_555
H57 C31 1_555 1_555
H58 C31 1_555 1_555
C32 C31 1_555 1_555
H59 C32 1_555 1_555
H60 C32 1_555 1_555
C33 C32 1_555 1_555
H61 C33 1_555 1_555
H62 C33 1_555 1_555
C34 C33 1_555 1_555
H63 C34 1_555 1_555
H64 C34 1_555 1_555
C35 C34 1_555 1_555
H65 C35 1_555 1_555
H66 C35 1_555 1_555
C36 C35 1_555 1_555
H67 C36 1_555 1_555
H68 C36 1_555 1_555
C37 C36 1_555 1_555
H69 C37 1_555 1_555
H70 C37 1_555 1_555
C38 C37 1_555 1_555
H71 C38 1_555 1_555
H72 C38 1_555 1_555
C39 C38 1_555 1_555
H73 C39 1_555 1_555
H74 C39 1_555 1_555
C40 C39 1_555 1_555
H75 C40 1_555 1_555
H76 C40 1_555 1_555
C41 C40 1_555 1_555
H77 C41 1_555 1_555
H78 C41 1_555 1_555
C42 C41 1_555 1_555
H79 C42 1_555 1_555
H80 C42 1_555 1_555
H81 C42 1_555 1_555
C43 N4 1_555 1_555
H82 C43 1_555 1_555
H83 C43 1_555 1_555
C44 C43 1_555 1_555
H84 C44 1_555 1_555
H85 C44 1_555 1_555
C45 C44 1_555 1_555
H86 C45 1_555 1_555
H87 C45 1_555 1_555
C46 C45 1_555 1_555
H88 C46 1_555 1_555
H89 C46 1_555 1_555
C47 C46 1_555 1_555
H90 C47 1_555 1_555
H91 C47 1_555 1_555
C48 C47 1_555 1_555
H92 C48 1_555 1_555
H93 C48 1_555 1_555
C49 C48 1_555 1_555
H94 C49 1_555 1_555
H95 C49 1_555 1_555
C50 C49 1_555 1_555
H96 C50 1_555 1_555
H97 C50 1_555 1_555
C51 C50 1_555 1_555
H98 C51 1_555 1_555
H99 C51 1_555 1_555
C52 C51 1_555 1_555
H100 C52 1_555 1_555
H101 C52 1_555 1_555
C53 C52 1_555 1_555
H102 C53 1_555 1_555
H103 C53 1_555 1_555
C54 C53 1_555 1_555
H104 C54 1_555 1_555
H105 C54 1_555 1_555
H106 C54 1_555 1_555
C2 C3 1_555 1_555
C29 C30 1_555 1_555

#END
