
#######################################################################
#
#                 Cambridge Crystallographic Data Centre
#                                CCDC 
#
#######################################################################
#
# If this CIF has been generated from an entry in the Cambridge 
# Structural Database, then it will include bibliographic, chemical, 
# crystal, experimental, refinement or atomic coordinate data resulting 
# from the CCDC's data processing and validation procedures.
#
#######################################################################

data_OVUVOS
_chemical_formula_moiety         'C69 H33 N9 O6'
_chemical_name_systematic        
'8,14,28,34,45,51-hexaoxa-58,64,70-triazatridecacyclo[19.19.15.2^4,7^.2^15,18^.2^24,27^.2^35,38^.2^41,44^.2^52,55^.1^3,39^.1^9,13^.1^19,23^.1^29,33^.1^46,50^]doheptaconta-1,3(61),4,6,9(70),10,12,15,17,19(67),20,22,24,26,29(64),30,32,35,37,39,41,43,46(58),47,49,52,54,56,59,62,65,68,71-tritriacontaene-10,12,30,32,47,49-hexacarbonitrile unknown solvate'
_symmetry_cell_setting           monoclinic
_symmetry_space_group_name_H-M   'P 21/n'
_symmetry_Int_Tables_number      14
_space_group_name_Hall           '-P 2yn'
loop_
_symmetry_equiv_pos_site_id
_symmetry_equiv_pos_as_xyz
1 x,y,z
2 1/2-x,1/2+y,1/2-z
3 -x,-y,-z
4 1/2+x,1/2-y,1/2+z
_cell_length_a                   14.669(2)
_cell_length_b                   32.397(5)
_cell_length_c                   19.484(3)
_cell_angle_alpha                90
_cell_angle_beta                 111.648(3)
_cell_angle_gamma                90
_cell_volume                     8606.33
_exptl_crystal_colour            colorless
_exptl_crystal_description       block
_cell_formula_units_Z            4
loop_
_atom_site_label
_atom_site_type_symbol
_atom_site_fract_x
_atom_site_fract_y
_atom_site_fract_z
O1 O 0.7761(2) 0.81615(11) 0.01475(18)
O2 O 0.4667(3) 0.87109(10) -0.06290(19)
O3 O 0.2670(2) 0.82389(10) 0.48733(19)
O4 O 0.5791(2) 0.87736(10) 0.56131(19)
O5 O 0.3948(3) 0.51976(10) 0.1517(3)
O6 O 0.6591(4) 0.52113(11) 0.3750(2)
N1 N 0.6233(3) 0.84370(11) -0.0238(2)
N2 N 0.9040(4) 0.85663(18) -0.0908(3)
N3 N 0.4298(4) 0.93925(17) -0.2076(3)
N4 N 0.4239(3) 0.85076(12) 0.5239(2)
N5 N 0.6157(4) 0.94691(16) 0.7075(3)
N6 N 0.1431(4) 0.8676(2) 0.5933(3)
N7 N 0.5274(4) 0.52002(14) 0.2644(3)
N8 N 0.3300(6) 0.41880(18) 0.0982(5)
N9 N 0.7179(13) 0.4211(2) 0.4399(5)
C1 C 0.7081(3) 0.84148(14) -0.0307(3)
C2 C 0.7295(4) 0.86402(15) -0.0858(3)
C3 C 0.6603(4) 0.89000(15) -0.1304(3)
H1 H 0.6736 0.9055 -0.1658
C4 C 0.5704(4) 0.89346(14) -0.1235(2)
C5 C 0.5549(3) 0.86909(14) -0.0688(2)
C6 C 0.8294(4) 0.86049(17) -0.0880(3)
C7 C 0.4935(5) 0.91835(18) -0.1704(3)
C8 C 0.4502(3) 0.84486(14) -0.0112(2)
C9 C 0.4782(4) 0.85708(15) 0.0621(3)
H2 H 0.5058 0.8830 0.0769
C10 C 0.4649(4) 0.83081(15) 0.1118(3)
H3 H 0.4859 0.8384 0.1613
C11 C 0.4190(3) 0.79155(13) 0.0892(2)
C12 C 0.3924(3) 0.78035(15) 0.0165(3)
H4 H 0.3633 0.7548 0.0009
C13 C 0.4084(4) 0.80680(15) -0.0343(3)
H5 H 0.3910 0.7988 -0.0834
C14 C 0.4021(3) 0.76367(13) 0.1457(2)
C15 C 0.4054(3) 0.72033(13) 0.1381(2)
H6 H 0.4199 0.7095 0.0991
C16 C 0.3878(3) 0.69392(13) 0.1863(2)
C17 C 0.3627(3) 0.71132(14) 0.2449(2)
H7 H 0.3486 0.6939 0.2776
C18 C 0.3594(3) 0.75296(13) 0.2533(2)
C19 C 0.3792(3) 0.77899(14) 0.2033(2)
H8 H 0.3768 0.8074 0.2091
C20 C 0.3366(3) 0.77070(13) 0.3159(2)
C21 C 0.2807(4) 0.80749(16) 0.3051(3)
H9 H 0.2591 0.8203 0.2592
C22 C 0.2580(4) 0.82447(16) 0.3614(3)
H10 H 0.2210 0.8485 0.3541
C23 C 0.2914(3) 0.80490(15) 0.4286(3)
C24 C 0.3429(4) 0.76900(15) 0.4408(3)
H11 H 0.3624 0.7559 0.4865
C25 C 0.3652(4) 0.75264(14) 0.3847(3)
H12 H 0.4011 0.7283 0.3930
C26 C 0.3365(3) 0.84998(15) 0.5316(3)
C27 C 0.3126(4) 0.87358(17) 0.5821(3)
C28 C 0.3843(4) 0.89933(18) 0.6266(3)
H13 H 0.3715 0.9153 0.6618
C29 C 0.4767(4) 0.90226(17) 0.6205(3)
C30 C 0.4913(3) 0.87650(15) 0.5684(3)
C31 C 0.2194(4) 0.8711(2) 0.5871(4)
C32 C 0.5525(4) 0.92730(17) 0.6690(3)
C33 C 0.5942(3) 0.84841(15) 0.5118(3)
C34 C 0.6435(3) 0.81238(17) 0.5394(3)
H14 H 0.6649 0.8064 0.5896
C35 C 0.6607(3) 0.78461(15) 0.4893(3)
H15 H 0.6940 0.7601 0.5067
C36 C 0.6281(3) 0.79373(14) 0.4143(3)
C37 C 0.5801(4) 0.83044(14) 0.3891(3)
H16 H 0.5605 0.8371 0.3393
C38 C 0.5605(4) 0.85771(15) 0.4374(3)
H17 H 0.5253 0.8818 0.4197
C39 C 0.6474(3) 0.76436(14) 0.3617(2)
C40 C 0.6446(3) 0.72163(14) 0.3729(3)
H18 H 0.6301 0.7118 0.4126
C41 C 0.6638(3) 0.69335(14) 0.3245(2)
C42 C 0.6874(3) 0.70875(14) 0.2668(3)
H19 H 0.7028 0.6904 0.2360
C43 C 0.6886(3) 0.75091(15) 0.2537(3)
C44 C 0.6691(3) 0.77777(14) 0.3031(2)
H20 H 0.6710 0.8060 0.2956
C45 C 0.7127(3) 0.76788(14) 0.1906(3)
C46 C 0.7699(4) 0.80285(15) 0.1998(3)
H21 H 0.7960 0.8154 0.2459
C47 C 0.7890(4) 0.81981(16) 0.1391(3)
H22 H 0.8242 0.8442 0.1439
C48 C 0.7536(4) 0.79888(15) 0.0732(3)
C49 C 0.7013(4) 0.76337(15) 0.0636(3)
H23 H 0.6792 0.7499 0.0182
C50 C 0.6814(4) 0.74746(14) 0.1228(3)
H24 H 0.6468 0.7229 0.1172
C51 C 0.6620(4) 0.64812(15) 0.3373(3)
C52 C 0.5959(4) 0.63168(14) 0.3629(3)
H25 H 0.5517 0.6492 0.3723
C53 C 0.5911(5) 0.58913(16) 0.3758(3)
H26 H 0.5446 0.5783 0.3928
C54 C 0.6590(5) 0.56422(15) 0.3618(3)
C55 C 0.7279(4) 0.58037(17) 0.3376(3)
H27 H 0.7734 0.5630 0.3295
C56 C 0.7306(4) 0.62151(16) 0.3253(3)
H28 H 0.7778 0.6322 0.3088
C57 C 0.5906(6) 0.49986(16) 0.3200(4)
C58 C 0.5929(7) 0.45655(18) 0.3252(4)
C59 C 0.5261(8) 0.4342(2) 0.2688(4)
H29 H 0.5266 0.4055 0.2699
C60 C 0.4603(6) 0.45473(18) 0.2123(4)
C61 C 0.4624(5) 0.49885(15) 0.2117(4)
C62 C 0.6590(11) 0.4367(2) 0.3873(5)
C63 C 0.3794(7) 0.43526(19) 0.1468(5)
C64 C 0.3952(4) 0.56390(14) 0.1628(3)
C65 C 0.3269(4) 0.57992(14) 0.1850(3)
H30 H 0.2843 0.5625 0.1967
C66 C 0.3189(4) 0.62297(14) 0.1907(3)
H31 H 0.2686 0.6344 0.2029
C67 C 0.3896(3) 0.64860(13) 0.1776(2)
C68 C 0.4614(4) 0.63014(14) 0.1570(3)
H32 H 0.5083 0.6466 0.1488
C69 C 0.4643(4) 0.58743(14) 0.1485(3)
H33 H 0.5114 0.5753 0.1336
loop_
_geom_bond_atom_site_label_1
_geom_bond_atom_site_label_2
_geom_bond_site_symmetry_1
_geom_bond_site_symmetry_2
O1 C1 1_555 1_555
O2 C5 1_555 1_555
O3 C23 1_555 1_555
O4 C30 1_555 1_555
O5 C61 1_555 1_555
O6 C54 1_555 1_555
N1 C1 1_555 1_555
N2 C6 1_555 1_555
N3 C7 1_555 1_555
N4 C26 1_555 1_555
N5 C32 1_555 1_555
N6 C31 1_555 1_555
N7 C57 1_555 1_555
N8 C63 1_555 1_555
N9 C62 1_555 1_555
C1 C2 1_555 1_555
C2 C3 1_555 1_555
C3 H1 1_555 1_555
C4 C3 1_555 1_555
C5 N1 1_555 1_555
C6 C2 1_555 1_555
C7 C4 1_555 1_555
C8 O2 1_555 1_555
C9 C8 1_555 1_555
H2 C9 1_555 1_555
C10 C9 1_555 1_555
H3 C10 1_555 1_555
C11 C10 1_555 1_555
C12 C11 1_555 1_555
H4 C12 1_555 1_555
C13 C8 1_555 1_555
H5 C13 1_555 1_555
C14 C11 1_555 1_555
C15 C14 1_555 1_555
H6 C15 1_555 1_555
C16 C15 1_555 1_555
C17 C16 1_555 1_555
H7 C17 1_555 1_555
C18 C17 1_555 1_555
C19 C14 1_555 1_555
H8 C19 1_555 1_555
C20 C18 1_555 1_555
C21 C20 1_555 1_555
H9 C21 1_555 1_555
C22 C21 1_555 1_555
H10 C22 1_555 1_555
C23 C22 1_555 1_555
C24 C23 1_555 1_555
H11 C24 1_555 1_555
C25 C20 1_555 1_555
H12 C25 1_555 1_555
C26 O3 1_555 1_555
C27 C26 1_555 1_555
C28 C27 1_555 1_555
H13 C28 1_555 1_555
C29 C28 1_555 1_555
C30 N4 1_555 1_555
C31 C27 1_555 1_555
C32 C29 1_555 1_555
C33 O4 1_555 1_555
C34 C33 1_555 1_555
H14 C34 1_555 1_555
C35 C34 1_555 1_555
H15 C35 1_555 1_555
C36 C35 1_555 1_555
C37 C36 1_555 1_555
H16 C37 1_555 1_555
C38 C33 1_555 1_555
H17 C38 1_555 1_555
C39 C36 1_555 1_555
C40 C39 1_555 1_555
H18 C40 1_555 1_555
C41 C40 1_555 1_555
C42 C41 1_555 1_555
H19 C42 1_555 1_555
C43 C42 1_555 1_555
C44 C39 1_555 1_555
H20 C44 1_555 1_555
C45 C43 1_555 1_555
C46 C45 1_555 1_555
H21 C46 1_555 1_555
C47 C46 1_555 1_555
H22 C47 1_555 1_555
C48 O1 1_555 1_555
C49 C48 1_555 1_555
H23 C49 1_555 1_555
C50 C45 1_555 1_555
H24 C50 1_555 1_555
C51 C41 1_555 1_555
C52 C51 1_555 1_555
H25 C52 1_555 1_555
C53 C52 1_555 1_555
H26 C53 1_555 1_555
C54 C53 1_555 1_555
C55 C54 1_555 1_555
H27 C55 1_555 1_555
C56 C51 1_555 1_555
H28 C56 1_555 1_555
C57 O6 1_555 1_555
C58 C57 1_555 1_555
C59 C58 1_555 1_555
H29 C59 1_555 1_555
C60 C59 1_555 1_555
C61 N7 1_555 1_555
C62 C58 1_555 1_555
C63 C60 1_555 1_555
C64 O5 1_555 1_555
C65 C64 1_555 1_555
H30 C65 1_555 1_555
C66 C65 1_555 1_555
H31 C66 1_555 1_555
C67 C16 1_555 1_555
C68 C67 1_555 1_555
H32 C68 1_555 1_555
C69 C64 1_555 1_555
H33 C69 1_555 1_555
C4 C5 1_555 1_555
C12 C13 1_555 1_555
C18 C19 1_555 1_555
C24 C25 1_555 1_555
C29 C30 1_555 1_555
C37 C38 1_555 1_555
C43 C44 1_555 1_555
C47 C48 1_555 1_555
C49 C50 1_555 1_555
C55 C56 1_555 1_555
C60 C61 1_555 1_555
C66 C67 1_555 1_555
C68 C69 1_555 1_555

#END
