
#######################################################################
#
#                 Cambridge Crystallographic Data Centre
#                                CCDC 
#
#######################################################################
#
# If this CIF has been generated from an entry in the Cambridge 
# Structural Database, then it will include bibliographic, chemical, 
# crystal, experimental, refinement or atomic coordinate data resulting 
# from the CCDC's data processing and validation procedures.
#
#######################################################################

data_OVUWEJ
_chemical_formula_moiety         'C15 H19 Cl2 N1 O2'
_chemical_name_systematic        
8,9-dichloro-14-methyl-6-azatetracyclo[7.6.0.0^1,6^.0^2,12^]pentadecane-5,10-dione
_symmetry_cell_setting           hexagonal
_symmetry_space_group_name_H-M   'P 61'
_symmetry_Int_Tables_number      169
_space_group_name_Hall           'P 61'
loop_
_symmetry_equiv_pos_site_id
_symmetry_equiv_pos_as_xyz
1 x,y,z
2 x-y,x,1/6+z
3 -y,x-y,1/3+z
4 -x,-y,1/2+z
5 -x+y,-x,2/3+z
6 y,-x+y,5/6+z
_cell_length_a                   14.6129(6)
_cell_length_b                   14.6129(6)
_cell_length_c                   14.5834(6)
_cell_angle_alpha                90
_cell_angle_beta                 90
_cell_angle_gamma                120
_cell_volume                     2696.88
_exptl_crystal_colour            colorless
_exptl_crystal_description       block
_cell_formula_units_Z            6
loop_
_atom_site_label
_atom_site_type_symbol
_atom_site_fract_x
_atom_site_fract_y
_atom_site_fract_z
Cl1 Cl -0.33921(15) -0.45983(14) -0.36549(11)
Cl2 Cl -0.66883(13) -0.67043(13) -0.36639(11)
O1 O -0.2864(3) -0.5563(4) -0.5660(3)
O2 O -0.5298(6) -0.4316(4) -0.3139(3)
N1 N -0.4528(3) -0.5986(3) -0.5316(3)
C1 C -0.3573(4) -0.5345(4) -0.5701(3)
C2 C -0.3361(5) -0.4327(5) -0.6153(4)
H1 H -0.3525 -0.4453 -0.6802
H2 H -0.2617 -0.3808 -0.6095
C3 C -0.4019(6) -0.3883(5) -0.5727(5)
H3 H -0.3822 -0.3692 -0.5091
H4 H -0.3910 -0.3261 -0.6058
C4 C -0.5163(5) -0.4759(5) -0.5798(3)
H5 H -0.5280 -0.4968 -0.6445
C5 C -0.5409(4) -0.5757(4) -0.5260(3)
C6 C -0.4529(5) -0.6508(5) -0.4460(3)
H6 H -0.3877 -0.6520 -0.4382
H7 H -0.5122 -0.7224 -0.4433
C7 C -0.4634(5) -0.5803(4) -0.3756(4)
H8 H -0.4865 -0.6161 -0.3162
C8 C -0.5490(4) -0.5630(4) -0.4191(3)
C9 C -0.5577(6) -0.4669(5) -0.3895(4)
C10 C -0.6019(8) -0.4227(7) -0.4548(5)
H9 H -0.5646 -0.3466 -0.4468
H10 H -0.6751 -0.4487 -0.4383
C11 C -0.5983(7) -0.4455(7) -0.5556(5)
H11 H -0.5775 -0.3792 -0.5880
C12 C -0.6982(9) -0.5250(11) -0.5971(5)
H12 H -0.6910 -0.5189 -0.6632
H13 H -0.7530 -0.5095 -0.5798
C13 C -0.7357(5) -0.6451(8) -0.5687(5)
H14 H -0.7631 -0.6558 -0.5060
C14 C -0.6408(5) -0.6656(6) -0.5689(5)
H15 H -0.6607 -0.7303 -0.5355
H16 H -0.6256 -0.6758 -0.6316
C15 C -0.8224(7) -0.7277(14) -0.6291(8)
H17 H -0.7952 -0.7246 -0.6897
H18 H -0.8802 -0.7141 -0.6322
H19 H -0.8467 -0.7967 -0.6036
loop_
_geom_bond_atom_site_label_1
_geom_bond_atom_site_label_2
_geom_bond_site_symmetry_1
_geom_bond_site_symmetry_2
Cl1 C7 1_555 1_555
Cl2 C8 1_555 1_555
O1 C1 1_555 1_555
O2 C9 1_555 1_555
N1 C1 1_555 1_555
C1 C2 1_555 1_555
C2 H1 1_555 1_555
H2 C2 1_555 1_555
C3 C2 1_555 1_555
H3 C3 1_555 1_555
H4 C3 1_555 1_555
C4 C3 1_555 1_555
H5 C4 1_555 1_555
C5 N1 1_555 1_555
C6 N1 1_555 1_555
H6 C6 1_555 1_555
H7 C6 1_555 1_555
C7 C6 1_555 1_555
H8 C7 1_555 1_555
C8 C5 1_555 1_555
C9 C8 1_555 1_555
C10 C9 1_555 1_555
H9 C10 1_555 1_555
H10 C10 1_555 1_555
C11 C4 1_555 1_555
H11 C11 1_555 1_555
C12 C11 1_555 1_555
H12 C12 1_555 1_555
H13 C12 1_555 1_555
C13 C12 1_555 1_555
H14 C13 1_555 1_555
C14 C5 1_555 1_555
H15 C14 1_555 1_555
H16 C14 1_555 1_555
C15 C13 1_555 1_555
H17 C15 1_555 1_555
H18 C15 1_555 1_555
H19 C15 1_555 1_555
C4 C5 1_555 1_555
C7 C8 1_555 1_555
C10 C11 1_555 1_555
C13 C14 1_555 1_555

#END
