
#######################################################################
#
#                 Cambridge Crystallographic Data Centre
#                                CCDC 
#
#######################################################################
#
# If this CIF has been generated from an entry in the Cambridge 
# Structural Database, then it will include bibliographic, chemical, 
# crystal, experimental, refinement or atomic coordinate data resulting 
# from the CCDC's data processing and validation procedures.
#
#######################################################################

data_OVUWAF
_chemical_formula_moiety         'C17 H18 O1'
_chemical_name_systematic        
2-methyl-3b-phenyl-1,2,3a,3b,6,7-hexahydro-3H-cyclopenta[1,3]cyclopropa[1,2]benzen-3-one
_symmetry_cell_setting           monoclinic
_symmetry_space_group_name_H-M   'P 21/c'
_symmetry_Int_Tables_number      14
_space_group_name_Hall           '-P 2ybc'
loop_
_symmetry_equiv_pos_site_id
_symmetry_equiv_pos_as_xyz
1 x,y,z
2 -x,1/2+y,1/2-z
3 -x,-y,-z
4 x,1/2-y,1/2+z
_cell_length_a                   8.1119(4)
_cell_length_b                   15.0586(8)
_cell_length_c                   10.8705(5)
_cell_angle_alpha                90
_cell_angle_beta                 101.3449(19)
_cell_angle_gamma                90
_cell_volume                     1301.93
_exptl_crystal_colour            colorless
_exptl_crystal_description       block
_cell_formula_units_Z            4
loop_
_atom_site_label
_atom_site_type_symbol
_atom_site_fract_x
_atom_site_fract_y
_atom_site_fract_z
C1 C 0.65460(13) 0.05764(7) 0.68492(10)
C2 C 0.48911(13) 0.09719(6) 0.62856(9)
H1 H 0.4188 0.0683 0.5533
C3 C 0.40594(13) 0.12568(7) 0.73754(9)
C4 C 0.52831(14) 0.10302(7) 0.85932(10)
H2 H 0.4833 0.0535 0.9028
H3 H 0.5442 0.1552 0.9159
C5 C 0.69697(13) 0.07610(7) 0.82560(10)
H4 H 0.7754 0.1279 0.841
C6 C 0.45821(12) 0.19681(6) 0.65551(9)
C7 C 0.31695(13) 0.23672(7) 0.56215(10)
H5 H 0.339 0.2888 0.5188
C8 C 0.16180(14) 0.20299(7) 0.53674(10)
H6 H 0.0796 0.2306 0.4741
C9 C 0.11233(14) 0.12275(7) 0.60368(11)
H7 H 0.1264 0.0686 0.5551
H8 H -0.0076 0.1274 0.6095
C10 C 0.22025(13) 0.11505(7) 0.73572(10)
H9 H 0.1846 0.1611 0.7901
H10 H 0.2006 0.0563 0.7711
C11 C 0.78156(16) -0.00362(9) 0.89866(11)
H11 H 0.7066 -0.0552 0.8831
H12 H 0.8055 0.0101 0.9885
H13 H 0.8869 -0.017 0.8712
C12 C 0.60096(13) 0.25965(6) 0.70148(9)
C13 C 0.58949(14) 0.31922(7) 0.79813(10)
H14 H 0.4926 0.3188 0.8351
C14 C 0.71941(15) 0.37929(7) 0.84079(10)
H15 H 0.7108 0.4195 0.9066
C15 C 0.86151(14) 0.38025(7) 0.78690(11)
H16 H 0.951 0.4202 0.817
C16 C 0.87217(14) 0.32257(7) 0.68884(11)
H17 H 0.9681 0.3239 0.6509
C17 C 0.74231(13) 0.26272(7) 0.64613(10)
H18 H 0.7501 0.2237 0.5788
O1 O 0.73973(10) 0.01219(5) 0.62870(7)
loop_
_geom_bond_atom_site_label_1
_geom_bond_atom_site_label_2
_geom_bond_site_symmetry_1
_geom_bond_site_symmetry_2
C1 C2 1_555 1_555
C2 H1 1_555 1_555
C3 C2 1_555 1_555
C4 C3 1_555 1_555
H2 C4 1_555 1_555
H3 C4 1_555 1_555
C5 C1 1_555 1_555
H4 C5 1_555 1_555
C6 C2 1_555 1_555
C7 C6 1_555 1_555
H5 C7 1_555 1_555
C8 C7 1_555 1_555
H6 C8 1_555 1_555
C9 C8 1_555 1_555
H7 C9 1_555 1_555
H8 C9 1_555 1_555
C10 C3 1_555 1_555
H9 C10 1_555 1_555
H10 C10 1_555 1_555
C11 C5 1_555 1_555
H11 C11 1_555 1_555
H12 C11 1_555 1_555
H13 C11 1_555 1_555
C12 C6 1_555 1_555
C13 C12 1_555 1_555
H14 C13 1_555 1_555
C14 C13 1_555 1_555
H15 C14 1_555 1_555
C15 C14 1_555 1_555
H16 C15 1_555 1_555
C16 C15 1_555 1_555
H17 C16 1_555 1_555
C17 C12 1_555 1_555
H18 C17 1_555 1_555
O1 C1 1_555 1_555
C3 C6 1_555 1_555
C4 C5 1_555 1_555
C9 C10 1_555 1_555
C16 C17 1_555 1_555

#END
