
#######################################################################
#
#                 Cambridge Crystallographic Data Centre
#                                CCDC 
#
#######################################################################
#
# If this CIF has been generated from an entry in the Cambridge 
# Structural Database, then it will include bibliographic, chemical, 
# crystal, experimental, refinement or atomic coordinate data resulting 
# from the CCDC's data processing and validation procedures.
#
#######################################################################

data_OVUXIO
_chemical_formula_moiety         'C30 H31 N1 O7 S1'
_chemical_name_systematic        
"diethyl 1'-((4-methylphenyl)sulfonyl)-5'-phenyl-2'H,3H-spiro[2-benzofuran-1,3'-pyrrolidine]-2',2'-dicarboxylate"
_symmetry_cell_setting           triclinic
_symmetry_space_group_name_H-M   'P -1'
_symmetry_Int_Tables_number      2
_space_group_name_Hall           '-P 1'
loop_
_symmetry_equiv_pos_site_id
_symmetry_equiv_pos_as_xyz
1 x,y,z
2 -x,-y,-z
_cell_length_a                   9.901(2)
_cell_length_b                   11.342(2)
_cell_length_c                   13.766(3)
_cell_angle_alpha                97.9523(18)
_cell_angle_beta                 97.7140(18)
_cell_angle_gamma                115.2818(16)
_cell_volume                     1351.73
_exptl_crystal_description       block
_cell_formula_units_Z            2
loop_
_atom_site_label
_atom_site_type_symbol
_atom_site_fract_x
_atom_site_fract_y
_atom_site_fract_z
S1 S 0.22935(6) 0.80543(5) 0.30858(4)
O1 O 0.25657(16) 0.82267(15) 0.41545(10)
O2 O 0.18561(16) 0.67697(14) 0.24591(11)
O3 O 0.08133(18) 0.80296(17) 0.06830(11)
O4 O -0.12203(18) 0.60404(15) 0.03745(11)
O5 O -0.20695(19) 0.50367(16) 0.19501(12)
O6 O -0.08404(16) 0.64707(14) 0.34300(11)
O7 O -0.29056(16) 0.72683(15) 0.24762(11)
N1 N 0.09207(18) 0.84636(16) 0.26940(12)
C1 C 0.8081(3) 1.1991(2) 0.2085(2)
H1 H 0.8237 1.1585 0.1478
H2 H 0.8945 1.2244 0.2621
H3 H 0.7971 1.2770 0.1987
C2 C 0.6656(3) 1.1010(2) 0.23469(19)
C3 C 0.5522(3) 0.9951(2) 0.16109(18)
H4 H 0.5668 0.9842 0.0957
C4 C 0.4196(3) 0.9063(2) 0.18232(17)
H5 H 0.3453 0.8362 0.1319
C5 C 0.3969(2) 0.9216(2) 0.27945(16)
C6 C 0.5090(3) 1.0251(2) 0.35433(17)
H6 H 0.4950 1.0352 0.4199
C7 C 0.6413(3) 1.1128(2) 0.33112(19)
H7 H 0.7163 1.1819 0.3818
C8 C 0.3894(3) 1.2822(3) 0.3658(2)
H8 H 0.4326 1.3408 0.3250
C9 C 0.4516(3) 1.3164(3) 0.4669(2)
H9 H 0.5372 1.3979 0.4946
C10 C 0.3876(3) 1.2306(3) 0.5270(2)
H10 H 0.4293 1.2541 0.5956
C11 C 0.2610(3) 1.1092(2) 0.48596(17)
H11 H 0.2180 1.0514 0.5273
C12 C 0.1973(2) 1.0723(2) 0.38382(16)
C13 C 0.2630(3) 1.1611(2) 0.32451(18)
H12 H 0.2213 1.1388 0.2560
C14 C 0.0602(2) 0.9382(2) 0.34073(15)
H13 H 0.0232 0.8957 0.3955
C15 C -0.0709(2) 0.9432(2) 0.27295(16)
H14 H -0.1324 0.9671 0.3132
H15 H -0.0310 1.0100 0.2335
C16 C -0.1677(2) 0.8067(2) 0.20422(15)
C17 C -0.0506(2) 0.7419(2) 0.20124(15)
C18 C -0.1230(2) 0.6137(2) 0.24267(17)
C19 C -0.1593(3) 0.5437(2) 0.39527(19)
H16 H -0.1332 0.4710 0.3795
H17 H -0.2694 0.5086 0.3755
C20 C -0.1061(3) 0.6051(3) 0.50445(19)
H18 H -0.1377 0.6734 0.5197
H19 H 0.0035 0.6438 0.5224
H20 H -0.1496 0.5377 0.5419
C21 C -0.0203(3) 0.7201(2) 0.09530(16)
C22 C -0.1023(3) 0.5721(3) -0.06434(17)
H21 H -0.1508 0.4758 -0.0878
H22 H 0.0060 0.6055 -0.0633
C23 C -0.1686(3) 0.6306(3) -0.13577(18)
H23 H -0.1704 0.5935 -0.2033
H24 H -0.1073 0.7257 -0.1212
H25 H -0.2710 0.6102 -0.1289
C24 C -0.4282(3) 0.6482(2) 0.17152(18)
H26 H -0.5157 0.6512 0.1938
H27 H -0.4467 0.5558 0.1551
C25 C -0.3994(2) 0.7109(2) 0.08316(17)
C26 C -0.4990(3) 0.6900(3) -0.00586(19)
H28 H -0.5994 0.6229 -0.0208
C27 C -0.4448(3) 0.7720(3) -0.07139(19)
H29 H -0.5092 0.7590 -0.1319
C28 C -0.2970(3) 0.8725(3) -0.04885(18)
H30 H -0.2646 0.9294 -0.0926
C29 C -0.1956(3) 0.8903(2) 0.03814(17)
H31 H -0.0947 0.9564 0.0524
C30 C -0.2494(2) 0.8063(2) 0.10334(16)
loop_
_geom_bond_atom_site_label_1
_geom_bond_atom_site_label_2
_geom_bond_site_symmetry_1
_geom_bond_site_symmetry_2
S1 O1 1_555 1_555
O2 S1 1_555 1_555
O3 C21 1_555 1_555
O4 C21 1_555 1_555
O5 C18 1_555 1_555
O6 C18 1_555 1_555
O7 C16 1_555 1_555
N1 S1 1_555 1_555
C1 H1 1_555 1_555
H2 C1 1_555 1_555
H3 C1 1_555 1_555
C2 C1 1_555 1_555
C3 C2 1_555 1_555
H4 C3 1_555 1_555
C4 C3 1_555 1_555
H5 C4 1_555 1_555
C5 S1 1_555 1_555
C6 C5 1_555 1_555
H6 C6 1_555 1_555
C7 C2 1_555 1_555
H7 C7 1_555 1_555
C8 H8 1_555 1_555
C9 C8 1_555 1_555
H9 C9 1_555 1_555
C10 C9 1_555 1_555
H10 C10 1_555 1_555
C11 C10 1_555 1_555
H11 C11 1_555 1_555
C12 C11 1_555 1_555
C13 C8 1_555 1_555
H12 C13 1_555 1_555
C14 N1 1_555 1_555
H13 C14 1_555 1_555
C15 C14 1_555 1_555
H14 C15 1_555 1_555
H15 C15 1_555 1_555
C16 C15 1_555 1_555
C17 N1 1_555 1_555
C18 C17 1_555 1_555
C19 O6 1_555 1_555
H16 C19 1_555 1_555
H17 C19 1_555 1_555
C20 C19 1_555 1_555
H18 C20 1_555 1_555
H19 C20 1_555 1_555
H20 C20 1_555 1_555
C21 C17 1_555 1_555
C22 O4 1_555 1_555
H21 C22 1_555 1_555
H22 C22 1_555 1_555
C23 C22 1_555 1_555
H23 C23 1_555 1_555
H24 C23 1_555 1_555
H25 C23 1_555 1_555
C24 O7 1_555 1_555
H26 C24 1_555 1_555
H27 C24 1_555 1_555
C25 C24 1_555 1_555
C26 C25 1_555 1_555
H28 C26 1_555 1_555
C27 C26 1_555 1_555
H29 C27 1_555 1_555
C28 C27 1_555 1_555
H30 C28 1_555 1_555
C29 C28 1_555 1_555
H31 C29 1_555 1_555
C30 C16 1_555 1_555
C4 C5 1_555 1_555
C6 C7 1_555 1_555
C12 C13 1_555 1_555
C12 C14 1_555 1_555
C16 C17 1_555 1_555
C25 C30 1_555 1_555
C29 C30 1_555 1_555

#END
