
#######################################################################
#
#                 Cambridge Crystallographic Data Centre
#                                CCDC 
#
#######################################################################
#
# If this CIF has been generated from an entry in the Cambridge 
# Structural Database, then it will include bibliographic, chemical, 
# crystal, experimental, refinement or atomic coordinate data resulting 
# from the CCDC's data processing and validation procedures.
#
#######################################################################

data_OVUYIP
_chemical_formula_moiety         'C17 H16 O3'
_chemical_name_systematic        
3,11-dimethyl-10a,11-dihydro-5aH-[1]benzofuro[3,2-b]chromen-2-ol
_symmetry_cell_setting           triclinic
_symmetry_space_group_name_H-M   'P -1'
_symmetry_Int_Tables_number      2
_space_group_name_Hall           '-P 1'
loop_
_symmetry_equiv_pos_site_id
_symmetry_equiv_pos_as_xyz
1 x,y,z
2 -x,-y,-z
_cell_length_a                   8.0405(19)
_cell_length_b                   8.642(3)
_cell_length_c                   9.983(3)
_cell_angle_alpha                78.95(3)
_cell_angle_beta                 83.28(2)
_cell_angle_gamma                75.99(2)
_cell_volume                     658.747
_exptl_crystal_colour            colorless
_exptl_crystal_description       block
_cell_formula_units_Z            2
loop_
_atom_site_label
_atom_site_type_symbol
_atom_site_fract_x
_atom_site_fract_y
_atom_site_fract_z
O1 O 0.1938(5) 1.3574(4) 0.0123(3)
H1 H 0.2686 1.3377 -0.0493
O2 O 0.1109(3) 0.7882(3) 0.3436(3)
O3 O 0.5269(3) 0.6797(4) 0.1955(3)
C1 C 0.1255(5) 0.9329(5) 0.2569(4)
C2 C 0.0581(4) 1.0790(5) 0.3001(4)
H2 H 0.0002 1.0811 0.3862
C3 C 0.0754(5) 1.2227(5) 0.2165(4)
C4 C 0.1675(5) 1.2142(5) 0.0903(4)
C5 C 0.2268(6) 1.0662(5) 0.0458(4)
H3 H 0.2832 1.0634 -0.0408
C6 C 0.2041(5) 0.9227(5) 0.1273(4)
C7 C 0.0031(6) 1.3849(5) 0.2619(4)
H4 H -0.0412 1.3681 0.3558
H5 H -0.0878 1.4460 0.2058
H6 H 0.0924 1.4433 0.2528
C8 C 0.2548(6) 0.7574(5) 0.0891(4)
H7 H 0.1481 0.7211 0.0906
C9 C 0.3437(6) 0.7484(6) -0.0525(4)
H8 H 0.2720 0.8200 -0.1195
H9 H 0.3641 0.6396 -0.0697
H10 H 0.4512 0.7797 -0.0579
C10 C 0.3568(5) 0.6445(5) 0.2033(4)
H11 H 0.3691 0.5319 0.1923
C11 C 0.2716(5) 0.6679(5) 0.3483(4)
H12 H 0.2507 0.5644 0.3984
C12 C 0.4103(5) 0.7112(5) 0.4120(4)
C13 C 0.4141(5) 0.7471(5) 0.5406(4)
H13 H 0.3210 0.7439 0.6050
C14 C 0.5594(6) 0.7878(6) 0.5709(4)
H14 H 0.5644 0.8119 0.6570
C15 C 0.6973(6) 0.7934(6) 0.4752(5)
H15 H 0.7936 0.8220 0.4975
C16 C 0.6944(5) 0.7573(5) 0.3477(4)
H16 H 0.7876 0.7592 0.2833
C17 C 0.5473(5) 0.7179(5) 0.3191(4)
loop_
_geom_bond_atom_site_label_1
_geom_bond_atom_site_label_2
_geom_bond_site_symmetry_1
_geom_bond_site_symmetry_2
O1 H1 1_555 1_555
O2 C1 1_555 1_555
O3 C10 1_555 1_555
C1 C2 1_555 1_555
C2 H2 1_555 1_555
C3 C2 1_555 1_555
C4 O1 1_555 1_555
C5 C4 1_555 1_555
H3 C5 1_555 1_555
C6 C1 1_555 1_555
C7 C3 1_555 1_555
H4 C7 1_555 1_555
H5 C7 1_555 1_555
H6 C7 1_555 1_555
C8 C6 1_555 1_555
H7 C8 1_555 1_555
C9 C8 1_555 1_555
H8 C9 1_555 1_555
H9 C9 1_555 1_555
H10 C9 1_555 1_555
C10 C8 1_555 1_555
H11 C10 1_555 1_555
C11 O2 1_555 1_555
H12 C11 1_555 1_555
C12 C11 1_555 1_555
C13 C12 1_555 1_555
H13 C13 1_555 1_555
C14 C13 1_555 1_555
H14 C14 1_555 1_555
C15 C14 1_555 1_555
H15 C15 1_555 1_555
C16 C15 1_555 1_555
H16 C16 1_555 1_555
C17 O3 1_555 1_555
C3 C4 1_555 1_555
C5 C6 1_555 1_555
C10 C11 1_555 1_555
C12 C17 1_555 1_555
C16 C17 1_555 1_555

#END
