
#######################################################################
#
#                 Cambridge Crystallographic Data Centre
#                                CCDC 
#
#######################################################################
#
# If this CIF has been generated from an entry in the Cambridge 
# Structural Database, then it will include bibliographic, chemical, 
# crystal, experimental, refinement or atomic coordinate data resulting 
# from the CCDC's data processing and validation procedures.
#
#######################################################################

data_OWACAS
_chemical_formula_moiety         'C20 H19 N3 O2'
_chemical_name_systematic        
N-(8-(morpholin-4-yl)-1-naphthyl)pyridine-2-carboxamide
_symmetry_cell_setting           triclinic
_symmetry_space_group_name_H-M   'P -1'
_symmetry_Int_Tables_number      2
_space_group_name_Hall           '-P 1'
loop_
_symmetry_equiv_pos_site_id
_symmetry_equiv_pos_as_xyz
1 x,y,z
2 -x,-y,-z
_cell_length_a                   8.9053(11)
_cell_length_b                   9.1342(11)
_cell_length_c                   10.3857(12)
_cell_angle_alpha                85.819(10)
_cell_angle_beta                 88.672(10)
_cell_angle_gamma                77.281(11)
_cell_volume                     821.857
_exptl_crystal_colour            colorless
_exptl_crystal_description       block
_cell_formula_units_Z            2
loop_
_atom_site_label
_atom_site_type_symbol
_atom_site_fract_x
_atom_site_fract_y
_atom_site_fract_z
C1 C 0.4516(3) 0.3964(2) 0.8385(2)
H1 H 0.5122 0.4588 0.8661
C2 C 0.4342(3) 0.2755(2) 0.9191(2)
H2 H 0.4817 0.2570 0.9993
C3 C 0.3465(3) 0.1832(3) 0.8795(2)
H3 H 0.3341 0.0993 0.9315
C4 C 0.2760(3) 0.2161(2) 0.7610(2)
H4 H 0.2136 0.1559 0.7324
C5 C 0.2993(2) 0.33909(18) 0.68555(17)
C6 C 0.2306(2) 0.36996(19) 0.55254(17)
C7 C 0.1965(2) 0.5555(2) 0.36328(16)
C8 C 0.1525(3) 0.4620(2) 0.28139(19)
H5 H 0.1468 0.3651 0.3119
C9 C 0.1160(3) 0.5100(3) 0.1522(2)
H6 H 0.0871 0.4443 0.0981
C10 C 0.1224(3) 0.6503(3) 0.10574(19)
H7 H 0.0983 0.6801 0.0198
C11 C 0.1650(2) 0.7522(2) 0.18559(17)
C12 C 0.20277(19) 0.7076(2) 0.31860(16)
C13 C 0.2458(2) 0.81820(19) 0.39266(15)
C14 C 0.2548(2) 0.9565(2) 0.33568(16)
H8 H 0.2833 1.0264 0.3855
C15 C 0.2222(2) 0.9954(2) 0.20506(18)
H9 H 0.2319 1.0888 0.1683
C16 C 0.1764(3) 0.8965(2) 0.13258(18)
H10 H 0.1521 0.9237 0.0463
C17 C 0.1373(2) 0.8372(2) 0.60668(15)
H11 H 0.0540 0.7952 0.5775
H12 H 0.1058 0.9460 0.5961
C18 C 0.1700(2) 0.7883(2) 0.74704(16)
H13 H 0.0786 0.8248 0.7980
H14 H 0.1939 0.6793 0.7576
C19 C 0.4278(3) 0.7969(2) 0.71766(18)
H15 H 0.4597 0.6881 0.7256
H16 H 0.5106 0.8377 0.7494
C20 C 0.4000(2) 0.8492(2) 0.57747(17)
H17 H 0.3709 0.9582 0.5683
H18 H 0.4934 0.8168 0.5277
N1 N 0.3862(2) 0.42983(17) 0.72250(15)
N2 N 0.24217(18) 0.50251(16) 0.49055(13)
H19 H 0.2819 0.5613 0.5336
N3 N 0.27639(16) 0.78524(15) 0.52941(12)
O1 O 0.17282(18) 0.27508(15) 0.50889(14)
O2 O 0.29438(19) 0.84272(15) 0.79377(12)
loop_
_geom_bond_atom_site_label_1
_geom_bond_atom_site_label_2
_geom_bond_site_symmetry_1
_geom_bond_site_symmetry_2
C1 H1 1_555 1_555
C2 C1 1_555 1_555
H2 C2 1_555 1_555
C3 C2 1_555 1_555
H3 C3 1_555 1_555
C4 C3 1_555 1_555
H4 C4 1_555 1_555
C5 C4 1_555 1_555
C6 C5 1_555 1_555
C7 C8 1_555 1_555
C8 H5 1_555 1_555
C9 C8 1_555 1_555
H6 C9 1_555 1_555
C10 C9 1_555 1_555
H7 C10 1_555 1_555
C11 C10 1_555 1_555
C12 C7 1_555 1_555
C13 C12 1_555 1_555
C14 C13 1_555 1_555
H8 C14 1_555 1_555
C15 C14 1_555 1_555
H9 C15 1_555 1_555
C16 C11 1_555 1_555
H10 C16 1_555 1_555
C17 H11 1_555 1_555
H12 C17 1_555 1_555
C18 C17 1_555 1_555
H13 C18 1_555 1_555
H14 C18 1_555 1_555
C19 H15 1_555 1_555
H16 C19 1_555 1_555
C20 C19 1_555 1_555
H17 C20 1_555 1_555
H18 C20 1_555 1_555
N1 C1 1_555 1_555
N2 C6 1_555 1_555
H19 N2 1_555 1_555
N3 C13 1_555 1_555
O1 C6 1_555 1_555
O2 C18 1_555 1_555
C5 N1 1_555 1_555
C7 N2 1_555 1_555
C11 C12 1_555 1_555
C15 C16 1_555 1_555
C17 N3 1_555 1_555
C19 O2 1_555 1_555
C20 N3 1_555 1_555

#END
