
#######################################################################
#
#                 Cambridge Crystallographic Data Centre
#                                CCDC 
#
#######################################################################
#
# If this CIF has been generated from an entry in the Cambridge 
# Structural Database, then it will include bibliographic, chemical, 
# crystal, experimental, refinement or atomic coordinate data resulting 
# from the CCDC's data processing and validation procedures.
#
#######################################################################

data_OWAFIC
_chemical_formula_moiety         'C13 H9 N3 O2 S1'
_chemical_name_systematic        
'Quinolin-8-yl 4-methyl-1,2,3-thiadiazole-5-carboxylate'
_symmetry_cell_setting           triclinic
_symmetry_space_group_name_H-M   'P -1'
_symmetry_Int_Tables_number      2
_space_group_name_Hall           '-P 1'
loop_
_symmetry_equiv_pos_site_id
_symmetry_equiv_pos_as_xyz
1 x,y,z
2 -x,-y,-z
_cell_length_a                   7.957(7)
_cell_length_b                   8.378(7)
_cell_length_c                   10.096(10)
_cell_angle_alpha                100.63(2)
_cell_angle_beta                 112.742(17)
_cell_angle_gamma                93.287(4)
_cell_volume                     603.884
_exptl_crystal_colour            colorless
_exptl_crystal_description       prism
_chemical_melting_point          '411-412 K'
_cell_formula_units_Z            2
loop_
_atom_site_label
_atom_site_type_symbol
_atom_site_fract_x
_atom_site_fract_y
_atom_site_fract_z
S1 S 0.17928(6) 0.84684(5) 0.70283(5)
O1 O 0.02672(18) 0.66379(16) 0.40003(14)
O2 O 0.1274(2) 0.85009(17) 0.29991(16)
N1 N 0.3638(2) 1.1174(2) 0.75846(19)
N2 N 0.2747(2) 0.4917(2) 0.32414(18)
C1 C 0.0927(2) 0.4562(2) 0.23027(19)
C2 C -0.1693(2) 0.2985(2) 0.0087(2)
H1 H -0.2148 0.2160 -0.0769
C3 C 0.1180(2) 0.8086(2) 0.4054(2)
C4 C 0.0228(2) 0.3298(2) 0.09910(19)
C5 C 0.3057(2) 1.0612(2) 0.6088(2)
C6 C 0.1995(2) 0.9081(2) 0.55778(19)
C7 C -0.0369(3) 0.5464(2) 0.26518(19)
C8 C -0.2212(3) 0.5161(2) 0.1777(2)
H2 H -0.3020 0.5777 0.2033
N3 N 0.3073(2) 1.0181(2) 0.82277(19)
C9 C 0.1514(3) 0.2375(2) 0.0658(2)
H3 H 0.1124 0.1540 -0.0188
C10 C 0.3885(3) 0.4016(3) 0.2873(2)
H4 H 0.5129 0.4245 0.3497
C11 C -0.2879(2) 0.3901(2) 0.0478(2)
H5 H -0.4132 0.3689 -0.0119
C12 C 0.3342(3) 0.2734(3) 0.1602(2)
H6 H 0.4207 0.2143 0.1408
C13 C 0.3579(3) 1.1668(2) 0.5230(2)
H7 H 0.2713 1.2429 0.4974
H8 H 0.3569 1.0993 0.4348
H9 H 0.4790 1.2262 0.5816
loop_
_geom_bond_atom_site_label_1
_geom_bond_atom_site_label_2
_geom_bond_site_symmetry_1
_geom_bond_site_symmetry_2
S1 C6 1_555 1_555
O1 C3 1_555 1_555
O2 C3 1_555 1_555
N1 C5 1_555 1_555
N2 C1 1_555 1_555
C1 C4 1_555 1_555
C2 H1 1_555 1_555
C3 C6 1_555 1_555
C4 C2 1_555 1_555
C5 C6 1_555 1_555
C7 O1 1_555 1_555
C8 C7 1_555 1_555
H2 C8 1_555 1_555
N3 S1 1_555 1_555
C9 C4 1_555 1_555
H3 C9 1_555 1_555
C10 N2 1_555 1_555
H4 C10 1_555 1_555
C11 C2 1_555 1_555
H5 C11 1_555 1_555
C12 C9 1_555 1_555
H6 C12 1_555 1_555
C13 C5 1_555 1_555
H7 C13 1_555 1_555
H8 C13 1_555 1_555
H9 C13 1_555 1_555
N1 N3 1_555 1_555
C1 C7 1_555 1_555
C8 C11 1_555 1_555
C10 C12 1_555 1_555

#END
