
#######################################################################
#
#                 Cambridge Crystallographic Data Centre
#                                CCDC 
#
#######################################################################
#
# If this CIF has been generated from an entry in the Cambridge 
# Structural Database, then it will include bibliographic, chemical, 
# crystal, experimental, refinement or atomic coordinate data resulting 
# from the CCDC's data processing and validation procedures.
#
#######################################################################

data_OWAFEY
_chemical_formula_moiety         'C22 H17 N1 O1'
_chemical_name_systematic        2-((9-Anthrylmethylene)amino)-5-methylphenol
_symmetry_cell_setting           triclinic
_symmetry_space_group_name_H-M   'P -1'
_symmetry_Int_Tables_number      2
_space_group_name_Hall           '-P 1'
loop_
_symmetry_equiv_pos_site_id
_symmetry_equiv_pos_as_xyz
1 x,y,z
2 -x,-y,-z
_cell_length_a                   8.5533(5)
_cell_length_b                   14.0926(10)
_cell_length_c                   14.9382(11)
_cell_angle_alpha                104.204(6)
_cell_angle_beta                 106.480(5)
_cell_angle_gamma                105.091(5)
_cell_volume                     1564.87
_exptl_crystal_colour            orange
_exptl_crystal_description       plate
_cell_formula_units_Z            4
loop_
_atom_site_label
_atom_site_type_symbol
_atom_site_fract_x
_atom_site_fract_y
_atom_site_fract_z
O1 O 0.15223(11) 0.67548(7) 0.70460(6)
H1 H 0.240(2) 0.7320(13) 0.7129(12)
N1 N 0.25736(11) 0.78469(7) 0.59647(7)
C1 C 0.45777(14) 0.94891(8) 0.60645(8)
C2 C 0.61788(14) 0.93118(8) 0.63159(8)
C3 C 0.62985(15) 0.83047(9) 0.62336(9)
H2 H 0.5230(18) 0.7698(11) 0.5999(10)
C4 C 0.78673(15) 0.81686(9) 0.64665(9)
H3 H 0.7908(18) 0.7482(12) 0.6404(11)
C5 C 0.94496(15) 0.90305(9) 0.68057(9)
H4 H 1.0540(19) 0.8920(11) 0.6984(11)
C6 C 0.94020(14) 1.00027(9) 0.68867(8)
H5 H 1.0481(18) 1.0615(11) 0.7107(10)
C7 C 0.77846(14) 1.01794(9) 0.66397(8)
C8 C 0.77418(14) 1.11753(9) 0.67051(8)
H6 H 0.8857(18) 1.1766(11) 0.6938(10)
C9 C 0.61792(14) 1.13632(9) 0.64603(8)
C10 C 0.61575(15) 1.23912(9) 0.65341(8)
H7 H 0.7298(18) 1.2970(11) 0.6770(10)
C11 C 0.46354(16) 1.25734(9) 0.63133(9)
H8 H 0.4610(18) 1.3270(12) 0.6352(11)
C12 C 0.30353(16) 1.17363(10) 0.60077(9)
H9 H 0.195(2) 1.1882(11) 0.5856(11)
C13 C 0.29935(15) 1.07453(9) 0.59240(8)
H10 H 0.1885(18) 1.0181(11) 0.5735(10)
C14 C 0.45607(14) 1.05085(9) 0.61340(8)
C15 C 0.28828(14) 0.86300(8) 0.56695(8)
H11 H 0.1939(17) 0.8681(10) 0.5143(10)
C16 C 0.09292(13) 0.70277(8) 0.54862(8)
C17 C 0.04440(14) 0.64653(9) 0.60772(8)
C18 C -0.11207(14) 0.56241(9) 0.56991(8)
H12 H -0.1420(17) 0.5245(11) 0.6128(10)
C19 C -0.22355(14) 0.53258(8) 0.47192(8)
C20 C -0.17392(15) 0.58718(9) 0.41223(9)
H13 H -0.2508(18) 0.5644(11) 0.3434(11)
C21 C -0.01776(14) 0.67074(9) 0.44939(8)
H14 H 0.0174(17) 0.7050(11) 0.4053(10)
C22 C -0.39289(15) 0.44090(9) 0.42870(9)
H15 H -0.4892 0.4632 0.4000
H16 H -0.4117 0.4148 0.4813
H17 H -0.3880 0.3851 0.3767
O2 O 0.62363(10) 0.96878(6) 0.18988(6)
H18 H 0.543(2) 0.9253(12) 0.2017(11)
N2 N 0.36294(11) 0.78133(7) 0.08128(7)
C23 C 0.18250(14) 0.62584(8) 0.09522(8)
C24 C 0.04494(13) 0.65694(8) 0.11052(8)
C25 C 0.00116(14) 0.73902(9) 0.08181(8)
H19 H 0.0687(17) 0.7755(10) 0.0484(10)
C26 C -0.13135(14) 0.76741(9) 0.09859(8)
H20 H -0.1603(17) 0.8216(11) 0.0776(10)
C27 C -0.23001(14) 0.71625(9) 0.14633(8)
H21 H -0.3217(18) 0.7379(11) 0.1587(10)
C28 C -0.19628(14) 0.63570(9) 0.17238(8)
H22 H -0.2651(18) 0.5978(11) 0.2034(10)
C29 C -0.06078(13) 0.60190(8) 0.15444(8)
C30 C -0.02953(14) 0.51718(9) 0.17848(8)
H23 H -0.1025(17) 0.4799(10) 0.2089(10)
C31 C 0.10155(14) 0.48331(8) 0.16023(8)
C32 C 0.13079(15) 0.39510(9) 0.18328(8)
H24 H 0.0537(18) 0.3570(11) 0.2101(10)
C33 C 0.26282(16) 0.36506(9) 0.16880(9)
H25 H 0.2823(18) 0.3055(12) 0.1848(11)
C34 C 0.37423(15) 0.42158(9) 0.12997(9)
H26 H 0.4695(19) 0.3980(11) 0.1194(10)
C35 C 0.34932(14) 0.50498(9) 0.10574(8)
H27 H 0.4262(18) 0.5423(11) 0.0791(10)
C36 C 0.21097(13) 0.53900(8) 0.11862(8)
C37 C 0.29748(13) 0.68146(9) 0.05277(8)
H28 H 0.3249(17) 0.6371(10) 0.0005(10)
C38 C 0.46452(13) 0.82857(8) 0.03309(8)
C39 C 0.59569(13) 0.92588(8) 0.09182(8)
C40 C 0.70320(14) 0.97947(8) 0.05203(8)
H29 H 0.7955(17) 1.0477(11) 0.0952(10)
C41 C 0.67970(14) 0.93786(9) -0.04749(8)
C42 C 0.54536(14) 0.84223(9) -0.10695(8)
H30 H 0.5228(17) 0.8141(11) -0.1792(11)
C43 C 0.43868(14) 0.78809(9) -0.06738(8)
H31 H 0.3432(18) 0.7225(11) -0.1098(10)
C44 C 0.79354(15) 0.99633(9) -0.09165(9)
H32 H 0.7321 1.0338 -0.1272
H33 H 0.8203 0.9466 -0.1381
H34 H 0.9022 1.0466 -0.0384
loop_
_geom_bond_atom_site_label_1
_geom_bond_atom_site_label_2
_geom_bond_site_symmetry_1
_geom_bond_site_symmetry_2
O1 H1 1_555 1_555
N1 C15 1_555 1_555
C1 C2 1_555 1_555
C2 C3 1_555 1_555
C3 H2 1_555 1_555
C4 C3 1_555 1_555
H3 C4 1_555 1_555
C5 C4 1_555 1_555
H4 C5 1_555 1_555
C6 C5 1_555 1_555
H5 C6 1_555 1_555
C7 C2 1_555 1_555
C8 C7 1_555 1_555
H6 C8 1_555 1_555
C9 C8 1_555 1_555
C10 C9 1_555 1_555
H7 C10 1_555 1_555
C11 C10 1_555 1_555
H8 C11 1_555 1_555
C12 C11 1_555 1_555
H9 C12 1_555 1_555
C13 C12 1_555 1_555
H10 C13 1_555 1_555
C14 C1 1_555 1_555
C15 C1 1_555 1_555
H11 C15 1_555 1_555
C16 N1 1_555 1_555
C17 O1 1_555 1_555
C18 C17 1_555 1_555
H12 C18 1_555 1_555
C19 C18 1_555 1_555
C20 C19 1_555 1_555
H13 C20 1_555 1_555
C21 C16 1_555 1_555
H14 C21 1_555 1_555
C22 C19 1_555 1_555
H15 C22 1_555 1_555
H16 C22 1_555 1_555
H17 C22 1_555 1_555
O2 H18 1_555 1_555
N2 C37 1_555 1_555
C23 C24 1_555 1_555
C24 C25 1_555 1_555
C25 H19 1_555 1_555
C26 C25 1_555 1_555
H20 C26 1_555 1_555
C27 C26 1_555 1_555
H21 C27 1_555 1_555
C28 C27 1_555 1_555
H22 C28 1_555 1_555
C29 C24 1_555 1_555
C30 C29 1_555 1_555
H23 C30 1_555 1_555
C31 C30 1_555 1_555
C32 C31 1_555 1_555
H24 C32 1_555 1_555
C33 C32 1_555 1_555
H25 C33 1_555 1_555
C34 C33 1_555 1_555
H26 C34 1_555 1_555
C35 C34 1_555 1_555
H27 C35 1_555 1_555
C36 C23 1_555 1_555
C37 C23 1_555 1_555
H28 C37 1_555 1_555
C38 N2 1_555 1_555
C39 O2 1_555 1_555
C40 C39 1_555 1_555
H29 C40 1_555 1_555
C41 C40 1_555 1_555
C42 C41 1_555 1_555
H30 C42 1_555 1_555
C43 C38 1_555 1_555
H31 C43 1_555 1_555
C44 C41 1_555 1_555
H32 C44 1_555 1_555
H33 C44 1_555 1_555
H34 C44 1_555 1_555
C6 C7 1_555 1_555
C9 C14 1_555 1_555
C13 C14 1_555 1_555
C16 C17 1_555 1_555
C20 C21 1_555 1_555
C28 C29 1_555 1_555
C31 C36 1_555 1_555
C35 C36 1_555 1_555
C38 C39 1_555 1_555
C42 C43 1_555 1_555

#END
