
#######################################################################
#
#                 Cambridge Crystallographic Data Centre
#                                CCDC 
#
#######################################################################
#
# If this CIF has been generated from an entry in the Cambridge 
# Structural Database, then it will include bibliographic, chemical, 
# crystal, experimental, refinement or atomic coordinate data resulting 
# from the CCDC's data processing and validation procedures.
#
#######################################################################

data_OWAGOK
_chemical_formula_moiety         'C27 H17 Cl1 N4 O1'
_chemical_name_systematic        
1-((4-chlorophenyl)(pyrimidin-2-yl)amino)-2-phenyl-3H-pyrrolo[1,2-a]indol-3-one
_symmetry_cell_setting           monoclinic
_symmetry_space_group_name_H-M   'P 21/n'
_symmetry_Int_Tables_number      14
_space_group_name_Hall           '-P 2yn'
loop_
_symmetry_equiv_pos_site_id
_symmetry_equiv_pos_as_xyz
1 x,y,z
2 1/2-x,1/2+y,1/2-z
3 -x,-y,-z
4 1/2+x,1/2-y,1/2+z
_cell_length_a                   7.9757(4)
_cell_length_b                   11.0702(5)
_cell_length_c                   25.2461(11)
_cell_angle_alpha                90
_cell_angle_beta                 90.966(4)
_cell_angle_gamma                90
_cell_volume                     2228.73
_exptl_crystal_colour            red
_exptl_crystal_description       block
_cell_formula_units_Z            4
loop_
_atom_site_label
_atom_site_type_symbol
_atom_site_fract_x
_atom_site_fract_y
_atom_site_fract_z
Cl1 Cl 1.03506(10) -0.15369(7) 0.04277(3)
O1 O 0.07416(16) 0.38567(14) 0.07874(5)
N1 N 0.31989(17) 0.32037(14) 0.04066(5)
N2 N 0.57600(16) 0.19090(13) 0.14489(5)
N3 N 0.56609(18) 0.33706(14) 0.21125(6)
N4 N 0.65845(19) 0.13649(14) 0.22975(5)
C1 C 0.3427(2) 0.36847(16) -0.00974(6)
C2 C 0.2349(3) 0.43464(18) -0.04209(7)
H1 H 0.1259 0.4524 -0.0321
C3 C 0.2976(3) 0.47271(18) -0.08980(7)
H2 H 0.2294 0.5182 -0.1124
C4 C 0.4590(3) 0.44528(19) -0.10506(7)
H3 H 0.4966 0.4724 -0.1376
C5 C 0.5654(3) 0.37822(19) -0.07278(7)
H4 H 0.6733 0.3594 -0.0835
C6 C 0.5076(2) 0.33954(17) -0.02386(6)
C7 C 0.5846(2) 0.27495(17) 0.02004(7)
H5 H 0.6932 0.2445 0.0216
C8 C 0.4688(2) 0.26733(16) 0.05819(6)
C9 C 0.4465(2) 0.24066(15) 0.11428(6)
C10 C 0.2924(2) 0.27933(16) 0.12915(6)
C11 C 0.2088(2) 0.33636(17) 0.08240(7)
C12 C 0.6866(2) 0.10575(15) 0.12116(6)
C13 C 0.6237(2) 0.00936(18) 0.09255(7)
H6 H 0.5084 -0.0023 0.0898
C14 C 0.7308(3) -0.06994(19) 0.06792(8)
H7 H 0.6884 -0.1343 0.0481
C15 C 0.8999(3) -0.05260(19) 0.07298(8)
C16 C 0.9643(2) 0.0414(2) 0.10154(8)
H8 H 1.0798 0.0515 0.1048
C17 C 0.8570(2) 0.12170(18) 0.12567(7)
H9 H 0.9002 0.1865 0.1450
C18 C 0.60160(19) 0.22392(16) 0.19830(6)
C19 C 0.5825(2) 0.3623(2) 0.26279(8)
H10 H 0.5575 0.4399 0.2743
C20 C 0.6345(3) 0.2788(2) 0.29923(8)
H11 H 0.6424 0.2972 0.3351
C21 C 0.6745(3) 0.1670(2) 0.28048(7)
H12 H 0.7148 0.1095 0.3043
C22 C 0.2133(2) 0.27180(16) 0.18129(6)
C23 C 0.1188(2) 0.36677(17) 0.20070(7)
H13 H 0.1001 0.4346 0.1797
C24 C 0.0521(2) 0.3619(2) 0.25085(8)
H14 H -0.0112 0.4261 0.2633
C25 C 0.0792(3) 0.2621(2) 0.28224(8)
H15 H 0.0376 0.2600 0.3164
C26 C 0.1679(2) 0.1654(2) 0.26305(8)
H16 H 0.1836 0.0971 0.2839
C27 C 0.2336(2) 0.16965(18) 0.21302(7)
H17 H 0.2922 0.1035 0.2002
loop_
_geom_bond_atom_site_label_1
_geom_bond_atom_site_label_2
_geom_bond_site_symmetry_1
_geom_bond_site_symmetry_2
Cl1 C15 1_555 1_555
O1 C11 1_555 1_555
N1 C1 1_555 1_555
N2 C9 1_555 1_555
N3 C18 1_555 1_555
N4 C18 1_555 1_555
C1 C2 1_555 1_555
C2 H1 1_555 1_555
C3 C2 1_555 1_555
H2 C3 1_555 1_555
C4 C3 1_555 1_555
H3 C4 1_555 1_555
C5 C4 1_555 1_555
H4 C5 1_555 1_555
C6 C1 1_555 1_555
C7 C6 1_555 1_555
H5 C7 1_555 1_555
C8 N1 1_555 1_555
C9 C8 1_555 1_555
C10 C9 1_555 1_555
C11 N1 1_555 1_555
C12 N2 1_555 1_555
C13 C12 1_555 1_555
H6 C13 1_555 1_555
C14 C13 1_555 1_555
H7 C14 1_555 1_555
C15 C14 1_555 1_555
C16 C15 1_555 1_555
H8 C16 1_555 1_555
C17 C12 1_555 1_555
H9 C17 1_555 1_555
C18 N2 1_555 1_555
C19 N3 1_555 1_555
H10 C19 1_555 1_555
C20 C19 1_555 1_555
H11 C20 1_555 1_555
C21 N4 1_555 1_555
H12 C21 1_555 1_555
C22 C10 1_555 1_555
C23 C22 1_555 1_555
H13 C23 1_555 1_555
C24 C23 1_555 1_555
H14 C24 1_555 1_555
C25 C24 1_555 1_555
H15 C25 1_555 1_555
C26 C25 1_555 1_555
H16 C26 1_555 1_555
C27 C22 1_555 1_555
H17 C27 1_555 1_555
C5 C6 1_555 1_555
C7 C8 1_555 1_555
C10 C11 1_555 1_555
C16 C17 1_555 1_555
C20 C21 1_555 1_555
C26 C27 1_555 1_555

#END
