
#######################################################################
#
#                 Cambridge Crystallographic Data Centre
#                                CCDC 
#
#######################################################################
#
# If this CIF has been generated from an entry in the Cambridge 
# Structural Database, then it will include bibliographic, chemical, 
# crystal, experimental, refinement or atomic coordinate data resulting 
# from the CCDC's data processing and validation procedures.
#
#######################################################################

data_OWAGIE
_chemical_formula_moiety         'C29 H23 Cl1 N4 O2'
_chemical_name_systematic        
'ethyl 3-((4-chlorophenyl)amino)-2-phenyl-3-(1-(pyrimidin-2-yl)-1H-indol-2-yl)acrylate'
_symmetry_cell_setting           triclinic
_symmetry_space_group_name_H-M   'P -1'
_symmetry_Int_Tables_number      2
_space_group_name_Hall           '-P 1'
loop_
_symmetry_equiv_pos_site_id
_symmetry_equiv_pos_as_xyz
1 x,y,z
2 -x,-y,-z
_cell_length_a                   11.0894(7)
_cell_length_b                   11.1837(9)
_cell_length_c                   11.8059(9)
_cell_angle_alpha                63.655(8)
_cell_angle_beta                 83.383(6)
_cell_angle_gamma                68.088(7)
_cell_volume                     1215.08
_exptl_crystal_colour            yellow
_exptl_crystal_description       block
_cell_formula_units_Z            2
loop_
_atom_site_label
_atom_site_type_symbol
_atom_site_fract_x
_atom_site_fract_y
_atom_site_fract_z
Cl1 Cl 0.23719(5) 0.54908(6) 1.02687(6)
O1 O 0.34511(11) 1.28400(14) 0.67528(13)
O2 O 0.50069(12) 1.36980(13) 0.66583(13)
N1 N 0.77070(13) 0.82289(15) 0.77692(13)
N2 N 0.68989(14) 0.88836(16) 0.93915(14)
N3 N 0.91614(14) 0.82652(17) 0.90073(15)
N4 N 0.42450(14) 1.01785(16) 0.70062(14)
H1 H 0.3647(16) 1.1030(17) 0.6794(18)
C1 C 0.85320(16) 0.71274(18) 0.74556(16)
C2 C 0.97773(16) 0.61388(19) 0.79462(18)
H2 H 1.0223 0.6151 0.8580
C3 C 1.03346(18) 0.5141(2) 0.74696(19)
H3 H 1.1188 0.4459 0.7774
C4 C 0.96741(18) 0.5109(2) 0.65509(19)
H4 H 1.0088 0.4410 0.6241
C5 C 0.84378(18) 0.6069(2) 0.60865(18)
H5 H 0.7993 0.6032 0.5468
C6 C 0.78451(16) 0.71039(19) 0.65435(16)
C7 C 0.65931(16) 0.82194(19) 0.62997(16)
H6 H 0.5921 0.8453 0.5722
C8 C 0.65325(16) 0.88858(18) 0.70376(16)
C9 C 0.54832(15) 1.02051(18) 0.69706(15)
C10 C 0.56986(16) 1.14132(18) 0.67555(16)
C11 C 0.70205(16) 1.15086(18) 0.65078(18)
C12 C 0.75910(18) 1.1880(2) 0.7235(2)
H7 H 0.7169 1.2001 0.7945
C13 C 0.8770(2) 1.2075(2) 0.6926(3)
H8 H 0.9148 1.2334 0.7423
C14 C 0.9396(2) 1.1897(2) 0.5905(3)
H9 H 1.0194 1.2051 0.5687
C15 C 0.8861(2) 1.1494(2) 0.5201(3)
H10 H 0.9300 1.1352 0.4506
C16 C 0.76820(18) 1.1294(2) 0.5503(2)
H11 H 0.7324 1.1008 0.5015
C17 C 0.38615(16) 0.90039(18) 0.77694(16)
C18 C 0.45762(16) 0.78810(19) 0.88676(17)
H12 H 0.5380 0.7856 0.9100
C19 C 0.41171(17) 0.6803(2) 0.96191(18)
H13 H 0.4609 0.6030 1.0364
C20 C 0.29421(17) 0.6850(2) 0.92865(19)
C21 C 0.22097(16) 0.7964(2) 0.82108(18)
H14 H 0.1395 0.7996 0.7996
C22 C 0.26793(16) 0.90375(19) 0.74481(17)
H15 H 0.2188 0.9803 0.6699
C23 C 0.46058(17) 1.26800(19) 0.67282(17)
C24 C 0.40476(19) 1.4981(2) 0.6685(2)
H16 H 0.3550 1.4741 0.7454
H17 H 0.3431 1.5516 0.5931
C25 C 0.4802(2) 1.5854(2) 0.6688(2)
H18 H 0.5230 1.6149 0.5889
H19 H 0.5462 1.5277 0.7396
H20 H 0.4206 1.6705 0.6781
C26 C 0.79385(16) 0.84775(18) 0.87746(16)
C27 C 0.71215(19) 0.9171(2) 1.03111(18)
H21 H 0.6409 0.9499 1.0762
C28 C 0.83436(19) 0.9010(2) 1.0633(2)
H22 H 0.8489 0.9220 1.1291
C29 C 0.93424(19) 0.8532(2) 0.9959(2)
H23 H 1.0201 0.8383 1.0178
loop_
_geom_bond_atom_site_label_1
_geom_bond_atom_site_label_2
_geom_bond_site_symmetry_1
_geom_bond_site_symmetry_2
Cl1 C20 1_555 1_555
O1 C23 1_555 1_555
O2 C23 1_555 1_555
N1 C1 1_555 1_555
N2 C26 1_555 1_555
N3 C26 1_555 1_555
N4 H1 1_555 1_555
C1 C2 1_555 1_555
C2 H2 1_555 1_555
C3 C2 1_555 1_555
H3 C3 1_555 1_555
C4 C3 1_555 1_555
H4 C4 1_555 1_555
C5 C4 1_555 1_555
H5 C5 1_555 1_555
C6 C1 1_555 1_555
C7 C6 1_555 1_555
H6 C7 1_555 1_555
C8 N1 1_555 1_555
C9 N4 1_555 1_555
C10 C9 1_555 1_555
C11 C10 1_555 1_555
C12 C11 1_555 1_555
H7 C12 1_555 1_555
C13 C12 1_555 1_555
H8 C13 1_555 1_555
C14 C13 1_555 1_555
H9 C14 1_555 1_555
C15 C14 1_555 1_555
H10 C15 1_555 1_555
C16 C11 1_555 1_555
H11 C16 1_555 1_555
C17 N4 1_555 1_555
C18 C17 1_555 1_555
H12 C18 1_555 1_555
C19 C18 1_555 1_555
H13 C19 1_555 1_555
C20 C19 1_555 1_555
C21 C20 1_555 1_555
H14 C21 1_555 1_555
C22 C17 1_555 1_555
H15 C22 1_555 1_555
C23 C10 1_555 1_555
C24 O2 1_555 1_555
H16 C24 1_555 1_555
H17 C24 1_555 1_555
C25 C24 1_555 1_555
H18 C25 1_555 1_555
H19 C25 1_555 1_555
H20 C25 1_555 1_555
C26 N1 1_555 1_555
C27 N2 1_555 1_555
H21 C27 1_555 1_555
C28 C27 1_555 1_555
H22 C28 1_555 1_555
C29 N3 1_555 1_555
H23 C29 1_555 1_555
C5 C6 1_555 1_555
C7 C8 1_555 1_555
C8 C9 1_555 1_555
C15 C16 1_555 1_555
C21 C22 1_555 1_555
C28 C29 1_555 1_555

#END
