
#######################################################################
#
#                 Cambridge Crystallographic Data Centre
#                                CCDC 
#
#######################################################################
#
# If this CIF has been generated from an entry in the Cambridge 
# Structural Database, then it will include bibliographic, chemical, 
# crystal, experimental, refinement or atomic coordinate data resulting 
# from the CCDC's data processing and validation procedures.
#
#######################################################################

data_OWALOO
_chemical_formula_moiety         'C19 H13 N5'
_chemical_name_systematic        3,4,6-tris(pyridin-2-yl)pyridazine
_symmetry_cell_setting           monoclinic
_symmetry_space_group_name_H-M   'P 21/n'
_symmetry_Int_Tables_number      14
_space_group_name_Hall           '-P 2yn'
loop_
_symmetry_equiv_pos_site_id
_symmetry_equiv_pos_as_xyz
1 x,y,z
2 1/2-x,1/2+y,1/2-z
3 -x,-y,-z
4 1/2+x,1/2-y,1/2+z
_cell_length_a                   9.4836(19)
_cell_length_b                   11.136(2)
_cell_length_c                   14.432(3)
_cell_angle_alpha                90
_cell_angle_beta                 90.87(3)
_cell_angle_gamma                90
_cell_volume                     1523.98
_exptl_crystal_colour            colorless
_exptl_crystal_description       block
_cell_formula_units_Z            4
loop_
_atom_site_label
_atom_site_type_symbol
_atom_site_fract_x
_atom_site_fract_y
_atom_site_fract_z
N1 N 0.57954(9) 0.32397(9) 0.07725(7)
N2 N 0.58792(9) 0.40957(9) 0.14210(6)
N3 N 0.32334(9) 0.16449(8) -0.06043(6)
N4 N 0.41863(9) 0.54184(8) 0.31922(6)
N5 N 0.09028(9) 0.48303(8) 0.11459(6)
C1 C 0.45143(10) 0.19609(9) -0.02802(7)
C2 C 0.50051(10) 0.55565(9) 0.24514(7)
C3 C 0.21509(10) 0.53378(9) 0.13589(7)
C4 C 0.47346(10) 0.47168(9) 0.16658(7)
C5 C 0.31653(12) 0.07235(10) -0.11992(8)
C6 C 0.44456(13) 0.61504(11) 0.39133(8)
C7 C -0.02476(11) 0.55249(11) 0.11679(8)
C8 C 0.34063(10) 0.45516(9) 0.12294(7)
C9 C 0.43364(13) 0.01010(10) -0.14979(8)
C10 C 0.54811(14) 0.70243(11) 0.39222(9)
C11 C -0.02104(12) 0.67368(11) 0.13825(8)
C12 C 0.33266(11) 0.36258(9) 0.05947(7)
C13 C 0.56533(13) 0.04470(10) -0.11731(8)
C14 C 0.63084(12) 0.71572(10) 0.31509(8)
C15 C 0.10765(12) 0.72468(10) 0.16058(8)
C16 C 0.45423(11) 0.29756(9) 0.03925(7)
C17 C 0.57479(12) 0.13846(10) -0.05454(7)
C18 C 0.60765(11) 0.64031(10) 0.24062(8)
C19 C 0.22767(11) 0.65404(10) 0.16022(8)
H1 H 0.2235(15) 0.0504(12) -0.1429(9)
H2 H 0.3841(17) 0.6040(14) 0.4424(12)
H3 H -0.1155(14) 0.5104(12) 0.1036(9)
H4 H 0.4240(14) -0.0554(13) -0.1935(10)
H5 H 0.5632(15) 0.7563(14) 0.4455(10)
H6 H -0.1068(15) 0.7207(13) 0.1340(9)
H7 H 0.2462(14) 0.3442(11) 0.0289(8)
H8 H 0.6467(15) 0.0015(13) -0.1367(10)
H9 H 0.7066(16) 0.7779(14) 0.3122(10)
H10 H 0.1138(15) 0.8090(14) 0.1762(10)
H11 H 0.6624(15) 0.1625(12) -0.0289(9)
H12 H 0.6619(13) 0.6452(11) 0.1872(9)
H13 H 0.3152(15) 0.6873(12) 0.1744(9)
loop_
_geom_bond_atom_site_label_1
_geom_bond_atom_site_label_2
_geom_bond_site_symmetry_1
_geom_bond_site_symmetry_2
N1 N2 1_555 1_555
N2 C4 1_555 1_555
N3 C1 1_555 1_555
N4 C2 1_555 1_555
N5 C3 1_555 1_555
C1 C16 1_555 1_555
C2 C4 1_555 1_555
C3 C8 1_555 1_555
C4 C8 1_555 1_555
C5 N3 1_555 1_555
C6 N4 1_555 1_555
C7 N5 1_555 1_555
C8 C12 1_555 1_555
C9 C5 1_555 1_555
C10 C6 1_555 1_555
C11 C7 1_555 1_555
C12 C16 1_555 1_555
C13 C9 1_555 1_555
C14 C10 1_555 1_555
C15 C11 1_555 1_555
C16 N1 1_555 1_555
C17 C1 1_555 1_555
C18 C2 1_555 1_555
C19 C3 1_555 1_555
H1 C5 1_555 1_555
H2 C6 1_555 1_555
H3 C7 1_555 1_555
H4 C9 1_555 1_555
H5 C10 1_555 1_555
H6 C11 1_555 1_555
H7 C12 1_555 1_555
H8 C13 1_555 1_555
H9 C14 1_555 1_555
H10 C15 1_555 1_555
H11 C17 1_555 1_555
H12 C18 1_555 1_555
H13 C19 1_555 1_555
C13 C17 1_555 1_555
C14 C18 1_555 1_555
C15 C19 1_555 1_555

#END
