
#######################################################################
#
#                 Cambridge Crystallographic Data Centre
#                                CCDC 
#
#######################################################################
#
# If this CIF has been generated from an entry in the Cambridge 
# Structural Database, then it will include bibliographic, chemical, 
# crystal, experimental, refinement or atomic coordinate data resulting 
# from the CCDC's data processing and validation procedures.
#
#######################################################################

data_OWALUV
_chemical_formula_moiety         'C17 H6 F17 I1 N2 O1'
_chemical_name_systematic        
'2-(heptadecafluorooctyl)-3-iodo-5-methoxyquinoxaline hydrofluoride'
_symmetry_cell_setting           triclinic
_symmetry_space_group_name_H-M   'P -1'
_symmetry_Int_Tables_number      2
_space_group_name_Hall           '-P 1'
loop_
_symmetry_equiv_pos_site_id
_symmetry_equiv_pos_as_xyz
1 x,y,z
2 -x,-y,-z
_cell_length_a                   11.5390(13)
_cell_length_b                   16.419(2)
_cell_length_c                   18.984(2)
_cell_angle_alpha                77.096(2)
_cell_angle_beta                 85.285(2)
_cell_angle_gamma                73.926(2)
_cell_volume                     3368
_exptl_crystal_colour            yellow
_exptl_crystal_description       needle
_cell_formula_units_Z            6
loop_
_atom_site_label
_atom_site_type_symbol
_atom_site_fract_x
_atom_site_fract_y
_atom_site_fract_z
I1 I 0.44519(5) 0.00903(4) 0.28884(3)
N1 N 0.5824(4) -0.0558(3) 0.4197(3)
N2 N 0.6870(4) 0.0785(3) 0.4173(3)
O1 O 0.6326(4) -0.1995(3) 0.5234(3)
C1 C 0.7132(5) 0.0058(4) 0.4706(3)
C2 C 0.7968(6) -0.0022(4) 0.5239(3)
H1 H 0.8329 0.0433 0.5237
C3 C 0.8243(6) -0.0769(4) 0.5756(3)
H2 H 0.8810 -0.0833 0.6113
C4 C 0.7710(6) -0.1445(4) 0.5771(3)
H3 H 0.7917 -0.1952 0.6142
C5 C 0.6903(5) -0.1389(4) 0.5268(3)
C6 C 0.6679(6) -0.2804(4) 0.5728(4)
H4 H 0.7529 -0.3084 0.5640
H5 H 0.6182 -0.3177 0.5662
H6 H 0.6568 -0.2709 0.6224
C7 C 0.6594(5) -0.0621(4) 0.4714(3)
C8 C 0.5605(5) 0.0141(4) 0.3682(3)
C9 C 0.6135(5) 0.0821(4) 0.3676(3)
C10 C 0.5939(6) 0.1668(4) 0.3094(3)
C11 C 0.6841(6) 0.1582(4) 0.2466(3)
C12 C 0.6624(6) 0.2344(4) 0.1780(4)
C13 C 0.7549(7) 0.2253(5) 0.1166(4)
C14 C 0.7349(8) 0.2950(6) 0.0494(5)
C15 C 0.8186(8) 0.2870(5) -0.0146(4)
C16 C 0.8179(9) 0.3434(6) -0.0815(5)
C17 C 0.8912(7) 0.3388(5) -0.1462(4)
F1 F 0.6058(4) 0.2316(2) 0.3385(2)
F2 F 0.4797(3) 0.1921(2) 0.2839(2)
F3 F 0.7935(3) 0.1492(3) 0.2701(2)
F4 F 0.6880(4) 0.0852(2) 0.2245(2)
F5 F 0.632(5) 0.3039(15) 0.1952(15)
F6 F 0.5609(13) 0.224(3) 0.1459(10)
F7 F 0.855(2) 0.187(3) 0.1367(14)
F8 F 0.714(5) 0.167(2) 0.0882(11)
F9 F 0.663(3) 0.3670(14) 0.0553(14)
F10 F 0.6534(9) 0.2523(10) 0.0133(5)
F11 F 0.9104(5) 0.2207(4) -0.0044(3)
F12 F 0.8883(14) 0.3430(11) 0.0090(7)
F13 F 0.7505(12) 0.2795(10) -0.1126(7)
F14 F 0.7188(5) 0.4123(3) -0.0905(3)
F15 F 0.8326(17) 0.3449(14) -0.2012(8)
F16 F 0.9340(15) 0.4067(7) -0.1558(13)
F17 F 0.9838(9) 0.2706(9) -0.1379(8)
I2 I 0.39647(4) 0.46295(3) 0.26760(3)
N3 N 0.5262(4) 0.4214(3) 0.4002(3)
N4 N 0.6414(5) 0.5534(4) 0.3761(3)
O2 O 0.5562(5) 0.3018(4) 0.5200(3)
C18 C 0.6543(5) 0.4955(5) 0.4403(4)
C19 C 0.7245(6) 0.5000(6) 0.4946(5)
H7 H 0.7629 0.5455 0.4879
C20 C 0.7383(7) 0.4389(7) 0.5578(5)
H8 H 0.7849 0.4429 0.5952
C21 C 0.6837(6) 0.3701(6) 0.5674(4)
H9 H 0.6957 0.3272 0.6110
C22 C 0.6145(6) 0.3642(5) 0.5154(4)
C23 C 0.5778(8) 0.2297(6) 0.5783(5)
H10 H 0.6642 0.2001 0.5798
H11 H 0.5323 0.1896 0.5720
H12 H 0.5521 0.2493 0.6236
C24 C 0.5960(5) 0.4266(5) 0.4515(4)
C25 C 0.5137(5) 0.4789(4) 0.3394(3)
C26 C 0.5746(5) 0.5460(4) 0.3278(4)
C27 C 0.5705(7) 0.6126(5) 0.2567(4)
C28 C 0.6623(6) 0.5801(5) 0.1995(4)
C29 C 0.6401(6) 0.6310(5) 0.1200(4)
C30 C 0.7428(7) 0.6143(5) 0.0663(4)
C31 C 0.7121(7) 0.6480(6) -0.0135(4)
C32 C 0.8165(7) 0.6534(6) -0.0677(4)
C33 C 0.7953(9) 0.6690(8) -0.1472(5)
C34 C 0.8868(12) 0.6866(10) -0.2007(6)
F29 F 0.5956(5) 0.6844(3) 0.2684(3)
F30 F 0.4581(4) 0.6413(3) 0.2298(2)
F31 F 0.7727(4) 0.5789(4) 0.2169(2)
F32 F 0.6638(5) 0.4987(3) 0.1999(3)
F33 F 0.6044(6) 0.7153(3) 0.1209(3)
F34 F 0.5449(4) 0.6106(4) 0.0974(3)
F35 F 0.8238(5) 0.6561(4) 0.0799(3)
F36 F 0.7993(5) 0.5328(4) 0.0786(3)
F37 F 0.6342(4) 0.7258(4) -0.0235(3)
F38 F 0.6555(5) 0.5943(5) -0.0317(3)
F39 F 0.8598(5) 0.7208(4) -0.0595(3)
F40 F 0.9080(5) 0.5820(4) -0.0502(3)
F41 F 0.6948(6) 0.7312(6) -0.1648(3)
F42 F 0.7754(10) 0.5946(7) -0.1574(4)
F43 F 0.9927(7) 0.6354(7) -0.1856(4)
F44 F 0.8622(7) 0.6899(6) -0.2664(3)
F45 F 0.8986(11) 0.7659(8) -0.2028(6)
I3 I -0.19038(5) 0.76051(3) 0.33771(3)
N5 N -0.0543(4) 0.6998(3) 0.4687(3)
N6 N 0.0547(4) 0.8329(3) 0.4619(3)
O3 O -0.0173(4) 0.5638(3) 0.5794(3)
C35 C 0.0714(5) 0.7659(4) 0.5204(3)
C36 C 0.1437(6) 0.7640(4) 0.5775(3)
H13 H 0.1808 0.8093 0.5760
C37 C 0.1589(6) 0.6951(4) 0.6350(3)
H14 H 0.2085 0.6924 0.6734
C38 C 0.1029(6) 0.6280(4) 0.6387(3)
H15 H 0.1130 0.5822 0.6802
C39 C 0.0355(5) 0.6279(4) 0.5840(4)
C40 C 0.0119(8) 0.4866(5) 0.6340(5)
H16 H 0.0997 0.4626 0.6354
H17 H -0.0255 0.4441 0.6232
H18 H -0.0183 0.5000 0.6810
C41 C 0.0159(5) 0.6985(4) 0.5224(3)
C42 C -0.0724(5) 0.7662(4) 0.4145(3)
C43 C -0.0150(5) 0.8342(4) 0.4111(3)
C44 C -0.0233(6) 0.9117(4) 0.3479(3)
C45 C 0.0741(6) 0.8940(4) 0.2890(4)
C46 C 0.0702(6) 0.9674(5) 0.2220(4)
C47 C 0.1613(7) 0.9472(5) 0.1604(4)
C48 C 0.1729(9) 1.0195(6) 0.0989(5)
C49 C 0.2399(9) 1.0040(7) 0.0304(5)
C50 C 0.2647(11) 1.0706(8) -0.0283(6)
C51 C 0.3231(12) 1.0588(8) -0.0962(6)
F46 F -0.0106(4) 0.9798(2) 0.3728(2)
F47 F -0.1343(3) 0.9384(2) 0.3179(2)
F48 F 0.1800(4) 0.8749(4) 0.3183(2)
F49 F 0.0648(5) 0.8251(3) 0.2657(3)
F50 F 0.060(4) 1.0419(11) 0.2386(12)
F51 F -0.0367(17) 0.973(3) 0.1905(11)
F52 F 0.2636(12) 0.8945(10) 0.1823(8)
F53 F 0.1047(13) 0.9015(7) 0.1242(5)
F54 F 0.2586(8) 1.0538(6) 0.1287(4)
F55 F 0.0716(7) 1.0808(7) 0.0865(5)
F56 F 0.3267(5) 0.9302(3) 0.0409(3)
F57 F 0.1492(7) 0.9863(6) -0.0078(4)
F58 F 0.3764(7) 1.0829(6) 0.0023(5)
F59 F 0.1845(7) 1.1451(4) -0.0339(3)
F60 F 0.3973(7) 0.9823(5) -0.0974(4)
F61 F 0.2351(12) 1.0574(9) -0.1369(5)
F62 F 0.3562(11) 1.1184(6) -0.1355(6)
F18? F 0.687(5) 0.3071(19) 0.2044(16)
F19? F 0.5534(16) 0.269(4) 0.164(2)
F20? F 0.8512(18) 0.248(2) 0.1424(8)
F21? F 0.7993(16) 0.1486(10) 0.1073(10)
F22? F 0.7965(16) 0.3552(8) 0.0775(6)
F23? F 0.6366(13) 0.3447(12) 0.0403(10)
F24? F 0.7436(13) 0.2455(8) -0.0479(6)
F25? F 0.9049(9) 0.3942(7) -0.0475(6)
F26? F 0.8846(15) 0.4077(11) -0.1920(7)
F27? F 0.9941(14) 0.2869(15) -0.1382(15)
F28? F 0.8253(16) 0.2987(11) -0.1794(7)
F63? F 0.129(3) 1.021(2) 0.2490(13)
F64? F -0.0286(18) 1.0116(10) 0.2029(10)
F65? F 0.257(2) 0.976(3) 0.1922(9)
F66? F 0.218(3) 0.8714(16) 0.1663(18)
F67? F 0.0812(19) 0.966(2) 0.0608(10)
F68? F 0.119(3) 1.0912(19) 0.1038(14)
F69? F 0.3168(18) 1.0535(16) 0.0681(9)
loop_
_geom_bond_atom_site_label_1
_geom_bond_atom_site_label_2
_geom_bond_site_symmetry_1
_geom_bond_site_symmetry_2
I1 C8 1_555 1_555
N1 C7 1_555 1_555
N2 C1 1_555 1_555
O1 C5 1_555 1_555
C1 C2 1_555 1_555
C2 H1 1_555 1_555
C3 C2 1_555 1_555
H2 C3 1_555 1_555
C4 C3 1_555 1_555
H3 C4 1_555 1_555
C5 C4 1_555 1_555
C6 O1 1_555 1_555
H4 C6 1_555 1_555
H5 C6 1_555 1_555
H6 C6 1_555 1_555
C7 C1 1_555 1_555
C8 N1 1_555 1_555
C9 N2 1_555 1_555
C10 C9 1_555 1_555
C11 C10 1_555 1_555
C12 C11 1_555 1_555
C13 C12 1_555 1_555
C14 C13 1_555 1_555
C15 C14 1_555 1_555
C16 C15 1_555 1_555
C17 C16 1_555 1_555
F1 C10 1_555 1_555
F2 C10 1_555 1_555
F3 C11 1_555 1_555
F4 C11 1_555 1_555
F5 C12 1_555 1_555
F6 C12 1_555 1_555
F7 C13 1_555 1_555
F8 C13 1_555 1_555
F9 C14 1_555 1_555
F10 C14 1_555 1_555
F11 C15 1_555 1_555
F12 C15 1_555 1_555
F13 C16 1_555 1_555
F14 C16 1_555 1_555
F15 C17 1_555 1_555
F16 C17 1_555 1_555
F17 C17 1_555 1_555
I2 C25 1_555 1_555
N3 C24 1_555 1_555
N4 C18 1_555 1_555
O2 C22 1_555 1_555
C18 C19 1_555 1_555
C19 H7 1_555 1_555
C20 C19 1_555 1_555
H8 C20 1_555 1_555
C21 C20 1_555 1_555
H9 C21 1_555 1_555
C22 C21 1_555 1_555
C23 O2 1_555 1_555
H10 C23 1_555 1_555
H11 C23 1_555 1_555
H12 C23 1_555 1_555
C24 C18 1_555 1_555
C25 N3 1_555 1_555
C26 N4 1_555 1_555
C27 C26 1_555 1_555
C28 C27 1_555 1_555
C29 C28 1_555 1_555
C30 C29 1_555 1_555
C31 C30 1_555 1_555
C32 C31 1_555 1_555
C33 C32 1_555 1_555
C34 C33 1_555 1_555
F29 C27 1_555 1_555
F30 C27 1_555 1_555
F31 C28 1_555 1_555
F32 C28 1_555 1_555
F33 C29 1_555 1_555
F34 C29 1_555 1_555
F35 C30 1_555 1_555
F36 C30 1_555 1_555
F37 C31 1_555 1_555
F38 C31 1_555 1_555
F39 C32 1_555 1_555
F40 C32 1_555 1_555
F41 C33 1_555 1_555
F42 C33 1_555 1_555
F43 C34 1_555 1_555
F44 C34 1_555 1_555
F45 C34 1_555 1_555
I3 C42 1_555 1_555
N5 C41 1_555 1_555
N6 C35 1_555 1_555
O3 C39 1_555 1_555
C35 C36 1_555 1_555
C36 H13 1_555 1_555
C37 C36 1_555 1_555
H14 C37 1_555 1_555
C38 C37 1_555 1_555
H15 C38 1_555 1_555
C39 C38 1_555 1_555
C40 O3 1_555 1_555
H16 C40 1_555 1_555
H17 C40 1_555 1_555
H18 C40 1_555 1_555
C41 C35 1_555 1_555
C42 N5 1_555 1_555
C43 N6 1_555 1_555
C44 C43 1_555 1_555
C45 C44 1_555 1_555
C46 C45 1_555 1_555
C47 C46 1_555 1_555
C48 C47 1_555 1_555
C49 C48 1_555 1_555
C50 C49 1_555 1_555
C51 C50 1_555 1_555
F46 C44 1_555 1_555
F47 C44 1_555 1_555
F48 C45 1_555 1_555
F49 C45 1_555 1_555
F50 C46 1_555 1_555
F51 C46 1_555 1_555
F52 C47 1_555 1_555
F53 C47 1_555 1_555
F54 C48 1_555 1_555
F55 C48 1_555 1_555
F56 C49 1_555 1_555
F57 C49 1_555 1_555
F58 C50 1_555 1_555
F59 C50 1_555 1_555
F60 C51 1_555 1_555
F61 C51 1_555 1_555
F62 C51 1_555 1_555
C5 C7 1_555 1_555
C8 C9 1_555 1_555
C22 C24 1_555 1_555
C25 C26 1_555 1_555
C39 C41 1_555 1_555
C42 C43 1_555 1_555

#END
