
#######################################################################
#
#                 Cambridge Crystallographic Data Centre
#                                CCDC 
#
#######################################################################
#
# If this CIF has been generated from an entry in the Cambridge 
# Structural Database, then it will include bibliographic, chemical, 
# crystal, experimental, refinement or atomic coordinate data resulting 
# from the CCDC's data processing and validation procedures.
#
#######################################################################

data_OWALIJ
_chemical_formula_moiety         'C27 H24 O1'
_chemical_name_systematic        
2,5-dimethyl-3,4-diphenyl-2-(phenylethynyl)cyclopentan-1-one
_symmetry_cell_setting           monoclinic
_symmetry_space_group_name_H-M   'P 21/n'
_symmetry_Int_Tables_number      14
_space_group_name_Hall           '-P 2yn'
loop_
_symmetry_equiv_pos_site_id
_symmetry_equiv_pos_as_xyz
1 x,y,z
2 1/2-x,1/2+y,1/2-z
3 -x,-y,-z
4 1/2+x,1/2-y,1/2+z
_cell_length_a                   10.3208(8)
_cell_length_b                   20.0258(14)
_cell_length_c                   10.8041(8)
_cell_angle_alpha                90
_cell_angle_beta                 113.010(2)
_cell_angle_gamma                90
_cell_volume                     2055.35
_exptl_crystal_colour            colorless
_exptl_crystal_description       plate
_cell_formula_units_Z            4
loop_
_atom_site_label
_atom_site_type_symbol
_atom_site_fract_x
_atom_site_fract_y
_atom_site_fract_z
C1 C -0.05071(13) 1.00225(6) 0.32177(13)
C2 C -0.04963(13) 0.92703(6) 0.30631(13)
H1 H -0.0286 0.9068 0.3968
C3 C 0.07681(13) 0.91229(6) 0.26783(13)
H2 H 0.0429 0.9143 0.1676
C4 C 0.17757(13) 0.97183(6) 0.32664(13)
H3 H 0.2224 0.9657 0.4263
C5 C 0.07500(14) 1.03270(6) 0.29812(13)
C6 C -0.19069(14) 0.89913(6) 0.21007(15)
H4 H -0.2638 0.9102 0.2434
H5 H -0.1838 0.8505 0.2043
H6 H -0.2151 0.9188 0.1207
C7 C 0.14032(14) 0.84379(6) 0.31287(14)
C8 C 0.20986(15) 0.82900(6) 0.44916(14)
H7 H 0.2205 0.8627 0.5142
C9 C 0.26376(16) 0.76555(7) 0.49110(16)
H8 H 0.3122 0.7563 0.5842
C10 C 0.24672(18) 0.71579(7) 0.39683(17)
H9 H 0.2826 0.6722 0.4252
C11 C 0.17733(18) 0.72967(7) 0.26114(17)
H10 H 0.1654 0.6956 0.1964
C12 C 0.12515(15) 0.79334(6) 0.21956(15)
H11 H 0.0785 0.8026 0.1263
C13 C 0.29492(14) 0.98112(6) 0.27670(14)
C14 C 0.30355(15) 0.94422(7) 0.17087(15)
H12 H 0.2357 0.9105 0.1292
C15 C 0.41078(17) 0.95614(8) 0.12524(17)
H13 H 0.4156 0.9304 0.0533
C16 C 0.50978(16) 1.00518(8) 0.18426(17)
H14 H 0.5816 1.0138 0.152
C17 C 0.50386(16) 1.04159(8) 0.29055(17)
H15 H 0.5722 1.0752 0.3318
C18 C 0.39842(15) 1.02936(7) 0.33754(15)
H16 H 0.3966 1.0541 0.4119
C19 C 0.01840(15) 1.05456(6) 0.14877(13)
H17 H -0.0451 1.0927 0.1353
H18 H -0.0329 1.0174 0.0915
H19 H 0.0974 1.0674 0.125
C20 C 0.13384(14) 1.09057(6) 0.38599(14)
C21 C 0.17594(14) 1.13869(6) 0.45477(14)
C22 C 0.22526(15) 1.19651(6) 0.53981(14)
C23 C 0.36947(16) 1.20764(7) 0.60958(15)
H20 H 0.436 1.1779 0.5989
C24 C 0.41500(18) 1.26241(8) 0.69454(17)
H21 H 0.5129 1.27 0.7419
C25 C 0.31870(19) 1.30585(7) 0.71050(16)
H22 H 0.3507 1.3429 0.7696
C26 C 0.17601(18) 1.29566(7) 0.64093(17)
H23 H 0.1103 1.3259 0.6516
C27 C 0.12852(17) 1.24109(7) 0.55528(15)
H24 H 0.0304 1.2342 0.5074
O1 O -0.13669(10) 1.03387(4) 0.34809(10)
loop_
_geom_bond_atom_site_label_1
_geom_bond_atom_site_label_2
_geom_bond_site_symmetry_1
_geom_bond_site_symmetry_2
C1 C2 1_555 1_555
C2 H1 1_555 1_555
C3 C2 1_555 1_555
H2 C3 1_555 1_555
C4 C3 1_555 1_555
H3 C4 1_555 1_555
C5 C1 1_555 1_555
C6 C2 1_555 1_555
H4 C6 1_555 1_555
H5 C6 1_555 1_555
H6 C6 1_555 1_555
C7 C3 1_555 1_555
C8 C7 1_555 1_555
H7 C8 1_555 1_555
C9 C8 1_555 1_555
H8 C9 1_555 1_555
C10 C9 1_555 1_555
H9 C10 1_555 1_555
C11 C10 1_555 1_555
H10 C11 1_555 1_555
C12 C7 1_555 1_555
H11 C12 1_555 1_555
C13 C4 1_555 1_555
C14 C13 1_555 1_555
H12 C14 1_555 1_555
C15 C14 1_555 1_555
H13 C15 1_555 1_555
C16 C15 1_555 1_555
H14 C16 1_555 1_555
C17 C16 1_555 1_555
H15 C17 1_555 1_555
C18 C13 1_555 1_555
H16 C18 1_555 1_555
C19 C5 1_555 1_555
H17 C19 1_555 1_555
H18 C19 1_555 1_555
H19 C19 1_555 1_555
C20 C5 1_555 1_555
C21 C20 1_555 1_555
C22 C21 1_555 1_555
C23 C22 1_555 1_555
H20 C23 1_555 1_555
C24 C23 1_555 1_555
H21 C24 1_555 1_555
C25 C24 1_555 1_555
H22 C25 1_555 1_555
C26 C25 1_555 1_555
H23 C26 1_555 1_555
C27 C22 1_555 1_555
H24 C27 1_555 1_555
O1 C1 1_555 1_555
C4 C5 1_555 1_555
C11 C12 1_555 1_555
C17 C18 1_555 1_555
C26 C27 1_555 1_555

#END
