
#######################################################################
#
#                 Cambridge Crystallographic Data Centre
#                                CCDC 
#
#######################################################################
#
# If this CIF has been generated from an entry in the Cambridge 
# Structural Database, then it will include bibliographic, chemical, 
# crystal, experimental, refinement or atomic coordinate data resulting 
# from the CCDC's data processing and validation procedures.
#
#######################################################################

data_OWAWOA
_chemical_formula_moiety         'C15 H12 Br1 N1 O5 S1'
_chemical_name_systematic        
'4-bromophenyl (R)-(2,2-dioxido-3,4-dihydro-1,2,3-benzoxathiazin-4-yl)acetate'
_symmetry_cell_setting           monoclinic
_symmetry_space_group_name_H-M   'P 21'
_symmetry_Int_Tables_number      4
_space_group_name_Hall           'P 2yb'
loop_
_symmetry_equiv_pos_site_id
_symmetry_equiv_pos_as_xyz
1 x,y,z
2 -x,1/2+y,-z
_cell_length_a                   8.962(9)
_cell_length_b                   7.654(7)
_cell_length_c                   11.568(12)
_cell_angle_alpha                90
_cell_angle_beta                 101.058(9)
_cell_angle_gamma                90
_cell_volume                     778.776
_exptl_crystal_colour            colorless
_exptl_crystal_description       needle
_cell_formula_units_Z            2
loop_
_atom_site_label
_atom_site_type_symbol
_atom_site_fract_x
_atom_site_fract_y
_atom_site_fract_z
C1 C -0.0755(12) 0.5062(13) 0.3384(9)
C2 C -0.0452(13) 0.4189(16) 0.4469(9)
H1 H -0.1249 0.3743 0.4788
C3 C 0.1002(12) 0.3994(15) 0.5054(9)
H2 H 0.1206 0.3509 0.5805
C4 C 0.2181(11) 0.4528(12) 0.4513(8)
C5 C 0.1948(13) 0.5304(17) 0.3424(10)
H3 H 0.2771 0.5628 0.3090
C6 C 0.0500(13) 0.5595(18) 0.2838(9)
H4 H 0.0320 0.6126 0.2101
C7 C 0.4351(10) 0.5393(18) 0.5888(8)
C8 C 0.5994(10) 0.4838(14) 0.6395(9)
H5 H 0.6662 0.5232 0.5880
H6 H 0.6056 0.3575 0.6447
C9 C 0.6502(8) 0.5648(15) 0.7636(7)
H7 H 0.6399 0.6917 0.7542
C10 C 0.8160(9) 0.5287(13) 0.8143(7)
C11 C 0.9282(10) 0.5880(13) 0.7580(8)
H8 H 0.9018 0.6518 0.6887
C12 C 1.0832(11) 0.5532(19) 0.8042(10)
H9 H 1.1567 0.5878 0.7622
C13 C 1.1254(11) 0.4714(15) 0.9071(10)
H10 H 1.2283 0.4549 0.9376
C14 C 1.0164(11) 0.4095(14) 0.9702(9)
H11 H 1.0441 0.3523 1.0420
C15 C 0.8661(9) 0.4388(12) 0.9193(8)
N1 N 0.5480(8) 0.5107(9) 0.8450(7)
O1 O 0.3707(8) 0.4152(11) 0.5092(7)
O2 O 0.3753(11) 0.6671(13) 0.6068(10)
O3 O 0.7636(8) 0.3786(10) 0.9913(6)
O4 O 0.6090(9) 0.1964(10) 0.8419(7)
O5 O 0.5031(11) 0.3173(14) 1.0062(8)
S1 S 0.5953(3) 0.3363(3) 0.9204(2)
Br1 Br -0.27876(13) 0.55343(19) 0.26196(11)
loop_
_geom_bond_atom_site_label_1
_geom_bond_atom_site_label_2
_geom_bond_site_symmetry_1
_geom_bond_site_symmetry_2
C1 C2 1_555 1_555
C2 H1 1_555 1_555
C3 C2 1_555 1_555
H2 C3 1_555 1_555
C4 C3 1_555 1_555
C5 C4 1_555 1_555
H3 C5 1_555 1_555
C6 C1 1_555 1_555
H4 C6 1_555 1_555
C7 C8 1_555 1_555
C8 H5 1_555 1_555
H6 C8 1_555 1_555
C9 C8 1_555 1_555
H7 C9 1_555 1_555
C10 C9 1_555 1_555
C11 C10 1_555 1_555
H8 C11 1_555 1_555
C12 C11 1_555 1_555
H9 C12 1_555 1_555
C13 C12 1_555 1_555
H10 C13 1_555 1_555
C14 C13 1_555 1_555
H11 C14 1_555 1_555
C15 C10 1_555 1_555
N1 C9 1_555 1_555
O1 C4 1_555 1_555
O2 C7 1_555 1_555
O3 C15 1_555 1_555
O4 S1 1_555 1_555
O5 S1 1_555 1_555
S1 N1 1_555 1_555
Br1 C1 1_555 1_555
C5 C6 1_555 1_555
C7 O1 1_555 1_555
C14 C15 1_555 1_555
O3 S1 1_555 1_555

#END
