
#######################################################################
#
#                 Cambridge Crystallographic Data Centre
#                                CCDC 
#
#######################################################################
#
# If this CIF has been generated from an entry in the Cambridge 
# Structural Database, then it will include bibliographic, chemical, 
# crystal, experimental, refinement or atomic coordinate data resulting 
# from the CCDC's data processing and validation procedures.
#
#######################################################################

data_OWAYOC
_chemical_formula_moiety         'C28 H36 S7 Si4,3(H2 O1)'
_chemical_name_systematic        
"bisthieno[3'',4'':4',5']thieno[2',3':4,5]thieno[2,3-b:3',2'-d]thiene-1,3,7,9-tetrayltetrakis(trimethylsilane) trihydrate"
_symmetry_cell_setting           orthorhombic
_symmetry_space_group_name_H-M   'P n m a'
_symmetry_Int_Tables_number      62
_space_group_name_Hall           '-P 2ac 2n'
loop_
_symmetry_equiv_pos_site_id
_symmetry_equiv_pos_as_xyz
1 x,y,z
2 1/2-x,-y,1/2+z
3 -x,1/2+y,-z
4 1/2+x,1/2-y,1/2-z
5 -x,-y,-z
6 1/2+x,y,1/2-z
7 x,1/2-y,z
8 1/2-x,1/2+y,1/2+z
_cell_length_a                   11.669(2)
_cell_length_b                   33.953(7)
_cell_length_c                   10.210(2)
_cell_angle_alpha                90
_cell_angle_beta                 90
_cell_angle_gamma                90
_cell_volume                     4045.18
_exptl_crystal_colour            colorless
_exptl_crystal_description       block
_cell_formula_units_Z            4
loop_
_atom_site_label
_atom_site_type_symbol
_atom_site_fract_x
_atom_site_fract_y
_atom_site_fract_z
S1 S 0.66950(12) 0.42923(4) 1.01916(15)
S2 S 0.69480(13) 0.30472(4) 1.02430(15)
S3 S 0.93634(15) 0.33637(4) 0.73670(18)
S4 S 1.0046(2) 0.2500 0.6587(3)
Si1 Si 0.85255(14) 0.44736(5) 0.80698(17)
Si2 Si 0.52390(15) 0.37849(5) 1.21610(17)
C1 C 0.7954(7) 0.49745(19) 0.8380(9)
H1 H 0.7160 0.4984 0.8138
H2 H 0.8376 0.5163 0.7870
H3 H 0.8032 0.5036 0.9294
C2 C 1.0061(6) 0.4447(2) 0.8514(8)
H4 H 1.0345 0.4187 0.8341
H5 H 1.0151 0.4507 0.9427
H6 H 1.0484 0.4635 0.8003
C3 C 0.8375(7) 0.4353(2) 0.6319(7)
H7 H 0.7581 0.4366 0.6076
H8 H 0.8660 0.4093 0.6162
H9 H 0.8804 0.4539 0.5807
C4 C 0.7706(5) 0.41213(15) 0.9095(5)
C5 C 0.7722(4) 0.37143(15) 0.9191(5)
C6 C 0.6929(4) 0.35627(15) 1.0133(5)
C7 C 0.6293(5) 0.38395(16) 1.0796(5)
C8 C 0.6057(7) 0.3724(3) 1.3685(7)
H10 H 0.6517 0.3955 1.3833
H11 H 0.6545 0.3498 1.3613
H12 H 0.5538 0.3689 1.4404
C9 C 0.4355(6) 0.4235(2) 1.2278(8)
H13 H 0.4838 0.4456 1.2471
H14 H 0.3799 0.4203 1.2964
H15 H 0.3969 0.4278 1.1461
C10 C 0.4334(7) 0.3346(3) 1.1797(9)
H16 H 0.3781 0.3311 1.2484
H17 H 0.4811 0.3116 1.1741
H18 H 0.3943 0.3384 1.0979
C11 C 0.8320(5) 0.33958(15) 0.8583(6)
C12 C 0.7997(5) 0.30296(16) 0.9025(6)
C13 C 0.8566(5) 0.27133(16) 0.8390(6)
C14 C 0.9320(6) 0.28554(16) 0.7466(7)
S1F S 0.66950(12) 0.07077(4) 1.01916(15)
S2F S 0.69480(13) 0.19528(4) 1.02430(15)
S3F S 0.93634(15) 0.16363(4) 0.73670(18)
Si1F Si 0.85255(14) 0.05264(5) 0.80698(17)
Si2F Si 0.52390(15) 0.12151(5) 1.21610(17)
C1F C 0.7954(7) 0.00255(19) 0.8380(9)
H1F H 0.7160 0.0016 0.8138
H2F H 0.8376 -0.0163 0.7870
H3F H 0.8032 -0.0036 0.9294
C2F C 1.0061(6) 0.0553(2) 0.8514(8)
H4F H 1.0345 0.0813 0.8341
H5F H 1.0151 0.0493 0.9427
H6F H 1.0484 0.0365 0.8003
C3F C 0.8375(7) 0.0647(2) 0.6319(7)
H7F H 0.7581 0.0634 0.6076
H8F H 0.8660 0.0907 0.6162
H9F H 0.8804 0.0461 0.5807
C4F C 0.7706(5) 0.08787(15) 0.9095(5)
C5F C 0.7722(4) 0.12857(15) 0.9191(5)
C6F C 0.6929(4) 0.14373(15) 1.0133(5)
C7F C 0.6293(5) 0.11605(16) 1.0796(5)
C8F C 0.6057(7) 0.1276(3) 1.3685(7)
H10F H 0.6517 0.1045 1.3833
H11F H 0.6545 0.1502 1.3613
H12F H 0.5538 0.1311 1.4404
C9F C 0.4355(6) 0.0765(2) 1.2278(8)
H13F H 0.4838 0.0544 1.2471
H14F H 0.3799 0.0797 1.2964
H15F H 0.3969 0.0722 1.1461
C10F C 0.4334(7) 0.1654(3) 1.1797(9)
H16F H 0.3781 0.1689 1.2484
H17F H 0.4811 0.1884 1.1741
H18F H 0.3943 0.1616 1.0979
C11F C 0.8320(5) 0.16042(15) 0.8583(6)
C12F C 0.7997(5) 0.19704(16) 0.9025(6)
C13F C 0.8566(5) 0.22867(16) 0.8390(6)
C14F C 0.9320(6) 0.21446(16) 0.7466(7)
O1 O 0.5301(15) 0.2500 1.3779(13)
O2 O 0.7164(12) 0.2500 1.3360(9)
O3 O 0.6868(5) 0.29255(13) 1.5699(4)
loop_
_geom_bond_atom_site_label_1
_geom_bond_atom_site_label_2
_geom_bond_site_symmetry_1
_geom_bond_site_symmetry_2
S1 C4 1_555 1_555
S2 C6 1_555 1_555
S3 C11 1_555 1_555
S4 C14 1_555 1_555
Si1 C1 1_555 1_555
Si2 C7 1_555 1_555
C1 H1 1_555 1_555
H2 C1 1_555 1_555
H3 C1 1_555 1_555
C2 Si1 1_555 1_555
H4 C2 1_555 1_555
H5 C2 1_555 1_555
H6 C2 1_555 1_555
C3 Si1 1_555 1_555
H7 C3 1_555 1_555
H8 C3 1_555 1_555
H9 C3 1_555 1_555
C4 Si1 1_555 1_555
C5 C4 1_555 1_555
C6 C5 1_555 1_555
C7 S1 1_555 1_555
C8 Si2 1_555 1_555
H10 C8 1_555 1_555
H11 C8 1_555 1_555
H12 C8 1_555 1_555
C9 Si2 1_555 1_555
H13 C9 1_555 1_555
H14 C9 1_555 1_555
H15 C9 1_555 1_555
C10 Si2 1_555 1_555
H16 C10 1_555 1_555
H17 C10 1_555 1_555
H18 C10 1_555 1_555
C11 C5 1_555 1_555
C12 S2 1_555 1_555
C13 C12 1_555 1_555
C14 S3 1_555 1_555
S1F C4F 1_555 1_555
S2F C6F 1_555 1_555
S3F C11F 1_555 1_555
Si1F C1F 1_555 1_555
Si2F C7F 1_555 1_555
C1F H1F 1_555 1_555
H2F C1F 1_555 1_555
H3F C1F 1_555 1_555
C2F Si1F 1_555 1_555
H4F C2F 1_555 1_555
H5F C2F 1_555 1_555
H6F C2F 1_555 1_555
C3F Si1F 1_555 1_555
H7F C3F 1_555 1_555
H8F C3F 1_555 1_555
H9F C3F 1_555 1_555
C4F Si1F 1_555 1_555
C5F C4F 1_555 1_555
C6F C5F 1_555 1_555
C7F S1F 1_555 1_555
C8F Si2F 1_555 1_555
H10F C8F 1_555 1_555
H11F C8F 1_555 1_555
H12F C8F 1_555 1_555
C9F Si2F 1_555 1_555
H13F C9F 1_555 1_555
H14F C9F 1_555 1_555
H15F C9F 1_555 1_555
C10F Si2F 1_555 1_555
H16F C10F 1_555 1_555
H17F C10F 1_555 1_555
H18F C10F 1_555 1_555
C11F C5F 1_555 1_555
C12F S2F 1_555 1_555
C13F C13 1_555 1_555
C14F S4 1_555 1_555
C6 C7 1_555 1_555
C11 C12 1_555 1_555
C13 C14 1_555 1_555
S3F C14F 1_555 1_555
C6F C7F 1_555 1_555
C11F C12F 1_555 1_555
C12F C13F 1_555 1_555
C13F C14F 1_555 1_555

#END
