
#######################################################################
#
#                 Cambridge Crystallographic Data Centre
#                                CCDC 
#
#######################################################################
#
# If this CIF has been generated from an entry in the Cambridge 
# Structural Database, then it will include bibliographic, chemical, 
# crystal, experimental, refinement or atomic coordinate data resulting 
# from the CCDC's data processing and validation procedures.
#
#######################################################################

data_OWAZIX
_chemical_formula_moiety         'C14 H20 S3 Si2'
_chemical_name_systematic        
bisthieno[3,2-b:3',4'-d]thiene-5,7-diylbis(trimethylsilane)
_symmetry_cell_setting           orthorhombic
_symmetry_space_group_name_H-M   'P b c n'
_symmetry_Int_Tables_number      60
_space_group_name_Hall           '-P 2n 2ab'
loop_
_symmetry_equiv_pos_site_id
_symmetry_equiv_pos_as_xyz
1 x,y,z
2 1/2-x,1/2-y,1/2+z
3 -x,y,1/2-z
4 1/2+x,1/2-y,-z
5 -x,-y,-z
6 1/2+x,1/2+y,1/2-z
7 x,-y,1/2+z
8 1/2-x,1/2+y,z
_cell_length_a                   32.516(7)
_cell_length_b                   10.235(2)
_cell_length_c                   11.456(2)
_cell_angle_alpha                90
_cell_angle_beta                 90
_cell_angle_gamma                90
_cell_volume                     3812.57
_exptl_crystal_colour            colorless
_exptl_crystal_description       block
_cell_formula_units_Z            8
loop_
_atom_site_label
_atom_site_type_symbol
_atom_site_fract_x
_atom_site_fract_y
_atom_site_fract_z
S1 S 0.10210(6) 0.48274(17) 0.37730(14)
S2 S 0.04476(4) 0.23593(14) 0.61819(12)
S3 S 0.16840(4) 0.23203(13) 0.73666(11)
Si1 Si 0.20544(5) 0.42570(17) 0.55519(13)
Si2 Si 0.10142(6) 0.0616(2) 0.86036(15)
C1 C 0.16119(15) 0.3334(4) 0.6188(4)
C2 C 0.12068(14) 0.3282(4) 0.5873(3)
C3 C 0.09441(17) 0.3823(5) 0.4964(4)
C4 C 0.05456(17) 0.3439(5) 0.5013(5)
C5 C 0.11774(16) 0.1820(5) 0.7467(4)
C6 C 0.09643(15) 0.2420(4) 0.6594(4)
C7 C 0.0513(2) 0.4681(7) 0.3386(7)
H1 H 0.0401 0.5084 0.2731
C8 C 0.0291(2) 0.3927(6) 0.4119(6)
H2 H 0.0011 0.3756 0.4046
C9 C 0.2504(2) 0.4078(8) 0.6526(6)
H3 H 0.2733 0.4548 0.6205
H4 H 0.2574 0.3170 0.6594
H5 H 0.2439 0.4421 0.7283
C10 C 0.1910(3) 0.6000(7) 0.5442(7)
H6 H 0.2134 0.6487 0.5116
H7 H 0.1846 0.6332 0.6205
H8 H 0.1673 0.6086 0.4948
C11 C 0.2172(2) 0.3565(10) 0.4095(6)
H9 H 0.2399 0.4029 0.3756
H10 H 0.1935 0.3649 0.3599
H11 H 0.2242 0.2658 0.4174
C12 C 0.0697(4) -0.0582(12) 0.7971(11)
H12 H 0.0613 -0.1196 0.8559
H13 H 0.0846 -0.1031 0.7369
H14 H 0.0458 -0.0173 0.7640
C13 C 0.0659(3) 0.1493(13) 0.9598(9)
H15 H 0.0566 0.0908 1.0198
H16 H 0.0426 0.1807 0.9163
H17 H 0.0799 0.2218 0.9948
C14 C 0.1460(3) 0.0133(11) 0.9471(9)
H18 H 0.1377 -0.0486 1.0055
H19 H 0.1576 0.0889 0.9842
H20 H 0.1662 -0.0260 0.8972
loop_
_geom_bond_atom_site_label_1
_geom_bond_atom_site_label_2
_geom_bond_site_symmetry_1
_geom_bond_site_symmetry_2
S1 C3 1_555 1_555
S2 C4 1_555 1_555
S3 C1 1_555 1_555
Si1 C1 1_555 1_555
Si2 C5 1_555 1_555
C1 C2 1_555 1_555
C2 C3 1_555 1_555
C3 C4 1_555 1_555
C4 C8 1_555 1_555
C5 S3 1_555 1_555
C6 S2 1_555 1_555
C7 S1 1_555 1_555
H1 C7 1_555 1_555
C8 C7 1_555 1_555
H2 C8 1_555 1_555
C9 Si1 1_555 1_555
H3 C9 1_555 1_555
H4 C9 1_555 1_555
H5 C9 1_555 1_555
C10 Si1 1_555 1_555
H6 C10 1_555 1_555
H7 C10 1_555 1_555
H8 C10 1_555 1_555
C11 Si1 1_555 1_555
H9 C11 1_555 1_555
H10 C11 1_555 1_555
H11 C11 1_555 1_555
C12 Si2 1_555 1_555
H12 C12 1_555 1_555
H13 C12 1_555 1_555
H14 C12 1_555 1_555
C13 Si2 1_555 1_555
H15 C13 1_555 1_555
H16 C13 1_555 1_555
H17 C13 1_555 1_555
C14 Si2 1_555 1_555
H18 C14 1_555 1_555
H19 C14 1_555 1_555
H20 C14 1_555 1_555
C2 C6 1_555 1_555
C5 C6 1_555 1_555

#END
