
#######################################################################
#
#                 Cambridge Crystallographic Data Centre
#                                CCDC 
#
#######################################################################
#
# If this CIF has been generated from an entry in the Cambridge 
# Structural Database, then it will include bibliographic, chemical, 
# crystal, experimental, refinement or atomic coordinate data resulting 
# from the CCDC's data processing and validation procedures.
#
#######################################################################

data_OWAZET
_chemical_formula_moiety         'C14 H21 Br1 S3 Si2'
_chemical_name_systematic        
(3-bromo-4-(3-thienylsulfanyl)thiene-2,5-diyl)bis(trimethylsilane)
_symmetry_cell_setting           monoclinic
_symmetry_space_group_name_H-M   'P 21/c'
_symmetry_Int_Tables_number      14
_space_group_name_Hall           '-P 2ybc'
loop_
_symmetry_equiv_pos_site_id
_symmetry_equiv_pos_as_xyz
1 x,y,z
2 -x,1/2+y,1/2-z
3 -x,-y,-z
4 x,1/2-y,1/2+z
_cell_length_a                   16.786(11)
_cell_length_b                   10.680(7)
_cell_length_c                   11.708(8)
_cell_angle_alpha                90
_cell_angle_beta                 101.359(12)
_cell_angle_gamma                90
_cell_volume                     2057.83
_cell_formula_units_Z            4
loop_
_atom_site_label
_atom_site_type_symbol
_atom_site_fract_x
_atom_site_fract_y
_atom_site_fract_z
Br1 Br 0.40372(2) 0.56409(4) 0.91150(4)
C1 C 0.29204(18) 0.5251(3) 0.8757(2)
C2 C 0.25929(18) 0.4405(3) 0.7852(2)
C3 C 0.17750(19) 0.4238(3) 0.7739(2)
C4 C 0.23778(19) 0.5743(3) 0.9358(3)
C5 C 0.3292(4) 0.6321(5) 1.1807(4)
H1 H 0.3367 0.6914 1.2435
H2 H 0.3797 0.6203 1.1553
H3 H 0.3114 0.5537 1.2069
C6 C 0.2834(4) 0.8415(4) 1.0020(4)
H4 H 0.2910 0.9030 1.0629
H5 H 0.2420 0.8695 0.9384
H6 H 0.3334 0.8298 0.9753
C7 C 0.1537(3) 0.7109(4) 1.1038(4)
H7 H 0.1594 0.7704 1.1664
H8 H 0.1366 0.6318 1.1296
H9 H 0.1138 0.7406 1.0391
C8 C 0.0039(3) 0.3410(5) 0.7094(4)
H10 H -0.0127 0.4270 0.6997
H11 H 0.0067 0.3164 0.7889
H12 H -0.0347 0.2892 0.6592
C9 C 0.1388(4) 0.1558(4) 0.6897(4)
H13 H 0.1017 0.1040 0.6372
H14 H 0.1396 0.1298 0.7684
H15 H 0.1923 0.1480 0.6730
C10 C 0.1031(3) 0.3733(5) 0.5199(3)
H16 H 0.0854 0.4588 0.5107
H17 H 0.0662 0.3212 0.4673
H18 H 0.1566 0.3663 0.5030
C11 C 0.37397(19) 0.2587(3) 0.7823(3)
C12 C 0.3601(2) 0.2130(4) 0.8847(3)
H19 H 0.3163 0.2364 0.9177
C13 C 0.4829(2) 0.1163(3) 0.8387(3)
H20 H 0.5297 0.0711 0.8351
C14 C 0.4428(2) 0.2054(4) 0.7520(3)
H21 H 0.4610 0.2245 0.6840
S1 S 0.14400(5) 0.51485(7) 0.87630(6)
S2 S 0.31510(6) 0.36842(8) 0.69001(7)
S3 S 0.43088(8) 0.10932(12) 0.94485(10)
Si1 Si 0.25194(7) 0.69176(9) 1.05829(8)
Si2 Si 0.10514(7) 0.32255(9) 0.67131(8)
loop_
_geom_bond_atom_site_label_1
_geom_bond_atom_site_label_2
_geom_bond_site_symmetry_1
_geom_bond_site_symmetry_2
Br1 C1 1_555 1_555
C1 C2 1_555 1_555
C2 C3 1_555 1_555
C3 S1 1_555 1_555
C4 C1 1_555 1_555
C5 H1 1_555 1_555
H2 C5 1_555 1_555
H3 C5 1_555 1_555
C6 H4 1_555 1_555
H5 C6 1_555 1_555
H6 C6 1_555 1_555
C7 H7 1_555 1_555
H8 C7 1_555 1_555
H9 C7 1_555 1_555
C8 H10 1_555 1_555
H11 C8 1_555 1_555
H12 C8 1_555 1_555
C9 H13 1_555 1_555
H14 C9 1_555 1_555
H15 C9 1_555 1_555
C10 H16 1_555 1_555
H17 C10 1_555 1_555
H18 C10 1_555 1_555
C11 C12 1_555 1_555
C12 H19 1_555 1_555
C13 H20 1_555 1_555
C14 C11 1_555 1_555
H21 C14 1_555 1_555
S1 C4 1_555 1_555
S2 C2 1_555 1_555
S3 C12 1_555 1_555
Si1 C4 1_555 1_555
Si2 C3 1_555 1_555
C5 Si1 1_555 1_555
C6 Si1 1_555 1_555
C7 Si1 1_555 1_555
C8 Si2 1_555 1_555
C9 Si2 1_555 1_555
C10 Si2 1_555 1_555
C11 S2 1_555 1_555
C13 C14 1_555 1_555
C13 S3 1_555 1_555

#END
