
#######################################################################
#
#                 Cambridge Crystallographic Data Centre
#                                CCDC 
#
#######################################################################
#
# If this CIF has been generated from an entry in the Cambridge 
# Structural Database, then it will include bibliographic, chemical, 
# crystal, experimental, refinement or atomic coordinate data resulting 
# from the CCDC's data processing and validation procedures.
#
#######################################################################

data_OWECID
_chemical_formula_moiety         'C20 H14 Cl1 N3 O3'
_chemical_name_systematic        
'Benzyl 1-(3-chloropyridin-2-yl)-5-(2-furyl)-1H-pyrazole-3-carboxylate'
_symmetry_cell_setting           monoclinic
_symmetry_space_group_name_H-M   'P 21/n'
_symmetry_Int_Tables_number      14
_space_group_name_Hall           '-P 2yn'
loop_
_symmetry_equiv_pos_site_id
_symmetry_equiv_pos_as_xyz
1 x,y,z
2 1/2-x,1/2+y,1/2-z
3 -x,-y,-z
4 1/2+x,1/2-y,1/2+z
_cell_length_a                   11.176(4)
_cell_length_b                   12.620(4)
_cell_length_c                   25.491(9)
_cell_angle_alpha                90
_cell_angle_beta                 100.172(6)
_cell_angle_gamma                90
_cell_volume                     3538.77
_exptl_crystal_colour            colorless
_exptl_crystal_description       prism
_cell_formula_units_Z            8
loop_
_atom_site_label
_atom_site_type_symbol
_atom_site_fract_x
_atom_site_fract_y
_atom_site_fract_z
Cl1 Cl 0.25050(5) 0.75984(5) 0.16490(2)
O1 O 0.13861(14) 0.72578(13) -0.00608(6)
O2 O -0.25471(13) 0.49272(12) 0.12553(5)
O3 O -0.09608(13) 0.50223(11) 0.19402(5)
N1 N 0.26446(17) 0.54168(15) 0.05389(7)
N2 N 0.09819(15) 0.60985(13) 0.08649(6)
N3 N 0.05251(15) 0.56860(14) 0.12853(6)
C1 C 0.1408(2) 0.75285(18) -0.05778(9)
H1 H 0.2039 0.7894 -0.0691
C2 C 0.0413(2) 0.72015(19) -0.08948(8)
H2 H 0.0221 0.7298 -0.1262
C3 C -0.0316(2) 0.66702(18) -0.05674(8)
H3 H -0.1072 0.6356 -0.0677
C4 C 0.03211(19) 0.67198(16) -0.00679(8)
C5 C 0.00855(18) 0.62868(16) 0.04318(7)
C6 C -0.09914(19) 0.59808(16) 0.05753(8)
H4 H -0.1765 0.6005 0.0369
C7 C -0.06645(18) 0.56210(16) 0.11048(7)
C8 C 0.22648(18) 0.60833(16) 0.08789(7)
C9 C 0.30493(18) 0.67323(16) 0.12189(7)
C10 C 0.42821(19) 0.66820(18) 0.12104(8)
H5 H 0.4828 0.7104 0.1437
C11 C 0.4688(2) 0.59918(19) 0.08583(9)
H6 H 0.5510 0.5934 0.0843
C12 C 0.3830(2) 0.53919(19) 0.05303(9)
H7 H 0.4100 0.4941 0.0287
C13 C -0.15026(18) 0.51590(16) 0.14312(8)
C14 C -0.1670(2) 0.44619(17) 0.22828(8)
H8 H -0.2514 0.4681 0.2198
H9 H -0.1366 0.4636 0.2653
C15 C -0.15773(19) 0.32798(17) 0.22003(7)
C16 C -0.0494(2) 0.27527(18) 0.23944(8)
H10 H 0.0163 0.3124 0.2583
C17 C -0.0394(2) 0.1676(2) 0.23065(9)
H11 H 0.0332 0.1327 0.2434
C18 C -0.1374(3) 0.11160(19) 0.20289(9)
H12 H -0.1300 0.0394 0.1968
C19 C -0.2460(2) 0.16304(19) 0.18421(9)
H13 H -0.3122 0.1253 0.1661
C20 C -0.2557(2) 0.27082(18) 0.19258(8)
H14 H -0.3284 0.3054 0.1797
Cl2 Cl 0.74748(5) -0.23973(5) 0.16039(2)
O4 O 0.44199(15) -0.23803(14) -0.02706(6)
O5 O 0.25614(13) 0.02629(12) 0.12069(5)
O6 O 0.41676(13) 0.02630(12) 0.18862(5)
N4 N 0.78559(18) -0.01864(16) 0.05340(8)
N5 N 0.61100(15) -0.08350(14) 0.08182(6)
N6 N 0.56602(16) -0.03533(14) 0.12159(6)
C21 C 0.4746(3) -0.2897(2) -0.06962(9)
H15 H 0.4242 -0.3351 -0.0923
C22 C 0.5883(3) -0.2660(2) -0.07396(10)
H16 H 0.6302 -0.2905 -0.1000
C23 C 0.6344(2) -0.19517(19) -0.03087(10)
H17 H 0.7122 -0.1665 -0.0229
C24 C 0.5419(2) -0.17903(17) -0.00438(8)
C25 C 0.52131(18) -0.11874(16) 0.04184(7)
C26 C 0.41282(19) -0.09052(16) 0.05665(8)
H18 H 0.3347 -0.1026 0.0380
C27 C 0.44620(18) -0.03965(16) 0.10588(7)
C28 C 0.73991(19) -0.08691(17) 0.08474(8)
C29 C 0.81176(19) -0.15508(16) 0.11947(8)
C30 C 0.93625(19) -0.15448(18) 0.12166(8)
H19 H 0.9864 -0.2000 0.1444
C31 C 0.9844(2) -0.08398(19) 0.08902(9)
H20 H 1.0677 -0.0809 0.0894
C32 C 0.9057(2) -0.0189(2) 0.05615(10)
H21 H 0.9384 0.0281 0.0344
C33 C 0.36143(18) 0.00773(15) 0.13819(8)
C34 C 0.3426(2) 0.07845(17) 0.22266(8)
H22 H 0.3735 0.0612 0.2596
H23 H 0.2596 0.0529 0.2139
C35 C 0.34453(18) 0.19686(16) 0.21524(7)
C36 C 0.4512(2) 0.25365(19) 0.23309(9)
H24 H 0.5212 0.2183 0.2492
C37 C 0.4528(2) 0.3626(2) 0.22676(10)
H25 H 0.5242 0.4001 0.2383
C38 C 0.3488(2) 0.41607(19) 0.20336(9)
H26 H 0.3503 0.4893 0.1996
C39 C 0.2428(2) 0.36065(18) 0.18556(8)
H27 H 0.1727 0.3965 0.1701
C40 C 0.2414(2) 0.25084(17) 0.19094(8)
H28 H 0.1706 0.2134 0.1781
loop_
_geom_bond_atom_site_label_1
_geom_bond_atom_site_label_2
_geom_bond_site_symmetry_1
_geom_bond_site_symmetry_2
Cl1 C9 1_555 1_555
Cl2 C29 1_555 1_555
O1 C1 1_555 1_555
O2 C13 1_555 1_555
O3 C13 1_555 1_555
O4 C21 1_555 1_555
O5 C33 1_555 1_555
O6 C33 1_555 1_555
N1 C8 1_555 1_555
N2 N3 1_555 1_555
N3 C7 1_555 1_555
N4 C28 1_555 1_555
N5 N6 1_555 1_555
N6 C27 1_555 1_555
C1 H1 1_555 1_555
C2 C1 1_555 1_555
H2 C2 1_555 1_555
C3 C2 1_555 1_555
H3 C3 1_555 1_555
C4 O1 1_555 1_555
C5 N2 1_555 1_555
C6 C5 1_555 1_555
H4 C6 1_555 1_555
C7 C6 1_555 1_555
C8 N2 1_555 1_555
C9 C8 1_555 1_555
C10 C9 1_555 1_555
H5 C10 1_555 1_555
C11 C10 1_555 1_555
H6 C11 1_555 1_555
C12 N1 1_555 1_555
H7 C12 1_555 1_555
C13 C7 1_555 1_555
C14 O3 1_555 1_555
H8 C14 1_555 1_555
H9 C14 1_555 1_555
C15 C14 1_555 1_555
C16 C15 1_555 1_555
H10 C16 1_555 1_555
C17 C16 1_555 1_555
H11 C17 1_555 1_555
C18 C17 1_555 1_555
H12 C18 1_555 1_555
C19 C18 1_555 1_555
H13 C19 1_555 1_555
C20 C15 1_555 1_555
H14 C20 1_555 1_555
C21 H15 1_555 1_555
C22 C21 1_555 1_555
H16 C22 1_555 1_555
C23 C22 1_555 1_555
H17 C23 1_555 1_555
C24 O4 1_555 1_555
C25 N5 1_555 1_555
C26 C25 1_555 1_555
H18 C26 1_555 1_555
C27 C26 1_555 1_555
C28 N5 1_555 1_555
C29 C28 1_555 1_555
C30 C29 1_555 1_555
H19 C30 1_555 1_555
C31 C30 1_555 1_555
H20 C31 1_555 1_555
C32 N4 1_555 1_555
H21 C32 1_555 1_555
C33 C27 1_555 1_555
C34 O6 1_555 1_555
H22 C34 1_555 1_555
H23 C34 1_555 1_555
C35 C34 1_555 1_555
C36 C35 1_555 1_555
H24 C36 1_555 1_555
C37 C36 1_555 1_555
H25 C37 1_555 1_555
C38 C37 1_555 1_555
H26 C38 1_555 1_555
C39 C38 1_555 1_555
H27 C39 1_555 1_555
C40 C35 1_555 1_555
H28 C40 1_555 1_555
C3 C4 1_555 1_555
C4 C5 1_555 1_555
C11 C12 1_555 1_555
C19 C20 1_555 1_555
C23 C24 1_555 1_555
C24 C25 1_555 1_555
C31 C32 1_555 1_555
C39 C40 1_555 1_555

#END
