
#######################################################################
#
#                 Cambridge Crystallographic Data Centre
#                                CCDC 
#
#######################################################################
#
# If this CIF has been generated from an entry in the Cambridge 
# Structural Database, then it will include bibliographic, chemical, 
# crystal, experimental, refinement or atomic coordinate data resulting 
# from the CCDC's data processing and validation procedures.
#
#######################################################################

data_OWEDAW
_chemical_formula_moiety         'C23 H32 Cl1 N1 O5'
_chemical_name_systematic        
13-((2-(4-Chlorophenoxy)acetoxy)imino)-1-oxacyclohexadecan-2-one
_symmetry_cell_setting           triclinic
_symmetry_space_group_name_H-M   'P -1'
_symmetry_Int_Tables_number      2
_space_group_name_Hall           '-P 1'
loop_
_symmetry_equiv_pos_site_id
_symmetry_equiv_pos_as_xyz
1 x,y,z
2 -x,-y,-z
_cell_length_a                   9.5108(6)
_cell_length_b                   16.052(3)
_cell_length_c                   28.9441(12)
_cell_angle_alpha                90.135(13)
_cell_angle_beta                 90.388(7)
_cell_angle_gamma                90.107(12)
_cell_volume                     4418.7
_cell_formula_units_Z            8
loop_
_atom_site_label
_atom_site_type_symbol
_atom_site_fract_x
_atom_site_fract_y
_atom_site_fract_z
Cl1 Cl 0.3872(2) 0.88902(12) 0.15830(6)
O1 O 0.8771(7) 0.8467(4) -0.1390(2)
O2 O 1.0190(7) 0.8448(4) -0.0808(2)
O3 O 0.8206(5) 1.1491(3) -0.04589(16)
O4 O 0.7921(6) 1.2783(3) -0.01640(19)
O5 O 0.6697(5) 1.0812(3) 0.01434(17)
N1 N 0.9295(6) 1.1840(4) -0.0742(2)
C1 C 0.9891(10) 0.8216(6) -0.1213(3)
C2 C 1.0807(8) 0.7633(5) -0.1474(3)
H1 H 1.1531 0.7416 -0.1269
H2 H 1.0250 0.7166 -0.1586
C3 C 1.1469(9) 0.8057(5) -0.1867(3)
H3 H 1.0736 0.8257 -0.2072
H4 H 1.2024 0.7654 -0.2037
C4 C 1.2414(8) 0.8788(5) -0.1731(2)
H5 H 1.1833 0.9243 -0.1622
H6 H 1.3023 0.8620 -0.1478
C5 C 1.3324(7) 0.9099(4) -0.2132(2)
H7 H 1.3892 0.8637 -0.2239
H8 H 1.3961 0.9521 -0.2013
C6 C 1.2537(8) 0.9464(5) -0.2548(2)
H9 H 1.3217 0.9637 -0.2777
H10 H 1.1954 0.9033 -0.2686
C7 C 1.1636(7) 1.0188(5) -0.2426(3)
H11 H 1.0963 1.0012 -0.2196
H12 H 1.1111 1.0354 -0.2699
C8 C 1.2447(7) 1.0951(5) -0.2239(2)
H13 H 1.2891 1.0804 -0.1948
H14 H 1.3187 1.1093 -0.2454
C9 C 1.1542(8) 1.1700(4) -0.2166(2)
H15 H 1.1093 1.1839 -0.2457
H16 H 1.2144 1.2165 -0.2080
C10 C 1.0410(7) 1.1613(5) -0.1802(2)
H17 H 0.9823 1.2107 -0.1812
H18 H 0.9821 1.1141 -0.1883
C11 C 1.0932(7) 1.1499(4) -0.1318(2)
H19 H 1.1361 1.2014 -0.1211
H20 H 1.1648 1.1070 -0.1314
C12 C 0.9778(8) 1.1261(5) -0.0996(3)
C13 C 0.9314(8) 1.0367(4) -0.1005(2)
H21 H 0.8299 1.0344 -0.1037
H22 H 0.9718 1.0091 -0.1271
C14 C 0.9735(8) 0.9924(5) -0.0586(3)
H23 H 0.9380 1.0227 -0.0321
H24 H 1.0754 0.9929 -0.0565
C15 C 0.9221(9) 0.9003(5) -0.0554(3)
H25 H 0.9183 0.8835 -0.0232
H26 H 0.8282 0.8956 -0.0684
C16 C 0.7655(8) 1.2062(5) -0.0180(3)
C17 C 0.6573(7) 1.1688(4) 0.0123(2)
H27 H 0.6669 1.1918 0.0432
H28 H 0.5646 1.1833 0.0006
C18 C 0.5937(8) 1.0413(5) 0.0475(2)
C19 C 0.5004(7) 1.0772(4) 0.0777(2)
H29 H 0.4806 1.1338 0.0755
C20 C 0.4354(7) 1.0296(4) 0.1117(2)
H30 H 0.3712 1.0538 0.1317
C21 C 0.4674(8) 0.9466(5) 0.1151(2)
C22 C 0.5571(7) 0.9085(5) 0.0850(3)
H31 H 0.5725 0.8514 0.0868
C23 C 0.6245(7) 0.9557(4) 0.0518(2)
H32 H 0.6901 0.9310 0.0325
Cl2 Cl 2.1922(2) 1.59253(12) -0.64160(7)
O6 O 1.5878(5) 1.6602(3) -0.35159(18)
O7 O 1.4012(5) 1.6486(3) -0.39890(18)
O8 O 1.6650(5) 1.3192(3) -0.47213(15)
O9 O 1.7236(5) 1.1885(3) -0.49138(16)
O10 O 1.8347(5) 1.3861(3) -0.52471(16)
N2 N 1.5613(6) 1.2837(4) -0.44126(19)
C24 C 1.4667(9) 1.6782(4) -0.3614(3)
C25 C 1.3748(7) 1.7333(4) -0.3345(2)
H33 H 1.3279 1.7717 -0.3553
H34 H 1.4318 1.7658 -0.3132
C26 C 1.2633(7) 1.6848(4) -0.3071(2)
H35 H 1.1969 1.7238 -0.2939
H36 H 1.2119 1.6483 -0.3280
C27 C 1.3292(8) 1.6332(5) -0.2687(3)
H37 H 1.3769 1.6699 -0.2470
H38 H 1.3986 1.5958 -0.2817
C28 C 1.2168(8) 1.5819(5) -0.2429(3)
H39 H 1.1413 1.6188 -0.2337
H40 H 1.2587 1.5594 -0.2149
C29 C 1.1546(7) 1.5102(4) -0.2712(2)
H41 H 1.0753 1.4864 -0.2550
H42 H 1.1209 1.5311 -0.3007
C30 C 1.2636(7) 1.4437(5) -0.2793(2)
H43 H 1.3072 1.4297 -0.2500
H44 H 1.3362 1.4662 -0.2991
C31 C 1.2064(7) 1.3646(4) -0.3011(2)
H45 H 1.1663 1.3781 -0.3311
H46 H 1.1313 1.3432 -0.2820
C32 C 1.3149(7) 1.2974(4) -0.3073(2)
H47 H 1.2673 1.2467 -0.3169
H48 H 1.3587 1.2866 -0.2776
C33 C 1.4292(7) 1.3164(4) -0.3417(2)
H49 H 1.4706 1.3699 -0.3338
H50 H 1.5022 1.2747 -0.3386
C34 C 1.3839(7) 1.3189(4) -0.3906(2)
H51 H 1.3052 1.3570 -0.3932
H52 H 1.3496 1.2639 -0.3991
C35 C 1.4927(8) 1.3444(4) -0.4252(2)
C36 C 1.5100(7) 1.4363(4) -0.4381(2)
H53 H 1.6095 1.4470 -0.4425
H54 H 1.4638 1.4451 -0.4677
C37 C 1.4550(7) 1.5000(4) -0.4047(2)
H55 H 1.5079 1.4979 -0.3760
H56 H 1.3569 1.4890 -0.3981
C38 C 1.4710(8) 1.5855(4) -0.4271(2)
H57 H 1.5700 1.5991 -0.4299
H58 H 1.4297 1.5846 -0.4578
C39 C 1.7377(8) 1.2619(5) -0.4950(2)
C40 C 1.8450(7) 1.2989(4) -0.5259(2)
H59 H 1.9382 1.2820 -0.5160
H60 H 1.8303 1.2792 -0.5573
C41 C 1.9251(8) 1.4307(5) -0.5536(2)
C42 C 2.0250(8) 1.3977(5) -0.5800(2)
H61 H 2.0371 1.3402 -0.5806
C43 C 2.1122(7) 1.4481(4) -0.6070(2)
H62 H 2.1838 1.4253 -0.6246
C44 C 2.0885(8) 1.5310(4) -0.6064(2)
C45 C 1.9926(8) 1.5661(5) -0.5790(2)
H63 H 1.9825 1.6237 -0.5781
C46 C 1.9094(7) 1.5161(5) -0.5522(2)
H64 H 1.8423 1.5398 -0.5330
Cl3 Cl -0.1125(2) 1.61085(12) 0.15851(7)
O11 O 0.3731(7) 1.6527(4) -0.1392(2)
O12 O 0.5268(7) 1.6591(4) -0.0793(2)
O13 O 0.3184(5) 1.3500(3) -0.04570(16)
O14 O 0.2932(6) 1.2218(3) -0.0161(2)
O15 O 0.1686(5) 1.4197(3) 0.01385(16)
N3 N 0.4307(7) 1.3168(4) -0.0730(2)
C47 C 0.4803(9) 1.6753(6) -0.1199(3)
C48 C 0.5789(7) 1.7352(4) -0.1462(3)
H65 H 0.5253 1.7826 -0.1573
H66 H 0.6510 1.7559 -0.1252
C49 C 0.6480(9) 1.6919(5) -0.1867(3)
H67 H 0.5751 1.6708 -0.2072
H68 H 0.7022 1.7326 -0.2038
C50 C 0.7399(8) 1.6235(5) -0.1738(2)
H69 H 0.6828 1.5775 -0.1629
H70 H 0.7998 1.6414 -0.1484
C51 C 0.8325(7) 1.5926(5) -0.2132(3)
H71 H 0.8875 1.6392 -0.2245
H72 H 0.8977 1.5518 -0.2009
C52 C 0.7527(8) 1.5533(5) -0.2544(3)
H73 H 0.6961 1.5962 -0.2689
H74 H 0.8212 1.5349 -0.2769
C53 C 0.6596(7) 1.4817(4) -0.2434(2)
H75 H 0.6099 1.4644 -0.2712
H76 H 0.5902 1.4992 -0.2210
C54 C 0.7428(7) 1.4069(4) -0.2238(2)
H77 H 0.8197 1.3947 -0.2446
H78 H 0.7838 1.4233 -0.1944
C55 C 0.6571(7) 1.3268(4) -0.2167(2)
H79 H 0.7195 1.2828 -0.2064
H80 H 0.6161 1.3097 -0.2460
C56 C 0.5387(7) 1.3384(4) -0.1810(2)
H81 H 0.4847 1.3875 -0.1891
H82 H 0.4760 1.2908 -0.1826
C57 C 0.5902(7) 1.3475(4) -0.1335(2)
H83 H 0.6653 1.3885 -0.1329
H84 H 0.6298 1.2948 -0.1235
C58 C 0.4792(8) 1.3735(5) -0.0996(2)
C59 C 0.4268(7) 1.4643(4) -0.1002(2)
H85 H 0.4614 1.4922 -0.1275
H86 H 0.3249 1.4650 -0.1012
C60 C 0.4780(7) 1.5091(4) -0.0577(2)
H87 H 0.5800 1.5092 -0.0574
H88 H 0.4466 1.4792 -0.0306
C61 C 0.4241(8) 1.6017(5) -0.0549(2)
H89 H 0.3321 1.6058 -0.0694
H90 H 0.4155 1.6184 -0.0229
C62 C 0.2641(8) 1.2933(5) -0.0177(3)
C63 C 0.1567(8) 1.3307(4) 0.0126(2)
H91 H 0.0639 1.3154 0.0014
H92 H 0.1676 1.3089 0.0436
C64 C 0.0947(8) 1.4583(5) 0.0473(3)
C65 C 0.1218(7) 1.5442(4) 0.0522(2)
H93 H 0.1848 1.5700 0.0324
C66 C 0.0573(7) 1.5900(4) 0.0854(2)
H94 H 0.0760 1.6468 0.0875
C67 C -0.0326(7) 1.5554(4) 0.1151(2)
C68 C -0.0615(7) 1.4685(4) 0.1113(2)
H95 H -0.1241 1.4428 0.1313
C69 C 0.0031(7) 1.4247(5) 0.0784(3)
H96 H -0.0154 1.3679 0.0766
Cl4 Cl 1.6928(2) 0.90769(12) -0.64132(7)
O16 O 1.0867(6) 0.8401(3) -0.35177(19)
O17 O 0.9029(5) 0.8516(3) -0.40008(18)
O18 O 1.1662(5) 1.1819(3) -0.47200(15)
O19 O 1.2226(5) 1.3128(3) -0.49230(16)
O20 O 1.3396(5) 1.1123(3) -0.52424(16)
N4 N 1.0646(6) 1.2147(4) -0.44012(19)
C70 C 0.9658(10) 0.8188(5) -0.3630(3)
C71 C 0.8753(8) 0.7639(5) -0.3350(3)
H97 H 0.9329 0.7328 -0.3133
H98 H 0.8276 0.7243 -0.3551
C72 C 0.7658(8) 0.8152(5) -0.3084(3)
H99 H 0.7210 0.8539 -0.3295
H100 H 0.6937 0.7779 -0.2969
C73 C 0.8280(8) 0.8636(5) -0.2681(3)
H101 H 0.9032 0.8991 -0.2792
H102 H 0.8681 0.8249 -0.2460
C74 C 0.7167(8) 0.9179(5) -0.2439(3)
H103 H 0.6393 0.8817 -0.2353
H104 H 0.7583 0.9387 -0.2154
C75 C 0.6557(7) 0.9910(4) -0.2694(2)
H105 H 0.6154 0.9719 -0.2984
H106 H 0.5807 1.0152 -0.2512
C76 C 0.7645(8) 1.0568(4) -0.2790(2)
H107 H 0.8102 1.0720 -0.2501
H108 H 0.8355 1.0333 -0.2990
C77 C 0.7087(7) 1.1331(5) -0.3007(2)
H109 H 0.6313 1.1532 -0.2821
H110 H 0.6708 1.1184 -0.3308
C78 C 0.8155(8) 1.2062(4) -0.3070(2)
H111 H 0.7654 1.2551 -0.3178
H112 H 0.8581 1.2196 -0.2774
C79 C 0.9306(7) 1.1848(4) -0.3413(2)
H113 H 1.0039 1.2268 -0.3393
H114 H 0.9718 1.1317 -0.3328
C80 C 0.8780(7) 1.1798(4) -0.3907(2)
H115 H 0.8011 1.1401 -0.3923
H116 H 0.8410 1.2338 -0.3996
C81 C 0.9886(8) 1.1545(5) -0.4249(2)
C82 C 1.0090(8) 1.0613(4) -0.4381(3)
H117 H 0.9633 1.0517 -0.4677
H118 H 1.1087 1.0516 -0.4422
C83 C 0.9549(7) 0.9979(4) -0.4047(2)
H119 H 1.0061 1.0016 -0.3757
H120 H 0.8560 1.0073 -0.3987
C84 C 0.9751(9) 0.9154(5) -0.4257(3)
H121 H 0.9399 0.9161 -0.4573
H122 H 1.0747 0.9027 -0.4266
C85 C 1.2367(8) 1.2389(5) -0.4951(2)
C86 C 1.3437(7) 1.2005(4) -0.5261(2)
H123 H 1.3265 1.2184 -0.5576
H124 H 1.4367 1.2197 -0.5171
C87 C 1.4263(8) 1.0706(5) -0.5532(3)
C88 C 1.4129(7) 0.9851(5) -0.5514(2)
H125 H 1.3477 0.9616 -0.5314
C89 C 1.4934(8) 0.9340(4) -0.5783(2)
H126 H 1.4824 0.8765 -0.5768
C90 C 1.5890(8) 0.9677(5) -0.6071(2)
C91 C 1.6044(7) 1.0528(4) -0.6084(2)
H127 H 1.6709 1.0762 -0.6280
C92 C 1.5224(8) 1.1043(5) -0.5811(2)
H128 H 1.5340 1.1618 -0.5822
loop_
_geom_bond_atom_site_label_1
_geom_bond_atom_site_label_2
_geom_bond_site_symmetry_1
_geom_bond_site_symmetry_2
Cl1 C21 1_555 1_555
O1 C1 1_555 1_555
O2 C1 1_555 1_555
O3 N1 1_555 1_555
O4 C16 1_555 1_555
O5 C17 1_555 1_555
N1 C12 1_555 1_555
C1 C2 1_555 1_555
C2 H1 1_555 1_555
H2 C2 1_555 1_555
C3 C2 1_555 1_555
H3 C3 1_555 1_555
H4 C3 1_555 1_555
C4 C3 1_555 1_555
H5 C4 1_555 1_555
H6 C4 1_555 1_555
C5 C4 1_555 1_555
H7 C5 1_555 1_555
H8 C5 1_555 1_555
C6 C5 1_555 1_555
H9 C6 1_555 1_555
H10 C6 1_555 1_555
C7 C6 1_555 1_555
H11 C7 1_555 1_555
H12 C7 1_555 1_555
C8 C7 1_555 1_555
H13 C8 1_555 1_555
H14 C8 1_555 1_555
C9 C8 1_555 1_555
H15 C9 1_555 1_555
H16 C9 1_555 1_555
C10 C9 1_555 1_555
H17 C10 1_555 1_555
H18 C10 1_555 1_555
C11 C10 1_555 1_555
H19 C11 1_555 1_555
H20 C11 1_555 1_555
C12 C11 1_555 1_555
C13 C12 1_555 1_555
H21 C13 1_555 1_555
H22 C13 1_555 1_555
C14 C13 1_555 1_555
H23 C14 1_555 1_555
H24 C14 1_555 1_555
C15 O2 1_555 1_555
H25 C15 1_555 1_555
H26 C15 1_555 1_555
C16 O3 1_555 1_555
C17 C16 1_555 1_555
H27 C17 1_555 1_555
H28 C17 1_555 1_555
C18 O5 1_555 1_555
C19 C18 1_555 1_555
H29 C19 1_555 1_555
C20 C19 1_555 1_555
H30 C20 1_555 1_555
C21 C20 1_555 1_555
C22 C21 1_555 1_555
H31 C22 1_555 1_555
C23 C18 1_555 1_555
H32 C23 1_555 1_555
Cl2 C44 1_555 1_555
O6 C24 1_555 1_555
O7 C24 1_555 1_555
O8 N2 1_555 1_555
O9 C39 1_555 1_555
O10 C40 1_555 1_555
N2 C35 1_555 1_555
C24 C25 1_555 1_555
C25 H33 1_555 1_555
H34 C25 1_555 1_555
C26 C25 1_555 1_555
H35 C26 1_555 1_555
H36 C26 1_555 1_555
C27 C26 1_555 1_555
H37 C27 1_555 1_555
H38 C27 1_555 1_555
C28 C27 1_555 1_555
H39 C28 1_555 1_555
H40 C28 1_555 1_555
C29 C28 1_555 1_555
H41 C29 1_555 1_555
H42 C29 1_555 1_555
C30 C29 1_555 1_555
H43 C30 1_555 1_555
H44 C30 1_555 1_555
C31 C30 1_555 1_555
H45 C31 1_555 1_555
H46 C31 1_555 1_555
C32 C31 1_555 1_555
H47 C32 1_555 1_555
H48 C32 1_555 1_555
C33 C32 1_555 1_555
H49 C33 1_555 1_555
H50 C33 1_555 1_555
C34 C33 1_555 1_555
H51 C34 1_555 1_555
H52 C34 1_555 1_555
C35 C34 1_555 1_555
C36 C35 1_555 1_555
H53 C36 1_555 1_555
H54 C36 1_555 1_555
C37 C36 1_555 1_555
H55 C37 1_555 1_555
H56 C37 1_555 1_555
C38 O7 1_555 1_555
H57 C38 1_555 1_555
H58 C38 1_555 1_555
C39 O8 1_555 1_555
C40 C39 1_555 1_555
H59 C40 1_555 1_555
H60 C40 1_555 1_555
C41 O10 1_555 1_555
C42 C41 1_555 1_555
H61 C42 1_555 1_555
C43 C42 1_555 1_555
H62 C43 1_555 1_555
C44 C43 1_555 1_555
C45 C44 1_555 1_555
H63 C45 1_555 1_555
C46 C41 1_555 1_555
H64 C46 1_555 1_555
Cl3 C67 1_555 1_555
O11 C47 1_555 1_555
O12 C47 1_555 1_555
O13 N3 1_555 1_555
O14 C62 1_555 1_555
O15 C63 1_555 1_555
N3 C58 1_555 1_555
C47 C48 1_555 1_555
C48 H65 1_555 1_555
H66 C48 1_555 1_555
C49 C48 1_555 1_555
H67 C49 1_555 1_555
H68 C49 1_555 1_555
C50 C49 1_555 1_555
H69 C50 1_555 1_555
H70 C50 1_555 1_555
C51 C50 1_555 1_555
H71 C51 1_555 1_555
H72 C51 1_555 1_555
C52 C51 1_555 1_555
H73 C52 1_555 1_555
H74 C52 1_555 1_555
C53 C52 1_555 1_555
H75 C53 1_555 1_555
H76 C53 1_555 1_555
C54 C53 1_555 1_555
H77 C54 1_555 1_555
H78 C54 1_555 1_555
C55 C54 1_555 1_555
H79 C55 1_555 1_555
H80 C55 1_555 1_555
C56 C55 1_555 1_555
H81 C56 1_555 1_555
H82 C56 1_555 1_555
C57 C56 1_555 1_555
H83 C57 1_555 1_555
H84 C57 1_555 1_555
C58 C57 1_555 1_555
C59 C58 1_555 1_555
H85 C59 1_555 1_555
H86 C59 1_555 1_555
C60 C59 1_555 1_555
H87 C60 1_555 1_555
H88 C60 1_555 1_555
C61 O12 1_555 1_555
H89 C61 1_555 1_555
H90 C61 1_555 1_555
C62 O13 1_555 1_555
C63 C62 1_555 1_555
H91 C63 1_555 1_555
H92 C63 1_555 1_555
C64 O15 1_555 1_555
C65 C64 1_555 1_555
H93 C65 1_555 1_555
C66 C65 1_555 1_555
H94 C66 1_555 1_555
C67 C66 1_555 1_555
C68 C67 1_555 1_555
H95 C68 1_555 1_555
C69 C64 1_555 1_555
H96 C69 1_555 1_555
Cl4 C90 1_555 1_555
O16 C70 1_555 1_555
O17 C70 1_555 1_555
O18 N4 1_555 1_555
O19 C85 1_555 1_555
O20 C86 1_555 1_555
N4 C81 1_555 1_555
C70 C71 1_555 1_555
C71 H97 1_555 1_555
H98 C71 1_555 1_555
C72 C71 1_555 1_555
H99 C72 1_555 1_555
H100 C72 1_555 1_555
C73 C72 1_555 1_555
H101 C73 1_555 1_555
H102 C73 1_555 1_555
C74 C73 1_555 1_555
H103 C74 1_555 1_555
H104 C74 1_555 1_555
C75 C74 1_555 1_555
H105 C75 1_555 1_555
H106 C75 1_555 1_555
C76 C75 1_555 1_555
H107 C76 1_555 1_555
H108 C76 1_555 1_555
C77 C76 1_555 1_555
H109 C77 1_555 1_555
H110 C77 1_555 1_555
C78 C77 1_555 1_555
H111 C78 1_555 1_555
H112 C78 1_555 1_555
C79 C78 1_555 1_555
H113 C79 1_555 1_555
H114 C79 1_555 1_555
C80 C79 1_555 1_555
H115 C80 1_555 1_555
H116 C80 1_555 1_555
C81 C80 1_555 1_555
C82 C81 1_555 1_555
H117 C82 1_555 1_555
H118 C82 1_555 1_555
C83 C82 1_555 1_555
H119 C83 1_555 1_555
H120 C83 1_555 1_555
C84 O17 1_555 1_555
H121 C84 1_555 1_555
H122 C84 1_555 1_555
C85 O18 1_555 1_555
C86 C85 1_555 1_555
H123 C86 1_555 1_555
H124 C86 1_555 1_555
C87 O20 1_555 1_555
C88 C87 1_555 1_555
H125 C88 1_555 1_555
C89 C88 1_555 1_555
H126 C89 1_555 1_555
C90 C89 1_555 1_555
C91 C90 1_555 1_555
H127 C91 1_555 1_555
C92 C87 1_555 1_555
H128 C92 1_555 1_555
C14 C15 1_555 1_555
C22 C23 1_555 1_555
C37 C38 1_555 1_555
C45 C46 1_555 1_555
C60 C61 1_555 1_555
C68 C69 1_555 1_555
C83 C84 1_555 1_555
C91 C92 1_555 1_555

#END
