
#######################################################################
#
#                 Cambridge Crystallographic Data Centre
#                                CCDC 
#
#######################################################################
#
# If this CIF has been generated from an entry in the Cambridge 
# Structural Database, then it will include bibliographic, chemical, 
# crystal, experimental, refinement or atomic coordinate data resulting 
# from the CCDC's data processing and validation procedures.
#
#######################################################################

data_OWEZUN
_chemical_formula_moiety         'C28 H40 S4 Si4'
_chemical_name_systematic        
tristhieno[3',4':3,4;3'',4'':5,6;3''',4''':7,8]cyclo-octa[1,2-c]thiene-1,6,7,12-tetrayltetrakis(trimethylsilane)
_symmetry_cell_setting           triclinic
_symmetry_space_group_name_H-M   'P -1'
_symmetry_Int_Tables_number      2
_space_group_name_Hall           '-P 1'
loop_
_symmetry_equiv_pos_site_id
_symmetry_equiv_pos_as_xyz
1 x,y,z
2 -x,-y,-z
_cell_length_a                   10.918(6)
_cell_length_b                   12.793(6)
_cell_length_c                   14.300(7)
_cell_angle_alpha                91.596(9)
_cell_angle_beta                 104.851(9)
_cell_angle_gamma                113.229(9)
_cell_volume                     1755.32
_exptl_crystal_colour            colorless
_exptl_crystal_description       block
_cell_formula_units_Z            2
loop_
_atom_site_label
_atom_site_type_symbol
_atom_site_fract_x
_atom_site_fract_y
_atom_site_fract_z
C1 C 0.4283(5) 0.0969(4) 0.0684(3)
H1 H 0.3545 0.1217 0.0483
H2 H 0.4273 0.0500 0.0144
H3 H 0.5162 0.1628 0.0897
C2 C 0.5451(5) -0.0368(4) 0.2108(4)
H4 H 0.5497 -0.0780 0.1555
H5 H 0.5271 -0.0864 0.2595
H6 H 0.6322 0.0288 0.2378
C3 C 0.2308(5) -0.1122(4) 0.1286(3)
H7 H 0.1590 -0.0847 0.1116
H8 H 0.2172 -0.1587 0.1797
H9 H 0.2269 -0.1574 0.0723
C4 C 0.4199(5) 0.1137(3) 0.2728(3)
C5 C 0.3244(5) 0.1508(3) 0.2926(3)
C6 C 0.3865(5) 0.2593(4) 0.3537(3)
C7 C 0.5279(5) 0.3015(3) 0.3843(3)
H10 H 0.5857 0.3702 0.4260
C8 C 0.1721(5) 0.0830(3) 0.2597(3)
C9 C 0.0815(5) 0.1088(4) 0.1820(3)
C10 C -0.0521(5) 0.0339(4) 0.1633(3)
H11 H -0.1251 0.0370 0.1146
C11 C 0.1031(5) -0.0103(3) 0.3002(3)
C12 C 0.2840(7) 0.0500(4) 0.5100(4)
H12 H 0.2517 0.0364 0.5668
H13 H 0.2819 0.1202 0.4894
H14 H 0.3777 0.0561 0.5255
C13 C 0.2696(7) -0.1501(5) 0.3868(4)
H15 H 0.3554 -0.0979 0.3772
H16 H 0.2153 -0.2056 0.3291
H17 H 0.2893 -0.1889 0.4414
C14 C 0.0215(7) -0.1681(5) 0.4486(5)
H18 H 0.0523 -0.2103 0.4966
H19 H -0.0472 -0.2208 0.3925
H20 H -0.0186 -0.1246 0.4759
C15 C 0.4011(6) 0.6379(4) 0.0705(4)
H21 H 0.3925 0.5948 0.0113
H22 H 0.4826 0.7092 0.0847
H23 H 0.3201 0.6535 0.0626
C16 C 0.4233(5) 0.6283(4) 0.2874(3)
H24 H 0.3431 0.6453 0.2769
H25 H 0.5063 0.6986 0.3070
H26 H 0.4242 0.5803 0.3377
C17 C 0.5818(5) 0.5335(4) 0.1967(4)
H27 H 0.5917 0.4935 0.2520
H28 H 0.6593 0.6073 0.2099
H29 H 0.5794 0.4896 0.1401
C18 C 0.2729(5) 0.4066(4) 0.1345(3)
C19 C 0.2111(4) 0.3234(4) 0.1884(3)
C20 C 0.1366(4) 0.2117(4) 0.1342(4)
C21 C 0.1346(5) 0.2095(4) 0.0384(4)
H30 H 0.0885 0.1439 -0.0081
C22 C 0.2158(4) 0.3488(3) 0.2913(3)
C23 C 0.3048(5) 0.3221(3) 0.3705(3)
C24 C 0.2978(5) 0.3586(3) 0.4576(4)
H31 H 0.3497 0.3509 0.5176
C25 C 0.1417(4) 0.4008(3) 0.3196(3)
C26 C -0.1399(5) 0.2925(4) 0.1726(4)
H32 H -0.2263 0.2992 0.1464
H33 H -0.1535 0.2326 0.2131
H34 H -0.1088 0.2740 0.1200
C27 C 0.0420(5) 0.5373(4) 0.1633(4)
H35 H 0.0664 0.5061 0.1127
H36 H 0.1205 0.6053 0.1999
H37 H -0.0349 0.5563 0.1346
C28 C -0.0763(6) 0.4819(4) 0.3340(4)
H38 H -0.1545 0.4961 0.2990
H39 H -0.0046 0.5519 0.3731
H40 H -0.1051 0.4251 0.3756
S1 S 0.58504(13) 0.21254(10) 0.33652(10)
S2 S -0.07205(14) -0.06817(11) 0.23988(11)
S3 S 0.22764(16) 0.34284(12) 0.01569(10)
S4 S 0.18314(14) 0.42026(10) 0.44533(9)
Si1 Si 0.40300(15) 0.01157(11) 0.17135(10)
Si2 Si 0.17126(17) -0.06942(12) 0.41143(12)
Si3 Si 0.41656(16) 0.55305(11) 0.17344(11)
Si4 Si -0.00827(15) 0.42934(11) 0.24623(11)
loop_
_geom_bond_atom_site_label_1
_geom_bond_atom_site_label_2
_geom_bond_site_symmetry_1
_geom_bond_site_symmetry_2
C1 H1 1_555 1_555
H2 C1 1_555 1_555
H3 C1 1_555 1_555
C2 H4 1_555 1_555
H5 C2 1_555 1_555
H6 C2 1_555 1_555
C3 H7 1_555 1_555
H8 C3 1_555 1_555
H9 C3 1_555 1_555
C4 C5 1_555 1_555
C5 C6 1_555 1_555
C6 C7 1_555 1_555
C7 H10 1_555 1_555
C8 C5 1_555 1_555
C9 C8 1_555 1_555
C10 C9 1_555 1_555
H11 C10 1_555 1_555
C11 C8 1_555 1_555
C12 H12 1_555 1_555
H13 C12 1_555 1_555
H14 C12 1_555 1_555
C13 H15 1_555 1_555
H16 C13 1_555 1_555
H17 C13 1_555 1_555
C14 H18 1_555 1_555
H19 C14 1_555 1_555
H20 C14 1_555 1_555
C15 H21 1_555 1_555
H22 C15 1_555 1_555
H23 C15 1_555 1_555
C16 H24 1_555 1_555
H25 C16 1_555 1_555
H26 C16 1_555 1_555
C17 H27 1_555 1_555
H28 C17 1_555 1_555
H29 C17 1_555 1_555
C18 C19 1_555 1_555
C19 C20 1_555 1_555
C20 C9 1_555 1_555
C21 C20 1_555 1_555
H30 C21 1_555 1_555
C22 C19 1_555 1_555
C23 C6 1_555 1_555
C24 C23 1_555 1_555
H31 C24 1_555 1_555
C25 C22 1_555 1_555
C26 H32 1_555 1_555
H33 C26 1_555 1_555
H34 C26 1_555 1_555
C27 H35 1_555 1_555
H36 C27 1_555 1_555
H37 C27 1_555 1_555
C28 H38 1_555 1_555
H39 C28 1_555 1_555
H40 C28 1_555 1_555
S1 C4 1_555 1_555
S2 C10 1_555 1_555
S3 C18 1_555 1_555
S4 C24 1_555 1_555
Si1 C1 1_555 1_555
Si2 C11 1_555 1_555
Si3 C15 1_555 1_555
Si4 C25 1_555 1_555
C2 Si1 1_555 1_555
C3 Si1 1_555 1_555
C4 Si1 1_555 1_555
C7 S1 1_555 1_555
C11 S2 1_555 1_555
C12 Si2 1_555 1_555
C13 Si2 1_555 1_555
C14 Si2 1_555 1_555
C16 Si3 1_555 1_555
C17 Si3 1_555 1_555
C18 Si3 1_555 1_555
C21 S3 1_555 1_555
C22 C23 1_555 1_555
C25 S4 1_555 1_555
C26 Si4 1_555 1_555
C27 Si4 1_555 1_555
C28 Si4 1_555 1_555

#END
