
#######################################################################
#
#                 Cambridge Crystallographic Data Centre
#                                CCDC 
#
#######################################################################
#
# If this CIF has been generated from an entry in the Cambridge 
# Structural Database, then it will include bibliographic, chemical, 
# crystal, experimental, refinement or atomic coordinate data resulting 
# from the CCDC's data processing and validation procedures.
#
#######################################################################

data_OWEZIB
_chemical_formula_moiety         'C84 H112 S12 Si12'
_chemical_name_systematic        
"3,4:9,10-bis(2,5,8,11-tetrakis(trimethylsilyl)tristhieno[2',3':5,6; 3'',2'':3,4; 3''',2''':7,8]cycloocta[1,2-b]thiene-3,4-diyl)(tristhieno[2',3':5,6; 3'',2'':3,4; 3''',2''':7,8]cycloocta[1,2-b]thiene-2,5,8,11-tetrayl)tetrakis(trimethylsilane)"
_symmetry_cell_setting           triclinic
_symmetry_space_group_name_H-M   'P -1'
_symmetry_Int_Tables_number      2
_space_group_name_Hall           '-P 1'
loop_
_symmetry_equiv_pos_site_id
_symmetry_equiv_pos_as_xyz
1 x,y,z
2 -x,-y,-z
_cell_length_a                   15.795(7)
_cell_length_b                   16.151(7)
_cell_length_c                   23.422(10)
_cell_angle_alpha                79.086(8)
_cell_angle_beta                 82.483(7)
_cell_angle_gamma                66.948(8)
_cell_volume                     5387.88
_exptl_crystal_colour            colorless
_exptl_crystal_description       block
_cell_formula_units_Z            2
loop_
_atom_site_label
_atom_site_type_symbol
_atom_site_fract_x
_atom_site_fract_y
_atom_site_fract_z
Si1 Si 0.4641(2) 0.1356(2) 0.59481(13)
Si2 Si 0.3683(2) 0.6483(2) 0.37708(15)
Si3 Si 0.35748(17) 0.1245(2) 0.21404(12)
Si4 Si -0.12212(15) 0.44310(18) 0.41168(11)
Si5 Si 0.08730(19) 0.16519(18) 0.50455(10)
Si6 Si 0.2210(2) 0.4457(2) 0.18449(14)
Si7 Si 0.10470(17) 0.1061(2) 0.06623(11)
Si8 Si -0.30936(17) 0.23449(19) 0.34925(11)
Si9 Si -0.33747(18) 0.39134(18) 0.15574(13)
Si10 Si -0.2271(3) -0.2928(2) 0.19132(16)
Si11 Si 0.06918(18) -0.13306(16) 0.21012(11)
Si12 Si -0.4867(2) 0.2080(2) -0.03928(15)
C1 C 0.4452(12) 0.6220(11) 0.4387(7)
H1 H 0.4850 0.6555 0.4289
H2 H 0.4818 0.5580 0.4449
H3 H 0.4080 0.6391 0.4735
C2 C 0.2704(11) 0.7586(9) 0.3801(8)
H4 H 0.2752 0.8013 0.3464
H5 H 0.2718 0.7817 0.4147
H6 H 0.2135 0.7500 0.3807
C3 C 0.0060(5) 0.4104(5) 0.4035(3)
C4 C 0.3240(6) 0.5550(6) 0.3887(4)
C5 C 0.3649(6) 0.4692(6) 0.4158(4)
H7 H 0.4214 0.4494 0.4321
C6 C 0.3167(6) 0.4115(6) 0.4177(3)
C7 C 0.2343(5) 0.4567(5) 0.3923(4)
C8 C 0.3510(5) 0.3171(6) 0.4482(3)
C9 C 0.3558(5) 0.2415(6) 0.4270(4)
C10 C 0.4200(6) 0.2001(6) 0.5253(4)
C11 C 0.3883(6) 0.2903(6) 0.5031(4)
H8 H 0.3912 0.3329 0.5237
C12 C 0.4251(12) 0.2139(10) 0.6482(6)
H9 H 0.4415 0.2658 0.6336
H10 H 0.4540 0.1836 0.6840
H11 H 0.3594 0.2337 0.6551
C13 C 0.5910(8) 0.0820(9) 0.5864(6)
H12 H 0.6082 0.0371 0.5609
H13 H 0.6150 0.0533 0.6238
H14 H 0.6157 0.1276 0.5701
C14 C 0.4128(8) 0.0494(8) 0.6166(5)
H15 H 0.3469 0.0783 0.6166
H16 H 0.4302 0.0181 0.6549
H17 H 0.4346 0.0065 0.5895
C15 C 0.1595(5) 0.4253(5) 0.3907(3)
C16 C 0.1629(5) 0.3473(5) 0.3756(3)
C17 C 0.2449(5) 0.2819(5) 0.3466(3)
C18 C 0.3281(5) 0.2379(5) 0.3704(4)
C19 C 0.3222(5) 0.1932(6) 0.2753(3)
C20 C 0.2411(5) 0.2582(5) 0.2920(3)
C21 C 0.3292(8) 0.4048(9) 0.2236(7)
H18 H 0.3597 0.4468 0.2118
H19 H 0.3691 0.3459 0.2143
H20 H 0.3142 0.4005 0.2649
C22 C 0.0757(5) 0.3373(5) 0.3845(3)
C23 C 0.1435(9) 0.5564(8) 0.2067(7)
H21 H 0.0895 0.5501 0.2279
H22 H 0.1258 0.6014 0.1727
H23 H 0.1750 0.5750 0.2311
C24 C 0.1558(5) 0.3674(6) 0.2088(3)
C25 C 0.1596(5) 0.3027(5) 0.2564(3)
C26 C 0.0799(5) 0.2790(5) 0.2676(3)
C27 C 0.0203(5) 0.3197(5) 0.2235(3)
C28 C 0.0644(4) 0.2263(5) 0.3228(3)
C29 C 0.0498(5) 0.1461(5) 0.3302(3)
C30 C 0.0628(5) 0.1865(5) 0.4246(3)
C31 C 0.0673(4) 0.2509(5) 0.3783(3)
C32 C -0.1566(7) 0.3694(9) 0.4738(4)
H24 H -0.2183 0.3748 0.4699
H25 H -0.1537 0.3882 0.5097
H26 H -0.1153 0.3072 0.4736
C33 C -0.1749(7) 0.5627(7) 0.4248(5)
H27 H -0.1511 0.5997 0.3955
H28 H -0.1604 0.5665 0.4626
H29 H -0.2406 0.5841 0.4232
C34 C -0.1586(6) 0.4319(7) 0.3439(4)
H30 H -0.2247 0.4579 0.3442
H31 H -0.1371 0.3686 0.3402
H32 H -0.1333 0.4632 0.3117
C35 C 0.1062(10) 0.2608(7) 0.5263(5)
H33 H 0.0529 0.3157 0.5186
H34 H 0.1592 0.2683 0.5045
H35 H 0.1161 0.2479 0.5672
C36 C -0.0047(8) 0.1346(9) 0.5500(4)
H36 H 0.0177 0.1026 0.5873
H37 H -0.0220 0.0964 0.5310
H38 H -0.0574 0.1890 0.5553
C37 C 0.1951(9) 0.0637(8) 0.5134(5)
H39 H 0.2109 0.0499 0.5532
H40 H 0.2439 0.0755 0.4886
H41 H 0.1867 0.0129 0.5029
C38 C -0.0661(5) 0.3106(5) 0.2163(3)
C39 C -0.0837(5) 0.2317(5) 0.2262(3)
C40 C -0.0175(4) 0.1382(4) 0.2385(3)
C41 C 0.0370(5) 0.1012(5) 0.2850(3)
C42 C 0.3410(11) 0.1945(10) 0.1399(5)
H42 H 0.3670 0.1553 0.1108
H43 H 0.3712 0.2368 0.1360
H44 H 0.2763 0.2274 0.1349
C43 C 0.2870(10) 0.0531(10) 0.2250(7)
H45 H 0.3203 -0.0053 0.2466
H46 H 0.2743 0.0453 0.1878
H47 H 0.2301 0.0824 0.2463
C44 C 0.4807(8) 0.0493(11) 0.2193(6)
H48 H 0.4933 0.0265 0.2595
H49 H 0.5185 0.0831 0.2026
H50 H 0.4942 -0.0008 0.1986
C45 C -0.0070(5) 0.0703(5) 0.2027(3)
C46 C 0.0494(5) -0.0164(5) 0.2255(3)
C47 C 0.0191(8) -0.1871(7) 0.2748(5)
H51 H 0.0394 -0.1787 0.3095
H52 H 0.0389 -0.2510 0.2734
H53 H -0.0469 -0.1597 0.2753
C48 C 0.1965(8) -0.2007(7) 0.2048(6)
H54 H 0.2264 -0.1820 0.2302
H55 H 0.2204 -0.1905 0.1654
H56 H 0.2078 -0.2643 0.2161
C49 C 0.0140(8) -0.1297(7) 0.1438(4)
H57 H -0.0517 -0.0999 0.1494
H58 H 0.0289 -0.1906 0.1368
H59 H 0.0363 -0.0967 0.1109
C50 C 0.2037(7) -0.0022(9) 0.0906(6)
H60 H 0.2609 0.0042 0.0758
H61 H 0.1991 -0.0518 0.0759
H62 H 0.2017 -0.0141 0.1323
C51 C 0.1098(9) 0.2011(9) 0.0952(6)
H63 H 0.1200 0.1837 0.1360
H64 H 0.0527 0.2524 0.0897
H65 H 0.1595 0.2172 0.0751
C52 C 0.1072(9) 0.1321(10) -0.0161(4)
H66 H 0.0533 0.1844 -0.0278
H67 H 0.1080 0.0808 -0.0315
H68 H 0.1614 0.1444 -0.0308
C53 C -0.0095(5) 0.0974(5) 0.0921(3)
C54 C -0.0537(5) 0.0923(5) 0.1476(3)
C55 C -0.1468(5) 0.1036(5) 0.1465(3)
C56 C -0.2092(5) 0.1135(5) 0.1991(3)
C57 C -0.2208(5) 0.1808(5) 0.2344(3)
C58 C -0.1782(5) 0.2493(5) 0.2181(3)
C59 C -0.2276(5) 0.3377(5) 0.1952(3)
C60 C -0.2777(5) 0.1753(6) 0.2845(3)
C61 C -0.2010(7) 0.2015(8) 0.3868(5)
H69 H -0.1804 0.1381 0.4030
H70 H -0.2126 0.2372 0.4175
H71 H -0.1543 0.2121 0.3593
C62 C -0.3645(8) 0.3603(8) 0.3305(5)
H72 H -0.3243 0.3823 0.3033
H73 H -0.3761 0.3876 0.3652
H74 H -0.4218 0.3760 0.3132
C63 C -0.3881(8) 0.1894(9) 0.3989(4)
H75 H -0.4448 0.2062 0.3807
H76 H -0.4008 0.2144 0.4346
H77 H -0.3596 0.1242 0.4071
C64 C -0.4077(8) 0.5049(8) 0.1755(7)
H78 H -0.4652 0.5288 0.1573
H79 H -0.3751 0.5449 0.1626
H80 H -0.4193 0.5000 0.2171
C65 C -0.4042(7) 0.3178(7) 0.1673(5)
H81 H -0.4178 0.3035 0.2082
H82 H -0.3688 0.2625 0.1516
H83 H -0.4607 0.3488 0.1479
C66 C -0.2583(5) 0.0602(5) 0.2205(3)
C67 C -0.2625(5) -0.0151(5) 0.1956(3)
C68 C -0.2827(5) -0.0144(6) 0.1410(4)
C69 C -0.2799(6) -0.1023(6) 0.1358(4)
H84 H -0.2937 -0.1145 0.1016
C70 C -0.2558(6) -0.1668(6) 0.1836(4)
C71 C -0.1278(15) -0.3506(11) 0.2369(13)
H85 H -0.1448 -0.3339 0.2752
H86 H -0.0776 -0.3328 0.2198
H87 H -0.1090 -0.4153 0.2395
C72 C -0.3157(13) -0.3268(12) 0.2258(11)
H88 H -0.2962 -0.3917 0.2288
H89 H -0.3693 -0.2976 0.2035
H90 H -0.3305 -0.3099 0.2641
C73 C -0.213(2) -0.3233(12) 0.1198(9)
H91 H -0.2472 -0.3611 0.1191
H92 H -0.1492 -0.3560 0.1103
H93 H -0.2361 -0.2692 0.0918
C74 C -0.3093(5) 0.0624(6) 0.0936(3)
C75 C -0.3852(6) 0.0853(7) 0.0608(4)
H94 H -0.4264 0.0558 0.0697
C76 C -0.3950(6) 0.1530(7) 0.0152(4)
C77 C -0.2602(6) 0.1180(5) 0.0729(3)
C78 C -0.1716(5) 0.1109(5) 0.0916(3)
C79 C -0.3003(10) 0.4064(10) 0.0769(5)
H95 H -0.3535 0.4385 0.0546
H96 H -0.2670 0.3478 0.0650
H97 H -0.2612 0.4406 0.0706
C80 C -0.5717(11) 0.3139(12) -0.0168(7)
H98 H -0.6276 0.3051 -0.0018
H99 H -0.5843 0.3615 -0.0497
H100 H -0.5476 0.3306 0.0130
C81 C -0.4335(10) 0.2412(15) -0.1115(6)
H101 H -0.3927 0.1875 -0.1270
H102 H -0.3994 0.2770 -0.1068
H103 H -0.4811 0.2763 -0.1378
C82 C -0.5457(16) 0.1305(13) -0.0369(11)
H104 H -0.5038 0.0757 -0.0508
H105 H -0.5971 0.1589 -0.0611
H106 H -0.5674 0.1159 0.0025
C83 C 0.4296(10) 0.6497(12) 0.3037(6)
H107 H 0.3931 0.6445 0.2758
H108 H 0.4880 0.5995 0.3047
H109 H 0.4394 0.7058 0.2927
C84 C 0.2386(14) 0.4611(13) 0.1040(6)
H110 H 0.2394 0.5207 0.0900
H111 H 0.1893 0.4547 0.0876
H112 H 0.2963 0.4160 0.0927
S1 S 0.22062(16) 0.56824(16) 0.36539(11)
S2 S 0.04909(13) 0.48997(14) 0.41314(10)
S3 S 0.40372(16) 0.14374(15) 0.47407(11)
S4 S 0.40255(14) 0.16444(17) 0.32540(11)
S5 S 0.05665(15) 0.39382(15) 0.17261(9)
S6 S -0.16047(14) 0.40202(13) 0.19010(10)
S7 S 0.04819(15) 0.09904(14) 0.40184(8)
S8 S 0.09448(15) -0.01450(13) 0.28775(9)
S9 S -0.31794(15) 0.09070(16) 0.28470(9)
S10 S -0.30996(17) 0.19504(17) 0.01339(10)
S11 S -0.08330(15) 0.11054(16) 0.04000(8)
S12 S -0.23891(18) -0.11937(16) 0.23865(10)
loop_
_geom_bond_atom_site_label_1
_geom_bond_atom_site_label_2
_geom_bond_site_symmetry_1
_geom_bond_site_symmetry_2
Si1 C10 1_555 1_555
Si2 C1 1_555 1_555
Si3 C19 1_555 1_555
Si4 C3 1_555 1_555
Si5 C30 1_555 1_555
Si6 C21 1_555 1_555
Si7 C50 1_555 1_555
Si8 C60 1_555 1_555
Si9 C59 1_555 1_555
Si10 C70 1_555 1_555
Si11 C46 1_555 1_555
Si12 C76 1_555 1_555
C1 H1 1_555 1_555
H2 C1 1_555 1_555
H3 C1 1_555 1_555
C2 Si2 1_555 1_555
H4 C2 1_555 1_555
H5 C2 1_555 1_555
H6 C2 1_555 1_555
C3 C22 1_555 1_555
C4 Si2 1_555 1_555
C5 C4 1_555 1_555
H7 C5 1_555 1_555
C6 C5 1_555 1_555
C7 C6 1_555 1_555
C8 C6 1_555 1_555
C9 C8 1_555 1_555
C10 C11 1_555 1_555
C11 C8 1_555 1_555
H8 C11 1_555 1_555
C12 Si1 1_555 1_555
H9 C12 1_555 1_555
H10 C12 1_555 1_555
H11 C12 1_555 1_555
C13 Si1 1_555 1_555
H12 C13 1_555 1_555
H13 C13 1_555 1_555
H14 C13 1_555 1_555
C14 Si1 1_555 1_555
H15 C14 1_555 1_555
H16 C14 1_555 1_555
H17 C14 1_555 1_555
C15 C7 1_555 1_555
C16 C15 1_555 1_555
C17 C16 1_555 1_555
C18 C9 1_555 1_555
C19 C20 1_555 1_555
C20 C17 1_555 1_555
C21 H18 1_555 1_555
H19 C21 1_555 1_555
H20 C21 1_555 1_555
C22 C16 1_555 1_555
C23 Si6 1_555 1_555
H21 C23 1_555 1_555
H22 C23 1_555 1_555
H23 C23 1_555 1_555
C24 Si6 1_555 1_555
C25 C20 1_555 1_555
C26 C25 1_555 1_555
C27 C26 1_555 1_555
C28 C26 1_555 1_555
C29 C28 1_555 1_555
C30 C31 1_555 1_555
C31 C22 1_555 1_555
C32 Si4 1_555 1_555
H24 C32 1_555 1_555
H25 C32 1_555 1_555
H26 C32 1_555 1_555
C33 Si4 1_555 1_555
H27 C33 1_555 1_555
H28 C33 1_555 1_555
H29 C33 1_555 1_555
C34 Si4 1_555 1_555
H30 C34 1_555 1_555
H31 C34 1_555 1_555
H32 C34 1_555 1_555
C35 Si5 1_555 1_555
H33 C35 1_555 1_555
H34 C35 1_555 1_555
H35 C35 1_555 1_555
C36 Si5 1_555 1_555
H36 C36 1_555 1_555
H37 C36 1_555 1_555
H38 C36 1_555 1_555
C37 Si5 1_555 1_555
H39 C37 1_555 1_555
H40 C37 1_555 1_555
H41 C37 1_555 1_555
C38 C27 1_555 1_555
C39 C38 1_555 1_555
C40 C39 1_555 1_555
C41 C29 1_555 1_555
C42 Si3 1_555 1_555
H42 C42 1_555 1_555
H43 C42 1_555 1_555
H44 C42 1_555 1_555
C43 Si3 1_555 1_555
H45 C43 1_555 1_555
H46 C43 1_555 1_555
H47 C43 1_555 1_555
C44 Si3 1_555 1_555
H48 C44 1_555 1_555
H49 C44 1_555 1_555
H50 C44 1_555 1_555
C45 C40 1_555 1_555
C46 C45 1_555 1_555
C47 Si11 1_555 1_555
H51 C47 1_555 1_555
H52 C47 1_555 1_555
H53 C47 1_555 1_555
C48 Si11 1_555 1_555
H54 C48 1_555 1_555
H55 C48 1_555 1_555
H56 C48 1_555 1_555
C49 Si11 1_555 1_555
H57 C49 1_555 1_555
H58 C49 1_555 1_555
H59 C49 1_555 1_555
C50 H60 1_555 1_555
H61 C50 1_555 1_555
H62 C50 1_555 1_555
C51 Si7 1_555 1_555
H63 C51 1_555 1_555
H64 C51 1_555 1_555
H65 C51 1_555 1_555
C52 Si7 1_555 1_555
H66 C52 1_555 1_555
H67 C52 1_555 1_555
H68 C52 1_555 1_555
C53 Si7 1_555 1_555
C54 C45 1_555 1_555
C55 C54 1_555 1_555
C56 C55 1_555 1_555
C57 C56 1_555 1_555
C58 C39 1_555 1_555
C59 C58 1_555 1_555
C60 C57 1_555 1_555
C61 Si8 1_555 1_555
H69 C61 1_555 1_555
H70 C61 1_555 1_555
H71 C61 1_555 1_555
C62 Si8 1_555 1_555
H72 C62 1_555 1_555
H73 C62 1_555 1_555
H74 C62 1_555 1_555
C63 Si8 1_555 1_555
H75 C63 1_555 1_555
H76 C63 1_555 1_555
H77 C63 1_555 1_555
C64 Si9 1_555 1_555
H78 C64 1_555 1_555
H79 C64 1_555 1_555
H80 C64 1_555 1_555
C65 Si9 1_555 1_555
H81 C65 1_555 1_555
H82 C65 1_555 1_555
H83 C65 1_555 1_555
C66 C56 1_555 1_555
C67 C66 1_555 1_555
C68 C67 1_555 1_555
C69 C68 1_555 1_555
H84 C69 1_555 1_555
C70 C69 1_555 1_555
C71 Si10 1_555 1_555
H85 C71 1_555 1_555
H86 C71 1_555 1_555
H87 C71 1_555 1_555
C72 Si10 1_555 1_555
H88 C72 1_555 1_555
H89 C72 1_555 1_555
H90 C72 1_555 1_555
C73 Si10 1_555 1_555
H91 C73 1_555 1_555
H92 C73 1_555 1_555
H93 C73 1_555 1_555
C74 C68 1_555 1_555
C75 C74 1_555 1_555
H94 C75 1_555 1_555
C76 C75 1_555 1_555
C77 C74 1_555 1_555
C78 C55 1_555 1_555
C79 Si9 1_555 1_555
H95 C79 1_555 1_555
H96 C79 1_555 1_555
H97 C79 1_555 1_555
C80 Si12 1_555 1_555
H98 C80 1_555 1_555
H99 C80 1_555 1_555
H100 C80 1_555 1_555
C81 Si12 1_555 1_555
H101 C81 1_555 1_555
H102 C81 1_555 1_555
H103 C81 1_555 1_555
C82 Si12 1_555 1_555
H104 C82 1_555 1_555
H105 C82 1_555 1_555
H106 C82 1_555 1_555
C83 Si2 1_555 1_555
H107 C83 1_555 1_555
H108 C83 1_555 1_555
H109 C83 1_555 1_555
C84 Si6 1_555 1_555
H110 C84 1_555 1_555
H111 C84 1_555 1_555
H112 C84 1_555 1_555
S1 C4 1_555 1_555
S2 C3 1_555 1_555
S3 C9 1_555 1_555
S4 C18 1_555 1_555
S5 C24 1_555 1_555
S6 C38 1_555 1_555
S7 C29 1_555 1_555
S8 C41 1_555 1_555
S9 C60 1_555 1_555
S10 C76 1_555 1_555
S11 C53 1_555 1_555
S12 C67 1_555 1_555
C7 S1 1_555 1_555
C10 S3 1_555 1_555
C15 S2 1_555 1_555
C17 C18 1_555 1_555
C19 S4 1_555 1_555
C24 C25 1_555 1_555
C27 S5 1_555 1_555
C28 C31 1_555 1_555
C30 S7 1_555 1_555
C40 C41 1_555 1_555
C46 S8 1_555 1_555
C53 C54 1_555 1_555
C57 C58 1_555 1_555
C59 S6 1_555 1_555
C66 S9 1_555 1_555
C70 S12 1_555 1_555
C77 C78 1_555 1_555
C77 S10 1_555 1_555
C78 S11 1_555 1_555

#END
