
#######################################################################
#
#                 Cambridge Crystallographic Data Centre
#                                CCDC 
#
#######################################################################
#
# If this CIF has been generated from an entry in the Cambridge 
# Structural Database, then it will include bibliographic, chemical, 
# crystal, experimental, refinement or atomic coordinate data resulting 
# from the CCDC's data processing and validation procedures.
#
#######################################################################

data_OWEZEX
_chemical_formula_moiety         'C28 H38 I2 S4 Si4,2(H2 O1)'
_chemical_name_systematic        
"(3,4-bis(iodo)tristhieno[3',4':3,4;3'',4'':5,6;3''',4''':7,8]cyclo-octa[1,2-c]thiene-1,6,7,12-tetrayl)tetrakis(trimethylsilane) dihydrate"
_symmetry_cell_setting           triclinic
_symmetry_space_group_name_H-M   'P -1'
_symmetry_Int_Tables_number      2
_space_group_name_Hall           '-P 1'
loop_
_symmetry_equiv_pos_site_id
_symmetry_equiv_pos_as_xyz
1 x,y,z
2 -x,-y,-z
_cell_length_a                   10.2081(6)
_cell_length_b                   14.0993(8)
_cell_length_c                   14.1207(8)
_cell_angle_alpha                84.1990(10)
_cell_angle_beta                 71.4310(10)
_cell_angle_gamma                80.4230(10)
_cell_volume                     1897.18
_exptl_crystal_colour            colorless
_exptl_crystal_description       rod
_cell_formula_units_Z            2
loop_
_atom_site_label
_atom_site_type_symbol
_atom_site_fract_x
_atom_site_fract_y
_atom_site_fract_z
I1 I 0.63445(3) 0.473276(19) 0.15526(2)
I2 I 0.87142(3) 0.470961(19) 0.34992(2)
S1 S 0.38962(10) 0.62306(7) 0.29927(8)
S2 S 0.68884(12) 0.91852(7) 0.45067(7)
S3 S 1.06005(9) 0.61861(7) 0.19098(7)
S4 S 0.64672(10) 0.91875(7) 0.00442(7)
Si1 Si 0.25595(11) 0.81490(9) 0.40551(9)
Si2 Si 0.59896(12) 0.72786(8) 0.56184(8)
Si3 Si 1.12132(11) 0.80939(8) 0.06286(9)
Si4 Si 0.81334(12) 0.72835(8) -0.08668(8)
C1 C 0.6425(3) 0.6533(2) 0.2627(2)
C2 C 0.7957(3) 0.6520(2) 0.2215(2)
C3 C 0.7561(4) 0.8140(3) 0.0174(2)
C4 C 0.6690(3) 0.8820(2) 0.2833(2)
C5 C 0.7648(3) 0.8057(2) 0.1145(2)
C6 C 0.6817(3) 0.8821(2) 0.1763(2)
C7 C 0.4136(4) 0.7248(3) 0.3484(3)
C8 C 0.8550(3) 0.7268(2) 0.1528(2)
C9 C 0.5547(3) 0.7292(2) 0.3235(2)
C10 C 0.6203(4) 0.8142(3) 0.4486(3)
C11 C 0.5655(4) 0.5902(2) 0.2444(3)
C12 C 0.6136(3) 0.8064(2) 0.3536(2)
C13 C 0.8972(4) 0.5882(2) 0.2481(3)
C14 C 0.9978(4) 0.7208(3) 0.1295(3)
C15 C 0.7115(4) 0.9484(3) 0.3273(3)
H1 H 0.7482 1.0030 0.2939
C16 C 0.6126(4) 0.9493(3) 0.1247(3)
H2 H 0.5546 1.0044 0.1520
C17 C 0.2785(5) 0.9320(3) 0.3354(4)
H3 H 0.1975 0.9781 0.3624
H4 H 0.2901 0.9247 0.2662
H5 H 0.3595 0.9541 0.3411
C18 C 1.0459(5) 0.9262(3) 0.1177(4)
H6 H 1.1044 0.9737 0.0837
H7 H 1.0393 0.9211 0.1873
H8 H 0.9544 0.9449 0.1108
C19 C 0.9401(5) 0.6240(3) -0.0650(4)
H9 H 0.9659 0.5818 -0.1192
H10 H 0.8981 0.5897 -0.0034
H11 H 1.0219 0.6467 -0.0613
C20 C 0.5102(5) 0.6255(3) 0.5512(3)
H12 H 0.5079 0.5800 0.6070
H13 H 0.5605 0.5943 0.4901
H14 H 0.4165 0.6494 0.5511
C21 C 0.2290(6) 0.8318(5) 0.5398(4)
H15 H 0.3125 0.8485 0.5472
H16 H 0.2075 0.7730 0.5782
H17 H 0.1531 0.8825 0.5633
C22 C 1.1494(6) 0.8215(4) -0.0739(4)
H18 H 1.0610 0.8375 -0.0862
H19 H 1.1964 0.7617 -0.1033
H20 H 1.2056 0.8716 -0.1029
C23 C 0.7776(6) 0.6799(5) 0.5693(4)
H21 H 0.8201 0.7315 0.5813
H22 H 0.8335 0.6520 0.5074
H23 H 0.7711 0.6317 0.6231
C24 C 0.6544(6) 0.6805(5) -0.0913(4)
H24 H 0.5905 0.7325 -0.1079
H25 H 0.6100 0.6512 -0.0272
H26 H 0.6816 0.6335 -0.1412
C25 C 0.5029(7) 0.7948(4) 0.6770(3)
H27 H 0.4960 0.7516 0.7349
H28 H 0.4109 0.8214 0.6748
H29 H 0.5523 0.8460 0.6805
C26 C 0.0995(5) 0.7703(5) 0.3945(6)
H30 H 0.0916 0.7079 0.4282
H31 H 0.1093 0.7658 0.3251
H32 H 0.0173 0.8143 0.4244
C27 C 0.8840(7) 0.7966(4) -0.2082(3)
H33 H 0.9540 0.8321 -0.2033
H34 H 0.8097 0.8405 -0.2230
H35 H 0.9247 0.7523 -0.2606
C28 C 1.2940(5) 0.7653(5) 0.0826(6)
H36 H 1.3564 0.8117 0.0534
H37 H 1.3323 0.7051 0.0516
H38 H 1.2820 0.7565 0.1531
O1 O 0.4674(13) 0.4781(9) 0.2391(9)
O2 O 0.7102(11) 0.5145(10) 0.5458(8)
O3 O 0.7743(12) 0.5215(12) -0.0473(8)
O4? O 1.0550(12) 0.4685(8) 0.2614(8)
loop_
_geom_bond_atom_site_label_1
_geom_bond_atom_site_label_2
_geom_bond_site_symmetry_1
_geom_bond_site_symmetry_2
I1 C11 1_555 1_555
I2 C13 1_555 1_555
S1 C7 1_555 1_555
S2 C10 1_555 1_555
S3 C13 1_555 1_555
S4 C3 1_555 1_555
Si1 C7 1_555 1_555
Si2 C10 1_555 1_555
Si3 C14 1_555 1_555
Si4 C3 1_555 1_555
C1 C2 1_555 1_555
C2 C8 1_555 1_555
C3 C5 1_555 1_555
C4 C6 1_555 1_555
C5 C6 1_555 1_555
C6 C16 1_555 1_555
C7 C9 1_555 1_555
C8 C5 1_555 1_555
C9 C1 1_555 1_555
C10 C12 1_555 1_555
C11 S1 1_555 1_555
C12 C4 1_555 1_555
C13 C2 1_555 1_555
C14 S3 1_555 1_555
C15 S2 1_555 1_555
H1 C15 1_555 1_555
C16 S4 1_555 1_555
H2 C16 1_555 1_555
C17 Si1 1_555 1_555
H3 C17 1_555 1_555
H4 C17 1_555 1_555
H5 C17 1_555 1_555
C18 Si3 1_555 1_555
H6 C18 1_555 1_555
H7 C18 1_555 1_555
H8 C18 1_555 1_555
C19 Si4 1_555 1_555
H9 C19 1_555 1_555
H10 C19 1_555 1_555
H11 C19 1_555 1_555
C20 Si2 1_555 1_555
H12 C20 1_555 1_555
H13 C20 1_555 1_555
H14 C20 1_555 1_555
C21 Si1 1_555 1_555
H15 C21 1_555 1_555
H16 C21 1_555 1_555
H17 C21 1_555 1_555
C22 Si3 1_555 1_555
H18 C22 1_555 1_555
H19 C22 1_555 1_555
H20 C22 1_555 1_555
C23 Si2 1_555 1_555
H21 C23 1_555 1_555
H22 C23 1_555 1_555
H23 C23 1_555 1_555
C24 Si4 1_555 1_555
H24 C24 1_555 1_555
H25 C24 1_555 1_555
H26 C24 1_555 1_555
C25 Si2 1_555 1_555
H27 C25 1_555 1_555
H28 C25 1_555 1_555
H29 C25 1_555 1_555
C26 Si1 1_555 1_555
H30 C26 1_555 1_555
H31 C26 1_555 1_555
H32 C26 1_555 1_555
C27 Si4 1_555 1_555
H33 C27 1_555 1_555
H34 C27 1_555 1_555
H35 C27 1_555 1_555
C28 Si3 1_555 1_555
H36 C28 1_555 1_555
H37 C28 1_555 1_555
H38 C28 1_555 1_555
C1 C11 1_555 1_555
C4 C15 1_555 1_555
C8 C14 1_555 1_555
C9 C12 1_555 1_555

#END
