
#######################################################################
#
#                 Cambridge Crystallographic Data Centre
#                                CCDC 
#
#######################################################################
#
# If this CIF has been generated from an entry in the Cambridge 
# Structural Database, then it will include bibliographic, chemical, 
# crystal, experimental, refinement or atomic coordinate data resulting 
# from the CCDC's data processing and validation procedures.
#
#######################################################################

data_OWIBAZ
_chemical_formula_moiety         'C42 H58 S6 Si6'
_chemical_name_systematic        
pentakisthieno[2',3',4':6,7;2'',3'':2,3;3''',2''':4,5;3'''',4'''':10,11;3''''',4''''':8,9]octaleno[1,12-bc]thiene-2,5,8,9,14,15-hexaylhexakis(trimethylsilane)
_symmetry_cell_setting           monoclinic
_symmetry_space_group_name_H-M   'P 21/c'
_symmetry_Int_Tables_number      14
_space_group_name_Hall           '-P 2ybc'
loop_
_symmetry_equiv_pos_site_id
_symmetry_equiv_pos_as_xyz
1 x,y,z
2 -x,1/2+y,1/2-z
3 -x,-y,-z
4 x,1/2-y,1/2+z
_cell_length_a                   12.2794(7)
_cell_length_b                   19.0648(11)
_cell_length_c                   23.5740(13)
_cell_angle_alpha                90
_cell_angle_beta                 100.7840(10)
_cell_angle_gamma                90
_cell_volume                     5421.31
_exptl_crystal_colour            colorless
_exptl_crystal_description       block
_cell_formula_units_Z            4
loop_
_atom_site_label
_atom_site_type_symbol
_atom_site_fract_x
_atom_site_fract_y
_atom_site_fract_z
Si1 Si 0.19886(7) 0.80211(5) 0.17515(5)
Si2 Si 0.37677(8) 0.73994(6) 0.02303(4)
Si3 Si 0.81728(9) 0.52226(6) 0.08278(5)
Si4 Si 0.81753(9) 0.64898(6) 0.44415(4)
Si5 Si 0.68064(9) 0.95168(6) 0.33640(4)
Si6 Si 0.81046(8) 1.01177(5) 0.17217(4)
C1 C 0.1504(3) 0.8582(2) 0.1120(2)
H1 H 0.1523 0.8322 0.0773
H2 H 0.1978 0.8985 0.1135
H3 H 0.0759 0.8732 0.1123
C2 C 0.1140(3) 0.7231(2) 0.1750(3)
H4 H 0.1175 0.6958 0.1412
H5 H 0.0385 0.7363 0.1749
H6 H 0.1415 0.6958 0.2089
C3 C 0.1920(4) 0.8558(3) 0.2402(2)
H7 H 0.1169 0.8705 0.2393
H8 H 0.2386 0.8963 0.2407
H9 H 0.2168 0.8283 0.2743
C4 C 0.3490(2) 0.77681(15) 0.18280(13)
C5 C 0.4362(2) 0.80634(13) 0.16231(12)
C6 C 0.5430(2) 0.78605(14) 0.19436(12)
C7 C 0.5362(2) 0.73732(14) 0.23581(12)
C8 C 0.4250(2) 0.85359(15) 0.11130(13)
C9 C 0.4414(2) 0.92797(16) 0.11682(15)
C10 C 0.4247(3) 0.96000(18) 0.06438(16)
H10 H 0.4310 1.0081 0.0593
C11 C 0.3977(2) 0.83039(16) 0.05496(14)
C12 C 0.2358(3) 0.7050(2) 0.0249(3)
H11 H 0.2285 0.6589 0.0082
H12 H 0.1810 0.7354 0.0032
H13 H 0.2252 0.7026 0.0642
C13 C 0.3920(6) 0.7439(3) -0.0537(2)
H14 H 0.3812 0.6980 -0.0705
H15 H 0.4650 0.7604 -0.0560
H16 H 0.3377 0.7755 -0.0744
C14 C 0.4758(4) 0.6779(2) 0.0647(3)
H17 H 0.4640 0.6320 0.0480
H18 H 0.4648 0.6766 0.1040
H19 H 0.5501 0.6928 0.0638
C15 C 0.4750(2) 0.96108(15) 0.17367(15)
C16 C 0.4148(3) 1.00827(17) 0.19812(17)
H20 H 0.3484 1.0279 0.1793
C17 C 0.5862(2) 0.97097(16) 0.26581(15)
C18 C 0.5746(2) 0.94184(14) 0.21206(13)
C19 C 0.6588(2) 0.89614(14) 0.19283(12)
C20 C 0.7574(2) 0.92087(15) 0.18053(13)
C21 C 0.6456(2) 0.82171(13) 0.18683(11)
C22 C 0.7380(2) 0.78930(14) 0.17403(12)
C23 C 0.7564(2) 0.71432(15) 0.16816(12)
C24 C 0.7489(2) 0.66258(14) 0.20765(12)
C25 C 0.7736(2) 0.59593(15) 0.18628(14)
H21 H 0.7722 0.5550 0.2075
C26 C 0.7996(2) 0.59603(16) 0.13233(14)
C27 C 0.6794(4) 0.4924(3) 0.0464(2)
H22 H 0.6400 0.4735 0.0745
H23 H 0.6874 0.4568 0.0187
H24 H 0.6388 0.5313 0.0271
C28 C 0.8913(5) 0.5582(3) 0.0261(2)
H25 H 0.9019 0.5214 -0.0001
H26 H 0.9620 0.5766 0.0443
H27 H 0.8477 0.5950 0.0052
C29 C 0.8980(6) 0.4518(3) 0.1219(3)
H28 H 0.8603 0.4341 0.1512
H29 H 0.9696 0.4692 0.1397
H30 H 0.9067 0.4146 0.0956
C30 C 0.7216(2) 0.67412(14) 0.26552(11)
C31 C 0.6274(2) 0.70525(13) 0.27642(11)
C32 C 0.7506(2) 0.66345(15) 0.36708(13)
C33 C 0.7910(2) 0.65102(15) 0.31772(13)
H31 H 0.8587 0.6291 0.3181
C34 C 0.7121(4) 0.6594(3) 0.49135(17)
H32 H 0.6836 0.7064 0.4880
H33 H 0.7460 0.6503 0.5308
H34 H 0.6525 0.6269 0.4795
C35 C 0.9276(6) 0.7139(4) 0.4623(3)
H35 H 0.9810 0.7075 0.4378
H36 H 0.9631 0.7081 0.5019
H37 H 0.8965 0.7601 0.4568
C36 C 0.8718(4) 0.5580(3) 0.4504(2)
H38 H 0.9264 0.5526 0.4265
H39 H 0.8120 0.5257 0.4382
H40 H 0.9050 0.5486 0.4899
C37 C 0.7887(3) 0.88640(19) 0.32916(16)
H41 H 0.8356 0.9047 0.3044
H42 H 0.7541 0.8440 0.3128
H43 H 0.8324 0.8766 0.3665
C38 C 0.5908(4) 0.9137(3) 0.3841(2)
H44 H 0.6352 0.9027 0.4211
H45 H 0.5563 0.8717 0.3669
H46 H 0.5348 0.9471 0.3890
C39 C 0.7437(4) 1.0355(2) 0.3666(2)
H47 H 0.7893 1.0543 0.3413
H48 H 0.7883 1.0271 0.4039
H49 H 0.6861 1.0684 0.3700
C40 C 0.9287(4) 1.0306(3) 0.2305(2)
H50 H 0.9045 1.0299 0.2669
H51 H 0.9583 1.0760 0.2245
H52 H 0.9850 0.9956 0.2305
C41 C 0.7013(3) 1.07858(18) 0.1686(2)
H53 H 0.6752 1.0795 0.2045
H54 H 0.6410 1.0674 0.1378
H55 H 0.7309 1.1237 0.1617
C42 C 0.8586(4) 1.0127(2) 0.1019(2)
H56 H 0.8866 1.0584 0.0954
H57 H 0.7976 1.0016 0.0713
H58 H 0.9162 0.9785 0.1026
S1 S 0.39951(6) 0.71887(4) 0.23823(4)
S2 S 0.39070(9) 0.90170(6) 0.00902(4)
S3 S 0.79468(6) 0.68106(4) 0.10709(3)
S4 S 0.62455(6) 0.70462(4) 0.34920(3)
S5 S 0.47561(8) 1.02710(5) 0.26751(5)
S6 S 0.83708(6) 0.85072(4) 0.16558(4)
loop_
_geom_bond_atom_site_label_1
_geom_bond_atom_site_label_2
_geom_bond_site_symmetry_1
_geom_bond_site_symmetry_2
Si1 C1 1_555 1_555
Si2 C11 1_555 1_555
Si3 C26 1_555 1_555
Si4 C32 1_555 1_555
Si5 C17 1_555 1_555
Si6 C20 1_555 1_555
C1 H1 1_555 1_555
H2 C1 1_555 1_555
H3 C1 1_555 1_555
C2 Si1 1_555 1_555
H4 C2 1_555 1_555
H5 C2 1_555 1_555
H6 C2 1_555 1_555
C3 Si1 1_555 1_555
H7 C3 1_555 1_555
H8 C3 1_555 1_555
H9 C3 1_555 1_555
C4 Si1 1_555 1_555
C5 C4 1_555 1_555
C6 C5 1_555 1_555
C7 C6 1_555 1_555
C8 C5 1_555 1_555
C9 C8 1_555 1_555
C10 C9 1_555 1_555
H10 C10 1_555 1_555
C11 C8 1_555 1_555
C12 Si2 1_555 1_555
H11 C12 1_555 1_555
H12 C12 1_555 1_555
H13 C12 1_555 1_555
C13 Si2 1_555 1_555
H14 C13 1_555 1_555
H15 C13 1_555 1_555
H16 C13 1_555 1_555
C14 Si2 1_555 1_555
H17 C14 1_555 1_555
H18 C14 1_555 1_555
H19 C14 1_555 1_555
C15 C9 1_555 1_555
C16 C15 1_555 1_555
H20 C16 1_555 1_555
C17 C18 1_555 1_555
C18 C15 1_555 1_555
C19 C18 1_555 1_555
C20 C19 1_555 1_555
C21 C6 1_555 1_555
C22 C21 1_555 1_555
C23 C22 1_555 1_555
C24 C23 1_555 1_555
C25 C24 1_555 1_555
H21 C25 1_555 1_555
C26 C25 1_555 1_555
C27 Si3 1_555 1_555
H22 C27 1_555 1_555
H23 C27 1_555 1_555
H24 C27 1_555 1_555
C28 Si3 1_555 1_555
H25 C28 1_555 1_555
H26 C28 1_555 1_555
H27 C28 1_555 1_555
C29 Si3 1_555 1_555
H28 C29 1_555 1_555
H29 C29 1_555 1_555
H30 C29 1_555 1_555
C30 C24 1_555 1_555
C31 C7 1_555 1_555
C32 C33 1_555 1_555
C33 C30 1_555 1_555
H31 C33 1_555 1_555
C34 Si4 1_555 1_555
H32 C34 1_555 1_555
H33 C34 1_555 1_555
H34 C34 1_555 1_555
C35 Si4 1_555 1_555
H35 C35 1_555 1_555
H36 C35 1_555 1_555
H37 C35 1_555 1_555
C36 Si4 1_555 1_555
H38 C36 1_555 1_555
H39 C36 1_555 1_555
H40 C36 1_555 1_555
C37 Si5 1_555 1_555
H41 C37 1_555 1_555
H42 C37 1_555 1_555
H43 C37 1_555 1_555
C38 Si5 1_555 1_555
H44 C38 1_555 1_555
H45 C38 1_555 1_555
H46 C38 1_555 1_555
C39 Si5 1_555 1_555
H47 C39 1_555 1_555
H48 C39 1_555 1_555
H49 C39 1_555 1_555
C40 Si6 1_555 1_555
H50 C40 1_555 1_555
H51 C40 1_555 1_555
H52 C40 1_555 1_555
C41 Si6 1_555 1_555
H53 C41 1_555 1_555
H54 C41 1_555 1_555
H55 C41 1_555 1_555
C42 Si6 1_555 1_555
H56 C42 1_555 1_555
H57 C42 1_555 1_555
H58 C42 1_555 1_555
S1 C4 1_555 1_555
S2 C10 1_555 1_555
S3 C23 1_555 1_555
S4 C31 1_555 1_555
S5 C16 1_555 1_555
S6 C20 1_555 1_555
C7 S1 1_555 1_555
C11 S2 1_555 1_555
C17 S5 1_555 1_555
C19 C21 1_555 1_555
C22 S6 1_555 1_555
C26 S3 1_555 1_555
C30 C31 1_555 1_555
C32 S4 1_555 1_555

#END
