
#######################################################################
#
#                 Cambridge Crystallographic Data Centre
#                                CCDC 
#
#######################################################################
#
# If this CIF has been generated from an entry in the Cambridge 
# Structural Database, then it will include bibliographic, chemical, 
# crystal, experimental, refinement or atomic coordinate data resulting 
# from the CCDC's data processing and validation procedures.
#
#######################################################################

data_OWIBED
_chemical_formula_moiety         'C84 H112 Cl2 S12 Si12,2(C1 H1 Cl3)'
_chemical_name_systematic        
"(12,12'-dichloro-11,11'-bipentakisthieno[2',3',4':6,7;2'',3'':2,3;3''',2''':4,5;3'''',4'''':10,11;3''''',4''''':8,9]octaleno[1,12-bc]thiene-2,2',5,5',8,8',9,9',14,14',15,15'-dodecayl)dodecakis(trimethylsilane) chloroform solvate"
_symmetry_cell_setting           triclinic
_symmetry_space_group_name_H-M   'P -1'
_symmetry_Int_Tables_number      2
_space_group_name_Hall           '-P 1'
loop_
_symmetry_equiv_pos_site_id
_symmetry_equiv_pos_as_xyz
1 x,y,z
2 -x,-y,-z
_cell_length_a                   10.434(9)
_cell_length_b                   15.470(13)
_cell_length_c                   20.322(17)
_cell_angle_alpha                89.347(18)
_cell_angle_beta                 83.228(17)
_cell_angle_gamma                75.451(16)
_cell_volume                     3152.35
_exptl_crystal_colour            colorless
_exptl_crystal_description       block
_cell_formula_units_Z            1
loop_
_atom_site_label
_atom_site_type_symbol
_atom_site_fract_x
_atom_site_fract_y
_atom_site_fract_z
S1 S 0.0309(2) 0.80177(14) 0.70545(10)
S2 S 0.4985(2) 0.63737(12) 0.47391(10)
S3 S 0.6096(2) 0.83705(13) 0.74911(12)
S4 S 0.1844(2) 0.42515(14) 0.68624(11)
S5 S 0.0442(2) 0.76765(15) 0.86892(10)
S6 S 0.63300(19) 0.61301(12) 0.75708(10)
Si1 Si -0.0137(3) 0.75168(16) 0.56779(12)
Si2 Si 0.3943(3) 0.83230(14) 0.52234(13)
Si3 Si 0.2562(3) 0.46455(16) 0.82176(11)
Si4 Si 0.6882(2) 0.41636(14) 0.72137(12)
Si5 Si 0.0290(3) 0.8039(2) 1.02095(13)
Si6 Si 0.6101(3) 1.02374(17) 0.80646(19)
Cl1 Cl 0.1637(2) 0.45492(15) 0.54435(11)
C1 C -0.1216(10) 0.6784(6) 0.6026(5)
H1 H -0.0685 0.6182 0.6045
H2 H -0.1904 0.6801 0.5748
H3 H -0.1615 0.6993 0.6464
C2 C -0.1170(10) 0.8681(6) 0.5637(5)
H4 H -0.0616 0.9059 0.5460
H5 H -0.1576 0.8891 0.6074
H6 H -0.1852 0.8696 0.5355
C3 C 0.0693(10) 0.7110(6) 0.4866(4)
H7 H 0.1252 0.7489 0.4698
H8 H 0.0038 0.7114 0.4571
H9 H 0.1228 0.6511 0.4900
C4 C 0.1054(8) 0.7524(5) 0.6297(4)
C5 C 0.2365(7) 0.7110(4) 0.6347(3)
C6 C 0.2732(7) 0.7146(4) 0.6994(3)
C7 C 0.1735(7) 0.7639(4) 0.7421(3)
C8 C 0.3340(7) 0.6668(4) 0.5772(4)
C9 C 0.3924(8) 0.7128(4) 0.5289(4)
C10 C 0.3761(7) 0.5722(4) 0.5684(3)
C11 C 0.4665(7) 0.5438(4) 0.5134(3)
C12 C 0.401(2) 0.8786(9) 0.5994(6)
H10 H 0.3231 0.8760 0.6287
H11 H 0.4048 0.9397 0.5941
H12 H 0.4792 0.8456 0.6177
C13 C 0.2455(15) 0.9000(10) 0.4940(9)
H13 H 0.1698 0.8974 0.5251
H14 H 0.2349 0.8781 0.4514
H15 H 0.2520 0.9607 0.4903
C14 C 0.5408(15) 0.8349(8) 0.4619(7)
H16 H 0.5463 0.8955 0.4559
H17 H 0.5314 0.8099 0.4202
H18 H 0.6204 0.8006 0.4782
C15 C 0.3248(7) 0.5164(4) 0.6203(3)
C16 C 0.2310(8) 0.4706(5) 0.6145(4)
C17 C 0.3557(6) 0.5163(4) 0.6864(3)
C18 C 0.2845(7) 0.4704(5) 0.7298(4)
C19 C 0.4470(7) 0.5670(4) 0.7090(3)
C20 C 0.4021(7) 0.6628(4) 0.7186(3)
C21 C 0.4934(7) 0.6968(4) 0.7455(3)
C22 C 0.4822(7) 0.7876(4) 0.7677(3)
C23 C 0.3809(8) 0.8404(5) 0.8111(4)
C24 C 0.4123(8) 0.9213(5) 0.8265(4)
H19 H 0.3549 0.9646 0.8549
C25 C 0.5301(9) 0.9314(5) 0.7977(4)
C26 C 0.5140(12) 1.0994(8) 0.8661(9)
H20 H 0.4252 1.1201 0.8542
H21 H 0.5526 1.1492 0.8690
H22 H 0.5109 1.0708 0.9083
C27 C 0.7847(12) 0.9830(9) 0.8150(12)
H23 H 0.7947 0.9534 0.8566
H24 H 0.8255 1.0322 0.8135
H25 H 0.8269 0.9416 0.7794
C28 C 0.625(3) 1.0762(16) 0.7274(13)
H26 H 0.5377 1.0991 0.7139
H27 H 0.6780 1.0331 0.6951
H28 H 0.6666 1.1243 0.7311
C29 C 0.2610(8) 0.8164(5) 0.8428(4)
C30 C 0.1715(7) 0.7827(5) 0.8127(3)
C31 C 0.2207(8) 0.8285(5) 0.9119(4)
H29 H 0.2698 0.8504 0.9401
C32 C 0.1050(8) 0.8059(5) 0.9343(4)
C33 C -0.1454(12) 0.8725(11) 1.0258(7)
H30 H -0.1456 0.9333 1.0155
H31 H -0.1894 0.8702 1.0698
H32 H -0.1916 0.8496 0.9947
C34 C 0.1333(13) 0.8372(10) 1.0758(5)
H33 H 0.2213 0.7982 1.0688
H34 H 0.0961 0.8336 1.1210
H35 H 0.1376 0.8975 1.0667
C35 C 0.0213(17) 0.6915(10) 1.0427(6)
H36 H 0.1101 0.6534 1.0397
H37 H -0.0287 0.6699 1.0128
H38 H -0.0213 0.6916 1.0873
C36 C 0.5720(7) 0.5299(4) 0.7275(3)
C37 C 0.8331(9) 0.4269(7) 0.6630(6)
H39 H 0.8059 0.4399 0.6197
H40 H 0.9012 0.3719 0.6612
H41 H 0.8674 0.4744 0.6778
C38 C 0.7414(14) 0.3904(7) 0.8050(5)
H42 H 0.6670 0.3828 0.8350
H43 H 0.7732 0.4386 0.8206
H44 H 0.8115 0.3364 0.8025
C39 C 0.6155(10) 0.3309(5) 0.6931(5)
H45 H 0.5399 0.3271 0.7239
H46 H 0.6806 0.2745 0.6903
H47 H 0.5874 0.3459 0.6502
C40 C 0.3378(9) 0.5369(6) 0.8640(4)
H48 H 0.4326 0.5175 0.8525
H49 H 0.3169 0.5334 0.9111
H50 H 0.3064 0.5975 0.8506
C41 C 0.3123(12) 0.3461(6) 0.8450(5)
H51 H 0.4069 0.3253 0.8331
H52 H 0.2676 0.3107 0.8220
H53 H 0.2915 0.3409 0.8919
C42 C 0.0732(9) 0.5036(7) 0.8471(5)
H54 H 0.0555 0.5018 0.8945
H55 H 0.0284 0.4654 0.8271
H56 H 0.0415 0.5637 0.8327
S1A S 0.9691(2) 0.19823(14) 0.29455(10)
S2A S 0.5015(2) 0.36263(12) 0.52609(10)
S3A S 0.3904(2) 0.16295(13) 0.25089(12)
S4A S 0.8156(2) 0.57485(14) 0.31376(11)
S5A S 0.9558(2) 0.23235(15) 0.13108(10)
S6A S 0.36700(19) 0.38699(12) 0.24292(10)
Si1A Si 1.0137(3) 0.24832(16) 0.43221(12)
Si2A Si 0.6057(3) 0.16770(14) 0.47766(13)
Si3A Si 0.7438(3) 0.53545(16) 0.17824(11)
Si4A Si 0.3118(2) 0.58364(14) 0.27863(12)
Si5A Si 0.9710(3) 0.1961(2) -0.02095(13)
Si6A Si 0.3899(3) -0.02374(17) 0.19354(19)
Cl1A Cl 0.8363(2) 0.54508(15) 0.45565(11)
C1A C 1.1216(10) 0.3216(6) 0.3974(5)
H1A H 1.0685 0.3818 0.3955
H2A H 1.1904 0.3199 0.4252
H3A H 1.1615 0.3007 0.3536
C2A C 1.1170(10) 0.1319(6) 0.4363(5)
H4A H 1.0616 0.0941 0.4540
H5A H 1.1576 0.1109 0.3926
H6A H 1.1852 0.1304 0.4645
C3A C 0.9307(10) 0.2890(6) 0.5134(4)
H7A H 0.8748 0.2511 0.5302
H8A H 0.9962 0.2886 0.5429
H9A H 0.8772 0.3489 0.5100
C4A C 0.8946(8) 0.2476(5) 0.3703(4)
C5A C 0.7635(7) 0.2890(4) 0.3653(3)
C6A C 0.7268(7) 0.2854(4) 0.3006(3)
C7A C 0.8265(7) 0.2361(4) 0.2579(3)
C8A C 0.6660(7) 0.3332(4) 0.4228(4)
C9A C 0.6076(8) 0.2872(4) 0.4711(4)
C10A C 0.6239(7) 0.4278(4) 0.4316(3)
C11A C 0.5335(7) 0.4562(4) 0.4866(3)
C12A C 0.599(2) 0.1214(9) 0.4006(6)
H10A H 0.6769 0.1240 0.3713
H11A H 0.5952 0.0603 0.4059
H12A H 0.5208 0.1544 0.3823
C13A C 0.7545(15) 0.1000(10) 0.5060(9)
H13A H 0.8302 0.1026 0.4749
H14A H 0.7651 0.1219 0.5486
H15A H 0.7480 0.0393 0.5097
C14A C 0.4592(15) 0.1651(8) 0.5381(7)
H16A H 0.4537 0.1045 0.5441
H17A H 0.4686 0.1901 0.5798
H18A H 0.3796 0.1994 0.5218
C15A C 0.6752(7) 0.4836(4) 0.3797(3)
C16A C 0.7690(8) 0.5294(5) 0.3855(4)
C17A C 0.6443(6) 0.4837(4) 0.3136(3)
C18A C 0.7155(7) 0.5296(5) 0.2702(4)
C19A C 0.5530(7) 0.4330(4) 0.2910(3)
C20A C 0.5979(7) 0.3372(4) 0.2814(3)
C21A C 0.5066(7) 0.3032(4) 0.2545(3)
C22A C 0.5178(7) 0.2124(4) 0.2323(3)
C23A C 0.6191(8) 0.1596(5) 0.1889(4)
C24A C 0.5877(8) 0.0787(5) 0.1735(4)
H19A H 0.6451 0.0354 0.1451
C25A C 0.4699(9) 0.0686(5) 0.2023(4)
C26A C 0.4860(12) -0.0994(8) 0.1339(9)
H20A H 0.5748 -0.1201 0.1458
H21A H 0.4474 -0.1492 0.1310
H22A H 0.4891 -0.0708 0.0917
C27A C 0.2153(12) 0.0170(9) 0.1850(12)
H23A H 0.2053 0.0466 0.1434
H24A H 0.1745 -0.0322 0.1865
H25A H 0.1731 0.0584 0.2206
C28A C 0.375(3) -0.0762(16) 0.2726(13)
H26A H 0.4623 -0.0991 0.2861
H27A H 0.3220 -0.0331 0.3049
H28A H 0.3334 -0.1243 0.2689
C29A C 0.7390(8) 0.1836(5) 0.1572(4)
C30A C 0.8285(7) 0.2173(5) 0.1873(3)
C31A C 0.7793(8) 0.1715(5) 0.0881(4)
H29A H 0.7302 0.1496 0.0599
C32A C 0.8950(8) 0.1941(5) 0.0657(4)
C33A C 1.1454(12) 0.1275(11) -0.0258(7)
H30A H 1.1456 0.0667 -0.0155
H31A H 1.1894 0.1298 -0.0698
H32A H 1.1916 0.1504 0.0053
C34A C 0.8667(13) 0.1628(10) -0.0758(5)
H33A H 0.7787 0.2018 -0.0688
H34A H 0.9039 0.1664 -0.1210
H35A H 0.8624 0.1025 -0.0667
C35A C 0.9787(17) 0.3085(10) -0.0427(6)
H36A H 0.8899 0.3466 -0.0397
H37A H 1.0287 0.3301 -0.0128
H38A H 1.0213 0.3084 -0.0873
C36A C 0.4280(7) 0.4701(4) 0.2725(3)
C37A C 0.1669(9) 0.5731(7) 0.3370(6)
H39A H 0.1941 0.5601 0.3803
H40A H 0.0988 0.6281 0.3388
H41A H 0.1326 0.5256 0.3222
C38A C 0.2586(14) 0.6096(7) 0.1950(5)
H42A H 0.3330 0.6172 0.1650
H43A H 0.2268 0.5614 0.1794
H44A H 0.1885 0.6636 0.1975
C39A C 0.3845(10) 0.6691(5) 0.3069(5)
H45A H 0.4601 0.6729 0.2761
H46A H 0.3194 0.7255 0.3097
H47A H 0.4126 0.6541 0.3498
C40A C 0.6622(9) 0.4631(6) 0.1360(4)
H48A H 0.5674 0.4825 0.1475
H49A H 0.6831 0.4666 0.0889
H50A H 0.6936 0.4025 0.1494
C41A C 0.6877(12) 0.6539(6) 0.1550(5)
H51A H 0.5931 0.6747 0.1669
H52A H 0.7324 0.6893 0.1780
H53A H 0.7085 0.6591 0.1081
C42A C 0.9268(9) 0.4964(7) 0.1529(5)
H54A H 0.9445 0.4982 0.1055
H55A H 0.9716 0.5346 0.1729
H56A H 0.9585 0.4363 0.1673
Cl2 Cl 0.7199(7) 0.5692(5) 0.9471(3)
Cl3 Cl 0.4670(6) 0.6480(5) 1.0078(3)
Cl4 Cl 0.6035(9) 0.7606(5) 0.9427(5)
C43 C 0.562(2) 0.6576(14) 0.9466(10)
H57 H 0.5216 0.6495 0.9068
Cl5 Cl 0.860(2) 0.8099(9) 0.273(2)
Cl6 Cl 0.9888(16) 0.8973(11) 0.3502(7)
Cl7 Cl 0.8798(11) 0.9700(6) 0.2484(5)
C44 C 0.847(3) 0.906(2) 0.3146(13)
H58 H 0.7633 0.9293 0.3431
loop_
_geom_bond_atom_site_label_1
_geom_bond_atom_site_label_2
_geom_bond_site_symmetry_1
_geom_bond_site_symmetry_2
S1 C4 1_555 1_555
S2 C9 1_555 1_555
S3 C22 1_555 1_555
S4 C16 1_555 1_555
S5 C30 1_555 1_555
S6 C21 1_555 1_555
Si1 C1 1_555 1_555
Si2 C9 1_555 1_555
Si3 C18 1_555 1_555
Si4 C36 1_555 1_555
Si5 C32 1_555 1_555
Si6 C25 1_555 1_555
Cl1 C16 1_555 1_555
C1 H1 1_555 1_555
H2 C1 1_555 1_555
H3 C1 1_555 1_555
C2 Si1 1_555 1_555
H4 C2 1_555 1_555
H5 C2 1_555 1_555
H6 C2 1_555 1_555
C3 Si1 1_555 1_555
H7 C3 1_555 1_555
H8 C3 1_555 1_555
H9 C3 1_555 1_555
C4 Si1 1_555 1_555
C5 C4 1_555 1_555
C6 C5 1_555 1_555
C7 S1 1_555 1_555
C8 C5 1_555 1_555
C9 C8 1_555 1_555
C10 C8 1_555 1_555
C11 S2 1_555 1_555
C12 Si2 1_555 1_555
H10 C12 1_555 1_555
H11 C12 1_555 1_555
H12 C12 1_555 1_555
C13 Si2 1_555 1_555
H13 C13 1_555 1_555
H14 C13 1_555 1_555
H15 C13 1_555 1_555
C14 Si2 1_555 1_555
H16 C14 1_555 1_555
H17 C14 1_555 1_555
H18 C14 1_555 1_555
C15 C10 1_555 1_555
C16 C15 1_555 1_555
C17 C15 1_555 1_555
C18 S4 1_555 1_555
C19 C17 1_555 1_555
C20 C6 1_555 1_555
C21 C20 1_555 1_555
C22 C21 1_555 1_555
C23 C22 1_555 1_555
C24 C23 1_555 1_555
H19 C24 1_555 1_555
C25 S3 1_555 1_555
C26 Si6 1_555 1_555
H20 C26 1_555 1_555
H21 C26 1_555 1_555
H22 C26 1_555 1_555
C27 Si6 1_555 1_555
H23 C27 1_555 1_555
H24 C27 1_555 1_555
H25 C27 1_555 1_555
C28 Si6 1_555 1_555
H26 C28 1_555 1_555
H27 C28 1_555 1_555
H28 C28 1_555 1_555
C29 C23 1_555 1_555
C30 C7 1_555 1_555
C31 C29 1_555 1_555
H29 C31 1_555 1_555
C32 S5 1_555 1_555
C33 Si5 1_555 1_555
H30 C33 1_555 1_555
H31 C33 1_555 1_555
H32 C33 1_555 1_555
C34 Si5 1_555 1_555
H33 C34 1_555 1_555
H34 C34 1_555 1_555
H35 C34 1_555 1_555
C35 Si5 1_555 1_555
H36 C35 1_555 1_555
H37 C35 1_555 1_555
H38 C35 1_555 1_555
C36 S6 1_555 1_555
C37 Si4 1_555 1_555
H39 C37 1_555 1_555
H40 C37 1_555 1_555
H41 C37 1_555 1_555
C38 Si4 1_555 1_555
H42 C38 1_555 1_555
H43 C38 1_555 1_555
H44 C38 1_555 1_555
C39 Si4 1_555 1_555
H45 C39 1_555 1_555
H46 C39 1_555 1_555
H47 C39 1_555 1_555
C40 Si3 1_555 1_555
H48 C40 1_555 1_555
H49 C40 1_555 1_555
H50 C40 1_555 1_555
C41 Si3 1_555 1_555
H51 C41 1_555 1_555
H52 C41 1_555 1_555
H53 C41 1_555 1_555
C42 Si3 1_555 1_555
H54 C42 1_555 1_555
H55 C42 1_555 1_555
H56 C42 1_555 1_555
Cl2 C43 1_555 1_555
Cl3 C43 1_555 1_555
Cl4 C43 1_555 1_555
C43 H57 1_555 1_555
Cl5 C44 1_555 1_555
Cl6 C44 1_555 1_555
Cl7 C44 1_555 1_555
C44 H58 1_555 1_555
S1A C4A 1_555 1_555
S2A C9A 1_555 1_555
S3A C22A 1_555 1_555
S4A C16A 1_555 1_555
S5A C30A 1_555 1_555
S6A C21A 1_555 1_555
Si1A C1A 1_555 1_555
Si2A C9A 1_555 1_555
Si3A C18A 1_555 1_555
Si4A C36A 1_555 1_555
Si5A C32A 1_555 1_555
Si6A C25A 1_555 1_555
Cl1A C16A 1_555 1_555
C1A H1A 1_555 1_555
H2A C1A 1_555 1_555
H3A C1A 1_555 1_555
C2A Si1A 1_555 1_555
H4A C2A 1_555 1_555
H5A C2A 1_555 1_555
H6A C2A 1_555 1_555
C3A Si1A 1_555 1_555
H7A C3A 1_555 1_555
H8A C3A 1_555 1_555
H9A C3A 1_555 1_555
C4A Si1A 1_555 1_555
C5A C4A 1_555 1_555
C6A C5A 1_555 1_555
C7A S1A 1_555 1_555
C8A C5A 1_555 1_555
C9A C8A 1_555 1_555
C10A C8A 1_555 1_555
C11A C11 1_555 1_555
C12A Si2A 1_555 1_555
H10A C12A 1_555 1_555
H11A C12A 1_555 1_555
H12A C12A 1_555 1_555
C13A Si2A 1_555 1_555
H13A C13A 1_555 1_555
H14A C13A 1_555 1_555
H15A C13A 1_555 1_555
C14A Si2A 1_555 1_555
H16A C14A 1_555 1_555
H17A C14A 1_555 1_555
H18A C14A 1_555 1_555
C15A C10A 1_555 1_555
C16A C15A 1_555 1_555
C17A C15A 1_555 1_555
C18A S4A 1_555 1_555
C19A C17A 1_555 1_555
C20A C6A 1_555 1_555
C21A C20A 1_555 1_555
C22A C21A 1_555 1_555
C23A C22A 1_555 1_555
C24A C23A 1_555 1_555
H19A C24A 1_555 1_555
C25A S3A 1_555 1_555
C26A Si6A 1_555 1_555
H20A C26A 1_555 1_555
H21A C26A 1_555 1_555
H22A C26A 1_555 1_555
C27A Si6A 1_555 1_555
H23A C27A 1_555 1_555
H24A C27A 1_555 1_555
H25A C27A 1_555 1_555
C28A Si6A 1_555 1_555
H26A C28A 1_555 1_555
H27A C28A 1_555 1_555
H28A C28A 1_555 1_555
C29A C23A 1_555 1_555
C30A C7A 1_555 1_555
C31A C29A 1_555 1_555
H29A C31A 1_555 1_555
C32A S5A 1_555 1_555
C33A Si5A 1_555 1_555
H30A C33A 1_555 1_555
H31A C33A 1_555 1_555
H32A C33A 1_555 1_555
C34A Si5A 1_555 1_555
H33A C34A 1_555 1_555
H34A C34A 1_555 1_555
H35A C34A 1_555 1_555
C35A Si5A 1_555 1_555
H36A C35A 1_555 1_555
H37A C35A 1_555 1_555
H38A C35A 1_555 1_555
C36A S6A 1_555 1_555
C37A Si4A 1_555 1_555
H39A C37A 1_555 1_555
H40A C37A 1_555 1_555
H41A C37A 1_555 1_555
C38A Si4A 1_555 1_555
H42A C38A 1_555 1_555
H43A C38A 1_555 1_555
H44A C38A 1_555 1_555
C39A Si4A 1_555 1_555
H45A C39A 1_555 1_555
H46A C39A 1_555 1_555
H47A C39A 1_555 1_555
C40A Si3A 1_555 1_555
H48A C40A 1_555 1_555
H49A C40A 1_555 1_555
H50A C40A 1_555 1_555
C41A Si3A 1_555 1_555
H51A C41A 1_555 1_555
H52A C41A 1_555 1_555
H53A C41A 1_555 1_555
C42A Si3A 1_555 1_555
H54A C42A 1_555 1_555
H55A C42A 1_555 1_555
H56A C42A 1_555 1_555
C6 C7 1_555 1_555
C10 C11 1_555 1_555
C17 C18 1_555 1_555
C19 C20 1_555 1_555
C19 C36 1_555 1_555
C24 C25 1_555 1_555
C29 C30 1_555 1_555
C31 C32 1_555 1_555
S2A C11A 1_555 1_555
C6A C7A 1_555 1_555
C10A C11A 1_555 1_555
C17A C18A 1_555 1_555
C19A C20A 1_555 1_555
C19A C36A 1_555 1_555
C24A C25A 1_555 1_555
C29A C30A 1_555 1_555
C31A C32A 1_555 1_555

#END
