
#######################################################################
#
#                 Cambridge Crystallographic Data Centre
#                                CCDC 
#
#######################################################################
#
# If this CIF has been generated from an entry in the Cambridge 
# Structural Database, then it will include bibliographic, chemical, 
# crystal, experimental, refinement or atomic coordinate data resulting 
# from the CCDC's data processing and validation procedures.
#
#######################################################################

data_OWIFOQ
_chemical_formula_moiety         '2(C12 H13 N2 1+),C14 H6 N2 O8 2-,C14 H8 N2 O8'
_chemical_name_systematic        
"bis(4'-aminobiphenyl-4-aminium) 2,2'-(1,3,5,7-tetraoxo-5,7-dihydropyrrolo[3,4-f]isoindole-2,6(1H,3H)-diyl)diacetate 2,2'-(1,3,5,7-tetraoxo-5,7-dihydropyrrolo[3,4-f]isoindole-2,6(1H,3H)-diyl)diacetic acid"
_symmetry_cell_setting           triclinic
_symmetry_space_group_name_H-M   'P -1'
_symmetry_Int_Tables_number      2
_space_group_name_Hall           '-P 1'
loop_
_symmetry_equiv_pos_site_id
_symmetry_equiv_pos_as_xyz
1 x,y,z
2 -x,-y,-z
_cell_length_a                   9.834(2)
_cell_length_b                   11.266(2)
_cell_length_c                   11.743(2)
_cell_angle_alpha                64.23(3)
_cell_angle_beta                 78.54(3)
_cell_angle_gamma                77.89(3)
_cell_volume                     1136.98
_exptl_crystal_colour            red
_exptl_crystal_description       block
_cell_formula_units_Z            1
loop_
_atom_site_label
_atom_site_type_symbol
_atom_site_fract_x
_atom_site_fract_y
_atom_site_fract_z
C1 C 0.2640(2) -0.0423(2) 0.2476(2)
C2 C 0.2312(2) 0.0823(2) 0.2685(2)
N1 N 0.1243(2) 0.43839(17) 0.32977(18)
H1 H 0.0365 0.4720 0.3132
H2 H 0.1813 0.4972 0.2781
H3 H 0.1306 0.4206 0.4103
N2 N 0.3476(2) -0.3984(2) 0.1891(2)
H4 H 0.414(3) -0.459(3) 0.231(3)
H5 H 0.377(3) -0.388(3) 0.108(3)
C3 C 0.1619(2) 0.0834(2) 0.3838(2)
H6 H 0.1366 0.0042 0.4488
C4 C 0.3373(2) -0.1572(2) 0.1067(2)
H7 H 0.3661 -0.1525 0.0247
C5 C 0.1649(2) 0.3151(2) 0.3093(2)
C6 C 0.2805(3) -0.2824(2) 0.3278(2)
H8 H 0.2706 -0.3636 0.3968
C7 C 0.1297(2) 0.1980(2) 0.4046(2)
H9 H 0.0843 0.1957 0.4829
C8 C 0.3240(2) -0.2796(2) 0.2076(2)
C9 C 0.2352(3) 0.3192(2) 0.1945(2)
H10 H 0.2602 0.3989 0.1304
C10 C 0.2682(3) 0.2032(2) 0.1759(2)
H11 H 0.3170 0.2060 0.0986
C11 C 0.3080(2) -0.0418(2) 0.1267(2)
H12 H 0.3180 0.0391 0.0573
C12 C 0.2514(2) -0.1673(2) 0.3477(2)
H13 H 0.2227 -0.1728 0.4300
O1 O 0.64109(17) 0.95880(16) 0.19384(16)
O2 O 0.86127(17) 0.62901(15) 0.41349(16)
O3 O 0.83264(17) 0.50763(16) 0.31585(16)
C13 C 0.5190(2) 0.8708(2) 0.5171(2)
O4 O 0.5379(2) 0.63110(15) 0.58422(17)
N3 N 0.6011(2) 0.77229(18) 0.37686(19)
C14 C 0.7924(2) 0.5977(2) 0.3555(2)
C15 C 0.6034(2) 0.9080(2) 0.3059(2)
C16 C 0.5518(3) 0.7419(2) 0.5036(2)
C17 C 0.4682(2) 0.8960(2) 0.6241(2)
H14 H 0.4478 0.8290 0.7041
C18 C 0.5502(2) 0.9709(2) 0.3971(2)
C19 C 0.6459(3) 0.6718(2) 0.3265(2)
H15 H 0.6447 0.7139 0.2349
H16 H 0.5797 0.6081 0.3623
O1A O 0.35891(17) 1.04120(16) 0.80616(16)
O2A O 0.13873(17) 1.37099(15) 0.58651(16)
O3A O 0.16736(17) 1.49237(16) 0.68415(16)
C13A C 0.4810(2) 1.1292(2) 0.4829(2)
O4A O 0.4621(2) 1.36890(15) 0.41578(17)
N3A N 0.3989(2) 1.22771(18) 0.62314(19)
C14A C 0.2076(2) 1.4023(2) 0.6445(2)
C15A C 0.3966(2) 1.0920(2) 0.6941(2)
C16A C 0.4482(3) 1.2581(2) 0.4964(2)
C17A C 0.5318(2) 1.1040(2) 0.3759(2)
H14A H 0.5522 1.1710 0.2959
C18A C 0.4498(2) 1.0291(2) 0.6029(2)
C19A C 0.3541(3) 1.3282(2) 0.6735(2)
H15A H 0.3553 1.2861 0.7651
H16A H 0.4203 1.3919 0.6377
O5 O 0.86758(17) 0.03595(16) 0.30991(16)
O6 O 0.9629(2) 0.36798(15) -0.08082(17)
C20 C 0.9825(2) 0.1286(2) -0.0160(2)
O7 O 0.64744(18) 0.36764(17) 0.08831(17)
O8 O 0.6797(2) 0.50302(18) 0.1666(2)
H17 H 0.7314 0.5016 0.2141
C21 C 0.9043(2) 0.0882(2) 0.1971(2)
C22 C 1.0296(2) 0.1051(2) -0.1245(2)
H18 H 1.0483 0.1728 -0.2045
C23 C 0.9527(3) 0.2565(2) -0.0014(2)
C24 C 0.7189(3) 0.3991(2) 0.1401(2)
C25 C 0.9537(2) 0.0274(2) 0.1040(2)
N4 N 0.9076(2) 0.22418(18) 0.12777(19)
C26 C 0.8598(3) 0.3239(2) 0.1780(2)
H19 H 0.9274 0.3859 0.1472
H20 H 0.8539 0.2814 0.2702
O5A O 1.13242(17) -0.03595(16) -0.30991(16)
O6A O 1.0371(2) -0.36798(15) 0.08082(17)
C20A C 1.0175(2) -0.1286(2) 0.0160(2)
O7A O 1.35256(18) -0.36764(17) -0.08831(17)
O8A O 1.3203(2) -0.50302(18) -0.1666(2)
H17A H 1.2686 -0.5016 -0.2141
C21A C 1.0957(2) -0.0882(2) -0.1971(2)
C22A C 0.9704(2) -0.1051(2) 0.1245(2)
H18A H 0.9517 -0.1728 0.2045
C23A C 1.0473(3) -0.2565(2) 0.0014(2)
C24A C 1.2811(3) -0.3991(2) -0.1401(2)
C25A C 1.0463(2) -0.0274(2) -0.1040(2)
N4A N 1.0924(2) -0.22418(18) -0.12777(19)
C26A C 1.1402(3) -0.3239(2) -0.1780(2)
H19A H 1.0726 -0.3859 -0.1472
H20A H 1.1461 -0.2814 -0.2702
loop_
_geom_bond_atom_site_label_1
_geom_bond_atom_site_label_2
_geom_bond_site_symmetry_1
_geom_bond_site_symmetry_2
C1 C2 1_555 1_555
C2 C3 1_555 1_555
N1 H1 1_555 1_555
H2 N1 1_555 1_555
H3 N1 1_555 1_555
N2 H4 1_555 1_555
H5 N2 1_555 1_555
C3 H6 1_555 1_555
C4 H7 1_555 1_555
C5 N1 1_555 1_555
C6 H8 1_555 1_555
C7 C3 1_555 1_555
H9 C7 1_555 1_555
C8 N2 1_555 1_555
C9 C5 1_555 1_555
H10 C9 1_555 1_555
C10 C2 1_555 1_555
H11 C10 1_555 1_555
C11 C1 1_555 1_555
H12 C11 1_555 1_555
C12 C1 1_555 1_555
H13 C12 1_555 1_555
O1 C15 1_555 1_555
O2 C14 1_555 1_555
O3 C14 1_555 1_555
C13 C16 1_555 1_555
O4 C16 1_555 1_555
N3 C15 1_555 1_555
C14 C19 1_555 1_555
C15 C18 1_555 1_555
C16 N3 1_555 1_555
C17 C13 1_555 1_555
H14 C17 1_555 1_555
C18 C13 1_555 1_555
C19 N3 1_555 1_555
H15 C19 1_555 1_555
H16 C19 1_555 1_555
O5 C21 1_555 1_555
O6 C23 1_555 1_555
C20 C22 1_555 1_555
O7 C24 1_555 1_555
O8 H17 1_555 1_555
C21 C25 1_555 1_555
C22 H18 1_555 1_555
C23 C20 1_555 1_555
C24 O8 1_555 1_555
C25 C20 1_555 1_555
N4 C21 1_555 1_555
C26 C24 1_555 1_555
H19 C26 1_555 1_555
H20 C26 1_555 1_555
O1A C15A 1_555 1_555
O2A C14A 1_555 1_555
O3A C14A 1_555 1_555
C13A C16A 1_555 1_555
O4A C16A 1_555 1_555
N3A C15A 1_555 1_555
C14A C19A 1_555 1_555
C15A C18A 1_555 1_555
C16A N3A 1_555 1_555
C17A C18 1_555 1_555
H14A C17A 1_555 1_555
C18A C17 1_555 1_555
C19A N3A 1_555 1_555
H15A C19A 1_555 1_555
H16A C19A 1_555 1_555
O5A C21A 1_555 1_555
O6A C23A 1_555 1_555
C20A C22A 1_555 1_555
O7A C24A 1_555 1_555
O8A H17A 1_555 1_555
C21A C25A 1_555 1_555
C22A C25 1_555 1_555
H18A C22A 1_555 1_555
C23A C20A 1_555 1_555
C24A O8A 1_555 1_555
C25A C22 1_555 1_555
N4A C21A 1_555 1_555
C26A C24A 1_555 1_555
H19A C26A 1_555 1_555
H20A C26A 1_555 1_555
C4 C8 1_555 1_555
C4 C11 1_555 1_555
C5 C7 1_555 1_555
C6 C8 1_555 1_555
C6 C12 1_555 1_555
C9 C10 1_555 1_555
C23 N4 1_555 1_555
N4 C26 1_555 1_555
C13A C17A 1_555 1_555
C13A C18A 1_555 1_555
C20A C25A 1_555 1_555
C23A N4A 1_555 1_555
N4A C26A 1_555 1_555

#END
