
#######################################################################
#
#                 Cambridge Crystallographic Data Centre
#                                CCDC 
#
#######################################################################
#
# If this CIF has been generated from an entry in the Cambridge 
# Structural Database, then it will include bibliographic, chemical, 
# crystal, experimental, refinement or atomic coordinate data resulting 
# from the CCDC's data processing and validation procedures.
#
#######################################################################

data_OWIKUC
_chemical_formula_moiety         'C49 H52 N8 O3,2.25(C2 H3 N1)'
_chemical_name_systematic        
'49-methoxy-1,25,30,30,39,39-hexamethyl-5,21,44,45,46,47,48,50-octaazanonacyclo[23.9.9.1^6,10^.1^11,15^.1^16,20^.1^26,29^.1^31,34^.1^35,38^.1^40,43^]pentaconta-6(50),7,9,11(49),12,14,16(48),17,19,26,28,31,33,35,37,40,42-heptadecaene-4,22-dione acetonitrile solvate'
_symmetry_cell_setting           triclinic
_symmetry_space_group_name_H-M   'P -1'
_symmetry_Int_Tables_number      2
_space_group_name_Hall           '-P 1'
loop_
_symmetry_equiv_pos_site_id
_symmetry_equiv_pos_as_xyz
1 x,y,z
2 -x,-y,-z
_cell_length_a                   13.9316(19)
_cell_length_b                   18.999(3)
_cell_length_c                   20.790(3)
_cell_angle_alpha                113.997(3)
_cell_angle_beta                 97.902(4)
_cell_angle_gamma                97.286(4)
_cell_volume                     4876.88
_exptl_crystal_colour            colorless
_exptl_crystal_description       Prism
_cell_formula_units_Z            4
loop_
_atom_site_label
_atom_site_type_symbol
_atom_site_fract_x
_atom_site_fract_y
_atom_site_fract_z
O1 O 1.04171(15) 0.72940(12) 0.68580(11)
O2 O 1.51814(16) 0.91561(12) 1.00601(12)
N1 N 1.40916(18) 0.92027(15) 0.91876(14)
H1 H 1.4233 0.9713 0.9461
N2 N 1.33944(19) 0.38824(15) 0.65540(14)
H2 H 1.3564 0.3941 0.6999
N3 N 0.96250(19) 0.47759(16) 0.57261(14)
O3 O 0.88816(17) 0.23129(14) 0.48798(15)
N4 N 1.30687(18) 0.82217(15) 0.81091(14)
N5 N 1.16352(19) 0.43796(16) 0.73351(14)
H3 H 1.1890 0.4662 0.7130
N6 N 0.85655(19) 0.35204(16) 0.51719(15)
H4 H 0.7964 0.3274 0.4921
N7 N 1.5003(2) 0.55625(16) 0.78053(16)
H5 H 1.4846 0.5198 0.7953
N8 N 1.3275(3) 0.60921(16) 0.86180(16)
H6 H 1.3235 0.6056 0.8179
C1 C 1.0807(2) 0.59996(19) 0.62784(17)
C2 C 1.2105(2) 0.71704(18) 0.70171(16)
C3 C 1.2429(2) 0.80270(19) 0.74813(17)
C4 C 1.1108(2) 0.68059(19) 0.67109(17)
C5 C 1.3412(2) 0.8983(2) 0.85378(18)
C6 C 1.2473(2) 0.35056(18) 0.61079(17)
C7 C 1.4573(2) 0.8788(2) 0.94778(19)
C8 C 0.8714(2) 0.43476(19) 0.54536(17)
C9 C 0.8001(2) 0.5461(2) 0.56615(17)
H7 H 0.7443 0.5698 0.5644
C10 C 1.2503(2) 0.35512(19) 0.54764(18)
H8 H 1.1974 0.3347 0.5068
C11 C 1.2812(2) 0.6701(2) 0.68845(17)
H9 H 1.3489 0.6934 0.7098
C12 C 1.3460(2) 0.39564(19) 0.55320(18)
H10 H 1.3684 0.4072 0.5167
C13 C 0.8947(2) 0.59290(19) 0.59388(17)
H11 H 0.9045 0.6483 0.6100
C14 C 1.4006(2) 0.41524(19) 0.62006(18)
C15 C 0.9745(2) 0.5567(2) 0.59744(17)
C16 C 1.2544(2) 0.58966(19) 0.64446(17)
H12 H 1.3034 0.5584 0.6348
C17 C 1.2115(2) 0.8590(2) 0.72957(18)
H13 H 1.1656 0.8438 0.6857
C18 C 0.7868(2) 0.4663(2) 0.54145(17)
H14 H 0.7227 0.4337 0.5224
C19 C 1.1546(2) 0.55576(19) 0.61473(17)
H15 H 1.1362 0.5009 0.5846
C20 C 1.1501(3) 0.3566(2) 0.70527(19)
C21 C 1.1704(2) 0.30603(19) 0.63318(18)
C22 C 1.2476(2) 0.9384(2) 0.77545(18)
H16 H 1.2267 0.9778 0.7631
C23 C 1.0201(2) 0.33757(19) 0.56876(19)
H17 H 1.0150 0.3756 0.6171
H18 H 1.0602 0.3665 0.5481
C24 C 0.9184(3) 0.3032(2) 0.5218(2)
C25 C 1.5067(2) 0.4581(2) 0.65473(19)
C26 C 1.5139(2) 0.5414(2) 0.7123(2)
C27 C 1.3138(2) 0.95906(19) 0.83892(17)
H19 H 1.3399 1.0126 0.8713
C28 C 1.2078(2) 0.23460(18) 0.63680(18)
H20 H 1.2186 0.2003 0.5895
H21 H 1.1583 0.2053 0.6509
H22 H 1.2701 0.2527 0.6724
C29 C 1.0155(2) 0.7460(2) 0.75449(18)
H23 H 0.9853 0.6968 0.7549
H24 H 0.9683 0.7813 0.7624
H25 H 1.0751 0.7712 0.7928
C30 C 1.5147(3) 0.6373(2) 0.8232(2)
C31 C 1.0722(2) 0.27404(18) 0.57586(18)
H26 H 1.0864 0.2413 0.5285
H27 H 1.0265 0.2395 0.5882
C32 C 1.5358(3) 0.6121(2) 0.7106(2)
H28 H 1.5481 0.6204 0.6701
C33 C 1.4388(3) 0.79051(19) 0.91034(18)
H29 H 1.4290 0.7732 0.8577
H30 H 1.3777 0.7683 0.9205
C34 C 1.5603(2) 0.4096(2) 0.6865(2)
H31 H 1.5264 0.4024 0.7223
H32 H 1.6289 0.4375 0.7095
H33 H 1.5599 0.3581 0.6479
C35 C 1.5372(3) 0.6716(2) 0.7799(2)
H34 H 1.5516 0.7266 0.7937
C36 C 1.5585(3) 0.4644(2) 0.5964(2)
H35 H 1.5535 0.4117 0.5580
H36 H 1.6284 0.4892 0.6174
H37 H 1.5269 0.4964 0.5763
C37 C 1.1446(3) 0.5568(2) 0.8429(2)
C38 C 1.1323(3) 0.4689(2) 0.7973(2)
C39 C 1.1206(3) 0.5997(2) 0.79606(19)
H38 H 1.1669 0.5933 0.7636
H39 H 1.1265 0.6557 0.8270
H40 H 1.0528 0.5774 0.7677
C40 C 1.2482(4) 0.5897(2) 0.8877(2)
C41 C 1.5111(3) 0.6690(2) 0.9016(2)
C42 C 1.4151(4) 0.6354(2) 0.9129(2)
C43 C 1.0698(3) 0.5677(2) 0.8931(2)
H41 H 1.0023 0.5466 0.8640
H42 H 1.0768 0.6239 0.9242
H43 H 1.0828 0.5397 0.9228
C44 C 1.5983(3) 0.6496(2) 0.9431(2)
H44 H 1.5876 0.5926 0.9280
H45 H 1.6012 0.6765 0.9950
H46 H 1.6607 0.6673 0.9324
C45 C 1.3891(5) 0.6308(3) 0.9720(3)
H47 H 1.4334 0.6442 1.0162
C46 C 1.1094(4) 0.3370(2) 0.7522(2)
H48 H 1.0916 0.2850 0.7477
C47 C 1.2869(5) 0.6033(3) 0.9576(3)
H49 H 1.2503 0.5953 0.9903
C48 C 1.5257(3) 0.7598(2) 0.9356(2)
H50 H 1.5368 0.7796 0.9886
H51 H 1.5860 0.7814 0.9241
C49 C 1.0970(4) 0.4066(2) 0.8098(3)
H52 H 1.0691 0.4089 0.8496
O4 O 0.52063(15) -0.21314(12) 0.25859(12)
O5 O -0.05888(16) -0.41798(12) 0.02188(12)
O6 O 0.65079(16) 0.27481(13) 0.44732(13)
N9 N 0.09472(19) -0.11395(14) 0.22775(14)
H53 H 0.1445 -0.1166 0.2056
N10 N 0.25015(19) 0.10624(15) 0.20683(14)
H54 H 0.1919 0.1039 0.2186
N11 N 0.60266(19) 0.02771(16) 0.33042(14)
N12 N 0.07318(18) -0.05806(15) 0.10254(14)
H55 H 0.0583 -0.0209 0.1396
N13 N 0.2376(2) -0.31975(16) 0.12944(14)
N14 N 0.27259(18) 0.05499(15) 0.33387(14)
H56 H 0.2726 0.0272 0.2882
N15 N 0.68866(19) 0.15533(16) 0.41539(14)
H57 H 0.7465 0.1813 0.4438
N16 N 0.0916(2) -0.41845(15) 0.07500(14)
H58 H 0.0695 -0.4693 0.0590
C50 C -0.0034(2) -0.13227(18) 0.19426(18)
C51 C 0.3015(2) 0.13545(19) 0.37007(18)
C52 C 0.0393(2) -0.13823(19) 0.07940(17)
C53 C 0.4710(2) -0.17521(19) 0.22326(17)
C54 C 0.3396(2) 0.14080(18) 0.25581(18)
C55 C 0.6024(2) -0.0499(2) 0.29552(18)
C56 C 0.3833(2) -0.21729(19) 0.17239(17)
C57 C 0.6837(2) 0.0744(2) 0.37978(17)
C58 C -0.0348(2) -0.16859(19) 0.11305(18)
C59 C 0.2646(2) 0.07594(19) 0.13702(17)
C60 C 0.1392(2) -0.11750(19) 0.00856(17)
H59 H 0.1762 -0.1271 -0.0282
C61 C 0.3443(2) 0.18587(18) 0.33602(17)
C62 C 0.3648(2) 0.08978(19) 0.14178(19)
H60 H 0.3974 0.0748 0.1024
C63 C 0.2544(2) 0.0855(2) 0.44454(18)
H61 H 0.2403 0.0825 0.4869
C64 C 0.6222(2) 0.2028(2) 0.41532(18)
C65 C 0.7642(2) -0.0327(2) 0.36143(18)
H62 H 0.8196 -0.0534 0.3722
C66 C 0.3373(3) -0.2998(2) 0.15433(17)
C67 C 0.5102(2) -0.09679(19) 0.23998(17)
C68 C 0.7655(2) 0.0461(2) 0.39822(18)
H63 H 0.8205 0.0802 0.4351
C69 C 0.4527(2) 0.22554(18) 0.37626(17)
H64 H 0.4825 0.2555 0.3520
H65 H 0.4532 0.2633 0.4261
C70 C 0.3752(2) -0.10178(19) 0.15105(18)
H66 H 0.3425 -0.0767 0.1258
C71 C 0.0204(3) -0.3789(2) 0.06333(18)
C72 C 0.1045(2) -0.09071(18) 0.30111(18)
C73 C 0.2044(2) -0.06422(19) 0.35281(17)
C74 C 0.2434(2) 0.02392(19) 0.37960(17)
C75 C 0.1333(2) -0.04470(19) 0.05952(17)
C76 C 0.0803(2) -0.1755(2) 0.02078(18)
H67 H 0.0707 -0.2308 -0.0067
C77 C 0.5158(2) 0.16562(19) 0.37865(18)
H68 H 0.4871 0.1370 0.4043
H69 H 0.5131 0.1267 0.3288
C78 C 0.1016(2) 0.09000(18) 0.08034(17)
H70 H 0.0721 0.0928 0.1213
H71 H 0.0498 0.0674 0.0364
H72 H 0.1333 0.1430 0.0890
C79 C 0.0385(2) -0.29039(18) 0.10152(17)
H73 H 0.0966 -0.2678 0.0884
H74 H 0.0538 -0.2735 0.1542
C80 C 0.2850(2) 0.25280(18) 0.34687(17)
H75 H 0.2161 0.2298 0.3212
H76 H 0.3145 0.2879 0.3279
H77 H 0.2872 0.2827 0.3983
C81 C 0.1934(3) -0.3941(2) 0.10754(17)
C82 C 0.3368(2) -0.1797(2) 0.13544(17)
H78 H 0.2785 -0.2074 0.0994
C83 C 0.4113(2) 0.13035(19) 0.21561(18)
H79 H 0.4806 0.1475 0.2342
C84 C 0.6827(2) -0.0826(2) 0.30860(18)
H80 H 0.6817 -0.1370 0.2823
C85 C 0.4601(2) -0.06078(19) 0.20264(17)
H81 H 0.4849 -0.0075 0.2131
C86 C 0.1906(2) -0.0796(2) 0.41835(17)
H82 H 0.1420 -0.0506 0.4415
H83 H 0.2540 -0.0621 0.4528
H84 H 0.1669 -0.1361 0.4026
C87 C -0.1358(2) -0.14746(19) 0.09342(18)
H85 H -0.1851 -0.1680 0.1142
H86 H -0.1578 -0.1710 0.0410
H87 H -0.1280 -0.0902 0.1128
C88 C 0.1797(2) 0.03770(19) 0.07145(17)
C89 C -0.0564(3) -0.11929(19) 0.24660(19)
H88 H -0.1264 -0.1265 0.2397
C90 C 0.2415(3) -0.4525(2) 0.11122(18)
H89 H 0.2061 -0.5044 0.0969
C91 C 0.2797(2) -0.11064(19) 0.31616(17)
H90 H 0.2531 -0.1671 0.2973
H91 H 0.3417 -0.0965 0.3513
H92 H 0.2923 -0.0979 0.2765
C92 C -0.0508(2) -0.25915(18) 0.08192(18)
H93 H -0.1068 -0.2784 0.0991
H94 H -0.0700 -0.2813 0.0288
C93 C 0.2905(2) 0.1553(2) 0.43859(18)
H95 H 0.3045 0.2072 0.4762
C94 C 0.2213(2) 0.0312(2) 0.00492(16)
H96 H 0.2528 0.0837 0.0120
H97 H 0.1674 0.0083 -0.0377
H98 H 0.2704 -0.0024 -0.0019
C95 C 0.0107(3) -0.09299(19) 0.31361(19)
H99 H -0.0068 -0.0794 0.3592
C96 C 0.3416(3) -0.4323(2) 0.13621(19)
H100 H 0.3776 -0.4707 0.1389
C97 C 0.3911(3) -0.3549(2) 0.15780(19)
H101 H 0.4608 -0.3405 0.1747
C98 C 0.4985(3) -0.1988(2) 0.32772(19)
H102 H 0.4283 -0.2199 0.3218
H103 H 0.5132 -0.1420 0.3584
H104 H 0.5390 -0.2245 0.3502
N17 N 1.3953(2) 0.42695(19) 0.81856(18)
C99 C 1.3601(4) 0.4216(3) 0.8618(3)
C100 C 1.3147(5) 0.4136(3) 0.9194(3)
H105 H 1.2870 0.3581 0.9049
H106 H 1.2618 0.4437 0.9276
H107 H 1.3652 0.4339 0.9639
N18 N 1.0421(2) 0.07409(17) 0.24098(17)
C101 C 1.0329(2) 0.0926(2) 0.2989(2)
C102 C 1.0208(3) 0.1182(2) 0.37268(19)
H108 H 0.9702 0.0794 0.3755
H109 H 1.0004 0.1691 0.3889
H110 H 1.0838 0.1236 0.4035
N19 N 1.8108(8) 0.6681(5) 0.8435(5)
C103 C 1.7951(10) 0.6078(7) 0.7793(6)
C104 C 1.8263(7) 0.5384(6) 0.7450(5)
H111 H 1.7967 0.5147 0.6935
H112 H 1.8059 0.5020 0.7654
H113 H 1.8986 0.5491 0.7518
N20 N 1.6774(5) 0.2376(4) 0.5850(3)
C105 C 1.7415(6) 0.2808(5) 0.6291(4)
C106 C 1.8161(6) 0.3402(5) 0.6844(4)
H114 H 1.8009 0.3486 0.7313
H115 H 1.8192 0.3892 0.6788
H116 H 1.8801 0.3241 0.6814
N21? N 1.8630(5) 0.4744(4) 0.7214(4)
C107? C 1.8588(7) 0.4110(5) 0.7143(5)
C108? C 1.8551(7) 0.3320(5) 0.7085(5)
H117? H 1.9225 0.3247 0.7206
H118? H 1.8241 0.2938 0.6591
H119? H 1.8163 0.3242 0.7418
N22? N 1.7775(9) 0.6573(8) 0.7765(6)
C109? C 1.8213(16) 0.6375(10) 0.8198(7)
C110? C 1.8696(10) 0.6600(8) 0.8929(6)
H120? H 1.9152 0.6249 0.8938
H121? H 1.8199 0.6559 0.9210
H122? H 1.9067 0.7143 0.9137
N23? N 0.5117(6) 0.0493(5) 0.4872(4)
C111? C 0.4836(17) -0.0066(10) 0.4967(14)
C112? C 0.4534(7) -0.0798(5) 0.4980(5)
H123? H 0.4002 -0.1128 0.4562
H124? H 0.4294 -0.0712 0.5423
H125? H 0.5096 -0.1062 0.4966
loop_
_geom_bond_atom_site_label_1
_geom_bond_atom_site_label_2
_geom_bond_site_symmetry_1
_geom_bond_site_symmetry_2
O1 C4 1_555 1_555
O2 C7 1_555 1_555
N1 H1 1_555 1_555
N2 H2 1_555 1_555
N3 C8 1_555 1_555
O3 C24 1_555 1_555
N4 C3 1_555 1_555
N5 H3 1_555 1_555
N6 H4 1_555 1_555
N7 H5 1_555 1_555
N8 H6 1_555 1_555
C1 C4 1_555 1_555
C2 C3 1_555 1_555
C3 C17 1_555 1_555
C4 C2 1_555 1_555
C5 N1 1_555 1_555
C6 N2 1_555 1_555
C7 N1 1_555 1_555
C8 N6 1_555 1_555
C9 H7 1_555 1_555
C10 C6 1_555 1_555
H8 C10 1_555 1_555
C11 C2 1_555 1_555
H9 C11 1_555 1_555
C12 C10 1_555 1_555
H10 C12 1_555 1_555
C13 C9 1_555 1_555
H11 C13 1_555 1_555
C14 N2 1_555 1_555
C15 N3 1_555 1_555
C16 C11 1_555 1_555
H12 C16 1_555 1_555
C17 H13 1_555 1_555
C18 C8 1_555 1_555
H14 C18 1_555 1_555
C19 C1 1_555 1_555
H15 C19 1_555 1_555
C20 N5 1_555 1_555
C21 C6 1_555 1_555
C22 C17 1_555 1_555
H16 C22 1_555 1_555
C23 H17 1_555 1_555
H18 C23 1_555 1_555
C24 N6 1_555 1_555
C25 C14 1_555 1_555
C26 N7 1_555 1_555
C27 C5 1_555 1_555
H19 C27 1_555 1_555
C28 C21 1_555 1_555
H20 C28 1_555 1_555
H21 C28 1_555 1_555
H22 C28 1_555 1_555
C29 O1 1_555 1_555
H23 C29 1_555 1_555
H24 C29 1_555 1_555
H25 C29 1_555 1_555
C30 N7 1_555 1_555
C31 C21 1_555 1_555
H26 C31 1_555 1_555
H27 C31 1_555 1_555
C32 C26 1_555 1_555
H28 C32 1_555 1_555
C33 C7 1_555 1_555
H29 C33 1_555 1_555
H30 C33 1_555 1_555
C34 C25 1_555 1_555
H31 C34 1_555 1_555
H32 C34 1_555 1_555
H33 C34 1_555 1_555
C35 C30 1_555 1_555
H34 C35 1_555 1_555
C36 C25 1_555 1_555
H35 C36 1_555 1_555
H36 C36 1_555 1_555
H37 C36 1_555 1_555
C37 C38 1_555 1_555
C38 N5 1_555 1_555
C39 C37 1_555 1_555
H38 C39 1_555 1_555
H39 C39 1_555 1_555
H40 C39 1_555 1_555
C40 N8 1_555 1_555
C41 C30 1_555 1_555
C42 N8 1_555 1_555
C43 C37 1_555 1_555
H41 C43 1_555 1_555
H42 C43 1_555 1_555
H43 C43 1_555 1_555
C44 C41 1_555 1_555
H44 C44 1_555 1_555
H45 C44 1_555 1_555
H46 C44 1_555 1_555
C45 C42 1_555 1_555
H47 C45 1_555 1_555
C46 C20 1_555 1_555
H48 C46 1_555 1_555
C47 C40 1_555 1_555
H49 C47 1_555 1_555
C48 C33 1_555 1_555
H50 C48 1_555 1_555
H51 C48 1_555 1_555
C49 C38 1_555 1_555
H52 C49 1_555 1_555
O4 C53 1_555 1_555
O5 C71 1_555 1_555
O6 C64 1_555 1_555
N9 H53 1_555 1_555
N10 H54 1_555 1_555
N11 C55 1_555 1_555
N12 H55 1_555 1_555
N13 C66 1_555 1_555
N14 H56 1_555 1_555
N15 H57 1_555 1_555
N16 H58 1_555 1_555
C50 N9 1_555 1_555
C51 N14 1_555 1_555
C52 N12 1_555 1_555
C53 C56 1_555 1_555
C54 N10 1_555 1_555
C55 C67 1_555 1_555
C56 C66 1_555 1_555
C57 N11 1_555 1_555
C58 C50 1_555 1_555
C59 N10 1_555 1_555
C60 H59 1_555 1_555
C61 C51 1_555 1_555
C62 C59 1_555 1_555
H60 C62 1_555 1_555
C63 H61 1_555 1_555
C64 N15 1_555 1_555
C65 H62 1_555 1_555
C66 C97 1_555 1_555
C67 C53 1_555 1_555
C68 C57 1_555 1_555
H63 C68 1_555 1_555
C69 C61 1_555 1_555
H64 C69 1_555 1_555
H65 C69 1_555 1_555
C70 H66 1_555 1_555
C71 N16 1_555 1_555
C72 N9 1_555 1_555
C73 C72 1_555 1_555
C74 N14 1_555 1_555
C75 N12 1_555 1_555
C76 C52 1_555 1_555
H67 C76 1_555 1_555
C77 C64 1_555 1_555
H68 C77 1_555 1_555
H69 C77 1_555 1_555
C78 H70 1_555 1_555
H71 C78 1_555 1_555
H72 C78 1_555 1_555
C79 C71 1_555 1_555
H73 C79 1_555 1_555
H74 C79 1_555 1_555
C80 C61 1_555 1_555
H75 C80 1_555 1_555
H76 C80 1_555 1_555
H77 C80 1_555 1_555
C81 N13 1_555 1_555
C82 C56 1_555 1_555
H78 C82 1_555 1_555
C83 C54 1_555 1_555
H79 C83 1_555 1_555
C84 C55 1_555 1_555
H80 C84 1_555 1_555
C85 C67 1_555 1_555
H81 C85 1_555 1_555
C86 C73 1_555 1_555
H82 C86 1_555 1_555
H83 C86 1_555 1_555
H84 C86 1_555 1_555
C87 C58 1_555 1_555
H85 C87 1_555 1_555
H86 C87 1_555 1_555
H87 C87 1_555 1_555
C88 C59 1_555 1_555
C89 C50 1_555 1_555
H88 C89 1_555 1_555
C90 C81 1_555 1_555
H89 C90 1_555 1_555
C91 C73 1_555 1_555
H90 C91 1_555 1_555
H91 C91 1_555 1_555
H92 C91 1_555 1_555
C92 C58 1_555 1_555
H93 C92 1_555 1_555
H94 C92 1_555 1_555
C93 C51 1_555 1_555
H95 C93 1_555 1_555
C94 C88 1_555 1_555
H96 C94 1_555 1_555
H97 C94 1_555 1_555
H98 C94 1_555 1_555
C95 C72 1_555 1_555
H99 C95 1_555 1_555
C96 C90 1_555 1_555
H100 C96 1_555 1_555
C97 C96 1_555 1_555
H101 C97 1_555 1_555
C98 O4 1_555 1_555
H102 C98 1_555 1_555
H103 C98 1_555 1_555
H104 C98 1_555 1_555
N17 C99 1_555 1_555
C99 C100 1_555 1_555
C100 H105 1_555 1_555
H106 C100 1_555 1_555
H107 C100 1_555 1_555
N18 C101 1_555 1_555
C101 C102 1_555 1_555
C102 H108 1_555 1_555
H109 C102 1_555 1_555
H110 C102 1_555 1_555
N19 C103 1_555 1_555
C103 C104 1_555 1_555
C104 H111 1_555 1_555
H112 C104 1_555 1_555
H113 C104 1_555 1_555
N20 C105 1_555 1_555
C105 C106 1_555 1_555
C106 H114 1_555 1_555
H115 C106 1_555 1_555
H116 C106 1_555 1_555
N4 C5 1_555 1_555
C1 C15 1_555 1_555
C9 C18 1_555 1_555
C12 C14 1_555 1_555
C13 C15 1_555 1_555
C16 C19 1_555 1_555
C20 C21 1_555 1_555
C22 C27 1_555 1_555
C23 C24 1_555 1_555
C23 C31 1_555 1_555
C25 C26 1_555 1_555
C32 C35 1_555 1_555
C37 C40 1_555 1_555
C41 C42 1_555 1_555
C41 C48 1_555 1_555
C45 C47 1_555 1_555
C46 C49 1_555 1_555
N15 C57 1_555 1_555
N16 C81 1_555 1_555
C52 C58 1_555 1_555
C54 C61 1_555 1_555
C60 C75 1_555 1_555
C60 C76 1_555 1_555
C62 C83 1_555 1_555
C63 C74 1_555 1_555
C63 C93 1_555 1_555
C65 C68 1_555 1_555
C65 C84 1_555 1_555
C69 C77 1_555 1_555
C70 C82 1_555 1_555
C70 C85 1_555 1_555
C73 C74 1_555 1_555
C75 C88 1_555 1_555
C78 C88 1_555 1_555
C79 C92 1_555 1_555
C89 C95 1_555 1_555

#END
