
#######################################################################
#
#                 Cambridge Crystallographic Data Centre
#                                CCDC 
#
#######################################################################
#
# If this CIF has been generated from an entry in the Cambridge 
# Structural Database, then it will include bibliographic, chemical, 
# crystal, experimental, refinement or atomic coordinate data resulting 
# from the CCDC's data processing and validation procedures.
#
#######################################################################

data_OWIKIQ
_chemical_formula_moiety         'C30 H21 N2 P1 S1'
_chemical_name_systematic        
9-(9H-carbazol-9-yl(phenyl)phosphorothioyl)-9H-carbazole
_symmetry_cell_setting           triclinic
_symmetry_space_group_name_H-M   'P -1'
_symmetry_Int_Tables_number      2
_space_group_name_Hall           '-P 1'
loop_
_symmetry_equiv_pos_site_id
_symmetry_equiv_pos_as_xyz
1 x,y,z
2 -x,-y,-z
_cell_length_a                   9.5544(15)
_cell_length_b                   11.6505(19)
_cell_length_c                   12.0027(19)
_cell_angle_alpha                72.481(2)
_cell_angle_beta                 69.051(2)
_cell_angle_gamma                73.391(2)
_cell_volume                     1165.81
_exptl_crystal_colour            colorless
_exptl_crystal_description       block
_cell_formula_units_Z            2
loop_
_atom_site_label
_atom_site_type_symbol
_atom_site_fract_x
_atom_site_fract_y
_atom_site_fract_z
C1 C 0.5740(2) 0.73354(17) 0.32098(17)
C2 C 0.4649(2) 0.6901(2) 0.3023(2)
H1 H 0.4865 0.6595 0.2335
C3 C 0.3233(3) 0.6939(2) 0.3894(3)
H2 H 0.2489 0.6648 0.3789
C4 C 0.2889(3) 0.7396(2) 0.4918(2)
H3 H 0.1933 0.7388 0.5498
C5 C 0.3948(2) 0.7862(2) 0.5085(2)
H4 H 0.3712 0.8179 0.5770
C6 C 0.5382(2) 0.78556(17) 0.42146(16)
C7 C 0.6697(2) 0.83048(16) 0.41002(16)
C8 C 0.6949(2) 0.89282(19) 0.48133(17)
H5 H 0.6185 0.9123 0.5509
C9 C 0.8343(3) 0.9252(2) 0.44751(19)
H6 H 0.8533 0.9657 0.4950
C10 C 0.9462(2) 0.8974(2) 0.3429(2)
H7 H 1.0398 0.9201 0.3213
C11 C 0.9241(2) 0.83721(18) 0.26923(19)
H8 H 1.0002 0.8210 0.1983
C12 C 0.7848(2) 0.80172(16) 0.30447(16)
C13 C 1.0751(2) 0.56895(16) 0.20023(17)
C14 C 1.0056(3) 0.49646(19) 0.31103(19)
H9 H 0.9005 0.5005 0.3384
C15 C 1.1001(3) 0.4180(2) 0.3786(2)
H10 H 1.0572 0.3686 0.4533
C16 C 1.2568(3) 0.4110(2) 0.3382(2)
H11 H 1.3170 0.3564 0.3856
C17 C 1.3245(3) 0.48322(19) 0.2292(2)
H12 H 1.4298 0.4781 0.2023
C18 C 1.2323(2) 0.56432(17) 0.15983(17)
C19 C 1.2648(2) 0.65535(17) 0.04716(17)
C20 C 1.4010(2) 0.6916(2) -0.02924(19)
H13 H 1.4929 0.6533 -0.0118
C21 C 1.3969(2) 0.7851(2) -0.1309(2)
H14 H 1.4872 0.8093 -0.1836
C22 C 1.2599(2) 0.8437(2) -0.15601(19)
H15 H 1.2599 0.9074 -0.2249
C23 C 1.1228(2) 0.80978(18) -0.08115(17)
H16 H 1.0312 0.8502 -0.0984
C24 C 1.1264(2) 0.71361(16) 0.02045(16)
C25 C 0.7807(2) 0.78971(18) -0.00136(17)
C26 C 0.7218(2) 0.91161(19) 0.00593(19)
H17 H 0.7038 0.9351 0.0781
C27 C 0.6899(3) 0.9982(2) -0.0943(2)
H18 H 0.6502 1.0799 -0.0892
C28 C 0.7165(3) 0.9642(2) -0.2011(2)
H19 H 0.6941 1.0227 -0.2680
C29 C 0.7764(3) 0.8432(2) -0.2095(2)
H20 H 0.7959 0.8209 -0.2826
C30 C 0.8073(2) 0.7555(2) -0.11025(19)
H21 H 0.8456 0.6738 -0.1157
N1 N 0.72835(17) 0.73897(14) 0.24918(14)
N2 N 1.00656(16) 0.65942(14) 0.11424(13)
P1 P 0.82136(5) 0.67314(4) 0.12600(4)
S1 S 0.77097(6) 0.51963(5) 0.14107(5)
loop_
_geom_bond_atom_site_label_1
_geom_bond_atom_site_label_2
_geom_bond_site_symmetry_1
_geom_bond_site_symmetry_2
C1 C2 1_555 1_555
C2 H1 1_555 1_555
C3 C2 1_555 1_555
H2 C3 1_555 1_555
C4 C3 1_555 1_555
H3 C4 1_555 1_555
C5 C4 1_555 1_555
H4 C5 1_555 1_555
C6 C1 1_555 1_555
C7 C6 1_555 1_555
C8 C7 1_555 1_555
H5 C8 1_555 1_555
C9 C8 1_555 1_555
H6 C9 1_555 1_555
C10 C9 1_555 1_555
H7 C10 1_555 1_555
C11 C10 1_555 1_555
H8 C11 1_555 1_555
C12 C7 1_555 1_555
C13 C14 1_555 1_555
C14 H9 1_555 1_555
C15 C14 1_555 1_555
H10 C15 1_555 1_555
C16 C15 1_555 1_555
H11 C16 1_555 1_555
C17 C16 1_555 1_555
H12 C17 1_555 1_555
C18 C13 1_555 1_555
C19 C18 1_555 1_555
C20 C19 1_555 1_555
H13 C20 1_555 1_555
C21 C20 1_555 1_555
H14 C21 1_555 1_555
C22 C21 1_555 1_555
H15 C22 1_555 1_555
C23 C22 1_555 1_555
H16 C23 1_555 1_555
C24 C19 1_555 1_555
C25 C26 1_555 1_555
C26 H17 1_555 1_555
C27 C26 1_555 1_555
H18 C27 1_555 1_555
C28 C27 1_555 1_555
H19 C28 1_555 1_555
C29 C28 1_555 1_555
H20 C29 1_555 1_555
C30 C25 1_555 1_555
H21 C30 1_555 1_555
N1 C1 1_555 1_555
N2 C13 1_555 1_555
P1 C25 1_555 1_555
S1 P1 1_555 1_555
C5 C6 1_555 1_555
C11 C12 1_555 1_555
C12 N1 1_555 1_555
C17 C18 1_555 1_555
C23 C24 1_555 1_555
C24 N2 1_555 1_555
C29 C30 1_555 1_555
N1 P1 1_555 1_555
N2 P1 1_555 1_555

#END
