
#######################################################################
#
#                 Cambridge Crystallographic Data Centre
#                                CCDC 
#
#######################################################################
#
# If this CIF has been generated from an entry in the Cambridge 
# Structural Database, then it will include bibliographic, chemical, 
# crystal, experimental, refinement or atomic coordinate data resulting 
# from the CCDC's data processing and validation procedures.
#
#######################################################################

data_OWILUD
_chemical_formula_moiety         'C50 H56 Li1 N9 O6,3(C2 H3 N1)'
_chemical_name_systematic        
'(methanol)-(49-(methoxy)-1,25,30,30,39,39-hexamethyl-5,21,44,45,46,47,48,50-octaazanonacyclo[23.9.9.1^6,10^.1^11,15^.1^16,20^.1^26,29^.1^31,34^.1^35,38^.1^40,43^]pentaconta-6(50),7,9,11(49),12,14,16(48),17,19,26,28,31,33,35,37,40,42-heptadecaene-4,22-dione)-(nitrito)-lithium acetonitrile solvate'
_symmetry_cell_setting           triclinic
_symmetry_space_group_name_H-M   'P -1'
_symmetry_Int_Tables_number      2
_space_group_name_Hall           '-P 1'
loop_
_symmetry_equiv_pos_site_id
_symmetry_equiv_pos_as_xyz
1 x,y,z
2 -x,-y,-z
_cell_length_a                   13.8350(3)
_cell_length_b                   13.9110(3)
_cell_length_c                   14.7899(3)
_cell_angle_alpha                86.6932(19)
_cell_angle_beta                 83.3607(19)
_cell_angle_gamma                69.639(2)
_cell_volume                     2650.23
_exptl_crystal_colour            colorless
_exptl_crystal_description       block
_cell_formula_units_Z            2
loop_
_atom_site_label
_atom_site_type_symbol
_atom_site_fract_x
_atom_site_fract_y
_atom_site_fract_z
O1 O 0.28587(7) 0.61206(6) 0.70146(6)
O2 O 0.27643(7) 0.28257(7) 0.83370(6)
O3 O 0.22447(7) 0.45682(7) 0.94731(6)
H1 H 0.2890(7) 0.4187(12) 0.9548(9)
O4 O 0.04900(8) 0.55785(7) 0.82725(7)
N1 N 0.34149(8) 0.76414(7) 0.79620(7)
H2 H 0.3312 0.7088 0.7802
O5 O 0.24796(9) 0.47736(8) 0.72769(7)
N2 N 0.18728(8) 0.72280(8) 0.53709(7)
H3 H 0.2096 0.6749 0.5789
N3 N 0.09920(8) 0.80218(7) 0.74994(7)
H4 H 0.1503 0.7442 0.7374
N4 N 0.05854(8) 0.35463(8) 0.83616(7)
N5 N 0.42834(8) 0.69045(8) 0.58507(7)
H5 H 0.3820 0.6722 0.6208
N6 N 0.43107(8) 0.31190(8) 0.93648(7)
N7 N -0.04614(9) 0.49145(8) 0.74947(8)
H6 H -0.0915 0.5084 0.7090
N8 N 0.50720(9) 0.43221(8) 0.89440(8)
H7 H 0.4431 0.4740 0.8912
N9 N 0.30143(9) 0.52671(8) 0.74542(8)
O6 O 0.67332(10) 0.42703(9) 0.88559(13)
C1 C 0.00105(9) 0.94529(9) 0.81852(8)
H8 H -0.0253 1.0001 0.8601
C2 C 0.27159(9) 0.83935(9) 0.85088(8)
C3 C 0.09016(9) 0.86173(9) 0.82357(8)
C4 C 0.01722(9) 0.84580(9) 0.69851(8)
C5 C 0.16944(9) 0.83048(9) 0.89240(8)
C6 C 0.08755(10) 0.79206(9) 0.53908(8)
C7 C -0.04483(9) 0.93510(9) 0.73975(8)
H9 H -0.1072 0.9818 0.7195
C8 C 0.25784(10) 0.23270(9) 0.91401(8)
C9 C 0.52009(10) 0.32843(9) 0.91197(8)
C10 C 0.42959(9) 0.78750(9) 0.77003(8)
C11 C 0.18480(10) 0.71973(9) 0.92739(8)
H10 H 0.2078 0.6730 0.8759
H11 H 0.1191 0.7166 0.9577
H12 H 0.2372 0.6994 0.9707
C12 C 0.50656(9) 0.71651(9) 0.61508(8)
C13 C 0.31558(10) 0.91301(9) 0.85819(8)
H13 H 0.2850 0.9749 0.8910
C14 C 0.16204(10) 0.21974(9) 0.93240(8)
C15 C 0.54114(9) 0.60161(9) 0.75252(8)
H14 H 0.4853 0.5791 0.7356
H15 H 0.6075 0.5558 0.7223
C16 C 0.31229(10) 0.14860(9) 1.05516(8)
H16 H 0.3634 0.1235 1.0967
C17 C 0.08321(10) 0.25569(9) 0.86597(8)
C18 C 0.00500(9) 0.79224(9) 0.61632(8)
C19 C 0.24717(10) 0.73890(9) 0.46084(8)
C20 C 0.52240(9) 0.71295(9) 0.71549(8)
C21 C 0.01562(10) 0.67977(9) 0.64388(8)
H17 H 0.0053 0.6456 0.5907
H18 H 0.0870 0.6430 0.6598
C22 C -0.01506(10) 0.56854(9) 0.77358(9)
C23 C -0.01586(10) 0.38865(10) 0.78016(9)
C24 C 0.12886(10) 0.90153(9) 0.97415(8)
H19 H 0.1779 0.8792 1.0204
H20 H 0.0613 0.8989 1.0000
H21 H 0.1214 0.9720 0.9543
C25 C 0.43473(10) 0.21435(9) 0.95229(8)
C26 C 0.43292(10) 0.69693(9) 0.49134(8)
C27 C 0.14225(10) 0.17112(9) 1.01449(9)
H22 H 0.0770 0.1625 1.0288
C28 C 0.33372(10) 0.19830(9) 0.97464(8)
C29 C -0.06171(10) 0.67016(9) 0.72487(9)
H23 H -0.0763 0.7272 0.7673
H24 H -0.1278 0.6739 0.7027
C30 C 0.21713(10) 0.13547(9) 1.07515(9)
H25 H 0.2032 0.1021 1.1304
C31 C 0.41518(10) 0.87998(9) 0.80775(8)
H26 H 0.4631 0.9156 0.8013
C32 C 0.54471(10) 0.58871(9) 0.85613(8)
H27 H 0.5921 0.6211 0.8756
H28 H 0.4747 0.6230 0.8875
C33 C 0.36670(10) 0.55668(9) 0.46050(9)
H29 H 0.3514 0.5479 0.5262
H30 H 0.4370 0.5108 0.4410
H31 H 0.3167 0.5401 0.4281
C34 C 0.35872(10) 0.66900(9) 0.43875(8)
C35 C 0.61936(10) 0.74033(10) 0.72441(9)
H32 H 0.6094 0.8095 0.6993
H33 H 0.6797 0.6909 0.6908
H34 H 0.6308 0.7381 0.7888
C36 C 0.52716(10) 0.13193(10) 0.94568(9)
H35 H 0.5278 0.0640 0.9585
C37 C -0.10239(10) 0.84861(10) 0.58426(9)
H36 H -0.1560 0.8491 0.6339
H37 H -0.1112 0.8134 0.5319
H38 H -0.1085 0.9193 0.5665
C38 C 0.61652(10) 0.24997(10) 0.90235(9)
H39 H 0.6784 0.2643 0.8844
C39 C 0.08454(11) 0.85398(10) 0.46288(9)
H40 H 0.0259 0.9093 0.4460
C40 C 0.58210(11) 0.47594(10) 0.88174(9)
C41 C 0.03878(11) 0.18953(10) 0.83649(9)
H41 H 0.0591 0.1202 0.8576
C42 C 0.18468(11) 0.82064(10) 0.41386(9)
H42 H 0.2049 0.8498 0.3584
C43 C 0.56129(11) 0.74046(11) 0.53943(9)
H43 H 0.6196 0.7617 0.5387
C44 C 0.51496(11) 0.72768(11) 0.46192(9)
H44 H 0.5373 0.7387 0.4003
C45 C 0.61849(10) 0.15073(10) 0.91995(9)
H45 H 0.6826 0.0953 0.9144
C46 C 0.38969(11) 0.67891(11) 0.33622(9)
H46 H 0.3432 0.6597 0.3015
H47 H 0.4612 0.6334 0.3209
H48 H 0.3843 0.7500 0.3210
C47 C -0.06549(11) 0.32721(11) 0.74773(10)
H49 H -0.1179 0.3547 0.7077
C48 C -0.03600(12) 0.22580(11) 0.77564(10)
H50 H -0.0663 0.1812 0.7536
C49 C 0.16828(12) 0.46856(12) 1.03540(10)
H51 H 0.0952 0.5087 1.0303
H52 H 0.1969 0.5042 1.0745
H53 H 0.1741 0.4009 1.0620
C50 C 0.33473(16) 0.21665(13) 0.76226(10)
H54 H 0.4048 0.1794 0.7790
H55 H 0.3388 0.2574 0.7066
H56 H 0.3009 0.1675 0.7518
Li1 Li 0.16884(18) 0.43315(17) 0.84112(16)
N10 N -0.15206(12) 0.53732(11) 0.58205(10)
C51 C -0.15744(12) 0.57679(11) 0.51244(10)
C52 C -0.16352(17) 0.62787(15) 0.42394(12)
H57 H -0.1933 0.5945 0.3837
H58 H -0.0939 0.6237 0.3976
H59 H -0.2075 0.7000 0.4307
N11 N 0.27702(14) 1.10550(11) 0.58712(11)
C53 C 0.25222(12) 1.03589(11) 0.60469(10)
C54 C 0.22186(13) 0.94642(12) 0.62573(11)
H60 H 0.2135 0.9182 0.5691
H61 H 0.1561 0.9663 0.6649
H62 H 0.2755 0.8945 0.6574
N12 N 0.65719(13) 0.00882(12) 0.73774(11)
C55 C 0.61247(13) 0.01134(11) 0.67778(11)
C56 C 0.55334(19) 0.01248(15) 0.60232(13)
H63 H 0.5900 -0.0477 0.5647
H64 H 0.5454 0.0750 0.5654
H65 H 0.4848 0.0108 0.6261
loop_
_geom_bond_atom_site_label_1
_geom_bond_atom_site_label_2
_geom_bond_site_symmetry_1
_geom_bond_site_symmetry_2
O1 N9 1_555 1_555
O2 C8 1_555 1_555
O3 H1 1_555 1_555
O4 C22 1_555 1_555
N1 H2 1_555 1_555
O5 N9 1_555 1_555
N2 H3 1_555 1_555
N3 H4 1_555 1_555
N4 C17 1_555 1_555
N5 H5 1_555 1_555
N6 C9 1_555 1_555
N7 H6 1_555 1_555
N8 H7 1_555 1_555
O6 C40 1_555 1_555
C1 H8 1_555 1_555
C2 N1 1_555 1_555
C3 N3 1_555 1_555
C4 N3 1_555 1_555
C5 C2 1_555 1_555
C6 N2 1_555 1_555
C7 C1 1_555 1_555
H9 C7 1_555 1_555
C8 C14 1_555 1_555
C9 N8 1_555 1_555
C10 N1 1_555 1_555
C11 C5 1_555 1_555
H10 C11 1_555 1_555
H11 C11 1_555 1_555
H12 C11 1_555 1_555
C12 N5 1_555 1_555
C13 C2 1_555 1_555
H13 C13 1_555 1_555
C14 C17 1_555 1_555
C15 H14 1_555 1_555
H15 C15 1_555 1_555
C16 H16 1_555 1_555
C17 C41 1_555 1_555
C18 C4 1_555 1_555
C19 N2 1_555 1_555
C20 C10 1_555 1_555
C21 C18 1_555 1_555
H17 C21 1_555 1_555
H18 C21 1_555 1_555
C22 N7 1_555 1_555
C23 N4 1_555 1_555
C24 C5 1_555 1_555
H19 C24 1_555 1_555
H20 C24 1_555 1_555
H21 C24 1_555 1_555
C25 N6 1_555 1_555
C26 N5 1_555 1_555
C27 C14 1_555 1_555
H22 C27 1_555 1_555
C28 C8 1_555 1_555
C29 C21 1_555 1_555
H23 C29 1_555 1_555
H24 C29 1_555 1_555
C30 C16 1_555 1_555
H25 C30 1_555 1_555
C31 C10 1_555 1_555
H26 C31 1_555 1_555
C32 C15 1_555 1_555
H27 C32 1_555 1_555
H28 C32 1_555 1_555
C33 H29 1_555 1_555
H30 C33 1_555 1_555
H31 C33 1_555 1_555
C34 C19 1_555 1_555
C35 C20 1_555 1_555
H32 C35 1_555 1_555
H33 C35 1_555 1_555
H34 C35 1_555 1_555
C36 C25 1_555 1_555
H35 C36 1_555 1_555
C37 C18 1_555 1_555
H36 C37 1_555 1_555
H37 C37 1_555 1_555
H38 C37 1_555 1_555
C38 C9 1_555 1_555
H39 C38 1_555 1_555
C39 C6 1_555 1_555
H40 C39 1_555 1_555
C40 N8 1_555 1_555
C41 H41 1_555 1_555
C42 C19 1_555 1_555
H42 C42 1_555 1_555
C43 C12 1_555 1_555
H43 C43 1_555 1_555
C44 C26 1_555 1_555
H44 C44 1_555 1_555
C45 C36 1_555 1_555
H45 C45 1_555 1_555
C46 C34 1_555 1_555
H46 C46 1_555 1_555
H47 C46 1_555 1_555
H48 C46 1_555 1_555
C47 C23 1_555 1_555
H49 C47 1_555 1_555
C48 C41 1_555 1_555
H50 C48 1_555 1_555
C49 O3 1_555 1_555
H51 C49 1_555 1_555
H52 C49 1_555 1_555
H53 C49 1_555 1_555
C50 O2 1_555 1_555
H54 C50 1_555 1_555
H55 C50 1_555 1_555
H56 C50 1_555 1_555
Li1 O2 1_555 1_555
N10 C51 1_555 1_555
C51 C52 1_555 1_555
C52 H57 1_555 1_555
H58 C52 1_555 1_555
H59 C52 1_555 1_555
N11 C53 1_555 1_555
C53 C54 1_555 1_555
C54 H60 1_555 1_555
H61 C54 1_555 1_555
H62 C54 1_555 1_555
N12 C55 1_555 1_555
C55 C56 1_555 1_555
C56 H63 1_555 1_555
H64 C56 1_555 1_555
H65 C56 1_555 1_555
O3 Li1 1_555 1_555
O4 Li1 1_555 1_555
O5 Li1 1_555 1_555
N4 Li1 1_555 1_555
N7 C23 1_555 1_555
C1 C3 1_555 1_555
C3 C5 1_555 1_555
C4 C7 1_555 1_555
C6 C18 1_555 1_555
C12 C20 1_555 1_555
C13 C31 1_555 1_555
C15 C20 1_555 1_555
C16 C28 1_555 1_555
C22 C29 1_555 1_555
C25 C28 1_555 1_555
C26 C34 1_555 1_555
C27 C30 1_555 1_555
C32 C40 1_555 1_555
C33 C34 1_555 1_555
C38 C45 1_555 1_555
C39 C42 1_555 1_555
C43 C44 1_555 1_555
C47 C48 1_555 1_555

#END
