
#######################################################################
#
#                 Cambridge Crystallographic Data Centre
#                                CCDC 
#
#######################################################################
#
# If this CIF has been generated from an entry in the Cambridge 
# Structural Database, then it will include bibliographic, chemical, 
# crystal, experimental, refinement or atomic coordinate data resulting 
# from the CCDC's data processing and validation procedures.
#
#######################################################################

data_OWIMUE
_chemical_formula_moiety         
'C50 H58 Li1 N8 O5 1+,2(C1 H4 O1),C2 H3 N1,Cl1 1-'
_chemical_name_systematic        
'aqua-(methanol)-(49-methoxy-1,25,30,30,39,39-hexamethyl-5,21,44,45,46,47,48,50-octaazanonacyclo[23.9.9.1^6,10^.1^11,15^.1^16,20^.1^26,29^.1^31,34^.1^35,38^.1^40,43^]pentaconta-6(50),7,9,11(49),12,14,16(48),17,19,26,28,31,33,35,37,40,42-heptadecaene-4,22-dione)-lithium chloride acetonitrile methanol solvate'
_symmetry_cell_setting           triclinic
_symmetry_space_group_name_H-M   'P -1'
_symmetry_Int_Tables_number      2
_space_group_name_Hall           '-P 1'
loop_
_symmetry_equiv_pos_site_id
_symmetry_equiv_pos_as_xyz
1 x,y,z
2 -x,-y,-z
_cell_length_a                   10.8528(2)
_cell_length_b                   13.6605(3)
_cell_length_c                   18.1919(3)
_cell_angle_alpha                85.4609(14)
_cell_angle_beta                 88.1007(15)
_cell_angle_gamma                89.6809(17)
_cell_volume                     2687.09
_exptl_crystal_colour            colorless
_exptl_crystal_description       block
_cell_formula_units_Z            2
loop_
_atom_site_label
_atom_site_type_symbol
_atom_site_fract_x
_atom_site_fract_y
_atom_site_fract_z
O1 O 0.43147(11) 0.38007(8) 0.72924(6)
O2 O 0.60469(9) 0.68020(7) 0.73395(5)
O3 O 1.11111(11) 0.53579(10) 0.90022(9)
O4 O 0.34736(10) 0.48120(9) 0.87583(6)
H1 H 0.2735(10) 0.5012(16) 0.8789(9)
O5 O 0.61286(9) 0.48067(8) 0.81840(6)
H2 H 0.6576 0.4534 0.7865
N1 N 0.62092(10) 0.15227(8) 0.73716(6)
H3 H 0.6589 0.2093 0.7322
N2 N 0.86011(10) 0.18632(9) 0.84499(6)
H4 H 0.8401 0.2299 0.8091
N3 N 1.05322(10) 0.23381(9) 0.69349(6)
H5 H 1.0049 0.2857 0.6943
N4 N 0.80278(10) 0.19682(8) 0.58566(6)
H6 H 0.7992 0.2425 0.6172
N5 N 0.90544(11) 0.52365(9) 0.89160(7)
H7 H 0.8450 0.4814 0.8896
N6 N 0.75141(11) 0.63642(9) 0.87179(7)
N7 N 0.36483(10) 0.57790(9) 0.70012(6)
N8 N 0.33763(10) 0.44482(9) 0.62575(7)
H8 H 0.3088 0.4281 0.5839
C1 C 0.57588(12) 0.15264(10) 0.60174(7)
C2 C 0.57191(12) 0.10625(10) 0.68026(8)
C3 C 0.52241(13) 0.01955(10) 0.71034(8)
H9 H 0.4823 -0.0279 0.6842
C4 C 0.54154(13) 0.01306(10) 0.78737(8)
H10 H 0.5169 -0.0396 0.8219
C5 C 0.60219(12) 0.09662(10) 0.80301(8)
C6 C 0.63927(12) 0.13257(10) 0.87580(8)
C7 C 0.77743(13) 0.12625(10) 0.88612(8)
C8 C 0.84457(14) 0.06961(11) 0.93593(8)
H11 H 0.8125 0.0212 0.9717
C9 C 0.97076(14) 0.09609(12) 0.92459(9)
H12 H 1.0378 0.0685 0.9515
C10 C 0.97872(13) 0.16841(10) 0.86804(8)
C11 C 1.08921(12) 0.22261(11) 0.83161(8)
C12 C 1.11042(12) 0.18965(10) 0.75420(8)
C13 C 1.17665(13) 0.11158(11) 0.73003(8)
H13 H 1.2260 0.0673 0.7594
C14 C 1.15811(12) 0.10887(11) 0.65324(8)
H14 H 1.1924 0.0622 0.6223
C15 C 1.08203(12) 0.18551(10) 0.63161(8)
C16 C 1.03152(12) 0.21870(10) 0.55672(7)
C17 C 0.90836(12) 0.16977(10) 0.54769(7)
C18 C 0.87605(12) 0.09666(10) 0.50458(8)
H15 H 0.9298 0.0636 0.4724
C19 C 0.74737(13) 0.07924(10) 0.51676(8)
H16 H 0.7000 0.0324 0.4941
C20 C 0.70397(12) 0.14202(10) 0.56701(7)
C21 C 0.53849(12) 0.26227(10) 0.60131(8)
H17 H 0.5967 0.2967 0.6311
H18 H 0.5447 0.2927 0.5501
C22 C 0.40600(12) 0.27556(11) 0.63254(9)
H19 H 0.3472 0.2741 0.5922
H20 H 0.3858 0.2205 0.6696
C23 C 0.39256(12) 0.37111(11) 0.66771(8)
C24 C 0.32031(12) 0.54363(10) 0.63966(8)
C25 C 0.25734(14) 0.60219(11) 0.58628(8)
H21 H 0.2271 0.5749 0.5440
C26 C 0.24034(14) 0.69994(12) 0.59658(9)
H22 H 0.1979 0.7414 0.5614
C27 C 0.28589(14) 0.73756(11) 0.65913(8)
H23 H 0.2749 0.8049 0.6674
C28 C 0.34745(12) 0.67493(10) 0.70895(8)
C29 C 0.39715(13) 0.71074(10) 0.77724(8)
C30 C 0.31738(13) 0.74521(11) 0.83118(8)
H24 H 0.2313 0.7486 0.8232
C31 C 0.36263(14) 0.77455(12) 0.89625(9)
H25 H 0.3078 0.7984 0.9326
C32 C 0.48835(14) 0.76900(11) 0.90827(8)
H26 H 0.5188 0.7877 0.9535
C33 C 0.57028(13) 0.73641(10) 0.85485(8)
C34 C 0.52423(12) 0.70937(10) 0.78867(7)
C35 C 0.70471(13) 0.72786(11) 0.86954(7)
C36 C 0.77553(14) 0.80898(11) 0.88204(8)
H27 H 0.7403 0.8729 0.8803
C37 C 0.89902(14) 0.79408(12) 0.89721(9)
H28 H 0.9496 0.8484 0.9054
C38 C 0.94871(13) 0.70037(12) 0.90042(8)
H29 H 1.0329 0.6889 0.9110
C39 C 0.87046(13) 0.62354(11) 0.88748(8)
C40 C 1.01997(14) 0.48410(12) 0.89820(9)
C41 C 1.02792(14) 0.37339(12) 0.90273(8)
H30 H 0.9463 0.3455 0.9182
H31 H 1.0874 0.3508 0.9406
C42 C 1.06890(12) 0.33557(11) 0.82835(8)
H32 H 1.1467 0.3686 0.8110
H33 H 1.0057 0.3540 0.7917
C43 C 1.20479(13) 0.19570(12) 0.87611(9)
H34 H 1.2198 0.1248 0.8767
H35 H 1.1918 0.2140 0.9268
H36 H 1.2762 0.2311 0.8531
C44 C 1.12210(13) 0.18807(11) 0.49597(8)
H37 H 1.1344 0.1168 0.5015
H38 H 1.2012 0.2211 0.5001
H39 H 1.0885 0.2068 0.4475
C45 C 1.01629(13) 0.33126(10) 0.54863(8)
H40 H 0.9928 0.3521 0.4982
H41 H 1.0944 0.3623 0.5589
H42 H 0.9520 0.3510 0.5836
C46 C 0.48420(12) 0.09948(11) 0.55683(8)
H43 H 0.4868 0.1284 0.5057
H44 H 0.4009 0.1063 0.5783
H45 H 0.5062 0.0297 0.5577
C47 C 0.57467(14) 0.06753(11) 0.93786(8)
H46 H 0.4851 0.0731 0.9332
H47 H 0.5976 0.0888 0.9857
H48 H 0.5999 -0.0010 0.9343
C48 C 0.59556(13) 0.23913(11) 0.88117(8)
H49 H 0.6357 0.2815 0.8416
H50 H 0.6172 0.2612 0.9291
H51 H 0.5060 0.2426 0.8763
C49 C 0.64633(18) 0.76058(13) 0.68420(10)
H52 H 0.7050 0.7365 0.6477
H53 H 0.6868 0.8093 0.7119
H54 H 0.5757 0.7910 0.6590
C50 C 0.38321(17) 0.44161(19) 0.94542(10)
H55 H 0.4705 0.4229 0.9428
H56 H 0.3332 0.3835 0.9606
H57 H 0.3710 0.4908 0.9814
Li1 Li 0.4450(2) 0.48897(18) 0.78598(14)
H58 H 0.656(2) 0.5316(16) 0.8322(12)
O6 O 0.89274(13) 0.55673(10) 0.62910(7)
H59 H 0.8631 0.5036 0.6480
C51 C 0.94141(19) 0.60881(15) 0.68391(11)
H60 H 0.8764 0.6213 0.7207
H61 H 0.9745 0.6715 0.6620
H62 H 1.0077 0.5704 0.7077
O7 O 0.71180(11) 0.58817(9) 0.52599(6)
H63 H 0.777(2) 0.5855(18) 0.5568(14)
C52 C 0.61041(15) 0.55179(14) 0.57076(9)
H64 H 0.6162 0.5745 0.6203
H65 H 0.6114 0.4798 0.5740
H66 H 0.5335 0.5759 0.5490
N9 N 1.01882(19) 0.84548(14) 0.71758(14)
C53 C 0.87726(15) 0.99854(13) 0.71473(11)
H67 H 0.8619 1.0222 0.6636
H68 H 0.9177 1.0502 0.7395
H69 H 0.7988 0.9813 0.7406
C54 C 0.95611(16) 0.91271(13) 0.71554(10)
Cl1 Cl 0.79093(3) 0.36089(2) 0.71459(2)
loop_
_geom_bond_atom_site_label_1
_geom_bond_atom_site_label_2
_geom_bond_site_symmetry_1
_geom_bond_site_symmetry_2
O1 C23 1_555 1_555
O2 C34 1_555 1_555
O3 C40 1_555 1_555
O4 H1 1_555 1_555
O5 H2 1_555 1_555
N1 H3 1_555 1_555
N2 H4 1_555 1_555
N3 H5 1_555 1_555
N4 H6 1_555 1_555
N5 H7 1_555 1_555
N6 C35 1_555 1_555
N7 C24 1_555 1_555
N8 H8 1_555 1_555
C1 C2 1_555 1_555
C2 N1 1_555 1_555
C3 C2 1_555 1_555
H9 C3 1_555 1_555
C4 C3 1_555 1_555
H10 C4 1_555 1_555
C5 N1 1_555 1_555
C6 C5 1_555 1_555
C7 N2 1_555 1_555
C8 C7 1_555 1_555
H11 C8 1_555 1_555
C9 C8 1_555 1_555
H12 C9 1_555 1_555
C10 N2 1_555 1_555
C11 C10 1_555 1_555
C12 N3 1_555 1_555
C13 C12 1_555 1_555
H13 C13 1_555 1_555
C14 C13 1_555 1_555
H14 C14 1_555 1_555
C15 N3 1_555 1_555
C16 C15 1_555 1_555
C17 N4 1_555 1_555
C18 C17 1_555 1_555
H15 C18 1_555 1_555
C19 C18 1_555 1_555
H16 C19 1_555 1_555
C20 N4 1_555 1_555
C21 C1 1_555 1_555
H17 C21 1_555 1_555
H18 C21 1_555 1_555
C22 C21 1_555 1_555
H19 C22 1_555 1_555
H20 C22 1_555 1_555
C23 N8 1_555 1_555
C24 N8 1_555 1_555
C25 C24 1_555 1_555
H21 C25 1_555 1_555
C26 C25 1_555 1_555
H22 C26 1_555 1_555
C27 C26 1_555 1_555
H23 C27 1_555 1_555
C28 N7 1_555 1_555
C29 C28 1_555 1_555
C30 C29 1_555 1_555
H24 C30 1_555 1_555
C31 C30 1_555 1_555
H25 C31 1_555 1_555
C32 C31 1_555 1_555
H26 C32 1_555 1_555
C33 C32 1_555 1_555
C34 C29 1_555 1_555
C35 C33 1_555 1_555
C36 C35 1_555 1_555
H27 C36 1_555 1_555
C37 C36 1_555 1_555
H28 C37 1_555 1_555
C38 C37 1_555 1_555
H29 C38 1_555 1_555
C39 N5 1_555 1_555
C40 N5 1_555 1_555
C41 C40 1_555 1_555
H30 C41 1_555 1_555
H31 C41 1_555 1_555
C42 C11 1_555 1_555
H32 C42 1_555 1_555
H33 C42 1_555 1_555
C43 C11 1_555 1_555
H34 C43 1_555 1_555
H35 C43 1_555 1_555
H36 C43 1_555 1_555
C44 C16 1_555 1_555
H37 C44 1_555 1_555
H38 C44 1_555 1_555
H39 C44 1_555 1_555
C45 C16 1_555 1_555
H40 C45 1_555 1_555
H41 C45 1_555 1_555
H42 C45 1_555 1_555
C46 C1 1_555 1_555
H43 C46 1_555 1_555
H44 C46 1_555 1_555
H45 C46 1_555 1_555
C47 C6 1_555 1_555
H46 C47 1_555 1_555
H47 C47 1_555 1_555
H48 C47 1_555 1_555
C48 C6 1_555 1_555
H49 C48 1_555 1_555
H50 C48 1_555 1_555
H51 C48 1_555 1_555
C49 O2 1_555 1_555
H52 C49 1_555 1_555
H53 C49 1_555 1_555
H54 C49 1_555 1_555
C50 O4 1_555 1_555
H55 C50 1_555 1_555
H56 C50 1_555 1_555
H57 C50 1_555 1_555
Li1 O1 1_555 1_555
H58 O5 1_555 1_555
O6 H59 1_555 1_555
C51 O6 1_555 1_555
H60 C51 1_555 1_555
H61 C51 1_555 1_555
H62 C51 1_555 1_555
O7 H63 1_555 1_555
C52 O7 1_555 1_555
H64 C52 1_555 1_555
H65 C52 1_555 1_555
H66 C52 1_555 1_555
N9 C54 1_555 1_555
C53 H67 1_555 1_555
H68 C53 1_555 1_555
H69 C53 1_555 1_555
C54 C53 1_555 1_555
O4 Li1 1_555 1_555
O5 Li1 1_555 1_555
N6 C39 1_555 1_555
N7 Li1 1_555 1_555
C1 C20 1_555 1_555
C4 C5 1_555 1_555
C6 C7 1_555 1_555
C9 C10 1_555 1_555
C11 C12 1_555 1_555
C14 C15 1_555 1_555
C16 C17 1_555 1_555
C19 C20 1_555 1_555
C22 C23 1_555 1_555
C27 C28 1_555 1_555
C33 C34 1_555 1_555
C38 C39 1_555 1_555
C41 C42 1_555 1_555

#END
