
#######################################################################
#
#                 Cambridge Crystallographic Data Centre
#                                CCDC 
#
#######################################################################
#
# If this CIF has been generated from an entry in the Cambridge 
# Structural Database, then it will include bibliographic, chemical, 
# crystal, experimental, refinement or atomic coordinate data resulting 
# from the CCDC's data processing and validation procedures.
#
#######################################################################

data_OWOBIN
_chemical_formula_moiety         'C18 H21 N3'
_chemical_name_systematic        2-(2,6-diisopropylphenyl)-2H-benzotriazole
_symmetry_cell_setting           orthorhombic
_symmetry_space_group_name_H-M   'P n a 21'
_symmetry_Int_Tables_number      33
_space_group_name_Hall           'P 2c -2n'
loop_
_symmetry_equiv_pos_site_id
_symmetry_equiv_pos_as_xyz
1 x,y,z
2 -x,-y,1/2+z
3 1/2+x,1/2-y,z
4 1/2-x,1/2+y,1/2+z
_cell_length_a                   14.58554(8)
_cell_length_b                   8.33918(5)
_cell_length_c                   25.4351(2)
_cell_angle_alpha                90
_cell_angle_beta                 90
_cell_angle_gamma                90
_cell_volume                     3093.71
_exptl_crystal_colour            'orangish white'
_exptl_crystal_description       irregular
_cell_formula_units_Z            8
_exptl_crystal_recrystallization_method methanol
loop_
_atom_site_label
_atom_site_type_symbol
_atom_site_fract_x
_atom_site_fract_y
_atom_site_fract_z
N1 N 0.55049(12) 0.75045(17) 0.63164(7)
N2 N 0.46616(10) 0.70893(19) 0.61630(6)
N3 N 0.57689(11) 0.7076(2) 0.67961(6)
C1 C 0.43398(12) 0.6286(2) 0.65901(7)
C2 C 0.60772(11) 0.8482(2) 0.59808(7)
C3 C 0.50270(12) 0.6277(2) 0.69807(7)
C4 C 0.52634(14) 1.0930(2) 0.63657(9)
H1 H 0.4874 1.0085 0.6513
C5 C 0.72327(13) 0.8709(2) 0.53219(8)
H2 H 0.7655 0.8251 0.5093
C6 C 0.71241(13) 1.0362(2) 0.53308(9)
H3 H 0.7477 1.1001 0.5110
C7 C 0.67168(13) 0.7724(2) 0.56524(8)
C8 C 0.64949(13) 1.1068(2) 0.56663(9)
H4 H 0.6437 1.2179 0.5671
C9 C 0.68721(12) 0.5919(2) 0.56700(8)
H5 H 0.6283 0.5402 0.5745
C10 C 0.59465(12) 1.0138(2) 0.59974(8)
C11 C 0.40535(13) 0.4786(2) 0.75429(9)
H6 H 0.3939 0.4264 0.7859
C12 C 0.33571(13) 0.4815(2) 0.71506(9)
H7 H 0.2800 0.4316 0.7220
C13 C 0.34780(13) 0.5550(2) 0.66747(8)
H8 H 0.3019 0.5565 0.6421
C14 C 0.75361(14) 0.5506(2) 0.61165(8)
H9 H 0.8126 0.5968 0.6044
H10 H 0.7594 0.4363 0.6144
H11 H 0.7305 0.5930 0.6441
C15 C 0.72323(14) 0.5252(2) 0.51509(9)
H12 H 0.6860 0.5641 0.4867
H13 H 0.7208 0.4102 0.5159
H14 H 0.7855 0.5593 0.5100
C16 C 0.48863(14) 0.5504(2) 0.74681(8)
H15 H 0.5338 0.5484 0.7726
C17 C 0.46437(16) 1.2108(3) 0.60751(10)
H16 H 0.5001 1.3002 0.5954
H17 H 0.4173 1.2484 0.6309
H18 H 0.4367 1.1581 0.5780
C18 C 0.57604(17) 1.1740(3) 0.68192(11)
H19 H 0.6124 1.0962 0.7003
H20 H 0.5320 1.2198 0.7056
H21 H 0.6151 1.2571 0.6685
N4 N 0.82892(10) 0.8004(2) 0.32148(6)
N5 N 0.71513(10) 0.78556(19) 0.38296(6)
N6 N 0.80085(12) 0.75142(16) 0.36886(7)
C19 C 0.75348(12) 0.8767(2) 0.30281(7)
C20 C 0.97872(12) 0.6252(2) 0.46413(8)
H22 H 1.0219 0.6696 0.4867
C21 C 0.59558(12) 0.9350(2) 0.33098(8)
H23 H 0.5484 0.9279 0.3554
C22 C 0.93398(12) 0.9072(2) 0.43540(8)
H24 H 0.8751 0.9555 0.4257
C23 C 0.96104(13) 0.9713(2) 0.48953(8)
H25 H 0.9188 0.9319 0.5155
H26 H 0.9594 1.0863 0.4891
H27 H 1.0219 0.9358 0.4980
C24 C 0.74033(14) 0.9570(2) 0.25423(8)
H28 H 0.7867 0.9644 0.2292
C25 C 0.97098(13) 0.4600(2) 0.46048(9)
H29 H 1.0091 0.3948 0.4805
C26 C 0.85899(11) 0.6519(2) 0.40105(7)
C27 C 0.90691(13) 0.3913(2) 0.42728(8)
H30 H 0.9025 0.2802 0.4253
C28 C 0.58422(13) 1.0116(2) 0.28381(9)
H31 H 0.5277 1.0576 0.2762
C29 C 0.78079(13) 0.4100(2) 0.35887(8)
H32 H 0.7378 0.4937 0.3477
C30 C 1.00511(14) 0.9570(2) 0.39387(9)
H33 H 1.0633 0.9097 0.4022
H34 H 1.0109 1.0717 0.3936
H35 H 0.9855 0.9207 0.3599
C31 C 0.68313(12) 0.8670(2) 0.34061(7)
C32 C 0.92261(13) 0.7260(2) 0.43438(8)
C33 C 0.84877(12) 0.4857(2) 0.39668(8)
C34 C 0.72514(17) 0.2761(3) 0.38417(10)
H36 H 0.7649 0.1879 0.3925
H37 H 0.6785 0.2408 0.3602
H38 H 0.6969 0.3151 0.4158
C35 C 0.65545(14) 1.0231(2) 0.24627(8)
H39 H 0.6443 1.0775 0.2150
C36 C 0.83071(16) 0.3496(3) 0.30994(10)
H40 H 0.8617 0.4375 0.2932
H41 H 0.7872 0.3039 0.2860
H42 H 0.8747 0.2696 0.3199
loop_
_geom_bond_atom_site_label_1
_geom_bond_atom_site_label_2
_geom_bond_site_symmetry_1
_geom_bond_site_symmetry_2
N1 N2 1_555 1_555
N2 C1 1_555 1_555
N3 N1 1_555 1_555
C1 C3 1_555 1_555
C2 N1 1_555 1_555
C3 N3 1_555 1_555
C4 H1 1_555 1_555
C5 H2 1_555 1_555
C6 C5 1_555 1_555
H3 C6 1_555 1_555
C7 C2 1_555 1_555
C8 C6 1_555 1_555
H4 C8 1_555 1_555
C9 C7 1_555 1_555
H5 C9 1_555 1_555
C10 C2 1_555 1_555
C11 H6 1_555 1_555
C12 C11 1_555 1_555
H7 C12 1_555 1_555
C13 C1 1_555 1_555
H8 C13 1_555 1_555
C14 C9 1_555 1_555
H9 C14 1_555 1_555
H10 C14 1_555 1_555
H11 C14 1_555 1_555
C15 C9 1_555 1_555
H12 C15 1_555 1_555
H13 C15 1_555 1_555
H14 C15 1_555 1_555
C16 C3 1_555 1_555
H15 C16 1_555 1_555
C17 C4 1_555 1_555
H16 C17 1_555 1_555
H17 C17 1_555 1_555
H18 C17 1_555 1_555
C18 C4 1_555 1_555
H19 C18 1_555 1_555
H20 C18 1_555 1_555
H21 C18 1_555 1_555
N4 N6 1_555 1_555
N5 N6 1_555 1_555
N6 C26 1_555 1_555
C19 N4 1_555 1_555
C20 H22 1_555 1_555
C21 H23 1_555 1_555
C22 H24 1_555 1_555
C23 C22 1_555 1_555
H25 C23 1_555 1_555
H26 C23 1_555 1_555
H27 C23 1_555 1_555
C24 C19 1_555 1_555
H28 C24 1_555 1_555
C25 C20 1_555 1_555
H29 C25 1_555 1_555
C26 C32 1_555 1_555
C27 C25 1_555 1_555
H30 C27 1_555 1_555
C28 C21 1_555 1_555
H31 C28 1_555 1_555
C29 H32 1_555 1_555
C30 C22 1_555 1_555
H33 C30 1_555 1_555
H34 C30 1_555 1_555
H35 C30 1_555 1_555
C31 N5 1_555 1_555
C32 C20 1_555 1_555
C33 C26 1_555 1_555
C34 C29 1_555 1_555
H36 C34 1_555 1_555
H37 C34 1_555 1_555
H38 C34 1_555 1_555
C35 C24 1_555 1_555
H39 C35 1_555 1_555
C36 C29 1_555 1_555
H40 C36 1_555 1_555
H41 C36 1_555 1_555
H42 C36 1_555 1_555
C4 C10 1_555 1_555
C5 C7 1_555 1_555
C8 C10 1_555 1_555
C11 C16 1_555 1_555
C12 C13 1_555 1_555
C19 C31 1_555 1_555
C21 C31 1_555 1_555
C22 C32 1_555 1_555
C27 C33 1_555 1_555
C28 C35 1_555 1_555
C29 C33 1_555 1_555

#END
