
#######################################################################
#
#                 Cambridge Crystallographic Data Centre
#                                CCDC 
#
#######################################################################
#
# If this CIF has been generated from an entry in the Cambridge 
# Structural Database, then it will include bibliographic, chemical, 
# crystal, experimental, refinement or atomic coordinate data resulting 
# from the CCDC's data processing and validation procedures.
#
#######################################################################

data_OWOCEK
_chemical_formula_moiety         'C20 H15 N1'
_chemical_name_systematic        (-)-(R)-7-methyl-8-(1-naphthyl)quinoline
_symmetry_cell_setting           orthorhombic
_symmetry_space_group_name_H-M   'P 21 21 21'
_symmetry_Int_Tables_number      19
_space_group_name_Hall           'P 2ac 2ab'
loop_
_symmetry_equiv_pos_site_id
_symmetry_equiv_pos_as_xyz
1 x,y,z
2 1/2-x,-y,1/2+z
3 1/2+x,1/2-y,-z
4 -x,1/2+y,1/2-z
_cell_length_a                   7.3982(9)
_cell_length_b                   7.3861(10)
_cell_length_c                   27.199(3)
_cell_angle_alpha                90
_cell_angle_beta                 90
_cell_angle_gamma                90
_cell_volume                     1486.26
_exptl_crystal_colour            colorless
_exptl_crystal_description       block
_cell_formula_units_Z            4
_exptl_crystal_recrystallization_method dichloromethane
loop_
_atom_site_label
_atom_site_type_symbol
_atom_site_fract_x
_atom_site_fract_y
_atom_site_fract_z
N1 N -0.6215(9) -1.1063(7) -0.0486(2)
C1 C -0.5331(12) -1.1663(10) -0.0101(3)
H1 H -0.5579 -1.2835 0.0005
C2 C -0.4068(12) -1.0694(11) 0.0158(3)
H2 H -0.3524 -1.1168 0.0438
C3 C -0.3639(14) -0.9007(11) -0.0011(3)
H3 H -0.2757 -0.8336 0.0151
C4 C -0.4500(11) -0.8268(8) -0.0421(3)
C5 C -0.4221(12) -0.6472(9) -0.0607(3)
H4 H -0.3329 -0.5751 -0.0467
C6 C -0.5203(14) -0.5813(9) -0.0975(3)
H5 H -0.4961 -0.4650 -0.1089
C7 C -0.6586(13) -0.6809(9) -0.1196(2)
C8 C -0.6916(10) -0.8608(7) -0.1033(2)
C9 C -0.5853(10) -0.9305(7) -0.0646(2)
C10 C -0.7748(16) -0.5976(12) -0.1575(3)
H6 H -0.7706 -0.6694 -0.1869
H7 H -0.7323 -0.4776 -0.1646
H8 H -0.8970 -0.5917 -0.1457
C11 C -0.8369(11) -0.9718(8) -0.12445(19)
C12 C -0.9988(13) -0.9884(11) -0.1005(2)
H9 H -1.0172 -0.9286 -0.0708
C13 C -1.1354(17) -1.0940(13) -0.1203(3)
H10 H -1.2424 -1.1070 -0.1027
C14 C -1.1196(13) -1.1778(11) -0.1634(3)
H11 H -1.2160 -1.2448 -0.1757
C15 C -0.9585(14) -1.1657(9) -0.1907(2)
C16 C -0.9312(15) -1.2517(10) -0.2368(3)
H12 H -1.0249 -1.3203 -0.2499
C17 C -0.7791(19) -1.2390(13) -0.2618(3)
H13 H -0.7671 -1.2959 -0.2922
C18 C -0.636(2) -1.1384(14) -0.2421(3)
H14 H -0.5269 -1.1311 -0.2590
C19 C -0.6557(13) -1.0498(10) -0.1974(2)
H15 H -0.5604 -0.9814 -0.1851
C20 C -0.8147(11) -1.0614(8) -0.1710(2)
loop_
_geom_bond_atom_site_label_1
_geom_bond_atom_site_label_2
_geom_bond_site_symmetry_1
_geom_bond_site_symmetry_2
N1 C1 1_555 1_555
C1 H1 1_555 1_555
C2 C1 1_555 1_555
H2 C2 1_555 1_555
C3 C2 1_555 1_555
H3 C3 1_555 1_555
C4 C3 1_555 1_555
C5 C4 1_555 1_555
H4 C5 1_555 1_555
C6 C5 1_555 1_555
H5 C6 1_555 1_555
C7 C6 1_555 1_555
C8 C7 1_555 1_555
C9 N1 1_555 1_555
C10 C7 1_555 1_555
H6 C10 1_555 1_555
H7 C10 1_555 1_555
H8 C10 1_555 1_555
C11 C8 1_555 1_555
C12 C11 1_555 1_555
H9 C12 1_555 1_555
C13 C12 1_555 1_555
H10 C13 1_555 1_555
C14 C13 1_555 1_555
H11 C14 1_555 1_555
C15 C14 1_555 1_555
C16 C15 1_555 1_555
H12 C16 1_555 1_555
C17 C16 1_555 1_555
H13 C17 1_555 1_555
C18 C17 1_555 1_555
H14 C18 1_555 1_555
C19 C18 1_555 1_555
H15 C19 1_555 1_555
C20 C11 1_555 1_555
C4 C9 1_555 1_555
C8 C9 1_555 1_555
C15 C20 1_555 1_555
C19 C20 1_555 1_555

#END
