
#######################################################################
#
#                 Cambridge Crystallographic Data Centre
#                                CCDC 
#
#######################################################################
#
# If this CIF has been generated from an entry in the Cambridge 
# Structural Database, then it will include bibliographic, chemical, 
# crystal, experimental, refinement or atomic coordinate data resulting 
# from the CCDC's data processing and validation procedures.
#
#######################################################################

data_OWOCIO
_chemical_formula_moiety         'C22 H17 N1 O1'
_chemical_name_systematic        (-)-(R)-5-(biphenyl-2-yl)-6-methoxyquinoline
_symmetry_cell_setting           orthorhombic
_symmetry_space_group_name_H-M   'P 21 21 21'
_symmetry_Int_Tables_number      19
_space_group_name_Hall           'P 2ac 2ab'
loop_
_symmetry_equiv_pos_site_id
_symmetry_equiv_pos_as_xyz
1 x,y,z
2 1/2+x,1/2-y,-z
3 -x,1/2+y,1/2-z
4 1/2-x,-y,1/2+z
_cell_length_a                   7.56690(10)
_cell_length_b                   14.1761(2)
_cell_length_c                   15.2272(2)
_cell_angle_alpha                90
_cell_angle_beta                 90
_cell_angle_gamma                90
_cell_volume                     1633.41
_exptl_crystal_colour            yellow
_exptl_crystal_description       block
_cell_formula_units_Z            4
loop_
_atom_site_label
_atom_site_type_symbol
_atom_site_fract_x
_atom_site_fract_y
_atom_site_fract_z
O1 O 0.19041(15) 0.46781(8) 0.53490(8)
N1 N 0.4630(2) 0.76934(11) 0.34799(11)
C1 C 0.4020(2) 0.69452(12) 0.39701(11)
C2 C 0.2301(2) 0.70117(13) 0.43289(11)
H1 H 0.1625 0.7568 0.4239
C3 C 0.1603(2) 0.62845(12) 0.48032(11)
H2 H 0.0450 0.6341 0.5045
C4 C 0.2580(2) 0.54515(11) 0.49365(10)
C5 C 0.4289(2) 0.53591(11) 0.46159(10)
C6 C 0.5031(2) 0.61156(12) 0.41261(11)
C7 C 0.6774(2) 0.61005(12) 0.37758(11)
H3 H 0.7515 0.5569 0.3868
C8 C 0.7371(3) 0.68563(14) 0.33058(12)
H4 H 0.8536 0.6858 0.3073
C9 C 0.6244(3) 0.76326(14) 0.31690(13)
H5 H 0.6679 0.8145 0.2830
C10 C 0.0207(2) 0.47561(15) 0.57477(15)
H6 H 0.0213 0.5279 0.6169
H7 H -0.0075 0.4167 0.6055
H8 H -0.0684 0.4876 0.5294
C11 C 0.5246(2) 0.44453(11) 0.47419(11)
C12 C 0.5642(2) 0.38874(12) 0.40133(12)
H9 H 0.5372 0.4113 0.3441
C13 C 0.6422(3) 0.30078(13) 0.41102(13)
H10 H 0.6690 0.2638 0.3607
C14 C 0.6810(2) 0.26692(12) 0.49438(14)
H11 H 0.7339 0.2066 0.5014
C15 C 0.6421(2) 0.32172(12) 0.56716(12)
H12 H 0.6684 0.2982 0.6241
C16 C 0.5652(2) 0.41064(11) 0.55883(11)
C17 C 0.5280(2) 0.46774(11) 0.63903(11)
C18 C 0.4095(2) 0.43501(13) 0.70215(12)
H13 H 0.3522 0.3761 0.6938
C19 C 0.3745(3) 0.48753(15) 0.77682(12)
H14 H 0.2916 0.4649 0.8187
C20 C 0.4591(3) 0.57248(14) 0.79087(11)
H15 H 0.4360 0.6078 0.8426
C21 C 0.5778(2) 0.60576(12) 0.72901(12)
H16 H 0.6372 0.6639 0.7386
C22 C 0.6102(2) 0.55437(12) 0.65298(11)
H17 H 0.6893 0.5786 0.6101
loop_
_geom_bond_atom_site_label_1
_geom_bond_atom_site_label_2
_geom_bond_site_symmetry_1
_geom_bond_site_symmetry_2
O1 C4 1_555 1_555
N1 C1 1_555 1_555
C1 C2 1_555 1_555
C2 H1 1_555 1_555
C3 C2 1_555 1_555
H2 C3 1_555 1_555
C4 C3 1_555 1_555
C5 C4 1_555 1_555
C6 C1 1_555 1_555
C7 C6 1_555 1_555
H3 C7 1_555 1_555
C8 C7 1_555 1_555
H4 C8 1_555 1_555
C9 N1 1_555 1_555
H5 C9 1_555 1_555
C10 O1 1_555 1_555
H6 C10 1_555 1_555
H7 C10 1_555 1_555
H8 C10 1_555 1_555
C11 C5 1_555 1_555
C12 C11 1_555 1_555
H9 C12 1_555 1_555
C13 C12 1_555 1_555
H10 C13 1_555 1_555
C14 C13 1_555 1_555
H11 C14 1_555 1_555
C15 C14 1_555 1_555
H12 C15 1_555 1_555
C16 C11 1_555 1_555
C17 C16 1_555 1_555
C18 C17 1_555 1_555
H13 C18 1_555 1_555
C19 C18 1_555 1_555
H14 C19 1_555 1_555
C20 C19 1_555 1_555
H15 C20 1_555 1_555
C21 C20 1_555 1_555
H16 C21 1_555 1_555
C22 C17 1_555 1_555
H17 C22 1_555 1_555
C5 C6 1_555 1_555
C8 C9 1_555 1_555
C15 C16 1_555 1_555
C21 C22 1_555 1_555

#END
