
#######################################################################
#
#                 Cambridge Crystallographic Data Centre
#                                CCDC 
#
#######################################################################
#
# If this CIF has been generated from an entry in the Cambridge 
# Structural Database, then it will include bibliographic, chemical, 
# crystal, experimental, refinement or atomic coordinate data resulting 
# from the CCDC's data processing and validation procedures.
#
#######################################################################

data_OWOHIT
_chemical_formula_moiety         'C54 H64 F2 N2 S4'
_chemical_name_systematic        
3,8-difluoro-5,10-dihexyl-2,7-bis(5'-hexyl-2,2'-bithiophen-5-yl)-5,10-dihydroindolo[3,2-b]indole
_symmetry_cell_setting           triclinic
_symmetry_space_group_name_H-M   'P -1'
_symmetry_Int_Tables_number      2
_space_group_name_Hall           '-P 1'
loop_
_symmetry_equiv_pos_site_id
_symmetry_equiv_pos_as_xyz
1 x,y,z
2 -x,-y,-z
_cell_length_a                   5.5352(1)
_cell_length_b                   13.7138(2)
_cell_length_c                   17.7912(3)
_cell_angle_alpha                68.191(1)
_cell_angle_beta                 82.836(1)
_cell_angle_gamma                80.889(1)
_cell_volume                     1234.83
_exptl_crystal_colour            orange
_exptl_crystal_description       Block
_cell_formula_units_Z            1
loop_
_atom_site_label
_atom_site_type_symbol
_atom_site_fract_x
_atom_site_fract_y
_atom_site_fract_z
S1 S 0.73072(17) 0.14789(7) 0.26257(5)
S2 S 1.29666(18) -0.01261(7) 0.43251(6)
F1 F 0.6678(4) 0.50551(16) 0.19236(12)
N1 N 0.0869(5) 0.36318(19) 0.03762(15)
C1 C 0.9735(6) 0.1206(3) 0.32230(19)
C2 C 1.0515(6) 0.2112(3) 0.3166(2)
H1 H 1.1817 0.2128 0.3443
C3 C 0.9205(6) 0.3033(3) 0.2655(2)
H2 H 0.9548 0.3712 0.2565
C4 C 0.7371(6) 0.2834(3) 0.23031(17)
C5 C 1.0617(6) 0.0115(3) 0.37073(19)
C6 C 0.9877(7) -0.0803(3) 0.3776(2)
H3 H 0.8611 -0.0841 0.3494
C7 C 1.1202(7) -0.1712(3) 0.4319(2)
H4 H 1.0894 -0.2400 0.4428
C8 C 1.2962(6) -0.1470(3) 0.4663(2)
C9 C 1.4700(7) -0.2181(3) 0.5288(2)
H5 H 1.6294 -0.1926 0.5143
H6 H 1.4110 -0.2126 0.5809
C10 C 1.5013(8) -0.3331(3) 0.5381(3)
H7 H 1.5571 -0.3392 0.4859
H8 H 1.3436 -0.3599 0.5546
C11 C 1.6850(9) -0.4006(3) 0.6005(3)
H9 H 1.8411 -0.3725 0.5833
H10 H 1.6287 -0.3924 0.6519
C12 C 1.7268(14) -0.5126(5) 0.6143(5)
H11 H 1.7841 -0.5223 0.5634
H12 H 1.5731 -0.5425 0.6330
C13 C 1.9218(17) -0.5735(6) 0.6790(5)
H13 H 2.0780 -0.5475 0.6564
H14 H 1.8735 -0.5538 0.7263
C14 C 1.961(3) -0.6858(8) 0.7063(9)
H15 H 2.0807 -0.7119 0.7461
H16 H 2.0196 -0.7075 0.6611
H17 H 1.8097 -0.7138 0.7300
C15 C 0.5299(6) 0.4652(3) 0.15500(19)
C16 C 0.3680(6) 0.5361(2) 0.10311(18)
H18 H 0.3545 0.6079 0.0941
C17 C 0.2225(6) 0.4977(2) 0.06366(17)
C18 C -0.0393(6) 0.4594(2) -0.00766(17)
C19 C 0.2495(6) 0.3860(2) 0.08072(17)
C20 C 0.4173(6) 0.3173(2) 0.13398(17)
H19 H 0.4331 0.2452 0.1436
C21 C 0.5614(6) 0.3551(2) 0.17292(17)
C22 C 0.0547(6) 0.2618(3) 0.0379(2)
H20 H -0.1163 0.2604 0.0318
H21 H 0.0980 0.2080 0.0896
C23 C 0.2157(10) 0.2369(4) -0.0314(3)
H22 H 0.1906 0.2978 -0.0810
H23 H 0.3859 0.2296 -0.0201
C24 C 0.1793(12) 0.1448(5) -0.0470(4)
H24 H 0.0174 0.1533 -0.0658
H25 H 0.1941 0.0824 0.0021
C25 C 0.3892(16) 0.1328(7) -0.1162(5)
H26 H 0.3770 0.1974 -0.1636
H27 H 0.5494 0.1235 -0.0960
C26 C 0.3677(19) 0.0425(8) -0.1400(6)
H28 H 0.3773 -0.0230 -0.0933
H29 H 0.2131 0.0523 -0.1638
C27 C 0.5750(16) 0.0403(8) -0.1999(5)
H30 H 0.5678 -0.0156 -0.2194
H31 H 0.7263 0.0285 -0.1749
H32 H 0.5662 0.1068 -0.2445
S1A S -0.73072(17) 0.85211(7) -0.26257(5)
S2A S -1.29666(18) 1.01261(7) -0.43251(6)
F1A F -0.6678(4) 0.49449(16) -0.19236(12)
N1A N -0.0869(5) 0.63682(19) -0.03762(15)
C1A C -0.9735(6) 0.8794(3) -0.32230(19)
C2A C -1.0515(6) 0.7888(3) -0.3166(2)
H1A H -1.1817 0.7872 -0.3443
C3A C -0.9205(6) 0.6967(3) -0.2655(2)
H2A H -0.9548 0.6288 -0.2565
C4A C -0.7371(6) 0.7166(3) -0.23031(17)
C5A C -1.0617(6) 0.9885(3) -0.37073(19)
C6A C -0.9877(7) 1.0803(3) -0.3776(2)
H3A H -0.8611 1.0841 -0.3494
C7A C -1.1202(7) 1.1712(3) -0.4319(2)
H4A H -1.0894 1.2400 -0.4428
C8A C -1.2962(6) 1.1470(3) -0.4663(2)
C9A C -1.4700(7) 1.2181(3) -0.5288(2)
H5A H -1.6294 1.1926 -0.5143
H6A H -1.4110 1.2126 -0.5809
C10A C -1.5013(8) 1.3331(3) -0.5381(3)
H7A H -1.5571 1.3392 -0.4859
H8A H -1.3436 1.3599 -0.5546
C11A C -1.6850(9) 1.4006(3) -0.6005(3)
H9A H -1.8411 1.3725 -0.5833
H10A H -1.6287 1.3924 -0.6519
C12A C -1.7268(14) 1.5126(5) -0.6143(5)
H11A H -1.7841 1.5223 -0.5634
H12A H -1.5731 1.5425 -0.6330
C13A C -1.9218(17) 1.5735(6) -0.6790(5)
H13A H -2.0780 1.5475 -0.6564
H14A H -1.8735 1.5538 -0.7263
C14A C -1.961(3) 1.6858(8) -0.7063(9)
H15A H -2.0807 1.7119 -0.7461
H16A H -2.0196 1.7075 -0.6611
H17A H -1.8097 1.7138 -0.7300
C15A C -0.5299(6) 0.5348(3) -0.15500(19)
C16A C -0.3680(6) 0.4639(2) -0.10311(18)
H18A H -0.3545 0.3921 -0.0941
C17A C -0.2225(6) 0.5023(2) -0.06366(17)
C18A C 0.0393(6) 0.5406(2) 0.00766(17)
C19A C -0.2495(6) 0.6140(2) -0.08072(17)
C20A C -0.4173(6) 0.6827(2) -0.13398(17)
H19A H -0.4331 0.7548 -0.1436
C21A C -0.5614(6) 0.6449(2) -0.17292(17)
C22A C -0.0547(6) 0.7382(3) -0.0379(2)
H20A H 0.1163 0.7396 -0.0318
H21A H -0.0980 0.7920 -0.0896
C23A C -0.2157(10) 0.7631(4) 0.0314(3)
H22A H -0.1906 0.7022 0.0810
H23A H -0.3859 0.7704 0.0201
C24A C -0.1793(12) 0.8552(5) 0.0470(4)
H24A H -0.0174 0.8467 0.0658
H25A H -0.1941 0.9176 -0.0021
C25A C -0.3892(16) 0.8672(7) 0.1162(5)
H26A H -0.3770 0.8026 0.1636
H27A H -0.5494 0.8765 0.0960
C26A C -0.3677(19) 0.9575(8) 0.1400(6)
H28A H -0.3773 1.0230 0.0933
H29A H -0.2131 0.9477 0.1638
C27A C -0.5750(16) 0.9597(8) 0.1999(5)
H30A H -0.5678 1.0156 0.2194
H31A H -0.7263 0.9715 0.1749
H32A H -0.5662 0.8932 0.2445
loop_
_geom_bond_atom_site_label_1
_geom_bond_atom_site_label_2
_geom_bond_site_symmetry_1
_geom_bond_site_symmetry_2
S1 C1 1_555 1_555
S2 C5 1_555 1_555
F1 C15 1_555 1_555
N1 C18 1_555 1_555
C1 C2 1_555 1_555
C2 H1 1_555 1_555
C3 C2 1_555 1_555
H2 C3 1_555 1_555
C4 S1 1_555 1_555
C5 C1 1_555 1_555
C6 C5 1_555 1_555
H3 C6 1_555 1_555
C7 C6 1_555 1_555
H4 C7 1_555 1_555
C8 S2 1_555 1_555
C9 C8 1_555 1_555
H5 C9 1_555 1_555
H6 C9 1_555 1_555
C10 C9 1_555 1_555
H7 C10 1_555 1_555
H8 C10 1_555 1_555
C11 C10 1_555 1_555
H9 C11 1_555 1_555
H10 C11 1_555 1_555
C12 C11 1_555 1_555
H11 C12 1_555 1_555
H12 C12 1_555 1_555
C13 C12 1_555 1_555
H13 C13 1_555 1_555
H14 C13 1_555 1_555
C14 C13 1_555 1_555
H15 C14 1_555 1_555
H16 C14 1_555 1_555
H17 C14 1_555 1_555
C15 C16 1_555 1_555
C16 H18 1_555 1_555
C17 C16 1_555 1_555
C18 C17A 1_555 1_555
C19 N1 1_555 1_555
C20 C19 1_555 1_555
H19 C20 1_555 1_555
C21 C4 1_555 1_555
C22 N1 1_555 1_555
H20 C22 1_555 1_555
H21 C22 1_555 1_555
C23 C22 1_555 1_555
H22 C23 1_555 1_555
H23 C23 1_555 1_555
C24 C23 1_555 1_555
H24 C24 1_555 1_555
H25 C24 1_555 1_555
C25 C24 1_555 1_555
H26 C25 1_555 1_555
H27 C25 1_555 1_555
C26 C25 1_555 1_555
H28 C26 1_555 1_555
H29 C26 1_555 1_555
C27 C26 1_555 1_555
H30 C27 1_555 1_555
H31 C27 1_555 1_555
H32 C27 1_555 1_555
S1A C1A 1_555 1_555
S2A C5A 1_555 1_555
F1A C15A 1_555 1_555
N1A C18A 1_555 1_555
C1A C2A 1_555 1_555
C2A H1A 1_555 1_555
C3A C2A 1_555 1_555
H2A C3A 1_555 1_555
C4A S1A 1_555 1_555
C5A C1A 1_555 1_555
C6A C5A 1_555 1_555
H3A C6A 1_555 1_555
C7A C6A 1_555 1_555
H4A C7A 1_555 1_555
C8A S2A 1_555 1_555
C9A C8A 1_555 1_555
H5A C9A 1_555 1_555
H6A C9A 1_555 1_555
C10A C9A 1_555 1_555
H7A C10A 1_555 1_555
H8A C10A 1_555 1_555
C11A C10A 1_555 1_555
H9A C11A 1_555 1_555
H10A C11A 1_555 1_555
C12A C11A 1_555 1_555
H11A C12A 1_555 1_555
H12A C12A 1_555 1_555
C13A C12A 1_555 1_555
H13A C13A 1_555 1_555
H14A C13A 1_555 1_555
C14A C13A 1_555 1_555
H15A C14A 1_555 1_555
H16A C14A 1_555 1_555
H17A C14A 1_555 1_555
C15A C16A 1_555 1_555
C16A H18A 1_555 1_555
C17A C16A 1_555 1_555
C18A C17 1_555 1_555
C19A N1A 1_555 1_555
C20A C19A 1_555 1_555
H19A C20A 1_555 1_555
C21A C4A 1_555 1_555
C22A N1A 1_555 1_555
H20A C22A 1_555 1_555
H21A C22A 1_555 1_555
C23A C22A 1_555 1_555
H22A C23A 1_555 1_555
H23A C23A 1_555 1_555
C24A C23A 1_555 1_555
H24A C24A 1_555 1_555
H25A C24A 1_555 1_555
C25A C24A 1_555 1_555
H26A C25A 1_555 1_555
H27A C25A 1_555 1_555
C26A C25A 1_555 1_555
H28A C26A 1_555 1_555
H29A C26A 1_555 1_555
C27A C26A 1_555 1_555
H30A C27A 1_555 1_555
H31A C27A 1_555 1_555
H32A C27A 1_555 1_555
C3 C4 1_555 1_555
C7 C8 1_555 1_555
C15 C21 1_555 1_555
C17 C19 1_555 1_555
C18 C18A 1_555 1_555
C20 C21 1_555 1_555
C3A C4A 1_555 1_555
C7A C8A 1_555 1_555
C15A C21A 1_555 1_555
C17A C19A 1_555 1_555
C20A C21A 1_555 1_555

#END
