
#######################################################################
#
#                 Cambridge Crystallographic Data Centre
#                                CCDC 
#
#######################################################################
#
# If this CIF has been generated from an entry in the Cambridge 
# Structural Database, then it will include bibliographic, chemical, 
# crystal, experimental, refinement or atomic coordinate data resulting 
# from the CCDC's data processing and validation procedures.
#
#######################################################################

data_OWONAR
_chemical_formula_moiety         'C27 H20 Br1 N1 O3 S1'
_chemical_name_systematic        
N-(3-(4-bromophenyl)-3-oxo-1,1-diphenylprop-1-en-2-yl)benzenesulfonamide
_symmetry_cell_setting           monoclinic
_symmetry_space_group_name_H-M   'P 21/c'
_symmetry_Int_Tables_number      14
_space_group_name_Hall           '-P 2ybc'
loop_
_symmetry_equiv_pos_site_id
_symmetry_equiv_pos_as_xyz
1 x,y,z
2 -x,1/2+y,1/2-z
3 -x,-y,-z
4 x,1/2-y,1/2+z
_cell_length_a                   12.857
_cell_length_b                   15.123
_cell_length_c                   12.073
_cell_angle_alpha                90
_cell_angle_beta                 102.04
_cell_angle_gamma                90
_cell_volume                     2295.79
_exptl_crystal_colour            orange
_exptl_crystal_description       block
_cell_formula_units_Z            4
loop_
_atom_site_label
_atom_site_type_symbol
_atom_site_fract_x
_atom_site_fract_y
_atom_site_fract_z
C1 C 0.3208(3) -0.3831(3) 0.2050(3)
C2 C 0.3005(3) -0.0456(3) 0.2020(3)
H1 H 0.3357 -0.0900 0.2485
C3 C 0.2497(3) -0.2358(2) 0.1364(3)
C4 C -0.0023(3) -0.3715(2) 0.2547(3)
H2 H 0.0243 -0.3574 0.3303
C5 C 0.2419(3) -0.0670(2) 0.0959(3)
C6 C 0.4095(3) -0.3829(3) -0.0006(3)
H3 H 0.3647 -0.4307 0.0029
C7 C 0.1935(4) 0.0868(3) 0.0644(4)
H4 H 0.1569 0.1313 0.0191
C8 C 0.3159(3) -0.3041(2) 0.1305(3)
C9 C 0.0023(3) -0.3110(2) 0.1693(3)
C10 C 0.2540(3) 0.1058(3) 0.1708(4)
C11 C 0.3953(3) -0.3055(3) 0.0563(3)
C12 C 0.2358(3) -0.1600(2) 0.0525(3)
C13 C 0.2432(4) -0.5175(3) 0.2584(4)
H5 H 0.1847 -0.5549 0.2523
C14 C -0.0475(3) -0.4534(3) 0.2247(4)
H6 H -0.0504 -0.4953 0.2804
C15 C 0.2344(3) -0.4392(3) 0.1973(3)
H7 H 0.1698 -0.4242 0.1506
C16 C 0.1887(3) -0.0004(2) 0.0269(3)
H8 H 0.1497 -0.0143 -0.0448
C17 C -0.0880(4) -0.4729(3) 0.1129(4)
H9 H -0.1190 -0.5278 0.0935
C18 C 0.4886(3) -0.3909(3) -0.0624(3)
H10 H 0.4965 -0.4434 -0.0999
C19 C -0.0364(4) -0.3307(3) 0.0578(4)
H11 H -0.0313 -0.2898 0.0016
C20 C 0.3075(3) 0.0411(3) 0.2400(3)
H12 H 0.3478 0.0552 0.3111
C21 C 0.4251(4) -0.4848(3) 0.3367(4)
H13 H 0.4894 -0.4999 0.3842
C22 C 0.4627(4) -0.2344(3) 0.0498(4)
H14 H 0.4554 -0.1818 0.0874
C23 C 0.5551(4) -0.3207(3) -0.0679(4)
H15 H 0.6092 -0.3256 -0.1080
C24 C 0.3381(4) -0.5398(3) 0.3278(4)
H16 H 0.3439 -0.5922 0.3690
C25 C 0.4164(4) -0.4074(3) 0.2749(3)
H17 H 0.4755 -0.3710 0.2802
C26 C 0.5410(4) -0.2427(3) -0.0134(4)
H18 H 0.5849 -0.1948 -0.0191
C27 C -0.0834(4) -0.4122(3) 0.0294(4)
H19 H -0.1118 -0.4259 -0.0460
N1 N 0.1945(3) -0.22698(19) 0.2262(3)
H20 H 0.2302 -0.2314 0.2947
O1 O 0.0462(2) -0.18183(17) 0.3129(2)
O2 O 0.0393(2) -0.15169(16) 0.1101(2)
O3 O 0.2214(2) -0.17411(17) -0.0490(2)
S1 S 0.06568(8) -0.20881(6) 0.20592(9)
Br1 Br 0.25575(4) 0.22344(3) 0.22554(5)
loop_
_geom_bond_atom_site_label_1
_geom_bond_atom_site_label_2
_geom_bond_site_symmetry_1
_geom_bond_site_symmetry_2
C1 C8 1_555 1_555
C2 H1 1_555 1_555
C3 C8 1_555 1_555
C4 H2 1_555 1_555
C5 C2 1_555 1_555
C6 H3 1_555 1_555
C7 H4 1_555 1_555
C8 C11 1_555 1_555
C9 C4 1_555 1_555
C10 C7 1_555 1_555
C11 C6 1_555 1_555
C12 C3 1_555 1_555
C13 H5 1_555 1_555
C14 C4 1_555 1_555
H6 C14 1_555 1_555
C15 C1 1_555 1_555
H7 C15 1_555 1_555
C16 C5 1_555 1_555
H8 C16 1_555 1_555
C17 C14 1_555 1_555
H9 C17 1_555 1_555
C18 C6 1_555 1_555
H10 C18 1_555 1_555
C19 C9 1_555 1_555
H11 C19 1_555 1_555
C20 C2 1_555 1_555
H12 C20 1_555 1_555
C21 H13 1_555 1_555
C22 C11 1_555 1_555
H14 C22 1_555 1_555
C23 C18 1_555 1_555
H15 C23 1_555 1_555
C24 C13 1_555 1_555
H16 C24 1_555 1_555
C25 C1 1_555 1_555
H17 C25 1_555 1_555
C26 C22 1_555 1_555
H18 C26 1_555 1_555
C27 C17 1_555 1_555
H19 C27 1_555 1_555
N1 C3 1_555 1_555
H20 N1 1_555 1_555
O1 S1 1_555 1_555
O2 S1 1_555 1_555
O3 C12 1_555 1_555
S1 C9 1_555 1_555
Br1 C10 1_555 1_555
C5 C12 1_555 1_555
C7 C16 1_555 1_555
C10 C20 1_555 1_555
C13 C15 1_555 1_555
C19 C27 1_555 1_555
C21 C24 1_555 1_555
C21 C25 1_555 1_555
C23 C26 1_555 1_555
N1 S1 1_555 1_555

#END
