
#######################################################################
#
#                 Cambridge Crystallographic Data Centre
#                                CCDC 
#
#######################################################################
#
# If this CIF has been generated from an entry in the Cambridge 
# Structural Database, then it will include bibliographic, chemical, 
# crystal, experimental, refinement or atomic coordinate data resulting 
# from the CCDC's data processing and validation procedures.
#
#######################################################################

data_OWOXUU
_chemical_formula_moiety         'C35 H29 F1 N4 O12'
_chemical_name_systematic        
'(S)-1-((3R,4R,5S)-1-Benzyl-4-fluoro-5-((4-nitrobenzoyl)oxy)piperidin-3-yl)ethane-1,2-diyl bis(4-nitrobenzoate)'
_symmetry_cell_setting           monoclinic
_symmetry_space_group_name_H-M   'P 21'
_symmetry_Int_Tables_number      4
_space_group_name_Hall           'P 2yb'
loop_
_symmetry_equiv_pos_site_id
_symmetry_equiv_pos_as_xyz
1 x,y,z
2 -x,1/2+y,-z
_cell_length_a                   7.2630(14)
_cell_length_b                   20.461(4)
_cell_length_c                   11.456(2)
_cell_angle_alpha                90
_cell_angle_beta                 96.877(4)
_cell_angle_gamma                90
_cell_volume                     1690.21
_exptl_crystal_colour            colorless
_exptl_crystal_description       prismatic
_chemical_melting_point          '226 deg.C'
_cell_formula_units_Z            2
loop_
_atom_site_label
_atom_site_type_symbol
_atom_site_fract_x
_atom_site_fract_y
_atom_site_fract_z
F1 F 0.7553(10) 0.4815(3) -0.1172(5)
N1 N 0.7244(9) 0.6719(4) -0.0065(6)
N2 N 0.1948(13) 0.6440(4) -0.6906(6)
N3 N 1.1821(14) 0.4620(5) 0.6671(7)
N4 N -0.110(3) 0.2881(9) 0.4863(17)
O1 O 0.7285(9) 0.5995(3) -0.2202(5)
O2 O 0.9445(9) 0.6403(4) -0.3257(5)
O3 O 0.0406(11) 0.6400(5) -0.6729(6)
O4 O 0.2457(12) 0.6443(5) -0.7881(6)
O5 O 0.6708(8) 0.4979(3) 0.1850(4)
O6 O 0.4458(9) 0.4984(3) 0.3034(4)
O7 O 1.3404(12) 0.4603(6) 0.6493(7)
O8 O 1.1403(14) 0.4571(9) 0.7614(7)
O9 O 0.3988(13) 0.3997(4) 0.1058(7)
O10 O 0.1406(17) 0.4447(7) 0.0509(10)
O11 O -0.023(3) 0.2757(10) 0.5649(17)
O12 O -0.264(3) 0.2872(10) 0.4608(16)
C1 C 0.7892(13) 0.5360(5) -0.0487(7)
H1 H 0.8824 0.5247 0.0173
C2 C 0.8682(13) 0.5886(5) -0.1186(7)
H2 H 0.9857 0.5744 -0.1443
C3 C 0.8945(12) 0.6514(6) -0.0495(8)
H3 H 0.9897 0.6452 0.0165
H4 H 0.9361 0.6854 -0.0992
C4 C 0.6621(12) 0.6227(4) 0.0705(7)
H5 H 0.5535 0.6385 0.1035
H6 H 0.7588 0.6144 0.1348
C5 C 0.6135(12) 0.5579(4) 0.0017(6)
H7 H 0.5189 0.5678 -0.0644
C6 C 0.5311(13) 0.5082(4) 0.0812(6)
H8 H 0.4189 0.5269 0.1076
C7 C 0.4843(15) 0.4425(5) 0.0260(7)
H9 H 0.4000 0.4484 -0.0455
H10 H 0.5965 0.4222 0.0051
C8 C 0.7893(14) 0.6248(5) -0.3144(7)
C9 C 0.6301(12) 0.6327(4) -0.4095(7)
C10 C 0.4402(14) 0.6254(5) -0.3907(8)
H11 H 0.4106 0.6175 -0.3152
C11 C 0.3016(14) 0.6300(5) -0.4819(7)
H12 H 0.1781 0.6245 -0.4700
C12 C 0.3497(13) 0.6430(4) -0.5915(7)
C13 C 0.5310(13) 0.6541(4) -0.6144(7)
H13 H 0.5573 0.6646 -0.6896
C14 C 0.6692(13) 0.6491(4) -0.5225(7)
H14 H 0.7913 0.6566 -0.5355
C15 C 0.7552(14) 0.7359(5) 0.0556(9)
H15 H 0.8057 0.7667 0.0035
H16 H 0.8466 0.7299 0.1238
C16 C 0.5802(15) 0.7649(4) 0.0957(9)
C17 C 0.585(2) 0.7953(6) 0.2015(11)
H17 H 0.6952 0.7980 0.2513
C18 C 0.426(3) 0.8216(7) 0.2343(14)
H18 H 0.4291 0.8434 0.3058
C19 C 0.255(3) 0.8158(8) 0.159(2)
H19 H 0.1465 0.8331 0.1817
C20 C 0.254(2) 0.7877(7) 0.0642(18)
H20 H 0.1412 0.7846 0.0170
C21 C 0.4048(17) 0.7605(6) 0.0222(11)
H21 H 0.3949 0.7400 -0.0508
C22 C 0.6105(13) 0.4938(4) 0.2903(6)
C23 C 0.7627(12) 0.4849(4) 0.3859(6)
C24 C 0.9461(12) 0.4906(4) 0.3666(7)
H22 H 0.9768 0.5003 0.2920
C25 C 1.0839(13) 0.4817(4) 0.4600(7)
H23 H 1.2084 0.4842 0.4486
C26 C 1.0336(13) 0.4694(4) 0.5687(8)
C27 C 0.8551(16) 0.4650(5) 0.5895(9)
H24 H 0.8254 0.4563 0.6647
C28 C 0.7212(14) 0.4737(5) 0.4994(7)
H25 H 0.5977 0.4720 0.5133
C29 C 0.2353(18) 0.4071(6) 0.1150(12)
C30 C 0.166(2) 0.3671(6) 0.2110(11)
C31 C 0.2668(19) 0.3410(7) 0.3061(17)
H26 H 0.3953 0.3411 0.3094
C32 C 0.186(3) 0.3138(7) 0.4004(15)
H27 H 0.2590 0.2981 0.4669
C33 C -0.005(3) 0.3112(6) 0.3904(15)
C34 C -0.096(2) 0.3302(6) 0.2908(16)
H28 H -0.2241 0.3238 0.2806
C35 C -0.020(2) 0.3585(7) 0.2021(13)
H29 H -0.0941 0.3722 0.1348
loop_
_geom_bond_atom_site_label_1
_geom_bond_atom_site_label_2
_geom_bond_site_symmetry_1
_geom_bond_site_symmetry_2
F1 C1 1_555 1_555
N1 C3 1_555 1_555
N2 O3 1_555 1_555
N3 O7 1_555 1_555
N4 O11 1_555 1_555
O1 C2 1_555 1_555
O2 C8 1_555 1_555
O4 N2 1_555 1_555
O5 C6 1_555 1_555
O6 C22 1_555 1_555
O8 N3 1_555 1_555
O9 C7 1_555 1_555
O10 C29 1_555 1_555
O12 N4 1_555 1_555
C1 H1 1_555 1_555
C2 C1 1_555 1_555
H2 C2 1_555 1_555
C3 C2 1_555 1_555
H3 C3 1_555 1_555
H4 C3 1_555 1_555
C4 N1 1_555 1_555
H5 C4 1_555 1_555
H6 C4 1_555 1_555
C5 C1 1_555 1_555
H7 C5 1_555 1_555
C6 C5 1_555 1_555
H8 C6 1_555 1_555
C7 C6 1_555 1_555
H9 C7 1_555 1_555
H10 C7 1_555 1_555
C8 O1 1_555 1_555
C9 C8 1_555 1_555
C10 C9 1_555 1_555
H11 C10 1_555 1_555
C11 C10 1_555 1_555
H12 C11 1_555 1_555
C12 N2 1_555 1_555
C13 C12 1_555 1_555
H13 C13 1_555 1_555
C14 C9 1_555 1_555
H14 C14 1_555 1_555
C15 N1 1_555 1_555
H15 C15 1_555 1_555
H16 C15 1_555 1_555
C16 C15 1_555 1_555
C17 C16 1_555 1_555
H17 C17 1_555 1_555
C18 C17 1_555 1_555
H18 C18 1_555 1_555
C19 C18 1_555 1_555
H19 C19 1_555 1_555
C20 C19 1_555 1_555
H20 C20 1_555 1_555
C21 C16 1_555 1_555
H21 C21 1_555 1_555
C22 O5 1_555 1_555
C23 C22 1_555 1_555
C24 C23 1_555 1_555
H22 C24 1_555 1_555
C25 C24 1_555 1_555
H23 C25 1_555 1_555
C26 N3 1_555 1_555
C27 C26 1_555 1_555
H24 C27 1_555 1_555
C28 C23 1_555 1_555
H25 C28 1_555 1_555
C29 O9 1_555 1_555
C30 C29 1_555 1_555
C31 C30 1_555 1_555
H26 C31 1_555 1_555
C32 C31 1_555 1_555
H27 C32 1_555 1_555
C33 N4 1_555 1_555
C34 C33 1_555 1_555
H28 C34 1_555 1_555
C35 C30 1_555 1_555
H29 C35 1_555 1_555
C4 C5 1_555 1_555
C11 C12 1_555 1_555
C13 C14 1_555 1_555
C20 C21 1_555 1_555
C25 C26 1_555 1_555
C27 C28 1_555 1_555
C32 C33 1_555 1_555
C34 C35 1_555 1_555

#END
