
#######################################################################
#
#                 Cambridge Crystallographic Data Centre
#                                CCDC 
#
#######################################################################
#
# If this CIF has been generated from an entry in the Cambridge 
# Structural Database, then it will include bibliographic, chemical, 
# crystal, experimental, refinement or atomic coordinate data resulting 
# from the CCDC's data processing and validation procedures.
#
#######################################################################

data_OWUBIS
_chemical_formula_moiety         'C66 H64 N2 O10,C1 H1 Cl3'
_chemical_name_systematic        
'6,9,12,15,18,32,35,38,41,44-Decaoxa-55,64-diazadecacyclo[25.25.14.2^2,5^.2^19,22^.2^28,31^.2^45,48^.2^56,59^.2^60,63^.0^23,66^.0^49,53^]octaheptaconta-1(53),2,4,19,21,23(66),24,26,28,30,45,47,49,51,54,56,58,60,62,64,67,69,71,73,75,77-hexacosaene chloroform solvate'
_symmetry_cell_setting           triclinic
_symmetry_space_group_name_H-M   'P -1'
_symmetry_Int_Tables_number      2
_space_group_name_Hall           '-P 1'
loop_
_symmetry_equiv_pos_site_id
_symmetry_equiv_pos_as_xyz
1 x,y,z
2 -x,-y,-z
_cell_length_a                   10.597(4)
_cell_length_b                   16.311(7)
_cell_length_c                   17.955(8)
_cell_angle_alpha                109.292(8)
_cell_angle_beta                 98.011(8)
_cell_angle_gamma                91.843(6)
_cell_volume                     2890.45
_exptl_crystal_colour            colorless
_exptl_crystal_description       prism
_cell_formula_units_Z            2
loop_
_atom_site_label
_atom_site_type_symbol
_atom_site_fract_x
_atom_site_fract_y
_atom_site_fract_z
O1 O 0.6860(17) 0.6872(12) 1.0795(9)
O2 O 0.692(2) 0.8074(14) 1.2422(10)
O3 O 0.646(2) 0.9174(13) 1.4135(10)
O4 O 0.5423(16) 1.1129(12) 1.3824(9)
O5 O 0.3401(15) 1.2248(12) 1.3594(10)
O6 O -0.2892(19) 1.2719(12) 0.7546(9)
O7 O -0.1818(18) 1.1259(13) 0.6269(12)
O8 O -0.1006(18) 0.9542(13) 0.6384(10)
O9 O -0.0182(18) 0.8232(12) 0.4931(10)
O10 O 0.0112(17) 0.6435(12) 0.4363(9)
N1 N 0.3385(18) 0.6979(13) 0.7320(10)
N2 N -0.0529(18) 1.2339(13) 1.0235(10)
C1 C 0.396(2) 0.5508(16) 0.7100(13)
C2 C 0.360(2) 0.5092(16) 0.6266(13)
C3 C 0.411(2) 0.4319(17) 0.5897(14)
H1 H 0.3883 0.4038 0.5336
C4 C 0.496(2) 0.3946(17) 0.6327(15)
H2 H 0.5289 0.3411 0.6064
C5 C 0.532(2) 0.4357(17) 0.7141(14)
H3 H 0.5897 0.4099 0.7436
C6 C 0.485(2) 0.5148(16) 0.7534(13)
C7 C 0.535(2) 0.5621(16) 0.8391(13)
C8 C 0.554(2) 0.5183(18) 0.8934(14)
H4 H 0.5307 0.4574 0.8762
C9 C 0.605(2) 0.5619(18) 0.9725(14)
H5 H 0.6181 0.5306 1.0088
C10 C 0.639(2) 0.6504(18) 0.9993(13)
C11 C 0.623(2) 0.6960(17) 0.9463(13)
H6 H 0.6464 0.7568 0.9640
C12 C 0.572(2) 0.6513(16) 0.8668(13)
H7 H 0.5630 0.6823 0.8302
C13 C 0.731(3) 0.7772(19) 1.1090(14)
H8 H 0.6591 0.8135 1.1043
H9 H 0.7955 0.7884 1.0779
C14 C 0.789(3) 0.799(2) 1.1951(15)
H10 H 0.8429 0.7524 1.2012
H11 H 0.8443 0.8543 1.2130
C15 C 0.736(3) 0.798(2) 1.3176(16)
H12 H 0.8192 0.8329 1.3414
H13 H 0.7500 0.7360 1.3098
C16 C 0.642(3) 0.828(2) 1.3721(17)
H14 H 0.5552 0.8081 1.3405
H15 H 0.6532 0.7975 1.4120
C17 C 0.608(3) 0.9703(19) 1.3672(15)
H16 H 0.5303 0.9429 1.3279
H17 H 0.6770 0.9790 1.3380
C18 C 0.581(2) 1.0566(18) 1.4257(14)
H18 H 0.5122 1.0472 1.4549
H19 H 0.6586 1.0832 1.4651
C19 C 0.526(2) 1.1972(18) 1.4352(14)
H20 H 0.6098 1.2244 1.4674
H21 H 0.4681 1.1918 1.4723
C20 C 0.472(2) 1.2544(17) 1.3909(14)
H22 H 0.4793 1.3156 1.4273
H23 H 0.5203 1.2516 1.3468
C21 C 0.269(2) 1.2739(17) 1.3231(13)
C22 C 0.308(2) 1.3568(17) 1.3250(13)
H24 H 0.3911 1.3829 1.3518
C23 C 0.227(2) 1.4014(17) 1.2879(13)
H25 H 0.2545 1.4585 1.2904
C24 C 0.106(2) 1.3649(16) 1.2468(13)
C25 C 0.069(2) 1.2814(16) 1.2450(13)
H26 H -0.0128 1.2545 1.2169
C26 C 0.148(2) 1.2369(17) 1.2830(13)
H27 H 0.1193 1.1806 1.2819
C27 C 0.019(2) 1.4133(16) 1.2069(13)
C28 C -0.020(2) 1.4939(16) 1.2510(14)
H28 H 0.0160 1.5205 1.3057
C29 C -0.110(2) 1.5348(17) 1.2160(14)
H29 H -0.1366 1.5887 1.2471
C30 C -0.161(2) 1.4978(17) 1.1357(14)
H30 H -0.2231 1.5264 1.1124
C31 C -0.122(2) 1.4194(16) 1.0889(13)
C32 C -0.032(2) 1.3764(16) 1.1247(13)
C33 C -0.168(2) 1.3845(16) 1.0003(13)
C34 C -0.290(2) 1.3436(17) 0.9683(14)
H31 H -0.3483 1.3409 1.0031
C35 C -0.328(2) 1.3067(17) 0.8865(14)
H32 H -0.4109 1.2782 0.8655
C36 C -0.243(3) 1.3115(17) 0.8355(14)
C37 C -0.123(3) 1.3545(17) 0.8662(14)
H33 H -0.0662 1.3598 0.8313
C38 C -0.087(2) 1.3893(17) 0.9477(14)
H34 H -0.0030 1.4175 0.9685
C39 C -0.210(4) 1.278(2) 0.6986(16)
H35 H -0.2657 1.2790 0.6501
H36 H -0.1582 1.3349 0.7218
C40 C -0.127(4) 1.214(3) 0.675(2)
H37 H -0.0729 1.2113 0.7235
H38 H -0.0689 1.2337 0.6439
C41 C -0.223(3) 1.082(2) 0.676(2)
H39 H -0.3104 1.0973 0.6866
H40 H -0.1655 1.1008 0.7283
C42 C -0.224(3) 0.985(2) 0.6368(19)
H41 H -0.2760 0.9555 0.6639
H42 H -0.2662 0.9688 0.5805
C43 C -0.032(3) 0.971(2) 0.5814(16)
H43 H 0.0220 1.0268 0.6068
H44 H -0.0929 0.9765 0.5366
C44 C 0.051(2) 0.8983(17) 0.5499(15)
H45 H 0.1177 0.9191 0.5250
H46 H 0.0954 0.8827 0.5951
C45 C -0.079(3) 0.7673(18) 0.5258(14)
H47 H -0.1600 0.7897 0.5420
H48 H -0.0227 0.7638 0.5734
C46 C -0.104(2) 0.6787(18) 0.4623(14)
H49 H -0.1478 0.6384 0.4834
H50 H -0.1627 0.6830 0.4158
C47 C 0.090(2) 0.6126(16) 0.4868(13)
C48 C 0.207(2) 0.5881(17) 0.4625(13)
H51 H 0.2281 0.5949 0.4150
C49 C 0.292(2) 0.5541(17) 0.5077(13)
H52 H 0.3710 0.5369 0.4904
C50 C 0.265(2) 0.5446(16) 0.5781(13)
C51 C 0.147(2) 0.5689(16) 0.6003(13)
H53 H 0.1258 0.5622 0.6478
C52 C 0.060(2) 0.6022(16) 0.5561(13)
H54 H -0.0196 0.6179 0.5728
C53 C 0.338(2) 0.6307(16) 0.7532(13)
H55 H 0.2987 0.6319 0.7980
C54 C 0.281(2) 0.7721(16) 0.7760(13)
C55 C 0.277(2) 0.7958(16) 0.8577(12)
H56 H 0.3138 0.7609 0.8868
C56 C 0.220(2) 0.8701(15) 0.8966(13)
H57 H 0.2187 0.8852 0.9523
C57 C 0.166(2) 0.9232(16) 0.8563(13)
C58 C 0.171(2) 0.8988(17) 0.7741(13)
H58 H 0.1348 0.9335 0.7447
C59 C 0.229(2) 0.8248(17) 0.7355(13)
H59 H 0.2322 0.8101 0.6801
C60 C 0.109(2) 1.0039(16) 0.8996(13)
C61 C 0.149(2) 1.0462(16) 0.9814(13)
H60 H 0.2135 1.0230 1.0089
C62 C 0.097(2) 1.1211(16) 1.0232(13)
H61 H 0.1249 1.1478 1.0790
C63 C 0.004(2) 1.1577(16) 0.9841(13)
C64 C -0.039(2) 1.1149(18) 0.9037(14)
H62 H -0.1049 1.1374 0.8767
C65 C 0.014(3) 1.0400(18) 0.8618(14)
H63 H -0.0164 1.0128 0.8063
C66 C 0.018(2) 1.2952(16) 1.0783(13)
H64 H 0.1061 1.2881 1.0897
Cl1? Cl 0.372(2) 0.1057(16) 0.1756(11)
Cl2? Cl 0.4861(16) 0.0010(14) 0.0420(9)
Cl3? Cl 0.425(2) -0.0698(15) 0.1600(13)
C67? C 0.476(6) 0.027(4) 0.144(3)
H65? H 0.5627 0.0485 0.1756
Cl4? Cl 0.419(2) 0.1380(14) 0.1549(12)
Cl5? Cl 0.547(2) -0.0162(15) 0.1504(13)
Cl6? Cl 0.2845(19) -0.0059(15) 0.1723(12)
C68? C 0.433(5) 0.052(4) 0.194(4)
H66? H 0.4602 0.0769 0.2535
C69? C -0.210(4) 1.278(2) 0.6986(16)
C70? C -0.225(7) 1.208(4) 0.625(4)
H67? H -0.2250 1.3324 0.6870
H68? H -0.1193 1.2835 0.7245
H69? H -0.1785 1.2261 0.5878
H70? H -0.3167 1.1984 0.6015
loop_
_geom_bond_atom_site_label_1
_geom_bond_atom_site_label_2
_geom_bond_site_symmetry_1
_geom_bond_site_symmetry_2
O1 C10 1_555 1_555
O2 C14 1_555 1_555
O3 C16 1_555 1_555
O4 C18 1_555 1_555
O5 C20 1_555 1_555
O6 C36 1_555 1_555
O7 C40 1_555 1_555
O8 C42 1_555 1_555
O9 C44 1_555 1_555
O10 C46 1_555 1_555
N1 C53 1_555 1_555
N2 C63 1_555 1_555
C1 C2 1_555 1_555
C2 C3 1_555 1_555
C3 H1 1_555 1_555
C4 C3 1_555 1_555
H2 C4 1_555 1_555
C5 C4 1_555 1_555
H3 C5 1_555 1_555
C6 C1 1_555 1_555
C7 C6 1_555 1_555
C8 C7 1_555 1_555
H4 C8 1_555 1_555
C9 C8 1_555 1_555
H5 C9 1_555 1_555
C10 C9 1_555 1_555
C11 C10 1_555 1_555
H6 C11 1_555 1_555
C12 C7 1_555 1_555
H7 C12 1_555 1_555
C13 O1 1_555 1_555
H8 C13 1_555 1_555
H9 C13 1_555 1_555
C14 C13 1_555 1_555
H10 C14 1_555 1_555
H11 C14 1_555 1_555
C15 O2 1_555 1_555
H12 C15 1_555 1_555
H13 C15 1_555 1_555
C16 C15 1_555 1_555
H14 C16 1_555 1_555
H15 C16 1_555 1_555
C17 O3 1_555 1_555
H16 C17 1_555 1_555
H17 C17 1_555 1_555
C18 C17 1_555 1_555
H18 C18 1_555 1_555
H19 C18 1_555 1_555
C19 O4 1_555 1_555
H20 C19 1_555 1_555
H21 C19 1_555 1_555
C20 C19 1_555 1_555
H22 C20 1_555 1_555
H23 C20 1_555 1_555
C21 O5 1_555 1_555
C22 C21 1_555 1_555
H24 C22 1_555 1_555
C23 C22 1_555 1_555
H25 C23 1_555 1_555
C24 C23 1_555 1_555
C25 C24 1_555 1_555
H26 C25 1_555 1_555
C26 C21 1_555 1_555
H27 C26 1_555 1_555
C27 C24 1_555 1_555
C28 C27 1_555 1_555
H28 C28 1_555 1_555
C29 C28 1_555 1_555
H29 C29 1_555 1_555
C30 C29 1_555 1_555
H30 C30 1_555 1_555
C31 C30 1_555 1_555
C32 C27 1_555 1_555
C33 C31 1_555 1_555
C34 C33 1_555 1_555
H31 C34 1_555 1_555
C35 C34 1_555 1_555
H32 C35 1_555 1_555
C36 C35 1_555 1_555
C37 C36 1_555 1_555
H33 C37 1_555 1_555
C38 C33 1_555 1_555
H34 C38 1_555 1_555
C39 O6 1_555 1_555
H35 C39 1_555 1_555
H36 C39 1_555 1_555
C40 C39 1_555 1_555
H37 C40 1_555 1_555
H38 C40 1_555 1_555
C41 O7 1_555 1_555
H39 C41 1_555 1_555
H40 C41 1_555 1_555
C42 C41 1_555 1_555
H41 C42 1_555 1_555
H42 C42 1_555 1_555
C43 O8 1_555 1_555
H43 C43 1_555 1_555
H44 C43 1_555 1_555
C44 C43 1_555 1_555
H45 C44 1_555 1_555
H46 C44 1_555 1_555
C45 O9 1_555 1_555
H47 C45 1_555 1_555
H48 C45 1_555 1_555
C46 C45 1_555 1_555
H49 C46 1_555 1_555
H50 C46 1_555 1_555
C47 O10 1_555 1_555
C48 C47 1_555 1_555
H51 C48 1_555 1_555
C49 C48 1_555 1_555
H52 C49 1_555 1_555
C50 C2 1_555 1_555
C51 C50 1_555 1_555
H53 C51 1_555 1_555
C52 C47 1_555 1_555
H54 C52 1_555 1_555
C53 C1 1_555 1_555
H55 C53 1_555 1_555
C54 N1 1_555 1_555
C55 C54 1_555 1_555
H56 C55 1_555 1_555
C56 C55 1_555 1_555
H57 C56 1_555 1_555
C57 C56 1_555 1_555
C58 C57 1_555 1_555
H58 C58 1_555 1_555
C59 C54 1_555 1_555
H59 C59 1_555 1_555
C60 C57 1_555 1_555
C61 C60 1_555 1_555
H60 C61 1_555 1_555
C62 C61 1_555 1_555
H61 C62 1_555 1_555
C63 C62 1_555 1_555
C64 C63 1_555 1_555
H62 C64 1_555 1_555
C65 C60 1_555 1_555
H63 C65 1_555 1_555
C66 N2 1_555 1_555
H64 C66 1_555 1_555
C5 C6 1_555 1_555
C11 C12 1_555 1_555
C25 C26 1_555 1_555
C31 C32 1_555 1_555
C32 C66 1_555 1_555
C37 C38 1_555 1_555
C49 C50 1_555 1_555
C51 C52 1_555 1_555
C58 C59 1_555 1_555
C64 C65 1_555 1_555

#END
