
#######################################################################
#
#                 Cambridge Crystallographic Data Centre
#                                CCDC 
#
#######################################################################
#
# If this CIF has been generated from an entry in the Cambridge 
# Structural Database, then it will include bibliographic, chemical, 
# crystal, experimental, refinement or atomic coordinate data resulting 
# from the CCDC's data processing and validation procedures.
#
#######################################################################

data_OWULID
_chemical_formula_moiety         'C46 H37 B1 F10 N2 O2'
_chemical_name_systematic        
(1-(5'-t-butyl-1,1':3',1''-terphenyl-2'-yl)-1-(oxidomethylidene)-N-(adamantyl)ammoniumcarboximidato)-bis(pentafluorophenyl)-boron
_symmetry_cell_setting           triclinic
_symmetry_space_group_name_H-M   'P -1'
_symmetry_Int_Tables_number      2
_space_group_name_Hall           '-P 1'
loop_
_symmetry_equiv_pos_site_id
_symmetry_equiv_pos_as_xyz
1 x,y,z
2 -x,-y,-z
_cell_length_a                   9.8062(10)
_cell_length_b                   14.0427(15)
_cell_length_c                   14.1996(15)
_cell_angle_alpha                89.409(2)
_cell_angle_beta                 88.658(2)
_cell_angle_gamma                89.278(2)
_cell_volume                     1954.57
_exptl_crystal_description       block
_cell_formula_units_Z            2
loop_
_atom_site_label
_atom_site_type_symbol
_atom_site_fract_x
_atom_site_fract_y
_atom_site_fract_z
F1 F 1.19741(10) 0.81783(7) 0.12227(7)
F2 F 1.42440(10) 0.81565(7) 0.01751(7)
F3 F 1.59160(10) 0.65916(7) 0.01488(7)
F4 F 1.51755(10) 0.49969(7) 0.11286(7)
F5 F 1.28845(10) 0.50018(6) 0.22007(7)
F6 F 0.97755(10) 0.66162(7) 0.06526(6)
F7 F 0.81873(10) 0.53301(7) -0.01519(7)
F8 F 0.75303(11) 0.36929(7) 0.07917(8)
F9 F 0.84501(11) 0.33814(7) 0.25482(8)
F10 F 0.99628(10) 0.46607(7) 0.33941(7)
O1 O 1.14572(11) 0.62201(8) 0.34275(7)
O2 O 1.02814(11) 0.74548(7) 0.25478(7)
N1 N 0.97376(13) 0.71042(9) 0.41207(9)
N2 N 0.85402(13) 0.82855(9) 0.33566(9)
C1 C 1.07518(15) 0.64849(11) 0.41423(11)
H1 H 1.0975 0.6215 0.4736
C2 C 0.90776(15) 0.73419(11) 0.50179(10)
C3 C 0.97640(16) 0.79499(11) 0.56109(11)
C4 C 0.91974(16) 0.81145(11) 0.65046(11)
H2 H 0.9656 0.8524 0.6918
C5 C 0.79767(16) 0.76979(11) 0.68146(11)
C6 C 0.73528(16) 0.70798(11) 0.62032(11)
H3 H 0.6532 0.6780 0.6406
C7 C 0.78846(16) 0.68806(11) 0.53021(11)
C8 C 1.11055(16) 0.83670(11) 0.53091(11)
C9 C 1.1167(2) 0.91036(13) 0.46453(12)
H4 H 1.0349 0.9360 0.4395
C10 C 1.2417(2) 0.94645(16) 0.43481(13)
H5 H 1.2450 0.9972 0.3901
C11 C 1.3613(2) 0.90910(15) 0.46973(13)
H6 H 1.4466 0.9335 0.4483
C12 C 1.35708(19) 0.83613(14) 0.53594(14)
H7 H 1.4393 0.8104 0.5601
C13 C 1.23147(17) 0.80057(12) 0.56700(12)
H8 H 1.2285 0.7512 0.6132
C14 C 0.72334(15) 0.61381(12) 0.47253(11)
C15 C 0.70343(16) 0.52359(12) 0.51213(12)
H9 H 0.7288 0.5113 0.5753
C16 C 0.64675(17) 0.45143(13) 0.45996(14)
H10 H 0.6333 0.3903 0.4877
C17 C 0.60996(18) 0.46844(15) 0.36798(14)
H11 H 0.5732 0.4188 0.3318
C18 C 0.62687(19) 0.55768(16) 0.32926(13)
H12 H 0.6004 0.5697 0.2663
C19 C 0.68231(18) 0.63093(14) 0.38114(12)
H13 H 0.6919 0.6926 0.3538
C20 C 0.74033(16) 0.78937(11) 0.78083(11)
C21 C 0.83838(18) 0.74490(13) 0.85255(11)
H14 H 0.8445 0.6759 0.8431
H15 H 0.8040 0.7577 0.9166
H16 H 0.9290 0.7727 0.8436
C22 C 0.72938(17) 0.89732(12) 0.79700(12)
H17 H 0.8200 0.9255 0.7899
H18 H 0.6928 0.9092 0.8607
H19 H 0.6683 0.9261 0.7507
C23 C 0.59831(17) 0.74696(12) 0.79730(12)
H20 H 0.5371 0.7704 0.7484
H21 H 0.5623 0.7661 0.8593
H22 H 0.6048 0.6773 0.7947
C24 C 1.23359(16) 0.65956(11) 0.17858(11)
C25 C 1.27383(16) 0.73770(11) 0.12493(11)
C26 C 1.39252(16) 0.73863(12) 0.06987(11)
C27 C 1.47636(16) 0.65892(12) 0.06676(11)
C28 C 1.43846(16) 0.57856(11) 0.11704(11)
C29 C 1.31997(16) 0.58072(11) 0.17160(11)
C30 C 0.99374(15) 0.57125(11) 0.20619(11)
C31 C 0.94315(16) 0.58322(11) 0.11626(11)
C32 C 0.86241(16) 0.51789(12) 0.07236(11)
C33 C 0.82976(17) 0.43450(12) 0.11975(13)
C34 C 0.87689(17) 0.41929(12) 0.20893(13)
C35 C 0.95639(16) 0.48710(12) 0.25072(11)
C36 C 0.94582(15) 0.76628(11) 0.32750(10)
C37 C 0.81506(15) 0.89117(11) 0.25664(11)
C38 C 0.93451(16) 0.95337(11) 0.22166(11)
H23 H 0.9699 0.9900 0.2748
H24 H 1.0093 0.9123 0.1965
C39 C 0.75943(16) 0.83442(11) 0.17365(11)
H25 H 0.8318 0.7918 0.1477
H26 H 0.6823 0.7947 0.1959
C40 C 0.70105(17) 0.95683(12) 0.29526(11)
H27 H 0.6235 0.9179 0.3184
H28 H 0.7352 0.9933 0.3490
C41 C 0.88612(17) 1.02209(12) 0.14426(11)
H29 H 0.9644 1.0618 0.1214
C42 C 0.83229(17) 0.96453(12) 0.06207(11)
H30 H 0.9058 0.9226 0.0363
H31 H 0.8028 1.0083 0.0112
C43 C 0.71133(17) 0.90399(12) 0.09660(11)
H32 H 0.6759 0.8671 0.0427
C44 C 0.59778(17) 0.96921(12) 0.13617(12)
H33 H 0.5193 0.9305 0.1581
H34 H 0.5662 1.0134 0.0862
C45 C 0.65232(17) 1.02611(12) 0.21863(12)
H35 H 0.5782 1.0682 0.2450
C46 C 0.77205(18) 1.08720(12) 0.18340(12)
H36 H 0.7412 1.1316 0.1335
H37 H 0.8066 1.1252 0.2359
B1 B 1.09683(18) 0.65235(13) 0.24499(12)
loop_
_geom_bond_atom_site_label_1
_geom_bond_atom_site_label_2
_geom_bond_site_symmetry_1
_geom_bond_site_symmetry_2
F1 C25 1_555 1_555
F2 C26 1_555 1_555
F3 C27 1_555 1_555
F4 C28 1_555 1_555
F5 C29 1_555 1_555
F6 C31 1_555 1_555
F7 C32 1_555 1_555
F8 C33 1_555 1_555
F9 C34 1_555 1_555
F10 C35 1_555 1_555
O1 C1 1_555 1_555
O2 C36 1_555 1_555
N1 C1 1_555 1_555
N2 C36 1_555 1_555
C1 H1 1_555 1_555
C2 N1 1_555 1_555
C3 C2 1_555 1_555
C4 C3 1_555 1_555
H2 C4 1_555 1_555
C5 C4 1_555 1_555
C6 C5 1_555 1_555
H3 C6 1_555 1_555
C7 C2 1_555 1_555
C8 C3 1_555 1_555
C9 C8 1_555 1_555
H4 C9 1_555 1_555
C10 C9 1_555 1_555
H5 C10 1_555 1_555
C11 C10 1_555 1_555
H6 C11 1_555 1_555
C12 C11 1_555 1_555
H7 C12 1_555 1_555
C13 C8 1_555 1_555
H8 C13 1_555 1_555
C14 C7 1_555 1_555
C15 C14 1_555 1_555
H9 C15 1_555 1_555
C16 C15 1_555 1_555
H10 C16 1_555 1_555
C17 C16 1_555 1_555
H11 C17 1_555 1_555
C18 C17 1_555 1_555
H12 C18 1_555 1_555
C19 C14 1_555 1_555
H13 C19 1_555 1_555
C20 C5 1_555 1_555
C21 C20 1_555 1_555
H14 C21 1_555 1_555
H15 C21 1_555 1_555
H16 C21 1_555 1_555
C22 C20 1_555 1_555
H17 C22 1_555 1_555
H18 C22 1_555 1_555
H19 C22 1_555 1_555
C23 C20 1_555 1_555
H20 C23 1_555 1_555
H21 C23 1_555 1_555
H22 C23 1_555 1_555
C24 C25 1_555 1_555
C25 C26 1_555 1_555
C26 C27 1_555 1_555
C27 C28 1_555 1_555
C28 C29 1_555 1_555
C29 C24 1_555 1_555
C30 C31 1_555 1_555
C31 C32 1_555 1_555
C32 C33 1_555 1_555
C33 C34 1_555 1_555
C34 C35 1_555 1_555
C35 C30 1_555 1_555
C36 N1 1_555 1_555
C37 N2 1_555 1_555
C38 C37 1_555 1_555
H23 C38 1_555 1_555
H24 C38 1_555 1_555
C39 C37 1_555 1_555
H25 C39 1_555 1_555
H26 C39 1_555 1_555
C40 C37 1_555 1_555
H27 C40 1_555 1_555
H28 C40 1_555 1_555
C41 C38 1_555 1_555
H29 C41 1_555 1_555
C42 C41 1_555 1_555
H30 C42 1_555 1_555
H31 C42 1_555 1_555
C43 C39 1_555 1_555
H32 C43 1_555 1_555
C44 C43 1_555 1_555
H33 C44 1_555 1_555
H34 C44 1_555 1_555
C45 C40 1_555 1_555
H35 C45 1_555 1_555
C46 C41 1_555 1_555
H36 C46 1_555 1_555
H37 C46 1_555 1_555
B1 O1 1_555 1_555
O2 B1 1_555 1_555
C6 C7 1_555 1_555
C12 C13 1_555 1_555
C18 C19 1_555 1_555
C24 B1 1_555 1_555
C30 B1 1_555 1_555
C42 C43 1_555 1_555
C44 C45 1_555 1_555
C45 C46 1_555 1_555

#END
