
#######################################################################
#
#                 Cambridge Crystallographic Data Centre
#                                CCDC 
#
#######################################################################
#
# If this CIF has been generated from an entry in the Cambridge 
# Structural Database, then it will include bibliographic, chemical, 
# crystal, experimental, refinement or atomic coordinate data resulting 
# from the CCDC's data processing and validation procedures.
#
#######################################################################

data_OWUREF
_chemical_formula_moiety         'C11 H10 Br2 N4 O1'
_chemical_name_systematic        
N-((4-bromo-5-(2-bromophenyl)-2H-1,2,3-triazol-2-yl)methyl)-N-methylformamide
_symmetry_cell_setting           monoclinic
_symmetry_space_group_name_H-M   'P 21/c'
_symmetry_Int_Tables_number      14
_space_group_name_Hall           '-P 2ybc'
loop_
_symmetry_equiv_pos_site_id
_symmetry_equiv_pos_as_xyz
1 x,y,z
2 -x,1/2+y,1/2-z
3 -x,-y,-z
4 x,1/2-y,1/2+z
_cell_length_a                   14.851(3)
_cell_length_b                   6.8378(12)
_cell_length_c                   13.732(2)
_cell_angle_alpha                90
_cell_angle_beta                 109.703(3)
_cell_angle_gamma                90
_cell_volume                     1312.82
_exptl_crystal_colour            colorless
_exptl_crystal_description       block
_chemical_melting_point          '351.15 K'
_cell_formula_units_Z            4
_chemical_properties_physical    ', Oxygen-sensitive'
loop_
_atom_site_label
_atom_site_type_symbol
_atom_site_fract_x
_atom_site_fract_y
_atom_site_fract_z
Br1 Br 0.26389(4) 0.27296(9) 0.25636(4)
Br2 Br 0.19705(5) 0.65893(9) 0.40870(6)
C1 C 0.1241(4) 0.2758(8) 0.4209(4)
C2 C 0.0992(4) 0.4694(9) 0.3955(4)
C3 C 0.0064(5) 0.5314(11) 0.3630(5)
H1 H -0.0080 0.6617 0.3452
C4 C -0.0666(4) 0.3990(12) 0.3565(5)
H2 H -0.1299 0.4409 0.3341
C5 C -0.0456(5) 0.2083(11) 0.3829(6)
H3 H -0.0941 0.1207 0.3808
C6 C 0.0498(4) 0.1449(10) 0.4134(5)
H4 H 0.0638 0.0135 0.4288
C7 C 0.2218(3) 0.2010(7) 0.4491(4)
C8 C 0.2825(4) 0.1830(7) 0.3891(4)
C9 C 0.4268(4) -0.0316(8) 0.6193(4)
H5 H 0.4869 -0.0169 0.6068
H6 H 0.4320 0.0391 0.6822
C10 C 0.4537(4) -0.3762(10) 0.5964(5)
H7 H 0.4901 -0.3359 0.5567
C11 C 0.3513(6) -0.2882(11) 0.6955(6)
H8 H 0.3422 -0.4273 0.6934
H9 H 0.2904 -0.2245 0.6675
H10 H 0.3819 -0.2472 0.7658
N1 N 0.2669(3) 0.1163(6) 0.5407(3)
N2 N 0.3504(3) 0.0545(6) 0.5334(3)
N3 N 0.3620(3) 0.0922(6) 0.4439(3)
N4 N 0.4113(3) -0.2359(7) 0.6342(4)
O1 O 0.4486(4) -0.5510(7) 0.6095(4)
loop_
_geom_bond_atom_site_label_1
_geom_bond_atom_site_label_2
_geom_bond_site_symmetry_1
_geom_bond_site_symmetry_2
Br1 C8 1_555 1_555
Br2 C2 1_555 1_555
C1 C2 1_555 1_555
C2 C3 1_555 1_555
C3 H1 1_555 1_555
C4 C3 1_555 1_555
H2 C4 1_555 1_555
C5 C4 1_555 1_555
H3 C5 1_555 1_555
C6 C1 1_555 1_555
H4 C6 1_555 1_555
C7 C1 1_555 1_555
C8 C7 1_555 1_555
C9 H5 1_555 1_555
H6 C9 1_555 1_555
C10 H7 1_555 1_555
C11 H8 1_555 1_555
H9 C11 1_555 1_555
H10 C11 1_555 1_555
N1 C7 1_555 1_555
N2 C9 1_555 1_555
N3 C8 1_555 1_555
N4 C9 1_555 1_555
O1 C10 1_555 1_555
C5 C6 1_555 1_555
C10 N4 1_555 1_555
C11 N4 1_555 1_555
N1 N2 1_555 1_555
N2 N3 1_555 1_555

#END
