
#######################################################################
#
#                 Cambridge Crystallographic Data Centre
#                                CCDC 
#
#######################################################################
#
# If this CIF has been generated from an entry in the Cambridge 
# Structural Database, then it will include bibliographic, chemical, 
# crystal, experimental, refinement or atomic coordinate data resulting 
# from the CCDC's data processing and validation procedures.
#
#######################################################################

data_OWUTEH02
_chemical_formula_moiety         'C17 H19 N1 O2 S1 1+,B1 F4 1-'
_chemical_name_systematic        
'10-(2-(2-methoxyethoxy)ethyl)-10H-phenothiazin-5-ium radical tetrafluoroborate'
_symmetry_cell_setting           monoclinic
_symmetry_space_group_name_H-M   'P 21/c'
_symmetry_Int_Tables_number      14
_space_group_name_Hall           '-P 2ybc'
loop_
_symmetry_equiv_pos_site_id
_symmetry_equiv_pos_as_xyz
1 x,y,z
2 -x,1/2+y,1/2-z
3 -x,-y,-z
4 x,1/2-y,1/2+z
_cell_length_a                   7.0364(1)
_cell_length_b                   12.4613(2)
_cell_length_c                   19.4044(3)
_cell_angle_alpha                90
_cell_angle_beta                 98.2495(8)
_cell_angle_gamma                90
_cell_volume                     1683.82
_exptl_crystal_colour            'red green'
_exptl_crystal_description       'irregular block'
_cell_formula_units_Z            4
loop_
_atom_site_label
_atom_site_type_symbol
_atom_site_fract_x
_atom_site_fract_y
_atom_site_fract_z
N1 N 0.23010(15) 0.40157(9) 0.42486(6)
S1 S 0.27931(5) 0.52894(3) 0.56599(2)
O1 O 0.48091(14) 0.26609(8) 0.34758(5)
O2 O 0.84317(14) 0.16462(8) 0.39393(5)
C1 C 0.29199(18) 0.3447(1) 0.48590(7)
C2 C 0.33613(19) 0.23404(11) 0.48328(7)
H1 H 0.3270 0.1988 0.4395
C3 C 0.39205(19) 0.17728(11) 0.54342(7)
H2 H 0.4224 0.1033 0.5405
C4 C 0.4055(2) 0.22590(11) 0.60906(7)
H3 H 0.4412 0.1850 0.6502
C5 C 0.36638(19) 0.33343(11) 0.61321(7)
H4 H 0.3745 0.3669 0.6575
C6 C 0.31462(18) 0.39424(11) 0.55260(7)
C7 C 0.22645(18) 0.57781(11) 0.48220(7)
C8 C 0.19778(19) 0.68903(11) 0.47743(7)
H5 H 0.2144 0.7315 0.5185
C9 C 0.1458(2) 0.73724(11) 0.41377(7)
H6 H 0.1284 0.8128 0.4106
C10 C 0.11885(19) 0.67339(11) 0.35349(7)
H7 H 0.0804 0.7062 0.3095
C11 C 0.14722(19) 0.56421(11) 0.35712(7)
H8 H 0.1291 0.5229 0.3155
C12 C 0.20290(18) 0.51229(10) 0.42174(7)
C13 C 0.17442(19) 0.33971(10) 0.35928(7)
H9 H 0.0603 0.3739 0.3323
H10 H 0.1376 0.2661 0.3714
C14 C 0.33180(19) 0.33262(11) 0.31373(7)
H11 H 0.2800 0.3019 0.2678
H12 H 0.3826 0.4051 0.3062
C15 C 0.6091(2) 0.22879(12) 0.30215(7)
H13 H 0.7022 0.2859 0.2950
H14 H 0.5363 0.2096 0.2563
C16 C 0.7132(2) 0.13222(11) 0.33460(7)
H15 H 0.6199 0.0800 0.3486
H16 H 0.7846 0.0970 0.3004
C17 C 0.9092(2) 0.07501(12) 0.43552(8)
H17 H 1.0035 0.0988 0.4747
H18 H 0.9693 0.0233 0.4073
H19 H 0.8005 0.0410 0.4533
B1 B 0.2217(2) 0.00111(13) 0.29759(8)
F1 F 0.14635(13) 0.10402(7) 0.28888(5)
F2 F 0.07237(13) -0.07365(7) 0.28375(5)
F3 F 0.31158(14) -0.01221(8) 0.36563(5)
F4 F 0.35315(15) -0.01383(9) 0.25133(6)
loop_
_geom_bond_atom_site_label_1
_geom_bond_atom_site_label_2
_geom_bond_site_symmetry_1
_geom_bond_site_symmetry_2
N1 C1 1_555 1_555
S1 C6 1_555 1_555
O1 C14 1_555 1_555
O2 C16 1_555 1_555
C1 C2 1_555 1_555
C2 H1 1_555 1_555
C3 C2 1_555 1_555
H2 C3 1_555 1_555
C4 C3 1_555 1_555
H3 C4 1_555 1_555
C5 C4 1_555 1_555
H4 C5 1_555 1_555
C6 C1 1_555 1_555
C7 S1 1_555 1_555
C8 C7 1_555 1_555
H5 C8 1_555 1_555
C9 C8 1_555 1_555
H6 C9 1_555 1_555
C10 C9 1_555 1_555
H7 C10 1_555 1_555
C11 C10 1_555 1_555
H8 C11 1_555 1_555
C12 N1 1_555 1_555
C13 N1 1_555 1_555
H9 C13 1_555 1_555
H10 C13 1_555 1_555
C14 C13 1_555 1_555
H11 C14 1_555 1_555
H12 C14 1_555 1_555
C15 O1 1_555 1_555
H13 C15 1_555 1_555
H14 C15 1_555 1_555
C16 C15 1_555 1_555
H15 C16 1_555 1_555
H16 C16 1_555 1_555
C17 O2 1_555 1_555
H17 C17 1_555 1_555
H18 C17 1_555 1_555
H19 C17 1_555 1_555
B1 F1 1_555 1_555
F2 B1 1_555 1_555
F3 B1 1_555 1_555
F4 B1 1_555 1_555
C5 C6 1_555 1_555
C7 C12 1_555 1_555
C11 C12 1_555 1_555

#END
