
#######################################################################
#
#                 Cambridge Crystallographic Data Centre
#                                CCDC 
#
#######################################################################
#
# If this CIF has been generated from an entry in the Cambridge 
# Structural Database, then it will include bibliographic, chemical, 
# crystal, experimental, refinement or atomic coordinate data resulting 
# from the CCDC's data processing and validation procedures.
#
#######################################################################

data_OWUYOW02
_chemical_formula_moiety         'C10 H6 N12 O8'
_chemical_name_systematic        
N,N'-dinitro-N,N'-bis(4-(1,2,4-oxadiazol-3-yl)-1,2,5-oxadiazol-3-yl)ethane-1,2-diamine
_symmetry_cell_setting           monoclinic
_symmetry_space_group_name_H-M   'P 21/n'
_symmetry_Int_Tables_number      14
_space_group_name_Hall           '-P 2yn'
loop_
_symmetry_equiv_pos_site_id
_symmetry_equiv_pos_as_xyz
1 x,y,z
2 1/2-x,1/2+y,1/2-z
3 -x,-y,-z
4 1/2+x,1/2-y,1/2+z
_cell_length_a                   9.2994(8)
_cell_length_b                   8.8927(8)
_cell_length_c                   9.8472(9)
_cell_angle_alpha                90
_cell_angle_beta                 100.317(3)
_cell_angle_gamma                90
_cell_volume                     801.166
_exptl_crystal_colour            colorless
_exptl_crystal_description       plate
_cell_formula_units_Z            2
loop_
_atom_site_label
_atom_site_type_symbol
_atom_site_fract_x
_atom_site_fract_y
_atom_site_fract_z
C1 C -0.1993(3) 0.5780(4) 0.6729(3)
H1 H -0.2939 0.6107 0.6390
O1 O -0.0841(2) 0.6281(2) 0.62473(19)
N1 N 0.0370(2) 0.5526(3) 0.7007(2)
C2 C -0.0212(2) 0.4691(2) 0.7823(2)
N2 N -0.1698(2) 0.4808(2) 0.7702(2)
C3 C 0.0665(2) 0.3710(2) 0.8828(2)
N3 N 0.00670(19) 0.2803(2) 0.95987(19)
O2 O 0.12106(17) 0.2102(2) 1.04494(17)
N4 N 0.25296(19) 0.2587(2) 1.01769(19)
C4 C 0.2212(2) 0.3564(3) 0.9204(2)
N5 N 0.33208(18) 0.4409(2) 0.87766(17)
N6 N 0.3499(2) 0.4242(3) 0.74199(19)
O3 O 0.26888(19) 0.3347(2) 0.67222(16)
O4 O 0.4436(2) 0.5010(2) 0.70582(19)
C5 C 0.4279(2) 0.5392(3) 0.9716(2)
H2 H 0.3799 0.5678 1.0474
H3 H 0.4471 0.6299 0.9232
C1B C 1.1993(3) 0.4220(4) 1.3271(3)
H1B H 1.2939 0.3893 1.3610
O1B O 1.0841(2) 0.3719(2) 1.37527(19)
N1B N 0.9630(2) 0.4474(3) 1.2993(2)
C2B C 1.0212(2) 0.5309(2) 1.2177(2)
N2B N 1.1698(2) 0.5192(2) 1.2298(2)
C3B C 0.9335(2) 0.6290(2) 1.1172(2)
N3B N 0.99330(19) 0.7197(2) 1.04013(19)
O2B O 0.87894(17) 0.7898(2) 0.95506(17)
N4B N 0.74704(19) 0.7413(2) 0.98231(19)
C4B C 0.7788(2) 0.6436(3) 1.0796(2)
N5B N 0.66792(18) 0.5591(2) 1.12234(17)
N6B N 0.6501(2) 0.5758(3) 1.25801(19)
O3B O 0.73112(19) 0.6653(2) 1.32778(16)
O4B O 0.5564(2) 0.4990(2) 1.29418(19)
C5B C 0.5721(2) 0.4608(3) 1.0284(2)
H2B H 0.6201 0.4322 0.9526
H3B H 0.5529 0.3701 1.0768
loop_
_geom_bond_atom_site_label_1
_geom_bond_atom_site_label_2
_geom_bond_site_symmetry_1
_geom_bond_site_symmetry_2
C1 H1 1_555 1_555
O1 C1 1_555 1_555
N1 O1 1_555 1_555
C2 N1 1_555 1_555
N2 C1 1_555 1_555
C3 C2 1_555 1_555
N3 C3 1_555 1_555
O2 N3 1_555 1_555
N4 O2 1_555 1_555
C4 C3 1_555 1_555
N5 C4 1_555 1_555
N6 N5 1_555 1_555
O3 N6 1_555 1_555
O4 N6 1_555 1_555
C5 N5 1_555 1_555
H2 C5 1_555 1_555
H3 C5 1_555 1_555
C1B H1B 1_555 1_555
O1B C1B 1_555 1_555
N1B O1B 1_555 1_555
C2B N1B 1_555 1_555
N2B C1B 1_555 1_555
C3B C2B 1_555 1_555
N3B C3B 1_555 1_555
O2B N3B 1_555 1_555
N4B O2B 1_555 1_555
C4B C3B 1_555 1_555
N5B C4B 1_555 1_555
N6B N5B 1_555 1_555
O3B N6B 1_555 1_555
O4B N6B 1_555 1_555
C5B C5 1_555 1_555
H2B C5B 1_555 1_555
H3B C5B 1_555 1_555
C2 N2 1_555 1_555
N4 C4 1_555 1_555
C2B N2B 1_555 1_555
N4B C4B 1_555 1_555
N5B C5B 1_555 1_555

#END
