
#######################################################################
#
#                 Cambridge Crystallographic Data Centre
#                                CCDC 
#
#######################################################################
#
# If this CIF has been generated from an entry in the Cambridge 
# Structural Database, then it will include bibliographic, chemical, 
# crystal, experimental, refinement or atomic coordinate data resulting 
# from the CCDC's data processing and validation procedures.
#
#######################################################################

data_OXAGIF
_chemical_formula_moiety         'C35 H36 N2 O4'
_chemical_name_systematic        
(2S*,6aR*)-1',4-dibenzyl-6-cyclohexyl-6a-ethoxy-6,6a-dihydrospiro[furo[2,3-b]pyrrole-2,3'-indole]-2',5(1'H,3H)-dione
_symmetry_cell_setting           monoclinic
_symmetry_space_group_name_H-M   'P 21/n'
_symmetry_Int_Tables_number      14
_space_group_name_Hall           '-P 2yn'
loop_
_symmetry_equiv_pos_site_id
_symmetry_equiv_pos_as_xyz
1 x,y,z
2 1/2-x,1/2+y,1/2-z
3 -x,-y,-z
4 1/2+x,1/2-y,1/2+z
_cell_length_a                   8.5520(12)
_cell_length_b                   28.963(4)
_cell_length_c                   12.2072(18)
_cell_angle_alpha                90
_cell_angle_beta                 109.547(2)
_cell_angle_gamma                90
_cell_volume                     2849.36
_exptl_crystal_colour            pink
_exptl_crystal_description       rhomboid
_chemical_melting_point          '161-162 deg.C'
_cell_formula_units_Z            4
loop_
_atom_site_label
_atom_site_type_symbol
_atom_site_fract_x
_atom_site_fract_y
_atom_site_fract_z
N1 N -0.19916(19) 0.11908(6) 0.53193(13)
N2 N 0.11401(18) 0.14072(5) 1.02037(13)
O1 O -0.38563(17) 0.11353(6) 0.63008(13)
O2 O -0.06190(16) 0.11561(4) 0.82790(11)
O3 O -0.16150(16) 0.12677(5) 0.98085(11)
O4 O 0.29015(18) 0.19571(5) 1.13303(12)
C1 C -0.2486(2) 0.12302(6) 0.62635(16)
C2 C -0.1041(2) 0.14488(6) 0.72585(15)
C3 C 0.0316(2) 0.14742(6) 0.67320(15)
C4 C 0.1939(2) 0.16211(7) 0.71849(18)
H1 H 0.2378 0.1724 0.7958
C5 C 0.2913(2) 0.16132(8) 0.6469(2)
H2 H 0.4022 0.1713 0.6762
C6 C 0.2263(3) 0.14596(8) 0.5332(2)
H3 H 0.2943 0.1455 0.4866
C7 C 0.0627(3) 0.13123(7) 0.48649(18)
H4 H 0.0184 0.1210 0.4092
C8 C -0.0318(2) 0.13231(6) 0.55837(16)
C9 C -0.0473(2) 0.14203(6) 0.92901(15)
C10 C -0.0586(2) 0.19138(6) 0.88731(15)
C11 C -0.1584(2) 0.19244(6) 0.76144(15)
H5 H -0.1269 0.2182 0.7211
H6 H -0.2778 0.1936 0.7483
C12 C 0.0650(2) 0.21660(6) 0.95664(16)
C13 C 0.1708(2) 0.18469(7) 1.04959(16)
C14 C -0.3113(3) 0.10629(7) 0.41681(16)
H7 H -0.2951 0.1279 0.3597
H8 H -0.4258 0.1098 0.4157
C15 C -0.2890(3) 0.05794(7) 0.37990(16)
C16 C -0.2526(3) 0.04980(9) 0.2810(2)
H9 H -0.2355 0.0750 0.2377
C17 C -0.2403(4) 0.00551(11) 0.2431(3)
H10 H -0.2113 0.0008 0.1762
C18 C -0.2701(5) -0.03120(11) 0.3023(3)
H11 H -0.2562 -0.0614 0.2789
C19 C -0.3220(5) -0.02391(10) 0.3990(3)
H12 H -0.3507 -0.0491 0.4369
C20 C -0.3303(4) 0.02049(9) 0.4376(2)
H13 H -0.3638 0.0256 0.5025
C21 C -0.3334(2) 0.12687(9) 0.91057(19)
H14 H -0.3513 0.1068 0.8428
H15 H -0.3686 0.1582 0.8831
C22 C -0.4313(3) 0.10967(10) 0.9831(2)
H16 H -0.3993 0.0781 1.0068
H17 H -0.5487 0.1107 0.9381
H18 H -0.4095 0.1290 1.0515
C23 C 0.1875(2) 0.10128(6) 1.09636(16)
H19 H 0.3080 0.1075 1.1304
C24 C 0.1689(3) 0.05649(7) 1.02716(18)
H20 H 0.0510 0.0487 0.9927
H21 H 0.2141 0.0607 0.9639
C25 C 0.2603(3) 0.01720(8) 1.1060(2)
H22 H 0.2422 -0.0116 1.0613
H23 H 0.3796 0.0237 1.1339
C26 C 0.2014(3) 0.01107(8) 1.2097(2)
H24 H 0.0860 0.0004 1.1824
H25 H 0.2691 -0.0126 1.2616
C27 C 0.2132(3) 0.05581(8) 1.27649(19)
H26 H 0.3303 0.0641 1.3133
H27 H 0.1652 0.0513 1.3382
C28 C 0.1229(3) 0.09533(8) 1.19798(18)
H28 H 0.1399 0.1240 1.2430
H29 H 0.0036 0.0889 1.1682
C29 C 0.1153(3) 0.26558(7) 0.94247(18)
H30 H 0.1567 0.2803 1.0190
H31 H 0.0175 0.2828 0.8950
C30 C 0.2481(3) 0.26816(6) 0.88587(17)
C31 C 0.4107(3) 0.25424(7) 0.9453(2)
H32 H 0.4390 0.2430 1.0217
C32 C 0.5309(3) 0.25691(8) 0.8923(2)
H33 H 0.6398 0.2472 0.9329
C33 C 0.4924(3) 0.27367(8) 0.7806(2)
H34 H 0.5745 0.2755 0.7454
C34 C 0.3323(3) 0.28774(8) 0.7211(2)
H35 H 0.3053 0.2994 0.6452
C35 C 0.2106(3) 0.28469(8) 0.77327(19)
H36 H 0.1016 0.2940 0.7316
loop_
_geom_bond_atom_site_label_1
_geom_bond_atom_site_label_2
_geom_bond_site_symmetry_1
_geom_bond_site_symmetry_2
N1 C1 1_555 1_555
N2 C9 1_555 1_555
O1 C1 1_555 1_555
O2 C2 1_555 1_555
O3 C9 1_555 1_555
O4 C13 1_555 1_555
C1 C2 1_555 1_555
C2 C3 1_555 1_555
C3 C4 1_555 1_555
C4 H1 1_555 1_555
C5 C4 1_555 1_555
H2 C5 1_555 1_555
C6 C5 1_555 1_555
H3 C6 1_555 1_555
C7 C6 1_555 1_555
H4 C7 1_555 1_555
C8 N1 1_555 1_555
C9 O2 1_555 1_555
C10 C9 1_555 1_555
C11 C2 1_555 1_555
H5 C11 1_555 1_555
H6 C11 1_555 1_555
C12 C10 1_555 1_555
C13 N2 1_555 1_555
C14 N1 1_555 1_555
H7 C14 1_555 1_555
H8 C14 1_555 1_555
C15 C14 1_555 1_555
C16 C15 1_555 1_555
H9 C16 1_555 1_555
C17 C16 1_555 1_555
H10 C17 1_555 1_555
C18 C17 1_555 1_555
H11 C18 1_555 1_555
C19 C18 1_555 1_555
H12 C19 1_555 1_555
C20 C15 1_555 1_555
H13 C20 1_555 1_555
C21 O3 1_555 1_555
H14 C21 1_555 1_555
H15 C21 1_555 1_555
C22 C21 1_555 1_555
H16 C22 1_555 1_555
H17 C22 1_555 1_555
H18 C22 1_555 1_555
C23 N2 1_555 1_555
H19 C23 1_555 1_555
C24 C23 1_555 1_555
H20 C24 1_555 1_555
H21 C24 1_555 1_555
C25 C24 1_555 1_555
H22 C25 1_555 1_555
H23 C25 1_555 1_555
C26 C25 1_555 1_555
H24 C26 1_555 1_555
H25 C26 1_555 1_555
C27 C26 1_555 1_555
H26 C27 1_555 1_555
H27 C27 1_555 1_555
C28 C23 1_555 1_555
H28 C28 1_555 1_555
H29 C28 1_555 1_555
C29 C12 1_555 1_555
H30 C29 1_555 1_555
H31 C29 1_555 1_555
C30 C29 1_555 1_555
C31 C30 1_555 1_555
H32 C31 1_555 1_555
C32 C31 1_555 1_555
H33 C32 1_555 1_555
C33 C32 1_555 1_555
H34 C33 1_555 1_555
C34 C33 1_555 1_555
H35 C34 1_555 1_555
C35 C30 1_555 1_555
H36 C35 1_555 1_555
C3 C8 1_555 1_555
C7 C8 1_555 1_555
C10 C11 1_555 1_555
C12 C13 1_555 1_555
C19 C20 1_555 1_555
C27 C28 1_555 1_555
C34 C35 1_555 1_555

#END
