
#######################################################################
#
#                 Cambridge Crystallographic Data Centre
#                                CCDC 
#
#######################################################################
#
# If this CIF has been generated from an entry in the Cambridge 
# Structural Database, then it will include bibliographic, chemical, 
# crystal, experimental, refinement or atomic coordinate data resulting 
# from the CCDC's data processing and validation procedures.
#
#######################################################################

data_OXAMOR
_chemical_formula_moiety         'C19 H17 N1 O1'
_chemical_name_systematic        
(2-cyclopropyl-5-methyl-1H-indol-3-yl)(phenyl)methanone
_symmetry_cell_setting           orthorhombic
_symmetry_space_group_name_H-M   'P b c a'
_symmetry_Int_Tables_number      61
_space_group_name_Hall           '-P 2ac 2ab'
loop_
_symmetry_equiv_pos_site_id
_symmetry_equiv_pos_as_xyz
1 x,y,z
2 1/2+x,1/2-y,-z
3 -x,1/2+y,1/2-z
4 1/2-x,-y,1/2+z
5 -x,-y,-z
6 1/2-x,1/2+y,z
7 x,1/2-y,1/2+z
8 1/2+x,y,1/2-z
_cell_length_a                   8.6368(2)
_cell_length_b                   12.3637(3)
_cell_length_c                   27.5206(7)
_cell_angle_alpha                90
_cell_angle_beta                 90
_cell_angle_gamma                90
_cell_volume                     2938.73
_exptl_crystal_colour            colorless
_exptl_crystal_description       Block
_chemical_melting_point          '470-471 K'
_cell_formula_units_Z            8
loop_
_atom_site_label
_atom_site_type_symbol
_atom_site_fract_x
_atom_site_fract_y
_atom_site_fract_z
C1 C 0.92542(17) 0.66637(12) 0.48537(5)
H1 H 0.9942 0.6722 0.4595
C2 C 0.82620(16) 0.57645(11) 0.48732(5)
C3 C 0.72730(15) 0.56479(10) 0.52654(5)
H2 H 0.6629 0.5047 0.5286
C4 C 0.72440(14) 0.64367(10) 0.56305(4)
C5 C 0.63121(14) 0.66147(10) 0.60609(4)
C6 C 0.51649(14) 0.58755(10) 0.62500(4)
C7 C 0.38109(14) 0.62963(10) 0.65333(5)
C8 C 0.29655(17) 0.71745(12) 0.63635(5)
H3 H 0.3286 0.7539 0.6085
C9 C 0.16473(18) 0.75082(13) 0.66076(6)
H4 H 0.1067 0.8084 0.6488
C10 C 0.11934(18) 0.69868(13) 0.70278(6)
H5 H 0.0309 0.7213 0.7192
C11 C 0.8278(2) 0.49527(14) 0.44656(6)
H6 H 0.7742 0.4310 0.4566
H7 H 0.9329 0.4776 0.4385
H8 H 0.7772 0.5255 0.4186
C12 C 0.92472(17) 0.74639(12) 0.52035(5)
H9 H 0.9904 0.8058 0.5184
C13 C 0.82152(15) 0.73412(10) 0.55858(5)
C14 C 0.67801(15) 0.76062(10) 0.62569(5)
C15 C 0.63035(18) 0.81546(12) 0.67075(5)
H10 H 0.5522 0.7769 0.6899
C16 C 0.6203(2) 0.93688(15) 0.67327(8)
H11 H 0.6496 0.9776 0.6446
H12 H 0.5361 0.9681 0.6919
C17 C 0.7435(2) 0.88093(13) 0.70012(6)
H13 H 0.7350 0.8778 0.7352
H14 H 0.8485 0.8873 0.6879
C18 C 0.33347(16) 0.57705(11) 0.69528(5)
H15 H 0.3882 0.5173 0.7065
C19 C 0.20477(19) 0.61327(13) 0.72045(6)
H16 H 0.1759 0.5799 0.7493
N1 N 0.79128(13) 0.80259(9) 0.59725(4)
H17 H 0.8377 0.8630 0.6025
O1 O 0.52294(11) 0.48915(7) 0.61698(4)
loop_
_geom_bond_atom_site_label_1
_geom_bond_atom_site_label_2
_geom_bond_site_symmetry_1
_geom_bond_site_symmetry_2
C1 H1 1_555 1_555
C2 C1 1_555 1_555
C3 C2 1_555 1_555
H2 C3 1_555 1_555
C4 C3 1_555 1_555
C5 C4 1_555 1_555
C6 C5 1_555 1_555
C7 C6 1_555 1_555
C8 C7 1_555 1_555
H3 C8 1_555 1_555
C9 C8 1_555 1_555
H4 C9 1_555 1_555
C10 C9 1_555 1_555
H5 C10 1_555 1_555
C11 C2 1_555 1_555
H6 C11 1_555 1_555
H7 C11 1_555 1_555
H8 C11 1_555 1_555
C12 C1 1_555 1_555
H9 C12 1_555 1_555
C13 C4 1_555 1_555
C14 C5 1_555 1_555
C15 C14 1_555 1_555
H10 C15 1_555 1_555
C16 C15 1_555 1_555
H11 C16 1_555 1_555
H12 C16 1_555 1_555
C17 C15 1_555 1_555
H13 C17 1_555 1_555
H14 C17 1_555 1_555
C18 C7 1_555 1_555
H15 C18 1_555 1_555
C19 C10 1_555 1_555
H16 C19 1_555 1_555
N1 C13 1_555 1_555
H17 N1 1_555 1_555
O1 C6 1_555 1_555
C12 C13 1_555 1_555
C14 N1 1_555 1_555
C16 C17 1_555 1_555
C18 C19 1_555 1_555

#END
