
#######################################################################
#
#                 Cambridge Crystallographic Data Centre
#                                CCDC 
#
#######################################################################
#
# If this CIF has been generated from an entry in the Cambridge 
# Structural Database, then it will include bibliographic, chemical, 
# crystal, experimental, refinement or atomic coordinate data resulting 
# from the CCDC's data processing and validation procedures.
#
#######################################################################

data_OXASUC
_chemical_formula_moiety         'C23 H23 N1 O5'
_chemical_name_systematic        
5-Benzylidene-1'-ethyl-4',5',6'-trimethoxy-5H-spiro[furan-2,3'-indol]-2'(1'H)-one
_symmetry_cell_setting           monoclinic
_symmetry_space_group_name_H-M   'P 21/n'
_symmetry_Int_Tables_number      14
_space_group_name_Hall           '-P 2yn'
loop_
_symmetry_equiv_pos_site_id
_symmetry_equiv_pos_as_xyz
1 x,y,z
2 1/2-x,1/2+y,1/2-z
3 -x,-y,-z
4 1/2+x,1/2-y,1/2+z
_cell_length_a                   18.084(4)
_cell_length_b                   10.695(2)
_cell_length_c                   22.508(5)
_cell_angle_alpha                90
_cell_angle_beta                 109.80(3)
_cell_angle_gamma                90
_cell_volume                     4095.88
_exptl_crystal_colour            colorless
_exptl_crystal_description       platelet
_cell_formula_units_Z            8
loop_
_atom_site_label
_atom_site_type_symbol
_atom_site_fract_x
_atom_site_fract_y
_atom_site_fract_z
O1 O 0.15977(15) 0.1857(2) 0.10367(12)
O2 O 0.13230(17) 0.2248(3) -0.14630(13)
O3 O 0.0394(2) 0.0290(3) -0.18670(13)
N1 N 0.0966(2) -0.0920(3) 0.03548(16)
C1 C 0.1606(2) 0.1621(3) -0.03839(18)
C2 C 0.1582(2) 0.4283(4) 0.17200(18)
C3 C 0.1002(2) -0.0225(4) -0.01671(18)
O4 O 0.21030(16) 0.2628(3) -0.01742(13)
C4 C 0.1231(2) 0.1411(4) -0.10265(18)
C5 C 0.1827(2) 0.0767(4) 0.07506(18)
O5 O 0.1494(2) -0.0770(3) 0.14366(15)
C6 C 0.1492(2) 0.0789(3) 0.00464(17)
C7 C 0.1418(3) -0.0396(4) 0.0910(2)
C8 C 0.2274(2) 0.2427(4) 0.14455(18)
C9 C 0.0609(2) -0.0451(4) -0.08026(19)
H1 H 0.0278 -0.1137 -0.0937
C10 C 0.0731(2) 0.0389(4) -0.12304(18)
C11 C 0.2703(3) 0.0751(4) 0.10475(19)
H2 H 0.3033 0.0160 0.0966
C12 C 0.2939(3) 0.1703(5) 0.1442(2)
H3 H 0.3459 0.1876 0.1681
C13 C 0.1735(3) 0.5475(4) 0.1989(2)
H4 H 0.2252 0.5701 0.2212
C14 C 0.0380(3) 0.5980(5) 0.1623(2)
H5 H -0.0025 0.6544 0.1584
C15 C 0.0508(3) -0.2058(4) 0.0311(2)
H6 H 0.0017 -0.1983 -0.0039
H7 H 0.0384 -0.2157 0.0695
C16 C 0.2251(3) 0.3476(4) 0.17586(19)
H8 H 0.2731 0.3733 0.2044
C17 C 0.1145(4) 0.6321(4) 0.1934(2)
H9 H 0.1262 0.7118 0.2106
C18 C 0.0813(3) 0.3972(4) 0.1411(2)
H10 H 0.0692 0.3186 0.1227
C19 C -0.0194(3) -0.0637(5) -0.2117(2)
H11 H -0.0378 -0.0599 -0.2569
H12 H -0.0625 -0.0490 -0.1968
H13 H 0.0024 -0.1450 -0.1981
C20 C 0.0942(3) -0.3199(4) 0.0215(3)
H14 H 0.0622 -0.3927 0.0188
H15 H 0.1424 -0.3286 0.0564
H16 H 0.1057 -0.3111 -0.0169
C21 C 0.0213(3) 0.4805(5) 0.1369(2)
H17 H -0.0307 0.4568 0.1167
C22 C 0.1724(3) 0.3809(4) -0.0255(3)
H18 H 0.2110 0.4454 -0.0096
H19 H 0.1361 0.3823 -0.0027
H20 H 0.1445 0.3950 -0.0695
C23 C 0.1997(3) 0.2075(7) -0.1622(3)
H21 H 0.2014 0.2694 -0.1925
H22 H 0.1988 0.1257 -0.1799
H23 H 0.2454 0.2156 -0.1250
O6 O 0.76264(17) 0.3008(3) 0.15384(13)
O7 O 0.57336(15) 0.3095(3) -0.09710(12)
O8 O 0.69249(19) 0.4921(3) 0.18877(13)
O9 O 0.73441(17) 0.2525(3) 0.02570(14)
O10 O 0.5288(2) 0.5692(3) -0.14390(15)
C24 C 0.6205(2) 0.4197(4) -0.07191(18)
N2 N 0.56374(19) 0.5907(3) -0.03620(16)
C25 C 0.6122(2) 0.5267(3) 0.01753(18)
C26 C 0.6973(2) 0.3493(3) 0.04483(18)
C27 C 0.6469(2) 0.4252(3) -0.00140(17)
C28 C 0.5081(2) 0.0677(4) -0.16756(18)
C29 C 0.6028(2) 0.2498(4) -0.13899(18)
C30 C 0.6751(2) 0.4754(4) 0.12538(18)
C31 C 0.6240(2) 0.5535(4) 0.07998(19)
H24 H 0.5991 0.6207 0.0914
C32 C 0.4564(3) 0.0997(4) -0.1363(2)
H25 H 0.4632 0.1751 -0.1145
C33 C 0.7124(2) 0.3757(4) 0.10814(18)
C34 C 0.5732(2) 0.1442(4) -0.16977(19)
H26 H 0.5984 0.1153 -0.1969
C35 C 0.5642(3) 0.5356(4) -0.0899(2)
C36 C 0.6808(3) 0.4187(5) -0.1032(2)
H27 H 0.7206 0.4776 -0.0971
C37 C 0.6689(3) 0.3205(5) -0.1413(2)
H28 H 0.6992 0.3005 -0.1661
C38 C 0.5208(3) 0.7066(4) -0.0351(2)
H29 H 0.4991 0.7024 -0.0012
H30 H 0.4775 0.7150 -0.0746
C39 C 0.3958(3) 0.0225(5) -0.1368(2)
H31 H 0.3613 0.0467 -0.1163
C40 C 0.4963(3) -0.0472(4) -0.1987(2)
H32 H 0.5296 -0.0716 -0.2203
C41 C 0.6525(3) 0.5860(5) 0.2101(2)
H33 H 0.6707 0.5865 0.2554
H34 H 0.5970 0.5694 0.1943
H35 H 0.6625 0.6660 0.1950
C42 C 0.3856(3) -0.0917(5) -0.1678(2)
H36 H 0.3447 -0.1445 -0.1679
C43 C 0.4354(3) -0.1257(5) -0.1979(2)
H37 H 0.4290 -0.2026 -0.2183
C44 C 0.5736(3) 0.8192(4) -0.0257(3)
H38 H 0.5439 0.8934 -0.0252
H39 H 0.5944 0.8242 -0.0595
H40 H 0.6160 0.8117 0.0138
C45 C 0.7108(4) 0.1324(4) 0.0367(3)
H41 H 0.7394 0.0711 0.0220
H42 H 0.6556 0.1226 0.0146
H43 H 0.7215 0.1211 0.0812
C46 C 0.8407(3) 0.3493(6) 0.1784(3)
H44 H 0.8730 0.2934 0.2099
H45 H 0.8398 0.4299 0.1969
H46 H 0.8619 0.3573 0.1447
loop_
_geom_bond_atom_site_label_1
_geom_bond_atom_site_label_2
_geom_bond_site_symmetry_1
_geom_bond_site_symmetry_2
O1 C5 1_555 1_555
O2 C4 1_555 1_555
O3 C10 1_555 1_555
N1 C3 1_555 1_555
C1 O4 1_555 1_555
C2 C13 1_555 1_555
C3 C6 1_555 1_555
O4 C22 1_555 1_555
C4 C1 1_555 1_555
C5 C6 1_555 1_555
O5 C7 1_555 1_555
C6 C1 1_555 1_555
C7 N1 1_555 1_555
C8 O1 1_555 1_555
C9 C3 1_555 1_555
H1 C9 1_555 1_555
C10 C4 1_555 1_555
C11 C5 1_555 1_555
H2 C11 1_555 1_555
C12 C8 1_555 1_555
H3 C12 1_555 1_555
C13 H4 1_555 1_555
C14 H5 1_555 1_555
C15 N1 1_555 1_555
H6 C15 1_555 1_555
H7 C15 1_555 1_555
C16 C2 1_555 1_555
H8 C16 1_555 1_555
C17 C13 1_555 1_555
H9 C17 1_555 1_555
C18 C2 1_555 1_555
H10 C18 1_555 1_555
C19 O3 1_555 1_555
H11 C19 1_555 1_555
H12 C19 1_555 1_555
H13 C19 1_555 1_555
C20 C15 1_555 1_555
H14 C20 1_555 1_555
H15 C20 1_555 1_555
H16 C20 1_555 1_555
C21 C14 1_555 1_555
H17 C21 1_555 1_555
C22 H18 1_555 1_555
H19 C22 1_555 1_555
H20 C22 1_555 1_555
C23 O2 1_555 1_555
H21 C23 1_555 1_555
H22 C23 1_555 1_555
H23 C23 1_555 1_555
O6 C33 1_555 1_555
O7 C24 1_555 1_555
O8 C30 1_555 1_555
O9 C26 1_555 1_555
O10 C35 1_555 1_555
C24 C27 1_555 1_555
N2 C25 1_555 1_555
C25 C27 1_555 1_555
C26 C27 1_555 1_555
C28 C32 1_555 1_555
C29 O7 1_555 1_555
C30 C31 1_555 1_555
C31 C25 1_555 1_555
H24 C31 1_555 1_555
C32 H25 1_555 1_555
C33 C26 1_555 1_555
C34 C28 1_555 1_555
H26 C34 1_555 1_555
C35 C24 1_555 1_555
C36 C24 1_555 1_555
H27 C36 1_555 1_555
C37 C29 1_555 1_555
H28 C37 1_555 1_555
C38 N2 1_555 1_555
H29 C38 1_555 1_555
H30 C38 1_555 1_555
C39 C32 1_555 1_555
H31 C39 1_555 1_555
C40 C28 1_555 1_555
H32 C40 1_555 1_555
C41 O8 1_555 1_555
H33 C41 1_555 1_555
H34 C41 1_555 1_555
H35 C41 1_555 1_555
C42 C39 1_555 1_555
H36 C42 1_555 1_555
C43 C40 1_555 1_555
H37 C43 1_555 1_555
C44 C38 1_555 1_555
H38 C44 1_555 1_555
H39 C44 1_555 1_555
H40 C44 1_555 1_555
C45 O9 1_555 1_555
H41 C45 1_555 1_555
H42 C45 1_555 1_555
H43 C45 1_555 1_555
C46 O6 1_555 1_555
H44 C46 1_555 1_555
H45 C46 1_555 1_555
H46 C46 1_555 1_555
C5 C7 1_555 1_555
C8 C16 1_555 1_555
C9 C10 1_555 1_555
C11 C12 1_555 1_555
C14 C17 1_555 1_555
C18 C21 1_555 1_555
N2 C35 1_555 1_555
C29 C34 1_555 1_555
C30 C33 1_555 1_555
C36 C37 1_555 1_555
C42 C43 1_555 1_555

#END
