
#######################################################################
#
#                 Cambridge Crystallographic Data Centre
#                                CCDC 
#
#######################################################################
#
# If this CIF has been generated from an entry in the Cambridge 
# Structural Database, then it will include bibliographic, chemical, 
# crystal, experimental, refinement or atomic coordinate data resulting 
# from the CCDC's data processing and validation procedures.
#
#######################################################################

data_OXATEN
_chemical_formula_moiety         'C26 H23 N1 O2'
_chemical_name_systematic        
1'-Ethyl-4',6'-dimethyl-5-(1-naphthylmethylene)-5H-spiro[furan-2,3'-indol]-2'(1'H)-one
_symmetry_cell_setting           monoclinic
_symmetry_space_group_name_H-M   'P 21/c'
_symmetry_Int_Tables_number      14
_space_group_name_Hall           '-P 2ybc'
loop_
_symmetry_equiv_pos_site_id
_symmetry_equiv_pos_as_xyz
1 x,y,z
2 -x,1/2+y,1/2-z
3 -x,-y,-z
4 x,1/2-y,1/2+z
_cell_length_a                   22.761(5)
_cell_length_b                   9.5339(19)
_cell_length_c                   20.667(4)
_cell_angle_alpha                90
_cell_angle_beta                 110.14(3)
_cell_angle_gamma                90
_cell_volume                     4210.54
_exptl_crystal_colour            colorless
_exptl_crystal_description       platelet
_cell_formula_units_Z            8
loop_
_atom_site_label
_atom_site_type_symbol
_atom_site_fract_x
_atom_site_fract_y
_atom_site_fract_z
O1 O 0.15324(12) 0.6732(2) 0.38250(15)
O2 O 0.17030(14) 0.6181(3) 0.52913(16)
N1 N 0.14463(17) 0.8518(3) 0.5239(2)
C1 C 0.1313(3) 0.3533(5) 0.2169(2)
C2 C 0.1867(3) 0.3025(5) 0.2099(3)
H1 H 0.2246 0.3411 0.2374
C3 C 0.1873(4) 0.1987(6) 0.1645(3)
H2 H 0.2248 0.1677 0.1610
C4 C 0.1307(5) 0.1402(7) 0.1235(4)
H3 H 0.1308 0.0678 0.0934
C5 C 0.0752(4) 0.1866(7) 0.1265(3)
H4 H 0.0380 0.1467 0.0980
C6 C 0.0735(3) 0.2979(5) 0.1736(3)
C7 C 0.0179(3) 0.3491(7) 0.1767(3)
H5 H -0.0198 0.3103 0.1487
C8 C 0.0174(3) 0.4559(6) 0.2203(3)
H6 H -0.0204 0.4925 0.2205
C9 C 0.0740(2) 0.5106(5) 0.2650(3)
H7 H 0.0731 0.5826 0.2949
C10 C 0.1306(2) 0.4610(4) 0.2657(2)
C11 C 0.1895(2) 0.5100(4) 0.3164(2)
H8 H 0.2254 0.4707 0.3122
C12 C 0.1997(2) 0.6027(4) 0.3678(2)
C13 C 0.2596(2) 0.6504(4) 0.4144(3)
H9 H 0.2983 0.6158 0.4163
C14 C 0.2506(2) 0.7500(4) 0.4536(2)
H10 H 0.2822 0.8006 0.4859
C15 C 0.1818(2) 0.7703(4) 0.4385(2)
C16 C 0.1646(2) 0.7329(4) 0.5015(2)
C17 C 0.1268(3) 0.8585(5) 0.5851(3)
H11 H 0.1373 0.9502 0.6062
H12 H 0.1503 0.7890 0.6182
C18 C 0.0593(3) 0.8329(7) 0.5682(4)
H13 H 0.0491 0.8379 0.6095
H14 H 0.0490 0.7415 0.5480
H15 H 0.0360 0.9026 0.5361
C19 C 0.13773(19) 0.9611(4) 0.4751(2)
C20 C 0.15752(19) 0.9174(4) 0.4225(2)
C21 C 0.1534(2) 1.0048(4) 0.3684(3)
C22 C 0.1283(2) 1.1392(4) 0.3702(3)
H16 H 0.1241 1.2001 0.3337
C23 C 0.1097(2) 1.1847(4) 0.4237(3)
C24 C 0.1145(2) 1.0938(4) 0.4768(2)
H17 H 0.1023 1.1215 0.5134
C25 C 0.1744(3) 0.9598(5) 0.3099(3)
H18 H 0.1897 0.8653 0.3175
H19 H 0.2071 1.0209 0.3076
H20 H 0.1397 0.9647 0.2673
C26 C 0.0833(2) 1.3307(4) 0.4213(3)
H21 H 0.0723 1.3463 0.4616
H22 H 0.0467 1.3403 0.3808
H23 H 0.1141 1.3983 0.4199
O3 O 0.37346(12) 0.1710(2) 0.04807(13)
O4 O 0.36618(16) 0.1065(3) -0.09365(15)
N2 N 0.39804(17) 0.3358(3) -0.08874(19)
C27 C 0.4138(2) -0.2161(4) 0.2539(2)
C28 C 0.4023(3) -0.3187(4) 0.2977(2)
H24 H 0.4356 -0.3565 0.3335
C29 C 0.3437(3) -0.3620(5) 0.2881(3)
H25 H 0.3369 -0.4308 0.3166
C30 C 0.2930(3) -0.3044(5) 0.2356(3)
H26 H 0.2526 -0.3337 0.2303
C31 C 0.3017(2) -0.2069(5) 0.1925(3)
H27 H 0.2674 -0.1706 0.1574
C32 C 0.3634(2) -0.1588(4) 0.2001(2)
C33 C 0.4747(2) -0.1704(5) 0.2631(3)
H28 H 0.5083 -0.2079 0.2987
C34 C 0.4854(2) -0.0726(4) 0.2211(3)
H29 H 0.5260 -0.0423 0.2285
C35 C 0.4354(2) -0.0165(4) 0.1662(2)
H30 H 0.4436 0.0480 0.1367
C36 C 0.3745(2) -0.0556(4) 0.1555(2)
C37 C 0.3229(2) 0.0074(4) 0.1016(2)
H31 H 0.2837 -0.0274 0.0982
C38 C 0.3214(2) 0.1067(4) 0.0559(2)
C39 C 0.2663(2) 0.1671(4) 0.0057(2)
H32 H 0.2253 0.1404 -0.0009
C40 C 0.2827(2) 0.2648(4) -0.0289(2)
H33 H 0.2551 0.3228 -0.0617
C41 C 0.35258(19) 0.2697(3) -0.0080(2)
C42 C 0.3724(2) 0.2238(4) -0.0681(2)
C43 C 0.4173(3) 0.3325(5) -0.1491(3)
H34 H 0.4414 0.2481 -0.1480
H35 H 0.4439 0.4127 -0.1480
C44 C 0.3633(3) 0.3353(7) -0.2128(3)
H36 H 0.3773 0.3324 -0.2516
H37 H 0.3398 0.4198 -0.2145
H38 H 0.3371 0.2555 -0.2142
C45 C 0.40336(19) 0.4504(4) -0.0439(2)
C46 C 0.38057(18) 0.4151(4) 0.0078(2)
C47 C 0.38268(19) 0.5076(4) 0.0592(2)
C48 C 0.4094(2) 0.6401(4) 0.0561(2)
H39 H 0.4133 0.7042 0.0912
C49 C 0.4300(2) 0.6781(4) 0.0033(3)
C50 C 0.4278(2) 0.5824(4) -0.0477(2)
H40 H 0.4421 0.6055 -0.0834
C51 C 0.3579(2) 0.4716(4) 0.1161(2)
H41 H 0.3420 0.3775 0.1098
H42 H 0.3249 0.5355 0.1148
H43 H 0.3911 0.4791 0.1598
C52 C 0.4557(2) 0.8243(4) 0.0014(3)
H44 H 0.4680 0.8332 -0.0384
H45 H 0.4913 0.8396 0.0423
H46 H 0.4240 0.8924 -0.0010
loop_
_geom_bond_atom_site_label_1
_geom_bond_atom_site_label_2
_geom_bond_site_symmetry_1
_geom_bond_site_symmetry_2
O1 C12 1_555 1_555
O2 C16 1_555 1_555
N1 C16 1_555 1_555
C1 C2 1_555 1_555
C2 H1 1_555 1_555
C3 C2 1_555 1_555
H2 C3 1_555 1_555
C4 C3 1_555 1_555
H3 C4 1_555 1_555
C5 C4 1_555 1_555
H4 C5 1_555 1_555
C6 C1 1_555 1_555
C7 C6 1_555 1_555
H5 C7 1_555 1_555
C8 C7 1_555 1_555
H6 C8 1_555 1_555
C9 C8 1_555 1_555
H7 C9 1_555 1_555
C10 C1 1_555 1_555
C11 C10 1_555 1_555
H8 C11 1_555 1_555
C12 C11 1_555 1_555
C13 C12 1_555 1_555
H9 C13 1_555 1_555
C14 C13 1_555 1_555
H10 C14 1_555 1_555
C15 O1 1_555 1_555
C16 C15 1_555 1_555
C17 N1 1_555 1_555
H11 C17 1_555 1_555
H12 C17 1_555 1_555
C18 C17 1_555 1_555
H13 C18 1_555 1_555
H14 C18 1_555 1_555
H15 C18 1_555 1_555
C19 N1 1_555 1_555
C20 C15 1_555 1_555
C21 C20 1_555 1_555
C22 C21 1_555 1_555
H16 C22 1_555 1_555
C23 C22 1_555 1_555
C24 C19 1_555 1_555
H17 C24 1_555 1_555
C25 C21 1_555 1_555
H18 C25 1_555 1_555
H19 C25 1_555 1_555
H20 C25 1_555 1_555
C26 C23 1_555 1_555
H21 C26 1_555 1_555
H22 C26 1_555 1_555
H23 C26 1_555 1_555
O3 C38 1_555 1_555
O4 C42 1_555 1_555
N2 C42 1_555 1_555
C27 C28 1_555 1_555
C28 H24 1_555 1_555
C29 C28 1_555 1_555
H25 C29 1_555 1_555
C30 C29 1_555 1_555
H26 C30 1_555 1_555
C31 C30 1_555 1_555
H27 C31 1_555 1_555
C32 C27 1_555 1_555
C33 C27 1_555 1_555
H28 C33 1_555 1_555
C34 C33 1_555 1_555
H29 C34 1_555 1_555
C35 C34 1_555 1_555
H30 C35 1_555 1_555
C36 C32 1_555 1_555
C37 C36 1_555 1_555
H31 C37 1_555 1_555
C38 C37 1_555 1_555
C39 C38 1_555 1_555
H32 C39 1_555 1_555
C40 C39 1_555 1_555
H33 C40 1_555 1_555
C41 O3 1_555 1_555
C42 C41 1_555 1_555
C43 N2 1_555 1_555
H34 C43 1_555 1_555
H35 C43 1_555 1_555
C44 C43 1_555 1_555
H36 C44 1_555 1_555
H37 C44 1_555 1_555
H38 C44 1_555 1_555
C45 N2 1_555 1_555
C46 C41 1_555 1_555
C47 C46 1_555 1_555
C48 C47 1_555 1_555
H39 C48 1_555 1_555
C49 C48 1_555 1_555
C50 C45 1_555 1_555
H40 C50 1_555 1_555
C51 C47 1_555 1_555
H41 C51 1_555 1_555
H42 C51 1_555 1_555
H43 C51 1_555 1_555
C52 C49 1_555 1_555
H44 C52 1_555 1_555
H45 C52 1_555 1_555
H46 C52 1_555 1_555
C5 C6 1_555 1_555
C9 C10 1_555 1_555
C14 C15 1_555 1_555
C19 C20 1_555 1_555
C23 C24 1_555 1_555
C31 C32 1_555 1_555
C35 C36 1_555 1_555
C40 C41 1_555 1_555
C45 C46 1_555 1_555
C49 C50 1_555 1_555

#END
