
#######################################################################
#
#                 Cambridge Crystallographic Data Centre
#                                CCDC 
#
#######################################################################
#
# If this CIF has been generated from an entry in the Cambridge 
# Structural Database, then it will include bibliographic, chemical, 
# crystal, experimental, refinement or atomic coordinate data resulting 
# from the CCDC's data processing and validation procedures.
#
#######################################################################

data_OXATIR
_chemical_formula_moiety         'C23 H27 N1 O5'
_chemical_name_systematic        
5-Benzyl-1'-ethyl-4',5',6'-trimethoxy-4,5-dihydro-3H-spiro[furan-2,3'-indol]-2'(1'H)-one
_symmetry_cell_setting           triclinic
_symmetry_space_group_name_H-M   'P -1'
_symmetry_Int_Tables_number      2
_space_group_name_Hall           '-P 1'
loop_
_symmetry_equiv_pos_site_id
_symmetry_equiv_pos_as_xyz
1 x,y,z
2 -x,-y,-z
_cell_length_a                   10.307(2)
_cell_length_b                   10.828(2)
_cell_length_c                   10.833(2)
_cell_angle_alpha                86.93(3)
_cell_angle_beta                 71.57(3)
_cell_angle_gamma                68.52(3)
_cell_volume                     1064.68
_exptl_crystal_colour            colorless
_exptl_crystal_description       block
_cell_formula_units_Z            2
loop_
_atom_site_label
_atom_site_type_symbol
_atom_site_fract_x
_atom_site_fract_y
_atom_site_fract_z
O1 O 0.1588(2) 1.1966(2) 0.23194(19)
O2 O 0.1050(3) 1.1229(3) -0.0046(3)
O3 O 0.2547(2) 0.9731(2) 0.43799(18)
O4 O 0.5303(2) 0.7707(2) 0.40519(19)
O5 O 0.6978(2) 0.6515(2) 0.16931(19)
N1 N 0.3232(3) 0.9575(3) -0.0076(2)
C1 C 0.0025(4) 1.5983(4) 0.2639(4)
H1 H -0.0955 1.6209 0.2694
C2 C 0.0748(7) 1.6839(4) 0.2097(4)
H2 H 0.0265 1.7630 0.1779
C3 C 0.2186(7) 1.6495(5) 0.2040(5)
H3 H 0.2679 1.7066 0.1694
C4 C 0.2891(5) 1.5339(5) 0.2478(4)
H4 H 0.3869 1.5111 0.2428
C5 C 0.2173(4) 1.4499(4) 0.2998(3)
H5 H 0.2676 1.3700 0.3291
C6 C 0.0742(4) 1.4805(3) 0.3096(3)
C7 C -0.0013(5) 1.3867(5) 0.3750(4)
H6 H 0.0367 1.3504 0.4458
H7 H -0.1052 1.4391 0.4139
C8 C 0.0112(4) 1.2768(3) 0.2967(4)
H8 H -0.0312 1.3164 0.2281
C9 C -0.0657(4) 1.1860(4) 0.3599(3)
H9 H -0.1666 1.2205 0.3593
H10 H -0.0659 1.1758 0.4495
C10 C 0.0185(3) 1.0569(4) 0.2815(4)
H11 H -0.0339 1.0431 0.2265
H12 H 0.0349 0.9838 0.3377
C11 C 0.1664(3) 1.0672(3) 0.1974(3)
C12 C 0.1908(4) 1.0561(3) 0.0498(3)
C13 C 0.3793(4) 0.9143(4) -0.1441(3)
H13 H 0.4850 0.8917 -0.1751
H14 H 0.3360 0.9867 -0.1928
C14 C 0.3461(5) 0.7956(5) -0.1691(4)
H15 H 0.3853 0.7697 -0.2608
H16 H 0.2415 0.8181 -0.1403
H17 H 0.3902 0.7231 -0.1223
C15 C 0.3924(3) 0.8992(3) 0.0864(2)
C16 C 0.3029(3) 0.9615(3) 0.2087(2)
C17 C 0.3483(3) 0.9176(3) 0.3165(2)
C18 C 0.4821(3) 0.8137(3) 0.2988(2)
C19 C 0.5701(3) 0.7540(3) 0.1741(3)
C20 C 0.5255(3) 0.7966(3) 0.0655(3)
H18 H 0.5835 0.7571 -0.0177
C21 C 0.2960(4) 1.0553(4) 0.5033(3)
H19 H 0.2230 1.0878 0.5870
H20 H 0.3038 1.1291 0.4524
H21 H 0.3893 1.0047 0.5148
C22 C 0.5193(4) 0.6474(4) 0.4489(3)
H22 H 0.5548 0.6248 0.5222
H23 H 0.5774 0.5789 0.3796
H24 H 0.4184 0.6552 0.4743
C23 C 0.7879(4) 0.5821(4) 0.0460(3)
H25 H 0.8741 0.5131 0.0555
H26 H 0.8165 0.6430 -0.0141
H27 H 0.7338 0.5434 0.0135
loop_
_geom_bond_atom_site_label_1
_geom_bond_atom_site_label_2
_geom_bond_site_symmetry_1
_geom_bond_site_symmetry_2
O1 C8 1_555 1_555
O2 C12 1_555 1_555
O3 C17 1_555 1_555
O4 C18 1_555 1_555
O5 C19 1_555 1_555
N1 C12 1_555 1_555
C1 H1 1_555 1_555
C2 C1 1_555 1_555
H2 C2 1_555 1_555
C3 C2 1_555 1_555
H3 C3 1_555 1_555
C4 C3 1_555 1_555
H4 C4 1_555 1_555
C5 C4 1_555 1_555
H5 C5 1_555 1_555
C6 C1 1_555 1_555
C7 C6 1_555 1_555
H6 C7 1_555 1_555
H7 C7 1_555 1_555
C8 C7 1_555 1_555
H8 C8 1_555 1_555
C9 C8 1_555 1_555
H9 C9 1_555 1_555
H10 C9 1_555 1_555
C10 C9 1_555 1_555
H11 C10 1_555 1_555
H12 C10 1_555 1_555
C11 O1 1_555 1_555
C12 C11 1_555 1_555
C13 N1 1_555 1_555
H13 C13 1_555 1_555
H14 C13 1_555 1_555
C14 C13 1_555 1_555
H15 C14 1_555 1_555
H16 C14 1_555 1_555
H17 C14 1_555 1_555
C15 N1 1_555 1_555
C16 C11 1_555 1_555
C17 C16 1_555 1_555
C18 C17 1_555 1_555
C19 C18 1_555 1_555
C20 C15 1_555 1_555
H18 C20 1_555 1_555
C21 O3 1_555 1_555
H19 C21 1_555 1_555
H20 C21 1_555 1_555
H21 C21 1_555 1_555
C22 O4 1_555 1_555
H22 C22 1_555 1_555
H23 C22 1_555 1_555
H24 C22 1_555 1_555
C23 O5 1_555 1_555
H25 C23 1_555 1_555
H26 C23 1_555 1_555
H27 C23 1_555 1_555
C5 C6 1_555 1_555
C10 C11 1_555 1_555
C15 C16 1_555 1_555
C19 C20 1_555 1_555

#END
