
#######################################################################
#
#                 Cambridge Crystallographic Data Centre
#                                CCDC 
#
#######################################################################
#
# If this CIF has been generated from an entry in the Cambridge 
# Structural Database, then it will include bibliographic, chemical, 
# crystal, experimental, refinement or atomic coordinate data resulting 
# from the CCDC's data processing and validation procedures.
#
#######################################################################

data_OXAVEP
_chemical_formula_moiety         'C18 H12 Br1 F3 O2'
_chemical_name_systematic        
4-(4-Bromophenyl)-6-phenyl-6-(trifluoromethyl)-5,6-dihydro-2H-pyran-2-one
_symmetry_cell_setting           triclinic
_symmetry_space_group_name_H-M   'P 1'
_symmetry_Int_Tables_number      1
_space_group_name_Hall           'P 1'
loop_
_symmetry_equiv_pos_site_id
_symmetry_equiv_pos_as_xyz
1 x,y,z
_cell_length_a                   8.0770(18)
_cell_length_b                   9.974(2)
_cell_length_c                   15.244(3)
_cell_angle_alpha                83.214(6)
_cell_angle_beta                 82.762(6)
_cell_angle_gamma                86.183(6)
_cell_volume                     1208.07
_exptl_crystal_colour            colorless
_exptl_crystal_description       block
_cell_formula_units_Z            3
loop_
_atom_site_label
_atom_site_type_symbol
_atom_site_fract_x
_atom_site_fract_y
_atom_site_fract_z
Br1 Br 0.28070(5) 0.46617(5) -0.18664(3)
F1 F -0.2821(4) 0.4542(4) 0.2948(2)
F2 F -0.1683(4) 0.6088(3) 0.3507(2)
F3 F -0.3017(4) 0.4579(3) 0.4372(2)
O1 O -0.0883(4) 0.2519(3) 0.38919(19)
O2 O -0.1579(4) 0.0561(3) 0.3592(2)
C1 C -0.0358(6) 0.3880(5) 0.3637(3)
C2 C -0.1051(5) 0.1644(4) 0.3303(3)
C3 C -0.0493(6) 0.2041(5) 0.2364(3)
H1 H -0.0682 0.1460 0.1940
C4 C 0.0269(5) 0.3183(4) 0.2077(3)
C5 C 0.0699(6) 0.4041(5) 0.2727(3)
H2 H 0.0587 0.4998 0.2472
H3 H 0.1887 0.3839 0.2816
C6 C 0.0578(6) 0.4249(4) 0.4365(3)
C7 C 0.1828(6) 0.5178(5) 0.4186(3)
H4 H 0.2086 0.5594 0.3595
C8 C 0.2695(7) 0.5503(6) 0.4846(3)
H5 H 0.3543 0.6137 0.4709
C9 C 0.2334(7) 0.4912(6) 0.5700(4)
H6 H 0.2920 0.5143 0.6159
C10 C 0.1127(7) 0.3986(5) 0.5891(4)
H7 H 0.0896 0.3567 0.6483
C11 C 0.0240(6) 0.3651(5) 0.5239(3)
H8 H -0.0602 0.3013 0.5385
C12 C -0.1976(7) 0.4754(5) 0.3617(3)
C13 C 0.0910(5) 0.3554(4) 0.1129(3)
C14 C 0.1789(6) 0.2593(5) 0.0630(3)
H9 H 0.1987 0.1699 0.0902
C15 C 0.2377(6) 0.2929(5) -0.0261(3)
H10 H 0.2998 0.2280 -0.0595
C16 C 0.2045(5) 0.4211(5) -0.0647(3)
C17 C 0.1154(5) 0.5185(4) -0.0176(3)
H11 H 0.0912 0.6062 -0.0461
C18 C 0.0624(5) 0.4855(4) 0.0717(3)
H12 H 0.0056 0.5525 0.1054
Br2 Br 1.47607(6) 1.16045(6) 0.25357(4)
F4 F 0.6833(5) 0.5801(3) 0.6085(3)
F5 F 0.5558(4) 0.7459(4) 0.5369(2)
F6 F 0.4939(5) 0.7003(4) 0.6778(3)
O3 O 0.8140(4) 0.7441(3) 0.7070(2)
O4 O 0.9904(5) 0.7632(4) 0.8031(2)
C19 C 0.7524(6) 0.8042(5) 0.6251(3)
C20 C 0.9595(7) 0.7873(5) 0.7276(3)
C21 C 1.0698(6) 0.8587(5) 0.6547(3)
H13 H 1.1625 0.9019 0.6692
C22 C 1.0448(6) 0.8651(4) 0.5696(3)
C23 C 0.8925(6) 0.7989(5) 0.5489(3)
H14 H 0.9227 0.7036 0.5390
H15 H 0.8540 0.8462 0.4937
C24 C 0.6726(6) 0.9443(5) 0.6373(3)
C25 C 0.6878(6) 1.0507(5) 0.5703(3)
H16 H 0.7503 1.0374 0.5147
C26 C 0.6124(7) 1.1766(5) 0.5840(4)
H17 H 0.6247 1.2494 0.5379
C27 C 0.5203(8) 1.1965(6) 0.6637(4)
H18 H 0.4708 1.2835 0.6730
C28 C 0.4993(9) 1.0922(7) 0.7295(4)
H19 H 0.4316 1.1055 0.7837
C29 C 0.5776(8) 0.9651(6) 0.7171(3)
H20 H 0.5655 0.8929 0.7637
C30 C 0.6202(7) 0.7064(6) 0.6119(4)
C31 C 1.1543(6) 0.9333(4) 0.4957(3)
C32 C 1.2396(7) 1.0443(5) 0.5062(3)
H21 H 1.2320 1.0750 0.5633
C33 C 1.3365(7) 1.1125(5) 0.4351(3)
H22 H 1.3927 1.1901 0.4429
C34 C 1.3492(5) 1.0655(5) 0.3536(3)
C35 C 1.2714(6) 0.9523(5) 0.3405(3)
H23 H 1.2868 0.9185 0.2842
C36 C 1.1701(6) 0.8887(5) 0.4110(3)
H24 H 1.1102 0.8137 0.4019
Br3 Br 0.98618(8) 0.11515(6) 0.80991(5)
F7 F 0.3668(3) 0.9394(3) 0.9420(2)
F8 F 0.6237(3) 0.9869(2) 0.91688(16)
F9 F 0.4774(4) 1.0354(3) 1.03830(19)
O5 O 0.4196(4) 0.7750(3) 1.0928(2)
O6 O 0.3253(4) 0.6299(4) 1.2045(2)
C37 C 0.5598(5) 0.8044(4) 1.0267(3)
C38 C 0.4157(5) 0.6470(5) 1.1352(3)
C39 C 0.5129(6) 0.5393(4) 1.0911(3)
H25 H 0.5204 0.4516 1.1228
C40 C 0.5910(5) 0.5585(4) 1.0088(3)
C41 C 0.5820(6) 0.6993(4) 0.9598(3)
H26 H 0.4868 0.7090 0.9241
H27 H 0.6859 0.7143 0.9187
C42 C 0.7158(5) 0.8190(4) 1.0710(3)
C43 C 0.8721(6) 0.8274(4) 1.0200(3)
H28 H 0.8821 0.8200 0.9580
C44 C 1.0106(6) 0.8463(5) 1.0593(4)
H29 H 1.1163 0.8510 1.0241
C45 C 1.0001(7) 0.8587(5) 1.1485(4)
H30 H 1.0971 0.8718 1.1751
C46 C 0.8454(7) 0.8517(5) 1.1991(4)
H31 H 0.8371 0.8598 1.2610
C47 C 0.7025(6) 0.8332(4) 1.1614(3)
H32 H 0.5968 0.8302 1.1967
C48 C 0.5068(5) 0.9420(4) 0.9809(3)
C49 C 0.6814(6) 0.4499(4) 0.9611(3)
C50 C 0.7330(6) 0.3267(5) 1.0063(4)
H33 H 0.7066 0.3111 1.0690
C51 C 0.8213(6) 0.2278(5) 0.9613(4)
H34 H 0.8560 0.1447 0.9926
C52 C 0.8588(7) 0.2510(5) 0.8703(4)
C53 C 0.8067(7) 0.3678(5) 0.8228(4)
H35 H 0.8298 0.3803 0.7598
C54 C 0.7189(6) 0.4686(5) 0.8689(3)
H36 H 0.6842 0.5510 0.8369
loop_
_geom_bond_atom_site_label_1
_geom_bond_atom_site_label_2
_geom_bond_site_symmetry_1
_geom_bond_site_symmetry_2
Br1 C16 1_555 1_555
F1 C12 1_555 1_555
F2 C12 1_555 1_555
F3 C12 1_555 1_555
O1 C1 1_555 1_555
O2 C2 1_555 1_555
C1 C5 1_555 1_555
C2 O1 1_555 1_555
C3 C2 1_555 1_555
H1 C3 1_555 1_555
C4 C3 1_555 1_555
C5 C4 1_555 1_555
H2 C5 1_555 1_555
H3 C5 1_555 1_555
C6 C1 1_555 1_555
C7 C6 1_555 1_555
H4 C7 1_555 1_555
C8 C7 1_555 1_555
H5 C8 1_555 1_555
C9 C8 1_555 1_555
H6 C9 1_555 1_555
C10 C9 1_555 1_555
H7 C10 1_555 1_555
C11 C6 1_555 1_555
H8 C11 1_555 1_555
C12 C1 1_555 1_555
C13 C4 1_555 1_555
C14 C13 1_555 1_555
H9 C14 1_555 1_555
C15 C14 1_555 1_555
H10 C15 1_555 1_555
C16 C15 1_555 1_555
C17 C16 1_555 1_555
H11 C17 1_555 1_555
C18 C13 1_555 1_555
H12 C18 1_555 1_555
Br2 C34 1_555 1_555
F4 C30 1_555 1_555
F5 C30 1_555 1_555
F6 C30 1_555 1_555
O3 C19 1_555 1_555
O4 C20 1_555 1_555
C19 C23 1_555 1_555
C20 O3 1_555 1_555
C21 C20 1_555 1_555
H13 C21 1_555 1_555
C22 C21 1_555 1_555
C23 C22 1_555 1_555
H14 C23 1_555 1_555
H15 C23 1_555 1_555
C24 C19 1_555 1_555
C25 C24 1_555 1_555
H16 C25 1_555 1_555
C26 C25 1_555 1_555
H17 C26 1_555 1_555
C27 C26 1_555 1_555
H18 C27 1_555 1_555
C28 C27 1_555 1_555
H19 C28 1_555 1_555
C29 C24 1_555 1_555
H20 C29 1_555 1_555
C30 C19 1_555 1_555
C31 C22 1_555 1_555
C32 C31 1_555 1_555
H21 C32 1_555 1_555
C33 C32 1_555 1_555
H22 C33 1_555 1_555
C34 C33 1_555 1_555
C35 C34 1_555 1_555
H23 C35 1_555 1_555
C36 C31 1_555 1_555
H24 C36 1_555 1_555
Br3 C52 1_555 1_555
F7 C48 1_555 1_555
F8 C48 1_555 1_555
F9 C48 1_555 1_555
O5 C37 1_555 1_555
O6 C38 1_555 1_555
C37 C41 1_555 1_555
C38 O5 1_555 1_555
C39 C38 1_555 1_555
H25 C39 1_555 1_555
C40 C39 1_555 1_555
C41 C40 1_555 1_555
H26 C41 1_555 1_555
H27 C41 1_555 1_555
C42 C37 1_555 1_555
C43 C42 1_555 1_555
H28 C43 1_555 1_555
C44 C43 1_555 1_555
H29 C44 1_555 1_555
C45 C44 1_555 1_555
H30 C45 1_555 1_555
C46 C45 1_555 1_555
H31 C46 1_555 1_555
C47 C42 1_555 1_555
H32 C47 1_555 1_555
C48 C37 1_555 1_555
C49 C40 1_555 1_555
C50 C49 1_555 1_555
H33 C50 1_555 1_555
C51 C50 1_555 1_555
H34 C51 1_555 1_555
C52 C51 1_555 1_555
C53 C52 1_555 1_555
H35 C53 1_555 1_555
C54 C49 1_555 1_555
H36 C54 1_555 1_555
C10 C11 1_555 1_555
C17 C18 1_555 1_555
C28 C29 1_555 1_555
C35 C36 1_555 1_555
C46 C47 1_555 1_555
C53 C54 1_555 1_555

#END
