
#######################################################################
#
#                 Cambridge Crystallographic Data Centre
#                                CCDC 
#
#######################################################################
#
# If this CIF has been generated from an entry in the Cambridge 
# Structural Database, then it will include bibliographic, chemical, 
# crystal, experimental, refinement or atomic coordinate data resulting 
# from the CCDC's data processing and validation procedures.
#
#######################################################################

data_OXAYES
_chemical_formula_moiety         'C8 N16 O6'
_chemical_name_systematic        
3,4:7,8:11,12:15,16-Tetrafurazano-1,2,5,6,9,10,13,14-octa-azacyclohexadeca-1,3,5,7,9,11,13,15-octaene-1,10-dioxide
_symmetry_cell_setting           triclinic
_symmetry_space_group_name_H-M   'P -1'
_symmetry_Int_Tables_number      2
_space_group_name_Hall           '-P 1'
loop_
_symmetry_equiv_pos_site_id
_symmetry_equiv_pos_as_xyz
1 x,y,z
2 -x,-y,-z
_cell_length_a                   5.7364(2)
_cell_length_b                   11.5088(5)
_cell_length_c                   12.0378(5)
_cell_angle_alpha                96.1030(10)
_cell_angle_beta                 98.3090(10)
_cell_angle_gamma                101.1660(10)
_cell_volume                     764.078
_exptl_crystal_colour            orange
_exptl_crystal_description       prism
_cell_formula_units_Z            2
_exptl_crystal_preparation       explosive
loop_
_atom_site_label
_atom_site_type_symbol
_atom_site_fract_x
_atom_site_fract_y
_atom_site_fract_z
N1 N 0.11992(16) 0.84464(8) 0.93536(7)
O1 O -0.01555(15) 0.78308(8) 0.98856(8)
N2 N 0.34978(16) 0.86890(8) 0.95028(7)
O2 O 0.67418(14) 0.79743(7) 1.19274(6)
N3 N 0.59659(17) 0.87904(9) 1.12665(8)
C1 C 0.45199(18) 0.81400(9) 1.03903(8)
N4 N 0.57675(17) 0.68214(9) 1.14409(8)
C2 C 0.44140(18) 0.69016(9) 1.04944(8)
N5 N 0.32198(16) 0.58456(8) 0.97751(7)
N6 N 0.23283(16) 0.60833(8) 0.88305(7)
O3 O -0.12299(15) 0.33644(7) 0.74160(7)
N7 N -0.02371(17) 0.41202(8) 0.84040(8)
C3 C 0.10804(18) 0.50437(9) 0.80926(9)
C4 C 0.08837(19) 0.48762(9) 0.68873(9)
N8 N -0.05339(18) 0.38426(9) 0.64792(8)
N9 N 0.17392(17) 0.56472(8) 0.61375(8)
N10 N 0.39631(17) 0.61461(8) 0.63981(8)
O4 O 0.55103(16) 0.60226(10) 0.71925(8)
O5 O 0.64540(18) 0.76425(9) 0.43183(8)
N11 N 0.6220(2) 0.67150(10) 0.49691(9)
C5 C 0.4724(2) 0.69643(10) 0.56206(9)
N12 N 0.5063(2) 0.84404(10) 0.45785(8)
C6 C 0.3985(2) 0.80381(10) 0.53918(9)
N13 N 0.24563(18) 0.86877(9) 0.58740(8)
N14 N 0.20847(17) 0.83627(8) 0.68084(8)
O6 O -0.22085(16) 0.99501(9) 0.75945(8)
N15 N -0.09481(19) 0.95691(10) 0.67885(9)
C7 C 0.05029(19) 0.89722(9) 0.73086(9)
N16 N -0.15527(17) 0.95757(9) 0.86223(9)
C8 C 0.00879(18) 0.89785(9) 0.84430(9)
loop_
_geom_bond_atom_site_label_1
_geom_bond_atom_site_label_2
_geom_bond_site_symmetry_1
_geom_bond_site_symmetry_2
N1 O1 1_555 1_555
N2 N1 1_555 1_555
O2 N3 1_555 1_555
N3 C1 1_555 1_555
C1 N2 1_555 1_555
N4 O2 1_555 1_555
C2 C1 1_555 1_555
N5 C2 1_555 1_555
N6 N5 1_555 1_555
O3 N7 1_555 1_555
N7 C3 1_555 1_555
C3 N6 1_555 1_555
C4 C3 1_555 1_555
N8 O3 1_555 1_555
N9 C4 1_555 1_555
N10 N9 1_555 1_555
O4 N10 1_555 1_555
O5 N11 1_555 1_555
N11 C5 1_555 1_555
C5 N10 1_555 1_555
N12 O5 1_555 1_555
C6 C5 1_555 1_555
N13 C6 1_555 1_555
N14 N13 1_555 1_555
O6 N15 1_555 1_555
N15 C7 1_555 1_555
C7 N14 1_555 1_555
N16 O6 1_555 1_555
C8 N1 1_555 1_555
N4 C2 1_555 1_555
C4 N8 1_555 1_555
N12 C6 1_555 1_555
C7 C8 1_555 1_555
N16 C8 1_555 1_555

#END
