
#######################################################################
#
#                 Cambridge Crystallographic Data Centre
#                                CCDC 
#
#######################################################################
#
# If this CIF has been generated from an entry in the Cambridge 
# Structural Database, then it will include bibliographic, chemical, 
# crystal, experimental, refinement or atomic coordinate data resulting 
# from the CCDC's data processing and validation procedures.
#
#######################################################################

data_OXEDUS
_chemical_formula_moiety         'C15 H14 O1 S1'
_chemical_name_systematic        
1-(4-((4-methylphenyl)sulfanyl)phenyl)ethanone
_symmetry_cell_setting           monoclinic
_symmetry_space_group_name_H-M   'P 21/n'
_symmetry_Int_Tables_number      14
_space_group_name_Hall           '-P 2yn'
loop_
_symmetry_equiv_pos_site_id
_symmetry_equiv_pos_as_xyz
1 x,y,z
2 1/2-x,1/2+y,1/2-z
3 -x,-y,-z
4 1/2+x,1/2-y,1/2+z
_cell_length_a                   5.7958(3)
_cell_length_b                   25.4544(12)
_cell_length_c                   8.3123(4)
_cell_angle_alpha                90
_cell_angle_beta                 93.626(4)
_cell_angle_gamma                90
_cell_volume                     1223.85
_exptl_crystal_colour            colorless
_exptl_crystal_description       block
_cell_formula_units_Z            4
loop_
_atom_site_label
_atom_site_type_symbol
_atom_site_fract_x
_atom_site_fract_y
_atom_site_fract_z
S1 S -0.02610(7) 0.229207(17) 0.60236(6)
O1 O 0.30015(19) -0.00821(4) 0.35762(14)
C1 C 0.1366(3) 0.28500(6) 0.54876(19)
C2 C 0.3511(3) 0.29565(7) 0.6278(2)
H1 H 0.4155 0.2720 0.7069
C3 C 0.4695(3) 0.34068(7) 0.59051(19)
H2 H 0.6169 0.3473 0.6432
C4 C 0.3776(3) 0.37660(6) 0.47742(19)
C5 C 0.1623(3) 0.36578(6) 0.40058(19)
H3 H 0.0963 0.3899 0.3234
C6 C 0.0426(3) 0.32022(6) 0.43516(19)
H4 H -0.1034 0.3132 0.3811
C7 C 0.5102(3) 0.42584(7) 0.4436(2)
H5 H 0.4226 0.4467 0.3617
H6 H 0.6605 0.4164 0.4042
H7 H 0.5337 0.4464 0.5429
C8 C 0.1265(3) 0.17482(6) 0.52958(18)
C9 C 0.0234(3) 0.12611(7) 0.55285(19)
H8 H -0.1144 0.1241 0.6087
C10 C 0.1194(3) 0.08090(6) 0.49560(19)
H9 H 0.0484 0.0480 0.5138
C11 C 0.3204(3) 0.08280(6) 0.41090(18)
C12 C 0.4264(3) 0.13140(6) 0.39178(18)
H10 H 0.5655 0.1332 0.3375
C13 C 0.3323(3) 0.17726(6) 0.45062(19)
H11 H 0.4073 0.2100 0.4373
C14 C 0.4036(3) 0.03304(6) 0.33919(19)
C15 C 0.6099(3) 0.03435(7) 0.2386(2)
H12 H 0.6423 -0.0012 0.2008
H13 H 0.7443 0.0476 0.3038
H14 H 0.5777 0.0575 0.1457
loop_
_geom_bond_atom_site_label_1
_geom_bond_atom_site_label_2
_geom_bond_site_symmetry_1
_geom_bond_site_symmetry_2
S1 C1 1_555 1_555
O1 C14 1_555 1_555
C1 C2 1_555 1_555
C2 H1 1_555 1_555
C3 C2 1_555 1_555
H2 C3 1_555 1_555
C4 C3 1_555 1_555
C5 C4 1_555 1_555
H3 C5 1_555 1_555
C6 C1 1_555 1_555
H4 C6 1_555 1_555
C7 C4 1_555 1_555
H5 C7 1_555 1_555
H6 C7 1_555 1_555
H7 C7 1_555 1_555
C8 S1 1_555 1_555
C9 C8 1_555 1_555
H8 C9 1_555 1_555
C10 C9 1_555 1_555
H9 C10 1_555 1_555
C11 C10 1_555 1_555
C12 C11 1_555 1_555
H10 C12 1_555 1_555
C13 C8 1_555 1_555
H11 C13 1_555 1_555
C14 C11 1_555 1_555
C15 C14 1_555 1_555
H12 C15 1_555 1_555
H13 C15 1_555 1_555
H14 C15 1_555 1_555
C5 C6 1_555 1_555
C12 C13 1_555 1_555

#END
