
#######################################################################
#
#                 Cambridge Crystallographic Data Centre
#                                CCDC 
#
#######################################################################
#
# If this CIF has been generated from an entry in the Cambridge 
# Structural Database, then it will include bibliographic, chemical, 
# crystal, experimental, refinement or atomic coordinate data resulting 
# from the CCDC's data processing and validation procedures.
#
#######################################################################

data_OXEDOM
_chemical_formula_moiety         'C14 H11 N1 S1'
_chemical_name_systematic        4-((4-methylphenyl)sulfanyl)benzonitrile
_symmetry_cell_setting           monoclinic
_symmetry_space_group_name_H-M   'P 21/n'
_symmetry_Int_Tables_number      14
_space_group_name_Hall           '-P 2yn'
loop_
_symmetry_equiv_pos_site_id
_symmetry_equiv_pos_as_xyz
1 x,y,z
2 1/2-x,1/2+y,1/2-z
3 -x,-y,-z
4 1/2+x,1/2-y,1/2+z
_cell_length_a                   5.7042(3)
_cell_length_b                   25.743(2)
_cell_length_c                   7.8069(4)
_cell_angle_alpha                90
_cell_angle_beta                 94.590(5)
_cell_angle_gamma                90
_cell_volume                     1142.71
_exptl_crystal_colour            colorless
_exptl_crystal_description       block
_cell_formula_units_Z            4
loop_
_atom_site_label
_atom_site_type_symbol
_atom_site_fract_x
_atom_site_fract_y
_atom_site_fract_z
S1 S 0.55230(8) 0.726933(19) 0.48229(7)
N1 N -0.1282(3) 0.50942(7) 0.7182(3)
C1 C 0.4036(3) 0.78500(7) 0.5330(2)
C2 C 0.1797(3) 0.79717(7) 0.4581(2)
H1 H 0.0939 0.7724 0.3879
C3 C 0.0836(3) 0.84555(8) 0.4867(3)
H2 H -0.0706 0.8532 0.4382
C4 C 0.2077(3) 0.88335(8) 0.5851(3)
C5 C 0.4305(3) 0.87041(8) 0.6600(3)
H3 H 0.5175 0.8953 0.7286
C6 C 0.5270(3) 0.82166(8) 0.6359(2)
H4 H 0.6775 0.8133 0.6898
C7 C 0.1048(4) 0.93662(8) 0.6058(3)
H5 H 0.2151 0.9579 0.6783
H6 H -0.0439 0.9336 0.6598
H7 H 0.0760 0.9530 0.4927
C8 C 0.3751(3) 0.67544(7) 0.5472(2)
C9 C 0.4527(3) 0.62543(8) 0.5111(3)
H8 H 0.5920 0.6211 0.4537
C10 C 0.3291(3) 0.58233(8) 0.5578(3)
H9 H 0.3842 0.5484 0.5343
C11 C 0.1217(3) 0.58884(8) 0.6403(3)
C12 C 0.0447(3) 0.63866(7) 0.6772(2)
H10 H -0.0949 0.6430 0.7343
C13 C 0.1694(3) 0.68185(7) 0.6313(2)
H11 H 0.1158 0.7157 0.6569
C14 C -0.0153(3) 0.54444(8) 0.6842(3)
loop_
_geom_bond_atom_site_label_1
_geom_bond_atom_site_label_2
_geom_bond_site_symmetry_1
_geom_bond_site_symmetry_2
S1 C1 1_555 1_555
N1 C14 1_555 1_555
C1 C2 1_555 1_555
C2 H1 1_555 1_555
C3 C2 1_555 1_555
H2 C3 1_555 1_555
C4 C3 1_555 1_555
C5 C4 1_555 1_555
H3 C5 1_555 1_555
C6 C1 1_555 1_555
H4 C6 1_555 1_555
C7 C4 1_555 1_555
H5 C7 1_555 1_555
H6 C7 1_555 1_555
H7 C7 1_555 1_555
C8 S1 1_555 1_555
C9 C8 1_555 1_555
H8 C9 1_555 1_555
C10 C9 1_555 1_555
H9 C10 1_555 1_555
C11 C10 1_555 1_555
C12 C11 1_555 1_555
H10 C12 1_555 1_555
C13 C8 1_555 1_555
H11 C13 1_555 1_555
C14 C11 1_555 1_555
C5 C6 1_555 1_555
C12 C13 1_555 1_555

#END
