
#######################################################################
#
#                 Cambridge Crystallographic Data Centre
#                                CCDC 
#
#######################################################################
#
# If this CIF has been generated from an entry in the Cambridge 
# Structural Database, then it will include bibliographic, chemical, 
# crystal, experimental, refinement or atomic coordinate data resulting 
# from the CCDC's data processing and validation procedures.
#
#######################################################################

data_OXEFAA
_chemical_formula_moiety         'C15 H14 O2 S1'
_chemical_name_systematic        'methyl 4-((4-methylphenyl)sulfanyl)benzoate'
_symmetry_cell_setting           monoclinic
_symmetry_space_group_name_H-M   'P 21/n'
_symmetry_Int_Tables_number      14
_space_group_name_Hall           '-P 2yn'
loop_
_symmetry_equiv_pos_site_id
_symmetry_equiv_pos_as_xyz
1 x,y,z
2 1/2-x,1/2+y,1/2-z
3 -x,-y,-z
4 1/2+x,1/2-y,1/2+z
_cell_length_a                   5.6110(3)
_cell_length_b                   25.6833(13)
_cell_length_c                   8.9910(4)
_cell_angle_alpha                90
_cell_angle_beta                 98.982(4)
_cell_angle_gamma                90
_cell_volume                     1279.8
_exptl_crystal_colour            colorless
_exptl_crystal_description       block
_cell_formula_units_Z            4
loop_
_atom_site_label
_atom_site_type_symbol
_atom_site_fract_x
_atom_site_fract_y
_atom_site_fract_z
S1 S 0.42789(16) 0.25905(3) 0.62197(10)
O1 O 0.7685(5) 0.49228(9) 0.3767(3)
O2 O 1.0452(4) 0.43937(9) 0.3001(3)
C1 C 0.5837(6) 0.20477(13) 0.5617(4)
C2 C 0.8071(7) 0.18994(14) 0.6410(4)
H1 H 0.8762 0.2088 0.7280
C3 C 0.9274(7) 0.14791(13) 0.5930(4)
H2 H 1.0804 0.1385 0.6471
C4 C 0.8306(6) 0.11894(13) 0.4671(4)
C5 C 0.6063(7) 0.13377(14) 0.3898(4)
H3 H 0.5359 0.1143 0.3042
C6 C 0.4830(6) 0.17655(14) 0.4352(4)
H4 H 0.3312 0.1864 0.3803
C7 C 0.9688(7) 0.07333(14) 0.4176(4)
H5 H 1.1208 0.0692 0.4868
H6 H 1.0031 0.0796 0.3155
H7 H 0.8720 0.0416 0.4183
C8 C 0.5734(6) 0.31267(13) 0.5518(3)
C9 C 0.4760(6) 0.36171(14) 0.5708(4)
H8 H 0.3428 0.3649 0.6238
C10 C 0.5697(6) 0.40568(13) 0.5140(4)
H9 H 0.4990 0.4387 0.5259
C11 C 0.7693(6) 0.40165(13) 0.4386(4)
C12 C 0.8702(6) 0.35283(13) 0.4226(4)
H10 H 1.0069 0.3499 0.3727
C13 C 0.7746(6) 0.30849(13) 0.4783(4)
H11 H 0.8453 0.2754 0.4666
C14 C 0.8569(6) 0.44939(13) 0.3715(4)
C15 C 1.1433(7) 0.48357(14) 0.2323(4)
H12 H 1.2791 0.4723 0.1835
H13 H 1.1994 0.5094 0.3101
H14 H 1.0182 0.4991 0.1570
loop_
_geom_bond_atom_site_label_1
_geom_bond_atom_site_label_2
_geom_bond_site_symmetry_1
_geom_bond_site_symmetry_2
S1 C1 1_555 1_555
O1 C14 1_555 1_555
O2 C14 1_555 1_555
C1 C2 1_555 1_555
C2 H1 1_555 1_555
C3 C2 1_555 1_555
H2 C3 1_555 1_555
C4 C3 1_555 1_555
C5 C4 1_555 1_555
H3 C5 1_555 1_555
C6 C1 1_555 1_555
H4 C6 1_555 1_555
C7 C4 1_555 1_555
H5 C7 1_555 1_555
H6 C7 1_555 1_555
H7 C7 1_555 1_555
C8 S1 1_555 1_555
C9 C8 1_555 1_555
H8 C9 1_555 1_555
C10 C9 1_555 1_555
H9 C10 1_555 1_555
C11 C10 1_555 1_555
C12 C11 1_555 1_555
H10 C12 1_555 1_555
C13 C8 1_555 1_555
H11 C13 1_555 1_555
C14 C11 1_555 1_555
C15 O2 1_555 1_555
H12 C15 1_555 1_555
H13 C15 1_555 1_555
H14 C15 1_555 1_555
C5 C6 1_555 1_555
C12 C13 1_555 1_555

#END
