
#######################################################################
#
#                 Cambridge Crystallographic Data Centre
#                                CCDC 
#
#######################################################################
#
# If this CIF has been generated from an entry in the Cambridge 
# Structural Database, then it will include bibliographic, chemical, 
# crystal, experimental, refinement or atomic coordinate data resulting 
# from the CCDC's data processing and validation procedures.
#
#######################################################################

data_OXEGIJ
_chemical_formula_moiety         'C16 H13 Cl1 N2 O1'
_chemical_name_systematic        
8-chloro-N,N-dimethylphenanthridine-6-carboxamide
_symmetry_cell_setting           orthorhombic
_symmetry_space_group_name_H-M   'P 21 21 21'
_symmetry_Int_Tables_number      19
_space_group_name_Hall           'P 2ac 2ab'
loop_
_symmetry_equiv_pos_site_id
_symmetry_equiv_pos_as_xyz
1 x,y,z
2 1/2-x,-y,1/2+z
3 -x,1/2+y,1/2-z
4 1/2+x,1/2-y,-z
_cell_length_a                   4.7439(8)
_cell_length_b                   16.180(3)
_cell_length_c                   18.262(3)
_cell_angle_alpha                90
_cell_angle_beta                 90
_cell_angle_gamma                90
_cell_volume                     1401.72
_exptl_crystal_colour            colorless
_exptl_crystal_description       prism
_cell_formula_units_Z            4
loop_
_atom_site_label
_atom_site_type_symbol
_atom_site_fract_x
_atom_site_fract_y
_atom_site_fract_z
Cl1 Cl 1.2641(2) 0.53248(8) 0.14720(6)
O1 O 0.4093(8) 0.42571(19) 0.32840(19)
N1 N 0.3584(7) 0.60386(19) 0.39794(18)
N2 N 0.6748(8) 0.44252(19) 0.4292(2)
C1 C 0.3152(8) 0.6875(2) 0.3835(2)
C2 C 0.1216(9) 0.7298(3) 0.4275(2)
H1 H 0.0270 0.7020 0.4647
C3 C 0.0714(9) 0.8122(3) 0.4159(3)
H2 H -0.0586 0.8402 0.4448
C4 C 0.2148(9) 0.8535(2) 0.3609(2)
H3 H 0.1822 0.9096 0.3538
C5 C 0.4033(9) 0.8134(2) 0.3169(3)
H4 H 0.4970 0.8423 0.2803
C6 C 0.4565(7) 0.7288(2) 0.3268(2)
C7 C 0.6528(8) 0.6826(2) 0.2819(2)
C8 C 0.8011(9) 0.7176(3) 0.2239(2)
H5 H 0.7740 0.7731 0.2127
C9 C 0.9864(8) 0.6717(3) 0.1830(2)
H6 H 1.0829 0.6959 0.1441
C10 C 1.0292(8) 0.5887(3) 0.1999(2)
C11 C 0.8884(8) 0.5519(2) 0.2560(2)
H7 H 0.9201 0.4966 0.2669
C12 C 0.6951(7) 0.5981(2) 0.2974(2)
C13 C 0.5359(8) 0.5629(2) 0.3569(2)
C14 C 0.5377(9) 0.4711(3) 0.3707(2)
C15 C 0.8242(10) 0.4930(3) 0.4806(3)
H8 H 0.8365 0.5484 0.4622
H9 H 1.0105 0.4712 0.4876
H10 H 0.7257 0.4931 0.5265
C16 C 0.6669(15) 0.3534(3) 0.4445(3)
H11 H 0.7764 0.3245 0.4085
H12 H 0.4753 0.3344 0.4428
H13 H 0.7437 0.3432 0.4923
loop_
_geom_bond_atom_site_label_1
_geom_bond_atom_site_label_2
_geom_bond_site_symmetry_1
_geom_bond_site_symmetry_2
Cl1 C10 1_555 1_555
O1 C14 1_555 1_555
N1 C1 1_555 1_555
N2 C14 1_555 1_555
C1 C2 1_555 1_555
C2 H1 1_555 1_555
C3 C2 1_555 1_555
H2 C3 1_555 1_555
C4 C3 1_555 1_555
H3 C4 1_555 1_555
C5 C4 1_555 1_555
H4 C5 1_555 1_555
C6 C1 1_555 1_555
C7 C6 1_555 1_555
C8 C7 1_555 1_555
H5 C8 1_555 1_555
C9 C8 1_555 1_555
H6 C9 1_555 1_555
C10 C9 1_555 1_555
C11 C10 1_555 1_555
H7 C11 1_555 1_555
C12 C7 1_555 1_555
C13 N1 1_555 1_555
C14 C13 1_555 1_555
C15 N2 1_555 1_555
H8 C15 1_555 1_555
H9 C15 1_555 1_555
H10 C15 1_555 1_555
C16 N2 1_555 1_555
H11 C16 1_555 1_555
H12 C16 1_555 1_555
H13 C16 1_555 1_555
C5 C6 1_555 1_555
C11 C12 1_555 1_555
C12 C13 1_555 1_555

#END
