
#######################################################################
#
#                 Cambridge Crystallographic Data Centre
#                                CCDC 
#
#######################################################################
#
# If this CIF has been generated from an entry in the Cambridge 
# Structural Database, then it will include bibliographic, chemical, 
# crystal, experimental, refinement or atomic coordinate data resulting 
# from the CCDC's data processing and validation procedures.
#
#######################################################################

data_OXEGEF
_chemical_compound_source        'Teucrium viscidum'
_chemical_name_common            'teuviscin A'
_chemical_formula_moiety         'C30 H50 O3'
_chemical_name_systematic        
2',5'-dihydroxy-3-isopropyl-3a,4',4',5a,7a',9a-hexamethyloctadecahydrospiro[cyclopenta[a]naphthalene-7,1'-inden]-6(1H)-one
_symmetry_cell_setting           orthorhombic
_symmetry_space_group_name_H-M   'P 21 21 21'
_symmetry_Int_Tables_number      19
_space_group_name_Hall           'P 2ac 2ab'
loop_
_symmetry_equiv_pos_site_id
_symmetry_equiv_pos_as_xyz
1 x,y,z
2 1/2-x,-y,1/2+z
3 1/2+x,1/2-y,-z
4 -x,1/2+y,1/2-z
_cell_length_a                   6.52391(10)
_cell_length_b                   12.9427(2)
_cell_length_c                   31.7963(6)
_cell_angle_alpha                90
_cell_angle_beta                 90
_cell_angle_gamma                90
_cell_volume                     2684.78
_exptl_crystal_colour            colorless
_exptl_crystal_description       block
_cell_formula_units_Z            4
loop_
_atom_site_label
_atom_site_type_symbol
_atom_site_fract_x
_atom_site_fract_y
_atom_site_fract_z
O1 O 1.4685(3) 0.13669(15) 0.28938(7)
H1 H 1.3679 0.1003 0.2938
O2 O 0.8451(2) 0.49835(14) 0.18323(6)
H2 H 0.8030 0.4567 0.1658
O3 O 0.8631(2) 0.36872(13) 0.11777(5)
C1 C 1.3185(4) 0.21809(16) 0.17881(8)
H3 H 1.2628 0.1777 0.1558
H4 H 1.4493 0.2461 0.1699
C2 C 1.3510(4) 0.14805(18) 0.21715(9)
H5 H 1.2228 0.1139 0.2239
H6 H 1.4503 0.0950 0.2101
C3 C 1.4255(4) 0.20634(19) 0.25548(9)
H7 H 1.5570 0.2374 0.2476
C4 C 1.2868(3) 0.29615(18) 0.26929(8)
C5 C 1.2512(3) 0.36185(16) 0.22936(7)
H8 H 1.3879 0.3869 0.2216
C6 C 1.1204(4) 0.45941(16) 0.23233(7)
H9 H 1.1972 0.5148 0.2455
H10 H 0.9982 0.4464 0.2489
C7 C 1.0624(3) 0.48882(16) 0.18707(7)
H11 H 1.1244 0.5559 0.1806
C8 C 1.0480(3) 0.38428(15) 0.11719(7)
C9 C 1.1656(3) 0.40400(15) 0.15801(7)
C10 C 1.1713(3) 0.30714(15) 0.18928(7)
C11 C 1.3845(3) 0.44634(16) 0.14862(6)
H12 H 1.4286 0.4861 0.1729
H13 H 1.4764 0.3877 0.1462
C12 C 1.4139(3) 0.51432(17) 0.10919(7)
H14 H 1.4194 0.5859 0.1181
H15 H 1.5457 0.4976 0.0968
C13 C 1.2490(3) 0.50462(16) 0.07462(7)
C14 C 1.1611(3) 0.39166(16) 0.07541(7)
C15 C 1.0161(4) 0.3750(2) 0.03806(8)
H16 H 0.9006 0.4217 0.0407
H17 H 0.9633 0.3050 0.0391
C16 C 1.1198(5) 0.3928(2) -0.00494(8)
H18 H 1.2275 0.3420 -0.0088
H19 H 1.0196 0.3830 -0.0271
C17 C 1.2116(4) 0.50158(18) -0.00844(7)
C18 C 1.3451(3) 0.52136(16) 0.03117(7)
H20 H 1.4536 0.4692 0.0295
C19 C 1.4539(4) 0.6232(2) 0.02140(8)
H21 H 1.5844 0.6274 0.0359
H22 H 1.3700 0.6819 0.0294
C20 C 1.4846(4) 0.6191(2) -0.02673(8)
H23 H 1.6295 0.6184 -0.0335
H24 H 1.4223 0.6789 -0.0400
C21 C 1.3803(4) 0.5184(2) -0.04233(7)
H25 H 1.4806 0.4628 -0.0386
C22 C 1.3276(5) 0.5212(2) -0.08954(9)
H26 H 1.2414 0.5819 -0.0946
C23 C 1.4066(5) 0.3627(2) 0.30113(8)
H27 H 1.5283 0.3892 0.2880
H28 H 1.4438 0.3212 0.3250
H29 H 1.3223 0.4193 0.3102
C24 C 1.0918(4) 0.2573(2) 0.29144(9)
H30 H 0.9954 0.3130 0.2939
H31 H 1.1263 0.2322 0.3190
H32 H 1.0319 0.2024 0.2753
C25 C 0.9542(4) 0.26142(18) 0.19448(8)
H33 H 0.8645 0.3130 0.2060
H34 H 0.9596 0.2032 0.2131
H35 H 0.9034 0.2397 0.1676
C26 C 1.0791(4) 0.58405(18) 0.08445(8)
H36 H 0.9588 0.5678 0.0684
H37 H 1.1260 0.6521 0.0772
H38 H 1.0467 0.5816 0.1139
C27 C 1.3280(4) 0.30677(17) 0.07348(8)
H39 H 1.4360 0.3232 0.0929
H40 H 1.3827 0.3031 0.0455
H41 H 1.2688 0.2413 0.0809
C28 C 1.0394(4) 0.5800(2) -0.01583(9)
H42 H 0.9287 0.5664 0.0033
H43 H 0.9909 0.5741 -0.0442
H44 H 1.0906 0.6486 -0.0112
C29 C 1.2113(7) 0.4267(3) -0.10467(10)
H45 H 1.2855 0.3654 -0.0970
H46 H 1.1967 0.4296 -0.1347
H47 H 1.0781 0.4253 -0.0918
C30 C 1.5254(6) 0.5344(4) -0.11480(10)
H48 H 1.5899 0.5984 -0.1071
H49 H 1.4938 0.5352 -0.1443
H50 H 1.6165 0.4781 -0.1088
loop_
_geom_bond_atom_site_label_1
_geom_bond_atom_site_label_2
_geom_bond_site_symmetry_1
_geom_bond_site_symmetry_2
O1 H1 1_555 1_555
O2 H2 1_555 1_555
O3 C8 1_555 1_555
C1 H3 1_555 1_555
H4 C1 1_555 1_555
C2 C1 1_555 1_555
H5 C2 1_555 1_555
H6 C2 1_555 1_555
C3 O1 1_555 1_555
H7 C3 1_555 1_555
C4 C3 1_555 1_555
C5 C4 1_555 1_555
H8 C5 1_555 1_555
C6 C5 1_555 1_555
H9 C6 1_555 1_555
H10 C6 1_555 1_555
C7 O2 1_555 1_555
H11 C7 1_555 1_555
C8 C9 1_555 1_555
C9 C7 1_555 1_555
C10 C1 1_555 1_555
C11 C9 1_555 1_555
H12 C11 1_555 1_555
H13 C11 1_555 1_555
C12 C11 1_555 1_555
H14 C12 1_555 1_555
H15 C12 1_555 1_555
C13 C12 1_555 1_555
C14 C8 1_555 1_555
C15 C14 1_555 1_555
H16 C15 1_555 1_555
H17 C15 1_555 1_555
C16 C15 1_555 1_555
H18 C16 1_555 1_555
H19 C16 1_555 1_555
C17 C16 1_555 1_555
C18 C13 1_555 1_555
H20 C18 1_555 1_555
C19 C18 1_555 1_555
H21 C19 1_555 1_555
H22 C19 1_555 1_555
C20 C19 1_555 1_555
H23 C20 1_555 1_555
H24 C20 1_555 1_555
C21 C17 1_555 1_555
H25 C21 1_555 1_555
C22 C21 1_555 1_555
H26 C22 1_555 1_555
C23 C4 1_555 1_555
H27 C23 1_555 1_555
H28 C23 1_555 1_555
H29 C23 1_555 1_555
C24 C4 1_555 1_555
H30 C24 1_555 1_555
H31 C24 1_555 1_555
H32 C24 1_555 1_555
C25 C10 1_555 1_555
H33 C25 1_555 1_555
H34 C25 1_555 1_555
H35 C25 1_555 1_555
C26 C13 1_555 1_555
H36 C26 1_555 1_555
H37 C26 1_555 1_555
H38 C26 1_555 1_555
C27 C14 1_555 1_555
H39 C27 1_555 1_555
H40 C27 1_555 1_555
H41 C27 1_555 1_555
C28 C17 1_555 1_555
H42 C28 1_555 1_555
H43 C28 1_555 1_555
H44 C28 1_555 1_555
C29 C22 1_555 1_555
H45 C29 1_555 1_555
H46 C29 1_555 1_555
H47 C29 1_555 1_555
C30 C22 1_555 1_555
H48 C30 1_555 1_555
H49 C30 1_555 1_555
H50 C30 1_555 1_555
C2 C3 1_555 1_555
C5 C10 1_555 1_555
C6 C7 1_555 1_555
C9 C10 1_555 1_555
C13 C14 1_555 1_555
C17 C18 1_555 1_555
C20 C21 1_555 1_555

#END
