
#######################################################################
#
#                 Cambridge Crystallographic Data Centre
#                                CCDC 
#
#######################################################################
#
# If this CIF has been generated from an entry in the Cambridge 
# Structural Database, then it will include bibliographic, chemical, 
# crystal, experimental, refinement or atomic coordinate data resulting 
# from the CCDC's data processing and validation procedures.
#
#######################################################################

data_OXEGAB
_chemical_compound_source        'Teucrium viscidum'
_chemical_name_common            'teuviscin B pyridine solvate'
_chemical_formula_moiety         'C30 H48 O3,C5 H5 N1'
_chemical_name_systematic        
'3-hydroxy-4,6a,8a,11,11,12b,14b-heptamethyl-1,2,3,4,4a,5,6,6a,8,8a,9,10,11,12,12a,12b,13,14,14a,14b-icosahydropicene-4-carboxylic acid pyridine solvate'
_chemical_properties_biological  "anti-Alzheimer's Disease activity"
_symmetry_cell_setting           monoclinic
_symmetry_space_group_name_H-M   'P 21'
_symmetry_Int_Tables_number      4
_space_group_name_Hall           'P 2yb'
loop_
_symmetry_equiv_pos_site_id
_symmetry_equiv_pos_as_xyz
1 x,y,z
2 -x,1/2+y,-z
_cell_length_a                   7.4550(5)
_cell_length_b                   11.3624(7)
_cell_length_c                   18.4877(13)
_cell_angle_alpha                90
_cell_angle_beta                 92.585(6)
_cell_angle_gamma                90
_cell_volume                     1564.44
_exptl_crystal_colour            colorless
_exptl_crystal_description       block
_cell_formula_units_Z            2
loop_
_atom_site_label
_atom_site_type_symbol
_atom_site_fract_x
_atom_site_fract_y
_atom_site_fract_z
O1 O 0.7347(6) 0.3550(3) 0.08088(19)
H1 H 0.6519 0.3105 0.0689
O2 O 0.7798(5) 0.5907(3) 0.0860(2)
O3 O 0.5674(6) 0.6837(3) 0.1414(2)
H2 H 0.6012 0.7386 0.1166
C1 C 0.9245(6) 0.4036(4) 0.2717(2)
H3 H 1.0479 0.4129 0.2896
H4 H 0.8768 0.3335 0.2937
C2 C 0.9217(6) 0.3867(4) 0.1899(2)
H5 H 0.9820 0.4526 0.1681
H6 H 0.9873 0.3157 0.1789
C3 C 0.7326(7) 0.3776(4) 0.1571(2)
H7 H 0.6780 0.3085 0.1791
C4 C 0.6135(5) 0.4842(3) 0.1748(2)
C5 C 0.6242(4) 0.5028(3) 0.2584(2)
H8 H 0.5747 0.4301 0.2778
C6 C 0.5025(5) 0.5997(4) 0.2861(2)
H9 H 0.5537 0.6761 0.2760
H10 H 0.3855 0.5949 0.2612
C7 C 0.4821(4) 0.5866(3) 0.3674(2)
H11 H 0.4224 0.5125 0.3764
H12 H 0.4052 0.6493 0.3836
C8 C 0.6607(4) 0.5902(3) 0.4127(2)
C9 C 0.7920(4) 0.5019(3) 0.37904(19)
H13 H 0.7354 0.4250 0.3854
C10 C 0.8147(4) 0.5113(3) 0.2951(2)
C11 C 0.9722(4) 0.4929(4) 0.4236(2)
H14 H 1.0171 0.4131 0.4199
H15 H 1.0585 0.5448 0.4022
C12 C 0.9622(4) 0.5240(3) 0.5038(2)
H16 H 0.9856 0.6075 0.5097
H17 H 1.0566 0.4819 0.5308
C13 C 0.7819(4) 0.4953(3) 0.53673(19)
C14 C 0.6282(4) 0.5524(3) 0.49131(19)
C15 C 0.4706(4) 0.5650(3) 0.5212(2)
H18 H 0.3705 0.5860 0.4922
C16 C 0.4513(4) 0.5461(4) 0.6002(2)
H19 H 0.4433 0.4625 0.6102
H20 H 0.3419 0.5833 0.6152
C17 C 0.6139(4) 0.5988(3) 0.6430(2)
C18 C 0.7899(4) 0.5396(3) 0.6182(2)
H21 H 0.8825 0.6008 0.6213
C19 C 0.8508(5) 0.4442(3) 0.6723(2)
H22 H 0.9566 0.4060 0.6545
H23 H 0.7570 0.3852 0.6740
C20 C 0.8952(5) 0.4880(4) 0.7502(2)
C21 C 0.7690(6) 0.5910(4) 0.7668(2)
H24 H 0.7484 0.5923 0.8183
H25 H 0.8254 0.6647 0.7544
C22 C 0.5914(5) 0.5794(4) 0.7248(2)
H26 H 0.5075 0.6368 0.7424
H27 H 0.5422 0.5016 0.7325
C23 C 0.4176(7) 0.4521(5) 0.1497(3)
H28 H 0.3768 0.3873 0.1779
H29 H 0.4141 0.4304 0.0995
H30 H 0.3411 0.5189 0.1562
C24 C 0.6655(6) 0.5914(4) 0.1298(2)
C25 C 0.9157(5) 0.6227(4) 0.2727(2)
H31 H 0.8350 0.6886 0.2714
H32 H 0.9619 0.6113 0.2255
H33 H 1.0134 0.6378 0.3070
C26 C 0.7313(5) 0.7185(3) 0.4155(2)
H34 H 0.8574 0.7183 0.4285
H35 H 0.6684 0.7622 0.4509
H36 H 0.7117 0.7545 0.3688
C27 C 0.7511(5) 0.3606(3) 0.5319(2)
H37 H 0.8510 0.3204 0.5553
H38 H 0.7401 0.3373 0.4820
H39 H 0.6430 0.3406 0.5554
C28 C 0.6200(6) 0.7309(3) 0.6291(3)
H40 H 0.7029 0.7671 0.6636
H41 H 0.5025 0.7637 0.6340
H42 H 0.6583 0.7450 0.5810
C29 C 0.8646(8) 0.3877(5) 0.8034(3)
H43 H 0.9012 0.4125 0.8514
H44 H 0.9338 0.3204 0.7902
H45 H 0.7395 0.3674 0.8018
C30 C 1.0883(7) 0.5307(7) 0.7594(3)
H46 H 1.1119 0.5865 0.7220
H47 H 1.1685 0.4650 0.7561
H48 H 1.1064 0.5676 0.8059
N1 N 0.6547(6) 0.8729(4) 0.0684(2)
C31 C 0.8080(8) 0.8878(6) 0.0369(3)
H49 H 0.8817 0.8228 0.0310
C32 C 0.8639(10) 0.9964(8) 0.0121(4)
H50 H 0.9725 1.0038 -0.0103
C33 C 0.7566(13) 1.0923(6) 0.0211(3)
H51 H 0.7922 1.1664 0.0060
C34 C 0.6039(11) 1.0780(6) 0.0512(3)
H52 H 0.5280 1.1420 0.0568
C35 C 0.5546(9) 0.9690(5) 0.0747(3)
H53 H 0.4450 0.9617 0.0964
loop_
_geom_bond_atom_site_label_1
_geom_bond_atom_site_label_2
_geom_bond_site_symmetry_1
_geom_bond_site_symmetry_2
O1 H1 1_555 1_555
O2 C24 1_555 1_555
O3 H2 1_555 1_555
C1 H3 1_555 1_555
H4 C1 1_555 1_555
C2 C1 1_555 1_555
H5 C2 1_555 1_555
H6 C2 1_555 1_555
C3 O1 1_555 1_555
H7 C3 1_555 1_555
C4 C3 1_555 1_555
C5 C4 1_555 1_555
H8 C5 1_555 1_555
C6 C5 1_555 1_555
H9 C6 1_555 1_555
H10 C6 1_555 1_555
C7 C6 1_555 1_555
H11 C7 1_555 1_555
H12 C7 1_555 1_555
C8 C7 1_555 1_555
C9 C8 1_555 1_555
H13 C9 1_555 1_555
C10 C1 1_555 1_555
C11 C9 1_555 1_555
H14 C11 1_555 1_555
H15 C11 1_555 1_555
C12 C11 1_555 1_555
H16 C12 1_555 1_555
H17 C12 1_555 1_555
C13 C12 1_555 1_555
C14 C8 1_555 1_555
C15 C14 1_555 1_555
H18 C15 1_555 1_555
C16 C15 1_555 1_555
H19 C16 1_555 1_555
H20 C16 1_555 1_555
C17 C16 1_555 1_555
C18 C13 1_555 1_555
H21 C18 1_555 1_555
C19 C18 1_555 1_555
H22 C19 1_555 1_555
H23 C19 1_555 1_555
C20 C19 1_555 1_555
C21 C20 1_555 1_555
H24 C21 1_555 1_555
H25 C21 1_555 1_555
C22 C17 1_555 1_555
H26 C22 1_555 1_555
H27 C22 1_555 1_555
C23 C4 1_555 1_555
H28 C23 1_555 1_555
H29 C23 1_555 1_555
H30 C23 1_555 1_555
C24 O3 1_555 1_555
C25 C10 1_555 1_555
H31 C25 1_555 1_555
H32 C25 1_555 1_555
H33 C25 1_555 1_555
C26 C8 1_555 1_555
H34 C26 1_555 1_555
H35 C26 1_555 1_555
H36 C26 1_555 1_555
C27 C13 1_555 1_555
H37 C27 1_555 1_555
H38 C27 1_555 1_555
H39 C27 1_555 1_555
C28 C17 1_555 1_555
H40 C28 1_555 1_555
H41 C28 1_555 1_555
H42 C28 1_555 1_555
C29 C20 1_555 1_555
H43 C29 1_555 1_555
H44 C29 1_555 1_555
H45 C29 1_555 1_555
C30 C20 1_555 1_555
H46 C30 1_555 1_555
H47 C30 1_555 1_555
H48 C30 1_555 1_555
N1 C31 1_555 1_555
C31 H49 1_555 1_555
C32 C31 1_555 1_555
H50 C32 1_555 1_555
C33 C32 1_555 1_555
H51 C33 1_555 1_555
C34 C33 1_555 1_555
H52 C34 1_555 1_555
C35 N1 1_555 1_555
H53 C35 1_555 1_555
C2 C3 1_555 1_555
C4 C24 1_555 1_555
C5 C10 1_555 1_555
C9 C10 1_555 1_555
C13 C14 1_555 1_555
C17 C18 1_555 1_555
C21 C22 1_555 1_555
C34 C35 1_555 1_555

#END
