
#######################################################################
#
#                 Cambridge Crystallographic Data Centre
#                                CCDC 
#
#######################################################################
#
# If this CIF has been generated from an entry in the Cambridge 
# Structural Database, then it will include bibliographic, chemical, 
# crystal, experimental, refinement or atomic coordinate data resulting 
# from the CCDC's data processing and validation procedures.
#
#######################################################################

data_OXEJEH
_chemical_formula_moiety         'C11 H9 Cl1 N2 O4'
_chemical_name_systematic        
'4-(5-Chloro-2-nitrobenzylidene)-3-methyl-4,5-dihydro-1,2-oxazole 2-oxide'
_symmetry_cell_setting           triclinic
_symmetry_space_group_name_H-M   'P -1'
_symmetry_Int_Tables_number      2
_space_group_name_Hall           '-P 1'
loop_
_symmetry_equiv_pos_site_id
_symmetry_equiv_pos_as_xyz
1 x,y,z
2 -x,-y,-z
_cell_length_a                   7.6607(3)
_cell_length_b                   7.7335(3)
_cell_length_c                   10.9132(4)
_cell_angle_alpha                106.496(2)
_cell_angle_beta                 96.783(2)
_cell_angle_gamma                106.600(2)
_cell_volume                     579.96
_exptl_crystal_colour            yellow
_exptl_crystal_description       prism
_cell_formula_units_Z            2
loop_
_atom_site_label
_atom_site_type_symbol
_atom_site_fract_x
_atom_site_fract_y
_atom_site_fract_z
C1 C -0.1525(3) 0.3428(3) 0.6373(2)
C2 C -0.0869(3) 0.4483(3) 0.7682(2)
H1 H -0.1697 0.4711 0.8215
C3 C 0.1020(3) 0.5199(3) 0.8195(2)
H2 H 0.1496 0.5945 0.9071
C4 C 0.2186(3) 0.4782(3) 0.7377(2)
C5 C 0.1534(3) 0.3681(3) 0.6066(2)
H3 H 0.2373 0.3413 0.5553
C6 C -0.0377(3) 0.2968(3) 0.55064(19)
C7 C -0.1179(3) 0.1792(3) 0.41434(19)
H4 H -0.2451 0.1538 0.3870
C8 C -0.0342(3) 0.1019(3) 0.32201(19)
C9 C 0.1651(3) 0.1126(3) 0.3284(2)
H5 H 0.2443 0.2424 0.3427
H6 H 0.2085 0.0719 0.3991
C10 C -0.1316(3) -0.0184(3) 0.1915(2)
C11 C -0.3281(4) -0.0717(5) 0.1258(3)
H7 H -0.3490 -0.1552 0.0375
H8 H -0.3555 0.0416 0.1248
H9 H -0.4079 -0.1362 0.1722
Cl1 Cl 0.45811(8) 0.57236(11) 0.80023(6)
N1 N -0.3557(2) 0.2766(3) 0.58924(18)
N2 N -0.0171(3) -0.0845(3) 0.12846(19)
O1 O -0.4525(3) 0.1654(3) 0.6327(2)
O2 O -0.4183(2) 0.3379(3) 0.5104(2)
O3 O 0.1679(3) -0.0144(3) 0.20372(17)
O4 O -0.0417(3) -0.1982(3) 0.01612(17)
loop_
_geom_bond_atom_site_label_1
_geom_bond_atom_site_label_2
_geom_bond_site_symmetry_1
_geom_bond_site_symmetry_2
C1 C2 1_555 1_555
C2 H1 1_555 1_555
C3 C2 1_555 1_555
H2 C3 1_555 1_555
C4 C3 1_555 1_555
C5 C4 1_555 1_555
H3 C5 1_555 1_555
C6 C1 1_555 1_555
C7 C6 1_555 1_555
H4 C7 1_555 1_555
C8 C7 1_555 1_555
C9 C8 1_555 1_555
H5 C9 1_555 1_555
H6 C9 1_555 1_555
C10 C8 1_555 1_555
C11 C10 1_555 1_555
H7 C11 1_555 1_555
H8 C11 1_555 1_555
H9 C11 1_555 1_555
Cl1 C4 1_555 1_555
N1 C1 1_555 1_555
N2 C10 1_555 1_555
O1 N1 1_555 1_555
O2 N1 1_555 1_555
O3 C9 1_555 1_555
O4 N2 1_555 1_555
C5 C6 1_555 1_555
N2 O3 1_555 1_555

#END
