
#######################################################################
#
#                 Cambridge Crystallographic Data Centre
#                                CCDC 
#
#######################################################################
#
# If this CIF has been generated from an entry in the Cambridge 
# Structural Database, then it will include bibliographic, chemical, 
# crystal, experimental, refinement or atomic coordinate data resulting 
# from the CCDC's data processing and validation procedures.
#
#######################################################################

data_OXEJUX
_chemical_formula_moiety         'C14 H16 N2 O4'
_chemical_name_systematic        
anti-3-(3-Nitrophenyl)-3a,4,5,6,7,8-hexahydro-3H-cyclohepta(c)isoxazole-1-oxide
_symmetry_cell_setting           monoclinic
_symmetry_space_group_name_H-M   'P 21/c'
_symmetry_Int_Tables_number      14
_space_group_name_Hall           '-P 2ybc'
loop_
_symmetry_equiv_pos_site_id
_symmetry_equiv_pos_as_xyz
1 x,y,z
2 -x,1/2+y,1/2-z
3 -x,-y,-z
4 x,1/2-y,1/2+z
_cell_length_a                   6.74(2)
_cell_length_b                   12.46(4)
_cell_length_c                   15.25(5)
_cell_angle_alpha                90
_cell_angle_beta                 91.77(7)
_cell_angle_gamma                90
_cell_volume                     1280.09
_exptl_crystal_colour            colorless
_exptl_crystal_description       prism
_cell_formula_units_Z            4
loop_
_atom_site_label
_atom_site_type_symbol
_atom_site_fract_x
_atom_site_fract_y
_atom_site_fract_z
C1 C 0.838(3) 0.6095(10) -0.0576(7)
C2 C 1.028(3) 0.6297(11) -0.0724(9)
H1 H 1.0820 0.6103 -0.1269
C3 C 1.143(2) 0.6776(11) -0.0102(9)
H2 H 1.2806 0.6870 -0.0185
C4 C 1.058(3) 0.7132(10) 0.0666(9)
H3 H 1.1347 0.7526 0.1087
C5 C 0.861(2) 0.6911(10) 0.0813(8)
C6 C 0.747(2) 0.6409(10) 0.0206(7)
H4 H 0.6102 0.6269 0.0298
C7 C 0.784(2) 0.7306(10) 0.1707(7)
H5 H 0.8729 0.7872 0.1968
C8 C 0.757(2) 0.6368(8) 0.2353(7)
H6 H 0.7244 0.5695 0.2023
C9 C 0.936(2) 0.6190(9) 0.2952(7)
H7 H 0.9475 0.6795 0.3371
H8 H 1.0565 0.6186 0.2599
C10 C 0.926(2) 0.5133(10) 0.3470(7)
H9 H 0.8977 0.4539 0.3053
H10 H 1.0579 0.4994 0.3752
C11 C 0.771(3) 0.5120(10) 0.4172(8)
H11 H 0.7834 0.4440 0.4506
H12 H 0.7985 0.5717 0.4586
C12 C 0.564(2) 0.5221(9) 0.3825(7)
H13 H 0.4744 0.4909 0.4259
H14 H 0.5502 0.4786 0.3283
C13 C 0.4953(18) 0.6351(10) 0.3618(7)
H15 H 0.5340 0.6832 0.4111
H16 H 0.3489 0.6362 0.3550
C14 C 0.586(2) 0.6756(10) 0.2783(8)
N1 N 0.703(2) 0.5613(9) -0.1206(7)
N2 N 0.488(2) 0.7465(9) 0.2333(6)
O1 O 0.7697(17) 0.5389(9) -0.1943(6)
O2 O 0.533(2) 0.5404(9) -0.1053(6)
O3 O 0.5899(16) 0.7710(6) 0.1534(5)
O4 O 0.3295(16) 0.7975(7) 0.2436(5)
loop_
_geom_bond_atom_site_label_1
_geom_bond_atom_site_label_2
_geom_bond_site_symmetry_1
_geom_bond_site_symmetry_2
C1 C2 1_555 1_555
C2 H1 1_555 1_555
C3 C2 1_555 1_555
H2 C3 1_555 1_555
C4 C3 1_555 1_555
H3 C4 1_555 1_555
C5 C4 1_555 1_555
C6 C1 1_555 1_555
H4 C6 1_555 1_555
C7 C5 1_555 1_555
H5 C7 1_555 1_555
C8 C7 1_555 1_555
H6 C8 1_555 1_555
C9 C8 1_555 1_555
H7 C9 1_555 1_555
H8 C9 1_555 1_555
C10 C9 1_555 1_555
H9 C10 1_555 1_555
H10 C10 1_555 1_555
C11 C10 1_555 1_555
H11 C11 1_555 1_555
H12 C11 1_555 1_555
C12 C11 1_555 1_555
H13 C12 1_555 1_555
H14 C12 1_555 1_555
C13 C12 1_555 1_555
H15 C13 1_555 1_555
H16 C13 1_555 1_555
C14 C8 1_555 1_555
N1 C1 1_555 1_555
N2 C14 1_555 1_555
O1 N1 1_555 1_555
O2 N1 1_555 1_555
O3 C7 1_555 1_555
O4 N2 1_555 1_555
C5 C6 1_555 1_555
C13 C14 1_555 1_555
N2 O3 1_555 1_555

#END
