
#######################################################################
#
#                 Cambridge Crystallographic Data Centre
#                                CCDC 
#
#######################################################################
#
# If this CIF has been generated from an entry in the Cambridge 
# Structural Database, then it will include bibliographic, chemical, 
# crystal, experimental, refinement or atomic coordinate data resulting 
# from the CCDC's data processing and validation procedures.
#
#######################################################################

data_OXEKIM
_chemical_formula_moiety         'C17 H18 O4'
_chemical_name_systematic        
'Methyl 7-oxo-3-(2-phenylvinyl)-6-oxabicyclo[3.2.1]octane-1-carboxylate'
_symmetry_cell_setting           monoclinic
_symmetry_space_group_name_H-M   'P 21/n'
_symmetry_Int_Tables_number      14
_space_group_name_Hall           '-P 2yn'
loop_
_symmetry_equiv_pos_site_id
_symmetry_equiv_pos_as_xyz
1 x,y,z
2 1/2-x,1/2+y,1/2-z
3 -x,-y,-z
4 1/2+x,1/2-y,1/2+z
_cell_length_a                   14.9767(17)
_cell_length_b                   5.8222(8)
_cell_length_c                   17.535(2)
_cell_angle_alpha                90
_cell_angle_beta                 101.735(4)
_cell_angle_gamma                90
_cell_volume                     1497.05
_exptl_crystal_colour            colorless
_cell_formula_units_Z            4
loop_
_atom_site_label
_atom_site_type_symbol
_atom_site_fract_x
_atom_site_fract_y
_atom_site_fract_z
O1 O 0.64882(9) 0.4343(2) -0.00495(7)
O2 O 0.58565(8) 0.7739(2) 0.01124(7)
O3 O 0.82937(10) 0.4286(3) 0.17639(9)
O4 O 0.84094(8) 0.6512(3) 0.07573(8)
C1 C 0.70039(12) 0.6567(3) 0.11540(9)
C2 C 0.69323(12) 0.9174(3) 0.11574(11)
H1 H 0.7346 0.9906 0.0855
H2 H 0.7052 0.9806 0.1693
C3 C 0.59335(12) 0.9413(3) 0.07560(10)
H3 H 0.5792 1.1007 0.0555
C4 C 0.53064(12) 0.8684(3) 0.12856(10)
H4 H 0.4666 0.8885 0.1010
H5 H 0.5410 0.9686 0.1751
C5 C 0.54598(12) 0.6165(3) 0.15452(10)
H6 H 0.5163 0.5164 0.1102
C6 C 0.64815(12) 0.5555(3) 0.17501(10)
H7 H 0.6551 0.3864 0.1764
H8 H 0.6749 0.6156 0.2275
C7 C 0.64540(11) 0.6020(3) 0.03396(10)
C8 C 0.79681(12) 0.5628(3) 0.12695(10)
C9 C 0.93391(15) 0.5704(5) 0.08166(15)
H9 H 0.9623 0.6532 0.0442
H10 H 0.9333 0.4055 0.0703
H11 H 0.9688 0.5979 0.1345
C10 C 0.50197(13) 0.5685(3) 0.22221(11)
H12 H 0.5250 0.6480 0.2694
C11 C 0.43365(12) 0.4247(3) 0.22160(11)
H13 H 0.4128 0.3394 0.1752
C12 C 0.38713(12) 0.3852(4) 0.28662(11)
C13 C 0.38844(16) 0.5473(4) 0.34459(13)
H14 H 0.4197 0.6884 0.3424
C14 C 0.34506(17) 0.5069(5) 0.40557(14)
H15 H 0.3470 0.6201 0.4449
C15 C 0.29908(16) 0.3045(5) 0.41008(13)
H16 H 0.2706 0.2759 0.4528
C16 C 0.29492(15) 0.1448(4) 0.35209(13)
H17 H 0.2625 0.0055 0.3542
C17 C 0.33777(13) 0.1852(4) 0.29042(12)
H18 H 0.3333 0.0743 0.2501
loop_
_geom_bond_atom_site_label_1
_geom_bond_atom_site_label_2
_geom_bond_site_symmetry_1
_geom_bond_site_symmetry_2
O1 C7 1_555 1_555
O2 C3 1_555 1_555
O3 C8 1_555 1_555
O4 C8 1_555 1_555
C1 C2 1_555 1_555
C2 H1 1_555 1_555
H2 C2 1_555 1_555
C3 C2 1_555 1_555
H3 C3 1_555 1_555
C4 C3 1_555 1_555
H4 C4 1_555 1_555
H5 C4 1_555 1_555
C5 C4 1_555 1_555
H6 C5 1_555 1_555
C6 C1 1_555 1_555
H7 C6 1_555 1_555
H8 C6 1_555 1_555
C7 O2 1_555 1_555
C8 C1 1_555 1_555
C9 O4 1_555 1_555
H9 C9 1_555 1_555
H10 C9 1_555 1_555
H11 C9 1_555 1_555
C10 C5 1_555 1_555
H12 C10 1_555 1_555
C11 C10 1_555 1_555
H13 C11 1_555 1_555
C12 C11 1_555 1_555
C13 C12 1_555 1_555
H14 C13 1_555 1_555
C14 C13 1_555 1_555
H15 C14 1_555 1_555
C15 C14 1_555 1_555
H16 C15 1_555 1_555
C16 C15 1_555 1_555
H17 C16 1_555 1_555
C17 C12 1_555 1_555
H18 C17 1_555 1_555
C1 C7 1_555 1_555
C5 C6 1_555 1_555
C16 C17 1_555 1_555

#END
