
#######################################################################
#
#                 Cambridge Crystallographic Data Centre
#                                CCDC 
#
#######################################################################
#
# If this CIF has been generated from an entry in the Cambridge 
# Structural Database, then it will include bibliographic, chemical, 
# crystal, experimental, refinement or atomic coordinate data resulting 
# from the CCDC's data processing and validation procedures.
#
#######################################################################

data_OXEKEI
_chemical_formula_moiety         'C13 H12 N2 O4'
_chemical_name_systematic        
3-(2-Nitrophenyl)-3,5,6,7-tetrahydrobenzo(c)isoxazole-1-oxide
_symmetry_cell_setting           monoclinic
_symmetry_space_group_name_H-M   'P 21/n'
_symmetry_Int_Tables_number      14
_space_group_name_Hall           '-P 2yn'
loop_
_symmetry_equiv_pos_site_id
_symmetry_equiv_pos_as_xyz
1 x,y,z
2 1/2-x,1/2+y,1/2-z
3 -x,-y,-z
4 1/2+x,1/2-y,1/2+z
_cell_length_a                   8.7484(2)
_cell_length_b                   14.5938(4)
_cell_length_c                   9.8507(2)
_cell_angle_alpha                90
_cell_angle_beta                 108.899(2)
_cell_angle_gamma                90
_cell_volume                     1189.86
_exptl_crystal_colour            yellow
_exptl_crystal_description       prism
_cell_formula_units_Z            4
loop_
_atom_site_label
_atom_site_type_symbol
_atom_site_fract_x
_atom_site_fract_y
_atom_site_fract_z
C1 C 0.9063(2) 0.36835(13) 0.3164(2)
C2 C 0.8590(3) 0.33865(15) 0.4301(2)
H1 H 0.9060 0.3636 0.5210
C3 C 0.7428(3) 0.27236(16) 0.4082(2)
H2 H 0.7084 0.2529 0.4834
C4 C 0.6776(3) 0.23486(16) 0.2736(2)
H3 H 0.5992 0.1894 0.2581
C5 C 0.7274(3) 0.26407(15) 0.1612(2)
H4 H 0.6825 0.2372 0.0714
C6 C 0.8423(2) 0.33220(13) 0.17871(19)
C7 C 0.8888(2) 0.36241(14) 0.0497(2)
H5 H 0.9960 0.3909 0.0807
C8 C 0.7653(2) 0.42593(13) -0.0493(2)
C9 C 0.7179(3) 0.51079(14) -0.0331(2)
H6 H 0.7690 0.5429 0.0510
C10 C 0.5828(3) 0.55489(15) -0.1491(3)
H7 H 0.5163 0.5897 -0.1057
H8 H 0.6275 0.5974 -0.2019
C11 C 0.4779(6) 0.4850(3) -0.2540(5)
H9 H 0.4054 0.4572 -0.2093
H10 H 0.4117 0.5178 -0.3381
C12 C 0.5596(3) 0.41304(18) -0.3010(3)
H11 H 0.6038 0.4366 -0.3725
H12 H 0.4841 0.3644 -0.3446
C13 C 0.6915(2) 0.37585(14) -0.1780(2)
N1 N 0.7554(2) 0.29521(12) -0.17195(18)
N2 N 1.0293(2) 0.43980(12) 0.34844(18)
O1 O 0.7292(2) 0.22864(12) -0.25570(18)
O2 O 1.0226(2) 0.49850(12) 0.25754(19)
O3 O 1.1327(2) 0.43985(12) 0.46678(17)
O4 O 0.88693(18) 0.28249(11) -0.03856(15)
C14? C 0.5471(8) 0.5141(4) -0.2957(6)
H13? H 0.4386 0.5319 -0.3531
H14? H 0.6209 0.5407 -0.3401
loop_
_geom_bond_atom_site_label_1
_geom_bond_atom_site_label_2
_geom_bond_site_symmetry_1
_geom_bond_site_symmetry_2
C1 C2 1_555 1_555
C2 H1 1_555 1_555
C3 C2 1_555 1_555
H2 C3 1_555 1_555
C4 C3 1_555 1_555
H3 C4 1_555 1_555
C5 C4 1_555 1_555
H4 C5 1_555 1_555
C6 C1 1_555 1_555
C7 C6 1_555 1_555
H5 C7 1_555 1_555
C8 C7 1_555 1_555
C9 C8 1_555 1_555
H6 C9 1_555 1_555
C10 C9 1_555 1_555
H7 C10 1_555 1_555
H8 C10 1_555 1_555
C11 C10 1_555 1_555
H9 C11 1_555 1_555
H10 C11 1_555 1_555
C12 C11 1_555 1_555
H11 C12 1_555 1_555
H12 C12 1_555 1_555
C13 C8 1_555 1_555
N1 C13 1_555 1_555
N2 C1 1_555 1_555
O1 N1 1_555 1_555
O2 N2 1_555 1_555
O3 N2 1_555 1_555
O4 C7 1_555 1_555
C5 C6 1_555 1_555
C12 C13 1_555 1_555
N1 O4 1_555 1_555

#END
