
#######################################################################
#
#                 Cambridge Crystallographic Data Centre
#                                CCDC 
#
#######################################################################
#
# If this CIF has been generated from an entry in the Cambridge 
# Structural Database, then it will include bibliographic, chemical, 
# crystal, experimental, refinement or atomic coordinate data resulting 
# from the CCDC's data processing and validation procedures.
#
#######################################################################

data_OXEKAE
_chemical_formula_moiety         'C19 H26 N2 O4'
_chemical_name_systematic        
anti-3-(3-Nitrophenyl)-3,3a,4,5,6,7,8,9,10,11,12,13-dodecahydrocyclododeca(c)isoxazole-1-oxide
_symmetry_cell_setting           triclinic
_symmetry_space_group_name_H-M   'P -1'
_symmetry_Int_Tables_number      2
_space_group_name_Hall           '-P 1'
loop_
_symmetry_equiv_pos_site_id
_symmetry_equiv_pos_as_xyz
1 x,y,z
2 -x,-y,-z
_cell_length_a                   7.5626(3)
_cell_length_b                   10.9151(3)
_cell_length_c                   11.7483(3)
_cell_angle_alpha                108.6670(10)
_cell_angle_beta                 98.9220(10)
_cell_angle_gamma                100.8220(10)
_cell_volume                     877.966
_exptl_crystal_colour            colorless
_exptl_crystal_description       prism
_cell_formula_units_Z            2
loop_
_atom_site_label
_atom_site_type_symbol
_atom_site_fract_x
_atom_site_fract_y
_atom_site_fract_z
C1 C 0.8554(4) 0.6454(2) 0.9999(2)
C2 C 1.0437(4) 0.6693(3) 1.0107(3)
H1 H 1.1278 0.7152 1.0888
C3 C 1.1060(4) 0.6249(3) 0.9054(3)
H2 H 1.2353 0.6403 0.9103
C4 C 0.9828(3) 0.5577(2) 0.7912(2)
H3 H 1.0285 0.5280 0.7189
C5 C 0.7939(3) 0.5338(2) 0.7823(2)
C6 C 0.7288(3) 0.5779(2) 0.8882(2)
H4 H 0.5996 0.5621 0.8842
C7 C 0.6605(3) 0.4587(2) 0.6589(2)
H5 H 0.7252 0.4637 0.5919
C8 C 0.5714(3) 0.3102(2) 0.63535(19)
H6 H 0.5782 0.2983 0.7167
C9 C 0.6649(3) 0.2126(2) 0.55662(19)
H7 H 0.7926 0.2279 0.6034
H8 H 0.5975 0.1203 0.5432
C10 C 0.6730(3) 0.2238(2) 0.43098(19)
H9 H 0.5654 0.2547 0.4025
H10 H 0.7864 0.2922 0.4408
C11 C 0.6730(3) 0.0930(2) 0.3324(2)
H11 H 0.5710 0.0212 0.3322
H12 H 0.7907 0.0697 0.3547
C12 C 0.6508(3) 0.0967(2) 0.2016(2)
H13 H 0.7569 0.1648 0.2009
H14 H 0.6562 0.0089 0.1446
C13 C 0.4724(3) 0.1278(2) 0.1526(2)
H15 H 0.4773 0.1371 0.0720
H16 H 0.4661 0.2149 0.2102
C14 C 0.2945(3) 0.0223(2) 0.1357(2)
H17 H 0.2575 -0.0399 0.0487
H18 H 0.3216 -0.0301 0.1882
C15 C 0.1316(3) 0.0798(2) 0.1679(2)
H19 H 0.0203 0.0049 0.1452
H20 H 0.1069 0.1345 0.1173
C16 C 0.1611(3) 0.1660(2) 0.3041(2)
H21 H 0.2688 0.2434 0.3261
H22 H 0.0510 0.2010 0.3158
C17 C 0.1941(3) 0.0913(2) 0.3916(2)
H23 H 0.3073 0.0597 0.3826
H24 H 0.0890 0.0116 0.3673
C18 C 0.2153(3) 0.1757(2) 0.5274(2)
H25 H 0.0996 0.2037 0.5366
H26 H 0.2305 0.1187 0.5772
C19 C 0.3734(3) 0.2972(2) 0.57910(19)
N1 N 0.7871(5) 0.6942(3) 1.1121(2)
N2 N 0.3435(3) 0.41296(18) 0.59155(17)
O1 O 0.6171(6) 0.6751(3) 1.0998(2)
O2 O 0.8991(5) 0.7521(3) 1.2096(2)
O3 O 0.2001(2) 0.44984(17) 0.56555(15)
O4 O 0.5079(2) 0.52109(15) 0.65209(15)
loop_
_geom_bond_atom_site_label_1
_geom_bond_atom_site_label_2
_geom_bond_site_symmetry_1
_geom_bond_site_symmetry_2
C1 C2 1_555 1_555
C2 H1 1_555 1_555
C3 C2 1_555 1_555
H2 C3 1_555 1_555
C4 C3 1_555 1_555
H3 C4 1_555 1_555
C5 C4 1_555 1_555
C6 C1 1_555 1_555
H4 C6 1_555 1_555
C7 C5 1_555 1_555
H5 C7 1_555 1_555
C8 C7 1_555 1_555
H6 C8 1_555 1_555
C9 C8 1_555 1_555
H7 C9 1_555 1_555
H8 C9 1_555 1_555
C10 C9 1_555 1_555
H9 C10 1_555 1_555
H10 C10 1_555 1_555
C11 C10 1_555 1_555
H11 C11 1_555 1_555
H12 C11 1_555 1_555
C12 C11 1_555 1_555
H13 C12 1_555 1_555
H14 C12 1_555 1_555
C13 C12 1_555 1_555
H15 C13 1_555 1_555
H16 C13 1_555 1_555
C14 C13 1_555 1_555
H17 C14 1_555 1_555
H18 C14 1_555 1_555
C15 C14 1_555 1_555
H19 C15 1_555 1_555
H20 C15 1_555 1_555
C16 C15 1_555 1_555
H21 C16 1_555 1_555
H22 C16 1_555 1_555
C17 C16 1_555 1_555
H23 C17 1_555 1_555
H24 C17 1_555 1_555
C18 C17 1_555 1_555
H25 C18 1_555 1_555
H26 C18 1_555 1_555
C19 C8 1_555 1_555
N1 C1 1_555 1_555
N2 C19 1_555 1_555
O1 N1 1_555 1_555
O2 N1 1_555 1_555
O3 N2 1_555 1_555
O4 C7 1_555 1_555
C5 C6 1_555 1_555
C18 C19 1_555 1_555
N2 O4 1_555 1_555

#END
