
#######################################################################
#
#                 Cambridge Crystallographic Data Centre
#                                CCDC 
#
#######################################################################
#
# If this CIF has been generated from an entry in the Cambridge 
# Structural Database, then it will include bibliographic, chemical, 
# crystal, experimental, refinement or atomic coordinate data resulting 
# from the CCDC's data processing and validation procedures.
#
#######################################################################

data_OXIBON
_chemical_formula_moiety         'C58 H52 O6 P2'
_chemical_name_systematic        
4,4'-((4,6-Di-t-butyl-1,3-phenylene)bis(oxy))-bis(2,6-dimethyldinaphtho[2,1-d:1',2'-f][1,3,2]dioxaphosphepine)
_symmetry_cell_setting           orthorhombic
_symmetry_space_group_name_H-M   'P 21 21 21'
_symmetry_Int_Tables_number      19
_space_group_name_Hall           'P 2ac 2ab'
loop_
_symmetry_equiv_pos_site_id
_symmetry_equiv_pos_as_xyz
1 x,y,z
2 1/2-x,-y,1/2+z
3 -x,1/2+y,1/2-z
4 1/2+x,1/2-y,-z
_cell_length_a                   9.8619(2)
_cell_length_b                   18.1864(3)
_cell_length_c                   26.4065(5)
_cell_angle_alpha                90
_cell_angle_beta                 90
_cell_angle_gamma                90
_cell_volume                     4736.07
_exptl_crystal_colour            colorless
_exptl_crystal_description       'cut block'
_cell_formula_units_Z            4
loop_
_atom_site_label
_atom_site_type_symbol
_atom_site_fract_x
_atom_site_fract_y
_atom_site_fract_z
P1 P 0.66927(7) 0.41971(4) 0.15019(2)
P2 P 0.46861(7) 0.49184(4) 0.33500(2)
O1 O 0.66789(18) 0.50888(9) 0.14519(6)
O2 O 0.73375(17) 0.40824(9) 0.09301(6)
O3 O 0.80402(18) 0.40746(9) 0.18517(5)
O4 O 0.38334(18) 0.53816(9) 0.29290(6)
O5 O 0.38801(18) 0.52983(9) 0.38282(6)
O6 O 0.39316(18) 0.41226(9) 0.33378(5)
C1 C 0.5270(3) 0.52433(13) 0.21981(8)
H1 H 0.5407 0.4742 0.2285
C2 C 0.5878(3) 0.55304(13) 0.17664(8)
C3 C 0.5717(3) 0.62684(13) 0.16343(8)
C4 C 0.4877(3) 0.66779(13) 0.19523(8)
H2 H 0.4739 0.7180 0.1866
C5 C 0.4221(3) 0.64198(13) 0.23848(8)
C6 C 0.4463(2) 0.56858(13) 0.25026(8)
C7 C 0.6426(3) 0.66467(13) 0.11873(9)
C8 C 0.7927(3) 0.6714(2) 0.13171(13)
H3 H 0.8322 0.6222 0.1350
H4 H 0.8029 0.6980 0.1637
H5 H 0.8395 0.6983 0.1047
C9 C 0.6189(4) 0.62434(16) 0.06888(9)
H6 H 0.6621 0.6516 0.0412
H7 H 0.5212 0.6206 0.0625
H8 H 0.6581 0.5749 0.0709
C10 C 0.5864(3) 0.74285(14) 0.11096(10)
H9 H 0.6326 0.7661 0.0823
H10 H 0.6018 0.7720 0.1416
H11 H 0.4889 0.7402 0.1040
C11 C 0.3368(3) 0.69379(14) 0.27139(9)
C12 C 0.3188(4) 0.76880(16) 0.24534(10)
H12 H 0.2776 0.7617 0.2119
H13 H 0.4075 0.7924 0.2414
H14 H 0.2600 0.8001 0.2661
C13 C 0.1955(3) 0.66356(17) 0.28110(11)
H15 H 0.1469 0.6589 0.2489
H16 H 0.1460 0.6971 0.3035
H17 H 0.2025 0.6151 0.2972
C14 C 0.4127(4) 0.70679(15) 0.32135(9)
H18 H 0.3648 0.7441 0.3413
H19 H 0.5050 0.7239 0.3141
H20 H 0.4169 0.6607 0.3406
C15 C 0.7942(3) 0.33852(14) 0.08754(8)
C16 C 0.7204(3) 0.28234(14) 0.06236(8)
C17 C 0.7766(3) 0.21391(14) 0.06176(8)
H21 H 0.7294 0.1754 0.0450
C18 C 0.9021(3) 0.19775(13) 0.08498(8)
C19 C 0.9524(3) 0.12508(14) 0.08895(9)
H22 H 0.9019 0.0859 0.0744
C20 C 1.0715(3) 0.10989(15) 0.11313(10)
H23 H 1.1025 0.0606 0.1158
C21 C 1.1482(3) 0.16775(14) 0.13411(9)
H24 H 1.2320 0.1573 0.1503
C22 C 1.1034(3) 0.23837(14) 0.13140(9)
H25 H 1.1564 0.2766 0.1459
C23 C 0.9785(3) 0.25596(13) 0.10724(8)
C24 C 0.9223(3) 0.32853(13) 0.10715(8)
C25 C 0.9926(3) 0.39271(13) 0.12980(8)
C26 C 1.1193(3) 0.41868(13) 0.11074(8)
C27 C 1.1842(3) 0.38677(14) 0.06800(8)
H26 H 1.1446 0.3455 0.0516
C28 C 1.3034(3) 0.41526(15) 0.05046(9)
H27 H 1.3455 0.3936 0.0217
C29 C 1.3644(3) 0.47533(15) 0.07384(9)
H28 H 1.4482 0.4938 0.0615
C30 C 1.3032(3) 0.50788(15) 0.11480(9)
H29 H 1.3450 0.5491 0.1304
C31 C 1.1799(3) 0.48114(13) 0.13393(8)
C32 C 1.1134(3) 0.51563(14) 0.17536(8)
H30 H 1.1564 0.5561 0.1915
C33 C 0.9900(3) 0.49284(13) 0.19291(8)
C34 C 0.9314(3) 0.43162(13) 0.16860(8)
C35 C 0.5835(3) 0.29905(16) 0.04006(10)
H31 H 0.5507 0.2561 0.0213
H32 H 0.5910 0.3411 0.0170
H33 H 0.5197 0.3108 0.0673
C36 C 0.9178(3) 0.53052(15) 0.23633(9)
H34 H 0.9829 0.5600 0.2556
H35 H 0.8772 0.4934 0.2585
H36 H 0.8464 0.5626 0.2229
C37 C 0.3853(3) 0.48815(14) 0.42777(8)
C38 C 0.4799(3) 0.50825(16) 0.46623(9)
C39 C 0.4784(3) 0.46590(18) 0.50930(9)
H37 H 0.5390 0.4778 0.5360
C40 C 0.3899(3) 0.40534(16) 0.51540(9)
C41 C 0.3961(4) 0.3597(2) 0.55940(10)
H38 H 0.4578 0.3716 0.5858
C42 C 0.3153(4) 0.29960(19) 0.56410(10)
H39 H 0.3213 0.2697 0.5935
C43 C 0.2233(3) 0.28153(18) 0.52571(10)
H40 H 0.1680 0.2390 0.5290
C44 C 0.2126(3) 0.32490(15) 0.48333(9)
H41 H 0.1487 0.3124 0.4578
C45 C 0.2956(3) 0.38816(15) 0.47694(8)
C46 C 0.2930(3) 0.43283(14) 0.43176(8)
C47 C 0.1999(3) 0.41701(13) 0.38874(8)
C48 C 0.0558(3) 0.41367(13) 0.39438(8)
C49 C -0.0118(3) 0.43222(13) 0.44037(9)
H42 H 0.0397 0.4468 0.4690
C50 C -0.1500(3) 0.42923(14) 0.44363(9)
H43 H -0.1932 0.4419 0.4746
C51 C -0.2286(3) 0.40797(15) 0.40231(10)
H44 H -0.3245 0.4053 0.4055
C52 C -0.1688(3) 0.39104(14) 0.35765(10)
H45 H -0.2237 0.3775 0.3296
C53 C -0.0256(3) 0.39308(13) 0.35190(9)
C54 C 0.0388(3) 0.37695(14) 0.30551(9)
H46 H -0.0151 0.3610 0.2778
C55 C 0.1754(3) 0.38330(13) 0.29891(8)
C56 C 0.2531(3) 0.40543(13) 0.34109(8)
C57 C 0.5738(3) 0.57168(17) 0.45943(11)
H47 H 0.6291 0.5778 0.4900
H48 H 0.5211 0.6165 0.4535
H49 H 0.6332 0.5625 0.4303
C58 C 0.2440(3) 0.36624(16) 0.24946(9)
H50 H 0.1757 0.3523 0.2243
H51 H 0.3079 0.3255 0.2542
H52 H 0.2932 0.4098 0.2376
loop_
_geom_bond_atom_site_label_1
_geom_bond_atom_site_label_2
_geom_bond_site_symmetry_1
_geom_bond_site_symmetry_2
P1 O1 1_555 1_555
P2 O4 1_555 1_555
O1 C2 1_555 1_555
O2 P1 1_555 1_555
O3 P1 1_555 1_555
O4 C6 1_555 1_555
O5 P2 1_555 1_555
O6 P2 1_555 1_555
C1 H1 1_555 1_555
C2 C1 1_555 1_555
C3 C2 1_555 1_555
C4 C3 1_555 1_555
H2 C4 1_555 1_555
C5 C4 1_555 1_555
C6 C1 1_555 1_555
C7 C3 1_555 1_555
C8 C7 1_555 1_555
H3 C8 1_555 1_555
H4 C8 1_555 1_555
H5 C8 1_555 1_555
C9 C7 1_555 1_555
H6 C9 1_555 1_555
H7 C9 1_555 1_555
H8 C9 1_555 1_555
C10 C7 1_555 1_555
H9 C10 1_555 1_555
H10 C10 1_555 1_555
H11 C10 1_555 1_555
C11 C5 1_555 1_555
C12 C11 1_555 1_555
H12 C12 1_555 1_555
H13 C12 1_555 1_555
H14 C12 1_555 1_555
C13 C11 1_555 1_555
H15 C13 1_555 1_555
H16 C13 1_555 1_555
H17 C13 1_555 1_555
C14 C11 1_555 1_555
H18 C14 1_555 1_555
H19 C14 1_555 1_555
H20 C14 1_555 1_555
C15 O2 1_555 1_555
C16 C15 1_555 1_555
C17 C16 1_555 1_555
H21 C17 1_555 1_555
C18 C17 1_555 1_555
C19 C18 1_555 1_555
H22 C19 1_555 1_555
C20 C19 1_555 1_555
H23 C20 1_555 1_555
C21 C20 1_555 1_555
H24 C21 1_555 1_555
C22 C21 1_555 1_555
H25 C22 1_555 1_555
C23 C18 1_555 1_555
C24 C15 1_555 1_555
C25 C24 1_555 1_555
C26 C25 1_555 1_555
C27 C26 1_555 1_555
H26 C27 1_555 1_555
C28 C27 1_555 1_555
H27 C28 1_555 1_555
C29 C28 1_555 1_555
H28 C29 1_555 1_555
C30 C29 1_555 1_555
H29 C30 1_555 1_555
C31 C26 1_555 1_555
C32 C31 1_555 1_555
H30 C32 1_555 1_555
C33 C32 1_555 1_555
C34 O3 1_555 1_555
C35 C16 1_555 1_555
H31 C35 1_555 1_555
H32 C35 1_555 1_555
H33 C35 1_555 1_555
C36 C33 1_555 1_555
H34 C36 1_555 1_555
H35 C36 1_555 1_555
H36 C36 1_555 1_555
C37 O5 1_555 1_555
C38 C37 1_555 1_555
C39 C38 1_555 1_555
H37 C39 1_555 1_555
C40 C39 1_555 1_555
C41 C40 1_555 1_555
H38 C41 1_555 1_555
C42 C41 1_555 1_555
H39 C42 1_555 1_555
C43 C42 1_555 1_555
H40 C43 1_555 1_555
C44 C43 1_555 1_555
H41 C44 1_555 1_555
C45 C40 1_555 1_555
C46 C37 1_555 1_555
C47 C46 1_555 1_555
C48 C47 1_555 1_555
C49 C48 1_555 1_555
H42 C49 1_555 1_555
C50 C49 1_555 1_555
H43 C50 1_555 1_555
C51 C50 1_555 1_555
H44 C51 1_555 1_555
C52 C51 1_555 1_555
H45 C52 1_555 1_555
C53 C48 1_555 1_555
C54 C53 1_555 1_555
H46 C54 1_555 1_555
C55 C54 1_555 1_555
C56 O6 1_555 1_555
C57 C38 1_555 1_555
H47 C57 1_555 1_555
H48 C57 1_555 1_555
H49 C57 1_555 1_555
C58 C55 1_555 1_555
H50 C58 1_555 1_555
H51 C58 1_555 1_555
H52 C58 1_555 1_555
C5 C6 1_555 1_555
C22 C23 1_555 1_555
C23 C24 1_555 1_555
C25 C34 1_555 1_555
C30 C31 1_555 1_555
C33 C34 1_555 1_555
C44 C45 1_555 1_555
C45 C46 1_555 1_555
C47 C56 1_555 1_555
C52 C53 1_555 1_555
C55 C56 1_555 1_555

#END
