
#######################################################################
#
#                 Cambridge Crystallographic Data Centre
#                                CCDC 
#
#######################################################################
#
# If this CIF has been generated from an entry in the Cambridge 
# Structural Database, then it will include bibliographic, chemical, 
# crystal, experimental, refinement or atomic coordinate data resulting 
# from the CCDC's data processing and validation procedures.
#
#######################################################################

data_OXIGOS01
_chemical_formula_moiety         'C16 H16 Cl1 N1 O4'
_chemical_name_systematic        
(2R,3R)-3-(4-chlorophenyl)-6,6-dimethyl-2-nitro-3,5,6,7-tetrahydrobenzofuran-4(2H)-one
_symmetry_cell_setting           orthorhombic
_symmetry_space_group_name_H-M   'P 21 21 21'
_symmetry_Int_Tables_number      19
_space_group_name_Hall           'P 2ac 2ab'
loop_
_symmetry_equiv_pos_site_id
_symmetry_equiv_pos_as_xyz
1 x,y,z
2 1/2-x,-y,1/2+z
3 -x,1/2+y,1/2-z
4 1/2+x,1/2-y,-z
_cell_length_a                   6.5152(5)
_cell_length_b                   7.3573(6)
_cell_length_c                   32.354(3)
_cell_angle_alpha                90
_cell_angle_beta                 90
_cell_angle_gamma                90
_cell_volume                     1550.87
_exptl_crystal_colour            colorless
_exptl_crystal_description       block
_chemical_melting_point          '135 deg.C'
_cell_formula_units_Z            4
_chemical_properties_physical    Heat-sensitive
_exptl_crystal_recrystallization_method dichloromethane
_exptl_crystal_preparation       'Magnetic properties'
loop_
_atom_site_label
_atom_site_type_symbol
_atom_site_fract_x
_atom_site_fract_y
_atom_site_fract_z
Cl1 Cl 0.96320(13) 0.85694(9) 0.80338(2)
O1 O 0.65068(17) 0.90263(14) 0.58440(4)
O2 O 0.5637(2) 0.33753(16) 0.64417(4)
O3 O 0.2744(2) 0.9205(2) 0.55936(5)
O4 O 0.1598(2) 1.0041(2) 0.61929(6)
N1 N 0.2956(2) 0.9523(2) 0.59607(5)
C1 C 0.5058(2) 0.9269(2) 0.61642(5)
H1 H 0.5418 1.0354 0.6335
C2 C 0.5040(2) 0.75190(19) 0.64349(5)
H2 H 0.3601 0.7103 0.6486
C3 C 0.6122(2) 0.6250(2) 0.61382(5)
C4 C 0.6372(2) 0.4285(2) 0.61629(5)
C5 C 0.7524(2) 0.3436(2) 0.58020(5)
H3 H 0.6515 0.3093 0.5587
H4 H 0.8191 0.2306 0.5899
C6 C 0.9174(2) 0.4658(2) 0.56024(5)
C7 C 0.8217(2) 0.6512(2) 0.54806(5)
H5 H 0.9320 0.7396 0.5419
H6 H 0.7365 0.6365 0.5230
C8 C 0.6934(2) 0.7198(2) 0.58252(5)
C9 C 1.0936(2) 0.4960(2) 0.59083(6)
H7 H 1.0447 0.5690 0.6142
H8 H 1.2061 0.5599 0.5769
H9 H 1.1429 0.3782 0.6010
C10 C 1.0016(3) 0.3712(3) 0.52167(5)
H10 H 1.0623 0.2543 0.5295
H11 H 1.1067 0.4480 0.5089
H12 H 0.8897 0.3508 0.5020
C11 C 0.6177(2) 0.7779(2) 0.68398(5)
C12 C 0.5282(3) 0.7290(2) 0.72134(5)
H13 H 0.3939 0.6786 0.7215
C13 C 0.6326(4) 0.7527(3) 0.75849(6)
H14 H 0.5707 0.7196 0.7840
C14 C 0.8284(4) 0.8253(3) 0.75750(6)
C15 C 0.9205(3) 0.8759(3) 0.72071(6)
H15 H 1.0547 0.9265 0.7206
C16 C 0.8145(3) 0.8518(3) 0.68414(5)
H16 H 0.8767 0.8860 0.6587
loop_
_geom_bond_atom_site_label_1
_geom_bond_atom_site_label_2
_geom_bond_site_symmetry_1
_geom_bond_site_symmetry_2
Cl1 C14 1_555 1_555
O1 C1 1_555 1_555
O2 C4 1_555 1_555
O3 N1 1_555 1_555
O4 N1 1_555 1_555
N1 C1 1_555 1_555
C1 H1 1_555 1_555
C2 C1 1_555 1_555
H2 C2 1_555 1_555
C3 C2 1_555 1_555
C4 C3 1_555 1_555
C5 C4 1_555 1_555
H3 C5 1_555 1_555
H4 C5 1_555 1_555
C6 C5 1_555 1_555
C7 C6 1_555 1_555
H5 C7 1_555 1_555
H6 C7 1_555 1_555
C8 O1 1_555 1_555
C9 C6 1_555 1_555
H7 C9 1_555 1_555
H8 C9 1_555 1_555
H9 C9 1_555 1_555
C10 C6 1_555 1_555
H10 C10 1_555 1_555
H11 C10 1_555 1_555
H12 C10 1_555 1_555
C11 C2 1_555 1_555
C12 C11 1_555 1_555
H13 C12 1_555 1_555
C13 C12 1_555 1_555
H14 C13 1_555 1_555
C14 C13 1_555 1_555
C15 C14 1_555 1_555
H15 C15 1_555 1_555
C16 C11 1_555 1_555
H16 C16 1_555 1_555
C3 C8 1_555 1_555
C7 C8 1_555 1_555
C15 C16 1_555 1_555

#END
