
#######################################################################
#
#                 Cambridge Crystallographic Data Centre
#                                CCDC 
#
#######################################################################
#
# If this CIF has been generated from an entry in the Cambridge 
# Structural Database, then it will include bibliographic, chemical, 
# crystal, experimental, refinement or atomic coordinate data resulting 
# from the CCDC's data processing and validation procedures.
#
#######################################################################

data_OXIKOX
_chemical_formula_moiety         'C47 H32 N2'
_chemical_name_systematic        
2-(4'-(2,2-diphenylvinyl)biphenyl-3-yl)-1-phenyl-1H-phenanthro[9,10-d]imidazole
_symmetry_cell_setting           monoclinic
_symmetry_space_group_name_H-M   'P 21'
_symmetry_Int_Tables_number      4
_space_group_name_Hall           'P 2yb'
loop_
_symmetry_equiv_pos_site_id
_symmetry_equiv_pos_as_xyz
1 x,y,z
2 -x,1/2+y,-z
_cell_length_a                   12.390(3)
_cell_length_b                   5.9175(12)
_cell_length_c                   23.356(5)
_cell_angle_alpha                90
_cell_angle_beta                 95.62(3)
_cell_angle_gamma                90
_cell_volume                     1704.18
_exptl_crystal_colour            colorless
_exptl_crystal_description       needle
_cell_formula_units_Z            2
loop_
_atom_site_label
_atom_site_type_symbol
_atom_site_fract_x
_atom_site_fract_y
_atom_site_fract_z
N1 N 0.2554(3) 0.1368(5) 0.15087(12)
C1 C 0.3075(3) -0.0176(6) 0.11744(15)
C2 C 0.2200(3) 0.5961(6) 0.29968(14)
C3 C 0.2939(3) 0.7755(6) 0.30301(16)
H1 H 0.2849 0.8950 0.3280
C4 C 0.2631(3) -0.1764(6) 0.07446(15)
C5 C 0.2342(3) 0.4235(6) 0.26071(15)
H2 H 0.1861 0.3025 0.2580
C6 C 0.1408(3) 0.1505(6) 0.15571(14)
C7 C 0.4161(3) 0.0072(7) 0.13333(14)
C8 C 0.3924(3) 0.6055(6) 0.23117(15)
H3 H 0.4503 0.6089 0.2087
C9 C 0.4555(4) -0.3213(7) 0.07673(16)
C10 C 0.3191(3) 0.4278(6) 0.22562(14)
C11 C -0.0426(3) 0.5692(7) 0.40781(15)
C12 C 0.3401(4) -0.3323(7) 0.05521(15)
C13 C 0.4943(4) -0.1416(7) 0.11315(16)
C14 C 0.1566(4) -0.1784(8) 0.04914(16)
H4 H 0.1078 -0.0718 0.0605
C15 C -0.2964(3) 0.5016(6) 0.49180(14)
C16 C 0.1294(3) 0.5898(6) 0.33674(15)
C17 C 0.6038(4) -0.1304(8) 0.13272(17)
H5 H 0.6287 -0.0113 0.1564
N2 N 0.4342(3) 0.1772(5) 0.17393(12)
C18 C -0.1262(3) 0.5646(6) 0.44819(15)
H6 H -0.1068 0.6415 0.4824
C19 C 0.0307(3) 0.5016(8) 0.31695(16)
H7 H 0.0205 0.4477 0.2794
C20 C -0.2246(3) 0.4712(6) 0.44526(14)
C21 C 0.6755(4) -0.2891(9) 0.1181(2)
H8 H 0.7485 -0.2780 0.1315
C22 C -0.3542(4) 0.7130(8) 0.57187(17)
H9 H -0.3479 0.8398 0.5955
C23 C 0.1405(3) 0.6769(7) 0.39169(15)
H10 H 0.2055 0.7451 0.4057
C24 C -0.0544(3) 0.4900(8) 0.35096(16)
H11 H -0.1203 0.4288 0.3359
C25 C -0.3705(3) 0.3372(8) 0.50276(16)
H12 H -0.3763 0.2083 0.4799
C26 C 0.3796(3) 0.7774(7) 0.26990(16)
H13 H 0.4294 0.8953 0.2736
C27 C 0.0832(4) 0.3384(7) 0.13479(17)
H14 H 0.1180 0.4543 0.1169
C28 C -0.4363(4) 0.3594(9) 0.54686(17)
H15 H -0.4860 0.2465 0.5531
C29 C -0.2663(3) 0.3252(6) 0.39592(14)
C30 C 0.0563(3) 0.6644(7) 0.42641(16)
H16 H 0.0667 0.7223 0.4636
C31 C -0.0195(4) -0.0031(10) 0.1888(2)
H17 H -0.0548 -0.1174 0.2070
C32 C -0.4286(4) 0.5453(9) 0.58125(18)
H18 H -0.4731 0.5599 0.6109
C33 C -0.3485(3) 0.3912(7) 0.35566(16)
H19 H -0.3837 0.5275 0.3608
C34 C 0.3375(3) 0.2455(6) 0.18408(15)
C35 C -0.0264(4) 0.3520(10) 0.1407(2)
H20 H -0.0661 0.4763 0.1262
C36 C -0.3330(5) 0.0534(8) 0.3011(2)
H21 H -0.3541 -0.0356 0.2692
C37 C -0.2209(4) 0.1107(7) 0.38912(18)
H22 H -0.1677 0.0561 0.4165
C38 C 0.0905(3) -0.0206(8) 0.18290(17)
H23 H 0.1297 -0.1460 0.1971
C39 C -0.2896(4) 0.6914(7) 0.52748(17)
H24 H -0.2404 0.8054 0.5211
C40 C -0.3804(4) 0.2618(9) 0.30797(18)
H25 H -0.4337 0.3146 0.2804
C41 C 0.5321(5) -0.4844(8) 0.06165(18)
H26 H 0.5095 -0.6028 0.0372
C42 C -0.2552(5) -0.0190(8) 0.3419(2)
H27 H -0.2241 -0.1604 0.3377
C43 C 0.2999(5) -0.4945(8) 0.01419(19)
H28 H 0.3468 -0.6038 0.0023
C44 C 0.6387(5) -0.4687(9) 0.0827(2)
H29 H 0.6874 -0.5793 0.0734
C45 C 0.1220(4) -0.3335(9) 0.00791(18)
H30 H 0.0509 -0.3310 -0.0090
C46 C -0.0764(4) 0.1844(11) 0.1676(2)
H31 H -0.1500 0.1959 0.1719
C47 C 0.1945(5) -0.4949(9) -0.0083(2)
H32 H 0.1706 -0.6050 -0.0350
loop_
_geom_bond_atom_site_label_1
_geom_bond_atom_site_label_2
_geom_bond_site_symmetry_1
_geom_bond_site_symmetry_2
N1 C1 1_555 1_555
C1 C4 1_555 1_555
C2 C3 1_555 1_555
C3 H1 1_555 1_555
C4 C12 1_555 1_555
C5 C2 1_555 1_555
H2 C5 1_555 1_555
C6 N1 1_555 1_555
C7 C1 1_555 1_555
C8 H3 1_555 1_555
C9 C12 1_555 1_555
C10 C5 1_555 1_555
C11 C18 1_555 1_555
C12 C43 1_555 1_555
C13 C7 1_555 1_555
C14 C4 1_555 1_555
H4 C14 1_555 1_555
C15 C20 1_555 1_555
C16 C2 1_555 1_555
C17 C13 1_555 1_555
H5 C17 1_555 1_555
N2 C7 1_555 1_555
C18 H6 1_555 1_555
C19 C16 1_555 1_555
H7 C19 1_555 1_555
C20 C18 1_555 1_555
C21 C17 1_555 1_555
H8 C21 1_555 1_555
C22 H9 1_555 1_555
C23 C16 1_555 1_555
H10 C23 1_555 1_555
C24 C11 1_555 1_555
H11 C24 1_555 1_555
C25 C15 1_555 1_555
H12 C25 1_555 1_555
C26 C3 1_555 1_555
H13 C26 1_555 1_555
C27 C6 1_555 1_555
H14 C27 1_555 1_555
C28 C25 1_555 1_555
H15 C28 1_555 1_555
C29 C20 1_555 1_555
C30 C11 1_555 1_555
H16 C30 1_555 1_555
C31 H17 1_555 1_555
C32 C22 1_555 1_555
H18 C32 1_555 1_555
C33 C29 1_555 1_555
H19 C33 1_555 1_555
C34 N1 1_555 1_555
C35 C27 1_555 1_555
H20 C35 1_555 1_555
C36 H21 1_555 1_555
C37 C29 1_555 1_555
H22 C37 1_555 1_555
C38 C6 1_555 1_555
H23 C38 1_555 1_555
C39 C15 1_555 1_555
H24 C39 1_555 1_555
C40 C33 1_555 1_555
H25 C40 1_555 1_555
C41 C9 1_555 1_555
H26 C41 1_555 1_555
C42 C36 1_555 1_555
H27 C42 1_555 1_555
C43 H28 1_555 1_555
C44 C21 1_555 1_555
H29 C44 1_555 1_555
C45 C14 1_555 1_555
H30 C45 1_555 1_555
C46 C31 1_555 1_555
H31 C46 1_555 1_555
C47 C43 1_555 1_555
H32 C47 1_555 1_555
C8 C10 1_555 1_555
C8 C26 1_555 1_555
C9 C13 1_555 1_555
C10 C34 1_555 1_555
N2 C34 1_555 1_555
C19 C24 1_555 1_555
C22 C39 1_555 1_555
C23 C30 1_555 1_555
C28 C32 1_555 1_555
C31 C38 1_555 1_555
C35 C46 1_555 1_555
C36 C40 1_555 1_555
C37 C42 1_555 1_555
C41 C44 1_555 1_555
C45 C47 1_555 1_555

#END
