
#######################################################################
#
#                 Cambridge Crystallographic Data Centre
#                                CCDC 
#
#######################################################################
#
# If this CIF has been generated from an entry in the Cambridge 
# Structural Database, then it will include bibliographic, chemical, 
# crystal, experimental, refinement or atomic coordinate data resulting 
# from the CCDC's data processing and validation procedures.
#
#######################################################################

data_OXINIU
_chemical_formula_moiety         'C20 H15 Cl1 F4 N4 O1'
_chemical_name_systematic        
(2-chloro-3-(trifluoromethyl)phenyl)(1-(5-fluoropyridin-2-yl)-4-methyl-1,4,6,7-tetrahydro-5H-imidazo[4,5-c]pyridin-5-yl)methanone
_chemical_properties_biological  bioactivity
_symmetry_cell_setting           orthorhombic
_symmetry_space_group_name_H-M   'P 21 21 21'
_symmetry_Int_Tables_number      19
_space_group_name_Hall           'P 2ac 2ab'
loop_
_symmetry_equiv_pos_site_id
_symmetry_equiv_pos_as_xyz
1 x,y,z
2 1/2-x,-y,1/2+z
3 -x,1/2+y,1/2-z
4 1/2+x,1/2-y,-z
_cell_length_a                   11.1795(2)
_cell_length_b                   11.9674(3)
_cell_length_c                   14.0350(3)
_cell_angle_alpha                90
_cell_angle_beta                 90
_cell_angle_gamma                90
_cell_volume                     1877.74
_exptl_crystal_colour            colorless
_exptl_crystal_description       Prism
_cell_formula_units_Z            4
loop_
_atom_site_label
_atom_site_type_symbol
_atom_site_fract_x
_atom_site_fract_y
_atom_site_fract_z
Cl1 Cl 0.64840(8) 0.10881(7) 0.75867(7)
F1 F 0.3265(2) -0.4267(2) 0.41120(19)
F2 F 0.9170(2) 0.0678(2) 0.7351(2)
F3 F 1.0285(2) 0.1932(2) 0.7989(2)
F4 F 0.8776(2) 0.1288(2) 0.87570(19)
O1 O 0.4583(2) 0.3786(2) 0.7601(2)
N1 N 0.1901(3) -0.1607(3) 0.4566(2)
N2 N 0.2487(3) -0.0086(3) 0.5496(2)
N3 N 0.1447(3) 0.1407(3) 0.5971(2)
N4 N 0.4493(3) 0.2594(3) 0.6350(2)
C1 C 0.3100(4) -0.3240(3) 0.4489(3)
C2 C 0.2097(4) -0.2644(3) 0.4234(3)
H1 H 0.1532 -0.2973 0.3814
C3 C 0.2711(3) -0.1188(3) 0.5168(3)
C4 C 0.3717(3) -0.1761(3) 0.5480(3)
H2 H 0.4248 -0.1436 0.5930
C5 C 0.3922(4) -0.2821(3) 0.5116(3)
H3 H 0.4607 -0.3240 0.5296
C6 C 0.1374(3) 0.0373(3) 0.5663(3)
H4 H 0.0642 -0.0013 0.5568
C7 C 0.2662(3) 0.1635(3) 0.5991(3)
C8 C 0.3176(3) 0.2723(3) 0.6314(3)
H5 H 0.2881 0.2878 0.6974
C9 C 0.5050(3) 0.1936(3) 0.5575(3)
H6 H 0.5931 0.1968 0.5639
H7 H 0.4834 0.2269 0.4952
C10 C 0.4644(3) 0.0717(3) 0.5598(3)
H8 H 0.4870 0.0333 0.5001
H9 H 0.5019 0.0320 0.6140
C11 C 0.3310(3) 0.0736(3) 0.5709(3)
C12 C 0.2833(4) 0.3706(4) 0.5676(4)
H10 H 0.3210 0.4389 0.5917
H11 H 0.1962 0.3797 0.5679
H12 H 0.3107 0.3562 0.5025
C13 C 0.5093(3) 0.3189(3) 0.7003(3)
C14 C 0.6435(4) 0.3233(3) 0.7005(3)
C15 C 0.7148(3) 0.2365(3) 0.7337(3)
C16 C 0.8389(3) 0.2521(3) 0.7463(3)
C17 C 0.8892(4) 0.3533(4) 0.7251(3)
H13 H 0.9727 0.3641 0.7337
C18 C 0.8190(4) 0.4406(4) 0.6909(3)
H14 H 0.8558 0.5094 0.6741
C19 C 0.7016(4) 0.4294(4) 0.6814(3)
H15 H 0.6549 0.4916 0.6618
C20 C 0.9145(4) 0.1603(4) 0.7889(3)
loop_
_geom_bond_atom_site_label_1
_geom_bond_atom_site_label_2
_geom_bond_site_symmetry_1
_geom_bond_site_symmetry_2
Cl1 C15 1_555 1_555
F1 C1 1_555 1_555
F2 C20 1_555 1_555
F3 C20 1_555 1_555
F4 C20 1_555 1_555
O1 C13 1_555 1_555
N1 C2 1_555 1_555
N2 C3 1_555 1_555
N3 C6 1_555 1_555
N4 C8 1_555 1_555
C1 C2 1_555 1_555
C2 H1 1_555 1_555
C3 N1 1_555 1_555
C4 C3 1_555 1_555
H2 C4 1_555 1_555
C5 C1 1_555 1_555
H3 C5 1_555 1_555
C6 N2 1_555 1_555
H4 C6 1_555 1_555
C7 N3 1_555 1_555
C8 C7 1_555 1_555
H5 C8 1_555 1_555
C9 N4 1_555 1_555
H6 C9 1_555 1_555
H7 C9 1_555 1_555
C10 C9 1_555 1_555
H8 C10 1_555 1_555
H9 C10 1_555 1_555
C11 N2 1_555 1_555
C12 C8 1_555 1_555
H10 C12 1_555 1_555
H11 C12 1_555 1_555
H12 C12 1_555 1_555
C13 N4 1_555 1_555
C14 C13 1_555 1_555
C15 C14 1_555 1_555
C16 C15 1_555 1_555
C17 C16 1_555 1_555
H13 C17 1_555 1_555
C18 C17 1_555 1_555
H14 C18 1_555 1_555
C19 C14 1_555 1_555
H15 C19 1_555 1_555
C20 C16 1_555 1_555
C4 C5 1_555 1_555
C7 C11 1_555 1_555
C10 C11 1_555 1_555
C18 C19 1_555 1_555

#END
