
#######################################################################
#
#                 Cambridge Crystallographic Data Centre
#                                CCDC 
#
#######################################################################
#
# If this CIF has been generated from an entry in the Cambridge 
# Structural Database, then it will include bibliographic, chemical, 
# crystal, experimental, refinement or atomic coordinate data resulting 
# from the CCDC's data processing and validation procedures.
#
#######################################################################

data_OXIXID
_chemical_formula_moiety         'C28 H25 N1 O2 S1'
_chemical_name_systematic        
1-(4-Methylphenyl)-2-((4-methylphenyl)sulfonyl)-3-phenylisoindoline
_symmetry_cell_setting           monoclinic
_symmetry_space_group_name_H-M   'P 21/n'
_symmetry_Int_Tables_number      14
_space_group_name_Hall           '-P 2yn'
loop_
_symmetry_equiv_pos_site_id
_symmetry_equiv_pos_as_xyz
1 x,y,z
2 1/2-x,1/2+y,1/2-z
3 -x,-y,-z
4 1/2+x,1/2-y,1/2+z
_cell_length_a                   9.3002(4)
_cell_length_b                   12.6601(5)
_cell_length_c                   18.6031(9)
_cell_angle_alpha                90
_cell_angle_beta                 92.463(2)
_cell_angle_gamma                90
_cell_volume                     2188.33
_exptl_crystal_colour            colorless
_exptl_crystal_description       block
_cell_formula_units_Z            4
loop_
_atom_site_label
_atom_site_type_symbol
_atom_site_fract_x
_atom_site_fract_y
_atom_site_fract_z
C1 C -0.0497(3) 0.6361(2) 0.51193(15)
H1 H -0.0939 0.5687 0.5152
C2 C -0.0763(4) 0.6994(3) 0.45212(17)
H2 H -0.1388 0.6750 0.4139
C3 C -0.0120(4) 0.7986(3) 0.44754(19)
H3 H -0.0315 0.8413 0.4063
C4 C 0.0799(4) 0.8354(3) 0.50250(18)
H4 H 0.1237 0.9030 0.4995
C5 C 0.1066(3) 0.7713(2) 0.56199(16)
C6 C 0.0427(3) 0.6728(2) 0.56709(15)
C7 C 0.0857(3) 0.6171(2) 0.63615(15)
H5 H 0.1398 0.5514 0.6245
C8 C -0.0406(3) 0.5874(2) 0.68085(14)
C9 C -0.1539(3) 0.6573(2) 0.69100(15)
H6 H -0.1533 0.7252 0.6693
C10 C -0.2675(3) 0.6279(2) 0.73279(16)
H7 H -0.3439 0.6761 0.7398
C11 C -0.2703(3) 0.5277(3) 0.76477(16)
C12 C -0.3872(4) 0.4959(3) 0.81336(19)
H8 H -0.4028 0.4195 0.8098
H9 H -0.4764 0.5329 0.7989
H10 H -0.3590 0.5145 0.8631
C13 C -0.1604(3) 0.4579(2) 0.75252(16)
H11 H -0.1628 0.3890 0.7727
C14 C -0.0466(3) 0.4869(2) 0.71124(15)
H12 H 0.0284 0.4377 0.7035
C15 C 0.2065(3) 0.7940(2) 0.62646(15)
H13 H 0.1715 0.8566 0.6534
C16 C 0.3595(3) 0.8129(2) 0.60343(14)
C17 C 0.4112(3) 0.9153(2) 0.59915(16)
H14 H 0.3541 0.9730 0.6138
C18 C 0.5481(4) 0.9331(2) 0.57318(17)
H15 H 0.5829 1.0034 0.5697
C19 C 0.6329(4) 0.8506(3) 0.55258(16)
H16 H 0.7257 0.8634 0.5350
C20 C 0.5804(3) 0.7478(2) 0.55785(16)
H17 H 0.6382 0.6901 0.5439
C21 C 0.4459(3) 0.7292(2) 0.58303(16)
H18 H 0.4117 0.6587 0.5866
C22 C 0.1263(3) 0.7585(2) 0.80569(14)
C23 C 0.1345(3) 0.8681(2) 0.80949(15)
H19 H 0.2058 0.9053 0.7846
C24 C 0.0369(3) 0.9224(2) 0.85015(16)
H20 H 0.0415 0.9973 0.8524
C25 C -0.0675(3) 0.8695(2) 0.88775(15)
C26 C -0.1736(4) 0.9303(2) 0.93082(17)
H21 H -0.1237 0.9609 0.9734
H22 H -0.2494 0.8825 0.9460
H23 H -0.2165 0.9869 0.9011
C27 C -0.0729(3) 0.7594(2) 0.88341(15)
H24 H -0.1435 0.7220 0.9087
C28 C 0.0231(3) 0.7040(2) 0.84280(14)
H25 H 0.0185 0.6292 0.8403
N1 N 0.1893(3) 0.69598(17) 0.66951(12)
O1 O 0.3809(2) 0.74862(15) 0.75727(10)
O2 O 0.2484(2) 0.58039(14) 0.77275(10)
S1 S 0.24891(7) 0.69003(5) 0.75276(3)
loop_
_geom_bond_atom_site_label_1
_geom_bond_atom_site_label_2
_geom_bond_site_symmetry_1
_geom_bond_site_symmetry_2
C1 H1 1_555 1_555
C2 C1 1_555 1_555
H2 C2 1_555 1_555
C3 C2 1_555 1_555
H3 C3 1_555 1_555
C4 C3 1_555 1_555
H4 C4 1_555 1_555
C5 C4 1_555 1_555
C6 C1 1_555 1_555
C7 C6 1_555 1_555
H5 C7 1_555 1_555
C8 C7 1_555 1_555
C9 C8 1_555 1_555
H6 C9 1_555 1_555
C10 C9 1_555 1_555
H7 C10 1_555 1_555
C11 C10 1_555 1_555
C12 C11 1_555 1_555
H8 C12 1_555 1_555
H9 C12 1_555 1_555
H10 C12 1_555 1_555
C13 C11 1_555 1_555
H11 C13 1_555 1_555
C14 C8 1_555 1_555
H12 C14 1_555 1_555
C15 C5 1_555 1_555
H13 C15 1_555 1_555
C16 C15 1_555 1_555
C17 C16 1_555 1_555
H14 C17 1_555 1_555
C18 C17 1_555 1_555
H15 C18 1_555 1_555
C19 C18 1_555 1_555
H16 C19 1_555 1_555
C20 C19 1_555 1_555
H17 C20 1_555 1_555
C21 C16 1_555 1_555
H18 C21 1_555 1_555
C22 C23 1_555 1_555
C23 H19 1_555 1_555
C24 C23 1_555 1_555
H20 C24 1_555 1_555
C25 C24 1_555 1_555
C26 C25 1_555 1_555
H21 C26 1_555 1_555
H22 C26 1_555 1_555
H23 C26 1_555 1_555
C27 C25 1_555 1_555
H24 C27 1_555 1_555
C28 C22 1_555 1_555
H25 C28 1_555 1_555
N1 C7 1_555 1_555
O1 S1 1_555 1_555
O2 S1 1_555 1_555
S1 C22 1_555 1_555
C5 C6 1_555 1_555
C13 C14 1_555 1_555
C15 N1 1_555 1_555
C20 C21 1_555 1_555
C27 C28 1_555 1_555
N1 S1 1_555 1_555

#END
