
#######################################################################
#
#                 Cambridge Crystallographic Data Centre
#                                CCDC 
#
#######################################################################
#
# If this CIF has been generated from an entry in the Cambridge 
# Structural Database, then it will include bibliographic, chemical, 
# crystal, experimental, refinement or atomic coordinate data resulting 
# from the CCDC's data processing and validation procedures.
#
#######################################################################

data_OXOBEK
_chemical_formula_moiety         'C26 H31 N1 O6'
_chemical_name_systematic        
'diethyl 5-(3,4-dimethoxyphenyl)-2-(4-methylphenyl)-5,6-dihydropyridine-3,3(4H)-dicarboxylate'
_symmetry_cell_setting           monoclinic
_symmetry_space_group_name_H-M   'P 21/c'
_symmetry_Int_Tables_number      14
_space_group_name_Hall           '-P 2ybc'
loop_
_symmetry_equiv_pos_site_id
_symmetry_equiv_pos_as_xyz
1 x,y,z
2 -x,1/2+y,1/2-z
3 -x,-y,-z
4 x,1/2-y,1/2+z
_cell_length_a                   10.5678(8)
_cell_length_b                   25.3656(19)
_cell_length_c                   8.8316(8)
_cell_angle_alpha                90
_cell_angle_beta                 94.809(3)
_cell_angle_gamma                90
_cell_volume                     2359.05
_exptl_crystal_colour            'light yellow'
_exptl_crystal_description       block
_chemical_melting_point          '378 K'
_cell_formula_units_Z            4
_exptl_crystal_recrystallization_method 'ethyl acetate/hexane'
loop_
_atom_site_label
_atom_site_type_symbol
_atom_site_fract_x
_atom_site_fract_y
_atom_site_fract_z
O1 O 0.65590(13) 0.63988(7) 0.07217(17)
O2 O 0.06358(15) 0.64015(6) 0.86405(16)
O3 O 0.10534(14) 0.56423(6) 0.74463(16)
O4 O -0.07028(13) 0.70387(5) 0.48703(17)
O5 O 0.08836(17) 0.72989(6) 0.65636(19)
O6 O 0.45541(14) 0.68042(7) -0.06617(17)
N1 N -0.00244(14) 0.58631(6) 0.35737(18)
C1 C 0.76958(19) 0.61902(9) 0.1475(3)
H1 H 0.7949 0.6403 0.2348
H2 H 0.8356 0.6193 0.0791
H3 H 0.7548 0.5835 0.1792
C2 C 0.55119(18) 0.64021(8) 0.1526(2)
C3 C 0.44107(18) 0.66214(8) 0.0766(2)
C4 C 0.32959(18) 0.66380(8) 0.1471(2)
H4 H 0.2573 0.6783 0.0960
C5 C 0.32361(18) 0.64402(8) 0.2939(2)
C6 C 0.19587(18) 0.64409(8) 0.3611(2)
H5 H 0.1553 0.6784 0.3407
C7 C 0.20481(18) 0.63425(8) 0.5311(2)
H6 H 0.2603 0.6602 0.5828
H7 H 0.2403 0.5995 0.5532
C8 C 0.07080(18) 0.63798(8) 0.5880(2)
C9 C -0.02212(17) 0.60293(7) 0.4889(2)
C10 C -0.14041(17) 0.58538(7) 0.5562(2)
C11 C -0.20199(19) 0.61665(8) 0.6573(2)
H8 H -0.1692 0.6497 0.6840
C12 C -0.31106(19) 0.59938(9) 0.7187(2)
H9 H -0.3510 0.6212 0.7846
C13 C -0.36133(18) 0.55006(9) 0.6832(2)
C14 C -0.4783(2) 0.53120(10) 0.7545(3)
H10 H -0.4937 0.4949 0.7287
H11 H -0.5501 0.5520 0.7173
H12 H -0.4653 0.5347 0.8629
C15 C 0.07924(18) 0.61614(8) 0.7506(2)
C16 C 0.0995(2) 0.53307(8) 0.8833(2)
H13 H 0.0654 0.4984 0.8576
H14 H 0.0432 0.5501 0.9495
C17 C 0.2291(2) 0.52763(10) 0.9644(3)
H15 H 0.2852 0.5115 0.8980
H16 H 0.2242 0.5060 1.0530
H17 H 0.2609 0.5619 0.9943
C18 C 0.11102(17) 0.60114(8) 0.2838(2)
H18 H 0.0845 0.6129 0.1815
H19 H 0.1623 0.5697 0.2750
C19 C -0.29979(19) 0.51876(8) 0.5831(2)
H20 H -0.3322 0.4855 0.5578
C20 C -0.19116(19) 0.53585(8) 0.5198(2)
H21 H -0.1521 0.5141 0.4529
C21 C 0.03161(19) 0.69614(8) 0.5847(2)
C22 C -0.1192(2) 0.75728(8) 0.4724(3)
H22 H -0.0647 0.7788 0.4143
H23 H -0.1231 0.7731 0.5719
C23 C -0.2490(3) 0.75336(10) 0.3924(3)
H24 H -0.2432 0.7390 0.2926
H25 H -0.2866 0.7878 0.3842
H26 H -0.3006 0.7307 0.4489
C24 C 0.43305(19) 0.62393(8) 0.3687(2)
H27 H 0.4310 0.6114 0.4675
C25 C 0.54666(18) 0.62202(8) 0.2992(2)
H28 H 0.6194 0.6085 0.3517
C26 C 0.3681(2) 0.71880(10) -0.1256(3)
H29 H 0.2858 0.7030 -0.1452
H30 H 0.3957 0.7326 -0.2185
H31 H 0.3634 0.7469 -0.0534
loop_
_geom_bond_atom_site_label_1
_geom_bond_atom_site_label_2
_geom_bond_site_symmetry_1
_geom_bond_site_symmetry_2
O1 C1 1_555 1_555
O2 C15 1_555 1_555
O3 C15 1_555 1_555
O4 C21 1_555 1_555
O5 C21 1_555 1_555
O6 C3 1_555 1_555
N1 C9 1_555 1_555
C1 H1 1_555 1_555
H2 C1 1_555 1_555
H3 C1 1_555 1_555
C2 O1 1_555 1_555
C3 C2 1_555 1_555
C4 C3 1_555 1_555
H4 C4 1_555 1_555
C5 C4 1_555 1_555
C6 C5 1_555 1_555
H5 C6 1_555 1_555
C7 C6 1_555 1_555
H6 C7 1_555 1_555
H7 C7 1_555 1_555
C8 C7 1_555 1_555
C9 C8 1_555 1_555
C10 C9 1_555 1_555
C11 C10 1_555 1_555
H8 C11 1_555 1_555
C12 C11 1_555 1_555
H9 C12 1_555 1_555
C13 C12 1_555 1_555
C14 C13 1_555 1_555
H10 C14 1_555 1_555
H11 C14 1_555 1_555
H12 C14 1_555 1_555
C15 C8 1_555 1_555
C16 O3 1_555 1_555
H13 C16 1_555 1_555
H14 C16 1_555 1_555
C17 C16 1_555 1_555
H15 C17 1_555 1_555
H16 C17 1_555 1_555
H17 C17 1_555 1_555
C18 N1 1_555 1_555
H18 C18 1_555 1_555
H19 C18 1_555 1_555
C19 C13 1_555 1_555
H20 C19 1_555 1_555
C20 C10 1_555 1_555
H21 C20 1_555 1_555
C21 C8 1_555 1_555
C22 O4 1_555 1_555
H22 C22 1_555 1_555
H23 C22 1_555 1_555
C23 C22 1_555 1_555
H24 C23 1_555 1_555
H25 C23 1_555 1_555
H26 C23 1_555 1_555
C24 C5 1_555 1_555
H27 C24 1_555 1_555
C25 C2 1_555 1_555
H28 C25 1_555 1_555
C26 O6 1_555 1_555
H29 C26 1_555 1_555
H30 C26 1_555 1_555
H31 C26 1_555 1_555
C6 C18 1_555 1_555
C19 C20 1_555 1_555
C24 C25 1_555 1_555

#END
