
#######################################################################
#
#                 Cambridge Crystallographic Data Centre
#                                CCDC 
#
#######################################################################
#
# If this CIF has been generated from an entry in the Cambridge 
# Structural Database, then it will include bibliographic, chemical, 
# crystal, experimental, refinement or atomic coordinate data resulting 
# from the CCDC's data processing and validation procedures.
#
#######################################################################

data_OXOCIP
_chemical_formula_moiety         'C19 H18 F1 I1 N2 O1'
_chemical_name_systematic        
N-(7-(2-fluoro-5-iodophenyl)bicyclo[2.2.1]heptan-2-yl)pyridine-2-carboxamide
_symmetry_cell_setting           triclinic
_symmetry_space_group_name_H-M   'P -1'
_symmetry_Int_Tables_number      2
_space_group_name_Hall           '-P 1'
loop_
_symmetry_equiv_pos_site_id
_symmetry_equiv_pos_as_xyz
1 x,y,z
2 -x,-y,-z
_cell_length_a                   9.3889(13)
_cell_length_b                   9.7989(13)
_cell_length_c                   10.6786(15)
_cell_angle_alpha                99.279(3)
_cell_angle_beta                 90.979(2)
_cell_angle_gamma                113.965(2)
_cell_volume                     882.279
_cell_formula_units_Z            2
loop_
_atom_site_label
_atom_site_type_symbol
_atom_site_fract_x
_atom_site_fract_y
_atom_site_fract_z
C1 C 0.238783 -0.185214 0.131142
C2 C 0.365384 -0.043291 0.156665
H1 H 0.448058 -0.026735 0.214954
C3 C 0.369966 0.073755 0.096401
C4 C 0.246368 0.038207 0.007101
C5 C 0.121057 -0.100252 -0.020005
H2 H 0.040323 -0.117927 -0.080692
C6 C 0.116536 -0.213422 0.044385
H3 H 0.031431 -0.307618 0.028938
C7 C 0.502325 0.230611 0.119405
H4 H 0.551643 0.248294 0.039928
C8 C 0.629517 0.272595 0.226986
H5 H 0.681949 0.203704 0.222264
C9 C 0.736699 0.436167 0.213419
H6 H 0.798136 0.494181 0.293109
H7 H 0.806677 0.43696 0.147484
C10 C 0.619373 0.49913 0.176381
H8 H 0.627383 0.585549 0.23962
H9 H 0.637344 0.530009 0.094124
C11 C 0.545826 0.281803 0.346784
H10 H 0.61886 0.348989 0.418359
H11 H 0.491298 0.182172 0.368602
C12 C 0.429113 0.346559 0.309182
H12 H 0.455913 0.446305 0.3627
C13 C 0.459247 0.366105 0.171245
H13 H 0.374151 0.371846 0.121051
C14 C 0.165842 0.292252 0.377828
C15 C 0.009692 0.164107 0.386144
C16 C -0.106513 0.192634 0.444831
H14 H -0.092528 0.291103 0.479363
C17 C -0.246304 0.068575 0.450782
H15 H -0.327329 0.083071 0.491256
C18 C -0.264285 -0.072747 0.397829
H16 H -0.357829 -0.156276 0.400063
C19 C -0.140726 -0.090819 0.340157
H17 H -0.153253 -0.188502 0.304419
F1 F 0.248498 0.148006 -0.056928
H18 H 0.238809 0.166171 0.300904
I1 I 0.234235 -0.354618 0.23016
N1 N 0.2692 0.246512 0.323867
N2 N -0.004771 0.024629 0.333253
O1 O 0.191735 0.42452 0.419047
loop_
_geom_bond_atom_site_label_1
_geom_bond_atom_site_label_2
_geom_bond_site_symmetry_1
_geom_bond_site_symmetry_2
C1 C2 1_555 1_555
C2 H1 1_555 1_555
C3 C2 1_555 1_555
C4 C3 1_555 1_555
C5 C4 1_555 1_555
H2 C5 1_555 1_555
C6 C1 1_555 1_555
H3 C6 1_555 1_555
C7 C3 1_555 1_555
H4 C7 1_555 1_555
C8 C7 1_555 1_555
H5 C8 1_555 1_555
C9 C8 1_555 1_555
H6 C9 1_555 1_555
H7 C9 1_555 1_555
C10 C9 1_555 1_555
H8 C10 1_555 1_555
H9 C10 1_555 1_555
C11 C8 1_555 1_555
H10 C11 1_555 1_555
H11 C11 1_555 1_555
C12 C11 1_555 1_555
H12 C12 1_555 1_555
C13 C7 1_555 1_555
H13 C13 1_555 1_555
C14 C15 1_555 1_555
C15 C16 1_555 1_555
C16 H14 1_555 1_555
C17 C16 1_555 1_555
H15 C17 1_555 1_555
C18 C17 1_555 1_555
H16 C18 1_555 1_555
C19 C18 1_555 1_555
H17 C19 1_555 1_555
F1 C4 1_555 1_555
H18 N1 1_555 1_555
I1 C1 1_555 1_555
N1 C12 1_555 1_555
N2 C15 1_555 1_555
O1 C14 1_555 1_555
C5 C6 1_555 1_555
C10 C13 1_555 1_555
C12 C13 1_555 1_555
C14 N1 1_555 1_555
C19 N2 1_555 1_555

#END
