
#######################################################################
#
#                 Cambridge Crystallographic Data Centre
#                                CCDC 
#
#######################################################################
#
# If this CIF has been generated from an entry in the Cambridge 
# Structural Database, then it will include bibliographic, chemical, 
# crystal, experimental, refinement or atomic coordinate data resulting 
# from the CCDC's data processing and validation procedures.
#
#######################################################################

data_OXOCAG
_chemical_formula_moiety         'C30 H23 B1 F2 N4 O4'
_chemical_name_systematic        
5,5-Difluoro-10-mesityl-2,8-bis(4-nitrophenyl)-5H-6\l^5^,5\l^5^-dipyrrolo[1,2-c:2',1'-f][1,3,2]diazaborinine
_symmetry_cell_setting           monoclinic
_symmetry_space_group_name_H-M   'P 21/c'
_symmetry_Int_Tables_number      14
_space_group_name_Hall           '-P 2ybc'
loop_
_symmetry_equiv_pos_site_id
_symmetry_equiv_pos_as_xyz
1 x,y,z
2 -x,1/2+y,1/2-z
3 -x,-y,-z
4 x,1/2-y,1/2+z
_cell_length_a                   7.602(2)
_cell_length_b                   24.077(6)
_cell_length_c                   14.334(4)
_cell_angle_alpha                90
_cell_angle_beta                 102.602(5)
_cell_angle_gamma                90
_cell_volume                     2560.4
_exptl_crystal_colour            orange
_exptl_crystal_description       prism
_cell_formula_units_Z            4
loop_
_atom_site_label
_atom_site_type_symbol
_atom_site_fract_x
_atom_site_fract_y
_atom_site_fract_z
F1 F 0.40639(17) 0.63334(5) 1.10277(8)
F2 F 0.14850(18) 0.61976(5) 1.15445(8)
N1 N 0.2302(2) 0.71338(6) 1.12095(11)
C1 C -0.0092(3) 0.73793(7) 0.98501(13)
C2 C -0.1453(3) 0.78014(7) 0.94015(13)
N2 N 0.1214(2) 0.64569(6) 0.99107(11)
C3 C 0.3744(3) 0.83839(8) 1.26296(13)
C4 C -0.0865(3) 0.66352(8) 0.85580(13)
H1 H -0.1740 0.6813 0.8101
C5 C 0.3329(3) 0.73963(8) 1.19549(13)
H2 H 0.4224 0.7228 1.2414
C6 C 0.0011(3) 0.68576(8) 0.94460(13)
C7 C 0.1471(3) 0.80393(8) 1.11531(13)
H3 H 0.0880 0.8371 1.0956
C8 C 0.1076(3) 0.60122(8) 0.93515(13)
H4 H 0.1724 0.5685 0.9508
C9 C -0.1240(3) 0.80891(8) 0.85884(14)
C10 C -0.0635(3) 0.57175(8) 0.76823(13)
C11 C -0.1546(3) 0.58999(8) 0.67880(14)
H5 H -0.1905 0.6269 0.6708
C12 C -0.2489(3) 0.84998(8) 0.82207(15)
H6 H -0.2378 0.8686 0.7668
C13 C 0.4570(3) 0.82414(8) 1.35613(14)
H7 H 0.4524 0.7876 1.3764
C14 C 0.2865(3) 0.79642(8) 1.19476(13)
C15 C -0.0196(3) 0.61055(8) 0.84832(13)
C16 C -0.0517(3) 0.47977(8) 0.70212(16)
H8 H -0.0185 0.4426 0.7095
O1 O -0.1316(3) 0.41394(7) 0.54403(13)
C17 C 0.1120(3) 0.75215(8) 1.07016(13)
C18 C -0.2888(3) 0.79220(8) 0.98398(14)
C19 C 0.5498(3) 0.91770(9) 1.38830(16)
C20 C -0.1392(3) 0.49992(8) 0.61469(14)
C21 C 0.5457(3) 0.86351(9) 1.41898(15)
H9 H 0.6019 0.8537 1.4811
C22 C -0.1928(3) 0.55452(9) 0.60168(15)
H10 H -0.2535 0.5672 0.5420
O2 O -0.2526(4) 0.48072(8) 0.45601(13)
C23 C -0.4085(3) 0.83414(9) 0.94448(16)
H11 H -0.5047 0.8423 0.9726
C24 C 0.0325(3) 0.79870(9) 0.81381(16)
H12 H 0.0199 0.7629 0.7835
H13 H 0.1421 0.7997 0.8620
H14 H 0.0361 0.8269 0.7669
C25 C 0.3782(3) 0.89405(8) 1.23517(15)
H15 H 0.3211 0.9043 1.1734
O3 O 0.7463(3) 0.94240(9) 1.52843(15)
C26 C -0.0140(3) 0.51559(8) 0.77873(15)
H16 H 0.0452 0.5024 0.8383
N3 N -0.1778(3) 0.46199(8) 0.53272(13)
C27 C 0.4647(3) 0.93389(9) 1.29743(17)
H17 H 0.4658 0.9708 1.2787
C28 C -0.3894(3) 0.86400(9) 0.86506(16)
B1 B 0.2328(3) 0.65041(9) 1.09593(15)
C29 C -0.3175(3) 0.76155(10) 1.07113(16)
H18 H -0.2415 0.7772 1.1273
H19 H -0.2878 0.7231 1.0662
H20 H -0.4413 0.7648 1.0754
C30 C -0.5138(4) 0.91150(10) 0.8275(2)
H21 H -0.6358 0.9011 0.8273
H22 H -0.5037 0.9203 0.7635
H23 H -0.4813 0.9434 0.8677
N4 N 0.6507(3) 0.95905(9) 1.45377(16)
O4 O 0.6354(3) 1.00769(8) 1.43039(16)
loop_
_geom_bond_atom_site_label_1
_geom_bond_atom_site_label_2
_geom_bond_site_symmetry_1
_geom_bond_site_symmetry_2
F1 B1 1_555 1_555
F2 B1 1_555 1_555
N1 C5 1_555 1_555
C1 C2 1_555 1_555
C2 C9 1_555 1_555
N2 C6 1_555 1_555
C3 C13 1_555 1_555
C4 H1 1_555 1_555
C5 H2 1_555 1_555
C6 C1 1_555 1_555
C7 H3 1_555 1_555
C8 N2 1_555 1_555
H4 C8 1_555 1_555
C9 C12 1_555 1_555
C10 C11 1_555 1_555
C11 H5 1_555 1_555
C12 H6 1_555 1_555
C13 H7 1_555 1_555
C14 C3 1_555 1_555
C15 C4 1_555 1_555
C16 H8 1_555 1_555
O1 N3 1_555 1_555
C17 N1 1_555 1_555
C18 C2 1_555 1_555
C19 C21 1_555 1_555
C20 C16 1_555 1_555
C21 C13 1_555 1_555
H9 C21 1_555 1_555
C22 C11 1_555 1_555
H10 C22 1_555 1_555
O2 N3 1_555 1_555
C23 C18 1_555 1_555
H11 C23 1_555 1_555
C24 C9 1_555 1_555
H12 C24 1_555 1_555
H13 C24 1_555 1_555
H14 C24 1_555 1_555
C25 C3 1_555 1_555
H15 C25 1_555 1_555
O3 N4 1_555 1_555
C26 C10 1_555 1_555
H16 C26 1_555 1_555
N3 C20 1_555 1_555
C27 C19 1_555 1_555
H17 C27 1_555 1_555
C28 C12 1_555 1_555
B1 N1 1_555 1_555
C29 C18 1_555 1_555
H18 C29 1_555 1_555
H19 C29 1_555 1_555
H20 C29 1_555 1_555
C30 C28 1_555 1_555
H21 C30 1_555 1_555
H22 C30 1_555 1_555
H23 C30 1_555 1_555
N4 C19 1_555 1_555
O4 N4 1_555 1_555
C1 C17 1_555 1_555
N2 B1 1_555 1_555
C4 C6 1_555 1_555
C5 C14 1_555 1_555
C7 C14 1_555 1_555
C7 C17 1_555 1_555
C8 C15 1_555 1_555
C10 C15 1_555 1_555
C16 C26 1_555 1_555
C20 C22 1_555 1_555
C23 C28 1_555 1_555
C25 C27 1_555 1_555

#END
