
#######################################################################
#
#                 Cambridge Crystallographic Data Centre
#                                CCDC 
#
#######################################################################
#
# If this CIF has been generated from an entry in the Cambridge 
# Structural Database, then it will include bibliographic, chemical, 
# crystal, experimental, refinement or atomic coordinate data resulting 
# from the CCDC's data processing and validation procedures.
#
#######################################################################

data_OXOCOU
_chemical_formula_moiety         'C23 H14 O1'
_chemical_name_systematic        11-Methylbenzo[b]pyreno[4,5-d]furan
_symmetry_cell_setting           monoclinic
_symmetry_space_group_name_H-M   'C 2/c'
_symmetry_Int_Tables_number      15
_space_group_name_Hall           '-C 2yn'
loop_
_symmetry_equiv_pos_site_id
_symmetry_equiv_pos_as_xyz
1 x,y,z
2 -x,y,1/2-z
3 1/2+x,1/2+y,z
4 1/2-x,1/2+y,1/2-z
5 -x,-y,-z
6 x,-y,1/2+z
7 1/2-x,1/2-y,-z
8 1/2+x,1/2-y,1/2+z
_cell_length_a                   49.52(6)
_cell_length_b                   4.861(6)
_cell_length_c                   40.62(5)
_cell_angle_alpha                90
_cell_angle_beta                 116.289(15)
_cell_angle_gamma                90
_cell_volume                     8766.6
_exptl_crystal_colour            yellow
_exptl_crystal_description       needle
_cell_formula_units_Z            24
loop_
_atom_site_label
_atom_site_type_symbol
_atom_site_fract_x
_atom_site_fract_y
_atom_site_fract_z
O1 O 0.11497(6) 0.2832(6) 0.47149(7)
C1 C 0.08516(9) 0.1534(8) 0.41326(11)
C2 C 0.12782(10) -0.2321(8) 0.41494(11)
C3 C 0.07848(10) -0.0034(9) 0.38132(11)
C4 C 0.06954(9) 0.3629(8) 0.42326(11)
C5 C 0.04238(10) 0.4945(10) 0.40758(13)
H1 H 0.0286 0.4546 0.3836
C6 C 0.10064(10) -0.1957(9) 0.38277(11)
C7 C 0.13399(10) -0.0737(8) 0.44645(11)
C8 C 0.11163(9) 0.1161(8) 0.44302(11)
C9 C 0.08892(9) 0.4328(9) 0.45891(11)
C10 C 0.05505(10) 0.7512(9) 0.46311(13)
C11 C 0.17454(11) -0.4663(10) 0.44844(15)
H2 H 0.1885 -0.5984 0.4494
C12 C 0.08259(10) 0.6224(9) 0.47947(12)
H3 H 0.0964 0.6624 0.5035
C13 C 0.09531(12) -0.3594(10) 0.35222(12)
C14 C 0.18026(12) -0.3146(10) 0.47878(15)
H4 H 0.1978 -0.3449 0.5002
C15 C 0.16042(10) -0.1178(10) 0.47798(12)
H5 H 0.1647 -0.0122 0.4988
C16 C 0.05202(11) 0.0203(10) 0.34977(12)
H6 H 0.0375 0.1457 0.3487
C17 C 0.14885(11) -0.4314(9) 0.41632(13)
C18 C 0.03567(11) 0.6837(10) 0.42733(13)
H7 H 0.0171 0.7723 0.4163
C19 C 0.04704(13) -0.1400(12) 0.32005(13)
H8 H 0.0290 -0.1236 0.2989
C20 C 0.06806(14) -0.3231(12) 0.32082(13)
H9 H 0.0642 -0.4268 0.3000
C21 C 0.04597(11) 0.9579(10) 0.48326(14)
H10 H 0.0619 0.9806 0.5076
H11 H 0.0281 0.8962 0.4847
H12 H 0.0420 1.1307 0.4705
C22 C 0.14266(14) -0.5871(11) 0.38439(17)
H13 H 0.1565 -0.7171 0.3846
C23 C 0.11704(15) -0.5486(11) 0.35398(16)
H14 H 0.1136 -0.6518 0.3332
O2 O 0.20294(6) 0.1575(6) 0.06596(7)
C24 C 0.21729(9) 0.0032(8) 0.12346(10)
C25 C 0.23456(9) -0.1681(8) 0.15385(11)
C26 C 0.18688(9) 0.2967(9) 0.08058(11)
C27 C 0.25502(9) -0.3539(8) 0.15007(11)
C28 C 0.24044(9) -0.1996(8) 0.08713(11)
C29 C 0.25785(9) -0.3688(8) 0.11722(11)
C30 C 0.22099(9) -0.0188(8) 0.09279(11)
C31 C 0.27254(10) -0.5286(9) 0.17931(12)
C32 C 0.19441(9) 0.2092(8) 0.11571(10)
C33 C 0.29598(10) -0.7239(10) 0.14454(15)
H15 H 0.3099 -0.8443 0.1429
C34 C 0.27830(10) -0.5551(9) 0.11396(13)
C35 C 0.17949(9) 0.3288(9) 0.13359(12)
H16 H 0.1839 0.2784 0.1575
C36 C 0.23251(10) -0.1651(9) 0.18646(11)
H17 H 0.2194 -0.0429 0.1896
C37 C 0.15781(9) 0.5253(9) 0.11538(12)
H18 H 0.1476 0.6047 0.1274
C38 C 0.16567(9) 0.4911(8) 0.06219(11)
H19 H 0.1615 0.5426 0.0384
C39 C 0.12731(10) 0.8244(9) 0.06247(12)
H20 H 0.1194 0.8811 0.0791
H21 H 0.1113 0.7515 0.0406
H22 H 0.1361 0.9798 0.0563
C40 C 0.24294(10) -0.2251(9) 0.05477(12)
H23 H 0.2312 -0.1153 0.0348
C41 C 0.26909(11) -0.5180(10) 0.21098(13)
H24 H 0.2803 -0.6352 0.2303
C42 C 0.15076(9) 0.6080(9) 0.08022(12)
C43 C 0.27993(11) -0.5696(10) 0.08133(15)
H25 H 0.2934 -0.6925 0.0790
C44 C 0.29309(10) -0.7134(10) 0.17502(15)
H26 H 0.3047 -0.8293 0.1943
C45 C 0.26241(11) -0.4094(10) 0.05191(14)
H27 H 0.2638 -0.4265 0.0299
C46 C 0.24950(11) -0.3388(10) 0.21440(13)
H28 H 0.2476 -0.3341 0.2362
O3 O 0.03576(8) 0.9423(8) 0.14371(10)
C47 C 0.07922(12) 1.0172(10) 0.13899(13)
C48 C 0.03379(12) 1.2694(10) 0.09744(13)
H29 H 0.0135 1.3120 0.0893
C49 C 0.08433(13) 0.8132(9) 0.16772(11)
C50 C 0.05872(12) 0.7746(11) 0.16932(13)
C51 C 0.12994(13) 0.2970(11) 0.23959(13)
C52 C 0.07748(12) 0.4398(10) 0.21426(12)
C53 C 0.05117(11) 1.3834(9) 0.08233(12)
C54 C 0.10659(12) 0.4621(9) 0.21530(12)
C55 C 0.05258(14) 0.6022(10) 0.19101(13)
C56 C 0.08067(12) 1.3099(11) 0.09603(14)
H30 H 0.0919 1.3879 0.0852
C57 C 0.04941(14) 1.0804(10) 0.12657(14)
C58 C 0.11057(12) 0.6543(11) 0.19191(13)
C59 C 0.07269(14) 0.2531(11) 0.23692(14)
C60 C 0.03819(14) 1.5829(11) 0.05194(14)
H31 H 0.0534 1.6407 0.0449
H32 H 0.0308 1.7398 0.0598
H33 H 0.0219 1.4981 0.0314
C61 C 0.09478(14) 1.1345(13) 0.12381(17)
H34 H 0.1152 1.0966 0.1322
C62 C 0.15824(15) 0.3231(14) 0.24034(17)
H35 H 0.1744 0.2165 0.2561
C63 C 0.13798(15) 0.6718(13) 0.19390(15)
H36 H 0.1412 0.7986 0.1788
C64 C 0.02455(12) 0.5688(13) 0.19164(15)
H37 H 0.0081 0.6738 0.1763
C65 C 0.04495(17) 0.2267(13) 0.23618(17)
H38 H 0.0420 0.0962 0.2510
C66 C 0.09692(18) 0.0886(12) 0.26076(15)
H39 H 0.0937 -0.0387 0.2758
C67 C 0.12374(16) 0.1105(12) 0.26234(14)
H40 H 0.1392 0.0009 0.2788
C68 C 0.02188(17) 0.3866(14) 0.21428(18)
H41 H 0.0035 0.3691 0.2150
C69 C 0.16157(15) 0.5162(16) 0.2165(2)
H42 H 0.1802 0.5369 0.2164
loop_
_geom_bond_atom_site_label_1
_geom_bond_atom_site_label_2
_geom_bond_site_symmetry_1
_geom_bond_site_symmetry_2
O1 C8 1_555 1_555
O2 C26 1_555 1_555
O3 C50 1_555 1_555
C1 C3 1_555 1_555
C2 C6 1_555 1_555
C3 C6 1_555 1_555
C4 C1 1_555 1_555
C5 C4 1_555 1_555
H1 C5 1_555 1_555
C6 C13 1_555 1_555
C7 C2 1_555 1_555
C8 C1 1_555 1_555
C9 O1 1_555 1_555
C10 C12 1_555 1_555
C11 H2 1_555 1_555
C12 C9 1_555 1_555
H3 C12 1_555 1_555
C13 C20 1_555 1_555
C14 C11 1_555 1_555
H4 C14 1_555 1_555
C15 C7 1_555 1_555
H5 C15 1_555 1_555
C16 C3 1_555 1_555
H6 C16 1_555 1_555
C17 C2 1_555 1_555
C18 C5 1_555 1_555
H7 C18 1_555 1_555
C19 C16 1_555 1_555
H8 C19 1_555 1_555
C20 C19 1_555 1_555
H9 C20 1_555 1_555
C21 C10 1_555 1_555
H10 C21 1_555 1_555
H11 C21 1_555 1_555
H12 C21 1_555 1_555
C22 C17 1_555 1_555
H13 C22 1_555 1_555
C23 C13 1_555 1_555
H14 C23 1_555 1_555
C24 C25 1_555 1_555
C25 C27 1_555 1_555
C26 C32 1_555 1_555
C27 C29 1_555 1_555
C28 C29 1_555 1_555
C29 C34 1_555 1_555
C30 O2 1_555 1_555
C31 C27 1_555 1_555
C32 C24 1_555 1_555
C33 H15 1_555 1_555
C34 C33 1_555 1_555
C35 C32 1_555 1_555
H16 C35 1_555 1_555
C36 C25 1_555 1_555
H17 C36 1_555 1_555
C37 C35 1_555 1_555
H18 C37 1_555 1_555
C38 C26 1_555 1_555
H19 C38 1_555 1_555
C39 H20 1_555 1_555
H21 C39 1_555 1_555
H22 C39 1_555 1_555
C40 C28 1_555 1_555
H23 C40 1_555 1_555
C41 C31 1_555 1_555
H24 C41 1_555 1_555
C42 C37 1_555 1_555
C43 C34 1_555 1_555
H25 C43 1_555 1_555
C44 C31 1_555 1_555
H26 C44 1_555 1_555
C45 C40 1_555 1_555
H27 C45 1_555 1_555
C46 C36 1_555 1_555
H28 C46 1_555 1_555
C47 C49 1_555 1_555
C48 H29 1_555 1_555
C49 C50 1_555 1_555
C50 C55 1_555 1_555
C51 C54 1_555 1_555
C52 C54 1_555 1_555
C53 C48 1_555 1_555
C54 C58 1_555 1_555
C55 C52 1_555 1_555
C56 C53 1_555 1_555
H30 C56 1_555 1_555
C57 O3 1_555 1_555
C58 C49 1_555 1_555
C59 C52 1_555 1_555
C60 C53 1_555 1_555
H31 C60 1_555 1_555
H32 C60 1_555 1_555
H33 C60 1_555 1_555
C61 C47 1_555 1_555
H34 C61 1_555 1_555
C62 C51 1_555 1_555
H35 C62 1_555 1_555
C63 C58 1_555 1_555
H36 C63 1_555 1_555
C64 C55 1_555 1_555
H37 C64 1_555 1_555
C65 C59 1_555 1_555
H38 C65 1_555 1_555
C66 C59 1_555 1_555
H39 C66 1_555 1_555
C67 C51 1_555 1_555
H40 C67 1_555 1_555
C68 C64 1_555 1_555
H41 C68 1_555 1_555
C69 C62 1_555 1_555
H42 C69 1_555 1_555
C4 C9 1_555 1_555
C7 C8 1_555 1_555
C10 C18 1_555 1_555
C11 C17 1_555 1_555
C14 C15 1_555 1_555
C22 C23 1_555 1_555
C24 C30 1_555 1_555
C28 C30 1_555 1_555
C33 C44 1_555 1_555
C38 C42 1_555 1_555
C39 C42 1_555 1_555
C41 C46 1_555 1_555
C43 C45 1_555 1_555
C47 C57 1_555 1_555
C48 C57 1_555 1_555
C56 C61 1_555 1_555
C63 C69 1_555 1_555
C65 C68 1_555 1_555
C66 C67 1_555 1_555

#END
