
#######################################################################
#
#                 Cambridge Crystallographic Data Centre
#                                CCDC 
#
#######################################################################
#
# If this CIF has been generated from an entry in the Cambridge 
# Structural Database, then it will include bibliographic, chemical, 
# crystal, experimental, refinement or atomic coordinate data resulting 
# from the CCDC's data processing and validation procedures.
#
#######################################################################

data_OXODUB
_chemical_name_common            'Volvalerelactone A'
_chemical_formula_moiety         'C15 H22 O4'
_chemical_name_systematic        
'6,6,8a-Trimethyl-2-oxodecahydro-2H-cyclopropa[4,5]cyclohepta[1,2-b]pyran-5-carboxylic acid'
_symmetry_cell_setting           orthorhombic
_symmetry_space_group_name_H-M   'P 21 21 21'
_symmetry_Int_Tables_number      19
_space_group_name_Hall           'P 2ac 2ab'
loop_
_symmetry_equiv_pos_site_id
_symmetry_equiv_pos_as_xyz
1 x,y,z
2 1/2-x,-y,1/2+z
3 -x,1/2+y,1/2-z
4 1/2+x,1/2-y,-z
_cell_length_a                   8.4887(13)
_cell_length_b                   10.4646(16)
_cell_length_c                   16.491(3)
_cell_angle_alpha                90
_cell_angle_beta                 90
_cell_angle_gamma                90
_cell_volume                     1464.91
_exptl_crystal_colour            colorless
_exptl_crystal_description       block
_cell_formula_units_Z            4
_exptl_crystal_recrystallization_method chloroform/methanol
_exptl_crystal_preparation       'Magnetic properties'
loop_
_atom_site_label
_atom_site_type_symbol
_atom_site_fract_x
_atom_site_fract_y
_atom_site_fract_z
O1 O 0.03013(19) 0.15460(15) 0.81078(10)
O2 O -0.0847(2) 0.22774(18) 0.91916(11)
O3 O 0.6530(2) 0.20602(16) 0.82954(12)
H1 H 0.7354 0.2039 0.8555
O4 O 0.6796(2) -0.00583(18) 0.83315(14)
C1 C 0.4620(3) 0.0849(2) 0.75919(13)
H2 H 0.4420 -0.0040 0.7436
C2 C 0.4918(3) 0.1611(2) 0.68228(14)
H3 H 0.5252 0.2496 0.6912
C3 C 0.3842(3) 0.1419(2) 0.61045(16)
H4 H 0.3620 0.2209 0.5807
C4 C 0.2423(3) 0.0571(3) 0.61991(15)
H5 H 0.2754 -0.0269 0.6380
H6 H 0.1901 0.0476 0.5679
C5 C 0.1269(3) 0.1142(3) 0.68159(15)
H7 H 0.1275 0.2064 0.6754
H8 H 0.0217 0.0845 0.6684
C6 C 0.1598(3) 0.0828(2) 0.77055(14)
C7 C 0.3155(3) 0.1343(2) 0.80501(14)
H9 H 0.3134 0.2274 0.7983
C8 C 0.3218(3) 0.1077(2) 0.89602(14)
H10 H 0.3369 0.0169 0.9046
H11 H 0.4117 0.1519 0.9191
C9 C 0.1737(3) 0.1500(3) 0.93972(16)
H12 H 0.1455 0.0836 0.9781
H13 H 0.1991 0.2259 0.9709
C10 C 0.0324(3) 0.1787(2) 0.88987(15)
C11 C 0.5545(3) 0.1008(2) 0.60542(14)
C12 C 0.6042(3) -0.0383(2) 0.60495(16)
H14 H 0.7022 -0.0473 0.6334
H15 H 0.6169 -0.0667 0.5500
H16 H 0.5249 -0.0890 0.6312
C13 C 0.6608(4) 0.1841(3) 0.55374(17)
H17 H 0.7666 0.1800 0.5742
H18 H 0.6243 0.2709 0.5556
H19 H 0.6589 0.1542 0.4987
C14 C 0.6090(3) 0.0873(2) 0.81113(15)
C15 C 0.1297(3) -0.0585(2) 0.78787(16)
H20 H 0.0274 -0.0818 0.7680
H21 H 0.1345 -0.0733 0.8453
H22 H 0.2084 -0.1092 0.7612
loop_
_geom_bond_atom_site_label_1
_geom_bond_atom_site_label_2
_geom_bond_site_symmetry_1
_geom_bond_site_symmetry_2
O1 C6 1_555 1_555
O2 C10 1_555 1_555
O3 H1 1_555 1_555
O4 C14 1_555 1_555
C1 H2 1_555 1_555
C2 C1 1_555 1_555
H3 C2 1_555 1_555
C3 C2 1_555 1_555
H4 C3 1_555 1_555
C4 C3 1_555 1_555
H5 C4 1_555 1_555
H6 C4 1_555 1_555
C5 C4 1_555 1_555
H7 C5 1_555 1_555
H8 C5 1_555 1_555
C6 C5 1_555 1_555
C7 C1 1_555 1_555
H9 C7 1_555 1_555
C8 C7 1_555 1_555
H10 C8 1_555 1_555
H11 C8 1_555 1_555
C9 C8 1_555 1_555
H12 C9 1_555 1_555
H13 C9 1_555 1_555
C10 O1 1_555 1_555
C11 C2 1_555 1_555
C12 C11 1_555 1_555
H14 C12 1_555 1_555
H15 C12 1_555 1_555
H16 C12 1_555 1_555
C13 C11 1_555 1_555
H17 C13 1_555 1_555
H18 C13 1_555 1_555
H19 C13 1_555 1_555
C14 O3 1_555 1_555
C15 C6 1_555 1_555
H20 C15 1_555 1_555
H21 C15 1_555 1_555
H22 C15 1_555 1_555
C1 C14 1_555 1_555
C3 C11 1_555 1_555
C6 C7 1_555 1_555
C9 C10 1_555 1_555

#END
