
#######################################################################
#
#                 Cambridge Crystallographic Data Centre
#                                CCDC 
#
#######################################################################
#
# If this CIF has been generated from an entry in the Cambridge 
# Structural Database, then it will include bibliographic, chemical, 
# crystal, experimental, refinement or atomic coordinate data resulting 
# from the CCDC's data processing and validation procedures.
#
#######################################################################

data_OXODOV
_chemical_name_common            'Volvalerelactone B'
_chemical_formula_moiety         'C30 H46 O6'
_chemical_name_systematic        
5-(4,5'-Dihydroxy-1,1,4-trimethyldecahydrospiro[cyclopropa[e]azulene-7,4'-[1,3]dioxolan]-2'-yl)-6,6,8a-trimethyldecahydro-2H-cyclopropa[4,5]cyclohepta[1,2-b]pyran-2-one
_symmetry_cell_setting           orthorhombic
_symmetry_space_group_name_H-M   'P 21 21 21'
_symmetry_Int_Tables_number      19
_space_group_name_Hall           'P 2ac 2ab'
loop_
_symmetry_equiv_pos_site_id
_symmetry_equiv_pos_as_xyz
1 x,y,z
2 1/2-x,-y,1/2+z
3 -x,1/2+y,1/2-z
4 1/2+x,1/2-y,-z
_cell_length_a                   13.270(4)
_cell_length_b                   13.618(5)
_cell_length_c                   16.073(5)
_cell_angle_alpha                90
_cell_angle_beta                 90
_cell_angle_gamma                90
_cell_volume                     2904.57
_exptl_crystal_colour            colorless
_exptl_crystal_description       block
_cell_formula_units_Z            4
_exptl_crystal_recrystallization_method methanol
loop_
_atom_site_label
_atom_site_type_symbol
_atom_site_fract_x
_atom_site_fract_y
_atom_site_fract_z
O1 O -0.2041(3) 0.2572(3) 0.1974(3)
H1 H -0.2182 0.3146 0.1875
O2 O 0.1417(3) 0.4190(3) 0.0782(2)
O3 O 0.1786(3) 0.3479(3) -0.0917(2)
H2 H 0.2208 0.3260 -0.1240
O4 O 0.2743(3) 0.3265(3) 0.0298(2)
O5 O 0.5862(3) 0.5398(3) 0.1445(3)
O6 O 0.7110(3) 0.4413(3) 0.1734(3)
C1 C -0.0500(4) 0.2645(4) 0.1163(4)
H3 H -0.0774 0.2127 0.0805
C2 C -0.0745(4) 0.3616(4) 0.0729(3)
H4 H -0.1435 0.3628 0.0531
H5 H -0.0636 0.4171 0.1098
C3 C 0.0003(4) 0.3621(4) 0.0008(3)
H6 H -0.0201 0.3163 -0.0423
H7 H 0.0060 0.4272 -0.0232
C4 C 0.0992(4) 0.3304(4) 0.0407(4)
C5 C 0.0669(4) 0.2559(4) 0.1099(3)
H8 H 0.0970 0.2758 0.1629
C6 C 0.0955(4) 0.1499(4) 0.0917(4)
H9 H 0.0793 0.1277 0.0353
C7 C 0.0747(5) 0.0732(4) 0.1609(4)
H10 H 0.0476 0.0109 0.1403
C8 C 0.0283(6) 0.1072(5) 0.2420(4)
H11 H 0.0302 0.0535 0.2816
H12 H 0.0686 0.1604 0.2645
C9 C -0.0796(5) 0.1418(4) 0.2328(4)
H13 H -0.1127 0.1344 0.2862
H14 H -0.1133 0.0984 0.1939
C10 C -0.0954(5) 0.2468(4) 0.2035(4)
C11 C 0.1820(6) 0.0936(5) 0.1337(5)
C12 C 0.2541(5) 0.1468(5) 0.1919(5)
H15 H 0.2830 0.1006 0.2302
H16 H 0.2180 0.1962 0.2223
H17 H 0.3067 0.1771 0.1600
C13 C 0.2314(5) 0.0130(5) 0.0828(5)
H18 H 0.2853 0.0404 0.0504
H19 H 0.1824 -0.0160 0.0464
H20 H 0.2578 -0.0364 0.1194
C14 C -0.0584(5) 0.3214(4) 0.2672(3)
H21 H -0.0798 0.3860 0.2509
H22 H 0.0139 0.3194 0.2698
H23 H -0.0859 0.3059 0.3208
C15 C 0.1856(4) 0.2984(4) -0.0154(4)
H24 H 0.1841 0.2272 -0.0240
C16 C 0.3091(4) 0.4904(4) 0.0843(3)
H25 H 0.2830 0.5382 0.1244
C17 C 0.2992(4) 0.5350(4) -0.0024(4)
H26 H 0.3116 0.4876 -0.0470
C18 C 0.3379(5) 0.6358(5) -0.0221(4)
H27 H 0.3719 0.6417 -0.0760
C19 C 0.3844(5) 0.6962(4) 0.0475(4)
H28 H 0.3382 0.6994 0.0942
H29 H 0.3965 0.7627 0.0281
C20 C 0.4848(5) 0.6493(4) 0.0756(5)
H30 H 0.5202 0.6265 0.0264
H31 H 0.5259 0.7002 0.1008
C21 C 0.4774(5) 0.5640(4) 0.1367(4)
C22 C 0.4216(4) 0.4722(4) 0.1051(4)
H32 H 0.4545 0.4527 0.0530
C23 C 0.4383(4) 0.3883(4) 0.1671(4)
H33 H 0.4106 0.3282 0.1441
H34 H 0.4022 0.4027 0.2181
C24 C 0.5501(4) 0.3723(5) 0.1873(4)
H35 H 0.5555 0.3583 0.2463
H36 H 0.5724 0.3141 0.1578
C25 C 0.6217(5) 0.4535(5) 0.1675(4)
C26 C 0.2275(6) 0.6145(5) -0.0269(4)
C27 C 0.1545(5) 0.6585(4) 0.0337(4)
H37 H 0.1425 0.7259 0.0194
H38 H 0.1821 0.6548 0.0889
H39 H 0.0922 0.6228 0.0318
C28 C 0.1838(5) 0.6074(5) -0.1144(4)
H40 H 0.1216 0.5714 -0.1127
H41 H 0.2307 0.5741 -0.1500
H42 H 0.1715 0.6722 -0.1356
C29 C 0.2450(4) 0.3981(4) 0.0909(4)
H43 H 0.2536 0.3697 0.1465
C30 C 0.4437(4) 0.5985(4) 0.2233(4)
H44 H 0.4458 0.5441 0.2613
H45 H 0.3762 0.6235 0.2202
H46 H 0.4881 0.6493 0.2425
loop_
_geom_bond_atom_site_label_1
_geom_bond_atom_site_label_2
_geom_bond_site_symmetry_1
_geom_bond_site_symmetry_2
O1 H1 1_555 1_555
O2 C4 1_555 1_555
O3 H2 1_555 1_555
O4 C15 1_555 1_555
O5 C21 1_555 1_555
O6 C25 1_555 1_555
C1 H3 1_555 1_555
C2 C1 1_555 1_555
H4 C2 1_555 1_555
H5 C2 1_555 1_555
C3 C2 1_555 1_555
H6 C3 1_555 1_555
H7 C3 1_555 1_555
C4 C3 1_555 1_555
C5 C1 1_555 1_555
H8 C5 1_555 1_555
C6 C5 1_555 1_555
H9 C6 1_555 1_555
C7 C6 1_555 1_555
H10 C7 1_555 1_555
C8 C7 1_555 1_555
H11 C8 1_555 1_555
H12 C8 1_555 1_555
C9 C8 1_555 1_555
H13 C9 1_555 1_555
H14 C9 1_555 1_555
C10 O1 1_555 1_555
C11 C6 1_555 1_555
C12 C11 1_555 1_555
H15 C12 1_555 1_555
H16 C12 1_555 1_555
H17 C12 1_555 1_555
C13 C11 1_555 1_555
H18 C13 1_555 1_555
H19 C13 1_555 1_555
H20 C13 1_555 1_555
C14 C10 1_555 1_555
H21 C14 1_555 1_555
H22 C14 1_555 1_555
H23 C14 1_555 1_555
C15 O3 1_555 1_555
H24 C15 1_555 1_555
C16 H25 1_555 1_555
C17 C16 1_555 1_555
H26 C17 1_555 1_555
C18 C17 1_555 1_555
H27 C18 1_555 1_555
C19 C18 1_555 1_555
H28 C19 1_555 1_555
H29 C19 1_555 1_555
C20 C19 1_555 1_555
H30 C20 1_555 1_555
H31 C20 1_555 1_555
C21 C20 1_555 1_555
C22 C16 1_555 1_555
H32 C22 1_555 1_555
C23 C22 1_555 1_555
H33 C23 1_555 1_555
H34 C23 1_555 1_555
C24 C23 1_555 1_555
H35 C24 1_555 1_555
H36 C24 1_555 1_555
C25 O5 1_555 1_555
C26 C17 1_555 1_555
C27 C26 1_555 1_555
H37 C27 1_555 1_555
H38 C27 1_555 1_555
H39 C27 1_555 1_555
C28 C26 1_555 1_555
H40 C28 1_555 1_555
H41 C28 1_555 1_555
H42 C28 1_555 1_555
C29 O2 1_555 1_555
H43 C29 1_555 1_555
C30 C21 1_555 1_555
H44 C30 1_555 1_555
H45 C30 1_555 1_555
H46 C30 1_555 1_555
O4 C29 1_555 1_555
C1 C10 1_555 1_555
C4 C5 1_555 1_555
C4 C15 1_555 1_555
C7 C11 1_555 1_555
C9 C10 1_555 1_555
C16 C29 1_555 1_555
C18 C26 1_555 1_555
C21 C22 1_555 1_555
C24 C25 1_555 1_555

#END
