
#######################################################################
#
#                 Cambridge Crystallographic Data Centre
#                                CCDC 
#
#######################################################################
#
# If this CIF has been generated from an entry in the Cambridge 
# Structural Database, then it will include bibliographic, chemical, 
# crystal, experimental, refinement or atomic coordinate data resulting 
# from the CCDC's data processing and validation procedures.
#
#######################################################################

data_OXOFUD
_chemical_formula_moiety         'C24 H24 O5'
_chemical_name_systematic        
7'-Butyl-2',2'-dimethyl-7',8'-dihydro-2H,4'H-spiro[acenaphthylene-1,5'-pyrano[4,3-d][1,3]dioxine]-2,4'-dione
_symmetry_cell_setting           monoclinic
_symmetry_space_group_name_H-M   'P 21/c'
_symmetry_Int_Tables_number      14
_space_group_name_Hall           '-P 2ybc'
loop_
_symmetry_equiv_pos_site_id
_symmetry_equiv_pos_as_xyz
1 x,y,z
2 -x,1/2+y,1/2-z
3 -x,-y,-z
4 x,1/2-y,1/2+z
_cell_length_a                   15.1218(8)
_cell_length_b                   6.9150(3)
_cell_length_c                   19.2577(10)
_cell_angle_alpha                90
_cell_angle_beta                 98.153(4)
_cell_angle_gamma                90
_cell_volume                     1993.37
_cell_formula_units_Z            4
loop_
_atom_site_label
_atom_site_type_symbol
_atom_site_fract_x
_atom_site_fract_y
_atom_site_fract_z
O1 O 0.82370(8) 0.25029(16) 0.79783(6)
O2 O 0.82475(8) 0.19242(16) 0.58643(6)
O3 O 0.65944(9) 0.59074(18) 0.64255(6)
O4 O 0.70281(8) 0.40640(17) 0.55945(6)
O5 O 0.84754(8) 0.68000(17) 0.76779(7)
C1 C 0.70338(12) 0.8125(2) 0.86159(9)
H1 H 0.7443 0.9135 0.8637
C2 C 0.51659(12) 0.3462(2) 0.84432(9)
H2 H 0.4655 0.3434 0.8660
C3 C 0.62869(13) 0.8224(3) 0.89763(10)
H3 H 0.6214 0.9307 0.9249
C4 C 0.65077(11) 0.4995(2) 0.81989(8)
C5 C 0.78306(12) 0.5895(2) 0.78043(9)
C6 C 0.76357(12) 0.3429(2) 0.67854(9)
C7 C 0.57473(12) 0.5080(2) 0.85391(9)
C8 C 0.89959(12) 0.1391(2) 0.70316(9)
H4 H 0.9544 0.1514 0.6828
H5 H 0.8877 0.0025 0.7087
C9 C 0.53537(12) 0.1942(2) 0.80329(9)
H6 H 0.4957 0.0909 0.7969
C10 C 0.76125(11) 0.3747(2) 0.75561(9)
C11 C 0.82465(12) 0.2287(2) 0.65586(9)
C12 C 0.67105(11) 0.3409(2) 0.77942(9)
C13 C 0.56619(12) 0.6771(2) 0.89387(9)
H7 H 0.5174 0.6901 0.9180
C14 C 0.98972(12) 0.2399(3) 0.89955(9)
H8 H 0.9974 0.3765 0.8905
H9 H 0.9376 0.2264 0.9233
C15 C 0.91011(11) 0.2381(2) 0.77409(9)
H10 H 0.9328 0.3694 0.7690
C16 C 0.73925(12) 0.2217(2) 0.54343(9)
C17 C 0.70340(12) 0.4543(3) 0.62835(9)
C18 C 0.71377(12) 0.6493(2) 0.82326(9)
C19 C 0.75738(13) 0.2359(3) 0.46903(9)
H11 H 0.7980 0.3407 0.4650
H12 H 0.7024 0.2591 0.4386
H13 H 0.7834 0.1172 0.4558
C20 C 0.67641(13) 0.0598(3) 0.55540(10)
H14 H 0.7015 -0.0614 0.5436
H15 H 0.6200 0.0793 0.5264
H16 H 0.6677 0.0582 0.6038
C21 C 0.97281(12) 0.1334(3) 0.82985(9)
H17 H 1.0295 0.1134 0.8128
H18 H 0.9480 0.0071 0.8375
C22 C 0.61342(12) 0.1889(3) 0.77007(9)
H19 H 0.6249 0.0839 0.7425
C23 C 1.07096(14) 0.1681(3) 0.94776(11)
H20 H 1.1238 0.1874 0.9253
H21 H 1.0648 0.0304 0.9555
C24 C 1.08323(17) 0.2718(3) 1.01803(12)
H22 H 1.0900 0.4079 1.0107
H23 H 1.1356 0.2229 1.0467
H24 H 1.0319 0.2499 1.0411
loop_
_geom_bond_atom_site_label_1
_geom_bond_atom_site_label_2
_geom_bond_site_symmetry_1
_geom_bond_site_symmetry_2
O1 C10 1_555 1_555
O2 C11 1_555 1_555
O3 C17 1_555 1_555
O4 C16 1_555 1_555
O5 C5 1_555 1_555
C1 H1 1_555 1_555
C2 H2 1_555 1_555
C3 C1 1_555 1_555
H3 C3 1_555 1_555
C4 C7 1_555 1_555
C5 C10 1_555 1_555
C6 C10 1_555 1_555
C7 C2 1_555 1_555
C8 H4 1_555 1_555
H5 C8 1_555 1_555
C9 C2 1_555 1_555
H6 C9 1_555 1_555
C10 C12 1_555 1_555
C11 C6 1_555 1_555
C12 C4 1_555 1_555
C13 C3 1_555 1_555
H7 C13 1_555 1_555
C14 H8 1_555 1_555
H9 C14 1_555 1_555
C15 O1 1_555 1_555
H10 C15 1_555 1_555
C16 O2 1_555 1_555
C17 O4 1_555 1_555
C18 C1 1_555 1_555
C19 C16 1_555 1_555
H11 C19 1_555 1_555
H12 C19 1_555 1_555
H13 C19 1_555 1_555
C20 C16 1_555 1_555
H14 C20 1_555 1_555
H15 C20 1_555 1_555
H16 C20 1_555 1_555
C21 C14 1_555 1_555
H17 C21 1_555 1_555
H18 C21 1_555 1_555
C22 C9 1_555 1_555
H19 C22 1_555 1_555
C23 C14 1_555 1_555
H20 C23 1_555 1_555
H21 C23 1_555 1_555
C24 C23 1_555 1_555
H22 C24 1_555 1_555
H23 C24 1_555 1_555
H24 C24 1_555 1_555
C4 C18 1_555 1_555
C5 C18 1_555 1_555
C6 C17 1_555 1_555
C7 C13 1_555 1_555
C8 C11 1_555 1_555
C8 C15 1_555 1_555
C12 C22 1_555 1_555
C15 C21 1_555 1_555

#END
