
#######################################################################
#
#                 Cambridge Crystallographic Data Centre
#                                CCDC 
#
#######################################################################
#
# If this CIF has been generated from an entry in the Cambridge 
# Structural Database, then it will include bibliographic, chemical, 
# crystal, experimental, refinement or atomic coordinate data resulting 
# from the CCDC's data processing and validation procedures.
#
#######################################################################

data_OXOGUF
_chemical_formula_moiety         'C6 H8 O6,C6 H6 N2 O1'
_chemical_name_systematic        
'isonicotinamide 5-(1,2-dihydroxyethyl)-3,4-dihydroxyfuran-2(5H)-one'
_symmetry_cell_setting           orthorhombic
_symmetry_space_group_name_H-M   'P 21 21 21'
_symmetry_Int_Tables_number      19
_space_group_name_Hall           'P 2ac 2ab'
loop_
_symmetry_equiv_pos_site_id
_symmetry_equiv_pos_as_xyz
1 x,y,z
2 1/2+x,1/2-y,-z
3 -x,1/2+y,1/2-z
4 1/2-x,-y,1/2+z
_cell_length_a                   5.8274(2)
_cell_length_b                   9.9168(3)
_cell_length_c                   23.1227(8)
_cell_angle_alpha                90
_cell_angle_beta                 90
_cell_angle_gamma                90
_cell_volume                     1336.24
_exptl_crystal_colour            colorless
_exptl_crystal_description       block
_cell_formula_units_Z            4
loop_
_atom_site_label
_atom_site_type_symbol
_atom_site_fract_x
_atom_site_fract_y
_atom_site_fract_z
O1 O -0.1871(3) 0.75045(17) 0.77380(6)
H1 H -0.1866 0.7858 0.7417
O2 O 0.7525(3) 0.44413(17) 0.87066(7)
H2 H 0.7443 0.4290 0.9055
O3 O 0.1051(3) 0.61076(16) 0.68709(6)
O4 O 0.3454(3) 0.57085(15) 0.76082(6)
O5 O 0.1665(3) 0.36896(15) 0.83077(7)
H3 H 0.0418 0.3968 0.8420
O6 O 0.0771(3) 0.70763(16) 0.88738(6)
H4 H -0.0409 0.7527 0.8874
C1 C 0.0181(4) 0.6891(2) 0.78321(9)
C2 C 0.1280(4) 0.6711(2) 0.83307(9)
C3 C 0.3418(4) 0.5909(2) 0.82317(8)
C4 C 0.3438(4) 0.4535(2) 0.85242(9)
C5 C 0.5673(4) 0.3790(3) 0.84180(10)
C6 C 0.1481(4) 0.6224(2) 0.73816(9)
H5 H 0.328(4) 0.4685(19) 0.8940(9)
H6 H 0.554(4) 0.284(2) 0.8544(9)
H7 H 0.602(4) 0.376(2) 0.7980(10)
H8 H 0.481(4) 0.641(2) 0.8325(9)
O7 O 0.6498(3) 0.35696(16) -0.02238(6)
C7 C 1.0568(4) 0.5821(2) 0.12824(10)
H9 H 1.0843 0.5924 0.1676
C8 C 0.8811(4) 0.4978(2) 0.11120(10)
H10 H 0.7914 0.4543 0.1387
C9 C 0.6543(4) 0.3875(2) 0.02986(9)
N1 N 0.4981(4) 0.3418(2) 0.06602(8)
H11 H 0.3904 0.2899 0.0537
H12 H 0.5038 0.3639 0.1020
N2 N 1.1900(3) 0.64970(19) 0.09099(8)
C10 C 0.8392(4) 0.4785(2) 0.05286(9)
C11 C 1.1482(5) 0.6309(3) 0.03468(10)
H13 H 1.2392 0.6766 0.0081
C12 C 0.9781(4) 0.5477(2) 0.01382(10)
H14 H 0.9562 0.5378 -0.0258
loop_
_geom_bond_atom_site_label_1
_geom_bond_atom_site_label_2
_geom_bond_site_symmetry_1
_geom_bond_site_symmetry_2
O1 H1 1_555 1_555
O2 H2 1_555 1_555
O3 C6 1_555 1_555
O4 C3 1_555 1_555
O5 H3 1_555 1_555
O6 H4 1_555 1_555
C1 O1 1_555 1_555
C2 O6 1_555 1_555
C3 C2 1_555 1_555
C4 O5 1_555 1_555
C5 O2 1_555 1_555
C6 O4 1_555 1_555
H5 C4 1_555 1_555
H6 C5 1_555 1_555
H7 C5 1_555 1_555
H8 C3 1_555 1_555
O7 C9 1_555 1_555
C7 H9 1_555 1_555
C8 C7 1_555 1_555
H10 C8 1_555 1_555
C9 N1 1_555 1_555
N1 H11 1_555 1_555
H12 N1 1_555 1_555
N2 C7 1_555 1_555
C10 C8 1_555 1_555
C11 N2 1_555 1_555
H13 C11 1_555 1_555
C12 C10 1_555 1_555
H14 C12 1_555 1_555
C1 C2 1_555 1_555
C1 C6 1_555 1_555
C3 C4 1_555 1_555
C4 C5 1_555 1_555
C9 C10 1_555 1_555
C11 C12 1_555 1_555

#END
