
#######################################################################
#
#                 Cambridge Crystallographic Data Centre
#                                CCDC 
#
#######################################################################
#
# If this CIF has been generated from an entry in the Cambridge 
# Structural Database, then it will include bibliographic, chemical, 
# crystal, experimental, refinement or atomic coordinate data resulting 
# from the CCDC's data processing and validation procedures.
#
#######################################################################

data_OXOHOA
_chemical_formula_moiety         'C6 H8 O6,C6 H6 N2 O1,C1 H4 O1'
_chemical_name_systematic        
'5-(1,2-dihydroxyethyl)-3,4-dihydroxyfuran-2(5H)-one nicotinamide methanol solvate'
_symmetry_cell_setting           triclinic
_symmetry_space_group_name_H-M   'P 1'
_symmetry_Int_Tables_number      1
_space_group_name_Hall           'P 1'
loop_
_symmetry_equiv_pos_site_id
_symmetry_equiv_pos_as_xyz
1 x,y,z
_cell_length_a                   5.0892(3)
_cell_length_b                   7.5329(5)
_cell_length_c                   19.7851(12)
_cell_angle_alpha                84.757(4)
_cell_angle_beta                 85.752(4)
_cell_angle_gamma                81.727(4)
_cell_volume                     746.027
_exptl_crystal_colour            colorless
_exptl_crystal_description       needle
_cell_formula_units_Z            2
loop_
_atom_site_label
_atom_site_type_symbol
_atom_site_fract_x
_atom_site_fract_y
_atom_site_fract_z
O1 O 0.4593(8) 0.9818(6) 0.9783(2)
O2 O 0.9340(8) 0.7150(6) 1.0116(2)
H1 H 0.8151 0.7458 1.0402
O3 O 1.2615(8) 0.7050(7) 0.8774(2)
H2 H 1.3078 0.6411 0.9114
O4 O 0.7195(8) 0.6938(6) 0.7920(2)
H3 H 0.5813 0.7201 0.8151
O5 O 0.8191(10) 1.1334(6) 0.7041(3)
H4 H 0.9630 1.0997 0.6846
O6 O 0.6556(8) 1.0100(6) 0.8738(2)
C1 C 0.6441(12) 0.9367(8) 0.9400(3)
C2 C 0.8884(11) 0.8139(8) 0.9519(3)
C3 C 1.0360(11) 0.8073(7) 0.8919(3)
C4 C 0.9037(11) 0.9330(8) 0.8387(3)
H5 H 1.0130 1.0288 0.8251
C5 C 0.8505(11) 0.8483(8) 0.7774(3)
H6 H 1.0230 0.8094 0.7540
C6 C 0.6895(13) 0.9802(8) 0.7275(3)
H7 H 0.6591 0.9178 0.6886
H8 H 0.5175 1.0213 0.7494
O7 O 0.6676(9) 0.1634(6) 0.3191(2)
O8 O 0.1633(8) 0.4113(6) 0.2877(2)
H9 H 0.2667 0.3706 0.2573
O9 O -0.0888(9) 0.4842(6) 0.4293(2)
H10 H -0.1633 0.5315 0.3956
O10 O 0.0382(8) 0.0332(6) 0.4810(2)
H11 H -0.0398 -0.0316 0.5088
O11 O 0.2087(9) -0.0417(6) 0.6188(2)
H12 H 0.1819 -0.1389 0.6071
O12 O 0.5201(7) 0.1830(6) 0.4284(2)
C7 C 0.4941(11) 0.2263(8) 0.3610(3)
C8 C 0.2544(11) 0.3446(7) 0.3492(3)
C9 C 0.1288(12) 0.3841(8) 0.4106(3)
C10 C 0.2930(11) 0.2846(8) 0.4657(3)
H13 H 0.3594 0.3718 0.4916
C11 C 0.1468(11) 0.1572(8) 0.5148(3)
H14 H 0.0040 0.2282 0.5407
C12 C 0.3447(12) 0.0507(9) 0.5648(3)
H15 H 0.4688 -0.0352 0.5406
H16 H 0.4457 0.1332 0.5831
O13 O 0.7515(8) 0.8245(7) 0.1331(2)
N1 N 0.6113(10) 0.6805(7) 0.3402(3)
N2 N 0.3162(10) 0.8559(8) 0.1176(3)
H17 H 0.3423 0.8761 0.0743
H18 H 0.1571 0.8557 0.1356
C13 C 0.3854(13) 0.7667(8) 0.3700(3)
H19 H 0.3606 0.7534 0.4171
C14 C 0.1982(12) 0.8693(7) 0.3352(3)
H20 H 0.0480 0.9265 0.3581
C15 C 0.2266(12) 0.8915(9) 0.2640(4)
H21 H 0.0935 0.9583 0.2389
C16 C 0.4619(12) 0.8096(7) 0.2318(3)
C17 C 0.6474(11) 0.7019(7) 0.2723(3)
H22 H 0.8010 0.6433 0.2513
C18 C 0.5196(11) 0.8255(8) 0.1563(3)
O14 O 0.3751(8) 0.3126(6) 0.1640(2)
N3 N 0.5226(9) 0.4787(6) -0.0395(3)
N4 N 0.8139(10) 0.2804(8) 0.1796(3)
H23 H 0.7875 0.2648 0.2231
H24 H 0.9733 0.2781 0.1616
C19 C 0.7434(11) 0.4006(8) -0.0710(3)
H25 H 0.7661 0.4227 -0.1179
C20 C 0.9424(11) 0.2876(7) -0.0375(3)
H26 H 1.0964 0.2367 -0.0607
C21 C 0.8987(11) 0.2546(8) 0.0329(3)
H27 H 1.0255 0.1793 0.0574
C22 C 0.6663(11) 0.3337(8) 0.0665(3)
C23 C 0.4841(12) 0.4434(8) 0.0274(3)
H28 H 0.3267 0.4952 0.0488
C24 C 0.6097(12) 0.3079(8) 0.1406(3)
O15 O 1.1507(13) 0.6209(8) 0.5922(4)
H29 H 1.2287 0.5361 0.6151
C25 C 0.874(2) 0.6071(13) 0.5959(6)
H30 H 0.8143 0.5782 0.6423
H31 H 0.8426 0.5140 0.5686
H32 H 0.7770 0.7197 0.5793
C26 C 0.27873(4) 0.40135(4) 0.75486(3)
H33 H 0.3470 0.5080 0.7646
H34 H 0.3480 0.3020 0.7853
H35 H 0.0881 0.4200 0.7606
O16 O 0.35901(10) 0.36222(12) 0.68532(4)
H36 H 0.53836(13) 0.3854(3) 0.68074(5)
loop_
_geom_bond_atom_site_label_1
_geom_bond_atom_site_label_2
_geom_bond_site_symmetry_1
_geom_bond_site_symmetry_2
O1 C1 1_555 1_555
O2 H1 1_555 1_555
O3 H2 1_555 1_555
O4 H3 1_555 1_555
O5 H4 1_555 1_555
O6 C1 1_555 1_555
C1 C2 1_555 1_555
C2 O2 1_555 1_555
C3 O3 1_555 1_555
C4 O6 1_555 1_555
H5 C4 1_555 1_555
C5 O4 1_555 1_555
H6 C5 1_555 1_555
C6 O5 1_555 1_555
H7 C6 1_555 1_555
H8 C6 1_555 1_555
O7 C7 1_555 1_555
O8 H9 1_555 1_555
O9 H10 1_555 1_555
O10 H11 1_555 1_555
O11 H12 1_555 1_555
O12 C7 1_555 1_555
C7 C8 1_555 1_555
C8 O8 1_555 1_555
C9 O9 1_555 1_555
C10 O12 1_555 1_555
H13 C10 1_555 1_555
C11 O10 1_555 1_555
H14 C11 1_555 1_555
C12 O11 1_555 1_555
H15 C12 1_555 1_555
H16 C12 1_555 1_555
O13 C18 1_555 1_555
N1 C13 1_555 1_555
N2 H17 1_555 1_555
H18 N2 1_555 1_555
C13 H19 1_555 1_555
C14 C13 1_555 1_555
H20 C14 1_555 1_555
C15 C14 1_555 1_555
H21 C15 1_555 1_555
C16 C15 1_555 1_555
C17 N1 1_555 1_555
H22 C17 1_555 1_555
C18 N2 1_555 1_555
O14 C24 1_555 1_555
N3 C19 1_555 1_555
N4 H23 1_555 1_555
H24 N4 1_555 1_555
C19 H25 1_555 1_555
C20 C19 1_555 1_555
H26 C20 1_555 1_555
C21 C20 1_555 1_555
H27 C21 1_555 1_555
C22 C21 1_555 1_555
C23 N3 1_555 1_555
H28 C23 1_555 1_555
C24 N4 1_555 1_555
O15 H29 1_555 1_555
C25 O15 1_555 1_555
H30 C25 1_555 1_555
H31 C25 1_555 1_555
H32 C25 1_555 1_555
C26 H33 1_555 1_555
H34 C26 1_555 1_555
H35 C26 1_555 1_555
O16 C26 1_555 1_555
H36 O16 1_555 1_555
C2 C3 1_555 1_555
C3 C4 1_555 1_555
C4 C5 1_555 1_555
C5 C6 1_555 1_555
C8 C9 1_555 1_555
C9 C10 1_555 1_555
C10 C11 1_555 1_555
C11 C12 1_555 1_555
C16 C17 1_555 1_555
C16 C18 1_555 1_555
C22 C23 1_555 1_555
C22 C24 1_555 1_555

#END
