
#######################################################################
#
#                 Cambridge Crystallographic Data Centre
#                                CCDC 
#
#######################################################################
#
# If this CIF has been generated from an entry in the Cambridge 
# Structural Database, then it will include bibliographic, chemical, 
# crystal, experimental, refinement or atomic coordinate data resulting 
# from the CCDC's data processing and validation procedures.
#
#######################################################################

data_OXOHIU
_chemical_formula_moiety         'C6 H8 O6,3(C6 H6 N2 O1)'
_chemical_name_systematic        
'tris(nicotinamide) 5-(1,2-dihydroxyethyl)-3,4-dihydroxyfuran-2(5H)-one'
_symmetry_cell_setting           monoclinic
_symmetry_space_group_name_H-M   'P 21'
_symmetry_Int_Tables_number      4
_space_group_name_Hall           'P 2yb'
loop_
_symmetry_equiv_pos_site_id
_symmetry_equiv_pos_as_xyz
1 x,y,z
2 -x,1/2+y,-z
_cell_length_a                   5.074(2)
_cell_length_b                   29.696(14)
_cell_length_c                   8.498(4)
_cell_angle_alpha                90
_cell_angle_beta                 103.16(3)
_cell_angle_gamma                90
_cell_volume                     1246.83
_exptl_crystal_colour            colorless
_exptl_crystal_description       block
_cell_formula_units_Z            2
loop_
_atom_site_label
_atom_site_type_symbol
_atom_site_fract_x
_atom_site_fract_y
_atom_site_fract_z
N1 N 1.1043(11) 0.4889(2) 0.5760(8)
H1 H 1.0853 0.5127 0.6302
H2 H 1.2589 0.4757 0.5920
O1 O 0.6665(9) 0.49011(16) 0.4390(7)
N2 N 0.7315(9) 0.37409(19) 0.1936(6)
C1 C 0.8907(14) 0.4723(3) 0.4656(9)
C2 C 0.9310(12) 0.4286(2) 0.3905(8)
C3 C 0.7206(12) 0.4134(2) 0.2658(8)
H3 H 0.5682 0.4314 0.2324
C4 C 0.9505(12) 0.3484(2) 0.2393(8)
H4 H 0.9582 0.3213 0.1856
C5 C 1.1630(12) 0.3600(2) 0.3608(7)
H5 H 1.3080 0.3405 0.3955
C6 C 1.1563(12) 0.4013(2) 0.4302(8)
H6 H 1.3072 0.4112 0.5061
O2 O 1.0088(9) 0.57890(18) 0.7017(7)
N3 N 0.4772(14) 0.71148(19) 0.7085(9)
N4 N 0.5773(11) 0.5769(2) 0.5725(8)
H7 H 0.6002 0.5504 0.5369
H8 H 0.4208 0.5895 0.5470
C7 C 0.7773(13) 0.5977(2) 0.6641(8)
C8 C 0.7454(13) 0.6435(2) 0.7161(8)
C9 C 0.5102(15) 0.6694(3) 0.6578(9)
H9 H 0.3708 0.6567 0.5803
C10 C 0.6764(15) 0.7278(3) 0.8254(9)
H10 H 0.6530 0.7560 0.8677
C11 C 0.9476(15) 0.6627(3) 0.8336(9)
H11 H 1.1059 0.6469 0.8764
C12 C 0.9122(19) 0.7053(3) 0.8862(12)
H12 H 1.0485 0.7189 0.9633
O3 O 0.6192(9) 0.42902(16) 0.7710(6)
O4 O 1.3888(8) 0.33831(16) 0.9621(6)
H13 H 1.4660 0.3554 1.0338
O5 O 1.1405(9) 0.42640(16) 1.0257(5)
H14 H 1.0390 0.4482 1.0141
O6 O 0.7718(8) 0.28265(16) 0.9023(5)
H15 H 0.7443 0.3082 0.9319
O7 O 0.8983(12) 0.2612(2) 0.5113(7)
H16 H 0.8120 0.2493 0.4285
O8 O 0.7524(8) 0.36175(14) 0.6901(5)
C13 C 0.7894(13) 0.3989(2) 0.7945(8)
C14 C 0.9917(12) 0.3325(2) 0.7388(8)
H17 H 1.0896 0.3318 0.6518
C15 C 0.9088(13) 0.2852(2) 0.7710(8)
H18 H 1.0751 0.2674 0.8030
C16 C 0.7396(13) 0.2634(3) 0.6246(8)
H19 H 0.6861 0.2334 0.6503
H20 H 0.5777 0.2810 0.5830
C17 C 1.1632(12) 0.3568(2) 0.8840(7)
C18 C 1.0495(13) 0.3964(2) 0.9062(8)
O9 O 1.0171(8) 0.51110(16) 0.0341(7)
N5 N 0.5600(11) 0.5083(2) -0.0370(8)
H21 H 0.5651 0.4842 -0.0926
H22 H 0.4067 0.5198 -0.0317
C19 C 0.7950(12) 0.5282(2) 0.0427(9)
N6 N 1.0213(6) 0.62182(12) 0.3284(4)
C20 C 0.8087(7) 0.65234(13) 0.2892(5)
H23 H 0.8168 0.6794 0.3450
C21 C 0.5840(7) 0.64236(18) 0.1666(6)
H24 H 0.4418 0.6628 0.1404
C22 C 0.5718(8) 0.6019(2) 0.0832(5)
H25 H 0.4215 0.5952 0.0012
C23 C 0.7844(9) 0.57135(16) 0.1224(5)
C24 C 1.0091(8) 0.58132(12) 0.2450(5)
H26 H 1.1514 0.5609 0.2712
loop_
_geom_bond_atom_site_label_1
_geom_bond_atom_site_label_2
_geom_bond_site_symmetry_1
_geom_bond_site_symmetry_2
N1 H1 1_555 1_555
H2 N1 1_555 1_555
O1 C1 1_555 1_555
N2 C3 1_555 1_555
C1 N1 1_555 1_555
C2 C1 1_555 1_555
C3 C2 1_555 1_555
H3 C3 1_555 1_555
C4 N2 1_555 1_555
H4 C4 1_555 1_555
C5 C4 1_555 1_555
H5 C5 1_555 1_555
C6 C2 1_555 1_555
H6 C6 1_555 1_555
O2 C7 1_555 1_555
N3 C9 1_555 1_555
N4 H7 1_555 1_555
H8 N4 1_555 1_555
C7 N4 1_555 1_555
C8 C7 1_555 1_555
C9 C8 1_555 1_555
H9 C9 1_555 1_555
C10 N3 1_555 1_555
H10 C10 1_555 1_555
C11 C8 1_555 1_555
H11 C11 1_555 1_555
C12 C10 1_555 1_555
H12 C12 1_555 1_555
O3 C13 1_555 1_555
O4 H13 1_555 1_555
O5 H14 1_555 1_555
O6 H15 1_555 1_555
O7 H16 1_555 1_555
O8 C13 1_555 1_555
C13 C18 1_555 1_555
C14 O8 1_555 1_555
H17 C14 1_555 1_555
C15 O6 1_555 1_555
H18 C15 1_555 1_555
C16 O7 1_555 1_555
H19 C16 1_555 1_555
H20 C16 1_555 1_555
C17 O4 1_555 1_555
C18 O5 1_555 1_555
O9 C19 1_555 1_555
N5 H21 1_555 1_555
H22 N5 1_555 1_555
C19 N5 1_555 1_555
N6 C20 1_555 1_555
C20 H23 1_555 1_555
C21 C20 1_555 1_555
H24 C21 1_555 1_555
C22 C21 1_555 1_555
H25 C22 1_555 1_555
C23 C19 1_555 1_555
C24 N6 1_555 1_555
H26 C24 1_555 1_555
C5 C6 1_555 1_555
C11 C12 1_555 1_555
C14 C15 1_555 1_555
C14 C17 1_555 1_555
C15 C16 1_555 1_555
C17 C18 1_555 1_555
C22 C23 1_555 1_555
C23 C24 1_555 1_555

#END
