
#######################################################################
#
#                 Cambridge Crystallographic Data Centre
#                                CCDC 
#
#######################################################################
#
# If this CIF has been generated from an entry in the Cambridge 
# Structural Database, then it will include bibliographic, chemical, 
# crystal, experimental, refinement or atomic coordinate data resulting 
# from the CCDC's data processing and validation procedures.
#
#######################################################################

data_OXOTAY
_chemical_formula_moiety         'C29 H23 N1 O2'
_chemical_name_systematic        
2'-ethoxy-2'-phenyl-1',2'-dihydro-4'H-spiro[fluorene-9,3'-quinolin]-4'-one
_symmetry_cell_setting           monoclinic
_symmetry_space_group_name_H-M   'P 21/c'
_symmetry_Int_Tables_number      14
_space_group_name_Hall           '-P 2ybc'
loop_
_symmetry_equiv_pos_site_id
_symmetry_equiv_pos_as_xyz
1 x,y,z
2 -x,1/2+y,1/2-z
3 -x,-y,-z
4 x,1/2-y,1/2+z
_cell_length_a                   13.3860(7)
_cell_length_b                   22.1035(9)
_cell_length_c                   15.0948(8)
_cell_angle_alpha                90
_cell_angle_beta                 90.213(5)
_cell_angle_gamma                90
_cell_volume                     4466.18
_exptl_crystal_colour            colorless
_exptl_crystal_description       block
_cell_formula_units_Z            8
loop_
_atom_site_label
_atom_site_type_symbol
_atom_site_fract_x
_atom_site_fract_y
_atom_site_fract_z
O1 O 1.06909(14) 0.24459(9) 0.33949(14)
O2 O 0.81220(13) 0.20050(8) 0.28639(13)
N1 N 0.78738(16) 0.22435(9) 0.43875(16)
C1 C 0.94001(19) 0.17567(11) 0.38424(19)
C2 C 0.9739(2) 0.15157(12) 0.4745(2)
C3 C 0.9605(2) 0.17581(14) 0.5572(2)
H1 H 0.9256 0.2118 0.5693
C4 C 1.0104(6) 0.1360(4) 0.6263(5)
H2 H 1.0059 0.1470 0.6863
C5 C 1.0617(6) 0.0846(3) 0.6045(7)
H3 H 1.0903 0.0618 0.6507
C6 C 1.0737(7) 0.0644(4) 0.5196(6)
H4 H 1.1116 0.0301 0.5044
C7 C 1.0269(2) 0.09801(13) 0.4621(3)
C8 C 1.0327(2) 0.08387(13) 0.3687(3)
C9 C 1.0783(3) 0.03608(16) 0.3243(4)
H5 H 1.1100 0.0049 0.3560
C10 C 1.0762(3) 0.0354(2) 0.2334(4)
H6 H 1.1060 0.0031 0.2027
C11 C 1.0310(3) 0.0812(2) 0.1867(3)
H7 H 1.0316 0.0802 0.1244
C12 C 0.9847(2) 0.12883(16) 0.2294(2)
H8 H 0.9540 0.1601 0.1970
C13 C 0.9846(2) 0.12944(13) 0.3211(2)
C14 C 0.9862(2) 0.23862(12) 0.37235(19)
C15 C 0.9287(2) 0.28993(11) 0.40696(19)
C16 C 0.9715(2) 0.34761(13) 0.4104(2)
H9 H 1.0369 0.3534 0.3895
C17 C 0.9196(3) 0.39561(14) 0.4438(3)
H10 H 0.9489 0.4342 0.4459
C18 C 0.8233(3) 0.38699(13) 0.4745(3)
H11 H 0.7875 0.4201 0.4972
C19 C 0.7791(2) 0.33077(13) 0.4725(2)
H12 H 0.7136 0.3257 0.4935
C20 C 0.8317(2) 0.28131(11) 0.4390(2)
C21 C 0.82435(19) 0.18056(11) 0.37591(19)
C22 C 0.7718(2) 0.12025(11) 0.3928(2)
C23 C 0.7468(2) 0.08222(13) 0.3227(2)
H13 H 0.7614 0.0939 0.2642
C24 C 0.7004(2) 0.02708(14) 0.3387(3)
H14 H 0.6827 0.0020 0.2908
C25 C 0.6802(2) 0.00890(14) 0.4234(3)
H15 H 0.6496 -0.0287 0.4338
C26 C 0.7050(2) 0.04612(14) 0.4935(2)
H16 H 0.6913 0.0338 0.5518
C27 C 0.7500(2) 0.10153(12) 0.4782(2)
H17 H 0.7659 0.1268 0.5263
C28 C 0.7147(2) 0.22327(15) 0.2621(2)
H18 H 0.6640 0.1925 0.2747
H19 H 0.6994 0.2593 0.2975
C29 C 0.7122(6) 0.2384(3) 0.1700(5)
H20 H 0.7633 0.2683 0.1576
H21 H 0.6471 0.2548 0.1550
H22 H 0.7244 0.2023 0.1351
O3 O 0.57156(14) 0.23245(8) 0.47393(14)
O4 O 0.31344(13) 0.27164(7) 0.52850(12)
N2 N 0.28833(16) 0.25108(8) 0.37477(14)
C34 C 0.44019(19) 0.30102(11) 0.43125(17)
C35 C 0.4848(2) 0.34645(11) 0.4959(2)
C36 C 0.4879(2) 0.34511(13) 0.5872(2)
H29 H 0.4593 0.3127 0.6185
C37 C 0.5341(2) 0.39253(15) 0.6322(2)
H30 H 0.5365 0.3922 0.6944
C38 C 0.5764(2) 0.43993(15) 0.5862(3)
H31 H 0.6073 0.4716 0.6175
C39 C 0.5740(2) 0.44131(13) 0.4956(3)
H32 H 0.6031 0.4737 0.4646
C40 C 0.5280(2) 0.39438(11) 0.4501(2)
C41 C 0.5181(2) 0.38384(12) 0.3550(2)
C42 C 0.5471(3) 0.41834(14) 0.2824(3)
H33 H 0.5785 0.4559 0.2908
C43 C 0.5293(3) 0.39703(17) 0.1986(3)
H34 H 0.5481 0.4205 0.1495
C44 C 0.4842(3) 0.34150(16) 0.1854(2)
H35 H 0.4737 0.3272 0.1275
C45 C 0.4542(2) 0.30659(13) 0.2573(2)
H36 H 0.4236 0.2688 0.2483
C46 C 0.46983(19) 0.32825(11) 0.34221(19)
C47 C 0.4886(2) 0.23805(11) 0.44064(19)
C48 C 0.4329(2) 0.18687(11) 0.40333(19)
C49 C 0.4773(2) 0.12960(12) 0.3990(2)
H37 H 0.5421 0.1239 0.4217
C50 C 0.4272(2) 0.08195(13) 0.3621(2)
H38 H 0.4576 0.0437 0.3587
C51 C 0.3314(3) 0.09028(13) 0.3297(2)
H39 H 0.2975 0.0575 0.3037
C52 C 0.2850(2) 0.14545(12) 0.3348(2)
H40 H 0.2195 0.1500 0.3130
C53 C 0.3349(2) 0.19506(11) 0.37225(18)
C54 C 0.32468(19) 0.29447(11) 0.44033(18)
C55 C 0.27143(19) 0.35433(11) 0.42853(19)
C56 C 0.2533(2) 0.39112(12) 0.5014(2)
H41 H 0.2728 0.3782 0.5582
C57 C 0.2068(2) 0.44651(12) 0.4910(2)
H42 H 0.1946 0.4708 0.5409
C58 C 0.1783(2) 0.46632(13) 0.4089(3)
H43 H 0.1468 0.5041 0.4023
C59 C 0.1961(2) 0.43083(13) 0.3364(2)
H44 H 0.1770 0.4444 0.2798
C60 C 0.2421(2) 0.37498(12) 0.3460(2)
H45 H 0.2534 0.3509 0.2957
C61 C 0.2143(2) 0.25089(13) 0.55054(19)
H46 H 0.2073 0.2079 0.5359
H47 H 0.1643 0.2737 0.5166
C62 C 0.1986(5) 0.2604(3) 0.6481(4)
H48 H 0.2482 0.2376 0.6811
H49 H 0.1323 0.2466 0.6643
H50 H 0.2052 0.3031 0.6619
C30? C 0.9821(6) 0.1538(3) 0.6367(6)
H23? H 0.9655 0.1732 0.6902
C31? C 1.0321(7) 0.0990(4) 0.6318(6)
H24? H 1.0512 0.0802 0.6851
C32? C 1.0562(7) 0.0695(4) 0.5508(8)
H25? H 1.0902 0.0323 0.5519
C33? C 0.7295(6) 0.2690(3) 0.1916(6)
H26? H 0.7741 0.2529 0.1469
H27? H 0.7584 0.3053 0.2171
H28? H 0.6656 0.2787 0.1646
C63? C 0.2173(6) 0.2325(3) 0.6448(5)
H51? H 0.2571 0.1960 0.6510
H52? H 0.1499 0.2247 0.6653
H53? H 0.2468 0.2646 0.6800
loop_
_geom_bond_atom_site_label_1
_geom_bond_atom_site_label_2
_geom_bond_site_symmetry_1
_geom_bond_site_symmetry_2
O1 C14 1_555 1_555
O2 C21 1_555 1_555
N1 C20 1_555 1_555
C1 C2 1_555 1_555
C2 C3 1_555 1_555
C3 H1 1_555 1_555
C4 C3 1_555 1_555
H2 C4 1_555 1_555
C5 C4 1_555 1_555
H3 C5 1_555 1_555
C6 C5 1_555 1_555
H4 C6 1_555 1_555
C7 C2 1_555 1_555
C8 C7 1_555 1_555
C9 C8 1_555 1_555
H5 C9 1_555 1_555
C10 C9 1_555 1_555
H6 C10 1_555 1_555
C11 C10 1_555 1_555
H7 C11 1_555 1_555
C12 C11 1_555 1_555
H8 C12 1_555 1_555
C13 C1 1_555 1_555
C14 C1 1_555 1_555
C15 C14 1_555 1_555
C16 C15 1_555 1_555
H9 C16 1_555 1_555
C17 C16 1_555 1_555
H10 C17 1_555 1_555
C18 C17 1_555 1_555
H11 C18 1_555 1_555
C19 C18 1_555 1_555
H12 C19 1_555 1_555
C20 C15 1_555 1_555
C21 N1 1_555 1_555
C22 C21 1_555 1_555
C23 C22 1_555 1_555
H13 C23 1_555 1_555
C24 C23 1_555 1_555
H14 C24 1_555 1_555
C25 C24 1_555 1_555
H15 C25 1_555 1_555
C26 C25 1_555 1_555
H16 C26 1_555 1_555
C27 C22 1_555 1_555
H17 C27 1_555 1_555
C28 O2 1_555 1_555
H18 C28 1_555 1_555
H19 C28 1_555 1_555
C29 C28 1_555 1_555
H20 C29 1_555 1_555
H21 C29 1_555 1_555
H22 C29 1_555 1_555
O3 C47 1_555 1_555
O4 C54 1_555 1_555
N2 C53 1_555 1_555
C34 C35 1_555 1_555
C35 C36 1_555 1_555
C36 H29 1_555 1_555
C37 C36 1_555 1_555
H30 C37 1_555 1_555
C38 C37 1_555 1_555
H31 C38 1_555 1_555
C39 C38 1_555 1_555
H32 C39 1_555 1_555
C40 C35 1_555 1_555
C41 C40 1_555 1_555
C42 C41 1_555 1_555
H33 C42 1_555 1_555
C43 C42 1_555 1_555
H34 C43 1_555 1_555
C44 C43 1_555 1_555
H35 C44 1_555 1_555
C45 C44 1_555 1_555
H36 C45 1_555 1_555
C46 C34 1_555 1_555
C47 C34 1_555 1_555
C48 C47 1_555 1_555
C49 C48 1_555 1_555
H37 C49 1_555 1_555
C50 C49 1_555 1_555
H38 C50 1_555 1_555
C51 C50 1_555 1_555
H39 C51 1_555 1_555
C52 C51 1_555 1_555
H40 C52 1_555 1_555
C53 C48 1_555 1_555
C54 N2 1_555 1_555
C55 C54 1_555 1_555
C56 C55 1_555 1_555
H41 C56 1_555 1_555
C57 C56 1_555 1_555
H42 C57 1_555 1_555
C58 C57 1_555 1_555
H43 C58 1_555 1_555
C59 C58 1_555 1_555
H44 C59 1_555 1_555
C60 C55 1_555 1_555
H45 C60 1_555 1_555
C61 O4 1_555 1_555
H46 C61 1_555 1_555
H47 C61 1_555 1_555
C62 C61 1_555 1_555
H48 C62 1_555 1_555
H49 C62 1_555 1_555
H50 C62 1_555 1_555
C1 C21 1_555 1_555
C6 C7 1_555 1_555
C8 C13 1_555 1_555
C12 C13 1_555 1_555
C19 C20 1_555 1_555
C26 C27 1_555 1_555
C34 C54 1_555 1_555
C39 C40 1_555 1_555
C41 C46 1_555 1_555
C45 C46 1_555 1_555
C52 C53 1_555 1_555
C59 C60 1_555 1_555

#END
