
#######################################################################
#
#                 Cambridge Crystallographic Data Centre
#                                CCDC 
#
#######################################################################
#
# If this CIF has been generated from an entry in the Cambridge 
# Structural Database, then it will include bibliographic, chemical, 
# crystal, experimental, refinement or atomic coordinate data resulting 
# from the CCDC's data processing and validation procedures.
#
#######################################################################

data_OXOTEC
_chemical_formula_moiety         'C27 H16 F1 N1 O1'
_chemical_name_systematic        
4-(2-fluoro-9H-fluoren-9-ylidene)-2-phenyl-4H-3,1-benzoxazine
_symmetry_cell_setting           orthorhombic
_symmetry_space_group_name_H-M   'P 21 21 21'
_symmetry_Int_Tables_number      19
_space_group_name_Hall           'P 2ac 2ab'
loop_
_symmetry_equiv_pos_site_id
_symmetry_equiv_pos_as_xyz
1 x,y,z
2 1/2-x,-y,1/2+z
3 1/2+x,1/2-y,-z
4 -x,1/2+y,1/2-z
_cell_length_a                   7.3458(2)
_cell_length_b                   11.9086(3)
_cell_length_c                   21.8620(6)
_cell_angle_alpha                90
_cell_angle_beta                 90
_cell_angle_gamma                90
_cell_volume                     1912.45
_exptl_crystal_colour            'light red'
_exptl_crystal_description       block
_cell_formula_units_Z            4
loop_
_atom_site_label
_atom_site_type_symbol
_atom_site_fract_x
_atom_site_fract_y
_atom_site_fract_z
C1 C -0.6744(3) -0.1209(2) 0.09951(11)
C2 C -0.6175(4) -0.0135(3) 0.11528(13)
H1 H -0.6192 0.0447 0.0869
C3 C -0.5582(5) 0.0042(3) 0.17456(15)
C4 C -0.5526(5) -0.0778(4) 0.21858(14)
H2 H -0.5172 -0.0610 0.2584
C5 C -0.6002(5) -0.1846(3) 0.20258(13)
H3 H -0.5945 -0.2420 0.2314
C6 C -0.6576(4) -0.2078(3) 0.14295(12)
C7 C -0.7001(4) -0.3138(2) 0.11405(13)
C8 C -0.7079(4) -0.4225(3) 0.13775(15)
H4 H -0.6818 -0.4356 0.1788
C9 C -0.7545(5) -0.5099(3) 0.09986(18)
H5 H -0.7563 -0.5828 0.1151
C10 C -0.7986(4) -0.4905(3) 0.03944(16)
H6 H -0.8322 -0.5506 0.0147
C11 C -0.7939(4) -0.3825(2) 0.01460(14)
H7 H -0.8256 -0.3702 -0.0260
C12 C -0.7409(3) -0.2940(2) 0.05185(12)
C13 C -0.7301(4) -0.1716(2) 0.04041(11)
C14 C -0.7577(3) -0.1199(2) -0.01393(12)
C15 C -0.7976(4) -0.0031(2) -0.02818(12)
C16 C -0.8800(4) 0.0711(2) 0.01251(14)
H8 H -0.9115 0.0462 0.0514
C17 C -0.9154(5) 0.1799(2) -0.00357(17)
H9 H -0.9673 0.2290 0.0246
C18 C -0.8732(5) 0.2169(3) -0.06249(17)
H10 H -0.8936 0.2914 -0.0732
C19 C -0.8017(5) 0.1440(2) -0.10483(15)
H11 H -0.7761 0.1685 -0.1443
C20 C -0.7675(4) 0.0327(2) -0.08824(13)
C21 C -0.7077(4) -0.1454(2) -0.12070(11)
C22 C -0.6576(4) -0.2315(2) -0.16605(12)
C23 C -0.6408(5) -0.2006(3) -0.22720(13)
H12 H -0.6647 -0.1270 -0.2390
C24 C -0.5887(6) -0.2791(3) -0.27071(15)
H13 H -0.5772 -0.2580 -0.3115
C25 C -0.5536(5) -0.3893(3) -0.25332(16)
H14 H -0.5183 -0.4419 -0.2824
C26 C -0.5711(5) -0.4203(3) -0.19356(15)
H15 H -0.5487 -0.4942 -0.1822
C27 C -0.6222(4) -0.3423(3) -0.14955(13)
H16 H -0.6328 -0.3642 -0.1089
F1 F -0.4996(4) 0.1066(2) 0.18957(11)
N1 N -0.7072(3) -0.04141(19) -0.13382(10)
O1 O -0.7517(3) -0.19046(14) -0.06480(8)
loop_
_geom_bond_atom_site_label_1
_geom_bond_atom_site_label_2
_geom_bond_site_symmetry_1
_geom_bond_site_symmetry_2
C1 C2 1_555 1_555
C2 H1 1_555 1_555
C3 C2 1_555 1_555
C4 C3 1_555 1_555
H2 C4 1_555 1_555
C5 C4 1_555 1_555
H3 C5 1_555 1_555
C6 C1 1_555 1_555
C7 C6 1_555 1_555
C8 C7 1_555 1_555
H4 C8 1_555 1_555
C9 C8 1_555 1_555
H5 C9 1_555 1_555
C10 C9 1_555 1_555
H6 C10 1_555 1_555
C11 C10 1_555 1_555
H7 C11 1_555 1_555
C12 C7 1_555 1_555
C13 C1 1_555 1_555
C14 C13 1_555 1_555
C15 C14 1_555 1_555
C16 C15 1_555 1_555
H8 C16 1_555 1_555
C17 C16 1_555 1_555
H9 C17 1_555 1_555
C18 C17 1_555 1_555
H10 C18 1_555 1_555
C19 C18 1_555 1_555
H11 C19 1_555 1_555
C20 C15 1_555 1_555
C21 C22 1_555 1_555
C22 C23 1_555 1_555
C23 H12 1_555 1_555
C24 C23 1_555 1_555
H13 C24 1_555 1_555
C25 C24 1_555 1_555
H14 C25 1_555 1_555
C26 C25 1_555 1_555
H15 C26 1_555 1_555
C27 C22 1_555 1_555
H16 C27 1_555 1_555
F1 C3 1_555 1_555
N1 C20 1_555 1_555
O1 C14 1_555 1_555
C5 C6 1_555 1_555
C11 C12 1_555 1_555
C12 C13 1_555 1_555
C19 C20 1_555 1_555
C21 N1 1_555 1_555
C21 O1 1_555 1_555
C26 C27 1_555 1_555

#END
