
#######################################################################
#
#                 Cambridge Crystallographic Data Centre
#                                CCDC 
#
#######################################################################
#
# If this CIF has been generated from an entry in the Cambridge 
# Structural Database, then it will include bibliographic, chemical, 
# crystal, experimental, refinement or atomic coordinate data resulting 
# from the CCDC's data processing and validation procedures.
#
#######################################################################

data_OXOWUV
_chemical_formula_moiety         'C22 H20 O6 S2'
_chemical_name_systematic        
'1-((4-methylphenyl)sulfonyl)-2-oxo-2-phenylethyl 4-methylbenzenesulfonate'
_symmetry_cell_setting           monoclinic
_symmetry_space_group_name_H-M   'P 21/c'
_symmetry_Int_Tables_number      14
_space_group_name_Hall           '-P 2ybc'
loop_
_symmetry_equiv_pos_site_id
_symmetry_equiv_pos_as_xyz
1 x,y,z
2 -x,1/2+y,1/2-z
3 -x,-y,-z
4 x,1/2-y,1/2+z
_cell_length_a                   5.8538(6)
_cell_length_b                   17.3655(19)
_cell_length_c                   20.225(2)
_cell_angle_alpha                90
_cell_angle_beta                 96.811(3)
_cell_angle_gamma                90
_cell_volume                     2041.45
_exptl_crystal_colour            colorless
_cell_formula_units_Z            4
loop_
_atom_site_label
_atom_site_type_symbol
_atom_site_fract_x
_atom_site_fract_y
_atom_site_fract_z
S1 S 0.11721(10) 0.35449(3) 0.57165(3)
S2 S 0.28357(10) 0.15768(3) 0.48995(3)
O1 O 0.1339(3) 0.21318(8) 0.53215(7)
O2 O -0.1246(3) 0.34299(9) 0.57395(8)
O3 O 0.4611(3) 0.20308(9) 0.46754(8)
O4 O 0.1111(3) 0.12251(9) 0.44408(8)
O5 O 0.0784(3) 0.18688(9) 0.65798(8)
O6 O 0.2456(3) 0.40376(8) 0.61944(8)
C1 C 0.2462(5) 0.47229(14) 0.29830(12)
H1 H 0.1336 0.4493 0.2643
H2 H 0.4020 0.4613 0.2877
H3 H 0.2227 0.5281 0.2993
C2 C 0.2161(4) 0.43865(12) 0.36533(11)
C3 C 0.3951(4) 0.44191(12) 0.41686(11)
H4 H 0.5383 0.4636 0.4088
C4 C 0.3692(4) 0.41433(12) 0.47952(12)
H5 H 0.4930 0.4167 0.5144
C5 C 0.1588(4) 0.38302(11) 0.49066(11)
C6 C 0.2585(4) 0.26103(11) 0.58116(10)
H6 H 0.4232 0.2653 0.5730
C7 C 0.4041(4) 0.09186(11) 0.54900(11)
C8 C 0.2732(4) 0.02987(12) 0.56644(11)
H7 H 0.1210 0.0224 0.5453
C9 C 0.3672(4) -0.02046(12) 0.61467(12)
H8 H 0.2793 -0.0633 0.6263
C10 C 0.5891(4) -0.00975(12) 0.64693(11)
C11 C 0.6931(4) -0.06550(13) 0.69870(13)
H9 H 0.5757 -0.1024 0.7089
H10 H 0.7513 -0.0373 0.7392
H11 H 0.8200 -0.0931 0.6818
C12 C 0.0112(4) 0.40456(13) 0.37751(12)
H12 H -0.1109 0.4004 0.3423
C13 C -0.0193(4) 0.37650(13) 0.43975(12)
H13 H -0.1605 0.3531 0.4474
C14 C 0.7150(4) 0.05328(12) 0.62913(12)
H14 H 0.8656 0.0616 0.6511
C15 C 0.6257(4) 0.10421(12) 0.58009(12)
H15 H 0.7140 0.1467 0.5679
C16 C 0.2403(4) 0.22808(11) 0.65125(11)
C17 C 0.4188(4) 0.24727(11) 0.70666(11)
C18 C 0.6220(4) 0.28591(12) 0.69780(11)
H16 H 0.6478 0.3032 0.6547
C19 C 0.7860(4) 0.29909(13) 0.75170(12)
H17 H 0.9247 0.3250 0.7454
C20 C 0.7495(4) 0.27483(13) 0.81443(13)
H18 H 0.8629 0.2840 0.8512
C21 C 0.5466(4) 0.23697(13) 0.82390(12)
H19 H 0.5208 0.2206 0.8672
C22 C 0.3832(4) 0.22323(12) 0.77048(11)
H20 H 0.2451 0.1972 0.7771
loop_
_geom_bond_atom_site_label_1
_geom_bond_atom_site_label_2
_geom_bond_site_symmetry_1
_geom_bond_site_symmetry_2
S1 O2 1_555 1_555
S2 O1 1_555 1_555
O1 C6 1_555 1_555
O3 S2 1_555 1_555
O4 S2 1_555 1_555
O5 C16 1_555 1_555
O6 S1 1_555 1_555
C1 H1 1_555 1_555
H2 C1 1_555 1_555
H3 C1 1_555 1_555
C2 C1 1_555 1_555
C3 C2 1_555 1_555
H4 C3 1_555 1_555
C4 C3 1_555 1_555
H5 C4 1_555 1_555
C5 S1 1_555 1_555
C6 S1 1_555 1_555
H6 C6 1_555 1_555
C7 S2 1_555 1_555
C8 C7 1_555 1_555
H7 C8 1_555 1_555
C9 C8 1_555 1_555
H8 C9 1_555 1_555
C10 C9 1_555 1_555
C11 C10 1_555 1_555
H9 C11 1_555 1_555
H10 C11 1_555 1_555
H11 C11 1_555 1_555
C12 C2 1_555 1_555
H12 C12 1_555 1_555
C13 C5 1_555 1_555
H13 C13 1_555 1_555
C14 C10 1_555 1_555
H14 C14 1_555 1_555
C15 C7 1_555 1_555
H15 C15 1_555 1_555
C16 C6 1_555 1_555
C17 C16 1_555 1_555
C18 C17 1_555 1_555
H16 C18 1_555 1_555
C19 C18 1_555 1_555
H17 C19 1_555 1_555
C20 C19 1_555 1_555
H18 C20 1_555 1_555
C21 C20 1_555 1_555
H19 C21 1_555 1_555
C22 C17 1_555 1_555
H20 C22 1_555 1_555
C4 C5 1_555 1_555
C12 C13 1_555 1_555
C14 C15 1_555 1_555
C21 C22 1_555 1_555

#END
