
#######################################################################
#
#                 Cambridge Crystallographic Data Centre
#                                CCDC 
#
#######################################################################
#
# If this CIF has been generated from an entry in the Cambridge 
# Structural Database, then it will include bibliographic, chemical, 
# crystal, experimental, refinement or atomic coordinate data resulting 
# from the CCDC's data processing and validation procedures.
#
#######################################################################

data_OXUBIT
_chemical_formula_moiety         'C19 H21 Br1 O1 S1'
_chemical_name_systematic        
2-(1-(Benzylsulfanyl)butyl)-5-bromo-2,3-dihydro-1-benzofuran
_symmetry_cell_setting           triclinic
_symmetry_space_group_name_H-M   'P -1'
_symmetry_Int_Tables_number      2
_space_group_name_Hall           '-P 1'
loop_
_symmetry_equiv_pos_site_id
_symmetry_equiv_pos_as_xyz
1 x,y,z
2 -x,-y,-z
_cell_length_a                   5.7147(13)
_cell_length_b                   11.254(2)
_cell_length_c                   14.617(3)
_cell_angle_alpha                109.340(10)
_cell_angle_beta                 93.580(11)
_cell_angle_gamma                101.960(12)
_cell_volume                     858.971
_exptl_crystal_colour            colorless
_exptl_crystal_description       plate
_cell_formula_units_Z            2
loop_
_atom_site_label
_atom_site_type_symbol
_atom_site_fract_x
_atom_site_fract_y
_atom_site_fract_z
Br1 Br 1.13176(5) 0.60630(3) 0.88771(2)
O1 O 0.6606(3) 0.34639(17) 0.47072(13)
C1 C 0.7523(4) 0.4099(2) 0.56745(18)
C2 C 0.6522(4) 0.4982(2) 0.63269(19)
H1 H 0.5097 0.5193 0.6126
C3 C 0.7672(5) 0.5555(3) 0.72915(19)
H2 H 0.7035 0.6169 0.7762
C4 C 0.9744(4) 0.5228(2) 0.75625(18)
C5 C 1.0730(4) 0.4326(2) 0.69092(19)
H3 H 1.2138 0.4103 0.7113
C6 C 0.9595(4) 0.3760(2) 0.59482(19)
C7 C 1.0139(5) 0.2762(3) 0.50596(19)
H4 H 0.9776 0.1888 0.5111
H5 H 1.1849 0.2997 0.4962
C8 C 0.8419(5) 0.2821(2) 0.42320(18)
H6 H 0.9361 0.3385 0.3911
C9 C 0.7114(4) 0.1547(2) 0.34388(18)
H7 H 0.8365 0.1132 0.3103
C10 C 0.7107(5) -0.0805(3) 0.37789(19)
H8 H 0.8826 -0.0379 0.4045
H9 H 0.6504 -0.1369 0.4152
C11 C 0.6943(5) -0.1636(2) 0.27238(18)
C12 C 0.8894(5) -0.1497(3) 0.2217(2)
H10 H 1.0365 -0.0884 0.2545
C13 C 0.8715(5) -0.2248(3) 0.1238(2)
H11 H 1.0061 -0.2141 0.0897
C14 C 0.6598(5) -0.3148(3) 0.0752(2)
H12 H 0.6473 -0.3655 0.0079
C15 C 0.4655(5) -0.3302(3) 0.1259(2)
H13 H 0.3199 -0.3929 0.0933
C16 C 0.4817(5) -0.2551(3) 0.2236(2)
H14 H 0.3469 -0.2661 0.2575
C17 C 0.5461(5) 0.1746(3) 0.26644(19)
H15 H 0.3978 0.1930 0.2937
H16 H 0.6293 0.2516 0.2524
C18 C 0.4738(5) 0.0591(3) 0.17075(19)
H17 H 0.4015 -0.0197 0.1849
H18 H 0.6202 0.0450 0.1401
C19 C 0.2935(6) 0.0785(3) 0.0988(2)
H19 H 0.2543 0.0026 0.0381
H20 H 0.3645 0.1561 0.0841
H21 H 0.1457 0.0894 0.1278
S1 S 0.54018(12) 0.04401(6) 0.39711(5)
loop_
_geom_bond_atom_site_label_1
_geom_bond_atom_site_label_2
_geom_bond_site_symmetry_1
_geom_bond_site_symmetry_2
Br1 C4 1_555 1_555
O1 C1 1_555 1_555
C1 C2 1_555 1_555
C2 H1 1_555 1_555
C3 C2 1_555 1_555
H2 C3 1_555 1_555
C4 C3 1_555 1_555
C5 C4 1_555 1_555
H3 C5 1_555 1_555
C6 C1 1_555 1_555
C7 C6 1_555 1_555
H4 C7 1_555 1_555
H5 C7 1_555 1_555
C8 O1 1_555 1_555
H6 C8 1_555 1_555
C9 C8 1_555 1_555
H7 C9 1_555 1_555
C10 H8 1_555 1_555
H9 C10 1_555 1_555
C11 C10 1_555 1_555
C12 C11 1_555 1_555
H10 C12 1_555 1_555
C13 C12 1_555 1_555
H11 C13 1_555 1_555
C14 C13 1_555 1_555
H12 C14 1_555 1_555
C15 C14 1_555 1_555
H13 C15 1_555 1_555
C16 C11 1_555 1_555
H14 C16 1_555 1_555
C17 C9 1_555 1_555
H15 C17 1_555 1_555
H16 C17 1_555 1_555
C18 C17 1_555 1_555
H17 C18 1_555 1_555
H18 C18 1_555 1_555
C19 C18 1_555 1_555
H19 C19 1_555 1_555
H20 C19 1_555 1_555
H21 C19 1_555 1_555
S1 C9 1_555 1_555
C5 C6 1_555 1_555
C7 C8 1_555 1_555
C10 S1 1_555 1_555
C15 C16 1_555 1_555

#END
