
#######################################################################
#
#                 Cambridge Crystallographic Data Centre
#                                CCDC 
#
#######################################################################
#
# If this CIF has been generated from an entry in the Cambridge 
# Structural Database, then it will include bibliographic, chemical, 
# crystal, experimental, refinement or atomic coordinate data resulting 
# from the CCDC's data processing and validation procedures.
#
#######################################################################

data_OXULUQ
_chemical_formula_moiety         'C22 H15 N1 S1'
_chemical_name_systematic        9-(4-(2-thienyl)phenyl)-9H-carbazole
_symmetry_cell_setting           orthorhombic
_symmetry_space_group_name_H-M   'P b c a'
_symmetry_Int_Tables_number      61
_space_group_name_Hall           '-P 2ac 2ab'
loop_
_symmetry_equiv_pos_site_id
_symmetry_equiv_pos_as_xyz
1 x,y,z
2 1/2-x,-y,1/2+z
3 1/2+x,1/2-y,-z
4 -x,1/2+y,1/2-z
5 -x,-y,-z
6 1/2+x,y,1/2-z
7 1/2-x,1/2+y,z
8 x,1/2-y,1/2+z
_cell_length_a                   16.9032(6)
_cell_length_b                   7.7378(3)
_cell_length_c                   25.4653(9)
_cell_angle_alpha                90
_cell_angle_beta                 90
_cell_angle_gamma                90
_cell_volume                     3330.7
_exptl_crystal_description       block
_cell_formula_units_Z            8
loop_
_atom_site_label
_atom_site_type_symbol
_atom_site_fract_x
_atom_site_fract_y
_atom_site_fract_z
S1 S 0.19161(5) 0.15682(11) 0.44662(3)
N1 N 0.04213(11) -0.5958(2) 0.35352(7)
C1 C 0.04442(15) -0.8226(3) 0.29715(9)
C2 C 0.10591(13) -0.1498(3) 0.43872(9)
C3 C -0.03143(13) -0.6760(3) 0.35635(8)
C4 C -0.03186(15) -0.8178(3) 0.32213(8)
C5 C 0.06420(13) -0.4450(3) 0.38208(9)
C6 C 0.06104(14) -0.4450(3) 0.43637(9)
H1 H 0.0451 -0.5441 0.4541
C7 C 0.08866(14) -0.6847(3) 0.31767(8)
C8 C 0.12765(14) 0.0049(3) 0.46990(9)
C9 C 0.08109(15) -0.3011(3) 0.46390(9)
H2 H 0.0782 -0.3033 0.5004
C10 C 0.11084(16) -0.1531(3) 0.38454(10)
H3 H 0.1288 -0.0557 0.3668
C11 C 0.08965(17) -0.2981(3) 0.35630(9)
H4 H 0.0925 -0.2970 0.3198
C12 C 0.16688(15) -0.6588(3) 0.30349(10)
H5 H 0.1966 -0.5697 0.3181
C13 C 0.10568(15) 0.0399(3) 0.52105(11)
H6 H 0.0717 -0.0288 0.5408
C14 C -0.09825(15) -0.6311(4) 0.38571(10)
H7 H -0.0979 -0.5356 0.4079
C15 C -0.09976(18) -0.9196(4) 0.31814(11)
H8 H -0.1007 -1.0145 0.2957
C16 C 0.0785(2) -0.9302(3) 0.25983(11)
H9 H 0.0498 -1.0210 0.2454
C17 C 0.19888(19) -0.7687(4) 0.26726(11)
H10 H 0.2515 -0.7547 0.2575
C18 C -0.16454(17) -0.7332(5) 0.38069(12)
H11 H -0.2099 -0.7058 0.3996
C19 C 0.14143(19) 0.1936(4) 0.53952(13)
H12 H 0.1329 0.2382 0.5729
C20 C 0.1547(2) -0.9011(4) 0.24464(12)
H13 H 0.1774 -0.9704 0.2189
C21 C 0.18894(19) 0.2687(4) 0.50399(14)
H14 H 0.2171 0.3700 0.5101
C22 C -0.1646(2) -0.8791(6) 0.34730(13)
H15 H -0.2095 -0.9482 0.3452
loop_
_geom_bond_atom_site_label_1
_geom_bond_atom_site_label_2
_geom_bond_site_symmetry_1
_geom_bond_site_symmetry_2
S1 C8 1_555 1_555
N1 C3 1_555 1_555
C1 C4 1_555 1_555
C2 C8 1_555 1_555
C3 C4 1_555 1_555
C4 C15 1_555 1_555
C5 N1 1_555 1_555
C6 C5 1_555 1_555
H1 C6 1_555 1_555
C7 N1 1_555 1_555
C8 C13 1_555 1_555
C9 C2 1_555 1_555
H2 C9 1_555 1_555
C10 C2 1_555 1_555
H3 C10 1_555 1_555
C11 C5 1_555 1_555
H4 C11 1_555 1_555
C12 C7 1_555 1_555
H5 C12 1_555 1_555
C13 H6 1_555 1_555
C14 C3 1_555 1_555
H7 C14 1_555 1_555
C15 H8 1_555 1_555
C16 C1 1_555 1_555
H9 C16 1_555 1_555
C17 C12 1_555 1_555
H10 C17 1_555 1_555
C18 C14 1_555 1_555
H11 C18 1_555 1_555
C19 C13 1_555 1_555
H12 C19 1_555 1_555
C20 C16 1_555 1_555
H13 C20 1_555 1_555
C21 S1 1_555 1_555
H14 C21 1_555 1_555
C22 C15 1_555 1_555
H15 C22 1_555 1_555
C1 C7 1_555 1_555
C6 C9 1_555 1_555
C10 C11 1_555 1_555
C17 C20 1_555 1_555
C18 C22 1_555 1_555
C19 C21 1_555 1_555

#END
