
#######################################################################
#
#                 Cambridge Crystallographic Data Centre
#                                CCDC 
#
#######################################################################
#
# If this CIF has been generated from an entry in the Cambridge 
# Structural Database, then it will include bibliographic, chemical, 
# crystal, experimental, refinement or atomic coordinate data resulting 
# from the CCDC's data processing and validation procedures.
#
#######################################################################

data_OXUMOL
_chemical_compound_source        'whole plant of Scrophularia dentata'
_chemical_name_common            'Scrodentoid H'
_chemical_formula_moiety         'C19 H26 O4'
_chemical_name_systematic        
3a'-hydroxy-4,6',6',9a'-tetramethyl-4',5',5a',6',7',8',9',9a'-octahydro-3a'H,5H-spiro[furan-2,2'-naphtho[2,1-b]furan]-5-one
_chemical_properties_biological  
'tested for farnesoid X-activate receptor (FXR) agonistic activity'
_symmetry_cell_setting           orthorhombic
_symmetry_space_group_name_H-M   'P 21 21 21'
_symmetry_Int_Tables_number      19
_space_group_name_Hall           'P 2ac 2ab'
loop_
_symmetry_equiv_pos_site_id
_symmetry_equiv_pos_as_xyz
1 x,y,z
2 1/2-x,-y,1/2+z
3 -x,1/2+y,1/2-z
4 1/2+x,1/2-y,-z
_cell_length_a                   6.3179(2)
_cell_length_b                   8.0802(3)
_cell_length_c                   34.8215(13)
_cell_angle_alpha                90
_cell_angle_beta                 90
_cell_angle_gamma                90
_cell_volume                     1777.63
_exptl_crystal_colour            colorless
_exptl_crystal_description       column
_cell_formula_units_Z            4
loop_
_atom_site_label
_atom_site_type_symbol
_atom_site_fract_x
_atom_site_fract_y
_atom_site_fract_z
O1 O -0.1644(2) 0.8050(2) 0.89609(4)
H1 H -0.1758 0.8329 0.9186
O2 O 0.1156(2) 0.62944(17) 0.91148(4)
O3 O 0.1912(2) 0.66821(17) 0.97662(4)
O4 O 0.2851(2) 0.5394(2) 1.03064(4)
C1 C 0.4068(3) 1.1612(2) 0.88507(5)
H2 H 0.3881 1.2075 0.9105
H3 H 0.5284 1.0879 0.8858
C2 C 0.4498(4) 1.3008(3) 0.85670(6)
H4 H 0.3342 1.3798 0.8576
H5 H 0.5786 1.3580 0.8640
C3 C 0.4725(4) 1.2348(3) 0.81630(6)
H6 H 0.5984 1.1664 0.8152
H7 H 0.4940 1.3276 0.7991
C4 C 0.2837(4) 1.1329(3) 0.80164(5)
C5 C 0.2331(3) 0.9976(3) 0.83201(5)
H8 H 0.3599 0.9278 0.8325
C6 C 0.0521(4) 0.8780(3) 0.82130(6)
H9 H -0.0828 0.9331 0.8248
H10 H 0.0644 0.8475 0.7945
C7 C 0.0590(4) 0.7225(3) 0.84600(6)
H11 H -0.0587 0.6510 0.8394
H12 H 0.1892 0.6627 0.8410
C8 C 0.0471(3) 0.7670(3) 0.88815(6)
C9 C 0.2008(3) 0.9040(2) 0.89823(5)
C10 C 0.2092(3) 1.0607(2) 0.87433(5)
C11 C 0.3214(3) 0.8553(2) 0.92709(5)
H13 H 0.4226 0.9206 0.9392
C12 C 0.2720(3) 0.6810(3) 0.93736(5)
C13 C 0.4587(3) 0.5671(2) 0.93804(6)
H14 H 0.5432 0.5440 0.9168
C14 C 0.4882(3) 0.5038(2) 0.97236(6)
C15 C 0.3181(3) 0.5670(2) 0.99702(5)
C16 C 0.3574(6) 1.0477(4) 0.76430(6)
H15 H 0.3894 1.1302 0.7453
H16 H 0.2468 0.9768 0.7549
H17 H 0.4816 0.9829 0.7694
C17 C 0.0974(5) 1.2459(4) 0.79165(7)
H18 H 0.0487 1.3006 0.8145
H19 H -0.0155 1.1809 0.7810
H20 H 0.1420 1.3270 0.7732
C18 C 0.0104(3) 1.1646(3) 0.88274(6)
H21 H 0.0108 1.1980 0.9092
H22 H -0.1137 1.0997 0.8776
H23 H 0.0100 1.2610 0.8666
C19 C 0.6562(4) 0.3903(3) 0.98702(8)
H24 H 0.7523 0.3637 0.9666
H25 H 0.5922 0.2905 0.9965
H26 H 0.7322 0.4435 1.0074
loop_
_geom_bond_atom_site_label_1
_geom_bond_atom_site_label_2
_geom_bond_site_symmetry_1
_geom_bond_site_symmetry_2
O1 H1 1_555 1_555
O2 C8 1_555 1_555
O3 C12 1_555 1_555
O4 C15 1_555 1_555
C1 H2 1_555 1_555
H3 C1 1_555 1_555
C2 C1 1_555 1_555
H4 C2 1_555 1_555
H5 C2 1_555 1_555
C3 C2 1_555 1_555
H6 C3 1_555 1_555
H7 C3 1_555 1_555
C4 C3 1_555 1_555
C5 C4 1_555 1_555
H8 C5 1_555 1_555
C6 C5 1_555 1_555
H9 C6 1_555 1_555
H10 C6 1_555 1_555
C7 C6 1_555 1_555
H11 C7 1_555 1_555
H12 C7 1_555 1_555
C8 O1 1_555 1_555
C9 C8 1_555 1_555
C10 C1 1_555 1_555
C11 C9 1_555 1_555
H13 C11 1_555 1_555
C12 O2 1_555 1_555
C13 C12 1_555 1_555
H14 C13 1_555 1_555
C14 C13 1_555 1_555
C15 O3 1_555 1_555
C16 C4 1_555 1_555
H15 C16 1_555 1_555
H16 C16 1_555 1_555
H17 C16 1_555 1_555
C17 C4 1_555 1_555
H18 C17 1_555 1_555
H19 C17 1_555 1_555
H20 C17 1_555 1_555
C18 C10 1_555 1_555
H21 C18 1_555 1_555
H22 C18 1_555 1_555
H23 C18 1_555 1_555
C19 C14 1_555 1_555
H24 C19 1_555 1_555
H25 C19 1_555 1_555
H26 C19 1_555 1_555
C5 C10 1_555 1_555
C7 C8 1_555 1_555
C9 C10 1_555 1_555
C11 C12 1_555 1_555
C14 C15 1_555 1_555

#END
