
#######################################################################
#
#                 Cambridge Crystallographic Data Centre
#                                CCDC 
#
#######################################################################
#
# If this CIF has been generated from an entry in the Cambridge 
# Structural Database, then it will include bibliographic, chemical, 
# crystal, experimental, refinement or atomic coordinate data resulting 
# from the CCDC's data processing and validation procedures.
#
#######################################################################

data_OXUSEH
_chemical_formula_moiety         'C32 H30 O3 S1'
_chemical_name_systematic        
3-methyl-4-((4-methylphenyl)sulfonyl)-1,5,6-triphenylhexa-1,4-dien-3-ol
_symmetry_cell_setting           monoclinic
_symmetry_space_group_name_H-M   'P 21/n'
_symmetry_Int_Tables_number      14
_space_group_name_Hall           '-P 2yn'
loop_
_symmetry_equiv_pos_site_id
_symmetry_equiv_pos_as_xyz
1 x,y,z
2 1/2-x,1/2+y,1/2-z
3 -x,-y,-z
4 1/2+x,1/2-y,1/2+z
_cell_length_a                   9.0349(16)
_cell_length_b                   10.9412(19)
_cell_length_c                   26.387(5)
_cell_angle_alpha                90
_cell_angle_beta                 90.494(2)
_cell_angle_gamma                90
_cell_volume                     2608.33
_cell_formula_units_Z            4
loop_
_atom_site_label
_atom_site_type_symbol
_atom_site_fract_x
_atom_site_fract_y
_atom_site_fract_z
C1 C 0.3565(2) 0.7025(2) -0.03537(8)
H1 H 0.4567 0.6907 -0.0287
C2 C 0.3133(3) 0.7617(3) -0.07900(9)
H2 H 0.3848 0.7897 -0.1014
C3 C 0.1665(2) 0.7801(2) -0.09003(8)
H3 H 0.1379 0.8219 -0.1192
C4 C 0.0627(2) 0.7359(2) -0.05729(8)
H4 H -0.0374 0.7462 -0.0647
C5 C 0.1049(2) 0.6767(2) -0.01373(8)
H5 H 0.0327 0.6471 0.0079
C6 C 0.2528(2) 0.66016(18) -0.00130(7)
C7 C 0.3013(2) 0.6002(2) 0.04565(7)
H6 H 0.3980 0.6155 0.0562
C8 C 0.22273(19) 0.52733(17) 0.07443(7)
H7 H 0.1248 0.5139 0.0648
C9 C 0.27716(18) 0.46354(17) 0.12159(7)
C10 C 0.41920(19) 0.5168(2) 0.14210(8)
H8 H 0.4468 0.4751 0.1728
H9 H 0.4053 0.6021 0.1491
H10 H 0.4960 0.5072 0.1175
C11 C 0.15689(17) 0.46287(15) 0.16349(6)
C12 C 0.05728(17) 0.55100(14) 0.17315(6)
C13 C 0.06553(18) 0.67736(14) 0.15029(7)
H11 H 0.1597 0.6851 0.1332
H12 H 0.0650 0.7365 0.1777
C14 C -0.05646(18) 0.71141(15) 0.11295(6)
C15 C -0.15033(18) 0.62758(16) 0.09065(7)
H13 H -0.1457 0.5461 0.1006
C16 C -0.2515(2) 0.66279(19) 0.05370(7)
H14 H -0.3141 0.6051 0.0390
C17 C -0.2594(2) 0.7822(2) 0.03877(9)
H15 H -0.3265 0.8056 0.0136
C18 C -0.1688(3) 0.8671(2) 0.06083(9)
H16 H -0.1747 0.9485 0.0508
C19 C -0.0682(2) 0.83250(17) 0.09802(8)
H17 H -0.0078 0.8911 0.1131
C20 C -0.06774(17) 0.53597(14) 0.20902(6)
C21 C -0.17611(18) 0.44776(15) 0.20109(7)
H18 H -0.1688 0.3945 0.1738
C22 C -0.2947(2) 0.43874(17) 0.23358(8)
H19 H -0.3664 0.3791 0.2281
C23 C -0.3076(2) 0.5167(2) 0.27374(8)
H20 H -0.3878 0.5102 0.2955
C24 C -0.2015(2) 0.6047(2) 0.28183(8)
H21 H -0.2099 0.6578 0.3092
C25 C -0.0833(2) 0.61486(16) 0.24989(7)
H22 H -0.0127 0.6753 0.2556
C26 C 0.14337(19) 0.38399(16) 0.26779(7)
C27 C 0.2414(2) 0.46821(18) 0.28828(8)
H23 H 0.3133 0.5042 0.2681
C28 C 0.2312(3) 0.49790(19) 0.33846(8)
H24 H 0.2964 0.5551 0.3521
C29 C 0.1263(3) 0.4451(2) 0.36951(8)
C30 C 0.0281(3) 0.3626(2) 0.34798(9)
H25 H -0.0444 0.3273 0.3681
C31 C 0.0354(2) 0.33170(18) 0.29744(8)
H26 H -0.0316 0.2763 0.2835
C32 C 0.1201(4) 0.4759(3) 0.42516(10)
H27 H 0.0191 0.4892 0.4347
H28 H 0.1766 0.5487 0.4316
H29 H 0.1607 0.4095 0.4446
O1 O 0.30079(16) 0.33950(13) 0.10387(6)
H30 H 0.3363 0.2983 0.1269
O2 O 0.32152(15) 0.29367(13) 0.20359(6)
O3 O 0.05838(15) 0.24295(11) 0.19324(5)
S1 S 0.16855(5) 0.33289(4) 0.205153(18)
loop_
_geom_bond_atom_site_label_1
_geom_bond_atom_site_label_2
_geom_bond_site_symmetry_1
_geom_bond_site_symmetry_2
C1 H1 1_555 1_555
C2 C1 1_555 1_555
H2 C2 1_555 1_555
C3 C2 1_555 1_555
H3 C3 1_555 1_555
C4 C3 1_555 1_555
H4 C4 1_555 1_555
C5 C4 1_555 1_555
H5 C5 1_555 1_555
C6 C1 1_555 1_555
C7 C6 1_555 1_555
H6 C7 1_555 1_555
C8 C7 1_555 1_555
H7 C8 1_555 1_555
C9 C8 1_555 1_555
C10 C9 1_555 1_555
H8 C10 1_555 1_555
H9 C10 1_555 1_555
H10 C10 1_555 1_555
C11 C9 1_555 1_555
C12 C11 1_555 1_555
C13 C12 1_555 1_555
H11 C13 1_555 1_555
H12 C13 1_555 1_555
C14 C13 1_555 1_555
C15 C14 1_555 1_555
H13 C15 1_555 1_555
C16 C15 1_555 1_555
H14 C16 1_555 1_555
C17 C16 1_555 1_555
H15 C17 1_555 1_555
C18 C17 1_555 1_555
H16 C18 1_555 1_555
C19 C14 1_555 1_555
H17 C19 1_555 1_555
C20 C12 1_555 1_555
C21 C20 1_555 1_555
H18 C21 1_555 1_555
C22 C21 1_555 1_555
H19 C22 1_555 1_555
C23 C22 1_555 1_555
H20 C23 1_555 1_555
C24 C23 1_555 1_555
H21 C24 1_555 1_555
C25 C20 1_555 1_555
H22 C25 1_555 1_555
C26 C27 1_555 1_555
C27 H23 1_555 1_555
C28 C27 1_555 1_555
H24 C28 1_555 1_555
C29 C28 1_555 1_555
C30 C29 1_555 1_555
H25 C30 1_555 1_555
C31 C26 1_555 1_555
H26 C31 1_555 1_555
C32 C29 1_555 1_555
H27 C32 1_555 1_555
H28 C32 1_555 1_555
H29 C32 1_555 1_555
O1 C9 1_555 1_555
H30 O1 1_555 1_555
O2 S1 1_555 1_555
O3 S1 1_555 1_555
S1 C11 1_555 1_555
C5 C6 1_555 1_555
C18 C19 1_555 1_555
C24 C25 1_555 1_555
C26 S1 1_555 1_555
C30 C31 1_555 1_555

#END
