
#######################################################################
#
#                 Cambridge Crystallographic Data Centre
#                                CCDC 
#
#######################################################################
#
# If this CIF has been generated from an entry in the Cambridge 
# Structural Database, then it will include bibliographic, chemical, 
# crystal, experimental, refinement or atomic coordinate data resulting 
# from the CCDC's data processing and validation procedures.
#
#######################################################################

data_OXUXOV
_chemical_name_common            
(E)-1-(5-Bromo-2-thienyl)-3-(2-butyl-4-chloro-1-methyl-1H-imidazol-5-yl)prop-2-en-1-one
_chemical_formula_moiety         'C15 H16 Br1 Cl1 N2 O1 S1'
_chemical_name_systematic        
(E)-1-(5-Bromothiophen-2-yl)-3-(2-butyl-4-chloro-1-methyl-1H-imidazol-5-yl)prop-2-en-1-one
_chemical_properties_biological  
'In vitro angiotensin converting enzyme (ACE) inhibitory activity'
_symmetry_cell_setting           monoclinic
_symmetry_space_group_name_H-M   'P 21/n'
_symmetry_Int_Tables_number      14
_space_group_name_Hall           '-P 2yn'
loop_
_symmetry_equiv_pos_site_id
_symmetry_equiv_pos_as_xyz
1 x,y,z
2 1/2-x,1/2+y,1/2-z
3 -x,-y,-z
4 1/2+x,1/2-y,1/2+z
_cell_length_a                   8.9822(5)
_cell_length_b                   17.5507(9)
_cell_length_c                   10.8380(6)
_cell_angle_alpha                90
_cell_angle_beta                 107.100(1)
_cell_angle_gamma                90
_cell_volume                     1633.01
_exptl_crystal_colour            colorless
_exptl_crystal_description       block
_chemical_melting_point          '118 deg.C'
_cell_formula_units_Z            4
loop_
_atom_site_label
_atom_site_type_symbol
_atom_site_fract_x
_atom_site_fract_y
_atom_site_fract_z
Br1 Br -0.21346(3) 0.234844(14) 0.74671(3)
C1 C -0.1031(3) 0.32577(12) 0.7934(2)
C2 C 0.0504(3) 0.33220(14) 0.8577(3)
H1 H 0.1177 0.2912 0.8842
C3 C 0.0944(3) 0.40861(14) 0.8789(3)
H2 H 0.1955 0.4237 0.9224
C4 C -0.0230(2) 0.45895(12) 0.8306(2)
C5 C -0.0233(3) 0.54276(13) 0.8315(2)
C6 C 0.1261(3) 0.57951(13) 0.8941(2)
H3 H 0.2110 0.5491 0.9350
C7 C 0.1455(3) 0.65445(13) 0.8950(2)
H4 H 0.0584 0.6837 0.8546
C8 C 0.2880(3) 0.69467(12) 0.9525(2)
C9 C 0.4338(3) 0.67195(12) 1.0222(2)
C10 C 0.4541(3) 0.79101(13) 1.0076(2)
C11 C 0.1816(3) 0.82676(15) 0.8854(3)
H5 H 0.2238 0.8774 0.8916
H6 H 0.1028 0.8247 0.9289
H7 H 0.1367 0.8136 0.7961
C12 C 0.5190(3) 0.86939(13) 1.0212(2)
H8 H 0.4734 0.8986 1.0769
H9 H 0.4900 0.8937 0.9371
C13 C 0.6946(3) 0.87092(13) 1.0766(2)
H10 H 0.7403 0.8437 1.0188
H11 H 0.7238 0.8444 1.1588
C14 C 0.7612(3) 0.95099(14) 1.0964(3)
H12 H 0.7299 0.9781 1.0149
H13 H 0.7185 0.9779 1.1565
C15 C 0.9366(4) 0.95094(19) 1.1479(4)
H14 H 0.9681 0.9247 1.2291
H15 H 0.9738 1.0025 1.1596
H16 H 0.9795 0.9256 1.0876
Cl1 Cl 0.49267(7) 0.58087(3) 1.06892(8)
N1 N 0.5361(2) 0.72952(10) 1.0561(2)
N2 N 0.3050(2) 0.77325(10) 0.94499(18)
O1 O -0.1415(2) 0.57748(10) 0.7806(2)
S1 S -0.19459(6) 0.41140(3) 0.75820(5)
loop_
_geom_bond_atom_site_label_1
_geom_bond_atom_site_label_2
_geom_bond_site_symmetry_1
_geom_bond_site_symmetry_2
Br1 C1 1_555 1_555
C1 C2 1_555 1_555
C2 H1 1_555 1_555
C3 C2 1_555 1_555
H2 C3 1_555 1_555
C4 C3 1_555 1_555
C5 C4 1_555 1_555
C6 C5 1_555 1_555
H3 C6 1_555 1_555
C7 C6 1_555 1_555
H4 C7 1_555 1_555
C8 C7 1_555 1_555
C9 C8 1_555 1_555
C10 C12 1_555 1_555
C11 H5 1_555 1_555
H6 C11 1_555 1_555
H7 C11 1_555 1_555
C12 H8 1_555 1_555
H9 C12 1_555 1_555
C13 C12 1_555 1_555
H10 C13 1_555 1_555
H11 C13 1_555 1_555
C14 C13 1_555 1_555
H12 C14 1_555 1_555
H13 C14 1_555 1_555
C15 C14 1_555 1_555
H14 C15 1_555 1_555
H15 C15 1_555 1_555
H16 C15 1_555 1_555
Cl1 C9 1_555 1_555
N1 C9 1_555 1_555
N2 C8 1_555 1_555
O1 C5 1_555 1_555
S1 C1 1_555 1_555
C4 S1 1_555 1_555
C10 N1 1_555 1_555
C10 N2 1_555 1_555
C11 N2 1_555 1_555

#END
