
#######################################################################
#
#                 Cambridge Crystallographic Data Centre
#                                CCDC 
#
#######################################################################
#
# If this CIF has been generated from an entry in the Cambridge 
# Structural Database, then it will include bibliographic, chemical, 
# crystal, experimental, refinement or atomic coordinate data resulting 
# from the CCDC's data processing and validation procedures.
#
#######################################################################

data_OXUXUB
_chemical_name_common            
1-(5-(2-Butyl-4-chloro-1-methyl-1H-imidazol-5-yl)-3-(5-chloro-2-thienyl)-4,5-dihydro-1H-pyrazol-1-yl)ethanone
_chemical_formula_moiety         'C17 H20 Cl2 N4 O1 S1'
_chemical_name_systematic        
1-(5-(2-Butyl-4-chloro-1-methyl-1H-imidazol-5-yl)-3-(5-chlorothiophen-2-yl)-4,5-dihydropyrazol-1-yl)ethanone
_chemical_properties_biological  
'In vitro angiotensin converting enzyme (ACE) inhibitory activity'
_symmetry_cell_setting           monoclinic
_symmetry_space_group_name_H-M   'P 21/n'
_symmetry_Int_Tables_number      14
_space_group_name_Hall           '-P 2yn'
loop_
_symmetry_equiv_pos_site_id
_symmetry_equiv_pos_as_xyz
1 x,y,z
2 1/2-x,1/2+y,1/2-z
3 -x,-y,-z
4 1/2+x,1/2-y,1/2+z
_cell_length_a                   7.8306(7)
_cell_length_b                   9.7939(9)
_cell_length_c                   25.590(2)
_cell_angle_alpha                90
_cell_angle_beta                 96.956(2)
_cell_angle_gamma                90
_cell_volume                     1948.11
_exptl_crystal_colour            colorless
_exptl_crystal_description       block
_chemical_melting_point          '150 deg.C'
_cell_formula_units_Z            4
loop_
_atom_site_label
_atom_site_type_symbol
_atom_site_fract_x
_atom_site_fract_y
_atom_site_fract_z
C1 C 0.2724(3) 0.8339(3) 0.43488(10)
C2 C 0.2271(3) 0.7376(3) 0.39904(10)
H1 H 0.1313 0.6815 0.3992
C3 C 0.3424(3) 0.7313(2) 0.36100(9)
H2 H 0.3302 0.6703 0.3330
C4 C 0.4735(2) 0.8232(2) 0.36910(7)
C5 C 0.6113(2) 0.84205(18) 0.33711(7)
C6 C 0.6359(3) 0.75215(18) 0.29129(8)
H3 H 0.5325 0.7485 0.2663
H4 H 0.6676 0.6602 0.3027
C7 C 0.7835(2) 0.82301(19) 0.26741(7)
H5 H 0.8784 0.7586 0.2657
C8 C 0.9811(2) 1.0040(2) 0.30988(8)
C9 C 1.0187(3) 1.1013(2) 0.35447(9)
H6 H 1.0299 1.0520 0.3871
H7 H 0.9264 1.1660 0.3539
H8 H 1.1241 1.1488 0.3511
C10 C 0.7318(2) 0.88297(17) 0.21426(7)
C11 C 0.5915(2) 0.95707(18) 0.19469(7)
C12 C 0.7421(3) 0.9452(2) 0.13164(7)
C13 C 0.9916(3) 0.8023(3) 0.17176(9)
H9 H 0.9682 0.7073 0.1649
H10 H 1.0600 0.8119 0.2053
H11 H 1.0530 0.8392 0.1447
C14 C 0.8090(3) 0.9648(2) 0.07973(8)
H12 H 0.7967 0.8798 0.0602
H13 H 0.9307 0.9861 0.0860
C15 C 0.7182(3) 1.0773(2) 0.04624(8)
H14 H 0.5975 1.0539 0.0381
H15 H 0.7252 1.1617 0.0662
C16 C 0.7946(3) 1.0994(3) -0.00428(9)
H16 H 0.9154 1.1219 0.0042
H17 H 0.7880 1.0143 -0.0238
C17 C 0.7119(4) 1.2073(3) -0.03848(11)
H18 H 0.5945 1.1825 -0.0497
H19 H 0.7723 1.2180 -0.0687
H20 H 0.7148 1.2917 -0.0193
Cl1 Cl 0.42040(6) 1.00102(5) 0.227830(19)
Cl2 Cl 0.17002(11) 0.87689(9) 0.48824(3)
N1 N 0.72406(19) 0.93687(16) 0.34631(6)
N2 N 0.8349(2) 0.92899(16) 0.30784(6)
N3 N 0.82875(19) 0.87626(15) 0.17238(6)
N4 N 0.5960(2) 0.99679(16) 0.14408(6)
O1 O 1.07458(18) 0.98955(17) 0.27523(6)
S1 S 0.45666(7) 0.92073(6) 0.42447(2)
loop_
_geom_bond_atom_site_label_1
_geom_bond_atom_site_label_2
_geom_bond_site_symmetry_1
_geom_bond_site_symmetry_2
C1 C2 1_555 1_555
C2 H1 1_555 1_555
C3 C2 1_555 1_555
H2 C3 1_555 1_555
C4 C3 1_555 1_555
C5 C4 1_555 1_555
C6 C5 1_555 1_555
H3 C6 1_555 1_555
H4 C6 1_555 1_555
C7 C6 1_555 1_555
H5 C7 1_555 1_555
C8 C9 1_555 1_555
C9 H6 1_555 1_555
H7 C9 1_555 1_555
H8 C9 1_555 1_555
C10 C7 1_555 1_555
C11 C10 1_555 1_555
C12 C14 1_555 1_555
C13 H9 1_555 1_555
H10 C13 1_555 1_555
H11 C13 1_555 1_555
C14 H12 1_555 1_555
H13 C14 1_555 1_555
C15 C14 1_555 1_555
H14 C15 1_555 1_555
H15 C15 1_555 1_555
C16 C15 1_555 1_555
H16 C16 1_555 1_555
H17 C16 1_555 1_555
C17 C16 1_555 1_555
H18 C17 1_555 1_555
H19 C17 1_555 1_555
H20 C17 1_555 1_555
Cl1 C11 1_555 1_555
Cl2 C1 1_555 1_555
N1 C5 1_555 1_555
N2 C7 1_555 1_555
N3 C10 1_555 1_555
N4 C11 1_555 1_555
O1 C8 1_555 1_555
S1 C1 1_555 1_555
C4 S1 1_555 1_555
C8 N2 1_555 1_555
C12 N3 1_555 1_555
C12 N4 1_555 1_555
C13 N3 1_555 1_555
N1 N2 1_555 1_555

#END
