
#######################################################################
#
#                 Cambridge Crystallographic Data Centre
#                                CCDC 
#
#######################################################################
#
# If this CIF has been generated from an entry in the Cambridge 
# Structural Database, then it will include bibliographic, chemical, 
# crystal, experimental, refinement or atomic coordinate data resulting 
# from the CCDC's data processing and validation procedures.
#
#######################################################################

data_OYABEX
_chemical_formula_moiety         'C11 H17 N3 O1'
_chemical_name_systematic        
N-(2-(morpholin-4-yl)ethyl)-1-(1H-pyrrol-2-yl)methanimine
_symmetry_cell_setting           triclinic
_symmetry_space_group_name_H-M   'P -1'
_symmetry_Int_Tables_number      2
_space_group_name_Hall           '-P 1'
loop_
_symmetry_equiv_pos_site_id
_symmetry_equiv_pos_as_xyz
1 x,y,z
2 -x,-y,-z
_cell_length_a                   7.55750(10)
_cell_length_b                   7.9279(2)
_cell_length_c                   10.1859(2)
_cell_angle_alpha                82.8190(10)
_cell_angle_beta                 72.6470(10)
_cell_angle_gamma                80.1260(10)
_cell_volume                     572.111
_exptl_crystal_colour            colorless
_exptl_crystal_description       block
_cell_formula_units_Z            2
loop_
_atom_site_label
_atom_site_type_symbol
_atom_site_fract_x
_atom_site_fract_y
_atom_site_fract_z
O1 O -0.16442(14) 0.65006(16) 0.64819(11)
N1 N 0.38739(14) 0.78894(13) 0.99700(10)
N2 N 0.07811(14) 0.75777(13) 0.77900(10)
N3 N 0.54473(15) 0.89655(14) 1.19992(11)
H1 H 0.5623 0.9702 1.1293
C1 C 0.5465(2) 0.76567(19) 1.40443(14)
H2 H 0.5656 0.7396 1.4912
C2 C 0.4604(2) 0.66988(18) 1.34061(14)
H3 H 0.4123 0.5683 1.3772
C3 C 0.46031(17) 0.75393(16) 1.21390(12)
C4 C 0.39199(16) 0.70225(15) 1.10976(13)
H4 H 0.3476 0.5969 1.1263
C5 C 0.31744(18) 0.70935(16) 0.90399(14)
H5 H 0.3101 0.5894 0.9354
H6 H 0.4041 0.7146 0.8121
C6 C 0.12548(17) 0.79942(16) 0.89861(13)
H7 H 0.0323 0.7656 0.9820
H8 H 0.1232 0.9226 0.8950
C7 C -0.0883(2) 0.8691(2) 0.75880(17)
H9 H -0.0670 0.9880 0.7463
H10 H -0.1938 0.8561 0.8397
C8 C -0.1318(2) 0.8228(2) 0.63381(19)
H11 H -0.2418 0.8980 0.6206
H12 H -0.0278 0.8401 0.5527
C9 C 0.5968(2) 0.90347(19) 1.31602(14)
H13 H 0.6569 0.9886 1.3320
C10 C 0.0474(2) 0.57961(17) 0.79034(14)
H14 H -0.0531 0.5578 0.8729
H15 H 0.1600 0.5044 0.7983
C11 C -0.0027(2) 0.5414(2) 0.66535(15)
H16 H 0.1013 0.5562 0.5837
H17 H -0.0243 0.4227 0.6753
loop_
_geom_bond_atom_site_label_1
_geom_bond_atom_site_label_2
_geom_bond_site_symmetry_1
_geom_bond_site_symmetry_2
O1 C8 1_555 1_555
N1 C4 1_555 1_555
N2 C6 1_555 1_555
N3 H1 1_555 1_555
C1 H2 1_555 1_555
C2 C1 1_555 1_555
H3 C2 1_555 1_555
C3 N3 1_555 1_555
C4 C3 1_555 1_555
H4 C4 1_555 1_555
C5 N1 1_555 1_555
H5 C5 1_555 1_555
H6 C5 1_555 1_555
C6 C5 1_555 1_555
H7 C6 1_555 1_555
H8 C6 1_555 1_555
C7 N2 1_555 1_555
H9 C7 1_555 1_555
H10 C7 1_555 1_555
C8 C7 1_555 1_555
H11 C8 1_555 1_555
H12 C8 1_555 1_555
C9 N3 1_555 1_555
H13 C9 1_555 1_555
C10 N2 1_555 1_555
H14 C10 1_555 1_555
H15 C10 1_555 1_555
C11 O1 1_555 1_555
H16 C11 1_555 1_555
H17 C11 1_555 1_555
C1 C9 1_555 1_555
C2 C3 1_555 1_555
C10 C11 1_555 1_555

#END
