
#######################################################################
#
#                 Cambridge Crystallographic Data Centre
#                                CCDC 
#
#######################################################################
#
# If this CIF has been generated from an entry in the Cambridge 
# Structural Database, then it will include bibliographic, chemical, 
# crystal, experimental, refinement or atomic coordinate data resulting 
# from the CCDC's data processing and validation procedures.
#
#######################################################################

data_OYABOH
_chemical_formula_moiety         'C25 H27 N5 O3'
_chemical_name_systematic        
1-(2-(morpholin-4-yl)ethyl)-1-(3-oxo-2-phenyl-2,3-dihydro-1H-pyrrolo[1,2-c]imidazol-1-yl)-3-phenylurea
_symmetry_cell_setting           monoclinic
_symmetry_space_group_name_H-M   'P 21/c'
_symmetry_Int_Tables_number      14
_space_group_name_Hall           '-P 2ybc'
loop_
_symmetry_equiv_pos_site_id
_symmetry_equiv_pos_as_xyz
1 x,y,z
2 -x,1/2+y,1/2-z
3 -x,-y,-z
4 x,1/2-y,1/2+z
_cell_length_a                   12.431(3)
_cell_length_b                   8.7061(18)
_cell_length_c                   22.116(5)
_cell_angle_alpha                90
_cell_angle_beta                 106.32
_cell_angle_gamma                90
_cell_volume                     2297.07
_exptl_crystal_colour            colorless
_exptl_crystal_description       columnar
_cell_formula_units_Z            4
loop_
_atom_site_label
_atom_site_type_symbol
_atom_site_fract_x
_atom_site_fract_y
_atom_site_fract_z
O1 O 0.55086(10) -0.40051(12) 0.43658(5)
O2 O -0.07420(9) -0.00235(13) 0.24803(5)
O3 O 0.39603(8) 0.29598(10) 0.29030(5)
N1 N 0.47795(10) 0.06335(13) 0.32287(5)
N2 N 0.29283(9) 0.07546(12) 0.26395(5)
N3 N 0.10626(9) 0.10495(12) 0.27771(5)
N4 N 0.38513(9) -0.22407(12) 0.34693(5)
N5 N 0.02032(10) 0.07982(13) 0.17615(5)
C1 C 0.80866(13) 0.21326(17) 0.40578(7)
H1 H 0.8820 0.2449 0.4242
C2 C 0.72057(13) 0.28872(17) 0.41978(7)
H2 H 0.7351 0.3713 0.4476
C3 C 0.61093(12) 0.24227(16) 0.39275(6)
H3 H 0.5522 0.2934 0.4024
C4 C 0.58910(11) 0.11838(14) 0.35096(6)
C5 C 0.39055(11) 0.15508(15) 0.29305(6)
C6 C 0.18920(11) 0.16253(15) 0.24512(6)
H4 H 0.2047 0.2716 0.2547
C7 C 0.13095(12) 0.10594(16) 0.34484(6)
C8 C 0.20730(13) 0.21349(17) 0.37911(7)
H5 H 0.2392 0.2854 0.3582
C9 C 0.23555(16) 0.2128(2) 0.44477(7)
H6 H 0.2863 0.2845 0.4677
C10 C 0.18807(16) 0.1053(2) 0.47618(7)
H7 H 0.2073 0.1046 0.5200
C11 C 0.56843(13) -0.34825(18) 0.37894(7)
H8 H 0.6172 -0.4197 0.3657
H9 H 0.6054 -0.2490 0.3857
C12 C 0.45940(12) -0.33430(16) 0.32770(6)
H10 H 0.4739 -0.2995 0.2891
H11 H 0.4232 -0.4339 0.3198
C13 C 0.36649(14) -0.2799(2) 0.40606(7)
H12 H 0.3277 -0.3777 0.3987
H13 H 0.3198 -0.2074 0.4205
C14 C 0.47660(17) -0.2986(2) 0.45588(8)
H14 H 0.5122 -0.1989 0.4655
H15 H 0.4628 -0.3380 0.4940
C15 C 0.27896(12) -0.20280(15) 0.29748(7)
H16 H 0.2224 -0.1660 0.3165
H17 H 0.2541 -0.3012 0.2780
C16 C 0.28955(12) -0.08889(15) 0.24662(6)
H18 H 0.3574 -0.1129 0.2351
H19 H 0.2268 -0.1048 0.2095
C17 C 0.00818(12) 0.05350(16) 0.23699(6)
C18 C -0.04408(14) 0.06128(18) 0.11480(7)
H20 H -0.1160 0.0204 0.1014
C19 C 0.01874(14) 0.11491(18) 0.07762(7)
H21 H -0.0036 0.1167 0.0338
C20 C 0.12412(13) 0.16772(17) 0.11673(6)
H22 H 0.1826 0.2097 0.1035
C21 C 0.12175(12) 0.14416(15) 0.17742(6)
C22 C 0.08389(13) -0.00232(17) 0.37669(6)
H23 H 0.0338 -0.0753 0.3542
C23 C 0.11248(15) 0.0000(2) 0.44210(7)
H24 H 0.0800 -0.0708 0.4632
C24 C 0.78706(12) 0.09046(17) 0.36424(7)
H25 H 0.8461 0.0399 0.3547
C25 C 0.67774(12) 0.04264(15) 0.33687(6)
H26 H 0.6637 -0.0400 0.3091
H27 H 0.4595(13) -0.0274(19) 0.3323(7)
loop_
_geom_bond_atom_site_label_1
_geom_bond_atom_site_label_2
_geom_bond_site_symmetry_1
_geom_bond_site_symmetry_2
O1 C11 1_555 1_555
O2 C17 1_555 1_555
O3 C5 1_555 1_555
N1 C4 1_555 1_555
N2 C5 1_555 1_555
N3 C6 1_555 1_555
N4 C12 1_555 1_555
N5 C17 1_555 1_555
C1 H1 1_555 1_555
C2 C1 1_555 1_555
H2 C2 1_555 1_555
C3 C2 1_555 1_555
H3 C3 1_555 1_555
C4 C3 1_555 1_555
C5 N1 1_555 1_555
C6 N2 1_555 1_555
H4 C6 1_555 1_555
C7 N3 1_555 1_555
C8 C7 1_555 1_555
H5 C8 1_555 1_555
C9 C8 1_555 1_555
H6 C9 1_555 1_555
C10 C9 1_555 1_555
H7 C10 1_555 1_555
C11 H8 1_555 1_555
H9 C11 1_555 1_555
C12 C11 1_555 1_555
H10 C12 1_555 1_555
H11 C12 1_555 1_555
C13 N4 1_555 1_555
H12 C13 1_555 1_555
H13 C13 1_555 1_555
C14 O1 1_555 1_555
H14 C14 1_555 1_555
H15 C14 1_555 1_555
C15 N4 1_555 1_555
H16 C15 1_555 1_555
H17 C15 1_555 1_555
C16 N2 1_555 1_555
H18 C16 1_555 1_555
H19 C16 1_555 1_555
C17 N3 1_555 1_555
C18 N5 1_555 1_555
H20 C18 1_555 1_555
C19 C18 1_555 1_555
H21 C19 1_555 1_555
C20 C19 1_555 1_555
H22 C20 1_555 1_555
C21 N5 1_555 1_555
C22 C7 1_555 1_555
H23 C22 1_555 1_555
C23 C10 1_555 1_555
H24 C23 1_555 1_555
C24 C1 1_555 1_555
H25 C24 1_555 1_555
C25 C4 1_555 1_555
H26 C25 1_555 1_555
H27 N1 1_555 1_555
C6 C21 1_555 1_555
C13 C14 1_555 1_555
C15 C16 1_555 1_555
C20 C21 1_555 1_555
C22 C23 1_555 1_555
C24 C25 1_555 1_555

#END
