
#######################################################################
#
#                 Cambridge Crystallographic Data Centre
#                                CCDC 
#
#######################################################################
#
# If this CIF has been generated from an entry in the Cambridge 
# Structural Database, then it will include bibliographic, chemical, 
# crystal, experimental, refinement or atomic coordinate data resulting 
# from the CCDC's data processing and validation procedures.
#
#######################################################################

data_OYAGIG
_chemical_name_common            
1,4-bis(3-(4-butylphenyl)quinoxalin-2-yl)benzene
_chemical_formula_moiety         'C42 H38 N4'
_chemical_name_systematic        
2-(4-butylphenyl)-3-(4-(3-(4-butylphenyl)quinoxalin-2-yl)phenyl)quinoxaline
_symmetry_cell_setting           monoclinic
_symmetry_space_group_name_H-M   'P 21/n'
_symmetry_Int_Tables_number      14
_space_group_name_Hall           '-P 2yn'
loop_
_symmetry_equiv_pos_site_id
_symmetry_equiv_pos_as_xyz
1 x,y,z
2 1/2-x,1/2+y,1/2-z
3 -x,-y,-z
4 1/2+x,1/2-y,1/2+z
_cell_length_a                   5.981(4)
_cell_length_b                   14.384(4)
_cell_length_c                   19.951(3)
_cell_angle_alpha                90
_cell_angle_beta                 92.31(3)
_cell_angle_gamma                90
_cell_volume                     1715
_exptl_crystal_colour            yellow
_exptl_crystal_description       block
_cell_formula_units_Z            2
_exptl_crystal_recrystallization_method 'acetic acid'
loop_
_atom_site_label
_atom_site_type_symbol
_atom_site_fract_x
_atom_site_fract_y
_atom_site_fract_z
N1 N 0.3778(4) 0.92892(18) 0.16690(12)
N2 N 0.6224(4) 1.08684(17) 0.12617(12)
C1 C 0.3257(5) 1.0169(2) 0.18876(14)
C2 C 0.1424(6) 1.0299(3) 0.23103(16)
H1 H 0.0549 0.9795 0.2428
C3 C 0.0951(6) 1.1173(3) 0.25442(17)
H2 H -0.0270 1.1257 0.2812
C4 C 0.2278(7) 1.1942(3) 0.23856(18)
H3 H 0.1954 1.2525 0.2558
C5 C 0.4046(6) 1.1835(2) 0.19785(16)
H4 H 0.4923 1.2345 0.1877
C6 C 0.4549(5) 1.0949(2) 0.17111(15)
C7 C 0.6653(5) 1.0023(2) 0.10256(14)
C8 C 0.5476(5) 0.9210(2) 0.12574(14)
C9 C 0.8374(5) 0.9985(2) 0.05009(14)
C10 C 0.8290(5) 0.9345(2) -0.00330(14)
H5 H 0.7144 0.8907 -0.0063
C11 C 0.9898(5) 0.9359(2) -0.05143(15)
H6 H 0.9826 0.8920 -0.0856
C12 C 0.6102(5) 0.8232(2) 0.10939(14)
C13 C 0.4539(5) 0.7624(2) 0.07908(17)
H7 H 0.3114 0.7838 0.0667
C14 C 0.5101(6) 0.6702(2) 0.06728(17)
H8 H 0.4044 0.6313 0.0465
C15 C 0.7195(6) 0.6348(2) 0.08568(16)
C16 C 0.8744(6) 0.6957(2) 0.11547(17)
H9 H 1.0162 0.6738 0.1281
C17 C 0.8232(5) 0.7885(2) 0.12688(16)
H10 H 0.9312 0.8277 0.1463
C18 C 0.7804(8) 0.5330(3) 0.0749(2)
H11 H 0.6581 0.5038 0.0494
H12 H 0.9107 0.5310 0.0475
C19 C 0.8282(11) 0.4769(4) 0.1350(3)
H13 H 0.7022 0.4839 0.1637
H14 H 0.9566 0.5046 0.1586
C20 C 0.8764(13) 0.3696(5) 0.1292(4)
H15 H 0.9001 0.3433 0.1737
H16 H 0.7482 0.3389 0.1076
C21 C 1.0567(16) 0.3552(6) 0.0936(4)
H17 H 1.0800 0.2895 0.0886
H18 H 1.1851 0.3824 0.1164
H19 H 1.0350 0.3832 0.0501
N1B N 1.6222(4) 1.07108(18) -0.16690(12)
N2B N 1.3776(4) 0.91316(17) -0.12617(12)
C1B C 1.6743(5) 0.9831(2) -0.18876(14)
C2B C 1.8576(6) 0.9701(3) -0.23103(16)
H1B H 1.9451 1.0205 -0.2428
C3B C 1.9049(6) 0.8827(3) -0.25442(17)
H2B H 2.0270 0.8743 -0.2812
C4B C 1.7722(7) 0.8058(3) -0.23856(18)
H3B H 1.8046 0.7475 -0.2558
C5B C 1.5954(6) 0.8165(2) -0.19785(16)
H4B H 1.5077 0.7655 -0.1877
C6B C 1.5451(5) 0.9051(2) -0.17111(15)
C7B C 1.3347(5) 0.9977(2) -0.10256(14)
C8B C 1.4524(5) 1.0790(2) -0.12574(14)
C9B C 1.1626(5) 1.0015(2) -0.05009(14)
C10B C 1.1710(5) 1.0655(2) 0.00330(14)
H5B H 1.2856 1.1093 0.0063
C11B C 1.0102(5) 1.0641(2) 0.05143(15)
H6B H 1.0174 1.1080 0.0856
C12B C 1.3898(5) 1.1768(2) -0.10939(14)
C13B C 1.5461(5) 1.2376(2) -0.07908(17)
H7B H 1.6886 1.2162 -0.0667
C14B C 1.4899(6) 1.3298(2) -0.06728(17)
H8B H 1.5956 1.3687 -0.0465
C15B C 1.2805(6) 1.3652(2) -0.08568(16)
C16B C 1.1256(6) 1.3043(2) -0.11547(17)
H9B H 0.9838 1.3262 -0.1281
C17B C 1.1768(5) 1.2115(2) -0.12688(16)
H10B H 1.0688 1.1723 -0.1463
C18B C 1.2196(8) 1.4670(3) -0.0749(2)
H11B H 1.3419 1.4962 -0.0494
H12B H 1.0893 1.4690 -0.0475
C19B C 1.1718(11) 1.5231(4) -0.1350(3)
H13B H 1.2978 1.5161 -0.1637
H14B H 1.0434 1.4954 -0.1586
C20B C 1.1236(13) 1.6304(5) -0.1292(4)
H15B H 1.0999 1.6567 -0.1737
H16B H 1.2518 1.6611 -0.1076
C21B C 0.9433(16) 1.6448(6) -0.0936(4)
H17B H 0.9200 1.7105 -0.0886
H18B H 0.8149 1.6176 -0.1164
H19B H 0.9650 1.6168 -0.0501
loop_
_geom_bond_atom_site_label_1
_geom_bond_atom_site_label_2
_geom_bond_site_symmetry_1
_geom_bond_site_symmetry_2
N1 C1 1_555 1_555
N2 C6 1_555 1_555
C1 C2 1_555 1_555
C2 H1 1_555 1_555
C3 C2 1_555 1_555
H2 C3 1_555 1_555
C4 C3 1_555 1_555
H3 C4 1_555 1_555
C5 C4 1_555 1_555
H4 C5 1_555 1_555
C6 C1 1_555 1_555
C7 N2 1_555 1_555
C8 N1 1_555 1_555
C9 C7 1_555 1_555
C10 C9 1_555 1_555
H5 C10 1_555 1_555
C11 C10 1_555 1_555
H6 C11 1_555 1_555
C12 C8 1_555 1_555
C13 C12 1_555 1_555
H7 C13 1_555 1_555
C14 C13 1_555 1_555
H8 C14 1_555 1_555
C15 C14 1_555 1_555
C16 C15 1_555 1_555
H9 C16 1_555 1_555
C17 C12 1_555 1_555
H10 C17 1_555 1_555
C18 C15 1_555 1_555
H11 C18 1_555 1_555
H12 C18 1_555 1_555
C19 C18 1_555 1_555
H13 C19 1_555 1_555
H14 C19 1_555 1_555
C20 C19 1_555 1_555
H15 C20 1_555 1_555
H16 C20 1_555 1_555
C21 C20 1_555 1_555
H17 C21 1_555 1_555
H18 C21 1_555 1_555
H19 C21 1_555 1_555
N1B C1B 1_555 1_555
N2B C6B 1_555 1_555
C1B C2B 1_555 1_555
C2B H1B 1_555 1_555
C3B C2B 1_555 1_555
H2B C3B 1_555 1_555
C4B C3B 1_555 1_555
H3B C4B 1_555 1_555
C5B C4B 1_555 1_555
H4B C5B 1_555 1_555
C6B C1B 1_555 1_555
C7B N2B 1_555 1_555
C8B N1B 1_555 1_555
C9B C11 1_555 1_555
C10B C9B 1_555 1_555
H5B C10B 1_555 1_555
C11B C9 1_555 1_555
H6B C11B 1_555 1_555
C12B C8B 1_555 1_555
C13B C12B 1_555 1_555
H7B C13B 1_555 1_555
C14B C13B 1_555 1_555
H8B C14B 1_555 1_555
C15B C14B 1_555 1_555
C16B C15B 1_555 1_555
H9B C16B 1_555 1_555
C17B C12B 1_555 1_555
H10B C17B 1_555 1_555
C18B C15B 1_555 1_555
H11B C18B 1_555 1_555
H12B C18B 1_555 1_555
C19B C18B 1_555 1_555
H13B C19B 1_555 1_555
H14B C19B 1_555 1_555
C20B C19B 1_555 1_555
H15B C20B 1_555 1_555
H16B C20B 1_555 1_555
C21B C20B 1_555 1_555
H17B C21B 1_555 1_555
H18B C21B 1_555 1_555
H19B C21B 1_555 1_555
C5 C6 1_555 1_555
C7 C8 1_555 1_555
C16 C17 1_555 1_555
C5B C6B 1_555 1_555
C7B C8B 1_555 1_555
C7B C9B 1_555 1_555
C10B C11B 1_555 1_555
C16B C17B 1_555 1_555

#END
