
#######################################################################
#
#                 Cambridge Crystallographic Data Centre
#                                CCDC 
#
#######################################################################
#
# If this CIF has been generated from an entry in the Cambridge 
# Structural Database, then it will include bibliographic, chemical, 
# crystal, experimental, refinement or atomic coordinate data resulting 
# from the CCDC's data processing and validation procedures.
#
#######################################################################

data_OYAQUB
_chemical_formula_moiety         'C38 H38 N2 O2 Si4'
_chemical_name_systematic        
(2,4-Dimethyl-2,4-diphenyl-1,3,2,4-diazadisiletidine-1,3-diyl)bis(diphenylsilanol)
_symmetry_cell_setting           triclinic
_symmetry_space_group_name_H-M   'P -1'
_symmetry_Int_Tables_number      2
_space_group_name_Hall           '-P 1'
loop_
_symmetry_equiv_pos_site_id
_symmetry_equiv_pos_as_xyz
1 x,y,z
2 -x,-y,-z
_cell_length_a                   10.389(2)
_cell_length_b                   16.992(3)
_cell_length_c                   21.085(4)
_cell_angle_alpha                70.27(3)
_cell_angle_beta                 84.98(3)
_cell_angle_gamma                87.40(3)
_cell_volume                     3489.68
_exptl_crystal_colour            colorless
_exptl_crystal_description       platelet
_cell_formula_units_Z            4
loop_
_atom_site_label
_atom_site_type_symbol
_atom_site_fract_x
_atom_site_fract_y
_atom_site_fract_z
Si1 Si -0.17885(10) 0.26464(6) 0.22762(5)
Si2 Si -0.01670(10) 0.10196(6) 0.30307(5)
Si3 Si 0.19030(10) -0.01073(6) 0.25295(5)
Si4 Si 0.02642(10) 0.15226(6) 0.17735(5)
O1 O -0.1221(3) 0.32748(15) 0.26156(13)
H1 H -0.0473 0.3467 0.2504
O2 O 0.1206(2) -0.07108(14) 0.21838(13)
H2 H 0.1802 -0.0907 0.1983
N1 N -0.0821(3) 0.17853(17) 0.23429(14)
N2 N 0.0926(3) 0.07444(17) 0.24504(14)
C1 C -0.3374(4) 0.2339(2) 0.27763(18)
C2 C 0.3538(4) 0.0152(2) 0.20790(18)
C3 C 0.4609(4) -0.0339(2) 0.2331(2)
H3 H 0.4509 -0.0780 0.2752
C4 C -0.3547(4) 0.2399(3) 0.34203(19)
H4 H -0.2862 0.2602 0.3590
C5 C 0.5822(4) -0.0200(3) 0.1981(2)
H5 H 0.6541 -0.0540 0.2166
C6 C -0.4692(5) 0.2171(3) 0.3822(2)
H6 H -0.4781 0.2219 0.4259
C7 C 0.5980(4) 0.0430(3) 0.1366(2)
H7 H 0.6802 0.0515 0.1121
C8 C -0.5692(4) 0.1878(3) 0.3590(2)
H8 H -0.6480 0.1728 0.3862
C9 C 0.4945(4) 0.0937(3) 0.1108(2)
H9 H 0.5057 0.1384 0.0691
C10 C -0.5543(4) 0.1802(3) 0.2957(2)
H10 H -0.6226 0.1588 0.2795
C11 C 0.3749(4) 0.0793(2) 0.14564(19)
H11 H 0.3039 0.1140 0.1268
C12 C -0.4406(4) 0.2036(2) 0.2556(2)
H12 H -0.4329 0.1989 0.2118
C13 C -0.1956(4) 0.3219(2) 0.13575(19)
C14 C 0.2076(4) -0.0714(2) 0.34399(19)
C15 C -0.2622(5) 0.2897(3) 0.0954(2)
H13 H -0.2979 0.2355 0.1147
C16 C 0.1627(4) -0.1535(2) 0.3730(2)
H14 H 0.1220 -0.1783 0.3460
C17 C -0.2774(5) 0.3349(3) 0.0279(2)
H15 H -0.3224 0.3115 0.0013
C18 C 0.1766(4) -0.1990(3) 0.4400(2)
H16 H 0.1467 -0.2547 0.4584
C19 C -0.2268(6) 0.4141(3) -0.0004(2)
H17 H -0.2387 0.4459 -0.0462
C20 C 0.2337(4) -0.1635(3) 0.4801(2)
H18 H 0.2411 -0.1946 0.5265
C21 C -0.1594(5) 0.4470(3) 0.0378(2)
H19 H -0.1225 0.5008 0.0180
C22 C 0.2807(4) -0.0825(3) 0.4531(2)
H20 H 0.3204 -0.0582 0.4808
C23 C -0.1453(4) 0.4019(2) 0.1047(2)
H21 H -0.1000 0.4260 0.1306
C24 C 0.2686(4) -0.0377(2) 0.3855(2)
H22 H 0.3025 0.0170 0.3668
C25 C -0.0423(4) 0.1094(2) 0.1180(2)
H23 H -0.0095 0.1406 0.0716
H24 H -0.1368 0.1146 0.1219
H25 H -0.0171 0.0503 0.1289
C26 C 0.0584(4) 0.1460(2) 0.36011(19)
H26 H 0.0269 0.1164 0.4070
H27 H 0.0355 0.2055 0.3483
H28 H 0.1526 0.1394 0.3551
C27 C 0.1403(4) 0.2382(2) 0.12996(19)
C28 C -0.1357(4) 0.0230(2) 0.35617(18)
C29 C 0.1570(4) 0.2689(3) 0.0596(2)
H29 H 0.1039 0.2486 0.0342
C30 C -0.1113(4) -0.0301(2) 0.4209(2)
H30 H -0.0280 -0.0309 0.4365
C31 C 0.2486(5) 0.3278(3) 0.0259(2)
H31 H 0.2572 0.3474 -0.0221
C32 C -0.2053(5) -0.0814(2) 0.4626(2)
H32 H -0.1856 -0.1179 0.5061
C33 C 0.3270(5) 0.3584(3) 0.0604(2)
H33 H 0.3904 0.3986 0.0368
C34 C -0.3273(5) -0.0802(3) 0.4418(2)
H34 H -0.3927 -0.1144 0.4711
C35 C 0.3128(4) 0.3296(3) 0.1310(2)
H35 H 0.3659 0.3505 0.1559
C36 C -0.3539(4) -0.0290(2) 0.3780(2)
H36 H -0.4380 -0.0280 0.3633
C37 C 0.2204(4) 0.2703(2) 0.1642(2)
H37 H 0.2116 0.2510 0.2122
C38 C -0.2589(4) 0.0210(2) 0.3355(2)
H38 H -0.2779 0.0546 0.2911
Si5 Si -0.16277(10) 0.76698(6) 0.24797(5)
Si6 Si -0.00870(10) 0.59697(6) 0.31708(5)
Si7 Si 0.17851(10) 0.48063(6) 0.26062(5)
Si8 Si 0.03835(11) 0.65768(6) 0.19202(5)
O3 O -0.1027(3) 0.83247(15) 0.27769(13)
H39 H -0.0316 0.8556 0.2620
O4 O 0.1025(3) 0.42783(15) 0.22183(13)
H40 H 0.1457 0.4097 0.1940
N3 N -0.0653(3) 0.68196(17) 0.25215(14)
N4 N 0.0923(3) 0.56966(17) 0.25597(14)
C39 C -0.3172(4) 0.7346(2) 0.30094(19)
C40 C 0.3442(4) 0.5011(2) 0.21680(18)
C41 C -0.3664(4) 0.7775(2) 0.34332(19)
H41 H -0.3180 0.8216 0.3470
C42 C 0.4446(4) 0.4431(2) 0.2362(2)
H42 H 0.4294 0.3937 0.2739
C43 C -0.4832(5) 0.7578(3) 0.3801(2)
H43 H -0.5152 0.7888 0.4084
C44 C 0.5660(4) 0.4553(3) 0.2020(2)
H44 H 0.6327 0.4147 0.2166
C45 C -0.5539(5) 0.6934(3) 0.3762(2)
H45 H -0.6349 0.6798 0.4016
C46 C 0.5901(4) 0.5267(3) 0.1467(2)
H46 H 0.6732 0.5355 0.1231
C47 C -0.5070(4) 0.6486(3) 0.3353(3)
H47 H -0.5554 0.6038 0.3328
C48 C 0.4926(5) 0.5845(3) 0.1264(2)
H48 H 0.5081 0.6338 0.0886
C49 C -0.3893(4) 0.6687(2) 0.2978(2)
H49 H -0.3574 0.6374 0.2698
C50 C 0.3715(4) 0.5713(3) 0.1609(2)
H50 H 0.3049 0.6118 0.1456
C51 C 0.1871(4) 0.4141(2) 0.35057(19)
C52 C -0.1949(4) 0.8211(2) 0.15727(19)
C53 C 0.1001(4) 0.3497(2) 0.3817(2)
H51 H 0.0351 0.3401 0.3563
C54 C -0.2889(4) 0.7933(3) 0.1264(2)
H52 H -0.3370 0.7450 0.1518
C55 C 0.1059(5) 0.2997(3) 0.4484(2)
H53 H 0.0460 0.2559 0.4679
C56 C -0.3132(5) 0.8348(3) 0.0597(2)
H54 H -0.3772 0.8147 0.0397
C57 C 0.1971(5) 0.3128(3) 0.4866(2)
H55 H 0.2000 0.2786 0.5326
C58 C -0.2446(5) 0.9056(3) 0.0218(2)
H56 H -0.2618 0.9342 -0.0239
C59 C 0.2846(5) 0.3757(3) 0.4580(2)
H57 H 0.3479 0.3855 0.4843
C60 C -0.1517(4) 0.9340(3) 0.0509(2)
H58 H -0.1039 0.9822 0.0252
C61 C 0.2801(4) 0.4250(2) 0.3906(2)
H59 H 0.3423 0.4675 0.3711
C62 C -0.1279(4) 0.8921(2) 0.1178(2)
H60 H -0.0636 0.9127 0.1372
C63 C -0.0376(4) 0.6331(3) 0.1250(2)
H61 H 0.0012 0.6671 0.0807
H62 H -0.1306 0.6455 0.1279
H63 H -0.0238 0.5737 0.1309
C64 C 0.0782(4) 0.6269(2) 0.37813(19)
H64 H 0.0441 0.5956 0.4242
H65 H 0.0660 0.6869 0.3698
H66 H 0.1705 0.6139 0.3727
C65 C -0.1362(4) 0.5207(2) 0.36372(19)
C66 C 0.1654(4) 0.7398(2) 0.1545(2)
C67 C -0.1731(5) 0.5080(3) 0.4310(2)
H67 H -0.1270 0.5348 0.4547
C68 C 0.1701(5) 0.7932(3) 0.0884(2)
H68 H 0.1086 0.7879 0.0594
C69 C -0.2754(5) 0.4573(3) 0.4647(2)
H69 H -0.2988 0.4497 0.5110
C70 C 0.2635(6) 0.8550(3) 0.0635(3)
H70 H 0.2649 0.8915 0.0180
C71 C -0.3427(5) 0.4183(3) 0.4315(2)
H71 H -0.4122 0.3828 0.4546
C72 C 0.3530(5) 0.8628(3) 0.1047(3)
H72 H 0.4164 0.9049 0.0878
C73 C -0.3090(5) 0.4308(3) 0.3637(2)
H73 H -0.3562 0.4044 0.3402
C74 C 0.3516(5) 0.8098(3) 0.1706(3)
H74 H 0.4140 0.8148 0.1992
C75 C -0.2070(4) 0.4815(2) 0.3305(2)
H75 H -0.1849 0.4897 0.2840
C76 C 0.2582(4) 0.7491(2) 0.1946(2)
H76 H 0.2577 0.7127 0.2401
loop_
_geom_bond_atom_site_label_1
_geom_bond_atom_site_label_2
_geom_bond_site_symmetry_1
_geom_bond_site_symmetry_2
Si1 O1 1_555 1_555
Si2 N1 1_555 1_555
Si3 O2 1_555 1_555
Si4 N1 1_555 1_555
O1 H1 1_555 1_555
O2 H2 1_555 1_555
N1 Si1 1_555 1_555
N2 Si2 1_555 1_555
C1 Si1 1_555 1_555
C2 Si3 1_555 1_555
C3 C2 1_555 1_555
H3 C3 1_555 1_555
C4 C1 1_555 1_555
H4 C4 1_555 1_555
C5 C3 1_555 1_555
H5 C5 1_555 1_555
C6 C4 1_555 1_555
H6 C6 1_555 1_555
C7 C5 1_555 1_555
H7 C7 1_555 1_555
C8 C6 1_555 1_555
H8 C8 1_555 1_555
C9 C7 1_555 1_555
H9 C9 1_555 1_555
C10 C8 1_555 1_555
H10 C10 1_555 1_555
C11 C2 1_555 1_555
H11 C11 1_555 1_555
C12 C1 1_555 1_555
H12 C12 1_555 1_555
C13 Si1 1_555 1_555
C14 Si3 1_555 1_555
C15 C13 1_555 1_555
H13 C15 1_555 1_555
C16 C14 1_555 1_555
H14 C16 1_555 1_555
C17 C15 1_555 1_555
H15 C17 1_555 1_555
C18 C16 1_555 1_555
H16 C18 1_555 1_555
C19 C17 1_555 1_555
H17 C19 1_555 1_555
C20 C18 1_555 1_555
H18 C20 1_555 1_555
C21 C19 1_555 1_555
H19 C21 1_555 1_555
C22 C20 1_555 1_555
H20 C22 1_555 1_555
C23 C13 1_555 1_555
H21 C23 1_555 1_555
C24 C14 1_555 1_555
H22 C24 1_555 1_555
C25 Si4 1_555 1_555
H23 C25 1_555 1_555
H24 C25 1_555 1_555
H25 C25 1_555 1_555
C26 Si2 1_555 1_555
H26 C26 1_555 1_555
H27 C26 1_555 1_555
H28 C26 1_555 1_555
C27 Si4 1_555 1_555
C28 Si2 1_555 1_555
C29 C27 1_555 1_555
H29 C29 1_555 1_555
C30 C28 1_555 1_555
H30 C30 1_555 1_555
C31 C29 1_555 1_555
H31 C31 1_555 1_555
C32 C30 1_555 1_555
H32 C32 1_555 1_555
C33 C31 1_555 1_555
H33 C33 1_555 1_555
C34 C32 1_555 1_555
H34 C34 1_555 1_555
C35 C33 1_555 1_555
H35 C35 1_555 1_555
C36 C34 1_555 1_555
H36 C36 1_555 1_555
C37 C27 1_555 1_555
H37 C37 1_555 1_555
C38 C28 1_555 1_555
H38 C38 1_555 1_555
Si5 O3 1_555 1_555
Si6 N3 1_555 1_555
Si7 O4 1_555 1_555
Si8 N3 1_555 1_555
O3 H39 1_555 1_555
O4 H40 1_555 1_555
N3 Si5 1_555 1_555
N4 Si6 1_555 1_555
C39 Si5 1_555 1_555
C40 Si7 1_555 1_555
C41 C39 1_555 1_555
H41 C41 1_555 1_555
C42 C40 1_555 1_555
H42 C42 1_555 1_555
C43 C41 1_555 1_555
H43 C43 1_555 1_555
C44 C42 1_555 1_555
H44 C44 1_555 1_555
C45 C43 1_555 1_555
H45 C45 1_555 1_555
C46 C44 1_555 1_555
H46 C46 1_555 1_555
C47 C45 1_555 1_555
H47 C47 1_555 1_555
C48 C46 1_555 1_555
H48 C48 1_555 1_555
C49 C39 1_555 1_555
H49 C49 1_555 1_555
C50 C40 1_555 1_555
H50 C50 1_555 1_555
C51 Si7 1_555 1_555
C52 Si5 1_555 1_555
C53 C51 1_555 1_555
H51 C53 1_555 1_555
C54 C52 1_555 1_555
H52 C54 1_555 1_555
C55 C53 1_555 1_555
H53 C55 1_555 1_555
C56 C54 1_555 1_555
H54 C56 1_555 1_555
C57 C55 1_555 1_555
H55 C57 1_555 1_555
C58 C56 1_555 1_555
H56 C58 1_555 1_555
C59 C57 1_555 1_555
H57 C59 1_555 1_555
C60 C58 1_555 1_555
H58 C60 1_555 1_555
C61 C51 1_555 1_555
H59 C61 1_555 1_555
C62 C52 1_555 1_555
H60 C62 1_555 1_555
C63 Si8 1_555 1_555
H61 C63 1_555 1_555
H62 C63 1_555 1_555
H63 C63 1_555 1_555
C64 Si6 1_555 1_555
H64 C64 1_555 1_555
H65 C64 1_555 1_555
H66 C64 1_555 1_555
C65 Si6 1_555 1_555
C66 Si8 1_555 1_555
C67 C65 1_555 1_555
H67 C67 1_555 1_555
C68 C66 1_555 1_555
H68 C68 1_555 1_555
C69 C67 1_555 1_555
H69 C69 1_555 1_555
C70 C68 1_555 1_555
H70 C70 1_555 1_555
C71 C69 1_555 1_555
H71 C71 1_555 1_555
C72 C70 1_555 1_555
H72 C72 1_555 1_555
C73 C71 1_555 1_555
H73 C73 1_555 1_555
C74 C72 1_555 1_555
H74 C74 1_555 1_555
C75 C65 1_555 1_555
H75 C75 1_555 1_555
C76 C66 1_555 1_555
H76 C76 1_555 1_555
Si3 N2 1_555 1_555
Si4 N2 1_555 1_555
C9 C11 1_555 1_555
C10 C12 1_555 1_555
C21 C23 1_555 1_555
C22 C24 1_555 1_555
C35 C37 1_555 1_555
C36 C38 1_555 1_555
Si7 N4 1_555 1_555
Si8 N4 1_555 1_555
C47 C49 1_555 1_555
C48 C50 1_555 1_555
C59 C61 1_555 1_555
C60 C62 1_555 1_555
C73 C75 1_555 1_555
C74 C76 1_555 1_555

#END
