
#######################################################################
#
#                 Cambridge Crystallographic Data Centre
#                                CCDC 
#
#######################################################################
#
# If this CIF has been generated from an entry in the Cambridge 
# Structural Database, then it will include bibliographic, chemical, 
# crystal, experimental, refinement or atomic coordinate data resulting 
# from the CCDC's data processing and validation procedures.
#
#######################################################################

data_OYAREN
_chemical_formula_moiety         'C15 H24 O4'
_chemical_name_systematic        
(1,1,3,5-tetramethylhexahydrooxireno[7,7a]indeno[4,5-b]oxirene-3,4a(1H)-diyl)dimethanol
_symmetry_cell_setting           monoclinic
_symmetry_space_group_name_H-M   'P 21/c'
_symmetry_Int_Tables_number      14
_space_group_name_Hall           '-P 2ybc'
loop_
_symmetry_equiv_pos_site_id
_symmetry_equiv_pos_as_xyz
1 x,y,z
2 -x,1/2+y,1/2-z
3 -x,-y,-z
4 x,1/2-y,1/2+z
_cell_length_a                   9.220(2)
_cell_length_b                   9.221(3)
_cell_length_c                   17.022(4)
_cell_angle_alpha                90
_cell_angle_beta                 95.108(8)
_cell_angle_gamma                90
_cell_volume                     1441.42
_cell_formula_units_Z            4
loop_
_atom_site_label
_atom_site_type_symbol
_atom_site_fract_x
_atom_site_fract_y
_atom_site_fract_z
O1 O 0.87033(17) 0.93009(14) 0.04692(9)
O2 O 1.0027(2) 1.04879(18) 0.18200(11)
O3 O 1.1137(2) 0.7609(2) -0.05718(12)
H1 H 1.1457 0.6874 -0.0766
O4 O 0.7963(2) 0.50280(19) 0.11829(13)
H2 H 0.8269 0.4242 0.1044
C1 C 0.8348(2) 0.8050(2) 0.09475(12)
C2 C 0.9614(3) 0.9145(2) 0.21998(14)
H3 H 0.9732 0.9140 0.2778
C3 C 0.8380(2) 0.8259(2) 0.18243(11)
H4 H 0.8531 0.7286 0.2048
C4 C 0.6804(3) 0.8646(3) 0.19621(13)
C5 C 0.9869(3) 0.7256(2) -0.01948(15)
H5 H 0.9888 0.6229 -0.0072
H6 H 0.9019 0.7436 -0.0560
C6 C 1.1124(2) 0.8402(3) 0.10557(15)
H7 H 1.1761 0.8966 0.0740
C7 C 0.6884(2) 0.7285(2) 0.06913(13)
C8 C 0.9714(2) 0.8096(2) 0.05532(13)
C9 C 1.0950(3) 0.9224(3) 0.18084(17)
H8 H 1.1838 0.9279 0.2169
C10 C 0.5999(3) 0.7534(3) 0.14120(16)
H9 H 0.5034 0.7890 0.1237
H10 H 0.5896 0.6627 0.1691
C11 C 0.7094(3) 0.5655(2) 0.05570(16)
H11 H 0.6151 0.5180 0.0504
H12 H 0.7547 0.5510 0.0070
C12 C 1.1872(3) 0.6964(3) 0.12740(19)
H13 H 1.2766 0.7145 0.1593
H14 H 1.2077 0.6463 0.0802
H15 H 1.1244 0.6380 0.1565
C13 C 0.6108(3) 0.7913(3) -0.00625(16)
H16 H 0.6686 0.7744 -0.0496
H17 H 0.5973 0.8937 0.0002
H18 H 0.5177 0.7452 -0.0168
C14 C 0.6489(4) 0.8403(4) 0.28258(18)
H19 H 0.6717 0.7420 0.2975
H20 H 0.5478 0.8587 0.2880
H21 H 0.7076 0.9052 0.3161
C15 C 0.6433(3) 1.0210(3) 0.17140(18)
H22 H 0.6633 1.0351 0.1175
H23 H 0.7013 1.0868 0.2047
H24 H 0.5420 1.0390 0.1765
loop_
_geom_bond_atom_site_label_1
_geom_bond_atom_site_label_2
_geom_bond_site_symmetry_1
_geom_bond_site_symmetry_2
O1 C1 1_555 1_555
O2 C2 1_555 1_555
O3 H1 1_555 1_555
O4 H2 1_555 1_555
C1 C3 1_555 1_555
C2 H3 1_555 1_555
C3 C2 1_555 1_555
H4 C3 1_555 1_555
C4 C3 1_555 1_555
C5 O3 1_555 1_555
H5 C5 1_555 1_555
H6 C5 1_555 1_555
C6 H7 1_555 1_555
C7 C1 1_555 1_555
C8 O1 1_555 1_555
C9 O2 1_555 1_555
H8 C9 1_555 1_555
C10 C4 1_555 1_555
H9 C10 1_555 1_555
H10 C10 1_555 1_555
C11 O4 1_555 1_555
H11 C11 1_555 1_555
H12 C11 1_555 1_555
C12 C6 1_555 1_555
H13 C12 1_555 1_555
H14 C12 1_555 1_555
H15 C12 1_555 1_555
C13 C7 1_555 1_555
H16 C13 1_555 1_555
H17 C13 1_555 1_555
H18 C13 1_555 1_555
C14 C4 1_555 1_555
H19 C14 1_555 1_555
H20 C14 1_555 1_555
H21 C14 1_555 1_555
C15 C4 1_555 1_555
H22 C15 1_555 1_555
H23 C15 1_555 1_555
H24 C15 1_555 1_555
C1 C8 1_555 1_555
C2 C9 1_555 1_555
C5 C8 1_555 1_555
C6 C8 1_555 1_555
C6 C9 1_555 1_555
C7 C10 1_555 1_555
C7 C11 1_555 1_555

#END
