
#######################################################################
#
#                 Cambridge Crystallographic Data Centre
#                                CCDC 
#
#######################################################################
#
# If this CIF has been generated from an entry in the Cambridge 
# Structural Database, then it will include bibliographic, chemical, 
# crystal, experimental, refinement or atomic coordinate data resulting 
# from the CCDC's data processing and validation procedures.
#
#######################################################################

data_OYAROX
_chemical_formula_moiety         'C29 H30 N2 O8'
_chemical_name_systematic        
'(1,1,3,5-tetramethyl-3-(((4-nitrobenzoyl)oxy)methyl)-2,3,5,7a-tetrahydro-1H-inden-4-yl)methyl 4-nitrobenzoate'
_symmetry_cell_setting           monoclinic
_symmetry_space_group_name_H-M   'P 21/c'
_symmetry_Int_Tables_number      14
_space_group_name_Hall           '-P 2ybc'
loop_
_symmetry_equiv_pos_site_id
_symmetry_equiv_pos_as_xyz
1 x,y,z
2 -x,1/2+y,1/2-z
3 -x,-y,-z
4 x,1/2-y,1/2+z
_cell_length_a                   28.362(2)
_cell_length_b                   5.98660(10)
_cell_length_c                   16.1832(3)
_cell_angle_alpha                90
_cell_angle_beta                 100.970(7)
_cell_angle_gamma                90
_cell_volume                     2697.57
_exptl_crystal_colour            colorless
_exptl_crystal_description       block
_cell_formula_units_Z            4
loop_
_atom_site_label
_atom_site_type_symbol
_atom_site_fract_x
_atom_site_fract_y
_atom_site_fract_z
N1 N 0.44591(11) 0.3313(7) 0.92078(17)
N2 N 1.02554(12) 0.4536(9) 1.1782(2)
O1 O 0.41112(10) 0.4478(6) 0.9234(2)
O2 O 0.63631(6) 0.5912(3) 0.79082(11)
O3 O 0.83627(6) 0.6951(3) 0.91637(10)
O4 O 1.05305(12) 0.6055(8) 1.1779(2)
O5 O 0.44897(11) 0.1374(6) 0.9423(2)
O6 O 0.81835(9) 0.3377(4) 0.93658(15)
O7 O 1.03249(12) 0.2949(9) 1.2235(3)
O8 O 0.60584(7) 0.9318(3) 0.79641(16)
C1 C 0.48707(10) 0.4334(5) 0.89111(16)
C2 C 0.48132(10) 0.6433(5) 0.85619(18)
H1 H 0.4524 0.7196 0.8515
C3 C 0.51983(9) 0.7370(5) 0.82837(17)
H2 H 0.5171 0.8801 0.8056
C4 C 0.56244(8) 0.6208(4) 0.83386(14)
C5 C 0.60319(8) 0.7330(4) 0.80493(15)
C6 C 0.70606(8) 0.4958(4) 0.73426(14)
C7 C 0.75615(8) 0.5650(4) 0.72080(14)
C8 C 0.79176(8) 0.6701(4) 0.77227(14)
C9 C 0.78983(9) 0.7316(5) 0.86161(15)
H3 H 0.7808 0.8874 0.8641
H4 H 0.7656 0.6420 0.8810
C10 C 0.84551(11) 0.4938(5) 0.94912(17)
C11 C 0.89348(10) 0.4831(5) 1.00493(15)
C12 C 0.92606(11) 0.6573(5) 1.00990(18)
H5 H 0.9189 0.7819 0.9755
C13 C 0.96951(11) 0.6455(7) 1.0664(2)
H6 H 0.9917 0.7611 1.0701
C14 C 0.97886(11) 0.4623(7) 1.11604(18)
C15 C 0.52856(10) 0.3149(5) 0.89842(17)
H7 H 0.5312 0.1740 0.9231
C16 C 0.56682(10) 0.4077(4) 0.86852(17)
H8 H 0.5952 0.3279 0.8716
C17 C 0.67883(9) 0.4446(4) 0.64324(15)
H9 H 0.6739 0.2850 0.6359
H10 H 0.6477 0.5175 0.6331
C18 C 0.75968(9) 0.4908(4) 0.63303(14)
H11 H 0.7641 0.3285 0.6357
C19 C 0.80180(11) 0.5835(5) 0.60266(18)
H12 H 0.8038 0.5658 0.5463
C20 C 0.83634(11) 0.6897(6) 0.6531(2)
H13 H 0.8622 0.7388 0.6302
C21 C 0.83762(9) 0.7384(5) 0.74372(17)
H14 H 0.8640 0.6513 0.7765
C22 C 0.94791(14) 0.2884(7) 1.1127(2)
H15 H 0.9555 0.1649 1.1475
C23 C 0.90459(12) 0.2992(5) 1.0559(2)
H16 H 0.8829 0.1813 1.0522
C24 C 0.84903(12) 0.9880(6) 0.7618(2)
H17 H 0.8233 1.0776 0.7320
H18 H 0.8783 1.0260 0.7436
H19 H 0.8526 1.0154 0.8211
C25 C 0.69971(13) 0.4054(5) 0.49813(17)
H20 H 0.6674 0.4331 0.4695
H21 H 0.7041 0.2482 0.5086
H22 H 0.7217 0.4557 0.4638
C26 C 0.70163(11) 0.7814(4) 0.56306(18)
H23 H 0.7088 0.8641 0.6147
H24 H 0.6688 0.8074 0.5365
H25 H 0.7225 0.8291 0.5263
C27 C 0.70960(10) 0.2865(4) 0.78916(17)
H26 H 0.6780 0.2290 0.7889
H27 H 0.7247 0.3235 0.8457
H28 H 0.7284 0.1755 0.7673
C28 C 0.70917(9) 0.5316(4) 0.58173(15)
C29 C 0.68026(8) 0.6834(4) 0.77095(17)
H29 H 0.7005 0.7420 0.8214
H30 H 0.6728 0.8039 0.7305
loop_
_geom_bond_atom_site_label_1
_geom_bond_atom_site_label_2
_geom_bond_site_symmetry_1
_geom_bond_site_symmetry_2
N1 O1 1_555 1_555
N2 O4 1_555 1_555
O2 C5 1_555 1_555
O3 C9 1_555 1_555
O5 N1 1_555 1_555
O6 C10 1_555 1_555
O7 N2 1_555 1_555
O8 C5 1_555 1_555
C1 N1 1_555 1_555
C2 C1 1_555 1_555
H1 C2 1_555 1_555
C3 C2 1_555 1_555
H2 C3 1_555 1_555
C4 C3 1_555 1_555
C5 C4 1_555 1_555
C6 C7 1_555 1_555
C7 C8 1_555 1_555
C8 C9 1_555 1_555
C9 H3 1_555 1_555
H4 C9 1_555 1_555
C10 O3 1_555 1_555
C11 C10 1_555 1_555
C12 C11 1_555 1_555
H5 C12 1_555 1_555
C13 C12 1_555 1_555
H6 C13 1_555 1_555
C14 N2 1_555 1_555
C15 C1 1_555 1_555
H7 C15 1_555 1_555
C16 C4 1_555 1_555
H8 C16 1_555 1_555
C17 C6 1_555 1_555
H9 C17 1_555 1_555
H10 C17 1_555 1_555
C18 C7 1_555 1_555
H11 C18 1_555 1_555
C19 C18 1_555 1_555
H12 C19 1_555 1_555
C20 C19 1_555 1_555
H13 C20 1_555 1_555
C21 C8 1_555 1_555
H14 C21 1_555 1_555
C22 C14 1_555 1_555
H15 C22 1_555 1_555
C23 C11 1_555 1_555
H16 C23 1_555 1_555
C24 C21 1_555 1_555
H17 C24 1_555 1_555
H18 C24 1_555 1_555
H19 C24 1_555 1_555
C25 H20 1_555 1_555
H21 C25 1_555 1_555
H22 C25 1_555 1_555
C26 H23 1_555 1_555
H24 C26 1_555 1_555
H25 C26 1_555 1_555
C27 C6 1_555 1_555
H26 C27 1_555 1_555
H27 C27 1_555 1_555
H28 C27 1_555 1_555
C28 C17 1_555 1_555
C29 O2 1_555 1_555
H29 C29 1_555 1_555
H30 C29 1_555 1_555
C6 C29 1_555 1_555
C13 C14 1_555 1_555
C15 C16 1_555 1_555
C18 C28 1_555 1_555
C20 C21 1_555 1_555
C22 C23 1_555 1_555
C25 C28 1_555 1_555
C26 C28 1_555 1_555

#END
