
#######################################################################
#
#                 Cambridge Crystallographic Data Centre
#                                CCDC 
#
#######################################################################
#
# If this CIF has been generated from an entry in the Cambridge 
# Structural Database, then it will include bibliographic, chemical, 
# crystal, experimental, refinement or atomic coordinate data resulting 
# from the CCDC's data processing and validation procedures.
#
#######################################################################

data_OYASUD
_chemical_formula_moiety         'C24 H24 N5 1+,F6 P1 1-'
_chemical_name_systematic        
'1-((1-Ethyl-1H-benzimidazol-2-yl)methyl)-3-((6-methylpyridin-2-yl)methyl)-1H-3,1-benzimidazol-3-ium hexafluorophosphate'
_symmetry_cell_setting           triclinic
_symmetry_space_group_name_H-M   'P -1'
_symmetry_Int_Tables_number      2
_space_group_name_Hall           '-P 1'
loop_
_symmetry_equiv_pos_site_id
_symmetry_equiv_pos_as_xyz
1 x,y,z
2 -x,-y,-z
_cell_length_a                   10.5936(17)
_cell_length_b                   11.865(3)
_cell_length_c                   11.8904(19)
_cell_angle_alpha                62.503(2)
_cell_angle_beta                 73.042(3)
_cell_angle_gamma                69.818(2)
_cell_volume                     1228.48
_exptl_crystal_colour            colorless
_exptl_crystal_description       rectangle
_cell_formula_units_Z            2
loop_
_atom_site_label
_atom_site_type_symbol
_atom_site_fract_x
_atom_site_fract_y
_atom_site_fract_z
C1 C 0.0161(2) 0.2920(2) 0.5155(2)
C2 C 0.0642(3) 0.2904(3) 0.3950(3)
H1 H 0.1369 0.2244 0.3808
C3 C -0.0026(3) 0.3937(3) 0.2957(3)
H2 H 0.0246 0.3954 0.2133
C4 C -0.1075(3) 0.4931(3) 0.3167(3)
H3 H -0.1456 0.5618 0.2465
C5 C -0.1588(3) 0.4963(3) 0.4353(3)
H4 H -0.2313 0.5630 0.4482
C6 C -0.0935(2) 0.3909(3) 0.5363(2)
C7 C -0.0260(3) 0.2531(3) 0.7208(3)
H5 H -0.0200 0.2141 0.8078
C8 C -0.2281(3) 0.4343(3) 0.7346(3)
H6 H -0.2466 0.5269 0.6789
H7 H -0.1995 0.4232 0.8103
C9 C -0.3574(3) 0.3885(3) 0.7747(3)
C10 C -0.3681(4) 0.2892(4) 0.7524(4)
H8 H -0.2958 0.2453 0.7091
C11 C -0.4926(3) 0.2579(4) 0.7982(4)
H9 H -0.5052 0.1905 0.7865
C12 C -0.5985(3) 0.3251(3) 0.8609(3)
H10 H -0.6821 0.3036 0.8918
C13 C -0.5780(3) 0.4237(3) 0.8765(3)
C14 C -0.6899(3) 0.5021(4) 0.9413(4)
H11 H -0.6881 0.5928 0.8966
H12 H -0.6774 0.4711 1.0285
H13 H -0.7760 0.4927 0.9405
C15 C 0.1614(3) 0.0848(3) 0.6624(3)
H14 H 0.1538 0.0366 0.6183
H15 H 0.1475 0.0315 0.7539
C16 C 0.3025(3) 0.1074(3) 0.6220(3)
C17 C 0.4030(4) -0.1241(3) 0.7748(4)
H16 H 0.3247 -0.1481 0.7737
H17 H 0.4860 -0.1874 0.7606
C18 C 0.3910(4) -0.1070(4) 0.8931(4)
H18 H 0.4676 -0.0781 0.8878
H19 H 0.3893 -0.1890 0.9658
H20 H 0.3084 -0.0427 0.9026
C19 C 0.5211(3) 0.0648(3) 0.6174(3)
C20 C 0.6571(3) 0.0144(3) 0.6386(3)
H21 H 0.6852 -0.0668 0.7038
C21 C 0.7432(3) 0.0872(3) 0.5621(3)
H22 H 0.8339 0.0553 0.5737
C22 C 0.7028(3) 0.2131(3) 0.4619(3)
H23 H 0.7666 0.2613 0.4092
C23 C 0.5678(3) 0.2623(3) 0.4443(3)
H24 H 0.5394 0.3444 0.3803
C24 C 0.4749(3) 0.1869(2) 0.5239(3)
N1 N -0.1163(2) 0.3609(2) 0.6666(2)
N2 N 0.0564(2) 0.2065(2) 0.6340(2)
N3 N 0.3381(2) 0.2112(2) 0.5285(2)
N4 N 0.4066(2) 0.0158(2) 0.6808(3)
N5 N -0.4592(2) 0.4552(2) 0.8327(2)
F1 F -0.0396(3) 0.1738(2) 0.2017(2)
F2 F 0.0972(2) 0.0166(2) 0.1454(2)
F3 F 0.1753(3) 0.1822(2) 0.1113(2)
F4 F 0.1446(2) 0.1671(2) -0.0599(2)
F5 F 0.0136(2) 0.3198(2) 0.0028(2)
F6 F -0.0630(2) 0.1495(2) 0.0385(2)
P1 P 0.05569(11) 0.16627(10) 0.07403(10)
loop_
_geom_bond_atom_site_label_1
_geom_bond_atom_site_label_2
_geom_bond_site_symmetry_1
_geom_bond_site_symmetry_2
C1 C2 1_555 1_555
C2 H1 1_555 1_555
C3 C2 1_555 1_555
H2 C3 1_555 1_555
C4 C3 1_555 1_555
H3 C4 1_555 1_555
C5 C4 1_555 1_555
H4 C5 1_555 1_555
C6 C1 1_555 1_555
C7 H5 1_555 1_555
C8 H6 1_555 1_555
H7 C8 1_555 1_555
C9 C8 1_555 1_555
C10 C9 1_555 1_555
H8 C10 1_555 1_555
C11 C10 1_555 1_555
H9 C11 1_555 1_555
C12 C11 1_555 1_555
H10 C12 1_555 1_555
C13 C12 1_555 1_555
C14 C13 1_555 1_555
H11 C14 1_555 1_555
H12 C14 1_555 1_555
H13 C14 1_555 1_555
C15 H14 1_555 1_555
H15 C15 1_555 1_555
C16 C15 1_555 1_555
C17 H16 1_555 1_555
H17 C17 1_555 1_555
C18 C17 1_555 1_555
H18 C18 1_555 1_555
H19 C18 1_555 1_555
H20 C18 1_555 1_555
C19 C20 1_555 1_555
C20 H21 1_555 1_555
C21 C20 1_555 1_555
H22 C21 1_555 1_555
C22 C21 1_555 1_555
H23 C22 1_555 1_555
C23 C22 1_555 1_555
H24 C23 1_555 1_555
C24 C19 1_555 1_555
F1 P1 1_555 1_555
F2 P1 1_555 1_555
F3 P1 1_555 1_555
F4 P1 1_555 1_555
F5 P1 1_555 1_555
F6 P1 1_555 1_555
N1 C6 1_555 1_555
N2 C1 1_555 1_555
N3 C16 1_555 1_555
N4 C16 1_555 1_555
N5 C9 1_555 1_555
C5 C6 1_555 1_555
C7 N1 1_555 1_555
C7 N2 1_555 1_555
C8 N1 1_555 1_555
C13 N5 1_555 1_555
C15 N2 1_555 1_555
C17 N4 1_555 1_555
C19 N4 1_555 1_555
C23 C24 1_555 1_555
C24 N3 1_555 1_555

#END
