
#######################################################################
#
#                 Cambridge Crystallographic Data Centre
#                                CCDC 
#
#######################################################################
#
# If this CIF has been generated from an entry in the Cambridge 
# Structural Database, then it will include bibliographic, chemical, 
# crystal, experimental, refinement or atomic coordinate data resulting 
# from the CCDC's data processing and validation procedures.
#
#######################################################################

data_OYASAK
_chemical_formula_moiety         'C25 H26 O6'
_chemical_name_systematic        
11-methoxy-4,13,13,14a-tetramethyl-4,5,5a,13,14,14a-hexahydro-1H,3H,6H-cyclopenta[4',5']isochromeno[6',5':4,5]furo[3,2-c]chromene-3,6-dione
_symmetry_cell_setting           orthorhombic
_symmetry_space_group_name_H-M   'P n a 21'
_symmetry_Int_Tables_number      33
_space_group_name_Hall           'P 2c -2n'
loop_
_symmetry_equiv_pos_site_id
_symmetry_equiv_pos_as_xyz
1 x,y,z
2 1/2-x,1/2+y,1/2+z
3 1/2+x,1/2-y,z
4 -x,-y,1/2+z
_cell_length_a                   15.6433(2)
_cell_length_b                   8.77370(10)
_cell_length_c                   31.105(2)
_cell_angle_alpha                90
_cell_angle_beta                 90
_cell_angle_gamma                90
_cell_volume                     4269.15
_exptl_crystal_colour            colorless
_exptl_crystal_description       prism
_cell_formula_units_Z            8
loop_
_atom_site_label
_atom_site_type_symbol
_atom_site_fract_x
_atom_site_fract_y
_atom_site_fract_z
O1 O 0.43521(15) 0.4849(2) 0.29050(7)
O2 O 0.67554(16) 0.5255(3) 0.18718(9)
O3 O 0.4643(2) 0.6060(3) 0.36833(9)
O4 O 0.3852(2) 0.0840(3) 0.35217(9)
O5 O 0.71960(17) 0.2923(4) 0.19697(10)
O6 O 0.3574(3) -0.0231(3) 0.28966(12)
C1 C 0.4246(2) 0.3519(4) 0.35935(11)
C2 C 0.42218(19) 0.3565(3) 0.31299(10)
C3 C 0.4032(2) 0.2341(4) 0.28891(10)
C4 C 0.43487(19) 0.4417(3) 0.24430(9)
C5 C 0.52586(19) 0.4548(4) 0.22975(10)
C6 C 0.5738(2) 0.3412(4) 0.21491(10)
C7 C 0.4448(2) 0.4713(4) 0.38761(12)
C8 C 0.3980(2) 0.2786(4) 0.24247(10)
H1 H 0.3377 0.2844 0.2341
C9 C 0.3928(2) 0.5740(4) 0.21926(10)
C10 C 0.5425(2) 0.1772(4) 0.21453(11)
H2 H 0.5584 0.1287 0.2418
C11 C 0.5503(2) 0.6201(4) 0.22595(11)
C12 C 0.4620(2) 0.7000(4) 0.22145(12)
H3 H 0.4518 0.7660 0.2459
H4 H 0.4607 0.7615 0.1955
C13 C 0.6607(2) 0.3811(4) 0.19947(11)
C14 C 0.4056(3) 0.2082(5) 0.37712(13)
C15 C 0.4448(2) 0.1770(4) 0.21056(11)
H5 H 0.4297 0.2090 0.1817
H6 H 0.4246 0.0732 0.2142
C16 C 0.3810(3) 0.0912(4) 0.30748(13)
C17 C 0.3777(3) 0.5245(5) 0.17245(12)
H7 H 0.4305 0.4895 0.1602
H8 H 0.3364 0.4435 0.1718
H9 H 0.3567 0.6095 0.1561
C18 C 0.5791(3) 0.0831(5) 0.17742(15)
H10 H 0.5571 -0.0189 0.1789
H11 H 0.5628 0.1285 0.1506
H12 H 0.6403 0.0807 0.1795
C19 C 0.3090(2) 0.6295(5) 0.23862(15)
H13 H 0.3184 0.6604 0.2678
H14 H 0.2881 0.7145 0.2223
H15 H 0.2678 0.5485 0.2379
C20 C 0.6044(2) 0.6317(4) 0.18573(13)
H16 H 0.5694 0.6101 0.1607
H17 H 0.6262 0.7348 0.1829
C21 C 0.6001(3) 0.6770(5) 0.26533(13)
H18 H 0.6143 0.7826 0.2615
H19 H 0.5656 0.6653 0.2906
H20 H 0.6516 0.6185 0.2684
C22 C 0.4048(3) 0.1846(6) 0.42098(15)
H21 H 0.3916 0.0893 0.4323
C23 C 0.4433(3) 0.4481(6) 0.43139(13)
H22 H 0.4550 0.5277 0.4502
C24 C 0.4236(3) 0.3020(7) 0.44707(14)
H23 H 0.4237 0.2860 0.4766
C25 C 0.4877(4) 0.7326(6) 0.39507(16)
H24 H 0.4996 0.8197 0.3774
H25 H 0.4415 0.7560 0.4143
H26 H 0.5377 0.7069 0.4114
O7 O 0.66752(15) 0.0109(2) 0.47383(7)
O8 O 0.6560(2) 0.4097(3) 0.40727(9)
O9 O 0.7101(2) -0.1238(3) 0.39865(8)
O10 O 0.89076(18) -0.0663(3) 0.58342(9)
O11 O 0.6365(2) 0.5344(3) 0.46816(10)
O12 O 0.95264(18) 0.1518(4) 0.56904(11)
C26 C 0.6678(2) 0.1378(4) 0.44957(10)
C27 C 0.6783(2) 0.1359(4) 0.40424(11)
C28 C 0.75037(19) 0.0300(3) 0.53743(10)
C29 C 0.6632(2) 0.0603(4) 0.51968(10)
C30 C 0.6537(2) 0.2666(4) 0.47226(11)
C31 C 0.6693(2) 0.2786(4) 0.38409(11)
C32 C 0.8040(2) 0.1353(4) 0.55239(10)
C33 C 0.6971(2) 0.0094(4) 0.37797(11)
C34 C 0.7628(2) -0.1392(4) 0.54353(11)
C35 C 0.7015(3) 0.0274(5) 0.33383(12)
H27 H 0.7122 -0.0564 0.3164
C36 C 0.6481(3) 0.4105(4) 0.45181(12)
C37 C 0.6379(2) 0.2304(4) 0.51880(11)
H28 H 0.5765 0.2395 0.5248
C38 C 0.6747(3) 0.2956(5) 0.34006(13)
H29 H 0.6678 0.3908 0.3274
C39 C 0.7837(2) 0.3038(4) 0.55167(11)
H30 H 0.8070 0.3482 0.5252
C40 C 0.6902(3) 0.1701(6) 0.31561(13)
H31 H 0.6933 0.1803 0.2859
C41 C 0.6872(3) 0.3239(4) 0.55162(12)
H32 H 0.6747 0.4307 0.5467
H33 H 0.6660 0.2983 0.5800
C42 C 0.6086(2) -0.0574(4) 0.54367(11)
C43 C 0.6696(3) -0.1974(4) 0.54632(13)
H34 H 0.6608 -0.2512 0.5732
H35 H 0.6579 -0.2671 0.5228
C44 C 0.7378(4) -0.2518(5) 0.37465(16)
H36 H 0.7443 -0.3377 0.3935
H37 H 0.6962 -0.2752 0.3529
H38 H 0.7916 -0.2293 0.3613
C45 C 0.8873(3) 0.0785(4) 0.56865(13)
C46 C 0.8105(3) -0.2139(5) 0.50625(13)
H39 H 0.8167 -0.3210 0.5118
H40 H 0.7789 -0.1993 0.4801
H41 H 0.8661 -0.1684 0.5034
C47 C 0.5891(3) 0.0020(5) 0.58944(13)
H42 H 0.6417 0.0258 0.6038
H43 H 0.5544 0.0920 0.5876
H44 H 0.5591 -0.0751 0.6053
C48 C 0.8118(3) -0.1532(4) 0.58524(14)
H45 H 0.7768 -0.1162 0.6088
H46 H 0.8248 -0.2596 0.5906
C49 C 0.5251(3) -0.0952(6) 0.52089(16)
H47 H 0.4940 -0.1691 0.5374
H48 H 0.4914 -0.0043 0.5180
H49 H 0.5372 -0.1360 0.4929
C50 C 0.8215(3) 0.3874(5) 0.58998(16)
H50 H 0.8071 0.4936 0.5882
H51 H 0.7987 0.3454 0.6161
H52 H 0.8825 0.3760 0.5898
loop_
_geom_bond_atom_site_label_1
_geom_bond_atom_site_label_2
_geom_bond_site_symmetry_1
_geom_bond_site_symmetry_2
O1 C2 1_555 1_555
O2 C13 1_555 1_555
O3 C7 1_555 1_555
O4 C14 1_555 1_555
O5 C13 1_555 1_555
O6 C16 1_555 1_555
C1 C2 1_555 1_555
C2 C3 1_555 1_555
C3 C8 1_555 1_555
C4 O1 1_555 1_555
C5 C4 1_555 1_555
C6 C5 1_555 1_555
C7 C1 1_555 1_555
C8 C4 1_555 1_555
H1 C8 1_555 1_555
C9 C4 1_555 1_555
C10 C6 1_555 1_555
H2 C10 1_555 1_555
C11 C5 1_555 1_555
C12 C9 1_555 1_555
H3 C12 1_555 1_555
H4 C12 1_555 1_555
C13 C6 1_555 1_555
C14 C1 1_555 1_555
C15 C8 1_555 1_555
H5 C15 1_555 1_555
H6 C15 1_555 1_555
C16 O4 1_555 1_555
C17 C9 1_555 1_555
H7 C17 1_555 1_555
H8 C17 1_555 1_555
H9 C17 1_555 1_555
C18 C10 1_555 1_555
H10 C18 1_555 1_555
H11 C18 1_555 1_555
H12 C18 1_555 1_555
C19 C9 1_555 1_555
H13 C19 1_555 1_555
H14 C19 1_555 1_555
H15 C19 1_555 1_555
C20 O2 1_555 1_555
H16 C20 1_555 1_555
H17 C20 1_555 1_555
C21 C11 1_555 1_555
H18 C21 1_555 1_555
H19 C21 1_555 1_555
H20 C21 1_555 1_555
C22 C14 1_555 1_555
H21 C22 1_555 1_555
C23 C7 1_555 1_555
H22 C23 1_555 1_555
C24 C22 1_555 1_555
H23 C24 1_555 1_555
C25 O3 1_555 1_555
H24 C25 1_555 1_555
H25 C25 1_555 1_555
H26 C25 1_555 1_555
O7 C26 1_555 1_555
O8 C31 1_555 1_555
O9 C33 1_555 1_555
O10 C45 1_555 1_555
O11 C36 1_555 1_555
O12 C45 1_555 1_555
C26 C27 1_555 1_555
C27 C31 1_555 1_555
C28 C29 1_555 1_555
C29 O7 1_555 1_555
C30 C26 1_555 1_555
C31 C38 1_555 1_555
C32 C28 1_555 1_555
C33 C27 1_555 1_555
C34 C28 1_555 1_555
C35 C33 1_555 1_555
H27 C35 1_555 1_555
C36 O8 1_555 1_555
C37 C29 1_555 1_555
H28 C37 1_555 1_555
C38 H29 1_555 1_555
C39 C32 1_555 1_555
H30 C39 1_555 1_555
C40 C35 1_555 1_555
H31 C40 1_555 1_555
C41 C37 1_555 1_555
H32 C41 1_555 1_555
H33 C41 1_555 1_555
C42 C29 1_555 1_555
C43 C34 1_555 1_555
H34 C43 1_555 1_555
H35 C43 1_555 1_555
C44 O9 1_555 1_555
H36 C44 1_555 1_555
H37 C44 1_555 1_555
H38 C44 1_555 1_555
C45 C32 1_555 1_555
C46 C34 1_555 1_555
H39 C46 1_555 1_555
H40 C46 1_555 1_555
H41 C46 1_555 1_555
C47 C42 1_555 1_555
H42 C47 1_555 1_555
H43 C47 1_555 1_555
H44 C47 1_555 1_555
C48 O10 1_555 1_555
H45 C48 1_555 1_555
H46 C48 1_555 1_555
C49 C42 1_555 1_555
H47 C49 1_555 1_555
H48 C49 1_555 1_555
H49 C49 1_555 1_555
C50 C39 1_555 1_555
H50 C50 1_555 1_555
H51 C50 1_555 1_555
H52 C50 1_555 1_555
C3 C16 1_555 1_555
C10 C15 1_555 1_555
C11 C12 1_555 1_555
C11 C20 1_555 1_555
C23 C24 1_555 1_555
C30 C36 1_555 1_555
C30 C37 1_555 1_555
C34 C48 1_555 1_555
C38 C40 1_555 1_555
C39 C41 1_555 1_555
C42 C43 1_555 1_555

#END
