
#######################################################################
#
#                 Cambridge Crystallographic Data Centre
#                                CCDC 
#
#######################################################################
#
# If this CIF has been generated from an entry in the Cambridge 
# Structural Database, then it will include bibliographic, chemical, 
# crystal, experimental, refinement or atomic coordinate data resulting 
# from the CCDC's data processing and validation procedures.
#
#######################################################################

data_OYAWIW
_chemical_formula_moiety         'C42 H58 B20'
_chemical_name_systematic        
4,4''-bis(2-(4-n-butylphenyl)-1,2-dicarba-closo-dodecaboran-1-yl)-1,1':4',1''-terphenyl
_symmetry_cell_setting           triclinic
_symmetry_space_group_name_H-M   'P -1'
_symmetry_Int_Tables_number      2
_space_group_name_Hall           '-P 1'
loop_
_symmetry_equiv_pos_site_id
_symmetry_equiv_pos_as_xyz
1 x,y,z
2 -x,-y,-z
_cell_length_a                   8.8120(14)
_cell_length_b                   8.8274(15)
_cell_length_c                   16.566(2)
_cell_angle_alpha                92.668(10)
_cell_angle_beta                 97.662(10)
_cell_angle_gamma                112.396(9)
_cell_volume                     1174.1
_exptl_crystal_colour            colorless
_exptl_crystal_description       Cubic
_cell_formula_units_Z            1
loop_
_atom_site_label
_atom_site_type_symbol
_atom_site_fract_x
_atom_site_fract_y
_atom_site_fract_z
C1 C 0.6904(4) 0.5738(4) 0.16540(16)
C2 C 0.7343(4) 0.6060(4) 0.27137(17)
C3 C 0.8407(4) 0.5281(4) 0.31636(17)
C4 C 0.7766(5) 0.3653(5) 0.3319(2)
C5 C 0.8774(7) 0.2980(6) 0.3748(3)
C6 C 1.0432(6) 0.3892(6) 0.4049(2)
C7 C 1.1064(5) 0.5510(6) 0.3887(3)
C8 C 1.0086(5) 0.6201(5) 0.3452(2)
C9 C 0.7555(3) 0.4611(4) 0.12428(16)
C10 C 0.9244(4) 0.5065(4) 0.1215(2)
C11 C 0.9825(4) 0.3977(4) 0.0885(2)
C12 C 0.8767(4) 0.2393(4) 0.05713(17)
C13 C 0.7072(4) 0.1967(4) 0.0568(2)
C14 C 0.6481(4) 0.3048(4) 0.08995(19)
C15 C 0.9414(4) 0.1187(4) 0.02653(18)
C16 C 1.0775(4) 0.1001(4) 0.07250(19)
C17 C 0.8656(4) 0.0166(4) -0.04610(18)
C18 C 1.1522(7) 0.3124(8) 0.4484(3)
H1 H 1.0913 0.2390 0.4853
H2 H 1.2489 0.3983 0.4811
C19 C 1.2090(7) 0.2170(7) 0.3900(5)
H3 H 1.2711 0.2896 0.3532
H4 H 1.1132 0.1298 0.3575
C20 C 1.3242(14) 0.1392(14) 0.4408(8)
H5 H 1.4283 0.2221 0.4694
H6 H 1.2673 0.0650 0.4784
C21 C 1.345(3) 0.051(2) 0.3671(13)
H7 H 1.4609 0.0918 0.3621
H8 H 1.2832 0.0703 0.3192
H9 H 1.3053 -0.0645 0.3724
H10 H 1.135(4) 0.168(4) 0.1260(19)
H11 H 0.772(4) 0.027(4) -0.0776(19)
H12 H 1.096(5) 0.435(5) 0.090(2)
H13 H 0.636(4) 0.089(5) 0.034(2)
H14 H 1.002(4) 0.607(4) 0.143(2)
H15 H 0.532(4) 0.276(4) 0.086(2)
H16 H 1.237(6) 0.628(5) 0.410(3)
H17 H 0.832(6) 0.188(6) 0.392(3)
H18 H 1.057(5) 0.735(5) 0.338(2)
H19 H 0.662(6) 0.297(5) 0.314(3)
B1 B 0.4958(5) 0.5708(6) 0.1327(2)
B2 B 0.6789(6) 0.7461(5) 0.1267(2)
B3 B 0.5088(7) 0.7711(7) 0.1643(3)
B4 B 0.4196(6) 0.6062(7) 0.2231(3)
B5 B 0.5349(5) 0.4809(6) 0.2233(2)
B6 B 0.8297(5) 0.7628(5) 0.2133(2)
B7 B 0.7160(7) 0.8900(6) 0.2132(3)
B8 B 0.5540(7) 0.8044(7) 0.2723(3)
B9 B 0.5703(5) 0.6253(6) 0.3093(2)
B10 B 0.7526(6) 0.7995(5) 0.3032(2)
H20 H 0.426(4) 0.476(4) 0.077(2)
H21 H 0.485(4) 0.339(4) 0.2238(19)
H22 H 0.286(5) 0.540(4) 0.225(2)
H23 H 0.426(5) 0.819(5) 0.129(2)
H24 H 0.715(4) 0.764(4) 0.069(2)
H25 H 0.964(4) 0.798(3) 0.2084(17)
H26 H 0.784(5) 1.023(6) 0.205(3)
H27 H 0.517(4) 0.896(4) 0.317(2)
H28 H 0.546(4) 0.581(4) 0.365(2)
H29 H 0.834(4) 0.861(4) 0.359(2)
C1A C 1.3096(4) -0.5738(4) -0.16540(16)
C2A C 1.2657(4) -0.6060(4) -0.27137(17)
C3A C 1.1593(4) -0.5281(4) -0.31636(17)
C4A C 1.2234(5) -0.3653(5) -0.3319(2)
C5A C 1.1226(7) -0.2980(6) -0.3748(3)
C6A C 0.9568(6) -0.3892(6) -0.4049(2)
C7A C 0.8936(5) -0.5510(6) -0.3887(3)
C8A C 0.9914(5) -0.6201(5) -0.3452(2)
C9A C 1.2445(3) -0.4611(4) -0.12428(16)
C10A C 1.0756(4) -0.5065(4) -0.1215(2)
C11A C 1.0175(4) -0.3977(4) -0.0885(2)
C12A C 1.1233(4) -0.2393(4) -0.05713(17)
C13A C 1.2928(4) -0.1967(4) -0.0568(2)
C14A C 1.3519(4) -0.3048(4) -0.08995(19)
C15A C 1.0586(4) -0.1187(4) -0.02653(18)
C16A C 0.9225(4) -0.1001(4) -0.07250(19)
C17A C 1.1344(4) -0.0166(4) 0.04610(18)
C18A C 0.8478(7) -0.3124(8) -0.4484(3)
H1A H 0.9087 -0.2390 -0.4853
H2A H 0.7511 -0.3983 -0.4811
C19A C 0.7910(7) -0.2170(7) -0.3900(5)
H3A H 0.7289 -0.2896 -0.3532
H4A H 0.8868 -0.1298 -0.3575
C20A C 0.6758(14) -0.1392(14) -0.4408(8)
H5A H 0.5717 -0.2221 -0.4694
H6A H 0.7327 -0.0650 -0.4784
C21A C 0.655(3) -0.051(2) -0.3671(13)
H7A H 0.5391 -0.0918 -0.3621
H8A H 0.7168 -0.0703 -0.3192
H9A H 0.6947 0.0645 -0.3724
H10A H 0.865(4) -0.168(4) -0.1260(19)
H11A H 1.228(4) -0.027(4) 0.0776(19)
H12A H 0.904(5) -0.435(5) -0.090(2)
H13A H 1.364(4) -0.089(5) -0.034(2)
H14A H 0.998(4) -0.607(4) -0.143(2)
H15A H 1.468(4) -0.276(4) -0.086(2)
H16A H 0.763(6) -0.628(5) -0.410(3)
H17A H 1.168(6) -0.188(6) -0.392(3)
H18A H 0.943(5) -0.735(5) -0.338(2)
H19A H 1.338(6) -0.297(5) -0.314(3)
B1A B 1.5042(5) -0.5708(6) -0.1327(2)
B2A B 1.3211(6) -0.7461(5) -0.1267(2)
B3A B 1.4912(7) -0.7711(7) -0.1643(3)
B4A B 1.5804(6) -0.6062(7) -0.2231(3)
B5A B 1.4651(5) -0.4809(6) -0.2233(2)
B6A B 1.1703(5) -0.7628(5) -0.2133(2)
B7A B 1.2840(7) -0.8900(6) -0.2132(3)
B8A B 1.4460(7) -0.8044(7) -0.2723(3)
B9A B 1.4297(5) -0.6253(6) -0.3093(2)
B10A B 1.2474(6) -0.7995(5) -0.3032(2)
H20A H 1.574(4) -0.476(4) -0.077(2)
H21A H 1.515(4) -0.339(4) -0.2238(19)
H22A H 1.714(5) -0.540(4) -0.225(2)
H23A H 1.574(5) -0.819(5) -0.129(2)
H24A H 1.285(4) -0.764(4) -0.069(2)
H25A H 1.036(4) -0.798(3) -0.2084(17)
H26A H 1.216(5) -1.023(6) -0.205(3)
H27A H 1.483(4) -0.896(4) -0.317(2)
H28A H 1.454(4) -0.581(4) -0.365(2)
H29A H 1.166(4) -0.861(4) -0.359(2)
loop_
_geom_bond_atom_site_label_1
_geom_bond_atom_site_label_2
_geom_bond_site_symmetry_1
_geom_bond_site_symmetry_2
C1 C2 1_555 1_555
C2 C3 1_555 1_555
C3 C4 1_555 1_555
C4 C5 1_555 1_555
C5 C6 1_555 1_555
C6 C7 1_555 1_555
C7 C8 1_555 1_555
C8 C3 1_555 1_555
C9 C1 1_555 1_555
C10 C9 1_555 1_555
C11 C10 1_555 1_555
C12 C11 1_555 1_555
C13 C12 1_555 1_555
C14 C9 1_555 1_555
C15 C12 1_555 1_555
C16 C15 1_555 1_555
C17 C15 1_555 1_555
C18 C6 1_555 1_555
H1 C18 1_555 1_555
H2 C18 1_555 1_555
C19 C18 1_555 1_555
H3 C19 1_555 1_555
H4 C19 1_555 1_555
C20 C19 1_555 1_555
H5 C20 1_555 1_555
H6 C20 1_555 1_555
C21 C20 1_555 1_555
H7 C21 1_555 1_555
H8 C21 1_555 1_555
H9 C21 1_555 1_555
H10 C16 1_555 1_555
H11 C17 1_555 1_555
H12 C11 1_555 1_555
H13 C13 1_555 1_555
H14 C10 1_555 1_555
H15 C14 1_555 1_555
H16 C7 1_555 1_555
H17 C5 1_555 1_555
H18 C8 1_555 1_555
H19 C4 1_555 1_555
B1 C1 1_555 1_555
B2 C1 1_555 1_555
B3 B1 1_555 1_555
B4 B1 1_555 1_555
B5 C1 1_555 1_555
B6 C1 1_555 1_555
B7 B2 1_555 1_555
B8 B3 1_555 1_555
B9 C2 1_555 1_555
B10 C2 1_555 1_555
H20 B1 1_555 1_555
H21 B5 1_555 1_555
H22 B4 1_555 1_555
H23 B3 1_555 1_555
H24 B2 1_555 1_555
H25 B6 1_555 1_555
H26 B7 1_555 1_555
H27 B8 1_555 1_555
H28 B9 1_555 1_555
H29 B10 1_555 1_555
C1A C2A 1_555 1_555
C2A C3A 1_555 1_555
C3A C4A 1_555 1_555
C4A C5A 1_555 1_555
C5A C6A 1_555 1_555
C6A C7A 1_555 1_555
C7A C8A 1_555 1_555
C8A C3A 1_555 1_555
C9A C1A 1_555 1_555
C10A C9A 1_555 1_555
C11A C10A 1_555 1_555
C12A C11A 1_555 1_555
C13A C12A 1_555 1_555
C14A C9A 1_555 1_555
C15A C12A 1_555 1_555
C16A C17 1_555 1_555
C17A C16 1_555 1_555
C18A C6A 1_555 1_555
H1A C18A 1_555 1_555
H2A C18A 1_555 1_555
C19A C18A 1_555 1_555
H3A C19A 1_555 1_555
H4A C19A 1_555 1_555
C20A C19A 1_555 1_555
H5A C20A 1_555 1_555
H6A C20A 1_555 1_555
C21A C20A 1_555 1_555
H7A C21A 1_555 1_555
H8A C21A 1_555 1_555
H9A C21A 1_555 1_555
H10A C16A 1_555 1_555
H11A C17A 1_555 1_555
H12A C11A 1_555 1_555
H13A C13A 1_555 1_555
H14A C10A 1_555 1_555
H15A C14A 1_555 1_555
H16A C7A 1_555 1_555
H17A C5A 1_555 1_555
H18A C8A 1_555 1_555
H19A C4A 1_555 1_555
B1A C1A 1_555 1_555
B2A C1A 1_555 1_555
B3A B1A 1_555 1_555
B4A B1A 1_555 1_555
B5A C1A 1_555 1_555
B6A C1A 1_555 1_555
B7A B2A 1_555 1_555
B8A B3A 1_555 1_555
B9A C2A 1_555 1_555
B10A C2A 1_555 1_555
H20A B1A 1_555 1_555
H21A B5A 1_555 1_555
H22A B4A 1_555 1_555
H23A B3A 1_555 1_555
H24A B2A 1_555 1_555
H25A B6A 1_555 1_555
H26A B7A 1_555 1_555
H27A B8A 1_555 1_555
H28A B9A 1_555 1_555
H29A B10A 1_555 1_555
C2 B5 1_555 1_555
C2 B6 1_555 1_555
C13 C14 1_555 1_555
B1 B2 1_555 1_555
B1 B5 1_555 1_555
B2 B3 1_555 1_555
B2 B6 1_555 1_555
B3 B4 1_555 1_555
B3 B7 1_555 1_555
B4 B5 1_555 1_555
B4 B8 1_555 1_555
B4 B9 1_555 1_555
B5 B9 1_555 1_555
B6 B7 1_555 1_555
B6 B10 1_555 1_555
B7 B8 1_555 1_555
B7 B10 1_555 1_555
B8 B9 1_555 1_555
B8 B10 1_555 1_555
B9 B10 1_555 1_555
C2A B5A 1_555 1_555
C2A B6A 1_555 1_555
C13A C14A 1_555 1_555
C15A C16A 1_555 1_555
C15A C17A 1_555 1_555
B1A B2A 1_555 1_555
B1A B5A 1_555 1_555
B2A B3A 1_555 1_555
B2A B6A 1_555 1_555
B3A B4A 1_555 1_555
B3A B7A 1_555 1_555
B4A B5A 1_555 1_555
B4A B8A 1_555 1_555
B4A B9A 1_555 1_555
B5A B9A 1_555 1_555
B6A B7A 1_555 1_555
B6A B10A 1_555 1_555
B7A B8A 1_555 1_555
B7A B10A 1_555 1_555
B8A B9A 1_555 1_555
B8A B10A 1_555 1_555
B9A B10A 1_555 1_555

#END
