
#######################################################################
#
#                 Cambridge Crystallographic Data Centre
#                                CCDC 
#
#######################################################################
#
# If this CIF has been generated from an entry in the Cambridge 
# Structural Database, then it will include bibliographic, chemical, 
# crystal, experimental, refinement or atomic coordinate data resulting 
# from the CCDC's data processing and validation procedures.
#
#######################################################################

data_OYAXET
_chemical_formula_moiety         'C31 H37 N5 O3'
_chemical_name_systematic        
3-(3',6'-bis(diethylamino)-3-oxospiro[isoindole-1,9'-xanthen]-2(3H)-yl)-1,1-dimethylurea
_symmetry_cell_setting           orthorhombic
_symmetry_space_group_name_H-M   'P 21 21 21'
_symmetry_Int_Tables_number      19
_space_group_name_Hall           'P 2ac 2ab'
loop_
_symmetry_equiv_pos_site_id
_symmetry_equiv_pos_as_xyz
1 x,y,z
2 1/2-x,-y,1/2+z
3 1/2+x,1/2-y,-z
4 -x,1/2+y,1/2-z
_cell_length_a                   14.359(2)
_cell_length_b                   20.330(3)
_cell_length_c                   22.138(3)
_cell_angle_alpha                90
_cell_angle_beta                 90
_cell_angle_gamma                90
_cell_volume                     6462.49
_cell_formula_units_Z            8
loop_
_atom_site_label
_atom_site_type_symbol
_atom_site_fract_x
_atom_site_fract_y
_atom_site_fract_z
O1 O 0.6713(3) 0.4068(3) 0.6991(2)
N1 N 0.9375(4) 0.3102(3) 0.7241(2)
O2 O 1.1086(3) 0.3552(3) 0.6752(2)
N2 N 0.9501(3) 0.3629(2) 0.6857(2)
O3 O 0.9537(4) 0.2403(2) 0.6429(2)
C1 C 0.8709(4) 0.4082(3) 0.6694(3)
C2 C 1.0183(4) 0.4419(3) 0.6281(3)
C3 C 0.7338(4) 0.4372(3) 0.7367(3)
C4 C 0.8292(4) 0.4396(3) 0.7252(3)
N3 N 0.7089(5) 0.5339(3) 0.8748(3)
C5 C 0.7970(4) 0.3730(3) 0.6337(3)
C6 C 0.8455(5) 0.5029(3) 0.8160(3)
H1 H 0.8850 0.5252 0.8422
C7 C 0.8211(5) 0.3388(3) 0.5796(3)
H2 H 0.8833 0.3355 0.5682
C8 C 0.9472(4) 0.2478(3) 0.6991(3)
N4 N 0.9493(5) 0.1977(3) 0.7378(3)
C9 C 0.7037(5) 0.3759(3) 0.6471(3)
C10 C 0.9245(4) 0.4580(3) 0.6320(3)
C11 C 0.8822(5) 0.4725(3) 0.7681(3)
H3 H 0.9465 0.4734 0.7632
C12 C 1.0346(4) 0.3807(3) 0.6650(3)
C13 C 0.7471(5) 0.5025(3) 0.8287(3)
C14 C 0.6937(5) 0.4686(3) 0.7857(3)
H4 H 0.6294 0.4671 0.7903
C15 C 0.6352(5) 0.3473(4) 0.6130(3)
H5 H 0.5736 0.3493 0.6258
C16 C 0.6574(5) 0.3146(4) 0.5580(3)
C17 C 0.7534(5) 0.3107(4) 0.5441(4)
H6 H 0.7715 0.2881 0.5094
N5 N 0.5931(6) 0.2891(4) 0.5207(4)
C18 C 0.8900(5) 0.5122(4) 0.6006(3)
H7 H 0.8275 0.5241 0.6016
C19 C 1.0802(6) 0.4797(4) 0.5962(4)
H8 H 1.1432 0.4692 0.5953
C20 C 0.9586(7) 0.5484(5) 0.5665(4)
H9 H 0.9392 0.5843 0.5437
C21 C 0.9342(7) 0.2053(5) 0.8026(4)
H10 H 0.9374 0.1630 0.8218
H11 H 0.8739 0.2243 0.8095
H12 H 0.9813 0.2335 0.8191
C22 C 0.8000(9) 0.5285(6) 0.9717(5)
H13 H 0.8338 0.5559 0.9994
H14 H 0.8407 0.4950 0.9562
H15 H 0.7485 0.5084 0.9922
C23 C 1.0473(6) 0.5327(4) 0.5662(4)
H16 H 1.0888 0.5588 0.5446
C24 C 0.7650(6) 0.5690(5) 0.9212(4)
H17 H 0.8179 0.5893 0.9013
H18 H 0.7272 0.6042 0.9379
C25 C 0.6108(7) 0.5265(5) 0.8896(5)
H19 H 0.5891 0.4836 0.8767
H20 H 0.6023 0.5298 0.9330
C26 C 0.6174(7) 0.2500(5) 0.4679(5)
H21 H 0.6664 0.2729 0.4462
H22 H 0.5635 0.2483 0.4416
C27 C 0.9566(8) 0.1304(6) 0.7168(5)
H23 H 0.9557 0.1011 0.7508
H24 H 1.0139 0.1249 0.6950
H25 H 0.9051 0.1206 0.6906
C28 C 0.4885(9) 0.3029(7) 0.5297(6)
H26 H 0.4788 0.3441 0.5509
H27 H 0.4561 0.3045 0.4913
C29 C 0.6490(10) 0.1816(7) 0.4793(7)
H28 H 0.6625 0.1605 0.4415
H29 H 0.6008 0.1578 0.4998
H30 H 0.7041 0.1823 0.5038
C30 C 0.5581(13) 0.5765(10) 0.8601(8)
H31 H 0.4934 0.5715 0.8701
H32 H 0.5659 0.5727 0.8172
H33 H 0.5794 0.6189 0.8732
C31 C 0.4622(13) 0.2555(8) 0.5605(7)
H34 H 0.3970 0.2598 0.5689
H35 H 0.4964 0.2545 0.5977
H36 H 0.4730 0.2154 0.5386
O4 O 1.4630(3) 0.4103(3) 0.8049(2)
O5 O 1.0333(3) 0.3558(3) 0.8299(2)
O6 O 1.2045(4) 0.2464(2) 0.8640(2)
N6 N 1.1927(3) 0.3708(2) 0.8229(2)
N7 N 1.2099(4) 0.3184(3) 0.7835(2)
C32 C 1.3439(4) 0.3819(3) 0.8764(3)
N8 N 1.2089(5) 0.2051(3) 0.7695(3)
C33 C 1.2677(4) 0.4166(3) 0.8420(3)
C34 C 1.4351(5) 0.3818(3) 0.8570(3)
C35 C 1.3083(4) 0.4510(3) 0.7869(3)
C36 C 1.1049(4) 0.3861(3) 0.8421(3)
C37 C 1.3268(5) 0.3491(3) 0.9310(3)
H37 H 1.2657 0.3481 0.9449
C38 C 1.1158(4) 0.4441(3) 0.8810(3)
N9 N 1.5547(5) 0.2918(3) 0.9806(3)
C39 C 1.2062(5) 0.2548(3) 0.8084(3)
C40 C 1.2107(4) 0.4626(3) 0.8821(3)
C41 C 1.3919(5) 0.3190(4) 0.9648(3)
H38 H 1.3758 0.2973 1.0003
C42 C 1.4881(5) 0.3211(4) 0.9443(3)
C43 C 1.3995(5) 0.4472(4) 0.7726(3)
C44 C 1.0522(5) 0.4788(4) 0.9125(3)
H39 H 0.9900 0.4660 0.9125
C45 C 1.2542(6) 0.4918(4) 0.7506(4)
H40 H 1.1907 0.4939 0.7587
C46 C 1.2372(6) 0.5163(4) 0.9148(3)
H41 H 1.2996 0.5283 0.9163
C47 C 1.5049(5) 0.3523(4) 0.8904(3)
H42 H 1.5656 0.3537 0.8759
C48 C 1.0801(6) 0.5335(5) 0.9448(4)
H43 H 1.0365 0.5578 0.9664
N10 N 1.4180(6) 0.5512(4) 0.6371(4)
C49 C 1.4387(6) 0.4773(4) 0.7218(4)
H44 H 1.5004 0.4698 0.7112
C50 C 1.3820(6) 0.5194(5) 0.6873(4)
C51 C 1.1735(7) 0.5523(5) 0.9451(4)
H45 H 1.1919 0.5896 0.9662
C52 C 1.2875(6) 0.5288(4) 0.7042(4)
H46 H 1.2498 0.5591 0.6843
C53 C 1.2122(6) 0.2117(4) 0.7070(4)
H47 H 1.2147 0.1689 0.6887
H48 H 1.2666 0.2363 0.6959
H49 H 1.1575 0.2344 0.6933
C54 C 1.6510(7) 0.2858(5) 0.9602(5)
H50 H 1.6776 0.2461 0.9774
H51 H 1.6514 0.2809 0.9167
C55 C 1.5308(7) 0.2565(5) 1.0344(4)
H52 H 1.4847 0.2818 1.0564
H53 H 1.5858 0.2535 1.0596
C56 C 1.2086(8) 0.1398(5) 0.7923(5)
H54 H 1.2112 0.1093 0.7592
H55 H 1.1526 0.1326 0.8151
H56 H 1.2617 0.1335 0.8179
C57 C 1.3665(8) 0.6093(6) 0.6108(5)
H57 H 1.3310 0.6314 0.6421
H58 H 1.4102 0.6405 0.5937
C58 C 1.4936(8) 0.1890(6) 1.0250(5)
H59 H 1.4795 0.1694 1.0634
H60 H 1.5393 0.1627 1.0045
H61 H 1.4379 0.1911 1.0010
C59 C 1.5076(10) 0.5232(8) 0.6058(7)
H62 H 1.5020 0.5260 0.5622
H63 H 1.5172 0.4776 0.6169
C60 C 1.3047(10) 0.5849(7) 0.5645(6)
H64 H 1.2713 0.6210 0.5468
H65 H 1.2613 0.5545 0.5820
H66 H 1.3404 0.5631 0.5338
C61 C 1.7075(9) 0.3395(9) 0.9760(9)
H67 H 1.7694 0.3325 0.9610
H68 H 1.7092 0.3439 1.0191
H69 H 1.6825 0.3790 0.9585
C62 C 1.5917(19) 0.5677(14) 0.6291(12)
H70 H 1.6488 0.5525 0.6114
H71 H 1.5958 0.5647 0.6723
H72 H 1.5811 0.6126 0.6177
loop_
_geom_bond_atom_site_label_1
_geom_bond_atom_site_label_2
_geom_bond_site_symmetry_1
_geom_bond_site_symmetry_2
O1 C3 1_555 1_555
N1 N2 1_555 1_555
O2 C12 1_555 1_555
N2 C1 1_555 1_555
O3 C8 1_555 1_555
C1 C4 1_555 1_555
C2 C10 1_555 1_555
C3 C4 1_555 1_555
C4 C11 1_555 1_555
N3 C13 1_555 1_555
C5 C1 1_555 1_555
C6 H1 1_555 1_555
C7 C5 1_555 1_555
H2 C7 1_555 1_555
C8 N1 1_555 1_555
N4 C8 1_555 1_555
C9 O1 1_555 1_555
C10 C1 1_555 1_555
C11 C6 1_555 1_555
H3 C11 1_555 1_555
C12 N2 1_555 1_555
C13 C6 1_555 1_555
C14 C3 1_555 1_555
H4 C14 1_555 1_555
C15 C9 1_555 1_555
H5 C15 1_555 1_555
C16 C15 1_555 1_555
C17 C7 1_555 1_555
H6 C17 1_555 1_555
N5 C16 1_555 1_555
C18 C10 1_555 1_555
H7 C18 1_555 1_555
C19 C2 1_555 1_555
H8 C19 1_555 1_555
C20 C18 1_555 1_555
H9 C20 1_555 1_555
C21 N4 1_555 1_555
H10 C21 1_555 1_555
H11 C21 1_555 1_555
H12 C21 1_555 1_555
C22 H13 1_555 1_555
H14 C22 1_555 1_555
H15 C22 1_555 1_555
C23 C19 1_555 1_555
H16 C23 1_555 1_555
C24 N3 1_555 1_555
H17 C24 1_555 1_555
H18 C24 1_555 1_555
C25 N3 1_555 1_555
H19 C25 1_555 1_555
H20 C25 1_555 1_555
C26 N5 1_555 1_555
H21 C26 1_555 1_555
H22 C26 1_555 1_555
C27 N4 1_555 1_555
H23 C27 1_555 1_555
H24 C27 1_555 1_555
H25 C27 1_555 1_555
C28 N5 1_555 1_555
H26 C28 1_555 1_555
H27 C28 1_555 1_555
C29 C26 1_555 1_555
H28 C29 1_555 1_555
H29 C29 1_555 1_555
H30 C29 1_555 1_555
C30 C25 1_555 1_555
H31 C30 1_555 1_555
H32 C30 1_555 1_555
H33 C30 1_555 1_555
C31 C28 1_555 1_555
H34 C31 1_555 1_555
H35 C31 1_555 1_555
H36 C31 1_555 1_555
O4 C34 1_555 1_555
O5 C36 1_555 1_555
O6 C39 1_555 1_555
N6 N7 1_555 1_555
N7 C39 1_555 1_555
C32 C33 1_555 1_555
N8 C39 1_555 1_555
C33 N6 1_555 1_555
C34 C32 1_555 1_555
C35 C33 1_555 1_555
C36 N6 1_555 1_555
C37 C32 1_555 1_555
H37 C37 1_555 1_555
C38 C36 1_555 1_555
N9 C42 1_555 1_555
C40 C33 1_555 1_555
C41 C37 1_555 1_555
H38 C41 1_555 1_555
C42 C41 1_555 1_555
C43 O4 1_555 1_555
C44 C38 1_555 1_555
H39 C44 1_555 1_555
C45 C35 1_555 1_555
H40 C45 1_555 1_555
C46 C40 1_555 1_555
H41 C46 1_555 1_555
C47 C34 1_555 1_555
H42 C47 1_555 1_555
C48 C44 1_555 1_555
H43 C48 1_555 1_555
N10 C50 1_555 1_555
C49 C43 1_555 1_555
H44 C49 1_555 1_555
C50 C49 1_555 1_555
C51 C46 1_555 1_555
H45 C51 1_555 1_555
C52 C45 1_555 1_555
H46 C52 1_555 1_555
C53 N8 1_555 1_555
H47 C53 1_555 1_555
H48 C53 1_555 1_555
H49 C53 1_555 1_555
C54 N9 1_555 1_555
H50 C54 1_555 1_555
H51 C54 1_555 1_555
C55 N9 1_555 1_555
H52 C55 1_555 1_555
H53 C55 1_555 1_555
C56 N8 1_555 1_555
H54 C56 1_555 1_555
H55 C56 1_555 1_555
H56 C56 1_555 1_555
C57 N10 1_555 1_555
H57 C57 1_555 1_555
H58 C57 1_555 1_555
C58 C55 1_555 1_555
H59 C58 1_555 1_555
H60 C58 1_555 1_555
H61 C58 1_555 1_555
C59 N10 1_555 1_555
H62 C59 1_555 1_555
H63 C59 1_555 1_555
C60 C57 1_555 1_555
H64 C60 1_555 1_555
H65 C60 1_555 1_555
H66 C60 1_555 1_555
C61 C54 1_555 1_555
H67 C61 1_555 1_555
H68 C61 1_555 1_555
H69 C61 1_555 1_555
C62 C59 1_555 1_555
H70 C62 1_555 1_555
H71 C62 1_555 1_555
H72 C62 1_555 1_555
C2 C12 1_555 1_555
C5 C9 1_555 1_555
C13 C14 1_555 1_555
C16 C17 1_555 1_555
C20 C23 1_555 1_555
C22 C24 1_555 1_555
C35 C43 1_555 1_555
C38 C40 1_555 1_555
C42 C47 1_555 1_555
C48 C51 1_555 1_555
C50 C52 1_555 1_555

#END
