
#######################################################################
#
#                 Cambridge Crystallographic Data Centre
#                                CCDC 
#
#######################################################################
#
# If this CIF has been generated from an entry in the Cambridge 
# Structural Database, then it will include bibliographic, chemical, 
# crystal, experimental, refinement or atomic coordinate data resulting 
# from the CCDC's data processing and validation procedures.
#
#######################################################################

data_OYEBIF
_chemical_formula_moiety         'C19 H22 N2 O1'
_chemical_name_systematic        
N-(2,9-dimethyl-9H-carbazol-1-yl)-2,2-dimethylpropanamide
_symmetry_cell_setting           monoclinic
_symmetry_space_group_name_H-M   'P 21/c'
_symmetry_Int_Tables_number      14
_space_group_name_Hall           '-P 2ybc'
loop_
_symmetry_equiv_pos_site_id
_symmetry_equiv_pos_as_xyz
1 x,y,z
2 -x,1/2+y,1/2-z
3 -x,-y,-z
4 x,1/2-y,1/2+z
_cell_length_a                   13.832(3)
_cell_length_b                   10.231(2)
_cell_length_c                   12.367(3)
_cell_angle_alpha                90
_cell_angle_beta                 111.27(3)
_cell_angle_gamma                90
_cell_volume                     1630.9
_exptl_crystal_colour            colorless
_exptl_crystal_description       block
_cell_formula_units_Z            4
loop_
_atom_site_label
_atom_site_type_symbol
_atom_site_fract_x
_atom_site_fract_y
_atom_site_fract_z
C1 C 1.08562(16) 0.80733(19) 0.04713(18)
C2 C 1.14689(19) 0.7407(2) -0.0027(2)
H1 H 1.1177 0.6853 -0.0658
C3 C 1.2525(2) 0.7602(3) 0.0455(3)
H2 H 1.2952 0.7167 0.0140
C4 C 1.29709(19) 0.8428(3) 0.1393(3)
H3 H 1.3687 0.8538 0.1691
C5 C 1.23698(17) 0.9087(2) 0.1890(2)
H4 H 1.2672 0.9640 0.2520
C6 C 1.12977(15) 0.89063(19) 0.14279(18)
C7 C 1.04534(15) 0.94067(18) 0.17278(16)
C8 C 1.04028(18) 1.0274(2) 0.25704(18)
H5 H 1.1003 1.0660 0.3084
C9 C 0.94582(19) 1.0551(2) 0.26339(19)
H6 H 0.9425 1.1121 0.3206
C10 C 0.85406(17) 1.0005(2) 0.18655(18)
C11 C 0.85756(14) 0.91446(18) 0.10098(15)
C12 C 0.95372(14) 0.88439(17) 0.09408(15)
C13 C 0.7528(2) 1.0374(3) 0.1972(2)
H7 H 0.7062 1.0702 0.1242
H8 H 0.7646 1.1036 0.2556
H9 H 0.7227 0.9618 0.2188
C14 C 0.70618(15) 0.76880(19) 0.04070(17)
C15 C 0.60231(16) 0.7352(2) -0.05495(19)
C16 C 0.5790(3) 0.8124(6) -0.1648(3)
H10 H 0.5131 0.7857 -0.2203
H11 H 0.6322 0.7970 -0.1961
H12 H 0.5768 0.9038 -0.1484
C17 C 0.6062(3) 0.5912(4) -0.0832(5)
H13 H 0.5379 0.5619 -0.1304
H14 H 0.6306 0.5416 -0.0125
H15 H 0.6524 0.5790 -0.1245
C18 C 0.5193(3) 0.7533(5) -0.0068(4)
H16 H 0.5137 0.8443 0.0090
H17 H 0.5361 0.7042 0.0639
H18 H 0.4545 0.7230 -0.0619
C19 C 0.91038(19) 0.7241(2) -0.0749(2)
H19 H 0.9498 0.6792 -0.1133
H20 H 0.8594 0.7787 -0.1296
H21 H 0.8764 0.6614 -0.0431
H22 H 0.739(2) 0.902(3) -0.046(2)
N1 N 0.97924(12) 0.80409(15) 0.01778(13)
N2 N 0.76297(13) 0.86467(17) 0.01827(15)
O1 O 0.73598(13) 0.71087(17) 0.13297(15)
loop_
_geom_bond_atom_site_label_1
_geom_bond_atom_site_label_2
_geom_bond_site_symmetry_1
_geom_bond_site_symmetry_2
C1 C2 1_555 1_555
C2 H1 1_555 1_555
C3 C2 1_555 1_555
H2 C3 1_555 1_555
C4 C3 1_555 1_555
H3 C4 1_555 1_555
C5 C4 1_555 1_555
H4 C5 1_555 1_555
C6 C1 1_555 1_555
C7 C6 1_555 1_555
C8 C7 1_555 1_555
H5 C8 1_555 1_555
C9 C8 1_555 1_555
H6 C9 1_555 1_555
C10 C9 1_555 1_555
C11 C10 1_555 1_555
C12 C7 1_555 1_555
C13 C10 1_555 1_555
H7 C13 1_555 1_555
H8 C13 1_555 1_555
H9 C13 1_555 1_555
C14 C15 1_555 1_555
C15 C16 1_555 1_555
C16 H10 1_555 1_555
H11 C16 1_555 1_555
H12 C16 1_555 1_555
C17 C15 1_555 1_555
H13 C17 1_555 1_555
H14 C17 1_555 1_555
H15 C17 1_555 1_555
C18 C15 1_555 1_555
H16 C18 1_555 1_555
H17 C18 1_555 1_555
H18 C18 1_555 1_555
C19 H19 1_555 1_555
H20 C19 1_555 1_555
H21 C19 1_555 1_555
H22 N2 1_555 1_555
N1 C1 1_555 1_555
N2 C11 1_555 1_555
O1 C14 1_555 1_555
C5 C6 1_555 1_555
C11 C12 1_555 1_555
C12 N1 1_555 1_555
C14 N2 1_555 1_555
C19 N1 1_555 1_555

#END
