
#######################################################################
#
#                 Cambridge Crystallographic Data Centre
#                                CCDC 
#
#######################################################################
#
# If this CIF has been generated from an entry in the Cambridge 
# Structural Database, then it will include bibliographic, chemical, 
# crystal, experimental, refinement or atomic coordinate data resulting 
# from the CCDC's data processing and validation procedures.
#
#######################################################################

data_OYEDON
_chemical_compound_source        'club moss Phlegmariurus henryi'
_chemical_name_common            '1-epi-(17S)-hydroxymalycorin A'
_chemical_formula_moiety         'C19 H31 N1 O4'
_chemical_name_systematic        
9-(1,2-dihydroxypropyl)-4-hydroxy-2-methyldecahydro-5H,9H,12H-indeno[7a,1-h]indolizin-12-one
_symmetry_cell_setting           orthorhombic
_symmetry_space_group_name_H-M   'P 21 21 21'
_symmetry_Int_Tables_number      19
_space_group_name_Hall           'P 2ac 2ab'
loop_
_symmetry_equiv_pos_site_id
_symmetry_equiv_pos_as_xyz
1 x,y,z
2 1/2+x,1/2-y,-z
3 -x,1/2+y,1/2-z
4 1/2-x,-y,1/2+z
_cell_length_a                   9.2445(5)
_cell_length_b                   13.6708(7)
_cell_length_c                   14.3114(8)
_cell_angle_alpha                90
_cell_angle_beta                 90
_cell_angle_gamma                90
_cell_volume                     1808.67
_exptl_crystal_colour            colorless
_exptl_crystal_description       block
_chemical_melting_point          '242-245 deg.C'
_cell_formula_units_Z            4
loop_
_atom_site_label
_atom_site_type_symbol
_atom_site_fract_x
_atom_site_fract_y
_atom_site_fract_z
O1 O 0.20980(12) 0.73267(8) 0.94081(7)
H1 H 0.2217 0.7358 0.8827
O2 O -0.16957(12) 0.65495(8) 0.92581(8)
H2 H -0.2115 0.6858 0.9688
O3 O 0.00151(12) 0.91509(7) 0.80334(8)
O4 O 0.11730(13) 0.95995(8) 0.59815(8)
H3 H 0.1439 1.0156 0.5803
N1 N 0.13248(14) 0.70513(9) 0.76289(9)
C1 C 0.5815(2) 1.02729(14) 0.54903(13)
H4 H 0.6416 0.9739 0.5250
H5 H 0.6364 1.0647 0.5954
H6 H 0.5535 1.0704 0.4974
C2 C 0.44605(18) 0.98507(11) 0.59458(12)
H7 H 0.3900 1.0399 0.6234
C3 C 0.48649(18) 0.91220(11) 0.67145(11)
H8 H 0.5398 0.9473 0.7212
H9 H 0.5523 0.8623 0.6449
C4 C 0.35592(17) 0.86053(10) 0.71510(10)
H10 H 0.3937 0.8063 0.7551
C5 C 0.25138(17) 0.81432(11) 0.64208(11)
C6 C 0.11345(17) 0.79286(11) 0.70052(10)
C7 C -0.01607(17) 0.67943(10) 0.79686(11)
H11 H -0.0271 0.6070 0.7907
C8 C -0.03997(16) 0.70510(11) 0.90031(11)
H12 H -0.0544 0.7772 0.9070
C9 C 0.08704(17) 0.67241(11) 0.96103(11)
H13 H 0.1113 0.6030 0.9456
C10 C 0.05794(19) 0.68025(14) 1.06490(11)
H14 H 0.1448 0.6612 1.0996
H15 H -0.0222 0.6368 1.0818
H16 H 0.0324 0.7479 1.0805
C11 C 0.18967(19) 0.61829(11) 0.71224(11)
H17 H 0.1193 0.5983 0.6638
H18 H 0.2005 0.5633 0.7567
C12 C 0.3344(2) 0.63869(11) 0.66647(12)
H19 H 0.3691 0.5794 0.6337
H20 H 0.4066 0.6567 0.7146
C13 C 0.3166(2) 0.72219(11) 0.59704(11)
H21 H 0.2531 0.7005 0.5453
H22 H 0.4122 0.7386 0.5701
C14 C 0.25958(17) 0.92477(11) 0.77653(11)
H23 H 0.2915 0.9220 0.8425
H24 H 0.2625 0.9936 0.7552
C15 C 0.10852(17) 0.88318(11) 0.76633(10)
C16 C -0.03217(18) 0.77650(12) 0.65281(11)
H25 H -0.0217 0.7335 0.5975
H26 H -0.0755 0.8394 0.6330
C17 C -0.12464(19) 0.72716(13) 0.72867(12)
H27 H -0.1888 0.6771 0.7008
H28 H -0.1850 0.7761 0.7615
C18 C 0.3504(2) 0.93487(12) 0.52198(11)
H29 H 0.3211 0.9837 0.4745
H30 H 0.4078 0.8838 0.4899
C19 C 0.21482(18) 0.88797(11) 0.56321(11)
H31 H 0.1646 0.8514 0.5121
loop_
_geom_bond_atom_site_label_1
_geom_bond_atom_site_label_2
_geom_bond_site_symmetry_1
_geom_bond_site_symmetry_2
O1 H1 1_555 1_555
O2 H2 1_555 1_555
O3 C15 1_555 1_555
O4 H3 1_555 1_555
N1 C6 1_555 1_555
C1 H4 1_555 1_555
H5 C1 1_555 1_555
H6 C1 1_555 1_555
C2 C1 1_555 1_555
H7 C2 1_555 1_555
C3 C2 1_555 1_555
H8 C3 1_555 1_555
H9 C3 1_555 1_555
C4 C3 1_555 1_555
H10 C4 1_555 1_555
C5 C4 1_555 1_555
C6 C5 1_555 1_555
C7 N1 1_555 1_555
H11 C7 1_555 1_555
C8 O2 1_555 1_555
H12 C8 1_555 1_555
C9 O1 1_555 1_555
H13 C9 1_555 1_555
C10 C9 1_555 1_555
H14 C10 1_555 1_555
H15 C10 1_555 1_555
H16 C10 1_555 1_555
C11 N1 1_555 1_555
H17 C11 1_555 1_555
H18 C11 1_555 1_555
C12 C11 1_555 1_555
H19 C12 1_555 1_555
H20 C12 1_555 1_555
C13 C5 1_555 1_555
H21 C13 1_555 1_555
H22 C13 1_555 1_555
C14 C4 1_555 1_555
H23 C14 1_555 1_555
H24 C14 1_555 1_555
C15 C6 1_555 1_555
C16 C6 1_555 1_555
H25 C16 1_555 1_555
H26 C16 1_555 1_555
C17 C7 1_555 1_555
H27 C17 1_555 1_555
H28 C17 1_555 1_555
C18 C2 1_555 1_555
H29 C18 1_555 1_555
H30 C18 1_555 1_555
C19 O4 1_555 1_555
H31 C19 1_555 1_555
C5 C19 1_555 1_555
C7 C8 1_555 1_555
C8 C9 1_555 1_555
C12 C13 1_555 1_555
C14 C15 1_555 1_555
C16 C17 1_555 1_555
C18 C19 1_555 1_555

#END
