
#######################################################################
#
#                 Cambridge Crystallographic Data Centre
#                                CCDC 
#
#######################################################################
#
# If this CIF has been generated from an entry in the Cambridge 
# Structural Database, then it will include bibliographic, chemical, 
# crystal, experimental, refinement or atomic coordinate data resulting 
# from the CCDC's data processing and validation procedures.
#
#######################################################################

data_OYEGAC
_chemical_formula_moiety         'C30 H41 N3 O2'
_chemical_name_systematic        
'ethyl 16-(4-phenyl-1H-1,2,3-triazol-1-yl)beyeran-18-oate'
_chemical_properties_biological  'cytotoxic activity'
_symmetry_cell_setting           orthorhombic
_symmetry_space_group_name_H-M   'P 21 21 21'
_symmetry_Int_Tables_number      19
_space_group_name_Hall           'P 2ac 2ab'
loop_
_symmetry_equiv_pos_site_id
_symmetry_equiv_pos_as_xyz
1 x,y,z
2 1/2-x,-y,1/2+z
3 -x,1/2+y,1/2-z
4 1/2+x,1/2-y,-z
_cell_length_a                   11.773(2)
_cell_length_b                   12.369(3)
_cell_length_c                   18.790(4)
_cell_angle_alpha                90
_cell_angle_beta                 90
_cell_angle_gamma                90
_cell_volume                     2736.2
_cell_formula_units_Z            4
loop_
_atom_site_label
_atom_site_type_symbol
_atom_site_fract_x
_atom_site_fract_y
_atom_site_fract_z
O1 O 1.1422(2) 0.2796(2) 0.64054(15)
O2 O 0.9755(2) 0.2979(2) 0.58723(15)
N1 N 0.8306(3) 0.1578(3) 0.10550(15)
N2 N 0.9147(3) 0.1215(3) 0.14414(16)
N3 N 0.8769(2) 0.1123(2) 0.21174(13)
C1 C 0.6239(4) 0.2551(3) 0.05134(18)
H1 H 0.6876 0.2526 0.0221
C2 C 0.5236(4) 0.2966(3) 0.0253(2)
H2 H 0.5204 0.3221 -0.0213
C3 C 0.4284(4) 0.3006(3) 0.0674(3)
H3 H 0.3607 0.3279 0.0492
C4 C 0.4334(3) 0.2639(3) 0.1372(2)
H4 H 0.3695 0.2668 0.1662
C5 C 0.5352(3) 0.2227(3) 0.16322(19)
H5 H 0.5389 0.1987 0.2101
C6 C 0.6312(3) 0.2169(2) 0.12065(16)
C7 C 0.7380(3) 0.1729(2) 0.14824(16)
C8 C 0.7684(3) 0.1429(2) 0.21554(15)
H6 H 0.7227 0.1436 0.2559
C9 C 0.9559(3) 0.0723(2) 0.26592(17)
H7 H 1.0331 0.0927 0.2520
C10 C 0.9310(3) 0.1209(2) 0.34019(16)
H8 H 0.9919 0.1692 0.3543
H9 H 0.8606 0.1615 0.3393
C11 C 0.9218(2) 0.0254(2) 0.39309(16)
C12 C 0.8782(3) -0.0625(2) 0.34264(17)
H10 H 0.8858 -0.1335 0.3641
H11 H 0.7990 -0.0504 0.3308
C13 C 0.9522(3) -0.0529(3) 0.27716(18)
C14 C 1.0721(3) -0.0899(3) 0.2984(2)
H12 H 1.0694 -0.1658 0.3113
H13 H 1.1219 -0.0828 0.2575
C15 C 1.1223(3) -0.0260(3) 0.3605(2)
H14 H 1.1467 0.0442 0.3432
H15 H 1.1890 -0.0636 0.3779
C16 C 1.0396(3) -0.0092(2) 0.42268(17)
H16 H 1.0277 -0.0814 0.4429
C17 C 0.9102(4) -0.1160(3) 0.2122(2)
H17 H 0.9096 -0.1919 0.2229
H18 H 0.9599 -0.1028 0.1726
H19 H 0.8347 -0.0928 0.2003
C18 C 1.0880(2) 0.0607(2) 0.48550(16)
C19 C 0.9934(2) 0.0704(2) 0.54242(16)
H20 H 0.9734 -0.0047 0.5534
C20 C 0.8837(3) 0.1184(3) 0.51142(17)
H21 H 0.8990 0.1894 0.4917
H22 H 0.8274 0.1261 0.5487
C21 C 0.8389(2) 0.0440(3) 0.45351(16)
H23 H 0.8198 -0.0252 0.4746
H24 H 0.7696 0.0747 0.4343
C22 C 1.1321(3) 0.1725(3) 0.46179(18)
H25 H 1.1787 0.1644 0.4202
H26 H 1.1760 0.2041 0.4994
H27 H 1.0688 0.2186 0.4509
C23 C 1.1880(3) -0.0031(3) 0.5181(2)
H28 H 1.2501 -0.0048 0.4842
H29 H 1.1641 -0.0771 0.5264
C24 C 1.2311(3) 0.0449(4) 0.5884(2)
H30 H 1.2905 -0.0010 0.6076
H31 H 1.2636 0.1157 0.5795
C25 C 1.1357(3) 0.0550(3) 0.6424(2)
H32 H 1.1652 0.0899 0.6847
H33 H 1.1112 -0.0171 0.6558
C26 C 1.0320(3) 0.1187(3) 0.61612(17)
C27 C 0.9368(4) 0.1045(3) 0.67102(19)
H34 H 0.9655 0.1204 0.7177
H35 H 0.9098 0.0313 0.6697
H36 H 0.8755 0.1529 0.6600
C28 C 1.0587(3) 0.2394(3) 0.61559(16)
C29 C 0.9864(4) 0.4148(3) 0.5886(2)
H37 H 0.9458 0.4458 0.5486
H38 H 1.0658 0.4346 0.5844
C30 C 0.9392(5) 0.4584(4) 0.6568(3)
H39 H 0.8683 0.4235 0.6671
H40 H 0.9272 0.5349 0.6522
H41 H 0.9919 0.4450 0.6947
loop_
_geom_bond_atom_site_label_1
_geom_bond_atom_site_label_2
_geom_bond_site_symmetry_1
_geom_bond_site_symmetry_2
O1 C28 1_555 1_555
O2 C28 1_555 1_555
N1 N2 1_555 1_555
N2 N3 1_555 1_555
N3 C8 1_555 1_555
C1 H1 1_555 1_555
C2 C1 1_555 1_555
H2 C2 1_555 1_555
C3 C2 1_555 1_555
H3 C3 1_555 1_555
C4 C3 1_555 1_555
H4 C4 1_555 1_555
C5 C4 1_555 1_555
H5 C5 1_555 1_555
C6 C1 1_555 1_555
C7 N1 1_555 1_555
C8 C7 1_555 1_555
H6 C8 1_555 1_555
C9 N3 1_555 1_555
H7 C9 1_555 1_555
C10 C9 1_555 1_555
H8 C10 1_555 1_555
H9 C10 1_555 1_555
C11 C10 1_555 1_555
C12 C11 1_555 1_555
H10 C12 1_555 1_555
H11 C12 1_555 1_555
C13 C9 1_555 1_555
C14 C13 1_555 1_555
H12 C14 1_555 1_555
H13 C14 1_555 1_555
C15 C14 1_555 1_555
H14 C15 1_555 1_555
H15 C15 1_555 1_555
C16 C11 1_555 1_555
H16 C16 1_555 1_555
C17 C13 1_555 1_555
H17 C17 1_555 1_555
H18 C17 1_555 1_555
H19 C17 1_555 1_555
C18 C16 1_555 1_555
C19 C18 1_555 1_555
H20 C19 1_555 1_555
C20 C19 1_555 1_555
H21 C20 1_555 1_555
H22 C20 1_555 1_555
C21 C11 1_555 1_555
H23 C21 1_555 1_555
H24 C21 1_555 1_555
C22 C18 1_555 1_555
H25 C22 1_555 1_555
H26 C22 1_555 1_555
H27 C22 1_555 1_555
C23 C18 1_555 1_555
H28 C23 1_555 1_555
H29 C23 1_555 1_555
C24 C23 1_555 1_555
H30 C24 1_555 1_555
H31 C24 1_555 1_555
C25 C24 1_555 1_555
H32 C25 1_555 1_555
H33 C25 1_555 1_555
C26 C19 1_555 1_555
C27 C26 1_555 1_555
H34 C27 1_555 1_555
H35 C27 1_555 1_555
H36 C27 1_555 1_555
C28 C26 1_555 1_555
C29 O2 1_555 1_555
H37 C29 1_555 1_555
H38 C29 1_555 1_555
C30 C29 1_555 1_555
H39 C30 1_555 1_555
H40 C30 1_555 1_555
H41 C30 1_555 1_555
C5 C6 1_555 1_555
C6 C7 1_555 1_555
C12 C13 1_555 1_555
C15 C16 1_555 1_555
C20 C21 1_555 1_555
C25 C26 1_555 1_555

#END
