
#######################################################################
#
#                 Cambridge Crystallographic Data Centre
#                                CCDC 
#
#######################################################################
#
# If this CIF has been generated from an entry in the Cambridge 
# Structural Database, then it will include bibliographic, chemical, 
# crystal, experimental, refinement or atomic coordinate data resulting 
# from the CCDC's data processing and validation procedures.
#
#######################################################################

data_OYEGEG
_chemical_formula_moiety         'C17 H23 N1 O4 S1'
_chemical_name_systematic        
'2-((methyl((4-methylphenyl)sulfonyl)amino)methyl)cyclohex-2-en-1-yl acetate'
_symmetry_cell_setting           monoclinic
_symmetry_space_group_name_H-M   'P 21/n'
_symmetry_Int_Tables_number      14
_space_group_name_Hall           '-P 2yn'
loop_
_symmetry_equiv_pos_site_id
_symmetry_equiv_pos_as_xyz
1 x,y,z
2 1/2-x,1/2+y,1/2-z
3 -x,-y,-z
4 1/2+x,1/2-y,1/2+z
_cell_length_a                   10.3537(5)
_cell_length_b                   13.8370(9)
_cell_length_c                   12.5681(6)
_cell_angle_alpha                90
_cell_angle_beta                 99.776(5)
_cell_angle_gamma                90
_cell_volume                     1774.41
_exptl_crystal_colour            colorless
_exptl_crystal_description       Block
_cell_formula_units_Z            4
loop_
_atom_site_label
_atom_site_type_symbol
_atom_site_fract_x
_atom_site_fract_y
_atom_site_fract_z
S1 S 0.63166(7) 0.40548(5) 0.21300(5)
O1 O 0.78454(16) 0.42559(14) 0.54945(15)
O2 O 0.49796(18) 0.41143(15) 0.16130(15)
O3 O 0.6729(2) 0.32690(14) 0.28404(15)
N1 N 0.6639(2) 0.50455(15) 0.28160(15)
O4 O 0.5949(2) 0.35883(17) 0.5692(2)
C1 C 0.7307(2) 0.40409(17) 0.11177(18)
C2 C 0.6979(2) 0.46048(19) 0.02022(19)
H1 H 0.6245 0.5003 0.0122
C3 C 0.7992(2) 0.56599(18) 0.44762(18)
C4 C 0.7206(2) 0.51954(19) 0.52288(19)
H2 H 0.6312 0.5087 0.4847
C5 C 0.8408(3) 0.34622(19) 0.1239(2)
H3 H 0.8642 0.3094 0.1861
C6 C 0.8847(3) 0.3980(2) -0.0497(2)
C7 C 0.7752(3) 0.4570(2) -0.05899(19)
H4 H 0.7533 0.4953 -0.1202
C8 C 0.7979(2) 0.5156(2) 0.34170(19)
H5 H 0.8498 0.5523 0.2985
H6 H 0.8378 0.4523 0.3547
C9 C 0.8702(3) 0.6442(2) 0.4739(2)
H7 H 0.9113 0.6720 0.4212
C10 C 0.9160(3) 0.3434(2) 0.0431(2)
H8 H 0.9896 0.3038 0.0514
C11 C 0.7082(3) 0.3510(2) 0.5652(2)
C12 C 0.8890(3) 0.6912(2) 0.5822(2)
H9 H 0.8387 0.7506 0.5780
H10 H 0.9808 0.7074 0.6045
C13 C 0.7155(3) 0.5802(3) 0.6225(2)
H11 H 0.6509 0.6310 0.6047
H12 H 0.6885 0.5400 0.6780
C14 C 0.6030(3) 0.5940(2) 0.2366(2)
H13 H 0.6583 0.6243 0.1924
H14 H 0.5912 0.6369 0.2943
H15 H 0.5194 0.5798 0.1936
C15 C 0.8454(3) 0.6243(3) 0.6649(2)
H16 H 0.9100 0.5736 0.6834
H17 H 0.8397 0.6605 0.7300
C16 C 0.9672(3) 0.3937(3) -0.1376(2)
H18 H 0.9129 0.4052 -0.2063
H19 H 1.0069 0.3310 -0.1378
H20 H 1.0344 0.4421 -0.1247
C17 C 0.7835(3) 0.2582(2) 0.5744(3)
H21 H 0.8085 0.2432 0.5061
H22 H 0.7296 0.2072 0.5945
H23 H 0.8605 0.2648 0.6283
loop_
_geom_bond_atom_site_label_1
_geom_bond_atom_site_label_2
_geom_bond_site_symmetry_1
_geom_bond_site_symmetry_2
S1 O2 1_555 1_555
O1 C4 1_555 1_555
O3 S1 1_555 1_555
N1 S1 1_555 1_555
O4 C11 1_555 1_555
C1 S1 1_555 1_555
C2 C1 1_555 1_555
H1 C2 1_555 1_555
C3 C4 1_555 1_555
C4 H2 1_555 1_555
C5 C1 1_555 1_555
H3 C5 1_555 1_555
C6 C7 1_555 1_555
C7 C2 1_555 1_555
H4 C7 1_555 1_555
C8 N1 1_555 1_555
H5 C8 1_555 1_555
H6 C8 1_555 1_555
C9 C3 1_555 1_555
H7 C9 1_555 1_555
C10 C5 1_555 1_555
H8 C10 1_555 1_555
C11 O1 1_555 1_555
C12 C9 1_555 1_555
H9 C12 1_555 1_555
H10 C12 1_555 1_555
C13 C4 1_555 1_555
H11 C13 1_555 1_555
H12 C13 1_555 1_555
C14 N1 1_555 1_555
H13 C14 1_555 1_555
H14 C14 1_555 1_555
H15 C14 1_555 1_555
C15 C12 1_555 1_555
H16 C15 1_555 1_555
H17 C15 1_555 1_555
C16 C6 1_555 1_555
H18 C16 1_555 1_555
H19 C16 1_555 1_555
H20 C16 1_555 1_555
C17 C11 1_555 1_555
H21 C17 1_555 1_555
H22 C17 1_555 1_555
H23 C17 1_555 1_555
C3 C8 1_555 1_555
C6 C10 1_555 1_555
C13 C15 1_555 1_555

#END
