
#######################################################################
#
#                 Cambridge Crystallographic Data Centre
#                                CCDC 
#
#######################################################################
#
# If this CIF has been generated from an entry in the Cambridge 
# Structural Database, then it will include bibliographic, chemical, 
# crystal, experimental, refinement or atomic coordinate data resulting 
# from the CCDC's data processing and validation procedures.
#
#######################################################################

data_OYEHUX
_chemical_formula_moiety         'C23 H30 N2 O7'
_chemical_name_systematic        
'4-ethyl 1,4-diisopropyl 5-benzylidene-3-ethoxy-1H-pyrazole-1,4,4(5H)-tricarboxylate'
_symmetry_cell_setting           monoclinic
_symmetry_space_group_name_H-M   'P 21/n'
_symmetry_Int_Tables_number      14
_space_group_name_Hall           '-P 2yn'
loop_
_symmetry_equiv_pos_site_id
_symmetry_equiv_pos_as_xyz
1 x,y,z
2 1/2-x,1/2+y,1/2-z
3 -x,-y,-z
4 1/2+x,1/2-y,1/2+z
_cell_length_a                   9.0774(18)
_cell_length_b                   15.150(3)
_cell_length_c                   16.882(3)
_cell_angle_alpha                90
_cell_angle_beta                 93.62(3)
_cell_angle_gamma                90
_cell_volume                     2317.02
_exptl_crystal_colour            colorless
_exptl_crystal_description       block
_cell_formula_units_Z            4
loop_
_atom_site_label
_atom_site_type_symbol
_atom_site_fract_x
_atom_site_fract_y
_atom_site_fract_z
O1 O 0.3092(2) 0.91205(15) 0.27867(11)
O2 O 0.5045(2) 0.88112(13) 0.20410(10)
O3 O 0.8210(2) 0.72417(14) 0.39894(12)
O4 O 0.3534(3) 0.65143(16) 0.42991(16)
O5 O 0.5674(3) 0.59941(14) 0.39112(15)
O6 O 0.6226(3) 0.68183(15) 0.56501(13)
O7 O 0.6899(2) 0.82266(14) 0.54387(12)
N1 N 0.5145(3) 0.84367(16) 0.33262(13)
N2 N 0.6593(3) 0.81217(15) 0.32236(13)
C1 C 0.6906(3) 0.76204(18) 0.38161(16)
C2 C 0.5655(3) 0.74826(17) 0.43738(15)
C3 C 0.4707(3) 0.82700(17) 0.41138(15)
C4 C 0.3813(3) 0.87921(18) 0.45011(16)
H1 H 0.3401 0.9274 0.4203
C5 C 0.3373(3) 0.87298(17) 0.53263(15)
C6 C 0.3014(3) 0.79354(18) 0.56927(16)
H2 H 0.3040 0.7397 0.5405
C7 C 0.2619(3) 0.79319(19) 0.64768(16)
H3 H 0.2365 0.7391 0.6718
C8 C 0.2593(3) 0.87078(19) 0.69077(16)
H4 H 0.2348 0.8699 0.7446
C9 C 0.2929(3) 0.95004(19) 0.65461(16)
H5 H 0.2914 1.0036 0.6838
C10 C 0.3286(3) 0.95106(18) 0.57607(16)
H6 H 0.3476 1.0058 0.5513
C11 C 0.4313(3) 0.88206(18) 0.27140(15)
C12 C 0.4259(3) 0.9240(2) 0.13560(15)
H7 H 0.3182 0.9100 0.1354
C13 C 0.4894(4) 0.8839(2) 0.06271(17)
H8 H 0.5943 0.8991 0.0621
H9 H 0.4364 0.9071 0.0148
H10 H 0.4787 0.8195 0.0642
C14 C 0.4479(4) 1.0222(2) 0.14164(18)
H11 H 0.4126 1.0434 0.1919
H12 H 0.3922 1.0513 0.0974
H13 H 0.5530 1.0360 0.1395
C15 C 0.9459(3) 0.7570(2) 0.3557(2)
H14 H 0.9148 0.7633 0.2987
H15 H 1.0277 0.7137 0.3604
C16 C 0.9986(4) 0.8433(3) 0.3875(2)
H16 H 0.9186 0.8867 0.3813
H17 H 1.0825 0.8633 0.3584
H18 H 1.0294 0.8371 0.4439
C17 C 0.4819(3) 0.66075(19) 0.41982(16)
C18 C 0.4932(5) 0.5135(2) 0.3721(3)
H19 H 0.4627 0.4862 0.4218
H20 H 0.4031 0.5243 0.3373
C19 C 0.5854(6) 0.4553(3) 0.3344(4)
H21 H 0.6188 0.4830 0.2862
H22 H 0.5310 0.4011 0.3202
H23 H 0.6711 0.4409 0.3703
C20 C 0.6266(3) 0.74634(19) 0.52398(16)
C21 C 0.7727(4) 0.8250(3) 0.6220(2)
H24 H 0.8293 0.7688 0.6303
C22 C 0.6697(6) 0.8341(4) 0.6835(3)
H25 H 0.6183 0.8908 0.6774
H26 H 0.7234 0.8316 0.7357
H27 H 0.5975 0.7860 0.6790
C23 C 0.8779(5) 0.9000(3) 0.6180(3)
H28 H 0.9408 0.8908 0.5736
H29 H 0.9396 0.9033 0.6676
H30 H 0.8227 0.9552 0.6100
loop_
_geom_bond_atom_site_label_1
_geom_bond_atom_site_label_2
_geom_bond_site_symmetry_1
_geom_bond_site_symmetry_2
O1 C11 1_555 1_555
O2 C11 1_555 1_555
O3 C1 1_555 1_555
O4 C17 1_555 1_555
O5 C17 1_555 1_555
O6 C20 1_555 1_555
O7 C20 1_555 1_555
N1 N2 1_555 1_555
N2 C1 1_555 1_555
C1 C2 1_555 1_555
C2 C3 1_555 1_555
C3 N1 1_555 1_555
C4 C3 1_555 1_555
H1 C4 1_555 1_555
C5 C4 1_555 1_555
C6 C5 1_555 1_555
H2 C6 1_555 1_555
C7 C6 1_555 1_555
H3 C7 1_555 1_555
C8 C7 1_555 1_555
H4 C8 1_555 1_555
C9 C8 1_555 1_555
H5 C9 1_555 1_555
C10 C5 1_555 1_555
H6 C10 1_555 1_555
C11 N1 1_555 1_555
C12 O2 1_555 1_555
H7 C12 1_555 1_555
C13 C12 1_555 1_555
H8 C13 1_555 1_555
H9 C13 1_555 1_555
H10 C13 1_555 1_555
C14 C12 1_555 1_555
H11 C14 1_555 1_555
H12 C14 1_555 1_555
H13 C14 1_555 1_555
C15 O3 1_555 1_555
H14 C15 1_555 1_555
H15 C15 1_555 1_555
C16 C15 1_555 1_555
H16 C16 1_555 1_555
H17 C16 1_555 1_555
H18 C16 1_555 1_555
C17 C2 1_555 1_555
C18 O5 1_555 1_555
H19 C18 1_555 1_555
H20 C18 1_555 1_555
C19 C18 1_555 1_555
H21 C19 1_555 1_555
H22 C19 1_555 1_555
H23 C19 1_555 1_555
C20 C2 1_555 1_555
C21 O7 1_555 1_555
H24 C21 1_555 1_555
C22 C21 1_555 1_555
H25 C22 1_555 1_555
H26 C22 1_555 1_555
H27 C22 1_555 1_555
C23 C21 1_555 1_555
H28 C23 1_555 1_555
H29 C23 1_555 1_555
H30 C23 1_555 1_555
C9 C10 1_555 1_555

#END
