
#######################################################################
#
#                 Cambridge Crystallographic Data Centre
#                                CCDC 
#
#######################################################################
#
# If this CIF has been generated from an entry in the Cambridge 
# Structural Database, then it will include bibliographic, chemical, 
# crystal, experimental, refinement or atomic coordinate data resulting 
# from the CCDC's data processing and validation procedures.
#
#######################################################################

data_OYEKUA
_chemical_formula_moiety         'C19 H15 Br1 O4'
_chemical_name_systematic        
'methyl (3R,4S)-4-(3-bromophenyl)-2-oxo-3-phenyl-3,4-dihydro-2H-pyran-6-carboxylate'
_symmetry_cell_setting           orthorhombic
_symmetry_space_group_name_H-M   'P 21 21 21'
_symmetry_Int_Tables_number      19
_space_group_name_Hall           'P 2ac 2ab'
loop_
_symmetry_equiv_pos_site_id
_symmetry_equiv_pos_as_xyz
1 x,y,z
2 1/2+x,1/2-y,-z
3 -x,1/2+y,1/2-z
4 1/2-x,-y,1/2+z
_cell_length_a                   6.8600(10)
_cell_length_b                   10.8272(16)
_cell_length_c                   22.448(3)
_cell_angle_alpha                90
_cell_angle_beta                 90
_cell_angle_gamma                90
_cell_volume                     1667.32
_exptl_crystal_colour            colorless
_exptl_crystal_description       needle
_cell_formula_units_Z            4
loop_
_atom_site_label
_atom_site_type_symbol
_atom_site_fract_x
_atom_site_fract_y
_atom_site_fract_z
Br1 Br 0.49942(3) 0.843363(16) 0.837998(9)
O1 O 0.1488(2) 0.34627(15) 1.12489(6)
O2 O -0.1883(2) 0.38906(13) 1.00730(6)
O3 O -0.1773(2) 0.32213(14) 1.11949(7)
O4 O -0.3717(2) 0.41875(13) 0.92896(6)
C1 C 0.1362(3) 0.31262(19) 1.18744(9)
H1 H 0.0498 0.3706 1.2081
H2 H 0.2663 0.3159 1.2054
H3 H 0.0839 0.2287 1.1910
C2 C -0.0233(3) 0.34696(16) 1.09678(8)
C3 C -0.0029(3) 0.38470(14) 1.03299(7)
C4 C -0.2091(3) 0.40492(17) 0.94686(9)
C5 C -0.0252(3) 0.39383(16) 0.90981(8)
H4 H 0.0033 0.3034 0.9071
C6 C -0.0501(3) 0.43804(17) 0.84588(8)
C7 C -0.1572(3) 0.54297(16) 0.83164(9)
H5 H -0.2206 0.5885 0.8622
C8 C -0.1715(3) 0.58132(18) 0.77275(10)
H6 H -0.2454 0.6529 0.7633
C9 C -0.0795(3) 0.51650(19) 0.72781(9)
H7 H -0.0899 0.5433 0.6876
C10 C 0.0274(4) 0.41277(18) 0.74168(8)
H8 H 0.0902 0.3676 0.7109
C11 C 0.0443(3) 0.37354(17) 0.80079(9)
H9 H 0.1203 0.3028 0.8101
C12 C 0.1558(3) 0.45300(17) 0.94044(9)
H10 H 0.2750 0.4179 0.9212
C13 C 0.1635(3) 0.59327(17) 0.93338(8)
C14 C 0.3002(3) 0.64568(18) 0.89505(8)
H11 H 0.3907 0.5947 0.8745
C15 C 0.3034(3) 0.77292(18) 0.88712(8)
C16 C 0.1714(3) 0.84996(18) 0.91555(8)
H12 H 0.1741 0.9366 0.9091
C17 C 0.0357(3) 0.79773(18) 0.95361(8)
H13 H -0.0559 0.8490 0.9736
C18 C 0.0325(3) 0.67060(17) 0.96281(8)
H14 H -0.0601 0.6360 0.9895
C19 C 0.1582(3) 0.41574(17) 1.00487(9)
H15 H 0.2786 0.4145 1.0258
loop_
_geom_bond_atom_site_label_1
_geom_bond_atom_site_label_2
_geom_bond_site_symmetry_1
_geom_bond_site_symmetry_2
Br1 C15 1_555 1_555
O1 C1 1_555 1_555
O2 C3 1_555 1_555
O3 C2 1_555 1_555
O4 C4 1_555 1_555
C1 H1 1_555 1_555
H2 C1 1_555 1_555
H3 C1 1_555 1_555
C2 O1 1_555 1_555
C3 C2 1_555 1_555
C4 O2 1_555 1_555
C5 C4 1_555 1_555
H4 C5 1_555 1_555
C6 C5 1_555 1_555
C7 C6 1_555 1_555
H5 C7 1_555 1_555
C8 C7 1_555 1_555
H6 C8 1_555 1_555
C9 C8 1_555 1_555
H7 C9 1_555 1_555
C10 C9 1_555 1_555
H8 C10 1_555 1_555
C11 C6 1_555 1_555
H9 C11 1_555 1_555
C12 C5 1_555 1_555
H10 C12 1_555 1_555
C13 C12 1_555 1_555
C14 C13 1_555 1_555
H11 C14 1_555 1_555
C15 C14 1_555 1_555
C16 C15 1_555 1_555
H12 C16 1_555 1_555
C17 C16 1_555 1_555
H13 C17 1_555 1_555
C18 C13 1_555 1_555
H14 C18 1_555 1_555
C19 C3 1_555 1_555
H15 C19 1_555 1_555
C10 C11 1_555 1_555
C12 C19 1_555 1_555
C17 C18 1_555 1_555

#END
