
#######################################################################
#
#                 Cambridge Crystallographic Data Centre
#                                CCDC 
#
#######################################################################
#
# If this CIF has been generated from an entry in the Cambridge 
# Structural Database, then it will include bibliographic, chemical, 
# crystal, experimental, refinement or atomic coordinate data resulting 
# from the CCDC's data processing and validation procedures.
#
#######################################################################

data_OYEMIP
_chemical_formula_moiety         'C20 H12 N2'
_chemical_name_systematic        1,1':4',1''-Terphenyl-2',4-dicarbonitrile
_symmetry_cell_setting           monoclinic
_symmetry_space_group_name_H-M   'P 21/c'
_symmetry_Int_Tables_number      14
_space_group_name_Hall           '-P 2ybc'
loop_
_symmetry_equiv_pos_site_id
_symmetry_equiv_pos_as_xyz
1 x,y,z
2 -x,1/2+y,1/2-z
3 -x,-y,-z
4 x,1/2-y,1/2+z
_cell_length_a                   9.5874(3)
_cell_length_b                   7.4680(2)
_cell_length_c                   41.2210(13)
_cell_angle_alpha                90
_cell_angle_beta                 96.419(2)
_cell_angle_gamma                90
_cell_volume                     2932.87
_exptl_crystal_colour            colorless
_exptl_crystal_description       prism
_chemical_melting_point          '417 K'
_cell_formula_units_Z            8
loop_
_atom_site_label
_atom_site_type_symbol
_atom_site_fract_x
_atom_site_fract_y
_atom_site_fract_z
C1 C 0.40601(18) 0.6705(2) 0.13167(4)
C2 C 0.38106(19) 0.8219(2) 0.14993(4)
H1 H 0.3463 0.9278 0.1391
C3 C 0.40612(19) 0.8199(2) 0.18346(4)
H2 H 0.3893 0.9240 0.1957
C4 C 0.37438(18) 0.6752(2) 0.09564(4)
C5 C 0.46061(19) 0.5174(2) 0.14791(4)
H3 H 0.4812 0.4148 0.1357
C6 C 0.4755(2) 0.6599(3) 0.23454(5)
C7 C 0.27926(19) 0.5419(2) 0.04383(4)
H4 H 0.2316 0.4454 0.0324
C8 C 0.4849(2) 0.5137(3) 0.18148(4)
H5 H 0.5210 0.4086 0.1924
C9 C 0.32081(19) 0.6885(2) 0.02662(4)
C10 C 0.30652(19) 0.5341(2) 0.07768(4)
C11 C 0.45625(19) 0.6645(2) 0.19935(4)
C12 C 0.3871(2) 0.8293(2) 0.04436(4)
H6 H 0.4160 0.9313 0.0331
C13 C 0.41169(19) 0.8235(2) 0.07794(4)
H7 H 0.4551 0.9231 0.0893
C14 C 0.4060(2) 0.7360(3) -0.02785(5)
H8 H 0.4966 0.7617 -0.0171
C15 C 0.3832(2) 0.7418(3) -0.06163(5)
H9 H 0.4582 0.7718 -0.0739
C16 C 0.2969(2) 0.6926(2) -0.00960(4)
C17 C 0.1664(2) 0.6530(3) -0.02613(5)
H10 H 0.0912 0.6210 -0.0141
N1 N 0.4887(2) 0.6567(2) 0.26260(4)
C18 C 0.2631(2) 0.3751(3) 0.09370(4)
C19 C 0.1442(2) 0.6595(3) -0.05979(5)
H11 H 0.0540 0.6331 -0.0707
N2 N 0.2298(2) 0.2463(2) 0.10580(4)
C20 C 0.2526(2) 0.7043(3) -0.07754(5)
H12 H 0.2372 0.7093 -0.1007
C21 C 0.8351(2) 0.9313(2) 0.21007(5)
H13 H 0.7627 0.9796 0.2214
C22 C 1.0419(2) 0.7887(2) 0.17628(5)
H14 H 1.1139 0.7387 0.1650
C23 C 0.81914(19) 0.9317(2) 0.17620(5)
C24 C 1.0590(2) 0.7932(2) 0.20993(5)
H15 H 1.1436 0.7488 0.2213
C25 C 0.8562(2) 0.8501(2) 0.01917(6)
C26 C 0.9552(2) 0.8613(2) 0.22776(5)
C27 C 0.92142(19) 0.8559(2) 0.15842(5)
C28 C 0.7840(2) 0.7808(3) 0.10474(5)
H16 H 0.7108 0.7352 0.1161
C29 C 0.90478(19) 0.8496(2) 0.12217(5)
C30 C 0.9723(2) 0.8578(2) 0.26390(5)
C31 C 1.1015(2) 0.8969(3) 0.28173(5)
H17 H 1.1795 0.9277 0.2705
C32 C 0.8756(2) 0.8465(2) 0.05438(5)
C33 C 0.7694(2) 0.7780(3) 0.07120(5)
H18 H 0.6871 0.7294 0.0595
C34 C 0.9979(2) 0.9138(2) 0.07142(5)
H19 H 1.0709 0.9595 0.0600
C35 C 1.0118(2) 0.9135(2) 0.10501(5)
H20 H 1.0959 0.9575 0.1167
C36 C 0.7023(2) 1.0266(2) 0.15913(5)
N3 N 0.8384(2) 0.8519(2) -0.00883(5)
C37 C 0.8602(2) 0.8119(2) 0.28108(5)
H21 H 0.7713 0.7856 0.2695
C38 C 1.1169(2) 0.8912(3) 0.31540(5)
H22 H 1.2049 0.9201 0.3272
C39 C 1.0049(2) 0.8435(3) 0.33204(5)
H23 H 1.0161 0.8380 0.3552
N4 N 0.61255(18) 1.1093(2) 0.14573(4)
C40 C 0.8771(2) 0.8041(3) 0.31483(5)
H24 H 0.8000 0.7714 0.3262
loop_
_geom_bond_atom_site_label_1
_geom_bond_atom_site_label_2
_geom_bond_site_symmetry_1
_geom_bond_site_symmetry_2
C1 C2 1_555 1_555
C2 H1 1_555 1_555
C3 C2 1_555 1_555
H2 C3 1_555 1_555
C4 C1 1_555 1_555
C5 C1 1_555 1_555
H3 C5 1_555 1_555
C6 C11 1_555 1_555
C7 H4 1_555 1_555
C8 C5 1_555 1_555
H5 C8 1_555 1_555
C9 C7 1_555 1_555
C10 C4 1_555 1_555
C11 C3 1_555 1_555
C12 C9 1_555 1_555
H6 C12 1_555 1_555
C13 C4 1_555 1_555
H7 C13 1_555 1_555
C14 H8 1_555 1_555
C15 C14 1_555 1_555
H9 C15 1_555 1_555
C16 C9 1_555 1_555
C17 C16 1_555 1_555
H10 C17 1_555 1_555
N1 C6 1_555 1_555
C18 C10 1_555 1_555
C19 C17 1_555 1_555
H11 C19 1_555 1_555
N2 C18 1_555 1_555
C20 C15 1_555 1_555
H12 C20 1_555 1_555
C21 H13 1_555 1_555
C22 H14 1_555 1_555
C23 C21 1_555 1_555
C24 C22 1_555 1_555
H15 C24 1_555 1_555
C25 C32 1_555 1_555
C26 C21 1_555 1_555
C27 C22 1_555 1_555
C28 H16 1_555 1_555
C29 C27 1_555 1_555
C30 C26 1_555 1_555
C31 C30 1_555 1_555
H17 C31 1_555 1_555
C32 C33 1_555 1_555
C33 C28 1_555 1_555
H18 C33 1_555 1_555
C34 C32 1_555 1_555
H19 C34 1_555 1_555
C35 C29 1_555 1_555
H20 C35 1_555 1_555
C36 C23 1_555 1_555
N3 C25 1_555 1_555
C37 C30 1_555 1_555
H21 C37 1_555 1_555
C38 C31 1_555 1_555
H22 C38 1_555 1_555
C39 C38 1_555 1_555
H23 C39 1_555 1_555
N4 C36 1_555 1_555
C40 C37 1_555 1_555
H24 C40 1_555 1_555
C7 C10 1_555 1_555
C8 C11 1_555 1_555
C12 C13 1_555 1_555
C14 C16 1_555 1_555
C19 C20 1_555 1_555
C23 C27 1_555 1_555
C24 C26 1_555 1_555
C28 C29 1_555 1_555
C34 C35 1_555 1_555
C39 C40 1_555 1_555

#END
