
#######################################################################
#
#                 Cambridge Crystallographic Data Centre
#                                CCDC 
#
#######################################################################
#
# If this CIF has been generated from an entry in the Cambridge 
# Structural Database, then it will include bibliographic, chemical, 
# crystal, experimental, refinement or atomic coordinate data resulting 
# from the CCDC's data processing and validation procedures.
#
#######################################################################

data_OYEMUC
_chemical_formula_moiety         'C25 H18 N2'
_chemical_name_systematic        
(5,6-diphenyl-1,2-dihydro-4H-pyrrolo[3,2,1-ij]quinolin-4-ylidene)acetonitrile
_symmetry_cell_setting           triclinic
_symmetry_space_group_name_H-M   'P -1'
_symmetry_Int_Tables_number      2
_space_group_name_Hall           '-P 1'
loop_
_symmetry_equiv_pos_site_id
_symmetry_equiv_pos_as_xyz
1 x,y,z
2 -x,-y,-z
_cell_length_a                   10.0980(11)
_cell_length_b                   12.6554(14)
_cell_length_c                   15.8728(16)
_cell_angle_alpha                103.7930(10)
_cell_angle_beta                 91.6370(10)
_cell_angle_gamma                111.127(2)
_cell_volume                     1822.81
_exptl_crystal_colour            colorless
_exptl_crystal_description       Prism
_cell_formula_units_Z            4
loop_
_atom_site_label
_atom_site_type_symbol
_atom_site_fract_x
_atom_site_fract_y
_atom_site_fract_z
N1 N 0.21207(9) 0.32093(7) 0.08581(5)
N2 N 0.13883(11) 0.00943(8) -0.06356(7)
C1 C 0.19652(12) 0.22202(9) 0.12453(7)
H1 H 0.2771 0.1955 0.1140
H2 H 0.1056 0.1548 0.0994
C2 C 0.19726(15) 0.27269(10) 0.22324(7)
H3 H 0.1110 0.2239 0.2444
H4 H 0.2834 0.2767 0.2573
C3 C 0.19821(11) 0.39416(9) 0.23106(7)
C4 C 0.19710(12) 0.48297(9) 0.30097(7)
H5 H 0.1889 0.4711 0.3578
C5 C 0.20825(11) 0.59146(9) 0.28669(7)
H6 H 0.2065 0.6525 0.3345
C6 C 0.22167(11) 0.61123(9) 0.20444(6)
H7 H 0.2302 0.6855 0.1969
C7 C 0.22279(10) 0.52197(8) 0.13208(6)
C8 C 0.20985(10) 0.41583(9) 0.14876(6)
C9 C 0.24497(10) 0.52996(8) 0.04335(6)
C10 C 0.26886(11) 0.64385(8) 0.02242(6)
C11 C 0.16064(11) 0.68815(9) 0.02630(7)
H8 H 0.0717 0.6465 0.0437
C12 C 0.18216(12) 0.79302(9) 0.00489(7)
H9 H 0.1074 0.8221 0.0067
C13 C 0.31271(13) 0.85507(9) -0.01901(7)
H10 H 0.3276 0.9269 -0.0333
C14 C 0.42153(12) 0.81236(9) -0.02205(7)
H11 H 0.5112 0.8554 -0.0379
C15 C 0.39973(11) 0.70672(9) -0.00199(7)
H12 H 0.4742 0.6772 -0.0049
C16 C 0.24792(10) 0.43538(8) -0.01871(6)
C17 C 0.27072(11) 0.44308(8) -0.11019(6)
C18 C 0.39409(11) 0.43604(9) -0.14419(7)
H13 H 0.4633 0.4245 -0.1095
C19 C 0.41651(12) 0.44575(10) -0.22867(7)
H14 H 0.5007 0.4407 -0.2514
C20 C 0.31595(13) 0.46273(10) -0.27944(7)
H15 H 0.3309 0.4690 -0.3372
C21 C 0.19343(12) 0.47064(10) -0.24598(7)
H16 H 0.1249 0.4829 -0.2807
C22 C 0.17068(11) 0.46062(9) -0.16178(7)
H17 H 0.0864 0.4658 -0.1393
C23 C 0.22334(10) 0.32164(8) 0.00004(6)
C24 C 0.21142(11) 0.22476(9) -0.06615(6)
H18 H 0.2309 0.2379 -0.1218
C25 C 0.17347(11) 0.10792(9) -0.06057(7)
N3 N 0.82997(9) 0.16419(7) 0.41215(5)
N4 N 1.13068(10) 0.46360(8) 0.52997(6)
C26 C 0.88673(12) 0.25785(9) 0.36624(7)
H19 H 0.9887 0.2741 0.3592
H20 H 0.8775 0.3314 0.3990
C27 C 0.79343(14) 0.20774(10) 0.27621(8)
H21 H 0.7289 0.2500 0.2719
H22 H 0.8538 0.2137 0.2281
C28 C 0.70899(11) 0.08074(9) 0.27298(7)
C29 C 0.61922(12) -0.01451(10) 0.20805(7)
H23 H 0.5998 -0.0061 0.1516
C30 C 0.55682(11) -0.12401(9) 0.22627(7)
H24 H 0.4975 -0.1901 0.1810
C31 C 0.57989(11) -0.13783(9) 0.30880(6)
H25 H 0.5355 -0.2126 0.3196
C32 C 0.66893(10) -0.04132(8) 0.37669(6)
C33 C 0.73305(10) 0.06418(8) 0.35490(6)
C34 C 0.70416(10) -0.04053(8) 0.46607(6)
C35 C 0.63011(10) -0.14997(8) 0.49352(6)
C36 C 0.48154(11) -0.19226(9) 0.49159(7)
H26 H 0.4292 -0.1501 0.4744
C37 C 0.40968(12) -0.29554(9) 0.51465(7)
H27 H 0.3086 -0.3238 0.5132
C38 C 0.48562(13) -0.35728(9) 0.53973(7)
H28 H 0.4366 -0.4278 0.5556
C39 C 0.63309(13) -0.31617(9) 0.54162(7)
H29 H 0.6849 -0.3587 0.5588
C40 C 0.70538(11) -0.21283(9) 0.51844(7)
H30 H 0.8064 -0.1851 0.5196
C41 C 0.80207(10) 0.05869(8) 0.52229(6)
C42 C 0.83746(10) 0.05874(8) 0.61456(6)
C43 C 0.73666(11) 0.05712(9) 0.67290(7)
H31 H 0.6481 0.0605 0.6549
C44 C 0.76498(12) 0.05051(10) 0.75745(7)
H32 H 0.6960 0.0501 0.7970
C45 C 0.89309(12) 0.04449(10) 0.78409(7)
H33 H 0.9114 0.0385 0.8415
C46 C 0.99496(12) 0.04723(10) 0.72666(7)
H34 H 1.0834 0.0439 0.7450
C47 C 0.96729(11) 0.05480(9) 0.64232(7)
H35 H 1.0375 0.0573 0.6034
C48 C 0.87372(10) 0.16761(8) 0.49565(6)
C49 C 0.97504(11) 0.26438(8) 0.55337(6)
H36 H 0.9919 0.2575 0.6106
C50 C 1.05697(11) 0.37299(9) 0.53710(7)
loop_
_geom_bond_atom_site_label_1
_geom_bond_atom_site_label_2
_geom_bond_site_symmetry_1
_geom_bond_site_symmetry_2
N1 C1 1_555 1_555
N2 C25 1_555 1_555
C1 H1 1_555 1_555
H2 C1 1_555 1_555
C2 C1 1_555 1_555
H3 C2 1_555 1_555
H4 C2 1_555 1_555
C3 C2 1_555 1_555
C4 C3 1_555 1_555
H5 C4 1_555 1_555
C5 C4 1_555 1_555
H6 C5 1_555 1_555
C6 C5 1_555 1_555
H7 C6 1_555 1_555
C7 C6 1_555 1_555
C8 N1 1_555 1_555
C9 C7 1_555 1_555
C10 C9 1_555 1_555
C11 C10 1_555 1_555
H8 C11 1_555 1_555
C12 C11 1_555 1_555
H9 C12 1_555 1_555
C13 C12 1_555 1_555
H10 C13 1_555 1_555
C14 C13 1_555 1_555
H11 C14 1_555 1_555
C15 C10 1_555 1_555
H12 C15 1_555 1_555
C16 C9 1_555 1_555
C17 C16 1_555 1_555
C18 C17 1_555 1_555
H13 C18 1_555 1_555
C19 C18 1_555 1_555
H14 C19 1_555 1_555
C20 C19 1_555 1_555
H15 C20 1_555 1_555
C21 C20 1_555 1_555
H16 C21 1_555 1_555
C22 C17 1_555 1_555
H17 C22 1_555 1_555
C23 N1 1_555 1_555
C24 C23 1_555 1_555
H18 C24 1_555 1_555
C25 C24 1_555 1_555
N3 C26 1_555 1_555
N4 C50 1_555 1_555
C26 H19 1_555 1_555
H20 C26 1_555 1_555
C27 C26 1_555 1_555
H21 C27 1_555 1_555
H22 C27 1_555 1_555
C28 C27 1_555 1_555
C29 C28 1_555 1_555
H23 C29 1_555 1_555
C30 C29 1_555 1_555
H24 C30 1_555 1_555
C31 C30 1_555 1_555
H25 C31 1_555 1_555
C32 C31 1_555 1_555
C33 N3 1_555 1_555
C34 C32 1_555 1_555
C35 C34 1_555 1_555
C36 C35 1_555 1_555
H26 C36 1_555 1_555
C37 C36 1_555 1_555
H27 C37 1_555 1_555
C38 C37 1_555 1_555
H28 C38 1_555 1_555
C39 C38 1_555 1_555
H29 C39 1_555 1_555
C40 C35 1_555 1_555
H30 C40 1_555 1_555
C41 C34 1_555 1_555
C42 C41 1_555 1_555
C43 C42 1_555 1_555
H31 C43 1_555 1_555
C44 C43 1_555 1_555
H32 C44 1_555 1_555
C45 C44 1_555 1_555
H33 C45 1_555 1_555
C46 C45 1_555 1_555
H34 C46 1_555 1_555
C47 C42 1_555 1_555
H35 C47 1_555 1_555
C48 N3 1_555 1_555
C49 C48 1_555 1_555
H36 C49 1_555 1_555
C50 C49 1_555 1_555
C3 C8 1_555 1_555
C7 C8 1_555 1_555
C14 C15 1_555 1_555
C16 C23 1_555 1_555
C21 C22 1_555 1_555
C28 C33 1_555 1_555
C32 C33 1_555 1_555
C39 C40 1_555 1_555
C41 C48 1_555 1_555
C46 C47 1_555 1_555

#END
