
#######################################################################
#
#                 Cambridge Crystallographic Data Centre
#                                CCDC 
#
#######################################################################
#
# If this CIF has been generated from an entry in the Cambridge 
# Structural Database, then it will include bibliographic, chemical, 
# crystal, experimental, refinement or atomic coordinate data resulting 
# from the CCDC's data processing and validation procedures.
#
#######################################################################

data_OYEMIQ
_chemical_formula_moiety         'C14 H14 O4 S1'
_chemical_name_systematic        'ethyl (2-naphthylsulfonyl)acetate'
_symmetry_cell_setting           monoclinic
_symmetry_space_group_name_H-M   'P 21'
_symmetry_Int_Tables_number      4
_space_group_name_Hall           'P 2yb'
loop_
_symmetry_equiv_pos_site_id
_symmetry_equiv_pos_as_xyz
1 x,y,z
2 -x,1/2+y,-z
_cell_length_a                   9.1667(8)
_cell_length_b                   5.8398(6)
_cell_length_c                   12.9822(12)
_cell_angle_alpha                90
_cell_angle_beta                 104.348(2)
_cell_angle_gamma                90
_cell_volume                     673.282
_exptl_crystal_colour            colorless
_exptl_crystal_description       block
_cell_formula_units_Z            2
loop_
_atom_site_label
_atom_site_type_symbol
_atom_site_fract_x
_atom_site_fract_y
_atom_site_fract_z
S1 S 0.58551(10) 0.44736(18) 0.82329(7)
O1 O 0.7336(3) 0.5192(7) 0.8208(3)
O2 O 0.5660(4) 0.2270(5) 0.8635(2)
O3 O 0.2882(3) 0.4696(7) 0.9040(2)
C1 C 0.4680(4) 0.4761(7) 0.6946(3)
C2 C 0.3624(5) 0.3164(7) 0.6566(3)
H1 H 0.3514 0.1914 0.6984
C3 C 0.2677(4) 0.3396(7) 0.5523(3)
C4 C 0.1582(5) 0.1769(8) 0.5072(4)
H2 H 0.1450 0.0487 0.5465
C5 C 0.0715(6) 0.2039(11) 0.4073(5)
H3 H -0.0016 0.0953 0.3791
C6 C 0.0905(5) 0.3939(9) 0.3456(4)
H4 H 0.0319 0.4077 0.2764
C7 C 0.1939(5) 0.5573(8) 0.3864(3)
H5 H 0.2045 0.6842 0.3457
C8 C 0.2868(4) 0.5343(6) 0.4925(3)
C9 C 0.3961(4) 0.6958(7) 0.5350(3)
H6 H 0.4072 0.8238 0.4950
C10 C 0.4874(4) 0.6695(6) 0.6346(3)
H7 H 0.5612 0.7775 0.6624
C11 C 0.5119(5) 0.6564(7) 0.8966(3)
H8 H 0.5527 0.6288 0.9719
H9 H 0.5454 0.8067 0.8805
C12 C 0.3446(5) 0.6563(7) 0.8736(3)
O4 O 0.2619(8) 0.7995(12) 0.8096(6)
C13 C 0.1219(8) 0.4167(18) 0.8648(8)
H10 H 0.0640 0.5572 0.8506
H11 H 0.1031 0.3272 0.7999
C14 C 0.0800(16) 0.287(2) 0.9491(10)
H12 H 0.1389 0.1492 0.9628
H13 H -0.0249 0.2482 0.9275
H14 H 0.0986 0.3778 1.0127
O5? O 0.2791(10) 0.8296(16) 0.8528(8)
C15? C 0.1304(11) 0.4803(18) 0.8999(10)
H15? H 0.0748 0.5453 0.8329
H16? H 0.1132 0.5740 0.9574
C16? C 0.0821(16) 0.2407(19) 0.9106(11)
H17? H 0.1058 0.1483 0.8558
H18? H -0.0245 0.2371 0.9039
H19? H 0.1338 0.1819 0.9789
loop_
_geom_bond_atom_site_label_1
_geom_bond_atom_site_label_2
_geom_bond_site_symmetry_1
_geom_bond_site_symmetry_2
S1 O1 1_555 1_555
O2 S1 1_555 1_555
O3 C12 1_555 1_555
C1 S1 1_555 1_555
C2 C1 1_555 1_555
H1 C2 1_555 1_555
C3 C2 1_555 1_555
C4 C3 1_555 1_555
H2 C4 1_555 1_555
C5 C4 1_555 1_555
H3 C5 1_555 1_555
C6 C5 1_555 1_555
H4 C6 1_555 1_555
C7 C6 1_555 1_555
H5 C7 1_555 1_555
C8 C3 1_555 1_555
C9 C8 1_555 1_555
H6 C9 1_555 1_555
C10 C1 1_555 1_555
H7 C10 1_555 1_555
C11 S1 1_555 1_555
H8 C11 1_555 1_555
H9 C11 1_555 1_555
C12 C11 1_555 1_555
O4 C12 1_555 1_555
C13 O3 1_555 1_555
H10 C13 1_555 1_555
H11 C13 1_555 1_555
C14 C13 1_555 1_555
H12 C14 1_555 1_555
H13 C14 1_555 1_555
H14 C14 1_555 1_555
C7 C8 1_555 1_555
C9 C10 1_555 1_555

#END
