
#######################################################################
#
#                 Cambridge Crystallographic Data Centre
#                                CCDC 
#
#######################################################################
#
# If this CIF has been generated from an entry in the Cambridge 
# Structural Database, then it will include bibliographic, chemical, 
# crystal, experimental, refinement or atomic coordinate data resulting 
# from the CCDC's data processing and validation procedures.
#
#######################################################################

data_OYEMOW
_chemical_formula_moiety         'C18 H14 Br1 N1 O2 S1'
_chemical_name_systematic        
'ethyl 5-(4-bromophenyl)-3-phenyl-1,2-thiazole-4-carboxylate'
_symmetry_cell_setting           triclinic
_symmetry_space_group_name_H-M   'P -1'
_symmetry_Int_Tables_number      2
_space_group_name_Hall           '-P 1'
loop_
_symmetry_equiv_pos_site_id
_symmetry_equiv_pos_as_xyz
1 x,y,z
2 -x,-y,-z
_cell_length_a                   9.5374(11)
_cell_length_b                   9.5911(12)
_cell_length_c                   9.7820(10)
_cell_angle_alpha                102.386(5)
_cell_angle_beta                 108.954(4)
_cell_angle_gamma                91.485(6)
_cell_volume                     822.149
_exptl_crystal_colour            colorless
_exptl_crystal_description       Block
_cell_formula_units_Z            2
loop_
_atom_site_label
_atom_site_type_symbol
_atom_site_fract_x
_atom_site_fract_y
_atom_site_fract_z
S1 S -0.20335(6) 0.59059(6) 0.22394(5)
N1 N -0.0673(2) 0.63557(19) 0.16728(18)
C1 C 0.0449(2) 0.7091(2) 0.2817(2)
C2 C 0.0222(2) 0.7324(2) 0.4225(2)
C3 C -0.1158(2) 0.6721(2) 0.4076(2)
C4 C 0.1765(2) 0.7625(2) 0.2518(2)
C5 C 0.2174(2) 0.6795(2) 0.1383(2)
H1 H 0.1635 0.5901 0.0846
C6 C 0.3370(3) 0.7278(3) 0.1041(3)
H2 H 0.3641 0.6709 0.0276
C7 C 0.4162(3) 0.8582(3) 0.1811(3)
H3 H 0.4967 0.8911 0.1568
C8 C 0.3775(3) 0.9406(3) 0.2938(3)
H4 H 0.4326 1.0295 0.3474
C9 C 0.2576(3) 0.8940(2) 0.3294(3)
H5 H 0.2314 0.9517 0.4062
C10 C 0.1378(2) 0.8054(3) 0.5659(2)
O1 O 0.2605(2) 0.7720(3) 0.6054(2)
O2 O 0.08764(16) 0.90958(17) 0.64342(17)
C11 C 0.1896(3) 0.9874(3) 0.7898(3)
H6 H 0.2802 0.9387 0.8172
H7 H 0.2182 1.0850 0.7861
C12 C 0.1168(4) 0.9933(3) 0.9012(3)
H8 H 0.0234 1.0349 0.8700
H9 H 0.1813 1.0518 0.9960
H10 H 0.0975 0.8970 0.9116
C13 C -0.1902(2) 0.6668(2) 0.5172(2)
C14 C -0.1104(2) 0.6537(2) 0.6605(2)
H11 H -0.0075 0.6453 0.6873
C15 C -0.1813(2) 0.6529(2) 0.7634(2)
H12 H -0.1270 0.6467 0.8607
C16 C -0.3332(2) 0.6614(2) 0.7204(2)
C17 C -0.4160(2) 0.6708(2) 0.5789(2)
H13 H -0.5195 0.6749 0.5516
C18 C -0.3436(2) 0.6740(2) 0.4781(2)
H14 H -0.3986 0.6811 0.3813
Br1 Br -0.43080(3) 0.66245(3) 0.86106(3)
loop_
_geom_bond_atom_site_label_1
_geom_bond_atom_site_label_2
_geom_bond_site_symmetry_1
_geom_bond_site_symmetry_2
S1 N1 1_555 1_555
N1 C1 1_555 1_555
C1 C2 1_555 1_555
C2 C3 1_555 1_555
C3 S1 1_555 1_555
C4 C1 1_555 1_555
C5 C4 1_555 1_555
H1 C5 1_555 1_555
C6 C5 1_555 1_555
H2 C6 1_555 1_555
C7 C6 1_555 1_555
H3 C7 1_555 1_555
C8 C7 1_555 1_555
H4 C8 1_555 1_555
C9 C4 1_555 1_555
H5 C9 1_555 1_555
C10 C2 1_555 1_555
O1 C10 1_555 1_555
O2 C10 1_555 1_555
C11 O2 1_555 1_555
H6 C11 1_555 1_555
H7 C11 1_555 1_555
C12 C11 1_555 1_555
H8 C12 1_555 1_555
H9 C12 1_555 1_555
H10 C12 1_555 1_555
C13 C3 1_555 1_555
C14 C13 1_555 1_555
H11 C14 1_555 1_555
C15 C14 1_555 1_555
H12 C15 1_555 1_555
C16 C15 1_555 1_555
C17 C16 1_555 1_555
H13 C17 1_555 1_555
C18 C13 1_555 1_555
H14 C18 1_555 1_555
Br1 C16 1_555 1_555
C8 C9 1_555 1_555
C17 C18 1_555 1_555

#END
