
#######################################################################
#
#                 Cambridge Crystallographic Data Centre
#                                CCDC 
#
#######################################################################
#
# If this CIF has been generated from an entry in the Cambridge 
# Structural Database, then it will include bibliographic, chemical, 
# crystal, experimental, refinement or atomic coordinate data resulting 
# from the CCDC's data processing and validation procedures.
#
#######################################################################

data_OYEMOV
_chemical_formula_moiety         'C21 H14 N2'
_chemical_name_systematic        
4''-Methyl-1,1':3',1''-terphenyl-4,4'-dicarbonitrile
_symmetry_cell_setting           monoclinic
_symmetry_space_group_name_H-M   'P 21'
_symmetry_Int_Tables_number      4
_space_group_name_Hall           'P 2yb'
loop_
_symmetry_equiv_pos_site_id
_symmetry_equiv_pos_as_xyz
1 x,y,z
2 -x,1/2+y,-z
_cell_length_a                   3.8473(4)
_cell_length_b                   11.0176(11)
_cell_length_c                   17.8221(17)
_cell_angle_alpha                90
_cell_angle_beta                 92.009(5)
_cell_angle_gamma                90
_cell_volume                     754.979
_exptl_crystal_colour            colorless
_exptl_crystal_description       needle
_chemical_melting_point          '475 K'
_cell_formula_units_Z            2
loop_
_atom_site_label
_atom_site_type_symbol
_atom_site_fract_x
_atom_site_fract_y
_atom_site_fract_z
C1 C 0.7285(5) 0.07139(18) 0.06764(11)
H1 H 0.6063 0.0607 0.0209
C2 C 1.0890(5) 0.10172(19) 0.20359(11)
H2 H 1.2134 0.1120 0.2501
C3 C 0.9927(5) 0.20343(17) 0.16143(11)
C4 C 1.0888(5) 0.32724(18) 0.18818(12)
N1 N 0.6699(6) -0.24397(18) 0.06221(11)
C5 C 1.2638(6) 0.5322(2) 0.16280(12)
H3 H 1.3132 0.5943 0.1278
C6 C 0.7402(6) -0.1490(2) 0.08446(12)
C7 C 1.3880(6) 0.4136(2) 0.49940(12)
H4 H 1.4847 0.3516 0.5307
C8 C 1.4244(6) 0.67369(19) 0.26202(12)
C9 C 0.8260(5) -0.02832(19) 0.11085(11)
N2 N 1.5336(6) 0.76799(18) 0.27667(12)
C10 C 1.2163(5) 0.46650(18) 0.29230(11)
C11 C 1.3774(5) 0.39843(19) 0.42255(12)
H5 H 1.4675 0.3260 0.4018
C12 C 1.1141(5) 0.35368(18) 0.26438(11)
H6 H 1.0589 0.2917 0.2991
C13 C 1.1212(5) 0.60794(19) 0.48402(12)
H7 H 1.0336 0.6807 0.5049
C14 C 1.0069(6) -0.01352(19) 0.17896(11)
H8 H 1.0735 -0.0822 0.2083
C15 C 1.1629(6) 0.4191(2) 0.13733(12)
H9 H 1.1437 0.4036 0.0849
C16 C 0.8108(5) 0.18643(19) 0.09323(11)
H10 H 0.7425 0.2550 0.0639
C17 C 1.2592(6) 0.51855(19) 0.53152(11)
C18 C 1.1098(5) 0.59254(19) 0.40717(11)
H11 H 1.0137 0.6547 0.3759
C19 C 1.2372(5) 0.48712(18) 0.37474(11)
C20 C 1.2938(5) 0.55617(17) 0.23931(12)
C21 C 1.2642(8) 0.5348(3) 0.61514(13)
H12 H 1.3694 0.4632 0.6394
H13 H 1.0257 0.5447 0.6317
H14 H 1.4007 0.6070 0.6289
loop_
_geom_bond_atom_site_label_1
_geom_bond_atom_site_label_2
_geom_bond_site_symmetry_1
_geom_bond_site_symmetry_2
C1 H1 1_555 1_555
C2 H2 1_555 1_555
C3 C2 1_555 1_555
C4 C3 1_555 1_555
N1 C6 1_555 1_555
C5 H3 1_555 1_555
C6 C9 1_555 1_555
C7 H4 1_555 1_555
C8 N2 1_555 1_555
C9 C1 1_555 1_555
C10 C12 1_555 1_555
C11 C7 1_555 1_555
H5 C11 1_555 1_555
C12 C4 1_555 1_555
H6 C12 1_555 1_555
C13 H7 1_555 1_555
C14 C2 1_555 1_555
H8 C14 1_555 1_555
C15 C4 1_555 1_555
H9 C15 1_555 1_555
C16 C1 1_555 1_555
H10 C16 1_555 1_555
C17 C7 1_555 1_555
C18 C13 1_555 1_555
H11 C18 1_555 1_555
C19 C10 1_555 1_555
C20 C5 1_555 1_555
C21 C17 1_555 1_555
H12 C21 1_555 1_555
H13 C21 1_555 1_555
H14 C21 1_555 1_555
C3 C16 1_555 1_555
C5 C15 1_555 1_555
C8 C20 1_555 1_555
C9 C14 1_555 1_555
C10 C20 1_555 1_555
C11 C19 1_555 1_555
C13 C17 1_555 1_555
C18 C19 1_555 1_555

#END
