
#######################################################################
#
#                 Cambridge Crystallographic Data Centre
#                                CCDC 
#
#######################################################################
#
# If this CIF has been generated from an entry in the Cambridge 
# Structural Database, then it will include bibliographic, chemical, 
# crystal, experimental, refinement or atomic coordinate data resulting 
# from the CCDC's data processing and validation procedures.
#
#######################################################################

data_OYENUD
_chemical_formula_moiety         'C30 H22 Br2 N2 O4 S2'
_chemical_name_systematic        
'ethyl 3-(4-bromophenyl)-5-(4-(3-(4-bromophenyl)-4-(ethoxycarbonyl)-1,2-thiazol-5-yl)phenyl)-1,2-thiazole-4-carboxylate'
_symmetry_cell_setting           triclinic
_symmetry_space_group_name_H-M   'P 1'
_symmetry_Int_Tables_number      1
_space_group_name_Hall           'P 1'
loop_
_symmetry_equiv_pos_site_id
_symmetry_equiv_pos_as_xyz
1 x,y,z
_cell_length_a                   7.9207(11)
_cell_length_b                   9.0758(12)
_cell_length_c                   11.1924(15)
_cell_angle_alpha                80.790(8)
_cell_angle_beta                 71.850(8)
_cell_angle_gamma                65.087(7)
_cell_volume                     693.021
_exptl_crystal_colour            colorless
_exptl_crystal_description       needle
_cell_formula_units_Z            1
loop_
_atom_site_label
_atom_site_type_symbol
_atom_site_fract_x
_atom_site_fract_y
_atom_site_fract_z
Br1 Br 0.48314(13) -0.66943(11) -0.65899(8)
Br2 Br -0.23894(13) 1.10114(11) 0.76785(8)
C1 C 0.438(3) -0.492(2) -0.5613(16)
C2 C 0.501(3) -0.531(2) -0.4524(16)
H1 H 0.5651 -0.6403 -0.4267
C3 C 0.465(2) -0.3998(19) -0.3828(16)
H2 H 0.5113 -0.4212 -0.3103
C4 C 0.365(3) -0.240(2) -0.4172(16)
C5 C 0.302(2) -0.209(2) -0.5258(16)
H3 H 0.2407 -0.0996 -0.5531
C6 C 0.329(2) -0.3384(18) -0.5965(14)
H4 H 0.2731 -0.3190 -0.6643
C7 C 0.315(3) -0.103(2) -0.3440(16)
C8 C 0.299(2) -0.097(2) -0.2115(15)
C9 C 0.252(3) 0.056(2) -0.1821(16)
C10 C 0.318(2) -0.237(2) -0.1247(16)
C11 C 0.503(2) -0.415(2) 0.0115(15)
H5 H 0.5073 -0.3843 0.0911
H6 H 0.3967 -0.4530 0.0315
C12 C 0.675(3) -0.540(3) -0.039(2)
H7 H 0.7832 -0.5119 -0.0424
H8 H 0.6810 -0.5591 -0.1243
H9 H 0.6849 -0.6394 0.0135
C13 C 0.191(3) 0.134(2) -0.0561(17)
C14 C 0.104(2) 0.070(2) 0.0531(16)
H10 H 0.0893 -0.0287 0.0522
C15 C 0.039(2) 0.149(2) 0.1629(17)
H11 H -0.0176 0.1013 0.2377
C16 C 0.052(3) 0.297(2) 0.1712(16)
C17 C 0.142(3) 0.358(2) 0.0572(17)
H12 H 0.1548 0.4573 0.0571
C18 C 0.214(2) 0.278(2) -0.0558(17)
H13 H 0.2774 0.3206 -0.1307
C19 C -0.003(3) 0.370(2) 0.2878(16)
C20 C -0.055(2) 0.529(2) 0.3239(15)
C21 C -0.075(3) 0.535(2) 0.4531(17)
C22 C -0.079(2) 0.673(2) 0.2300(15)
C23 C -0.253(2) 0.8338(17) 0.0827(14)
H14 H -0.3122 0.8160 0.0233
H15 H -0.1297 0.8429 0.0337
C24 C -0.391(3) 0.993(2) 0.154(2)
H16 H -0.3222 1.0221 0.1985
H17 H -0.5019 0.9755 0.2145
H18 H -0.4378 1.0803 0.0936
C25 C -0.116(3) 0.677(2) 0.5269(17)
C26 C -0.061(3) 0.649(2) 0.6369(16)
H19 H 0.0106 0.5408 0.6608
C27 C -0.1049(19) 0.7688(18) 0.7106(14)
H20 H -0.0773 0.7436 0.7900
C28 C -0.191(2) 0.931(2) 0.6724(15)
C29 C -0.254(3) 0.960(2) 0.5662(17)
H21 H -0.3257 1.0694 0.5433
C30 C -0.218(2) 0.839(2) 0.4931(14)
H22 H -0.2613 0.8631 0.4193
N1 N 0.281(2) 0.0401(19) -0.4055(13)
N2 N -0.047(2) 0.392(2) 0.5165(14)
O1 O 0.2194(19) -0.3164(17) -0.0982(12)
O2 O 0.4623(17) -0.2732(15) -0.0727(11)
O3 O 0.0136(18) 0.7525(17) 0.2129(11)
O4 O -0.2152(16) 0.6948(14) 0.1750(10)
S1 S 0.2302(7) 0.1842(6) -0.3111(4)
S2 S 0.0103(7) 0.2503(6) 0.4223(4)
loop_
_geom_bond_atom_site_label_1
_geom_bond_atom_site_label_2
_geom_bond_site_symmetry_1
_geom_bond_site_symmetry_2
Br1 C1 1_555 1_555
Br2 C28 1_555 1_555
C1 C2 1_555 1_555
C2 H1 1_555 1_555
C3 C2 1_555 1_555
H2 C3 1_555 1_555
C4 C3 1_555 1_555
C5 C4 1_555 1_555
H3 C5 1_555 1_555
C6 C1 1_555 1_555
H4 C6 1_555 1_555
C7 C4 1_555 1_555
C8 C7 1_555 1_555
C9 C8 1_555 1_555
C10 C8 1_555 1_555
C11 H5 1_555 1_555
H6 C11 1_555 1_555
C12 C11 1_555 1_555
H7 C12 1_555 1_555
H8 C12 1_555 1_555
H9 C12 1_555 1_555
C13 C9 1_555 1_555
C14 C13 1_555 1_555
H10 C14 1_555 1_555
C15 C14 1_555 1_555
H11 C15 1_555 1_555
C16 C15 1_555 1_555
C17 C16 1_555 1_555
H12 C17 1_555 1_555
C18 C13 1_555 1_555
H13 C18 1_555 1_555
C19 C16 1_555 1_555
C20 C19 1_555 1_555
C21 C20 1_555 1_555
C22 C20 1_555 1_555
C23 H14 1_555 1_555
H15 C23 1_555 1_555
C24 C23 1_555 1_555
H16 C24 1_555 1_555
H17 C24 1_555 1_555
H18 C24 1_555 1_555
C25 C21 1_555 1_555
C26 C25 1_555 1_555
H19 C26 1_555 1_555
C27 C26 1_555 1_555
H20 C27 1_555 1_555
C28 C27 1_555 1_555
C29 C28 1_555 1_555
H21 C29 1_555 1_555
C30 C25 1_555 1_555
H22 C30 1_555 1_555
N1 C7 1_555 1_555
N2 C21 1_555 1_555
O1 C10 1_555 1_555
O2 C10 1_555 1_555
O3 C22 1_555 1_555
O4 C22 1_555 1_555
S1 C9 1_555 1_555
S2 C19 1_555 1_555
C5 C6 1_555 1_555
C11 O2 1_555 1_555
C17 C18 1_555 1_555
C23 O4 1_555 1_555
C29 C30 1_555 1_555
N1 S1 1_555 1_555
N2 S2 1_555 1_555

#END
