
#######################################################################
#
#                 Cambridge Crystallographic Data Centre
#                                CCDC 
#
#######################################################################
#
# If this CIF has been generated from an entry in the Cambridge 
# Structural Database, then it will include bibliographic, chemical, 
# crystal, experimental, refinement or atomic coordinate data resulting 
# from the CCDC's data processing and validation procedures.
#
#######################################################################

data_OYEPUF
_chemical_formula_moiety         'C23 H17 N1 O1'
_chemical_name_systematic        (4-anilino-1-naphthyl)(phenyl)methanone
_symmetry_cell_setting           triclinic
_symmetry_space_group_name_H-M   'P -1'
_symmetry_Int_Tables_number      2
_space_group_name_Hall           '-P 1'
loop_
_symmetry_equiv_pos_site_id
_symmetry_equiv_pos_as_xyz
1 x,y,z
2 -x,-y,-z
_cell_length_a                   8.369(7)
_cell_length_b                   9.476(8)
_cell_length_c                   11.907(10)
_cell_angle_alpha                108.133(15)
_cell_angle_beta                 106.771(16)
_cell_angle_gamma                92.352(18)
_cell_volume                     850.285
_exptl_crystal_colour            yellow
_exptl_crystal_description       prismatic
_cell_formula_units_Z            2
loop_
_atom_site_label
_atom_site_type_symbol
_atom_site_fract_x
_atom_site_fract_y
_atom_site_fract_z
N1 N 0.1504(3) 1.0948(2) 0.87703(19)
O1 O 0.7664(2) 0.7489(2) 0.84616(16)
C1 C 0.4304(3) 0.8034(2) 0.86190(19)
C2 C 0.4750(3) 0.6963(3) 0.9204(2)
H1 H 0.5524 0.6341 0.8988
C3 C 0.4069(3) 0.6815(3) 1.0083(3)
H2 H 0.4416 0.6122 1.0478
C4 C 0.2879(3) 0.7679(3) 1.0391(3)
H3 H 0.2428 0.7573 1.0994
C5 C 0.2361(3) 0.8688(3) 0.9815(2)
H4 H 0.1525 0.9242 1.0007
C6 C 0.3069(3) 0.8911(2) 0.8931(2)
C7 C 0.2557(3) 0.9995(3) 0.8338(2)
C8 C 0.3166(3) 1.0074(3) 0.7399(2)
H5 H 0.2749 1.0703 0.6954
C9 C 0.4395(3) 0.9224(3) 0.7108(2)
H6 H 0.4803 0.9320 0.6483
C10 C 0.5034(3) 0.8244(3) 0.7711(2)
C11 C 0.6561(3) 0.7633(3) 0.7565(2)
C12 C 0.6904(3) 0.7223(3) 0.6353(2)
C13 C 0.8560(3) 0.7167(3) 0.6356(3)
H7 H 0.9428 0.7424 0.7109
C14 C 0.8926(4) 0.6733(4) 0.5251(3)
H8 H 1.0039 0.6702 0.5263
C15 C 0.7664(5) 0.6348(4) 0.4144(3)
H9 H 0.7918 0.6058 0.3402
C16 C 0.6029(4) 0.6387(4) 0.4119(3)
H10 H 0.5173 0.6126 0.3360
C17 C 0.5637(4) 0.6812(3) 0.5218(2)
H11 H 0.4517 0.6821 0.5194
C18 C 0.0632(3) 1.1863(3) 0.8140(2)
C19 C -0.0457(3) 1.1231(3) 0.6930(2)
H12 H -0.0543 1.0210 0.6506
C20 C -0.1405(4) 1.2106(3) 0.6359(3)
H13 H -0.2127 1.1678 0.5546
C21 C -0.1295(3) 1.3609(3) 0.6978(3)
H14 H -0.1952 1.4201 0.6594
C22 C -0.0212(3) 1.4230(3) 0.8165(3)
H15 H -0.0125 1.5252 0.8585
C23 C 0.0741(3) 1.3373(3) 0.8740(2)
H16 H 0.1474 1.3815 0.9549
H17 H 0.164(3) 1.142(3) 0.9637(16)
loop_
_geom_bond_atom_site_label_1
_geom_bond_atom_site_label_2
_geom_bond_site_symmetry_1
_geom_bond_site_symmetry_2
N1 C7 1_555 1_555
O1 C11 1_555 1_555
C1 C2 1_555 1_555
C2 H1 1_555 1_555
C3 C2 1_555 1_555
H2 C3 1_555 1_555
C4 C3 1_555 1_555
H3 C4 1_555 1_555
C5 C4 1_555 1_555
H4 C5 1_555 1_555
C6 C1 1_555 1_555
C7 C6 1_555 1_555
C8 C7 1_555 1_555
H5 C8 1_555 1_555
C9 C8 1_555 1_555
H6 C9 1_555 1_555
C10 C1 1_555 1_555
C11 C10 1_555 1_555
C12 C11 1_555 1_555
C13 C12 1_555 1_555
H7 C13 1_555 1_555
C14 C13 1_555 1_555
H8 C14 1_555 1_555
C15 C14 1_555 1_555
H9 C15 1_555 1_555
C16 C15 1_555 1_555
H10 C16 1_555 1_555
C17 C12 1_555 1_555
H11 C17 1_555 1_555
C18 N1 1_555 1_555
C19 C18 1_555 1_555
H12 C19 1_555 1_555
C20 C19 1_555 1_555
H13 C20 1_555 1_555
C21 C20 1_555 1_555
H14 C21 1_555 1_555
C22 C21 1_555 1_555
H15 C22 1_555 1_555
C23 C18 1_555 1_555
H16 C23 1_555 1_555
H17 N1 1_555 1_555
C5 C6 1_555 1_555
C9 C10 1_555 1_555
C16 C17 1_555 1_555
C22 C23 1_555 1_555

#END
