
#######################################################################
#
#                 Cambridge Crystallographic Data Centre
#                                CCDC 
#
#######################################################################
#
# If this CIF has been generated from an entry in the Cambridge 
# Structural Database, then it will include bibliographic, chemical, 
# crystal, experimental, refinement or atomic coordinate data resulting 
# from the CCDC's data processing and validation procedures.
#
#######################################################################

data_OYESAO02
_chemical_formula_moiety         'C21 H24 N2 O1 Si1'
_chemical_name_systematic        
3-phenyl-N-(quinolin-8-yl)-3-(trimethylsilyl)propanamide
_symmetry_cell_setting           triclinic
_symmetry_space_group_name_H-M   'P -1'
_symmetry_Int_Tables_number      2
_space_group_name_Hall           '-P 1'
loop_
_symmetry_equiv_pos_site_id
_symmetry_equiv_pos_as_xyz
1 x,y,z
2 -x,-y,-z
_cell_length_a                   10.0800(3)
_cell_length_b                   11.8813(4)
_cell_length_c                   16.5509(6)
_cell_angle_alpha                88.653(2)
_cell_angle_beta                 86.499(2)
_cell_angle_gamma                89.381(2)
_cell_volume                     1977.86
_exptl_crystal_colour            colorless
_exptl_crystal_description       block
_cell_formula_units_Z            4
loop_
_atom_site_label
_atom_site_type_symbol
_atom_site_fract_x
_atom_site_fract_y
_atom_site_fract_z
Si1 Si 0.31579(8) 0.36448(8) 0.90764(5)
C1 C 0.1204(3) 0.3647(2) 0.53533(17)
N1 N 0.1902(2) 0.3616(2) 0.60604(14)
H1 H 0.2733 0.3836 0.5997
O1 O 0.0365(2) 0.2983(2) 0.70128(13)
C2 C -0.0033(3) 0.3213(3) 0.52707(18)
H2 H -0.0501 0.2856 0.5721
N2 N 0.3126(2) 0.4605(2) 0.47949(16)
C3 C -0.0608(3) 0.3296(3) 0.4521(2)
H3 H -0.1459 0.2980 0.4469
C4 C 0.0017(3) 0.3814(3) 0.38689(19)
H4 H -0.0400 0.3868 0.3370
C5 C 0.1892(3) 0.4187(2) 0.46746(17)
C6 C 0.1295(3) 0.4277(3) 0.39333(18)
C7 C 0.2003(4) 0.4850(3) 0.3290(2)
H5 H 0.1631 0.4942 0.2779
C8 C 0.3225(4) 0.5271(3) 0.3411(2)
H6 H 0.3718 0.5654 0.2983
C9 C 0.3744(4) 0.5135(3) 0.4168(2)
H7 H 0.4595 0.5440 0.4240
C10 C 0.2549(3) 0.3336(3) 0.74297(19)
H8 H 0.3344 0.3718 0.7178
H9 H 0.2811 0.2556 0.7577
C11 C 0.1494(3) 0.3303(3) 0.68238(18)
C12 C 0.0760(3) 0.5746(3) 0.84447(18)
H10 H 0.0124 0.5315 0.8762
C13 C 0.1862(3) 0.5199(3) 0.80716(17)
C14 C 0.2073(3) 0.3953(3) 0.82003(17)
H11 H 0.1179 0.3639 0.8368
C15 C 0.0572(4) 0.6884(3) 0.8367(2)
H12 H -0.0184 0.7228 0.8633
C16 C 0.1465(4) 0.7538(3) 0.7906(2)
H13 H 0.1329 0.8327 0.7850
C17 C 0.2564(4) 0.7022(3) 0.7527(2)
H14 H 0.3191 0.7462 0.7210
C18 C 0.2756(3) 0.5873(3) 0.7605(2)
H15 H 0.3513 0.5534 0.7336
C19 C 0.2278(4) 0.4174(4) 1.0011(2)
H16 H 0.2797 0.3983 1.0478
H17 H 0.1402 0.3824 1.0085
H18 H 0.2171 0.4993 0.9965
C20 C 0.4809(4) 0.4310(4) 0.8893(2)
H19 H 0.5361 0.4124 0.9346
H20 H 0.4697 0.5128 0.8846
H21 H 0.5242 0.4027 0.8391
C21 C 0.3385(4) 0.2098(4) 0.9179(3)
H22 H 0.3937 0.1925 0.9634
H23 H 0.3822 0.1811 0.8680
H24 H 0.2516 0.1742 0.9279
Si2 Si 0.81637(8) 0.13847(8) 0.90217(5)
O2 O 0.5362(2) 0.2138(2) 0.69333(13)
N3 N 0.6901(2) 0.1458(2) 0.60122(14)
H25 H 0.7739 0.1240 0.5960
N4 N 0.8111(2) 0.0363(2) 0.48098(16)
C22 C 0.6203(3) 0.1400(2) 0.53063(17)
C23 C 0.4968(3) 0.1860(3) 0.51989(19)
H26 H 0.4516 0.2270 0.5620
C24 C 0.4380(3) 0.1717(3) 0.4459(2)
H27 H 0.3532 0.2045 0.4384
C25 C 0.4993(3) 0.1122(3) 0.38477(19)
H28 H 0.4563 0.1028 0.3359
C26 C 0.6267(3) 0.0643(3) 0.39383(18)
C27 C 0.6880(3) 0.0791(2) 0.46693(17)
C28 C 0.8721(3) -0.0219(3) 0.4222(2)
H29 H 0.9577 -0.0522 0.4311
C29 C 0.8188(4) -0.0417(3) 0.3481(2)
H30 H 0.8672 -0.0843 0.3081
C30 C 0.6972(4) 0.0009(3) 0.3340(2)
H31 H 0.6593 -0.0119 0.2839
C31 C 0.6482(3) 0.1798(3) 0.67593(18)
C32 C 0.7538(3) 0.1746(3) 0.73777(18)
H32 H 0.7786 0.2522 0.7509
H33 H 0.8342 0.1365 0.7138
C33 C 0.7064(3) 0.1118(3) 0.81581(17)
H34 H 0.6173 0.1445 0.8323
C34 C 0.6850(3) -0.0123(3) 0.80569(17)
C35 C 0.5748(3) -0.0651(3) 0.84388(18)
H35 H 0.5116 -0.0215 0.8748
C36 C 0.5552(4) -0.1791(3) 0.8380(2)
H36 H 0.4792 -0.2128 0.8649
C37 C 0.6447(4) -0.2446(3) 0.7935(2)
H37 H 0.6311 -0.3232 0.7896
C38 C 0.7549(4) -0.1942(3) 0.7545(2)
H38 H 0.8171 -0.2384 0.7233
C39 C 0.7748(3) -0.0798(3) 0.7608(2)
H39 H 0.8512 -0.0466 0.7339
C40 C 0.7263(4) 0.0905(4) 0.9981(2)
H40 H 0.7785 0.1086 1.0441
H41 H 0.7133 0.0089 0.9971
H42 H 0.6397 0.1287 1.0037
C41 C 0.8465(4) 0.2921(3) 0.9056(2)
H43 H 0.8999 0.3077 0.9515
H44 H 0.7613 0.3323 0.9120
H45 H 0.8942 0.3173 0.8552
C42 C 0.9786(4) 0.0632(4) 0.8864(2)
H46 H 1.0360 0.0815 0.9299
H47 H 1.0216 0.0867 0.8341
H48 H 0.9636 -0.0182 0.8869
loop_
_geom_bond_atom_site_label_1
_geom_bond_atom_site_label_2
_geom_bond_site_symmetry_1
_geom_bond_site_symmetry_2
Si1 C14 1_555 1_555
C1 N1 1_555 1_555
N1 H1 1_555 1_555
O1 C11 1_555 1_555
C2 C1 1_555 1_555
H2 C2 1_555 1_555
N2 C5 1_555 1_555
C3 C2 1_555 1_555
H3 C3 1_555 1_555
C4 C3 1_555 1_555
H4 C4 1_555 1_555
C5 C1 1_555 1_555
C6 C4 1_555 1_555
C7 C6 1_555 1_555
H5 C7 1_555 1_555
C8 C7 1_555 1_555
H6 C8 1_555 1_555
C9 N2 1_555 1_555
H7 C9 1_555 1_555
C10 H8 1_555 1_555
H9 C10 1_555 1_555
C11 N1 1_555 1_555
C12 H10 1_555 1_555
C13 C12 1_555 1_555
C14 C10 1_555 1_555
H11 C14 1_555 1_555
C15 C12 1_555 1_555
H12 C15 1_555 1_555
C16 C15 1_555 1_555
H13 C16 1_555 1_555
C17 C16 1_555 1_555
H14 C17 1_555 1_555
C18 C13 1_555 1_555
H15 C18 1_555 1_555
C19 Si1 1_555 1_555
H16 C19 1_555 1_555
H17 C19 1_555 1_555
H18 C19 1_555 1_555
C20 Si1 1_555 1_555
H19 C20 1_555 1_555
H20 C20 1_555 1_555
H21 C20 1_555 1_555
C21 Si1 1_555 1_555
H22 C21 1_555 1_555
H23 C21 1_555 1_555
H24 C21 1_555 1_555
Si2 C33 1_555 1_555
O2 C31 1_555 1_555
N3 H25 1_555 1_555
N4 C27 1_555 1_555
C22 N3 1_555 1_555
C23 C22 1_555 1_555
H26 C23 1_555 1_555
C24 C23 1_555 1_555
H27 C24 1_555 1_555
C25 C24 1_555 1_555
H28 C25 1_555 1_555
C26 C25 1_555 1_555
C27 C22 1_555 1_555
C28 N4 1_555 1_555
H29 C28 1_555 1_555
C29 C28 1_555 1_555
H30 C29 1_555 1_555
C30 C26 1_555 1_555
H31 C30 1_555 1_555
C31 N3 1_555 1_555
C32 C31 1_555 1_555
H32 C32 1_555 1_555
H33 C32 1_555 1_555
C33 C32 1_555 1_555
H34 C33 1_555 1_555
C34 C33 1_555 1_555
C35 C34 1_555 1_555
H35 C35 1_555 1_555
C36 C35 1_555 1_555
H36 C36 1_555 1_555
C37 C36 1_555 1_555
H37 C37 1_555 1_555
C38 C37 1_555 1_555
H38 C38 1_555 1_555
C39 C34 1_555 1_555
H39 C39 1_555 1_555
C40 Si2 1_555 1_555
H40 C40 1_555 1_555
H41 C40 1_555 1_555
H42 C40 1_555 1_555
C41 Si2 1_555 1_555
H43 C41 1_555 1_555
H44 C41 1_555 1_555
H45 C41 1_555 1_555
C42 Si2 1_555 1_555
H46 C42 1_555 1_555
H47 C42 1_555 1_555
H48 C42 1_555 1_555
C5 C6 1_555 1_555
C8 C9 1_555 1_555
C10 C11 1_555 1_555
C13 C14 1_555 1_555
C17 C18 1_555 1_555
C26 C27 1_555 1_555
C29 C30 1_555 1_555
C38 C39 1_555 1_555

#END
