
#######################################################################
#
#                 Cambridge Crystallographic Data Centre
#                                CCDC 
#
#######################################################################
#
# If this CIF has been generated from an entry in the Cambridge 
# Structural Database, then it will include bibliographic, chemical, 
# crystal, experimental, refinement or atomic coordinate data resulting 
# from the CCDC's data processing and validation procedures.
#
#######################################################################

data_OYESIW02
_chemical_formula_moiety         'C26 H29 N3 O3 Si1'
_chemical_name_systematic        
2-(1,3-dioxo-1,3-dihydro-2H-isoindol-2-yl)-N-(quinolin-8-yl)-3-((trimethylsilyl)methyl)pentanamide
_symmetry_cell_setting           monoclinic
_symmetry_space_group_name_H-M   'C 2'
_symmetry_Int_Tables_number      5
_space_group_name_Hall           'C 2y'
loop_
_symmetry_equiv_pos_site_id
_symmetry_equiv_pos_as_xyz
1 x,y,z
2 -x,y,-z
3 1/2+x,1/2+y,z
4 1/2-x,1/2+y,-z
_cell_length_a                   40.8407(9)
_cell_length_b                   11.7200(3)
_cell_length_c                   10.6590(2)
_cell_angle_alpha                90
_cell_angle_beta                 102.7310(10)
_cell_angle_gamma                90
_cell_volume                     4976.53
_exptl_crystal_colour            colorless
_exptl_crystal_description       block
_cell_formula_units_Z            8
loop_
_atom_site_label
_atom_site_type_symbol
_atom_site_fract_x
_atom_site_fract_y
_atom_site_fract_z
Si1 Si 0.45706(3) 0.67956(13) 0.67856(14)
C1 C 0.36549(9) 0.6945(4) 1.1796(4)
O1 O 0.35524(9) 0.9552(3) 1.0136(3)
N1 N 0.37105(8) 0.7695(3) 0.9850(3)
C2 C 0.35745(10) 0.8098(3) 1.1799(4)
O2 O 0.37952(9) 0.5745(3) 1.0130(3)
N2 N 0.32146(8) 0.8125(3) 0.7423(4)
H1 H 0.3252 0.8762 0.7870
O3 O 0.34774(7) 0.6503(3) 0.6990(3)
C3 C 0.34806(11) 0.8600(4) 1.2826(5)
H2 H 0.3418 0.9382 1.2809
N3 N 0.27883(9) 0.9722(3) 0.7733(4)
C4 C 0.34811(11) 0.7918(4) 1.3893(5)
H3 H 0.3421 0.8243 1.4627
C5 C 0.35671(10) 0.6774(4) 1.3911(4)
H4 H 0.3568 0.6331 1.4658
C6 C 0.36530(11) 0.6263(4) 1.2843(4)
H5 H 0.3708 0.5475 1.2841
C7 C 0.37833(10) 0.7840(4) 0.8572(4)
H6 H 0.3797 0.8680 0.8427
C8 C 0.36078(11) 0.8595(4) 1.0548(4)
C9 C 0.37338(10) 0.6661(4) 1.0540(4)
C10 C 0.41224(10) 0.7334(4) 0.8469(4)
H7 H 0.4108 0.6489 0.8574
C11 C 0.44027(11) 0.7773(4) 0.9564(5)
H8 H 0.4352 0.7533 1.0391
H9 H 0.4615 0.7401 0.9495
C12 C 0.34806(10) 0.7399(4) 0.7570(4)
C13 C 0.49591(12) 0.7691(6) 0.7296(6)
H10 H 0.5154 0.7269 0.7143
H11 H 0.4993 0.7870 0.8214
H12 H 0.4933 0.8401 0.6799
C14 C 0.44952(13) 0.6537(5) 0.5025(5)
H13 H 0.4441 0.7260 0.4565
H14 H 0.4308 0.6005 0.4766
H15 H 0.4698 0.6210 0.4816
C15 C 0.46276(16) 0.5386(5) 0.7626(7)
H16 H 0.4417 0.4956 0.7414
H17 H 0.4691 0.5509 0.8558
H18 H 0.4804 0.4954 0.7348
C16 C 0.41931(10) 0.7555(4) 0.7136(4)
H19 H 0.4224 0.8385 0.7041
H20 H 0.3993 0.7325 0.6478
C17 C 0.44561(14) 0.9058(5) 0.9600(6)
H21 H 0.4505 0.9311 0.8785
H22 H 0.4645 0.9252 1.0310
H23 H 0.4252 0.9439 0.9730
C18 C 0.28899(10) 0.8005(3) 0.6666(4)
C19 C 0.26638(11) 0.8893(4) 0.6862(4)
C20 C 0.23275(11) 0.8869(4) 0.6166(5)
C21 C 0.22207(11) 0.7964(4) 0.5288(5)
H24 H 0.1995 0.7936 0.4811
C22 C 0.24425(11) 0.7133(4) 0.5126(5)
H25 H 0.2367 0.6530 0.4539
C23 C 0.27794(11) 0.7145(4) 0.5805(5)
H26 H 0.2929 0.6562 0.5667
C24 C 0.25785(12) 1.0511(4) 0.7938(5)
H27 H 0.2662 1.1091 0.8546
C25 C 0.22399(12) 1.0553(4) 0.7320(5)
H28 H 0.2099 1.1140 0.7519
C26 C 0.21134(11) 0.9742(4) 0.6430(5)
H29 H 0.1884 0.9763 0.5992
Si2 Si 0.44816(3) 0.25316(14) 0.18240(15)
O4 O 0.38871(9) 0.4363(2) 0.5286(3)
N4 N 0.37367(8) 0.2487(3) 0.4837(3)
O5 O 0.35286(9) 0.0657(3) 0.4981(3)
N5 N 0.32438(8) 0.1966(3) 0.2465(4)
H30 H 0.3286 0.1367 0.2975
N6 N 0.28197(9) 0.0333(3) 0.2784(4)
O6 O 0.34923(8) 0.3537(3) 0.1816(3)
C27 C 0.36852(10) 0.3161(3) 0.6824(4)
C28 C 0.36767(11) 0.3820(4) 0.7891(4)
H31 H 0.3744 0.4598 0.7944
C29 C 0.35647(11) 0.3281(4) 0.8886(5)
H32 H 0.3560 0.3699 0.9645
C30 C 0.34605(11) 0.2156(4) 0.8798(5)
H33 H 0.3383 0.1822 0.9492
C31 C 0.34662(11) 0.1503(4) 0.7713(5)
H34 H 0.3394 0.0730 0.7650
C32 C 0.35820(10) 0.2030(3) 0.6724(4)
C33 C 0.37856(10) 0.3470(3) 0.5613(4)
C34 C 0.36065(10) 0.1589(3) 0.5452(4)
C35 C 0.38193(10) 0.2470(4) 0.3568(4)
H35 H 0.3972 0.3134 0.3555
C36 C 0.40174(11) 0.1406(4) 0.3313(4)
H36 H 0.3861 0.0740 0.3211
C37 C 0.43096(12) 0.1153(4) 0.4456(5)
H37 H 0.4481 0.1759 0.4514
H38 H 0.4226 0.1168 0.5260
C38 C 0.44723(16) -0.0006(5) 0.4336(7)
H39 H 0.4302 -0.0607 0.4253
H40 H 0.4650 -0.0146 0.5104
H41 H 0.4569 -0.0008 0.3573
C39 C 0.41338(12) 0.1547(4) 0.2037(5)
H42 H 0.3933 0.1773 0.1382
H43 H 0.4197 0.0776 0.1794
C40 C 0.44187(18) 0.4026(6) 0.2315(9)
H44 H 0.4577 0.4530 0.2015
H45 H 0.4457 0.4068 0.3254
H46 H 0.4188 0.4266 0.1934
C41 C 0.49066(13) 0.2010(7) 0.2659(7)
H47 H 0.4931 0.1208 0.2438
H48 H 0.4932 0.2082 0.3591
H49 H 0.5079 0.2467 0.2385
C42 C 0.44759(17) 0.2499(8) 0.0055(6)
H50 H 0.4526 0.1725 -0.0194
H51 H 0.4645 0.3029 -0.0128
H52 H 0.4253 0.2727 -0.0434
C43 C 0.35030(10) 0.2711(4) 0.2521(4)
C44 C 0.29190(10) 0.2039(4) 0.1694(4)
C45 C 0.26939(10) 0.1148(4) 0.1898(4)
C46 C 0.23566(10) 0.1170(4) 0.1222(4)
C47 C 0.22457(11) 0.2056(4) 0.0330(5)
H53 H 0.2019 0.2071 -0.0141
C48 C 0.24635(12) 0.2887(4) 0.0144(5)
H54 H 0.2385 0.3483 -0.0450
C49 C 0.28017(11) 0.2882(4) 0.0814(5)
H55 H 0.2949 0.3464 0.0657
C50 C 0.26128(12) -0.0464(4) 0.3019(5)
H56 H 0.2698 -0.1029 0.3644
C51 C 0.22712(12) -0.0518(4) 0.2387(5)
H57 H 0.2132 -0.1110 0.2581
C52 C 0.21446(11) 0.0288(4) 0.1496(5)
H58 H 0.1915 0.0261 0.1059
loop_
_geom_bond_atom_site_label_1
_geom_bond_atom_site_label_2
_geom_bond_site_symmetry_1
_geom_bond_site_symmetry_2
Si1 C13 1_555 1_555
C1 C2 1_555 1_555
O1 C8 1_555 1_555
N1 C7 1_555 1_555
C2 C3 1_555 1_555
O2 C9 1_555 1_555
N2 H1 1_555 1_555
O3 C12 1_555 1_555
C3 H2 1_555 1_555
N3 C19 1_555 1_555
C4 C3 1_555 1_555
H3 C4 1_555 1_555
C5 C4 1_555 1_555
H4 C5 1_555 1_555
C6 C1 1_555 1_555
H5 C6 1_555 1_555
C7 H6 1_555 1_555
C8 N1 1_555 1_555
C9 C1 1_555 1_555
C10 C7 1_555 1_555
H7 C10 1_555 1_555
C11 C10 1_555 1_555
H8 C11 1_555 1_555
H9 C11 1_555 1_555
C12 N2 1_555 1_555
C13 H10 1_555 1_555
H11 C13 1_555 1_555
H12 C13 1_555 1_555
C14 Si1 1_555 1_555
H13 C14 1_555 1_555
H14 C14 1_555 1_555
H15 C14 1_555 1_555
C15 Si1 1_555 1_555
H16 C15 1_555 1_555
H17 C15 1_555 1_555
H18 C15 1_555 1_555
C16 Si1 1_555 1_555
H19 C16 1_555 1_555
H20 C16 1_555 1_555
C17 C11 1_555 1_555
H21 C17 1_555 1_555
H22 C17 1_555 1_555
H23 C17 1_555 1_555
C18 N2 1_555 1_555
C19 C18 1_555 1_555
C20 C19 1_555 1_555
C21 C20 1_555 1_555
H24 C21 1_555 1_555
C22 C21 1_555 1_555
H25 C22 1_555 1_555
C23 C18 1_555 1_555
H26 C23 1_555 1_555
C24 N3 1_555 1_555
H27 C24 1_555 1_555
C25 C24 1_555 1_555
H28 C25 1_555 1_555
C26 C20 1_555 1_555
H29 C26 1_555 1_555
Si2 C39 1_555 1_555
O4 C33 1_555 1_555
N4 C33 1_555 1_555
O5 C34 1_555 1_555
N5 H30 1_555 1_555
N6 C45 1_555 1_555
O6 C43 1_555 1_555
C27 C28 1_555 1_555
C28 H31 1_555 1_555
C29 C28 1_555 1_555
H32 C29 1_555 1_555
C30 C29 1_555 1_555
H33 C30 1_555 1_555
C31 C30 1_555 1_555
H34 C31 1_555 1_555
C32 C27 1_555 1_555
C33 C27 1_555 1_555
C34 N4 1_555 1_555
C35 N4 1_555 1_555
H35 C35 1_555 1_555
C36 C35 1_555 1_555
H36 C36 1_555 1_555
C37 C36 1_555 1_555
H37 C37 1_555 1_555
H38 C37 1_555 1_555
C38 C37 1_555 1_555
H39 C38 1_555 1_555
H40 C38 1_555 1_555
H41 C38 1_555 1_555
C39 C36 1_555 1_555
H42 C39 1_555 1_555
H43 C39 1_555 1_555
C40 Si2 1_555 1_555
H44 C40 1_555 1_555
H45 C40 1_555 1_555
H46 C40 1_555 1_555
C41 Si2 1_555 1_555
H47 C41 1_555 1_555
H48 C41 1_555 1_555
H49 C41 1_555 1_555
C42 Si2 1_555 1_555
H50 C42 1_555 1_555
H51 C42 1_555 1_555
H52 C42 1_555 1_555
C43 N5 1_555 1_555
C44 N5 1_555 1_555
C45 C44 1_555 1_555
C46 C45 1_555 1_555
C47 C46 1_555 1_555
H53 C47 1_555 1_555
C48 C47 1_555 1_555
H54 C48 1_555 1_555
C49 C44 1_555 1_555
H55 C49 1_555 1_555
C50 N6 1_555 1_555
H56 C50 1_555 1_555
C51 C50 1_555 1_555
H57 C51 1_555 1_555
C52 C46 1_555 1_555
H58 C52 1_555 1_555
N1 C9 1_555 1_555
C2 C8 1_555 1_555
C5 C6 1_555 1_555
C7 C12 1_555 1_555
C10 C16 1_555 1_555
C22 C23 1_555 1_555
C25 C26 1_555 1_555
C31 C32 1_555 1_555
C32 C34 1_555 1_555
C35 C43 1_555 1_555
C48 C49 1_555 1_555
C51 C52 1_555 1_555

#END
