
#######################################################################
#
#                 Cambridge Crystallographic Data Centre
#                                CCDC 
#
#######################################################################
#
# If this CIF has been generated from an entry in the Cambridge 
# Structural Database, then it will include bibliographic, chemical, 
# crystal, experimental, refinement or atomic coordinate data resulting 
# from the CCDC's data processing and validation procedures.
#
#######################################################################

data_OYETOD
_chemical_formula_moiety         'C17 H11 N1 S1'
_chemical_name_systematic        2-(1-naphthyl)-1,3-benzothiazole
_symmetry_cell_setting           orthorhombic
_symmetry_space_group_name_H-M   'P 21 21 21'
_symmetry_Int_Tables_number      19
_space_group_name_Hall           'P 2ac 2ab'
loop_
_symmetry_equiv_pos_site_id
_symmetry_equiv_pos_as_xyz
1 x,y,z
2 1/2-x,-y,1/2+z
3 -x,1/2+y,1/2-z
4 1/2+x,1/2-y,-z
_cell_length_a                   7.9994(7)
_cell_length_b                   12.0871(10)
_cell_length_c                   13.0874(11)
_cell_angle_alpha                90
_cell_angle_beta                 90
_cell_angle_gamma                90
_cell_volume                     1265.41
_exptl_crystal_colour            colorless
_exptl_crystal_description       block
_cell_formula_units_Z            4
loop_
_atom_site_label
_atom_site_type_symbol
_atom_site_fract_x
_atom_site_fract_y
_atom_site_fract_z
C1 C 0.7278(2) 0.58226(14) 0.56462(14)
C2 C 0.6365(2) 0.42888(16) 0.63803(15)
C3 C 0.5555(2) 0.36149(17) 0.70986(17)
H1 H 0.5032 0.3931 0.7681
C4 C 0.5530(3) 0.24877(18) 0.69455(18)
H2 H 0.4979 0.2024 0.7425
C5 C 0.6306(3) 0.20186(17) 0.60904(18)
H3 H 0.6282 0.1238 0.6004
C6 C 0.7104(3) 0.26598(16) 0.53716(17)
H4 H 0.7631 0.2335 0.4795
C7 C 0.7113(3) 0.38058(15) 0.55180(14)
C8 C 0.7571(2) 0.70068(14) 0.54308(14)
C9 C 0.7283(2) 0.74003(16) 0.44640(15)
H5 H 0.6943 0.6902 0.3943
C10 C 0.7482(2) 0.85302(17) 0.42295(16)
H6 H 0.7250 0.8790 0.3559
C11 C 0.8007(3) 0.92499(15) 0.49614(16)
H7 H 0.8124 1.0012 0.4798
C12 C 0.8381(2) 0.88820(15) 0.59614(15)
C13 C 0.9035(2) 0.96070(17) 0.67111(18)
H8 H 0.9142 1.0372 0.6558
C14 C 0.9517(3) 0.92301(19) 0.76511(17)
H9 H 0.9964 0.9728 0.8142
C15 C 0.9346(3) 0.81017(19) 0.78861(16)
H10 H 0.9707 0.7838 0.8533
C16 C 0.8669(2) 0.73752(16) 0.71988(15)
H11 H 0.8531 0.6621 0.7384
C17 C 0.8171(2) 0.77365(15) 0.62136(15)
N1 N 0.64958(19) 0.54346(13) 0.64383(12)
S1 S 0.79736(6) 0.48328(4) 0.47584(4)
loop_
_geom_bond_atom_site_label_1
_geom_bond_atom_site_label_2
_geom_bond_site_symmetry_1
_geom_bond_site_symmetry_2
C1 C8 1_555 1_555
C2 C3 1_555 1_555
C3 H1 1_555 1_555
C4 C3 1_555 1_555
H2 C4 1_555 1_555
C5 C4 1_555 1_555
H3 C5 1_555 1_555
C6 C5 1_555 1_555
H4 C6 1_555 1_555
C7 C2 1_555 1_555
C8 C9 1_555 1_555
C9 H5 1_555 1_555
C10 C9 1_555 1_555
H6 C10 1_555 1_555
C11 C10 1_555 1_555
H7 C11 1_555 1_555
C12 C11 1_555 1_555
C13 C12 1_555 1_555
H8 C13 1_555 1_555
C14 C13 1_555 1_555
H9 C14 1_555 1_555
C15 C14 1_555 1_555
H10 C15 1_555 1_555
C16 C15 1_555 1_555
H11 C16 1_555 1_555
C17 C8 1_555 1_555
N1 C1 1_555 1_555
S1 C1 1_555 1_555
C2 N1 1_555 1_555
C6 C7 1_555 1_555
C7 S1 1_555 1_555
C12 C17 1_555 1_555
C16 C17 1_555 1_555

#END
