
#######################################################################
#
#                 Cambridge Crystallographic Data Centre
#                                CCDC 
#
#######################################################################
#
# If this CIF has been generated from an entry in the Cambridge 
# Structural Database, then it will include bibliographic, chemical, 
# crystal, experimental, refinement or atomic coordinate data resulting 
# from the CCDC's data processing and validation procedures.
#
#######################################################################

data_OYEVAR
_chemical_compound_source        plant
_chemical_name_common            'viscoterpene B'
_chemical_formula_moiety         'C22 H30 O5'
_chemical_name_systematic        
'methyl 2-methoxy-5,6-dimethyl-5-(2-(2-oxo-2,5-dihydrofuran-3-yl)ethyl)-2,4a,5,6,7,8-hexahydrocyclopropa[d]naphthalene-1a(1H)-carboxylate'
_symmetry_cell_setting           orthorhombic
_symmetry_space_group_name_H-M   'P 21 21 21'
_symmetry_Int_Tables_number      19
_space_group_name_Hall           'P 2ac 2ab'
loop_
_symmetry_equiv_pos_site_id
_symmetry_equiv_pos_as_xyz
1 x,y,z
2 1/2+x,1/2-y,-z
3 -x,1/2+y,1/2-z
4 1/2-x,-y,1/2+z
_cell_length_a                   6.52700(10)
_cell_length_b                   7.35730(10)
_cell_length_c                   41.3822(5)
_cell_angle_alpha                90
_cell_angle_beta                 90
_cell_angle_gamma                90
_cell_volume                     1987.22
_exptl_crystal_colour            colorless
_exptl_crystal_description       block
_chemical_melting_point          '449.3-450.3 K'
_cell_formula_units_Z            4
_chemical_properties_physical    Efflorescent
loop_
_atom_site_label
_atom_site_type_symbol
_atom_site_fract_x
_atom_site_fract_y
_atom_site_fract_z
O1 O 0.51556(18) 0.91639(14) 0.92130(3)
O2 O 0.3407(2) 0.5330(2) 0.98318(3)
O3 O 0.64519(18) 0.50234(16) 0.95904(3)
O4 O 0.7310(2) 0.2029(4) 0.76946(4)
O5 O 0.5463(2) 0.2065(3) 0.72432(3)
C1 C 0.3522(2) 0.6301(2) 0.85724(3)
H1 H 0.3179 0.6544 0.8354
C2 C 0.4547(2) 0.7549(2) 0.87366(3)
H2 H 0.4914 0.8636 0.8627
C3 C 0.5167(2) 0.73579(19) 0.90837(3)
H3 H 0.6594 0.6867 0.9094
C4 C 0.3749(2) 0.6087(2) 0.92690(3)
C5 C 0.2503(2) 0.46700(19) 0.90803(3)
C6 C 0.2139(3) 0.2826(2) 0.92319(3)
H4 H 0.1806 0.2980 0.9464
H5 H 0.3404 0.2088 0.9216
C7 C 0.0395(3) 0.1840(2) 0.90642(4)
H6 H -0.0902 0.2493 0.9108
H7 H 0.0269 0.0602 0.9156
C8 C 0.0708(2) 0.1697(2) 0.86993(4)
H8 H 0.1999 0.0991 0.8665
C9 C 0.1037(2) 0.35916(19) 0.85402(3)
C10 C 0.2876(2) 0.45150(19) 0.87168(3)
H9 H 0.4068 0.3675 0.8690
C11 C 0.1472(2) 0.3390(2) 0.81744(3)
H10 H 0.0288 0.2766 0.8074
H11 H 0.1546 0.4623 0.8079
C12 C 0.3414(3) 0.2363(3) 0.80787(4)
H12 H 0.4620 0.2984 0.8172
H13 H 0.3359 0.1118 0.8169
C13 C 0.3656(3) 0.2254(2) 0.77195(4)
C14 C 0.2304(3) 0.2279(4) 0.74833(4)
H14 H 0.0864 0.2368 0.7513
C15 C 0.3337(3) 0.2147(4) 0.71658(4)
H15 H 0.2898 0.1040 0.7049
H16 H 0.3031 0.3225 0.7031
C16 C 0.5671(3) 0.2113(3) 0.75707(4)
C17 C -0.1028(3) 0.0588(2) 0.85489(5)
H17 H -0.1100 -0.0604 0.8654
H18 H -0.0767 0.0427 0.8317
H19 H -0.2330 0.1230 0.8579
C18 C 0.4456(3) 0.5470(2) 0.95946(3)
C19 C 0.1474(2) 0.6304(2) 0.92228(3)
H20 H 0.0582 0.6113 0.9413
H21 H 0.1000 0.7262 0.9072
C20 C -0.0894(2) 0.4768(2) 0.85687(4)
H22 H -0.0591 0.6004 0.8494
H23 H -0.1339 0.4807 0.8795
H24 H -0.1987 0.4246 0.8435
C21 C 0.7311(3) 0.4485(3) 0.98979(4)
H25 H 0.7085 0.5452 1.0057
H26 H 0.8784 0.4271 0.9873
H27 H 0.6644 0.3366 0.9972
C22 C 0.6292(3) 0.9369(2) 0.95039(4)
H28 H 0.5598 0.8718 0.9679
H29 H 0.6390 1.0662 0.9559
H30 H 0.7671 0.8869 0.9474
loop_
_geom_bond_atom_site_label_1
_geom_bond_atom_site_label_2
_geom_bond_site_symmetry_1
_geom_bond_site_symmetry_2
O1 C3 1_555 1_555
O2 C18 1_555 1_555
O3 C18 1_555 1_555
O4 C16 1_555 1_555
O5 C15 1_555 1_555
C1 H1 1_555 1_555
C2 C1 1_555 1_555
H2 C2 1_555 1_555
C3 C2 1_555 1_555
H3 C3 1_555 1_555
C4 C3 1_555 1_555
C5 C4 1_555 1_555
C6 C5 1_555 1_555
H4 C6 1_555 1_555
H5 C6 1_555 1_555
C7 C6 1_555 1_555
H6 C7 1_555 1_555
H7 C7 1_555 1_555
C8 C7 1_555 1_555
H8 C8 1_555 1_555
C9 C8 1_555 1_555
C10 C1 1_555 1_555
H9 C10 1_555 1_555
C11 C9 1_555 1_555
H10 C11 1_555 1_555
H11 C11 1_555 1_555
C12 C11 1_555 1_555
H12 C12 1_555 1_555
H13 C12 1_555 1_555
C13 C12 1_555 1_555
C14 C13 1_555 1_555
H14 C14 1_555 1_555
C15 C14 1_555 1_555
H15 C15 1_555 1_555
H16 C15 1_555 1_555
C16 O5 1_555 1_555
C17 C8 1_555 1_555
H17 C17 1_555 1_555
H18 C17 1_555 1_555
H19 C17 1_555 1_555
C18 C4 1_555 1_555
C19 C4 1_555 1_555
H20 C19 1_555 1_555
H21 C19 1_555 1_555
C20 C9 1_555 1_555
H22 C20 1_555 1_555
H23 C20 1_555 1_555
H24 C20 1_555 1_555
C21 O3 1_555 1_555
H25 C21 1_555 1_555
H26 C21 1_555 1_555
H27 C21 1_555 1_555
C22 O1 1_555 1_555
H28 C22 1_555 1_555
H29 C22 1_555 1_555
H30 C22 1_555 1_555
C5 C10 1_555 1_555
C5 C19 1_555 1_555
C9 C10 1_555 1_555
C13 C16 1_555 1_555

#END
