
#######################################################################
#
#                 Cambridge Crystallographic Data Centre
#                                CCDC 
#
#######################################################################
#
# If this CIF has been generated from an entry in the Cambridge 
# Structural Database, then it will include bibliographic, chemical, 
# crystal, experimental, refinement or atomic coordinate data resulting 
# from the CCDC's data processing and validation procedures.
#
#######################################################################

data_OYEWOG
_chemical_formula_moiety         '0.61(C3 H1 Cl3 N2),0.39(C4 H4 Cl2 N2)'
_chemical_name_systematic        
'2,4,5-trichloro-1H-imidazole 4,5-dichloro-2-methyl-1H-imidazole'
_symmetry_cell_setting           orthorhombic
_symmetry_space_group_name_H-M   'A m a 2'
_symmetry_Int_Tables_number      40
_space_group_name_Hall           'A 2 -2a'
loop_
_symmetry_equiv_pos_site_id
_symmetry_equiv_pos_as_xyz
1 x,y,z
2 -x,-y,z
3 1/2-x,y,z
4 1/2+x,-y,z
5 x,1/2+y,1/2+z
6 -x,1/2-y,1/2+z
7 1/2-x,1/2+y,1/2+z
8 1/2+x,1/2-y,1/2+z
_cell_length_a                   9.9471(8)
_cell_length_b                   16.0705(11)
_cell_length_c                   3.7773(3)
_cell_angle_alpha                90
_cell_angle_beta                 90
_cell_angle_gamma                90
_cell_volume                     603.82
_exptl_crystal_colour            colorless
_exptl_crystal_description       needle
_cell_formula_units_Z            4
loop_
_atom_site_label
_atom_site_type_symbol
_atom_site_fract_x
_atom_site_fract_y
_atom_site_fract_z
Cl1 Cl 0.7500 0.3790(3) 0.7522(18)
Cl2 Cl 0.57329(6) 0.67398(4) 0.2247(5)
N1 N 0.6381(3) 0.52301(19) 0.5071(10)
C1 C 0.7500 0.4804(3) 0.5830(14)
C2 C 0.6813(3) 0.5972(2) 0.3693(10)
Cl2B Cl 0.92671(6) 0.67398(4) 0.2247(5)
N1B N 0.8619(3) 0.52301(19) 0.5071(10)
C2B C 0.8187(3) 0.5972(2) 0.3693(10)
C3? C 0.7500 0.391(3) 0.727(16)
H1? H 0.8367 0.3796 0.8399
H2? H 0.7354 0.3521 0.5323
H3? H 0.6778 0.3851 0.9020
H4? H 0.5545 0.5068 0.5389
loop_
_geom_bond_atom_site_label_1
_geom_bond_atom_site_label_2
_geom_bond_site_symmetry_1
_geom_bond_site_symmetry_2
Cl1 C1 1_555 1_555
Cl2 C2 1_555 1_555
N1 C1 1_555 1_555
C1 N1B 1_555 1_555
C2 N1 1_555 1_555
Cl2B C2B 1_555 1_555
N1B C2B 1_555 1_555
C2B C2 1_555 1_555

#END
