
#######################################################################
#
#                 Cambridge Crystallographic Data Centre
#                                CCDC 
#
#######################################################################
#
# If this CIF has been generated from an entry in the Cambridge 
# Structural Database, then it will include bibliographic, chemical, 
# crystal, experimental, refinement or atomic coordinate data resulting 
# from the CCDC's data processing and validation procedures.
#
#######################################################################

data_OYEXOH
_chemical_formula_moiety         '0.4(C4 H4 Br2 N2),0.6(C3 H1 Cl3 N2)'
_chemical_name_systematic        4,5-dibromo-2-chloro-1H-imidazole
_symmetry_cell_setting           orthorhombic
_symmetry_space_group_name_H-M   'A m a 2'
_symmetry_Int_Tables_number      40
_space_group_name_Hall           'A 2 -2a'
loop_
_symmetry_equiv_pos_site_id
_symmetry_equiv_pos_as_xyz
1 x,y,z
2 -x,-y,z
3 1/2-x,y,z
4 1/2+x,-y,z
5 x,1/2+y,1/2+z
6 -x,1/2-y,1/2+z
7 1/2-x,1/2+y,1/2+z
8 1/2+x,1/2-y,1/2+z
_cell_length_a                   9.9970(8)
_cell_length_b                   16.3862(14)
_cell_length_c                   3.8772(4)
_cell_angle_alpha                90
_cell_angle_beta                 90
_cell_angle_gamma                90
_cell_volume                     635.135
_exptl_crystal_colour            colorless
_exptl_crystal_description       needle
_cell_formula_units_Z            4
loop_
_atom_site_label
_atom_site_type_symbol
_atom_site_fract_x
_atom_site_fract_y
_atom_site_fract_z
Cl1 Cl 0.7500 0.6164(3) 0.974(3)
N1 N 0.6392(3) 0.4782(2) 0.7301(13)
C1 C 0.7500 0.5197(4) 0.8105(18)
C2 C 0.6824(4) 0.4060(3) 0.5931(13)
Cl2 Cl 0.5783(18) 0.3273(14) 0.462(5)
N1B N 0.8608(3) 0.4782(2) 0.7301(13)
C2B C 0.8176(4) 0.4060(3) 0.5931(13)
Cl2B Cl 0.9217(18) 0.3273(14) 0.462(5)
C3? C 0.7500 0.602(3) 0.97(3)
H1? H 0.7205 0.6416 0.7941
H2? H 0.8406 0.6152 1.0429
H3? H 0.6889 0.6024 1.1633
H4? H 0.5559 0.4941 0.7593
Br1? Br 0.5665(5) 0.3273(4) 0.4305(12)
loop_
_geom_bond_atom_site_label_1
_geom_bond_atom_site_label_2
_geom_bond_site_symmetry_1
_geom_bond_site_symmetry_2
Cl1 C1 1_555 1_555
N1 C1 1_555 1_555
C1 N1B 1_555 1_555
C2 N1 1_555 1_555
Cl2 C2 1_555 1_555
N1B C2B 1_555 1_555
C2B C2 1_555 1_555
Cl2B C2B 1_555 1_555

#END
