
#######################################################################
#
#                 Cambridge Crystallographic Data Centre
#                                CCDC 
#
#######################################################################
#
# If this CIF has been generated from an entry in the Cambridge 
# Structural Database, then it will include bibliographic, chemical, 
# crystal, experimental, refinement or atomic coordinate data resulting 
# from the CCDC's data processing and validation procedures.
#
#######################################################################

data_OYEYIC01
_chemical_formula_moiety         'C4 H4 I2 N2'
_chemical_name_systematic        4,5-diiodo-2-methyl-1H-imidazole
_symmetry_cell_setting           orthorhombic
_symmetry_space_group_name_H-M   'A m a 2'
_symmetry_Int_Tables_number      40
_space_group_name_Hall           'A 2 -2a'
loop_
_symmetry_equiv_pos_site_id
_symmetry_equiv_pos_as_xyz
1 x,y,z
2 -x,-y,z
3 1/2+x,-y,z
4 1/2-x,y,z
5 x,1/2+y,1/2+z
6 -x,1/2-y,1/2+z
7 1/2+x,1/2-y,1/2+z
8 1/2-x,1/2+y,1/2+z
_cell_length_a                   10.1862(2)
_cell_length_b                   17.5316(3)
_cell_length_c                   4.32740(10)
_cell_angle_alpha                90
_cell_angle_beta                 90
_cell_angle_gamma                90
_cell_volume                     772.789
_exptl_crystal_colour            colorless
_exptl_crystal_description       needle
_cell_formula_units_Z            4
loop_
_atom_site_label
_atom_site_type_symbol
_atom_site_fract_x
_atom_site_fract_y
_atom_site_fract_z
I1 I 0.56036(2) 0.33128(2) -0.1197(3)
N1 N 0.6404(3) 0.47965(16) 0.1987(7)
C1 C 0.6827(3) 0.41317(19) 0.0594(9)
C2 C 0.7500 0.5177(3) 0.2807(12)
C3 C 0.7500 0.5927(3) 0.4427(13)
I1C I 0.93964(2) 0.33128(2) -0.1197(3)
N1C N 0.8596(3) 0.47965(16) 0.1987(7)
C1C C 0.8173(3) 0.41317(19) 0.0594(9)
H1? H 0.5586 0.4942 0.2280
H2? H 0.7209 0.5856 0.6567
H3? H 0.6901 0.6278 0.3367
H4? H 0.8389 0.6140 0.4414
loop_
_geom_bond_atom_site_label_1
_geom_bond_atom_site_label_2
_geom_bond_site_symmetry_1
_geom_bond_site_symmetry_2
I1 C1 1_555 1_555
N1 C1 1_555 1_555
C1 C1C 1_555 1_555
C2 N1 1_555 1_555
C3 C2 1_555 1_555
I1C C1C 1_555 1_555
N1C C2 1_555 1_555
C1C N1C 1_555 1_555

#END
