
#######################################################################
#
#                 Cambridge Crystallographic Data Centre
#                                CCDC 
#
#######################################################################
#
# If this CIF has been generated from an entry in the Cambridge 
# Structural Database, then it will include bibliographic, chemical, 
# crystal, experimental, refinement or atomic coordinate data resulting 
# from the CCDC's data processing and validation procedures.
#
#######################################################################

data_OYEZOI
_chemical_formula_moiety         'H1 F2 1-,C34 H43 N2 O2 1+,2(C1 H2 Cl2)'
_chemical_name_systematic        
'1,3-bis(2,6-Di-isopropylphenyl)-2-(4-methoxyphenoxy)imidazolium hydrogen difluoride dichloromethane solvate'
_symmetry_cell_setting           monoclinic
_symmetry_space_group_name_H-M   'P 21/n'
_symmetry_Int_Tables_number      14
_space_group_name_Hall           '-P 2yn'
loop_
_symmetry_equiv_pos_site_id
_symmetry_equiv_pos_as_xyz
1 x,y,z
2 1/2-x,1/2+y,1/2-z
3 -x,-y,-z
4 1/2+x,1/2-y,1/2+z
_cell_length_a                   12.3348(9)
_cell_length_b                   13.9342(11)
_cell_length_c                   22.0311(17)
_cell_angle_alpha                90
_cell_angle_beta                 101.4030(10)
_cell_angle_gamma                90
_cell_volume                     3711.86
_exptl_crystal_colour            colorless
_exptl_crystal_description       plate
_cell_formula_units_Z            4
loop_
_atom_site_label
_atom_site_type_symbol
_atom_site_fract_x
_atom_site_fract_y
_atom_site_fract_z
O1 O 0.31357(12) 0.82029(11) 0.69147(7)
O2 O 0.39616(14) 0.80585(13) 0.94758(7)
N1 N 0.40950(14) 0.78173(12) 0.61380(8)
N2 N 0.35572(14) 0.66088(12) 0.66359(8)
C1 C 0.35968(16) 0.75672(15) 0.65990(9)
C2 C 0.43849(17) 0.69783(16) 0.58632(10)
H1 H 0.4750 0.6941 0.5523
C3 C 0.40525(17) 0.62309(16) 0.61684(10)
H2 H 0.4138 0.5570 0.6082
C4 C 0.33512(18) 0.81226(15) 0.75733(9)
C5 C 0.44269(18) 0.81484(16) 0.79043(10)
H3 H 0.5033 0.8181 0.7697
C6 C 0.46004(18) 0.81263(17) 0.85446(10)
H4 H 0.5333 0.8136 0.8782
C7 C 0.37032(19) 0.80905(16) 0.88421(10)
C8 C 0.26295(18) 0.80876(17) 0.85004(10)
H5 H 0.2018 0.8076 0.8704
C9 C 0.24577(18) 0.81017(16) 0.78574(10)
H6 H 0.1728 0.8097 0.7617
C10 C 0.3044(2) 0.8060(2) 0.97855(11)
H7 H 0.2601 0.7479 0.9674
H8 H 0.2585 0.8627 0.9660
H9 H 0.3318 0.8074 1.0234
C11 C 0.42552(18) 0.87999(15) 0.59521(9)
C12 C 0.33543(18) 0.92740(16) 0.55854(10)
C13 C 0.3529(2) 1.02190(17) 0.54241(10)
H10 H 0.2937 1.0568 0.5181
C14 C 0.4543(2) 1.06625(17) 0.56089(11)
H11 H 0.4642 1.1307 0.5490
C15 C 0.5409(2) 1.01696(17) 0.59652(11)
H12 H 0.6104 1.0480 0.6088
C16 C 0.52871(18) 0.92210(16) 0.61507(10)
C17 C 0.22584(19) 0.87718(18) 0.53605(11)
H13 H 0.2119 0.8344 0.5701
C18 C 0.2314(2) 0.8141(2) 0.48019(14)
H14 H 0.2443 0.8543 0.4458
H15 H 0.1614 0.7795 0.4677
H16 H 0.2920 0.7679 0.4912
C19 C 0.1279(2) 0.9457(2) 0.51969(12)
H17 H 0.1270 0.9892 0.5545
H18 H 0.0590 0.9088 0.5110
H19 H 0.1350 0.9832 0.4830
C20 C 0.62508(18) 0.87087(17) 0.65552(11)
H20 H 0.5974 0.8087 0.6693
C21 C 0.7153(2) 0.8485(2) 0.61856(15)
H21 H 0.6841 0.8090 0.5826
H22 H 0.7759 0.8138 0.6450
H23 H 0.7435 0.9087 0.6045
C22 C 0.6713(2) 0.9305(2) 0.71323(13)
H24 H 0.7034 0.9900 0.7009
H25 H 0.7286 0.8937 0.7407
H26 H 0.6115 0.9460 0.7350
C23 C 0.28947(17) 0.61161(15) 0.70150(10)
C24 C 0.34177(17) 0.57186(15) 0.75806(10)
C25 C 0.27307(19) 0.53682(16) 0.79606(10)
H27 H 0.3049 0.5102 0.8352
C26 C 0.15896(19) 0.54015(16) 0.77775(11)
H28 H 0.1137 0.5182 0.8051
C27 C 0.11056(18) 0.57499(16) 0.72009(11)
H29 H 0.0323 0.5738 0.7074
C28 C 0.17508(17) 0.61206(15) 0.68009(10)
C29 C 0.46704(18) 0.56412(16) 0.77561(10)
H30 H 0.4994 0.6215 0.7586
C30 C 0.50721(19) 0.47421(18) 0.74629(12)
H31 H 0.4835 0.4168 0.7658
H32 H 0.5881 0.4752 0.7525
H33 H 0.4756 0.4733 0.7018
C31 C 0.5111(2) 0.56151(18) 0.84553(11)
H34 H 0.4799 0.6152 0.8651
H35 H 0.5919 0.5667 0.8539
H36 H 0.4896 0.5009 0.8624
C32 C 0.12028(18) 0.64944(17) 0.61665(10)
H37 H 0.1799 0.6741 0.5959
C33 C 0.0413(2) 0.73255(19) 0.62113(12)
H38 H -0.0196 0.7098 0.6400
H39 H 0.0115 0.7574 0.5796
H40 H 0.0813 0.7837 0.6467
C34 C 0.0609(2) 0.56791(19) 0.57669(12)
H41 H 0.1135 0.5161 0.5740
H42 H 0.0305 0.5922 0.5350
H43 H 0.0007 0.5433 0.5954
C35 C 0.6656(3) 0.5305(2) 0.57735(16)
H44 H 0.5962 0.4978 0.5816
H45 H 0.6468 0.5818 0.5460
Cl1 Cl 0.75485(9) 0.44730(8) 0.55240(7)
Cl2 Cl 0.72818(9) 0.58221(8) 0.64958(5)
C36 C 0.3675(3) 0.7297(2) 0.33931(16)
H46 H 0.3634 0.6592 0.3339
H47 H 0.3960 0.7436 0.3837
Cl3 Cl 0.45891(8) 0.77919(6) 0.29388(5)
Cl4 Cl 0.23469(6) 0.78027(6) 0.31588(4)
F1 F 0.45457(15) 0.29299(11) 0.52266(7)
F2 F 0.44671(14) 0.41540(12) 0.58892(8)
H48 H 0.456(3) 0.357(3) 0.5562(16)
C37? C 0.6618(15) 0.4809(18) 0.5493(9)
C38? C 0.3700(17) 0.808(2) 0.2580(12)
Cl5? Cl 0.6925(7) 0.5300(6) 0.6239(5)
Cl6? Cl 0.7857(8) 0.4416(6) 0.5275(4)
Cl7? Cl 0.2309(8) 0.8262(7) 0.2613(5)
Cl8? Cl 0.4148(9) 0.7367(8) 0.3297(5)
H49? H 0.6252 0.5298 0.5196
H50? H 0.6105 0.4261 0.5484
H51? H 0.4107 0.8698 0.2596
H52? H 0.3783 0.7721 0.2206
loop_
_geom_bond_atom_site_label_1
_geom_bond_atom_site_label_2
_geom_bond_site_symmetry_1
_geom_bond_site_symmetry_2
O1 C1 1_555 1_555
O2 C7 1_555 1_555
N1 C1 1_555 1_555
N2 C1 1_555 1_555
C2 N1 1_555 1_555
H1 C2 1_555 1_555
C3 N2 1_555 1_555
H2 C3 1_555 1_555
C4 O1 1_555 1_555
C5 C4 1_555 1_555
H3 C5 1_555 1_555
C6 C5 1_555 1_555
H4 C6 1_555 1_555
C7 C6 1_555 1_555
C8 C7 1_555 1_555
H5 C8 1_555 1_555
C9 C4 1_555 1_555
H6 C9 1_555 1_555
C10 O2 1_555 1_555
H7 C10 1_555 1_555
H8 C10 1_555 1_555
H9 C10 1_555 1_555
C11 N1 1_555 1_555
C12 C11 1_555 1_555
C13 C12 1_555 1_555
H10 C13 1_555 1_555
C14 C13 1_555 1_555
H11 C14 1_555 1_555
C15 C14 1_555 1_555
H12 C15 1_555 1_555
C16 C11 1_555 1_555
C17 C12 1_555 1_555
H13 C17 1_555 1_555
C18 C17 1_555 1_555
H14 C18 1_555 1_555
H15 C18 1_555 1_555
H16 C18 1_555 1_555
C19 C17 1_555 1_555
H17 C19 1_555 1_555
H18 C19 1_555 1_555
H19 C19 1_555 1_555
C20 C16 1_555 1_555
H20 C20 1_555 1_555
C21 C20 1_555 1_555
H21 C21 1_555 1_555
H22 C21 1_555 1_555
H23 C21 1_555 1_555
C22 C20 1_555 1_555
H24 C22 1_555 1_555
H25 C22 1_555 1_555
H26 C22 1_555 1_555
C23 N2 1_555 1_555
C24 C23 1_555 1_555
C25 C24 1_555 1_555
H27 C25 1_555 1_555
C26 C25 1_555 1_555
H28 C26 1_555 1_555
C27 C26 1_555 1_555
H29 C27 1_555 1_555
C28 C23 1_555 1_555
C29 C24 1_555 1_555
H30 C29 1_555 1_555
C30 C29 1_555 1_555
H31 C30 1_555 1_555
H32 C30 1_555 1_555
H33 C30 1_555 1_555
C31 C29 1_555 1_555
H34 C31 1_555 1_555
H35 C31 1_555 1_555
H36 C31 1_555 1_555
C32 C28 1_555 1_555
H37 C32 1_555 1_555
C33 C32 1_555 1_555
H38 C33 1_555 1_555
H39 C33 1_555 1_555
H40 C33 1_555 1_555
C34 C32 1_555 1_555
H41 C34 1_555 1_555
H42 C34 1_555 1_555
H43 C34 1_555 1_555
C35 H44 1_555 1_555
H45 C35 1_555 1_555
Cl1 C35 1_555 1_555
Cl2 C35 1_555 1_555
C36 H46 1_555 1_555
H47 C36 1_555 1_555
Cl3 C36 1_555 1_555
Cl4 C36 1_555 1_555
F1 H48 1_555 1_555
F2 H48 1_555 1_555
C2 C3 1_555 1_555
C8 C9 1_555 1_555
C15 C16 1_555 1_555
C27 C28 1_555 1_555

#END
