
#######################################################################
#
#                 Cambridge Crystallographic Data Centre
#                                CCDC 
#
#######################################################################
#
# If this CIF has been generated from an entry in the Cambridge 
# Structural Database, then it will include bibliographic, chemical, 
# crystal, experimental, refinement or atomic coordinate data resulting 
# from the CCDC's data processing and validation procedures.
#
#######################################################################

data_OYIGIO02
_chemical_formula_moiety         'C3 H2 N8 2-,2(C1 H7 N4 1+)'
_chemical_name_systematic        
"bis(amino(hydrazinyl)methaniminium) 5,5'-methylenebis(tetrazol-1-ide)"
_symmetry_cell_setting           monoclinic
_symmetry_space_group_name_H-M   'P 21'
_symmetry_Int_Tables_number      4
_space_group_name_Hall           'P 2yb'
loop_
_symmetry_equiv_pos_site_id
_symmetry_equiv_pos_as_xyz
1 x,y,z
2 -x,1/2+y,-z
_cell_length_a                   4.4701(14)
_cell_length_b                   17.557(6)
_cell_length_c                   8.400(3)
_cell_angle_alpha                90
_cell_angle_beta                 93.512(3)
_cell_angle_gamma                90
_cell_volume                     658.007
_exptl_crystal_colour            colorless
_exptl_crystal_description       Prism
_cell_formula_units_Z            2
loop_
_atom_site_label
_atom_site_type_symbol
_atom_site_fract_x
_atom_site_fract_y
_atom_site_fract_z
N1 N 0.9864(3) 0.24102(7) 0.56161(14)
N2 N 1.1058(3) 0.29996(7) 0.64564(15)
N3 N 1.0006(3) 0.36397(7) 0.58434(15)
N4 N 0.8056(3) 0.34850(7) 0.45877(15)
N5 N 0.9449(3) 0.23104(7) 0.08432(14)
N6 N 1.1226(3) 0.17888(7) 0.01799(14)
N7 N 1.1068(3) 0.11466(7) 0.09613(15)
N8 N 0.9179(3) 0.12256(7) 0.21528(15)
C1 C 0.8026(3) 0.27308(8) 0.44803(18)
C2 C 0.6253(3) 0.23030(9) 0.31960(17)
H1 H 0.5057 0.1902 0.3687
H2 H 0.4847 0.2657 0.2616
C3 C 0.8253(3) 0.19466(8) 0.20456(16)
N9 N 0.8050(3) 0.45498(8) 0.98796(16)
N10 N 0.9979(3) 0.41847(8) 1.10294(17)
N11 N 0.4300(3) 0.46064(8) 0.79176(17)
N12 N 0.5609(3) 0.34431(7) 0.90402(16)
C4 C 0.6007(3) 0.41899(8) 0.89522(17)
H3 H 0.822(4) 0.5041(12) 0.970(2)
H4 H 0.889(4) 0.4011(11) 1.173(2)
H5 H 1.083(4) 0.3746(12) 1.054(2)
H6 H 0.445(4) 0.5095(11) 0.802(2)
H7 H 0.274(5) 0.4356(12) 0.734(2)
H8 H 0.434(4) 0.3223(11) 0.837(2)
H9 H 0.697(5) 0.3184(12) 0.962(2)
N13 N 0.3993(3) 0.11494(7) 0.65641(15)
N14 N 0.6088(3) 0.12577(8) 0.78741(16)
N15 N 0.1360(3) 0.03185(9) 0.49109(17)
N16 N 0.5040(3) -0.01337(8) 0.67008(16)
C5 C 0.3479(3) 0.04392(8) 0.60706(16)
H10 H 0.271(4) 0.1546(11) 0.629(2)
H11 H 0.510(4) 0.1515(11) 0.878(2)
H12 H 0.742(5) 0.1604(14) 0.768(3)
H13 H 0.064(5) 0.0657(14) 0.423(2)
H14 H 0.098(4) -0.0140(11) 0.460(2)
H15 H 0.472(4) -0.0613(11) 0.640(2)
H16 H 0.666(4) -0.0051(11) 0.757(2)
loop_
_geom_bond_atom_site_label_1
_geom_bond_atom_site_label_2
_geom_bond_site_symmetry_1
_geom_bond_site_symmetry_2
N1 N2 1_555 1_555
N2 N3 1_555 1_555
N3 N4 1_555 1_555
N4 C1 1_555 1_555
N5 N6 1_555 1_555
N6 N7 1_555 1_555
N7 N8 1_555 1_555
N8 C3 1_555 1_555
C1 N1 1_555 1_555
C2 C1 1_555 1_555
H1 C2 1_555 1_555
H2 C2 1_555 1_555
C3 N5 1_555 1_555
N9 N10 1_555 1_555
N10 H4 1_555 1_555
N11 C4 1_555 1_555
N12 C4 1_555 1_555
C4 N9 1_555 1_555
H3 N9 1_555 1_555
H5 N10 1_555 1_555
H6 N11 1_555 1_555
H7 N11 1_555 1_555
H8 N12 1_555 1_555
H9 N12 1_555 1_555
N13 N14 1_555 1_555
N14 H11 1_555 1_555
N15 C5 1_555 1_555
N16 C5 1_555 1_555
C5 N13 1_555 1_555
H10 N13 1_555 1_555
H12 N14 1_555 1_555
H13 N15 1_555 1_555
H14 N15 1_555 1_555
H15 N16 1_555 1_555
H16 N16 1_555 1_555
C2 C3 1_555 1_555

#END
