
#######################################################################
#
#                 Cambridge Crystallographic Data Centre
#                                CCDC 
#
#######################################################################
#
# If this CIF has been generated from an entry in the Cambridge 
# Structural Database, then it will include bibliographic, chemical, 
# crystal, experimental, refinement or atomic coordinate data resulting 
# from the CCDC's data processing and validation procedures.
#
#######################################################################

data_OYIMEP
_chemical_formula_moiety         'C26 H23 N3 O1'
_chemical_name_systematic        
3-((2,2-Diphenylcyclobutylidene)amino)-2-ethylquinazolin-4(3H)-one
_symmetry_cell_setting           triclinic
_symmetry_space_group_name_H-M   'P -1'
_symmetry_Int_Tables_number      2
_space_group_name_Hall           '-P 1'
loop_
_symmetry_equiv_pos_site_id
_symmetry_equiv_pos_as_xyz
1 x,y,z
2 -x,-y,-z
_cell_length_a                   8.5958(14)
_cell_length_b                   9.1054(15)
_cell_length_c                   13.514(2)
_cell_angle_alpha                90.610(3)
_cell_angle_beta                 103.507(3)
_cell_angle_gamma                91.834(3)
_cell_volume                     1027.76
_exptl_crystal_colour            colorless
_exptl_crystal_description       prismatic
_cell_formula_units_Z            2
loop_
_atom_site_label
_atom_site_type_symbol
_atom_site_fract_x
_atom_site_fract_y
_atom_site_fract_z
O1 O 0.71556(19) 0.27316(18) 0.44044(12)
N1 N 0.5998(2) 0.43629(18) 0.27290(14)
N2 N 0.76613(19) 0.41018(17) 0.31142(12)
N3 N 1.0238(2) 0.48214(18) 0.29764(12)
C1 C 0.5141(2) 0.3273(2) 0.22998(15)
C2 C 0.3466(3) 0.3362(2) 0.16460(18)
H1 H 0.3217 0.4314 0.1345
H2 H 0.2632 0.2994 0.1963
C3 C 0.4004(3) 0.2246(2) 0.09480(16)
H3 H 0.4396 0.2693 0.0400
H4 H 0.3206 0.1473 0.0687
C4 C 0.5383(2) 0.1756(2) 0.18680(13)
C5 C 0.7021(2) 0.1412(2) 0.17104(14)
C6 C 0.8083(3) 0.0692(2) 0.24565(18)
H5 H 0.7779 0.0428 0.3049
C7 C 0.9572(3) 0.0359(3) 0.2346(2)
H6 H 1.0271 -0.0109 0.2868
C8 C 1.0037(3) 0.0698(3) 0.1492(3)
H7 H 1.1040 0.0441 0.1413
C9 C 0.9025(4) 0.1422(3) 0.0741(2)
H8 H 0.9351 0.1679 0.0155
C10 C 0.7513(3) 0.1779(3) 0.08448(17)
H9 H 0.6830 0.2269 0.0327
C11 C 0.4682(2) 0.0495(2) 0.23907(14)
C12 C 0.4416(3) -0.0852(2) 0.18999(17)
H10 H 0.4700 -0.0984 0.1282
C13 C 0.3727(3) -0.2016(2) 0.2321(2)
H11 H 0.3548 -0.2921 0.1980
C14 C 0.3313(3) -0.1846(3) 0.3225(2)
H12 H 0.2840 -0.2627 0.3500
C15 C 0.3594(3) -0.0533(3) 0.37222(17)
H13 H 0.3324 -0.0416 0.4345
C16 C 0.4281(2) 0.0644(2) 0.33131(14)
H14 H 0.4471 0.1540 0.3665
C17 C 0.8129(3) 0.3327(2) 0.40046(15)
C18 C 0.9859(3) 0.3287(2) 0.43717(14)
C19 C 1.0550(3) 0.2525(3) 0.52454(16)
H15 H 0.9898 0.2021 0.5599
C20 C 1.2165(3) 0.2513(3) 0.55839(18)
H16 H 1.2619 0.1997 0.6165
C21 C 1.3125(3) 0.3262(3) 0.50676(17)
H17 H 1.4230 0.3257 0.5309
C22 C 1.2496(3) 0.4013(2) 0.42097(16)
H18 H 1.3172 0.4508 0.3869
C23 C 1.0850(2) 0.4041(2) 0.38430(14)
C24 C 0.8708(2) 0.4856(2) 0.26564(15)
C25 C 0.8009(3) 0.5718(3) 0.17394(17)
H19 H 0.7265 0.5084 0.1257
H20 H 0.7406 0.6506 0.1938
C26 C 0.9210(3) 0.6362(4) 0.1224(2)
H21 H 0.9907 0.7047 0.1679
H22 H 0.8673 0.6862 0.0626
H23 H 0.9829 0.5593 0.1035
loop_
_geom_bond_atom_site_label_1
_geom_bond_atom_site_label_2
_geom_bond_site_symmetry_1
_geom_bond_site_symmetry_2
O1 C17 1_555 1_555
N1 N2 1_555 1_555
N2 C17 1_555 1_555
N3 C23 1_555 1_555
C1 N1 1_555 1_555
C2 C1 1_555 1_555
H1 C2 1_555 1_555
H2 C2 1_555 1_555
C3 C2 1_555 1_555
H3 C3 1_555 1_555
H4 C3 1_555 1_555
C4 C1 1_555 1_555
C5 C4 1_555 1_555
C6 C5 1_555 1_555
H5 C6 1_555 1_555
C7 C6 1_555 1_555
H6 C7 1_555 1_555
C8 C7 1_555 1_555
H7 C8 1_555 1_555
C9 C8 1_555 1_555
H8 C9 1_555 1_555
C10 C5 1_555 1_555
H9 C10 1_555 1_555
C11 C4 1_555 1_555
C12 C11 1_555 1_555
H10 C12 1_555 1_555
C13 C12 1_555 1_555
H11 C13 1_555 1_555
C14 C13 1_555 1_555
H12 C14 1_555 1_555
C15 C14 1_555 1_555
H13 C15 1_555 1_555
C16 C11 1_555 1_555
H14 C16 1_555 1_555
C17 C18 1_555 1_555
C18 C19 1_555 1_555
C19 H15 1_555 1_555
C20 C19 1_555 1_555
H16 C20 1_555 1_555
C21 C20 1_555 1_555
H17 C21 1_555 1_555
C22 C21 1_555 1_555
H18 C22 1_555 1_555
C23 C18 1_555 1_555
C24 N2 1_555 1_555
C25 C24 1_555 1_555
H19 C25 1_555 1_555
H20 C25 1_555 1_555
C26 C25 1_555 1_555
H21 C26 1_555 1_555
H22 C26 1_555 1_555
H23 C26 1_555 1_555
N3 C24 1_555 1_555
C3 C4 1_555 1_555
C9 C10 1_555 1_555
C15 C16 1_555 1_555
C22 C23 1_555 1_555

#END
