
#######################################################################
#
#                 Cambridge Crystallographic Data Centre
#                                CCDC 
#
#######################################################################
#
# If this CIF has been generated from an entry in the Cambridge 
# Structural Database, then it will include bibliographic, chemical, 
# crystal, experimental, refinement or atomic coordinate data resulting 
# from the CCDC's data processing and validation procedures.
#
#######################################################################

data_OYIQUK
_chemical_formula_moiety         'C31 H27 N1 O6 S1'
_chemical_name_systematic        
N-benzyl-N-(6-(4-methoxybenzyl)furo[2,3-f][1,3]benzodioxol-7-yl)-4-methylbenzenesulfonamide
_symmetry_cell_setting           triclinic
_symmetry_space_group_name_H-M   'P -1'
_symmetry_Int_Tables_number      2
_space_group_name_Hall           '-P 1'
loop_
_symmetry_equiv_pos_site_id
_symmetry_equiv_pos_as_xyz
1 x,y,z
2 -x,-y,-z
_cell_length_a                   10.8777(3)
_cell_length_b                   11.0084(3)
_cell_length_c                   13.1029(4)
_cell_angle_alpha                112.4340(10)
_cell_angle_beta                 105.6650(10)
_cell_angle_gamma                98.6310(10)
_cell_volume                     1338.75
_exptl_crystal_colour            colorless
_exptl_crystal_description       block
_cell_formula_units_Z            2
loop_
_atom_site_label
_atom_site_type_symbol
_atom_site_fract_x
_atom_site_fract_y
_atom_site_fract_z
S1 S 0.08211(4) -0.15677(4) 0.17963(4)
O1 O 0.68316(15) -0.05932(17) 0.15858(16)
O2 O 0.72178(15) 0.12570(18) 0.11789(16)
O3 O 0.32902(13) 0.23607(13) 0.19538(12)
O4 O 0.1836(2) 0.75500(19) 0.56532(17)
O5 O 0.01949(14) -0.11962(15) 0.09020(14)
O6 O 0.00991(16) -0.19048(17) 0.24612(16)
N1 N 0.21131(14) -0.02500(15) 0.27632(13)
C1 C 0.7655(2) 0.0125(3) 0.1208(2)
H1 H 0.8571 0.0438 0.1748
H2 H 0.7618 -0.0478 0.0427
C2 C 0.61106(17) 0.1186(2) 0.14885(17)
C3 C 0.5315(2) 0.2035(2) 0.15402(19)
H3 H 0.5465 0.2777 0.1368
C4 C 0.42525(17) 0.16855(18) 0.18754(16)
C5 C 0.39937(16) 0.05790(17) 0.21313(15)
C6 C 0.48413(17) -0.02744(18) 0.20638(16)
H4 H 0.4706 -0.1022 0.2231
C7 C 0.58754(17) 0.00770(19) 0.17349(17)
C8 C 0.27868(16) 0.06115(17) 0.23891(15)
C9 C 0.24179(16) 0.16832(18) 0.22824(16)
C10 C 0.12059(18) 0.21298(19) 0.23569(18)
H5 H 0.0678 0.1522 0.2554
H6 H 0.0682 0.2004 0.1577
C11 C 0.14137(17) 0.35869(18) 0.32288(15)
C12 C 0.2563(2) 0.4360(3) 0.4200(2)
H7 H 0.3279 0.3999 0.4323
C13 C 0.2661(3) 0.5665(3) 0.4993(2)
H8 H 0.3443 0.6168 0.5645
C14 C 0.1626(2) 0.6231(2) 0.48348(19)
C15 C 0.0466(2) 0.5466(2) 0.38899(18)
H9 H -0.0255 0.5822 0.3781
C16 C 0.0373(2) 0.4157(2) 0.30969(18)
H10 H -0.0417 0.3649 0.2456
C17 C 0.0775(4) 0.8128(3) 0.5511(3)
H11 H 0.0532 0.8143 0.4755
H12 H 0.1042 0.9048 0.6127
H13 H 0.0026 0.7591 0.5553
C18 C 0.2922(2) -0.0315(2) 0.38387(17)
H14 H 0.3711 -0.0567 0.3732
H15 H 0.2410 -0.1016 0.3959
C19 C 0.3328(2) 0.1035(2) 0.49074(17)
C20 C 0.4561(2) 0.1959(3) 0.5301(2)
H16 H 0.5151 0.1750 0.4907
C21 C 0.4906(4) 0.3204(4) 0.6293(3)
H17 H 0.5734 0.3830 0.6565
C22 C 0.4035(5) 0.3519(4) 0.6876(3)
H18 H 0.4275 0.4355 0.7539
C23 C 0.2819(4) 0.2609(4) 0.6486(3)
H19 H 0.2233 0.2823 0.6885
C24 C 0.2460(3) 0.1374(3) 0.5502(2)
H20 H 0.1626 0.0761 0.5233
C25 C 0.14384(16) -0.29518(17) 0.11645(15)
C26 C 0.1942(2) -0.3015(2) 0.02863(18)
H21 H 0.1927 -0.2353 0.0009
C27 C 0.2464(2) -0.4075(2) -0.01671(19)
H22 H 0.2803 -0.4122 -0.0757
C28 C 0.25020(19) -0.50725(19) 0.02271(17)
C29 C 0.1979(2) -0.4982(2) 0.10902(18)
H23 H 0.1986 -0.5648 0.1363
C30 C 0.1447(2) -0.3939(2) 0.15621(18)
H24 H 0.1097 -0.3902 0.2144
C31 C 0.3084(3) -0.6221(3) -0.0260(2)
H25 H 0.3223 -0.6666 0.0247
H26 H 0.3919 -0.5861 -0.0302
H27 H 0.2482 -0.6871 -0.1038
loop_
_geom_bond_atom_site_label_1
_geom_bond_atom_site_label_2
_geom_bond_site_symmetry_1
_geom_bond_site_symmetry_2
S1 O5 1_555 1_555
O1 C1 1_555 1_555
O2 C1 1_555 1_555
O3 C4 1_555 1_555
O4 C14 1_555 1_555
O6 S1 1_555 1_555
N1 S1 1_555 1_555
C1 H1 1_555 1_555
H2 C1 1_555 1_555
C2 O2 1_555 1_555
C3 C2 1_555 1_555
H3 C3 1_555 1_555
C4 C3 1_555 1_555
C5 C4 1_555 1_555
C6 C5 1_555 1_555
H4 C6 1_555 1_555
C7 O1 1_555 1_555
C8 N1 1_555 1_555
C9 O3 1_555 1_555
C10 C9 1_555 1_555
H5 C10 1_555 1_555
H6 C10 1_555 1_555
C11 C10 1_555 1_555
C12 C11 1_555 1_555
H7 C12 1_555 1_555
C13 C12 1_555 1_555
H8 C13 1_555 1_555
C14 C13 1_555 1_555
C15 C14 1_555 1_555
H9 C15 1_555 1_555
C16 C11 1_555 1_555
H10 C16 1_555 1_555
C17 O4 1_555 1_555
H11 C17 1_555 1_555
H12 C17 1_555 1_555
H13 C17 1_555 1_555
C18 N1 1_555 1_555
H14 C18 1_555 1_555
H15 C18 1_555 1_555
C19 C18 1_555 1_555
C20 C19 1_555 1_555
H16 C20 1_555 1_555
C21 C20 1_555 1_555
H17 C21 1_555 1_555
C22 C21 1_555 1_555
H18 C22 1_555 1_555
C23 C22 1_555 1_555
H19 C23 1_555 1_555
C24 C19 1_555 1_555
H20 C24 1_555 1_555
C25 S1 1_555 1_555
C26 C25 1_555 1_555
H21 C26 1_555 1_555
C27 C26 1_555 1_555
H22 C27 1_555 1_555
C28 C27 1_555 1_555
C29 C28 1_555 1_555
H23 C29 1_555 1_555
C30 C25 1_555 1_555
H24 C30 1_555 1_555
C31 C28 1_555 1_555
H25 C31 1_555 1_555
H26 C31 1_555 1_555
H27 C31 1_555 1_555
C2 C7 1_555 1_555
C5 C8 1_555 1_555
C6 C7 1_555 1_555
C8 C9 1_555 1_555
C15 C16 1_555 1_555
C23 C24 1_555 1_555
C29 C30 1_555 1_555

#END
