
#######################################################################
#
#                 Cambridge Crystallographic Data Centre
#                                CCDC 
#
#######################################################################
#
# If this CIF has been generated from an entry in the Cambridge 
# Structural Database, then it will include bibliographic, chemical, 
# crystal, experimental, refinement or atomic coordinate data resulting 
# from the CCDC's data processing and validation procedures.
#
#######################################################################

data_OYOCOW
_chemical_name_common            'alstoscholarisine H'
_chemical_formula_moiety         'C19 H24 N2 O1'
_chemical_name_systematic        
(13-ethylidene-9,15-dimethyl-2,15-diazatetracyclo[10.3.1.0^2,10^.0^3,8^]hexadeca-3,5,7,9-tetraen-11-yl)methanol
_symmetry_cell_setting           orthorhombic
_symmetry_space_group_name_H-M   'P 21 21 21'
_symmetry_Int_Tables_number      19
_space_group_name_Hall           'P 2ac 2ab'
loop_
_symmetry_equiv_pos_site_id
_symmetry_equiv_pos_as_xyz
1 x,y,z
2 1/2+x,1/2-y,-z
3 -x,1/2+y,1/2-z
4 1/2-x,-y,1/2+z
_cell_length_a                   6.9550(3)
_cell_length_b                   10.6206(4)
_cell_length_c                   23.9572(10)
_cell_angle_alpha                90
_cell_angle_beta                 90
_cell_angle_gamma                90
_cell_volume                     1769.63
_exptl_crystal_colour            colorless
_exptl_crystal_description       prism
_cell_formula_units_Z            4
loop_
_atom_site_label
_atom_site_type_symbol
_atom_site_fract_x
_atom_site_fract_y
_atom_site_fract_z
O1 O 0.7252(3) 0.1845(2) 0.20480(9)
H1 H 0.8180 0.1430 0.1920
N1 N 0.6996(3) 0.4312(2) 0.37397(9)
N2 N 1.0168(4) 0.5178(2) 0.35106(9)
C1 C 0.5473(5) 0.4841(3) 0.52052(13)
H2 H 0.5559 0.5410 0.5511
C2 C 0.6454(5) 0.5116(3) 0.47141(12)
H3 H 0.7212 0.5855 0.4679
C3 C 0.6281(4) 0.4266(3) 0.42764(11)
C4 C 0.8089(4) 0.5356(3) 0.34930(11)
H4 H 0.7763 0.6148 0.3698
C5 C 0.7416(4) 0.5488(3) 0.28898(11)
H5 H 0.8082 0.6203 0.2709
H6 H 0.6015 0.5651 0.2880
C6 C 0.7878(4) 0.4256(3) 0.25774(10)
H7 H 0.7551 0.4365 0.2174
C7 C 1.0003(4) 0.4021(3) 0.26300(11)
C8 C 1.1208(4) 0.3902(3) 0.21957(11)
H8 H 1.2526 0.3776 0.2284
C9 C 1.0706(5) 0.3946(3) 0.15868(12)
H9 H 0.9305 0.3940 0.1544
H10 H 1.1254 0.3210 0.1398
H11 H 1.1232 0.4716 0.1421
C10 C 0.4363(5) 0.3749(4) 0.52607(13)
H12 H 0.3712 0.3586 0.5602
C11 C 0.4206(4) 0.2909(3) 0.48260(13)
H13 H 0.3464 0.2163 0.4867
C12 C 0.5153(4) 0.3166(3) 0.43230(12)
C13 C 0.6310(4) 0.3277(3) 0.34433(11)
C14 C 0.6635(4) 0.3183(3) 0.28209(11)
H14 H 0.5337 0.3278 0.2646
C15 C 0.7379(4) 0.1886(3) 0.26343(12)
H15 H 0.8729 0.1770 0.2755
H16 H 0.6589 0.1209 0.2802
C16 C 1.0757(4) 0.4009(3) 0.32168(11)
H17 H 1.0246 0.3267 0.3418
H18 H 1.2177 0.3948 0.3211
C17 C 1.0948(4) 0.5189(3) 0.40764(12)
H19 H 1.0631 0.5991 0.4257
H20 H 1.2348 0.5089 0.4061
H21 H 1.0388 0.4494 0.4291
C18 C 0.5186(4) 0.2547(3) 0.37887(11)
C19 C 0.4051(5) 0.1388(3) 0.36463(13)
H22 H 0.3555 0.1460 0.3265
H23 H 0.2974 0.1302 0.3907
H24 H 0.4883 0.0646 0.3674
loop_
_geom_bond_atom_site_label_1
_geom_bond_atom_site_label_2
_geom_bond_site_symmetry_1
_geom_bond_site_symmetry_2
O1 H1 1_555 1_555
N1 C3 1_555 1_555
N2 C4 1_555 1_555
C1 H2 1_555 1_555
C2 C1 1_555 1_555
H3 C2 1_555 1_555
C3 C2 1_555 1_555
C4 N1 1_555 1_555
H4 C4 1_555 1_555
C5 C4 1_555 1_555
H5 C5 1_555 1_555
H6 C5 1_555 1_555
C6 C5 1_555 1_555
H7 C6 1_555 1_555
C7 C6 1_555 1_555
C8 C7 1_555 1_555
H8 C8 1_555 1_555
C9 C8 1_555 1_555
H9 C9 1_555 1_555
H10 C9 1_555 1_555
H11 C9 1_555 1_555
C10 C1 1_555 1_555
H12 C10 1_555 1_555
C11 C10 1_555 1_555
H13 C11 1_555 1_555
C12 C3 1_555 1_555
C13 N1 1_555 1_555
C14 C6 1_555 1_555
H14 C14 1_555 1_555
C15 O1 1_555 1_555
H15 C15 1_555 1_555
H16 C15 1_555 1_555
C16 N2 1_555 1_555
H17 C16 1_555 1_555
H18 C16 1_555 1_555
C17 N2 1_555 1_555
H19 C17 1_555 1_555
H20 C17 1_555 1_555
H21 C17 1_555 1_555
C18 C12 1_555 1_555
C19 C18 1_555 1_555
H22 C19 1_555 1_555
H23 C19 1_555 1_555
H24 C19 1_555 1_555
C7 C16 1_555 1_555
C11 C12 1_555 1_555
C13 C14 1_555 1_555
C13 C18 1_555 1_555
C14 C15 1_555 1_555

#END
