
#######################################################################
#
#                 Cambridge Crystallographic Data Centre
#                                CCDC 
#
#######################################################################
#
# If this CIF has been generated from an entry in the Cambridge 
# Structural Database, then it will include bibliographic, chemical, 
# crystal, experimental, refinement or atomic coordinate data resulting 
# from the CCDC's data processing and validation procedures.
#
#######################################################################

data_OYOJUI
_chemical_formula_moiety         'C17 H43 Mg1 N5 Si2'
_chemical_name_systematic        
(1,4,7-Trimethyl-1,4,7,10-tetraazacyclododecane-N,N',N'',N''')-(bis(trimethylsilyl)amido)-magnesium(ii)
_symmetry_cell_setting           monoclinic
_symmetry_space_group_name_H-M   'P 21/n'
_symmetry_Int_Tables_number      14
_space_group_name_Hall           '-P 2yn'
loop_
_symmetry_equiv_pos_site_id
_symmetry_equiv_pos_as_xyz
1 x,y,z
2 1/2-x,1/2+y,1/2-z
3 -x,-y,-z
4 1/2+x,1/2-y,1/2+z
_cell_length_a                   9.3930(12)
_cell_length_b                   15.2074(19)
_cell_length_c                   17.202(2)
_cell_angle_alpha                90
_cell_angle_beta                 98.626(2)
_cell_angle_gamma                90
_cell_volume                     2429.39
_exptl_crystal_colour            colorless
_exptl_crystal_description       block
_cell_formula_units_Z            4
loop_
_atom_site_label
_atom_site_type_symbol
_atom_site_fract_x
_atom_site_fract_y
_atom_site_fract_z
Si1 Si 0.44742(5) 0.12580(3) 0.37611(3)
Si2 Si 0.35388(5) 0.30894(3) 0.33779(3)
N1 N 0.62640(17) 0.10484(9) 0.17065(8)
N2 N 0.77086(15) 0.24496(10) 0.24391(8)
N3 N 0.54028(14) 0.31823(8) 0.13095(8)
N4 N 0.35744(16) 0.15908(9) 0.11405(8)
N5 N 0.43929(14) 0.21522(8) 0.31621(7)
Mg1 Mg 0.53057(6) 0.20473(3) 0.21582(3)
C1 C 0.7793(2) 0.10034(13) 0.17712(12)
H1 H 0.8104 0.1207 0.1276
H2 H 0.8120 0.0389 0.1868
C2 C 0.8443(2) 0.15838(13) 0.24477(12)
H3 H 0.8373 0.1282 0.2950
H4 H 0.9476 0.1678 0.2417
C3 C 0.80252(19) 0.30019(12) 0.17772(10)
H5 H 0.8929 0.2795 0.1607
H6 H 0.8175 0.3617 0.1960
C4 C 0.68260(18) 0.29772(11) 0.10806(10)
H7 H 0.7038 0.3408 0.0682
H8 H 0.6791 0.2385 0.0839
C5 C 0.42332(19) 0.30449(11) 0.06423(10)
H9 H 0.4493 0.3343 0.0171
H10 H 0.3342 0.3322 0.0768
C6 C 0.3937(2) 0.20843(12) 0.04522(10)
H11 H 0.3128 0.2037 0.0014
H12 H 0.4797 0.1817 0.0278
C7 C 0.3913(2) 0.06457(12) 0.10707(11)
H13 H 0.3401 0.0417 0.0566
H14 H 0.3566 0.0317 0.1502
C8 C 0.5515(2) 0.04951(12) 0.11056(12)
H15 H 0.5750 -0.0129 0.1227
H16 H 0.5811 0.0638 0.0592
C9 C 0.8170(2) 0.28960(15) 0.31943(11)
H17 H 0.9217 0.2977 0.3271
H18 H 0.7903 0.2537 0.3623
H19 H 0.7697 0.3471 0.3191
C10 C 0.53802(19) 0.41212(11) 0.15381(11)
H20 H 0.5553 0.4490 0.1094
H21 H 0.6134 0.4229 0.1987
H22 H 0.4439 0.4266 0.1684
C11 C 0.2036(2) 0.16845(14) 0.12015(11)
H23 H 0.1459 0.1395 0.0752
H24 H 0.1785 0.2310 0.1203
H25 H 0.1840 0.1411 0.1690
C12 C 0.5724(2) 0.03795(12) 0.35065(12)
H26 H 0.5518 0.0254 0.2942
H27 H 0.5586 -0.0155 0.3804
H28 H 0.6722 0.0581 0.3640
C13 C 0.2691(2) 0.06948(12) 0.37386(12)
H29 H 0.2002 0.1104 0.3917
H30 H 0.2808 0.0181 0.4087
H31 H 0.2332 0.0505 0.3200
C14 C 0.5171(2) 0.15080(13) 0.48182(10)
H32 H 0.6068 0.1845 0.4851
H33 H 0.5356 0.0957 0.5111
H34 H 0.4454 0.1853 0.5045
C15 C 0.2207(2) 0.34833(12) 0.25305(10)
H35 H 0.2675 0.3521 0.2059
H36 H 0.1851 0.4065 0.2652
H37 H 0.1400 0.3070 0.2437
C16 C 0.4816(2) 0.40135(12) 0.36812(12)
H38 H 0.5514 0.3831 0.4134
H39 H 0.4278 0.4525 0.3825
H40 H 0.5326 0.4168 0.3243
C17 C 0.2434(2) 0.30272(12) 0.42030(11)
H41 H 0.1786 0.2520 0.4122
H42 H 0.1866 0.3567 0.4212
H43 H 0.3076 0.2963 0.4704
loop_
_geom_bond_atom_site_label_1
_geom_bond_atom_site_label_2
_geom_bond_site_symmetry_1
_geom_bond_site_symmetry_2
Si1 N5 1_555 1_555
Si2 N5 1_555 1_555
N1 Mg1 1_555 1_555
N2 Mg1 1_555 1_555
N3 Mg1 1_555 1_555
N4 Mg1 1_555 1_555
N5 Mg1 1_555 1_555
C1 N1 1_555 1_555
H1 C1 1_555 1_555
H2 C1 1_555 1_555
C2 N2 1_555 1_555
H3 C2 1_555 1_555
H4 C2 1_555 1_555
C3 N2 1_555 1_555
H5 C3 1_555 1_555
H6 C3 1_555 1_555
C4 N3 1_555 1_555
H7 C4 1_555 1_555
H8 C4 1_555 1_555
C5 N3 1_555 1_555
H9 C5 1_555 1_555
H10 C5 1_555 1_555
C6 N4 1_555 1_555
H11 C6 1_555 1_555
H12 C6 1_555 1_555
C7 N4 1_555 1_555
H13 C7 1_555 1_555
H14 C7 1_555 1_555
C8 N1 1_555 1_555
H15 C8 1_555 1_555
H16 C8 1_555 1_555
C9 N2 1_555 1_555
H17 C9 1_555 1_555
H18 C9 1_555 1_555
H19 C9 1_555 1_555
C10 N3 1_555 1_555
H20 C10 1_555 1_555
H21 C10 1_555 1_555
H22 C10 1_555 1_555
C11 N4 1_555 1_555
H23 C11 1_555 1_555
H24 C11 1_555 1_555
H25 C11 1_555 1_555
C12 Si1 1_555 1_555
H26 C12 1_555 1_555
H27 C12 1_555 1_555
H28 C12 1_555 1_555
C13 Si1 1_555 1_555
H29 C13 1_555 1_555
H30 C13 1_555 1_555
H31 C13 1_555 1_555
C14 Si1 1_555 1_555
H32 C14 1_555 1_555
H33 C14 1_555 1_555
H34 C14 1_555 1_555
C15 Si2 1_555 1_555
H35 C15 1_555 1_555
H36 C15 1_555 1_555
H37 C15 1_555 1_555
C16 Si2 1_555 1_555
H38 C16 1_555 1_555
H39 C16 1_555 1_555
H40 C16 1_555 1_555
C17 Si2 1_555 1_555
H41 C17 1_555 1_555
H42 C17 1_555 1_555
H43 C17 1_555 1_555
C1 C2 1_555 1_555
C3 C4 1_555 1_555
C5 C6 1_555 1_555
C7 C8 1_555 1_555

#END
