
#######################################################################
#
#                 Cambridge Crystallographic Data Centre
#                                CCDC 
#
#######################################################################
#
# If this CIF has been generated from an entry in the Cambridge 
# Structural Database, then it will include bibliographic, chemical, 
# crystal, experimental, refinement or atomic coordinate data resulting 
# from the CCDC's data processing and validation procedures.
#
#######################################################################

data_OYOKET
_chemical_formula_moiety         'C19 H52 Ca1 N6 Si4'
_chemical_name_systematic        
(bis(Dimethylsilyl)amido)-(1-(((dimethylsilyl)amido)dimethylsilyl)-4,7,10-trimethyl-1,4,7,10-tetraazacyclododecane-N,N',N'',N''',N'''')-calcium(ii)
_symmetry_cell_setting           monoclinic
_symmetry_space_group_name_H-M   'P 21/c'
_symmetry_Int_Tables_number      14
_space_group_name_Hall           '-P 2ybc'
loop_
_symmetry_equiv_pos_site_id
_symmetry_equiv_pos_as_xyz
1 x,y,z
2 -x,1/2+y,1/2-z
3 -x,-y,-z
4 x,1/2-y,1/2+z
_cell_length_a                   19.245(2)
_cell_length_b                   10.3101(10)
_cell_length_c                   15.582(3)
_cell_angle_alpha                90
_cell_angle_beta                 106.38(2)
_cell_angle_gamma                90
_cell_volume                     2966.26
_exptl_crystal_colour            colorless
_exptl_crystal_description       block
_cell_formula_units_Z            4
loop_
_atom_site_label
_atom_site_type_symbol
_atom_site_fract_x
_atom_site_fract_y
_atom_site_fract_z
Si1 Si 0.59214(2) 0.83676(4) 0.13086(3)
Si2 Si 0.66225(2) 0.57909(4) 0.19740(3)
Si3 Si 0.90351(2) 0.70827(4) 0.38028(3)
Si4 Si 0.87521(2) 0.73721(4) 0.18207(3)
N1 N 0.62222(7) 0.99787(12) 0.16569(9)
N2 N 0.70029(7) 0.97486(14) 0.36402(9)
N3 N 0.83628(7) 1.08857(13) 0.34036(10)
N4 N 0.76061(8) 1.10062(13) 0.14234(9)
N5 N 0.65863(7) 0.74190(12) 0.19002(9)
N6 N 0.85686(7) 0.76508(12) 0.27952(8)
Ca1 Ca 0.753766(15) 0.89733(3) 0.242618(19)
C1 C 0.59665(9) 1.05614(17) 0.23772(12)
H1 H 0.5431 1.0600 0.2181
H2 H 0.6149 1.1462 0.2478
C2 C 0.62045(9) 0.98269(17) 0.32539(11)
H3 H 0.5994 1.0254 0.3692
H4 H 0.6006 0.8936 0.3157
C3 C 0.72994(10) 1.10017(18) 0.40190(13)
H5 H 0.7167 1.1152 0.4581
H6 H 0.7077 1.1700 0.3595
C4 C 0.81159(10) 1.10756(19) 0.42128(13)
H7 H 0.8284 1.1933 0.4476
H8 H 0.8340 1.0405 0.4660
C5 C 0.82609(10) 1.20772(16) 0.28614(13)
H9 H 0.8664 1.2683 0.3123
H10 H 0.7804 1.2502 0.2880
C6 C 0.82340(10) 1.18117(17) 0.19039(14)
H11 H 0.8214 1.2648 0.1586
H12 H 0.8686 1.1365 0.1889
C7 C 0.69370(9) 1.17790(16) 0.12612(12)
H13 H 0.6927 1.2427 0.0789
H14 H 0.6942 1.2256 0.1814
C8 C 0.62560(9) 1.09566(16) 0.09778(12)
H15 H 0.5827 1.1529 0.0868
H16 H 0.6239 1.0511 0.0409
C9 C 0.71607(11) 0.8734(2) 0.43362(12)
H17 H 0.7686 0.8661 0.4597
H18 H 0.6967 0.7903 0.4069
H19 H 0.6934 0.8965 0.4805
C10 C 0.91436(9) 1.05722(17) 0.36965(13)
H20 H 0.9317 1.0417 0.3171
H21 H 0.9221 0.9792 0.4071
H22 H 0.9411 1.1299 0.4042
C11 C 0.77170(11) 1.05929(18) 0.05685(12)
H23 H 0.7323 1.0011 0.0259
H24 H 0.8181 1.0137 0.0682
H25 H 0.7721 1.1356 0.0195
C12 C 0.57682(10) 0.82794(18) 0.00648(11)
H26 H 0.6226 0.8436 -0.0076
H27 H 0.5414 0.8939 -0.0228
H28 H 0.5584 0.7417 -0.0150
C13 C 0.49992(9) 0.81205(17) 0.14727(13)
H29 H 0.4778 0.7338 0.1153
H30 H 0.4693 0.8873 0.1238
H31 H 0.5046 0.8022 0.2112
C14 C 0.66958(13) 0.5201(2) 0.31331(14)
H32 H 0.7122 0.5590 0.3554
H33 H 0.6744 0.4254 0.3152
H34 H 0.6260 0.5449 0.3300
C15 C 0.58257(11) 0.49038(18) 0.12256(16)
H35 H 0.5382 0.5173 0.1366
H36 H 0.5894 0.3967 0.1321
H37 H 0.5786 0.5109 0.0599
C16 C 0.88840(10) 0.53270(18) 0.40087(13)
H38 H 0.8363 0.5149 0.3846
H39 H 0.9100 0.5127 0.4643
H40 H 0.9110 0.4787 0.3645
C17 C 1.00443(9) 0.72575(18) 0.40669(12)
H41 H 1.0223 0.6708 0.3662
H42 H 1.0270 0.6991 0.4687
H43 H 1.0166 0.8165 0.3990
C18 C 0.95355(9) 0.83244(17) 0.16531(12)
H44 H 0.9448 0.9253 0.1710
H45 H 0.9586 0.8147 0.1056
H46 H 0.9981 0.8070 0.2106
C19 C 0.89111(10) 0.56433(16) 0.15553(12)
H47 H 0.9306 0.5281 0.2038
H48 H 0.9041 0.5607 0.0992
H49 H 0.8469 0.5139 0.1498
H50 H 0.8128(11) 0.7816(19) 0.1116(13)
H51 H 0.8829(11) 0.779(2) 0.4459(13)
H52 H 0.7238(11) 0.523(2) 0.1748(13)
loop_
_geom_bond_atom_site_label_1
_geom_bond_atom_site_label_2
_geom_bond_site_symmetry_1
_geom_bond_site_symmetry_2
Si1 N1 1_555 1_555
Si2 N5 1_555 1_555
Si3 N6 1_555 1_555
Si4 N6 1_555 1_555
N1 Ca1 1_555 1_555
N2 Ca1 1_555 1_555
N3 Ca1 1_555 1_555
N4 Ca1 1_555 1_555
N5 Si1 1_555 1_555
N6 Ca1 1_555 1_555
Ca1 N5 1_555 1_555
C1 N1 1_555 1_555
H1 C1 1_555 1_555
H2 C1 1_555 1_555
C2 N2 1_555 1_555
H3 C2 1_555 1_555
H4 C2 1_555 1_555
C3 N2 1_555 1_555
H5 C3 1_555 1_555
H6 C3 1_555 1_555
C4 N3 1_555 1_555
H7 C4 1_555 1_555
H8 C4 1_555 1_555
C5 N3 1_555 1_555
H9 C5 1_555 1_555
H10 C5 1_555 1_555
C6 N4 1_555 1_555
H11 C6 1_555 1_555
H12 C6 1_555 1_555
C7 N4 1_555 1_555
H13 C7 1_555 1_555
H14 C7 1_555 1_555
C8 N1 1_555 1_555
H15 C8 1_555 1_555
H16 C8 1_555 1_555
C9 N2 1_555 1_555
H17 C9 1_555 1_555
H18 C9 1_555 1_555
H19 C9 1_555 1_555
C10 N3 1_555 1_555
H20 C10 1_555 1_555
H21 C10 1_555 1_555
H22 C10 1_555 1_555
C11 N4 1_555 1_555
H23 C11 1_555 1_555
H24 C11 1_555 1_555
H25 C11 1_555 1_555
C12 Si1 1_555 1_555
H26 C12 1_555 1_555
H27 C12 1_555 1_555
H28 C12 1_555 1_555
C13 Si1 1_555 1_555
H29 C13 1_555 1_555
H30 C13 1_555 1_555
H31 C13 1_555 1_555
C14 Si2 1_555 1_555
H32 C14 1_555 1_555
H33 C14 1_555 1_555
H34 C14 1_555 1_555
C15 Si2 1_555 1_555
H35 C15 1_555 1_555
H36 C15 1_555 1_555
H37 C15 1_555 1_555
C16 Si3 1_555 1_555
H38 C16 1_555 1_555
H39 C16 1_555 1_555
H40 C16 1_555 1_555
C17 Si3 1_555 1_555
H41 C17 1_555 1_555
H42 C17 1_555 1_555
H43 C17 1_555 1_555
C18 Si4 1_555 1_555
H44 C18 1_555 1_555
H45 C18 1_555 1_555
H46 C18 1_555 1_555
C19 Si4 1_555 1_555
H47 C19 1_555 1_555
H48 C19 1_555 1_555
H49 C19 1_555 1_555
H50 Si4 1_555 1_555
H51 Si3 1_555 1_555
H52 Si2 1_555 1_555
C1 C2 1_555 1_555
C3 C4 1_555 1_555
C5 C6 1_555 1_555
C7 C8 1_555 1_555

#END
