
#######################################################################
#
#                 Cambridge Crystallographic Data Centre
#                                CCDC 
#
#######################################################################
#
# If this CIF has been generated from an entry in the Cambridge 
# Structural Database, then it will include bibliographic, chemical, 
# crystal, experimental, refinement or atomic coordinate data resulting 
# from the CCDC's data processing and validation procedures.
#
#######################################################################

data_OYONUN
_chemical_compound_source        
'marine fungus Talaromyces miniolutens (Penicillium minioluteum)'
_chemical_name_common            'minioluteumide A hydrate'
_chemical_formula_moiety         'C22 H32 Cl1 N1 O5,0.25(H2 O1)'
_chemical_name_systematic        
'4-chloro-6,6,9a-trimethyl-3-oxo-1,3,4,5,5a,6,7,8,9,9a-decahydronaphtho[1,2-c]furan-9-yl N-acetylvalinate hydrate'
_symmetry_cell_setting           orthorhombic
_symmetry_space_group_name_H-M   'P 21 21 21'
_symmetry_Int_Tables_number      19
_space_group_name_Hall           'P 2ac 2ab'
loop_
_symmetry_equiv_pos_site_id
_symmetry_equiv_pos_as_xyz
1 x,y,z
2 1/2+x,1/2-y,-z
3 -x,1/2+y,1/2-z
4 1/2-x,-y,1/2+z
_cell_length_a                   9.9172(3)
_cell_length_b                   14.7327(4)
_cell_length_c                   15.4578(4)
_cell_angle_alpha                90
_cell_angle_beta                 90
_cell_angle_gamma                90
_cell_volume                     2258.49
_exptl_crystal_colour            'light yellow'
_exptl_crystal_description       'long needle'
_cell_formula_units_Z            4
loop_
_atom_site_label
_atom_site_type_symbol
_atom_site_fract_x
_atom_site_fract_y
_atom_site_fract_z
O1 O 0.4938(4) 0.54518(19) 0.61937(19)
O2 O 0.68281(19) 0.18828(12) 0.66978(12)
O3 O 0.5148(3) 0.08614(16) 0.66844(15)
O4 O 0.5042(2) 0.27228(16) 0.50555(18)
C1 C 0.5059(4) 0.4747(3) 0.6575(3)
C2 C 0.6253(3) 0.4377(2) 0.7022(2)
C3 C 0.5948(3) 0.3564(2) 0.7334(2)
C4 C 0.6883(3) 0.2980(2) 0.78615(19)
C5 C 0.6730(3) 0.1971(2) 0.76331(18)
H1 H 0.5850 0.1750 0.7830
C6 C 0.6021(3) 0.12716(18) 0.6320(2)
C7 C 0.6338(3) 0.11420(18) 0.53672(19)
H2 H 0.5481 0.1040 0.5067
N1 N 0.6963(2) 0.19302(15) 0.49792(16)
H3 H 0.7797 0.1914 0.4829
C8 C 0.6236(3) 0.26854(19) 0.4854(2)
C9 C 0.6961(4) 0.3469(2) 0.4449(2)
H4 H 0.6828 0.4003 0.4794
H5 H 0.6614 0.3571 0.3877
H6 H 0.7907 0.3335 0.4415
C10 C 0.7558(4) 0.4851(2) 0.7147(2)
H7 H 0.7381 0.5461 0.7374
O5 O 0.4035(3) 0.41449(19) 0.6658(2)
C11 C 0.4508(3) 0.3364(3) 0.7114(3)
H8 H 0.4445 0.2826 0.6754
H9 H 0.3983 0.3267 0.7636
C12 C 0.6446(4) 0.3086(3) 0.8819(2)
H10 H 0.6950 0.2672 0.9172
H11 H 0.5501 0.2957 0.8872
H12 H 0.6617 0.3697 0.9006
C13 C 0.8339(3) 0.33113(19) 0.7643(2)
H13 H 0.8421 0.3232 0.7016
C14 C 0.9505(3) 0.2746(2) 0.8027(3)
C15 C 0.9708(5) 0.2843(3) 0.9012(3)
H14 H 1.0535 0.2554 0.9177
H15 H 0.8968 0.2562 0.9309
H16 H 0.9745 0.3475 0.9161
C16 C 1.0821(3) 0.3028(3) 0.7590(3)
H17 H 1.1518 0.2602 0.7736
H18 H 1.1076 0.3622 0.7786
H19 H 1.0698 0.3037 0.6974
C17 C 0.9248(4) 0.1748(2) 0.7788(3)
H20 H 0.9368 0.1677 0.7168
H21 H 0.9920 0.1374 0.8072
C18 C 0.7849(4) 0.1400(2) 0.8034(3)
H22 H 0.7755 0.0777 0.7842
H23 H 0.7757 0.1409 0.8658
C19 C 0.7224(3) 0.02874(18) 0.5222(2)
H24 H 0.7446 0.0269 0.4604
C20 C 0.8545(4) 0.0318(2) 0.5709(3)
H25 H 0.9131 -0.0151 0.5496
H26 H 0.8380 0.0224 0.6314
H27 H 0.8964 0.0899 0.5624
C21 C 0.6455(5) -0.0580(2) 0.5425(3)
H28 H 0.6211 -0.0585 0.6026
H29 H 0.7015 -0.1095 0.5301
H30 H 0.5654 -0.0607 0.5078
C22 C 0.8440(4) 0.4343(2) 0.7786(2)
H31 H 0.8160 0.4489 0.8371
H32 H 0.9370 0.4535 0.7718
Cl1 Cl 0.84192(13) 0.49558(7) 0.61198(8)
O6 O 0.6668(16) 0.6935(8) 0.6155(11)
loop_
_geom_bond_atom_site_label_1
_geom_bond_atom_site_label_2
_geom_bond_site_symmetry_1
_geom_bond_site_symmetry_2
O1 C1 1_555 1_555
O2 C5 1_555 1_555
O3 C6 1_555 1_555
O4 C8 1_555 1_555
C1 C2 1_555 1_555
C2 C3 1_555 1_555
C3 C4 1_555 1_555
C4 C5 1_555 1_555
C5 H1 1_555 1_555
C6 O2 1_555 1_555
C7 C6 1_555 1_555
H2 C7 1_555 1_555
N1 C7 1_555 1_555
H3 N1 1_555 1_555
C8 N1 1_555 1_555
C9 C8 1_555 1_555
H4 C9 1_555 1_555
H5 C9 1_555 1_555
H6 C9 1_555 1_555
C10 C2 1_555 1_555
H7 C10 1_555 1_555
O5 C1 1_555 1_555
C11 C3 1_555 1_555
H8 C11 1_555 1_555
H9 C11 1_555 1_555
C12 C4 1_555 1_555
H10 C12 1_555 1_555
H11 C12 1_555 1_555
H12 C12 1_555 1_555
C13 C4 1_555 1_555
H13 C13 1_555 1_555
C14 C13 1_555 1_555
C15 C14 1_555 1_555
H14 C15 1_555 1_555
H15 C15 1_555 1_555
H16 C15 1_555 1_555
C16 C14 1_555 1_555
H17 C16 1_555 1_555
H18 C16 1_555 1_555
H19 C16 1_555 1_555
C17 C14 1_555 1_555
H20 C17 1_555 1_555
H21 C17 1_555 1_555
C18 C5 1_555 1_555
H22 C18 1_555 1_555
H23 C18 1_555 1_555
C19 C7 1_555 1_555
H24 C19 1_555 1_555
C20 C19 1_555 1_555
H25 C20 1_555 1_555
H26 C20 1_555 1_555
H27 C20 1_555 1_555
C21 C19 1_555 1_555
H28 C21 1_555 1_555
H29 C21 1_555 1_555
H30 C21 1_555 1_555
C22 C10 1_555 1_555
H31 C22 1_555 1_555
H32 C22 1_555 1_555
Cl1 C10 1_555 1_555
O5 C11 1_555 1_555
C13 C22 1_555 1_555
C17 C18 1_555 1_555

#END
