
#######################################################################
#
#                 Cambridge Crystallographic Data Centre
#                                CCDC 
#
#######################################################################
#
# If this CIF has been generated from an entry in the Cambridge 
# Structural Database, then it will include bibliographic, chemical, 
# crystal, experimental, refinement or atomic coordinate data resulting 
# from the CCDC's data processing and validation procedures.
#
#######################################################################

data_OYUPOP
_chemical_formula_moiety         'C21 H17 Br1 N2 O3 S1'
_chemical_name_systematic        
"methyl 5-bromo-1-ethyl-2-oxo-2'-(phenylimino)-1,2-dihydrospiro[indole-3,3'-thiophene]-4'-carboxylate"
_symmetry_cell_setting           triclinic
_symmetry_space_group_name_H-M   'P -1'
_symmetry_Int_Tables_number      2
_space_group_name_Hall           '-P 1'
loop_
_symmetry_equiv_pos_site_id
_symmetry_equiv_pos_as_xyz
1 x,y,z
2 -x,-y,-z
_cell_length_a                   10.5994(11)
_cell_length_b                   11.0901(13)
_cell_length_c                   18.718(2)
_cell_angle_alpha                81.304(9)
_cell_angle_beta                 87.027(9)
_cell_angle_gamma                73.828(10)
_cell_volume                     2088.8
_exptl_crystal_colour            colorless
_exptl_crystal_description       block
_cell_formula_units_Z            4
loop_
_atom_site_label
_atom_site_type_symbol
_atom_site_fract_x
_atom_site_fract_y
_atom_site_fract_z
Br1 Br 0.48508(7) -0.04006(10) 0.11173(5)
S1 S 0.81816(18) 0.40117(19) 0.17053(10)
O1 O 1.1340(4) 0.1245(4) 0.1456(2)
O2 O 0.8870(5) 0.0842(5) 0.3538(3)
O3 O 0.9759(5) -0.0512(5) 0.2741(3)
N1 N 1.0452(5) -0.0156(6) 0.1008(3)
N2 N 0.8382(5) 0.3040(6) 0.0440(3)
C1 C 0.9194(6) -0.0349(7) 0.1005(3)
C2 C 0.8883(6) -0.1322(7) 0.0727(3)
H1 H 0.9515 -0.1946 0.0526
C3 C 0.7549(7) -0.1301(7) 0.0771(4)
H2 H 0.7284 -0.1935 0.0600
C4 C 0.6652(7) -0.0381(7) 0.1056(4)
C5 C 0.6964(6) 0.0608(6) 0.1332(3)
H3 H 0.6327 0.1238 0.1526
C6 C 0.8271(6) 0.0591(6) 0.1298(3)
C7 C 0.8951(6) 0.1502(6) 0.1529(3)
C8 C 1.0406(7) 0.0880(6) 0.1335(3)
C9 C 1.1668(6) -0.1040(7) 0.0836(4)
H4 H 1.2336 -0.0590 0.0731
H5 H 1.1550 -0.1379 0.0404
C10 C 1.2142(6) -0.2117(8) 0.1431(4)
H6 H 1.2873 -0.2738 0.1259
H7 H 1.1445 -0.2499 0.1582
H8 H 1.2412 -0.1806 0.1832
C11 C 0.8833(6) 0.1643(7) 0.2325(4)
C12 C 0.8487(6) 0.2838(7) 0.2451(4)
H9 H 0.8411 0.3037 0.2919
C13 C 0.8499(6) 0.2838(6) 0.1111(4)
C14 C 0.9220(8) 0.0515(9) 0.2878(5)
C15 C 0.9295(8) -0.0198(9) 0.4121(4)
H10 H 0.8972 -0.0894 0.4042
H11 H 0.8958 0.0077 0.4572
H12 H 1.0238 -0.0465 0.4133
C16 C 0.7888(7) 0.4326(7) 0.0089(4)
C17 C 0.6652(8) 0.5054(8) 0.0219(4)
H13 H 0.6110 0.4725 0.0553
C18 C 0.6191(8) 0.6289(9) -0.0146(5)
H14 H 0.5354 0.6786 -0.0049
C19 C 0.6999(10) 0.6765(8) -0.0652(5)
H15 H 0.6705 0.7579 -0.0904
C20 C 0.8211(9) 0.6032(9) -0.0774(4)
H16 H 0.8751 0.6370 -0.1105
C21 C 0.8696(7) 0.4803(7) -0.0434(4)
H17 H 0.9525 0.4309 -0.0547
Br2 Br 0.45866(8) 0.37822(10) 0.21072(5)
S2 S 0.6356(2) 0.8927(2) 0.30084(14)
O4 O 0.7857(5) 0.6571(5) 0.4763(3)
O5 O 0.9297(4) 0.4563(5) 0.3483(3)
O6 O 1.0036(5) 0.5924(5) 0.2671(3)
N3 N 0.6888(5) 0.4974(6) 0.4690(3)
N4 N 0.4750(6) 0.7927(6) 0.3931(3)
C22 C 0.6317(6) 0.4578(7) 0.4147(4)
C23 C 0.5882(7) 0.3482(8) 0.4197(5)
H18 H 0.5961 0.2908 0.4620
C24 C 0.5329(7) 0.3307(8) 0.3580(5)
H19 H 0.4987 0.2617 0.3595
C25 C 0.5274(6) 0.4122(9) 0.2951(4)
C26 C 0.5702(6) 0.5209(7) 0.2915(4)
H20 H 0.5613 0.5788 0.2493
C27 C 0.6255(6) 0.5400(7) 0.3515(4)
C28 C 0.7279(6) 0.6046(8) 0.4440(4)
C29 C 0.6817(6) 0.6454(7) 0.3643(4)
C30 C 0.5816(7) 0.7728(7) 0.3588(4)
C31 C 0.7804(7) 0.7810(8) 0.2832(4)
H21 H 0.8443 0.8025 0.2519
C32 C 0.7956(7) 0.6638(7) 0.3162(4)
C33 C 0.9156(8) 0.5589(8) 0.3141(4)
C34 C 1.1276(7) 0.4971(8) 0.2644(4)
H22 H 1.1846 0.5288 0.2296
H23 H 1.1132 0.4220 0.2507
H24 H 1.1676 0.4771 0.3111
C35 C 0.7235(8) 0.4279(8) 0.5419(4)
H25 H 0.6579 0.3839 0.5586
H26 H 0.7223 0.4881 0.5747
C36 C 0.8555(8) 0.3341(9) 0.5441(5)
H27 H 0.8568 0.2732 0.5124
H28 H 0.8735 0.2913 0.5925
H29 H 0.9212 0.3773 0.5286
C37 C 0.3861(7) 0.9161(7) 0.3874(4)
C38 C 0.3189(8) 0.9726(8) 0.3246(4)
H30 H 0.3306 0.9302 0.2845
C39 C 0.2338(8) 1.0929(10) 0.3218(6)
H31 H 0.1890 1.1313 0.2792
C40 C 0.2141(8) 1.1561(9) 0.3799(6)
H32 H 0.1550 1.2362 0.3778
C41 C 0.2831(9) 1.0996(9) 0.4420(5)
H33 H 0.2724 1.1426 0.4818
C42 C 0.3681(7) 0.9795(8) 0.4454(4)
H34 H 0.4134 0.9416 0.4879
loop_
_geom_bond_atom_site_label_1
_geom_bond_atom_site_label_2
_geom_bond_site_symmetry_1
_geom_bond_site_symmetry_2
Br1 C4 1_555 1_555
S1 C12 1_555 1_555
O1 C8 1_555 1_555
O2 C14 1_555 1_555
O3 C14 1_555 1_555
N1 C1 1_555 1_555
N2 C13 1_555 1_555
C1 C2 1_555 1_555
C2 H1 1_555 1_555
C3 C2 1_555 1_555
H2 C3 1_555 1_555
C4 C3 1_555 1_555
C5 C4 1_555 1_555
H3 C5 1_555 1_555
C6 C1 1_555 1_555
C7 C6 1_555 1_555
C8 N1 1_555 1_555
C9 N1 1_555 1_555
H4 C9 1_555 1_555
H5 C9 1_555 1_555
C10 C9 1_555 1_555
H6 C10 1_555 1_555
H7 C10 1_555 1_555
H8 C10 1_555 1_555
C11 C7 1_555 1_555
C12 C11 1_555 1_555
H9 C12 1_555 1_555
C13 S1 1_555 1_555
C14 C11 1_555 1_555
C15 O2 1_555 1_555
H10 C15 1_555 1_555
H11 C15 1_555 1_555
H12 C15 1_555 1_555
C16 N2 1_555 1_555
C17 C16 1_555 1_555
H13 C17 1_555 1_555
C18 C17 1_555 1_555
H14 C18 1_555 1_555
C19 C18 1_555 1_555
H15 C19 1_555 1_555
C20 C19 1_555 1_555
H16 C20 1_555 1_555
C21 C16 1_555 1_555
H17 C21 1_555 1_555
Br2 C25 1_555 1_555
S2 C30 1_555 1_555
O4 C28 1_555 1_555
O5 C33 1_555 1_555
O6 C33 1_555 1_555
N3 C22 1_555 1_555
N4 C30 1_555 1_555
C22 C23 1_555 1_555
C23 H18 1_555 1_555
C24 C23 1_555 1_555
H19 C24 1_555 1_555
C25 C24 1_555 1_555
C26 C25 1_555 1_555
H20 C26 1_555 1_555
C27 C22 1_555 1_555
C28 N3 1_555 1_555
C29 C27 1_555 1_555
C30 C29 1_555 1_555
C31 S2 1_555 1_555
H21 C31 1_555 1_555
C32 C29 1_555 1_555
C33 C32 1_555 1_555
C34 O6 1_555 1_555
H22 C34 1_555 1_555
H23 C34 1_555 1_555
H24 C34 1_555 1_555
C35 N3 1_555 1_555
H25 C35 1_555 1_555
H26 C35 1_555 1_555
C36 C35 1_555 1_555
H27 C36 1_555 1_555
H28 C36 1_555 1_555
H29 C36 1_555 1_555
C37 N4 1_555 1_555
C38 C37 1_555 1_555
H30 C38 1_555 1_555
C39 C38 1_555 1_555
H31 C39 1_555 1_555
C40 C39 1_555 1_555
H32 C40 1_555 1_555
C41 C40 1_555 1_555
H33 C41 1_555 1_555
C42 C37 1_555 1_555
H34 C42 1_555 1_555
C5 C6 1_555 1_555
C7 C8 1_555 1_555
C7 C13 1_555 1_555
C20 C21 1_555 1_555
C26 C27 1_555 1_555
C28 C29 1_555 1_555
C31 C32 1_555 1_555
C41 C42 1_555 1_555

#END
