
#######################################################################
#
#                 Cambridge Crystallographic Data Centre
#                                CCDC 
#
#######################################################################
#
# If this CIF has been generated from an entry in the Cambridge 
# Structural Database, then it will include bibliographic, chemical, 
# crystal, experimental, refinement or atomic coordinate data resulting 
# from the CCDC's data processing and validation procedures.
#
#######################################################################

data_OYUXOW
_chemical_formula_moiety         'C6 H3 F3 O7 S3'
_chemical_name_systematic        
'2-Hydroxybenzene-1,3,5-trisulfonyl trifluoride'
_symmetry_cell_setting           monoclinic
_symmetry_space_group_name_H-M   'P 21/c'
_symmetry_Int_Tables_number      14
_space_group_name_Hall           '-P 2ybc'
loop_
_symmetry_equiv_pos_site_id
_symmetry_equiv_pos_as_xyz
1 x,y,z
2 -x,1/2+y,1/2-z
3 -x,-y,-z
4 x,1/2-y,1/2+z
_cell_length_a                   12.6809(16)
_cell_length_b                   9.3559(11)
_cell_length_c                   9.7643(12)
_cell_angle_alpha                90
_cell_angle_beta                 91.793(15)
_cell_angle_gamma                90
_cell_volume                     1157.88
_exptl_crystal_colour            colorless
_exptl_crystal_description       polyhedron
_cell_formula_units_Z            4
loop_
_atom_site_label
_atom_site_type_symbol
_atom_site_fract_x
_atom_site_fract_y
_atom_site_fract_z
S1 S 0.18046(7) -0.18732(9) 0.48765(9)
S2 S 0.53292(6) -0.03709(10) 0.23131(10)
S3 S 0.16399(7) 0.20715(9) 0.07069(9)
F1 F 0.1458(2) -0.3187(3) 0.4025(3)
F2 F 0.5369(2) -0.1783(3) 0.1470(3)
F3 F 0.08276(16) 0.1118(2) -0.0032(2)
O1 O 0.07397(18) 0.0208(3) 0.2758(3)
O2 O 0.2561(2) -0.2368(4) 0.5834(3)
O3 O 0.08551(19) -0.1223(3) 0.5275(3)
O4 O 0.5718(2) 0.0698(3) 0.1447(3)
O5 O 0.5816(2) -0.0732(4) 0.3591(3)
O6 O 0.1074(3) 0.3034(3) 0.1515(3)
O7 O 0.2326(2) 0.2569(4) -0.0295(3)
C1 C 0.1785(2) 0.0042(3) 0.2745(3)
C2 C 0.2389(2) -0.0854(3) 0.3610(3)
C3 C 0.3473(2) -0.0966(3) 0.3495(3)
C4 C 0.3968(2) -0.0189(3) 0.2489(3)
C5 C 0.3399(2) 0.0714(3) 0.1617(3)
C6 C 0.2320(2) 0.0828(3) 0.1756(3)
H1 H 0.052(4) -0.010(5) 0.341(5)
H2 H 0.392(2) -0.165(3) 0.407(3)
H3 H 0.372(2) 0.127(3) 0.093(3)
loop_
_geom_bond_atom_site_label_1
_geom_bond_atom_site_label_2
_geom_bond_site_symmetry_1
_geom_bond_site_symmetry_2
S1 F1 1_555 1_555
S2 F2 1_555 1_555
S3 F3 1_555 1_555
O1 C1 1_555 1_555
O2 S1 1_555 1_555
O3 S1 1_555 1_555
O4 S2 1_555 1_555
O5 S2 1_555 1_555
O6 S3 1_555 1_555
O7 S3 1_555 1_555
C1 C2 1_555 1_555
C2 S1 1_555 1_555
C3 C2 1_555 1_555
C4 S2 1_555 1_555
C5 C4 1_555 1_555
C6 S3 1_555 1_555
H1 O1 1_555 1_555
H2 C3 1_555 1_555
H3 C5 1_555 1_555
C1 C6 1_555 1_555
C3 C4 1_555 1_555
C5 C6 1_555 1_555

#END
