
#######################################################################
#
#                 Cambridge Crystallographic Data Centre
#                                CCDC 
#
#######################################################################
#
# If this CIF has been generated from an entry in the Cambridge 
# Structural Database, then it will include bibliographic, chemical, 
# crystal, experimental, refinement or atomic coordinate data resulting 
# from the CCDC's data processing and validation procedures.
#
#######################################################################

data_OYUXOX
_chemical_formula_moiety         'C15 H14 O4'
_chemical_name_systematic        
4a,5-dihydroxy-4-methoxy-4a,10a-dihydrophenanthren-2(1H)-one
_symmetry_cell_setting           orthorhombic
_symmetry_space_group_name_H-M   'P 21 21 21'
_symmetry_Int_Tables_number      19
_space_group_name_Hall           'P 2ac 2ab'
loop_
_symmetry_equiv_pos_site_id
_symmetry_equiv_pos_as_xyz
1 x,y,z
2 1/2+x,1/2-y,-z
3 -x,1/2+y,1/2-z
4 1/2-x,-y,1/2+z
_cell_length_a                   7.4270(10)
_cell_length_b                   7.6615(11)
_cell_length_c                   22.110(3)
_cell_angle_alpha                90
_cell_angle_beta                 90
_cell_angle_gamma                90
_cell_volume                     1258.1
_exptl_crystal_colour            colorless
_exptl_crystal_description       block
_cell_formula_units_Z            4
loop_
_atom_site_label
_atom_site_type_symbol
_atom_site_fract_x
_atom_site_fract_y
_atom_site_fract_z
O1 O 0.17677(14) -0.37244(13) -0.01592(4)
O2 O -0.00091(12) 0.20129(11) 0.03501(3)
O3 O -0.17875(11) -0.03340(12) 0.12156(4)
H1 H -0.2219 -0.0783 0.0901
O4 O -0.22180(12) 0.28737(13) 0.15538(4)
H2 H -0.2532 0.1908 0.1408
C1 C 0.12653(16) -0.26317(17) 0.02159(5)
C2 C 0.10541(17) -0.08138(17) 0.00603(5)
H3 H 0.1338 -0.0435 -0.0338
C3 C 0.04556(15) 0.03659(16) 0.04737(5)
C4 C 0.01282(15) -0.00783(15) 0.11389(5)
C5 C 0.07128(16) 0.14373(16) 0.15445(5)
C6 C -0.04423(16) 0.28041(16) 0.17153(5)
C7 C 0.01865(19) 0.41828(17) 0.20709(5)
H4 H -0.0621 0.5073 0.2197
C8 C 0.1977(2) 0.42600(18) 0.22402(5)
H5 H 0.2402 0.5218 0.2473
C9 C -0.0084(2) 0.25133(18) -0.02801(5)
H6 H 0.1120 0.2419 -0.0459
H7 H -0.0509 0.3721 -0.0313
H8 H -0.0914 0.1739 -0.0496
C10 C 0.11089(17) -0.17713(16) 0.13130(5)
H9 H 0.0599 -0.2177 0.1707
C11 C 0.31011(18) -0.14793(17) 0.14037(5)
H10 H 0.3919 -0.2403 0.1321
C12 C 0.37352(18) 0.00496(18) 0.15977(5)
H11 H 0.4996 0.0195 0.1649
C13 C 0.25286(16) 0.15102(17) 0.17338(5)
C14 C 0.31586(18) 0.29358(18) 0.20709(5)
H12 H 0.4391 0.2998 0.2184
C15 C 0.07544(18) -0.32053(17) 0.08449(5)
H13 H 0.1455 -0.4259 0.0954
H14 H -0.0539 -0.3519 0.0852
loop_
_geom_bond_atom_site_label_1
_geom_bond_atom_site_label_2
_geom_bond_site_symmetry_1
_geom_bond_site_symmetry_2
O1 C1 1_555 1_555
O2 C3 1_555 1_555
O3 H1 1_555 1_555
O4 H2 1_555 1_555
C1 C2 1_555 1_555
C2 H3 1_555 1_555
C3 C2 1_555 1_555
C4 O3 1_555 1_555
C5 C4 1_555 1_555
C6 O4 1_555 1_555
C7 C6 1_555 1_555
H4 C7 1_555 1_555
C8 C7 1_555 1_555
H5 C8 1_555 1_555
C9 O2 1_555 1_555
H6 C9 1_555 1_555
H7 C9 1_555 1_555
H8 C9 1_555 1_555
C10 C4 1_555 1_555
H9 C10 1_555 1_555
C11 C10 1_555 1_555
H10 C11 1_555 1_555
C12 C11 1_555 1_555
H11 C12 1_555 1_555
C13 C5 1_555 1_555
C14 C8 1_555 1_555
H12 C14 1_555 1_555
C15 C1 1_555 1_555
H13 C15 1_555 1_555
H14 C15 1_555 1_555
C3 C4 1_555 1_555
C5 C6 1_555 1_555
C10 C15 1_555 1_555
C12 C13 1_555 1_555
C13 C14 1_555 1_555

#END
