
#######################################################################
#
#                 Cambridge Crystallographic Data Centre
#                                CCDC 
#
#######################################################################
#
# If this CIF has been generated from an entry in the Cambridge 
# Structural Database, then it will include bibliographic, chemical, 
# crystal, experimental, refinement or atomic coordinate data resulting 
# from the CCDC's data processing and validation procedures.
#
#######################################################################

data_OYUXUC
_chemical_formula_moiety         'C12 H8 F6 Li2 O16 S6'
_chemical_name_systematic        
'bis(\m~2~-2-Hydroxybenzene-1,3,5-trisulfonyl trifluoride)-di-aqua-di-lithium'
_symmetry_cell_setting           monoclinic
_symmetry_space_group_name_H-M   'P 21/c'
_symmetry_Int_Tables_number      14
_space_group_name_Hall           '-P 2ybc'
loop_
_symmetry_equiv_pos_site_id
_symmetry_equiv_pos_as_xyz
1 x,y,z
2 -x,1/2+y,1/2-z
3 -x,-y,-z
4 x,1/2-y,1/2+z
_cell_length_a                   12.4188(14)
_cell_length_b                   11.615(2)
_cell_length_c                   9.5533(11)
_cell_angle_alpha                90
_cell_angle_beta                 111.980(12)
_cell_angle_gamma                90
_cell_volume                     1277.85
_exptl_crystal_colour            colorless
_exptl_crystal_description       polyhedron
_cell_formula_units_Z            2
loop_
_atom_site_label
_atom_site_type_symbol
_atom_site_fract_x
_atom_site_fract_y
_atom_site_fract_z
S1 S 0.77020(5) -0.02255(5) 0.85147(6)
S2 S 1.07974(6) -0.17856(6) 0.61979(7)
S3 S 0.63699(6) -0.11554(6) 0.24990(6)
F1 F 0.68397(16) -0.11876(15) 0.85337(18)
F2 F 1.06939(18) -0.30792(17) 0.6522(3)
F3 F 0.60869(19) 0.01270(18) 0.2099(2)
O1 O 0.60558(14) -0.04347(15) 0.53428(17)
O2 O 0.6210(2) 0.2275(3) 0.5359(3)
O3 O 0.70316(17) 0.07991(16) 0.81941(19)
O4 O 0.86836(18) -0.03367(19) 0.98706(18)
O5 O 1.16265(18) -0.1349(2) 0.7538(3)
O6 O 1.0973(2) -0.1746(3) 0.4828(3)
O7 O 0.6839(2) -0.1612(2) 0.1475(2)
O8 O 0.53186(16) -0.16174(18) 0.25328(19)
C1 C 0.70854(19) -0.06983(19) 0.5518(2)
C2 C 0.80313(19) -0.0663(2) 0.6966(2)
C3 C 0.9151(2) -0.0970(2) 0.7188(3)
C4 C 0.9412(2) -0.1321(2) 0.5947(3)
C5 C 0.8548(2) -0.1358(2) 0.4506(3)
C6 C 0.7433(2) -0.1057(2) 0.4306(2)
Li1 Li 0.5517(4) 0.1010(4) 0.6018(5)
H1 H 0.680(5) 0.261(4) 0.582(5)
H2 H 0.611(5) 0.252(5) 0.468(6)
H3 H 0.878(3) -0.159(2) 0.369(3)
H4 H 0.973(3) -0.095(2) 0.817(3)
S1B S 0.22980(5) 0.02255(5) 0.14853(6)
S2B S -0.07974(6) 0.17856(6) 0.38021(7)
S3B S 0.36301(6) 0.11554(6) 0.75010(6)
F1B F 0.31603(16) 0.11876(15) 0.14663(18)
F2B F -0.06939(18) 0.30792(17) 0.3478(3)
F3B F 0.39131(19) -0.01270(18) 0.7901(2)
O1B O 0.39442(14) 0.04347(15) 0.46572(17)
O2B O 0.3790(2) -0.2275(3) 0.4641(3)
O3B O 0.29684(17) -0.07991(16) 0.18059(19)
O4B O 0.13164(18) 0.03367(19) 0.01294(18)
O5B O -0.16265(18) 0.1349(2) 0.2462(3)
O6B O -0.0973(2) 0.1746(3) 0.5172(3)
O7B O 0.3161(2) 0.1612(2) 0.8525(2)
O8B O 0.46814(16) 0.16174(18) 0.74672(19)
C1B C 0.29146(19) 0.06983(19) 0.4482(2)
C2B C 0.19687(19) 0.0663(2) 0.3034(2)
C3B C 0.0849(2) 0.0970(2) 0.2812(3)
C4B C 0.0588(2) 0.1321(2) 0.4053(3)
C5B C 0.1452(2) 0.1358(2) 0.5494(3)
C6B C 0.2567(2) 0.1057(2) 0.5694(2)
Li1B Li 0.4483(4) -0.1010(4) 0.3982(5)
H1B H 0.320(5) -0.261(4) 0.418(5)
H2B H 0.389(5) -0.252(5) 0.532(6)
H3B H 0.122(3) 0.159(2) 0.631(3)
H4B H 0.027(3) 0.095(2) 0.183(3)
loop_
_geom_bond_atom_site_label_1
_geom_bond_atom_site_label_2
_geom_bond_site_symmetry_1
_geom_bond_site_symmetry_2
S1 F1 1_555 1_555
S2 F2 1_555 1_555
S3 F3 1_555 1_555
O1 C1 1_555 1_555
O2 Li1 1_555 1_555
O3 S1 1_555 1_555
O4 S1 1_555 1_555
O5 S2 1_555 1_555
O6 S2 1_555 1_555
O7 S3 1_555 1_555
O8 S3 1_555 1_555
C1 C2 1_555 1_555
C2 S1 1_555 1_555
C3 C2 1_555 1_555
C4 S2 1_555 1_555
C5 C4 1_555 1_555
C6 S3 1_555 1_555
Li1 O1 1_555 1_555
H1 O2 1_555 1_555
H2 O2 1_555 1_555
H3 C5 1_555 1_555
H4 C3 1_555 1_555
S1B F1B 1_555 1_555
S2B F2B 1_555 1_555
S3B F3B 1_555 1_555
O1B Li1 1_555 1_555
O2B Li1B 1_555 1_555
O3B S1B 1_555 1_555
O4B S1B 1_555 1_555
O5B S2B 1_555 1_555
O6B S2B 1_555 1_555
O7B S3B 1_555 1_555
O8B Li1 1_555 1_555
C1B O1B 1_555 1_555
C2B S1B 1_555 1_555
C3B C2B 1_555 1_555
C4B S2B 1_555 1_555
C5B C4B 1_555 1_555
C6B S3B 1_555 1_555
Li1B O1 1_555 1_555
H1B O2B 1_555 1_555
H2B O2B 1_555 1_555
H3B C5B 1_555 1_555
H4B C3B 1_555 1_555
O3 Li1 1_555 1_555
O8 Li1B 1_555 1_555
C1 C6 1_555 1_555
C3 C4 1_555 1_555
C5 C6 1_555 1_555
S3B O8B 1_555 1_555
O1B Li1B 1_555 1_555
O3B Li1B 1_555 1_555
C1B C2B 1_555 1_555
C1B C6B 1_555 1_555
C3B C4B 1_555 1_555
C5B C6B 1_555 1_555

#END
