
#######################################################################
#
#                 Cambridge Crystallographic Data Centre
#                                CCDC 
#
#######################################################################
#
# If this CIF has been generated from an entry in the Cambridge 
# Structural Database, then it will include bibliographic, chemical, 
# crystal, experimental, refinement or atomic coordinate data resulting 
# from the CCDC's data processing and validation procedures.
#
#######################################################################

data_OZADUQ
_chemical_formula_moiety         'C35 H30 Br1 N3 O4'
_chemical_name_systematic        
"ethyl 1''-benzyl-5'-(4-bromophenyl)-1-methyl-2,2''-dioxo-1,1'',2,2''-tetrahydrodispiro[indole-3,2'-pyrrolidine-3',3''-indole]-4'-carboxylate"
_symmetry_cell_setting           monoclinic
_symmetry_space_group_name_H-M   'P 21/c'
_symmetry_Int_Tables_number      14
_space_group_name_Hall           '-P 2ybc'
loop_
_symmetry_equiv_pos_site_id
_symmetry_equiv_pos_as_xyz
1 x,y,z
2 -x,1/2+y,1/2-z
3 -x,-y,-z
4 x,1/2-y,1/2+z
_cell_length_a                   11.8840(5)
_cell_length_b                   29.1838(12)
_cell_length_c                   9.0214(4)
_cell_angle_alpha                90
_cell_angle_beta                 103.560(3)
_cell_angle_gamma                90
_cell_volume                     3041.59
_exptl_crystal_colour            colorless
_exptl_crystal_description       block
_cell_formula_units_Z            4
loop_
_atom_site_label
_atom_site_type_symbol
_atom_site_fract_x
_atom_site_fract_y
_atom_site_fract_z
Br1 Br 0.34735(4) 0.222475(18) 0.95877(6)
O1 O 0.46246(18) 0.40335(7) 0.3729(2)
O2 O 0.75253(18) 0.30207(7) 0.5089(2)
C1 C 0.7434(3) 0.39630(10) 0.2733(3)
N1 N 0.7676(2) 0.34985(8) 0.3117(3)
O3 O 0.7452(2) 0.46847(8) 0.7454(3)
C2 C 0.9082(3) 0.31641(10) 0.1740(3)
N2 N 0.7689(2) 0.36805(9) 0.7921(3)
H1 H 0.8097 0.3531 0.8682
C3 C 0.6042(3) 0.37555(10) 0.5780(3)
H2 H 0.5765 0.3450 0.5417
C4 C 0.9358(3) 0.38186(11) 0.6728(3)
C5 C 0.6424(3) 0.37318(11) 0.7544(3)
H3 H 0.6236 0.4025 0.7956
C6 C 0.5799(3) 0.33548(11) 0.8187(3)
O4 O 0.4687(2) 0.43561(10) 0.5992(3)
C7 C 0.9309(3) 0.28735(11) 0.0643(4)
H4 H 0.8729 0.2680 0.0117
C8 C 0.7172(3) 0.38484(10) 0.5220(3)
C9 C 0.7134(2) 0.41889(10) 0.3939(3)
C10 C 0.8125(3) 0.39282(10) 0.6774(3)
C11 C 0.7485(2) 0.34011(11) 0.4514(3)
C12 C 0.6778(3) 0.46409(11) 0.3761(4)
H5 H 0.6576 0.4799 0.4556
C13 C 0.5058(3) 0.40861(11) 0.5221(4)
C14 C 0.7428(3) 0.41725(12) 0.1367(4)
H6 H 0.7660 0.4018 0.0587
C15 C 0.4459(3) 0.26784(13) 0.9095(4)
C16 C 0.5954(3) 0.28986(12) 0.7893(4)
H7 H 0.6515 0.2817 0.7376
C17 C 0.8205(3) 0.44484(12) 0.7135(4)
C18 C 0.4989(3) 0.34652(14) 0.8984(4)
H8 H 0.4891 0.3770 0.9230
N3 N 0.9257(3) 0.45962(10) 0.7030(4)
C19 C 0.9949(3) 0.34487(14) 0.2525(5)
H9 H 0.9816 0.3643 0.3283
C20 C 0.6728(3) 0.48545(12) 0.2370(4)
H10 H 0.6469 0.5155 0.2222
C21 C 0.9979(3) 0.42248(13) 0.6839(4)
C22 C 0.4309(4) 0.31288(16) 0.9428(5)
H11 H 0.3752 0.3209 0.9953
C23 C 0.9931(3) 0.34138(13) 0.6652(4)
H12 H 0.9537 0.3137 0.6613
C24 C 0.3737(3) 0.43616(12) 0.3008(4)
H13 H 0.4021 0.4672 0.3210
H14 H 0.3051 0.4325 0.3404
C25 C 0.7061(3) 0.46240(12) 0.1205(4)
H15 H 0.7037 0.4775 0.0291
C26 C 0.7893(3) 0.31463(11) 0.2072(3)
H16 H 0.7317 0.3175 0.1118
H17 H 0.7792 0.2848 0.2499
C27 C 1.1093(3) 0.34168(16) 0.6632(5)
H18 H 1.1477 0.3142 0.6584
C28 C 1.1682(4) 0.3824(2) 0.6685(6)
H19 H 1.2459 0.3822 0.6654
C29 C 0.5298(3) 0.25613(13) 0.8344(4)
H20 H 0.5423 0.2255 0.8141
C30 C 0.3460(4) 0.42691(14) 0.1350(4)
H21 H 0.2875 0.4479 0.0840
H22 H 0.3182 0.3961 0.1165
H23 H 0.4144 0.4308 0.0971
C31 C 0.9642(4) 0.50724(15) 0.7322(7)
H24 H 0.8997 0.5260 0.7408
H25 H 0.9952 0.5181 0.6495
H26 H 1.0230 0.5088 0.8255
C32 C 1.0377(4) 0.28651(15) 0.0316(5)
H27 H 1.0517 0.2665 -0.0422
C33 C 1.1021(4) 0.3439(2) 0.2164(6)
H28 H 1.1606 0.3633 0.2673
C34 C 1.1230(4) 0.3146(2) 0.1059(7)
H29 H 1.1952 0.3142 0.0826
C35 C 1.1133(4) 0.42335(17) 0.6782(6)
H30 H 1.1527 0.4510 0.6808
loop_
_geom_bond_atom_site_label_1
_geom_bond_atom_site_label_2
_geom_bond_site_symmetry_1
_geom_bond_site_symmetry_2
Br1 C15 1_555 1_555
O1 C13 1_555 1_555
O2 C11 1_555 1_555
C1 N1 1_555 1_555
N1 C11 1_555 1_555
O3 C17 1_555 1_555
C2 C7 1_555 1_555
N2 H1 1_555 1_555
C3 H2 1_555 1_555
C4 C10 1_555 1_555
C5 N2 1_555 1_555
H3 C5 1_555 1_555
C6 C5 1_555 1_555
O4 C13 1_555 1_555
C7 H4 1_555 1_555
C8 C3 1_555 1_555
C9 C1 1_555 1_555
C10 N2 1_555 1_555
C11 C8 1_555 1_555
C12 C9 1_555 1_555
H5 C12 1_555 1_555
C13 C3 1_555 1_555
C14 C1 1_555 1_555
H6 C14 1_555 1_555
C15 C22 1_555 1_555
C16 C6 1_555 1_555
H7 C16 1_555 1_555
C17 C10 1_555 1_555
C18 C6 1_555 1_555
H8 C18 1_555 1_555
N3 C17 1_555 1_555
C19 C2 1_555 1_555
H9 C19 1_555 1_555
C20 C12 1_555 1_555
H10 C20 1_555 1_555
C21 C4 1_555 1_555
C22 C18 1_555 1_555
H11 C22 1_555 1_555
C23 C4 1_555 1_555
H12 C23 1_555 1_555
C24 O1 1_555 1_555
H13 C24 1_555 1_555
H14 C24 1_555 1_555
C25 C14 1_555 1_555
H15 C25 1_555 1_555
C26 N1 1_555 1_555
H16 C26 1_555 1_555
H17 C26 1_555 1_555
C27 C23 1_555 1_555
H18 C27 1_555 1_555
C28 C27 1_555 1_555
H19 C28 1_555 1_555
C29 C15 1_555 1_555
H20 C29 1_555 1_555
C30 C24 1_555 1_555
H21 C30 1_555 1_555
H22 C30 1_555 1_555
H23 C30 1_555 1_555
C31 N3 1_555 1_555
H24 C31 1_555 1_555
H25 C31 1_555 1_555
H26 C31 1_555 1_555
C32 C7 1_555 1_555
H27 C32 1_555 1_555
C33 C19 1_555 1_555
H28 C33 1_555 1_555
C34 C32 1_555 1_555
H29 C34 1_555 1_555
C35 C21 1_555 1_555
H30 C35 1_555 1_555
C2 C26 1_555 1_555
C3 C5 1_555 1_555
C8 C9 1_555 1_555
C8 C10 1_555 1_555
C16 C29 1_555 1_555
N3 C21 1_555 1_555
C20 C25 1_555 1_555
C28 C35 1_555 1_555
C33 C34 1_555 1_555

#END
