
#######################################################################
#
#                 Cambridge Crystallographic Data Centre
#                                CCDC 
#
#######################################################################
#
# If this CIF has been generated from an entry in the Cambridge 
# Structural Database, then it will include bibliographic, chemical, 
# crystal, experimental, refinement or atomic coordinate data resulting 
# from the CCDC's data processing and validation procedures.
#
#######################################################################

data_OZAHUU
_chemical_formula_moiety         'C30 H25 N1 O6'
_chemical_name_systematic        
'dimethyl 1-(4-methoxyphenyl)-2-(4-methylphenyl)-5-oxo-2,5-dihydro-1H-indeno[1,2-b]pyridine-3,4-dicarboxylate'
_symmetry_cell_setting           orthorhombic
_symmetry_space_group_name_H-M   'P b c a'
_symmetry_Int_Tables_number      61
_space_group_name_Hall           '-P 2ac 2ab'
loop_
_symmetry_equiv_pos_site_id
_symmetry_equiv_pos_as_xyz
1 x,y,z
2 1/2-x,-y,1/2+z
3 1/2+x,1/2-y,-z
4 -x,1/2+y,1/2-z
5 -x,-y,-z
6 1/2+x,y,1/2-z
7 1/2-x,1/2+y,z
8 x,1/2-y,1/2+z
_cell_length_a                   9.7163(14)
_cell_length_b                   21.658(3)
_cell_length_c                   24.336(3)
_cell_angle_alpha                90
_cell_angle_beta                 90
_cell_angle_gamma                90
_cell_volume                     5121.16
_exptl_crystal_colour            red
_exptl_crystal_description       block
_cell_formula_units_Z            8
loop_
_atom_site_label
_atom_site_type_symbol
_atom_site_fract_x
_atom_site_fract_y
_atom_site_fract_z
C1 C 1.0389(4) 0.20127(18) 0.12707(15)
C2 C 1.1826(4) 0.2032(2) 0.14809(16)
C3 C 1.2921(5) 0.1624(2) 0.14477(17)
H1 H 1.2838 0.1251 0.1261
C4 C 1.4142(5) 0.1788(3) 0.17014(19)
H2 H 1.4889 0.1521 0.1682
C5 C 1.4278(5) 0.2336(3) 0.1980(2)
H3 H 1.5116 0.2435 0.2143
C6 C 1.3177(5) 0.2744(3) 0.20233(18)
H4 H 1.3258 0.3111 0.2219
C7 C 1.1963(4) 0.2586(2) 0.17666(16)
C8 C 1.0641(4) 0.2946(2) 0.17268(17)
C9 C 0.9724(4) 0.25514(18) 0.14165(15)
C10 C 0.8380(4) 0.26834(19) 0.12046(15)
C11 C 0.7836(4) 0.3322(2) 0.12644(17)
C12 C 0.6346(6) 0.3945(3) 0.1789(3)
H5 H 0.7027 0.4248 0.1883
H6 H 0.5696 0.3907 0.2084
H7 H 0.5876 0.4070 0.1460
C13 C 0.7698(4) 0.22343(19) 0.09242(15)
C14 C 0.6369(5) 0.2384(2) 0.06632(16)
C15 C 0.4551(5) 0.1976(3) 0.0125(2)
H8 H 0.3914 0.2175 0.0369
H9 H 0.4185 0.1583 0.0014
H10 H 0.4694 0.2230 -0.0193
C16 C 0.8264(4) 0.15856(18) 0.08810(15)
H11 H 0.8100 0.1441 0.0505
C17 C 0.7540(4) 0.11438(18) 0.12683(15)
C18 C 0.7644(4) 0.12154(19) 0.18389(16)
H12 H 0.8151 0.1541 0.1984
C19 C 0.6998(5) 0.0807(2) 0.21833(18)
H13 H 0.7093 0.0854 0.2561
C20 C 0.6214(5) 0.0330(2) 0.1982(2)
C21 C 0.5500(9) -0.0128(3) 0.2344(3)
H14 H 0.6173 -0.0367 0.2540
H15 H 0.4945 -0.0398 0.2123
H16 H 0.4925 0.0086 0.2602
C22 C 0.6118(6) 0.0256(2) 0.1419(2)
H17 H 0.5612 -0.0070 0.1274
C23 C 0.6775(5) 0.0666(2) 0.10686(19)
H18 H 0.6692 0.0615 0.0691
C24 C 1.0469(4) 0.10054(18) 0.08205(15)
C25 C 1.0571(4) 0.0528(2) 0.11851(16)
H19 H 1.0172 0.0564 0.1531
C26 C 1.1262(5) -0.0007(2) 0.10440(17)
H20 H 1.1347 -0.0325 0.1299
C27 C 1.1823(5) -0.0071(2) 0.05282(18)
C28 C 1.2649(9) -0.1077(3) 0.0726(2)
H21 H 1.3128 -0.0937 0.1048
H22 H 1.3161 -0.1404 0.0556
H23 H 1.1754 -0.1225 0.0828
C29 C 1.1712(5) 0.0421(2) 0.01608(18)
H24 H 1.2105 0.0389 -0.0186
C30 C 1.1031(5) 0.0949(2) 0.03051(17)
H25 H 1.0948 0.1271 0.0054
N1 N 0.9789(3) 0.15692(15) 0.09799(12)
O1 O 1.0422(3) 0.34445(15) 0.19297(13)
O2 O 0.8141(4) 0.37485(14) 0.09734(13)
O3 O 0.7004(3) 0.33596(14) 0.16978(12)
O4 O 0.5810(4) 0.28702(17) 0.06614(14)
O5 O 0.5849(3) 0.18831(16) 0.04053(12)
O6 O 1.2507(4) -0.05786(16) 0.03507(13)
loop_
_geom_bond_atom_site_label_1
_geom_bond_atom_site_label_2
_geom_bond_site_symmetry_1
_geom_bond_site_symmetry_2
C1 C2 1_555 1_555
C2 C3 1_555 1_555
C3 H1 1_555 1_555
C4 C3 1_555 1_555
H2 C4 1_555 1_555
C5 C4 1_555 1_555
H3 C5 1_555 1_555
C6 C5 1_555 1_555
H4 C6 1_555 1_555
C7 C2 1_555 1_555
C8 C7 1_555 1_555
C9 C1 1_555 1_555
C10 C9 1_555 1_555
C11 C10 1_555 1_555
C12 H5 1_555 1_555
H6 C12 1_555 1_555
H7 C12 1_555 1_555
C13 C10 1_555 1_555
C14 C13 1_555 1_555
C15 H8 1_555 1_555
H9 C15 1_555 1_555
H10 C15 1_555 1_555
C16 C13 1_555 1_555
H11 C16 1_555 1_555
C17 C16 1_555 1_555
C18 C17 1_555 1_555
H12 C18 1_555 1_555
C19 C18 1_555 1_555
H13 C19 1_555 1_555
C20 C19 1_555 1_555
C21 C20 1_555 1_555
H14 C21 1_555 1_555
H15 C21 1_555 1_555
H16 C21 1_555 1_555
C22 C20 1_555 1_555
H17 C22 1_555 1_555
C23 C17 1_555 1_555
H18 C23 1_555 1_555
C24 C25 1_555 1_555
C25 H19 1_555 1_555
C26 C25 1_555 1_555
H20 C26 1_555 1_555
C27 C26 1_555 1_555
C28 H21 1_555 1_555
H22 C28 1_555 1_555
H23 C28 1_555 1_555
C29 C27 1_555 1_555
H24 C29 1_555 1_555
C30 C24 1_555 1_555
H25 C30 1_555 1_555
N1 C1 1_555 1_555
O1 C8 1_555 1_555
O2 C11 1_555 1_555
O3 C11 1_555 1_555
O4 C14 1_555 1_555
O5 C14 1_555 1_555
O6 C27 1_555 1_555
C6 C7 1_555 1_555
C8 C9 1_555 1_555
C12 O3 1_555 1_555
C15 O5 1_555 1_555
C16 N1 1_555 1_555
C22 C23 1_555 1_555
C24 N1 1_555 1_555
C28 O6 1_555 1_555
C29 C30 1_555 1_555

#END
