
#######################################################################
#
#                 Cambridge Crystallographic Data Centre
#                                CCDC 
#
#######################################################################
#
# If this CIF has been generated from an entry in the Cambridge 
# Structural Database, then it will include bibliographic, chemical, 
# crystal, experimental, refinement or atomic coordinate data resulting 
# from the CCDC's data processing and validation procedures.
#
#######################################################################

data_OZAJAC
_chemical_formula_moiety         'C23 H17 Br1 N2 O3'
_chemical_name_systematic        
1-benzyl-7-bromo-2'-phenyl-5'H-spiro[indole-3,3'-[1,2]oxazolidine]-2,5'(1H)-dione
_symmetry_cell_setting           monoclinic
_symmetry_space_group_name_H-M   'P 21'
_symmetry_Int_Tables_number      4
_space_group_name_Hall           'P 2yb'
loop_
_symmetry_equiv_pos_site_id
_symmetry_equiv_pos_as_xyz
1 x,y,z
2 -x,1/2+y,-z
_cell_length_a                   9.706(4)
_cell_length_b                   9.239(4)
_cell_length_c                   11.148(5)
_cell_angle_alpha                90
_cell_angle_beta                 99.978(6)
_cell_angle_gamma                90
_cell_volume                     984.562
_exptl_crystal_colour            colorless
_exptl_crystal_description       block
_cell_formula_units_Z            2
loop_
_atom_site_label
_atom_site_type_symbol
_atom_site_fract_x
_atom_site_fract_y
_atom_site_fract_z
Br1 Br 0.40016(4) 0.26057(7) 0.22464(4)
O1 O 1.1255(3) -0.0354(4) 0.4258(3)
O2 O 1.2446(4) 0.0764(4) 0.5895(3)
O3 O 1.0020(3) 0.2635(5) 0.3133(3)
N1 N 0.9766(4) -0.0636(4) 0.3783(3)
N2 N 0.7609(4) 0.2300(4) 0.2864(3)
C1 C 0.9289(5) -0.1654(6) 0.0033(4)
H1 H 0.9178 -0.1912 -0.0804
C2 C 0.8367(5) -0.2199(6) 0.0760(4)
H2 H 0.7617 -0.2812 0.0414
C3 C 0.8552(5) -0.1837(5) 0.1998(4)
H3 H 0.7945 -0.2226 0.2498
C4 C 0.9633(5) -0.0904(5) 0.2492(4)
C5 C 0.9002(4) 0.0650(4) 0.4182(4)
C6 C 0.8994(5) 0.1989(5) 0.3335(4)
C7 C 0.7251(5) 0.3459(5) 0.1970(4)
H4 H 0.8082 0.4082 0.1977
H5 H 0.6506 0.4064 0.2217
C8 C 0.6755(5) 0.2918(5) 0.0676(4)
C9 C 0.5742(5) 0.3712(6) -0.0098(4)
H6 H 0.5351 0.4556 0.0195
C10 C 0.5305(6) 0.3268(7) -0.1300(5)
H7 H 0.4603 0.3800 -0.1818
C11 C 0.5891(6) 0.2058(6) -0.1741(5)
H8 H 0.5590 0.1761 -0.2560
C12 C 1.1327(5) 0.0482(5) 0.5278(4)
C13 C 0.9878(5) 0.0929(5) 0.5441(4)
H9 H 0.9852 0.1964 0.5667
H10 H 0.9544 0.0337 0.6073
C14 C 0.6691(5) 0.1363(5) 0.3359(4)
C15 C 0.7479(5) 0.0344(5) 0.4131(4)
C16 C 0.6858(5) -0.0696(5) 0.4762(4)
H11 H 0.7413 -0.1371 0.5279
C17 C 0.5393(5) -0.0729(6) 0.4620(4)
H12 H 0.4944 -0.1432 0.5041
C18 C 0.4600(5) 0.0271(6) 0.3863(4)
H13 H 0.3609 0.0244 0.3771
C19 C 0.5241(5) 0.1318(5) 0.3232(4)
C20 C 0.7331(5) 0.1693(5) 0.0231(4)
H14 H 0.8007 0.1139 0.0756
C21 C 0.6922(6) 0.1272(6) -0.0984(4)
H15 H 0.7344 0.0456 -0.1293
C22 C 1.0561(5) -0.0349(5) 0.1771(4)
H16 H 1.1305 0.0274 0.2112
C23 C 1.0365(5) -0.0736(5) 0.0539(4)
H17 H 1.0982 -0.0362 0.0040
loop_
_geom_bond_atom_site_label_1
_geom_bond_atom_site_label_2
_geom_bond_site_symmetry_1
_geom_bond_site_symmetry_2
Br1 C19 1_555 1_555
O1 N1 1_555 1_555
O2 C12 1_555 1_555
O3 C6 1_555 1_555
N1 C4 1_555 1_555
N2 C6 1_555 1_555
C1 H1 1_555 1_555
C2 C1 1_555 1_555
H2 C2 1_555 1_555
C3 C2 1_555 1_555
H3 C3 1_555 1_555
C4 C3 1_555 1_555
C5 N1 1_555 1_555
C6 C5 1_555 1_555
C7 N2 1_555 1_555
H4 C7 1_555 1_555
H5 C7 1_555 1_555
C8 C7 1_555 1_555
C9 C8 1_555 1_555
H6 C9 1_555 1_555
C10 C9 1_555 1_555
H7 C10 1_555 1_555
C11 C10 1_555 1_555
H8 C11 1_555 1_555
C12 O1 1_555 1_555
C13 C5 1_555 1_555
H9 C13 1_555 1_555
H10 C13 1_555 1_555
C14 N2 1_555 1_555
C15 C5 1_555 1_555
C16 C15 1_555 1_555
H11 C16 1_555 1_555
C17 C16 1_555 1_555
H12 C17 1_555 1_555
C18 C17 1_555 1_555
H13 C18 1_555 1_555
C19 C14 1_555 1_555
C20 C8 1_555 1_555
H14 C20 1_555 1_555
C21 C11 1_555 1_555
H15 C21 1_555 1_555
C22 C4 1_555 1_555
H16 C22 1_555 1_555
C23 C1 1_555 1_555
H17 C23 1_555 1_555
C12 C13 1_555 1_555
C14 C15 1_555 1_555
C18 C19 1_555 1_555
C20 C21 1_555 1_555
C22 C23 1_555 1_555

#END
