
#######################################################################
#
#                 Cambridge Crystallographic Data Centre
#                                CCDC 
#
#######################################################################
#
# If this CIF has been generated from an entry in the Cambridge 
# Structural Database, then it will include bibliographic, chemical, 
# crystal, experimental, refinement or atomic coordinate data resulting 
# from the CCDC's data processing and validation procedures.
#
#######################################################################

data_OZAMOT
_chemical_formula_moiety         'C16 H12 Br1 N1'
_chemical_name_systematic        N-(4-bromophenyl)naphthalen-2-amine
_symmetry_cell_setting           monoclinic
_symmetry_space_group_name_H-M   'P 21/c'
_symmetry_Int_Tables_number      14
_space_group_name_Hall           '-P 2ybc'
loop_
_symmetry_equiv_pos_site_id
_symmetry_equiv_pos_as_xyz
1 x,y,z
2 -x,1/2+y,1/2-z
3 -x,-y,-z
4 x,1/2-y,1/2+z
_cell_length_a                   6.184(2)
_cell_length_b                   14.183(4)
_cell_length_c                   14.605(4)
_cell_angle_alpha                90
_cell_angle_beta                 95.392(9)
_cell_angle_gamma                90
_cell_volume                     1275.3
_exptl_crystal_colour            colorless
_exptl_crystal_description       needle
_cell_formula_units_Z            4
_chemical_properties_physical    'Light-sensitive, Photo-sensitive'
_exptl_crystal_preparation       Luminescent
loop_
_atom_site_label
_atom_site_type_symbol
_atom_site_fract_x
_atom_site_fract_y
_atom_site_fract_z
C1 C 0.2613(9) 0.2698(4) 0.0753(3)
H1 H 0.1384 0.2372 0.0513
C2 C 0.6268(11) 0.2683(4) 0.1440(4)
H2 H 0.7512 0.2351 0.1652
C3 C 0.2891(9) 0.5789(3) 0.1261(4)
C4 C 0.4420(10) 0.2217(4) 0.1087(3)
C5 C 0.2601(9) 0.3668(4) 0.0770(3)
H3 H 0.1366 0.3991 0.0532
C6 C 0.6221(10) 0.3655(5) 0.1471(4)
H4 H 0.7444 0.3977 0.1725
C7 C 0.1466(8) 0.7381(3) 0.1167(3)
C8 C -0.1954(10) 0.7795(4) 0.1780(3)
H5 H -0.3151 0.7615 0.2079
C9 C 0.3050(8) 0.6699(4) 0.0987(3)
H6 H 0.4225 0.6879 0.0674
C10 C 0.1074(9) 0.5532(4) 0.1738(3)
H7 H 0.0945 0.4913 0.1936
C11 C -0.0349(8) 0.7111(4) 0.1621(3)
C12 C 0.1642(10) 0.8337(4) 0.0892(4)
H8 H 0.2840 0.8535 0.0603
C13 C -0.0485(9) 0.6174(4) 0.1912(3)
H9 H -0.1651 0.5986 0.2227
C14 C 0.0031(13) 0.8968(4) 0.1056(4)
H10 H 0.0143 0.9590 0.0863
C15 C -0.1780(12) 0.8695(4) 0.1508(4)
H11 H -0.2845 0.9133 0.1618
C16 C 0.4397(10) 0.4167(4) 0.1134(4)
N1 N 0.4501(8) 0.5147(4) 0.1128(3)
H12 H 0.5738 0.5383 0.1027
Br1 Br 0.44636(12) 0.08844(4) 0.10642(5)
loop_
_geom_bond_atom_site_label_1
_geom_bond_atom_site_label_2
_geom_bond_site_symmetry_1
_geom_bond_site_symmetry_2
C1 H1 1_555 1_555
C2 H2 1_555 1_555
C3 C9 1_555 1_555
C4 C1 1_555 1_555
C5 C1 1_555 1_555
H3 C5 1_555 1_555
C6 C2 1_555 1_555
H4 C6 1_555 1_555
C7 C9 1_555 1_555
C8 H5 1_555 1_555
C9 H6 1_555 1_555
C10 C3 1_555 1_555
H7 C10 1_555 1_555
C11 C7 1_555 1_555
C12 C7 1_555 1_555
H8 C12 1_555 1_555
C13 C10 1_555 1_555
H9 C13 1_555 1_555
C14 C12 1_555 1_555
H10 C14 1_555 1_555
C15 C8 1_555 1_555
H11 C15 1_555 1_555
C16 C5 1_555 1_555
N1 C3 1_555 1_555
H12 N1 1_555 1_555
Br1 C4 1_555 1_555
C2 C4 1_555 1_555
C6 C16 1_555 1_555
C8 C11 1_555 1_555
C11 C13 1_555 1_555
C14 C15 1_555 1_555
C16 N1 1_555 1_555

#END
