
#######################################################################
#
#                 Cambridge Crystallographic Data Centre
#                                CCDC 
#
#######################################################################
#
# If this CIF has been generated from an entry in the Cambridge 
# Structural Database, then it will include bibliographic, chemical, 
# crystal, experimental, refinement or atomic coordinate data resulting 
# from the CCDC's data processing and validation procedures.
#
#######################################################################

data_OZAMEJ
_chemical_formula_moiety         'C20 H12 Br2'
_chemical_name_systematic        4,4'-dibromo-1,1'-binaphthalene
_symmetry_cell_setting           monoclinic
_symmetry_space_group_name_H-M   'C 2/c'
_symmetry_Int_Tables_number      15
_space_group_name_Hall           '-C 2yn'
loop_
_symmetry_equiv_pos_site_id
_symmetry_equiv_pos_as_xyz
1 x,y,z
2 -x,y,1/2-z
3 1/2+x,1/2+y,z
4 1/2-x,1/2+y,1/2-z
5 -x,-y,-z
6 x,-y,1/2+z
7 1/2-x,1/2-y,-z
8 1/2+x,1/2-y,1/2+z
_cell_length_a                   13.713(3)
_cell_length_b                   10.561(2)
_cell_length_c                   11.738(2)
_cell_angle_alpha                90
_cell_angle_beta                 115.52(3)
_cell_angle_gamma                90
_cell_volume                     1534.08
_exptl_crystal_colour            colorless
_exptl_crystal_description       block
_cell_formula_units_Z            4
_chemical_properties_physical    'Light-sensitive, Photo-sensitive'
_exptl_crystal_preparation       Luminescent
loop_
_atom_site_label
_atom_site_type_symbol
_atom_site_fract_x
_atom_site_fract_y
_atom_site_fract_z
Br1 Br 0.06924(3) 0.71217(5) 0.12686(4)
C1 C 0.2176(3) 0.7095(3) 0.1611(3)
C2 C 0.4405(3) 0.7047(3) 0.2294(3)
C3 C 0.2829(3) 0.8001(4) 0.2372(4)
H1 H 0.2539 0.8643 0.2674
C4 C 0.1913(3) 0.5218(3) 0.0206(3)
H2 H 0.1173 0.5226 -0.0028
C5 C 0.4114(3) 0.5163(3) 0.0902(3)
H3 H 0.4853 0.5122 0.1132
C6 C 0.3942(3) 0.7977(3) 0.2707(4)
H4 H 0.4378 0.8613 0.3226
C7 C 0.3710(2) 0.6105(3) 0.1437(3)
C8 C 0.2576(3) 0.6129(3) 0.1074(3)
C9 C 0.2332(3) 0.4334(4) -0.0293(4)
H5 H 0.1880 0.3744 -0.0866
C10 C 0.3440(3) 0.4306(4) 0.0052(4)
H6 H 0.3723 0.3702 -0.0299
Br1A Br 0.93076(3) 0.71217(5) 0.37314(4)
C1A C 0.7824(3) 0.7095(3) 0.3389(3)
C2A C 0.5595(3) 0.7047(3) 0.2706(3)
C3A C 0.7171(3) 0.8001(4) 0.2628(4)
H1A H 0.7461 0.8643 0.2326
C4A C 0.8087(3) 0.5218(3) 0.4794(3)
H2A H 0.8827 0.5226 0.5028
C5A C 0.5886(3) 0.5163(3) 0.4098(3)
H3A H 0.5147 0.5122 0.3868
C6A C 0.6058(3) 0.7977(3) 0.2293(4)
H4A H 0.5622 0.8613 0.1774
C7A C 0.6290(2) 0.6105(3) 0.3563(3)
C8A C 0.7424(3) 0.6129(3) 0.3926(3)
C9A C 0.7668(3) 0.4334(4) 0.5293(4)
H5A H 0.8120 0.3744 0.5866
C10A C 0.6560(3) 0.4306(4) 0.4948(4)
H6A H 0.6277 0.3702 0.5299
loop_
_geom_bond_atom_site_label_1
_geom_bond_atom_site_label_2
_geom_bond_site_symmetry_1
_geom_bond_site_symmetry_2
Br1 C1 1_555 1_555
C1 C3 1_555 1_555
C2 C6 1_555 1_555
C3 H1 1_555 1_555
C4 H2 1_555 1_555
C5 H3 1_555 1_555
C6 C3 1_555 1_555
H4 C6 1_555 1_555
C7 C2 1_555 1_555
C8 C1 1_555 1_555
C9 C4 1_555 1_555
H5 C9 1_555 1_555
C10 C5 1_555 1_555
H6 C10 1_555 1_555
Br1A C1A 1_555 1_555
C1A C3A 1_555 1_555
C2A C2 1_555 1_555
C3A H1A 1_555 1_555
C4A H2A 1_555 1_555
C5A H3A 1_555 1_555
C6A C2A 1_555 1_555
H4A C6A 1_555 1_555
C7A C2A 1_555 1_555
C8A C1A 1_555 1_555
C9A C4A 1_555 1_555
H5A C9A 1_555 1_555
C10A C5A 1_555 1_555
H6A C10A 1_555 1_555
C4 C8 1_555 1_555
C5 C7 1_555 1_555
C7 C8 1_555 1_555
C9 C10 1_555 1_555
C3A C6A 1_555 1_555
C4A C8A 1_555 1_555
C5A C7A 1_555 1_555
C7A C8A 1_555 1_555
C9A C10A 1_555 1_555

#END
