
#######################################################################
#
#                 Cambridge Crystallographic Data Centre
#                                CCDC 
#
#######################################################################
#
# If this CIF has been generated from an entry in the Cambridge 
# Structural Database, then it will include bibliographic, chemical, 
# crystal, experimental, refinement or atomic coordinate data resulting 
# from the CCDC's data processing and validation procedures.
#
#######################################################################

data_OZAPOW
_chemical_formula_moiety         'C30 H26 O3'
_chemical_name_systematic        
4,4-bis(4-methoxyphenyl)-1,2-diphenylbut-3-en-1-one
_symmetry_cell_setting           orthorhombic
_symmetry_space_group_name_H-M   'P 21 21 21'
_symmetry_Int_Tables_number      19
_space_group_name_Hall           'P 2ac 2ab'
loop_
_symmetry_equiv_pos_site_id
_symmetry_equiv_pos_as_xyz
1 x,y,z
2 1/2-x,-y,1/2+z
3 1/2+x,1/2-y,-z
4 -x,1/2+y,1/2-z
_cell_length_a                   11.6060(3)
_cell_length_b                   11.6328(2)
_cell_length_c                   33.8943(10)
_cell_angle_alpha                90
_cell_angle_beta                 90
_cell_angle_gamma                90
_cell_volume                     4576.08
_exptl_crystal_colour            colorless
_exptl_crystal_description       plate
_cell_formula_units_Z            8
loop_
_atom_site_label
_atom_site_type_symbol
_atom_site_fract_x
_atom_site_fract_y
_atom_site_fract_z
O1 O -0.0208(4) -0.2785(4) 0.08511(14)
O2 O 0.7709(4) -0.1434(4) 0.03672(14)
O3 O 0.2891(4) 0.3998(4) 0.06085(18)
C1 C 0.3276(5) 0.0515(5) 0.05439(16)
C2 C 0.3089(5) 0.1630(5) 0.04773(17)
H1 H 0.2346 0.1916 0.0507
C3 C 0.2341(4) -0.0325(5) 0.06479(16)
C4 C 0.1196(5) -0.0141(5) 0.05470(17)
H2 H 0.0987 0.0544 0.0425
C5 C 0.0353(5) -0.0966(5) 0.06261(18)
H3 H -0.0411 -0.0828 0.0559
C6 C 0.0664(5) -0.2001(5) 0.08076(17)
C7 C 0.1786(5) -0.2172(6) 0.09259(18)
H4 H 0.1989 -0.2838 0.1061
C8 C 0.2615(5) -0.1342(5) 0.08415(17)
H5 H 0.3374 -0.1472 0.0917
C9 C 0.0120(6) -0.3894(6) 0.0987(2)
H6 H 0.0334 -0.3851 0.1260
H7 H 0.0763 -0.4166 0.0835
H8 H -0.0516 -0.4415 0.0957
C10 C 0.4460(5) -0.0008(5) 0.04986(16)
C11 C 0.5289(5) 0.0075(5) 0.07917(17)
H9 H 0.5121 0.0466 0.1024
C12 C 0.6370(5) -0.0422(5) 0.07415(17)
H10 H 0.6913 -0.0379 0.0943
C13 C 0.6640(4) -0.0979(5) 0.03931(17)
C14 C 0.5804(5) -0.1084(5) 0.00980(17)
H11 H 0.5966 -0.1482 -0.0134
C15 C 0.4736(5) -0.0590(5) 0.01550(16)
H12 H 0.4185 -0.0650 -0.0043
C16 C 0.8018(6) -0.1954(7) 0.0002(2)
H13 H 0.8827 -0.2123 0.0002
H14 H 0.7845 -0.1436 -0.0211
H15 H 0.7589 -0.2653 -0.0032
C17 C 0.4052(5) 0.2459(5) 0.03539(19)
H16 H 0.4787 0.2164 0.0455
C18 C 0.3856(5) 0.3658(5) 0.05233(19)
C19 C 0.4887(5) 0.4429(5) 0.05757(17)
C20 C 0.5998(5) 0.4096(6) 0.04759(19)
H17 H 0.6129 0.3363 0.0376
C21 C 0.6914(6) 0.4847(6) 0.05233(19)
H18 H 0.7657 0.4612 0.0459
C22 C 0.6727(6) 0.5948(6) 0.06664(19)
H19 H 0.7339 0.6457 0.0693
C23 C 0.5623(6) 0.6284(6) 0.0770(2)
H20 H 0.5494 0.7019 0.0868
C24 C 0.4709(6) 0.5526(6) 0.07263(18)
H21 H 0.3971 0.5754 0.0799
C25 C 0.4119(4) 0.2517(4) -0.00953(19)
C26 C 0.5027(5) 0.1973(5) -0.02947(19)
H22 H 0.5618 0.1632 -0.0151
C27 C 0.5053(5) 0.1937(5) -0.0704(2)
H23 H 0.5664 0.1581 -0.0833
C28 C 0.4172(6) 0.2432(6) -0.0920(2)
H24 H 0.4182 0.2392 -0.1194
C29 C 0.3272(5) 0.2987(6) -0.0729(2)
H25 H 0.2682 0.3326 -0.0874
C30 C 0.3261(5) 0.3032(5) -0.0325(2)
H26 H 0.2663 0.3417 -0.0199
O4 O -0.0395(4) 0.3873(4) 0.83133(13)
O5 O 0.1094(4) -0.3982(4) 0.78931(14)
O6 O 0.6530(4) 0.0896(4) 0.81280(17)
C31 C 0.3024(5) 0.0462(5) 0.80944(16)
C32 C 0.4138(5) 0.0656(5) 0.80281(18)
H27 H 0.4422 0.1394 0.8069
C33 C 0.2161(5) 0.1376(5) 0.81918(16)
C34 C 0.2354(5) 0.2531(5) 0.81012(19)
H28 H 0.3068 0.2754 0.8003
C35 C 0.1499(6) 0.3352(5) 0.81550(19)
H29 H 0.1644 0.4119 0.8095
C36 C 0.0415(5) 0.3021(5) 0.83008(16)
C37 C 0.0239(6) 0.1893(5) 0.84167(17)
H30 H -0.0455 0.1677 0.8532
C38 C 0.1114(6) 0.1079(5) 0.83593(19)
H31 H 0.0988 0.0322 0.8435
C39 C -0.1534(6) 0.3541(6) 0.8426(2)
H32 H -0.1535 0.3313 0.8699
H33 H -0.1783 0.2908 0.8266
H34 H -0.2049 0.4178 0.8391
C40 C 0.2520(5) -0.0718(4) 0.80403(16)
C41 C 0.2597(5) -0.1573(5) 0.83325(17)
H35 H 0.2987 -0.1422 0.8566
C42 C 0.2096(6) -0.2639(5) 0.82737(18)
H36 H 0.2132 -0.3188 0.8473
C43 C 0.1541(5) -0.2901(5) 0.79234(18)
C44 C 0.1432(5) -0.2056(5) 0.76350(16)
H37 H 0.1039 -0.2210 0.7402
C45 C 0.1912(5) -0.0991(5) 0.76987(17)
H38 H 0.1828 -0.0430 0.7506
C46 C 0.0596(7) -0.4269(6) 0.7523(2)
H39 H 0.0392 -0.5069 0.7521
H40 H 0.1142 -0.4120 0.7316
H41 H -0.0082 -0.3812 0.7481
C47 C 0.4972(5) -0.0272(5) 0.78888(17)
H42 H 0.4707 -0.1018 0.7988
C48 C 0.6200(5) -0.0053(5) 0.80424(18)
C49 C 0.6987(5) -0.1077(5) 0.80815(17)
C50 C 0.6682(6) -0.2170(6) 0.79580(19)
H43 H 0.5964 -0.2290 0.7843
C51 C 0.7438(6) -0.3099(6) 0.8004(2)
H44 H 0.7222 -0.3832 0.7923
C52 C 0.8506(6) -0.2914(7) 0.81704(19)
H45 H 0.9014 -0.3526 0.8200
C53 C 0.8830(6) -0.1826(7) 0.8294(2)
H46 H 0.9553 -0.1708 0.8405
C54 C 0.8073(5) -0.0916(6) 0.82517(18)
H47 H 0.8288 -0.0188 0.8338
C55 C 0.4996(5) -0.0316(4) 0.74406(18)
C56 C 0.4473(5) -0.1231(4) 0.72389(18)
H48 H 0.4136 -0.1826 0.7381
C57 C 0.4453(5) -0.1259(5) 0.68303(19)
H49 H 0.4113 -0.1879 0.6702
C58 C 0.4933(6) -0.0374(6) 0.6611(2)
H50 H 0.4904 -0.0388 0.6337
C59 C 0.5462(6) 0.0537(5) 0.6809(2)
H51 H 0.5787 0.1135 0.6665
C60 C 0.5505(5) 0.0557(5) 0.7212(2)
H52 H 0.5879 0.1161 0.7338
loop_
_geom_bond_atom_site_label_1
_geom_bond_atom_site_label_2
_geom_bond_site_symmetry_1
_geom_bond_site_symmetry_2
O1 C6 1_555 1_555
O2 C13 1_555 1_555
O3 C18 1_555 1_555
C1 C2 1_555 1_555
C2 H1 1_555 1_555
C3 C1 1_555 1_555
C4 C3 1_555 1_555
H2 C4 1_555 1_555
C5 C4 1_555 1_555
H3 C5 1_555 1_555
C6 C5 1_555 1_555
C7 C6 1_555 1_555
H4 C7 1_555 1_555
C8 C3 1_555 1_555
H5 C8 1_555 1_555
C9 O1 1_555 1_555
H6 C9 1_555 1_555
H7 C9 1_555 1_555
H8 C9 1_555 1_555
C10 C1 1_555 1_555
C11 C10 1_555 1_555
H9 C11 1_555 1_555
C12 C11 1_555 1_555
H10 C12 1_555 1_555
C13 C12 1_555 1_555
C14 C13 1_555 1_555
H11 C14 1_555 1_555
C15 C10 1_555 1_555
H12 C15 1_555 1_555
C16 O2 1_555 1_555
H13 C16 1_555 1_555
H14 C16 1_555 1_555
H15 C16 1_555 1_555
C17 C2 1_555 1_555
H16 C17 1_555 1_555
C18 C17 1_555 1_555
C19 C18 1_555 1_555
C20 C19 1_555 1_555
H17 C20 1_555 1_555
C21 C20 1_555 1_555
H18 C21 1_555 1_555
C22 C21 1_555 1_555
H19 C22 1_555 1_555
C23 C22 1_555 1_555
H20 C23 1_555 1_555
C24 C19 1_555 1_555
H21 C24 1_555 1_555
C25 C17 1_555 1_555
C26 C25 1_555 1_555
H22 C26 1_555 1_555
C27 C26 1_555 1_555
H23 C27 1_555 1_555
C28 C27 1_555 1_555
H24 C28 1_555 1_555
C29 C28 1_555 1_555
H25 C29 1_555 1_555
C30 C25 1_555 1_555
H26 C30 1_555 1_555
O4 C36 1_555 1_555
O5 C43 1_555 1_555
O6 C48 1_555 1_555
C31 C32 1_555 1_555
C32 H27 1_555 1_555
C33 C31 1_555 1_555
C34 C33 1_555 1_555
H28 C34 1_555 1_555
C35 C34 1_555 1_555
H29 C35 1_555 1_555
C36 C35 1_555 1_555
C37 C36 1_555 1_555
H30 C37 1_555 1_555
C38 C33 1_555 1_555
H31 C38 1_555 1_555
C39 O4 1_555 1_555
H32 C39 1_555 1_555
H33 C39 1_555 1_555
H34 C39 1_555 1_555
C40 C31 1_555 1_555
C41 C40 1_555 1_555
H35 C41 1_555 1_555
C42 C41 1_555 1_555
H36 C42 1_555 1_555
C43 C42 1_555 1_555
C44 C43 1_555 1_555
H37 C44 1_555 1_555
C45 C40 1_555 1_555
H38 C45 1_555 1_555
C46 O5 1_555 1_555
H39 C46 1_555 1_555
H40 C46 1_555 1_555
H41 C46 1_555 1_555
C47 C32 1_555 1_555
H42 C47 1_555 1_555
C48 C47 1_555 1_555
C49 C48 1_555 1_555
C50 C49 1_555 1_555
H43 C50 1_555 1_555
C51 C50 1_555 1_555
H44 C51 1_555 1_555
C52 C51 1_555 1_555
H45 C52 1_555 1_555
C53 C52 1_555 1_555
H46 C53 1_555 1_555
C54 C49 1_555 1_555
H47 C54 1_555 1_555
C55 C47 1_555 1_555
C56 C55 1_555 1_555
H48 C56 1_555 1_555
C57 C56 1_555 1_555
H49 C57 1_555 1_555
C58 C57 1_555 1_555
H50 C58 1_555 1_555
C59 C58 1_555 1_555
H51 C59 1_555 1_555
C60 C55 1_555 1_555
H52 C60 1_555 1_555
C7 C8 1_555 1_555
C14 C15 1_555 1_555
C23 C24 1_555 1_555
C29 C30 1_555 1_555
C37 C38 1_555 1_555
C44 C45 1_555 1_555
C53 C54 1_555 1_555
C59 C60 1_555 1_555

#END
