
#######################################################################
#
#                 Cambridge Crystallographic Data Centre
#                                CCDC 
#
#######################################################################
#
# If this CIF has been generated from an entry in the Cambridge 
# Structural Database, then it will include bibliographic, chemical, 
# crystal, experimental, refinement or atomic coordinate data resulting 
# from the CCDC's data processing and validation procedures.
#
#######################################################################

data_OZAQEN
_chemical_formula_moiety         
'C17 H23 B12 Cl4 N2 O1 1-,C16 H36 N1 1+,0.5(C3 H6 O1)'
_chemical_name_systematic        
'tetra-n-butylammonium 1,2-((dimethylamino)(iminio)methoxy)-3-(1,2-bis(3,5-dichlorophenyl)ethenyl)-closo-dodecaborate acetone solvate'
_symmetry_cell_setting           triclinic
_symmetry_space_group_name_H-M   'P -1'
_symmetry_Int_Tables_number      2
_space_group_name_Hall           '-P 1'
loop_
_symmetry_equiv_pos_site_id
_symmetry_equiv_pos_as_xyz
1 x,y,z
2 -x,-y,-z
_cell_length_a                   16.6284(7)
_cell_length_b                   16.8252(8)
_cell_length_c                   18.4279(7)
_cell_angle_alpha                71.490(4)
_cell_angle_beta                 84.573(3)
_cell_angle_gamma                69.525(4)
_cell_volume                     4579.33
_exptl_crystal_colour            colorless
_exptl_crystal_description       block
_cell_formula_units_Z            4
loop_
_atom_site_label
_atom_site_type_symbol
_atom_site_fract_x
_atom_site_fract_y
_atom_site_fract_z
Cl1 Cl 0.13631(10) 0.39893(9) 1.08202(9)
Cl2 Cl -0.06438(8) 0.74292(10) 1.00037(11)
Cl3 Cl 0.13110(13) 0.88897(16) 0.70820(10)
Cl4 Cl 0.07053(10) 1.04557(10) 0.92996(14)
O1 O 0.40702(19) 0.74493(18) 0.82596(15)
N1 N 0.4493(2) 0.6031(2) 0.90529(18)
H1 H 0.4582 0.5456 0.9185
N2 N 0.3866(2) 0.6403(2) 0.78416(19)
C1 C 0.4149(3) 0.6607(3) 0.8382(2)
C2 C 0.3597(4) 0.7051(3) 0.7094(3)
H2 H 0.3405 0.7653 0.7141
H3 H 0.3123 0.6958 0.6893
H4 H 0.4080 0.6979 0.6744
C3 C 0.3893(3) 0.5495(3) 0.7964(3)
H5 H 0.4492 0.5096 0.8014
H6 H 0.3617 0.5472 0.7527
H7 H 0.3588 0.5306 0.8433
C4 C 0.1977(3) 0.5350(3) 1.0397(2)
H8 H 0.2528 0.4900 1.0485
C5 C 0.1249(3) 0.5115(3) 1.0509(3)
C6 C 0.0431(3) 0.5735(3) 1.0389(3)
H9 H -0.0065 0.5562 1.0467
C7 C 0.0371(3) 0.6616(3) 1.0151(3)
C8 C 0.1075(3) 0.6882(3) 1.0039(3)
H10 H 0.1001 0.7499 0.9883
C9 C 0.1906(3) 0.6247(3) 1.0153(2)
C10 C 0.2693(3) 0.6468(3) 1.0082(2)
H11 H 0.3180 0.5986 1.0336
C11 C 0.2853(3) 0.7222(3) 0.9727(2)
C12 C 0.2191(3) 0.8030(3) 0.9229(3)
C13 C 0.1784(3) 0.8775(3) 0.9477(3)
H12 H 0.1897 0.8767 0.9975
C14 C 0.1214(3) 0.9526(3) 0.8984(4)
C15 C 0.1047(4) 0.9567(4) 0.8259(4)
H13 H 0.0650 1.0087 0.7931
C16 C 0.1469(4) 0.8834(4) 0.8015(3)
C17 C 0.2028(3) 0.8063(4) 0.8493(3)
H14 H 0.2299 0.7559 0.8320
B1 B 0.4380(3) 0.7553(3) 0.8947(2)
B2 B 0.4710(3) 0.6486(3) 0.9560(2)
B3 B 0.3767(3) 0.7294(3) 0.9788(2)
B4 B 0.3967(3) 0.8328(3) 0.9472(3)
H15 H 0.3436 0.8980 0.9252
B5 B 0.5020(3) 0.8148(3) 0.9076(3)
H16 H 0.5171 0.8681 0.8600
B6 B 0.5485(3) 0.7002(3) 0.9142(3)
H17 H 0.5953 0.6785 0.8705
B7 B 0.5597(3) 0.6330(3) 1.0111(3)
H18 H 0.6129 0.5675 1.0313
B8 B 0.4541(3) 0.6513(3) 1.0510(2)
H19 H 0.4385 0.5973 1.0975
B9 B 0.4086(3) 0.7675(3) 1.0460(3)
H20 H 0.3633 0.7904 1.0901
B10 B 0.4845(3) 0.8198(3) 1.0032(3)
H21 H 0.4889 0.8771 1.0192
B11 B 0.5778(3) 0.7382(3) 0.9825(3)
H22 H 0.6434 0.7420 0.9850
B12 B 0.5203(3) 0.7077(3) 1.0669(3)
H23 H 0.5483 0.6907 1.1251
Cl5 Cl 0.25940(10) 1.05239(9) 0.46999(12)
Cl6 Cl 0.59317(9) 0.85004(10) 0.48257(9)
Cl7 Cl 0.11360(11) 0.93579(12) 0.27658(9)
Cl8 Cl -0.02493(9) 0.88721(10) 0.55537(10)
O2 O 0.25780(17) 0.60150(18) 0.39249(14)
N3 N 0.3982(2) 0.5557(2) 0.42618(17)
H24 H 0.4524 0.5510 0.4181
N4 N 0.3474(2) 0.6479(2) 0.30223(18)
C18 C 0.3359(3) 0.6015(3) 0.3735(2)
C19 C 0.2765(3) 0.6970(4) 0.2471(3)
H25 H 0.2818 0.6663 0.2088
H26 H 0.2778 0.7573 0.2217
H27 H 0.2220 0.7005 0.2737
C20 C 0.4333(3) 0.6451(3) 0.2750(2)
H28 H 0.4598 0.6659 0.3073
H29 H 0.4295 0.6837 0.2220
H30 H 0.4683 0.5838 0.2774
C21 C 0.3138(3) 0.8752(3) 0.4962(3)
H31 H 0.2547 0.8813 0.4996
C22 C 0.3389(3) 0.9490(3) 0.4823(3)
C23 C 0.4235(3) 0.9440(3) 0.4774(3)
H32 H 0.4392 0.9956 0.4671
C24 C 0.4847(3) 0.8607(3) 0.4879(3)
C25 C 0.4626(3) 0.7854(3) 0.5027(2)
H33 H 0.5063 0.7288 0.5112
C26 C 0.3766(3) 0.7920(3) 0.5052(2)
C27 C 0.3589(2) 0.7085(3) 0.5196(2)
H34 H 0.4076 0.6561 0.5361
C28 C 0.2861(2) 0.6933(3) 0.5136(2)
C29 C 0.2048(2) 0.7666(3) 0.4816(2)
C30 C 0.1357(3) 0.7898(3) 0.5281(3)
H35 H 0.1395 0.7589 0.5813
C31 C 0.0618(3) 0.8575(3) 0.4969(3)
C32 C 0.0521(3) 0.9044(3) 0.4198(3)
H36 H 0.0005 0.9512 0.3992
C33 C 0.1216(3) 0.8796(3) 0.3742(3)
C34 C 0.1974(3) 0.8123(3) 0.4035(2)
H37 H 0.2441 0.7974 0.3707
B13 B 0.2571(3) 0.5486(3) 0.4743(2)
B14 B 0.3637(3) 0.5126(3) 0.5021(2)
B15 B 0.2851(3) 0.5940(3) 0.5397(2)
B16 B 0.1894(3) 0.5663(3) 0.5512(3)
H38 H 0.1242 0.6187 0.5430
B17 B 0.2102(3) 0.4676(3) 0.5241(3)
H39 H 0.1584 0.4559 0.4986
B18 B 0.3192(3) 0.4329(3) 0.4952(3)
H40 H 0.3388 0.3975 0.4508
B19 B 0.3895(3) 0.4071(3) 0.5725(3)
H41 H 0.4553 0.3559 0.5789
B20 B 0.3681(3) 0.5054(3) 0.5998(2)
H42 H 0.4203 0.5179 0.6240
B21 B 0.2589(3) 0.5379(3) 0.6316(2)
H43 H 0.2389 0.5710 0.6775
B22 B 0.2131(3) 0.4606(3) 0.6221(3)
H44 H 0.1625 0.4432 0.6621
B23 B 0.2933(3) 0.3785(3) 0.5870(3)
H45 H 0.2958 0.3076 0.6037
B24 B 0.3233(3) 0.4226(3) 0.6525(3)
H46 H 0.3455 0.3803 0.7124
N5 N 0.0899(3) 0.4297(3) 0.3226(2)
C35 C 0.0329(7) 0.3998(6) 0.2876(5)
H47 H -0.0216 0.4132 0.3156
H48 H 0.0200 0.4421 0.2352
C36 C 0.0459(8) 0.3202(8) 0.2794(5)
H49 H 0.0453 0.2786 0.3312
H50 H 0.1047 0.2997 0.2599
C37 C -0.0129(5) 0.3092(6) 0.2296(4)
H51 H -0.0234 0.3582 0.1807
H52 H -0.0687 0.3135 0.2551
C38 C 0.0242(8) 0.2197(8) 0.2130(6)
H53 H -0.0145 0.2168 0.1777
H54 H 0.0301 0.1710 0.2609
H55 H 0.0806 0.2140 0.1897
C39 C 0.1277(5) 0.3517(5) 0.4007(5)
H56 H 0.1588 0.2966 0.3870
H57 H 0.1711 0.3671 0.4216
C40 C 0.0734(5) 0.3314(5) 0.4593(4)
H58 H 0.0340 0.3099 0.4398
H59 H 0.0379 0.3879 0.4690
C41 C 0.1065(9) 0.2688(9) 0.5310(5)
H60 H 0.1455 0.2160 0.5173
H61 H 0.1446 0.2938 0.5478
C42 C 0.0724(10) 0.2349(8) 0.5935(6)
H62 H 0.0213 0.2249 0.5815
H63 H 0.0561 0.2760 0.6242
H64 H 0.1140 0.1781 0.6225
C43 C 0.1635(5) 0.4320(5) 0.2708(5)
H65 H 0.1821 0.3770 0.2556
H66 H 0.1414 0.4825 0.2238
C44 C 0.2384(5) 0.4398(5) 0.2956(4)
H67 H 0.2674 0.3845 0.3368
H68 H 0.2205 0.4896 0.3178
C45 C 0.3025(4) 0.4555(5) 0.2335(4)
H69 H 0.3047 0.4193 0.1997
H70 H 0.2809 0.5189 0.2022
C46 C 0.3879(5) 0.4353(8) 0.2588(6)
H71 H 0.4244 0.4459 0.2143
H72 H 0.4105 0.3726 0.2899
H73 H 0.3876 0.4734 0.2896
C47 C 0.0474(6) 0.5110(6) 0.3453(5)
H74 H -0.0030 0.5052 0.3768
H75 H 0.0877 0.5190 0.3764
C48 C 0.0201(6) 0.5882(8) 0.2773(6)
H76 H 0.0215 0.5668 0.2328
H77 H -0.0402 0.6236 0.2838
C49 C 0.0684(7) 0.6436(8) 0.2608(7)
H78 H 0.1221 0.6161 0.2364
H79 H 0.0844 0.6481 0.3094
C50 C 0.0215(8) 0.7408(8) 0.2063(7)
H80 H 0.0262 0.7404 0.1530
H81 H 0.0486 0.7816 0.2125
H82 H -0.0392 0.7608 0.2196
N6 N 0.6712(2) 0.8569(2) 0.1607(2)
C51 C 0.6555(3) 0.9033(3) 0.0754(2)
H83 H 0.6348 0.8671 0.0536
H84 H 0.6090 0.9614 0.0682
C52 C 0.7315(3) 0.9197(3) 0.0303(3)
H85 H 0.7791 0.8624 0.0369
H86 H 0.7515 0.9585 0.0493
C53 C 0.7066(4) 0.9640(4) -0.0541(3)
H87 H 0.6872 0.9245 -0.0728
H88 H 0.6580 1.0204 -0.0601
C54 C 0.7807(4) 0.9836(5) -0.1024(3)
H89 H 0.7596 1.0209 -0.1543
H90 H 0.8246 0.9275 -0.1046
H91 H 0.8058 1.0149 -0.0795
C55 C 0.7456(3) 0.7693(3) 0.1763(3)
H92 H 0.7994 0.7826 0.1611
H93 H 0.7497 0.7387 0.2321
C56 C 0.7399(3) 0.7061(3) 0.1357(3)
H94 H 0.6861 0.6928 0.1499
H95 H 0.7381 0.7351 0.0797
C57 C 0.8150(3) 0.6205(3) 0.1561(3)
H96 H 0.8209 0.5952 0.2125
H97 H 0.8682 0.6332 0.1366
C58 C 0.8051(4) 0.5529(4) 0.1231(4)
H98 H 0.7894 0.5810 0.0687
H99 H 0.7600 0.5306 0.1503
H100 H 0.8595 0.5032 0.1290
C59 C 0.5905(3) 0.8378(3) 0.1943(3)
H101 H 0.6022 0.8024 0.2489
H102 H 0.5779 0.8005 0.1678
C60 C 0.5106(3) 0.9193(3) 0.1891(3)
H103 H 0.5207 0.9556 0.2180
H104 H 0.4985 0.9563 0.1349
C61 C 0.4341(3) 0.8908(4) 0.2216(3)
H105 H 0.3810 0.9433 0.2067
H106 H 0.4308 0.8464 0.1984
C62 C 0.4372(4) 0.8522(4) 0.3055(3)
H107 H 0.4886 0.7991 0.3208
H108 H 0.3859 0.8356 0.3223
H109 H 0.4390 0.8961 0.3292
C63 C 0.6925(3) 0.9182(3) 0.1957(3)
H110 H 0.6466 0.9773 0.1805
H111 H 0.7467 0.9265 0.1735
C64 C 0.7022(4) 0.8855(4) 0.2829(3)
H112 H 0.6476 0.8794 0.3060
H113 H 0.7474 0.8261 0.2990
C65 C 0.7256(4) 0.9500(4) 0.3112(3)
H114 H 0.7409 0.9222 0.3663
H115 H 0.7773 0.9597 0.2840
C66 C 0.6577(6) 1.0374(4) 0.3009(5)
H116 H 0.6437 1.0671 0.2463
H117 H 0.6778 1.0743 0.3215
H118 H 0.6063 1.0290 0.3281
O3 O 0.2730(5) 1.2326(4) 0.3051(4)
C67 C 0.3053(9) 1.1465(11) 0.2230(10)
H119 H 0.2427 1.1688 0.2159
H120 H 0.3259 1.0812 0.2409
H121 H 0.3319 1.1671 0.1741
C68 C 0.3284(6) 1.1804(5) 0.2806(5)
C69 C 0.4186(7) 1.1514(7) 0.3028(5)
H122 H 0.4507 1.1752 0.2590
H123 H 0.4423 1.0861 0.3194
H124 H 0.4233 1.1733 0.3450
loop_
_geom_bond_atom_site_label_1
_geom_bond_atom_site_label_2
_geom_bond_site_symmetry_1
_geom_bond_site_symmetry_2
Cl1 C5 1_555 1_555
Cl2 C7 1_555 1_555
Cl3 C16 1_555 1_555
Cl4 C14 1_555 1_555
O1 C1 1_555 1_555
N1 H1 1_555 1_555
N2 C1 1_555 1_555
C1 N1 1_555 1_555
C2 N2 1_555 1_555
H2 C2 1_555 1_555
H3 C2 1_555 1_555
H4 C2 1_555 1_555
C3 N2 1_555 1_555
H5 C3 1_555 1_555
H6 C3 1_555 1_555
H7 C3 1_555 1_555
C4 H8 1_555 1_555
C5 C4 1_555 1_555
C6 C5 1_555 1_555
H9 C6 1_555 1_555
C7 C6 1_555 1_555
C8 C7 1_555 1_555
H10 C8 1_555 1_555
C9 C4 1_555 1_555
C10 C9 1_555 1_555
H11 C10 1_555 1_555
C11 C10 1_555 1_555
C12 C11 1_555 1_555
C13 C12 1_555 1_555
H12 C13 1_555 1_555
C14 C13 1_555 1_555
C15 C14 1_555 1_555
H13 C15 1_555 1_555
C16 C15 1_555 1_555
C17 C12 1_555 1_555
H14 C17 1_555 1_555
B1 O1 1_555 1_555
B2 N1 1_555 1_555
B3 C11 1_555 1_555
B4 B1 1_555 1_555
H15 B4 1_555 1_555
B5 B1 1_555 1_555
H16 B5 1_555 1_555
B6 B1 1_555 1_555
H17 B6 1_555 1_555
B7 B2 1_555 1_555
H18 B7 1_555 1_555
B8 B2 1_555 1_555
H19 B8 1_555 1_555
B9 B3 1_555 1_555
H20 B9 1_555 1_555
B10 B4 1_555 1_555
H21 B10 1_555 1_555
B11 B5 1_555 1_555
H22 B11 1_555 1_555
B12 B7 1_555 1_555
H23 B12 1_555 1_555
Cl5 C22 1_555 1_555
Cl6 C24 1_555 1_555
Cl7 C33 1_555 1_555
Cl8 C31 1_555 1_555
O2 C18 1_555 1_555
N3 H24 1_555 1_555
N4 C18 1_555 1_555
C18 N3 1_555 1_555
C19 N4 1_555 1_555
H25 C19 1_555 1_555
H26 C19 1_555 1_555
H27 C19 1_555 1_555
C20 N4 1_555 1_555
H28 C20 1_555 1_555
H29 C20 1_555 1_555
H30 C20 1_555 1_555
C21 H31 1_555 1_555
C22 C21 1_555 1_555
C23 C22 1_555 1_555
H32 C23 1_555 1_555
C24 C23 1_555 1_555
C25 C24 1_555 1_555
H33 C25 1_555 1_555
C26 C21 1_555 1_555
C27 C26 1_555 1_555
H34 C27 1_555 1_555
C28 C27 1_555 1_555
C29 C28 1_555 1_555
C30 C29 1_555 1_555
H35 C30 1_555 1_555
C31 C30 1_555 1_555
C32 C31 1_555 1_555
H36 C32 1_555 1_555
C33 C32 1_555 1_555
C34 C29 1_555 1_555
H37 C34 1_555 1_555
B13 O2 1_555 1_555
B14 N3 1_555 1_555
B15 C28 1_555 1_555
B16 B13 1_555 1_555
H38 B16 1_555 1_555
B17 B13 1_555 1_555
H39 B17 1_555 1_555
B18 B13 1_555 1_555
H40 B18 1_555 1_555
B19 B14 1_555 1_555
H41 B19 1_555 1_555
B20 B14 1_555 1_555
H42 B20 1_555 1_555
B21 B15 1_555 1_555
H43 B21 1_555 1_555
B22 B16 1_555 1_555
H44 B22 1_555 1_555
B23 B17 1_555 1_555
H45 B23 1_555 1_555
B24 B19 1_555 1_555
H46 B24 1_555 1_555
N5 C35 1_555 1_555
C35 H47 1_555 1_555
H48 C35 1_555 1_555
C36 C35 1_555 1_555
H49 C36 1_555 1_555
H50 C36 1_555 1_555
C37 C36 1_555 1_555
H51 C37 1_555 1_555
H52 C37 1_555 1_555
C38 C37 1_555 1_555
H53 C38 1_555 1_555
H54 C38 1_555 1_555
H55 C38 1_555 1_555
C39 N5 1_555 1_555
H56 C39 1_555 1_555
H57 C39 1_555 1_555
C40 C39 1_555 1_555
H58 C40 1_555 1_555
H59 C40 1_555 1_555
C41 C40 1_555 1_555
H60 C41 1_555 1_555
H61 C41 1_555 1_555
C42 C41 1_555 1_555
H62 C42 1_555 1_555
H63 C42 1_555 1_555
H64 C42 1_555 1_555
C43 N5 1_555 1_555
H65 C43 1_555 1_555
H66 C43 1_555 1_555
C44 C43 1_555 1_555
H67 C44 1_555 1_555
H68 C44 1_555 1_555
C45 C44 1_555 1_555
H69 C45 1_555 1_555
H70 C45 1_555 1_555
C46 C45 1_555 1_555
H71 C46 1_555 1_555
H72 C46 1_555 1_555
H73 C46 1_555 1_555
C47 N5 1_555 1_555
H74 C47 1_555 1_555
H75 C47 1_555 1_555
C48 C47 1_555 1_555
H76 C48 1_555 1_555
H77 C48 1_555 1_555
C49 C48 1_555 1_555
H78 C49 1_555 1_555
H79 C49 1_555 1_555
C50 C49 1_555 1_555
H80 C50 1_555 1_555
H81 C50 1_555 1_555
H82 C50 1_555 1_555
N6 C51 1_555 1_555
C51 H83 1_555 1_555
H84 C51 1_555 1_555
C52 C51 1_555 1_555
H85 C52 1_555 1_555
H86 C52 1_555 1_555
C53 C52 1_555 1_555
H87 C53 1_555 1_555
H88 C53 1_555 1_555
C54 C53 1_555 1_555
H89 C54 1_555 1_555
H90 C54 1_555 1_555
H91 C54 1_555 1_555
C55 N6 1_555 1_555
H92 C55 1_555 1_555
H93 C55 1_555 1_555
C56 C55 1_555 1_555
H94 C56 1_555 1_555
H95 C56 1_555 1_555
C57 C56 1_555 1_555
H96 C57 1_555 1_555
H97 C57 1_555 1_555
C58 C57 1_555 1_555
H98 C58 1_555 1_555
H99 C58 1_555 1_555
H100 C58 1_555 1_555
C59 N6 1_555 1_555
H101 C59 1_555 1_555
H102 C59 1_555 1_555
C60 C59 1_555 1_555
H103 C60 1_555 1_555
H104 C60 1_555 1_555
C61 C60 1_555 1_555
H105 C61 1_555 1_555
H106 C61 1_555 1_555
C62 C61 1_555 1_555
H107 C62 1_555 1_555
H108 C62 1_555 1_555
H109 C62 1_555 1_555
C63 N6 1_555 1_555
H110 C63 1_555 1_555
H111 C63 1_555 1_555
C64 C63 1_555 1_555
H112 C64 1_555 1_555
H113 C64 1_555 1_555
C65 C64 1_555 1_555
H114 C65 1_555 1_555
H115 C65 1_555 1_555
C66 C65 1_555 1_555
H116 C66 1_555 1_555
H117 C66 1_555 1_555
H118 C66 1_555 1_555
O3 C68 1_555 1_555
C67 H119 1_555 1_555
H120 C67 1_555 1_555
H121 C67 1_555 1_555
C68 C67 1_555 1_555
C69 C68 1_555 1_555
H122 C69 1_555 1_555
H123 C69 1_555 1_555
H124 C69 1_555 1_555
C8 C9 1_555 1_555
C16 C17 1_555 1_555
B1 B2 1_555 1_555
B1 B3 1_555 1_555
B2 B3 1_555 1_555
B2 B6 1_555 1_555
B3 B4 1_555 1_555
B3 B8 1_555 1_555
B4 B5 1_555 1_555
B4 B9 1_555 1_555
B5 B6 1_555 1_555
B5 B10 1_555 1_555
B6 B7 1_555 1_555
B6 B11 1_555 1_555
B7 B8 1_555 1_555
B7 B11 1_555 1_555
B8 B9 1_555 1_555
B8 B12 1_555 1_555
B9 B10 1_555 1_555
B9 B12 1_555 1_555
B10 B11 1_555 1_555
B10 B12 1_555 1_555
B11 B12 1_555 1_555
C25 C26 1_555 1_555
C33 C34 1_555 1_555
B13 B14 1_555 1_555
B13 B15 1_555 1_555
B14 B15 1_555 1_555
B14 B18 1_555 1_555
B15 B16 1_555 1_555
B15 B20 1_555 1_555
B16 B17 1_555 1_555
B16 B21 1_555 1_555
B17 B18 1_555 1_555
B17 B22 1_555 1_555
B18 B19 1_555 1_555
B18 B23 1_555 1_555
B19 B20 1_555 1_555
B19 B23 1_555 1_555
B20 B21 1_555 1_555
B20 B24 1_555 1_555
B21 B22 1_555 1_555
B21 B24 1_555 1_555
B22 B23 1_555 1_555
B22 B24 1_555 1_555
B23 B24 1_555 1_555

#END
