
#######################################################################
#
#                 Cambridge Crystallographic Data Centre
#                                CCDC 
#
#######################################################################
#
# If this CIF has been generated from an entry in the Cambridge 
# Structural Database, then it will include bibliographic, chemical, 
# crystal, experimental, refinement or atomic coordinate data resulting 
# from the CCDC's data processing and validation procedures.
#
#######################################################################

data_OZARIS
_chemical_formula_moiety         'C17 H27 B12 N2 O1 1-,C16 H36 N1 1+'
_chemical_name_systematic        
'tetra-n-butylammonium 1,2-((dimethylamino)(iminio)methoxy)-3-(1,2-diphenylethenyl)-closo-dodecaborate'
_symmetry_cell_setting           monoclinic
_symmetry_space_group_name_H-M   'P 21/n'
_symmetry_Int_Tables_number      14
_space_group_name_Hall           '-P 2yn'
loop_
_symmetry_equiv_pos_site_id
_symmetry_equiv_pos_as_xyz
1 x,y,z
2 1/2-x,1/2+y,1/2-z
3 -x,-y,-z
4 1/2+x,1/2-y,1/2+z
_cell_length_a                   9.8093(5)
_cell_length_b                   33.2355(19)
_cell_length_c                   12.3294(7)
_cell_angle_alpha                90
_cell_angle_beta                 96.495(5)
_cell_angle_gamma                90
_cell_volume                     3993.8
_exptl_crystal_colour            colorless
_exptl_crystal_description       plate
_cell_formula_units_Z            4
loop_
_atom_site_label
_atom_site_type_symbol
_atom_site_fract_x
_atom_site_fract_y
_atom_site_fract_z
O1 O 0.84645(14) 0.13802(5) 0.52071(13)
N1 N 0.71795(18) 0.08853(6) 0.58208(14)
H1 H 0.7041 0.0664 0.6154
N2 N 0.9568(2) 0.08242(7) 0.59432(17)
C1 C 0.8409(2) 0.10217(8) 0.56604(18)
C2 C 1.0883(3) 0.09855(11) 0.5704(3)
H2 H 1.1253 0.0817 0.5177
H3 H 1.1507 0.0993 0.6362
H4 H 1.0754 0.1253 0.5416
C3 C 0.9552(3) 0.04241(10) 0.6397(3)
H5 H 0.9015 0.0424 0.7002
H6 H 1.0473 0.0342 0.6643
H7 H 0.9157 0.0241 0.5848
C4 C 0.6827(2) 0.08932(6) 0.32418(17)
C5 C 0.6156(2) 0.04939(7) 0.2995(2)
C6 C 0.6375(3) 0.01714(8) 0.3691(3)
H8 H 0.6932 0.0205 0.4347
C7 C 0.5789(4) -0.02015(9) 0.3444(4)
H9 H 0.5938 -0.0412 0.3941
C8 C 0.5003(4) -0.02615(12) 0.2484(4)
H10 H 0.4636 -0.0514 0.2311
C9 C 0.4750(3) 0.00533(13) 0.1767(4)
H11 H 0.4206 0.0014 0.1107
C10 C 0.5310(3) 0.04334(9) 0.2027(3)
H12 H 0.5114 0.0647 0.1548
C11 C 0.8081(2) 0.09673(7) 0.29602(18)
H13 H 0.8391 0.1227 0.3121
C12 C 0.9068(2) 0.07158(7) 0.24437(18)
C13 C 1.0447(3) 0.08236(8) 0.2614(2)
H14 H 1.0700 0.1050 0.3033
C14 C 1.1450(3) 0.06046(9) 0.2178(2)
H15 H 1.2367 0.0679 0.2323
C15 C 1.1089(3) 0.02785(9) 0.1532(2)
H16 H 1.1757 0.0132 0.1225
C16 C 0.9740(3) 0.01692(8) 0.1339(2)
H17 H 0.9494 -0.0051 0.0895
C17 C 0.8743(2) 0.03811(7) 0.1794(2)
H18 H 0.7833 0.0298 0.1663
B1 B 0.6044(3) 0.11651(8) 0.5347(2)
B2 B 0.7035(3) 0.15350(8) 0.4869(2)
B3 B 0.6050(3) 0.12195(8) 0.3899(2)
B4 B 0.4489(3) 0.11198(8) 0.4474(2)
H19 H 0.3934 0.0834 0.4333
B5 B 0.4543(3) 0.13830(9) 0.5758(2)
H20 H 0.4025 0.1264 0.6436
B6 B 0.6120(3) 0.16453(9) 0.5980(2)
H21 H 0.6616 0.1698 0.6813
B7 B 0.6245(3) 0.20078(9) 0.4937(3)
H22 H 0.6821 0.2290 0.5084
B8 B 0.6200(3) 0.17446(8) 0.3663(2)
H23 H 0.6750 0.1860 0.2998
B9 B 0.4581(3) 0.14921(8) 0.3428(2)
H24 H 0.4063 0.1448 0.2598
B10 B 0.3645(3) 0.15907(9) 0.4551(2)
H25 H 0.2518 0.1608 0.4448
B11 B 0.4648(3) 0.19118(9) 0.5476(3)
H26 H 0.4175 0.2137 0.5969
B12 B 0.4689(3) 0.19734(9) 0.4051(3)
H27 H 0.4241 0.2241 0.3622
N3 N 0.56004(17) 0.20595(5) 0.97608(14)
C18 C 0.4483(2) 0.17999(7) 1.01628(19)
H28 H 0.4837 0.1684 1.0860
H29 H 0.3719 0.1972 1.0288
C19 C 0.3947(3) 0.14623(8) 0.9407(2)
H30 H 0.3597 0.1574 0.8703
H31 H 0.4694 0.1281 0.9296
C20 C 0.2829(3) 0.12308(8) 0.9859(2)
H32 H 0.2078 0.1413 0.9954
H33 H 0.3177 0.1128 1.0573
C21 C 0.2284(3) 0.08841(9) 0.9151(3)
H34 H 0.1954 0.0982 0.8436
H35 H 0.1546 0.0757 0.9470
H36 H 0.3005 0.0692 0.9094
C22 C 0.6221(2) 0.23285(7) 1.06900(19)
H37 H 0.6635 0.2156 1.1272
H38 H 0.6955 0.2483 1.0427
C23 C 0.5274(2) 0.26171(8) 1.1173(2)
H39 H 0.4532 0.2470 1.1449
H40 H 0.4877 0.2802 1.0614
C24 C 0.6064(3) 0.28514(8) 1.2095(2)
H41 H 0.6541 0.2663 1.2606
H42 H 0.6750 0.3016 1.1798
C25 C 0.5168(3) 0.31174(9) 1.2696(3)
H43 H 0.4640 0.3291 1.2187
H44 H 0.5730 0.3277 1.3219
H45 H 0.4560 0.2954 1.3068
C26 C 0.6747(2) 0.18021(7) 0.93961(18)
H46 H 0.6380 0.1652 0.8755
H47 H 0.7451 0.1980 0.9178
C27 C 0.7424(3) 0.15066(8) 1.0230(2)
H48 H 0.7870 0.1654 1.0850
H49 H 0.6726 0.1336 1.0489
C28 C 0.8474(3) 0.12458(8) 0.9753(2)
H50 H 0.9080 0.1418 0.9390
H51 H 0.9026 0.1110 1.0345
C29 C 0.7871(4) 0.09376(10) 0.8958(3)
H52 H 0.7426 0.1070 0.8321
H53 H 0.7213 0.0779 0.9289
H54 H 0.8586 0.0766 0.8752
C30 C 0.4962(2) 0.23092(7) 0.88024(18)
H55 H 0.4502 0.2127 0.8264
H56 H 0.4263 0.2480 0.9059
C31 C 0.5917(2) 0.25717(7) 0.8239(2)
H57 H 0.6450 0.2405 0.7797
H58 H 0.6549 0.2707 0.8782
C32 C 0.5134(2) 0.28815(8) 0.7523(2)
H59 H 0.4374 0.2751 0.7089
H60 H 0.4755 0.3080 0.7982
C33 C 0.6010(3) 0.30919(8) 0.6773(2)
H61 H 0.6315 0.2901 0.6268
H62 H 0.6791 0.3210 0.7195
H63 H 0.5483 0.3299 0.6377
loop_
_geom_bond_atom_site_label_1
_geom_bond_atom_site_label_2
_geom_bond_site_symmetry_1
_geom_bond_site_symmetry_2
O1 C1 1_555 1_555
N1 H1 1_555 1_555
N2 C1 1_555 1_555
C1 N1 1_555 1_555
C2 N2 1_555 1_555
H2 C2 1_555 1_555
H3 C2 1_555 1_555
H4 C2 1_555 1_555
C3 N2 1_555 1_555
H5 C3 1_555 1_555
H6 C3 1_555 1_555
H7 C3 1_555 1_555
C4 C5 1_555 1_555
C5 C6 1_555 1_555
C6 H8 1_555 1_555
C7 C6 1_555 1_555
H9 C7 1_555 1_555
C8 C7 1_555 1_555
H10 C8 1_555 1_555
C9 C8 1_555 1_555
H11 C9 1_555 1_555
C10 C5 1_555 1_555
H12 C10 1_555 1_555
C11 C4 1_555 1_555
H13 C11 1_555 1_555
C12 C11 1_555 1_555
C13 C12 1_555 1_555
H14 C13 1_555 1_555
C14 C13 1_555 1_555
H15 C14 1_555 1_555
C15 C14 1_555 1_555
H16 C15 1_555 1_555
C16 C15 1_555 1_555
H17 C16 1_555 1_555
C17 C12 1_555 1_555
H18 C17 1_555 1_555
B1 N1 1_555 1_555
B2 O1 1_555 1_555
B3 C4 1_555 1_555
B4 B1 1_555 1_555
H19 B4 1_555 1_555
B5 B1 1_555 1_555
H20 B5 1_555 1_555
B6 B1 1_555 1_555
H21 B6 1_555 1_555
B7 B2 1_555 1_555
H22 B7 1_555 1_555
B8 B2 1_555 1_555
H23 B8 1_555 1_555
B9 B3 1_555 1_555
H24 B9 1_555 1_555
B10 B4 1_555 1_555
H25 B10 1_555 1_555
B11 B5 1_555 1_555
H26 B11 1_555 1_555
B12 B7 1_555 1_555
H27 B12 1_555 1_555
N3 C18 1_555 1_555
C18 H28 1_555 1_555
H29 C18 1_555 1_555
C19 C18 1_555 1_555
H30 C19 1_555 1_555
H31 C19 1_555 1_555
C20 C19 1_555 1_555
H32 C20 1_555 1_555
H33 C20 1_555 1_555
C21 C20 1_555 1_555
H34 C21 1_555 1_555
H35 C21 1_555 1_555
H36 C21 1_555 1_555
C22 N3 1_555 1_555
H37 C22 1_555 1_555
H38 C22 1_555 1_555
C23 C22 1_555 1_555
H39 C23 1_555 1_555
H40 C23 1_555 1_555
C24 C23 1_555 1_555
H41 C24 1_555 1_555
H42 C24 1_555 1_555
C25 C24 1_555 1_555
H43 C25 1_555 1_555
H44 C25 1_555 1_555
H45 C25 1_555 1_555
C26 N3 1_555 1_555
H46 C26 1_555 1_555
H47 C26 1_555 1_555
C27 C26 1_555 1_555
H48 C27 1_555 1_555
H49 C27 1_555 1_555
C28 C27 1_555 1_555
H50 C28 1_555 1_555
H51 C28 1_555 1_555
C29 C28 1_555 1_555
H52 C29 1_555 1_555
H53 C29 1_555 1_555
H54 C29 1_555 1_555
C30 N3 1_555 1_555
H55 C30 1_555 1_555
H56 C30 1_555 1_555
C31 C30 1_555 1_555
H57 C31 1_555 1_555
H58 C31 1_555 1_555
C32 C31 1_555 1_555
H59 C32 1_555 1_555
H60 C32 1_555 1_555
C33 C32 1_555 1_555
H61 C33 1_555 1_555
H62 C33 1_555 1_555
H63 C33 1_555 1_555
C9 C10 1_555 1_555
C16 C17 1_555 1_555
B1 B2 1_555 1_555
B1 B3 1_555 1_555
B2 B3 1_555 1_555
B2 B6 1_555 1_555
B3 B4 1_555 1_555
B3 B8 1_555 1_555
B4 B5 1_555 1_555
B4 B9 1_555 1_555
B5 B6 1_555 1_555
B5 B10 1_555 1_555
B6 B7 1_555 1_555
B6 B11 1_555 1_555
B7 B8 1_555 1_555
B7 B11 1_555 1_555
B8 B9 1_555 1_555
B8 B12 1_555 1_555
B9 B10 1_555 1_555
B9 B12 1_555 1_555
B10 B11 1_555 1_555
B10 B12 1_555 1_555
B11 B12 1_555 1_555

#END
