
#######################################################################
#
#                 Cambridge Crystallographic Data Centre
#                                CCDC 
#
#######################################################################
#
# If this CIF has been generated from an entry in the Cambridge 
# Structural Database, then it will include bibliographic, chemical, 
# crystal, experimental, refinement or atomic coordinate data resulting 
# from the CCDC's data processing and validation procedures.
#
#######################################################################

data_OZARAK
_chemical_formula_moiety         'C19 H18 P1 1+,C3 H17 B12 N2 O1 1-'
_chemical_name_systematic        
'methyl(triphenyl)phosphonium 1,2-((dimethylamino)(iminio)methoxy)-closo-dodecaborate'
_symmetry_cell_setting           triclinic
_symmetry_space_group_name_H-M   'P -1'
_symmetry_Int_Tables_number      2
_space_group_name_Hall           '-P 1'
loop_
_symmetry_equiv_pos_site_id
_symmetry_equiv_pos_as_xyz
1 x,y,z
2 -x,-y,-z
_cell_length_a                   10.5348(7)
_cell_length_b                   10.5619(8)
_cell_length_c                   14.5761(11)
_cell_angle_alpha                69.773(7)
_cell_angle_beta                 70.478(6)
_cell_angle_gamma                88.738(6)
_cell_volume                     1426.3
_exptl_crystal_colour            colorless
_exptl_crystal_description       block
_cell_formula_units_Z            2
loop_
_atom_site_label
_atom_site_type_symbol
_atom_site_fract_x
_atom_site_fract_y
_atom_site_fract_z
P1 P 0.77559(5) 0.18979(5) 0.49884(4)
C1 C 0.6566(2) 0.3120(2) 0.49104(17)
H1 H 0.6971 0.3919 0.4305
H2 H 0.6306 0.3354 0.5524
H3 H 0.5780 0.2747 0.4860
C2 C 0.92219(19) 0.2582(2) 0.51058(15)
C3 C 0.9086(2) 0.2952(2) 0.59568(18)
H4 H 0.8237 0.2859 0.6461
C4 C 1.0216(3) 0.3460(3) 0.6056(2)
H5 H 1.0125 0.3695 0.6632
C5 C 1.1462(2) 0.3615(3) 0.5310(2)
H6 H 1.2216 0.3949 0.5384
C6 C 1.1611(2) 0.3281(2) 0.4450(2)
H7 H 1.2460 0.3409 0.3938
C7 C 1.0494(2) 0.2754(2) 0.43442(17)
H8 H 1.0595 0.2516 0.3768
C8 C 0.82657(18) 0.1529(2) 0.38156(15)
C9 C 0.8651(2) 0.2603(2) 0.28595(16)
H9 H 0.8585 0.3491 0.2838
C10 C 0.9131(2) 0.2345(3) 0.19454(17)
H10 H 0.9404 0.3063 0.1308
C11 C 0.9208(2) 0.1035(3) 0.19690(18)
H11 H 0.9542 0.0871 0.1348
C12 C 0.8796(2) -0.0033(3) 0.29040(19)
H12 H 0.8825 -0.0919 0.2916
C13 C 0.8333(2) 0.0211(2) 0.38350(17)
H13 H 0.8069 -0.0512 0.4470
C14 C 0.69892(19) 0.0376(2) 0.60875(15)
C15 C 0.5705(2) -0.0155(3) 0.62478(18)
H14 H 0.5247 0.0297 0.5804
C16 C 0.5107(3) -0.1352(3) 0.7066(2)
H15 H 0.4253 -0.1711 0.7166
C17 C 0.5772(3) -0.2012(3) 0.77297(19)
H16 H 0.5373 -0.2824 0.8274
C18 C 0.7029(3) -0.1475(2) 0.75917(17)
H17 H 0.7464 -0.1911 0.8057
C19 C 0.7648(2) -0.0290(2) 0.67651(16)
H18 H 0.8506 0.0058 0.6666
O1 O 0.62556(13) 0.42731(14) 0.82968(11)
N1 N 0.57808(15) 0.20925(18) 0.94130(13)
H19 H 0.5922 0.1368 0.9854
N2 N 0.77867(16) 0.33841(19) 0.90569(14)
C20 C 0.66108(19) 0.3231(2) 0.89403(15)
C21 C 0.8226(2) 0.2274(3) 0.9756(2)
H20 H 0.9143 0.2506 0.9675
H21 H 0.8176 0.1474 0.9594
H22 H 0.7650 0.2107 1.0462
C22 C 0.8566(2) 0.4708(2) 0.86103(19)
H23 H 0.8328 0.5143 0.9116
H24 H 0.8370 0.5258 0.8004
H25 H 0.9515 0.4598 0.8416
B1 B 0.4940(2) 0.3882(2) 0.82349(18)
B2 B 0.4545(2) 0.2227(2) 0.90787(17)
B3 B 0.5015(2) 0.2585(3) 0.77229(18)
H26 H 0.5970 0.2316 0.7263
B4 B 0.4372(2) 0.4124(3) 0.71890(18)
H27 H 0.4902 0.4856 0.6398
B5 B 0.3449(2) 0.4676(3) 0.82439(19)
H28 H 0.3384 0.5758 0.8127
B6 B 0.3548(2) 0.3474(3) 0.94162(19)
H29 H 0.3541 0.3791 1.0062
B7 B 0.2771(2) 0.1856(3) 0.96668(18)
H30 H 0.2271 0.1125 1.0463
B8 B 0.3691(2) 0.1311(3) 0.86087(19)
H31 H 0.3782 0.0231 0.8728
B9 B 0.3550(2) 0.2512(3) 0.74281(19)
H32 H 0.3531 0.2207 0.6783
B10 B 0.2571(2) 0.3785(3) 0.77549(19)
H33 H 0.1918 0.4298 0.7318
B11 B 0.2079(2) 0.3391(3) 0.91216(19)
H34 H 0.1110 0.3652 0.9568
B12 B 0.2152(2) 0.2054(3) 0.86346(18)
H35 H 0.1229 0.1444 0.8772
loop_
_geom_bond_atom_site_label_1
_geom_bond_atom_site_label_2
_geom_bond_site_symmetry_1
_geom_bond_site_symmetry_2
P1 C1 1_555 1_555
C1 H1 1_555 1_555
H2 C1 1_555 1_555
H3 C1 1_555 1_555
C2 P1 1_555 1_555
C3 C2 1_555 1_555
H4 C3 1_555 1_555
C4 C3 1_555 1_555
H5 C4 1_555 1_555
C5 C4 1_555 1_555
H6 C5 1_555 1_555
C6 C5 1_555 1_555
H7 C6 1_555 1_555
C7 C2 1_555 1_555
H8 C7 1_555 1_555
C8 P1 1_555 1_555
C9 C8 1_555 1_555
H9 C9 1_555 1_555
C10 C9 1_555 1_555
H10 C10 1_555 1_555
C11 C10 1_555 1_555
H11 C11 1_555 1_555
C12 C11 1_555 1_555
H12 C12 1_555 1_555
C13 C8 1_555 1_555
H13 C13 1_555 1_555
C14 P1 1_555 1_555
C15 C14 1_555 1_555
H14 C15 1_555 1_555
C16 C15 1_555 1_555
H15 C16 1_555 1_555
C17 C16 1_555 1_555
H16 C17 1_555 1_555
C18 C17 1_555 1_555
H17 C18 1_555 1_555
C19 C14 1_555 1_555
H18 C19 1_555 1_555
O1 C20 1_555 1_555
N1 H19 1_555 1_555
N2 C20 1_555 1_555
C20 N1 1_555 1_555
C21 N2 1_555 1_555
H20 C21 1_555 1_555
H21 C21 1_555 1_555
H22 C21 1_555 1_555
C22 N2 1_555 1_555
H23 C22 1_555 1_555
H24 C22 1_555 1_555
H25 C22 1_555 1_555
B1 O1 1_555 1_555
B2 N1 1_555 1_555
B3 B1 1_555 1_555
H26 B3 1_555 1_555
B4 B1 1_555 1_555
H27 B4 1_555 1_555
B5 B1 1_555 1_555
H28 B5 1_555 1_555
B6 B1 1_555 1_555
H29 B6 1_555 1_555
B7 B2 1_555 1_555
H30 B7 1_555 1_555
B8 B2 1_555 1_555
H31 B8 1_555 1_555
B9 B3 1_555 1_555
H32 B9 1_555 1_555
B10 B4 1_555 1_555
H33 B10 1_555 1_555
B11 B5 1_555 1_555
H34 B11 1_555 1_555
B12 B7 1_555 1_555
H35 B12 1_555 1_555
C6 C7 1_555 1_555
C12 C13 1_555 1_555
C18 C19 1_555 1_555
B1 B2 1_555 1_555
B2 B3 1_555 1_555
B2 B6 1_555 1_555
B3 B4 1_555 1_555
B3 B8 1_555 1_555
B4 B5 1_555 1_555
B4 B9 1_555 1_555
B5 B6 1_555 1_555
B5 B10 1_555 1_555
B6 B7 1_555 1_555
B6 B11 1_555 1_555
B7 B8 1_555 1_555
B7 B11 1_555 1_555
B8 B9 1_555 1_555
B8 B12 1_555 1_555
B9 B10 1_555 1_555
B9 B12 1_555 1_555
B10 B11 1_555 1_555
B10 B12 1_555 1_555
B11 B12 1_555 1_555

#END
