
#######################################################################
#
#                 Cambridge Crystallographic Data Centre
#                                CCDC 
#
#######################################################################
#
# If this CIF has been generated from an entry in the Cambridge 
# Structural Database, then it will include bibliographic, chemical, 
# crystal, experimental, refinement or atomic coordinate data resulting 
# from the CCDC's data processing and validation procedures.
#
#######################################################################

data_OZATUG
_chemical_formula_moiety         'C14 H11 N1 O1'
_chemical_name_systematic        1-(benzyloxy)-4-isocyanobenzene
_symmetry_cell_setting           orthorhombic
_symmetry_space_group_name_H-M   'P n 21 a'
_symmetry_Int_Tables_number      33
_space_group_name_Hall           'P -2ac -2n'
loop_
_symmetry_equiv_pos_site_id
_symmetry_equiv_pos_as_xyz
1 x,y,z
2 -x,1/2+y,-z
3 1/2-x,1/2+y,1/2+z
4 1/2+x,y,1/2-z
_cell_length_a                   11.3263(5)
_cell_length_b                   7.0628(4)
_cell_length_c                   13.6542(7)
_cell_angle_alpha                90
_cell_angle_beta                 90
_cell_angle_gamma                90
_cell_volume                     1092.27
_exptl_crystal_colour            orange
_exptl_crystal_description       prism
_cell_formula_units_Z            4
loop_
_atom_site_label
_atom_site_type_symbol
_atom_site_fract_x
_atom_site_fract_y
_atom_site_fract_z
O1 O 0.36087(12) 0.2409(2) 0.54721(9)
C1 C 0.33797(17) 0.2613(3) 0.44969(14)
C2 C 0.46313(17) 0.2998(3) 0.69639(14)
C3 C 0.56142(18) 0.3590(3) 0.74969(15)
H1 H 0.6263 0.4156 0.7167
C4 C 0.41225(17) 0.3529(3) 0.38383(15)
H2 H 0.4832 0.4105 0.4059
C5 C 0.37369(18) 0.1909(3) 0.84636(15)
H3 H 0.3094 0.1326 0.8793
C6 C 0.36978(17) 0.2144(3) 0.74513(15)
H4 H 0.3029 0.1719 0.7093
C7 C 0.38132(17) 0.3592(3) 0.28509(15)
H5 H 0.4313 0.4203 0.239
C8 C 0.20147(18) 0.1875(3) 0.32069(15)
H6 H 0.1293 0.1333 0.299
C9 C 0.27674(17) 0.2752(3) 0.25471(14)
C10 C 0.56536(18) 0.3360(4) 0.85031(16)
H7 H 0.6325 0.3774 0.8861
C11 C 0.46154(16) 0.3351(3) 0.58731(14)
H8 H 0.4568 0.4726 0.574
H9 H 0.5347 0.2855 0.557
C12 C 0.47097(19) 0.2522(4) 0.89916(15)
H10 H 0.4732 0.2371 0.9683
C13 C 0.23264(17) 0.1798(4) 0.41821(15)
H11 H 0.1822 0.1188 0.464
N1 N 0.24774(15) 0.2735(3) 0.15429(12)
C14 C 0.2221(2) 0.2635(4) 0.07258(16)
loop_
_geom_bond_atom_site_label_1
_geom_bond_atom_site_label_2
_geom_bond_site_symmetry_1
_geom_bond_site_symmetry_2
O1 C1 1_555 1_555
C1 C4 1_555 1_555
C2 C3 1_555 1_555
C3 H1 1_555 1_555
C4 H2 1_555 1_555
C5 H3 1_555 1_555
C6 C2 1_555 1_555
H4 C6 1_555 1_555
C7 C4 1_555 1_555
H5 C7 1_555 1_555
C8 H6 1_555 1_555
C9 C7 1_555 1_555
C10 C3 1_555 1_555
H7 C10 1_555 1_555
C11 O1 1_555 1_555
H8 C11 1_555 1_555
H9 C11 1_555 1_555
C12 C5 1_555 1_555
H10 C12 1_555 1_555
C13 C1 1_555 1_555
H11 C13 1_555 1_555
N1 C9 1_555 1_555
C14 N1 1_555 1_555
C2 C11 1_555 1_555
C5 C6 1_555 1_555
C8 C9 1_555 1_555
C8 C13 1_555 1_555
C10 C12 1_555 1_555

#END
