
#######################################################################
#
#                 Cambridge Crystallographic Data Centre
#                                CCDC 
#
#######################################################################
#
# If this CIF has been generated from an entry in the Cambridge 
# Structural Database, then it will include bibliographic, chemical, 
# crystal, experimental, refinement or atomic coordinate data resulting 
# from the CCDC's data processing and validation procedures.
#
#######################################################################

data_OZEBUR
_chemical_formula_moiety         'C66 H72 N12,9(C1 H4 O1)'
_chemical_name_systematic        
'5,11,19,25,33,39,47,53,58,64,69,75-Dodeca-azatridecacyclo[27.27.9.9^15,43^.1^3,55^.1^13,17^.1^27,31^.1^41,45^.0^6,10^.0^20,24^.0^34,38^.0^48,52^.0^59,63^.0^70,74^]octaheptaconta-1,3(66),4,11,13(78),14,16,18,25,27(77),28,30,32,39,41(67),42,44,46,53,55,57,64,68,75-tetracosaene methanol solvate'
_symmetry_cell_setting           rhombohedral
_symmetry_space_group_name_H-M   'R 3'
_symmetry_Int_Tables_number      146
_space_group_name_Hall           'R 3'
loop_
_symmetry_equiv_pos_site_id
_symmetry_equiv_pos_as_xyz
1 x,y,z
2 -y,x-y,z
3 -x+y,-x,z
4 2/3+x,1/3+y,1/3+z
5 2/3-y,1/3+x-y,1/3+z
6 2/3-x+y,1/3-x,1/3+z
7 1/3+x,2/3+y,2/3+z
8 1/3-y,2/3+x-y,2/3+z
9 1/3-x+y,2/3-x,2/3+z
_cell_length_a                   24.681(4)
_cell_length_b                   24.681(4)
_cell_length_c                   11.009(2)
_cell_angle_alpha                90
_cell_angle_beta                 90
_cell_angle_gamma                120
_cell_volume                     5807.7
_exptl_crystal_colour            colorless
_exptl_crystal_description       needle
_cell_formula_units_Z            3
loop_
_atom_site_label
_atom_site_type_symbol
_atom_site_fract_x
_atom_site_fract_y
_atom_site_fract_z
N1 N 0.2628(3) 0.4939(2) 0.9360(5)
N2 N 0.2117(3) 0.4167(3) 0.7059(6)
N3 N 0.3911(3) 0.5079(3) 0.2263(5)
N4 N 0.5072(2) 0.6367(3) 0.2094(5)
C1 C 0.2911(3) 0.6024(3) 0.9385(5)
C2 C 0.3553(3) 0.6252(3) 0.9384(5)
H1 H 0.3704 0.5966 0.9383
C3 C 0.2464(3) 0.5349(3) 0.9338(5)
H2 H 0.2030 0.5214 0.9289
C4 C 0.2499(3) 0.4600(3) 0.5077(6)
C5 C 0.5357(3) 0.7345(3) 0.4732(6)
H3 H 0.5472 0.7127 0.5290
C6 C 0.5146(3) 0.7095(3) 0.3581(6)
C7 C 0.4970(3) 0.7416(3) 0.2793(6)
H4 H 0.4818 0.7244 0.2011
C8 C 0.2967(3) 0.4995(3) 0.3096(6)
C9 C 0.2987(3) 0.4775(3) 0.4263(6)
H5 H 0.3342 0.4746 0.4498
C10 C 0.2560(4) 0.4378(3) 0.6258(7)
H6 H 0.2940 0.4389 0.6453
C11 C 0.3464(3) 0.5197(3) 0.2212(6)
H7 H 0.3457 0.5436 0.1542
C12 C 0.5138(3) 0.6522(3) 0.3196(6)
H8 H 0.5184 0.6266 0.3784
C13 C 0.2138(4) 0.4291(3) 0.9285(7)
H9 H 0.1720 0.4262 0.9220
C14 C 0.2241(5) 0.3960(3) 0.8212(7)
H10 H 0.2677 0.4032 0.8226
C15 C 0.1775(6) 0.3280(4) 0.8505(8)
H11 H 0.1878 0.2995 0.8060
H12 H 0.1343 0.3176 0.8294
C16 C 0.1845(5) 0.3234(4) 0.9893(8)
H13 H 0.1431 0.2971 1.0275
H14 H 0.2113 0.3050 1.0068
C17 C 0.2146(5) 0.3898(3) 1.0367(7)
H15 H 0.2581 0.4044 1.0636
H16 H 0.1905 0.3926 1.1060
C18 C 0.4372(3) 0.5324(3) 0.1300(6)
H17 H 0.4250 0.5551 0.0706
C19 C 0.5028(3) 0.5776(3) 0.1772(6)
H18 H 0.5118 0.5593 0.2502
C20 C 0.5467(4) 0.5838(4) 0.0748(7)
H19 H 0.5843 0.5840 0.1067
H20 H 0.5599 0.6227 0.0282
C21 C 0.5072(5) 0.5248(5) -0.0066(8)
H21 H 0.4985 0.5372 -0.0867
H22 H 0.5296 0.5014 -0.0194
C22 C 0.4473(4) 0.4858(4) 0.0627(8)
H23 H 0.4121 0.4608 0.0065
H24 H 0.4516 0.4571 0.1195
N1A N 0.5061(2) 0.7689(4) 0.9360(5)
N1B N 0.2311(4) 0.7372(3) 0.9360(5)
N2A N 0.5833(3) 0.7950(4) 0.7059(6)
N2B N 0.2050(4) 0.7883(3) 0.7059(6)
N3A N 0.4921(3) 0.8832(4) 0.2263(5)
N3B N 0.1168(4) 0.6089(3) 0.2263(5)
N4A N 0.3633(3) 0.8705(4) 0.2094(5)
N4B N 0.1295(4) 0.4928(2) 0.2094(5)
C1A C 0.3976(3) 0.6887(4) 0.9385(5)
C1B C 0.3113(4) 0.7089(3) 0.9385(5)
C2A C 0.3748(3) 0.7301(4) 0.9384(5)
C2B C 0.2699(4) 0.6447(3) 0.9384(5)
H1A H 0.4034 0.7738 0.9383
H1B H 0.2262 0.6296 0.9383
C3A C 0.4651(3) 0.7115(4) 0.9338(5)
C3B C 0.2885(4) 0.7536(3) 0.9338(5)
H2A H 0.4786 0.6816 0.9289
H2B H 0.3184 0.7970 0.9289
C4A C 0.5400(3) 0.7899(4) 0.5077(6)
C4B C 0.2101(4) 0.7501(3) 0.5077(6)
C5A C 0.2655(3) 0.8012(4) 0.4732(6)
C5B C 0.1988(4) 0.4643(3) 0.4732(6)
H3A H 0.2873 0.8345 0.5290
H3B H 0.1655 0.4528 0.5290
C6A C 0.2905(3) 0.8051(4) 0.3581(6)
C6B C 0.1949(4) 0.4854(3) 0.3581(6)
C7A C 0.2584(3) 0.7554(4) 0.2793(6)
C7B C 0.2446(4) 0.5030(3) 0.2793(6)
H4A H 0.2756 0.7574 0.2011
H4B H 0.2426 0.5182 0.2011
C8A C 0.5005(3) 0.7972(4) 0.3096(6)
C8B C 0.2028(4) 0.7033(3) 0.3096(6)
C9A C 0.5225(3) 0.8212(4) 0.4263(6)
C9B C 0.1788(4) 0.7013(3) 0.4263(6)
H5A H 0.5254 0.8596 0.4498
H5B H 0.1404 0.6658 0.4498
C10A C 0.5622(3) 0.8182(5) 0.6258(7)
C10B C 0.1818(5) 0.7440(4) 0.6258(7)
H6A H 0.5611 0.8551 0.6453
H6B H 0.1449 0.7060 0.6453
C11A C 0.4803(3) 0.8267(4) 0.2212(6)
C11B C 0.1733(4) 0.6536(3) 0.2212(6)
H7A H 0.4564 0.8021 0.1542
H7B H 0.1979 0.6543 0.1542
C12A C 0.3478(3) 0.8616(4) 0.3196(6)
C12B C 0.1384(4) 0.4862(3) 0.3196(6)
H8A H 0.3734 0.8918 0.3784
H8B H 0.1082 0.4816 0.3784
C13A C 0.5709(3) 0.7847(5) 0.9285(7)
C13B C 0.2153(5) 0.7862(4) 0.9285(7)
H9A H 0.5738 0.7458 0.9220
H9B H 0.2542 0.8280 0.9220
C14A C 0.6040(3) 0.8281(6) 0.8212(7)
C14B C 0.1719(6) 0.7759(5) 0.8212(7)
H10A H 0.5968 0.8645 0.8226
H10B H 0.1355 0.7323 0.8226
C15A C 0.6720(4) 0.8495(7) 0.8505(8)
C15B C 0.1505(7) 0.8225(6) 0.8505(8)
H11A H 0.7005 0.8883 0.8060
H11B H 0.1117 0.8122 0.8060
H12A H 0.6824 0.8167 0.8294
H12B H 0.1833 0.8657 0.8294
C16A C 0.6766(4) 0.8611(6) 0.9893(8)
C16B C 0.1389(6) 0.8155(5) 0.9893(8)
H13A H 0.7029 0.8460 1.0275
H13B H 0.1540 0.8569 1.0275
H14A H 0.6950 0.9063 1.0068
H14B H 0.0937 0.7887 1.0068
C17A C 0.6102(3) 0.8248(6) 1.0367(7)
C17B C 0.1752(6) 0.7854(5) 1.0367(7)
H15A H 0.5956 0.8537 1.0636
H15B H 0.1463 0.7419 1.0636
H16A H 0.6074 0.7979 1.1060
H16B H 0.2021 0.8095 1.1060
C18A C 0.4676(3) 0.9048(4) 0.1300(6)
C18B C 0.0952(4) 0.5628(3) 0.1300(6)
H17A H 0.4449 0.8699 0.0706
H17B H 0.1301 0.5750 0.0706
C19A C 0.4224(3) 0.9252(4) 0.1772(6)
C19B C 0.0748(4) 0.4972(3) 0.1772(6)
H18A H 0.4407 0.9525 0.2502
H18B H 0.0475 0.4882 0.2502
C20A C 0.4162(4) 0.9629(6) 0.0748(7)
C20B C 0.0371(6) 0.4533(4) 0.0748(7)
H19A H 0.4160 1.0003 0.1067
H19B H -0.0003 0.4157 0.1067
H20A H 0.3773 0.9372 0.0282
H20B H 0.0628 0.4401 0.0282
C21A C 0.4752(5) 0.9824(7) -0.0066(8)
C21B C 0.0176(7) 0.4928(5) -0.0066(8)
H21A H 0.4628 0.9613 -0.0867
H21B H 0.0387 0.5015 -0.0867
H22A H 0.4986 1.0282 -0.0194
H22B H -0.0282 0.4704 -0.0194
C22A C 0.5142(4) 0.9615(6) 0.0627(8)
C22B C 0.0385(6) 0.5527(4) 0.0627(8)
H23A H 0.5392 0.9513 0.0065
H23B H 0.0487 0.5879 0.0065
H24A H 0.5429 0.9945 0.1195
H24B H 0.0055 0.5484 0.1195
C23 C 0.6650(6) 0.6183(5) 0.4018(12)
H25 H 0.6346 0.6208 0.3483
H26 H 0.7072 0.6525 0.3826
H27 H 0.6551 0.6219 0.4866
O1 O 0.6626(4) 0.5636(4) 0.3854(8)
O2 O 0.4474(6) 0.5959(6) 0.7549(13)
C25 C 0.4088(8) 0.6015(8) 0.6577(18)
H31 H 0.4160 0.5860 0.5810
H32 H 0.4204 0.6455 0.6483
H33 H 0.3645 0.5768 0.6796
O3 O 0.2757(6) 0.3134(5) 0.6483(13)
C24 C 0.3195(10) 0.3187(10) 0.5683(17)
H28 H 0.3197 0.3432 0.4980
H29 H 0.3099 0.2770 0.5414
H30 H 0.3607 0.3398 0.6073
loop_
_geom_bond_atom_site_label_1
_geom_bond_atom_site_label_2
_geom_bond_site_symmetry_1
_geom_bond_site_symmetry_2
N1 C3 1_555 1_555
N2 C10 1_555 1_555
N3 C11 1_555 1_555
N4 C12 1_555 1_555
C1 C2 1_555 1_555
C2 H1 1_555 1_555
C3 C1 1_555 1_555
H2 C3 1_555 1_555
C4 C9 1_555 1_555
C5 H3 1_555 1_555
C6 C5 1_555 1_555
C7 C6 1_555 1_555
H4 C7 1_555 1_555
C8 C9 1_555 1_555
C9 H5 1_555 1_555
C10 C4 1_555 1_555
H6 C10 1_555 1_555
C11 C8 1_555 1_555
H7 C11 1_555 1_555
C12 C6 1_555 1_555
H8 C12 1_555 1_555
C13 N1 1_555 1_555
H9 C13 1_555 1_555
C14 N2 1_555 1_555
H10 C14 1_555 1_555
C15 C14 1_555 1_555
H11 C15 1_555 1_555
H12 C15 1_555 1_555
C16 C15 1_555 1_555
H13 C16 1_555 1_555
H14 C16 1_555 1_555
C17 C13 1_555 1_555
H15 C17 1_555 1_555
H16 C17 1_555 1_555
C18 N3 1_555 1_555
H17 C18 1_555 1_555
C19 N4 1_555 1_555
H18 C19 1_555 1_555
C20 C19 1_555 1_555
H19 C20 1_555 1_555
H20 C20 1_555 1_555
C21 C20 1_555 1_555
H21 C21 1_555 1_555
H22 C21 1_555 1_555
C22 C18 1_555 1_555
H23 C22 1_555 1_555
H24 C22 1_555 1_555
C23 H25 1_555 1_555
H26 C23 1_555 1_555
H27 C23 1_555 1_555
O1 C23 1_555 1_555
O2 C25 1_555 1_555
O3 C24 1_555 1_555
C24 H28 1_555 1_555
H29 C24 1_555 1_555
H30 C24 1_555 1_555
C25 H31 1_555 1_555
H32 C25 1_555 1_555
H33 C25 1_555 1_555
N1A C3A 1_555 1_555
N1B C3B 1_555 1_555
N2A C10A 1_555 1_555
N2B C10B 1_555 1_555
N3A C11A 1_555 1_555
N3B C11B 1_555 1_555
N4A C12A 1_555 1_555
N4B C12B 1_555 1_555
C1A C2 1_555 1_555
C1B C2A 1_555 1_555
C2A C1A 1_555 1_555
C2B C1 1_555 1_555
H1A C2A 1_555 1_555
H1B C2B 1_555 1_555
C3A C1A 1_555 1_555
C3B C1B 1_555 1_555
H2A C3A 1_555 1_555
H2B C3B 1_555 1_555
C4A C5 1_555 1_555
C4B C5A 1_555 1_555
C5A H3A 1_555 1_555
C5B C4 1_555 1_555
H3B C5B 1_555 1_555
C6A C5A 1_555 1_555
C6B C5B 1_555 1_555
C7A C6A 1_555 1_555
C7B C8 1_555 1_555
H4A C7A 1_555 1_555
H4B C7B 1_555 1_555
C8A C7 1_555 1_555
C8B C7A 1_555 1_555
C9A C4A 1_555 1_555
C9B C4B 1_555 1_555
H5A C9A 1_555 1_555
H5B C9B 1_555 1_555
C10A C4A 1_555 1_555
C10B C4B 1_555 1_555
H6A C10A 1_555 1_555
H6B C10B 1_555 1_555
C11A C8A 1_555 1_555
C11B C8B 1_555 1_555
H7A C11A 1_555 1_555
H7B C11B 1_555 1_555
C12A C6A 1_555 1_555
C12B C6B 1_555 1_555
H8A C12A 1_555 1_555
H8B C12B 1_555 1_555
C13A N1A 1_555 1_555
C13B N1B 1_555 1_555
H9A C13A 1_555 1_555
H9B C13B 1_555 1_555
C14A N2A 1_555 1_555
C14B N2B 1_555 1_555
H10A C14A 1_555 1_555
H10B C14B 1_555 1_555
C15A C14A 1_555 1_555
C15B C14B 1_555 1_555
H11A C15A 1_555 1_555
H11B C15B 1_555 1_555
H12A C15A 1_555 1_555
H12B C15B 1_555 1_555
C16A C15A 1_555 1_555
C16B C15B 1_555 1_555
H13A C16A 1_555 1_555
H13B C16B 1_555 1_555
H14A C16A 1_555 1_555
H14B C16B 1_555 1_555
C17A C13A 1_555 1_555
C17B C13B 1_555 1_555
H15A C17A 1_555 1_555
H15B C17B 1_555 1_555
H16A C17A 1_555 1_555
H16B C17B 1_555 1_555
C18A N3A 1_555 1_555
C18B N3B 1_555 1_555
H17A C18A 1_555 1_555
H17B C18B 1_555 1_555
C19A N4A 1_555 1_555
C19B N4B 1_555 1_555
H18A C19A 1_555 1_555
H18B C19B 1_555 1_555
C20A C19A 1_555 1_555
C20B C19B 1_555 1_555
H19A C20A 1_555 1_555
H19B C20B 1_555 1_555
H20A C20A 1_555 1_555
H20B C20B 1_555 1_555
C21A C20A 1_555 1_555
C21B C20B 1_555 1_555
H21A C21A 1_555 1_555
H21B C21B 1_555 1_555
H22A C21A 1_555 1_555
H22B C21B 1_555 1_555
C22A C18A 1_555 1_555
C22B C18B 1_555 1_555
H23A C22A 1_555 1_555
H23B C22B 1_555 1_555
H24A C22A 1_555 1_555
H24B C22B 1_555 1_555
C13 C14 1_555 1_555
C16 C17 1_555 1_555
C18 C19 1_555 1_555
C21 C22 1_555 1_555
C1B C2B 1_555 1_555
C6B C7B 1_555 1_555
C8A C9A 1_555 1_555
C8B C9B 1_555 1_555
C13A C14A 1_555 1_555
C13B C14B 1_555 1_555
C16A C17A 1_555 1_555
C16B C17B 1_555 1_555
C18A C19A 1_555 1_555
C18B C19B 1_555 1_555
C21A C22A 1_555 1_555
C21B C22B 1_555 1_555

#END
