
#######################################################################
#
#                 Cambridge Crystallographic Data Centre
#                                CCDC 
#
#######################################################################
#
# If this CIF has been generated from an entry in the Cambridge 
# Structural Database, then it will include bibliographic, chemical, 
# crystal, experimental, refinement or atomic coordinate data resulting 
# from the CCDC's data processing and validation procedures.
#
#######################################################################

data_OZECAY03
_chemical_formula_moiety         'C66 H72 N12'
_chemical_name_systematic        
5,11,19,25,33,39,47,53,58,64,69,75-Dodeca-azatridecacyclo[27.27.9.9^15,43^.1^3,55^.1^13,17^.1^27,31^.1^41,45^.0^6,10^.0^20,24^.0^34,38^.0^48,52^.0^59,63^.0^70,74^]octaheptaconta-1,3(66),4,11,13(78),14,16,18,25,27(77),28,30,32,39,41(67),42,44,46,53,55,57,64,68,75-tetracosaene
_symmetry_cell_setting           cubic
_symmetry_space_group_name_H-M   'F 41 3 2'
_symmetry_Int_Tables_number      210
_space_group_name_Hall           'F 4d 2 3'
loop_
_symmetry_equiv_pos_site_id
_symmetry_equiv_pos_as_xyz
1 x,y,z
2 1/4-y,1/4+x,1/4+z
3 -x,-y,z
4 1/4+y,1/4-x,1/4+z
5 1/4+x,1/4-z,1/4+y
6 x,-y,-z
7 1/4+x,1/4+z,1/4-y
8 1/4+z,1/4+y,1/4-x
9 -x,y,-z
10 1/4-z,1/4+y,1/4+x
11 z,x,y
12 y,z,x
13 -y,-z,x
14 z,-x,-y
15 -y,z,-x
16 -z,-x,y
17 -z,x,-y
18 y,-z,-x
19 1/4+y,1/4+x,1/4-z
20 1/4-y,1/4-x,1/4-z
21 1/4-x,1/4+z,1/4+y
22 1/4-x,1/4-z,1/4-y
23 1/4+z,1/4-y,1/4+x
24 1/4-z,1/4-y,1/4-x
25 x,1/2+y,1/2+z
26 1/4-y,3/4+x,3/4+z
27 -x,1/2-y,1/2+z
28 1/4+y,3/4-x,3/4+z
29 1/4+x,3/4-z,3/4+y
30 x,1/2-y,1/2-z
31 1/4+x,3/4+z,3/4-y
32 1/4+z,3/4+y,3/4-x
33 -x,1/2+y,1/2-z
34 1/4-z,3/4+y,3/4+x
35 z,1/2+x,1/2+y
36 y,1/2+z,1/2+x
37 -y,1/2-z,1/2+x
38 z,1/2-x,1/2-y
39 -y,1/2+z,1/2-x
40 -z,1/2-x,1/2+y
41 -z,1/2+x,1/2-y
42 y,1/2-z,1/2-x
43 1/4+y,3/4+x,3/4-z
44 1/4-y,3/4-x,3/4-z
45 1/4-x,3/4+z,3/4+y
46 1/4-x,3/4-z,3/4-y
47 1/4+z,3/4-y,3/4+x
48 1/4-z,3/4-y,3/4-x
49 1/2+x,y,1/2+z
50 3/4-y,1/4+x,3/4+z
51 1/2-x,-y,1/2+z
52 3/4+y,1/4-x,3/4+z
53 3/4+x,1/4-z,3/4+y
54 1/2+x,-y,1/2-z
55 3/4+x,1/4+z,3/4-y
56 3/4+z,1/4+y,3/4-x
57 1/2-x,y,1/2-z
58 3/4-z,1/4+y,3/4+x
59 1/2+z,x,1/2+y
60 1/2+y,z,1/2+x
61 1/2-y,-z,1/2+x
62 1/2+z,-x,1/2-y
63 1/2-y,z,1/2-x
64 1/2-z,-x,1/2+y
65 1/2-z,x,1/2-y
66 1/2+y,-z,1/2-x
67 3/4+y,1/4+x,3/4-z
68 3/4-y,1/4-x,3/4-z
69 3/4-x,1/4+z,3/4+y
70 3/4-x,1/4-z,3/4-y
71 3/4+z,1/4-y,3/4+x
72 3/4-z,1/4-y,3/4-x
73 1/2+x,1/2+y,z
74 3/4-y,3/4+x,1/4+z
75 1/2-x,1/2-y,z
76 3/4+y,3/4-x,1/4+z
77 3/4+x,3/4-z,1/4+y
78 1/2+x,1/2-y,-z
79 3/4+x,3/4+z,1/4-y
80 3/4+z,3/4+y,1/4-x
81 1/2-x,1/2+y,-z
82 3/4-z,3/4+y,1/4+x
83 1/2+z,1/2+x,y
84 1/2+y,1/2+z,x
85 1/2-y,1/2-z,x
86 1/2+z,1/2-x,-y
87 1/2-y,1/2+z,-x
88 1/2-z,1/2-x,y
89 1/2-z,1/2+x,-y
90 1/2+y,1/2-z,-x
91 3/4+y,3/4+x,1/4-z
92 3/4-y,3/4-x,1/4-z
93 3/4-x,3/4+z,1/4+y
94 3/4-x,3/4-z,1/4-y
95 3/4+z,3/4-y,1/4+x
96 3/4-z,3/4-y,1/4-x
_cell_length_a                   24.242(9)
_cell_length_b                   24.242(9)
_cell_length_c                   24.242(9)
_cell_angle_alpha                90
_cell_angle_beta                 90
_cell_angle_gamma                90
_cell_volume                     14246.4
_exptl_crystal_colour            colorless
_exptl_crystal_description       plate
_cell_formula_units_Z            8
loop_
_atom_site_label
_atom_site_type_symbol
_atom_site_fract_x
_atom_site_fract_y
_atom_site_fract_z
N1 N 0.4507(3) 0.2324(3) 0.5401(3)
C1 C 0.4415(3) 0.1172(4) 0.6356(4)
H1 H 0.4721 0.1261 0.6571
C2 C 0.4901(3) 0.2764(3) 0.5295(3)
H2 H 0.5219 0.2718 0.5541
C3 C 0.4284(3) 0.1494(3) 0.5904(4)
C4 C 0.4631(4) 0.1969(4) 0.5767(4)
H3 H 0.4960 0.2014 0.5958
C5 C 0.4669(4) 0.3331(3) 0.5369(4)
H4 H 0.4283 0.3340 0.5266
H5 H 0.4703 0.3449 0.5751
C6 C 0.5000 0.3697(6) 0.5000
H6 H 0.5242 0.3931 0.5217
N1H N 0.5493(3) 0.2324(3) 0.4599(3)
C1H C 0.5585(3) 0.1172(4) 0.3644(4)
H1H H 0.5279 0.1261 0.3429
C2H C 0.5099(3) 0.2764(3) 0.4705(3)
H2H H 0.4781 0.2718 0.4459
C3H C 0.5716(3) 0.1494(3) 0.4096(4)
C4H C 0.5369(4) 0.1969(4) 0.4233(4)
H3H H 0.5040 0.2014 0.4042
C5H C 0.5331(4) 0.3331(3) 0.4631(4)
H4H H 0.5717 0.3340 0.4734
H5H H 0.5297 0.3449 0.4249
H6H H 0.4758 0.3931 0.4783
N1MA N 0.4599(3) 0.0493(3) 0.7324(3)
C1MA C 0.3644(4) 0.0585(3) 0.6172(4)
H1MA H 0.3429 0.0279 0.6261
C2MA C 0.4705(3) 0.0099(3) 0.7764(3)
H2MA H 0.4459 -0.0219 0.7718
C3MA C 0.4096(4) 0.0716(3) 0.6494(3)
C4MA C 0.4233(4) 0.0369(4) 0.6969(4)
H3MA H 0.4042 0.0040 0.7014
C5MA C 0.4631(4) 0.0331(4) 0.8331(3)
H4MA H 0.4734 0.0717 0.8340
H5MA H 0.4249 0.0297 0.8449
C6HA C 0.5000 0.0000 0.8697(6)
H6MA H 0.4783 -0.0242 0.8931
N1HC N 0.2676(3) 0.0401(3) 0.5493(3)
C1HC C 0.3828(4) 0.1356(4) 0.5585(3)
H1HC H 0.3739 0.1571 0.5279
C2HC C 0.2236(3) 0.0295(3) 0.5099(3)
H2HC H 0.2282 0.0541 0.4781
C3HC C 0.3506(3) 0.0904(4) 0.5716(3)
C4HC C 0.3031(4) 0.0767(4) 0.5369(4)
H3HC H 0.2986 0.0958 0.5040
C5HC C 0.1669(3) 0.0369(4) 0.5331(4)
H4HC H 0.1660 0.0266 0.5717
H5HC H 0.1551 0.0751 0.5297
C6FC C 0.1303(6) 0.0000 0.5000
H6HC H 0.1069 0.0217 0.4758
N1HA N 0.5401(3) -0.0493(3) 0.7324(3)
C1HA C 0.6356(4) -0.0585(3) 0.6172(4)
H1HA H 0.6571 -0.0279 0.6261
C2HA C 0.5295(3) -0.0099(3) 0.7764(3)
H2HA H 0.5541 0.0219 0.7718
C3HA C 0.5904(4) -0.0716(3) 0.6494(3)
C4HA C 0.5767(4) -0.0369(4) 0.6969(4)
H3HA H 0.5958 -0.0040 0.7014
C5HA C 0.5369(4) -0.0331(4) 0.8331(3)
H4HA H 0.5266 -0.0717 0.8340
H5HA H 0.5751 -0.0297 0.8449
H6HA H 0.5217 0.0242 0.8931
N1KA N 0.5401(3) 0.0493(3) 0.2676(3)
C1KA C 0.6356(4) 0.0585(3) 0.3828(4)
H1KA H 0.6571 0.0279 0.3739
C2KA C 0.5295(3) 0.0099(3) 0.2236(3)
H2KA H 0.5541 -0.0219 0.2282
C3KA C 0.5904(4) 0.0716(3) 0.3506(3)
C4KA C 0.5767(4) 0.0369(4) 0.3031(4)
H3KA H 0.5958 0.0040 0.2986
C5KA C 0.5369(4) 0.0331(4) 0.1669(3)
H4KA H 0.5266 0.0717 0.1660
H5KA H 0.5751 0.0297 0.1551
C6KA C 0.5000 0.0000 0.1303(6)
H6KA H 0.5217 -0.0242 0.1069
N1NA N 0.4599(3) -0.0493(3) 0.2676(3)
C1NA C 0.3644(4) -0.0585(3) 0.3828(4)
H1NA H 0.3429 -0.0279 0.3739
C2NA C 0.4705(3) -0.0099(3) 0.2236(3)
H2NA H 0.4459 0.0219 0.2282
C3NA C 0.4096(4) -0.0716(3) 0.3506(3)
C4NA C 0.4233(4) -0.0369(4) 0.3031(4)
H3NA H 0.4042 -0.0040 0.2986
C5NA C 0.4631(4) -0.0331(4) 0.1669(3)
H4NA H 0.4734 -0.0717 0.1660
H5NA H 0.4249 -0.0297 0.1551
H6NA H 0.4783 0.0242 0.1069
N1EC N 0.7324(3) 0.0401(3) 0.4507(3)
C1EC C 0.6172(4) 0.1356(4) 0.4415(3)
H1EC H 0.6261 0.1571 0.4721
C2EC C 0.7764(3) 0.0295(3) 0.4901(3)
H2EC H 0.7718 0.0541 0.5219
C3EC C 0.6494(3) 0.0904(4) 0.4284(3)
C4EC C 0.6969(4) 0.0767(4) 0.4631(4)
H3EC H 0.7014 0.0958 0.4960
C5EC C 0.8331(3) 0.0369(4) 0.4669(4)
H4EC H 0.8340 0.0266 0.4283
H5EC H 0.8449 0.0751 0.4703
C6EC C 0.8697(6) 0.0000 0.5000
H6EC H 0.8931 0.0217 0.5242
N1FC N 0.2676(3) -0.0401(3) 0.4507(3)
C1FC C 0.3828(4) -0.1356(4) 0.4415(3)
H1FC H 0.3739 -0.1571 0.4721
C2FC C 0.2236(3) -0.0295(3) 0.4901(3)
H2FC H 0.2282 -0.0541 0.5219
C3FC C 0.3506(3) -0.0904(4) 0.4284(3)
C4FC C 0.3031(4) -0.0767(4) 0.4631(4)
H3FC H 0.2986 -0.0958 0.4960
C5FC C 0.1669(3) -0.0369(4) 0.4669(4)
H4FC H 0.1660 -0.0266 0.4283
H5FC H 0.1551 -0.0751 0.4703
H6FC H 0.1069 -0.0217 0.5242
N1B N 0.5493(3) -0.2324(3) 0.5401(3)
C1B C 0.5585(3) -0.1172(4) 0.6356(4)
H1B H 0.5279 -0.1261 0.6571
C2B C 0.5099(3) -0.2764(3) 0.5295(3)
H2B H 0.4781 -0.2718 0.5541
C3B C 0.5716(3) -0.1494(3) 0.5904(4)
C4B C 0.5369(4) -0.1969(4) 0.5767(4)
H3B H 0.5040 -0.2014 0.5958
C5B C 0.5331(4) -0.3331(3) 0.5369(4)
H4B H 0.5717 -0.3340 0.5266
H5B H 0.5297 -0.3449 0.5751
C6B C 0.5000 -0.3697(6) 0.5000
H6B H 0.4758 -0.3931 0.5217
N1E N 0.4507(3) -0.2324(3) 0.4599(3)
C1E C 0.4415(3) -0.1172(4) 0.3644(4)
H1E H 0.4721 -0.1261 0.3429
C2E C 0.4901(3) -0.2764(3) 0.4705(3)
H2E H 0.5219 -0.2718 0.4459
C3E C 0.4284(3) -0.1494(3) 0.4096(4)
C4E C 0.4631(4) -0.1969(4) 0.4233(4)
H3E H 0.4960 -0.2014 0.4042
C5E C 0.4669(4) -0.3331(3) 0.4631(4)
H4E H 0.4283 -0.3340 0.4734
H5E H 0.4703 -0.3449 0.4249
H6E H 0.5242 -0.3931 0.4783
N1KC N 0.7324(3) -0.0401(3) 0.5493(3)
C1KC C 0.6172(4) -0.1356(4) 0.5585(3)
H1KC H 0.6261 -0.1571 0.5279
C2KC C 0.7764(3) -0.0295(3) 0.5099(3)
H2KC H 0.7718 -0.0541 0.4781
C3KC C 0.6494(3) -0.0904(4) 0.5716(3)
C4KC C 0.6969(4) -0.0767(4) 0.5369(4)
H3KC H 0.7014 -0.0958 0.5040
C5KC C 0.8331(3) -0.0369(4) 0.5331(4)
H4KC H 0.8340 -0.0266 0.5717
H5KC H 0.8449 -0.0751 0.5297
H6KC H 0.8931 -0.0217 0.4758
H7? H 0.5242 0.3931 0.5217
loop_
_geom_bond_atom_site_label_1
_geom_bond_atom_site_label_2
_geom_bond_site_symmetry_1
_geom_bond_site_symmetry_2
N1 C2 1_555 1_555
C1 H1 1_555 1_555
C2 H2 1_555 1_555
C3 C1 1_555 1_555
C4 N1 1_555 1_555
H3 C4 1_555 1_555
C5 C2 1_555 1_555
H4 C5 1_555 1_555
H5 C5 1_555 1_555
C6 C5 1_555 1_555
H6 C6 1_555 1_555
N1H C2H 1_555 1_555
C1H H1H 1_555 1_555
C2H C2 1_555 1_555
H2H C2H 1_555 1_555
C3H C1H 1_555 1_555
C4H N1H 1_555 1_555
H3H C4H 1_555 1_555
C5H C6 1_555 1_555
H4H C5H 1_555 1_555
H5H C5H 1_555 1_555
H6H C6 1_555 1_555
N1MA C2MA 1_555 1_555
C1MA H1MA 1_555 1_555
C2MA H2MA 1_555 1_555
C3MA C1 1_555 1_555
C4MA N1MA 1_555 1_555
H3MA C4MA 1_555 1_555
C5MA C2MA 1_555 1_555
H4MA C5MA 1_555 1_555
H5MA C5MA 1_555 1_555
C6HA C5MA 1_555 1_555
H6MA C6HA 1_555 1_555
N1HC C2HC 1_555 1_555
C1HC C3 1_555 1_555
H1HC C1HC 1_555 1_555
C2HC H2HC 1_555 1_555
C3HC C1MA 1_555 1_555
C4HC N1HC 1_555 1_555
H3HC C4HC 1_555 1_555
C5HC C2HC 1_555 1_555
H4HC C5HC 1_555 1_555
H5HC C5HC 1_555 1_555
C6FC C5HC 1_555 1_555
H6HC C6FC 1_555 1_555
N1HA C2HA 1_555 1_555
C1HA H1HA 1_555 1_555
C2HA C2MA 1_555 1_555
H2HA C2HA 1_555 1_555
C3HA C1HA 1_555 1_555
C4HA N1HA 1_555 1_555
H3HA C4HA 1_555 1_555
C5HA C6HA 1_555 1_555
H4HA C5HA 1_555 1_555
H5HA C5HA 1_555 1_555
H6HA C6HA 1_555 1_555
N1KA C2KA 1_555 1_555
C1KA H1KA 1_555 1_555
C2KA H2KA 1_555 1_555
C3KA C1H 1_555 1_555
C4KA N1KA 1_555 1_555
H3KA C4KA 1_555 1_555
C5KA C2KA 1_555 1_555
H4KA C5KA 1_555 1_555
H5KA C5KA 1_555 1_555
C6KA C5KA 1_555 1_555
H6KA C6KA 1_555 1_555
N1NA C2NA 1_555 1_555
C1NA H1NA 1_555 1_555
C2NA C2KA 1_555 1_555
H2NA C2NA 1_555 1_555
C3NA C1NA 1_555 1_555
C4NA N1NA 1_555 1_555
H3NA C4NA 1_555 1_555
C5NA C6KA 1_555 1_555
H4NA C5NA 1_555 1_555
H5NA C5NA 1_555 1_555
H6NA C6KA 1_555 1_555
N1EC C2EC 1_555 1_555
C1EC C3H 1_555 1_555
H1EC C1EC 1_555 1_555
C2EC H2EC 1_555 1_555
C3EC C1KA 1_555 1_555
C4EC N1EC 1_555 1_555
H3EC C4EC 1_555 1_555
C5EC C2EC 1_555 1_555
H4EC C5EC 1_555 1_555
H5EC C5EC 1_555 1_555
C6EC C5EC 1_555 1_555
H6EC C6EC 1_555 1_555
N1FC C2FC 1_555 1_555
C1FC H1FC 1_555 1_555
C2FC C2HC 1_555 1_555
H2FC C2FC 1_555 1_555
C3FC C1NA 1_555 1_555
C4FC N1FC 1_555 1_555
H3FC C4FC 1_555 1_555
C5FC C6FC 1_555 1_555
H4FC C5FC 1_555 1_555
H5FC C5FC 1_555 1_555
H6FC C6FC 1_555 1_555
N1B C2B 1_555 1_555
C1B C3HA 1_555 1_555
H1B C1B 1_555 1_555
C2B H2B 1_555 1_555
C3B C1B 1_555 1_555
C4B N1B 1_555 1_555
H3B C4B 1_555 1_555
C5B C2B 1_555 1_555
H4B C5B 1_555 1_555
H5B C5B 1_555 1_555
C6B C5B 1_555 1_555
H6B C6B 1_555 1_555
N1E C2E 1_555 1_555
C1E C3NA 1_555 1_555
H1E C1E 1_555 1_555
C2E C2B 1_555 1_555
H2E C2E 1_555 1_555
C3E C1FC 1_555 1_555
C4E N1E 1_555 1_555
H3E C4E 1_555 1_555
C5E C6B 1_555 1_555
H4E C5E 1_555 1_555
H5E C5E 1_555 1_555
H6E C6B 1_555 1_555
N1KC C2KC 1_555 1_555
C1KC C3B 1_555 1_555
H1KC C1KC 1_555 1_555
C2KC C2EC 1_555 1_555
H2KC C2KC 1_555 1_555
C3KC C1HA 1_555 1_555
C4KC N1KC 1_555 1_555
H3KC C4KC 1_555 1_555
C5KC C6EC 1_555 1_555
H4KC C5KC 1_555 1_555
H5KC C5KC 1_555 1_555
H6KC C6EC 1_555 1_555
C3 C4 1_555 1_555
C2H C5H 1_555 1_555
C3H C4H 1_555 1_555
C1MA C3MA 1_555 1_555
C3MA C4MA 1_555 1_555
C1HC C3HC 1_555 1_555
C3HC C4HC 1_555 1_555
C2HA C5HA 1_555 1_555
C3HA C4HA 1_555 1_555
C1KA C3KA 1_555 1_555
C3KA C4KA 1_555 1_555
C2NA C5NA 1_555 1_555
C3NA C4NA 1_555 1_555
C1EC C3EC 1_555 1_555
C3EC C4EC 1_555 1_555
C1FC C3FC 1_555 1_555
C2FC C5FC 1_555 1_555
C3FC C4FC 1_555 1_555
C3B C4B 1_555 1_555
C1E C3E 1_555 1_555
C2E C5E 1_555 1_555
C3E C4E 1_555 1_555
C1KC C3KC 1_555 1_555
C2KC C5KC 1_555 1_555
C3KC C4KC 1_555 1_555

#END
