
#######################################################################
#
#                 Cambridge Crystallographic Data Centre
#                                CCDC 
#
#######################################################################
#
# If this CIF has been generated from an entry in the Cambridge 
# Structural Database, then it will include bibliographic, chemical, 
# crystal, experimental, refinement or atomic coordinate data resulting 
# from the CCDC's data processing and validation procedures.
#
#######################################################################

data_OZECAY02
_chemical_formula_moiety         'C66 H72 N12'
_chemical_name_systematic        
5,11,19,25,33,39,47,53,58,64,69,75-Dodeca-azatridecacyclo[27.27.9.9^15,43^.1^3,55^.1^13,17^.1^27,31^.1^41,45^.0^6,10^.0^20,24^.0^34,38^.0^48,52^.0^59,63^.0^70,74^]octaheptaconta-1,3(66),4,11,13(78),14,16,18,25,27(77),28,30,32,39,41(67),42,44,46,53,55,57,64,68,75-tetracosaene
_symmetry_cell_setting           trigonal
_symmetry_space_group_name_H-M   'P 3'
_symmetry_Int_Tables_number      143
_space_group_name_Hall           'P 3'
loop_
_symmetry_equiv_pos_site_id
_symmetry_equiv_pos_as_xyz
1 x,y,z
2 -y,x-y,z
3 -x+y,-x,z
_cell_length_a                   23.844(3)
_cell_length_b                   23.844(3)
_cell_length_c                   10.908(2)
_cell_angle_alpha                90
_cell_angle_beta                 90
_cell_angle_gamma                120
_cell_volume                     5370.74
_exptl_crystal_colour            colorless
_exptl_crystal_description       needle
_cell_formula_units_Z            3
loop_
_atom_site_label
_atom_site_type_symbol
_atom_site_fract_x
_atom_site_fract_y
_atom_site_fract_z
N1 N 0.5209(6) 0.3509(6) 0.2323(11)
N2 N 0.4499(7) 0.3476(7) 0.4685(13)
N3 N 0.4411(6) 0.2025(7) 0.9648(13)
N4 N 0.6171(7) 0.5119(7) 0.9339(13)
C1 C 0.6040(8) 0.3228(8) 0.2362(14)
C2 C 0.6156(8) 0.2711(8) 0.2339(13)
H1 H 0.5800 0.2281 0.2307
C3 C 0.5368(8) 0.3084(8) 0.2393(13)
H2 H 0.5035 0.2644 0.2470
C4 C 0.4976(9) 0.3712(9) 0.6724(17)
C5 C 0.4663(8) 0.3080(9) 0.7057(17)
H3 H 0.4383 0.2759 0.6490
C6 C 0.4748(8) 0.2895(9) 0.8239(17)
C7 C 0.5190(8) 0.3403(9) 0.9011(17)
H4 H 0.5287 0.3300 0.9794
C8 C 0.5475(8) 0.4025(9) 0.8669(17)
C9 C 0.5399(8) 0.4201(9) 0.7504(16)
H5 H 0.5629 0.4640 0.7245
C10 C 0.4903(9) 0.3898(10) 0.5414(17)
H6 H 0.5163 0.4333 0.5146
C11 C 0.4377(8) 0.2212(9) 0.8567(17)
H7 H 0.4107 0.1903 0.7973
C12 C 0.5909(9) 0.4530(9) 0.9555(17)
H8 H 0.5991 0.4396 1.0321
C13 C 0.4534(8) 0.3318(9) 0.2478(15)
H9 H 0.4277 0.2844 0.2665
C14 C 0.4426(8) 0.3694(8) 0.3463(14)
H10 H 0.4747 0.4165 0.3367
C15 C 0.3766(8) 0.3584(8) 0.3287(14)
H11 H 0.3748 0.3981 0.3464
H12 H 0.3453 0.3229 0.3820
C16 C 0.3624(8) 0.3392(9) 0.1888(14)
H13 H 0.3266 0.2940 0.1799
H14 H 0.3504 0.3682 0.1456
C17 C 0.4252(8) 0.3467(8) 0.1373(15)
H15 H 0.4168 0.3157 0.0699
H16 H 0.4542 0.3913 0.1072
C18 C 0.4041(8) 0.1342(8) 0.9861(16)
H17 H 0.3820 0.1118 0.9085
C19 C 0.3553(8) 0.1137(8) 1.0864(16)
H18 H 0.3165 0.1149 1.0583
H19 H 0.3737 0.1426 1.1584
C20 C 0.3380(9) 0.0448(9) 1.1192(19)
H20 H 0.2965 0.0133 1.0804
H21 H 0.3337 0.0385 1.2091
C21 C 0.3942(8) 0.0356(8) 1.0702(17)
H22 H 0.3803 0.0054 0.9998
H23 H 0.4122 0.0201 1.1352
C22 C 0.4446(9) 0.1081(8) 1.0298(17)
H24 H 0.4707 0.1335 1.1021
N1A N 0.6491(6) 0.1700(8) 0.2323(11)
N1B N 0.8300(8) 0.4791(6) 0.2323(11)
N2A N 0.6524(7) 0.1023(10) 0.4685(13)
N2B N 0.8977(10) 0.5501(7) 0.4685(13)
N3A N 0.7975(7) 0.2386(9) 0.9648(13)
N3B N 0.7614(9) 0.5589(6) 0.9648(13)
N4A N 0.4881(7) 0.1052(10) 0.9339(13)
N4B N 0.8948(10) 0.3829(7) 0.9339(13)
C1A C 0.6772(8) 0.2812(11) 0.2362(14)
C1B C 0.7188(11) 0.3960(8) 0.2362(14)
C2A C 0.7289(8) 0.3445(11) 0.2339(13)
C2B C 0.6555(11) 0.3844(8) 0.2339(13)
H1A H 0.7719 0.3519 0.2307
H1B H 0.6481 0.4200 0.2307
C3A C 0.6916(8) 0.2284(11) 0.2393(13)
C3B C 0.7716(11) 0.4632(8) 0.2393(13)
H2A H 0.7356 0.2391 0.2470
H2B H 0.7609 0.4965 0.2470
C4A C 0.6288(9) 0.1264(13) 0.6724(17)
C4B C 0.8736(13) 0.5024(9) 0.6724(17)
C5A C 0.6920(9) 0.1583(12) 0.7057(17)
C5B C 0.8417(12) 0.5337(8) 0.7057(17)
H3A H 0.7241 0.1624 0.6490
H3B H 0.8376 0.5617 0.6490
C6A C 0.7105(9) 0.1853(12) 0.8239(17)
C6B C 0.8147(12) 0.5252(8) 0.8239(17)
C7A C 0.6597(9) 0.1787(12) 0.9011(17)
C7B C 0.8213(12) 0.4810(8) 0.9011(17)
H4A H 0.6700 0.1987 0.9794
H4B H 0.8013 0.4713 0.9794
C8A C 0.5975(9) 0.1450(12) 0.8669(17)
C8B C 0.8550(12) 0.4525(8) 0.8669(17)
C9A C 0.5799(9) 0.1198(12) 0.7504(16)
C9B C 0.8802(12) 0.4601(8) 0.7504(16)
H5A H 0.5360 0.0989 0.7245
H5B H 0.9011 0.4371 0.7245
C10A C 0.6102(10) 0.1005(13) 0.5414(17)
C10B C 0.8995(13) 0.5097(9) 0.5414(17)
H6A H 0.5667 0.0830 0.5146
H6B H 0.9170 0.4837 0.5146
C11A C 0.7788(9) 0.2165(12) 0.8567(17)
C11B C 0.7835(12) 0.5623(8) 0.8567(17)
H7A H 0.8097 0.2204 0.7973
H7B H 0.7796 0.5893 0.7973
C12A C 0.5470(9) 0.1379(13) 0.9555(17)
C12B C 0.8621(13) 0.4091(9) 0.9555(17)
H8A H 0.5604 0.1595 1.0321
H8B H 0.8405 0.4009 1.0321
C13A C 0.6682(9) 0.1216(12) 0.2478(15)
C13B C 0.8784(12) 0.5466(8) 0.2478(15)
H9A H 0.7156 0.1433 0.2665
H9B H 0.8567 0.5723 0.2665
C14A C 0.6306(8) 0.0732(11) 0.3463(14)
C14B C 0.9268(11) 0.5574(8) 0.3463(14)
H10A H 0.5835 0.0582 0.3367
H10B H 0.9418 0.5253 0.3367
C15A C 0.6416(8) 0.0182(11) 0.3287(14)
C15B C 0.9818(11) 0.6234(8) 0.3287(14)
H11A H 0.6019 -0.0233 0.3464
H11B H 1.0233 0.6252 0.3464
H12A H 0.6771 0.0224 0.3820
H12B H 0.9776 0.6547 0.3820
C16A C 0.6608(9) 0.0232(12) 0.1888(14)
C16B C 0.9768(12) 0.6376(8) 0.1888(14)
H13A H 0.7060 0.0326 0.1799
H13B H 0.9674 0.6734 0.1799
H14A H 0.6318 -0.0178 0.1456
H14B H 1.0178 0.6496 0.1456
C17A C 0.6533(8) 0.0785(11) 0.1373(15)
C17B C 0.9215(11) 0.5748(8) 0.1373(15)
H15A H 0.6843 0.1011 0.0699
H15B H 0.8989 0.5832 0.0699
H16A H 0.6087 0.0629 0.1072
H16B H 0.9371 0.5458 0.1072
C18A C 0.8658(8) 0.2699(11) 0.9861(16)
C18B C 0.7301(11) 0.5959(8) 0.9861(16)
H17A H 0.8882 0.2702 0.9085
H17B H 0.7298 0.6180 0.9085
C19A C 0.8863(8) 0.2416(11) 1.0864(16)
C19B C 0.7584(11) 0.6447(8) 1.0864(16)
H18A H 0.8851 0.2016 1.0583
H18B H 0.7984 0.6835 1.0583
H19A H 0.8574 0.2311 1.1584
H19B H 0.7689 0.6263 1.1584
C20A C 0.9552(9) 0.2932(13) 1.1192(19)
C20B C 0.7068(13) 0.6620(9) 1.1192(19)
H20A H 0.9867 0.2832 1.0804
H20B H 0.7168 0.7035 1.0804
H21A H 0.9615 0.2952 1.2091
H21B H 0.7048 0.6663 1.2091
C21A C 0.9644(8) 0.3586(11) 1.0702(17)
C21B C 0.6414(11) 0.6058(8) 1.0702(17)
H22A H 0.9946 0.3749 0.9998
H22B H 0.6251 0.6197 0.9998
H23A H 0.9799 0.3921 1.1352
H23B H 0.6079 0.5878 1.1352
C22A C 0.8919(8) 0.3365(12) 1.0298(17)
C22B C 0.6635(12) 0.5554(9) 1.0298(17)
H24A H 0.8665 0.3372 1.1021
H24B H 0.6628 0.5293 1.1021
N5 N 0.1772(6) 0.0732(6) 0.4567(11)
N6 N 0.2619(7) 0.1228(7) 0.6886(13)
N7 N 0.1546(6) -0.0614(6) 1.1658(12)
N8 N 0.0267(6) -0.1858(6) 1.1935(13)
C23 C 0.0678(7) 0.0465(8) 0.4716(14)
C24 C 0.0430(8) -0.0211(8) 0.4700(14)
H25 H 0.0735 -0.0356 0.4674
C25 C 0.1364(7) 0.0916(8) 0.4698(13)
H26 H 0.1513 0.1365 0.4787
C26 C 0.2135(8) 0.0857(9) 0.8890(16)
C27 C 0.2167(7) 0.1421(8) 0.9210(14)
H27 H 0.2332 0.1774 0.8651
C28 C 0.1951(8) 0.1479(8) 1.0380(16)
C29 C 0.1717(8) 0.0933(8) 1.1123(16)
H28 H 0.1563 0.0954 1.1915
C30 C 0.1694(8) 0.0391(8) 1.0811(15)
C31 C 0.1905(7) 0.0334(8) 0.9668(15)
H29 H 0.1891 -0.0055 0.9423
C32 C 0.2348(8) 0.0761(9) 0.7636(16)
H30 H 0.2277 0.0346 0.7408
C33 C 0.1447(7) -0.0146(8) 1.1715(15)
H31 H 0.1197 -0.0133 1.2382
C34 C 0.0100(7) -0.1946(7) 1.0776(16)
H32 H 0.0363 -0.2006 1.0196
C35 C 0.2450(7) 0.1247(8) 0.4673(13)
H33 H 0.2485 0.1676 0.4829
C36 C 0.2790(7) 0.1080(8) 0.5672(14)
H34 H 0.2661 0.0611 0.5624
C37 C 0.3505(8) 0.1499(9) 0.5404(16)
H35 H 0.3761 0.1329 0.5807
H36 H 0.3669 0.1952 0.5669
C38 C 0.3519(9) 0.1447(10) 0.4013(17)
H37 H 0.3626 0.1110 0.3783
H38 H 0.3853 0.1865 0.3662
C39 C 0.2844(8) 0.1269(9) 0.3511(17)
H39 H 0.2639 0.0843 0.3096
H40 H 0.2875 0.1600 0.2924
C40 C 0.1279(8) -0.1073(7) 1.2699(15)
H41 H 0.1000 -0.0960 1.3208
C41 C 0.0896(7) -0.1746(7) 1.2302(14)
H42 H 0.1114 -0.1841 1.1616
C42 C 0.0854(8) -0.2140(8) 1.3477(15)
H43 H 0.0422 -0.2324 1.3866
H44 H 0.0937 -0.2498 1.3278
C43 C 0.1377(9) -0.1649(9) 1.4309(17)
H45 H 0.1639 -0.1826 1.4659
H46 H 0.1184 -0.1527 1.4989
C44 C 0.1795(8) -0.1062(8) 1.3491(16)
H47 H 0.2024 -0.0657 1.3973
H48 H 0.2112 -0.1123 1.3008
N5A N -0.0732(6) 0.1040(8) 0.4567(11)
N5B N -0.1040(8) -0.1772(6) 0.4567(11)
N6A N -0.1228(7) 0.1391(10) 0.6886(13)
N6B N -0.1391(10) -0.2619(7) 0.6886(13)
N7A N 0.0614(6) 0.2160(8) 1.1658(12)
N7B N -0.2160(8) -0.1546(6) 1.1658(12)
N8A N 0.1858(6) 0.2125(8) 1.1935(13)
N8B N -0.2125(8) -0.0267(6) 1.1935(13)
C23A C -0.0465(8) 0.0213(11) 0.4716(14)
C23B C -0.0213(11) -0.0678(7) 0.4716(14)
C24A C 0.0211(8) 0.0641(11) 0.4700(14)
C24B C -0.0641(11) -0.0430(8) 0.4700(14)
H25A H 0.0356 0.1091 0.4674
H25B H -0.1091 -0.0735 0.4674
C25A C -0.0916(8) 0.0448(11) 0.4698(13)
C25B C -0.0448(11) -0.1364(7) 0.4698(13)
H26A H -0.1365 0.0148 0.4787
H26B H -0.0148 -0.1513 0.4787
C26A C -0.0857(9) 0.1278(12) 0.8890(16)
C26B C -0.1278(12) -0.2135(8) 0.8890(16)
C27A C -0.1421(8) 0.0746(11) 0.9210(14)
C27B C -0.0746(11) -0.2167(7) 0.9210(14)
H27A H -0.1774 0.0558 0.8651
H27B H -0.0558 -0.2332 0.8651
C28A C -0.1479(8) 0.0472(11) 1.0380(16)
C28B C -0.0472(11) -0.1951(8) 1.0380(16)
C29A C -0.0933(8) 0.0784(11) 1.1123(16)
C29B C -0.0784(11) -0.1717(8) 1.1123(16)
H28A H -0.0954 0.0609 1.1915
H28B H -0.0609 -0.1563 1.1915
C30A C -0.0391(8) 0.1303(11) 1.0811(15)
C30B C -0.1303(11) -0.1694(8) 1.0811(15)
C31A C -0.0334(8) 0.1571(11) 0.9668(15)
C31B C -0.1571(11) -0.1905(7) 0.9668(15)
H29A H 0.0055 0.1946 0.9423
H29B H -0.1946 -0.1891 0.9423
C32A C -0.0761(9) 0.1587(12) 0.7636(16)
C32B C -0.1587(12) -0.2348(8) 0.7636(16)
H30A H -0.0346 0.1931 0.7408
H30B H -0.1931 -0.2277 0.7408
C33A C 0.0146(8) 0.1593(11) 1.1715(15)
C33B C -0.1593(11) -0.1447(7) 1.1715(15)
H31A H 0.0133 0.1330 1.2382
H31B H -0.1330 -0.1197 1.2382
C34A C 0.1946(7) 0.2046(10) 1.0776(16)
C34B C -0.2046(10) -0.0100(7) 1.0776(16)
H32A H 0.2006 0.2369 1.0196
H32B H -0.2369 -0.0363 1.0196
C35A C -0.1247(8) 0.1203(11) 0.4673(13)
C35B C -0.1203(11) -0.2450(7) 0.4673(13)
H33A H -0.1676 0.0809 0.4829
H33B H -0.0809 -0.2485 0.4829
C36A C -0.1080(8) 0.1710(11) 0.5672(14)
C36B C -0.1710(11) -0.2790(7) 0.5672(14)
H34A H -0.0611 0.2050 0.5624
H34B H -0.2050 -0.2661 0.5624
C37A C -0.1499(9) 0.2006(12) 0.5404(16)
C37B C -0.2006(12) -0.3505(8) 0.5404(16)
H35A H -0.1329 0.2432 0.5807
H35B H -0.2432 -0.3761 0.5807
H36A H -0.1952 0.1717 0.5669
H36B H -0.1717 -0.3669 0.5669
C38A C -0.1447(10) 0.2072(13) 0.4013(17)
C38B C -0.2072(13) -0.3519(9) 0.4013(17)
H37A H -0.1110 0.2516 0.3783
H37B H -0.2516 -0.3626 0.3783
H38A H -0.1865 0.1988 0.3662
H38B H -0.1988 -0.3853 0.3662
C39A C -0.1269(9) 0.1575(12) 0.3511(17)
C39B C -0.1575(12) -0.2844(8) 0.3511(17)
H39A H -0.0843 0.1796 0.3096
H39B H -0.1796 -0.2639 0.3096
H40A H -0.1600 0.1275 0.2924
H40B H -0.1275 -0.2875 0.2924
C40A C 0.1073(7) 0.2352(11) 1.2699(15)
C40B C -0.2352(11) -0.1279(8) 1.2699(15)
H41A H 0.0960 0.1960 1.3208
H41B H -0.1960 -0.1000 1.3208
C41A C 0.1746(7) 0.2642(10) 1.2302(14)
C41B C -0.2642(10) -0.0896(7) 1.2302(14)
H42A H 0.1841 0.2955 1.1616
H42B H -0.2955 -0.1114 1.1616
C42A C 0.2140(8) 0.2994(11) 1.3477(15)
C42B C -0.2994(11) -0.0854(8) 1.3477(15)
H43A H 0.2324 0.2746 1.3866
H43B H -0.2746 -0.0422 1.3866
H44A H 0.2498 0.3435 1.3278
H44B H -0.3435 -0.0937 1.3278
C43A C 0.1649(9) 0.3026(13) 1.4309(17)
C43B C -0.3026(13) -0.1377(9) 1.4309(17)
H45A H 0.1826 0.3465 1.4659
H45B H -0.3465 -0.1639 1.4659
H46A H 0.1527 0.2711 1.4989
H46B H -0.2711 -0.1184 1.4989
C44A C 0.1062(8) 0.2857(11) 1.3491(16)
C44B C -0.2857(11) -0.1795(8) 1.3491(16)
H47A H 0.0657 0.2681 1.3973
H47B H -0.2681 -0.2024 1.3973
H48A H 0.1123 0.3235 1.3008
H48B H -0.3235 -0.2112 1.3008
N9 N 0.3186(6) 0.5033(7) -0.2662(11)
N10 N 0.3228(7) 0.4350(7) -0.0331(14)
N11 N 0.1618(7) 0.4480(6) 0.4369(13)
N12 N 0.4661(7) 0.5695(6) 0.4618(13)
C45 C 0.3470(8) 0.6155(9) -0.2556(14)
C46 C 0.2821(8) 0.6027(9) -0.2591(15)
H49 H 0.2476 0.5592 -0.2640
C47 C 0.3588(9) 0.5632(8) -0.2569(15)
H50 H 0.4029 0.5744 -0.2499
C48 C 0.2996(8) 0.4663(8) 0.1646(15)
C49 C 0.3651(8) 0.4962(8) 0.1963(15)
H51 H 0.3967 0.4980 0.1407
C50 C 0.3822(8) 0.5235(8) 0.3149(16)
C51 C 0.3312(9) 0.5166(8) 0.3922(17)
H52 H 0.3424 0.5335 0.4729
C52 C 0.2701(9) 0.4891(8) 0.3617(16)
C53 C 0.2513(10) 0.4601(9) 0.2427(17)
H53 H 0.2072 0.4374 0.2185
C54 C 0.2805(9) 0.4366(8) 0.0380(16)
H54 H 0.2370 0.4190 0.0108
C55 C 0.4496(8) 0.5542(7) 0.3485(17)
H55 H 0.4816 0.5630 0.2879
C56 C 0.2224(9) 0.4827(9) 0.4487(17)
H56 H 0.2377 0.5068 0.5224
C57 C 0.3404(8) 0.4571(8) -0.2531(15)
H57 H 0.3875 0.4794 -0.2320
C58 C 0.3004(8) 0.4080(7) -0.1561(14)
H58 H 0.2531 0.3918 -0.1669
C59 C 0.3169(8) 0.3552(8) -0.1796(14)
H59 H 0.2845 0.3140 -0.1412
H60 H 0.3602 0.3677 -0.1462
C60 C 0.3161(9) 0.3484(8) -0.3198(16)
H61 H 0.3516 0.3413 -0.3480
H62 H 0.2742 0.3121 -0.3485
C61 C 0.3260(9) 0.4136(8) -0.3655(16)
H63 H 0.3626 0.4335 -0.4240
H64 H 0.2865 0.4074 -0.4076
C62 C 0.5342(9) 0.6054(8) 0.4877(16)
H65 H 0.5593 0.6092 0.4118
C63 C 0.5554(9) 0.5786(9) 0.5896(17)
H66 H 0.5685 0.5480 0.5573
H67 H 0.5199 0.5555 0.6494
C64 C 0.6140(11) 0.6375(10) 0.651(2)
H68 H 0.6059 0.6388 0.7401
H69 H 0.6539 0.6350 0.6409
C65 C 0.1188(9) 0.4461(8) 0.5362(17)
H70 H 0.1452 0.4760 0.6037
C66 C 0.0776(10) 0.3795(10) 0.5859(19)
H71 H 0.1019 0.3679 0.6442
H72 H 0.0598 0.3469 0.5195
N9A N 0.4967(7) 0.8153(9) -0.2662(11)
N9B N 0.1847(9) 0.6814(6) -0.2662(11)
N10A N 0.5650(7) 0.8878(10) -0.0331(14)
N10B N 0.1122(10) 0.6772(7) -0.0331(14)
N11A N 0.5520(6) 0.7138(9) 0.4369(13)
N11B N 0.2862(9) 0.8382(7) 0.4369(13)
N12A N 0.4305(6) 0.8966(9) 0.4618(13)
N12B N 0.1034(9) 0.5339(7) 0.4618(13)
C45A C 0.3845(9) 0.7315(12) -0.2556(14)
C45B C 0.2685(12) 0.6530(8) -0.2556(14)
C46A C 0.3973(9) 0.6794(12) -0.2591(15)
C46B C 0.3206(12) 0.7179(8) -0.2591(15)
H49A H 0.4408 0.6884 -0.2640
H49B H 0.3116 0.7524 -0.2640
C47A C 0.4368(8) 0.7956(12) -0.2569(15)
C47B C 0.2044(12) 0.6412(9) -0.2569(15)
H50A H 0.4256 0.8285 -0.2499
H50B H 0.1715 0.5971 -0.2499
C48A C 0.5337(8) 0.8333(11) 0.1646(15)
C48B C 0.1667(11) 0.7004(8) 0.1646(15)
C49A C 0.5038(8) 0.8689(11) 0.1963(15)
C49B C 0.1311(11) 0.6349(8) 0.1963(15)
H51A H 0.5020 0.8987 0.1407
H51B H 0.1013 0.6033 0.1407
C50A C 0.4765(8) 0.8587(11) 0.3149(16)
C50B C 0.1413(11) 0.6178(8) 0.3149(16)
C51A C 0.4834(8) 0.8146(12) 0.3922(17)
C51B C 0.1854(12) 0.6688(9) 0.3922(17)
H52A H 0.4665 0.8089 0.4729
H52B H 0.1911 0.6576 0.4729
C52A C 0.5109(8) 0.7810(12) 0.3617(16)
C52B C 0.2190(12) 0.7299(9) 0.3617(16)
C53A C 0.5399(9) 0.7912(13) 0.2427(17)
C53B C 0.2088(13) 0.7487(10) 0.2427(17)
H53A H 0.5626 0.7698 0.2185
H53B H 0.2302 0.7928 0.2185
C54A C 0.5634(8) 0.8439(12) 0.0380(16)
C54B C 0.1561(12) 0.7195(9) 0.0380(16)
H54A H 0.5810 0.8180 0.0108
H54B H 0.1820 0.7630 0.0108
C55A C 0.4458(7) 0.8954(11) 0.3485(17)
C55B C 0.1046(11) 0.5504(8) 0.3485(17)
H55A H 0.4370 0.9186 0.2879
H55B H 0.0814 0.5184 0.2879
C56A C 0.5173(9) 0.7397(13) 0.4487(17)
C56B C 0.2603(13) 0.7776(9) 0.4487(17)
H56A H 0.4932 0.7309 0.5224
H56B H 0.2691 0.7623 0.5224
C57A C 0.5429(8) 0.8833(11) -0.2531(15)
C57B C 0.1167(11) 0.6596(8) -0.2531(15)
H57A H 0.5206 0.9081 -0.2320
H57B H 0.0919 0.6125 -0.2320
C58A C 0.5920(7) 0.8924(11) -0.1561(14)
C58B C 0.1076(11) 0.6996(8) -0.1561(14)
H58A H 0.6082 0.8613 -0.1669
H58B H 0.1387 0.7469 -0.1669
C59A C 0.6448(8) 0.9617(11) -0.1796(14)
C59B C 0.0383(11) 0.6831(8) -0.1796(14)
H59A H 0.6860 0.9705 -0.1412
H59B H 0.0295 0.7155 -0.1412
H60A H 0.6323 0.9925 -0.1462
H60B H 0.0075 0.6398 -0.1462
C60A C 0.6516(8) 0.9677(12) -0.3198(16)
C60B C 0.0323(12) 0.6839(9) -0.3198(16)
H61A H 0.6587 1.0103 -0.3480
H61B H -0.0103 0.6484 -0.3480
H62A H 0.6879 0.9621 -0.3485
H62B H 0.0379 0.7258 -0.3485
C61A C 0.5864(8) 0.9124(12) -0.3655(16)
C61B C 0.0876(12) 0.6740(9) -0.3655(16)
H63A H 0.5665 0.9291 -0.4240
H63B H 0.0709 0.6374 -0.4240
H64A H 0.5926 0.8791 -0.4076
H64B H 0.1209 0.7135 -0.4076
C62A C 0.3946(8) 0.9288(12) 0.4877(16)
C62B C 0.0712(12) 0.4658(9) 0.4877(16)
H65A H 0.3908 0.9501 0.4118
H65B H 0.0499 0.4407 0.4118
C63A C 0.4214(9) 0.9768(13) 0.5896(17)
C63B C 0.0232(13) 0.4446(9) 0.5896(17)
H66A H 0.4520 1.0205 0.5573
H66B H -0.0205 0.4315 0.5573
H67A H 0.4445 0.9644 0.6494
H67B H 0.0356 0.4801 0.6494
C64A C 0.3625(10) 0.9765(15) 0.651(2)
C64B C 0.0235(15) 0.3860(11) 0.651(2)
H68A H 0.3612 0.9671 0.7401
H68B H 0.0329 0.3941 0.7401
H69A H 0.3650 1.0189 0.6409
H69B H -0.0189 0.3461 0.6409
C65A C 0.5539(8) 0.6727(12) 0.5362(17)
C65B C 0.3273(12) 0.8812(9) 0.5362(17)
H70A H 0.5240 0.6692 0.6037
H70B H 0.3308 0.8548 0.6037
C66A C 0.6205(10) 0.6981(14) 0.5859(19)
C66B C 0.3019(14) 0.9224(10) 0.5859(19)
H71A H 0.6321 0.7340 0.6442
H71B H 0.2660 0.8981 0.6442
H72A H 0.6531 0.7129 0.5195
H72B H 0.2871 0.9402 0.5195
loop_
_geom_bond_atom_site_label_1
_geom_bond_atom_site_label_2
_geom_bond_site_symmetry_1
_geom_bond_site_symmetry_2
N1 C3 1_555 1_555
N2 C10 1_555 1_555
N3 C11 1_555 1_555
N4 C12 1_555 1_555
C1 C2 1_555 1_555
C2 H1 1_555 1_555
C3 C1 1_555 1_555
H2 C3 1_555 1_555
C4 C5 1_555 1_555
C5 H3 1_555 1_555
C6 C5 1_555 1_555
C7 C6 1_555 1_555
H4 C7 1_555 1_555
C8 C7 1_555 1_555
C9 C4 1_555 1_555
H5 C9 1_555 1_555
C10 C4 1_555 1_555
H6 C10 1_555 1_555
C11 C6 1_555 1_555
H7 C11 1_555 1_555
C12 C8 1_555 1_555
H8 C12 1_555 1_555
C13 N1 1_555 1_555
H9 C13 1_555 1_555
C14 N2 1_555 1_555
H10 C14 1_555 1_555
C15 C14 1_555 1_555
H11 C15 1_555 1_555
H12 C15 1_555 1_555
C16 C15 1_555 1_555
H13 C16 1_555 1_555
H14 C16 1_555 1_555
C17 C13 1_555 1_555
H15 C17 1_555 1_555
H16 C17 1_555 1_555
C18 N3 1_555 1_555
H17 C18 1_555 1_555
C19 C18 1_555 1_555
H18 C19 1_555 1_555
H19 C19 1_555 1_555
C20 C19 1_555 1_555
H20 C20 1_555 1_555
H21 C20 1_555 1_555
C21 C20 1_555 1_555
H22 C21 1_555 1_555
H23 C21 1_555 1_555
C22 C18 1_555 1_555
H24 C22 1_555 1_555
N5 C25 1_555 1_555
N6 C32 1_555 1_555
N7 C33 1_555 1_555
N8 C34 1_555 1_555
C23 C24 1_555 1_555
C24 H25 1_555 1_555
C25 C23 1_555 1_555
H26 C25 1_555 1_555
C26 C27 1_555 1_555
C27 H27 1_555 1_555
C28 C27 1_555 1_555
C29 C28 1_555 1_555
H28 C29 1_555 1_555
C30 C29 1_555 1_555
C31 C26 1_555 1_555
H29 C31 1_555 1_555
C32 C26 1_555 1_555
H30 C32 1_555 1_555
C33 C30 1_555 1_555
H31 C33 1_555 1_555
C34 H32 1_555 1_555
C35 N5 1_555 1_555
H33 C35 1_555 1_555
C36 N6 1_555 1_555
H34 C36 1_555 1_555
C37 C36 1_555 1_555
H35 C37 1_555 1_555
H36 C37 1_555 1_555
C38 C37 1_555 1_555
H37 C38 1_555 1_555
H38 C38 1_555 1_555
C39 C35 1_555 1_555
H39 C39 1_555 1_555
H40 C39 1_555 1_555
C40 N7 1_555 1_555
H41 C40 1_555 1_555
C41 N8 1_555 1_555
H42 C41 1_555 1_555
C42 C41 1_555 1_555
H43 C42 1_555 1_555
H44 C42 1_555 1_555
C43 C42 1_555 1_555
H45 C43 1_555 1_555
H46 C43 1_555 1_555
C44 C40 1_555 1_555
H47 C44 1_555 1_555
H48 C44 1_555 1_555
N9 C47 1_555 1_555
N10 C54 1_555 1_555
N11 C56 1_555 1_555
N12 C55 1_555 1_555
C45 C46 1_555 1_555
C46 H49 1_555 1_555
C47 C45 1_555 1_555
H50 C47 1_555 1_555
C48 C49 1_555 1_555
C49 H51 1_555 1_555
C50 C49 1_555 1_555
C51 C50 1_555 1_555
H52 C51 1_555 1_555
C52 C51 1_555 1_555
C53 C48 1_555 1_555
H53 C53 1_555 1_555
C54 C48 1_555 1_555
H54 C54 1_555 1_555
C55 C50 1_555 1_555
H55 C55 1_555 1_555
C56 C52 1_555 1_555
H56 C56 1_555 1_555
C57 N9 1_555 1_555
H57 C57 1_555 1_555
C58 N10 1_555 1_555
H58 C58 1_555 1_555
C59 C58 1_555 1_555
H59 C59 1_555 1_555
H60 C59 1_555 1_555
C60 C59 1_555 1_555
H61 C60 1_555 1_555
H62 C60 1_555 1_555
C61 C57 1_555 1_555
H63 C61 1_555 1_555
H64 C61 1_555 1_555
C62 N12 1_555 1_555
H65 C62 1_555 1_555
C63 C62 1_555 1_555
H66 C63 1_555 1_555
H67 C63 1_555 1_555
C64 C63 1_555 1_555
H68 C64 1_555 1_555
H69 C64 1_555 1_555
C65 N11 1_555 1_555
H70 C65 1_555 1_555
C66 C65 1_555 1_555
H71 C66 1_555 1_555
H72 C66 1_555 1_555
N1A C3A 1_555 1_555
N1B C3B 1_555 1_555
N2A C10A 1_555 1_555
N2B C10B 1_555 1_555
N3A C11A 1_555 1_555
N3B C11B 1_555 1_555
N4A C22 1_555 1_555
N4B C12B 1_555 1_555
C1A C2 1_555 1_555
C1B C2A 1_555 1_555
C2A C1A 1_555 1_555
C2B C1 1_555 1_555
H1A C2A 1_555 1_555
H1B C2B 1_555 1_555
C3A C1A 1_555 1_555
C3B C1B 1_555 1_555
H2A C3A 1_555 1_555
H2B C3B 1_555 1_555
C4A C5A 1_555 1_555
C4B C5B 1_555 1_555
C5A H3A 1_555 1_555
C5B H3B 1_555 1_555
C6A C5A 1_555 1_555
C6B C5B 1_555 1_555
C7A C6A 1_555 1_555
C7B C6B 1_555 1_555
H4A C7A 1_555 1_555
H4B C7B 1_555 1_555
C8A C7A 1_555 1_555
C8B C7B 1_555 1_555
C9A C4A 1_555 1_555
C9B C4B 1_555 1_555
H5A C9A 1_555 1_555
H5B C9B 1_555 1_555
C10A C4A 1_555 1_555
C10B C4B 1_555 1_555
H6A C10A 1_555 1_555
H6B C10B 1_555 1_555
C11A C6A 1_555 1_555
C11B C6B 1_555 1_555
H7A C11A 1_555 1_555
H7B C11B 1_555 1_555
C12A N4A 1_555 1_555
C12B C8B 1_555 1_555
H8A C12A 1_555 1_555
H8B C12B 1_555 1_555
C13A N1A 1_555 1_555
C13B N1B 1_555 1_555
H9A C13A 1_555 1_555
H9B C13B 1_555 1_555
C14A N2A 1_555 1_555
C14B N2B 1_555 1_555
H10A C14A 1_555 1_555
H10B C14B 1_555 1_555
C15A C14A 1_555 1_555
C15B C14B 1_555 1_555
H11A C15A 1_555 1_555
H11B C15B 1_555 1_555
H12A C15A 1_555 1_555
H12B C15B 1_555 1_555
C16A C15A 1_555 1_555
C16B C15B 1_555 1_555
H13A C16A 1_555 1_555
H13B C16B 1_555 1_555
H14A C16A 1_555 1_555
H14B C16B 1_555 1_555
C17A C13A 1_555 1_555
C17B C13B 1_555 1_555
H15A C17A 1_555 1_555
H15B C17B 1_555 1_555
H16A C17A 1_555 1_555
H16B C17B 1_555 1_555
C18A N3A 1_555 1_555
C18B N3B 1_555 1_555
H17A C18A 1_555 1_555
H17B C18B 1_555 1_555
C19A C18A 1_555 1_555
C19B C18B 1_555 1_555
H18A C19A 1_555 1_555
H18B C19B 1_555 1_555
H19A C19A 1_555 1_555
H19B C19B 1_555 1_555
C20A C19A 1_555 1_555
C20B C19B 1_555 1_555
H20A C20A 1_555 1_555
H20B C20B 1_555 1_555
H21A C20A 1_555 1_555
H21B C20B 1_555 1_555
C21A C20A 1_555 1_555
C21B C20B 1_555 1_555
H22A C21A 1_555 1_555
H22B C21B 1_555 1_555
H23A C21A 1_555 1_555
H23B C21B 1_555 1_555
C22A N4B 1_555 1_555
C22B N4 1_555 1_555
H24A C22A 1_555 1_555
H24B C22B 1_555 1_555
N5A C25A 1_555 1_555
N5B C25B 1_555 1_555
N6A C32A 1_555 1_555
N6B C32B 1_555 1_555
N7A C33A 1_555 1_555
N7B C33B 1_555 1_555
N8A C34A 1_555 1_555
N8B C34B 1_555 1_555
C23A C24A 1_555 1_555
C23B C24 1_555 1_555
C24A C23 1_555 1_555
C24B C23A 1_555 1_555
H25A C24A 1_555 1_555
H25B C24B 1_555 1_555
C25A C23A 1_555 1_555
C25B C23B 1_555 1_555
H26A C25A 1_555 1_555
H26B C25B 1_555 1_555
C26A C27A 1_555 1_555
C26B C27B 1_555 1_555
C27A H27A 1_555 1_555
C27B H27B 1_555 1_555
C28A C27A 1_555 1_555
C28B C34 1_555 1_555
C29A C28A 1_555 1_555
C29B C28B 1_555 1_555
H28A C29A 1_555 1_555
H28B C29B 1_555 1_555
C30A C29A 1_555 1_555
C30B C29B 1_555 1_555
C31A C26A 1_555 1_555
C31B C26B 1_555 1_555
H29A C31A 1_555 1_555
H29B C31B 1_555 1_555
C32A C26A 1_555 1_555
C32B C26B 1_555 1_555
H30A C32A 1_555 1_555
H30B C32B 1_555 1_555
C33A C30A 1_555 1_555
C33B C30B 1_555 1_555
H31A C33A 1_555 1_555
H31B C33B 1_555 1_555
C34A C28 1_555 1_555
C34B C28A 1_555 1_555
H32A C34A 1_555 1_555
H32B C34B 1_555 1_555
C35A N5A 1_555 1_555
C35B N5B 1_555 1_555
H33A C35A 1_555 1_555
H33B C35B 1_555 1_555
C36A N6A 1_555 1_555
C36B N6B 1_555 1_555
H34A C36A 1_555 1_555
H34B C36B 1_555 1_555
C37A C36A 1_555 1_555
C37B C36B 1_555 1_555
H35A C37A 1_555 1_555
H35B C37B 1_555 1_555
H36A C37A 1_555 1_555
H36B C37B 1_555 1_555
C38A C37A 1_555 1_555
C38B C37B 1_555 1_555
H37A C38A 1_555 1_555
H37B C38B 1_555 1_555
H38A C38A 1_555 1_555
H38B C38B 1_555 1_555
C39A C35A 1_555 1_555
C39B C35B 1_555 1_555
H39A C39A 1_555 1_555
H39B C39B 1_555 1_555
H40A C39A 1_555 1_555
H40B C39B 1_555 1_555
C40A N7A 1_555 1_555
C40B N7B 1_555 1_555
H41A C40A 1_555 1_555
H41B C40B 1_555 1_555
C41A N8A 1_555 1_555
C41B N8B 1_555 1_555
H42A C41A 1_555 1_555
H42B C41B 1_555 1_555
C42A C41A 1_555 1_555
C42B C41B 1_555 1_555
H43A C42A 1_555 1_555
H43B C42B 1_555 1_555
H44A C42A 1_555 1_555
H44B C42B 1_555 1_555
C43A C42A 1_555 1_555
C43B C42B 1_555 1_555
H45A C43A 1_555 1_555
H45B C43B 1_555 1_555
H46A C43A 1_555 1_555
H46B C43B 1_555 1_555
C44A C40A 1_555 1_555
C44B C40B 1_555 1_555
H47A C44A 1_555 1_555
H47B C44B 1_555 1_555
H48A C44A 1_555 1_555
H48B C44B 1_555 1_555
N9A C47A 1_555 1_555
N9B C47B 1_555 1_555
N10A C54A 1_555 1_555
N10B C54B 1_555 1_555
N11A C56A 1_555 1_555
N11B C56B 1_555 1_555
N12A C55A 1_555 1_555
N12B C55B 1_555 1_555
C45A C46A 1_555 1_555
C45B C46 1_555 1_555
C46A C45 1_555 1_555
C46B C45A 1_555 1_555
H49A C46A 1_555 1_555
H49B C46B 1_555 1_555
C47A C45A 1_555 1_555
C47B C45B 1_555 1_555
H50A C47A 1_555 1_555
H50B C47B 1_555 1_555
C48A C49A 1_555 1_555
C48B C49B 1_555 1_555
C49A H51A 1_555 1_555
C49B H51B 1_555 1_555
C50A C49A 1_555 1_555
C50B C49B 1_555 1_555
C51A C50A 1_555 1_555
C51B C50B 1_555 1_555
H52A C51A 1_555 1_555
H52B C51B 1_555 1_555
C52A C51A 1_555 1_555
C52B C51B 1_555 1_555
C53A C48A 1_555 1_555
C53B C48B 1_555 1_555
H53A C53A 1_555 1_555
H53B C53B 1_555 1_555
C54A C48A 1_555 1_555
C54B C48B 1_555 1_555
H54A C54A 1_555 1_555
H54B C54B 1_555 1_555
C55A C50A 1_555 1_555
C55B C50B 1_555 1_555
H55A C55A 1_555 1_555
H55B C55B 1_555 1_555
C56A C52A 1_555 1_555
C56B C52B 1_555 1_555
H56A C56A 1_555 1_555
H56B C56B 1_555 1_555
C57A N9A 1_555 1_555
C57B N9B 1_555 1_555
H57A C57A 1_555 1_555
H57B C57B 1_555 1_555
C58A N10A 1_555 1_555
C58B N10B 1_555 1_555
H58A C58A 1_555 1_555
H58B C58B 1_555 1_555
C59A C58A 1_555 1_555
C59B C58B 1_555 1_555
H59A C59A 1_555 1_555
H59B C59B 1_555 1_555
H60A C59A 1_555 1_555
H60B C59B 1_555 1_555
C60A C59A 1_555 1_555
C60B C59B 1_555 1_555
H61A C60A 1_555 1_555
H61B C60B 1_555 1_555
H62A C60A 1_555 1_555
H62B C60B 1_555 1_555
C61A C57A 1_555 1_555
C61B C57B 1_555 1_555
H63A C61A 1_555 1_555
H63B C61B 1_555 1_555
H64A C61A 1_555 1_555
H64B C61B 1_555 1_555
C62A N12A 1_555 1_555
C62B C65 1_555 1_555
H65A C62A 1_555 1_555
H65B C62B 1_555 1_555
C63A C62A 1_555 1_555
C63B C62B 1_555 1_555
H66A C63A 1_555 1_555
H66B C63B 1_555 1_555
H67A C63A 1_555 1_555
H67B C63B 1_555 1_555
C64A C63A 1_555 1_555
C64B C66 1_555 1_555
H68A C64A 1_555 1_555
H68B C64B 1_555 1_555
H69A C64A 1_555 1_555
H69B C64B 1_555 1_555
C65A C62 1_555 1_555
C65B N11B 1_555 1_555
H70A C65A 1_555 1_555
H70B C65B 1_555 1_555
C66A C64 1_555 1_555
C66B C64A 1_555 1_555
H71A C66A 1_555 1_555
H71B C66B 1_555 1_555
H72A C66A 1_555 1_555
H72B C66B 1_555 1_555
C8 C9 1_555 1_555
C13 C14 1_555 1_555
C16 C17 1_555 1_555
C21 C22 1_555 1_555
C30 C31 1_555 1_555
C35 C36 1_555 1_555
C38 C39 1_555 1_555
C40 C41 1_555 1_555
C43 C44 1_555 1_555
C52 C53 1_555 1_555
C57 C58 1_555 1_555
C60 C61 1_555 1_555
C1B C2B 1_555 1_555
C8A C9A 1_555 1_555
C8A C12A 1_555 1_555
C8B C9B 1_555 1_555
C13A C14A 1_555 1_555
C13B C14B 1_555 1_555
C16A C17A 1_555 1_555
C16B C17B 1_555 1_555
C18A C22A 1_555 1_555
C18B C22B 1_555 1_555
C21A C22A 1_555 1_555
C21B C22B 1_555 1_555
C23B C24B 1_555 1_555
C27B C28B 1_555 1_555
C30A C31A 1_555 1_555
C30B C31B 1_555 1_555
C35A C36A 1_555 1_555
C35B C36B 1_555 1_555
C38A C39A 1_555 1_555
C38B C39B 1_555 1_555
C40A C41A 1_555 1_555
C40B C41B 1_555 1_555
C43A C44A 1_555 1_555
C43B C44B 1_555 1_555
N11A C65A 1_555 1_555
N12B C62B 1_555 1_555
C45B C46B 1_555 1_555
C52A C53A 1_555 1_555
C52B C53B 1_555 1_555
C57A C58A 1_555 1_555
C57B C58B 1_555 1_555
C60A C61A 1_555 1_555
C60B C61B 1_555 1_555
C62A C65B 1_555 1_555
C63B C64B 1_555 1_555
C65A C66A 1_555 1_555
C65B C66B 1_555 1_555

#END
