
#######################################################################
#
#                 Cambridge Crystallographic Data Centre
#                                CCDC 
#
#######################################################################
#
# If this CIF has been generated from an entry in the Cambridge 
# Structural Database, then it will include bibliographic, chemical, 
# crystal, experimental, refinement or atomic coordinate data resulting 
# from the CCDC's data processing and validation procedures.
#
#######################################################################

data_OZECAZ
_chemical_formula_moiety         'C14 H15 F1 O3 S1'
_chemical_name_systematic        
'ethyl 3-(1-benzothiophen-2-yl)-2-fluoro-3-hydroxy-2-methylpropanoate'
_symmetry_cell_setting           monoclinic
_symmetry_space_group_name_H-M   'P 21/c'
_symmetry_Int_Tables_number      14
_space_group_name_Hall           '-P 2ybc'
loop_
_symmetry_equiv_pos_site_id
_symmetry_equiv_pos_as_xyz
1 x,y,z
2 -x,1/2+y,1/2-z
3 -x,-y,-z
4 x,1/2-y,1/2+z
_cell_length_a                   14.247(2)
_cell_length_b                   8.8251(14)
_cell_length_c                   10.8011(17)
_cell_angle_alpha                90
_cell_angle_beta                 91.563(4)
_cell_angle_gamma                90
_cell_volume                     1357.53
_exptl_crystal_colour            colorless
_exptl_crystal_description       prismatic
_cell_formula_units_Z            4
loop_
_atom_site_label
_atom_site_type_symbol
_atom_site_fract_x
_atom_site_fract_y
_atom_site_fract_z
S1 S 0.74307(5) 0.07791(8) 0.77531(6)
F1 F 0.92877(10) 0.22447(15) 0.79761(11)
O1 O 0.91322(14) 0.0759(2) 0.57516(17)
H1 H 0.9021 0.0446 0.5048
O2 O 0.84657(14) 0.4869(2) 0.82578(15)
O3 O 0.84290(14) 0.53129(19) 0.62272(15)
C1 C 0.62318(19) 0.0739(3) 0.7439(3)
C2 C 0.5541(2) 0.0137(4) 0.8190(3)
H2 H 0.5701 -0.0295 0.8952
C3 C 0.4618(2) 0.0197(4) 0.7779(4)
H3 H 0.4152 -0.0203 0.8269
C4 C 0.4375(2) 0.0840(4) 0.6657(4)
H4 H 0.3747 0.0868 0.6399
C5 C 0.5043(2) 0.1440(4) 0.5911(3)
H5 H 0.4872 0.1865 0.5150
C6 C 0.59920(18) 0.1409(3) 0.6308(2)
C7 C 0.68124(18) 0.1957(3) 0.5681(2)
H6 H 0.6789 0.2423 0.4909
C8 C 0.76271(17) 0.1708(2) 0.63584(19)
C9 C 0.85978(16) 0.2088(3) 0.59582(19)
H7 H 0.8542 0.2642 0.5173
C10 C 0.91620(16) 0.3072(3) 0.68791(18)
C11 C 1.01308(18) 0.3451(3) 0.6417(3)
H8 H 1.0070 0.3991 0.5647
H9 H 1.0476 0.2532 0.6293
H10 H 1.0459 0.4070 0.7018
C12 C 0.86433(17) 0.4501(3) 0.7231(2)
C13 C 0.8006(3) 0.6806(3) 0.6424(3)
H11 H 0.7591 0.6756 0.7120
H12 H 0.8496 0.7536 0.6621
C14 C 0.7489(2) 0.7289(4) 0.5350(3)
H13 H 0.7895 0.7307 0.4654
H14 H 0.7245 0.8288 0.5485
H15 H 0.6980 0.6601 0.5185
loop_
_geom_bond_atom_site_label_1
_geom_bond_atom_site_label_2
_geom_bond_site_symmetry_1
_geom_bond_site_symmetry_2
S1 C1 1_555 1_555
F1 C10 1_555 1_555
O1 H1 1_555 1_555
O2 C12 1_555 1_555
O3 C12 1_555 1_555
C1 C2 1_555 1_555
C2 H2 1_555 1_555
C3 C2 1_555 1_555
H3 C3 1_555 1_555
C4 C3 1_555 1_555
H4 C4 1_555 1_555
C5 C4 1_555 1_555
H5 C5 1_555 1_555
C6 C1 1_555 1_555
C7 C6 1_555 1_555
H6 C7 1_555 1_555
C8 S1 1_555 1_555
C9 O1 1_555 1_555
H7 C9 1_555 1_555
C10 C9 1_555 1_555
C11 C10 1_555 1_555
H8 C11 1_555 1_555
H9 C11 1_555 1_555
H10 C11 1_555 1_555
C12 C10 1_555 1_555
C13 O3 1_555 1_555
H11 C13 1_555 1_555
H12 C13 1_555 1_555
C14 C13 1_555 1_555
H13 C14 1_555 1_555
H14 C14 1_555 1_555
H15 C14 1_555 1_555
C5 C6 1_555 1_555
C7 C8 1_555 1_555
C8 C9 1_555 1_555

#END
