
#######################################################################
#
#                 Cambridge Crystallographic Data Centre
#                                CCDC 
#
#######################################################################
#
# If this CIF has been generated from an entry in the Cambridge 
# Structural Database, then it will include bibliographic, chemical, 
# crystal, experimental, refinement or atomic coordinate data resulting 
# from the CCDC's data processing and validation procedures.
#
#######################################################################

data_OZEGUW
_chemical_formula_moiety         'C19 H10 Br1 N5 O3,2(C4 H8 O1)'
_chemical_name_systematic        
"3'-Amino-5-bromo-2,5',10'-trioxo-1,2,5',10'-tetrahydrospiro[indole-3,1'-pyrazolo[1,2-b]phthalazine]-2'-carbonitrile tetrahydrofuran solvate"
_symmetry_cell_setting           triclinic
_symmetry_space_group_name_H-M   'P -1'
_symmetry_Int_Tables_number      2
_space_group_name_Hall           '-P 1'
loop_
_symmetry_equiv_pos_site_id
_symmetry_equiv_pos_as_xyz
1 x,y,z
2 -x,-y,-z
_cell_length_a                   9.254(2)
_cell_length_b                   10.943(3)
_cell_length_c                   13.240(3)
_cell_angle_alpha                86.791(4)
_cell_angle_beta                 89.431(4)
_cell_angle_gamma                77.753(3)
_cell_volume                     1308.2
_exptl_crystal_colour            colorless
_exptl_crystal_description       block
_cell_formula_units_Z            2
loop_
_atom_site_label
_atom_site_type_symbol
_atom_site_fract_x
_atom_site_fract_y
_atom_site_fract_z
Br1 Br 1.25338(5) -0.01540(5) 0.21718(4)
N1 N 0.6428(3) 0.2667(2) 0.28962(17)
O1 O 0.7169(3) 0.2652(2) 0.44906(17)
O2 O 0.4498(3) 0.1176(2) 0.39777(17)
N2 N 0.6768(3) -0.0124(2) 0.4280(2)
H1 H 0.6540 -0.0578 0.4783
C1 C 0.5922(4) 0.0083(3) 0.1409(2)
N3 N 0.5747(3) 0.3279(2) 0.20064(18)
C2 C 0.6673(4) 0.3269(3) 0.3727(2)
C3 C 0.5967(3) 0.1212(3) 0.1853(2)
C4 C 0.8191(4) 0.0581(3) 0.3062(2)
C5 C 0.5486(4) 0.2359(3) 0.1381(2)
C6 C 0.5789(4) 0.0800(3) 0.3785(2)
C7 C 0.8199(4) -0.0260(3) 0.3884(2)
C8 C 0.9468(4) 0.0638(3) 0.2542(3)
H2 H 0.9470 0.1196 0.1986
C9 C 1.0751(4) -0.0171(4) 0.2880(3)
C10 C 0.6637(3) 0.1306(3) 0.2874(2)
C11 C 0.5744(4) 0.5246(3) 0.2706(3)
C12 C 0.6316(4) 0.4637(3) 0.3606(2)
O3 O 0.4851(4) 0.5041(2) 0.1061(2)
N4 N 0.5849(4) -0.0817(3) 0.1036(2)
N5 N 0.4862(4) 0.2690(3) 0.0482(2)
H3 H 0.4705 0.2126 0.0095
H4 H 0.4614 0.3469 0.0286
C13 C 0.5410(5) 0.4555(3) 0.1855(2)
C14 C 0.9491(5) -0.1056(3) 0.4220(3)
H5 H 0.9491 -0.1609 0.4779
C15 C 1.0771(5) -0.1008(4) 0.3706(3)
H6 H 1.1654 -0.1538 0.3911
C16 C 0.6204(5) 0.6619(4) 0.4315(3)
H7 H 0.6344 0.7086 0.4857
C17 C 0.6546(5) 0.5323(3) 0.4415(3)
H8 H 0.6927 0.4917 0.5021
C18 C 0.5412(6) 0.6547(3) 0.2621(3)
H9 H 0.5020 0.6963 0.2022
C19 C 0.5660(6) 0.7211(4) 0.3419(4)
H10 H 0.5457 0.8082 0.3352
O4 O 0.2672(6) 0.4395(5) 0.3109(4)
C20 C 0.1709(10) 0.5548(7) 0.2978(6)
H11 H 0.1688 0.5852 0.2275
H12 H 0.2014 0.6155 0.3390
C21 C 0.1873(9) 0.3540(7) 0.2861(7)
H13 H 0.2303 0.2725 0.3177
H14 H 0.1880 0.3469 0.2134
C23 C 0.0240(11) 0.5350(9) 0.3295(8)
H17 H -0.0525 0.5834 0.2852
H18 H 0.0028 0.5593 0.3984
C25 C 0.0327(11) 0.3968(9) 0.3221(10)
H21 H 0.0172 0.3568 0.3874
H22 H -0.0385 0.3810 0.2739
O5 O 0.1441(11) 0.7181(9) -0.0568(6)
C22 C -0.0166(10) 0.8070(9) 0.0665(8)
H15 H -0.0178 0.8016 0.1399
H16 H -0.0753 0.8874 0.0423
C24 C 0.1338(11) 0.7882(10) 0.0278(7)
H19 H 0.1586 0.8685 0.0101
H20 H 0.2027 0.7447 0.0793
C26 C -0.0695(14) 0.7041(15) 0.0253(11)
H23 H -0.1518 0.7343 -0.0208
H24 H -0.0991 0.6500 0.0786
C27 C 0.065(2) 0.6383(11) -0.0293(10)
H25 H 0.1228 0.5724 0.0149
H26 H 0.0362 0.6005 -0.0882
loop_
_geom_bond_atom_site_label_1
_geom_bond_atom_site_label_2
_geom_bond_site_symmetry_1
_geom_bond_site_symmetry_2
Br1 C9 1_555 1_555
N1 N3 1_555 1_555
O1 C2 1_555 1_555
O2 C6 1_555 1_555
N2 H1 1_555 1_555
C1 C3 1_555 1_555
N3 C5 1_555 1_555
C2 N1 1_555 1_555
C3 C5 1_555 1_555
C4 C7 1_555 1_555
C5 N5 1_555 1_555
C6 N2 1_555 1_555
C7 N2 1_555 1_555
C8 C4 1_555 1_555
H2 C8 1_555 1_555
C9 C8 1_555 1_555
C10 N1 1_555 1_555
C11 C12 1_555 1_555
C12 C2 1_555 1_555
O3 C13 1_555 1_555
N4 C1 1_555 1_555
N5 H3 1_555 1_555
H4 N5 1_555 1_555
C13 N3 1_555 1_555
C14 C7 1_555 1_555
H5 C14 1_555 1_555
C15 C9 1_555 1_555
H6 C15 1_555 1_555
C16 H7 1_555 1_555
C17 C12 1_555 1_555
H8 C17 1_555 1_555
C18 C11 1_555 1_555
H9 C18 1_555 1_555
C19 C16 1_555 1_555
H10 C19 1_555 1_555
O4 C20 1_555 1_555
C20 H11 1_555 1_555
H12 C20 1_555 1_555
O5 C24 1_555 1_555
C21 O4 1_555 1_555
H13 C21 1_555 1_555
H14 C21 1_555 1_555
C22 H15 1_555 1_555
H16 C22 1_555 1_555
C23 C20 1_555 1_555
H17 C23 1_555 1_555
H18 C23 1_555 1_555
C24 C22 1_555 1_555
H19 C24 1_555 1_555
H20 C24 1_555 1_555
C25 C21 1_555 1_555
H21 C25 1_555 1_555
H22 C25 1_555 1_555
C26 C22 1_555 1_555
H23 C26 1_555 1_555
H24 C26 1_555 1_555
C27 O5 1_555 1_555
H25 C27 1_555 1_555
H26 C27 1_555 1_555
C3 C10 1_555 1_555
C4 C10 1_555 1_555
C6 C10 1_555 1_555
C11 C13 1_555 1_555
C14 C15 1_555 1_555
C16 C17 1_555 1_555
C18 C19 1_555 1_555
C23 C25 1_555 1_555
C26 C27 1_555 1_555

#END
