
#######################################################################
#
#                 Cambridge Crystallographic Data Centre
#                                CCDC 
#
#######################################################################
#
# If this CIF has been generated from an entry in the Cambridge 
# Structural Database, then it will include bibliographic, chemical, 
# crystal, experimental, refinement or atomic coordinate data resulting 
# from the CCDC's data processing and validation procedures.
#
#######################################################################

data_OZEHIM
_chemical_formula_moiety         'C25 H18 O3,C2 H6 O1 S1'
_chemical_name_systematic        
'1-(3-(9-hydroxy-9H-xanthen-9-yl)-1-naphthyl)ethanone dimethyl sulfoxide solvate'
_symmetry_cell_setting           triclinic
_symmetry_space_group_name_H-M   'P -1'
_symmetry_Int_Tables_number      2
_space_group_name_Hall           '-P 1'
loop_
_symmetry_equiv_pos_site_id
_symmetry_equiv_pos_as_xyz
1 x,y,z
2 -x,-y,-z
_cell_length_a                   8.4601(7)
_cell_length_b                   11.2988(10)
_cell_length_c                   11.9186(10)
_cell_angle_alpha                81.412(2)
_cell_angle_beta                 86.0250(10)
_cell_angle_gamma                76.260(2)
_cell_volume                     1093.6
_exptl_crystal_colour            colorless
_exptl_crystal_description       block
_cell_formula_units_Z            2
_exptl_crystal_recrystallization_method 'dimethyl sulfoxide'
loop_
_atom_site_label
_atom_site_type_symbol
_atom_site_fract_x
_atom_site_fract_y
_atom_site_fract_z
O1 O 0.29596(18) 1.16709(10) 1.02333(12)
O2 O 0.26280(10) 0.80683(8) 0.59716(7)
H1 H 0.3283 0.7590 0.5588
O3 O 0.60172(11) 0.59469(8) 0.77446(8)
C1 C 0.31180(19) 0.96162(15) 1.10590(12)
H2 H 0.4052 0.8997 1.0820
H3 H 0.2173 0.9250 1.1226
H4 H 0.3382 0.9908 1.1741
C2 C 0.27303(16) 1.06771(12) 1.01255(11)
C3 C 0.20932(14) 1.04667(11) 0.90470(10)
C4 C 0.08638(14) 1.13903(10) 0.84404(10)
C5 C 0.00365(15) 1.24841(12) 0.88677(11)
H5 H 0.0289 1.2629 0.9592
C6 C -0.11269(16) 1.33385(12) 0.82458(13)
H6 H -0.1671 1.4067 0.8546
C7 C -0.15232(16) 1.31478(12) 0.71715(12)
H7 H -0.2310 1.3755 0.6741
C8 C -0.07722(15) 1.20833(12) 0.67436(11)
H8 H -0.1058 1.1950 0.6023
C9 C 0.04285(14) 1.11795(10) 0.73699(10)
C10 C 0.12123(13) 1.00786(10) 0.69306(10)
H9 H 0.0918 0.9944 0.6213
C11 C 0.23856(13) 0.92064(10) 0.75215(9)
C12 C 0.28020(14) 0.94059(11) 0.85977(10)
H10 H 0.3591 0.8791 0.9019
C13 C 0.33119(13) 0.80502(10) 0.70444(9)
C14 C 0.31265(14) 0.69003(10) 0.78289(9)
C15 C 0.15840(15) 0.67607(11) 0.82419(10)
H11 H 0.0666 0.7424 0.8082
C16 C 0.13630(16) 0.56793(12) 0.88780(11)
H12 H 0.0301 0.5597 0.9135
C17 C 0.27093(17) 0.47094(12) 0.91398(11)
H13 H 0.2567 0.3967 0.9580
C18 C 0.42483(17) 0.48313(11) 0.87573(11)
H14 H 0.5169 0.4176 0.8939
C19 C 0.44448(14) 0.59245(11) 0.81005(10)
C20 C 0.63206(14) 0.70215(11) 0.71638(10)
C21 C 0.79528(15) 0.69982(13) 0.68843(12)
H15 H 0.8766 0.6272 0.7091
C22 C 0.83861(15) 0.80358(13) 0.63044(11)
H16 H 0.9497 0.8022 0.6107
C23 C 0.71862(16) 0.91028(13) 0.60105(11)
H17 H 0.7476 0.9823 0.5623
C24 C 0.55703(15) 0.91021(11) 0.62888(10)
H18 H 0.4757 0.9829 0.6083
C25 C 0.51031(13) 0.80621(10) 0.68632(9)
S1 S 0.56299(4) 0.61333(3) 0.38875(3)
O4 O 0.48211(13) 0.63479(9) 0.50238(9)
C26 C 0.5934(2) 0.75955(16) 0.32473(18)
H19 H 0.4876 0.8170 0.3117
H20 H 0.6539 0.7510 0.2521
H21 H 0.6555 0.7910 0.3752
C27 C 0.77069(18) 0.54110(16) 0.41344(15)
H22 H 0.8156 0.5879 0.4611
H23 H 0.8323 0.5385 0.3408
H24 H 0.7788 0.4571 0.4521
loop_
_geom_bond_atom_site_label_1
_geom_bond_atom_site_label_2
_geom_bond_site_symmetry_1
_geom_bond_site_symmetry_2
O1 C2 1_555 1_555
O2 H1 1_555 1_555
O3 C19 1_555 1_555
C1 H2 1_555 1_555
H3 C1 1_555 1_555
H4 C1 1_555 1_555
C2 C1 1_555 1_555
C3 C2 1_555 1_555
C4 C3 1_555 1_555
C5 C4 1_555 1_555
H5 C5 1_555 1_555
C6 C5 1_555 1_555
H6 C6 1_555 1_555
C7 C6 1_555 1_555
H7 C7 1_555 1_555
C8 C7 1_555 1_555
H8 C8 1_555 1_555
C9 C4 1_555 1_555
C10 C9 1_555 1_555
H9 C10 1_555 1_555
C11 C10 1_555 1_555
C12 C3 1_555 1_555
H10 C12 1_555 1_555
C13 O2 1_555 1_555
C14 C13 1_555 1_555
C15 C14 1_555 1_555
H11 C15 1_555 1_555
C16 C15 1_555 1_555
H12 C16 1_555 1_555
C17 C16 1_555 1_555
H13 C17 1_555 1_555
C18 C17 1_555 1_555
H14 C18 1_555 1_555
C19 C14 1_555 1_555
C20 O3 1_555 1_555
C21 C20 1_555 1_555
H15 C21 1_555 1_555
C22 C21 1_555 1_555
H16 C22 1_555 1_555
C23 C22 1_555 1_555
H17 C23 1_555 1_555
C24 C23 1_555 1_555
H18 C24 1_555 1_555
C25 C13 1_555 1_555
S1 O4 1_555 1_555
C26 S1 1_555 1_555
H19 C26 1_555 1_555
H20 C26 1_555 1_555
H21 C26 1_555 1_555
C27 S1 1_555 1_555
H22 C27 1_555 1_555
H23 C27 1_555 1_555
H24 C27 1_555 1_555
C8 C9 1_555 1_555
C11 C12 1_555 1_555
C11 C13 1_555 1_555
C18 C19 1_555 1_555
C20 C25 1_555 1_555
C24 C25 1_555 1_555

#END
