
#######################################################################
#
#                 Cambridge Crystallographic Data Centre
#                                CCDC 
#
#######################################################################
#
# If this CIF has been generated from an entry in the Cambridge 
# Structural Database, then it will include bibliographic, chemical, 
# crystal, experimental, refinement or atomic coordinate data resulting 
# from the CCDC's data processing and validation procedures.
#
#######################################################################

data_OZEJIO
_chemical_formula_moiety         'C44 H25 F6 N3 O4 S1,0.5(C6 H14)'
_chemical_name_systematic        
'10-(10-(3,5-bis(trifluoromethyl)phenyl)-5,5-dioxido-7-(10H-phenoxazin-10-yl)-10H-phenothiazin-3-yl)-10H-phenoxazine n-hexane solvate'
_symmetry_cell_setting           monoclinic
_symmetry_space_group_name_H-M   'P 2/c'
_symmetry_Int_Tables_number      13
_space_group_name_Hall           '-P 2yc'
loop_
_symmetry_equiv_pos_site_id
_symmetry_equiv_pos_as_xyz
1 x,y,z
2 -x,y,1/2-z
3 -x,-y,-z
4 x,-y,1/2+z
_cell_length_a                   19.500(5)
_cell_length_b                   8.334(2)
_cell_length_c                   23.765(6)
_cell_angle_alpha                90
_cell_angle_beta                 93.001(4)
_cell_angle_gamma                90
_cell_volume                     3856.83
_exptl_crystal_colour            green
_exptl_crystal_description       Prism
_cell_formula_units_Z            4
loop_
_atom_site_label
_atom_site_type_symbol
_atom_site_fract_x
_atom_site_fract_y
_atom_site_fract_z
S1 S 0.13979(3) 0.48941(8) 0.26720(3)
F1 F 0.4437(5) 0.3125(17) 0.1181(5)
F2 F 0.5089(7) 0.2997(18) 0.1962(4)
F3 F 0.5101(8) 0.1139(12) 0.1312(8)
F4 F 0.3816(9) -0.3749(12) 0.1998(5)
F5 F 0.4313(5) -0.3119(16) 0.2803(7)
F6 F 0.3236(4) -0.3379(12) 0.2789(6)
O1 O 0.07655(9) 0.5116(3) 0.29380(8)
O2 O 0.16822(10) 0.6247(2) 0.23954(8)
O3 O 0.27402(15) 0.7040(3) 0.56150(10)
O4 O -0.08964(12) 0.1137(3) 0.01868(11)
N1 N 0.26645(13) 0.5408(3) 0.45916(9)
N2 N 0.24781(10) 0.2306(3) 0.24725(8)
N3 N 0.00920(11) 0.2098(3) 0.10213(10)
C1 C 0.01646(13) 0.2495(4) 0.04513(12)
C2 C 0.07027(15) 0.3407(4) 0.02709(13)
H1 H 0.1042 0.3752 0.0533
C3 C 0.07483(17) 0.3818(5) -0.02894(14)
H2 H 0.1112 0.4449 -0.0398
C4 C 0.02684(19) 0.3310(5) -0.06821(15)
H3 H 0.0308 0.3559 -0.1061
C5 C -0.02782(19) 0.2419(4) -0.05127(15)
H4 H -0.0616 0.2086 -0.0778
C6 C -0.03303(15) 0.2015(4) 0.00454(14)
C7 C -0.09644(14) 0.0740(4) 0.07477(14)
C8 C -0.15342(16) -0.0141(4) 0.08762(18)
H5 H -0.1864 -0.0392 0.0593
C9 C -0.16197(18) -0.0651(4) 0.14176(18)
H6 H -0.2005 -0.1245 0.1502
C10 C -0.1137(2) -0.0278(5) 0.18290(17)
H7 H -0.1189 -0.0630 0.2196
C11 C -0.05637(17) 0.0627(4) 0.17047(14)
H8 H -0.0237 0.0874 0.1991
C12 C -0.04730(13) 0.1162(3) 0.11653(13)
C13 C 0.06879(13) 0.2171(4) 0.14001(11)
C14 C 0.12429(14) 0.1167(4) 0.13133(12)
H9 H 0.1218 0.0453 0.1012
C15 C 0.18238(13) 0.1206(3) 0.16609(12)
H10 H 0.2185 0.0513 0.1595
C16 C 0.18825(12) 0.2279(3) 0.21155(10)
C17 C 0.13285(12) 0.3313(3) 0.21889(10)
C18 C 0.07362(12) 0.3253(3) 0.18367(11)
H11 H 0.0373 0.3945 0.1897
C19 C 0.25197(12) 0.3075(3) 0.30003(10)
C20 C 0.30709(14) 0.2777(4) 0.33869(11)
H12 H 0.3413 0.2061 0.3294
C21 C 0.31129(15) 0.3531(4) 0.39024(12)
H13 H 0.3487 0.3324 0.4151
C22 C 0.26108(14) 0.4589(4) 0.40589(11)
C23 C 0.20634(13) 0.4897(3) 0.36848(10)
H14 H 0.1719 0.5596 0.3785
C24 C 0.20235(12) 0.4173(3) 0.31601(10)
C25 C 0.25346(14) 0.4584(4) 0.50913(11)
C26 C 0.23544(17) 0.3004(4) 0.51070(13)
H15 H 0.2323 0.2414 0.4774
C27 C 0.2217(2) 0.2263(5) 0.56117(14)
H16 H 0.2101 0.1181 0.5615
C28 C 0.2251(2) 0.3111(5) 0.61030(14)
H17 H 0.2151 0.2617 0.6440
C29 C 0.24346(18) 0.4699(5) 0.60955(13)
H18 H 0.2463 0.5283 0.6429
C30 C 0.25758(15) 0.5424(4) 0.56014(12)
C31 C 0.30422(19) 0.7661(4) 0.51541(15)
C32 C 0.3381(3) 0.9095(5) 0.5217(2)
H19 H 0.3410 0.9602 0.5566
C33 C 0.3678(3) 0.9785(6) 0.4764(3)
H20 H 0.3908 1.0758 0.4807
C34 C 0.3637(3) 0.9045(6) 0.4249(2)
H21 H 0.3830 0.9526 0.3942
C35 C 0.3309(2) 0.7581(5) 0.41870(16)
H22 H 0.3292 0.7069 0.3839
C36 C 0.30073(16) 0.6876(4) 0.46335(13)
C37 C 0.30605(12) 0.1373(3) 0.23164(10)
C38 C 0.35691(13) 0.2129(3) 0.20311(11)
H23 H 0.3530 0.3209 0.1937
C39 C 0.41405(13) 0.1249(3) 0.18865(12)
C40 C 0.41971(14) -0.0360(3) 0.20244(12)
H24 H 0.4579 -0.0944 0.1927
C41 C 0.36836(13) -0.1092(3) 0.23073(12)
C42 C 0.31138(13) -0.0233(3) 0.24570(11)
H25 H 0.2770 -0.0731 0.2650
C43 C 0.37611(17) -0.2818(4) 0.24678(17)
C44 C 0.46971(17) 0.2068(4) 0.15907(16)
C45 C 0.5062(6) 0.5667(13) 0.0212(4)
C46 C 0.4387(6) 0.6088(14) 0.0333(5)
C47 C 0.4423(7) 0.7278(16) 0.0836(5)
C45B C 0.4938(6) 0.4333(13) -0.0212(4)
C46B C 0.5613(6) 0.3912(14) -0.0333(5)
C47B C 0.5577(7) 0.2722(16) -0.0836(5)
F7? F 0.4764(7) 0.1317(19) 0.1075(4)
F8? F 0.4576(8) 0.207(2) 0.1031(4)
F9? F 0.4584(8) 0.3566(12) 0.1473(9)
F10? F 0.4852(7) 0.3553(11) 0.1797(7)
F11? F 0.5319(5) 0.182(2) 0.1852(6)
F12? F 0.5294(4) 0.1190(14) 0.1676(6)
F13? F 0.4432(6) -0.332(3) 0.2446(11)
F14? F 0.4142(7) -0.3642(13) 0.2136(6)
F15? F 0.361(2) -0.305(4) 0.3030(7)
F16? F 0.4143(7) -0.2851(18) 0.2981(5)
F17? F 0.3314(11) -0.372(2) 0.2113(8)
F18? F 0.3202(4) -0.3583(10) 0.2507(7)
loop_
_geom_bond_atom_site_label_1
_geom_bond_atom_site_label_2
_geom_bond_site_symmetry_1
_geom_bond_site_symmetry_2
S1 O1 1_555 1_555
F1 C44 1_555 1_555
F2 C44 1_555 1_555
F3 C44 1_555 1_555
F4 C43 1_555 1_555
F5 C43 1_555 1_555
F6 C43 1_555 1_555
O2 S1 1_555 1_555
O3 C30 1_555 1_555
O4 C6 1_555 1_555
N1 C22 1_555 1_555
N2 C16 1_555 1_555
N3 C1 1_555 1_555
C1 C2 1_555 1_555
C2 H1 1_555 1_555
C3 C2 1_555 1_555
H2 C3 1_555 1_555
C4 C3 1_555 1_555
H3 C4 1_555 1_555
C5 C4 1_555 1_555
H4 C5 1_555 1_555
C6 C1 1_555 1_555
C7 O4 1_555 1_555
C8 C7 1_555 1_555
H5 C8 1_555 1_555
C9 C8 1_555 1_555
H6 C9 1_555 1_555
C10 C9 1_555 1_555
H7 C10 1_555 1_555
C11 C10 1_555 1_555
H8 C11 1_555 1_555
C12 N3 1_555 1_555
C13 N3 1_555 1_555
C14 C13 1_555 1_555
H9 C14 1_555 1_555
C15 C14 1_555 1_555
H10 C15 1_555 1_555
C16 C15 1_555 1_555
C17 S1 1_555 1_555
C18 C13 1_555 1_555
H11 C18 1_555 1_555
C19 N2 1_555 1_555
C20 C19 1_555 1_555
H12 C20 1_555 1_555
C21 C20 1_555 1_555
H13 C21 1_555 1_555
C22 C21 1_555 1_555
C23 C22 1_555 1_555
H14 C23 1_555 1_555
C24 S1 1_555 1_555
C25 N1 1_555 1_555
C26 C25 1_555 1_555
H15 C26 1_555 1_555
C27 C26 1_555 1_555
H16 C27 1_555 1_555
C28 C27 1_555 1_555
H17 C28 1_555 1_555
C29 C28 1_555 1_555
H18 C29 1_555 1_555
C30 C25 1_555 1_555
C31 O3 1_555 1_555
C32 C31 1_555 1_555
H19 C32 1_555 1_555
C33 C32 1_555 1_555
H20 C33 1_555 1_555
C34 C33 1_555 1_555
H21 C34 1_555 1_555
C35 C34 1_555 1_555
H22 C35 1_555 1_555
C36 N1 1_555 1_555
C37 N2 1_555 1_555
C38 C37 1_555 1_555
H23 C38 1_555 1_555
C39 C38 1_555 1_555
C40 C39 1_555 1_555
H24 C40 1_555 1_555
C41 C40 1_555 1_555
C42 C37 1_555 1_555
H25 C42 1_555 1_555
C43 C41 1_555 1_555
C44 C39 1_555 1_555
C45 C46 1_555 1_555
C46 C47 1_555 1_555
C45B C45 1_555 1_555
C46B C45B 1_555 1_555
C47B C46B 1_555 1_555
C5 C6 1_555 1_555
C7 C12 1_555 1_555
C11 C12 1_555 1_555
C16 C17 1_555 1_555
C17 C18 1_555 1_555
C19 C24 1_555 1_555
C23 C24 1_555 1_555
C29 C30 1_555 1_555
C31 C36 1_555 1_555
C35 C36 1_555 1_555
C41 C42 1_555 1_555

#END
