
#######################################################################
#
#                 Cambridge Crystallographic Data Centre
#                                CCDC 
#
#######################################################################
#
# If this CIF has been generated from an entry in the Cambridge 
# Structural Database, then it will include bibliographic, chemical, 
# crystal, experimental, refinement or atomic coordinate data resulting 
# from the CCDC's data processing and validation procedures.
#
#######################################################################

data_OZEKOU
_chemical_formula_moiety         'C27 H30 O9 S3,2(C1 H2 Cl2)'
_chemical_name_systematic        
'2,7,12-Trimethoxy-3,8,13-tris(methylsulfonyl)-10,15-dihydro-5H-tribenzo[a,d,g][9]annulene dichloromethane solvate'
_symmetry_cell_setting           monoclinic
_symmetry_space_group_name_H-M   'P 21/c'
_symmetry_Int_Tables_number      14
_space_group_name_Hall           '-P 2ybc'
loop_
_symmetry_equiv_pos_site_id
_symmetry_equiv_pos_as_xyz
1 x,y,z
2 -x,1/2+y,1/2-z
3 -x,-y,-z
4 x,1/2-y,1/2+z
_cell_length_a                   16.8059(4)
_cell_length_b                   12.0718(2)
_cell_length_c                   21.4038(5)
_cell_angle_alpha                90
_cell_angle_beta                 127.012(3)
_cell_angle_gamma                90
_cell_volume                     3467.41
_exptl_crystal_colour            colorless
_exptl_crystal_description       plate
_cell_formula_units_Z            4
loop_
_atom_site_label
_atom_site_type_symbol
_atom_site_fract_x
_atom_site_fract_y
_atom_site_fract_z
S1 S 0.15491(3) 0.70386(4) 0.20042(3)
S2 S 0.44198(4) 0.16044(5) 0.12177(3)
S3 S 0.20654(4) 0.03347(4) 0.36866(3)
O1 O 0.13584(11) 0.80138(13) 0.15393(9)
O2 O 0.09604(12) 0.68809(14) 0.22838(10)
O3 O 0.16302(14) 0.02802(16) 0.40952(10)
O4 O 0.52260(12) 0.14687(16) 0.20359(10)
O5 O 0.12607(12) 0.26039(13) 0.35734(9)
O6 O 0.38957(12) -0.02583(14) 0.17785(10)
O7 O 0.25738(11) 0.64795(14) 0.12856(9)
O8 O 0.22254(16) -0.06980(15) 0.34390(10)
O9 O 0.43547(13) 0.26430(16) 0.08585(12)
C1 C 0.11523(14) 0.07944(17) 0.21628(12)
H1 H 0.1377 0.0075 0.2156
C2 C 0.22246(15) 0.03462(17) 0.12566(12)
H2 H 0.2114 -0.0286 0.1459
C3 C 0.32789(15) 0.13950(18) 0.10657(12)
C4 C 0.02874(13) 0.24762(17) 0.14962(11)
C5 C 0.08418(15) 0.29647(17) 0.00579(11)
H3 H 0.0171 0.2655 -0.0179
H4 H 0.0864 0.3212 -0.0373
C6 C 0.14688(14) 0.11379(17) 0.08370(11)
C7 C 0.06348(14) 0.14287(17) 0.14789(11)
C8 C 0.10096(14) 0.39546(17) 0.05617(11)
C9 C 0.13918(14) 0.58410(17) 0.14615(11)
C10 C -0.02359(14) 0.32720(17) 0.08048(11)
H5 H -0.0771 0.3670 0.0778
H6 H -0.0545 0.2850 0.0313
C11 C 0.17034(14) 0.47453(18) 0.06917(11)
H7 H 0.2041 0.4637 0.0466
C12 C 0.05065(14) 0.41052(17) 0.08914(11)
C13 C 0.04601(14) 0.28554(17) 0.21859(12)
H8 H 0.0195 0.3552 0.2184
C14 C 0.25245(15) 0.21684(17) 0.06388(11)
H9 H 0.2628 0.2785 0.0420
C15 C 0.31322(15) 0.04662(18) 0.13821(12)
C16 C 0.10086(15) 0.22433(17) 0.28745(12)
C17 C 0.07064(14) 0.50593(17) 0.13329(11)
H10 H 0.0361 0.5175 0.1551
C18 C 0.13467(15) 0.11889(17) 0.28521(11)
C19 C 0.16161(15) 0.20660(17) 0.05224(11)
C20 C 0.05239(14) 0.09583(17) 0.07715(11)
H11 H -0.0044 0.1322 0.0291
H12 H 0.0380 0.0155 0.0729
C21 C 0.28087(16) 0.7035(2) 0.28168(12)
H13 H 0.2952 0.7694 0.3136
H14 H 0.3226 0.7040 0.2638
H15 H 0.2952 0.6369 0.3130
C22 C 0.19118(14) 0.56859(18) 0.11422(11)
C23 C 0.09014(19) 0.36760(19) 0.35823(13)
H16 H 0.1173 0.4237 0.3427
H17 H 0.1113 0.3839 0.4111
H18 H 0.0172 0.3685 0.3215
C24 C 0.32301(18) 0.6229(2) 0.10860(15)
H19 H 0.3612 0.5559 0.1364
H20 H 0.3689 0.6850 0.1238
H21 H 0.2838 0.6108 0.0521
C25 C 0.44811(19) 0.0527(2) 0.06932(17)
H22 H 0.5102 0.0589 0.0748
H23 H 0.3912 0.0580 0.0139
H24 H 0.4464 -0.0189 0.0901
C26 C 0.3819(2) -0.1121(2) 0.21951(17)
H25 H 0.3738 -0.0795 0.2573
H26 H 0.4425 -0.1573 0.2473
H27 H 0.3241 -0.1587 0.1826
C28 C 0.32153(19) 0.1027(3) 0.42891(15)
H30 H 0.3109 0.1768 0.4414
H31 H 0.3515 0.1093 0.4015
H32 H 0.3662 0.0606 0.4774
Cl1 Cl 0.21250(5) 0.62035(5) 0.48268(4)
Cl2 Cl 0.36754(5) 0.72112(6) 0.47885(4)
C27 C 0.2373(2) 0.7069(3) 0.42960(16)
H28 H 0.2076 0.7809 0.4229
H29 H 0.2060 0.6751 0.3770
Cl3 Cl 0.30920(6) 0.39534(7) 0.34567(5)
Cl4 Cl 0.40134(8) 0.25723(11) 0.29417(6)
C29 C 0.3021(3) 0.3388(5) 0.2671(2)
H33 H 0.2404 0.2941 0.2348
H34 H 0.2968 0.4000 0.2340
loop_
_geom_bond_atom_site_label_1
_geom_bond_atom_site_label_2
_geom_bond_site_symmetry_1
_geom_bond_site_symmetry_2
S1 O1 1_555 1_555
S2 O4 1_555 1_555
S3 O3 1_555 1_555
Cl1 C27 1_555 1_555
Cl2 C27 1_555 1_555
Cl3 C29 1_555 1_555
Cl4 C29 1_555 1_555
O2 S1 1_555 1_555
O5 C16 1_555 1_555
O6 C15 1_555 1_555
O7 C22 1_555 1_555
O8 S3 1_555 1_555
O9 S2 1_555 1_555
C1 H1 1_555 1_555
C2 H2 1_555 1_555
C3 S2 1_555 1_555
C4 C7 1_555 1_555
C5 H3 1_555 1_555
H4 C5 1_555 1_555
C6 C2 1_555 1_555
C7 C1 1_555 1_555
C8 C5 1_555 1_555
C9 S1 1_555 1_555
C10 C4 1_555 1_555
H5 C10 1_555 1_555
H6 C10 1_555 1_555
C11 C8 1_555 1_555
H7 C11 1_555 1_555
C12 C8 1_555 1_555
C13 C4 1_555 1_555
H8 C13 1_555 1_555
C14 C3 1_555 1_555
H9 C14 1_555 1_555
C15 C2 1_555 1_555
C16 C13 1_555 1_555
C17 C9 1_555 1_555
H10 C17 1_555 1_555
C18 S3 1_555 1_555
C19 C5 1_555 1_555
C20 C6 1_555 1_555
H11 C20 1_555 1_555
H12 C20 1_555 1_555
C21 S1 1_555 1_555
H13 C21 1_555 1_555
H14 C21 1_555 1_555
H15 C21 1_555 1_555
C22 C9 1_555 1_555
C23 O5 1_555 1_555
H16 C23 1_555 1_555
H17 C23 1_555 1_555
H18 C23 1_555 1_555
C24 O7 1_555 1_555
H19 C24 1_555 1_555
H20 C24 1_555 1_555
H21 C24 1_555 1_555
C25 S2 1_555 1_555
H22 C25 1_555 1_555
H23 C25 1_555 1_555
H24 C25 1_555 1_555
C26 O6 1_555 1_555
H25 C26 1_555 1_555
H26 C26 1_555 1_555
H27 C26 1_555 1_555
C27 H28 1_555 1_555
H29 C27 1_555 1_555
C28 S3 1_555 1_555
H30 C28 1_555 1_555
H31 C28 1_555 1_555
H32 C28 1_555 1_555
C29 H33 1_555 1_555
H34 C29 1_555 1_555
C1 C18 1_555 1_555
C3 C15 1_555 1_555
C6 C19 1_555 1_555
C7 C20 1_555 1_555
C10 C12 1_555 1_555
C11 C22 1_555 1_555
C12 C17 1_555 1_555
C14 C19 1_555 1_555
C16 C18 1_555 1_555

#END
