
#######################################################################
#
#                 Cambridge Crystallographic Data Centre
#                                CCDC 
#
#######################################################################
#
# If this CIF has been generated from an entry in the Cambridge 
# Structural Database, then it will include bibliographic, chemical, 
# crystal, experimental, refinement or atomic coordinate data resulting 
# from the CCDC's data processing and validation procedures.
#
#######################################################################

data_OZELUB
_chemical_formula_moiety         'C20 H17 N1 O1'
_chemical_name_systematic        1-(2-Phenyl-1-naphthyl)pyrrolidin-2-one
_symmetry_cell_setting           orthorhombic
_symmetry_space_group_name_H-M   'P b c a'
_symmetry_Int_Tables_number      61
_space_group_name_Hall           '-P 2ac 2ab'
loop_
_symmetry_equiv_pos_site_id
_symmetry_equiv_pos_as_xyz
1 x,y,z
2 1/2-x,-y,1/2+z
3 -x,1/2+y,1/2-z
4 1/2+x,1/2-y,-z
5 -x,-y,-z
6 1/2+x,y,1/2-z
7 x,1/2-y,1/2+z
8 1/2-x,1/2+y,z
_cell_length_a                   12.5130(3)
_cell_length_b                   12.6052(3)
_cell_length_c                   19.5281(5)
_cell_angle_alpha                90
_cell_angle_beta                 90
_cell_angle_gamma                90
_cell_volume                     3080.15
_exptl_crystal_colour            colorless
_exptl_crystal_description       block
_cell_formula_units_Z            8
loop_
_atom_site_label
_atom_site_type_symbol
_atom_site_fract_x
_atom_site_fract_y
_atom_site_fract_z
C1 C 0.00596(13) 0.71148(13) 0.39200(8)
C2 C 0.07066(14) 0.74477(13) 0.33883(8)
C3 C 0.05163(15) 0.70159(14) 0.27297(9)
H1 H 0.0952 0.7220 0.2367
C4 C -0.02823(16) 0.63152(15) 0.26137(9)
H2 H -0.0382 0.6048 0.2174
C5 C -0.09656(15) 0.59816(14) 0.31446(9)
C6 C -0.18091(16) 0.52597(15) 0.30373(10)
H3 H -0.1936 0.5002 0.2598
C7 C -0.24400(17) 0.49333(16) 0.35613(11)
H4 H -0.2993 0.4456 0.3481
C8 C -0.22557(15) 0.53175(15) 0.42225(10)
H5 H -0.2689 0.5091 0.4581
C9 C -0.14552(14) 0.60164(14) 0.43498(9)
H6 H -0.1344 0.6256 0.4795
C10 C -0.07875(13) 0.63863(13) 0.38161(8)
C11 C -0.02868(15) 0.81513(14) 0.49659(9)
C12 C 0.01780(16) 0.82287(16) 0.56689(9)
H7 H -0.0377 0.8164 0.6013
H8 H 0.0539 0.8903 0.5730
C13 C 0.09605(16) 0.73221(16) 0.57239(9)
H9 H 0.0660 0.6746 0.5992
H10 H 0.1619 0.7554 0.5938
C14 C 0.11618(16) 0.69709(16) 0.49922(9)
H11 H 0.1844 0.7234 0.4828
H12 H 0.1156 0.6203 0.4957
C15 C 0.15956(14) 0.82122(13) 0.34794(8)
C16 C 0.25919(15) 0.80043(15) 0.32004(9)
H13 H 0.2703 0.7376 0.2961
C17 C 0.34210(16) 0.87179(16) 0.32732(10)
H14 H 0.4085 0.8568 0.3082
C18 C 0.32705(17) 0.96496(16) 0.36270(10)
H15 H 0.3832 1.0126 0.3681
C19 C 0.22855(16) 0.98707(15) 0.39001(9)
H16 H 0.2179 1.0502 0.4136
C20 C 0.14537(15) 0.91646(13) 0.38270(9)
H17 H 0.0789 0.9327 0.4012
N1 N 0.02848(10) 0.74324(10) 0.46078(6)
O1 O -0.10411(12) 0.86488(12) 0.47393(7)
loop_
_geom_bond_atom_site_label_1
_geom_bond_atom_site_label_2
_geom_bond_site_symmetry_1
_geom_bond_site_symmetry_2
C1 C2 1_555 1_555
C2 C3 1_555 1_555
C3 H1 1_555 1_555
C4 C3 1_555 1_555
H2 C4 1_555 1_555
C5 C4 1_555 1_555
C6 C5 1_555 1_555
H3 C6 1_555 1_555
C7 C6 1_555 1_555
H4 C7 1_555 1_555
C8 C7 1_555 1_555
H5 C8 1_555 1_555
C9 C8 1_555 1_555
H6 C9 1_555 1_555
C10 C1 1_555 1_555
C11 C12 1_555 1_555
C12 H7 1_555 1_555
H8 C12 1_555 1_555
C13 C12 1_555 1_555
H9 C13 1_555 1_555
H10 C13 1_555 1_555
C14 C13 1_555 1_555
H11 C14 1_555 1_555
H12 C14 1_555 1_555
C15 C2 1_555 1_555
C16 C15 1_555 1_555
H13 C16 1_555 1_555
C17 C16 1_555 1_555
H14 C17 1_555 1_555
C18 C17 1_555 1_555
H15 C18 1_555 1_555
C19 C18 1_555 1_555
H16 C19 1_555 1_555
C20 C15 1_555 1_555
H17 C20 1_555 1_555
N1 C1 1_555 1_555
O1 C11 1_555 1_555
C5 C10 1_555 1_555
C9 C10 1_555 1_555
C11 N1 1_555 1_555
C14 N1 1_555 1_555
C19 C20 1_555 1_555

#END
