
#######################################################################
#
#                 Cambridge Crystallographic Data Centre
#                                CCDC 
#
#######################################################################
#
# If this CIF has been generated from an entry in the Cambridge 
# Structural Database, then it will include bibliographic, chemical, 
# crystal, experimental, refinement or atomic coordinate data resulting 
# from the CCDC's data processing and validation procedures.
#
#######################################################################

data_OZEMOX
_chemical_formula_moiety         'C13 H17 N1 O2'
_chemical_name_systematic        
(S)-(2E)-N-(1-hydroxypropan-2-yl)-3-(2-methylphenyl)prop-2-enamide
_chemical_properties_biological  'Anticonvulsant and neurotoxicity activity'
_symmetry_cell_setting           orthorhombic
_symmetry_space_group_name_H-M   'P 21 21 21'
_symmetry_Int_Tables_number      19
_space_group_name_Hall           'P 2ac 2ab'
loop_
_symmetry_equiv_pos_site_id
_symmetry_equiv_pos_as_xyz
1 x,y,z
2 1/2-x,-y,1/2+z
3 1/2+x,1/2-y,-z
4 -x,1/2+y,1/2-z
_cell_length_a                   4.8397(2)
_cell_length_b                   11.1037(4)
_cell_length_c                   22.0359(8)
_cell_angle_alpha                90
_cell_angle_beta                 90
_cell_angle_gamma                90
_cell_volume                     1184.18
_exptl_crystal_colour            colorless
_exptl_crystal_description       needle
_chemical_melting_point          '152-154 deg.C'
_cell_formula_units_Z            4
_exptl_crystal_recrystallization_method acetone/heptane
loop_
_atom_site_label
_atom_site_type_symbol
_atom_site_fract_x
_atom_site_fract_y
_atom_site_fract_z
O1 O 0.0880(2) 0.08758(11) -0.07113(5)
O2 O -0.4940(3) -0.19163(11) 0.01051(6)
N1 N -0.3370(3) 0.04511(12) -0.03395(6)
C1 C -0.1663(3) 0.08751(14) -0.07685(7)
C2 C -0.1666(3) 0.18860(13) -0.17628(7)
H1 H 0.0232 0.2052 -0.1691
C3 C -0.3064(3) 0.13233(13) -0.13245(7)
H2 H -0.4998 0.1207 -0.1369
C4 C -0.2837(3) 0.22688(14) -0.23488(7)
C5 C -0.4381(3) -0.09222(15) 0.04962(7)
H3 H -0.365 -0.123 0.0886
H4 H -0.6132 -0.0495 0.0582
C6 C -0.1813(3) 0.33069(14) -0.26432(7)
C7 C -0.2323(3) -0.00354(14) 0.02303(7)
H5 H -0.0571 -0.048 0.0142
C8 C -0.4943(4) 0.29260(16) -0.34828(7)
H6 H -0.5658 0.3153 -0.3868
C9 C -0.4903(4) 0.15866(14) -0.26286(7)
H7 H -0.5592 0.0888 -0.2431
C10 C 0.0323(4) 0.40926(15) -0.23462(8)
H8 H 0.0671 0.4799 -0.2601
H9 H 0.2041 0.3637 -0.2295
H10 H -0.0351 0.4355 -0.1948
C11 C -0.5963(4) 0.19106(16) -0.31886(8)
H11 H -0.738 0.1442 -0.3371
C12 C -0.2881(4) 0.36037(14) -0.32125(8)
H12 H -0.2175 0.4288 -0.342
C13 C -0.1665(4) 0.09724(17) 0.06806(8)
H13 H -0.3368 0.1404 0.0783
H14 H -0.0343 0.1533 0.0497
H15 H -0.0863 0.0626 0.105
H16 H -0.513(5) 0.0515(17) -0.0389(9)
H17 H -0.339(6) -0.230(2) 0.0058(11)
loop_
_geom_bond_atom_site_label_1
_geom_bond_atom_site_label_2
_geom_bond_site_symmetry_1
_geom_bond_site_symmetry_2
O1 C1 1_555 1_555
O2 C5 1_555 1_555
N1 C1 1_555 1_555
C1 C3 1_555 1_555
C2 H1 1_555 1_555
C3 C2 1_555 1_555
H2 C3 1_555 1_555
C4 C2 1_555 1_555
C5 H3 1_555 1_555
H4 C5 1_555 1_555
C6 C4 1_555 1_555
C7 N1 1_555 1_555
H5 C7 1_555 1_555
C8 H6 1_555 1_555
C9 C4 1_555 1_555
H7 C9 1_555 1_555
C10 C6 1_555 1_555
H8 C10 1_555 1_555
H9 C10 1_555 1_555
H10 C10 1_555 1_555
C11 C8 1_555 1_555
H11 C11 1_555 1_555
C12 C6 1_555 1_555
H12 C12 1_555 1_555
C13 C7 1_555 1_555
H13 C13 1_555 1_555
H14 C13 1_555 1_555
H15 C13 1_555 1_555
H16 N1 1_555 1_555
H17 O2 1_555 1_555
C5 C7 1_555 1_555
C8 C12 1_555 1_555
C9 C11 1_555 1_555

#END
