
#######################################################################
#
#                 Cambridge Crystallographic Data Centre
#                                CCDC 
#
#######################################################################
#
# If this CIF has been generated from an entry in the Cambridge 
# Structural Database, then it will include bibliographic, chemical, 
# crystal, experimental, refinement or atomic coordinate data resulting 
# from the CCDC's data processing and validation procedures.
#
#######################################################################

data_OZEPEQ
_chemical_formula_moiety         'C21 H13 Cl1 O2 S1'
_chemical_name_systematic        
2-(4-chlorophenyl)-3-(phenylsulfanyl)-4H-chromen-4-one
_symmetry_cell_setting           orthorhombic
_symmetry_space_group_name_H-M   'P 21 21 21'
_symmetry_Int_Tables_number      19
_space_group_name_Hall           'P 2ac 2ab'
loop_
_symmetry_equiv_pos_site_id
_symmetry_equiv_pos_as_xyz
1 x,y,z
2 1/2-x,-y,1/2+z
3 -x,1/2+y,1/2-z
4 1/2+x,1/2-y,-z
_cell_length_a                   9.5905(13)
_cell_length_b                   11.2387(15)
_cell_length_c                   16.229(2)
_cell_angle_alpha                90
_cell_angle_beta                 90
_cell_angle_gamma                90
_cell_volume                     1749.24
_exptl_crystal_colour            colorless
_exptl_crystal_description       Block
_cell_formula_units_Z            4
loop_
_atom_site_label
_atom_site_type_symbol
_atom_site_fract_x
_atom_site_fract_y
_atom_site_fract_z
Cl1 Cl 0.48140(10) 0.52729(8) -0.10702(5)
S1 S 0.47863(8) 0.11976(7) 0.20758(6)
O1 O 0.2675(2) 0.0135(2) 0.32230(16)
O2 O 0.1073(2) 0.27588(18) 0.17797(13)
C1 C 0.0251(3) 0.2219(3) 0.23691(18)
C2 C -0.1113(3) 0.2639(3) 0.2413(2)
H1 H -0.1417 0.3250 0.2071
C3 C -0.1990(3) 0.2127(4) 0.2972(3)
H2 H -0.2908 0.2389 0.3008
C4 C -0.1533(4) 0.1222(4) 0.3486(3)
H3 H -0.2142 0.0888 0.3867
C5 C -0.0181(4) 0.0816(3) 0.3435(2)
H4 H 0.0118 0.0205 0.3779
C6 C 0.0746(3) 0.1324(3) 0.28659(19)
C7 C 0.2194(3) 0.0940(3) 0.2797(2)
C8 C 0.3013(3) 0.1567(2) 0.21766(19)
C9 C 0.2434(3) 0.2424(3) 0.17069(19)
C10 C 0.3079(3) 0.3113(3) 0.10219(19)
C11 C 0.2403(3) 0.3149(3) 0.0270(2)
H5 H 0.1575 0.2729 0.0202
C12 C 0.2935(3) 0.3799(3) -0.0388(2)
H6 H 0.2482 0.3809 -0.0894
C13 C 0.4155(3) 0.4429(3) -0.02693(19)
C14 C 0.4845(3) 0.4408(3) 0.04817(19)
H7 H 0.5666 0.4835 0.0553
C15 C 0.4305(3) 0.3749(3) 0.1119(2)
H8 H 0.4767 0.3731 0.1622
C16 C 0.4728(3) -0.0102(3) 0.14619(19)
C17 C 0.3703(4) -0.0317(3) 0.0887(2)
H9 H 0.2962 0.0210 0.0829
C18 C 0.3782(5) -0.1309(4) 0.0400(3)
H10 H 0.3078 -0.1464 0.0021
C19 C 0.4877(7) -0.2072(4) 0.0466(3)
H11 H 0.4920 -0.2745 0.0134
C20 C 0.5909(6) -0.1847(4) 0.1019(3)
H12 H 0.6669 -0.2358 0.1055
C21 C 0.5834(4) -0.0867(3) 0.1525(2)
H13 H 0.6533 -0.0725 0.1910
loop_
_geom_bond_atom_site_label_1
_geom_bond_atom_site_label_2
_geom_bond_site_symmetry_1
_geom_bond_site_symmetry_2
Cl1 C13 1_555 1_555
S1 C8 1_555 1_555
O1 C7 1_555 1_555
O2 C1 1_555 1_555
C1 C2 1_555 1_555
C2 H1 1_555 1_555
C3 C2 1_555 1_555
H2 C3 1_555 1_555
C4 C3 1_555 1_555
H3 C4 1_555 1_555
C5 C4 1_555 1_555
H4 C5 1_555 1_555
C6 C1 1_555 1_555
C7 C6 1_555 1_555
C8 C7 1_555 1_555
C9 O2 1_555 1_555
C10 C9 1_555 1_555
C11 C10 1_555 1_555
H5 C11 1_555 1_555
C12 C11 1_555 1_555
H6 C12 1_555 1_555
C13 C12 1_555 1_555
C14 C13 1_555 1_555
H7 C14 1_555 1_555
C15 C10 1_555 1_555
H8 C15 1_555 1_555
C16 S1 1_555 1_555
C17 C16 1_555 1_555
H9 C17 1_555 1_555
C18 C17 1_555 1_555
H10 C18 1_555 1_555
C19 C18 1_555 1_555
H11 C19 1_555 1_555
C20 C19 1_555 1_555
H12 C20 1_555 1_555
C21 C16 1_555 1_555
H13 C21 1_555 1_555
C5 C6 1_555 1_555
C8 C9 1_555 1_555
C14 C15 1_555 1_555
C20 C21 1_555 1_555

#END
