
#######################################################################
#
#                 Cambridge Crystallographic Data Centre
#                                CCDC 
#
#######################################################################
#
# If this CIF has been generated from an entry in the Cambridge 
# Structural Database, then it will include bibliographic, chemical, 
# crystal, experimental, refinement or atomic coordinate data resulting 
# from the CCDC's data processing and validation procedures.
#
#######################################################################

data_OZIBEG
_chemical_formula_moiety         'C16 H20 F4 S2 Si2'
_chemical_name_systematic        
(E)-(ethene-1,2-diylbis(3,4-difluorothiene-5,2-diyl))bis(trimethylsilane)
_symmetry_cell_setting           triclinic
_symmetry_space_group_name_H-M   'P -1'
_symmetry_Int_Tables_number      2
_space_group_name_Hall           '-P 1'
loop_
_symmetry_equiv_pos_site_id
_symmetry_equiv_pos_as_xyz
1 x,y,z
2 -x,-y,-z
_cell_length_a                   7.0612(9)
_cell_length_b                   9.3406(12)
_cell_length_c                   15.905(2)
_cell_angle_alpha                104.997(2)
_cell_angle_beta                 94.484(2)
_cell_angle_gamma                90.694(2)
_cell_volume                     1009.63
_exptl_crystal_colour            white
_exptl_crystal_description       block
_cell_formula_units_Z            2
_exptl_crystal_recrystallization_method ethanol
loop_
_atom_site_label
_atom_site_type_symbol
_atom_site_fract_x
_atom_site_fract_y
_atom_site_fract_z
S1 S 0.44242(12) 0.67766(8) 0.42578(5)
Si1 Si 0.38343(15) 0.35970(10) 0.29681(7)
F1 F 0.4076(3) 0.9162(2) 0.26296(13)
C1 C 0.4147(4) 0.8123(3) 0.3076(2)
C2 C 0.3975(5) 0.5680(3) 0.3197(2)
C3 C 0.4843(4) 0.9869(3) 0.4569(2)
H1 H 0.4857 1.0686 0.4338
C4 C 0.3869(5) 0.6598(3) 0.2659(2)
C5 C 0.4482(4) 0.8433(3) 0.3959(2)
C6 C 0.2132(5) 0.3097(4) 0.3682(3)
H2 H 0.0871 0.3335 0.3503
H3 H 0.2466 0.3642 0.4276
H4 H 0.2176 0.2053 0.3637
C7 C 0.6240(5) 0.2968(4) 0.3227(3)
H5 H 0.6648 0.3419 0.3829
H6 H 0.7114 0.3251 0.2861
H7 H 0.6203 0.1909 0.3125
C8 C 0.3042(8) 0.2796(5) 0.1798(3)
H8 H 0.2983 0.1734 0.1675
H9 H 0.3928 0.3095 0.1442
H10 H 0.1807 0.3146 0.1672
F2 F 0.3540(3) 0.6135(2) 0.17858(13)
S1A S 0.55758(12) 1.32234(8) 0.57422(5)
Si1A Si 0.61657(15) 1.64030(10) 0.70319(7)
F1A F 0.5924(3) 1.0838(2) 0.73704(13)
C1A C 0.5853(4) 1.1877(3) 0.6924(2)
C2A C 0.6025(5) 1.4320(3) 0.6803(2)
C3A C 0.5157(4) 1.0131(3) 0.5431(2)
H1A H 0.5143 0.9314 0.5662
C4A C 0.6131(5) 1.3402(3) 0.7341(2)
C5A C 0.5518(4) 1.1567(3) 0.6041(2)
C6A C 0.7868(5) 1.6903(4) 0.6318(3)
H2A H 0.9129 1.6665 0.6497
H3A H 0.7534 1.6358 0.5724
H4A H 0.7824 1.7947 0.6363
C7A C 0.3760(5) 1.7032(4) 0.6773(3)
H5A H 0.3352 1.6581 0.6171
H6A H 0.2886 1.6749 0.7139
H7A H 0.3797 1.8091 0.6875
C8A C 0.6958(8) 1.7204(5) 0.8202(3)
H8A H 0.7017 1.8266 0.8325
H9A H 0.6072 1.6905 0.8558
H10A H 0.8193 1.6854 0.8328
F2A F 0.6460(3) 1.3865(2) 0.82142(13)
S2 S 0.07895(12) 0.05752(8) 0.69116(5)
Si2 Si 0.15258(14) 0.21688(11) 0.89252(6)
F3 F 0.1251(3) 0.4791(2) 0.78128(14)
C9 C 0.0698(4) 0.2954(3) 0.6451(2)
C10 C 0.0089(4) 0.0733(3) 0.5169(2)
H11 H -0.0065 0.1329 0.4783
C11 C 0.1161(5) 0.2198(4) 0.7746(2)
C12 C 0.0500(4) 0.1469(3) 0.6086(2)
C13 C 0.1057(5) 0.3340(3) 0.7366(2)
C14 C -0.0754(6) 0.1751(5) 0.9311(3)
H12 H -0.1243 0.0795 0.8971
H13 H -0.1644 0.2493 0.9250
H14 H -0.0564 0.1745 0.9915
C15 C 0.2486(8) 0.4034(6) 0.9554(3)
H15 H 0.1589 0.4769 0.9488
H16 H 0.3663 0.4240 0.9337
H17 H 0.2701 0.4055 1.0160
C16 C 0.3189(8) 0.0687(7) 0.9007(3)
H18 H 0.3332 0.0613 0.9600
H19 H 0.4403 0.0920 0.8834
H20 H 0.2696 -0.0240 0.8631
F4 F 0.0586(3) 0.3977(2) 0.59921(13)
S2A S -0.07895(12) -0.05752(8) 0.30884(5)
Si2A Si -0.15258(14) -0.21688(11) 0.10748(6)
F3A F -0.1251(3) -0.4791(2) 0.21872(14)
C9A C -0.0698(4) -0.2954(3) 0.3549(2)
C10A C -0.0089(4) -0.0733(3) 0.4831(2)
H11A H 0.0065 -0.1329 0.5217
C11A C -0.1161(5) -0.2198(4) 0.2254(2)
C12A C -0.0500(4) -0.1469(3) 0.3914(2)
C13A C -0.1057(5) -0.3340(3) 0.2634(2)
C14A C 0.0754(6) -0.1751(5) 0.0689(3)
H12A H 0.1243 -0.0795 0.1029
H13A H 0.1644 -0.2493 0.0750
H14A H 0.0564 -0.1745 0.0085
C15A C -0.2486(8) -0.4034(6) 0.0446(3)
H15A H -0.1589 -0.4769 0.0512
H16A H -0.3663 -0.4240 0.0663
H17A H -0.2701 -0.4055 -0.0160
C16A C -0.3189(8) -0.0687(7) 0.0993(3)
H18A H -0.3332 -0.0613 0.0400
H19A H -0.4403 -0.0920 0.1166
H20A H -0.2696 0.0240 0.1369
F4A F -0.0586(3) -0.3977(2) 0.40079(13)
loop_
_geom_bond_atom_site_label_1
_geom_bond_atom_site_label_2
_geom_bond_site_symmetry_1
_geom_bond_site_symmetry_2
S1 C2 1_555 1_555
Si1 C2 1_555 1_555
F1 C1 1_555 1_555
C1 C4 1_555 1_555
C2 C4 1_555 1_555
C3 H1 1_555 1_555
C4 F2 1_555 1_555
C5 S1 1_555 1_555
C6 Si1 1_555 1_555
H2 C6 1_555 1_555
H3 C6 1_555 1_555
H4 C6 1_555 1_555
C7 Si1 1_555 1_555
H5 C7 1_555 1_555
H6 C7 1_555 1_555
H7 C7 1_555 1_555
C8 Si1 1_555 1_555
H8 C8 1_555 1_555
H9 C8 1_555 1_555
H10 C8 1_555 1_555
S2 C11 1_555 1_555
Si2 C11 1_555 1_555
F3 C13 1_555 1_555
C9 C12 1_555 1_555
C10 H11 1_555 1_555
C11 C13 1_555 1_555
C12 S2 1_555 1_555
C13 C9 1_555 1_555
C14 Si2 1_555 1_555
H12 C14 1_555 1_555
H13 C14 1_555 1_555
H14 C14 1_555 1_555
C15 Si2 1_555 1_555
H15 C15 1_555 1_555
H16 C15 1_555 1_555
H17 C15 1_555 1_555
C16 Si2 1_555 1_555
H18 C16 1_555 1_555
H19 C16 1_555 1_555
H20 C16 1_555 1_555
F4 C9 1_555 1_555
S1A C2A 1_555 1_555
Si1A C2A 1_555 1_555
F1A C1A 1_555 1_555
C1A C4A 1_555 1_555
C2A C4A 1_555 1_555
C3A C3 1_555 1_555
H1A C3A 1_555 1_555
C4A F2A 1_555 1_555
C5A S1A 1_555 1_555
C6A Si1A 1_555 1_555
H2A C6A 1_555 1_555
H3A C6A 1_555 1_555
H4A C6A 1_555 1_555
C7A Si1A 1_555 1_555
H5A C7A 1_555 1_555
H6A C7A 1_555 1_555
H7A C7A 1_555 1_555
C8A Si1A 1_555 1_555
H8A C8A 1_555 1_555
H9A C8A 1_555 1_555
H10A C8A 1_555 1_555
S2A C11A 1_555 1_555
Si2A C11A 1_555 1_555
F3A C13A 1_555 1_555
C9A C12A 1_555 1_555
C10A C10 1_555 1_555
H11A C10A 1_555 1_555
C11A C13A 1_555 1_555
C12A S2A 1_555 1_555
C13A C9A 1_555 1_555
C14A Si2A 1_555 1_555
H12A C14A 1_555 1_555
H13A C14A 1_555 1_555
H14A C14A 1_555 1_555
C15A Si2A 1_555 1_555
H15A C15A 1_555 1_555
H16A C15A 1_555 1_555
H17A C15A 1_555 1_555
C16A Si2A 1_555 1_555
H18A C16A 1_555 1_555
H19A C16A 1_555 1_555
H20A C16A 1_555 1_555
F4A C9A 1_555 1_555
C1 C5 1_555 1_555
C3 C5 1_555 1_555
C10 C12 1_555 1_555
C1A C5A 1_555 1_555
C3A C5A 1_555 1_555
C10A C12A 1_555 1_555

#END
