
#######################################################################
#
#                 Cambridge Crystallographic Data Centre
#                                CCDC 
#
#######################################################################
#
# If this CIF has been generated from an entry in the Cambridge 
# Structural Database, then it will include bibliographic, chemical, 
# crystal, experimental, refinement or atomic coordinate data resulting 
# from the CCDC's data processing and validation procedures.
#
#######################################################################

data_OZIGAG
_chemical_formula_moiety         'C42 H48,C6 N4'
_chemical_name_systematic        
'heptacyclo[21.13.1.1^5,19^.1^6,18^.1^10,14^.1^24,36^.1^28,32^] dotetraconta-1(37),5(40),6(41),10(42),11,13,18,23,28(39),29,31,36(38)-dodecaene ethene-1,1,2,2-tetracarbonitrile'
_symmetry_cell_setting           orthorhombic
_symmetry_space_group_name_H-M   'C c m b'
_symmetry_Int_Tables_number      64
_space_group_name_Hall           '-C 2bc 2ac'
loop_
_symmetry_equiv_pos_site_id
_symmetry_equiv_pos_as_xyz
1 x,y,z
2 1/2-x,-y,1/2+z
3 x,1/2-y,1/2-z
4 -x,y,-z
5 1/2+x,1/2+y,z
6 -x,1/2-y,1/2+z
7 1/2+x,-y,1/2-z
8 1/2-x,1/2+y,-z
9 -x,-y,-z
10 1/2+x,y,1/2-z
11 -x,1/2+y,1/2+z
12 x,-y,z
13 1/2-x,1/2-y,-z
14 x,1/2+y,1/2-z
15 1/2-x,y,1/2+z
16 1/2+x,1/2-y,z
_cell_length_a                   9.6538(16)
_cell_length_b                   16.597(3)
_cell_length_c                   22.487(6)
_cell_angle_alpha                90
_cell_angle_beta                 90
_cell_angle_gamma                90
_cell_volume                     3602.96
_exptl_crystal_colour            black
_exptl_crystal_description       needle
_cell_formula_units_Z            4
loop_
_atom_site_label
_atom_site_type_symbol
_atom_site_fract_x
_atom_site_fract_y
_atom_site_fract_z
C18 C 0.53061(19) 0.0000 0.02688(10)
C20 C 0.56207(10) 0.07730(6) 0.05492(6)
N1 N 0.59399(10) 0.13144(6) 0.08174(5)
C18C C 0.46939(19) 0.0000 -0.02688(10)
C20C C 0.43793(10) 0.07730(6) -0.05492(6)
C20H C 0.43793(10) -0.07730(6) -0.05492(6)
C20K C 0.56207(10) -0.07730(6) 0.05492(6)
N1C N 0.40601(10) 0.13144(6) -0.08174(5)
N1H N 0.40601(10) -0.13144(6) -0.08174(5)
N1K N 0.59399(10) -0.13144(6) 0.08174(5)
H1 H 0.3388(15) 0.1816(8) 0.1120(6)
C2 C 0.2838(3) 0.14149(15) 0.14076(12)
H3 H 0.355(3) 0.1257(14) 0.1719(11)
C3 C 0.1664(3) 0.18297(16) 0.17434(13)
H4 H 0.089(3) 0.1973(16) 0.1445(12)
H5 H 0.252(3) 0.2249(17) 0.1970(12)
C6 C 0.0995(3) 0.13962(17) 0.22580(13)
H9 H 0.0504(15) 0.1792(8) 0.2482(7)
H10 H 0.175(3) 0.1236(16) 0.2550(13)
C7 C 0.01310(13) 0.07268(7) 0.20420(5)
C8 C 0.06944(18) 0.0000 0.22122(7)
H11 H 0.157(3) 0.0000 0.2431(11)
C9 C -0.17236(15) 0.0000 0.15782(6)
H12 H -0.261(2) 0.0000 0.1357(9)
C10 C -0.11020(12) 0.07219(6) 0.17265(5)
H13 H -0.1553(16) 0.1226(10) 0.1605(6)
C11 C 0.23825(11) 0.07388(6) 0.09632(5)
C12 C 0.27394(15) 0.0000 0.12109(7)
H14 H 0.322(2) 0.0000 0.1613(9)
C13 C 0.15431(14) 0.0000 0.01304(7)
H15 H 0.115(2) 0.0000 -0.0275(9)
C14 C 0.17672(11) 0.07378(6) 0.04041(5)
C16 C 0.1527(2) 0.16282(12) 0.02038(10)
H18 H 0.1312 0.1966 0.0555
H19 H 0.2379 0.1841 0.0016
C17 C 0.03293(19) 0.16681(10) -0.02386(9)
H20 H 0.063(2) 0.1366(13) -0.0596(10)
H21 H 0.023(2) 0.2246(13) -0.0381(9)
H1K H 0.3388(15) -0.1816(8) 0.1120(6)
H1H H -0.3388(15) -0.1816(8) -0.1120(6)
H1C H -0.3388(15) 0.1816(8) -0.1120(6)
C2K C 0.2838(3) -0.14149(15) 0.14076(12)
C2H C -0.2838(3) -0.14149(15) -0.14076(12)
C2C C -0.2838(3) 0.14149(15) -0.14076(12)
H3K H 0.355(3) -0.1257(14) 0.1719(11)
H3H H -0.355(3) -0.1257(14) -0.1719(11)
H3C H -0.355(3) 0.1257(14) -0.1719(11)
C3K C 0.1664(3) -0.18297(16) 0.17434(13)
C3H C -0.1664(3) -0.18297(16) -0.17434(13)
C3C C -0.1664(3) 0.18297(16) -0.17434(13)
H4H H -0.089(3) -0.1973(16) -0.1445(12)
H4C H -0.089(3) 0.1973(16) -0.1445(12)
H4K H 0.089(3) -0.1973(16) 0.1445(12)
H5H H -0.252(3) -0.2249(17) -0.1970(12)
H5C H -0.252(3) 0.2249(17) -0.1970(12)
H5K H 0.252(3) -0.2249(17) 0.1970(12)
C6K C 0.0995(3) -0.13962(17) 0.22580(13)
C6H C -0.0995(3) -0.13962(17) -0.22580(13)
C6C C -0.0995(3) 0.13962(17) -0.22580(13)
H9H H -0.0504(15) -0.1792(8) -0.2482(7)
H9C H -0.0504(15) 0.1792(8) -0.2482(7)
H9K H 0.0504(15) -0.1792(8) 0.2482(7)
H10H H -0.175(3) -0.1236(16) -0.2550(13)
H10C H -0.175(3) 0.1236(16) -0.2550(13)
H10K H 0.175(3) -0.1236(16) 0.2550(13)
C7K C 0.01310(13) -0.07268(7) 0.20420(5)
C7H C -0.01310(13) -0.07268(7) -0.20420(5)
C7C C -0.01310(13) 0.07268(7) -0.20420(5)
C8C C -0.06944(18) 0.0000 -0.22122(7)
H11C H -0.157(3) 0.0000 -0.2431(11)
C9C C 0.17236(15) 0.0000 -0.15782(6)
H12C H 0.261(2) 0.0000 -0.1357(9)
C10C C 0.11020(12) 0.07219(6) -0.17265(5)
C10H C 0.11020(12) -0.07219(6) -0.17265(5)
C10K C -0.11020(12) -0.07219(6) 0.17265(5)
H13H H 0.1553(16) -0.1226(10) -0.1605(6)
H13C H 0.1553(16) 0.1226(10) -0.1605(6)
H13K H -0.1553(16) -0.1226(10) 0.1605(6)
C11K C 0.23825(11) -0.07388(6) 0.09632(5)
C11H C -0.23825(11) -0.07388(6) -0.09632(5)
C11C C -0.23825(11) 0.07388(6) -0.09632(5)
C12C C -0.27394(15) 0.0000 -0.12109(7)
H14C H -0.322(2) 0.0000 -0.1613(9)
C13C C -0.15431(14) 0.0000 -0.01304(7)
H15C H -0.115(2) 0.0000 0.0275(9)
C14K C 0.17672(11) -0.07378(6) 0.04041(5)
C14H C -0.17672(11) -0.07378(6) -0.04041(5)
C14C C -0.17672(11) 0.07378(6) -0.04041(5)
C16K C 0.1527(2) -0.16282(12) 0.02038(10)
C16H C -0.1527(2) -0.16282(12) -0.02038(10)
C16C C -0.1527(2) 0.16282(12) -0.02038(10)
H18K H 0.1312 -0.1966 0.0555
H18C H -0.1312 0.1966 -0.0555
H18H H -0.1312 -0.1966 -0.0555
H19K H 0.2379 -0.1841 0.0016
H19C H -0.2379 0.1841 -0.0016
H19H H -0.2379 -0.1841 -0.0016
C17K C 0.03293(19) -0.16681(10) -0.02386(9)
C17H C -0.03293(19) -0.16681(10) 0.02386(9)
C17C C -0.03293(19) 0.16681(10) 0.02386(9)
H20C H -0.063(2) 0.1366(13) 0.0596(10)
H20H H -0.063(2) -0.1366(13) 0.0596(10)
H20K H 0.063(2) -0.1366(13) -0.0596(10)
H21C H -0.023(2) 0.2246(13) 0.0381(9)
H21H H -0.023(2) -0.2246(13) 0.0381(9)
H21K H 0.023(2) -0.2246(13) -0.0381(9)
C1? C 0.2461(3) 0.16169(15) 0.11806(13)
H2? H 0.190(3) 0.2002(18) 0.0967(13)
C4? C 0.2272(4) 0.1683(2) 0.18515(16)
H6? H 0.197(3) 0.237(2) 0.1859(13)
H7? H 0.285(3) 0.1293(18) 0.2083(14)
C5? C 0.0723(4) 0.16357(19) 0.20616(17)
H8? H 0.018(3) 0.2036(19) 0.1844(14)
C15? C 0.1071(2) 0.13661(11) -0.00113(10)
H16? H 0.1702 0.1831 -0.0064
H17? H 0.0917 0.1120 -0.0407
C19? C 0.5000 0.0416(3) 0.0000
loop_
_geom_bond_atom_site_label_1
_geom_bond_atom_site_label_2
_geom_bond_site_symmetry_1
_geom_bond_site_symmetry_2
H1 C2 1_555 1_555
C2 H3 1_555 1_555
C3 C2 1_555 1_555
H4 C3 1_555 1_555
H5 C3 1_555 1_555
C6 C3 1_555 1_555
H9 C6 1_555 1_555
H10 C6 1_555 1_555
C7 C6 1_555 1_555
C8 C7 1_555 1_555
H11 C8 1_555 1_555
C9 H12 1_555 1_555
C10 C7 1_555 1_555
H13 C10 1_555 1_555
C11 C2 1_555 1_555
C12 C11 1_555 1_555
H14 C12 1_555 1_555
C13 H15 1_555 1_555
C14 C11 1_555 1_555
C16 C14 1_555 1_555
H18 C16 1_555 1_555
H19 C16 1_555 1_555
C17 C16 1_555 1_555
H20 C17 1_555 1_555
H21 C17 1_555 1_555
C18 C20 1_555 1_555
C20 N1 1_555 1_555
H1K C2K 1_555 1_555
H1H C2H 1_555 1_555
H1C C2C 1_555 1_555
C2K H3K 1_555 1_555
C2H H3H 1_555 1_555
C2C H3C 1_555 1_555
C3K C2K 1_555 1_555
C3H C2H 1_555 1_555
C3C C2C 1_555 1_555
H4H C3H 1_555 1_555
H4C C3C 1_555 1_555
H4K C3K 1_555 1_555
H5H C3H 1_555 1_555
H5C C3C 1_555 1_555
H5K C3K 1_555 1_555
C6K C3K 1_555 1_555
C6H C3H 1_555 1_555
C6C C3C 1_555 1_555
H9H C6H 1_555 1_555
H9C C6C 1_555 1_555
H9K C6K 1_555 1_555
H10H C6H 1_555 1_555
H10C C6C 1_555 1_555
H10K C6K 1_555 1_555
C7K C8 1_555 1_555
C7H C6H 1_555 1_555
C7C C6C 1_555 1_555
C8C C7H 1_555 1_555
H11C C8C 1_555 1_555
C9C H12C 1_555 1_555
C10C C7C 1_555 1_555
C10H C7H 1_555 1_555
C10K C9 1_555 1_555
H13H C10H 1_555 1_555
H13C C10C 1_555 1_555
H13K C10K 1_555 1_555
C11K C12 1_555 1_555
C11H C2H 1_555 1_555
C11C C2C 1_555 1_555
C12C C11H 1_555 1_555
H14C C12C 1_555 1_555
C13C H15C 1_555 1_555
C14K C13 1_555 1_555
C14H C11H 1_555 1_555
C14C C11C 1_555 1_555
C16K C14K 1_555 1_555
C16H C14H 1_555 1_555
C16C C14C 1_555 1_555
H18K C16K 1_555 1_555
H18C C16C 1_555 1_555
H18H C16H 1_555 1_555
H19K C16K 1_555 1_555
H19C C16C 1_555 1_555
H19H C16H 1_555 1_555
C17K C16K 1_555 1_555
C17H C16H 1_555 1_555
C17C C17 1_555 1_555
H20C C17C 1_555 1_555
H20H C17H 1_555 1_555
H20K C17K 1_555 1_555
H21C C17C 1_555 1_555
H21H C17H 1_555 1_555
H21K C17K 1_555 1_555
C18C C18 1_555 1_555
C20C C18C 1_555 1_555
C20H C18C 1_555 1_555
C20K C18 1_555 1_555
N1C C20C 1_555 1_555
N1H C20H 1_555 1_555
N1K C20K 1_555 1_555
C9 C10 1_555 1_555
C13 C14 1_555 1_555
C2K C11K 1_555 1_555
C6K C7K 1_555 1_555
C7K C10K 1_555 1_555
C7C C8C 1_555 1_555
C9C C10C 1_555 1_555
C9C C10H 1_555 1_555
C11K C14K 1_555 1_555
C11C C12C 1_555 1_555
C13C C14H 1_555 1_555
C13C C14C 1_555 1_555
C16C C17C 1_555 1_555
C17K C17H 1_555 1_555

#END
