
#######################################################################
#
#                 Cambridge Crystallographic Data Centre
#                                CCDC 
#
#######################################################################
#
# If this CIF has been generated from an entry in the Cambridge 
# Structural Database, then it will include bibliographic, chemical, 
# crystal, experimental, refinement or atomic coordinate data resulting 
# from the CCDC's data processing and validation procedures.
#
#######################################################################

data_OZIHEM
_chemical_formula_moiety         'C14 H25 N1 O4'
_chemical_name_systematic        
't-butyl (4-methyl-1-(2-methyloxiran-2-yl)-1-oxopentan-2-yl)carbamate'
_symmetry_cell_setting           monoclinic
_symmetry_space_group_name_H-M   'P 21'
_symmetry_Int_Tables_number      4
_space_group_name_Hall           'P 2yb'
loop_
_symmetry_equiv_pos_site_id
_symmetry_equiv_pos_as_xyz
1 x,y,z
2 -x,1/2+y,-z
_cell_length_a                   8.880(3)
_cell_length_b                   9.349(3)
_cell_length_c                   10.487(4)
_cell_angle_alpha                90
_cell_angle_beta                 111.259(4)
_cell_angle_gamma                90
_cell_volume                     811.377
_cell_formula_units_Z            2
loop_
_atom_site_label
_atom_site_type_symbol
_atom_site_fract_x
_atom_site_fract_y
_atom_site_fract_z
O1 O 1.4494(3) 0.7299(4) 0.4385(3)
O2 O 1.1601(3) 0.7395(3) 0.2259(2)
O3 O 0.9502(2) 0.5559(2) 0.58326(15)
O4 O 0.9539(2) 0.77969(19) 0.66900(15)
N1 N 0.9936(2) 0.7539(2) 0.47602(17)
H1 H 1.0144 0.8440 0.4854
C1 C 1.3920(4) 0.8180(5) 0.5189(4)
H2 H 1.3442 0.9089 0.4804
H3 H 1.4515 0.8189 0.6168
C2 C 1.3031(3) 0.6868(3) 0.4583(3)
C3 C 1.3185(4) 0.5551(4) 0.5436(3)
H4 H 1.4243 0.5521 0.6136
H5 H 1.3027 0.4719 0.4866
H6 H 1.2385 0.5571 0.5852
C4 C 1.1527(3) 0.7069(3) 0.3337(3)
C5 C 0.9911(3) 0.6829(3) 0.3513(2)
H7 H 0.9774 0.5800 0.3611
C6 C 0.9644(3) 0.6834(3) 0.5774(2)
C7 C 0.9567(3) 0.7326(3) 0.8051(2)
C8 C 1.1160(4) 0.6621(4) 0.8812(3)
H8 H 1.2023 0.7240 0.8813
H9 H 1.1226 0.5734 0.8373
H10 H 1.1250 0.6437 0.9738
C9 C 0.8147(4) 0.6370(4) 0.7905(3)
H11 H 0.8340 0.5435 0.7618
H12 H 0.7188 0.6765 0.7236
H13 H 0.8008 0.6300 0.8770
C10 C 0.9410(6) 0.8738(4) 0.8701(3)
H14 H 0.8393 0.9172 0.8180
H15 H 1.0274 0.9362 0.8715
H16 H 0.9464 0.8574 0.9620
C11 C 0.8499(3) 0.7363(3) 0.2263(2)
H17 H 0.8617 0.8386 0.2177
H18 H 0.8568 0.6915 0.1451
C12 C 0.6830(3) 0.7073(4) 0.2300(3)
H19 H 0.6834 0.7369 0.3197
C13 C 0.5562(5) 0.7957(6) 0.1213(4)
H20 H 0.4533 0.7838 0.1306
H21 H 0.5489 0.7642 0.0321
H22 H 0.5865 0.8948 0.1326
C14 C 0.6408(5) 0.5506(5) 0.2120(5)
H23 H 0.7162 0.4975 0.2860
H24 H 0.6458 0.5179 0.1268
H25 H 0.5335 0.5368 0.2116
loop_
_geom_bond_atom_site_label_1
_geom_bond_atom_site_label_2
_geom_bond_site_symmetry_1
_geom_bond_site_symmetry_2
O1 C1 1_555 1_555
O2 C4 1_555 1_555
O3 C6 1_555 1_555
O4 C6 1_555 1_555
N1 H1 1_555 1_555
C1 H2 1_555 1_555
H3 C1 1_555 1_555
C2 O1 1_555 1_555
C3 C2 1_555 1_555
H4 C3 1_555 1_555
H5 C3 1_555 1_555
H6 C3 1_555 1_555
C4 C2 1_555 1_555
C5 N1 1_555 1_555
H7 C5 1_555 1_555
C6 N1 1_555 1_555
C7 O4 1_555 1_555
C8 C7 1_555 1_555
H8 C8 1_555 1_555
H9 C8 1_555 1_555
H10 C8 1_555 1_555
C9 C7 1_555 1_555
H11 C9 1_555 1_555
H12 C9 1_555 1_555
H13 C9 1_555 1_555
C10 C7 1_555 1_555
H14 C10 1_555 1_555
H15 C10 1_555 1_555
H16 C10 1_555 1_555
C11 C5 1_555 1_555
H17 C11 1_555 1_555
H18 C11 1_555 1_555
C12 C11 1_555 1_555
H19 C12 1_555 1_555
C13 C12 1_555 1_555
H20 C13 1_555 1_555
H21 C13 1_555 1_555
H22 C13 1_555 1_555
C14 C12 1_555 1_555
H23 C14 1_555 1_555
H24 C14 1_555 1_555
H25 C14 1_555 1_555
C1 C2 1_555 1_555
C4 C5 1_555 1_555

#END
