
#######################################################################
#
#                 Cambridge Crystallographic Data Centre
#                                CCDC 
#
#######################################################################
#
# If this CIF has been generated from an entry in the Cambridge 
# Structural Database, then it will include bibliographic, chemical, 
# crystal, experimental, refinement or atomic coordinate data resulting 
# from the CCDC's data processing and validation procedures.
#
#######################################################################

data_OZINES
_chemical_formula_moiety         'C18 H25 N1 O3'
_chemical_name_systematic        
2-((2,2-Dimethyl-1,3-dioxolan-4-yl)methyl)-N-(4-methylphenyl)pent-4-enamide
_symmetry_cell_setting           monoclinic
_symmetry_space_group_name_H-M   'P 21/c'
_symmetry_Int_Tables_number      14
_space_group_name_Hall           '-P 2ybc'
loop_
_symmetry_equiv_pos_site_id
_symmetry_equiv_pos_as_xyz
1 x,y,z
2 -x,1/2+y,1/2-z
3 -x,-y,-z
4 x,1/2-y,1/2+z
_cell_length_a                   10.109(4)
_cell_length_b                   20.538(5)
_cell_length_c                   9.718(2)
_cell_angle_alpha                90
_cell_angle_beta                 118.555(4)
_cell_angle_gamma                90
_cell_volume                     1772.21
_exptl_crystal_colour            colorless
_exptl_crystal_description       block
_cell_formula_units_Z            4
loop_
_atom_site_label
_atom_site_type_symbol
_atom_site_fract_x
_atom_site_fract_y
_atom_site_fract_z
N1 N 0.2122(2) 0.27194(9) 0.0023(2)
H1 H 0.2273 0.2642 -0.0760
O1 O 0.2781(3) 0.23693(10) 0.2478(2)
O2 O 0.5313(2) 0.32488(11) 0.2252(4)
O3 O 0.7650(2) 0.36662(13) 0.3329(4)
C1 C 0.2948(3) 0.23639(11) 0.1308(3)
C2 C 0.4138(3) 0.19241(12) 0.1243(3)
H2 H 0.4091 0.1983 0.0220
C3 C 0.5701(3) 0.21064(14) 0.2495(4)
H3 H 0.5707 0.2122 0.3495
H4 H 0.6394 0.1766 0.2559
C4 C 0.6266(4) 0.27404(15) 0.2239(4)
H5 H 0.6241 0.2733 0.1218
C5 C 0.7779(4) 0.29843(19) 0.3462(6)
H6 H 0.7990 0.2843 0.4500
H7 H 0.8574 0.2829 0.3256
C6 C 0.6117(3) 0.38267(14) 0.2698(4)
C7 C 0.5796(6) 0.4141(2) 0.3921(5)
H8 H 0.4729 0.4153 0.3542
H9 H 0.6189 0.4576 0.4122
H10 H 0.6269 0.3892 0.4872
C8 C 0.5691(6) 0.4292(2) 0.1356(5)
H11 H 0.5928 0.4102 0.0598
H12 H 0.6243 0.4691 0.1739
H13 H 0.4631 0.4381 0.0875
C9 C 0.3761(4) 0.12112(14) 0.1377(4)
H14 H 0.4563 0.0937 0.1424
H15 H 0.3728 0.1155 0.2351
C10 C 0.2316(5) 0.09898(18) 0.0068(5)
H16 H 0.2195 0.1059 -0.0931
C11 C 0.1226(5) 0.0720(2) 0.0128(7)
H17 H 0.1276 0.0637 0.1093
H18 H 0.0371 0.0603 -0.0792
C12 C 0.1044(3) 0.32007(11) -0.0225(3)
C13 C 0.0474(3) 0.33360(14) 0.0785(3)
H19 H 0.0800 0.3099 0.1706
C14 C -0.0585(3) 0.38259(15) 0.0420(4)
H20 H -0.0963 0.3908 0.1107
C15 C -0.1093(3) 0.41929(14) -0.0911(4)
C16 C -0.0544(3) 0.40384(16) -0.1923(4)
H21 H -0.0888 0.4270 -0.2854
C17 C 0.0493(3) 0.35543(15) -0.1596(3)
H22 H 0.0833 0.3462 -0.2311
C18 C -0.2219(4) 0.47364(17) -0.1283(5)
H23 H -0.2926 0.4619 -0.0929
H24 H -0.2747 0.4809 -0.2394
H25 H -0.1701 0.5127 -0.0763
loop_
_geom_bond_atom_site_label_1
_geom_bond_atom_site_label_2
_geom_bond_site_symmetry_1
_geom_bond_site_symmetry_2
N1 H1 1_555 1_555
O1 C1 1_555 1_555
O2 C4 1_555 1_555
O3 C5 1_555 1_555
C1 N1 1_555 1_555
C2 C1 1_555 1_555
H2 C2 1_555 1_555
C3 C2 1_555 1_555
H3 C3 1_555 1_555
H4 C3 1_555 1_555
C4 C3 1_555 1_555
H5 C4 1_555 1_555
C5 C4 1_555 1_555
H6 C5 1_555 1_555
H7 C5 1_555 1_555
C6 O2 1_555 1_555
C7 C6 1_555 1_555
H8 C7 1_555 1_555
H9 C7 1_555 1_555
H10 C7 1_555 1_555
C8 C6 1_555 1_555
H11 C8 1_555 1_555
H12 C8 1_555 1_555
H13 C8 1_555 1_555
C9 C2 1_555 1_555
H14 C9 1_555 1_555
H15 C9 1_555 1_555
C10 C9 1_555 1_555
H16 C10 1_555 1_555
C11 C10 1_555 1_555
H17 C11 1_555 1_555
H18 C11 1_555 1_555
C12 N1 1_555 1_555
C13 C12 1_555 1_555
H19 C13 1_555 1_555
C14 C13 1_555 1_555
H20 C14 1_555 1_555
C15 C14 1_555 1_555
C16 C15 1_555 1_555
H21 C16 1_555 1_555
C17 C12 1_555 1_555
H22 C17 1_555 1_555
C18 C15 1_555 1_555
H23 C18 1_555 1_555
H24 C18 1_555 1_555
H25 C18 1_555 1_555
O3 C6 1_555 1_555
C16 C17 1_555 1_555

#END
