
#######################################################################
#
#                 Cambridge Crystallographic Data Centre
#                                CCDC 
#
#######################################################################
#
# If this CIF has been generated from an entry in the Cambridge 
# Structural Database, then it will include bibliographic, chemical, 
# crystal, experimental, refinement or atomic coordinate data resulting 
# from the CCDC's data processing and validation procedures.
#
#######################################################################

data_OZIVUP
_chemical_formula_moiety         'C5 H7 F1 N2'
_chemical_name_systematic        4-Fluoro-3,5-dimethyl-1H-pyrazole
_symmetry_cell_setting           rhombohedral
_symmetry_space_group_name_H-M   'R -3 c'
_symmetry_Int_Tables_number      167
_space_group_name_Hall           '-R 3 2"c'
loop_
_symmetry_equiv_pos_site_id
_symmetry_equiv_pos_as_xyz
1 x,y,z
2 -y,x-y,z
3 -x+y,-x,z
4 x-y,-y,1/2-z
5 -x,-x+y,1/2-z
6 y,x,1/2-z
7 2/3+x,1/3+y,1/3+z
8 2/3-y,1/3+x-y,1/3+z
9 2/3-x+y,1/3-x,1/3+z
10 2/3+x-y,1/3-y,5/6-z
11 2/3-x,1/3-x+y,5/6-z
12 2/3+y,1/3+x,5/6-z
13 1/3+x,2/3+y,2/3+z
14 1/3-y,2/3+x-y,2/3+z
15 1/3-x+y,2/3-x,2/3+z
16 1/3+x-y,2/3-y,1/6-z
17 1/3-x,2/3-x+y,1/6-z
18 1/3+y,2/3+x,1/6-z
19 -x,-y,-z
20 y,-x+y,-z
21 x-y,x,-z
22 -x+y,y,1/2+z
23 x,x-y,1/2+z
24 -y,-x,1/2+z
25 1/3-x,2/3-y,2/3-z
26 1/3+y,2/3-x+y,2/3-z
27 1/3+x-y,2/3+x,2/3-z
28 1/3-x+y,2/3+y,1/6+z
29 1/3+x,2/3+x-y,1/6+z
30 1/3-y,2/3-x,1/6+z
31 2/3-x,1/3-y,1/3-z
32 2/3+y,1/3-x+y,1/3-z
33 2/3+x-y,1/3+x,1/3-z
34 2/3-x+y,1/3+y,5/6+z
35 2/3+x,1/3+x-y,5/6+z
36 2/3-y,1/3-x,5/6+z
_cell_length_a                   12.0738(4)
_cell_length_b                   12.0738(4)
_cell_length_c                   20.3220(9)
_cell_angle_alpha                90
_cell_angle_beta                 90
_cell_angle_gamma                120
_cell_volume                     2565.58
_exptl_crystal_colour            colorless
_exptl_crystal_description       'rectangular prism'
_chemical_melting_point          '380-382 K'
_cell_formula_units_Z            18
loop_
_atom_site_label
_atom_site_type_symbol
_atom_site_fract_x
_atom_site_fract_y
_atom_site_fract_z
F1 F 0.6667 0.78799(9) 0.5833
N1 N 0.73157(9) 0.53673(13) 0.58165(5)
C1 C 0.6667 0.67581(14) 0.5833
C2 C 0.77404(12) 0.66296(16) 0.58074(6)
C3 C 0.91161(13) 0.76279(19) 0.57821(8)
H1 H 0.955(2) 0.750(3) 0.5450(12)
H2 H 0.953(2) 0.765(2) 0.6150(12)
H3 H 0.924(3) 0.844(3) 0.5647(12)
N1P N 0.60176(9) 0.47183(16) 0.58502(5)
C2P C 0.55929(12) 0.55559(20) 0.58593(6)
C3P C 0.42172(13) 0.51785(23) 0.58846(8)
H1P H 0.378(2) 0.462(4) 0.6217(12)
H2P H 0.380(2) 0.479(3) 0.5517(12)
H3P H 0.409(3) 0.587(4) 0.6020(12)
H4? H 0.7802 0.5017 0.5803
loop_
_geom_bond_atom_site_label_1
_geom_bond_atom_site_label_2
_geom_bond_site_symmetry_1
_geom_bond_site_symmetry_2
F1 C1 1_555 1_555
N1 C2 1_555 1_555
C1 C2 1_555 1_555
C2 C3 1_555 1_555
C3 H1 1_555 1_555
H2 C3 1_555 1_555
H3 C3 1_555 1_555
N1P N1 1_555 1_555
C2P C1 1_555 1_555
C3P C2P 1_555 1_555
H1P C3P 1_555 1_555
H2P C3P 1_555 1_555
H3P C3P 1_555 1_555
N1P C2P 1_555 1_555

#END
