
#######################################################################
#
#                 Cambridge Crystallographic Data Centre
#                                CCDC 
#
#######################################################################
#
# If this CIF has been generated from an entry in the Cambridge 
# Structural Database, then it will include bibliographic, chemical, 
# crystal, experimental, refinement or atomic coordinate data resulting 
# from the CCDC's data processing and validation procedures.
#
#######################################################################

data_OZIXOL
_chemical_formula_moiety         'C18 H19 N1 O5 S1'
_chemical_name_systematic        
(R)-3-Benzyl-4-((S)-hydroxy(4-methylsulfonylphenyl)methyl)oxazolidin-2-one
_symmetry_cell_setting           monoclinic
_symmetry_space_group_name_H-M   'P 21'
_symmetry_Int_Tables_number      4
_space_group_name_Hall           'P 2yb'
loop_
_symmetry_equiv_pos_site_id
_symmetry_equiv_pos_as_xyz
1 x,y,z
2 -x,1/2+y,-z
_cell_length_a                   7.8182(11)
_cell_length_b                   9.8920(14)
_cell_length_c                   11.5910(16)
_cell_angle_alpha                90
_cell_angle_beta                 98.962(2)
_cell_angle_gamma                90
_cell_volume                     885.477
_exptl_crystal_colour            colorless
_exptl_crystal_description       block
_cell_formula_units_Z            2
loop_
_atom_site_label
_atom_site_type_symbol
_atom_site_fract_x
_atom_site_fract_y
_atom_site_fract_z
C1 C 0.6220(5) 0.6143(4) 0.4134(4)
H1 H 0.7298 0.6067 0.4655
H2 H 0.5488 0.6784 0.4443
H3 H 0.6435 0.6443 0.3382
C2 C 0.3307(3) 0.4859(3) 0.2974(2)
C3 C 0.1753(4) 0.5032(4) 0.3372(3)
H4 H 0.1707 0.5018 0.4168
C4 C 0.0258(4) 0.5228(4) 0.2577(3)
H5 H -0.0788 0.5367 0.2848
C5 C 0.0291(3) 0.5221(3) 0.1399(2)
C6 C 0.1859(3) 0.5010(3) 0.1009(2)
H6 H 0.1896 0.4988 0.0212
C7 C 0.3375(3) 0.4829(3) 0.1794(2)
H7 H 0.4422 0.4689 0.1527
C8 C -0.1371(3) 0.5407(3) 0.0535(3)
H8 H -0.1194 0.6101 -0.0037
C9 C -0.1855(3) 0.4073(3) -0.0093(2)
H9 H -0.0879 0.3733 -0.0446
C10 C -0.2441(4) 0.3001(3) 0.0717(3)
H10 H -0.1718 0.2201 0.0738
H11 H -0.2371 0.3351 0.1504
C11 C -0.4698(4) 0.3424(3) -0.0725(3)
C12 C -0.3584(4) 0.5137(3) -0.1944(3)
H12 H -0.3763 0.6038 -0.1654
H13 H -0.4595 0.4900 -0.2504
C13 C -0.2013(4) 0.5140(3) -0.2543(2)
C14 C -0.1347(6) 0.3961(5) -0.2914(4)
H14 H -0.1902 0.3143 -0.2832
C15 C 0.0143(9) 0.3995(8) -0.3409(5)
H15 H 0.0607 0.3190 -0.3635
C16 C 0.0947(6) 0.5174(12) -0.3571(4)
H16 H 0.1952 0.5179 -0.3907
C17 C 0.0283(7) 0.6336(8) -0.3245(4)
H17 H 0.0818 0.7152 -0.3370
C18 C -0.1198(5) 0.6331(4) -0.2721(3)
H18 H -0.1640 0.7142 -0.2489
N1 N -0.3398(3) 0.4182(3) -0.0977(2)
O1 O 0.6302(3) 0.3666(3) 0.3485(3)
O2 O 0.4689(3) 0.4234(3) 0.5090(2)
O3 O -0.2771(3) 0.5775(2) 0.1092(2)
H19 H -0.3011 0.6572 0.0957
O4 O -0.4204(3) 0.2684(2) 0.0237(2)
O5 O -0.6156(3) 0.3353(2) -0.1265(2)
S1 S 0.52086(9) 0.45851(9) 0.39948(7)
loop_
_geom_bond_atom_site_label_1
_geom_bond_atom_site_label_2
_geom_bond_site_symmetry_1
_geom_bond_site_symmetry_2
C1 H1 1_555 1_555
H2 C1 1_555 1_555
H3 C1 1_555 1_555
C2 C3 1_555 1_555
C3 H4 1_555 1_555
C4 C3 1_555 1_555
H5 C4 1_555 1_555
C5 C4 1_555 1_555
C6 C5 1_555 1_555
H6 C6 1_555 1_555
C7 C2 1_555 1_555
H7 C7 1_555 1_555
C8 C5 1_555 1_555
H8 C8 1_555 1_555
C9 C8 1_555 1_555
H9 C9 1_555 1_555
C10 C9 1_555 1_555
H10 C10 1_555 1_555
H11 C10 1_555 1_555
C11 N1 1_555 1_555
C12 H12 1_555 1_555
H13 C12 1_555 1_555
C13 C12 1_555 1_555
C14 C13 1_555 1_555
H14 C14 1_555 1_555
C15 C14 1_555 1_555
H15 C15 1_555 1_555
C16 C15 1_555 1_555
H16 C16 1_555 1_555
C17 C16 1_555 1_555
H17 C17 1_555 1_555
C18 C13 1_555 1_555
H18 C18 1_555 1_555
N1 C9 1_555 1_555
O1 S1 1_555 1_555
O2 S1 1_555 1_555
O3 C8 1_555 1_555
H19 O3 1_555 1_555
O4 C10 1_555 1_555
O5 C11 1_555 1_555
S1 C1 1_555 1_555
C2 S1 1_555 1_555
C6 C7 1_555 1_555
C11 O4 1_555 1_555
C12 N1 1_555 1_555
C17 C18 1_555 1_555

#END
