
#######################################################################
#
#                 Cambridge Crystallographic Data Centre
#                                CCDC 
#
#######################################################################
#
# If this CIF has been generated from an entry in the Cambridge 
# Structural Database, then it will include bibliographic, chemical, 
# crystal, experimental, refinement or atomic coordinate data resulting 
# from the CCDC's data processing and validation procedures.
#
#######################################################################

data_OZIZEE
_chemical_formula_moiety         'C13 H12 N2 O2'
_chemical_name_systematic        
2-ethyl-1-methyl-3H-dipyrrolo[1,2-c:2',1'-f]pyrimidine-3,5-dione
_symmetry_cell_setting           monoclinic
_symmetry_space_group_name_H-M   'P 21/c'
_symmetry_Int_Tables_number      14
_space_group_name_Hall           '-P 2ybc'
loop_
_symmetry_equiv_pos_site_id
_symmetry_equiv_pos_as_xyz
1 x,y,z
2 -x,1/2+y,1/2-z
3 -x,-y,-z
4 x,1/2-y,1/2+z
_cell_length_a                   10.7378(5)
_cell_length_b                   6.9448(3)
_cell_length_c                   14.5295(7)
_cell_angle_alpha                90
_cell_angle_beta                 96.174(3)
_cell_angle_gamma                90
_cell_volume                     1077.21
_exptl_crystal_colour            yellow
_exptl_crystal_description       plate
_cell_formula_units_Z            4
loop_
_atom_site_label
_atom_site_type_symbol
_atom_site_fract_x
_atom_site_fract_y
_atom_site_fract_z
C1 C 1.1603(2) 0.2049(3) 0.57037(16)
C2 C 1.1987(2) 0.1699(3) 0.66011(15)
O1 O 1.08545(14) 0.1465(2) 0.79545(11)
C3 C 1.0901(2) 0.1726(3) 0.71306(16)
N1 N 0.98367(16) 0.2095(3) 0.64722(12)
O2 O 0.82411(15) 0.2029(2) 0.74126(11)
C4 C 0.8606(2) 0.2218(3) 0.66553(16)
N2 N 0.77858(16) 0.2548(3) 0.58578(12)
C5 C 0.6496(2) 0.2651(3) 0.58190(17)
H1 H 0.6018 0.2567 0.6331
C6 C 0.6032(2) 0.2894(3) 0.49191(16)
H2 H 0.5171 0.3009 0.4694
C7 C 0.7051(2) 0.2947(3) 0.43727(16)
H3 H 0.6993 0.3102 0.3720
C8 C 0.8133(2) 0.2735(3) 0.49568(15)
C9 C 0.9431(2) 0.2628(3) 0.48338(16)
H4 H 0.9708 0.2782 0.4239
C10 C 1.0252(2) 0.2305(3) 0.55826(15)
C11 C 1.2377(2) 0.2123(3) 0.49086(16)
H5 H 1.3105 0.1275 0.5035
H6 H 1.2661 0.3446 0.4826
H7 H 1.1872 0.1695 0.4344
C12 C 1.3269(2) 0.1309(3) 0.70633(16)
H8 H 1.3793 0.0797 0.6598
H9 H 1.3215 0.0302 0.7540
C13 C 1.3907(2) 0.3070(4) 0.75171(17)
H10 H 1.4717 0.2697 0.7844
H11 H 1.3378 0.3621 0.7959
H12 H 1.4038 0.4028 0.7042
loop_
_geom_bond_atom_site_label_1
_geom_bond_atom_site_label_2
_geom_bond_site_symmetry_1
_geom_bond_site_symmetry_2
C1 C2 1_555 1_555
C2 C3 1_555 1_555
O1 C3 1_555 1_555
C3 N1 1_555 1_555
N1 C4 1_555 1_555
O2 C4 1_555 1_555
C4 N2 1_555 1_555
N2 C5 1_555 1_555
C5 H1 1_555 1_555
C6 C5 1_555 1_555
H2 C6 1_555 1_555
C7 C6 1_555 1_555
H3 C7 1_555 1_555
C8 N2 1_555 1_555
C9 C8 1_555 1_555
H4 C9 1_555 1_555
C10 C1 1_555 1_555
C11 C1 1_555 1_555
H5 C11 1_555 1_555
H6 C11 1_555 1_555
H7 C11 1_555 1_555
C12 C2 1_555 1_555
H8 C12 1_555 1_555
H9 C12 1_555 1_555
C13 C12 1_555 1_555
H10 C13 1_555 1_555
H11 C13 1_555 1_555
H12 C13 1_555 1_555
N1 C10 1_555 1_555
C7 C8 1_555 1_555
C9 C10 1_555 1_555

#END
