
#######################################################################
#
#                 Cambridge Crystallographic Data Centre
#                                CCDC 
#
#######################################################################
#
# If this CIF has been generated from an entry in the Cambridge 
# Structural Database, then it will include bibliographic, chemical, 
# crystal, experimental, refinement or atomic coordinate data resulting 
# from the CCDC's data processing and validation procedures.
#
#######################################################################

data_OZODUE
_chemical_formula_moiety         'C17 H19 N3 O2'
_chemical_name_systematic        
'(E)-4-((4-(diethylamino)phenyl)diazenyl)benzoic acid'
_symmetry_cell_setting           triclinic
_symmetry_space_group_name_H-M   'P -1'
_symmetry_Int_Tables_number      2
_space_group_name_Hall           '-P 1'
loop_
_symmetry_equiv_pos_site_id
_symmetry_equiv_pos_as_xyz
1 x,y,z
2 -x,-y,-z
_cell_length_a                   7.921(5)
_cell_length_b                   14.169(10)
_cell_length_c                   14.875(11)
_cell_angle_alpha                110.092(8)
_cell_angle_beta                 103.584(9)
_cell_angle_gamma                90.916(5)
_cell_volume                     1515.43
_exptl_crystal_colour            red
_exptl_crystal_description       Prism
_cell_formula_units_Z            4
loop_
_atom_site_label
_atom_site_type_symbol
_atom_site_fract_x
_atom_site_fract_y
_atom_site_fract_z
C1 C 1.0186(3) 0.07037(15) -0.06636(15)
H1 H 0.97 0.0024 -0.0861
C2 C 0.9210(3) 0.14856(15) -0.03195(15)
H2 H 0.8055 0.1344 -0.0286
C3 C 0.9934(2) 0.24865(14) -0.00207(13)
C4 C 1.1606(3) 0.26863(15) -0.01034(14)
H3 H 1.2081 0.3366 0.0079
C5 C 1.2591(3) 0.18984(15) -0.04510(14)
H4 H 1.3735 0.2036 -0.0502
C6 C 1.1871(3) 0.09028(15) -0.07236(14)
C7 C 0.8891(2) 0.33110(14) 0.03630(13)
C8 C 1.4926(3) -0.07128(15) -0.16555(14)
C9 C 1.4492(2) -0.16276(15) -0.15587(14)
H5 H 1.3635 -0.1666 -0.1217
C10 C 1.5292(2) -0.24743(15) -0.19537(14)
H6 H 1.4967 -0.3091 -0.1888
C11 C 1.6595(2) -0.24383(14) -0.24567(14)
C12 C 1.7064(3) -0.15031(15) -0.25163(15)
H7 H 1.7963 -0.1446 -0.2825
C13 C 1.6226(3) -0.06676(15) -0.21291(15)
H8 H 1.6547 -0.0047 -0.2188
C14 C 1.8602(3) -0.33039(16) -0.34513(15)
H9 H 1.8303 -0.2829 -0.3807
H10 H 1.8518 -0.3989 -0.3953
C15 C 1.6995(3) -0.42424(15) -0.27334(15)
H11 H 1.6781 -0.4087 -0.2071
H12 H 1.8042 -0.4614 -0.2751
C16 C 2.0460(3) -0.3010(2) -0.28188(19)
H13 H 2.1251 -0.3028 -0.324
H14 H 2.0775 -0.3486 -0.2475
H15 H 2.0559 -0.2326 -0.2331
C17 C 1.5442(3) -0.49132(18) -0.35088(17)
H16 H 1.5268 -0.5535 -0.3377
H17 H 1.5656 -0.5083 -0.4166
H18 H 1.4394 -0.4556 -0.3486
N1 N 1.2742(2) 0.00256(13) -0.10584(12)
N2 N 1.4100(2) 0.01743(13) -0.13256(12)
N3 N 1.7344(2) -0.32968(12) -0.28773(13)
O1 O 0.73317(19) 0.30814(11) 0.03613(11)
H19 H 0.6874 0.3612 0.0596
O2 O 0.95887(19) 0.42264(10) 0.06869(11)
C18 C 0.2153(2) 0.67333(14) 0.18732(14)
H20 H 0.0935 0.6569 0.1759
C19 C 0.3180(2) 0.59858(14) 0.15038(14)
H21 H 0.2669 0.5308 0.1155
C20 C 0.4960(3) 0.62253(14) 0.16425(13)
C21 C 0.5698(3) 0.72259(14) 0.21426(14)
H22 H 0.6899 0.7398 0.2217
C22 C 0.4674(3) 0.79709(15) 0.25319(14)
H23 H 0.5179 0.865 0.2881
C23 C 0.2897(3) 0.77174(15) 0.24078(14)
C24 C 0.6056(2) 0.54221(14) 0.12681(14)
C25 C 0.1481(2) 0.99389(14) 0.38950(14)
C26 C -0.0216(3) 1.00202(15) 0.34021(14)
H24 H -0.0776 0.9506 0.2789
C27 C -0.1084(3) 1.08339(15) 0.37926(14)
H25 H -0.2239 1.087 0.3446
C28 C -0.0289(2) 1.16190(14) 0.47010(14)
C29 C 0.1405(3) 1.15128(15) 0.51976(15)
H26 H 0.1967 1.2016 0.5818
C30 C 0.2261(3) 1.06929(15) 0.48015(14)
H27 H 0.3403 1.0641 0.5153
C31 C -0.0377(3) 1.31990(15) 0.60713(15)
H28 H 0.0256 1.2852 0.6504
H29 H -0.1337 1.3509 0.6352
C32 C -0.2868(3) 1.25982(16) 0.45901(15)
H30 H -0.306 1.2265 0.3865
H31 H -0.2947 1.333 0.4736
C33 C 0.0867(3) 1.40273(18) 0.60753(18)
H32 H 0.1324 1.4504 0.6755
H33 H 0.0243 1.4385 0.5661
H34 H 0.1837 1.3727 0.5813
C34 C -0.4281(3) 1.2177(2) 0.49156(18)
H35 H -0.5426 1.2293 0.4567
H36 H -0.4113 1.2515 0.5631
H37 H -0.4224 1.145 0.4761
N4 N 0.1746(2) 0.84358(12) 0.27739(12)
N5 N 0.2531(2) 0.91734(12) 0.35373(12)
N6 N -0.1122(2) 1.24509(13) 0.50816(12)
O3 O 0.76495(18) 0.56640(11) 0.13416(11)
H38 H 0.812 0.5141 0.1103
O4 O 0.53562(18) 0.45072(10) 0.08966(11)
loop_
_geom_bond_atom_site_label_1
_geom_bond_atom_site_label_2
_geom_bond_site_symmetry_1
_geom_bond_site_symmetry_2
C1 H1 1_555 1_555
C2 C1 1_555 1_555
H2 C2 1_555 1_555
C3 C2 1_555 1_555
C4 C3 1_555 1_555
H3 C4 1_555 1_555
C5 C4 1_555 1_555
H4 C5 1_555 1_555
C6 C1 1_555 1_555
C7 C3 1_555 1_555
C8 C9 1_555 1_555
C9 H5 1_555 1_555
C10 C9 1_555 1_555
H6 C10 1_555 1_555
C11 C10 1_555 1_555
C12 C11 1_555 1_555
H7 C12 1_555 1_555
C13 C8 1_555 1_555
H8 C13 1_555 1_555
C14 H9 1_555 1_555
H10 C14 1_555 1_555
C15 H11 1_555 1_555
H12 C15 1_555 1_555
C16 C14 1_555 1_555
H13 C16 1_555 1_555
H14 C16 1_555 1_555
H15 C16 1_555 1_555
C17 C15 1_555 1_555
H16 C17 1_555 1_555
H17 C17 1_555 1_555
H18 C17 1_555 1_555
N1 C6 1_555 1_555
N2 C8 1_555 1_555
N3 C11 1_555 1_555
O1 C7 1_555 1_555
H19 O1 1_555 1_555
O2 C7 1_555 1_555
C18 H20 1_555 1_555
C19 C18 1_555 1_555
H21 C19 1_555 1_555
C20 C19 1_555 1_555
C21 C20 1_555 1_555
H22 C21 1_555 1_555
C22 C21 1_555 1_555
H23 C22 1_555 1_555
C23 C18 1_555 1_555
C24 C20 1_555 1_555
C25 C26 1_555 1_555
C26 H24 1_555 1_555
C27 C26 1_555 1_555
H25 C27 1_555 1_555
C28 C27 1_555 1_555
C29 C28 1_555 1_555
H26 C29 1_555 1_555
C30 C25 1_555 1_555
H27 C30 1_555 1_555
C31 H28 1_555 1_555
H29 C31 1_555 1_555
C32 H30 1_555 1_555
H31 C32 1_555 1_555
C33 C31 1_555 1_555
H32 C33 1_555 1_555
H33 C33 1_555 1_555
H34 C33 1_555 1_555
C34 C32 1_555 1_555
H35 C34 1_555 1_555
H36 C34 1_555 1_555
H37 C34 1_555 1_555
N4 C23 1_555 1_555
N5 C25 1_555 1_555
N6 C28 1_555 1_555
O3 C24 1_555 1_555
H38 O3 1_555 1_555
O4 C24 1_555 1_555
C5 C6 1_555 1_555
C12 C13 1_555 1_555
C14 N3 1_555 1_555
C15 N3 1_555 1_555
N1 N2 1_555 1_555
C22 C23 1_555 1_555
C29 C30 1_555 1_555
C31 N6 1_555 1_555
C32 N6 1_555 1_555
N4 N5 1_555 1_555

#END
