
#######################################################################
#
#                 Cambridge Crystallographic Data Centre
#                                CCDC 
#
#######################################################################
#
# If this CIF has been generated from an entry in the Cambridge 
# Structural Database, then it will include bibliographic, chemical, 
# crystal, experimental, refinement or atomic coordinate data resulting 
# from the CCDC's data processing and validation procedures.
#
#######################################################################

data_OZONEX
_chemical_compound_source        
'the barks of Schefflera heptaphylla (L.) Frodin'
_chemical_name_common            
'3alpha,13-dihydroxyurs-11-en-23,28-dioic acid-13,28-lactone'
_chemical_formula_moiety         'C30 H44 O5'
_chemical_name_systematic        
'3-Hydroxy-28-oxo-13,28-epoxyurs-11-en-23-oic acid'
_symmetry_cell_setting           monoclinic
_symmetry_space_group_name_H-M   'P 21'
_symmetry_Int_Tables_number      4
_space_group_name_Hall           'P 2yb'
loop_
_symmetry_equiv_pos_site_id
_symmetry_equiv_pos_as_xyz
1 x,y,z
2 -x,1/2+y,-z
_cell_length_a                   12.5001(4)
_cell_length_b                   6.9690(2)
_cell_length_c                   14.8731(5)
_cell_angle_alpha                90
_cell_angle_beta                 93.711(3)
_cell_angle_gamma                90
_cell_volume                     1292.93
_exptl_crystal_colour            colorless
_exptl_crystal_description       block
_cell_formula_units_Z            2
loop_
_atom_site_label
_atom_site_type_symbol
_atom_site_fract_x
_atom_site_fract_y
_atom_site_fract_z
O1 O 0.3655(2) -0.0577(5) -0.2003(2)
H1 H 0.3653 -0.0800 -0.1462
O2 O 0.1539(2) -0.0760(5) -0.23946(19)
O3 O 0.0790(2) 0.1944(5) -0.28908(18)
H2 H 0.0346 0.1192 -0.3117
O4 O 0.0833(2) 0.5096(5) 0.38469(18)
O5 O 0.20669(18) 0.4158(4) 0.29224(15)
C1 C 0.4236(2) 0.2201(6) -0.0558(2)
H3 H 0.4800 0.2879 -0.0211
H4 H 0.4292 0.0854 -0.0398
C2 C 0.4423(2) 0.2411(7) -0.1550(3)
H5 H 0.5112 0.1853 -0.1666
H6 H 0.4447 0.3764 -0.1702
C3 C 0.3544(3) 0.1431(6) -0.2152(3)
H7 H 0.3671 0.1702 -0.2782
C4 C 0.2416(3) 0.2227(6) -0.1952(2)
C5 C 0.2270(2) 0.1989(5) -0.0924(2)
H8 H 0.2367 0.0612 -0.0813
C6 C 0.1142(2) 0.2410(6) -0.0645(2)
H9 H 0.0623 0.1819 -0.1073
H10 H 0.1020 0.3784 -0.0658
C7 C 0.0976(2) 0.1649(6) 0.0298(2)
H11 H 0.1021 0.0259 0.0291
H12 H 0.0263 0.1995 0.0462
C8 C 0.1811(2) 0.2439(5) 0.1021(2)
C9 C 0.2955(2) 0.2190(5) 0.0674(2)
H13 H 0.3050 0.0798 0.0629
C10 C 0.3144(2) 0.2959(5) -0.0286(2)
C11 C 0.3787(2) 0.2809(6) 0.1404(2)
H14 H 0.4455 0.3193 0.1230
C12 C 0.3620(2) 0.2838(6) 0.2278(2)
H15 H 0.4184 0.3218 0.2677
C13 C 0.2583(3) 0.2297(5) 0.2664(2)
C14 C 0.1798(2) 0.1305(5) 0.1946(2)
C15 C 0.0673(2) 0.1223(6) 0.2313(2)
H16 H 0.0334 0.2469 0.2232
H17 H 0.0241 0.0299 0.1963
C16 C 0.0688(3) 0.0670(7) 0.3311(2)
H18 H 0.0836 -0.0692 0.3371
H19 H -0.0015 0.0903 0.3528
C17 C 0.1528(3) 0.1790(6) 0.3901(2)
C18 C 0.2666(3) 0.1358(5) 0.3616(2)
H20 H 0.3134 0.2218 0.3985
C19 C 0.3071(3) -0.0666(6) 0.3860(2)
H21 H 0.2599 -0.1605 0.3545
C20 C 0.2985(3) -0.0908(8) 0.4893(3)
H22 H 0.3467 0.0026 0.5201
C21 C 0.1840(4) -0.0502(8) 0.5162(3)
H23 H 0.1359 -0.1448 0.4879
H24 H 0.1821 -0.0652 0.5810
C22 C 0.1438(3) 0.1469(8) 0.4904(3)
H25 H 0.1857 0.2428 0.5243
H26 H 0.0696 0.1599 0.5049
C23 C 0.1554(3) 0.0975(6) -0.2428(2)
C24 C 0.2318(3) 0.4300(6) -0.2312(2)
H27 H 0.2420 0.4308 -0.2946
H28 H 0.2855 0.5088 -0.2004
H29 H 0.1620 0.4794 -0.2209
C25 C 0.3176(3) 0.5181(6) -0.0309(3)
H30 H 0.3293 0.5604 -0.0909
H31 H 0.3748 0.5634 0.0098
H32 H 0.2506 0.5683 -0.0131
C26 C 0.1536(3) 0.4580(6) 0.1134(2)
H33 H 0.1549 0.5217 0.0563
H34 H 0.2054 0.5161 0.1555
H35 H 0.0835 0.4696 0.1356
C27 C 0.2156(3) -0.0782(5) 0.1811(2)
H36 H 0.2149 -0.1461 0.2372
H37 H 0.2868 -0.0794 0.1605
H38 H 0.1674 -0.1394 0.1371
C28 C 0.1425(3) 0.3838(6) 0.3593(2)
C29 C 0.4211(3) -0.0992(9) 0.3593(3)
H39 H 0.4236 -0.0844 0.2953
H40 H 0.4437 -0.2265 0.3764
H41 H 0.4681 -0.0072 0.3894
C30 C 0.3332(5) -0.2911(11) 0.5209(4)
H42 H 0.3265 -0.3016 0.5846
H43 H 0.4064 -0.3122 0.5078
H44 H 0.2883 -0.3853 0.4901
loop_
_geom_bond_atom_site_label_1
_geom_bond_atom_site_label_2
_geom_bond_site_symmetry_1
_geom_bond_site_symmetry_2
O1 H1 1_555 1_555
O2 C23 1_555 1_555
O3 H2 1_555 1_555
O4 C28 1_555 1_555
O5 C13 1_555 1_555
C1 H3 1_555 1_555
H4 C1 1_555 1_555
C2 C1 1_555 1_555
H5 C2 1_555 1_555
H6 C2 1_555 1_555
C3 O1 1_555 1_555
H7 C3 1_555 1_555
C4 C3 1_555 1_555
C5 C4 1_555 1_555
H8 C5 1_555 1_555
C6 C5 1_555 1_555
H9 C6 1_555 1_555
H10 C6 1_555 1_555
C7 C6 1_555 1_555
H11 C7 1_555 1_555
H12 C7 1_555 1_555
C8 C7 1_555 1_555
C9 C8 1_555 1_555
H13 C9 1_555 1_555
C10 C1 1_555 1_555
C11 C9 1_555 1_555
H14 C11 1_555 1_555
C12 C11 1_555 1_555
H15 C12 1_555 1_555
C13 C12 1_555 1_555
C14 C8 1_555 1_555
C15 C14 1_555 1_555
H16 C15 1_555 1_555
H17 C15 1_555 1_555
C16 C15 1_555 1_555
H18 C16 1_555 1_555
H19 C16 1_555 1_555
C17 C16 1_555 1_555
C18 C13 1_555 1_555
H20 C18 1_555 1_555
C19 C18 1_555 1_555
H21 C19 1_555 1_555
C20 C19 1_555 1_555
H22 C20 1_555 1_555
C21 C20 1_555 1_555
H23 C21 1_555 1_555
H24 C21 1_555 1_555
C22 C17 1_555 1_555
H25 C22 1_555 1_555
H26 C22 1_555 1_555
C23 O3 1_555 1_555
C24 C4 1_555 1_555
H27 C24 1_555 1_555
H28 C24 1_555 1_555
H29 C24 1_555 1_555
C25 C10 1_555 1_555
H30 C25 1_555 1_555
H31 C25 1_555 1_555
H32 C25 1_555 1_555
C26 C8 1_555 1_555
H33 C26 1_555 1_555
H34 C26 1_555 1_555
H35 C26 1_555 1_555
C27 C14 1_555 1_555
H36 C27 1_555 1_555
H37 C27 1_555 1_555
H38 C27 1_555 1_555
C28 O5 1_555 1_555
C29 C19 1_555 1_555
H39 C29 1_555 1_555
H40 C29 1_555 1_555
H41 C29 1_555 1_555
C30 C20 1_555 1_555
H42 C30 1_555 1_555
H43 C30 1_555 1_555
H44 C30 1_555 1_555
C2 C3 1_555 1_555
C4 C23 1_555 1_555
C5 C10 1_555 1_555
C9 C10 1_555 1_555
C13 C14 1_555 1_555
C17 C18 1_555 1_555
C17 C28 1_555 1_555
C21 C22 1_555 1_555

#END
