
#######################################################################
#
#                 Cambridge Crystallographic Data Centre
#                                CCDC 
#
#######################################################################
#
# If this CIF has been generated from an entry in the Cambridge 
# Structural Database, then it will include bibliographic, chemical, 
# crystal, experimental, refinement or atomic coordinate data resulting 
# from the CCDC's data processing and validation procedures.
#
#######################################################################

data_OZOSAY
_chemical_formula_moiety         'C80 H120 Li4 O7 P2'
_chemical_name_systematic        
"bis(\m~4~-2,2'-(Phenylphosphinediyl)bis(4,6-di-t-butylphenolato))-tris(diethyl ether)-tetra-lithium"
_symmetry_cell_setting           monoclinic
_symmetry_space_group_name_H-M   'C 2/c'
_symmetry_Int_Tables_number      15
_space_group_name_Hall           '-C 2yn'
loop_
_symmetry_equiv_pos_site_id
_symmetry_equiv_pos_as_xyz
1 x,y,z
2 -x,y,1/2-z
3 1/2+x,1/2+y,z
4 1/2-x,1/2+y,1/2-z
5 -x,-y,-z
6 x,-y,1/2+z
7 1/2-x,1/2-y,-z
8 1/2+x,1/2-y,1/2+z
_cell_length_a                   20.5594(3)
_cell_length_b                   21.5581(4)
_cell_length_c                   19.6062(4)
_cell_angle_alpha                90
_cell_angle_beta                 114.2490(10)
_cell_angle_gamma                90
_cell_volume                     7923.18
_exptl_crystal_colour            colorless
_exptl_crystal_description       prism
_cell_formula_units_Z            4
loop_
_atom_site_label
_atom_site_type_symbol
_atom_site_fract_x
_atom_site_fract_y
_atom_site_fract_z
P1 P 0.49525(3) 0.32500(3) 0.12475(3)
O1 O 0.56069(9) 0.42155(8) 0.23335(9)
O2 O 0.65835(11) 0.22896(10) 0.28624(13)
O3 O 0.48454(9) 0.19635(8) 0.17574(9)
C1 C 0.58359(12) 0.35878(11) 0.14629(13)
C2 C 0.60584(12) 0.40414(11) 0.20384(13)
C3 C 0.67631(13) 0.42844(11) 0.22846(13)
C4 C 0.70695(14) 0.47564(12) 0.29323(14)
C5 C 0.69970(17) 0.45200(15) 0.36361(15)
H1 H 0.7167 0.4839 0.4026
H2 H 0.7283 0.4143 0.3816
H3 H 0.6495 0.4427 0.3516
C6 C 0.78666(14) 0.48837(15) 0.31544(17)
H4 H 0.8043 0.5172 0.3578
H5 H 0.7932 0.5066 0.2729
H6 H 0.8133 0.4494 0.3298
C7 C 0.66782(16) 0.53753(13) 0.26814(18)
H7 H 0.6864 0.5675 0.3093
H8 H 0.6167 0.5313 0.2539
H9 H 0.6753 0.5534 0.2251
C8 C 0.71721(13) 0.40938(12) 0.19076(14)
H10 H 0.7638 0.4262 0.2065
C9 C 0.69471(13) 0.36731(12) 0.13135(14)
C10 C 0.74121(13) 0.35006(13) 0.08948(15)
C11 C 0.81110(16) 0.38705(16) 0.1176(2)
H11 H 0.8385 0.3752 0.0888
H12 H 0.8391 0.3781 0.1706
H13 H 0.8003 0.4315 0.1111
C12 C 0.70021(16) 0.36382(16) 0.00620(16)
H14 H 0.6566 0.3388 -0.0138
H15 H 0.7301 0.3535 -0.0204
H16 H 0.6877 0.4079 -0.0007
C13 C 0.75964(16) 0.28087(14) 0.09990(17)
H17 H 0.7156 0.2564 0.0811
H18 H 0.7869 0.2720 0.1532
H19 H 0.7882 0.2699 0.0721
C14 C 0.62735(13) 0.34169(12) 0.11107(14)
H20 H 0.6108 0.3117 0.0721
C15 C 0.43523(13) 0.37583(11) 0.05048(13)
C16 C 0.45163(16) 0.43671(13) 0.04226(17)
H21 H 0.4970 0.4528 0.0742
C17 C 0.40299(18) 0.47483(15) -0.01200(19)
H22 H 0.4153 0.5166 -0.0167
C18 C 0.33740(17) 0.45243(15) -0.05872(17)
H23 H 0.3044 0.4783 -0.0962
C19 C 0.31989(16) 0.39247(16) -0.05088(18)
H24 H 0.2743 0.3768 -0.0828
C20 C 0.36801(14) 0.35463(14) 0.00304(16)
H25 H 0.3549 0.3131 0.0078
C21 C 0.48681(12) 0.25289(11) 0.07279(13)
C22 C 0.47683(12) 0.19708(11) 0.10547(13)
C23 C 0.45883(13) 0.14203(11) 0.06066(13)
C24 C 0.44178(15) 0.08066(12) 0.08997(15)
C25 C 0.50843(19) 0.05600(15) 0.15455(19)
H26 H 0.4968 0.0173 0.1734
H27 H 0.5254 0.0868 0.1949
H28 H 0.5458 0.0480 0.1368
C26 C 0.38067(19) 0.08985(15) 0.1144(2)
H29 H 0.3385 0.1054 0.0721
H30 H 0.3951 0.1199 0.1555
H31 H 0.3693 0.0501 0.1313
C27 C 0.41603(19) 0.03020(14) 0.02962(18)
H32 H 0.3731 0.0446 -0.0126
H33 H 0.4050 -0.0076 0.0505
H34 H 0.4535 0.0214 0.0124
C28 C 0.45794(13) 0.14512(12) -0.01045(13)
H35 H 0.4476 0.1082 -0.0395
C29 C 0.47130(12) 0.19924(12) -0.04211(13)
C30 C 0.47054(14) 0.20043(13) -0.12061(14)
C31 C 0.4692(2) 0.13477(16) -0.15179(19)
H36 H 0.5099 0.1110 -0.1169
H37 H 0.4723 0.1375 -0.2003
H38 H 0.4247 0.1140 -0.1581
C32 C 0.40575(18) 0.2365(2) -0.17344(16)
H39 H 0.3622 0.2144 -0.1791
H40 H 0.4077 0.2403 -0.2224
H41 H 0.4057 0.2779 -0.1528
C33 C 0.53838(16) 0.23195(15) -0.11747(16)
H42 H 0.5803 0.2095 -0.0825
H43 H 0.5398 0.2749 -0.1004
H44 H 0.5385 0.2317 -0.1674
C34 C 0.48360(12) 0.25270(12) 0.00037(13)
H45 H 0.4901 0.2907 -0.0206
C35 C 0.6695(2) 0.1650(2) 0.1940(3)
H46 H 0.7008 0.1547 0.1691
H47 H 0.6236 0.1799 0.1569
H48 H 0.6619 0.1279 0.2187
C36 C 0.7030(2) 0.2137(2) 0.2502(2)
H49 H 0.7496 0.1989 0.2875
H50 H 0.7114 0.2510 0.2255
C37 C 0.6836(2) 0.28302(18) 0.3353(2)
H51 H 0.6972 0.3158 0.3082
H52 H 0.6436 0.2993 0.3458
C38 C 0.7435(2) 0.2714(2) 0.4057(2)
H53 H 0.7559 0.3096 0.4353
H54 H 0.7844 0.2576 0.3962
H55 H 0.7307 0.2391 0.4332
O4 O 0.51356(19) 0.56140(13) 0.27394(15)
C39 C 0.4897(3) 0.5930(3) 0.3765(2)
H56 H 0.5122 0.6051 0.4293
H57 H 0.4598 0.5563 0.3709
H58 H 0.4600 0.6273 0.3470
C40 C 0.5455(2) 0.5786(2) 0.34954(14)
H59 H 0.5761 0.6155 0.3556
H60 H 0.5759 0.5444 0.3795
C41 C 0.4982(3) 0.61230(15) 0.21870(18)
H61 H 0.4696 0.6451 0.2287
H62 H 0.5432 0.6309 0.2212
C42 C 0.5407(3) 0.5851(3) 0.35296(14)
H63 H 0.5522 0.6170 0.3917
H64 H 0.5849 0.5668 0.3545
H65 H 0.5117 0.5527 0.3619
Li1 Li 0.5000 0.4756(3) 0.2500
Li2 Li 0.5000 0.3631(3) 0.2500
Li3 Li 0.5637(3) 0.2056(3) 0.2643(3)
P1A P 0.50475(3) 0.32500(3) 0.37525(3)
O1A O 0.43931(9) 0.42155(8) 0.26665(9)
O2A O 0.34165(11) 0.22896(10) 0.21376(13)
O3A O 0.51546(9) 0.19635(8) 0.32426(9)
C1A C 0.41641(12) 0.35878(11) 0.35371(13)
C2A C 0.39416(12) 0.40414(11) 0.29616(13)
C3A C 0.32369(13) 0.42844(11) 0.27154(13)
C4A C 0.29305(14) 0.47564(12) 0.20677(14)
C5A C 0.30030(17) 0.45200(15) 0.13639(15)
H1A H 0.2833 0.4839 0.0974
H2A H 0.2717 0.4143 0.1184
H3A H 0.3505 0.4427 0.1484
C6A C 0.21334(14) 0.48837(15) 0.18456(17)
H4A H 0.1957 0.5172 0.1422
H5A H 0.2068 0.5066 0.2271
H6A H 0.1867 0.4494 0.1702
C7A C 0.33218(16) 0.53753(13) 0.23186(18)
H7A H 0.3136 0.5675 0.1907
H8A H 0.3833 0.5313 0.2461
H9A H 0.3247 0.5534 0.2749
C8A C 0.28279(13) 0.40938(12) 0.30924(14)
H10A H 0.2362 0.4262 0.2935
C9A C 0.30529(13) 0.36731(12) 0.36865(14)
C10A C 0.25879(13) 0.35006(13) 0.41052(15)
C11A C 0.18890(16) 0.38705(16) 0.3824(2)
H11A H 0.1615 0.3752 0.4112
H12A H 0.1609 0.3781 0.3294
H13A H 0.1997 0.4315 0.3889
C12A C 0.29979(16) 0.36382(16) 0.49380(16)
H14A H 0.3434 0.3388 0.5138
H15A H 0.2699 0.3535 0.5204
H16A H 0.3123 0.4079 0.5007
C13A C 0.24036(16) 0.28087(14) 0.40010(17)
H17A H 0.2844 0.2564 0.4189
H18A H 0.2131 0.2720 0.3468
H19A H 0.2118 0.2699 0.4279
C14A C 0.37265(13) 0.34169(12) 0.38893(14)
H20A H 0.3892 0.3117 0.4279
C15A C 0.56477(13) 0.37583(11) 0.44952(13)
C16A C 0.54837(16) 0.43671(13) 0.45774(17)
H21A H 0.5030 0.4528 0.4258
C17A C 0.59701(18) 0.47483(15) 0.51200(19)
H22A H 0.5847 0.5166 0.5167
C18A C 0.66260(17) 0.45243(15) 0.55872(17)
H23A H 0.6956 0.4783 0.5962
C19A C 0.68011(16) 0.39247(16) 0.55088(18)
H24A H 0.7257 0.3768 0.5828
C20A C 0.63199(14) 0.35463(14) 0.49696(16)
H25A H 0.6451 0.3131 0.4922
C21A C 0.51319(12) 0.25289(11) 0.42721(13)
C22A C 0.52317(12) 0.19708(11) 0.39453(13)
C23A C 0.54117(13) 0.14203(11) 0.43934(13)
C24A C 0.55822(15) 0.08066(12) 0.41003(15)
C25A C 0.49157(19) 0.05600(15) 0.34545(19)
H26A H 0.5032 0.0173 0.3266
H27A H 0.4746 0.0868 0.3051
H28A H 0.4542 0.0480 0.3632
C26A C 0.61933(19) 0.08985(15) 0.3856(2)
H29A H 0.6615 0.1054 0.4279
H30A H 0.6049 0.1199 0.3445
H31A H 0.6307 0.0501 0.3687
C27A C 0.58397(19) 0.03020(14) 0.47038(18)
H32A H 0.6269 0.0446 0.5126
H33A H 0.5950 -0.0076 0.4495
H34A H 0.5465 0.0214 0.4876
C28A C 0.54206(13) 0.14512(12) 0.51045(13)
H35A H 0.5524 0.1082 0.5395
C29A C 0.52870(12) 0.19924(12) 0.54211(13)
C30A C 0.52946(14) 0.20043(13) 0.62061(14)
C31A C 0.5308(2) 0.13477(16) 0.65179(19)
H36A H 0.4901 0.1110 0.6169
H37A H 0.5277 0.1375 0.7003
H38A H 0.5753 0.1140 0.6581
C32A C 0.59425(18) 0.2365(2) 0.67344(16)
H39A H 0.6378 0.2144 0.6791
H40A H 0.5923 0.2403 0.7224
H41A H 0.5943 0.2779 0.6528
C33A C 0.46162(16) 0.23195(15) 0.61747(16)
H42A H 0.4197 0.2095 0.5825
H43A H 0.4602 0.2749 0.6004
H44A H 0.4615 0.2317 0.6674
C34A C 0.51640(12) 0.25270(12) 0.49963(13)
H45A H 0.5099 0.2907 0.5206
C35A C 0.3305(2) 0.1650(2) 0.3060(3)
H46A H 0.2992 0.1547 0.3309
H47A H 0.3764 0.1799 0.3431
H48A H 0.3381 0.1279 0.2813
C36A C 0.2970(2) 0.2137(2) 0.2498(2)
H49A H 0.2504 0.1989 0.2125
H50A H 0.2886 0.2510 0.2745
C37A C 0.3164(2) 0.28302(18) 0.1647(2)
H51A H 0.3028 0.3158 0.1918
H52A H 0.3564 0.2993 0.1542
C38A C 0.2565(2) 0.2714(2) 0.0943(2)
H53A H 0.2441 0.3096 0.0647
H54A H 0.2156 0.2576 0.1038
H55A H 0.2693 0.2391 0.0668
O4A O 0.48644(19) 0.56140(13) 0.22606(15)
C39A C 0.5103(3) 0.5930(3) 0.1235(2)
H56A H 0.4878 0.6051 0.0707
H57A H 0.5402 0.5563 0.1291
H58A H 0.5400 0.6273 0.1530
C40A C 0.4545(2) 0.5786(2) 0.15046(14)
H59A H 0.4239 0.6155 0.1444
H60A H 0.4241 0.5444 0.1205
C41A C 0.5018(3) 0.61230(15) 0.28130(18)
H61A H 0.5304 0.6451 0.2713
H62A H 0.4568 0.6309 0.2788
C42A C 0.4593(3) 0.5851(3) 0.14704(14)
H63A H 0.4478 0.6170 0.1083
H64A H 0.4151 0.5668 0.1455
H65A H 0.4883 0.5527 0.1381
Li3A Li 0.4363(3) 0.2056(3) 0.2357(3)
loop_
_geom_bond_atom_site_label_1
_geom_bond_atom_site_label_2
_geom_bond_site_symmetry_1
_geom_bond_site_symmetry_2
P1 C1 1_555 1_555
O1 C2 1_555 1_555
O2 C36 1_555 1_555
O3 C22 1_555 1_555
C1 C2 1_555 1_555
C2 C3 1_555 1_555
C3 C4 1_555 1_555
C4 C5 1_555 1_555
C5 H1 1_555 1_555
H2 C5 1_555 1_555
H3 C5 1_555 1_555
C6 C4 1_555 1_555
H4 C6 1_555 1_555
H5 C6 1_555 1_555
H6 C6 1_555 1_555
C7 C4 1_555 1_555
H7 C7 1_555 1_555
H8 C7 1_555 1_555
H9 C7 1_555 1_555
C8 C3 1_555 1_555
H10 C8 1_555 1_555
C9 C8 1_555 1_555
C10 C9 1_555 1_555
C11 C10 1_555 1_555
H11 C11 1_555 1_555
H12 C11 1_555 1_555
H13 C11 1_555 1_555
C12 C10 1_555 1_555
H14 C12 1_555 1_555
H15 C12 1_555 1_555
H16 C12 1_555 1_555
C13 C10 1_555 1_555
H17 C13 1_555 1_555
H18 C13 1_555 1_555
H19 C13 1_555 1_555
C14 C1 1_555 1_555
H20 C14 1_555 1_555
C15 P1 1_555 1_555
C16 C15 1_555 1_555
H21 C16 1_555 1_555
C17 C16 1_555 1_555
H22 C17 1_555 1_555
C18 C17 1_555 1_555
H23 C18 1_555 1_555
C19 C18 1_555 1_555
H24 C19 1_555 1_555
C20 C15 1_555 1_555
H25 C20 1_555 1_555
C21 P1 1_555 1_555
C22 C21 1_555 1_555
C23 C22 1_555 1_555
C24 C23 1_555 1_555
C25 C24 1_555 1_555
H26 C25 1_555 1_555
H27 C25 1_555 1_555
H28 C25 1_555 1_555
C26 C24 1_555 1_555
H29 C26 1_555 1_555
H30 C26 1_555 1_555
H31 C26 1_555 1_555
C27 C24 1_555 1_555
H32 C27 1_555 1_555
H33 C27 1_555 1_555
H34 C27 1_555 1_555
C28 C23 1_555 1_555
H35 C28 1_555 1_555
C29 C28 1_555 1_555
C30 C29 1_555 1_555
C31 C30 1_555 1_555
H36 C31 1_555 1_555
H37 C31 1_555 1_555
H38 C31 1_555 1_555
C32 C30 1_555 1_555
H39 C32 1_555 1_555
H40 C32 1_555 1_555
H41 C32 1_555 1_555
C33 C30 1_555 1_555
H42 C33 1_555 1_555
H43 C33 1_555 1_555
H44 C33 1_555 1_555
C34 C21 1_555 1_555
H45 C34 1_555 1_555
C35 H46 1_555 1_555
H47 C35 1_555 1_555
H48 C35 1_555 1_555
C36 C35 1_555 1_555
H49 C36 1_555 1_555
H50 C36 1_555 1_555
C37 O2 1_555 1_555
H51 C37 1_555 1_555
H52 C37 1_555 1_555
C38 C37 1_555 1_555
H53 C38 1_555 1_555
H54 C38 1_555 1_555
H55 C38 1_555 1_555
O4 C40 1_555 1_555
C39 H56 1_555 1_555
H57 C39 1_555 1_555
H58 C39 1_555 1_555
C40 C39 1_555 1_555
H59 C40 1_555 1_555
H60 C40 1_555 1_555
C41 O4 1_555 1_555
H61 C41 1_555 1_555
H62 C41 1_555 1_555
C42 O4 1_555 1_555
H63 C39 1_555 1_555
H64 C40 1_555 1_555
H65 C39 1_555 1_555
Li1 O1 1_555 1_555
Li2 O1 1_555 1_555
Li3 O2 1_555 1_555
P1A C1A 1_555 1_555
O1A Li1 1_555 1_555
O2A C36A 1_555 1_555
O3A Li3 1_555 1_555
C1A C2A 1_555 1_555
C2A O1A 1_555 1_555
C3A C2A 1_555 1_555
C4A C3A 1_555 1_555
C5A C4A 1_555 1_555
H1A C5A 1_555 1_555
H2A C5A 1_555 1_555
H3A C5A 1_555 1_555
C6A C4A 1_555 1_555
H4A C6A 1_555 1_555
H5A C6A 1_555 1_555
H6A C6A 1_555 1_555
C7A C4A 1_555 1_555
H7A C7A 1_555 1_555
H8A C7A 1_555 1_555
H9A C7A 1_555 1_555
C8A C3A 1_555 1_555
H10A C8A 1_555 1_555
C9A C8A 1_555 1_555
C10A C9A 1_555 1_555
C11A C10A 1_555 1_555
H11A C11A 1_555 1_555
H12A C11A 1_555 1_555
H13A C11A 1_555 1_555
C12A C10A 1_555 1_555
H14A C12A 1_555 1_555
H15A C12A 1_555 1_555
H16A C12A 1_555 1_555
C13A C10A 1_555 1_555
H17A C13A 1_555 1_555
H18A C13A 1_555 1_555
H19A C13A 1_555 1_555
C14A C1A 1_555 1_555
H20A C14A 1_555 1_555
C15A P1A 1_555 1_555
C16A C15A 1_555 1_555
H21A C16A 1_555 1_555
C17A C16A 1_555 1_555
H22A C17A 1_555 1_555
C18A C17A 1_555 1_555
H23A C18A 1_555 1_555
C19A C18A 1_555 1_555
H24A C19A 1_555 1_555
C20A C15A 1_555 1_555
H25A C20A 1_555 1_555
C21A P1A 1_555 1_555
C22A O3A 1_555 1_555
C23A C22A 1_555 1_555
C24A C23A 1_555 1_555
C25A C24A 1_555 1_555
H26A C25A 1_555 1_555
H27A C25A 1_555 1_555
H28A C25A 1_555 1_555
C26A C24A 1_555 1_555
H29A C26A 1_555 1_555
H30A C26A 1_555 1_555
H31A C26A 1_555 1_555
C27A C24A 1_555 1_555
H32A C27A 1_555 1_555
H33A C27A 1_555 1_555
H34A C27A 1_555 1_555
C28A C23A 1_555 1_555
H35A C28A 1_555 1_555
C29A C28A 1_555 1_555
C30A C29A 1_555 1_555
C31A C30A 1_555 1_555
H36A C31A 1_555 1_555
H37A C31A 1_555 1_555
H38A C31A 1_555 1_555
C32A C30A 1_555 1_555
H39A C32A 1_555 1_555
H40A C32A 1_555 1_555
H41A C32A 1_555 1_555
C33A C30A 1_555 1_555
H42A C33A 1_555 1_555
H43A C33A 1_555 1_555
H44A C33A 1_555 1_555
C34A C21A 1_555 1_555
H45A C34A 1_555 1_555
C35A H46A 1_555 1_555
H47A C35A 1_555 1_555
H48A C35A 1_555 1_555
C36A C35A 1_555 1_555
H49A C36A 1_555 1_555
H50A C36A 1_555 1_555
C37A O2A 1_555 1_555
H51A C37A 1_555 1_555
H52A C37A 1_555 1_555
C38A C37A 1_555 1_555
H53A C38A 1_555 1_555
H54A C38A 1_555 1_555
H55A C38A 1_555 1_555
O4A O4 1_555 1_555
C39A H56A 1_555 1_555
H57A C39A 1_555 1_555
H58A C39A 1_555 1_555
C40A C41 1_555 1_555
H59A C40A 1_555 1_555
H60A C40A 1_555 1_555
C41A O4 1_555 1_555
H61A C41 1_555 1_555
H62A C41A 1_555 1_555
C42A C41 1_555 1_555
H63A C39A 1_555 1_555
H64A C40A 1_555 1_555
H65A C39A 1_555 1_555
Li3A O3 1_555 1_555
O3 Li3 1_555 1_555
C9 C14 1_555 1_555
C19 C20 1_555 1_555
C29 C34 1_555 1_555
O4 Li1 1_555 1_555
C39 C42 1_555 1_555
C40 C42 1_555 1_555
C40 H63 1_555 1_555
C40 H65 1_555 1_555
C40 C41A 1_555 1_555
H59 C42 1_555 1_555
H60 C42 1_555 1_555
H60 H64 1_555 1_555
C41 O4A 1_555 1_555
C41 C41A 1_555 1_555
H61 C41A 1_555 1_555
C42 H63 1_555 1_555
C42 H64 1_555 1_555
C42 H65 1_555 1_555
C42 C41A 1_555 1_555
Li1 O4A 1_555 1_555
Li2 O1A 1_555 1_555
O2A Li3A 1_555 1_555
O3A Li3A 1_555 1_555
C9A C14A 1_555 1_555
C19A C20A 1_555 1_555
C21A C22A 1_555 1_555
C29A C34A 1_555 1_555
O4A C40A 1_555 1_555
O4A C41A 1_555 1_555
O4A C42A 1_555 1_555
C39A C40A 1_555 1_555
C39A C42A 1_555 1_555
C40A C42A 1_555 1_555
C40A H63A 1_555 1_555
C40A H65A 1_555 1_555
H59A C42A 1_555 1_555
H60A C42A 1_555 1_555
H60A H64A 1_555 1_555
C41A H61A 1_555 1_555
C42A H63A 1_555 1_555
C42A H64A 1_555 1_555
C42A H65A 1_555 1_555

#END
