
#######################################################################
#
#                 Cambridge Crystallographic Data Centre
#                                CCDC 
#
#######################################################################
#
# If this CIF has been generated from an entry in the Cambridge 
# Structural Database, then it will include bibliographic, chemical, 
# crystal, experimental, refinement or atomic coordinate data resulting 
# from the CCDC's data processing and validation procedures.
#
#######################################################################

data_OZOZAF
_chemical_formula_moiety         'C30 H38 B1 F3 K1 O6 P1,0.5(C4 H8 O1)'
_chemical_name_systematic        
'(18-crown-6)-(trifluoro(2-(diphenylphosphino)phenyl)borate)-potassium tetrahydrofuran solvate'
_symmetry_cell_setting           monoclinic
_symmetry_space_group_name_H-M   'C 2/c'
_symmetry_Int_Tables_number      15
_space_group_name_Hall           '-C 2yn'
loop_
_symmetry_equiv_pos_site_id
_symmetry_equiv_pos_as_xyz
1 x,y,z
2 -x,y,1/2-z
3 1/2+x,1/2+y,z
4 1/2-x,1/2+y,1/2-z
5 -x,-y,-z
6 x,-y,1/2+z
7 1/2-x,1/2-y,-z
8 1/2+x,1/2-y,1/2+z
_cell_length_a                   36.570(6)
_cell_length_b                   9.5770(15)
_cell_length_c                   19.945(3)
_cell_angle_alpha                90
_cell_angle_beta                 107.141(3)
_cell_angle_gamma                90
_cell_volume                     6675.08
_cell_formula_units_Z            8
loop_
_atom_site_label
_atom_site_type_symbol
_atom_site_fract_x
_atom_site_fract_y
_atom_site_fract_z
B1 B 0.11688(5) 0.5731(2) 0.07456(10)
C1 C 0.00083(5) 0.29284(19) 0.02520(9)
H1 H -0.0205 0.2496 -0.0116
H2 H 0.0168 0.3465 0.0019
C2 C -0.01470(5) 0.38825(19) 0.06983(9)
H3 H -0.0339 0.4523 0.0399
H4 H -0.0272 0.3332 0.0990
C3 C 0.00453(5) 0.5673(2) 0.15454(9)
H5 H -0.0098 0.5214 0.1835
H6 H -0.0125 0.6362 0.1236
C4 C 0.03922(5) 0.63903(19) 0.20078(9)
H7 H 0.0550 0.6765 0.1722
H8 H 0.0315 0.7177 0.2257
C5 C 0.09175(5) 0.6031(2) 0.30192(9)
H9 H 0.0820 0.6755 0.3277
H10 H 0.1095 0.6481 0.2793
C6 C 0.11234(5) 0.4922(2) 0.35163(9)
H11 H 0.1321 0.5349 0.3914
H12 H 0.0941 0.4403 0.3704
C7 C 0.15119(5) 0.29297(19) 0.35835(9)
H13 H 0.1343 0.2384 0.3792
H14 H 0.1718 0.3350 0.3969
C8 C 0.16803(5) 0.1999(2) 0.31528(9)
H15 H 0.1831 0.2557 0.2911
H16 H 0.1852 0.1306 0.3457
C9 C 0.15115(5) 0.02762(19) 0.22677(9)
H17 H 0.1680 -0.0393 0.2595
H18 H 0.1660 0.0725 0.1985
C10 C 0.11722(5) -0.04706(18) 0.17983(9)
H19 H 0.1257 -0.1201 0.1526
H20 H 0.1024 -0.0923 0.2082
C11 C 0.06414(5) -0.00963(19) 0.07940(9)
H21 H 0.0465 -0.0604 0.1000
H22 H 0.0750 -0.0770 0.0528
C12 C 0.04305(5) 0.1037(2) 0.03159(9)
H23 H 0.0613 0.1621 0.0159
H24 H 0.0246 0.0622 -0.0103
C13 C 0.16687(4) 0.23369(18) 0.02593(8)
C14 C 0.13897(5) 0.13090(18) 0.01499(9)
H25 H 0.1281 0.1089 0.0514
C15 C 0.12671(5) 0.05967(19) -0.04836(9)
H26 H 0.1074 -0.0097 -0.0551
C16 C 0.14248(5) 0.08947(19) -0.10137(9)
H27 H 0.1339 0.0419 -0.1450
C17 C 0.17102(5) 0.18937(19) -0.09066(9)
H28 H 0.1824 0.2084 -0.1267
C18 C 0.18310(5) 0.26201(19) -0.02774(9)
H29 H 0.2025 0.3312 -0.0212
C19 C 0.22781(4) 0.24825(18) 0.15223(8)
C20 C 0.24831(5) 0.29673(19) 0.21899(9)
H30 H 0.2388 0.3738 0.2388
C21 C 0.28226(5) 0.2337(2) 0.25657(9)
H31 H 0.2958 0.2680 0.3018
C22 C 0.29663(5) 0.1208(2) 0.22858(9)
H32 H 0.3199 0.0777 0.2542
C23 C 0.27650(5) 0.07218(19) 0.16296(9)
H33 H 0.2861 -0.0050 0.1434
C24 C 0.24244(5) 0.13482(18) 0.12524(9)
H34 H 0.2289 0.0995 0.0802
C25 C 0.15972(4) 0.59870(17) 0.06899(8)
C26 C 0.16808(5) 0.73244(18) 0.04890(8)
H35 H 0.1481 0.7997 0.0363
C27 C 0.20429(5) 0.77035(19) 0.04671(8)
H36 H 0.2089 0.8621 0.0329
C28 C 0.23361(5) 0.67390(19) 0.06470(9)
H37 H 0.2586 0.6992 0.0636
C29 C 0.22658(5) 0.53990(18) 0.08432(8)
H38 H 0.2468 0.4738 0.0966
C30 C 0.19000(4) 0.50093(17) 0.08629(8)
F1 F 0.09177(3) 0.67794(10) 0.03843(6)
F2 F 0.11698(3) 0.57840(11) 0.14617(5)
F3 F 0.10086(3) 0.44199(10) 0.04816(5)
K1 K 0.089616(10) 0.33487(4) 0.171324(19)
O1 O 0.02333(3) 0.18693(13) 0.06892(6)
O2 O 0.01660(3) 0.46602(13) 0.11349(6)
O3 O 0.06068(3) 0.53978(13) 0.25002(6)
O4 O 0.12982(3) 0.39985(13) 0.31426(6)
O5 O 0.13750(3) 0.13042(13) 0.26499(6)
O6 O 0.09405(3) 0.05326(12) 0.13352(6)
P1 P 0.180088(11) 0.32312(5) 0.11114(2)
C31 C 0.03173(11) 0.0358(4) 0.2827(3)
H39 H 0.0550 0.0034 0.2717
H40 H 0.0367 0.0362 0.3343
C32 C 0.02068(13) 0.1705(4) 0.2542(2)
H41 H 0.0259 0.1824 0.2085
H42 H 0.0340 0.2450 0.2867
O7 O 0.0000 -0.0502(3) 0.2500
C31A C -0.03173(11) 0.0358(4) 0.2173(3)
H39A H -0.0550 0.0034 0.2283
H40A H -0.0367 0.0362 0.1657
C32A C -0.02068(13) 0.1705(4) 0.2458(2)
H41A H -0.0259 0.1824 0.2915
H42A H -0.0340 0.2450 0.2133
loop_
_geom_bond_atom_site_label_1
_geom_bond_atom_site_label_2
_geom_bond_site_symmetry_1
_geom_bond_site_symmetry_2
B1 C25 1_555 1_555
C1 H1 1_555 1_555
H2 C1 1_555 1_555
C2 C1 1_555 1_555
H3 C2 1_555 1_555
H4 C2 1_555 1_555
C3 H5 1_555 1_555
H6 C3 1_555 1_555
C4 C3 1_555 1_555
H7 C4 1_555 1_555
H8 C4 1_555 1_555
C5 H9 1_555 1_555
H10 C5 1_555 1_555
C6 C5 1_555 1_555
H11 C6 1_555 1_555
H12 C6 1_555 1_555
C7 H13 1_555 1_555
H14 C7 1_555 1_555
C8 C7 1_555 1_555
H15 C8 1_555 1_555
H16 C8 1_555 1_555
C9 H17 1_555 1_555
H18 C9 1_555 1_555
C10 C9 1_555 1_555
H19 C10 1_555 1_555
H20 C10 1_555 1_555
C11 H21 1_555 1_555
H22 C11 1_555 1_555
C12 C11 1_555 1_555
H23 C12 1_555 1_555
H24 C12 1_555 1_555
C13 C14 1_555 1_555
C14 H25 1_555 1_555
C15 C14 1_555 1_555
H26 C15 1_555 1_555
C16 C15 1_555 1_555
H27 C16 1_555 1_555
C17 C16 1_555 1_555
H28 C17 1_555 1_555
C18 C13 1_555 1_555
H29 C18 1_555 1_555
C19 C20 1_555 1_555
C20 H30 1_555 1_555
C21 C20 1_555 1_555
H31 C21 1_555 1_555
C22 C21 1_555 1_555
H32 C22 1_555 1_555
C23 C22 1_555 1_555
H33 C23 1_555 1_555
C24 C19 1_555 1_555
H34 C24 1_555 1_555
C25 C26 1_555 1_555
C26 H35 1_555 1_555
C27 C26 1_555 1_555
H36 C27 1_555 1_555
C28 C27 1_555 1_555
H37 C28 1_555 1_555
C29 C28 1_555 1_555
H38 C29 1_555 1_555
C30 C25 1_555 1_555
C31 H39 1_555 1_555
H40 C31 1_555 1_555
C32 C31 1_555 1_555
H41 C32 1_555 1_555
H42 C32 1_555 1_555
F1 B1 1_555 1_555
F2 B1 1_555 1_555
F3 B1 1_555 1_555
K1 F2 1_555 1_555
O1 C1 1_555 1_555
O2 C2 1_555 1_555
O3 C4 1_555 1_555
O4 C6 1_555 1_555
O5 C8 1_555 1_555
O6 C10 1_555 1_555
O7 C31 1_555 1_555
P1 C13 1_555 1_555
C31A O7 1_555 1_555
H39A C31A 1_555 1_555
H40A C31A 1_555 1_555
C32A C32 1_555 1_555
H41A C32A 1_555 1_555
H42A C32A 1_555 1_555
C3 O2 1_555 1_555
C5 O3 1_555 1_555
C7 O4 1_555 1_555
C9 O5 1_555 1_555
C11 O6 1_555 1_555
C12 O1 1_555 1_555
C17 C18 1_555 1_555
C19 P1 1_555 1_555
C23 C24 1_555 1_555
C29 C30 1_555 1_555
C30 P1 1_555 1_555
F3 K1 1_555 1_555
K1 O1 1_555 1_555
K1 O2 1_555 1_555
K1 O3 1_555 1_555
K1 O4 1_555 1_555
K1 O5 1_555 1_555
K1 O6 1_555 1_555
C31A C32A 1_555 1_555

#END
