
#######################################################################
#
#                 Cambridge Crystallographic Data Centre
#                                CCDC 
#
#######################################################################
#
# If this CIF has been generated from an entry in the Cambridge 
# Structural Database, then it will include bibliographic, chemical, 
# crystal, experimental, refinement or atomic coordinate data resulting 
# from the CCDC's data processing and validation procedures.
#
#######################################################################

data_PABGAD
_chemical_name_common            
((diphenylphosphino)(bis(pentafluorophenyl))boranyl)(diphenyl)phosphorane
_chemical_formula_moiety         'C36 H21 B1 F10 P2'
_chemical_name_systematic        
(diphenylphosphanyl)-(diphenylphosphane)-bis(pentafluorophenyl)-boron
_symmetry_cell_setting           monoclinic
_symmetry_space_group_name_H-M   'C 2/c'
_symmetry_Int_Tables_number      15
_space_group_name_Hall           '-C 2yn'
loop_
_symmetry_equiv_pos_site_id
_symmetry_equiv_pos_as_xyz
1 x,y,z
2 -x,y,1/2-z
3 1/2+x,1/2+y,z
4 1/2-x,1/2+y,1/2-z
5 -x,-y,-z
6 x,-y,1/2+z
7 1/2-x,1/2-y,-z
8 1/2+x,1/2-y,1/2+z
_cell_length_a                   16.8004(11)
_cell_length_b                   14.8719(11)
_cell_length_c                   12.9304(9)
_cell_angle_alpha                90
_cell_angle_beta                 98.574(7)
_cell_angle_gamma                90
_cell_volume                     3194.6
_exptl_crystal_description       block
_cell_formula_units_Z            4
loop_
_atom_site_label
_atom_site_type_symbol
_atom_site_fract_x
_atom_site_fract_y
_atom_site_fract_z
B1 B 0.0000 0.2540(4) 0.2500
P1 P 0.08987(7) 0.16502(8) 0.24477(9)
C1 C 0.0239(2) 0.3118(2) 0.3574(3)
C2 C 0.0095(3) 0.2847(3) 0.4550(3)
C3 C 0.0327(3) 0.3302(3) 0.5467(3)
C4 C 0.0750(3) 0.4081(3) 0.5453(3)
C5 C 0.0913(3) 0.4396(3) 0.4516(4)
C6 C 0.0667(3) 0.3926(3) 0.3616(3)
C7 C 0.1811(3) 0.2147(3) 0.2094(3)
C8 C 0.1828(3) 0.2978(3) 0.1619(3)
H1 H 0.1354 0.3335 0.1509
C9 C 0.2533(3) 0.3299(3) 0.1299(4)
H2 H 0.2539 0.3871 0.0973
C10 C 0.3222(3) 0.2780(4) 0.1459(4)
H3 H 0.3706 0.3000 0.1252
C11 C 0.3210(3) 0.1947(3) 0.1918(3)
H4 H 0.3682 0.1585 0.2011
C12 C 0.2514(3) 0.1635(3) 0.2243(3)
H5 H 0.2514 0.1065 0.2574
C13 C 0.1198(3) 0.1222(3) 0.3760(3)
C14 C 0.0950(3) 0.0359(3) 0.4005(3)
H6 H 0.0651 0.0000 0.3476
C15 C 0.1132(3) 0.0025(3) 0.4998(4)
H7 H 0.0953 -0.0559 0.5150
C16 C 0.1572(3) 0.0527(3) 0.5780(3)
H8 H 0.1699 0.0291 0.6468
C17 C 0.1822(3) 0.1372(3) 0.5551(3)
H9 H 0.2119 0.1726 0.6086
C18 C 0.1647(3) 0.1712(3) 0.4551(3)
H10 H 0.1837 0.2293 0.4403
F1 F -0.03081(16) 0.20614(17) 0.46485(17)
F2 F 0.01478(18) 0.2975(2) 0.63761(18)
F3 F 0.09899(19) 0.45425(17) 0.63294(19)
F4 F 0.1320(2) 0.51746(17) 0.4481(2)
F5 F 0.08507(18) 0.42931(16) 0.27362(18)
P1A P -0.08987(7) 0.16502(8) 0.25523(9)
C1A C -0.0239(2) 0.3118(2) 0.1426(3)
C2A C -0.0095(3) 0.2847(3) 0.0450(3)
C3A C -0.0327(3) 0.3302(3) -0.0467(3)
C4A C -0.0750(3) 0.4081(3) -0.0453(3)
C5A C -0.0913(3) 0.4396(3) 0.0484(4)
C6A C -0.0667(3) 0.3926(3) 0.1384(3)
C7A C -0.1811(3) 0.2147(3) 0.2906(3)
C8A C -0.1828(3) 0.2978(3) 0.3381(3)
H1A H -0.1354 0.3335 0.3491
C9A C -0.2533(3) 0.3299(3) 0.3701(4)
H2A H -0.2539 0.3871 0.4027
C10A C -0.3222(3) 0.2780(4) 0.3541(4)
H3A H -0.3706 0.3000 0.3748
C11A C -0.3210(3) 0.1947(3) 0.3082(3)
H4A H -0.3682 0.1585 0.2989
C12A C -0.2514(3) 0.1635(3) 0.2757(3)
H5A H -0.2514 0.1065 0.2426
C13A C -0.1198(3) 0.1222(3) 0.1240(3)
C14A C -0.0950(3) 0.0359(3) 0.0995(3)
H6A H -0.0651 0.0000 0.1524
C15A C -0.1132(3) 0.0025(3) 0.0002(4)
H7A H -0.0953 -0.0559 -0.0150
C16A C -0.1572(3) 0.0527(3) -0.0780(3)
H8A H -0.1699 0.0291 -0.1468
C17A C -0.1822(3) 0.1372(3) -0.0551(3)
H9A H -0.2119 0.1726 -0.1086
C18A C -0.1647(3) 0.1712(3) 0.0449(3)
H10A H -0.1837 0.2293 0.0597
F1A F 0.03081(16) 0.20614(17) 0.03515(17)
F2A F -0.01478(18) 0.2975(2) -0.13761(18)
F3A F -0.09899(19) 0.45425(17) -0.13294(19)
F4A F -0.1320(2) 0.51746(17) 0.0519(2)
F5A F -0.08507(18) 0.42931(16) 0.22638(18)
H11? H 0.0710 0.1146 0.1960
loop_
_geom_bond_atom_site_label_1
_geom_bond_atom_site_label_2
_geom_bond_site_symmetry_1
_geom_bond_site_symmetry_2
B1 P1 1_555 1_555
P1 C7 1_555 1_555
C1 B1 1_555 1_555
C2 C1 1_555 1_555
C3 C2 1_555 1_555
C4 C3 1_555 1_555
C5 C4 1_555 1_555
C6 C1 1_555 1_555
C7 C8 1_555 1_555
C8 H1 1_555 1_555
C9 C8 1_555 1_555
H2 C9 1_555 1_555
C10 C9 1_555 1_555
H3 C10 1_555 1_555
C11 C10 1_555 1_555
H4 C11 1_555 1_555
C12 C7 1_555 1_555
H5 C12 1_555 1_555
C13 P1 1_555 1_555
C14 C13 1_555 1_555
H6 C14 1_555 1_555
C15 C14 1_555 1_555
H7 C15 1_555 1_555
C16 C15 1_555 1_555
H8 C16 1_555 1_555
C17 C16 1_555 1_555
H9 C17 1_555 1_555
C18 C13 1_555 1_555
H10 C18 1_555 1_555
F1 C2 1_555 1_555
F2 C3 1_555 1_555
F3 C4 1_555 1_555
F4 C5 1_555 1_555
F5 C6 1_555 1_555
P1A B1 1_555 1_555
C1A B1 1_555 1_555
C2A C1A 1_555 1_555
C3A C2A 1_555 1_555
C4A C3A 1_555 1_555
C5A C4A 1_555 1_555
C6A C1A 1_555 1_555
C7A P1A 1_555 1_555
C8A C7A 1_555 1_555
H1A C8A 1_555 1_555
C9A C8A 1_555 1_555
H2A C9A 1_555 1_555
C10A C9A 1_555 1_555
H3A C10A 1_555 1_555
C11A C10A 1_555 1_555
H4A C11A 1_555 1_555
C12A C7A 1_555 1_555
H5A C12A 1_555 1_555
C13A P1A 1_555 1_555
C14A C13A 1_555 1_555
H6A C14A 1_555 1_555
C15A C14A 1_555 1_555
H7A C15A 1_555 1_555
C16A C15A 1_555 1_555
H8A C16A 1_555 1_555
C17A C16A 1_555 1_555
H9A C17A 1_555 1_555
C18A C13A 1_555 1_555
H10A C18A 1_555 1_555
F1A C2A 1_555 1_555
F2A C3A 1_555 1_555
F3A C4A 1_555 1_555
F4A C5A 1_555 1_555
F5A C6A 1_555 1_555
C5 C6 1_555 1_555
C11 C12 1_555 1_555
C17 C18 1_555 1_555
C5A C6A 1_555 1_555
C11A C12A 1_555 1_555
C17A C18A 1_555 1_555

#END
