
#######################################################################
#
#                 Cambridge Crystallographic Data Centre
#                                CCDC 
#
#######################################################################
#
# If this CIF has been generated from an entry in the Cambridge 
# Structural Database, then it will include bibliographic, chemical, 
# crystal, experimental, refinement or atomic coordinate data resulting 
# from the CCDC's data processing and validation procedures.
#
#######################################################################

data_PABHUY
_chemical_name_common            '(4S,5R,7S)-5-iodo-crassalactone D'
_chemical_formula_moiety         'C13 H11 I1 O4'
_chemical_name_systematic        
8-hydroxy-9-iodo-7-phenyl-1,6-dioxaspiro[4.4]non-3-en-2-one
_chemical_properties_biological  'Antitumour activity'
_symmetry_cell_setting           orthorhombic
_symmetry_space_group_name_H-M   'P 21 21 21'
_symmetry_Int_Tables_number      19
_space_group_name_Hall           'P 2ac 2ab'
loop_
_symmetry_equiv_pos_site_id
_symmetry_equiv_pos_as_xyz
1 x,y,z
2 1/2-x,-y,1/2+z
3 1/2+x,1/2-y,-z
4 -x,1/2+y,1/2-z
_cell_length_a                   5.2323(6)
_cell_length_b                   15.4225(13)
_cell_length_c                   16.8497(19)
_cell_angle_alpha                90
_cell_angle_beta                 90
_cell_angle_gamma                90
_cell_volume                     1359.69
_exptl_crystal_colour            colorless
_exptl_crystal_description       Needle
_cell_formula_units_Z            4
loop_
_atom_site_label
_atom_site_type_symbol
_atom_site_fract_x
_atom_site_fract_y
_atom_site_fract_z
I1 I 0.7915(3) -0.16425(6) 0.47245(6)
O1 O 0.4235(17) -0.0014(7) 0.5806(5)
O2 O 0.452(2) -0.0130(8) 0.7120(5)
O3 O 0.8814(18) 0.0039(7) 0.3657(5)
H1 H 0.9135 0.0144 0.3190
O4 O 0.506(2) 0.0954(7) 0.4777(5)
C1 C 0.556(3) -0.0007(10) 0.6490(6)
C2 C 0.597(3) 0.1604(10) 0.3491(7)
C3 C 0.590(2) 0.0183(10) 0.5132(7)
C4 C 0.481(3) 0.0824(10) 0.3934(7)
H2 H 0.2991 0.0775 0.3798
C5 C 0.845(2) 0.0317(9) 0.5530(8)
H3 H 0.9969 0.0443 0.5268
C6 C 0.612(3) -0.0027(10) 0.3760(7)
H4 H 0.5328 -0.0315 0.3303
C7 C 0.821(3) 0.0230(10) 0.6297(9)
H5 H 0.9511 0.0306 0.6665
C8 C 0.635(5) 0.2395(11) 0.2275(11)
H6 H 0.5839 0.2493 0.1754
C9 C 0.523(4) 0.1759(11) 0.2715(9)
H7 H 0.3943 0.1423 0.2490
C10 C 0.559(3) -0.0531(8) 0.4521(7)
H8 H 0.3799 -0.0714 0.4518
C11 C 0.823(5) 0.2888(13) 0.2614(13)
H9 H 0.8976 0.3332 0.2321
C12 C 0.789(4) 0.2079(11) 0.3810(11)
H10 H 0.8459 0.1967 0.4323
C13 C 0.902(5) 0.2743(13) 0.3360(16)
H11 H 1.0316 0.3081 0.3579
loop_
_geom_bond_atom_site_label_1
_geom_bond_atom_site_label_2
_geom_bond_site_symmetry_1
_geom_bond_site_symmetry_2
I1 C10 1_555 1_555
O1 C1 1_555 1_555
O2 C1 1_555 1_555
O3 H1 1_555 1_555
O4 C3 1_555 1_555
C1 C7 1_555 1_555
C2 C4 1_555 1_555
C3 O1 1_555 1_555
C4 O4 1_555 1_555
H2 C4 1_555 1_555
C5 C3 1_555 1_555
H3 C5 1_555 1_555
C6 O3 1_555 1_555
H4 C6 1_555 1_555
C7 C5 1_555 1_555
H5 C7 1_555 1_555
C8 H6 1_555 1_555
C9 C2 1_555 1_555
H7 C9 1_555 1_555
C10 C3 1_555 1_555
H8 C10 1_555 1_555
C11 C8 1_555 1_555
H9 C11 1_555 1_555
C12 C2 1_555 1_555
H10 C12 1_555 1_555
C13 C11 1_555 1_555
H11 C13 1_555 1_555
C4 C6 1_555 1_555
C6 C10 1_555 1_555
C8 C9 1_555 1_555
C12 C13 1_555 1_555

#END
