
#######################################################################
#
#                 Cambridge Crystallographic Data Centre
#                                CCDC 
#
#######################################################################
#
# If this CIF has been generated from an entry in the Cambridge 
# Structural Database, then it will include bibliographic, chemical, 
# crystal, experimental, refinement or atomic coordinate data resulting 
# from the CCDC's data processing and validation procedures.
#
#######################################################################

data_PABJAG
_chemical_name_common            '(4S,5S,7S)-5-Chloro-crassalactone D'
_chemical_formula_moiety         'C13 H11 Cl1 O4'
_chemical_name_systematic        
9-chloro-8-hydroxy-7-phenyl-1,6-dioxaspiro[4.4]non-3-en-2-one
_chemical_properties_biological  'Antitumour activity'
_symmetry_cell_setting           monoclinic
_symmetry_space_group_name_H-M   'P 21'
_symmetry_Int_Tables_number      4
_space_group_name_Hall           'P 2yb'
loop_
_symmetry_equiv_pos_site_id
_symmetry_equiv_pos_as_xyz
1 x,y,z
2 -x,1/2+y,-z
_cell_length_a                   7.6739(2)
_cell_length_b                   9.9714(2)
_cell_length_c                   8.0515(2)
_cell_angle_alpha                90
_cell_angle_beta                 95.370(2)
_cell_angle_gamma                90
_cell_volume                     613.393
_exptl_crystal_colour            colorless
_exptl_crystal_description       irregular
_cell_formula_units_Z            2
loop_
_atom_site_label
_atom_site_type_symbol
_atom_site_fract_x
_atom_site_fract_y
_atom_site_fract_z
Cl1 Cl 0.15527(7) 0.66330(7) 1.06778(8)
O1 O 0.6593(2) 0.5468(2) 0.9062(3)
C1 C 0.5142(3) 0.5003(2) 0.8922(3)
O2 O 0.37981(17) 0.56601(15) 0.8077(2)
C2 C 0.4494(3) 0.3743(3) 0.9568(3)
H1 H 0.5162 0.3111 1.0192
O3 O 0.1500(2) 0.45654(17) 0.6554(2)
C3 C 0.2809(3) 0.3660(2) 0.9115(3)
H2 H 0.2094 0.2946 0.9357
C4 C 0.2210(2) 0.4881(2) 0.8153(3)
H3 H -0.203(4) 0.678(4) 0.770(4)
O4 O -0.1323(2) 0.73192(19) 0.7430(3)
C5 C 0.0360(3) 0.5636(2) 0.5892(3)
H4 H 0.0901 0.6081 0.4983
C6 C 0.0272(2) 0.6646(2) 0.7359(3)
H5 H 0.1189 0.732 0.7275
C7 C 0.0821(2) 0.5754(2) 0.8832(2)
H6 H -0.0172 0.5186 0.9058
C8 C -0.2405(4) 0.5806(3) 0.4036(4)
H7 H -0.1985 0.6608 0.3639
C9 C -0.1389(3) 0.5078(2) 0.5220(2)
C10 C -0.4689(4) 0.4179(4) 0.4029(4)
H8 H -0.5806 0.3886 0.3649
C11 C -0.4037(5) 0.5350(4) 0.3439(5)
H9 H -0.4705 0.584 0.2628
C12 C -0.3668(4) 0.3446(3) 0.5186(4)
H10 H -0.409 0.2641 0.5572
C13 C -0.2015(4) 0.3889(3) 0.5791(3)
H11 H -0.1335 0.3384 0.6577
loop_
_geom_bond_atom_site_label_1
_geom_bond_atom_site_label_2
_geom_bond_site_symmetry_1
_geom_bond_site_symmetry_2
Cl1 C7 1_555 1_555
O1 C1 1_555 1_555
C1 O2 1_555 1_555
O2 C4 1_555 1_555
C2 C1 1_555 1_555
H1 C2 1_555 1_555
O3 C4 1_555 1_555
C3 C2 1_555 1_555
H2 C3 1_555 1_555
C4 C3 1_555 1_555
H3 O4 1_555 1_555
O4 C6 1_555 1_555
C5 O3 1_555 1_555
H4 C5 1_555 1_555
C6 C5 1_555 1_555
H5 C6 1_555 1_555
C7 C4 1_555 1_555
H6 C7 1_555 1_555
C8 H7 1_555 1_555
C9 C5 1_555 1_555
C10 H8 1_555 1_555
C11 C8 1_555 1_555
H9 C11 1_555 1_555
C12 C10 1_555 1_555
H10 C12 1_555 1_555
C13 C9 1_555 1_555
H11 C13 1_555 1_555
C6 C7 1_555 1_555
C8 C9 1_555 1_555
C10 C11 1_555 1_555
C12 C13 1_555 1_555

#END
