
#######################################################################
#
#                 Cambridge Crystallographic Data Centre
#                                CCDC 
#
#######################################################################
#
# If this CIF has been generated from an entry in the Cambridge 
# Structural Database, then it will include bibliographic, chemical, 
# crystal, experimental, refinement or atomic coordinate data resulting 
# from the CCDC's data processing and validation procedures.
#
#######################################################################

data_PABKOU
_chemical_formula_moiety         'C10 H20 B10 O1'
_chemical_name_systematic        
1,2-(4-Methoxy-2-methylhexa-1,3,5-triene-1,6-diyl)-1,2-dicarba-closo-dodecaborane
_symmetry_cell_setting           triclinic
_symmetry_space_group_name_H-M   'P -1'
_symmetry_Int_Tables_number      2
_space_group_name_Hall           '-P 1'
loop_
_symmetry_equiv_pos_site_id
_symmetry_equiv_pos_as_xyz
1 x,y,z
2 -x,-y,-z
_cell_length_a                   7.8439(7)
_cell_length_b                   9.9497(9)
_cell_length_c                   11.2367(11)
_cell_angle_alpha                101.613(2)
_cell_angle_beta                 108.270(2)
_cell_angle_gamma                100.565(2)
_cell_volume                     786.552
_exptl_crystal_colour            colorless
_exptl_crystal_description       block
_cell_formula_units_Z            2
loop_
_atom_site_label
_atom_site_type_symbol
_atom_site_fract_x
_atom_site_fract_y
_atom_site_fract_z
O1 O 0.45204(15) 0.82293(12) 0.14999(10)
C1 C -0.03000(18) 0.65790(13) -0.26535(13)
C2 C 0.12836(17) 0.81135(13) -0.23309(12)
C3 C 0.0299(2) 0.52917(14) -0.23947(14)
H1 H -0.0159 0.4503 -0.3120
C4 C 0.1373(2) 0.50741(14) -0.13093(14)
C5 C 0.1662(3) 0.36049(17) -0.13520(18)
H2 H 0.1015 0.2990 -0.2222
H3 H 0.1188 0.3230 -0.0762
H4 H 0.2968 0.3664 -0.1100
C6 C 0.23207(19) 0.60948(15) -0.00126(14)
H5 H 0.2034 0.5851 0.0672
C7 C 0.35542(19) 0.73400(15) 0.02739(14)
C8 C 0.4114(3) 0.7830(2) 0.25509(17)
H6 H 0.4876 0.8538 0.3356
H7 H 0.4367 0.6929 0.2591
H8 H 0.2825 0.7754 0.2413
C9 C 0.42297(19) 0.79311(15) -0.06436(15)
H9 H 0.5511 0.8124 -0.0435
C10 C 0.33056(18) 0.82331(15) -0.17193(14)
H10 H 0.4034 0.8573 -0.2163
B1 B 0.0241(2) 0.70617(18) -0.39170(15)
H11 H 0.0974 0.6496 -0.4454
B2 B -0.2095(2) 0.63133(18) -0.41059(16)
H12 H -0.2899 0.5258 -0.4778
B3 B -0.2347(2) 0.69065(17) -0.25856(16)
H13 H -0.3309 0.6238 -0.2274
B4 B -0.0173(2) 0.80354(15) -0.14504(15)
H14 H 0.0287 0.8100 -0.0405
B5 B 0.0635(2) 0.89340(18) -0.35462(16)
H15 H 0.1618 0.9593 -0.3849
B6 B -0.1531(3) 0.7810(2) -0.46785(16)
H16 H -0.1969 0.7734 -0.5726
B7 B -0.3146(2) 0.77232(19) -0.38569(17)
H17 H -0.4637 0.7596 -0.4370
B8 B -0.1946(2) 0.87892(17) -0.22112(16)
H18 H -0.2658 0.9356 -0.1657
B9 B 0.0391(2) 0.95314(16) -0.20225(15)
H19 H 0.1221 1.0576 -0.1340
B10 B -0.1452(2) 0.93462(18) -0.35090(17)
H20 H -0.1844 1.0273 -0.3796
loop_
_geom_bond_atom_site_label_1
_geom_bond_atom_site_label_2
_geom_bond_site_symmetry_1
_geom_bond_site_symmetry_2
O1 C7 1_555 1_555
C1 C2 1_555 1_555
C2 C10 1_555 1_555
C3 C1 1_555 1_555
H1 C3 1_555 1_555
C4 C3 1_555 1_555
C5 C4 1_555 1_555
H2 C5 1_555 1_555
H3 C5 1_555 1_555
H4 C5 1_555 1_555
C6 C4 1_555 1_555
H5 C6 1_555 1_555
C7 C6 1_555 1_555
C8 O1 1_555 1_555
H6 C8 1_555 1_555
H7 C8 1_555 1_555
H8 C8 1_555 1_555
C9 C7 1_555 1_555
H9 C9 1_555 1_555
C10 C9 1_555 1_555
H10 C10 1_555 1_555
B1 C1 1_555 1_555
H11 B1 1_555 1_555
B2 C1 1_555 1_555
H12 B2 1_555 1_555
B3 C1 1_555 1_555
H13 B3 1_555 1_555
B4 C1 1_555 1_555
H14 B4 1_555 1_555
B5 C2 1_555 1_555
H15 B5 1_555 1_555
B6 B1 1_555 1_555
H16 B6 1_555 1_555
B7 B2 1_555 1_555
H17 B7 1_555 1_555
B8 B3 1_555 1_555
H18 B8 1_555 1_555
B9 C2 1_555 1_555
H19 B9 1_555 1_555
B10 B5 1_555 1_555
H20 B10 1_555 1_555
C2 B1 1_555 1_555
C2 B4 1_555 1_555
B1 B2 1_555 1_555
B1 B5 1_555 1_555
B2 B3 1_555 1_555
B2 B6 1_555 1_555
B3 B4 1_555 1_555
B3 B7 1_555 1_555
B4 B8 1_555 1_555
B4 B9 1_555 1_555
B5 B6 1_555 1_555
B5 B9 1_555 1_555
B6 B7 1_555 1_555
B6 B10 1_555 1_555
B7 B8 1_555 1_555
B7 B10 1_555 1_555
B8 B9 1_555 1_555
B8 B10 1_555 1_555
B9 B10 1_555 1_555

#END
