
#######################################################################
#
#                 Cambridge Crystallographic Data Centre
#                                CCDC 
#
#######################################################################
#
# If this CIF has been generated from an entry in the Cambridge 
# Structural Database, then it will include bibliographic, chemical, 
# crystal, experimental, refinement or atomic coordinate data resulting 
# from the CCDC's data processing and validation procedures.
#
#######################################################################

data_PABKIO
_chemical_formula_moiety         'C9 H18 B10 O1'
_chemical_name_systematic        
1,2-(3-Methoxyhexa-1,3,5-triene-1,6-diyl)-1,2-dicarba-closo-dodecaborane
_symmetry_cell_setting           monoclinic
_symmetry_space_group_name_H-M   'P 21/n'
_symmetry_Int_Tables_number      14
_space_group_name_Hall           '-P 2yn'
loop_
_symmetry_equiv_pos_site_id
_symmetry_equiv_pos_as_xyz
1 x,y,z
2 1/2-x,1/2+y,1/2-z
3 -x,-y,-z
4 1/2+x,1/2-y,1/2+z
_cell_length_a                   7.794(3)
_cell_length_b                   21.889(7)
_cell_length_c                   8.579(3)
_cell_angle_alpha                90
_cell_angle_beta                 92.618(6)
_cell_angle_gamma                90
_cell_volume                     1462.07
_exptl_crystal_colour            colorless
_exptl_crystal_description       block
_cell_formula_units_Z            4
loop_
_atom_site_label
_atom_site_type_symbol
_atom_site_fract_x
_atom_site_fract_y
_atom_site_fract_z
O1 O 0.0956(2) 0.05598(7) 0.28563(18)
C1 C 0.2374(2) -0.11515(9) 0.0867(2)
C2 C 0.3584(3) -0.14147(9) 0.2364(2)
C3 C 0.0690(2) -0.08606(10) 0.1128(2)
H1 H -0.0229 -0.1028 0.0546
C4 C 0.0275(3) -0.04066(10) 0.2042(3)
H2 H -0.0880 -0.0299 0.1958
C5 C 0.1302(3) -0.00380(11) 0.3168(2)
C6 C 0.2284(3) -0.02436(12) 0.4368(3)
H3 H 0.2844 0.0049 0.4992
C7 C 0.2566(3) -0.08771(13) 0.4796(3)
H4 H 0.2380 -0.0961 0.5837
C8 C 0.3034(3) -0.13559(12) 0.3996(3)
H5 H 0.3018 -0.1722 0.4545
C9 C 0.1750(4) 0.10089(14) 0.3856(3)
H6 H 0.1400 0.1409 0.3510
H7 H 0.2976 0.0974 0.3825
H8 H 0.1408 0.0946 0.4905
B1 B 0.2433(4) -0.19279(12) 0.1200(3)
H9 H 0.1342 -0.2196 0.1597
B2 B 0.2478(4) -0.16285(11) -0.0709(3)
H10 H 0.1410 -0.1704 -0.1571
B3 B 0.3606(3) -0.09294(10) -0.0615(3)
H11 H 0.3269 -0.0551 -0.1415
B4 B 0.4288(3) -0.07884(11) 0.1343(3)
H12 H 0.4397 -0.0324 0.1828
B5 B 0.4569(4) -0.20815(13) 0.1843(4)
H13 H 0.4880 -0.2457 0.2660
B6 B 0.3898(4) -0.22198(13) -0.0117(4)
H14 H 0.3772 -0.2685 -0.0593
B7 B 0.4633(4) -0.16039(12) -0.1255(3)
H15 H 0.4988 -0.1668 -0.2471
B8 B 0.5750(3) -0.10831(13) 0.0024(3)
H16 H 0.6833 -0.0809 -0.0364
B9 B 0.5703(3) -0.13808(13) 0.1937(3)
H17 H 0.6751 -0.1300 0.2816
B10 B 0.5931(4) -0.18820(14) 0.0345(4)
H18 H 0.7138 -0.2128 0.0173
loop_
_geom_bond_atom_site_label_1
_geom_bond_atom_site_label_2
_geom_bond_site_symmetry_1
_geom_bond_site_symmetry_2
O1 C5 1_555 1_555
C1 C2 1_555 1_555
C2 C8 1_555 1_555
C3 C1 1_555 1_555
H1 C3 1_555 1_555
C4 C3 1_555 1_555
H2 C4 1_555 1_555
C5 C4 1_555 1_555
C6 C5 1_555 1_555
H3 C6 1_555 1_555
C7 C6 1_555 1_555
H4 C7 1_555 1_555
C8 C7 1_555 1_555
H5 C8 1_555 1_555
C9 O1 1_555 1_555
H6 C9 1_555 1_555
H7 C9 1_555 1_555
H8 C9 1_555 1_555
B1 C1 1_555 1_555
H9 B1 1_555 1_555
B2 C1 1_555 1_555
H10 B2 1_555 1_555
B3 C1 1_555 1_555
H11 B3 1_555 1_555
B4 C1 1_555 1_555
H12 B4 1_555 1_555
B5 C2 1_555 1_555
H13 B5 1_555 1_555
B6 B1 1_555 1_555
H14 B6 1_555 1_555
B7 B2 1_555 1_555
H15 B7 1_555 1_555
B8 B3 1_555 1_555
H16 B8 1_555 1_555
B9 C2 1_555 1_555
H17 B9 1_555 1_555
B10 B5 1_555 1_555
H18 B10 1_555 1_555
C2 B1 1_555 1_555
C2 B4 1_555 1_555
B1 B2 1_555 1_555
B1 B5 1_555 1_555
B2 B3 1_555 1_555
B2 B6 1_555 1_555
B3 B4 1_555 1_555
B3 B7 1_555 1_555
B4 B8 1_555 1_555
B4 B9 1_555 1_555
B5 B6 1_555 1_555
B5 B9 1_555 1_555
B6 B7 1_555 1_555
B6 B10 1_555 1_555
B7 B8 1_555 1_555
B7 B10 1_555 1_555
B8 B9 1_555 1_555
B8 B10 1_555 1_555
B9 B10 1_555 1_555

#END
