
#######################################################################
#
#                 Cambridge Crystallographic Data Centre
#                                CCDC 
#
#######################################################################
#
# If this CIF has been generated from an entry in the Cambridge 
# Structural Database, then it will include bibliographic, chemical, 
# crystal, experimental, refinement or atomic coordinate data resulting 
# from the CCDC's data processing and validation procedures.
#
#######################################################################

data_PABKUB
_chemical_name_common            
'methyl 1-methyl-4-(p-tolyl)-4,9-dihydro-3H-carbazole-2-carboxylate'
_chemical_formula_moiety         'C22 H21 N1 O2'
_chemical_name_systematic        
'methyl 1-methyl-4-(4-methylphenyl)-4,9-dihydro-3H-carbazole-2-carboxylate'
_symmetry_cell_setting           monoclinic
_symmetry_space_group_name_H-M   'C 2/c'
_symmetry_Int_Tables_number      15
_space_group_name_Hall           '-C 2yn'
loop_
_symmetry_equiv_pos_site_id
_symmetry_equiv_pos_as_xyz
1 x,y,z
2 -x,y,1/2-z
3 1/2+x,1/2+y,z
4 1/2-x,1/2+y,1/2-z
5 -x,-y,-z
6 x,-y,1/2+z
7 1/2-x,1/2-y,-z
8 1/2+x,1/2-y,1/2+z
_cell_length_a                   26.622(3)
_cell_length_b                   9.2731(11)
_cell_length_c                   15.0032(18)
_cell_angle_alpha                90
_cell_angle_beta                 93.739(3)
_cell_angle_gamma                90
_cell_volume                     3695.93
_exptl_crystal_colour            'light yellow'
_cell_formula_units_Z            8
_exptl_crystal_recrystallization_method ethanol
loop_
_atom_site_label
_atom_site_type_symbol
_atom_site_fract_x
_atom_site_fract_y
_atom_site_fract_z
O1 O 0.81381(7) -0.0332(2) 0.00109(11)
O2 O 0.81578(8) -0.0966(3) 0.14246(12)
N1 N 0.65620(8) 0.2567(2) 0.19149(13)
C1 C 0.64491(8) 0.1432(2) 0.06004(13)
C2 C 0.72560(8) 0.0917(3) 0.14797(13)
C3 C 0.71523(9) 0.0374(3) -0.01459(14)
H1 H 0.7247 -0.0435 -0.0509
H2 H 0.7254 0.1250 -0.0438
C4 C 0.63140(9) 0.0650(2) -0.10144(13)
C5 C 0.60080(9) 0.2245(2) 0.07346(14)
C6 C 0.57329(10) -0.0076(3) -0.22211(17)
H3 H 0.5512 -0.0771 -0.2464
C7 C 0.63792(11) 0.1909(3) -0.14724(16)
H4 H 0.6599 0.2605 -0.1227
C8 C 0.79353(10) -0.0417(3) 0.07938(16)
C9 C 0.74371(9) 0.0268(3) 0.07618(14)
C10 C 0.59878(9) -0.0333(3) -0.14061(15)
H5 H 0.5936 -0.1201 -0.1115
C11 C 0.57985(9) 0.1178(3) -0.26775(14)
C12 C 0.67769(8) 0.1640(3) 0.13346(13)
C13 C 0.65830(9) 0.0383(2) -0.01055(13)
H6 H 0.6484 -0.0578 0.0090
C14 C 0.55103(11) 0.1471(4) -0.35619(17)
H7 H 0.5605 0.2398 -0.3782
H8 H 0.5156 0.1462 -0.3480
H9 H 0.5588 0.0740 -0.3984
C15 C 0.55448(10) 0.2453(3) 0.02593(17)
H10 H 0.5475 0.1992 -0.0285
C16 C 0.61267(11) 0.2168(3) -0.22896(17)
H11 H 0.6180 0.3032 -0.2583
C17 C 0.60955(9) 0.2958(3) 0.15629(14)
C18 C 0.57418(11) 0.3861(3) 0.19063(17)
H12 H 0.5805 0.4323 0.2452
C19 C 0.52932(11) 0.4049(4) 0.1410(2)
H13 H 0.5051 0.4661 0.1621
C20 C 0.75109(11) 0.0987(4) 0.24084(14)
H14 H 0.7301 0.1506 0.2794
H15 H 0.7828 0.1473 0.2387
H16 H 0.7565 0.0027 0.2634
C21 C 0.51956(11) 0.3343(4) 0.0602(2)
H17 H 0.4887 0.3477 0.0287
C22 C 0.86372(12) -0.0903(4) -0.0042(2)
H18 H 0.8743 -0.0772 -0.0636
H19 H 0.8637 -0.1913 0.0099
H20 H 0.8865 -0.0406 0.0375
H21 H 0.6689(9) 0.285(3) 0.2411(17)
loop_
_geom_bond_atom_site_label_1
_geom_bond_atom_site_label_2
_geom_bond_site_symmetry_1
_geom_bond_site_symmetry_2
O1 C8 1_555 1_555
O2 C8 1_555 1_555
N1 C12 1_555 1_555
C1 C5 1_555 1_555
C2 C9 1_555 1_555
C3 H1 1_555 1_555
H2 C3 1_555 1_555
C4 C7 1_555 1_555
C5 C15 1_555 1_555
C6 H3 1_555 1_555
C7 H4 1_555 1_555
C8 C9 1_555 1_555
C9 C3 1_555 1_555
C10 C4 1_555 1_555
H5 C10 1_555 1_555
C11 C6 1_555 1_555
C12 C1 1_555 1_555
C13 C1 1_555 1_555
H6 C13 1_555 1_555
C14 C11 1_555 1_555
H7 C14 1_555 1_555
H8 C14 1_555 1_555
H9 C14 1_555 1_555
C15 H10 1_555 1_555
C16 C7 1_555 1_555
H11 C16 1_555 1_555
C17 N1 1_555 1_555
C18 C17 1_555 1_555
H12 C18 1_555 1_555
C19 C18 1_555 1_555
H13 C19 1_555 1_555
C20 C2 1_555 1_555
H14 C20 1_555 1_555
H15 C20 1_555 1_555
H16 C20 1_555 1_555
C21 C15 1_555 1_555
H17 C21 1_555 1_555
C22 O1 1_555 1_555
H18 C22 1_555 1_555
H19 C22 1_555 1_555
H20 C22 1_555 1_555
H21 N1 1_555 1_555
C2 C12 1_555 1_555
C3 C13 1_555 1_555
C4 C13 1_555 1_555
C5 C17 1_555 1_555
C6 C10 1_555 1_555
C11 C16 1_555 1_555
C19 C21 1_555 1_555

#END
