
#######################################################################
#
#                 Cambridge Crystallographic Data Centre
#                                CCDC 
#
#######################################################################
#
# If this CIF has been generated from an entry in the Cambridge 
# Structural Database, then it will include bibliographic, chemical, 
# crystal, experimental, refinement or atomic coordinate data resulting 
# from the CCDC's data processing and validation procedures.
#
#######################################################################

data_PABLOV
_chemical_formula_moiety         'C8 H16 B10 O1'
_chemical_name_systematic        
1,2-(5-Oxocyclohex-2-ene-1,4-diyl)-1,2-dicarba-closo-dodecaborane
_symmetry_cell_setting           orthorhombic
_symmetry_space_group_name_H-M   'P n a 21'
_symmetry_Int_Tables_number      33
_space_group_name_Hall           'P 2c -2n'
loop_
_symmetry_equiv_pos_site_id
_symmetry_equiv_pos_as_xyz
1 x,y,z
2 -x,-y,1/2+z
3 1/2+x,1/2-y,z
4 1/2-x,1/2+y,1/2+z
_cell_length_a                   32.546(3)
_cell_length_b                   6.9766(6)
_cell_length_c                   11.6982(10)
_cell_angle_alpha                90
_cell_angle_beta                 90
_cell_angle_gamma                90
_cell_volume                     2656.2
_exptl_crystal_colour            colorless
_exptl_crystal_description       block
_cell_formula_units_Z            8
loop_
_atom_site_label
_atom_site_type_symbol
_atom_site_fract_x
_atom_site_fract_y
_atom_site_fract_z
O1 O 0.12062(16) 1.0334(6) 0.4861(6)
C1 C 0.16751(15) 0.7783(7) 0.2661(5)
C2 C 0.20197(15) 0.6679(6) 0.3386(5)
C3 C 0.12764(16) 0.7929(8) 0.3364(6)
H1 H 0.1058 0.8597 0.2946
C4 C 0.13732(18) 0.8902(8) 0.4518(6)
C5 C 0.1692(2) 0.7755(10) 0.5253(6)
H2 H 0.1929 0.8550 0.5427
H3 H 0.1569 0.7341 0.5966
C6 C 0.18197(18) 0.6051(8) 0.4551(5)
H4 H 0.2007 0.5225 0.4984
C7 C 0.1419(2) 0.5023(8) 0.4305(6)
H5 H 0.1373 0.3771 0.4547
C8 C 0.11448(19) 0.5962(8) 0.3747(7)
H6 H 0.0885 0.5466 0.3592
B1 B 0.18243(19) 0.5516(8) 0.2147(7)
H7 H 0.1629 0.4231 0.2123
B2 B 0.1739(2) 0.7420(10) 0.1229(6)
H8 H 0.1481 0.7409 0.0622
B3 B 0.18944(19) 0.9566(8) 0.1845(8)
H9 H 0.1738 1.0921 0.1641
B4 B 0.20851(19) 0.9114(8) 0.3197(6)
H10 H 0.2060 1.0198 0.3876
B5 B 0.2346(2) 0.5397(8) 0.2512(7)
H11 H 0.2489 0.4030 0.2760
B6 B 0.2180(2) 0.5872(10) 0.1132(7)
H12 H 0.2221 0.4811 0.0446
B7 B 0.2224(2) 0.8369(13) 0.0865(7)
H13 H 0.2288 0.8934 0.0005
B8 B 0.2431(2) 0.9409(9) 0.2100(7)
H14 H 0.2633 1.0669 0.2043
B9 B 0.25100(19) 0.7562(8) 0.3155(6)
H15 H 0.2754 0.7586 0.3805
B10 B 0.2601(2) 0.7150(10) 0.1689(7)
H16 H 0.2915 0.6938 0.1370
O2 O 0.13844(18) 0.5550(7) 0.7862(6)
C9 C 0.08179(14) 0.2715(7) 0.9761(5)
C10 C 0.04978(15) 0.1934(8) 0.8859(4)
C11 C 0.12452(16) 0.2907(8) 0.9138(6)
H17 H 0.1457 0.3427 0.9646
C12 C 0.1187(2) 0.4149(8) 0.8065(7)
C13 C 0.0897(2) 0.3328(11) 0.7237(7)
H18 H 0.1035 0.3111 0.6513
H19 H 0.0672 0.4216 0.7107
C14 C 0.0731(2) 0.1460(10) 0.7692(6)
H20 H 0.0549 0.0835 0.7139
C15 C 0.10963(19) 0.0290(8) 0.7931(6)
H21 H 0.1138 -0.0892 0.7581
C16 C 0.13627(19) 0.1011(9) 0.8671(6)
H22 H 0.1603 0.0380 0.8880
B11 B 0.06404(19) 0.0427(8) 0.9999(7)
H23 H 0.0826 -0.0887 0.9934
B12 B 0.0709(2) 0.2048(10) 1.1137(7)
H24 H 0.0941 0.1829 1.1807
B13 B 0.0596(2) 0.4386(10) 1.0645(8)
H25 H 0.0756 0.5641 1.0998
B14 B 0.04547(19) 0.4328(8) 0.9254(7)
H26 H 0.0519 0.5576 0.8708
B15 B 0.01315(19) 0.0502(9) 0.9527(7)
H27 H -0.0013 -0.0763 0.9135
B16 B 0.0246(2) 0.0604(9) 1.0985(7)
H28 H 0.0170 -0.0592 1.1560
B17 B 0.0219(2) 0.2997(11) 1.1417(7)
H29 H 0.0130 0.3352 1.2299
B18 B 0.0067(2) 0.4422(9) 1.0225(9)
H30 H -0.0127 0.5708 1.0313
B19 B 0.0015(2) 0.2831(10) 0.9034(7)
H31 H -0.0203 0.3036 0.8324
B20 B -0.0141(2) 0.2143(10) 1.0444(7)
H32 H -0.0467 0.1976 1.0675
loop_
_geom_bond_atom_site_label_1
_geom_bond_atom_site_label_2
_geom_bond_site_symmetry_1
_geom_bond_site_symmetry_2
O1 C4 1_555 1_555
O2 C12 1_555 1_555
C1 C2 1_555 1_555
C2 C6 1_555 1_555
C3 C1 1_555 1_555
H1 C3 1_555 1_555
C4 C3 1_555 1_555
C5 C4 1_555 1_555
H2 C5 1_555 1_555
H3 C5 1_555 1_555
C6 C5 1_555 1_555
H4 C6 1_555 1_555
C7 C6 1_555 1_555
H5 C7 1_555 1_555
C8 C3 1_555 1_555
H6 C8 1_555 1_555
B1 C1 1_555 1_555
H7 B1 1_555 1_555
B2 C1 1_555 1_555
H8 B2 1_555 1_555
B3 C1 1_555 1_555
H9 B3 1_555 1_555
B4 C1 1_555 1_555
H10 B4 1_555 1_555
B5 C2 1_555 1_555
H11 B5 1_555 1_555
B6 B1 1_555 1_555
H12 B6 1_555 1_555
B7 B2 1_555 1_555
H13 B7 1_555 1_555
B8 B3 1_555 1_555
H14 B8 1_555 1_555
B9 C2 1_555 1_555
H15 B9 1_555 1_555
B10 B5 1_555 1_555
H16 B10 1_555 1_555
C9 C10 1_555 1_555
C10 C14 1_555 1_555
C11 C9 1_555 1_555
H17 C11 1_555 1_555
C12 C11 1_555 1_555
C13 C12 1_555 1_555
H18 C13 1_555 1_555
H19 C13 1_555 1_555
C14 C13 1_555 1_555
H20 C14 1_555 1_555
C15 C14 1_555 1_555
H21 C15 1_555 1_555
C16 C11 1_555 1_555
H22 C16 1_555 1_555
B11 C9 1_555 1_555
H23 B11 1_555 1_555
B12 C9 1_555 1_555
H24 B12 1_555 1_555
B13 C9 1_555 1_555
H25 B13 1_555 1_555
B14 C9 1_555 1_555
H26 B14 1_555 1_555
B15 C10 1_555 1_555
H27 B15 1_555 1_555
B16 B11 1_555 1_555
H28 B16 1_555 1_555
B17 B12 1_555 1_555
H29 B17 1_555 1_555
B18 B13 1_555 1_555
H30 B18 1_555 1_555
B19 C10 1_555 1_555
H31 B19 1_555 1_555
B20 B15 1_555 1_555
H32 B20 1_555 1_555
C2 B1 1_555 1_555
C2 B4 1_555 1_555
C7 C8 1_555 1_555
B1 B2 1_555 1_555
B1 B5 1_555 1_555
B2 B3 1_555 1_555
B2 B6 1_555 1_555
B3 B4 1_555 1_555
B3 B7 1_555 1_555
B4 B8 1_555 1_555
B4 B9 1_555 1_555
B5 B6 1_555 1_555
B5 B9 1_555 1_555
B6 B7 1_555 1_555
B6 B10 1_555 1_555
B7 B8 1_555 1_555
B7 B10 1_555 1_555
B8 B9 1_555 1_555
B8 B10 1_555 1_555
B9 B10 1_555 1_555
C10 B11 1_555 1_555
C10 B14 1_555 1_555
C15 C16 1_555 1_555
B11 B12 1_555 1_555
B11 B15 1_555 1_555
B12 B13 1_555 1_555
B12 B16 1_555 1_555
B13 B14 1_555 1_555
B13 B17 1_555 1_555
B14 B18 1_555 1_555
B14 B19 1_555 1_555
B15 B16 1_555 1_555
B15 B19 1_555 1_555
B16 B17 1_555 1_555
B16 B20 1_555 1_555
B17 B18 1_555 1_555
B17 B20 1_555 1_555
B18 B19 1_555 1_555
B18 B20 1_555 1_555
B19 B20 1_555 1_555

#END
