
#######################################################################
#
#                 Cambridge Crystallographic Data Centre
#                                CCDC 
#
#######################################################################
#
# If this CIF has been generated from an entry in the Cambridge 
# Structural Database, then it will include bibliographic, chemical, 
# crystal, experimental, refinement or atomic coordinate data resulting 
# from the CCDC's data processing and validation procedures.
#
#######################################################################

data_PABLIP
_chemical_formula_moiety         'C11 H22 B10 O1'
_chemical_name_systematic        
1,2-(1-Methoxy-2,6-dimethylcyclohexa-2,5-diene-1,4-diyl)-1,2-dicarba-closo-dodecaborane
_symmetry_cell_setting           monoclinic
_symmetry_space_group_name_H-M   'P 21/m'
_symmetry_Int_Tables_number      11
_space_group_name_Hall           '-P 2yb'
loop_
_symmetry_equiv_pos_site_id
_symmetry_equiv_pos_as_xyz
1 x,y,z
2 -x,1/2+y,-z
3 -x,-y,-z
4 x,1/2-y,z
_cell_length_a                   6.9669(3)
_cell_length_b                   12.1166(6)
_cell_length_c                   9.4462(4)
_cell_angle_alpha                90
_cell_angle_beta                 90.3950(10)
_cell_angle_gamma                90
_cell_volume                     797.383
_exptl_crystal_colour            colorless
_exptl_crystal_description       block
_cell_formula_units_Z            2
loop_
_atom_site_label
_atom_site_type_symbol
_atom_site_fract_x
_atom_site_fract_y
_atom_site_fract_z
O1 O 0.5027(2) 0.2500 0.79269(18)
C1 C 0.0844(3) 0.2500 0.5382(2)
C2 C 0.3017(3) 0.2500 0.5909(2)
C3 C -0.0471(3) 0.2500 0.6734(3)
H1 H -0.1840 0.2500 0.6487
C4 C 0.0088(3) 0.15044(16) 0.76123(19)
H2 H -0.0780 0.0946 0.7821
C5 C 0.1891(3) 0.14788(15) 0.80647(18)
C6 C 0.2804(3) 0.0507(2) 0.8778(2)
H3 H 0.1842 -0.0038 0.8975
H4 H 0.3397 0.0740 0.9649
H5 H 0.3758 0.0195 0.8169
C7 C 0.3052(3) 0.2500 0.7598(2)
C8 C 0.5583(4) 0.2500 0.9397(3)
H6 H 0.6958 0.2500 0.9472
H7 H 0.5081 0.1853 0.9849
B1 B 0.2173(3) 0.12788(16) 0.5109(2)
H8 H 0.1939 0.0483 0.5640
B2 B 0.0563(3) 0.17692(18) 0.3821(2)
H9 H -0.0745 0.1306 0.3544
B3 B 0.4502(3) 0.17667(17) 0.4785(2)
H10 H 0.5774 0.1303 0.5141
B4 B 0.2942(3) 0.13183(18) 0.3376(2)
H11 H 0.3208 0.0557 0.2773
B5 B 0.1952(4) 0.2500 0.2543(3)
H12 H 0.1564 0.2500 0.1412
B6 B 0.4410(4) 0.2500 0.3145(3)
H13 H 0.5627 0.2500 0.2410
C4C C 0.0088(3) 0.34956(16) 0.76123(19)
H2C H -0.0780 0.4054 0.7821
C5C C 0.1891(3) 0.35212(15) 0.80647(18)
C6C C 0.2804(3) 0.4493(2) 0.8778(2)
H3C H 0.1842 0.5038 0.8975
H4C H 0.3397 0.4260 0.9649
H5C H 0.3758 0.4805 0.8169
H7C H 0.5081 0.3147 0.9849
B1C B 0.2173(3) 0.37212(16) 0.5109(2)
H8C H 0.1939 0.4517 0.5640
B2C B 0.0563(3) 0.32308(18) 0.3821(2)
H9C H -0.0745 0.3694 0.3544
B3C B 0.4502(3) 0.32333(17) 0.4785(2)
H10C H 0.5774 0.3697 0.5141
B4C B 0.2942(3) 0.36817(18) 0.3376(2)
H11C H 0.3208 0.4443 0.2773
loop_
_geom_bond_atom_site_label_1
_geom_bond_atom_site_label_2
_geom_bond_site_symmetry_1
_geom_bond_site_symmetry_2
O1 C7 1_555 1_555
C1 C2 1_555 1_555
C2 C7 1_555 1_555
C3 C1 1_555 1_555
H1 C3 1_555 1_555
C4 C3 1_555 1_555
H2 C4 1_555 1_555
C5 C4 1_555 1_555
C6 C5 1_555 1_555
H3 C6 1_555 1_555
H4 C6 1_555 1_555
H5 C6 1_555 1_555
C7 C5 1_555 1_555
C8 O1 1_555 1_555
H6 C8 1_555 1_555
H7 C8 1_555 1_555
B1 C1 1_555 1_555
H8 B1 1_555 1_555
B2 C1 1_555 1_555
H9 B2 1_555 1_555
B3 C2 1_555 1_555
H10 B3 1_555 1_555
B4 B1 1_555 1_555
H11 B4 1_555 1_555
B5 B2 1_555 1_555
H12 B5 1_555 1_555
B6 B3 1_555 1_555
H13 B6 1_555 1_555
C4C C3 1_555 1_555
H2C C4C 1_555 1_555
C5C C7 1_555 1_555
C6C C5C 1_555 1_555
H3C C6C 1_555 1_555
H4C C6C 1_555 1_555
H5C C6C 1_555 1_555
H7C C8 1_555 1_555
B1C C1 1_555 1_555
H8C B1C 1_555 1_555
B2C C1 1_555 1_555
H9C B2C 1_555 1_555
B3C C2 1_555 1_555
H10C B3C 1_555 1_555
B4C B5 1_555 1_555
H11C B4C 1_555 1_555
C2 B1 1_555 1_555
C2 B1C 1_555 1_555
B1 B2 1_555 1_555
B1 B3 1_555 1_555
B2 B4 1_555 1_555
B2 B2C 1_555 1_555
B3 B4 1_555 1_555
B3 B3C 1_555 1_555
B4 B5 1_555 1_555
B4 B6 1_555 1_555
B5 B6 1_555 1_555
B5 B2C 1_555 1_555
B6 B3C 1_555 1_555
B6 B4C 1_555 1_555
C4C C5C 1_555 1_555
B1C B2C 1_555 1_555
B1C B3C 1_555 1_555
B1C B4C 1_555 1_555
B2C B4C 1_555 1_555
B3C B4C 1_555 1_555

#END
