
#######################################################################
#
#                 Cambridge Crystallographic Data Centre
#                                CCDC 
#
#######################################################################
#
# If this CIF has been generated from an entry in the Cambridge 
# Structural Database, then it will include bibliographic, chemical, 
# crystal, experimental, refinement or atomic coordinate data resulting 
# from the CCDC's data processing and validation procedures.
#
#######################################################################

data_PABMAI
_chemical_formula_moiety         'C26 H23 N5 O7'
_chemical_name_systematic        
'(E)-4-(N-(2,4-dinitrophenyl)ethanehydrazonoyl)-5-(2-(2-naphthyl)ethyl)-1,2-oxazole-3-carboxylate ethyl ester'
_symmetry_cell_setting           monoclinic
_symmetry_space_group_name_H-M   'P 21/c'
_symmetry_Int_Tables_number      14
_space_group_name_Hall           '-P 2ybc'
loop_
_symmetry_equiv_pos_site_id
_symmetry_equiv_pos_as_xyz
1 x,y,z
2 -x,1/2+y,1/2-z
3 -x,-y,-z
4 x,1/2-y,1/2+z
_cell_length_a                   11.8462(16)
_cell_length_b                   7.9496(11)
_cell_length_c                   26.684(3)
_cell_angle_alpha                90
_cell_angle_beta                 94.734(6)
_cell_angle_gamma                90
_cell_volume                     2504.33
_exptl_crystal_colour            orange
_exptl_crystal_description       needle
_cell_formula_units_Z            4
loop_
_atom_site_label
_atom_site_type_symbol
_atom_site_fract_x
_atom_site_fract_y
_atom_site_fract_z
C1 C 0.0813(3) 0.7879(5) 0.29302(12)
C2 C -0.0108(3) 0.7312(5) 0.25999(11)
H1 H 0.0029 0.6666 0.2312
C3 C -0.1186(3) 0.7692(5) 0.26960(12)
H2 H -0.1795 0.7286 0.2475
C4 C -0.1428(2) 0.8665(4) 0.31112(11)
C5 C -0.2551(2) 0.9032(6) 0.32285(17)
H3 H -0.3169 0.8625 0.3012
C6 C -0.2768(3) 0.9945(7) 0.36396(18)
H4 H -0.3525 1.0170 0.3713
C7 C -0.1839(4) 1.0554(6) 0.39557(16)
H5 H -0.1982 1.1218 0.4240
C8 C -0.0750(3) 1.0219(5) 0.38667(12)
H6 H -0.0144 1.0618 0.4091
C9 C -0.0524(2) 0.9273(3) 0.34368(10)
C10 C 0.0606(2) 0.8849(4) 0.33313(11)
H7 H 0.1225 0.9256 0.3546
C11 C 0.2091(3) 0.7415(8) 0.28935(18)
H8 H 0.2151 0.6307 0.2728
H9 H 0.2487 0.7348 0.3234
C12 C 0.265(2) 0.882(2) 0.2577(7)
H10 H 0.2075 0.9277 0.2323
H11 H 0.2921 0.9748 0.2802
C13 C 0.3634(3) 0.8102(4) 0.23159(12)
C14 C 0.5125(3) 0.7528(4) 0.19212(12)
C15 C 0.4080(2) 0.8413(4) 0.18744(11)
C16 C 0.5955(3) 0.7222(4) 0.15396(14)
C17 C 0.3628(3) 0.9489(4) 0.14588(11)
C18 C 0.4435(3) 1.0530(4) 0.11830(13)
H12 H 0.4200 1.1712 0.1185
H13 H 0.4430 1.0135 0.0835
H14 H 0.5201 1.0423 0.1349
C19 C 0.1033(3) 1.0679(4) 0.08465(11)
C20 C 0.0220(3) 0.9806(4) 0.11060(13)
H15 H 0.0468 0.9107 0.1382
C21 C -0.0913(3) 0.9945(5) 0.09683(14)
H16 H -0.1448 0.9357 0.1149
C22 C -0.1278(3) 1.0958(5) 0.05606(14)
C23 C -0.0535(3) 1.1839(4) 0.03005(13)
H17 H -0.0803 1.2534 0.0026
C24 C 0.0619(3) 1.1717(4) 0.04379(11)
N1 N 0.5298(2) 0.6747(4) 0.23495(11)
N2 N 0.2542(2) 0.9502(3) 0.13686(9)
N3 N 0.2146(2) 1.0532(3) 0.09802(9)
H18 H 0.2632 1.1108 0.0816
N4 N 0.1355(3) 1.2690(4) 0.01490(10)
N5 N -0.2492(3) 1.1072(5) 0.04017(16)
O1 O 0.4341(2) 0.7108(3) 0.26056(9)
O2 O 0.6960(2) 0.7201(5) 0.16300(11)
O3 O 0.5415(2) 0.6974(3) 0.10979(9)
O4 O 0.2391(2) 1.2496(3) 0.02204(9)
O5 O 0.0944(3) 1.3676(4) -0.01645(10)
O6 O -0.2776(3) 1.1712(5) -0.00113(13)
O7 O -0.3152(3) 1.0540(5) 0.06877(15)
C25 C 0.5939(8) 0.6607(9) 0.0630(2)
H19 H 0.5567 0.7274 0.0350
H20 H 0.6752 0.6908 0.0668
C26 C 0.5808(11) 0.4827(11) 0.0525(4)
H21 H 0.6337 0.4489 0.0280
H22 H 0.5030 0.4602 0.0387
H23 H 0.5968 0.4186 0.0837
C27? C 0.0909(3) 0.8091(7) 0.29840(16)
C28? C 0.1795(4) 0.7312(10) 0.2637(2)
C29? C 0.250(3) 0.844(3) 0.2477(10)
C30? C 0.1193(3) 0.8984(7) 0.34377(17)
C31? C 0.6251(7) 0.6583(10) 0.0738(3)
C32? C 0.6368(13) 0.4781(12) 0.0683(5)
C33? C 0.0363(4) 0.9631(7) 0.37010(16)
C34? C -0.0786(4) 0.9424(6) 0.35448(15)
C35? C -0.1669(5) 1.0138(8) 0.3806(2)
C36? C -0.2777(4) 0.9954(10) 0.3642(3)
C37? C -0.3048(3) 0.9008(10) 0.3198(3)
C38? C -0.2241(3) 0.8321(8) 0.2929(2)
C39? C -0.1085(3) 0.8507(5) 0.31019(15)
C40? C -0.0198(4) 0.7844(6) 0.28274(14)
H24? H 0.2238 0.6431 0.2827
H25? H 0.1380 0.6769 0.2342
H26? H 0.2603 0.9288 0.2749
H27? H 0.2075 0.9017 0.2191
H28? H 0.1965 0.9129 0.3557
H29? H 0.6010 0.7090 0.0408
H30? H 0.6993 0.7075 0.0858
H31? H 0.6655 0.4532 0.0357
H32? H 0.5628 0.4243 0.0701
H33? H 0.6899 0.4347 0.0953
H34? H 0.0567 1.0244 0.4001
H35? H -0.1477 1.0762 0.4105
H36? H -0.3355 1.0448 0.3820
H37? H -0.3823 0.8848 0.3085
H38? H -0.2449 0.7721 0.2628
H39? H -0.0387 0.7218 0.2529
loop_
_geom_bond_atom_site_label_1
_geom_bond_atom_site_label_2
_geom_bond_site_symmetry_1
_geom_bond_site_symmetry_2
C1 C2 1_555 1_555
C2 H1 1_555 1_555
C3 C2 1_555 1_555
H2 C3 1_555 1_555
C4 C3 1_555 1_555
C5 C4 1_555 1_555
H3 C5 1_555 1_555
C6 C5 1_555 1_555
H4 C6 1_555 1_555
C7 C6 1_555 1_555
H5 C7 1_555 1_555
C8 C7 1_555 1_555
H6 C8 1_555 1_555
C9 C4 1_555 1_555
C10 C1 1_555 1_555
H7 C10 1_555 1_555
C11 C1 1_555 1_555
H8 C11 1_555 1_555
H9 C11 1_555 1_555
C12 C11 1_555 1_555
H10 C12 1_555 1_555
H11 C12 1_555 1_555
C13 C12 1_555 1_555
C14 C15 1_555 1_555
C15 C13 1_555 1_555
C16 C14 1_555 1_555
C17 C15 1_555 1_555
C18 C17 1_555 1_555
H12 C18 1_555 1_555
H13 C18 1_555 1_555
H14 C18 1_555 1_555
C19 C20 1_555 1_555
C20 H15 1_555 1_555
C21 C20 1_555 1_555
H16 C21 1_555 1_555
C22 C21 1_555 1_555
C23 C22 1_555 1_555
H17 C23 1_555 1_555
C24 C19 1_555 1_555
N1 C14 1_555 1_555
N2 C17 1_555 1_555
N3 C19 1_555 1_555
H18 N3 1_555 1_555
N4 C24 1_555 1_555
N5 C22 1_555 1_555
O1 C13 1_555 1_555
O2 C16 1_555 1_555
O3 C16 1_555 1_555
O4 N4 1_555 1_555
O5 N4 1_555 1_555
O6 N5 1_555 1_555
O7 N5 1_555 1_555
C25 O3 1_555 1_555
H19 C25 1_555 1_555
H20 C25 1_555 1_555
C26 C25 1_555 1_555
H21 C26 1_555 1_555
H22 C26 1_555 1_555
H23 C26 1_555 1_555
C8 C9 1_555 1_555
C9 C10 1_555 1_555
C23 C24 1_555 1_555
N1 O1 1_555 1_555
N2 N3 1_555 1_555

#END
