
#######################################################################
#
#                 Cambridge Crystallographic Data Centre
#                                CCDC 
#
#######################################################################
#
# If this CIF has been generated from an entry in the Cambridge 
# Structural Database, then it will include bibliographic, chemical, 
# crystal, experimental, refinement or atomic coordinate data resulting 
# from the CCDC's data processing and validation procedures.
#
#######################################################################

data_PABSOC
_chemical_formula_moiety         'C22 H26 O3'
_chemical_name_systematic        
'2-(Cyclohepta-2,4,6-trien-1-yl)-2-methylpropanoic anhydride'
_symmetry_cell_setting           monoclinic
_symmetry_space_group_name_H-M   'P 21/a'
_symmetry_Int_Tables_number      14
_space_group_name_Hall           '-P 2yab'
loop_
_symmetry_equiv_pos_site_id
_symmetry_equiv_pos_as_xyz
1 x,y,z
2 1/2-x,1/2+y,-z
3 -x,-y,-z
4 1/2+x,1/2-y,z
_cell_length_a                   12.139(5)
_cell_length_b                   10.034(7)
_cell_length_c                   16.194(7)
_cell_angle_alpha                90
_cell_angle_beta                 105.29(3)
_cell_angle_gamma                90
_cell_volume                     1902.65
_exptl_crystal_colour            colorless
_exptl_crystal_description       box
_cell_formula_units_Z            4
loop_
_atom_site_label
_atom_site_type_symbol
_atom_site_fract_x
_atom_site_fract_y
_atom_site_fract_z
O1 O 0.48370(9) -0.12076(13) 0.55967(8)
O2 O 0.61282(8) 0.01530(10) 0.64702(6)
O3 O 0.43769(9) 0.09625(13) 0.64252(9)
C1 C 0.63444(13) -0.29287(17) 0.74074(10)
C2 C 0.65114(18) -0.3135(2) 0.82491(12)
C3 C 0.7581(2) -0.2973(2) 0.88839(12)
C4 C 0.8612(2) -0.3184(2) 0.87660(13)
C5 C 0.88376(15) -0.35997(19) 0.79831(13)
C6 C 0.82161(13) -0.33082(16) 0.72028(11)
C7 C 0.72441(11) -0.23249(14) 0.70472(9)
C8 C 0.57836(12) -0.10052(14) 0.60062(8)
C9 C 0.68084(13) -0.19143(14) 0.60933(9)
C10 C 0.77446(16) -0.1149(2) 0.58163(12)
C11 C 0.64280(18) -0.31153(19) 0.55088(11)
C12 C 0.64364(15) 0.12003(17) 0.84253(10)
C13 C 0.7115(2) 0.0497(2) 0.90561(11)
C14 C 0.8341(2) 0.0545(2) 0.92809(13)
C15 C 0.89681(18) 0.1615(2) 0.92234(13)
C16 C 0.85408(16) 0.28968(19) 0.89138(11)
C17 C 0.75805(14) 0.31050(16) 0.83003(10)
C18 C 0.69247(12) 0.19635(14) 0.78052(9)
C19 C 0.53758(11) 0.11186(14) 0.65906(8)
C20 C 0.60285(11) 0.23661(14) 0.69744(9)
C21 C 0.66415(15) 0.29309(17) 0.63337(11)
C22 C 0.51625(14) 0.33732(17) 0.71307(12)
H1 H 0.5596 -0.3187 0.7008
H2 H 0.5838 -0.3423 0.8452
H3 H 0.7548 -0.2677 0.9467
H4 H 0.9285 -0.3039 0.9269
H5 H 0.9531 -0.4164 0.8029
H6 H 0.8397 -0.3753 0.6701
H7 H 0.7505 -0.1477 0.7363
H8 H 0.7459 -0.0888 0.5201
H9 H 0.8433 -0.1731 0.5891
H10 H 0.7953 -0.0331 0.6176
H11 H 0.6155 -0.2808 0.4902
H12 H 0.7086 -0.3739 0.5566
H13 H 0.5794 -0.3586 0.5677
H14 H 0.5594 0.1221 0.8364
H15 H 0.6745 -0.0106 0.9396
H16 H 0.8760 -0.0296 0.9499
H17 H 0.9818 0.1509 0.9414
H18 H 0.8993 0.3696 0.9175
H19 H 0.7293 0.4036 0.8168
H20 H 0.7465 0.1385 0.7594
H21 H 0.6064 0.3193 0.5795
H22 H 0.7099 0.3730 0.6588
H23 H 0.7162 0.2237 0.6202
H24 H 0.4605 0.3599 0.6575
H25 H 0.5570 0.4200 0.7391
H26 H 0.4747 0.2980 0.7530
loop_
_geom_bond_atom_site_label_1
_geom_bond_atom_site_label_2
_geom_bond_site_symmetry_1
_geom_bond_site_symmetry_2
O1 C8 1_555 1_555
O2 C8 1_555 1_555
O3 C19 1_555 1_555
C1 C2 1_555 1_555
C2 C3 1_555 1_555
C3 C4 1_555 1_555
C4 C5 1_555 1_555
C5 C6 1_555 1_555
C6 C7 1_555 1_555
C7 C1 1_555 1_555
C8 C9 1_555 1_555
C9 C7 1_555 1_555
C10 C9 1_555 1_555
C11 C9 1_555 1_555
C12 C13 1_555 1_555
C13 C14 1_555 1_555
C14 C15 1_555 1_555
C15 C16 1_555 1_555
C16 C17 1_555 1_555
C17 C18 1_555 1_555
C18 C12 1_555 1_555
C19 O2 1_555 1_555
C20 C18 1_555 1_555
C21 C20 1_555 1_555
C22 C20 1_555 1_555
H1 C1 1_555 1_555
H2 C2 1_555 1_555
H3 C3 1_555 1_555
H4 C4 1_555 1_555
H5 C5 1_555 1_555
H6 C6 1_555 1_555
H7 C7 1_555 1_555
H8 C10 1_555 1_555
H9 C10 1_555 1_555
H10 C10 1_555 1_555
H11 C11 1_555 1_555
H12 C11 1_555 1_555
H13 C11 1_555 1_555
H14 C12 1_555 1_555
H15 C13 1_555 1_555
H16 C14 1_555 1_555
H17 C15 1_555 1_555
H18 C16 1_555 1_555
H19 C17 1_555 1_555
H20 C18 1_555 1_555
H21 C21 1_555 1_555
H22 C21 1_555 1_555
H23 C21 1_555 1_555
H24 C22 1_555 1_555
H25 C22 1_555 1_555
H26 C22 1_555 1_555
C19 C20 1_555 1_555

#END
