
#######################################################################
#
#                 Cambridge Crystallographic Data Centre
#                                CCDC 
#
#######################################################################
#
# If this CIF has been generated from an entry in the Cambridge 
# Structural Database, then it will include bibliographic, chemical, 
# crystal, experimental, refinement or atomic coordinate data resulting 
# from the CCDC's data processing and validation procedures.
#
#######################################################################

data_PABTUK
_chemical_formula_moiety         'C14 H17 N1 O5'
_chemical_name_systematic        
1-(2,3-dimethoxy-6-(2-nitroprop-1-en-1-yl)phenyl)acetone
_symmetry_cell_setting           monoclinic
_symmetry_space_group_name_H-M   'P 21/c'
_symmetry_Int_Tables_number      14
_space_group_name_Hall           '-P 2ybc'
loop_
_symmetry_equiv_pos_site_id
_symmetry_equiv_pos_as_xyz
1 x,y,z
2 -x,1/2+y,1/2-z
3 -x,-y,-z
4 x,1/2-y,1/2+z
_cell_length_a                   12.9058(14)
_cell_length_b                   13.0754(14)
_cell_length_c                   8.2832(9)
_cell_angle_alpha                90
_cell_angle_beta                 99.275(2)
_cell_angle_gamma                90
_cell_volume                     1379.5
_exptl_crystal_colour            'pale yellow'
_cell_formula_units_Z            4
loop_
_atom_site_label
_atom_site_type_symbol
_atom_site_fract_x
_atom_site_fract_y
_atom_site_fract_z
O1 O 0.52469(9) 0.37846(10) -0.25201(16)
O2 O 0.91878(10) 0.53826(10) 0.60246(16)
O3 O 0.70849(9) 0.47229(10) -0.26422(15)
O4 O 0.93838(10) 0.38587(11) 0.70267(17)
O5 O 0.74905(12) 0.68497(11) -0.0006(2)
N1 N 0.89869(11) 0.44621(12) 0.59617(19)
C1 C 0.42904(14) 0.32443(15) -0.2443(3)
H1 H 0.4451 0.2596 -0.1864
H2 H 0.3927 0.3108 -0.3555
H3 H 0.3839 0.3660 -0.1858
C2 C 0.58573(13) 0.39968(13) -0.1062(2)
C3 C 0.56053(14) 0.37468(14) 0.0463(2)
H4 H 0.4951 0.3435 0.0543
C4 C 0.63162(14) 0.39566(14) 0.1860(2)
H5 H 0.6146 0.3770 0.2894
C5 C 0.72748(13) 0.44339(13) 0.1796(2)
C6 C 0.80106(14) 0.46678(14) 0.3296(2)
H6 H 0.8347 0.5316 0.3357
C7 C 0.82450(13) 0.40500(14) 0.4572(2)
C8 C 0.68068(13) 0.44997(13) -0.1143(2)
C9 C 0.64678(16) 0.54969(15) -0.3574(2)
H7 H 0.5898 0.5174 -0.4327
H8 H 0.6913 0.5891 -0.4200
H9 H 0.6170 0.5955 -0.2832
C10 C 0.75099(13) 0.47320(13) 0.0257(2)
C11 C 0.79068(15) 0.29775(14) 0.4797(2)
H10 H 0.7370 0.2971 0.5510
H11 H 0.8513 0.2571 0.5297
H12 H 0.7615 0.2684 0.3731
C12 C 0.84954(13) 0.53077(13) 0.0077(2)
H13 H 0.8781 0.5033 -0.0875
H14 H 0.9027 0.5192 0.1064
C13 C 0.83149(14) 0.64482(15) -0.0154(2)
C14 C 0.92152(16) 0.70498(15) -0.0591(3)
H15 H 0.9324 0.6868 -0.1699
H16 H 0.9852 0.6894 0.0186
H17 H 0.9060 0.7782 -0.0546
loop_
_geom_bond_atom_site_label_1
_geom_bond_atom_site_label_2
_geom_bond_site_symmetry_1
_geom_bond_site_symmetry_2
O1 C1 1_555 1_555
O2 N1 1_555 1_555
O3 C8 1_555 1_555
O4 N1 1_555 1_555
O5 C13 1_555 1_555
N1 C7 1_555 1_555
C1 H1 1_555 1_555
H2 C1 1_555 1_555
H3 C1 1_555 1_555
C2 O1 1_555 1_555
C3 C2 1_555 1_555
H4 C3 1_555 1_555
C4 C3 1_555 1_555
H5 C4 1_555 1_555
C5 C4 1_555 1_555
C6 C5 1_555 1_555
H6 C6 1_555 1_555
C7 C6 1_555 1_555
C8 C2 1_555 1_555
C9 O3 1_555 1_555
H7 C9 1_555 1_555
H8 C9 1_555 1_555
H9 C9 1_555 1_555
C10 C5 1_555 1_555
C11 C7 1_555 1_555
H10 C11 1_555 1_555
H11 C11 1_555 1_555
H12 C11 1_555 1_555
C12 C10 1_555 1_555
H13 C12 1_555 1_555
H14 C12 1_555 1_555
C13 C12 1_555 1_555
C14 C13 1_555 1_555
H15 C14 1_555 1_555
H16 C14 1_555 1_555
H17 C14 1_555 1_555
C8 C10 1_555 1_555

#END
