
#######################################################################
#
#                 Cambridge Crystallographic Data Centre
#                                CCDC 
#
#######################################################################
#
# If this CIF has been generated from an entry in the Cambridge 
# Structural Database, then it will include bibliographic, chemical, 
# crystal, experimental, refinement or atomic coordinate data resulting 
# from the CCDC's data processing and validation procedures.
#
#######################################################################

data_PABVUM
_chemical_name_common            '(4S,5R,7R)-5-chloro-crassalactone D'
_chemical_formula_moiety         'C13 H11 Cl1 O4'
_chemical_name_systematic        
9-chloro-8-hydroxy-7-phenyl-1,6-dioxaspiro[4.4]non-3-en-2-one
_chemical_properties_biological  'Antitumour activity'
_symmetry_cell_setting           monoclinic
_symmetry_space_group_name_H-M   'P 21'
_symmetry_Int_Tables_number      4
_space_group_name_Hall           'P 2yb'
loop_
_symmetry_equiv_pos_site_id
_symmetry_equiv_pos_as_xyz
1 x,y,z
2 -x,1/2+y,-z
_cell_length_a                   17.4319(13)
_cell_length_b                   5.4079(3)
_cell_length_c                   21.5424(17)
_cell_angle_alpha                90
_cell_angle_beta                 113.782(9)
_cell_angle_gamma                90
_cell_volume                     1858.36
_exptl_crystal_colour            colorless
_exptl_crystal_description       needle
_cell_formula_units_Z            6
loop_
_atom_site_label
_atom_site_type_symbol
_atom_site_fract_x
_atom_site_fract_y
_atom_site_fract_z
Cl1 Cl -0.00684(6) -0.2762(2) 0.42081(4)
O1 O 0.26064(17) 0.3033(5) 0.62410(12)
O2 O 0.18508(14) 0.1687(4) 0.51845(10)
O3 O 0.18767(14) -0.1566(4) 0.44874(10)
O4 O 0.00180(15) 0.0400(5) 0.31269(11)
H1 H -0.0190(11) 0.177(4) 0.2997(11)
C1 C 0.2223(2) 0.1377(7) 0.58772(17)
C2 C 0.2043(2) -0.1117(7) 0.60345(17)
H2 H 0.2209 -0.178 0.6468
C3 C 0.1608(2) -0.2274(7) 0.54667(16)
H3 H 0.1417 -0.3892 0.5439
C4 C 0.1463(2) -0.0651(6) 0.48738(14)
C5 C 0.0574(2) -0.0043(6) 0.43752(15)
H4 H 0.0335 0.1312 0.4542
C6 C 0.0711(2) 0.0725(6) 0.37472(14)
H5 H 0.0886 0.2462 0.3792
C7 C 0.14363(19) -0.0892(6) 0.37756(14)
H6 H 0.1208 -0.2399 0.3514
C8 C 0.2027(2) 0.0287(7) 0.35127(16)
C9 C 0.2476(2) 0.2398(8) 0.38201(19)
H7 H 0.2423 0.3058 0.4199
C10 C 0.3001(3) 0.3520(9) 0.3565(2)
H8 H 0.33 0.4929 0.3773
C11 C 0.3079(3) 0.2554(14) 0.3007(3)
H9 H 0.3434 0.3305 0.2837
C12 C 0.2640(3) 0.0504(14) 0.2698(2)
H10 H 0.2686 -0.0119 0.2312
C13 C 0.2121(3) -0.0668(9) 0.29562(19)
H11 H 0.1837 -0.2102 0.2752
Cl2 Cl 0.44509(6) -0.27888(19) 0.85712(4)
O5 O 0.35865(15) 0.1029(5) 0.75594(11)
H12 H 0.337(2) 0.186(7) 0.7230(15)
O6 O 0.54962(14) -0.1796(4) 0.76710(10)
O7 O 0.62492(15) 0.1318(4) 0.84132(12)
O8 O 0.75654(18) 0.2497(6) 0.90490(18)
C14 C 0.7046(3) 0.0919(8) 0.8899(2)
C15 C 0.7082(2) -0.1619(8) 0.91397(19)
H13 H 0.7551 -0.2369 0.9466
C16 C 0.6350(2) -0.2677(7) 0.88241(16)
H14 H 0.6221 -0.4293 0.8895
C17 C 0.5757(2) -0.0908(6) 0.83356(15)
C18 C 0.49532(19) -0.0144(6) 0.84073(15)
H15 H 0.5062 0.1126 0.8757
C19 C 0.4448(2) 0.0880(6) 0.77038(15)
H16 H 0.4659 0.2525 0.7663
C20 C 0.4653(2) -0.0935(6) 0.72490(15)
H17 H 0.4265 -0.2338 0.7148
C21 C 0.4624(2) 0.0109(7) 0.65913(15)
C22 C 0.5105(2) 0.2142(8) 0.65886(17)
H18 H 0.5457 0.2862 0.6996
C23 C 0.5062(3) 0.3103(8) 0.59817(19)
H19 H 0.5394 0.4448 0.5981
C24 C 0.4530(3) 0.2075(10) 0.5378(2)
H20 H 0.4491 0.2753 0.497
C25 C 0.4060(3) 0.0070(10) 0.53778(18)
H21 H 0.3704 -0.0635 0.4969
C26 C 0.4109(2) -0.0928(7) 0.59858(16)
H22 H 0.379 -0.2311 0.5982
Cl3 Cl -0.20088(6) 0.90334(15) 0.23307(4)
O9 O -0.40656(15) 0.3248(4) -0.00629(11)
O10 O -0.28454(13) 0.4444(4) 0.07551(10)
O11 O -0.18109(12) 0.7408(4) 0.09603(10)
O12 O -0.06996(16) 0.5040(5) 0.26498(11)
H23 H -0.064(3) 0.647(5) 0.2795(19)
C27 C -0.3658(2) 0.4857(6) 0.03038(15)
C28 C -0.3864(2) 0.7424(6) 0.03741(16)
H24 H -0.4384 0.8163 0.0142
C29 C -0.3201(2) 0.8519(6) 0.08161(16)
H25 H -0.3173 1.0181 0.0935
C30 C -0.24984(19) 0.6739(5) 0.11017(15)
C31 C -0.2150(2) 0.6213(6) 0.18619(15)
H26 H -0.2503 0.5039 0.1975
C32 C -0.13043(19) 0.5098(6) 0.19747(14)
H27 H -0.1403 0.3387 0.1811
C33 C -0.10275(19) 0.6563(6) 0.14896(15)
H28 H -0.0701 0.8002 0.173
C34 C -0.0515(2) 0.5062(7) 0.12161(17)
C35 C -0.0855(3) 0.3254(8) 0.0741(2)
H29 H -0.1434 0.3038 0.0547
C36 C -0.0355(4) 0.1745(10) 0.0546(3)
H30 H -0.06 0.0531 0.022
C37 C 0.0496(4) 0.2014(12) 0.0826(3)
H31 H 0.0834 0.0967 0.0702
C38 C 0.0839(3) 0.3829(14) 0.1286(3)
H32 H 0.1417 0.4041 0.1474
C39 C 0.0344(3) 0.5386(10) 0.1484(2)
H33 H 0.059 0.6642 0.1796
loop_
_geom_bond_atom_site_label_1
_geom_bond_atom_site_label_2
_geom_bond_site_symmetry_1
_geom_bond_site_symmetry_2
Cl1 C5 1_555 1_555
O1 C1 1_555 1_555
O2 C1 1_555 1_555
O3 C4 1_555 1_555
O4 H1 1_555 1_555
C1 C2 1_555 1_555
C2 H2 1_555 1_555
C3 C2 1_555 1_555
H3 C3 1_555 1_555
C4 O2 1_555 1_555
C5 C4 1_555 1_555
H4 C5 1_555 1_555
C6 O4 1_555 1_555
H5 C6 1_555 1_555
C7 O3 1_555 1_555
H6 C7 1_555 1_555
C8 C7 1_555 1_555
C9 C8 1_555 1_555
H7 C9 1_555 1_555
C10 C9 1_555 1_555
H8 C10 1_555 1_555
C11 C10 1_555 1_555
H9 C11 1_555 1_555
C12 C11 1_555 1_555
H10 C12 1_555 1_555
C13 C8 1_555 1_555
H11 C13 1_555 1_555
Cl2 C18 1_555 1_555
O5 H12 1_555 1_555
O6 C17 1_555 1_555
O7 C14 1_555 1_555
O8 C14 1_555 1_555
C14 C15 1_555 1_555
C15 H13 1_555 1_555
C16 C15 1_555 1_555
H14 C16 1_555 1_555
C17 O7 1_555 1_555
C18 C17 1_555 1_555
H15 C18 1_555 1_555
C19 O5 1_555 1_555
H16 C19 1_555 1_555
C20 O6 1_555 1_555
H17 C20 1_555 1_555
C21 C20 1_555 1_555
C22 C21 1_555 1_555
H18 C22 1_555 1_555
C23 C22 1_555 1_555
H19 C23 1_555 1_555
C24 C23 1_555 1_555
H20 C24 1_555 1_555
C25 C24 1_555 1_555
H21 C25 1_555 1_555
C26 C21 1_555 1_555
H22 C26 1_555 1_555
Cl3 C31 1_555 1_555
O9 C27 1_555 1_555
O10 C27 1_555 1_555
O11 C30 1_555 1_555
O12 H23 1_555 1_555
C27 C28 1_555 1_555
C28 H24 1_555 1_555
C29 C28 1_555 1_555
H25 C29 1_555 1_555
C30 O10 1_555 1_555
C31 C30 1_555 1_555
H26 C31 1_555 1_555
C32 O12 1_555 1_555
H27 C32 1_555 1_555
C33 O11 1_555 1_555
H28 C33 1_555 1_555
C34 C33 1_555 1_555
C35 C34 1_555 1_555
H29 C35 1_555 1_555
C36 C35 1_555 1_555
H30 C36 1_555 1_555
C37 C36 1_555 1_555
H31 C37 1_555 1_555
C38 C37 1_555 1_555
H32 C38 1_555 1_555
C39 C34 1_555 1_555
H33 C39 1_555 1_555
C3 C4 1_555 1_555
C5 C6 1_555 1_555
C6 C7 1_555 1_555
C12 C13 1_555 1_555
C16 C17 1_555 1_555
C18 C19 1_555 1_555
C19 C20 1_555 1_555
C25 C26 1_555 1_555
C29 C30 1_555 1_555
C31 C32 1_555 1_555
C32 C33 1_555 1_555
C38 C39 1_555 1_555

#END
