
#######################################################################
#
#                 Cambridge Crystallographic Data Centre
#                                CCDC 
#
#######################################################################
#
# If this CIF has been generated from an entry in the Cambridge 
# Structural Database, then it will include bibliographic, chemical, 
# crystal, experimental, refinement or atomic coordinate data resulting 
# from the CCDC's data processing and validation procedures.
#
#######################################################################

data_PABVEW
_chemical_name_common            '( )-goniobutenolide B'
_chemical_formula_moiety         'C13 H12 O4'
_chemical_name_systematic        
5-(2,3-dihydroxy-3-phenylpropylidene)furan-2(5H)-one
_symmetry_cell_setting           orthorhombic
_symmetry_space_group_name_H-M   'P 21 21 21'
_symmetry_Int_Tables_number      19
_space_group_name_Hall           'P 2ac 2ab'
loop_
_symmetry_equiv_pos_site_id
_symmetry_equiv_pos_as_xyz
1 x,y,z
2 1/2-x,-y,1/2+z
3 1/2+x,1/2-y,-z
4 -x,1/2+y,1/2-z
_cell_length_a                   5.8885(9)
_cell_length_b                   11.5618(16)
_cell_length_c                   16.635(2)
_cell_angle_alpha                90
_cell_angle_beta                 90
_cell_angle_gamma                90
_cell_volume                     1132.54
_cell_formula_units_Z            4
loop_
_atom_site_label
_atom_site_type_symbol
_atom_site_fract_x
_atom_site_fract_y
_atom_site_fract_z
O1 O 0.6604(3) 0.88101(15) 0.73135(9)
O2 O 0.8049(3) 0.75672(16) 0.82118(10)
O3 O 0.3356(3) 1.11823(17) 0.50941(10)
H1 H 0.2775 1.1528 0.4716
O4 O 0.6429(3) 1.23318(14) 0.61073(10)
H2 H 0.5127 1.2349 0.6282
C1 C 0.6120(4) 1.0271(2) 0.63355(13)
H3 H 0.4603 1.0049 0.6313
C2 C 0.6372(5) 0.9948(2) 0.45562(13)
C3 C 0.6888(4) 1.1212(2) 0.57834(13)
H4 H 0.8533 1.1139 0.5709
C4 C 0.7451(4) 0.9735(2) 0.68528(13)
C5 C 0.8357(5) 0.8385(2) 0.77754(14)
C6 C 0.5742(4) 1.1075(2) 0.49605(13)
H5 H 0.6233 1.1714 0.4615
C7 C 1.0344(5) 0.9096(3) 0.76238(15)
H6 H 1.1759 0.9009 0.7865
C8 C 0.9044(5) 0.8825(3) 0.37857(18)
H7 H 1.0433 0.8769 0.3523
C9 C 0.9794(4) 0.9892(2) 0.70821(14)
H8 H 1.0762 1.0459 0.6883
C10 C 0.8437(5) 0.9839(3) 0.41717(14)
H9 H 0.9442 1.0460 0.4172
C11 C 0.4913(5) 0.9018(2) 0.45579(15)
H10 H 0.3514 0.9075 0.4814
C12 C 0.5522(6) 0.7998(3) 0.41792(19)
H11 H 0.4531 0.7372 0.4185
C13 C 0.7578(7) 0.7904(3) 0.3795(2)
H12 H 0.7975 0.7217 0.3542
loop_
_geom_bond_atom_site_label_1
_geom_bond_atom_site_label_2
_geom_bond_site_symmetry_1
_geom_bond_site_symmetry_2
O1 C4 1_555 1_555
O2 C5 1_555 1_555
O3 H1 1_555 1_555
O4 H2 1_555 1_555
C1 H3 1_555 1_555
C2 C6 1_555 1_555
C3 O4 1_555 1_555
H4 C3 1_555 1_555
C4 C1 1_555 1_555
C5 O1 1_555 1_555
C6 O3 1_555 1_555
H5 C6 1_555 1_555
C7 C5 1_555 1_555
H6 C7 1_555 1_555
C8 H7 1_555 1_555
C9 C4 1_555 1_555
H8 C9 1_555 1_555
C10 C2 1_555 1_555
H9 C10 1_555 1_555
C11 C2 1_555 1_555
H10 C11 1_555 1_555
C12 C11 1_555 1_555
H11 C12 1_555 1_555
C13 C8 1_555 1_555
H12 C13 1_555 1_555
C1 C3 1_555 1_555
C3 C6 1_555 1_555
C7 C9 1_555 1_555
C8 C10 1_555 1_555
C12 C13 1_555 1_555

#END
