
#######################################################################
#
#                 Cambridge Crystallographic Data Centre
#                                CCDC 
#
#######################################################################
#
# If this CIF has been generated from an entry in the Cambridge 
# Structural Database, then it will include bibliographic, chemical, 
# crystal, experimental, refinement or atomic coordinate data resulting 
# from the CCDC's data processing and validation procedures.
#
#######################################################################

data_PABVAS
_chemical_compound_source        'Croton crassifolius'
_chemical_formula_moiety         'C20 H20 O5'
_chemical_name_systematic        
5-(3-furyl)-1',5'-dimethyl-11'H-spiro[furan-3,6'-[10]oxatricyclo[7.2.1.0^2,7^]dodec[2(7)]ene]-2,11'-dione
_chemical_properties_biological  'anti-angiogenic activity'
_symmetry_cell_setting           orthorhombic
_symmetry_space_group_name_H-M   'P 21 21 21'
_symmetry_Int_Tables_number      19
_space_group_name_Hall           'P 2ac 2ab'
loop_
_symmetry_equiv_pos_site_id
_symmetry_equiv_pos_as_xyz
1 x,y,z
2 1/2-x,-y,1/2+z
3 1/2+x,1/2-y,-z
4 -x,1/2+y,1/2-z
_cell_length_a                   10.12735(15)
_cell_length_b                   11.3468(2)
_cell_length_c                   14.7647(3)
_cell_angle_alpha                90
_cell_angle_beta                 90
_cell_angle_gamma                90
_cell_volume                     1696.66
_exptl_crystal_colour            'light colorless'
_exptl_crystal_description       block
_cell_formula_units_Z            4
loop_
_atom_site_label
_atom_site_type_symbol
_atom_site_fract_x
_atom_site_fract_y
_atom_site_fract_z
C1 C -0.34765(15) -0.06973(13) -0.34998(10)
H1 H -0.3453 -0.0209 -0.2961
H2 H -0.4390 -0.0902 -0.3617
C2 C -0.29398(16) -0.00008(13) -0.42951(10)
H3 H -0.3315 0.0795 -0.4317
C3 C -0.14422(16) 0.00297(13) -0.42698(11)
H4 H -0.1109 0.0189 -0.3666
H5 H -0.1083 0.0600 -0.4692
C4 C -0.11625(14) -0.12385(13) -0.45664(9)
C5 C -0.16161(14) -0.20850(12) -0.38081(9)
C6 C -0.08507(15) -0.32084(14) -0.36787(10)
H6 H 0.0086 -0.3035 -0.3704
H7 H -0.1054 -0.3745 -0.4171
C7 C -0.11639(15) -0.38036(13) -0.27845(10)
H8 H -0.0739 -0.3373 -0.2298
H9 H -0.0805 -0.4596 -0.2789
C8 C -0.26418(14) -0.38637(13) -0.26028(9)
H10 H -0.3048 -0.4283 -0.3112
C9 C -0.32431(13) -0.26017(13) -0.25779(9)
C10 C -0.26947(14) -0.18115(12) -0.33299(9)
C11 C -0.47327(13) -0.26350(13) -0.25617(10)
H11 H -0.5261 -0.2935 -0.3022
C12 C -0.51753(13) -0.21759(12) -0.17982(10)
C13 C -0.64912(14) -0.19812(12) -0.14348(9)
C14 C -0.77321(14) -0.21979(14) -0.18717(10)
H12 H -0.7863 -0.2505 -0.2449
C15 C -0.86638(15) -0.18683(14) -0.12798(11)
H13 H -0.9567 -0.1907 -0.1389
C16 C -0.67842(15) -0.15515(15) -0.06096(11)
H14 H -0.6160 -0.1340 -0.0177
C17 C -0.29478(17) -0.45608(14) -0.17452(10)
H15 H -0.2708 -0.5371 -0.1833
H16 H -0.3875 -0.4509 -0.1615
H17 H -0.2454 -0.4241 -0.1248
C18 C -0.21989(15) -0.13721(14) -0.53061(10)
C19 C 0.02298(15) -0.14444(15) -0.49281(11)
H18 H 0.0290 -0.2225 -0.5176
H19 H 0.0855 -0.1361 -0.4443
H20 H 0.0421 -0.0877 -0.5392
C20 C -0.29709(14) -0.20176(12) -0.16557(10)
O1 O -0.32283(10) -0.06618(10) -0.51250(7)
O2 O -0.21761(11) -0.20032(11) -0.59621(7)
O3 O -0.41479(9) -0.17934(9) -0.12249(6)
O4 O -0.19472(10) -0.17697(10) -0.13049(7)
O5 O -0.81077(11) -0.14671(11) -0.04918(8)
loop_
_geom_bond_atom_site_label_1
_geom_bond_atom_site_label_2
_geom_bond_site_symmetry_1
_geom_bond_site_symmetry_2
C1 H1 1_555 1_555
H2 C1 1_555 1_555
C2 C1 1_555 1_555
H3 C2 1_555 1_555
C3 C2 1_555 1_555
H4 C3 1_555 1_555
H5 C3 1_555 1_555
C4 C3 1_555 1_555
C5 C4 1_555 1_555
C6 C5 1_555 1_555
H6 C6 1_555 1_555
H7 C6 1_555 1_555
C7 C6 1_555 1_555
H8 C7 1_555 1_555
H9 C7 1_555 1_555
C8 C7 1_555 1_555
H10 C8 1_555 1_555
C9 C8 1_555 1_555
C10 C1 1_555 1_555
C11 C9 1_555 1_555
H11 C11 1_555 1_555
C12 C11 1_555 1_555
C13 C12 1_555 1_555
C14 C13 1_555 1_555
H12 C14 1_555 1_555
C15 C14 1_555 1_555
H13 C15 1_555 1_555
C16 C13 1_555 1_555
H14 C16 1_555 1_555
C17 C8 1_555 1_555
H15 C17 1_555 1_555
H16 C17 1_555 1_555
H17 C17 1_555 1_555
C18 C4 1_555 1_555
C19 C4 1_555 1_555
H18 C19 1_555 1_555
H19 C19 1_555 1_555
H20 C19 1_555 1_555
C20 C9 1_555 1_555
O1 C2 1_555 1_555
O2 C18 1_555 1_555
O3 C12 1_555 1_555
O4 C20 1_555 1_555
O5 C15 1_555 1_555
C5 C10 1_555 1_555
C9 C10 1_555 1_555
C16 O5 1_555 1_555
C18 O1 1_555 1_555
C20 O3 1_555 1_555

#END
