
#######################################################################
#
#                 Cambridge Crystallographic Data Centre
#                                CCDC 
#
#######################################################################
#
# If this CIF has been generated from an entry in the Cambridge 
# Structural Database, then it will include bibliographic, chemical, 
# crystal, experimental, refinement or atomic coordinate data resulting 
# from the CCDC's data processing and validation procedures.
#
#######################################################################

data_PABWAT
_chemical_name_common            '(4R,5R,7S)-5-iodo-crassalactone D'
_chemical_formula_moiety         'C13 H11 I1 O4'
_chemical_name_systematic        
8-hydroxy-9-iodo-7-phenyl-1,6-dioxaspiro[4.4]non-3-en-2-one
_chemical_properties_biological  'Antitumour activity'
_symmetry_cell_setting           orthorhombic
_symmetry_space_group_name_H-M   'P 21 21 21'
_symmetry_Int_Tables_number      19
_space_group_name_Hall           'P 2ac 2ab'
loop_
_symmetry_equiv_pos_site_id
_symmetry_equiv_pos_as_xyz
1 x,y,z
2 1/2-x,-y,1/2+z
3 -x,1/2+y,1/2-z
4 1/2+x,1/2-y,-z
_cell_length_a                   10.4305(4)
_cell_length_b                   11.5851(3)
_cell_length_c                   21.3086(7)
_cell_angle_alpha                90
_cell_angle_beta                 90
_cell_angle_gamma                90
_cell_volume                     2574.9
_exptl_crystal_colour            colorless
_exptl_crystal_description       Needle
_cell_formula_units_Z            8
loop_
_atom_site_label
_atom_site_type_symbol
_atom_site_fract_x
_atom_site_fract_y
_atom_site_fract_z
I1 I 0.21405(6) 0.34181(4) 0.25982(2)
O1 O 0.2301(4) 0.4015(4) 0.4087(2)
O2 O 0.2923(6) 0.2533(5) 0.4685(3)
O3 O 0.3020(5) 0.5953(4) 0.3102(2)
H1 H 0.3275 0.6515 0.2904
O4 O 0.0808(5) 0.5494(4) 0.4107(2)
C1 C 0.0145(7) 0.3552(7) 0.4037(4)
H2 H -0.0722 0.3564 0.3937
C2 C 0.1036(6) 0.6452(6) 0.3683(3)
H3 H 0.0201 0.6769 0.356
C3 C 0.2075(8) 0.3026(6) 0.4417(3)
C4 C 0.1097(6) 0.4448(6) 0.3832(3)
C5 C 0.0696(8) 0.2758(7) 0.4372(4)
H4 H 0.0289 0.2127 0.4554
C6 C 0.1168(7) 0.4696(6) 0.3139(3)
H5 H 0.0282 0.4712 0.2986
C7 C 0.1751(7) 0.7377(6) 0.4035(3)
C8 C 0.2990(11) 0.9065(7) 0.4737(4)
H6 H 0.3399 0.9626 0.4977
C9 C 0.3476(9) 0.7976(8) 0.4704(4)
H7 H 0.4231 0.7802 0.4916
C10 C 0.1667(7) 0.5924(6) 0.3089(3)
H8 H 0.1341 0.6298 0.2709
C11 C 0.1255(9) 0.8482(6) 0.4065(4)
H9 H 0.0502 0.8662 0.3852
C12 C 0.2871(8) 0.7129(6) 0.4363(3)
H10 H 0.3212 0.6388 0.4351
C13 C 0.1888(12) 0.9326(8) 0.4413(5)
H11 H 0.1562 1.0073 0.4426
I2 I 0.36400(6) 1.13862(4) 0.13271(3)
O5 O 0.2867(4) 0.8860(4) 0.08080(19)
H12 H 0.28 0.8436 0.0502
O6 O 0.2369(5) 0.9379(5) 0.2177(2)
O7 O 0.3975(5) 0.7995(4) 0.2095(2)
O8 O 0.1034(5) 1.0282(6) 0.2837(3)
C14 C 0.3600(6) 0.6638(5) 0.1248(3)
C15 C 0.4326(7) 0.9707(6) 0.1546(3)
H13 H 0.5251 0.9774 0.1617
C16 C 0.4164(7) 0.5849(6) 0.0849(3)
H14 H 0.5012 0.5948 0.0726
C17 C 0.4339(7) 0.7684(6) 0.1459(3)
H15 H 0.5255 0.7494 0.1456
C18 C 0.2090(8) 0.9990(7) 0.2719(3)
C19 C 0.3469(9) 0.4905(7) 0.0630(4)
H16 H 0.3853 0.4374 0.0362
C20 C 0.2324(7) 0.6478(6) 0.1420(3)
H17 H 0.1925 0.7014 0.168
C21 C 0.4130(6) 0.8779(6) 0.1054(3)
H18 H 0.4773 0.8835 0.072
C22 C 0.1653(8) 0.5542(7) 0.1211(4)
H19 H 0.081 0.5432 0.134
C23 C 0.3741(7) 0.9187(6) 0.2147(3)
C24 C 0.4243(8) 0.9678(8) 0.2755(3)
H20 H 0.5092 0.9648 0.2886
C25 C 0.3312(8) 1.0148(8) 0.3066(4)
H21 H 0.3396 1.0527 0.3448
C26 C 0.2220(10) 0.4758(7) 0.0810(4)
H22 H 0.1753 0.4131 0.0663
loop_
_geom_bond_atom_site_label_1
_geom_bond_atom_site_label_2
_geom_bond_site_symmetry_1
_geom_bond_site_symmetry_2
I1 C6 1_555 1_555
O1 C3 1_555 1_555
O2 C3 1_555 1_555
O3 H1 1_555 1_555
O4 C2 1_555 1_555
C1 H2 1_555 1_555
C2 H3 1_555 1_555
C3 C5 1_555 1_555
C4 O1 1_555 1_555
C5 C1 1_555 1_555
H4 C5 1_555 1_555
C6 C4 1_555 1_555
H5 C6 1_555 1_555
C7 C2 1_555 1_555
C8 H6 1_555 1_555
C9 C8 1_555 1_555
H7 C9 1_555 1_555
C10 O3 1_555 1_555
H8 C10 1_555 1_555
C11 C7 1_555 1_555
H9 C11 1_555 1_555
C12 C7 1_555 1_555
H10 C12 1_555 1_555
C13 C8 1_555 1_555
H11 C13 1_555 1_555
I2 C15 1_555 1_555
O5 H12 1_555 1_555
O6 C18 1_555 1_555
O7 C17 1_555 1_555
O8 C18 1_555 1_555
C14 C16 1_555 1_555
C15 H13 1_555 1_555
C16 H14 1_555 1_555
C17 C14 1_555 1_555
H15 C17 1_555 1_555
C18 C25 1_555 1_555
C19 C16 1_555 1_555
H16 C19 1_555 1_555
C20 C14 1_555 1_555
H17 C20 1_555 1_555
C21 O5 1_555 1_555
H18 C21 1_555 1_555
C22 C20 1_555 1_555
H19 C22 1_555 1_555
C23 O6 1_555 1_555
C24 C23 1_555 1_555
H20 C24 1_555 1_555
C25 C24 1_555 1_555
H21 C25 1_555 1_555
C26 C19 1_555 1_555
H22 C26 1_555 1_555
O4 C4 1_555 1_555
C1 C4 1_555 1_555
C2 C10 1_555 1_555
C6 C10 1_555 1_555
C9 C12 1_555 1_555
C11 C13 1_555 1_555
O7 C23 1_555 1_555
C15 C21 1_555 1_555
C15 C23 1_555 1_555
C17 C21 1_555 1_555
C22 C26 1_555 1_555

#END
