
#######################################################################
#
#                 Cambridge Crystallographic Data Centre
#                                CCDC 
#
#######################################################################
#
# If this CIF has been generated from an entry in the Cambridge 
# Structural Database, then it will include bibliographic, chemical, 
# crystal, experimental, refinement or atomic coordinate data resulting 
# from the CCDC's data processing and validation procedures.
#
#######################################################################

data_PACCOM
_chemical_formula_moiety         'C25 H31 N1 O3 S1'
_chemical_name_systematic        
N-p-tosyl-3-(4-hydroxy-4-phenylbutenyl)-5-isopropylidenepiperidine
_symmetry_cell_setting           triclinic
_symmetry_space_group_name_H-M   'P -1'
_symmetry_Int_Tables_number      2
_space_group_name_Hall           '-P 1'
loop_
_symmetry_equiv_pos_site_id
_symmetry_equiv_pos_as_xyz
1 x,y,z
2 -x,-y,-z
_cell_length_a                   10.2130(8)
_cell_length_b                   11.915(1)
_cell_length_c                   12.080(3)
_cell_angle_alpha                115.448(8)
_cell_angle_beta                 110.346(4)
_cell_angle_gamma                92.498(5)
_cell_volume                     1211.79
_exptl_crystal_description       block
_cell_formula_units_Z            2
loop_
_atom_site_label
_atom_site_type_symbol
_atom_site_fract_x
_atom_site_fract_y
_atom_site_fract_z
S1 S -0.4229(1) -0.5961(1) -0.8341(1)
O1 O -0.5385(8) -1.1028(6) -1.2340(5)
O2 O -0.4619(3) -0.6671(3) -0.7760(4)
O3 O -0.5333(3) -0.5814(3) -0.9347(3)
N1 N -0.3168(3) -0.6677(3) -0.9016(4)
C1 C -0.5940(6) -1.3466(6) -1.5542(7)
C2 C -0.6942(7) -1.4446(6) -1.6682(7)
C3 C -0.8368(6) -1.4494(6) -1.6996(6)
C4 C -0.8775(6) -1.3551(6) -1.6178(6)
C5 C -0.7758(7) -1.2538(6) -1.5017(6)
C6 C -0.6308(6) -1.2503(5) -1.4691(5)
C7 C -0.5135(8) -1.1443(6) -1.3429(6)
C8 C -0.4692(6) -1.0405(6) -1.3668(5)
C9 C -0.3430(6) -0.9370(6) -1.2466(6)
C10 C -0.3361(5) -0.8164(5) -1.1870(5)
C11 C -0.2133(5) -0.7116(4) -1.0684(5)
C12 C -0.1007(4) -0.7636(4) -0.9964(5)
C13 C -0.1511(5) -0.8086(4) -0.9136(5)
C14 C -0.2024(4) -0.7068(4) -0.8210(5)
C15 C -0.2649(4) -0.6128(4) -0.9707(4)
C16 C 0.0251(5) -0.7718(4) -1.0051(5)
C17 C 0.0741(6) -0.7263(6) -1.0854(7)
C18 C 0.1352(5) -0.8243(6) -0.9328(7)
C19 C -0.3227(4) -0.4450(4) -0.7040(4)
C20 C -0.2476(5) -0.4261(5) -0.5743(5)
C21 C -0.1703(6) -0.3079(6) -0.4739(5)
C22 C -0.1592(5) -0.2027(6) -0.4971(5)
C23 C -0.2333(6) -0.2230(5) -0.6267(6)
C24 C -0.3152(5) -0.3428(5) -0.7313(5)
C25 C -0.0733(7) -0.0733(7) -0.3872(7)
H1 H -0.6517 -1.0500 -1.2727
H2 H -0.4955 -1.3434 -1.5339
H3 H -0.6641 -1.5124 -1.7264
H4 H -0.9080 -1.5191 -1.7810
H5 H -0.9779 -1.3582 -1.6386
H6 H -0.8054 -1.1851 -1.4431
H7 H -0.4275 -1.1811 -1.3204
H8 H -0.4506 -1.0720 -1.4446
H9 H -0.5524 -1.0011 -1.3839
H10 H -0.2600 -0.9665 -1.2079
H11 H -0.4207 -0.7897 -1.2260
H12 H -0.1681 -0.6698 -1.1023
H13 H -0.2290 -0.8828 -0.9735
H14 H -0.0742 -0.8329 -0.8628
H15 H -0.1231 -0.6341 -0.7554
H16 H -0.2371 -0.7378 -0.7727
H17 H -0.3405 -0.5836 -1.0173
H18 H -0.1875 -0.5389 -0.9044
H19 H 0.1667 -0.7398 -1.0794
H20 H 0.0085 -0.7689 -1.1777
H21 H 0.0787 -0.6358 -1.0522
H22 H 0.0968 -0.9105 -0.9579
H23 H 0.2184 -0.8219 -0.9512
H24 H 0.1648 -0.7744 -0.8369
H25 H -0.2527 -0.4984 -0.5563
H26 H -0.1205 -0.2932 -0.3820
H27 H -0.2277 -0.1507 -0.6446
H28 H -0.3667 -0.3550 -0.8204
H29 H -0.0270 -0.0736 -0.3018
H30 H 0.0030 -0.0425 -0.4041
H31 H -0.1303 -0.0110 -0.3734
loop_
_geom_bond_atom_site_label_1
_geom_bond_atom_site_label_2
_geom_bond_site_symmetry_1
_geom_bond_site_symmetry_2
S1 O2 1_555 1_555
O1 C7 1_555 1_555
O3 S1 1_555 1_555
N1 S1 1_555 1_555
C1 C2 1_555 1_555
C2 C3 1_555 1_555
C3 C4 1_555 1_555
C4 C5 1_555 1_555
C5 C6 1_555 1_555
C6 C1 1_555 1_555
C7 C6 1_555 1_555
C8 C7 1_555 1_555
C9 C8 1_555 1_555
C10 C9 1_555 1_555
C11 C10 1_555 1_555
C12 C11 1_555 1_555
C13 C12 1_555 1_555
C14 N1 1_555 1_555
C15 N1 1_555 1_555
C16 C12 1_555 1_555
C17 C16 1_555 1_555
C18 C16 1_555 1_555
C19 S1 1_555 1_555
C20 C19 1_555 1_555
C21 C20 1_555 1_555
C22 C21 1_555 1_555
C23 C22 1_555 1_555
C24 C19 1_555 1_555
C25 C22 1_555 1_555
H1 O1 1_555 1_555
H2 C1 1_555 1_555
H3 C2 1_555 1_555
H4 C3 1_555 1_555
H5 C4 1_555 1_555
H6 C5 1_555 1_555
H7 C7 1_555 1_555
H8 C8 1_555 1_555
H9 C8 1_555 1_555
H10 C9 1_555 1_555
H11 C10 1_555 1_555
H12 C11 1_555 1_555
H13 C13 1_555 1_555
H14 C13 1_555 1_555
H15 C14 1_555 1_555
H16 C14 1_555 1_555
H17 C15 1_555 1_555
H18 C15 1_555 1_555
H19 C17 1_555 1_555
H20 C17 1_555 1_555
H21 C17 1_555 1_555
H22 C18 1_555 1_555
H23 C18 1_555 1_555
H24 C18 1_555 1_555
H25 C20 1_555 1_555
H26 C21 1_555 1_555
H27 C23 1_555 1_555
H28 C24 1_555 1_555
H29 C25 1_555 1_555
H30 C25 1_555 1_555
H31 C25 1_555 1_555
C11 C15 1_555 1_555
C13 C14 1_555 1_555
C23 C24 1_555 1_555

#END
