
#######################################################################
#
#                 Cambridge Crystallographic Data Centre
#                                CCDC 
#
#######################################################################
#
# If this CIF has been generated from an entry in the Cambridge 
# Structural Database, then it will include bibliographic, chemical, 
# crystal, experimental, refinement or atomic coordinate data resulting 
# from the CCDC's data processing and validation procedures.
#
#######################################################################

data_PACDAB
_chemical_formula_moiety         'C34 H31 N1 O4'
_chemical_name_systematic        
(4-methylphenyl)(5-(4-methylphenyl)-4-phenyl-1-(3,4,5-trimethoxyphenyl)-1H-pyrrol-3-yl)methanone
_symmetry_cell_setting           triclinic
_symmetry_space_group_name_H-M   'P -1'
_symmetry_Int_Tables_number      2
_space_group_name_Hall           '-P 1'
loop_
_symmetry_equiv_pos_site_id
_symmetry_equiv_pos_as_xyz
1 x,y,z
2 -x,-y,-z
_cell_length_a                   10.2739(11)
_cell_length_b                   11.7595(13)
_cell_length_c                   11.7723(13)
_cell_angle_alpha                76.562(2)
_cell_angle_beta                 83.010(2)
_cell_angle_gamma                88.457(2)
_cell_volume                     1373.06
_exptl_crystal_colour            colorless
_exptl_crystal_description       prismatic
_cell_formula_units_Z            2
loop_
_atom_site_label
_atom_site_type_symbol
_atom_site_fract_x
_atom_site_fract_y
_atom_site_fract_z
N1 N 0.03138(13) 0.67346(11) 0.15843(11)
O1 O 0.35608(13) 0.46225(12) 0.31019(13)
O2 O -0.34306(14) 0.90935(13) 0.02742(13)
O3 O -0.19431(15) 1.01964(11) -0.16624(13)
O4 O 0.06088(15) 0.97096(11) -0.20446(11)
C1 C 0.14572(16) 0.68865(15) 0.20075(14)
H1 H 0.1945 0.7573 0.1825
C2 C -0.01479(16) 0.56016(13) 0.20677(13)
C3 C 0.07430(15) 0.50434(13) 0.27950(13)
C4 C 0.17689(16) 0.58616(14) 0.27458(13)
C5 C 0.30492(17) 0.55584(15) 0.31864(15)
C6 C 0.37141(16) 0.63748(15) 0.37203(15)
C7 C 0.30479(18) 0.72160(16) 0.42016(16)
H2 H 0.2160 0.7336 0.4134
C8 C 0.3693(2) 0.78831(18) 0.47855(17)
H3 H 0.3229 0.8443 0.5113
C9 C 0.5020(2) 0.77298(18) 0.48893(17)
C10 C 0.56779(19) 0.68958(19) 0.43926(19)
H4 H 0.6571 0.6787 0.4443
C11 C 0.50443(18) 0.62234(18) 0.38260(18)
H5 H 0.5509 0.5658 0.3508
C12 C 0.5716(3) 0.8409(2) 0.5578(2)
H6 H 0.6212 0.7881 0.6113
H7 H 0.5082 0.8809 0.6012
H8 H 0.6298 0.8969 0.5045
C13 C 0.06401(15) 0.38550(13) 0.35725(13)
C14 C 0.08227(16) 0.37036(14) 0.47517(14)
H9 H 0.1038 0.4346 0.5028
C15 C 0.06904(17) 0.26184(16) 0.55177(15)
H10 H 0.0816 0.2535 0.6302
C16 C 0.0376(2) 0.16675(16) 0.51249(19)
H11 H 0.0274 0.0937 0.5642
C17 C 0.0211(2) 0.17978(16) 0.3960(2)
H12 H 0.0007 0.1150 0.3688
C18 C 0.03441(19) 0.28779(15) 0.31930(16)
H13 H 0.0233 0.2950 0.2407
C19 C -0.13245(15) 0.51328(13) 0.17355(13)
C20 C -0.22300(17) 0.44698(15) 0.25778(15)
H14 H -0.2138 0.4378 0.3370
C21 C -0.32680(19) 0.39431(17) 0.22602(18)
H15 H -0.3865 0.3504 0.2844
C22 C -0.34419(19) 0.40526(17) 0.10932(19)
C23 C -0.25619(18) 0.47387(17) 0.02555(17)
H16 H -0.2670 0.4843 -0.0535
C24 C -0.15234(17) 0.52749(15) 0.05611(14)
H17 H -0.0948 0.5738 -0.0025
C25 C -0.4550(2) 0.3428(2) 0.0758(3)
H18 H -0.4682 0.3770 -0.0043
H19 H -0.5338 0.3500 0.1264
H20 H -0.4333 0.2616 0.0838
C26 C -0.02825(17) 0.76358(14) 0.07681(14)
C27 C -0.15889(18) 0.78996(15) 0.09860(15)
H21 H -0.2089 0.7513 0.1673
C28 C -0.21487(19) 0.87541(15) 0.01607(16)
C29 C -0.1394(2) 0.93370(14) -0.08533(16)
C30 C -0.0064(2) 0.90796(14) -0.10397(14)
C31 C 0.04882(18) 0.82123(14) -0.02286(14)
H22 H 0.1370 0.8022 -0.0356
C32 C -0.4305(2) 0.8426(2) 0.1196(2)
H23 H -0.4241 0.7616 0.1169
H24 H -0.5186 0.8692 0.1105
H25 H -0.4082 0.8516 0.1938
C33 C -0.2751(3) 0.9761(2) -0.2364(2)
H26 H -0.2258 0.9222 -0.2748
H27 H -0.3044 1.0399 -0.2945
H28 H -0.3496 0.9367 -0.1873
C34 C 0.1958(2) 0.9450(2) -0.22727(19)
H29 H 0.2409 0.9558 -0.1637
H30 H 0.2326 0.9963 -0.2993
H31 H 0.2053 0.8654 -0.2343
loop_
_geom_bond_atom_site_label_1
_geom_bond_atom_site_label_2
_geom_bond_site_symmetry_1
_geom_bond_site_symmetry_2
N1 C1 1_555 1_555
O1 C5 1_555 1_555
O2 C28 1_555 1_555
O3 C29 1_555 1_555
O4 C30 1_555 1_555
C1 H1 1_555 1_555
C2 N1 1_555 1_555
C3 C2 1_555 1_555
C4 C1 1_555 1_555
C5 C4 1_555 1_555
C6 C5 1_555 1_555
C7 C6 1_555 1_555
H2 C7 1_555 1_555
C8 C7 1_555 1_555
H3 C8 1_555 1_555
C9 C8 1_555 1_555
C10 C9 1_555 1_555
H4 C10 1_555 1_555
C11 C6 1_555 1_555
H5 C11 1_555 1_555
C12 C9 1_555 1_555
H6 C12 1_555 1_555
H7 C12 1_555 1_555
H8 C12 1_555 1_555
C13 C3 1_555 1_555
C14 C13 1_555 1_555
H9 C14 1_555 1_555
C15 C14 1_555 1_555
H10 C15 1_555 1_555
C16 C15 1_555 1_555
H11 C16 1_555 1_555
C17 C16 1_555 1_555
H12 C17 1_555 1_555
C18 C13 1_555 1_555
H13 C18 1_555 1_555
C19 C2 1_555 1_555
C20 C19 1_555 1_555
H14 C20 1_555 1_555
C21 C20 1_555 1_555
H15 C21 1_555 1_555
C22 C21 1_555 1_555
C23 C22 1_555 1_555
H16 C23 1_555 1_555
C24 C19 1_555 1_555
H17 C24 1_555 1_555
C25 C22 1_555 1_555
H18 C25 1_555 1_555
H19 C25 1_555 1_555
H20 C25 1_555 1_555
C26 N1 1_555 1_555
C27 C26 1_555 1_555
H21 C27 1_555 1_555
C28 C27 1_555 1_555
C29 C28 1_555 1_555
C30 C29 1_555 1_555
C31 C26 1_555 1_555
H22 C31 1_555 1_555
C32 O2 1_555 1_555
H23 C32 1_555 1_555
H24 C32 1_555 1_555
H25 C32 1_555 1_555
C33 O3 1_555 1_555
H26 C33 1_555 1_555
H27 C33 1_555 1_555
H28 C33 1_555 1_555
C34 O4 1_555 1_555
H29 C34 1_555 1_555
H30 C34 1_555 1_555
H31 C34 1_555 1_555
C3 C4 1_555 1_555
C10 C11 1_555 1_555
C17 C18 1_555 1_555
C23 C24 1_555 1_555
C30 C31 1_555 1_555

#END
