
#######################################################################
#
#                 Cambridge Crystallographic Data Centre
#                                CCDC 
#
#######################################################################
#
# If this CIF has been generated from an entry in the Cambridge 
# Structural Database, then it will include bibliographic, chemical, 
# crystal, experimental, refinement or atomic coordinate data resulting 
# from the CCDC's data processing and validation procedures.
#
#######################################################################

data_PACDOM
_chemical_formula_moiety         'C12 H16 N2 O5'
_chemical_name_systematic        
1-(3'-Deoxy-3'-C,2'-O-(1-methylethylene)-\b-D-ribo-furanosyl)uracil
_symmetry_cell_setting           orthorhombic
_symmetry_space_group_name_H-M   'P 21 21 21'
_symmetry_Int_Tables_number      19
_space_group_name_Hall           'P 2ac 2ab'
loop_
_symmetry_equiv_pos_site_id
_symmetry_equiv_pos_as_xyz
1 x,y,z
2 1/2+x,1/2-y,-z
3 -x,1/2+y,1/2-z
4 1/2-x,-y,1/2+z
_cell_length_a                   7.438(2)
_cell_length_b                   12.737(2)
_cell_length_c                   13.438(3)
_cell_angle_alpha                90
_cell_angle_beta                 90
_cell_angle_gamma                90
_cell_volume                     1273.09
_cell_formula_units_Z            4
loop_
_atom_site_label
_atom_site_type_symbol
_atom_site_fract_x
_atom_site_fract_y
_atom_site_fract_z
O1 O 0.4539(7) 0.2745(4) 0.8681(5)
O2 O 0.3808(7) -0.0099(4) 0.8987(4)
O3 O 0.7697(9) 0.1476(4) 0.7593(4)
O4 O 0.7755(7) -0.2505(4) 1.0113(5)
O5 O 1.1158(8) 0.1929(5) 0.8434(5)
C1 C 0.796(1) 0.4835(7) 0.8501(8)
N1 N 0.6789(8) 0.0253(5) 0.8780(4)
N2 N 0.5836(8) -0.1300(5) 0.9541(5)
C2 C 0.631(1) 0.1208(6) 0.8251(6)
C3 C 0.608(1) 0.2138(6) 0.8960(6)
C4 C 0.538(1) -0.0358(6) 0.9095(6)
C5 C 0.767(1) 0.2841(6) 0.8817(6)
C6 C 0.755(1) -0.1629(5) 0.9716(6)
C7 C 0.833(1) 0.2543(6) 0.7773(6)
C8 C 1.039(1) 0.2535(8) 0.7680(8)
C9 C 0.897(1) -0.0932(6) 0.9436(6)
C10 C 0.8555(9) -0.0034(6) 0.8963(6)
C11 C 0.690(1) 0.3947(6) 0.8922(6)
C12 C 0.501(1) 0.3821(6) 0.8497(8)
H1 H 0.5280 0.1140 0.7839
H2 H 0.5889 0.1890 0.9649
H3 H 0.8619 0.2800 0.9309
H4 H 0.4860 -0.1739 0.9789
H5 H 0.7889 0.3050 0.7289
H6 H 1.0240 -0.1120 0.9549
H7 H 0.9490 0.0430 0.8750
H8 H 0.6850 0.4190 0.9599
H9 H 0.7620 0.5550 0.8420
H10 H 1.0839 0.2210 0.7080
H11 H 1.0950 0.3210 0.7730
H12 H 0.5059 0.3930 0.7749
H13 H 0.4170 0.4289 0.8740
H14 H 1.0920 0.1640 0.9010
H15 H 0.8105 0.4707 0.7637
H16 H 0.9042 0.5000 0.8672
loop_
_geom_bond_atom_site_label_1
_geom_bond_atom_site_label_2
_geom_bond_site_symmetry_1
_geom_bond_site_symmetry_2
O1 C3 1_555 1_555
O2 C4 1_555 1_555
O3 C2 1_555 1_555
O4 C6 1_555 1_555
O5 C8 1_555 1_555
C1 C11 1_555 1_555
N1 C2 1_555 1_555
N2 C4 1_555 1_555
C2 C3 1_555 1_555
C3 C5 1_555 1_555
C4 N1 1_555 1_555
C5 C7 1_555 1_555
C6 N2 1_555 1_555
C7 O3 1_555 1_555
C8 C7 1_555 1_555
C9 C6 1_555 1_555
C10 N1 1_555 1_555
C11 C5 1_555 1_555
C12 O1 1_555 1_555
H1 C2 1_555 1_555
H2 C3 1_555 1_555
H3 C5 1_555 1_555
H4 N2 1_555 1_555
H5 C7 1_555 1_555
H6 C9 1_555 1_555
H7 C10 1_555 1_555
H8 C11 1_555 1_555
H9 C1 1_555 1_555
H10 C8 1_555 1_555
H11 C8 1_555 1_555
H12 C12 1_555 1_555
H13 C12 1_555 1_555
H14 O5 1_555 1_555
H15 C1 1_555 1_555
H16 C1 1_555 1_555
C9 C10 1_555 1_555
C11 C12 1_555 1_555

#END
