
#######################################################################
#
#                 Cambridge Crystallographic Data Centre
#                                CCDC 
#
#######################################################################
#
# If this CIF has been generated from an entry in the Cambridge 
# Structural Database, then it will include bibliographic, chemical, 
# crystal, experimental, refinement or atomic coordinate data resulting 
# from the CCDC's data processing and validation procedures.
#
#######################################################################

data_PACLEK
_chemical_formula_moiety         'C6 H12 O2 S2'
_chemical_name_systematic        'cis-1,5-Dithiacyclo-octane 1,5-dioxide'
_symmetry_cell_setting           triclinic
_symmetry_space_group_name_H-M   'P -1'
_symmetry_Int_Tables_number      2
_space_group_name_Hall           '-P 1'
loop_
_symmetry_equiv_pos_site_id
_symmetry_equiv_pos_as_xyz
1 x,y,z
2 -x,-y,-z
_cell_length_a                   5.348(3)
_cell_length_b                   6.755(5)
_cell_length_c                   11.677(7)
_cell_angle_alpha                90.46(6)
_cell_angle_beta                 97.04(5)
_cell_angle_gamma                101.88(6)
_cell_volume                     409.452
_exptl_crystal_colour            colorless
_chemical_melting_point          '151-152 deg.C'
_cell_formula_units_Z            2
loop_
_atom_site_label
_atom_site_type_symbol
_atom_site_fract_x
_atom_site_fract_y
_atom_site_fract_z
S1 S 0.3456(3) 0.7386(2) 0.6080(1)
S2 S 0.7766(3) 0.7121(2) 0.9295(1)
O1 O 1.0650(7) 0.7549(6) 0.9353(3)
C1 C 0.7882(11) 0.9660(8) 0.7384(4)
C2 C 0.3761(10) 0.4524(8) 0.7855(4)
C3 C 0.6927(10) 0.8265(8) 0.6321(4)
C4 C 0.6635(10) 0.4926(7) 0.8339(4)
O2 O 0.2759(8) 0.7123(6) 0.4798(3)
C5 C 0.3145(10) 0.4829(8) 0.6564(4)
C6 C 0.6659(11) 0.9099(8) 0.8475(4)
H1 H 0.9698 0.9724 0.7561
H2 H 0.7592 1.0977 0.7182
H3 H 0.2969 0.5421 0.8261
H4 H 0.3015 0.3148 0.8006
H5 H 0.7459 0.8987 0.5658
H6 H 0.7709 0.7108 0.6409
H7 H 0.6946 0.3762 0.8755
H8 H 0.7615 0.5097 0.7698
H9 H 0.4282 0.4209 0.6174
H10 H 0.1396 0.4139 0.6332
H11 H 0.7010 1.0293 0.8968
H12 H 0.4833 0.8673 0.8262
loop_
_geom_bond_atom_site_label_1
_geom_bond_atom_site_label_2
_geom_bond_site_symmetry_1
_geom_bond_site_symmetry_2
S1 C3 1_555 1_555
S2 O1 1_555 1_555
C1 C3 1_555 1_555
C2 C4 1_555 1_555
C3 H5 1_555 1_555
C4 S2 1_555 1_555
O2 S1 1_555 1_555
C5 S1 1_555 1_555
C6 S2 1_555 1_555
H1 C1 1_555 1_555
H2 C1 1_555 1_555
H3 C2 1_555 1_555
H4 C2 1_555 1_555
H6 C3 1_555 1_555
H7 C4 1_555 1_555
H8 C4 1_555 1_555
H9 C5 1_555 1_555
H10 C5 1_555 1_555
H11 C6 1_555 1_555
H12 C6 1_555 1_555
C1 C6 1_555 1_555
C2 C5 1_555 1_555

#END
