
#######################################################################
#
#                 Cambridge Crystallographic Data Centre
#                                CCDC 
#
#######################################################################
#
# If this CIF has been generated from an entry in the Cambridge 
# Structural Database, then it will include bibliographic, chemical, 
# crystal, experimental, refinement or atomic coordinate data resulting 
# from the CCDC's data processing and validation procedures.
#
#######################################################################

data_PACNIS
_chemical_formula_moiety         'C18 H24 Br1 N1 O3'
_chemical_name_systematic        
'(1R,6S,5R)-t-Butyl 6-(2-bromophenoxy)-3-azabicyclo[3.2.1]octane-3-carboxylate'
_symmetry_cell_setting           orthorhombic
_symmetry_space_group_name_H-M   'P 21 21 21'
_symmetry_Int_Tables_number      19
_space_group_name_Hall           'P 2ac 2ab'
loop_
_symmetry_equiv_pos_site_id
_symmetry_equiv_pos_as_xyz
1 x,y,z
2 1/2-x,-y,1/2+z
3 -x,1/2+y,1/2-z
4 1/2+x,1/2-y,-z
_cell_length_a                   8.9284(2)
_cell_length_b                   10.1941(2)
_cell_length_c                   19.8175(4)
_cell_angle_alpha                90
_cell_angle_beta                 90
_cell_angle_gamma                90
_cell_volume                     1803.73
_exptl_crystal_colour            colorless
_exptl_crystal_description       prism
_cell_formula_units_Z            4
loop_
_atom_site_label
_atom_site_type_symbol
_atom_site_fract_x
_atom_site_fract_y
_atom_site_fract_z
N1 N 0.8057(3) 0.9181(2) 0.81505(11)
C1 C 0.9058(3) 0.9305(3) 0.87341(14)
H1 H 0.9844 0.8651 0.8706
H2 H 0.8497 0.9151 0.9146
C2 C 0.9754(3) 1.0671(3) 0.87554(13)
H3 H 1.0428 1.0765 0.9143
C3 C 0.8552(3) 1.1726(3) 0.87595(14)
H4 H 0.7656 1.1429 0.9001
C4 C 0.8205(4) 1.1992(3) 0.80168(14)
H5 H 0.7166 1.1792 0.7917
H6 H 0.8394 1.2903 0.7906
C5 C 0.9241(4) 1.1099(3) 0.76224(13)
H7 H 0.9537 1.1501 0.7194
C6 C 0.8523(4) 0.9757(3) 0.75090(14)
H8 H 0.7659 0.9849 0.7216
H9 H 0.9235 0.9180 0.7289
C7 C 1.0575(4) 1.0950(3) 0.80921(16)
H10 H 1.1163 1.1749 0.8117
H11 H 1.1214 1.0225 0.7960
C8 C 0.6993(3) 0.8217(3) 0.81144(13)
O1 O 0.6315(3) 0.7953(2) 0.76076(10)
O2 O 0.6821(2) 0.76297(18) 0.87174(9)
C9 C 0.5808(4) 0.6499(3) 0.87889(16)
C10 C 0.6020(5) 0.6128(4) 0.95222(18)
H12 H 0.5708 0.6843 0.9804
H13 H 0.7058 0.5940 0.9604
H14 H 0.5429 0.5366 0.9623
C11 C 0.6289(6) 0.5390(4) 0.8328(2)
H15 H 0.6138 0.5644 0.7866
H16 H 0.5705 0.4622 0.8424
H17 H 0.7330 0.5201 0.8400
C12 C 0.4207(4) 0.6939(5) 0.8661(2)
H18 H 0.4091 0.7163 0.8193
H19 H 0.3989 0.7692 0.8935
H20 H 0.3532 0.6241 0.8774
O3 O 0.9117(2) 1.2944(2) 0.90406(9)
C13 C 0.9152(3) 1.3085(3) 0.97201(13)
C14 C 0.9780(3) 1.4236(3) 0.99657(13)
C15 C 0.9825(3) 1.4507(3) 1.06436(14)
H21 H 1.0234 1.5291 1.0797
C16 C 0.9254(4) 1.3600(4) 1.11002(14)
H22 H 0.9291 1.3770 1.1561
C17 C 0.8642(4) 1.2461(4) 1.08691(15)
H23 H 0.8252 1.1858 1.1175
C18 C 0.8592(4) 1.2191(3) 1.01884(14)
H24 H 0.8180 1.1405 1.0040
Br1 Br 1.05949(4) 1.54607(3) 0.935093(17)
loop_
_geom_bond_atom_site_label_1
_geom_bond_atom_site_label_2
_geom_bond_site_symmetry_1
_geom_bond_site_symmetry_2
N1 C1 1_555 1_555
C1 H1 1_555 1_555
H2 C1 1_555 1_555
C2 C1 1_555 1_555
H3 C2 1_555 1_555
C3 C2 1_555 1_555
H4 C3 1_555 1_555
C4 C3 1_555 1_555
H5 C4 1_555 1_555
H6 C4 1_555 1_555
C5 C4 1_555 1_555
H7 C5 1_555 1_555
C6 N1 1_555 1_555
H8 C6 1_555 1_555
H9 C6 1_555 1_555
C7 C2 1_555 1_555
H10 C7 1_555 1_555
H11 C7 1_555 1_555
C8 N1 1_555 1_555
O1 C8 1_555 1_555
O2 C8 1_555 1_555
C9 O2 1_555 1_555
C10 C9 1_555 1_555
H12 C10 1_555 1_555
H13 C10 1_555 1_555
H14 C10 1_555 1_555
C11 C9 1_555 1_555
H15 C11 1_555 1_555
H16 C11 1_555 1_555
H17 C11 1_555 1_555
C12 C9 1_555 1_555
H18 C12 1_555 1_555
H19 C12 1_555 1_555
H20 C12 1_555 1_555
O3 C3 1_555 1_555
C13 O3 1_555 1_555
C14 C13 1_555 1_555
C15 C14 1_555 1_555
H21 C15 1_555 1_555
C16 C15 1_555 1_555
H22 C16 1_555 1_555
C17 C16 1_555 1_555
H23 C17 1_555 1_555
C18 C13 1_555 1_555
H24 C18 1_555 1_555
Br1 C14 1_555 1_555
C5 C6 1_555 1_555
C5 C7 1_555 1_555
C17 C18 1_555 1_555

#END
