
#######################################################################
#
#                 Cambridge Crystallographic Data Centre
#                                CCDC 
#
#######################################################################
#
# If this CIF has been generated from an entry in the Cambridge 
# Structural Database, then it will include bibliographic, chemical, 
# crystal, experimental, refinement or atomic coordinate data resulting 
# from the CCDC's data processing and validation procedures.
#
#######################################################################

data_PACSOB
_chemical_name_common            'PDB Chemical Component code: XP1'
_chemical_formula_moiety         'C9 H11 N1 O2,C7 H5 N1 O4'
_chemical_name_systematic        
'4-Nitrobenzoic acid 4-(N,N-dimethylamino)benzoic acid'
_symmetry_cell_setting           monoclinic
_symmetry_space_group_name_H-M   'P 21/c'
_symmetry_Int_Tables_number      14
_space_group_name_Hall           '-P 2ybc'
loop_
_symmetry_equiv_pos_site_id
_symmetry_equiv_pos_as_xyz
1 x,y,z
2 -x,1/2+y,1/2-z
3 -x,-y,-z
4 x,1/2-y,1/2+z
_cell_length_a                   15.181(3)
_cell_length_b                   7.126(1)
_cell_length_c                   14.258(3)
_cell_angle_alpha                90
_cell_angle_beta                 93.81(2)
_cell_angle_gamma                90
_cell_volume                     1539.02
_exptl_crystal_colour            orange-yellow
_chemical_melting_point          '235 deg.C'
_cell_formula_units_Z            4
loop_
_atom_site_label
_atom_site_type_symbol
_atom_site_fract_x
_atom_site_fract_y
_atom_site_fract_z
C1 C 0.0751(2) 0.3233(3) 0.2108(2)
C2 C 0.1564(2) 0.2476(4) 0.1928(2)
C3 C 0.2238(2) 0.2424(4) 0.2626(2)
C4 C 0.2081(2) 0.3146(4) 0.3492(2)
C5 C 0.1277(2) 0.3869(4) 0.3699(2)
C6 C 0.0610(2) 0.3904(4) 0.2998(2)
C7 C 0.0037(2) 0.3328(4) 0.1346(2)
N1 N 0.2812(2) 0.3153(4) 0.4229(2)
O1 O 0.0184(2) 0.2616(3) 0.0560(2)
O2 O -0.0679(1) 0.4097(3) 0.1517(1)
O3 O 0.3502(2) 0.2377(3) 0.4063(2)
O4 O 0.2694(2) 0.3949(4) 0.4970(2)
H1 H 0.164(2) 0.206(3) 0.137(2)
H2 H 0.280(2) 0.189(4) 0.249(2)
H3 H 0.120(2) 0.437(4) 0.433(2)
H4 H 0.006(2) 0.437(3) 0.312(2)
H5 H -0.026(4) 0.268(8) 0.016(5)
C8 C -0.2529(2) 0.3433(4) -0.1343(2)
C9 C -0.3316(2) 0.4387(4) -0.1249(2)
C10 C -0.3978(2) 0.4403(4) -0.1949(2)
C11 C -0.3885(2) 0.3418(4) -0.2795(2)
C12 C -0.3082(2) 0.2493(4) -0.2897(2)
C13 C -0.2427(2) 0.2508(4) -0.2189(2)
C14 C -0.1825(2) 0.3432(4) -0.0600(2)
C15 C -0.5359(2) 0.4410(6) -0.3391(3)
C16 C -0.4431(3) 0.2468(6) -0.4376(2)
N2 N -0.4562(1) 0.3346(3) -0.3479(2)
O5 O -0.1948(1) 0.4276(3) 0.0170(1)
O6 O -0.1107(2) 0.2597(3) -0.0739(2)
H6 H -0.336(1) 0.510(3) -0.069(2)
H7 H -0.450(2) 0.514(3) -0.188(2)
H8 H -0.300(1) 0.185(3) -0.343(2)
H9 H -0.190(2) 0.181(4) -0.226(2)
H10 H -0.581(2) 0.407(4) -0.388(2)
H11 H -0.523(2) 0.570(5) -0.340(2)
H12 H -0.563(2) 0.404(4) -0.278(2)
H13 H -0.502(2) 0.254(4) -0.476(2)
H14 H -0.426(2) 0.111(6) -0.429(2)
H15 H -0.398(2) 0.306(5) -0.472(2)
H16 H -0.149(4) 0.422(7) 0.058(4)
H17? H -0.107(4) 0.408(9) 0.109(4)
H18? H -0.071(5) 0.249(9) -0.041(5)
loop_
_geom_bond_atom_site_label_1
_geom_bond_atom_site_label_2
_geom_bond_site_symmetry_1
_geom_bond_site_symmetry_2
C1 C2 1_555 1_555
C2 C3 1_555 1_555
C3 C4 1_555 1_555
C4 C5 1_555 1_555
C5 C6 1_555 1_555
C6 C1 1_555 1_555
C7 C1 1_555 1_555
N1 C4 1_555 1_555
O1 C7 1_555 1_555
O2 C7 1_555 1_555
O3 N1 1_555 1_555
O4 N1 1_555 1_555
H1 C2 1_555 1_555
H2 C3 1_555 1_555
H3 C5 1_555 1_555
H4 C6 1_555 1_555
H5 O1 1_555 1_555
C8 C9 1_555 1_555
C9 C10 1_555 1_555
C10 C11 1_555 1_555
C11 C12 1_555 1_555
C12 C13 1_555 1_555
C13 C8 1_555 1_555
C14 C8 1_555 1_555
C15 N2 1_555 1_555
C16 N2 1_555 1_555
N2 C11 1_555 1_555
O5 C14 1_555 1_555
O6 C14 1_555 1_555
H6 C9 1_555 1_555
H7 C10 1_555 1_555
H8 C12 1_555 1_555
H9 C13 1_555 1_555
H10 C15 1_555 1_555
H11 C15 1_555 1_555
H12 C15 1_555 1_555
H13 C16 1_555 1_555
H14 C16 1_555 1_555
H15 C16 1_555 1_555
H16 O5 1_555 1_555

#END
