
#######################################################################
#
#                 Cambridge Crystallographic Data Centre
#                                CCDC 
#
#######################################################################
#
# If this CIF has been generated from an entry in the Cambridge 
# Structural Database, then it will include bibliographic, chemical, 
# crystal, experimental, refinement or atomic coordinate data resulting 
# from the CCDC's data processing and validation procedures.
#
#######################################################################

data_PADBOO
_chemical_compound_source        'Pseudolagarobasidium acaciicola'
_chemical_formula_moiety         'C15 H24 O3'
_chemical_name_systematic        
7,8-dihydroxy-7,11,11-trimethylspiro[5.5]undec-2-ene-3-carbaldehyde
_chemical_properties_biological  'cytotoxic activity'
_symmetry_cell_setting           monoclinic
_symmetry_space_group_name_H-M   'P 21'
_symmetry_Int_Tables_number      4
_space_group_name_Hall           'P 2yb'
loop_
_symmetry_equiv_pos_site_id
_symmetry_equiv_pos_as_xyz
1 x,y,z
2 -x,1/2+y,-z
_cell_length_a                   6.1760(3)
_cell_length_b                   14.0601(6)
_cell_length_c                   8.2272(3)
_cell_angle_alpha                90
_cell_angle_beta                 110.8260(10)
_cell_angle_gamma                90
_cell_volume                     667.734
_exptl_crystal_colour            colorless
_exptl_crystal_description       rod
_cell_formula_units_Z            2
loop_
_atom_site_label
_atom_site_type_symbol
_atom_site_fract_x
_atom_site_fract_y
_atom_site_fract_z
C1 C 0.2634(4) 0.50490(15) 0.4830(3)
H1 H 0.3000 0.5475 0.5819
H2 H 0.4078 0.4775 0.4837
C2 C 0.1607(4) 0.56185(17) 0.3211(3)
H3 H 0.2575 0.6052 0.2953
C3 C -0.0579(4) 0.55650(17) 0.2091(3)
C4 C -0.2313(4) 0.49117(19) 0.2407(3)
H4 H -0.2554 0.4361 0.1654
H5 H -0.3783 0.5239 0.2130
C5 C -0.1460(3) 0.45892(18) 0.4307(3)
H6 H -0.2466 0.4083 0.4415
H7 H -0.1631 0.5117 0.5011
C6 C 0.1076(4) 0.42325(15) 0.5078(3)
C7 C 0.1608(4) 0.40702(16) 0.7102(3)
C8 C 0.3963(4) 0.35756(18) 0.8043(3)
H8 H 0.4111 0.3450 0.9250
C9 C 0.4113(4) 0.26474(19) 0.7183(3)
H9 H 0.2920 0.2219 0.7256
H10 H 0.5607 0.2355 0.7785
C10 C 0.3807(4) 0.28055(17) 0.5290(3)
H11 H 0.3919 0.2195 0.4775
H12 H 0.5077 0.3197 0.5243
C11 C 0.1503(4) 0.32819(16) 0.4172(3)
C12 C 0.1753(5) 0.3448(2) 0.2396(3)
H13 H 0.2966 0.3901 0.2524
H14 H 0.0320 0.3688 0.1586
H15 H 0.2128 0.2858 0.1970
C13 C -0.0483(5) 0.2552(2) 0.3867(4)
H16 H -0.1880 0.2799 0.3023
H17 H -0.0723 0.2438 0.4941
H18 H -0.0077 0.1966 0.3448
C14 C 0.1475(4) 0.4966(2) 0.8113(3)
H19 H -0.0010 0.5262 0.7574
H20 H 0.2673 0.5401 0.8112
H21 H 0.1677 0.4799 0.9290
C15 C -0.1253(5) 0.61538(19) 0.0534(3)
H22 H -0.0224 0.6621 0.0464
O1 O -0.0033(3) 0.33950(13) 0.7313(2)
H23 H -0.1054 0.3680 0.7533
O2 O 0.5904(3) 0.41396(13) 0.8046(2)
H24 H 0.5885 0.4652 0.8516
O3 O -0.3081(3) 0.60742(15) -0.0685(2)
loop_
_geom_bond_atom_site_label_1
_geom_bond_atom_site_label_2
_geom_bond_site_symmetry_1
_geom_bond_site_symmetry_2
C1 H1 1_555 1_555
H2 C1 1_555 1_555
C2 C1 1_555 1_555
H3 C2 1_555 1_555
C3 C2 1_555 1_555
C4 C3 1_555 1_555
H4 C4 1_555 1_555
H5 C4 1_555 1_555
C5 C4 1_555 1_555
H6 C5 1_555 1_555
H7 C5 1_555 1_555
C6 C1 1_555 1_555
C7 C6 1_555 1_555
C8 C7 1_555 1_555
H8 C8 1_555 1_555
C9 C8 1_555 1_555
H9 C9 1_555 1_555
H10 C9 1_555 1_555
C10 C9 1_555 1_555
H11 C10 1_555 1_555
H12 C10 1_555 1_555
C11 C6 1_555 1_555
C12 C11 1_555 1_555
H13 C12 1_555 1_555
H14 C12 1_555 1_555
H15 C12 1_555 1_555
C13 C11 1_555 1_555
H16 C13 1_555 1_555
H17 C13 1_555 1_555
H18 C13 1_555 1_555
C14 C7 1_555 1_555
H19 C14 1_555 1_555
H20 C14 1_555 1_555
H21 C14 1_555 1_555
C15 C3 1_555 1_555
H22 C15 1_555 1_555
O1 C7 1_555 1_555
H23 O1 1_555 1_555
O2 C8 1_555 1_555
H24 O2 1_555 1_555
O3 C15 1_555 1_555
C5 C6 1_555 1_555
C10 C11 1_555 1_555

#END
