
#######################################################################
#
#                 Cambridge Crystallographic Data Centre
#                                CCDC 
#
#######################################################################
#
# If this CIF has been generated from an entry in the Cambridge 
# Structural Database, then it will include bibliographic, chemical, 
# crystal, experimental, refinement or atomic coordinate data resulting 
# from the CCDC's data processing and validation procedures.
#
#######################################################################

data_PADBAA
_chemical_formula_moiety         'C21 H17 N1 O1'
_chemical_name_systematic        2-methyl-4-(2-phenyl-1H-indol-3-yl)phenol
_symmetry_cell_setting           monoclinic
_symmetry_space_group_name_H-M   'P 21/n'
_symmetry_Int_Tables_number      14
_space_group_name_Hall           '-P 2yn'
loop_
_symmetry_equiv_pos_site_id
_symmetry_equiv_pos_as_xyz
1 x,y,z
2 1/2-x,1/2+y,1/2-z
3 -x,-y,-z
4 1/2+x,1/2-y,1/2+z
_cell_length_a                   10.9067(8)
_cell_length_b                   7.8984(6)
_cell_length_c                   18.3054(13)
_cell_angle_alpha                90
_cell_angle_beta                 97.258(2)
_cell_angle_gamma                90
_cell_volume                     1564.29
_exptl_crystal_colour            yellow
_exptl_crystal_description       Columnar
_cell_formula_units_Z            4
loop_
_atom_site_label
_atom_site_type_symbol
_atom_site_fract_x
_atom_site_fract_y
_atom_site_fract_z
O1 O -0.23765(11) 0.44158(14) 0.06779(5)
H1 H -0.2726 0.5364 0.0626
N1 N 0.09675(12) 0.26428(17) 0.46531(7)
H2 H 0.1635 0.2358 0.4949
C1 C -0.18774(13) 0.42064(18) 0.14068(7)
C2 C -0.09398(13) 0.30006(18) 0.15461(7)
C3 C -0.04337(13) 0.27612(18) 0.22719(8)
H3 H 0.0181 0.1914 0.2379
C4 C -0.07909(13) 0.37188(18) 0.28547(7)
C5 C -0.02702(14) 0.33874(18) 0.36272(8)
C6 C 0.09345(14) 0.30027(18) 0.39143(8)
C7 C 0.20962(14) 0.29834(19) 0.35766(8)
C8 C 0.22466(14) 0.39892(19) 0.29668(8)
H4 H 0.1592 0.4710 0.2765
C9 C 0.33365(15) 0.3951(2) 0.26514(8)
H5 H 0.3412 0.4617 0.2227
C10 C 0.43197(15) 0.2946(2) 0.29516(9)
H6 H 0.5069 0.2928 0.2738
C11 C -0.17139(14) 0.49253(19) 0.26868(8)
H7 H -0.1968 0.5604 0.3069
C12 C -0.22679(14) 0.51500(19) 0.19686(8)
H8 H -0.2915 0.5952 0.1864
C13 C -0.10025(15) 0.32769(18) 0.42326(8)
C14 C -0.01903(15) 0.27938(19) 0.48597(8)
C15 C 0.41927(16) 0.1970(2) 0.35664(9)
H9 H 0.4864 0.1295 0.3781
C16 C 0.30878(15) 0.1973(2) 0.38717(8)
H10 H 0.3006 0.1278 0.4287
C17 C -0.05981(17) 0.2536(2) 0.55491(8)
H11 H -0.0041 0.2208 0.5966
C18 C -0.18375(17) 0.2778(2) 0.55976(9)
H12 H -0.2141 0.2618 0.6057
C19 C -0.26575(17) 0.3258(2) 0.49798(9)
H13 H -0.3506 0.3420 0.5029
C20 C -0.22573(15) 0.34992(19) 0.42993(8)
H14 H -0.2825 0.3811 0.3884
C21 C -0.04824(16) 0.2051(2) 0.09208(8)
H15 H 0.0138 0.1218 0.1119
H16 H -0.0111 0.2848 0.0602
H17 H -0.1177 0.1468 0.0634
loop_
_geom_bond_atom_site_label_1
_geom_bond_atom_site_label_2
_geom_bond_site_symmetry_1
_geom_bond_site_symmetry_2
O1 H1 1_555 1_555
N1 H2 1_555 1_555
C1 O1 1_555 1_555
C2 C1 1_555 1_555
C3 C2 1_555 1_555
H3 C3 1_555 1_555
C4 C3 1_555 1_555
C5 C4 1_555 1_555
C6 N1 1_555 1_555
C7 C6 1_555 1_555
C8 C7 1_555 1_555
H4 C8 1_555 1_555
C9 C8 1_555 1_555
H5 C9 1_555 1_555
C10 C9 1_555 1_555
H6 C10 1_555 1_555
C11 C4 1_555 1_555
H7 C11 1_555 1_555
C12 C1 1_555 1_555
H8 C12 1_555 1_555
C13 C5 1_555 1_555
C14 N1 1_555 1_555
C15 C10 1_555 1_555
H9 C15 1_555 1_555
C16 C7 1_555 1_555
H10 C16 1_555 1_555
C17 C14 1_555 1_555
H11 C17 1_555 1_555
C18 C17 1_555 1_555
H12 C18 1_555 1_555
C19 C18 1_555 1_555
H13 C19 1_555 1_555
C20 C13 1_555 1_555
H14 C20 1_555 1_555
C21 C2 1_555 1_555
H15 C21 1_555 1_555
H16 C21 1_555 1_555
H17 C21 1_555 1_555
C5 C6 1_555 1_555
C11 C12 1_555 1_555
C13 C14 1_555 1_555
C15 C16 1_555 1_555
C19 C20 1_555 1_555

#END
