
#######################################################################
#
#                 Cambridge Crystallographic Data Centre
#                                CCDC 
#
#######################################################################
#
# If this CIF has been generated from an entry in the Cambridge 
# Structural Database, then it will include bibliographic, chemical, 
# crystal, experimental, refinement or atomic coordinate data resulting 
# from the CCDC's data processing and validation procedures.
#
#######################################################################

data_PADBEC
_chemical_formula_moiety         
'C30 H54 N8 O3 6+,O3 S2 2-,4(Cl1 O4 1-),8(H2 O1)'
_chemical_name_systematic        
'39,40,41-Trioxa-1,14-diaza-4,11,17,24,29,36-hexaazoniapentacyclo(12.12.12.1^6,9^.1^19,22^.1^31,34^)hentetraconta-6,8,19,21,31,33-hexaene thiosulfate tetraperchlorate octahydrate'
_symmetry_cell_setting           monoclinic
_symmetry_space_group_name_H-M   'P 21/n'
_symmetry_Int_Tables_number      14
_space_group_name_Hall           '-P 2yn'
loop_
_symmetry_equiv_pos_site_id
_symmetry_equiv_pos_as_xyz
1 x,y,z
2 1/2+x,1/2-y,1/2+z
3 -x,-y,-z
4 1/2-x,1/2+y,1/2-z
_cell_length_a                   13.5749(11)
_cell_length_b                   29.363(2)
_cell_length_c                   14.2308(11)
_cell_angle_alpha                90
_cell_angle_beta                 111.9040(10)
_cell_angle_gamma                90
_cell_volume                     5262.9
_exptl_crystal_colour            colorless
_exptl_crystal_description       irregular
_cell_formula_units_Z            4
loop_
_atom_site_label
_atom_site_type_symbol
_atom_site_fract_x
_atom_site_fract_y
_atom_site_fract_z
N1 N 0.8202(5) 0.0925(3) 0.4624(4)
C1 C 0.7333(6) 0.0753(3) 0.3719(5)
H1 H 0.7132 0.0445 0.3868
H2 H 0.7593 0.0724 0.3158
C2 C 0.6362(6) 0.1051(3) 0.3379(4)
H3 H 0.6568 0.1367 0.3290
H4 H 0.5857 0.0942 0.2716
N2 N 0.5836(4) 0.1048(2) 0.4122(3)
H5 H 0.6299 0.1158 0.4731
H6 H 0.5669 0.0752 0.4222
C3 C 0.4841(5) 0.1331(2) 0.3775(4)
H7 H 0.5032 0.1658 0.3862
H8 H 0.4435 0.1275 0.3046
C4 C 0.4171(5) 0.1219(2) 0.4357(4)
C5 C 0.3336(6) 0.0946(3) 0.4171(5)
H9 H 0.3022 0.0760 0.3590
C6 C 0.3001(5) 0.0986(2) 0.5002(5)
H10 H 0.2429 0.0829 0.5088
C7 C 0.3653(5) 0.12901(19) 0.5642(4)
O1 O 0.4372(3) 0.14445(12) 0.5255(3)
C8 C 0.3637(5) 0.1511(2) 0.6561(4)
H11 H 0.2944 0.1447 0.6614
H12 H 0.3684 0.1845 0.6483
N3 N 0.4508(4) 0.13695(16) 0.7540(3)
H13 H 0.4540 0.1057 0.7592
H14 H 0.5154 0.1475 0.7563
C9 C 0.4249(6) 0.1569(3) 0.8383(5)
H15 H 0.3535 0.1462 0.8318
H16 H 0.4210 0.1905 0.8302
C10 C 0.5017(6) 0.1460(3) 0.9437(5)
H17 H 0.4679 0.1542 0.9921
H18 H 0.5135 0.1127 0.9484
C11 C 0.8971(7) 0.0549(4) 0.5011(6)
H19 H 0.9680 0.0680 0.5397
H20 H 0.9021 0.0380 0.4427
C12 C 0.8691(8) 0.0219(3) 0.5678(6)
H21 H 0.7942 0.0123 0.5340
H22 H 0.9144 -0.0055 0.5784
N4 N 0.8844(6) 0.04293(19) 0.6684(4)
H23 H 0.9415 0.0624 0.6866
H24 H 0.8252 0.0598 0.6623
C13 C 0.9028(9) 0.0084(3) 0.7497(5)
H25 H 0.9592 -0.0129 0.7494
H26 H 0.8369 -0.0094 0.7363
C14 C 0.9347(10) 0.0304(2) 0.8510(6)
C15 C 1.0279(8) 0.0479(2) 0.9149(5)
H27 H 1.0926 0.0502 0.9040
C16 C 1.0081(10) 0.0621(2) 1.0027(5)
H28 H 1.0573 0.0763 1.0615
C17 C 0.9073(9) 0.0515(2) 0.9859(5)
O2 O 0.8592(6) 0.03273(15) 0.8921(4)
C18 C 0.8411(8) 0.0562(2) 1.0478(5)
H29 H 0.8879 0.0601 1.1197
H30 H 0.7998 0.0278 1.0423
N5 N 0.7656(6) 0.09601(17) 1.0151(4)
H31 H 0.8031 0.1217 1.0122
H32 H 0.7166 0.0905 0.9511
C19 C 0.7089(7) 0.1045(2) 1.0850(5)
H33 H 0.7568 0.0976 1.1554
H34 H 0.6467 0.0840 1.0673
C20 C 0.6728(6) 0.1527(2) 1.0786(4)
H35 H 0.6326 0.1566 1.1236
H36 H 0.7362 0.1726 1.1048
C21 C 0.8715(7) 0.1314(4) 0.4328(5)
H37 H 0.8159 0.1515 0.3867
H38 H 0.9148 0.1198 0.3953
C22 C 0.9415(6) 0.1588(4) 0.5223(6)
H39 H 0.9899 0.1380 0.5736
H40 H 0.9855 0.1799 0.5000
N6 N 0.8778(4) 0.1857(2) 0.5692(4)
H41 H 0.8319 0.2046 0.5209
H42 H 0.8377 0.1660 0.5906
C23 C 0.9448(6) 0.2137(3) 0.6565(5)
H43 H 0.9822 0.1935 0.7145
H44 H 0.9991 0.2299 0.6381
C24 C 0.8814(5) 0.2475(2) 0.6874(4)
C25 C 0.8334(6) 0.2865(3) 0.6468(5)
H45 H 0.8314 0.3001 0.5856
C26 C 0.7861(6) 0.3035(2) 0.7128(5)
H46 H 0.7459 0.3307 0.7044
C27 C 0.8089(5) 0.27385(19) 0.7897(4)
O3 O 0.8680(3) 0.23856(13) 0.7762(3)
C28 C 0.7888(5) 0.27436(19) 0.8845(4)
H47 H 0.7637 0.3051 0.8938
H48 H 0.8566 0.2687 0.9419
N7 N 0.7088(4) 0.23985(14) 0.8879(3)
H49 H 0.6462 0.2440 0.8334
H50 H 0.7334 0.2110 0.8838
C29 C 0.6892(5) 0.2445(2) 0.9837(4)
H51 H 0.6788 0.2771 0.9954
H52 H 0.7525 0.2337 1.0410
C30 C 0.5941(5) 0.2181(2) 0.9815(5)
H53 H 0.5799 0.2254 1.0433
H54 H 0.5317 0.2281 0.9224
N8 N 0.6055(4) 0.16854(17) 0.9760(3)
S1 S 0.70377(12) 0.13529(4) 0.68184(10)
O4 O 0.6520(3) 0.15772(12) 0.7428(3)
O5 O 0.6826(3) 0.16023(12) 0.5855(3)
O6 O 0.8199(3) 0.13244(13) 0.7367(3)
S2 S 0.64669(15) 0.07203(5) 0.64599(11)
Cl1 Cl 0.72853(17) 0.25127(7) 1.32757(19)
O7 O 0.6879(6) 0.2955(3) 1.3339(8)
O8 O 0.7311(12) 0.2438(4) 1.2356(6)
O9 O 0.6638(7) 0.2202(3) 1.3515(14)
O10 O 0.8308(4) 0.2511(2) 1.4030(4)
Cl2 Cl 0.96855(13) -0.13206(5) 0.73520(11)
O11 O 0.8909(5) -0.1241(3) 0.7770(4)
O12 O 1.0582(4) -0.15361(16) 0.8086(4)
O13 O 1.0002(5) -0.08941(14) 0.7085(4)
O14 O 0.9272(4) -0.16075(15) 0.6475(3)
Cl3 Cl 0.3425(2) 0.07090(9) 0.1029(2)
O15 O 0.2544(9) 0.1009(7) 0.0402(15)
O16 O 0.3376(10) 0.0572(5) 0.1983(8)
O17 O 0.3324(8) 0.0342(2) 0.0417(5)
O18 O 0.4304(5) 0.0974(2) 0.1213(4)
Cl4 Cl 0.1527(3) 0.05684(12) 0.7319(2)
O19 O 0.0761(8) 0.0902(3) 0.7266(7)
O20 O 0.1112(11) 0.0131(3) 0.7295(9)
O21 O 0.1807(13) 0.0627(6) 0.6464(12)
O22 O 0.2400(9) 0.0648(6) 0.8229(10)
O27 O 0.8582(4) 0.16525(12) 0.9353(3)
O28 O 0.0101(3) 0.25367(13) 0.2279(3)
O29 O 0.5445(4) 0.23745(15) 0.5537(3)
O30 O 0.6067(7) 0.0591(2) 0.8490(4)
O31 O 0.5346(5) 0.0114(2) 0.4126(6)
O32 O 0.5820(5) 0.32565(18) 1.4871(6)
O33 O 0.4401(14) -0.0017(5) -0.0924(13)
O34 O 0.4094(10) 0.0402(3) 0.7257(7)
Cl5? Cl 0.2397(4) 0.03661(14) 0.7287(3)
O23? O 0.3323(12) 0.0283(5) 0.7119(14)
O24? O 0.2141(16) 0.0044(4) 0.7851(11)
O25? O 0.1565(14) 0.0373(6) 0.6301(13)
O26? O 0.2601(16) 0.0783(5) 0.7743(12)
O35? O 0.0472(10) 0.1177(4) 0.7400(9)
loop_
_geom_bond_atom_site_label_1
_geom_bond_atom_site_label_2
_geom_bond_site_symmetry_1
_geom_bond_site_symmetry_2
N1 C1 1_555 1_555
C1 H1 1_555 1_555
H2 C1 1_555 1_555
C2 C1 1_555 1_555
H3 C2 1_555 1_555
H4 C2 1_555 1_555
N2 C2 1_555 1_555
H5 N2 1_555 1_555
H6 N2 1_555 1_555
C3 N2 1_555 1_555
H7 C3 1_555 1_555
H8 C3 1_555 1_555
C4 C3 1_555 1_555
C5 C4 1_555 1_555
H9 C5 1_555 1_555
C6 C5 1_555 1_555
H10 C6 1_555 1_555
C7 C6 1_555 1_555
O1 C4 1_555 1_555
C8 C7 1_555 1_555
H11 C8 1_555 1_555
H12 C8 1_555 1_555
N3 C8 1_555 1_555
H13 N3 1_555 1_555
H14 N3 1_555 1_555
C9 N3 1_555 1_555
H15 C9 1_555 1_555
H16 C9 1_555 1_555
C10 C9 1_555 1_555
H17 C10 1_555 1_555
H18 C10 1_555 1_555
C11 N1 1_555 1_555
H19 C11 1_555 1_555
H20 C11 1_555 1_555
C12 C11 1_555 1_555
H21 C12 1_555 1_555
H22 C12 1_555 1_555
N4 C12 1_555 1_555
H23 N4 1_555 1_555
H24 N4 1_555 1_555
C13 N4 1_555 1_555
H25 C13 1_555 1_555
H26 C13 1_555 1_555
C14 C13 1_555 1_555
C15 C14 1_555 1_555
H27 C15 1_555 1_555
C16 C15 1_555 1_555
H28 C16 1_555 1_555
C17 C16 1_555 1_555
O2 C14 1_555 1_555
C18 C17 1_555 1_555
H29 C18 1_555 1_555
H30 C18 1_555 1_555
N5 C18 1_555 1_555
H31 N5 1_555 1_555
H32 N5 1_555 1_555
C19 N5 1_555 1_555
H33 C19 1_555 1_555
H34 C19 1_555 1_555
C20 C19 1_555 1_555
H35 C20 1_555 1_555
H36 C20 1_555 1_555
C21 N1 1_555 1_555
H37 C21 1_555 1_555
H38 C21 1_555 1_555
C22 C21 1_555 1_555
H39 C22 1_555 1_555
H40 C22 1_555 1_555
N6 C22 1_555 1_555
H41 N6 1_555 1_555
H42 N6 1_555 1_555
C23 N6 1_555 1_555
H43 C23 1_555 1_555
H44 C23 1_555 1_555
C24 C23 1_555 1_555
C25 C24 1_555 1_555
H45 C25 1_555 1_555
C26 C25 1_555 1_555
H46 C26 1_555 1_555
C27 C26 1_555 1_555
O3 C24 1_555 1_555
C28 C27 1_555 1_555
H47 C28 1_555 1_555
H48 C28 1_555 1_555
N7 C28 1_555 1_555
H49 N7 1_555 1_555
H50 N7 1_555 1_555
C29 N7 1_555 1_555
H51 C29 1_555 1_555
H52 C29 1_555 1_555
C30 C29 1_555 1_555
H53 C30 1_555 1_555
H54 C30 1_555 1_555
N8 C10 1_555 1_555
S1 O4 1_555 1_555
O5 S1 1_555 1_555
O6 S1 1_555 1_555
S2 S1 1_555 1_555
Cl1 O7 1_555 1_555
O8 Cl1 1_555 1_555
O9 Cl1 1_555 1_555
O10 Cl1 1_555 1_555
Cl2 O11 1_555 1_555
O12 Cl2 1_555 1_555
O13 Cl2 1_555 1_555
O14 Cl2 1_555 1_555
Cl3 O15 1_555 1_555
O16 Cl3 1_555 1_555
O17 Cl3 1_555 1_555
O18 Cl3 1_555 1_555
Cl4 O19 1_555 1_555
O20 Cl4 1_555 1_555
O21 Cl4 1_555 1_555
O22 Cl4 1_555 1_555
C7 O1 1_555 1_555
C17 O2 1_555 1_555
C20 N8 1_555 1_555
C27 O3 1_555 1_555
C30 N8 1_555 1_555

#END
