
#######################################################################
#
#                 Cambridge Crystallographic Data Centre
#                                CCDC 
#
#######################################################################
#
# If this CIF has been generated from an entry in the Cambridge 
# Structural Database, then it will include bibliographic, chemical, 
# crystal, experimental, refinement or atomic coordinate data resulting 
# from the CCDC's data processing and validation procedures.
#
#######################################################################

data_PADKUA
_chemical_formula_moiety         'C22 H40 N4 O6,C2 H3 N1'
_chemical_name_systematic        
'(N-Acetyl-\a-aminoisobutyl)-(\a-aminoisobutyl)-(\a-aminoisobutyl)-(\a-aminoisobutyric acid butyl ester) acetonitrile solvate'
_symmetry_cell_setting           triclinic
_symmetry_space_group_name_H-M   'P -1'
_symmetry_Int_Tables_number      2
_space_group_name_Hall           '-P 1'
loop_
_symmetry_equiv_pos_site_id
_symmetry_equiv_pos_as_xyz
1 x,y,z
2 -x,-y,-z
_cell_length_a                   17.751(2)
_cell_length_b                   9.999(2)
_cell_length_c                   9.327(2)
_cell_angle_alpha                113.0(1)
_cell_angle_beta                 85.6(1)
_cell_angle_gamma                105.0(1)
_cell_volume                     1471.39
_chemical_melting_point          200-202deg.C
_cell_formula_units_Z            2
loop_
_atom_site_label
_atom_site_type_symbol
_atom_site_fract_x
_atom_site_fract_y
_atom_site_fract_z
O1 O 0.7247(1) 0.6229(2) 0.3429(2)
O2 O 0.7696(1) 0.3442(2) 0.4504(2)
O3 O 0.6201(1) 0.0547(2) 0.2203(2)
O4 O 0.7390(1) 0.0191(2) -0.1196(2)
O5 O 0.9165(1) -0.0196(2) -0.1287(2)
O6 O 0.9042(1) 0.2096(2) -0.0941(2)
N1 N 0.7451(1) 0.7170(2) 0.6035(2)
N2 N 0.6588(1) 0.4214(2) 0.5154(2)
N3 N 0.6545(1) 0.2755(2) 0.1916(2)
N4 N 0.7922(1) 0.1863(2) 0.1136(2)
C1 C 0.6915(2) 0.8544(3) 0.4915(3)
C2 C 0.7225(2) 0.7230(3) 0.4715(3)
C3 C 0.7848(2) 0.6065(3) 0.6052(3)
C4 C 0.8657(2) 0.6289(3) 0.5360(4)
C5 C 0.7912(2) 0.6227(3) 0.7743(3)
C6 C 0.7368(2) 0.4455(3) 0.5146(3)
C7 C 0.6066(2) 0.2710(3) 0.4442(3)
C8 C 0.6078(2) 0.1798(3) 0.5399(3)
C9 C 0.5248(2) 0.2895(3) 0.4343(4)
C10 C 0.6298(1) 0.1909(3) 0.2756(3)
C11 C 0.6722(1) 0.2104(3) 0.0256(3)
C12 C 0.7043(2) 0.3409(3) -0.0259(3)
C13 C 0.5991(2) 0.1068(3) -0.0708(3)
C14 C 0.7359(1) 0.1270(3) 0.0023(3)
C15 C 0.8576(2) 0.1204(3) 0.1043(3)
C16 C 0.8308(2) -0.0236(4) 0.1333(3)
C17 C 0.9201(2) 0.2349(3) 0.2259(3)
C18 C 0.8944(2) 0.0916(3) -0.0554(3)
C19 C 0.9434(2) 0.2157(3) -0.2367(4)
C20 C 1.0263(2) 0.2067(6) -0.2294(6)
C21 C 0.9394(3) 0.3648(4) -0.2319(5)
C22 C 0.8964(3) 0.0898(5) -0.3767(4)
N5 N 0.4361(3) 0.4200(5) 0.1833(4)
C23 C 0.4205(2) 0.3633(4) 0.0573(5)
C24 C 0.3989(4) 0.2924(6) -0.1068(6)
loop_
_geom_bond_atom_site_label_1
_geom_bond_atom_site_label_2
_geom_bond_site_symmetry_1
_geom_bond_site_symmetry_2
O1 C2 1_555 1_555
O2 C6 1_555 1_555
O3 C10 1_555 1_555
O4 C14 1_555 1_555
O5 C18 1_555 1_555
O6 C18 1_555 1_555
N1 C2 1_555 1_555
N2 C6 1_555 1_555
N3 C10 1_555 1_555
N4 C14 1_555 1_555
C1 C2 1_555 1_555
C3 N1 1_555 1_555
C4 C3 1_555 1_555
C5 C3 1_555 1_555
C6 C3 1_555 1_555
C7 N2 1_555 1_555
C8 C7 1_555 1_555
C9 C7 1_555 1_555
C10 C7 1_555 1_555
C11 N3 1_555 1_555
C12 C11 1_555 1_555
C13 C11 1_555 1_555
C14 C11 1_555 1_555
C15 N4 1_555 1_555
C16 C15 1_555 1_555
C17 C15 1_555 1_555
C18 C15 1_555 1_555
C19 O6 1_555 1_555
C20 C19 1_555 1_555
C21 C19 1_555 1_555
C22 C19 1_555 1_555
N5 C23 1_555 1_555
C23 C24 1_555 1_555

#END
