
#######################################################################
#
#                 Cambridge Crystallographic Data Centre
#                                CCDC 
#
#######################################################################
#
# If this CIF has been generated from an entry in the Cambridge 
# Structural Database, then it will include bibliographic, chemical, 
# crystal, experimental, refinement or atomic coordinate data resulting 
# from the CCDC's data processing and validation procedures.
#
#######################################################################

data_PADSEV
_chemical_name_common            
7-chloro-1-methyl-4-(4-tolyl)indoline-2,3-dione
_chemical_formula_moiety         'C16 H12 Cl1 N1 O2'
_chemical_name_systematic        
7-chloro-1-methyl-4-(4-methylphenyl)-1H-indole-2,3-dione
_symmetry_cell_setting           monoclinic
_symmetry_space_group_name_H-M   'P 21/c'
_symmetry_Int_Tables_number      14
_space_group_name_Hall           '-P 2ybc'
loop_
_symmetry_equiv_pos_site_id
_symmetry_equiv_pos_as_xyz
1 x,y,z
2 -x,1/2+y,1/2-z
3 -x,-y,-z
4 x,1/2-y,1/2+z
_cell_length_a                   3.8951(6)
_cell_length_b                   24.185(3)
_cell_length_c                   13.5874(17)
_cell_angle_alpha                90
_cell_angle_beta                 93.733(7)
_cell_angle_gamma                90
_cell_volume                     1277.26
_exptl_crystal_colour            red
_exptl_crystal_description       needle
_cell_formula_units_Z            4
loop_
_atom_site_label
_atom_site_type_symbol
_atom_site_fract_x
_atom_site_fract_y
_atom_site_fract_z
Cl1 Cl 0.0436(3) 0.42332(4) 0.42040(8)
N1 N 0.4998(8) 0.39146(11) 0.6221(2)
O1 O 0.8502(7) 0.38908(10) 0.7662(2)
O2 O 0.8421(7) 0.27106(10) 0.7278(2)
C1 C 0.6973(11) 0.36678(15) 0.6966(3)
C2 C 0.6896(10) 0.30412(15) 0.6746(3)
C3 C 0.4804(10) 0.29804(14) 0.5818(3)
C4 C 0.3748(10) 0.35199(13) 0.5513(3)
C5 C 0.4302(10) 0.45079(14) 0.6242(3)
H1 H 0.5427 0.4669 0.6841
H2 H 0.1814 0.4569 0.6237
H3 H 0.5199 0.4683 0.5661
C6 C 0.4017(10) 0.25148(14) 0.5221(3)
C7 C 0.2263(10) 0.26144(14) 0.4313(3)
H4 H 0.1785 0.2313 0.3877
C8 C 0.1200(10) 0.31362(14) 0.4031(3)
H5 H -0.0049 0.3185 0.3413
C9 C 0.1914(10) 0.35943(14) 0.4630(3)
C10 C 0.4979(9) 0.19435(14) 0.5527(3)
C11 C 0.4472(10) 0.17464(14) 0.6469(3)
H6 H 0.3541 0.1983 0.6943
C12 C 0.5322(10) 0.12084(15) 0.6714(3)
H7 H 0.4959 0.1078 0.7359
C13 C 0.6706(10) 0.08506(14) 0.6035(3)
C14 C 0.7148(10) 0.10513(15) 0.5103(3)
H8 H 0.8084 0.0816 0.4629
C15 C 0.6262(10) 0.15868(14) 0.4842(3)
H9 H 0.6533 0.1712 0.4189
C16 C 0.7717(11) 0.02655(15) 0.6330(3)
H10 H 0.5642 0.0039 0.6361
H11 H 0.8976 0.0270 0.6978
H12 H 0.9186 0.0110 0.5841
loop_
_geom_bond_atom_site_label_1
_geom_bond_atom_site_label_2
_geom_bond_site_symmetry_1
_geom_bond_site_symmetry_2
Cl1 C9 1_555 1_555
N1 C1 1_555 1_555
O1 C1 1_555 1_555
O2 C2 1_555 1_555
C1 C2 1_555 1_555
C2 C3 1_555 1_555
C3 C4 1_555 1_555
C4 N1 1_555 1_555
C5 N1 1_555 1_555
H1 C5 1_555 1_555
H2 C5 1_555 1_555
H3 C5 1_555 1_555
C6 C3 1_555 1_555
C7 C6 1_555 1_555
H4 C7 1_555 1_555
C8 C7 1_555 1_555
H5 C8 1_555 1_555
C9 C4 1_555 1_555
C10 C6 1_555 1_555
C11 C10 1_555 1_555
H6 C11 1_555 1_555
C12 C11 1_555 1_555
H7 C12 1_555 1_555
C13 C12 1_555 1_555
C14 C13 1_555 1_555
H8 C14 1_555 1_555
C15 C10 1_555 1_555
H9 C15 1_555 1_555
C16 C13 1_555 1_555
H10 C16 1_555 1_555
H11 C16 1_555 1_555
H12 C16 1_555 1_555
C8 C9 1_555 1_555
C14 C15 1_555 1_555

#END
