
#######################################################################
#
#                 Cambridge Crystallographic Data Centre
#                                CCDC 
#
#######################################################################
#
# If this CIF has been generated from an entry in the Cambridge 
# Structural Database, then it will include bibliographic, chemical, 
# crystal, experimental, refinement or atomic coordinate data resulting 
# from the CCDC's data processing and validation procedures.
#
#######################################################################

data_PADTOE
_chemical_formula_moiety         'C10 H15 O1 P1 Se1'
_chemical_name_systematic        '(-)-t-Butylphenylphosphinoselenoic acid'
_symmetry_cell_setting           orthorhombic
_symmetry_space_group_name_H-M   'P 21 21 21'
_symmetry_Int_Tables_number      19
_space_group_name_Hall           'P 2ac 2ab'
loop_
_symmetry_equiv_pos_site_id
_symmetry_equiv_pos_as_xyz
1 x,y,z
2 1/2-x,-y,1/2+z
3 1/2+x,1/2-y,-z
4 -x,1/2+y,1/2-z
_cell_length_a                   6.5958(6)
_cell_length_b                   17.225(3)
_cell_length_c                   21.182(4)
_cell_angle_alpha                90
_cell_angle_beta                 90
_cell_angle_gamma                90
_cell_volume                     2406.54
_cell_formula_units_Z            8
loop_
_atom_site_label
_atom_site_type_symbol
_atom_site_fract_x
_atom_site_fract_y
_atom_site_fract_z
Se1 Se 0.71226(8) 0.85347(4) 0.30245(3)
P1 P 0.4537(2) 0.88572(7) 0.35497(7)
O1 O 0.2514(5) 0.8404(2) 0.3395(2)
C1 C 0.3947(7) 0.9875(3) 0.3457(2)
C2 C 0.1943(9) 1.0126(3) 0.3459(3)
C3 C 0.1494(11) 1.0911(4) 0.3410(3)
C4 C 0.3049(12) 1.1439(4) 0.3362(3)
C5 C 0.5029(11) 1.1194(4) 0.3344(4)
C6 C 0.5458(10) 1.0415(3) 0.3388(3)
C7 C 0.4811(10) 0.8665(3) 0.4395(3)
C8 C 0.6599(11) 0.9116(5) 0.4655(3)
C9 C 0.5173(14) 0.7789(4) 0.4491(4)
C10 C 0.2881(11) 0.8903(4) 0.4745(3)
H1 H 0.229(10) 0.8329(37) 0.2981(28)
H2 H 0.0793(86) 0.9730(30) 0.3497(4)
H3 H 0.020(12) 1.1073(15) 0.3410(3)
H4 H 0.2742(21) 1.1994(32) 0.3340(3)
H5 H 0.6111(77) 1.1566(26) 0.3301(5)
H6 H 0.6822(96) 1.0248(12) 0.3371(3)
H7 H 0.6391(31) 0.9627(20) 0.4597(18)
H8 H 0.7735(48) 0.8972(19) 0.4453(15)
H9 H 0.6730(41) 0.9018(20) 0.5070(17)
H10 H 0.5263(67) 0.7676(7) 0.4943(17)
H11 H 0.6440(60) 0.7637(8) 0.4284(20)
H12 H 0.4046(54) 0.7496(11) 0.4308(19)
H13 H 0.1766(39) 0.8639(19) 0.4573(13)
H14 H 0.2685(34) 0.9441(18) 0.4703(16)
H15 H 0.3008(26) 0.8777(21) 0.5175(14)
Se2 Se 0.13059(9) 0.80299(3) 0.19167(3)
P2 P 0.3126(2) 0.88532(9) 0.14510(7)
O2 O 0.5451(6) 0.8839(3) 0.1622(2)
C11 C 0.2283(9) 0.9836(3) 0.1592(3)
C12 C 0.3671(13) 1.0438(4) 0.1626(3)
C13 C 0.3016(16) 1.1200(4) 0.1700(3)
C14 C 0.1051(17) 1.1354(5) 0.1742(4)
C15 C -0.0352(15) 1.0769(4) 0.1723(5)
C16 C 0.0269(10) 1.0004(4) 0.1655(4)
C17 C 0.3237(10) 0.8715(4) 0.0597(3)
C18 C 0.1184(12) 0.8868(4) 0.0301(4)
C19 C 0.3848(17) 0.7876(4) 0.0459(4)
C20 C 0.4816(11) 0.9279(5) 0.0310(3)
H16 H 0.581(11) 0.8748(37) 0.2078(31)
H17 H 0.517(10) 1.0322(9) 0.1596(4)
H18 H 0.4053(94) 1.1643(38) 0.1722(4)
H19 H 0.0656(47) 1.1825(50) 0.1781(6)
H20 H -0.172(13) 1.0885(11) 0.1756(6)
H21 H -0.0679(63) 0.9608(26) 0.1652(4)
H22 H 0.0834(33) 0.9361(19) 0.0366(17)
H23 H 0.0264(37) 0.8557(20) 0.0476(14)
H24 H 0.1246(19) 0.8777(23) -0.0112(15)
H25 H 0.3922(65) 0.7800(8) 0.0022(17)
H26 H 0.2879(49) 0.7539(13) 0.0631(18)
H27 H 0.5116(56) 0.7775(9) 0.0641(18)
H28 H 0.6073(49) 0.9183(16) 0.0486(15)
H29 H 0.4438(35) 0.9784(19) 0.0395(16)
H30 H 0.4881(45) 0.9206(17) -0.0121(16)
loop_
_geom_bond_atom_site_label_1
_geom_bond_atom_site_label_2
_geom_bond_site_symmetry_1
_geom_bond_site_symmetry_2
Se1 P1 1_555 1_555
P1 O1 1_555 1_555
O1 H1 1_555 1_555
C1 P1 1_555 1_555
C2 C1 1_555 1_555
C3 C2 1_555 1_555
C4 C3 1_555 1_555
C5 C4 1_555 1_555
C6 C1 1_555 1_555
C7 P1 1_555 1_555
C8 C7 1_555 1_555
C9 C7 1_555 1_555
C10 C7 1_555 1_555
H2 C2 1_555 1_555
H3 C3 1_555 1_555
H4 C4 1_555 1_555
H5 C5 1_555 1_555
H6 C6 1_555 1_555
H7 C8 1_555 1_555
H8 C8 1_555 1_555
H9 C8 1_555 1_555
H10 C9 1_555 1_555
H11 C9 1_555 1_555
H12 C9 1_555 1_555
H13 C10 1_555 1_555
H14 C10 1_555 1_555
H15 C10 1_555 1_555
Se2 P2 1_555 1_555
P2 O2 1_555 1_555
O2 H16 1_555 1_555
C11 P2 1_555 1_555
C12 C11 1_555 1_555
C13 C12 1_555 1_555
C14 C13 1_555 1_555
C15 C14 1_555 1_555
C16 C11 1_555 1_555
C17 P2 1_555 1_555
C18 C17 1_555 1_555
C19 C17 1_555 1_555
C20 C17 1_555 1_555
H17 C12 1_555 1_555
H18 C13 1_555 1_555
H19 C14 1_555 1_555
H20 C15 1_555 1_555
H21 C16 1_555 1_555
H22 C18 1_555 1_555
H23 C18 1_555 1_555
H24 C18 1_555 1_555
H25 C19 1_555 1_555
H26 C19 1_555 1_555
H27 C19 1_555 1_555
H28 C20 1_555 1_555
H29 C20 1_555 1_555
H30 C20 1_555 1_555
C5 C6 1_555 1_555
C15 C16 1_555 1_555

#END
