
#######################################################################
#
#                 Cambridge Crystallographic Data Centre
#                                CCDC 
#
#######################################################################
#
# If this CIF has been generated from an entry in the Cambridge 
# Structural Database, then it will include bibliographic, chemical, 
# crystal, experimental, refinement or atomic coordinate data resulting 
# from the CCDC's data processing and validation procedures.
#
#######################################################################

data_PADXUQ
_chemical_formula_moiety         'C22 H16 N2 O2,C6 H12'
_chemical_name_systematic        
'2-cyano-3-(4-(diphenylamino)phenyl)acrylic acid cyclohexane solvate'
_symmetry_cell_setting           monoclinic
_symmetry_space_group_name_H-M   'P 21/c'
_symmetry_Int_Tables_number      14
_space_group_name_Hall           '-P 2ybc'
loop_
_symmetry_equiv_pos_site_id
_symmetry_equiv_pos_as_xyz
1 x,y,z
2 -x,1/2+y,1/2-z
3 -x,-y,-z
4 x,1/2-y,1/2+z
_cell_length_a                   14.509(5)
_cell_length_b                   11.858(5)
_cell_length_c                   15.396(5)
_cell_angle_alpha                90
_cell_angle_beta                 116.185(5)
_cell_angle_gamma                90
_cell_volume                     2377.01
_cell_formula_units_Z            4
loop_
_atom_site_label
_atom_site_type_symbol
_atom_site_fract_x
_atom_site_fract_y
_atom_site_fract_z
N1 N 0.1023(2) 0.1952(2) 0.3628(2)
O1 O 0.3522(2) 0.8480(2) 0.5247(1)
O2 O 0.4913(2) 0.8204(2) 0.5012(1)
H1 H 0.5036 0.8858 0.5203
C1 C 0.1484(2) 0.3019(2) 0.3861(2)
C2 C 0.1454(2) 0.4970(2) 0.4278(2)
H2 H 0.1107 0.5562 0.4400
C3 C 0.2440(2) 0.5154(2) 0.4371(2)
C4 C 0.3705(2) 0.6744(2) 0.4588(2)
C5 C 0.2888(2) 0.6267(2) 0.4646(2)
H3 H 0.2556 0.6732 0.4906
C6 C 0.4068(2) 0.7911(2) 0.4974(2)
C7 C 0.1295(2) 0.1163(2) 0.3091(2)
C8 C 0.2941(2) 0.4228(2) 0.4209(2)
H4 H 0.3604 0.4319 0.4273
C9 C 0.0977(2) 0.3938(2) 0.4011(2)
H5 H 0.0306 0.3854 0.3929
C10 C 0.0179(2) 0.1696(2) 0.3832(2)
C11 C 0.2482(2) 0.3187(2) 0.3959(2)
H6 H 0.2836 0.2590 0.3855
C12 C 0.4260(2) 0.6193(2) 0.4151(2)
N2 N 0.4703(2) 0.5778(2) 0.3777(2)
C13 C 0.1520(2) 0.0058(2) 0.3400(2)
H7 H 0.1497 -0.0169 0.3969
C14 C 0.0268(2) 0.1832(2) 0.4756(2)
H8 H 0.0895 0.2041 0.5256
C15 C 0.1336(2) 0.1473(2) 0.2246(2)
H9 H 0.1187 0.2212 0.2025
C16 C -0.0746(2) 0.1348(3) 0.3113(2)
H10 H -0.0814 0.1236 0.2490
C17 C -0.0570(3) 0.1659(3) 0.4942(2)
H11 H -0.0507 0.1767 0.5564
C18 C -0.1496(3) 0.1327(3) 0.4213(3)
H12 H -0.2061 0.1215 0.4336
C19 C 0.1780(3) -0.0714(3) 0.2867(3)
H13 H 0.1936 -0.1454 0.3084
C20 C -0.1574(2) 0.1164(3) 0.3309(3)
H14 H -0.2194 0.0925 0.2815
C21 C 0.1597(3) 0.0698(3) 0.1725(2)
H15 H 0.1630 0.0921 0.1161
C22 C 0.1807(2) -0.0400(3) 0.2031(3)
H16 H 0.1967 -0.0924 0.1669
C23 C 0.6551(2) 0.8962(2) 0.3928(2)
H17 H 0.7091 0.8815 0.4572
H18 H 0.6821 0.9480 0.3609
C24 C 0.5674(2) 0.9491(2) 0.4007(2)
H19 H 0.5892 1.0205 0.4344
H20 H 0.5454 0.9008 0.4389
C25 C 0.4802(2) 0.9688(2) 0.3056(2)
H21 H 0.4994 1.0239 0.2700
H22 H 0.4228 0.9990 0.3145
C26 C 0.6258(2) 0.7879(2) 0.3371(2)
H23 H 0.6067 0.7327 0.3728
H24 H 0.6842 0.7586 0.3294
C27 C 0.5365(3) 0.8064(3) 0.2383(2)
H25 H 0.5583 0.8541 0.1997
H26 H 0.5148 0.7345 0.2054
C28 C 0.4479(3) 0.8609(3) 0.2480(2)
H27 H 0.4208 0.8091 0.2798
H28 H 0.3936 0.8770 0.1841
loop_
_geom_bond_atom_site_label_1
_geom_bond_atom_site_label_2
_geom_bond_site_symmetry_1
_geom_bond_site_symmetry_2
N1 C1 1_555 1_555
O1 C6 1_555 1_555
O2 H1 1_555 1_555
C1 C9 1_555 1_555
C2 H2 1_555 1_555
C3 C2 1_555 1_555
C4 C5 1_555 1_555
C5 C3 1_555 1_555
H3 C5 1_555 1_555
C6 O2 1_555 1_555
C7 N1 1_555 1_555
C8 C3 1_555 1_555
H4 C8 1_555 1_555
C9 C2 1_555 1_555
H5 C9 1_555 1_555
C10 N1 1_555 1_555
C11 C1 1_555 1_555
H6 C11 1_555 1_555
C12 C4 1_555 1_555
N2 C12 1_555 1_555
C13 C7 1_555 1_555
H7 C13 1_555 1_555
C14 C10 1_555 1_555
H8 C14 1_555 1_555
C15 C7 1_555 1_555
H9 C15 1_555 1_555
C16 C10 1_555 1_555
H10 C16 1_555 1_555
C17 C14 1_555 1_555
H11 C17 1_555 1_555
C18 C17 1_555 1_555
H12 C18 1_555 1_555
C19 C13 1_555 1_555
H13 C19 1_555 1_555
C20 C16 1_555 1_555
H14 C20 1_555 1_555
C21 C15 1_555 1_555
H15 C21 1_555 1_555
C22 C19 1_555 1_555
H16 C22 1_555 1_555
C23 H17 1_555 1_555
H18 C23 1_555 1_555
C24 C23 1_555 1_555
H19 C24 1_555 1_555
H20 C24 1_555 1_555
C25 C24 1_555 1_555
H21 C25 1_555 1_555
H22 C25 1_555 1_555
C26 C23 1_555 1_555
H23 C26 1_555 1_555
H24 C26 1_555 1_555
C27 C26 1_555 1_555
H25 C27 1_555 1_555
H26 C27 1_555 1_555
C28 C25 1_555 1_555
H27 C28 1_555 1_555
H28 C28 1_555 1_555
C4 C6 1_555 1_555
C8 C11 1_555 1_555
C18 C20 1_555 1_555
C21 C22 1_555 1_555
C27 C28 1_555 1_555

#END
