
#######################################################################
#
#                 Cambridge Crystallographic Data Centre
#                                CCDC 
#
#######################################################################
#
# If this CIF has been generated from an entry in the Cambridge 
# Structural Database, then it will include bibliographic, chemical, 
# crystal, experimental, refinement or atomic coordinate data resulting 
# from the CCDC's data processing and validation procedures.
#
#######################################################################

data_PADYAX
_chemical_formula_moiety         'C34 H30 N2 O4'
_chemical_name_systematic        
'3-(4-(2-(4-(bis(4-ethoxyphenyl)amino)phenyl)vinyl)phenyl)-2-cyanoacrylic acid'
_symmetry_cell_setting           monoclinic
_symmetry_space_group_name_H-M   'C 2/c'
_symmetry_Int_Tables_number      15
_space_group_name_Hall           '-C 2yn'
loop_
_symmetry_equiv_pos_site_id
_symmetry_equiv_pos_as_xyz
1 x,y,z
2 -x,y,1/2-z
3 1/2+x,1/2+y,z
4 1/2-x,1/2+y,1/2-z
5 -x,-y,-z
6 x,-y,1/2+z
7 1/2-x,1/2-y,-z
8 1/2+x,1/2-y,1/2+z
_cell_length_a                   43.920(7)
_cell_length_b                   11.6379(17)
_cell_length_c                   11.4682(17)
_cell_angle_alpha                90
_cell_angle_beta                 104.781(2)
_cell_angle_gamma                90
_cell_volume                     5667.84
_cell_formula_units_Z            8
loop_
_atom_site_label
_atom_site_type_symbol
_atom_site_fract_x
_atom_site_fract_y
_atom_site_fract_z
O1 O 0.00411(5) -0.22637(19) 0.0000(2)
O2 O 0.23006(6) 0.36172(19) -0.9346(2)
H1 H 0.2356 0.3443 -0.9955
O3 O 0.08097(5) 0.38083(19) 0.53339(19)
O4 O 0.24529(5) 0.1817(2) -0.88050(19)
C1 C 0.06276(7) 0.2255(3) 0.2518(3)
H2 H 0.0448 0.2059 0.1924
C2 C 0.21405(6) 0.1960(2) -0.5629(2)
C3 C 0.07198(7) 0.0289(3) 0.1067(3)
C4 C 0.19443(7) 0.2707(3) -0.3991(3)
H3 H 0.1882 0.3335 -0.3605
C5 C 0.15447(6) 0.1848(3) -0.0856(3)
C6 C 0.14283(7) 0.0753(3) -0.0721(3)
H4 H 0.1479 0.0148 -0.1166
C7 C 0.23296(7) 0.2728(3) -0.8635(3)
C8 C 0.09208(7) 0.1901(2) 0.2409(3)
C9 C 0.22372(6) 0.2049(3) -0.6746(3)
H5 H 0.2343 0.1407 -0.6921
C10 C 0.12788(8) 0.2504(3) 0.0635(3)
H6 H 0.1233 0.3099 0.1105
C11 C 0.12414(7) 0.0539(3) 0.0045(3)
H7 H 0.1171 -0.0205 0.0116
C12 C 0.19363(6) 0.1608(2) -0.3505(3)
C13 C 0.02983(7) -0.0605(3) -0.0402(3)
H8 H 0.0166 -0.0616 -0.1177
C14 C 0.11551(7) 0.1419(3) 0.0717(3)
C15 C 0.11811(7) 0.2211(3) 0.3291(3)
H9 H 0.1379 0.1985 0.3228
C16 C 0.22012(7) 0.2893(3) -0.7573(3)
C17 C 0.20412(6) 0.2880(2) -0.5021(3)
H10 H 0.2041 0.3621 -0.5325
C18 C 0.02727(7) -0.1454(3) 0.0415(3)
C19 C 0.05181(7) 0.0253(3) -0.0074(3)
H11 H 0.0531 0.0821 -0.0630
C20 C 0.20470(7) 0.0703(3) -0.4085(3)
H12 H 0.2050 -0.0036 -0.3772
C21 C 0.18005(7) 0.1364(3) -0.2496(3)
H13 H 0.1769 0.0592 -0.2351
N1 N 0.18972(9) 0.4765(3) -0.7456(3)
C22 C 0.21513(7) 0.0871(3) -0.5101(3)
H14 H 0.2231 0.0253 -0.5445
C23 C 0.04708(8) -0.1433(3) 0.1545(3)
H15 H 0.0456 -0.1997 0.2101
C24 C 0.08630(7) 0.3186(2) 0.4390(3)
C25 C 0.17163(7) 0.2111(3) -0.1755(3)
H16 H 0.1773 0.2875 -0.1819
C26 C 0.14683(7) 0.2712(3) -0.0133(3)
H17 H 0.1547 0.3448 -0.0171
C27 C 0.20356(8) 0.3948(3) -0.7501(3)
C28 C 0.11544(7) 0.2854(3) 0.4276(3)
H18 H 0.1334 0.3063 0.4863
C29 C 0.06952(8) -0.0566(3) 0.1864(3)
H19 H 0.0831 -0.0566 0.2633
C30 C 0.05989(7) 0.2893(3) 0.3495(3)
H20 H 0.0401 0.3128 0.3552
C31 C -0.00055(10) -0.3104(3) 0.0821(4)
H21 H -0.0035 -0.2738 0.1545
H22 H 0.0177 -0.3601 0.1047
C32 C 0.10697(9) 0.3975(3) 0.6351(3)
H23 H 0.1229 0.4440 0.6128
H24 H 0.1163 0.3240 0.6644
C33 C 0.09540(10) 0.4568(4) 0.7317(3)
H25 H 0.0856 0.5283 0.7011
H26 H 0.1128 0.4714 0.7999
H27 H 0.0803 0.4088 0.7558
C34 C -0.02937(10) -0.3799(4) 0.0230(4)
H28 H -0.0476 -0.3314 0.0075
H29 H -0.0318 -0.4415 0.0756
H30 H -0.0270 -0.4111 -0.0516
N2 N 0.09457(6) 0.1190(2) 0.1418(2)
loop_
_geom_bond_atom_site_label_1
_geom_bond_atom_site_label_2
_geom_bond_site_symmetry_1
_geom_bond_site_symmetry_2
O1 C18 1_555 1_555
O2 H1 1_555 1_555
O3 C24 1_555 1_555
O4 C7 1_555 1_555
C1 H2 1_555 1_555
C2 C9 1_555 1_555
C3 C19 1_555 1_555
C4 H3 1_555 1_555
C5 C6 1_555 1_555
C6 H4 1_555 1_555
C7 O2 1_555 1_555
C8 C1 1_555 1_555
C9 H5 1_555 1_555
C10 H6 1_555 1_555
C11 C6 1_555 1_555
H7 C11 1_555 1_555
C12 C4 1_555 1_555
C13 H8 1_555 1_555
C14 C10 1_555 1_555
C15 C8 1_555 1_555
H9 C15 1_555 1_555
C16 C7 1_555 1_555
C17 C2 1_555 1_555
H10 C17 1_555 1_555
C18 C13 1_555 1_555
C19 C13 1_555 1_555
H11 C19 1_555 1_555
C20 C12 1_555 1_555
H12 C20 1_555 1_555
C21 C12 1_555 1_555
H13 C21 1_555 1_555
N1 C27 1_555 1_555
C22 C2 1_555 1_555
H14 C22 1_555 1_555
C23 C18 1_555 1_555
H15 C23 1_555 1_555
C24 C28 1_555 1_555
C25 C5 1_555 1_555
H16 C25 1_555 1_555
C26 C5 1_555 1_555
H17 C26 1_555 1_555
C27 C16 1_555 1_555
C28 C15 1_555 1_555
H18 C28 1_555 1_555
C29 C3 1_555 1_555
H19 C29 1_555 1_555
C30 C1 1_555 1_555
H20 C30 1_555 1_555
C31 O1 1_555 1_555
H21 C31 1_555 1_555
H22 C31 1_555 1_555
C32 O3 1_555 1_555
H23 C32 1_555 1_555
H24 C32 1_555 1_555
C33 C32 1_555 1_555
H25 C33 1_555 1_555
H26 C33 1_555 1_555
H27 C33 1_555 1_555
C34 C31 1_555 1_555
H28 C34 1_555 1_555
H29 C34 1_555 1_555
H30 C34 1_555 1_555
N2 C3 1_555 1_555
C4 C17 1_555 1_555
C8 N2 1_555 1_555
C9 C16 1_555 1_555
C10 C26 1_555 1_555
C11 C14 1_555 1_555
C14 N2 1_555 1_555
C20 C22 1_555 1_555
C21 C25 1_555 1_555
C23 C29 1_555 1_555
C24 C30 1_555 1_555

#END
