
#######################################################################
#
#                 Cambridge Crystallographic Data Centre
#                                CCDC 
#
#######################################################################
#
# If this CIF has been generated from an entry in the Cambridge 
# Structural Database, then it will include bibliographic, chemical, 
# crystal, experimental, refinement or atomic coordinate data resulting 
# from the CCDC's data processing and validation procedures.
#
#######################################################################

data_PAFBAB
_chemical_formula_moiety         'C13 H24'
_chemical_name_systematic        1,2-Di-t-butyl-3,3-dimethylcyclopropene
_symmetry_cell_setting           monoclinic
_symmetry_space_group_name_H-M   'P 21/n'
_symmetry_Int_Tables_number      14
_space_group_name_Hall           '-P 2yn'
loop_
_symmetry_equiv_pos_site_id
_symmetry_equiv_pos_as_xyz
1 x,y,z
2 1/2-x,1/2+y,1/2-z
3 -x,-y,-z
4 1/2+x,1/2-y,1/2+z
_cell_length_a                   6.2231(5)
_cell_length_b                   15.9836(18)
_cell_length_c                   13.4605(15)
_cell_angle_alpha                90
_cell_angle_beta                 99.08(2)
_cell_angle_gamma                90
_cell_volume                     1322.11
_exptl_crystal_colour            colorless
_exptl_crystal_description       cylinder
_cell_formula_units_Z            4
loop_
_atom_site_label
_atom_site_type_symbol
_atom_site_fract_x
_atom_site_fract_y
_atom_site_fract_z
C1 C 0.39776(17) 0.31503(6) 0.59232(7)
C2 C 0.38957(17) 0.23596(6) 0.57206(7)
C3 C 0.4733(2) 0.29069(6) 0.49479(7)
C4 C 0.3270(3) 0.30875(9) 0.39528(9)
C5 C 0.7124(2) 0.29161(9) 0.48701(11)
C6 C 0.37099(18) 0.38922(6) 0.65672(7)
C7 C 0.2266(3) 0.45315(8) 0.59335(11)
C8 C 0.5948(2) 0.42768(9) 0.69240(11)
C9 C 0.2671(3) 0.36311(8) 0.74723(10)
C10 C 0.3452(2) 0.14685(6) 0.59459(8)
C11 C 0.1997(3) 0.10888(9) 0.50395(12)
C12 C 0.5608(3) 0.09954(9) 0.61425(15)
C13 C 0.2312(3) 0.14171(9) 0.68695(12)
H1 H 0.756(3) 0.3481(11) 0.4645(12)
H2 H 0.748(3) 0.2459(10) 0.4396(11)
H3 H 0.808(3) 0.2798(8) 0.5563(11)
H4 H 0.180(3) 0.0482(11) 0.5171(11)
H5 H 0.274(3) 0.1115(10) 0.4457(13)
H6 H 0.049(3) 0.1387(12) 0.4871(13)
H7 H 0.659(3) 0.1236(11) 0.6739(14)
H8 H 0.630(3) 0.1023(10) 0.5534(13)
H9 H 0.524(3) 0.0388(11) 0.6278(12)
H10 H 0.330(3) 0.1644(11) 0.7484(13)
H11 H 0.093(3) 0.1741(13) 0.6758(13)
H12 H 0.203(3) 0.0831(13) 0.7002(12)
H13 H 0.352(3) 0.2674(10) 0.3439(12)
H14 H 0.160(3) 0.3090(10) 0.4001(11)
H15 H 0.358(3) 0.3655(10) 0.3673(11)
H16 H 0.086(3) 0.4303(11) 0.5648(12)
H17 H 0.298(3) 0.4719(10) 0.5361(13)
H18 H 0.212(2) 0.5043(9) 0.6340(10)
H19 H 0.697(3) 0.3856(10) 0.7359(12)
H20 H 0.669(3) 0.4435(10) 0.6323(13)
H21 H 0.577(3) 0.4778(11) 0.7354(11)
H22 H 0.121(3) 0.3353(10) 0.7261(11)
H23 H 0.364(3) 0.3199(11) 0.7905(12)
H24 H 0.247(2) 0.4122(10) 0.7904(11)
loop_
_geom_bond_atom_site_label_1
_geom_bond_atom_site_label_2
_geom_bond_site_symmetry_1
_geom_bond_site_symmetry_2
C1 C2 1_555 1_555
C2 C3 1_555 1_555
C3 C1 1_555 1_555
C4 C3 1_555 1_555
C5 C3 1_555 1_555
C6 C1 1_555 1_555
C7 C6 1_555 1_555
C8 C6 1_555 1_555
C9 C6 1_555 1_555
C10 C2 1_555 1_555
C11 C10 1_555 1_555
C12 C10 1_555 1_555
C13 C10 1_555 1_555
H1 C5 1_555 1_555
H2 C5 1_555 1_555
H3 C5 1_555 1_555
H4 C11 1_555 1_555
H5 C11 1_555 1_555
H6 C11 1_555 1_555
H7 C12 1_555 1_555
H8 C12 1_555 1_555
H9 C12 1_555 1_555
H10 C13 1_555 1_555
H11 C13 1_555 1_555
H12 C13 1_555 1_555
H13 C4 1_555 1_555
H14 C4 1_555 1_555
H15 C4 1_555 1_555
H16 C7 1_555 1_555
H17 C7 1_555 1_555
H18 C7 1_555 1_555
H19 C8 1_555 1_555
H20 C8 1_555 1_555
H21 C8 1_555 1_555
H22 C9 1_555 1_555
H23 C9 1_555 1_555
H24 C9 1_555 1_555

#END
