
#######################################################################
#
#                 Cambridge Crystallographic Data Centre
#                                CCDC 
#
#######################################################################
#
# If this CIF has been generated from an entry in the Cambridge 
# Structural Database, then it will include bibliographic, chemical, 
# crystal, experimental, refinement or atomic coordinate data resulting 
# from the CCDC's data processing and validation procedures.
#
#######################################################################

data_PAFCUW
_chemical_formula_moiety         'C33 H28 N2'
_chemical_name_systematic        
2-(9-Anthryl)-1-butyl-4,5-diphenyl-1H-imidazole
_symmetry_cell_setting           triclinic
_symmetry_space_group_name_H-M   'P -1'
_symmetry_Int_Tables_number      2
_space_group_name_Hall           '-P 1'
loop_
_symmetry_equiv_pos_site_id
_symmetry_equiv_pos_as_xyz
1 x,y,z
2 -x,-y,-z
_cell_length_a                   8.0636(11)
_cell_length_b                   9.2636(13)
_cell_length_c                   16.702(2)
_cell_angle_alpha                86.465(2)
_cell_angle_beta                 84.996(2)
_cell_angle_gamma                80.368(2)
_cell_volume                     1223.92
_exptl_crystal_colour            colorless
_exptl_crystal_description       block
_chemical_melting_point          '142-143 deg.C'
_cell_formula_units_Z            2
_exptl_crystal_recrystallization_method ethanol
loop_
_atom_site_label
_atom_site_type_symbol
_atom_site_fract_x
_atom_site_fract_y
_atom_site_fract_z
N1 N 0.13022(14) 0.29751(13) 0.30498(7)
C1 C -0.18100(17) 0.44031(15) 0.43101(8)
C2 C -0.05612(17) 0.63765(15) 0.35755(8)
C3 C -0.23624(17) 0.53495(16) 0.49634(8)
N2 N -0.07715(14) 0.38592(12) 0.22810(7)
C4 C -0.08770(17) 0.49243(15) 0.36337(8)
C5 C -0.11383(17) 0.73137(16) 0.42317(8)
C6 C -0.19934(18) 0.67640(17) 0.49110(9)
H1 H -0.2335 0.7374 0.5352
C7 C 0.03388(18) 0.69634(16) 0.28927(9)
H2 H 0.0722 0.6368 0.2449
C8 C -0.01125(17) 0.39102(15) 0.29984(8)
C9 C 0.31069(17) 0.11698(15) 0.21887(9)
C10 C 0.15892(17) 0.22884(15) 0.23274(8)
C11 C -0.32689(19) 0.48023(19) 0.56591(9)
H3 H -0.3603 0.5408 0.6103
C12 C 0.03116(17) 0.28153(15) 0.18396(8)
C13 C 0.0657(2) 0.83625(17) 0.28678(10)
H4 H 0.1257 0.8731 0.2406
C14 C -0.3658(2) 0.34329(19) 0.56940(9)
H5 H -0.4267 0.3088 0.6159
C15 C -0.01051(18) 0.24870(15) 0.10309(8)
C16 C -0.22451(19) 0.29662(16) 0.43767(9)
H6 H -0.1890 0.2319 0.3952
C17 C 0.0106(2) 0.92782(17) 0.35192(10)
H7 H 0.0346 1.0250 0.3495
C18 C -0.07625(19) 0.87680(16) 0.41760(10)
H8 H -0.1130 0.9392 0.4609
C19 C -0.23364(17) 0.47381(16) 0.20244(8)
H9 H -0.2279 0.4811 0.1429
H10 H -0.2432 0.5742 0.2215
C20 C 0.3531(2) 0.04953(17) 0.14575(10)
H11 H 0.2832 0.0759 0.1025
C21 C -0.3159(2) 0.25102(19) 0.50380(10)
H12 H -0.3468 0.1562 0.5062
C22 C 0.4159(2) 0.07582(18) 0.28065(11)
H13 H 0.3891 0.1199 0.3310
C23 C -0.39053(18) 0.41079(18) 0.23381(10)
H14 H -0.3788 0.3084 0.2175
H15 H -0.4011 0.4095 0.2933
C24 C -0.1321(2) 0.16111(19) 0.09556(10)
H16 H -0.1838 0.1184 0.1424
C25 C 0.0638(2) 0.30811(19) 0.03351(10)
H17 H 0.1476 0.3678 0.0371
C26 C -0.5489(2) 0.4996(2) 0.20185(12)
H18 H -0.6488 0.4649 0.2304
H19 H -0.5542 0.6037 0.2138
C27 C 0.4965(2) -0.05567(18) 0.13569(12)
H20 H 0.5231 -0.1015 0.0858
C28 C 0.5596(2) -0.0289(2) 0.26979(13)
H21 H 0.6303 -0.0557 0.3127
C29 C 0.6007(2) -0.09434(19) 0.19738(13)
H22 H 0.6998 -0.1653 0.1900
C30 C -0.1782(2) 0.1356(2) 0.02050(11)
H23 H -0.2620 0.0763 0.0161
C31 C 0.0166(3) 0.2810(2) -0.04149(10)
H24 H 0.0684 0.3223 -0.0888
C32 C -0.1035(3) 0.1956(2) -0.04762(10)
H25 H -0.1355 0.1776 -0.0990
C33 C -0.5568(3) 0.4893(3) 0.11270(14)
H26 H -0.6612 0.5489 0.0958
H27 H -0.5549 0.3869 0.1004
H28 H -0.4596 0.5253 0.0839
loop_
_geom_bond_atom_site_label_1
_geom_bond_atom_site_label_2
_geom_bond_site_symmetry_1
_geom_bond_site_symmetry_2
N1 C8 1_555 1_555
C1 C3 1_555 1_555
C2 C4 1_555 1_555
C3 C6 1_555 1_555
N2 C8 1_555 1_555
C4 C1 1_555 1_555
C5 C2 1_555 1_555
C6 C5 1_555 1_555
H1 C6 1_555 1_555
C7 C2 1_555 1_555
H2 C7 1_555 1_555
C8 C4 1_555 1_555
C9 C10 1_555 1_555
C10 N1 1_555 1_555
C11 C3 1_555 1_555
H3 C11 1_555 1_555
C12 N2 1_555 1_555
C13 C7 1_555 1_555
H4 C13 1_555 1_555
C14 C11 1_555 1_555
H5 C14 1_555 1_555
C15 C12 1_555 1_555
C16 C1 1_555 1_555
H6 C16 1_555 1_555
C17 C13 1_555 1_555
H7 C17 1_555 1_555
C18 C5 1_555 1_555
H8 C18 1_555 1_555
C19 N2 1_555 1_555
H9 C19 1_555 1_555
H10 C19 1_555 1_555
C20 C9 1_555 1_555
H11 C20 1_555 1_555
C21 C14 1_555 1_555
H12 C21 1_555 1_555
C22 C9 1_555 1_555
H13 C22 1_555 1_555
C23 C19 1_555 1_555
H14 C23 1_555 1_555
H15 C23 1_555 1_555
C24 C15 1_555 1_555
H16 C24 1_555 1_555
C25 C15 1_555 1_555
H17 C25 1_555 1_555
C26 C23 1_555 1_555
H18 C26 1_555 1_555
H19 C26 1_555 1_555
C27 C20 1_555 1_555
H20 C27 1_555 1_555
C28 C22 1_555 1_555
H21 C28 1_555 1_555
C29 C27 1_555 1_555
H22 C29 1_555 1_555
C30 C24 1_555 1_555
H23 C30 1_555 1_555
C31 C25 1_555 1_555
H24 C31 1_555 1_555
C32 C30 1_555 1_555
H25 C32 1_555 1_555
C33 C26 1_555 1_555
H26 C33 1_555 1_555
H27 C33 1_555 1_555
H28 C33 1_555 1_555
C10 C12 1_555 1_555
C16 C21 1_555 1_555
C17 C18 1_555 1_555
C28 C29 1_555 1_555
C31 C32 1_555 1_555

#END
