
#######################################################################
#
#                 Cambridge Crystallographic Data Centre
#                                CCDC 
#
#######################################################################
#
# If this CIF has been generated from an entry in the Cambridge 
# Structural Database, then it will include bibliographic, chemical, 
# crystal, experimental, refinement or atomic coordinate data resulting 
# from the CCDC's data processing and validation procedures.
#
#######################################################################

data_PAFDUW
_chemical_formula_moiety         'C17 H22 Cl3 N1 O11'
_chemical_name_systematic        
'3,4,6-Tri-O-acetyl-2-deoxy-2-(((2,2,2-trichloroethoxy)carbonyl)amino)-\b-glucopyranosyl acetate'
_symmetry_cell_setting           monoclinic
_symmetry_space_group_name_H-M   'C 2'
_symmetry_Int_Tables_number      5
_space_group_name_Hall           'C 2y'
loop_
_symmetry_equiv_pos_site_id
_symmetry_equiv_pos_as_xyz
1 x,y,z
2 -x,y,-z
3 1/2+x,1/2+y,z
4 1/2-x,1/2+y,-z
_cell_length_a                   32.846(2)
_cell_length_b                   5.3574(3)
_cell_length_c                   29.046(2)
_cell_angle_alpha                90
_cell_angle_beta                 116.020(2)
_cell_angle_gamma                90
_cell_volume                     4593.13
_exptl_crystal_colour            colorless
_exptl_crystal_description       block
_cell_formula_units_Z            8
loop_
_atom_site_label
_atom_site_type_symbol
_atom_site_fract_x
_atom_site_fract_y
_atom_site_fract_z
Cl1 Cl 1.21154(2) 0.12821(16) 0.46704(3)
Cl2 Cl 1.15150(3) 0.47546(17) 0.39175(3)
Cl3 Cl 1.16695(3) 0.51535(16) 0.49698(3)
O1 O 0.90547(6) -0.0255(4) 0.38108(7)
O2 O 0.94128(7) 0.3428(4) 0.42099(7)
O3 O 0.94747(9) 0.1581(5) 0.49325(9)
O4 O 1.04405(7) -0.1044(4) 0.40189(8)
O5 O 1.08199(7) 0.2609(4) 0.41840(8)
O6 O 0.94011(7) 0.3032(4) 0.27505(7)
O7 O 0.94848(11) 0.7133(5) 0.28011(11)
O8 O 0.84868(7) 0.3333(4) 0.26258(7)
O9 O 0.82604(9) 0.0499(5) 0.19906(9)
O10 O 0.81142(7) -0.0901(5) 0.35854(8)
O11 O 0.76198(8) 0.2105(6) 0.31501(10)
N1 N 1.00707(8) 0.2673(5) 0.38151(9)
H1 H 1.0098 0.4307 0.3813
C1 C 0.94644(10) 0.1038(6) 0.40160(11)
H2 H 0.9697 0.0039 0.4301
C2 C 0.96290(10) 0.1515(6) 0.36088(11)
H3 H 0.9659 -0.0150 0.3471
C3 C 0.92741(10) 0.2973(6) 0.31658(10)
H4 H 0.9246 0.4706 0.3276
C4 C 0.88264(10) 0.1644(6) 0.29690(11)
H5 H 0.8835 0.0097 0.2781
C5 C 0.86903(10) 0.0990(6) 0.33974(11)
H6 H 0.8611 0.2553 0.3528
C6 C 0.94094(11) 0.3430(6) 0.46797(11)
C7 C 0.93378(13) 0.5982(6) 0.48287(13)
H7 H 0.9334 0.5924 0.5164
H8 H 0.9048 0.6635 0.4573
H9 H 0.9584 0.7073 0.4847
C8 C 1.04409(10) 0.1198(6) 0.40107(11)
C9 C 1.12272(9) 0.1213(6) 0.43749(12)
H10 H 1.1213 -0.0069 0.4123
H11 H 1.1276 0.0364 0.4698
C10 C 1.16079(10) 0.3033(6) 0.44686(11)
C11 C 0.94905(10) 0.5228(6) 0.26008(12)
C12 C 0.95982(11) 0.4974(7) 0.21522(11)
H12 H 0.9660 0.6626 0.2053
H13 H 0.9340 0.4223 0.1864
H14 H 0.9865 0.3906 0.2247
C13 C 0.82216(11) 0.2531(7) 0.21385(12)
C14 C 0.78927(12) 0.4461(7) 0.18434(13)
H15 H 0.7705 0.3845 0.1496
H16 H 0.8055 0.5966 0.1825
H17 H 0.7700 0.4861 0.2012
C15 C 0.82935(10) -0.0780(6) 0.32123(12)
H18 H 0.8055 -0.0194 0.2880
H19 H 0.8392 -0.2462 0.3161
C16 C 0.77856(10) 0.0745(6) 0.35158(12)
C17 C 0.76641(12) 0.0711(8) 0.39579(13)
H20 H 0.7423 0.1928 0.3897
H21 H 0.7931 0.1144 0.4274
H22 H 0.7559 -0.0960 0.3991
Cl4 Cl 0.34742(3) 0.35253(18) 0.11344(3)
Cl5 Cl 0.29209(2) -0.00421(16) 0.03781(3)
Cl6 Cl 0.33209(3) 0.40763(16) 0.00816(3)
O12 O 0.60179(6) 0.0012(4) 0.12478(7)
O13 O 0.55833(7) 0.3374(4) 0.07734(7)
O14 O 0.55759(10) 0.1339(5) 0.00938(9)
O15 O 0.46418(7) -0.1545(4) 0.10468(8)
O16 O 0.41936(6) 0.1878(4) 0.08488(7)
O17 O 0.55506(6) 0.3395(4) 0.22025(7)
O18 O 0.57346(8) 0.7439(4) 0.23633(8)
O19 O 0.65011(6) 0.4225(4) 0.23452(7)
O20 O 0.65344(7) 0.2651(4) 0.30759(8)
O21 O 0.70174(7) 0.0294(4) 0.15535(8)
O22 O 0.67768(8) -0.3505(5) 0.12144(10)
N2 N 0.49354(8) 0.2381(5) 0.11698(9)
H23 H 0.4875 0.3988 0.1126
C18 C 0.55827(10) 0.1024(6) 0.10106(11)
H24 H 0.5377 -0.0166 0.0745
C19 C 0.53978(9) 0.1520(6) 0.14020(10)
H25 H 0.5404 -0.0099 0.1576
C20 C 0.57106(9) 0.3319(6) 0.18097(10)
H26 H 0.5701 0.5016 0.1662
C21 C 0.61889(9) 0.2281(6) 0.20435(11)
H27 H 0.6212 0.0799 0.2263
C22 C 0.63472(10) 0.1601(6) 0.16337(11)
H28 H 0.6393 0.3153 0.1471
C23 C 0.56082(10) 0.3239(6) 0.03143(11)
C24 C 0.56716(11) 0.5761(6) 0.01454(12)
H29 H 0.5688 0.5633 -0.0183
H30 H 0.5953 0.6490 0.0403
H31 H 0.5416 0.6827 0.0105
C25 C 0.45988(10) 0.0703(6) 0.10213(10)
C26 C 0.38108(9) 0.0268(6) 0.06740(12)
H32 H 0.3849 -0.1011 0.0936
H33 H 0.3770 -0.0586 0.0354
C27 C 0.34070(10) 0.1911(6) 0.05785(12)
C28 C 0.56004(10) 0.5541(6) 0.24628(11)
C29 C 0.54670(11) 0.5213(6) 0.28892(12)
H34 H 0.5506 0.6797 0.3073
H35 H 0.5659 0.3933 0.3126
H36 H 0.5149 0.4695 0.2748
C30 C 0.66425(9) 0.4199(6) 0.28573(11)
C31 C 0.69377(11) 0.6412(7) 0.30992(11)
H37 H 0.7039 0.6364 0.3471
H38 H 0.6765 0.7948 0.2960
H39 H 0.7202 0.6374 0.3025
C32 C 0.67809(10) 0.0132(7) 0.18706(11)
H40 H 0.6975 0.0798 0.2216
H41 H 0.6713 -0.1636 0.1907
C33 C 0.69784(10) -0.1612(6) 0.12372(11)
C34 C 0.72297(11) -0.1014(7) 0.09295(12)
H42 H 0.7203 -0.2414 0.0701
H43 H 0.7550 -0.0728 0.1160
H44 H 0.7101 0.0491 0.0726
loop_
_geom_bond_atom_site_label_1
_geom_bond_atom_site_label_2
_geom_bond_site_symmetry_1
_geom_bond_site_symmetry_2
Cl1 C10 1_555 1_555
Cl2 C10 1_555 1_555
Cl3 C10 1_555 1_555
O1 C1 1_555 1_555
O2 C1 1_555 1_555
O3 C6 1_555 1_555
O4 C8 1_555 1_555
O5 C8 1_555 1_555
O6 C3 1_555 1_555
O7 C11 1_555 1_555
O8 C4 1_555 1_555
O9 C13 1_555 1_555
O10 C15 1_555 1_555
O11 C16 1_555 1_555
N1 H1 1_555 1_555
C1 H2 1_555 1_555
C2 N1 1_555 1_555
H3 C2 1_555 1_555
C3 C2 1_555 1_555
H4 C3 1_555 1_555
C4 C3 1_555 1_555
H5 C4 1_555 1_555
C5 O1 1_555 1_555
H6 C5 1_555 1_555
C6 O2 1_555 1_555
C7 C6 1_555 1_555
H7 C7 1_555 1_555
H8 C7 1_555 1_555
H9 C7 1_555 1_555
C8 N1 1_555 1_555
C9 O5 1_555 1_555
H10 C9 1_555 1_555
H11 C9 1_555 1_555
C10 C9 1_555 1_555
C11 O6 1_555 1_555
C12 C11 1_555 1_555
H12 C12 1_555 1_555
H13 C12 1_555 1_555
H14 C12 1_555 1_555
C13 O8 1_555 1_555
C14 C13 1_555 1_555
H15 C14 1_555 1_555
H16 C14 1_555 1_555
H17 C14 1_555 1_555
C15 C5 1_555 1_555
H18 C15 1_555 1_555
H19 C15 1_555 1_555
C16 O10 1_555 1_555
C17 C16 1_555 1_555
H20 C17 1_555 1_555
H21 C17 1_555 1_555
H22 C17 1_555 1_555
Cl4 C27 1_555 1_555
Cl5 C27 1_555 1_555
Cl6 C27 1_555 1_555
O12 C18 1_555 1_555
O13 C18 1_555 1_555
O14 C23 1_555 1_555
O15 C25 1_555 1_555
O16 C25 1_555 1_555
O17 C20 1_555 1_555
O18 C28 1_555 1_555
O19 C21 1_555 1_555
O20 C30 1_555 1_555
O21 C32 1_555 1_555
O22 C33 1_555 1_555
N2 H23 1_555 1_555
C18 H24 1_555 1_555
C19 N2 1_555 1_555
H25 C19 1_555 1_555
C20 C19 1_555 1_555
H26 C20 1_555 1_555
C21 C20 1_555 1_555
H27 C21 1_555 1_555
C22 O12 1_555 1_555
H28 C22 1_555 1_555
C23 O13 1_555 1_555
C24 C23 1_555 1_555
H29 C24 1_555 1_555
H30 C24 1_555 1_555
H31 C24 1_555 1_555
C25 N2 1_555 1_555
C26 O16 1_555 1_555
H32 C26 1_555 1_555
H33 C26 1_555 1_555
C27 C26 1_555 1_555
C28 O17 1_555 1_555
C29 C28 1_555 1_555
H34 C29 1_555 1_555
H35 C29 1_555 1_555
H36 C29 1_555 1_555
C30 O19 1_555 1_555
C31 C30 1_555 1_555
H37 C31 1_555 1_555
H38 C31 1_555 1_555
H39 C31 1_555 1_555
C32 C22 1_555 1_555
H40 C32 1_555 1_555
H41 C32 1_555 1_555
C33 O21 1_555 1_555
C34 C33 1_555 1_555
H42 C34 1_555 1_555
H43 C34 1_555 1_555
H44 C34 1_555 1_555
C1 C2 1_555 1_555
C4 C5 1_555 1_555
C18 C19 1_555 1_555
C21 C22 1_555 1_555

#END
