
#######################################################################
#
#                 Cambridge Crystallographic Data Centre
#                                CCDC 
#
#######################################################################
#
# If this CIF has been generated from an entry in the Cambridge 
# Structural Database, then it will include bibliographic, chemical, 
# crystal, experimental, refinement or atomic coordinate data resulting 
# from the CCDC's data processing and validation procedures.
#
#######################################################################

data_PAFJEM
_chemical_formula_moiety         'C28 H43 N1 O5'
_chemical_name_systematic        
16-Hydroxy-2-(2-(hydroxymethyl)cyclopentyl)-9,11,13,15-tetramethyl-8,18-dioxo-1-oxacyclo-octadeca-4,6-diene-7-carbonitrile
_symmetry_cell_setting           monoclinic
_symmetry_space_group_name_H-M   'C 2'
_symmetry_Int_Tables_number      5
_space_group_name_Hall           'C 2y'
loop_
_symmetry_equiv_pos_site_id
_symmetry_equiv_pos_as_xyz
1 x,y,z
2 -x,y,-z
3 1/2+x,1/2+y,z
4 1/2-x,1/2+y,-z
_cell_length_a                   34.201(3)
_cell_length_b                   5.6336(5)
_cell_length_c                   14.6696(13)
_cell_angle_alpha                90
_cell_angle_beta                 104.1980(10)
_cell_angle_gamma                90
_cell_volume                     2740.12
_exptl_crystal_colour            colorless
_exptl_crystal_description       plate
_cell_formula_units_Z            4
loop_
_atom_site_label
_atom_site_type_symbol
_atom_site_fract_x
_atom_site_fract_y
_atom_site_fract_z
O1 O 0.84588(8) 0.3751(5) 0.48893(17)
O2 O 0.85213(11) -0.0111(6) 0.4619(2)
O3 O 0.81602(8) 0.6634(6) 0.3153(2)
H1 H 0.8267(19) 0.726(13) 0.377(5)
O4 O 1.00416(8) 0.5008(6) 0.28114(19)
N1 N 0.92008(13) 1.1478(8) 0.3030(3)
C1 C 0.84129(12) 0.1833(8) 0.4338(3)
C2 C 0.82001(15) 0.2382(8) 0.3330(3)
H2 H 0.7909 0.2604 0.3288
H3 H 0.8228 0.1001 0.2933
C3 C 0.83596(11) 0.4574(7) 0.2940(2)
H4 H 0.8654 0.4726 0.3244
C4 C 0.83051(11) 0.4421(8) 0.1869(2)
H5 H 0.8438 0.2924 0.1737
C5 C 0.85233(11) 0.6472(8) 0.1544(2)
H6 H 0.8803 0.6502 0.1940
H7 H 0.8391 0.7962 0.1666
C6 C 0.85431(11) 0.6480(8) 0.0512(2)
H8 H 0.8503 0.4815 0.0270
C7 C 0.89585(12) 0.7336(8) 0.0421(3)
H9 H 0.8937 0.7759 -0.0245
H10 H 0.9028 0.8803 0.0798
C8 C 0.93067(12) 0.5570(8) 0.0731(3)
H11 H 0.9280 0.4796 0.1327
C9 C 0.97183(12) 0.6794(9) 0.0922(3)
H12 H 0.9928 0.5554 0.0970
H13 H 0.9725 0.7792 0.0371
C10 C 0.98330(12) 0.8347(8) 0.1802(3)
H14 H 0.9626 0.9619 0.1762
C11 C 0.98443(11) 0.6811(9) 0.2664(3)
C12 C 0.96016(11) 0.7574(8) 0.3334(3)
C13 C 0.95727(11) 0.6145(9) 0.4060(3)
H15 H 0.9726 0.4722 0.4147
C14 C 0.93299(11) 0.6615(10) 0.4700(3)
H16 H 0.9194 0.8095 0.4660
C15 C 0.92850(12) 0.5042(9) 0.5362(3)
H17 H 0.9435 0.3608 0.5418
C16 C 0.90186(13) 0.5396(9) 0.6007(3)
H18 H 0.8898 0.7002 0.5906
H19 H 0.9182 0.5306 0.6664
C17 C 0.86833(12) 0.3562(8) 0.5860(2)
H20 H 0.8803 0.1939 0.5980
C18 C 0.83932(13) 0.3979(9) 0.6484(3)
H21 H 0.8270 0.5590 0.6349
C19 C 0.86123(18) 0.3813(11) 0.7554(3)
C20 C 0.8385(6) 0.243(4) 0.8069(12)
C21 C 0.8152(5) 0.059(3) 0.7348(9)
C24 C 0.80536(16) 0.2102(15) 0.6336(4)
C25 C 0.7626(5) 0.364(3) 0.6267(13)
O5 O 0.7604(5) 0.591(3) 0.5825(11)
C27 C 0.78585(12) 0.4247(11) 0.1357(3)
H22 H 0.7833 0.4157 0.0677
H23 H 0.7716 0.5653 0.1499
H24 H 0.7742 0.2820 0.1566
C28 C 0.82152(13) 0.8027(11) -0.0098(3)
H25 H 0.7950 0.7474 -0.0046
H26 H 0.8231 0.7924 -0.0755
H27 H 0.8254 0.9679 0.0114
C29 C 0.92891(14) 0.3632(9) -0.0010(3)
H28 H 0.9027 0.2836 -0.0134
H29 H 0.9504 0.2471 0.0223
H30 H 0.9326 0.4349 -0.0592
C30 C 1.02478(13) 0.9496(10) 0.1909(3)
H31 H 1.0312 1.0470 0.2480
H32 H 1.0244 1.0498 0.1361
H33 H 1.0452 0.8254 0.1956
C31 C 0.93798(12) 0.9746(9) 0.3165(3)
C22? C 0.8197(3) 0.321(2) 0.7918(6)
C23? C 0.7960(5) 0.133(3) 0.7219(10)
O6? O 0.7264(4) 0.266(3) 0.5509(10)
C26? C 0.7630(4) 0.252(3) 0.5787(9)
O7? O 0.7573(6) 0.289(4) 0.4819(11)
O8? O 0.7468(6) 0.050(4) 0.6148(15)
loop_
_geom_bond_atom_site_label_1
_geom_bond_atom_site_label_2
_geom_bond_site_symmetry_1
_geom_bond_site_symmetry_2
O1 C1 1_555 1_555
O2 C1 1_555 1_555
O3 H1 1_555 1_555
O4 C11 1_555 1_555
N1 C31 1_555 1_555
C1 C2 1_555 1_555
C2 H2 1_555 1_555
H3 C2 1_555 1_555
C3 O3 1_555 1_555
H4 C3 1_555 1_555
C4 C3 1_555 1_555
H5 C4 1_555 1_555
C5 C4 1_555 1_555
H6 C5 1_555 1_555
H7 C5 1_555 1_555
C6 C5 1_555 1_555
H8 C6 1_555 1_555
C7 C6 1_555 1_555
H9 C7 1_555 1_555
H10 C7 1_555 1_555
C8 C7 1_555 1_555
H11 C8 1_555 1_555
C9 C8 1_555 1_555
H12 C9 1_555 1_555
H13 C9 1_555 1_555
C10 C9 1_555 1_555
H14 C10 1_555 1_555
C11 C10 1_555 1_555
C12 C11 1_555 1_555
C13 C12 1_555 1_555
H15 C13 1_555 1_555
C14 C13 1_555 1_555
H16 C14 1_555 1_555
C15 C14 1_555 1_555
H17 C15 1_555 1_555
C16 C15 1_555 1_555
H18 C16 1_555 1_555
H19 C16 1_555 1_555
C17 O1 1_555 1_555
H20 C17 1_555 1_555
C18 C17 1_555 1_555
H21 C18 1_555 1_555
C19 C18 1_555 1_555
C20 C19 1_555 1_555
C21 C20 1_555 1_555
C24 C18 1_555 1_555
C25 C24 1_555 1_555
O5 C25 1_555 1_555
C27 C4 1_555 1_555
H22 C27 1_555 1_555
H23 C27 1_555 1_555
H24 C27 1_555 1_555
C28 C6 1_555 1_555
H25 C28 1_555 1_555
H26 C28 1_555 1_555
H27 C28 1_555 1_555
C29 C8 1_555 1_555
H28 C29 1_555 1_555
H29 C29 1_555 1_555
H30 C29 1_555 1_555
C30 C10 1_555 1_555
H31 C30 1_555 1_555
H32 C30 1_555 1_555
H33 C30 1_555 1_555
C31 C12 1_555 1_555
C2 C3 1_555 1_555
C16 C17 1_555 1_555
C21 C24 1_555 1_555

#END
