
#######################################################################
#
#                 Cambridge Crystallographic Data Centre
#                                CCDC 
#
#######################################################################
#
# If this CIF has been generated from an entry in the Cambridge 
# Structural Database, then it will include bibliographic, chemical, 
# crystal, experimental, refinement or atomic coordinate data resulting 
# from the CCDC's data processing and validation procedures.
#
#######################################################################

data_PAFYEC
_chemical_formula_moiety         'C108 H92 N4 O12,4(C3 H7 N1 O1)'
_chemical_name_systematic        
'2,8,14,20-tetrahexyl-(4,24:12,16)-bis(pentacyclo[6.6.4.2^15,18^.0^2,7^.0^9,14^]icosa-2(7),4,9,11,13,15,17,19-octaene-3,6-dione-4,5-diolato)-(6,10:18,22)-bis(quinoxaline-1,4-diolato)resorcin(4)arene tetrakis(dimethylformamide) clathrate'
_symmetry_cell_setting           triclinic
_symmetry_space_group_name_H-M   'P -1'
_symmetry_Int_Tables_number      2
_space_group_name_Hall           '-P 1'
loop_
_symmetry_equiv_pos_site_id
_symmetry_equiv_pos_as_xyz
1 x,y,z
2 -x,-y,-z
_cell_length_a                   18.763(2)
_cell_length_b                   21.598(3)
_cell_length_c                   30.068(4)
_cell_angle_alpha                77.130(4)
_cell_angle_beta                 73.645(4)
_cell_angle_gamma                64.508(4)
_cell_volume                     10480.8
_exptl_crystal_colour            yellow
_exptl_crystal_description       cube
_cell_formula_units_Z            4
loop_
_atom_site_label
_atom_site_type_symbol
_atom_site_fract_x
_atom_site_fract_y
_atom_site_fract_z
O1 O 0.9640(5) 0.6650(4) 0.0460(3)
O2 O 1.0457(5) 0.5504(4) 0.0955(3)
O3 O 1.0696(4) 0.4562(3) 0.2529(2)
O4 O 1.2065(4) 0.4800(4) 0.2108(3)
O5 O 1.0760(5) 0.5312(4) 0.3862(3)
O6 O 1.0005(4) 0.4854(3) 0.3428(2)
O7 O 0.7941(4) 0.6961(4) 0.3992(3)
O8 O 0.7280(5) 0.8141(4) 0.3438(3)
O9 O 0.7083(4) 0.9220(4) 0.1896(3)
O10 O 0.7826(5) 0.9845(4) 0.2219(3)
O11 O 0.9137(4) 0.8967(4) 0.0548(2)
O12 O 0.7753(4) 0.8796(4) 0.1026(2)
N1 N 1.0621(6) 0.7049(6) 0.0369(4)
N2 N 1.1422(7) 0.5875(7) 0.0953(4)
N3 N 0.8946(6) 0.7229(5) 0.3983(3)
N4 N 0.8382(7) 0.8390(6) 0.3319(4)
C1 C 0.6757(7) 0.8163(7) 0.1686(4)
H1 H 0.6573 0.8655 0.1543
C2 C 0.6913(7) 0.8149(6) 0.2132(4)
C3 C 0.6891(7) 0.7663(6) 0.2517(4)
H2 H 0.6780 0.7298 0.2466
C4 C 0.6990(7) 0.7614(6) 0.2918(4)
C6 C 0.6911(7) 0.7099(6) 0.3360(4)
H5 H 0.6702 0.7341 0.3646
C7 C 0.7744(7) 0.6484(6) 0.3386(4)
C8 C 0.8049(6) 0.5956(5) 0.3115(4)
H6 H 0.7732 0.5965 0.2915
C9 C 0.9060(6) 0.4840(5) 0.2814(3)
H7 H 0.9512 0.4443 0.2936
C10 C 0.9394(6) 0.5047(5) 0.2331(3)
C11 C 0.8964(6) 0.5353(5) 0.1961(4)
H8 H 0.8405 0.5440 0.2036
C12 C 0.9277(6) 0.5525(6) 0.1521(4)
C13 C 0.8823(7) 0.5872(6) 0.1132(4)
H9 H 0.9211 0.5713 0.0835
C14 C 0.8553(6) 0.6660(6) 0.1087(4)
C15 C 0.7826(7) 0.7040(6) 0.1382(4)
H10 H 0.7516 0.6804 0.1592
C16 C 0.7549(7) 0.7766(6) 0.1371(4)
C17 C 0.8017(7) 0.8071(6) 0.1050(4)
C18 C 0.8711(6) 0.7699(5) 0.0767(4)
H11 H 0.9029 0.7925 0.0553
C19 C 0.8948(6) 0.7013(6) 0.0787(4)
C20 C 1.0369(8) 0.6565(7) 0.0558(4)
C21 C 1.1352(5) 0.6935(6) 0.0475(4)
C22 C 1.1708(7) 0.7408(5) 0.0277(3)
H12 H 1.1464 0.7792 0.0067
C23 C 1.2420(7) 0.7317(6) 0.0388(4)
H13 H 1.2664 0.7640 0.0253
C24 C 1.2777(5) 0.6755(7) 0.0697(4)
H14 H 1.3264 0.6693 0.0772
C25 C 1.2421(7) 0.6282(6) 0.0895(4)
H15 H 1.2665 0.5898 0.1105
C26 C 1.1709(6) 0.6373(6) 0.0784(4)
C27 C 1.0748(9) 0.5983(7) 0.0826(4)
C28 C 1.0091(7) 0.5366(6) 0.1415(4)
C29 C 1.0581(6) 0.5071(5) 0.1748(4)
H16 H 1.1141 0.4983 0.1665
C30 C 1.0219(6) 0.4918(5) 0.2192(4)
C31 C 1.0977(6) 0.4868(5) 0.2759(4)
C32 C 1.1772(7) 0.4933(6) 0.2507(4)
C33 C 1.2146(7) 0.5123(6) 0.2792(4)
C34 C 1.2965(6) 0.5184(8) 0.2587(5)
H17 H 1.3197 0.5103 0.2252
C35 C 1.2824(5) 0.5888(4) 0.2699(3)
C36 C 1.3019(5) 0.6396(5) 0.2381(2)
H18 H 1.3256 0.6319 0.2064
C37 C 1.2868(5) 0.7016(4) 0.2527(3)
H19 H 1.3001 0.7363 0.2310
C38 C 1.2522(6) 0.7129(4) 0.2991(4)
H20 H 1.2419 0.7553 0.3091
C39 C 1.2327(5) 0.6621(5) 0.3309(2)
H21 H 1.2090 0.6698 0.3626
C40 C 1.2478(5) 0.6001(5) 0.3163(3)
C41 C 1.2346(8) 0.5409(7) 0.3453(5)
H22 H 1.2096 0.5489 0.3787
C42 C 1.3152(8) 0.4794(7) 0.3391(6)
C43 C 1.3550(10) 0.4394(9) 0.3737(5)
H23 H 1.3317 0.4487 0.4052
C44 C 1.4308(10) 0.3844(8) 0.3628(6)
H24 H 1.4575 0.3563 0.3871
C45 C 1.4655(8) 0.3715(9) 0.3182(6)
H25 H 1.5173 0.3357 0.3108
C46 C 1.4234(8) 0.4122(8) 0.2827(5)
H26 H 1.4462 0.4033 0.2512
C47 C 1.3480(8) 0.4659(8) 0.2943(5)
C48 C 1.1824(7) 0.5240(6) 0.3214(4)
C49 C 1.1058(7) 0.5206(6) 0.3460(4)
C50 C 1.0667(6) 0.4993(5) 0.3187(3)
C51 C 0.9235(6) 0.5412(5) 0.3402(4)
C52 C 0.8780(6) 0.5419(5) 0.3117(4)
C53 C 0.8961(7) 0.5931(6) 0.3692(4)
H27 H 0.9279 0.5929 0.3890
C54 C 0.8207(7) 0.6445(6) 0.3675(4)
C55 C 0.8319(7) 0.7419(6) 0.3825(4)
C56 C 0.9397(7) 0.7675(6) 0.3762(4)
C57 C 1.0082(9) 0.7524(9) 0.3914(5)
H28 H 1.0258 0.7156 0.4151
C58 C 1.0514(9) 0.7955(8) 0.3694(6)
H29 H 1.1002 0.7870 0.3779
C59 C 1.0224(9) 0.8500(9) 0.3356(5)
H30 H 1.0515 0.8786 0.3213
C60 C 0.9554(10) 0.8623(8) 0.3231(5)
H31 H 0.9373 0.8999 0.2999
C61 C 0.9067(9) 0.8197(7) 0.3438(4)
C62 C 0.7983(8) 0.7980(6) 0.3533(4)
C63 C 0.7218(7) 0.8140(6) 0.2992(5)
C64 C 0.7248(6) 0.8643(6) 0.2639(4)
H32 H 0.7370 0.8998 0.2697
C65 C 0.7128(7) 0.8685(6) 0.2236(4)
C66 C 0.7830(7) 0.9244(6) 0.1642(4)
C67 C 0.8142(7) 0.9628(6) 0.1843(4)
C68 C 0.8900(7) 0.9687(6) 0.1564(4)
C69 C 0.9367(7) 1.0000(6) 0.1711(4)
H33 H 0.9104 1.0185 0.2020
C70 C 1.0199(7) 0.9445(6) 0.1701(4)
C71 C 1.0593(9) 0.9164(9) 0.2070(4)
H34 H 1.0348 0.9339 0.2363
C72 C 1.1317(10) 0.8648(8) 0.2010(5)
H35 H 1.1593 0.8484 0.2260
C73 C 1.1689(8) 0.8338(8) 0.1603(6)
H36 H 1.2191 0.7951 0.1582
C74 C 1.1312(7) 0.8605(7) 0.1221(4)
H37 H 1.1568 0.8428 0.0929
C75 C 1.0587(8) 0.9114(7) 0.1279(4)
C76 C 1.0042(6) 0.9499(7) 0.0920(4)
H38 H 1.0286 0.9321 0.0609
C77 C 0.9835(7) 1.0274(6) 0.0891(4)
C78 C 0.9993(7) 1.0716(8) 0.0495(5)
H39 H 1.0239 1.0545 0.0200
C79 C 0.9796(8) 1.1389(8) 0.0531(5)
H40 H 0.9896 1.1690 0.0261
C80 C 0.9443(8) 1.1638(7) 0.0969(6)
H41 H 0.9315 1.2107 0.0995
C81 C 0.9283(8) 1.1209(7) 0.1358(5)
H42 H 0.9034 1.1382 0.1652
C82 C 0.9485(7) 1.0529(7) 0.1323(4)
C83 C 0.9245(6) 0.9417(5) 0.1152(4)
C84 C 0.8880(6) 0.9128(5) 0.0941(4)
C85 C 0.8136(6) 0.9027(6) 0.1235(4)
C86 C 0.6053(7) 0.7916(7) 0.1726(6)
H43 H 0.6257 0.7407 0.1796
H44 H 0.5602 0.8118 0.1986
C87 C 0.5749(9) 0.8130(8) 0.1285(7)
H45 H 0.6190 0.7920 0.1023
H46 H 0.5543 0.8638 0.1210
C88 C 0.5075(10) 0.7883(9) 0.1358(8)
H47 H 0.5305 0.7393 0.1303
H48 H 0.4760 0.7921 0.1683
C89 C 0.4544(10) 0.8314(11) 0.1029(8)
H49 H 0.4865 0.8270 0.0706
H50 H 0.4331 0.8804 0.1082
C90 C 0.3829(9) 0.8106(11) 0.1085(10)
H51 H 0.4015 0.7603 0.1081
H52 H 0.3425 0.8245 0.1376
C91 C 0.349(2) 0.852(2) 0.0651(10)
H53 H 0.3126 0.8337 0.0598
H54 H 0.3935 0.8474 0.0379
H55 H 0.3189 0.9006 0.0701
C92 C 0.6290(6) 0.6815(6) 0.3313(5)
H56 H 0.5794 0.7208 0.3243
H57 H 0.6529 0.6530 0.3051
C93 C 0.6076(8) 0.6387(7) 0.3758(4)
H58 H 0.5746 0.6693 0.4005
H59 H 0.6578 0.6054 0.3860
C94 C 0.5602(8) 0.5986(7) 0.3699(5)
H60 H 0.5095 0.6320 0.3603
H61 H 0.5927 0.5688 0.3446
C95 C 0.5403(8) 0.5549(7) 0.4135(4)
H62 H 0.5038 0.5847 0.4382
H63 H 0.5904 0.5235 0.4246
C96 C 0.4992(8) 0.5122(6) 0.4043(5)
H64 H 0.4525 0.5429 0.3899
H65 H 0.5378 0.4781 0.3827
C97 C 0.4713(10) 0.4757(8) 0.4503(6)
H66 H 0.4296 0.5099 0.4705
H67 H 0.5171 0.4483 0.4654
H68 H 0.4489 0.4452 0.4449
C98 C 0.8394(6) 0.4582(6) 0.2862(5)
H69 H 0.7922 0.4969 0.2760
H70 H 0.8594 0.4219 0.2654
C99 C 0.8132(7) 0.4295(6) 0.3355(4)
H71 H 0.7890 0.4668 0.3559
H72 H 0.8613 0.3935 0.3467
C100 C 0.7526(8) 0.3985(7) 0.3397(5)
H73 H 0.7718 0.3670 0.3156
H74 H 0.6999 0.4355 0.3353
C101 C 0.7439(11) 0.3588(9) 0.3884(5)
H75 H 0.7983 0.3249 0.3925
H76 H 0.7241 0.3918 0.4116
C102 C 0.6905(14) 0.3219(11) 0.3993(6)
H77 H 0.7015 0.2949 0.3737
H78 H 0.6331 0.3544 0.4044
C103 C 0.7107(17) 0.2726(12) 0.4453(7)
H79 H 0.7117 0.2989 0.4677
H80 H 0.7637 0.2349 0.4380
H81 H 0.6694 0.2536 0.4589
C104 C 0.8104(8) 0.5644(7) 0.1191(5)
H82 H 0.7730 0.5953 0.0985
H83 H 0.7799 0.5642 0.1519
C105 C 0.8555(15) 0.4880(11) 0.1041(11)
H84 H 0.8973 0.4877 0.0753
H85 H 0.8829 0.4563 0.1290
C106 C 0.7967(17) 0.4616(15) 0.0954(13)
H86 H 0.7579 0.4991 0.0779
H87 H 0.7658 0.4480 0.1256
C107 C 0.8444(17) 0.3978(16) 0.0666(13)
H88 H 0.8724 0.4116 0.0354
H89 H 0.8854 0.3608 0.0830
C108 C 0.7836(18) 0.3723(14) 0.0621(11)
H90 H 0.7533 0.3620 0.0936
H91 H 0.8123 0.3291 0.0472
C109 C 0.724(2) 0.4269(19) 0.0326(13)
H92 H 0.6739 0.4623 0.0549
H93 H 0.7010 0.4013 0.0163
H94 H 0.7543 0.4551 0.0060
O13 O 0.8028(9) 0.9899(7) 0.6340(5)
N5 N 0.7334(8) 0.9201(8) 0.6460(4)
C110 C 0.7701(15) 0.9645(10) 0.6236(8)
H95 H 0.7670 0.9767 0.5916
C111 C 0.6985(14) 0.8868(10) 0.6259(6)
H96 H 0.7374 0.8397 0.6207
H97 H 0.6857 0.9132 0.5961
H98 H 0.6491 0.8852 0.6474
C112 C 0.7407(9) 0.8970(7) 0.6948(4)
H99 H 0.7687 0.9203 0.7034
H100 H 0.7715 0.8469 0.6986
H101 H 0.6867 0.9082 0.7149
O14 O 0.7692(8) 0.5136(6) 0.4570(5)
N6 N 0.8984(8) 0.4637(6) 0.4675(4)
C113 C 0.8402(11) 0.4730(8) 0.4469(5)
H102 H 0.8543 0.4460 0.4224
C114 C 0.8871(12) 0.5013(11) 0.5033(7)
H103 H 0.8320 0.5130 0.5220
H104 H 0.8957 0.5438 0.4897
H105 H 0.9258 0.4732 0.5233
C115 C 0.9782(9) 0.4177(8) 0.4550(5)
H106 H 1.0132 0.4434 0.4430
H107 H 0.9829 0.3916 0.4308
H108 H 0.9947 0.3857 0.4825
O15 O 0.0209(8) 0.2191(6) 0.8589(5)
N7 N 0.0115(9) 0.2841(8) 0.7804(7)
C116 C -0.0070(12) 0.2424(11) 0.8178(9)
H109 H -0.0456 0.2262 0.8158
C117 C -0.0347(15) 0.3184(17) 0.7340(13)
H110 H -0.0824 0.3607 0.7415
H111 H -0.0514 0.2849 0.7271
H112 H 0.0030 0.3293 0.7067
C118 C 0.0751(8) 0.3027(8) 0.7825(7)
H113 H 0.1190 0.2892 0.7550
H114 H 0.0956 0.2787 0.8109
H115 H 0.0542 0.3527 0.7829
O16 O 0.6532(6) 0.0836(5) 0.4102(4)
N8 N 0.6897(6) 0.0757(6) 0.3336(4)
C119 C 0.6515(8) 0.1110(8) 0.3703(5)
H116 H 0.6219 0.1595 0.3652
C120 C 0.7398(8) 0.0011(7) 0.3381(5)
H117 H 0.7096 -0.0244 0.3348
H118 H 0.7539 -0.0133 0.3689
H119 H 0.7893 -0.0087 0.3138
C121 C 0.6839(9) 0.1120(8) 0.2855(4)
H120 H 0.7358 0.1148 0.2692
H121 H 0.6417 0.1587 0.2873
H122 H 0.6705 0.0863 0.2683
O17 O 0.8873(11) 0.0989(10) 0.2550(7)
N9 N 0.8539(7) 0.1080(6) 0.3317(4)
C122 C 0.8961(12) 0.0584(11) 0.2954(7)
H123 H 0.9228 0.0096 0.3001
C123 C 0.8100(15) 0.1813(9) 0.3184(8)
H124 H 0.7526 0.1910 0.3227
H125 H 0.8316 0.1937 0.2855
H126 H 0.8163 0.2086 0.3379
C124 C 0.8567(12) 0.0781(10) 0.3787(6)
H127 H 0.9107 0.0652 0.3839
H128 H 0.8445 0.0368 0.3846
H129 H 0.8167 0.1116 0.3998
O18 O 0.6775(6) 0.6030(6) 0.2300(4)
N10 N 0.5576(7) 0.5898(6) 0.2509(4)
C125 C 0.6358(9) 0.5689(9) 0.2399(5)
H130 H 0.6648 0.5205 0.2395
C126 C 0.5096(9) 0.6627(8) 0.2487(7)
H131 H 0.5439 0.6879 0.2322
H132 H 0.4854 0.6757 0.2805
H133 H 0.4667 0.6742 0.2320
C127 C 0.5150(8) 0.5422(8) 0.2649(6)
H134 H 0.5530 0.4954 0.2733
H135 H 0.4932 0.5422 0.2389
H136 H 0.4707 0.5575 0.2919
O19 O 0.362(2) 0.708(2) 0.9232(13)
N11 N 0.3473(11) 0.7899(9) 0.8653(6)
C128 C 0.3062(18) 0.7530(16) 0.9025(10)
H137 H 0.2506 0.7609 0.9099
C129 C 0.4341(12) 0.7534(13) 0.8532(9)
H138 H 0.4542 0.7280 0.8815
H139 H 0.4592 0.7866 0.8389
H140 H 0.4476 0.7209 0.8311
C130 C 0.3051(12) 0.8525(10) 0.8393(7)
H141 H 0.3186 0.8456 0.8063
H142 H 0.3209 0.8888 0.8424
H143 H 0.2468 0.8661 0.8513
O20 O 0.2214(10) 0.1997(9) 0.1204(6)
N12 N 0.1333(13) 0.3135(10) 0.0743(8)
C131 C 0.189(2) 0.2527(13) 0.0967(14)
H144 H 0.2370 0.2596 0.0803
C132 C 0.0948(17) 0.3770(12) 0.0952(10)
H145 H 0.0365 0.3885 0.1053
H146 H 0.1044 0.4142 0.0723
H147 H 0.1172 0.3715 0.1223
C133 C 0.098(3) 0.2854(18) 0.0527(15)
H148 H 0.1288 0.2774 0.0208
H149 H 0.0420 0.3177 0.0518
H150 H 0.0977 0.2415 0.0706
O21 O 0.5511(4) 0.0482(4) 0.2182(2)
O22 O 0.5135(4) -0.0549(5) 0.2112(3)
O23 O 0.2789(4) -0.1057(3) 0.2422(2)
O24 O 0.3759(4) -0.1975(4) 0.3015(3)
O25 O 0.0685(4) -0.0507(4) 0.3754(2)
O26 O 0.1202(4) -0.0299(3) 0.2804(2)
O27 O -0.0328(4) 0.1941(4) 0.3319(3)
O28 O 0.0047(4) 0.2972(4) 0.3398(3)
O29 O 0.2365(4) 0.3514(3) 0.2986(2)
O30 O 0.1869(5) 0.3544(4) 0.3947(3)
O31 O 0.4944(5) 0.1990(4) 0.3271(3)
O32 O 0.3969(4) 0.2767(4) 0.2637(2)
N13 N 0.5571(5) 0.0106(6) 0.2971(4)
N14 N 0.5129(5) -0.0952(5) 0.2890(3)
N15 N -0.0016(6) 0.1383(5) 0.4026(4)
N16 N 0.0432(6) 0.2450(5) 0.4090(4)
C5 C 0.4084(18) 0.373(2) 0.0469(11)
H3 H 0.4066 0.4163 0.0268
H4 H 0.4458 0.3629 0.0676
C134 C 0.4480(7) 0.0659(6) 0.1562(4)
H151 H 0.5061 0.0341 0.1542
C135 C 0.4005(7) 0.0245(6) 0.1801(4)
C136 C 0.3190(6) 0.0450(6) 0.1756(4)
H152 H 0.2927 0.0876 0.1583
C137 C 0.2794(6) 0.0015(5) 0.1970(3)
C138 C 0.1919(6) 0.0218(6) 0.1924(4)
H153 H 0.1810 -0.0212 0.2004
C139 C 0.1324(6) 0.0719(5) 0.2299(3)
C140 C 0.1085(6) 0.1399(5) 0.2233(4)
H154 H 0.1294 0.1597 0.1938
C141 C 0.0553(6) 0.1849(6) 0.2558(4)
C142 C 0.0289(7) 0.2624(6) 0.2492(4)
H155 H -0.0241 0.2814 0.2713
C143 C 0.0882(7) 0.2829(6) 0.2632(4)
C144 C 0.1573(6) 0.2854(6) 0.2306(4)
H156 H 0.1694 0.2718 0.2005
C145 C 0.2084(6) 0.3080(6) 0.2426(4)
C146 C 0.2838(6) 0.3096(6) 0.2073(4)
H157 H 0.2999 0.3420 0.2174
C147 C 0.3513(6) 0.2405(6) 0.2102(4)
C148 C 0.3666(7) 0.1878(6) 0.1841(4)
H158 H 0.3302 0.1958 0.1650
C149 C 0.4318(7) 0.1252(6) 0.1849(4)
C150 C 0.4815(6) 0.1100(6) 0.2161(4)
C151 C 0.5416(7) 0.0022(7) 0.2555(5)
C152 C 0.5462(7) -0.0404(8) 0.3347(5)
C153 C 0.5662(8) -0.0348(7) 0.3776(5)
H159 H 0.5808 0.0010 0.3804
C154 C 0.5615(7) -0.0858(8) 0.4124(6)
H160 H 0.5748 -0.0864 0.4407
C155 C 0.5400(7) -0.1338(8) 0.4094(5)
H161 H 0.5360 -0.1666 0.4359
C156 C 0.5228(6) -0.1388(7) 0.3693(4)
H162 H 0.5073 -0.1746 0.3675
C157 C 0.5285(6) -0.0923(7) 0.3331(5)
C158 C 0.5223(6) -0.0531(5) 0.2574(3)
C159 C 0.4302(6) -0.0349(5) 0.2070(3)
C160 C 0.3955(6) -0.0792(5) 0.2288(3)
H163 H 0.4221 -0.1207 0.2469
C161 C 0.3143(6) -0.0592(5) 0.2226(3)
C162 C 0.2493(6) -0.1093(5) 0.2897(3)
C163 C 0.3068(7) -0.1615(6) 0.3188(4)
C164 C 0.2715(6) -0.1686(5) 0.3697(4)
C165 C 0.3207(7) -0.2189(5) 0.4052(4)
H164 H 0.3786 -0.2458 0.3912
C166 C 0.3086(9) -0.1705(6) 0.4404(4)
C167 C 0.3697(8) -0.1665(6) 0.4530(4)
H165 H 0.4245 -0.1935 0.4406
C168 C 0.3478(10) -0.1186(7) 0.4869(5)
H166 H 0.3877 -0.1132 0.4975
C169 C 0.2668(12) -0.0819(7) 0.5025(5)
H167 H 0.2518 -0.0492 0.5235
C170 C 0.2074(11) -0.0889(7) 0.4904(5)
H168 H 0.1523 -0.0644 0.5039
C171 C 0.2293(9) -0.1333(6) 0.4573(4)
C172 C 0.1715(8) -0.1468(6) 0.4393(4)
H169 H 0.1139 -0.1183 0.4525
C173 C 0.1914(8) -0.2230(6) 0.4502(4)
C174 C 0.1471(8) -0.2566(7) 0.4743(5)
H170 H 0.0925 -0.2310 0.4881
C175 C 0.1741(8) -0.3234(8) 0.4804(5)
H171 H 0.1384 -0.3449 0.4982
C176 C 0.2507(11) -0.3634(7) 0.4625(6)
H172 H 0.2688 -0.4123 0.4672
C177 C 0.3015(8) -0.3327(6) 0.4378(5)
H173 H 0.3561 -0.3602 0.4254
C178 C 0.2748(8) -0.2626(6) 0.4306(4)
C179 C 0.1949(7) -0.1299(6) 0.3871(4)
C180 C 0.1390(6) -0.0805(5) 0.3594(3)
C181 C 0.1730(6) -0.0709(5) 0.3075(3)
C182 C 0.1030(6) 0.0389(6) 0.2727(4)
C183 C 0.0478(6) 0.0825(5) 0.3069(4)
H174 H 0.0267 0.0630 0.3364
C184 C 0.0250(7) 0.1518(6) 0.2976(4)
C185 C -0.0063(7) 0.1912(6) 0.3703(4)
C186 C 0.0253(8) 0.1366(6) 0.4399(5)
C187 C 0.0294(9) 0.0835(6) 0.4765(4)
H175 H 0.0150 0.0471 0.4747
C188 C 0.0536(10) 0.0837(7) 0.5140(5)
H176 H 0.0534 0.0486 0.5395
C189 C 0.0791(8) 0.1340(8) 0.5168(4)
H177 H 0.0988 0.1310 0.5434
C190 C 0.0766(7) 0.1880(6) 0.4823(5)
H178 H 0.0924 0.2232 0.4846
C191 C 0.0483(7) 0.1884(7) 0.4419(5)
C192 C 0.0183(6) 0.2436(6) 0.3748(4)
C193 C 0.0760(7) 0.2983(6) 0.3072(4)
C194 C 0.1237(6) 0.3197(5) 0.3199(4)
H179 H 0.1112 0.3324 0.3503
C195 C 0.1917(7) 0.3230(6) 0.2878(4)
C196 C 0.2890(6) 0.3102(6) 0.3283(4)
C197 C 0.2545(7) 0.3134(6) 0.3796(4)
C198 C 0.3122(7) 0.2679(6) 0.4102(4)
C199 C 0.2887(9) 0.2636(6) 0.4633(4)
H180 H 0.2315 0.2948 0.4750
C200 C 0.3068(8) 0.1858(6) 0.4824(4)
C201 C 0.2585(10) 0.1563(8) 0.5126(4)
H181 H 0.2045 0.1832 0.5264
C202 C 0.2913(12) 0.0852(8) 0.5223(5)
H182 H 0.2585 0.0638 0.5440
C203 C 0.3672(11) 0.0440(8) 0.5030(6)
H183 H 0.3858 -0.0047 0.5101
C204 C 0.4169(9) 0.0737(7) 0.4730(5)
H184 H 0.4706 0.0459 0.4592
C205 C 0.3882(9) 0.1432(7) 0.4633(4)
C206 C 0.4350(7) 0.1832(6) 0.4304(4)
H185 H 0.4914 0.1529 0.4165
C207 C 0.4312(10) 0.2392(7) 0.4571(5)
C208 C 0.4937(10) 0.2502(8) 0.4653(5)
H186 H 0.5483 0.2213 0.4539
C209 C 0.4762(12) 0.3016(9) 0.4893(5)
H187 H 0.5189 0.3103 0.4941
C210 C 0.3976(18) 0.3423(9) 0.5073(6)
H188 H 0.3882 0.3784 0.5242
C211 C 0.3307(11) 0.3338(7) 0.5022(5)
H189 H 0.2765 0.3611 0.5156
C212 C 0.3512(10) 0.2825(6) 0.4763(4)
C213 C 0.4226(7) 0.2289(6) 0.3423(4)
C214 C 0.3648(6) 0.2716(6) 0.3109(4)
C215 C 0.4060(6) 0.2228(5) 0.2403(4)
C216 C 0.4694(7) 0.1605(6) 0.2422(4)
H190 H 0.5057 0.1515 0.2616
C217 C 0.4385(8) 0.0989(7) 0.1048(4)
H191 H 0.4459 0.0626 0.0869
H192 H 0.3830 0.1344 0.1057
C218 C 0.4947(8) 0.1301(9) 0.0811(5)
H193 H 0.4797 0.1727 0.0949
H194 H 0.4904 0.1437 0.0479
C219 C 0.5876(9) 0.0804(9) 0.0834(5)
H195 H 0.5945 0.0742 0.1158
H196 H 0.5997 0.0344 0.0753
C220 C 0.6479(8) 0.1087(9) 0.0506(5)
H197 H 0.6423 0.1133 0.0181
H198 H 0.6344 0.1555 0.0580
C221 C 0.7346(8) 0.0639(7) 0.0538(5)
H199 H 0.7467 0.0170 0.0473
H200 H 0.7394 0.0601 0.0863
C222 C 0.8006(9) 0.0886(10) 0.0206(5)
H201 H 0.7980 0.0914 -0.0119
H202 H 0.8542 0.0556 0.0256
H203 H 0.7911 0.1342 0.0273
C223 C 0.3859(7) 0.2278(6) 0.3935(4)
C224 C 0.1766(7) 0.0529(6) 0.1434(4)
H204 H 0.1182 0.0705 0.1438
H205 H 0.1943 0.0918 0.1322
C225 C 0.2242(8) -0.0036(7) 0.1112(4)
H206 H 0.2072 -0.0427 0.1239
H207 H 0.2822 -0.0206 0.1116
C226 C 0.2141(9) 0.0191(8) 0.0601(5)
H208 H 0.1559 0.0416 0.0594
H209 H 0.2384 -0.0221 0.0431
C227 C 0.2556(12) 0.0702(11) 0.0353(8)
H210 H 0.2391 0.0915 0.0052
H211 H 0.2381 0.1075 0.0550
C228 C 0.3489(14) 0.0314(14) 0.0268(10)
H212 H 0.3661 -0.0116 0.0129
H213 H 0.3672 0.0192 0.0566
C229 C 0.3859(17) 0.0814(17) -0.0075(11)
H214 H 0.4162 0.0611 -0.0366
H215 H 0.4223 0.0885 0.0069
H216 H 0.3423 0.1259 -0.0141
C230 C 0.0139(7) 0.2951(6) 0.1988(4)
H217 H -0.0024 0.3457 0.1965
H218 H 0.0653 0.2766 0.1760
C231 C -0.0486(8) 0.2818(8) 0.1862(5)
H219 H -0.0463 0.2962 0.1524
H220 H -0.0345 0.2314 0.1916
C232 C -0.1297(9) 0.3152(8) 0.2104(6)
H221 H -0.1442 0.3657 0.2043
H222 H -0.1316 0.3019 0.2443
C233 C -0.1931(8) 0.3004(10) 0.1985(6)
H223 H -0.1907 0.3129 0.1645
H224 H -0.1795 0.2500 0.2053
C234 C -0.2775(8) 0.3369(10) 0.2235(7)
H225 H -0.2922 0.3873 0.2154
H226 H -0.2795 0.3262 0.2575
C235 C -0.3431(10) 0.3182(13) 0.2124(7)
H227 H -0.3359 0.3212 0.1785
H228 H -0.3973 0.3508 0.2252
H229 H -0.3368 0.2712 0.2266
C236 C 0.2663(7) 0.3401(7) 0.1586(4)
H230 H 0.2167 0.3830 0.1606
H231 H 0.2579 0.3068 0.1449
C237 C 0.3391(9) 0.3558(8) 0.1277(4)
H232 H 0.3482 0.3881 0.1420
H233 H 0.3883 0.3126 0.1254
C238 C 0.3227(12) 0.3880(10) 0.0787(5)
H234 H 0.2902 0.4383 0.0779
H235 H 0.2937 0.3663 0.0687
C239 C 0.424(5) 0.254(3) 0.027(3)
H236 H 0.4032 0.2478 0.0610
H237 H 0.4723 0.2127 0.0183
H238 H 0.3831 0.2616 0.0105
C240 C 0.447(3) 0.316(3) 0.0154(17)
H239 H 0.5064 0.2984 0.0127
H240 H 0.4367 0.3379 -0.0160
C241? C 0.245(2) 0.2218(18) 0.0803(12)
C242? C 0.2295(19) 0.2676(17) 0.0002(11)
C243? C 0.130(3) 0.220(3) 0.0571(18)
C244? C 0.332(3) 0.3268(17) 0.0558(11)
C245? C 0.329(4) 0.351(2) 0.0040(13)
C246? C 0.373(5) 0.285(3) -0.021(2)
C247? C 0.7423(14) 0.5991(17) 0.0911(10)
C248? C 0.6662(17) 0.585(2) 0.1193(12)
C249? C 0.604(2) 0.606(2) 0.0904(13)
C250? C 0.5410(19) 0.575(2) 0.1158(11)
C251? C 0.492(2) 0.597(2) 0.0760(14)
H241? H 0.8358 0.5151 0.1140
H242? H 0.7830 0.5660 0.1525
H243? H 0.3023 0.2039 0.0730
H244? H 0.2825 0.2681 -0.0024
H245? H 0.1902 0.3150 -0.0048
H246? H 0.2332 0.2409 -0.0234
H247? H 0.1438 0.1767 0.0450
H248? H 0.0892 0.2578 0.0413
H249? H 0.1073 0.2159 0.0907
H250? H 0.3623 0.4080 0.0607
H251? H 0.2676 0.4245 0.0806
H252? H 0.3836 0.2877 0.0587
H253? H 0.2873 0.3111 0.0716
H254? H 0.3562 0.3834 -0.0090
H255? H 0.2719 0.3751 0.0001
H256? H 0.3561 0.2932 -0.0505
H257? H 0.3588 0.2471 -0.0009
H258? H 0.4313 0.2712 -0.0268
H259? H 0.6824 0.5356 0.1308
H260? H 0.6420 0.6114 0.1468
H261? H 0.5071 0.5959 0.1447
H262? H 0.5665 0.5240 0.1231
H263? H 0.6306 0.5899 0.0594
H264? H 0.5770 0.6574 0.0858
H265? H 0.7611 0.5804 0.0608
H266? H 0.7286 0.6495 0.0849
H267? H 0.4347 0.6384 0.0858
H268? H 0.4825 0.5531 0.0711
H269? H 0.5262 0.6136 0.0439
N17? N 0.2028(15) 0.2349(12) 0.0482(9)
O33? O 0.2020(11) 0.2352(11) 0.1244(6)
loop_
_geom_bond_atom_site_label_1
_geom_bond_atom_site_label_2
_geom_bond_site_symmetry_1
_geom_bond_site_symmetry_2
O1 C19 1_555 1_555
O2 C27 1_555 1_555
O3 C30 1_555 1_555
O4 C32 1_555 1_555
O5 C49 1_555 1_555
O6 C50 1_555 1_555
O7 C54 1_555 1_555
O8 C62 1_555 1_555
O9 C65 1_555 1_555
O10 C67 1_555 1_555
O11 C84 1_555 1_555
O12 C17 1_555 1_555
O13 C110 1_555 1_555
O14 C113 1_555 1_555
O15 C116 1_555 1_555
O16 C119 1_555 1_555
O17 C122 1_555 1_555
O18 C125 1_555 1_555
O19 C128 1_555 1_555
O20 C131 1_555 1_555
O21 C150 1_555 1_555
O22 C158 1_555 1_555
O23 C161 1_555 1_555
O24 C163 1_555 1_555
O25 C180 1_555 1_555
O26 C181 1_555 1_555
O27 C184 1_555 1_555
O28 C192 1_555 1_555
O29 C195 1_555 1_555
O30 C197 1_555 1_555
O31 C213 1_555 1_555
O32 C214 1_555 1_555
N1 C20 1_555 1_555
N2 C26 1_555 1_555
N3 C55 1_555 1_555
N4 C61 1_555 1_555
N5 C110 1_555 1_555
N6 C113 1_555 1_555
N7 C116 1_555 1_555
N8 C119 1_555 1_555
N9 C122 1_555 1_555
N10 C125 1_555 1_555
N11 C128 1_555 1_555
N12 C131 1_555 1_555
N13 C151 1_555 1_555
N14 C157 1_555 1_555
N15 C185 1_555 1_555
N16 C191 1_555 1_555
C1 H1 1_555 1_555
C2 C1 1_555 1_555
C3 C2 1_555 1_555
H2 C3 1_555 1_555
C4 C3 1_555 1_555
C5 H3 1_555 1_555
H4 C5 1_555 1_555
C6 C4 1_555 1_555
H5 C6 1_555 1_555
C7 C6 1_555 1_555
C8 C7 1_555 1_555
H6 C8 1_555 1_555
C9 H7 1_555 1_555
C10 C9 1_555 1_555
C11 C10 1_555 1_555
H8 C11 1_555 1_555
C12 C11 1_555 1_555
C13 C12 1_555 1_555
H9 C13 1_555 1_555
C14 C13 1_555 1_555
C15 C14 1_555 1_555
H10 C15 1_555 1_555
C16 C1 1_555 1_555
C17 C16 1_555 1_555
C18 C17 1_555 1_555
H11 C18 1_555 1_555
C19 C14 1_555 1_555
C20 O1 1_555 1_555
C21 N1 1_555 1_555
C22 C21 1_555 1_555
H12 C22 1_555 1_555
C23 C22 1_555 1_555
H13 C23 1_555 1_555
C24 C23 1_555 1_555
H14 C24 1_555 1_555
C25 C24 1_555 1_555
H15 C25 1_555 1_555
C26 C21 1_555 1_555
C27 N2 1_555 1_555
C28 O2 1_555 1_555
C29 C28 1_555 1_555
H16 C29 1_555 1_555
C30 C10 1_555 1_555
C31 O3 1_555 1_555
C32 C31 1_555 1_555
C33 C32 1_555 1_555
C34 C33 1_555 1_555
H17 C34 1_555 1_555
C35 C34 1_555 1_555
C36 C35 1_555 1_555
H18 C36 1_555 1_555
C37 C36 1_555 1_555
H19 C37 1_555 1_555
C38 C37 1_555 1_555
H20 C38 1_555 1_555
C39 C38 1_555 1_555
H21 C39 1_555 1_555
C40 C35 1_555 1_555
C41 C40 1_555 1_555
H22 C41 1_555 1_555
C42 C41 1_555 1_555
C43 C42 1_555 1_555
H23 C43 1_555 1_555
C44 C43 1_555 1_555
H24 C44 1_555 1_555
C45 C44 1_555 1_555
H25 C45 1_555 1_555
C46 C45 1_555 1_555
H26 C46 1_555 1_555
C47 C34 1_555 1_555
C48 C33 1_555 1_555
C49 C48 1_555 1_555
C50 C31 1_555 1_555
C51 O6 1_555 1_555
C52 C8 1_555 1_555
C53 C51 1_555 1_555
H27 C53 1_555 1_555
C54 C7 1_555 1_555
C55 O7 1_555 1_555
C56 N3 1_555 1_555
C57 C56 1_555 1_555
H28 C57 1_555 1_555
C58 C57 1_555 1_555
H29 C58 1_555 1_555
C59 C58 1_555 1_555
H30 C59 1_555 1_555
C60 C59 1_555 1_555
H31 C60 1_555 1_555
C61 C56 1_555 1_555
C62 N4 1_555 1_555
C63 O8 1_555 1_555
C64 C63 1_555 1_555
H32 C64 1_555 1_555
C65 C2 1_555 1_555
C66 O9 1_555 1_555
C67 C66 1_555 1_555
C68 C67 1_555 1_555
C69 C68 1_555 1_555
H33 C69 1_555 1_555
C70 C69 1_555 1_555
C71 C70 1_555 1_555
H34 C71 1_555 1_555
C72 C71 1_555 1_555
H35 C72 1_555 1_555
C73 C72 1_555 1_555
H36 C73 1_555 1_555
C74 C73 1_555 1_555
H37 C74 1_555 1_555
C75 C70 1_555 1_555
C76 C75 1_555 1_555
H38 C76 1_555 1_555
C77 C76 1_555 1_555
C78 C77 1_555 1_555
H39 C78 1_555 1_555
C79 C78 1_555 1_555
H40 C79 1_555 1_555
C80 C79 1_555 1_555
H41 C80 1_555 1_555
C81 C80 1_555 1_555
H42 C81 1_555 1_555
C82 C69 1_555 1_555
C83 C68 1_555 1_555
C84 C83 1_555 1_555
C85 O12 1_555 1_555
C86 C1 1_555 1_555
H43 C86 1_555 1_555
H44 C86 1_555 1_555
C87 C86 1_555 1_555
H45 C87 1_555 1_555
H46 C87 1_555 1_555
C88 C87 1_555 1_555
H47 C88 1_555 1_555
H48 C88 1_555 1_555
C89 C88 1_555 1_555
H49 C89 1_555 1_555
H50 C89 1_555 1_555
C90 C89 1_555 1_555
H51 C90 1_555 1_555
H52 C90 1_555 1_555
C91 C90 1_555 1_555
H53 C91 1_555 1_555
H54 C91 1_555 1_555
H55 C91 1_555 1_555
C92 C6 1_555 1_555
H56 C92 1_555 1_555
H57 C92 1_555 1_555
C93 C92 1_555 1_555
H58 C93 1_555 1_555
H59 C93 1_555 1_555
C94 C93 1_555 1_555
H60 C94 1_555 1_555
H61 C94 1_555 1_555
C95 C94 1_555 1_555
H62 C95 1_555 1_555
H63 C95 1_555 1_555
C96 C95 1_555 1_555
H64 C96 1_555 1_555
H65 C96 1_555 1_555
C97 C96 1_555 1_555
H66 C97 1_555 1_555
H67 C97 1_555 1_555
H68 C97 1_555 1_555
C98 C9 1_555 1_555
H69 C98 1_555 1_555
H70 C98 1_555 1_555
C99 C98 1_555 1_555
H71 C99 1_555 1_555
H72 C99 1_555 1_555
C100 C99 1_555 1_555
H73 C100 1_555 1_555
H74 C100 1_555 1_555
C101 C100 1_555 1_555
H75 C101 1_555 1_555
H76 C101 1_555 1_555
C102 C101 1_555 1_555
H77 C102 1_555 1_555
H78 C102 1_555 1_555
C103 C102 1_555 1_555
H79 C103 1_555 1_555
H80 C103 1_555 1_555
H81 C103 1_555 1_555
C104 C13 1_555 1_555
H82 C104 1_555 1_555
H83 C104 1_555 1_555
C105 C104 1_555 1_555
H84 C105 1_555 1_555
H85 C105 1_555 1_555
C106 C105 1_555 1_555
H86 C106 1_555 1_555
H87 C106 1_555 1_555
C107 C106 1_555 1_555
H88 C107 1_555 1_555
H89 C107 1_555 1_555
C108 C107 1_555 1_555
H90 C108 1_555 1_555
H91 C108 1_555 1_555
C109 C108 1_555 1_555
H92 C109 1_555 1_555
H93 C109 1_555 1_555
H94 C109 1_555 1_555
C110 H95 1_555 1_555
C111 N5 1_555 1_555
H96 C111 1_555 1_555
H97 C111 1_555 1_555
H98 C111 1_555 1_555
C112 N5 1_555 1_555
H99 C112 1_555 1_555
H100 C112 1_555 1_555
H101 C112 1_555 1_555
C113 H102 1_555 1_555
C114 N6 1_555 1_555
H103 C114 1_555 1_555
H104 C114 1_555 1_555
H105 C114 1_555 1_555
C115 N6 1_555 1_555
H106 C115 1_555 1_555
H107 C115 1_555 1_555
H108 C115 1_555 1_555
C116 H109 1_555 1_555
C117 N7 1_555 1_555
H110 C117 1_555 1_555
H111 C117 1_555 1_555
H112 C117 1_555 1_555
C118 N7 1_555 1_555
H113 C118 1_555 1_555
H114 C118 1_555 1_555
H115 C118 1_555 1_555
C119 H116 1_555 1_555
C120 N8 1_555 1_555
H117 C120 1_555 1_555
H118 C120 1_555 1_555
H119 C120 1_555 1_555
C121 N8 1_555 1_555
H120 C121 1_555 1_555
H121 C121 1_555 1_555
H122 C121 1_555 1_555
C122 H123 1_555 1_555
C123 N9 1_555 1_555
H124 C123 1_555 1_555
H125 C123 1_555 1_555
H126 C123 1_555 1_555
C124 N9 1_555 1_555
H127 C124 1_555 1_555
H128 C124 1_555 1_555
H129 C124 1_555 1_555
C125 H130 1_555 1_555
C126 N10 1_555 1_555
H131 C126 1_555 1_555
H132 C126 1_555 1_555
H133 C126 1_555 1_555
C127 N10 1_555 1_555
H134 C127 1_555 1_555
H135 C127 1_555 1_555
H136 C127 1_555 1_555
C128 H137 1_555 1_555
C129 N11 1_555 1_555
H138 C129 1_555 1_555
H139 C129 1_555 1_555
H140 C129 1_555 1_555
C130 N11 1_555 1_555
H141 C130 1_555 1_555
H142 C130 1_555 1_555
H143 C130 1_555 1_555
C131 H144 1_555 1_555
C132 N12 1_555 1_555
H145 C132 1_555 1_555
H146 C132 1_555 1_555
H147 C132 1_555 1_555
C133 N12 1_555 1_555
H148 C133 1_555 1_555
H149 C133 1_555 1_555
H150 C133 1_555 1_555
C134 H151 1_555 1_555
C135 C134 1_555 1_555
C136 C135 1_555 1_555
H152 C136 1_555 1_555
C137 C136 1_555 1_555
C138 C137 1_555 1_555
H153 C138 1_555 1_555
C139 C138 1_555 1_555
C140 C139 1_555 1_555
H154 C140 1_555 1_555
C141 C140 1_555 1_555
C142 C141 1_555 1_555
H155 C142 1_555 1_555
C143 C142 1_555 1_555
C144 C143 1_555 1_555
H156 C144 1_555 1_555
C145 C144 1_555 1_555
C146 C145 1_555 1_555
H157 C146 1_555 1_555
C147 C146 1_555 1_555
C148 C147 1_555 1_555
H158 C148 1_555 1_555
C149 C134 1_555 1_555
C150 C149 1_555 1_555
C151 O21 1_555 1_555
C152 N13 1_555 1_555
C153 C152 1_555 1_555
H159 C153 1_555 1_555
C154 C153 1_555 1_555
H160 C154 1_555 1_555
C155 C154 1_555 1_555
H161 C155 1_555 1_555
C156 C155 1_555 1_555
H162 C156 1_555 1_555
C157 C152 1_555 1_555
C158 N14 1_555 1_555
C159 O22 1_555 1_555
C160 C159 1_555 1_555
H163 C160 1_555 1_555
C161 C137 1_555 1_555
C162 O23 1_555 1_555
C163 C162 1_555 1_555
C164 C163 1_555 1_555
C165 C164 1_555 1_555
H164 C165 1_555 1_555
C166 C165 1_555 1_555
C167 C166 1_555 1_555
H165 C167 1_555 1_555
C168 C167 1_555 1_555
H166 C168 1_555 1_555
C169 C168 1_555 1_555
H167 C169 1_555 1_555
C170 C169 1_555 1_555
H168 C170 1_555 1_555
C171 C166 1_555 1_555
C172 C171 1_555 1_555
H169 C172 1_555 1_555
C173 C172 1_555 1_555
C174 C173 1_555 1_555
H170 C174 1_555 1_555
C175 C174 1_555 1_555
H171 C175 1_555 1_555
C176 C175 1_555 1_555
H172 C176 1_555 1_555
C177 C176 1_555 1_555
H173 C177 1_555 1_555
C178 C165 1_555 1_555
C179 C164 1_555 1_555
C180 C179 1_555 1_555
C181 C162 1_555 1_555
C182 O26 1_555 1_555
C183 C182 1_555 1_555
H174 C183 1_555 1_555
C184 C141 1_555 1_555
C185 O27 1_555 1_555
C186 N15 1_555 1_555
C187 C186 1_555 1_555
H175 C187 1_555 1_555
C188 C187 1_555 1_555
H176 C188 1_555 1_555
C189 C188 1_555 1_555
H177 C189 1_555 1_555
C190 C189 1_555 1_555
H178 C190 1_555 1_555
C191 C186 1_555 1_555
C192 N16 1_555 1_555
C193 O28 1_555 1_555
C194 C193 1_555 1_555
H179 C194 1_555 1_555
C195 C145 1_555 1_555
C196 O29 1_555 1_555
C197 C196 1_555 1_555
C198 C197 1_555 1_555
C199 C198 1_555 1_555
H180 C199 1_555 1_555
C200 C199 1_555 1_555
C201 C200 1_555 1_555
H181 C201 1_555 1_555
C202 C201 1_555 1_555
H182 C202 1_555 1_555
C203 C202 1_555 1_555
H183 C203 1_555 1_555
C204 C203 1_555 1_555
H184 C204 1_555 1_555
C205 C200 1_555 1_555
C206 C205 1_555 1_555
H185 C206 1_555 1_555
C207 C206 1_555 1_555
C208 C207 1_555 1_555
H186 C208 1_555 1_555
C209 C208 1_555 1_555
H187 C209 1_555 1_555
C210 C209 1_555 1_555
H188 C210 1_555 1_555
C211 C210 1_555 1_555
H189 C211 1_555 1_555
C212 C199 1_555 1_555
C213 C214 1_555 1_555
C214 C196 1_555 1_555
C215 O32 1_555 1_555
C216 C150 1_555 1_555
H190 C216 1_555 1_555
C217 C134 1_555 1_555
H191 C217 1_555 1_555
H192 C217 1_555 1_555
C218 C217 1_555 1_555
H193 C218 1_555 1_555
H194 C218 1_555 1_555
C219 C218 1_555 1_555
H195 C219 1_555 1_555
H196 C219 1_555 1_555
C220 C219 1_555 1_555
H197 C220 1_555 1_555
H198 C220 1_555 1_555
C221 C220 1_555 1_555
H199 C221 1_555 1_555
H200 C221 1_555 1_555
C222 C221 1_555 1_555
H201 C222 1_555 1_555
H202 C222 1_555 1_555
H203 C222 1_555 1_555
C223 C198 1_555 1_555
C224 C138 1_555 1_555
H204 C224 1_555 1_555
H205 C224 1_555 1_555
C225 C224 1_555 1_555
H206 C225 1_555 1_555
H207 C225 1_555 1_555
C226 C225 1_555 1_555
H208 C226 1_555 1_555
H209 C226 1_555 1_555
C227 C226 1_555 1_555
H210 C227 1_555 1_555
H211 C227 1_555 1_555
C228 C227 1_555 1_555
H212 C228 1_555 1_555
H213 C228 1_555 1_555
C229 C228 1_555 1_555
H214 C229 1_555 1_555
H215 C229 1_555 1_555
H216 C229 1_555 1_555
C230 C142 1_555 1_555
H217 C230 1_555 1_555
H218 C230 1_555 1_555
C231 C230 1_555 1_555
H219 C231 1_555 1_555
H220 C231 1_555 1_555
C232 C231 1_555 1_555
H221 C232 1_555 1_555
H222 C232 1_555 1_555
C233 C232 1_555 1_555
H223 C233 1_555 1_555
H224 C233 1_555 1_555
C234 C233 1_555 1_555
H225 C234 1_555 1_555
H226 C234 1_555 1_555
C235 C234 1_555 1_555
H227 C235 1_555 1_555
H228 C235 1_555 1_555
H229 C235 1_555 1_555
C236 C146 1_555 1_555
H230 C236 1_555 1_555
H231 C236 1_555 1_555
C237 C236 1_555 1_555
H232 C237 1_555 1_555
H233 C237 1_555 1_555
C238 C5 1_555 1_555
H234 C238 1_555 1_555
H235 C238 1_555 1_555
C239 H236 1_555 1_555
H237 C239 1_555 1_555
H238 C239 1_555 1_555
C240 C5 1_555 1_555
H239 C240 1_555 1_555
H240 C240 1_555 1_555
C4 C63 1_555 1_555
C9 C52 1_555 1_555
C12 C28 1_555 1_555
C15 C16 1_555 1_555
C18 C19 1_555 1_555
C20 C27 1_555 1_555
C25 C26 1_555 1_555
C29 C30 1_555 1_555
C39 C40 1_555 1_555
C41 C48 1_555 1_555
C42 C47 1_555 1_555
C46 C47 1_555 1_555
C49 C50 1_555 1_555
C51 C52 1_555 1_555
C53 C54 1_555 1_555
C55 C62 1_555 1_555
C60 C61 1_555 1_555
C64 C65 1_555 1_555
C66 C85 1_555 1_555
C74 C75 1_555 1_555
C76 C83 1_555 1_555
C77 C82 1_555 1_555
C81 C82 1_555 1_555
C84 C85 1_555 1_555
C135 C159 1_555 1_555
C139 C182 1_555 1_555
C143 C193 1_555 1_555
C147 C215 1_555 1_555
C148 C149 1_555 1_555
C151 C158 1_555 1_555
C156 C157 1_555 1_555
C160 C161 1_555 1_555
C170 C171 1_555 1_555
C172 C179 1_555 1_555
C173 C178 1_555 1_555
C177 C178 1_555 1_555
C180 C181 1_555 1_555
C183 C184 1_555 1_555
C185 C192 1_555 1_555
C190 C191 1_555 1_555
C194 C195 1_555 1_555
C204 C205 1_555 1_555
C206 C223 1_555 1_555
C207 C212 1_555 1_555
C211 C212 1_555 1_555
C213 C223 1_555 1_555
C215 C216 1_555 1_555
C237 C238 1_555 1_555
C239 C240 1_555 1_555

#END
