
#######################################################################
#
#                 Cambridge Crystallographic Data Centre
#                                CCDC 
#
#######################################################################
#
# If this CIF has been generated from an entry in the Cambridge 
# Structural Database, then it will include bibliographic, chemical, 
# crystal, experimental, refinement or atomic coordinate data resulting 
# from the CCDC's data processing and validation procedures.
#
#######################################################################

data_PAGQOD
_chemical_formula_moiety         'C34 H56 N2 O2'
_chemical_name_systematic        
1,2-bis(4,6-Di-t-butyl-2-methoxymethylphenyl)diamino-ethane
_symmetry_cell_setting           monoclinic
_symmetry_space_group_name_H-M   'P 21'
_symmetry_Int_Tables_number      4
_space_group_name_Hall           'P 2yb'
loop_
_symmetry_equiv_pos_site_id
_symmetry_equiv_pos_as_xyz
1 x,y,z
2 -x,1/2+y,-z
_cell_length_a                   5.97580(10)
_cell_length_b                   17.4272(2)
_cell_length_c                   15.62220(10)
_cell_angle_alpha                90
_cell_angle_beta                 99.0630(10)
_cell_angle_gamma                90
_cell_volume                     1606.61
_exptl_crystal_colour            colorless
_cell_formula_units_Z            2
loop_
_atom_site_label
_atom_site_type_symbol
_atom_site_fract_x
_atom_site_fract_y
_atom_site_fract_z
O1 O 0.4031(5) 0.2000(2) 0.3303(2)
O2 O 0.1415(5) -0.2279(2) 0.1415(2)
N1 N 0.0226(5) 0.0275(2) 0.1868(2)
N2 N 0.3107(5) -0.0774(2) 0.2951(2)
C1 C -0.0454(6) 0.1058(2) 0.1768(2)
C2 C -0.2302(6) 0.1298(2) 0.1162(2)
C3 C -0.2976(6) 0.2063(3) 0.1186(3)
C4 C -0.1873(7) 0.2605(3) 0.1751(2)
C5 C 0.0072(6) 0.2367(3) 0.2294(3)
C6 C 0.0770(6) 0.1609(3) 0.2304(3)
C7 C 0.2931(7) 0.1373(3) 0.2890(3)
C8 C 0.6118(8) 0.1795(3) 0.3824(3)
C9 C -0.3481(7) 0.0766(3) 0.0443(3)
C10 C -0.5450(8) 0.1175(3) -0.0138(3)
C11 C -0.1761(7) 0.0533(3) -0.0141(3)
C12 C -0.4502(7) 0.0048(3) 0.0791(3)
C13 C -0.2696(6) 0.3433(3) 0.1776(3)
C14 C -0.0897(7) 0.3984(3) 0.1548(3)
C15 C -0.4898(7) 0.3563(3) 0.1151(3)
C16 C -0.3159(8) 0.3626(3) 0.2691(3)
C17 C 0.4515(6) -0.1443(2) 0.3091(3)
C18 C 0.5776(6) -0.1594(2) 0.3923(3)
C19 C 0.7094(6) -0.2252(3) 0.3998(3)
C20 C 0.7295(6) -0.2758(3) 0.3328(3)
C21 C 0.6072(6) -0.2581(3) 0.2534(3)
C22 C 0.4703(6) -0.1935(3) 0.2406(3)
C23 C 0.3398(7) -0.1808(3) 0.1509(2)
C24 C -0.0048(7) -0.2134(3) 0.0623(3)
C25 C 0.8801(7) -0.3469(3) 0.3493(3)
C26 C 0.8078(10) -0.3954(4) 0.4207(5)
C27 C 0.8762(12) -0.3952(4) 0.2678(5)
C28 C 1.1262(7) -0.3224(3) 0.3769(4)
C29 C 0.5748(6) -0.1069(3) 0.4708(3)
C30 C 0.3319(7) -0.0997(3) 0.4926(3)
C31 C 0.7229(6) -0.1373(3) 0.5534(3)
C32 C 0.6669(7) -0.0270(3) 0.4553(3)
C33 C -0.0502(6) -0.0117(2) 0.2609(3)
C34 C 0.0648(6) -0.0883(2) 0.2758(3)
H1 H 0.1019(5) 0.0045(2) 0.1514(2)
H2 H 0.3702(5) -0.0311(2) 0.2980(2)
H3 H -0.4270(6) 0.2222(3) 0.0793(3)
H4 H 0.0932(6) 0.2729(3) 0.2664(3)
H5 H 0.2560(7) 0.1005(3) 0.3330(3)
H6 H 0.3951(7) 0.1112(3) 0.2541(3)
H7 H 0.6839(8) 0.2255(3) 0.4103(3)
H8 H 0.7122(8) 0.1561(3) 0.3458(3)
H9 H 0.5829(8) 0.1427(3) 0.4268(3)
H10 H -0.4884(8) 0.1643(3) -0.0379(3)
H11 H -0.6627(8) 0.1310(3) 0.0207(3)
H12 H -0.6089(8) 0.0833(3) -0.0612(3)
H13 H -0.1110(7) 0.0994(3) -0.0363(3)
H14 H -0.2523(7) 0.0227(3) -0.0628(3)
H15 H -0.0551(7) 0.0228(3) 0.0194(3)
H16 H -0.5601(7) 0.0198(3) 0.1164(3)
H17 H -0.3294(7) -0.0258(3) 0.1126(3)
H18 H -0.5265(7) -0.0258(3) 0.0304(3)
H19 H 0.0523(7) 0.3904(3) 0.1946(3)
H20 H -0.1409(7) 0.4514(3) 0.1598(3)
H21 H -0.0647(7) 0.3888(3) 0.0952(3)
H22 H -0.6063(7) 0.3211(3) 0.1294(3)
H23 H -0.4641(7) 0.3468(3) 0.0556(3)
H24 H -0.5403(7) 0.4094(3) 0.1202(3)
H25 H -0.4315(8) 0.3276(3) 0.2847(3)
H26 H -0.3701(8) 0.4156(3) 0.2704(3)
H27 H -0.1758(8) 0.3568(3) 0.3106(3)
H28 H 0.7926(6) -0.2367(3) 0.4553(3)
H29 H 0.6166(6) -0.2911(3) 0.2057(3)
H30 H 0.2963(7) -0.1261(3) 0.1431(2)
H31 H 0.4345(7) -0.1947(3) 0.1067(2)
H32 H -0.1382(7) -0.2467(3) 0.0583(3)
H33 H 0.0757(7) -0.2239(3) 0.0136(3)
H34 H -0.0528(7) -0.1596(3) 0.0605(3)
H35 H 0.8107(10) -0.3641(4) 0.4729(5)
H36 H 0.9122(10) -0.4387(4) 0.4334(5)
H37 H 0.6539(10) -0.4147(4) 0.4019(5)
H38 H 0.9231(12) -0.3635(4) 0.2219(5)
H39 H 0.7224(12) -0.4145(4) 0.2488(5)
H40 H 0.9807(12) -0.4385(4) 0.2803(5)
H41 H 1.1749(7) -0.2910(3) 0.3312(4)
H42 H 1.2225(7) -0.3681(3) 0.3868(4)
H43 H 1.1391(7) -0.2925(3) 0.4306(4)
H44 H 0.2731(7) -0.1509(3) 0.5026(3)
H45 H 0.2337(7) -0.0752(3) 0.4442(3)
H46 H 0.3351(7) -0.0685(3) 0.5450(3)
H47 H 0.6714(6) -0.1887(3) 0.5666(3)
H48 H 0.7103(6) -0.1027(3) 0.6019(3)
H49 H 0.8812(6) -0.1397(3) 0.5442(3)
H50 H 0.6628(7) 0.0051(3) 0.5065(3)
H51 H 0.5734(7) -0.0035(3) 0.4049(3)
H52 H 0.8235(7) -0.0314(3) 0.4444(3)
H53 H -0.2165(6) -0.0191(2) 0.2497(3)
H54 H -0.0125(6) 0.0203(2) 0.3135(3)
H55 H 0.0111(6) -0.1148(2) 0.3249(3)
H56 H 0.0264(6) -0.1207(2) 0.2235(3)
loop_
_geom_bond_atom_site_label_1
_geom_bond_atom_site_label_2
_geom_bond_site_symmetry_1
_geom_bond_site_symmetry_2
O1 C7 1_555 1_555
O2 C23 1_555 1_555
N1 C1 1_555 1_555
N2 C17 1_555 1_555
C1 C2 1_555 1_555
C2 C3 1_555 1_555
C3 C4 1_555 1_555
C4 C5 1_555 1_555
C5 C6 1_555 1_555
C6 C1 1_555 1_555
C7 C6 1_555 1_555
C8 O1 1_555 1_555
C9 C2 1_555 1_555
C10 C9 1_555 1_555
C11 C9 1_555 1_555
C12 C9 1_555 1_555
C13 C4 1_555 1_555
C14 C13 1_555 1_555
C15 C13 1_555 1_555
C16 C13 1_555 1_555
C17 C18 1_555 1_555
C18 C19 1_555 1_555
C19 C20 1_555 1_555
C20 C21 1_555 1_555
C21 C22 1_555 1_555
C22 C17 1_555 1_555
C23 C22 1_555 1_555
C24 O2 1_555 1_555
C25 C20 1_555 1_555
C26 C25 1_555 1_555
C27 C25 1_555 1_555
C28 C25 1_555 1_555
C29 C18 1_555 1_555
C30 C29 1_555 1_555
C31 C29 1_555 1_555
C32 C29 1_555 1_555
C33 N1 1_555 1_555
C34 N2 1_555 1_555
H1 N1 1_555 1_555
H2 N2 1_555 1_555
H3 C3 1_555 1_555
H4 C5 1_555 1_555
H5 C7 1_555 1_555
H6 C7 1_555 1_555
H7 C8 1_555 1_555
H8 C8 1_555 1_555
H9 C8 1_555 1_555
H10 C10 1_555 1_555
H11 C10 1_555 1_555
H12 C10 1_555 1_555
H13 C11 1_555 1_555
H14 C11 1_555 1_555
H15 C11 1_555 1_555
H16 C12 1_555 1_555
H17 C12 1_555 1_555
H18 C12 1_555 1_555
H19 C14 1_555 1_555
H20 C14 1_555 1_555
H21 C14 1_555 1_555
H22 C15 1_555 1_555
H23 C15 1_555 1_555
H24 C15 1_555 1_555
H25 C16 1_555 1_555
H26 C16 1_555 1_555
H27 C16 1_555 1_555
H28 C19 1_555 1_555
H29 C21 1_555 1_555
H30 C23 1_555 1_555
H31 C23 1_555 1_555
H32 C24 1_555 1_555
H33 C24 1_555 1_555
H34 C24 1_555 1_555
H35 C26 1_555 1_555
H36 C26 1_555 1_555
H37 C26 1_555 1_555
H38 C27 1_555 1_555
H39 C27 1_555 1_555
H40 C27 1_555 1_555
H41 C28 1_555 1_555
H42 C28 1_555 1_555
H43 C28 1_555 1_555
H44 C30 1_555 1_555
H45 C30 1_555 1_555
H46 C30 1_555 1_555
H47 C31 1_555 1_555
H48 C31 1_555 1_555
H49 C31 1_555 1_555
H50 C32 1_555 1_555
H51 C32 1_555 1_555
H52 C32 1_555 1_555
H53 C33 1_555 1_555
H54 C33 1_555 1_555
H55 C34 1_555 1_555
H56 C34 1_555 1_555
C33 C34 1_555 1_555

#END
