
#######################################################################
#
#                 Cambridge Crystallographic Data Centre
#                                CCDC 
#
#######################################################################
#
# If this CIF has been generated from an entry in the Cambridge 
# Structural Database, then it will include bibliographic, chemical, 
# crystal, experimental, refinement or atomic coordinate data resulting 
# from the CCDC's data processing and validation procedures.
#
#######################################################################

data_PAGRIZ
_chemical_formula_moiety         'C5 H8 Se2'
_chemical_name_systematic        2,6-Diselenaspiro(3.3)heptane
_symmetry_cell_setting           monoclinic
_symmetry_space_group_name_H-M   'P 21/c'
_symmetry_Int_Tables_number      14
_space_group_name_Hall           '-P 2ybc'
loop_
_symmetry_equiv_pos_site_id
_symmetry_equiv_pos_as_xyz
1 x,y,z
2 x,1/2-y,1/2+z
3 -x,-y,-z
4 -x,1/2+y,1/2-z
_cell_length_a                   5.9123(4)
_cell_length_b                   19.6400(13)
_cell_length_c                   5.8877(4)
_cell_angle_alpha                90
_cell_angle_beta                 108.5500(10)
_cell_angle_gamma                90
_cell_volume                     648.147
_exptl_crystal_colour            colorless
_exptl_crystal_description       block
_chemical_melting_point          68deg.C
_cell_formula_units_Z            4
_exptl_crystal_recrystallization_method 'vacuum sublimation'
loop_
_atom_site_label
_atom_site_type_symbol
_atom_site_fract_x
_atom_site_fract_y
_atom_site_fract_z
Se1 Se 0.15099(4) 0.425297(14) 0.90202(5)
Se2 Se 0.81135(5) 0.302765(14) 1.47623(5)
C1 C 0.2883(5) 0.34123(14) 1.0725(5)
H1 H 0.376(8) 0.312(2) 0.985(7)
H2 H 0.162(8) 0.319(2) 1.127(7)
C2 C 0.3444(5) 0.45105(14) 1.2316(5)
H3 H 0.236(8) 0.458(3) 1.314(9)
H4 H 0.446(6) 0.4919(19) 1.246(6)
C3 C 0.7190(5) 0.37966(16) 1.2466(5)
H5 H 0.820(6) 0.4205(19) 1.334(7)
H6 H 0.736(7) 0.375(2) 1.091(8)
C4 C 0.5328(5) 0.34924(14) 1.5240(5)
C5 C 0.4690(4) 0.38152(13) 1.2746(4)
H7 H 0.584(6) 0.3823(17) 1.648(6)
H8 H 0.423(7) 0.320(2) 1.552(6)
loop_
_geom_bond_atom_site_label_1
_geom_bond_atom_site_label_2
_geom_bond_site_symmetry_1
_geom_bond_site_symmetry_2
Se1 C1 1_555 1_555
Se2 C3 1_555 1_555
C1 H1 1_555 1_555
H2 C1 1_555 1_555
C2 Se1 1_555 1_555
H3 C2 1_555 1_555
H4 C2 1_555 1_555
C3 H5 1_555 1_555
H6 C3 1_555 1_555
C4 Se2 1_555 1_555
C5 C1 1_555 1_555
H7 C4 1_555 1_555
H8 C4 1_555 1_555
C2 C5 1_555 1_555
C3 C5 1_555 1_555
C4 C5 1_555 1_555

#END
