
#######################################################################
#
#                 Cambridge Crystallographic Data Centre
#                                CCDC 
#
#######################################################################
#
# If this CIF has been generated from an entry in the Cambridge 
# Structural Database, then it will include bibliographic, chemical, 
# crystal, experimental, refinement or atomic coordinate data resulting 
# from the CCDC's data processing and validation procedures.
#
#######################################################################

data_PAGZUT
_chemical_formula_moiety         'C24 H24 N2 O6'
_chemical_name_systematic        
N,N'-bis(p-Methoxyphenyl)-2,2'-(m-phenylenedioxy)diacetamide
_symmetry_cell_setting           monoclinic
_symmetry_space_group_name_H-M   'P 21/c'
_symmetry_Int_Tables_number      14
_space_group_name_Hall           '-P 2ybc'
loop_
_symmetry_equiv_pos_site_id
_symmetry_equiv_pos_as_xyz
1 x,y,z
2 x,1/2-y,1/2+z
3 -x,-y,-z
4 -x,1/2+y,1/2-z
_cell_length_a                   11.2370(13)
_cell_length_b                   18.256(2)
_cell_length_c                   10.4779(12)
_cell_angle_alpha                90
_cell_angle_beta                 93.532(2)
_cell_angle_gamma                90
_cell_volume                     2145.38
_exptl_crystal_colour            colorless
_exptl_crystal_description       needle
_cell_formula_units_Z            4
_exptl_crystal_recrystallization_method DMF/ethanol
loop_
_atom_site_label
_atom_site_type_symbol
_atom_site_fract_x
_atom_site_fract_y
_atom_site_fract_z
O1 O -0.45850(17) 0.30848(10) -0.24233(19)
O2 O -0.02869(16) 0.17412(9) 0.14602(16)
O3 O 0.16564(15) 0.21770(9) 0.29905(15)
O4 O 0.01767(14) 0.06253(8) 0.61701(14)
O5 O -0.12234(16) 0.08160(9) 0.80684(15)
O6 O -0.47527(17) -0.07495(10) 1.18264(17)
N1 N -0.10971(17) 0.28755(9) 0.15566(17)
H1 H -0.1061 0.3268 0.2010
N2 N -0.09817(17) -0.03653(9) 0.86904(16)
H2 H -0.0553 -0.0750 0.8601
C1 C -0.5025(3) 0.24775(17) -0.3155(3)
H3 H -0.5619 0.2642 -0.3789
H4 H -0.5374 0.2129 -0.2602
H5 H -0.4381 0.2251 -0.3569
C2 C -0.3725(2) 0.29650(14) -0.1461(2)
C3 C -0.3380(3) 0.35712(14) -0.0759(3)
H6 H -0.3738 0.4020 -0.0955
C4 C -0.2523(2) 0.35303(13) 0.0222(3)
H7 H -0.2301 0.3951 0.0675
C5 C -0.1985(2) 0.28715(11) 0.0546(2)
C6 C -0.2333(3) 0.22685(13) -0.0161(3)
H8 H -0.1977 0.1819 0.0030
C7 C -0.3205(2) 0.23141(14) -0.1156(3)
H9 H -0.3432 0.1896 -0.1615
C8 C -0.0301(2) 0.23574(12) 0.1915(2)
C9 C 0.0622(2) 0.26191(13) 0.2925(2)
H10 H 0.0843 0.3119 0.2737
H11 H 0.0276 0.2617 0.3751
C10 C 0.1788(2) 0.16310(12) 0.3886(2)
C11 C 0.2919(2) 0.13432(15) 0.4054(2)
H12 H 0.3527 0.1512 0.3566
C12 C 0.3137(2) 0.08079(16) 0.4942(2)
H13 H 0.3902 0.0614 0.5054
C13 C 0.2254(2) 0.05430(13) 0.5683(2)
H14 H 0.2418 0.0178 0.6288
C14 C 0.1139(2) 0.08304(12) 0.55022(19)
C15 C 0.0887(2) 0.13740(11) 0.45945(19)
H15 H 0.0119 0.1561 0.4469
C16 C 0.0370(2) 0.01494(11) 0.7232(2)
H16 H 0.1094 0.0284 0.7729
H17 H 0.0445 -0.0353 0.6946
C17 C -0.0697(2) 0.02298(12) 0.8024(2)
C18 C -0.1920(2) -0.04221(11) 0.9528(2)
C19 C -0.2346(2) -0.11127(12) 0.9778(2)
H18 H -0.2008 -0.1521 0.9412
C20 C -0.3270(3) -0.11988(14) 1.0565(2)
H19 H -0.3540 -0.1668 1.0739
C21 C -0.3806(2) -0.06023(14) 1.1102(2)
C22 C -0.3365(2) 0.00838(13) 1.0881(2)
H20 H -0.3700 0.0491 1.1254
C23 C -0.2428(2) 0.01699(12) 1.0107(2)
H21 H -0.2130 0.0637 0.9972
C24 C -0.5353(3) -0.01605(16) 1.2377(2)
H22 H -0.5987 -0.0347 1.2858
H23 H -0.5677 0.0157 1.1713
H24 H -0.4803 0.0109 1.2935
loop_
_geom_bond_atom_site_label_1
_geom_bond_atom_site_label_2
_geom_bond_site_symmetry_1
_geom_bond_site_symmetry_2
O1 C1 1_555 1_555
O2 C8 1_555 1_555
O3 C9 1_555 1_555
O4 C14 1_555 1_555
O5 C17 1_555 1_555
O6 C21 1_555 1_555
N1 H1 1_555 1_555
N2 H2 1_555 1_555
C1 H3 1_555 1_555
H4 C1 1_555 1_555
H5 C1 1_555 1_555
C2 O1 1_555 1_555
C3 C2 1_555 1_555
H6 C3 1_555 1_555
C4 C3 1_555 1_555
H7 C4 1_555 1_555
C5 N1 1_555 1_555
C6 C5 1_555 1_555
H8 C6 1_555 1_555
C7 C2 1_555 1_555
H9 C7 1_555 1_555
C8 N1 1_555 1_555
C9 C8 1_555 1_555
H10 C9 1_555 1_555
H11 C9 1_555 1_555
C10 O3 1_555 1_555
C11 C10 1_555 1_555
H12 C11 1_555 1_555
C12 C11 1_555 1_555
H13 C12 1_555 1_555
C13 C12 1_555 1_555
H14 C13 1_555 1_555
C14 C13 1_555 1_555
C15 C10 1_555 1_555
H15 C15 1_555 1_555
C16 O4 1_555 1_555
H16 C16 1_555 1_555
H17 C16 1_555 1_555
C17 N2 1_555 1_555
C18 N2 1_555 1_555
C19 C18 1_555 1_555
H18 C19 1_555 1_555
C20 C19 1_555 1_555
H19 C20 1_555 1_555
C21 C20 1_555 1_555
C22 C21 1_555 1_555
H20 C22 1_555 1_555
C23 C18 1_555 1_555
H21 C23 1_555 1_555
C24 O6 1_555 1_555
H22 C24 1_555 1_555
H23 C24 1_555 1_555
H24 C24 1_555 1_555
C4 C5 1_555 1_555
C6 C7 1_555 1_555
C14 C15 1_555 1_555
C16 C17 1_555 1_555
C22 C23 1_555 1_555

#END
