
#######################################################################
#
#                 Cambridge Crystallographic Data Centre
#                                CCDC 
#
#######################################################################
#
# If this CIF has been generated from an entry in the Cambridge 
# Structural Database, then it will include bibliographic, chemical, 
# crystal, experimental, refinement or atomic coordinate data resulting 
# from the CCDC's data processing and validation procedures.
#
#######################################################################

data_PAHBIK
_chemical_formula_moiety         'C24 H26 N4 O4'
_chemical_name_systematic        
'Methyl 3-dimethylamino-2-(2-(2-(dimethylamino)-1-(3-phenyl-1,2,4-oxadiazol-5-yl)vinyloxy)phenyl)acrylate'
_symmetry_cell_setting           triclinic
_symmetry_space_group_name_H-M   'P -1'
_symmetry_Int_Tables_number      2
_space_group_name_Hall           '-P 1'
loop_
_symmetry_equiv_pos_site_id
_symmetry_equiv_pos_as_xyz
1 x,y,z
2 -x,-y,-z
_cell_length_a                   11.220(2)
_cell_length_b                   12.260(3)
_cell_length_c                   17.762(4)
_cell_angle_alpha                71.06(3)
_cell_angle_beta                 86.35(3)
_cell_angle_gamma                85.19(3)
_cell_volume                     2301.15
_exptl_crystal_colour            colorless
_exptl_crystal_description       block
_cell_formula_units_Z            4
_exptl_crystal_recrystallization_method ethanol
loop_
_atom_site_label
_atom_site_type_symbol
_atom_site_fract_x
_atom_site_fract_y
_atom_site_fract_z
O1 O 0.4433(3) 0.7041(3) 0.1043(2)
O2 O 0.2919(2) 0.6539(2) 0.01330(16)
O3 O 0.1441(3) 0.8162(3) -0.22610(19)
O4 O 0.0136(3) 0.7239(3) -0.13038(19)
N1 N 0.5349(4) 0.7096(4) 0.1547(3)
N2 N 0.5286(3) 0.5271(3) 0.1533(2)
N3 N 0.3170(4) 0.9392(3) -0.0801(3)
N4 N 0.2889(4) 0.4044(3) 0.0247(2)
C1 C 0.8137(5) 0.4234(5) 0.3167(3)
H1 H 0.8440 0.3468 0.3346
C2 C 0.7243(4) 0.4551(4) 0.2629(3)
H2 H 0.6948 0.4005 0.2441
C3 C 0.6783(4) 0.5695(4) 0.2365(2)
C4 C 0.7251(4) 0.6498(4) 0.2637(3)
H3 H 0.6954 0.7265 0.2459
C5 C 0.8179(4) 0.6160(6) 0.3183(3)
H4 H 0.8506 0.6699 0.3362
C6 C 0.8584(5) 0.5028(6) 0.3441(3)
H5 H 0.9179 0.4790 0.3813
C7 C 0.5799(4) 0.6040(4) 0.1802(3)
C8 C 0.4460(4) 0.5908(4) 0.1072(2)
C9 C 0.3611(4) 0.5633(4) 0.0619(2)
C10 C 0.1806(3) 0.6846(4) 0.0433(2)
C11 C 0.1386(4) 0.6305(4) 0.1197(2)
H6 H 0.1854 0.5715 0.1542
C12 C 0.0273(5) 0.6640(5) 0.1449(3)
H7 H -0.0006 0.6284 0.1968
C13 C -0.0433(4) 0.7505(5) 0.0932(3)
H8 H -0.1195 0.7724 0.1093
C14 C 0.0020(4) 0.8034(4) 0.0173(3)
H9 H -0.0442 0.8635 -0.0169
C15 C 0.1130(4) 0.7713(4) -0.0104(2)
C16 C 0.1585(4) 0.8233(4) -0.0936(2)
C17 C 0.1079(4) 0.7897(4) -0.1567(3)
C18 C -0.0410(6) 0.6898(6) -0.1893(3)
H10 H -0.1064 0.6431 -0.1649
H11 H 0.0171 0.6461 -0.2119
H12 H -0.0703 0.7574 -0.2305
C19 C 0.2545(4) 0.8874(4) -0.1181(3)
H13 H 0.2812 0.8969 -0.1703
C20 C 0.4299(6) 0.9880(6) -0.1153(4)
H14 H 0.4450 0.9773 -0.1663
H15 H 0.4939 0.9498 -0.0809
H16 H 0.4249 1.0691 -0.1217
C21 C 0.2822(5) 0.9499(5) -0.0030(4)
H17 H 0.2073 0.9157 0.0151
H18 H 0.2737 1.0302 -0.0070
H19 H 0.3425 0.9110 0.0343
C22 C 0.3581(4) 0.4514(4) 0.0627(2)
H20 H 0.4136 0.3994 0.0951
C23 C 0.3036(6) 0.2810(5) 0.0373(3)
H21 H 0.3618 0.2460 0.0769
H22 H 0.3302 0.2681 -0.0118
H23 H 0.2284 0.2472 0.0550
C24 C 0.2024(5) 0.4682(5) -0.0320(3)
H24 H 0.1992 0.5483 -0.0359
H25 H 0.1251 0.4387 -0.0149
H26 H 0.2248 0.4602 -0.0831
O5 O 0.9365(3) 0.2143(3) 0.55314(18)
O6 O 0.7730(2) 0.0645(2) 0.56559(16)
O7 O 0.6299(4) -0.1881(3) 0.7743(2)
O8 O 0.5084(3) -0.0843(3) 0.6783(2)
N5 N 1.0272(3) 0.2944(4) 0.5324(2)
N6 N 1.0133(3) 0.2156(3) 0.4350(2)
N7 N 0.8204(4) 0.0864(4) 0.7628(2)
N8 N 0.7662(3) -0.0295(3) 0.4299(2)
C25 C 1.2869(5) 0.5200(5) 0.3992(3)
H27 H 1.3102 0.5795 0.4155
C26 C 1.1978(4) 0.4508(4) 0.4425(3)
H28 H 1.1618 0.4641 0.4877
C27 C 1.1627(3) 0.3622(4) 0.4183(2)
C28 C 1.2171(4) 0.3454(4) 0.3503(3)
H29 H 1.1936 0.2872 0.3327
C29 C 1.3059(4) 0.4147(4) 0.3087(3)
H30 H 1.3428 0.4020 0.2636
C30 C 1.3402(5) 0.5015(5) 0.3331(3)
H31 H 1.4000 0.5480 0.3046
C31 C 1.0681(4) 0.2888(4) 0.4633(2)
C32 C 0.9341(4) 0.1725(4) 0.4915(2)
C33 C 0.8449(4) 0.0927(4) 0.4963(2)
C34 C 0.6763(3) 0.1406(3) 0.5701(2)
C35 C 0.6150(4) 0.1170(3) 0.6439(2)
C36 C 0.5186(4) 0.1904(4) 0.6499(3)
H32 H 0.4774 0.1767 0.6988
C37 C 0.4799(4) 0.2835(4) 0.5867(3)
H33 H 0.4132 0.3308 0.5927
C38 C 0.5417(4) 0.3047(4) 0.5154(3)
H34 H 0.5173 0.3681 0.4725
C39 C 0.6399(4) 0.2339(3) 0.5055(2)
H35 H 0.6807 0.2486 0.4564
C40 C 0.6565(4) 0.0131(4) 0.7111(2)
C41 C 0.6013(4) -0.0954(4) 0.7257(3)
C42 C 0.4479(5) -0.1877(4) 0.6885(4)
H36 H 0.3842 -0.1704 0.6519
H37 H 0.4155 -0.2161 0.7421
H38 H 0.5037 -0.2455 0.6783
C43 C 0.7513(4) 0.0064(4) 0.7561(3)
H39 H 0.7726 -0.0681 0.7888
C44 C 0.9255(6) 0.0518(6) 0.8096(4)
H40 H 0.9341 -0.0310 0.8308
H41 H 0.9177 0.0836 0.8526
H42 H 0.9948 0.0799 0.7766
C45 C 0.7953(5) 0.2088(4) 0.7271(3)
H43 H 0.7242 0.2227 0.6971
H44 H 0.8614 0.2411 0.6922
H45 H 0.7837 0.2444 0.7681
C46 C 0.8406(4) 0.0451(4) 0.4382(3)
H46 H 0.8986 0.0677 0.3974
C47 C 0.6704(5) -0.0789(4) 0.4859(3)
H47 H 0.6678 -0.0490 0.5298
H48 H 0.6843 -0.1615 0.5054
H49 H 0.5955 -0.0590 0.4599
C48 C 0.7804(5) -0.0680(4) 0.3598(3)
H50 H 0.8446 -0.0300 0.3257
H51 H 0.7075 -0.0492 0.3314
H52 H 0.7984 -0.1501 0.3764
loop_
_geom_bond_atom_site_label_1
_geom_bond_atom_site_label_2
_geom_bond_site_symmetry_1
_geom_bond_site_symmetry_2
O1 N1 1_555 1_555
O2 C9 1_555 1_555
O3 C17 1_555 1_555
O4 C17 1_555 1_555
O5 N5 1_555 1_555
O6 C33 1_555 1_555
O7 C41 1_555 1_555
O8 C41 1_555 1_555
N1 C7 1_555 1_555
N2 C7 1_555 1_555
N3 C19 1_555 1_555
N4 C22 1_555 1_555
N5 C31 1_555 1_555
N6 C31 1_555 1_555
N7 C43 1_555 1_555
N8 C46 1_555 1_555
C1 H1 1_555 1_555
C2 C1 1_555 1_555
H2 C2 1_555 1_555
C3 C2 1_555 1_555
C4 C3 1_555 1_555
H3 C4 1_555 1_555
C5 C4 1_555 1_555
H4 C5 1_555 1_555
C6 C1 1_555 1_555
H5 C6 1_555 1_555
C7 C3 1_555 1_555
C8 O1 1_555 1_555
C9 C8 1_555 1_555
C10 O2 1_555 1_555
C11 C10 1_555 1_555
H6 C11 1_555 1_555
C12 C11 1_555 1_555
H7 C12 1_555 1_555
C13 C12 1_555 1_555
H8 C13 1_555 1_555
C14 C13 1_555 1_555
H9 C14 1_555 1_555
C15 C10 1_555 1_555
C16 C15 1_555 1_555
C17 C16 1_555 1_555
C18 O4 1_555 1_555
H10 C18 1_555 1_555
H11 C18 1_555 1_555
H12 C18 1_555 1_555
C19 C16 1_555 1_555
H13 C19 1_555 1_555
C20 N3 1_555 1_555
H14 C20 1_555 1_555
H15 C20 1_555 1_555
H16 C20 1_555 1_555
C21 N3 1_555 1_555
H17 C21 1_555 1_555
H18 C21 1_555 1_555
H19 C21 1_555 1_555
C22 C9 1_555 1_555
H20 C22 1_555 1_555
C23 N4 1_555 1_555
H21 C23 1_555 1_555
H22 C23 1_555 1_555
H23 C23 1_555 1_555
C24 N4 1_555 1_555
H24 C24 1_555 1_555
H25 C24 1_555 1_555
H26 C24 1_555 1_555
C25 H27 1_555 1_555
C26 C25 1_555 1_555
H28 C26 1_555 1_555
C27 C26 1_555 1_555
C28 C27 1_555 1_555
H29 C28 1_555 1_555
C29 C28 1_555 1_555
H30 C29 1_555 1_555
C30 C25 1_555 1_555
H31 C30 1_555 1_555
C31 C27 1_555 1_555
C32 O5 1_555 1_555
C33 C32 1_555 1_555
C34 O6 1_555 1_555
C35 C34 1_555 1_555
C36 C35 1_555 1_555
H32 C36 1_555 1_555
C37 C36 1_555 1_555
H33 C37 1_555 1_555
C38 C37 1_555 1_555
H34 C38 1_555 1_555
C39 C34 1_555 1_555
H35 C39 1_555 1_555
C40 C35 1_555 1_555
C41 C40 1_555 1_555
C42 O8 1_555 1_555
H36 C42 1_555 1_555
H37 C42 1_555 1_555
H38 C42 1_555 1_555
C43 C40 1_555 1_555
H39 C43 1_555 1_555
C44 N7 1_555 1_555
H40 C44 1_555 1_555
H41 C44 1_555 1_555
H42 C44 1_555 1_555
C45 N7 1_555 1_555
H43 C45 1_555 1_555
H44 C45 1_555 1_555
H45 C45 1_555 1_555
C46 C33 1_555 1_555
H46 C46 1_555 1_555
C47 N8 1_555 1_555
H47 C47 1_555 1_555
H48 C47 1_555 1_555
H49 C47 1_555 1_555
C48 N8 1_555 1_555
H50 C48 1_555 1_555
H51 C48 1_555 1_555
H52 C48 1_555 1_555
N2 C8 1_555 1_555
N6 C32 1_555 1_555
C5 C6 1_555 1_555
C14 C15 1_555 1_555
C29 C30 1_555 1_555
C38 C39 1_555 1_555

#END
