
#######################################################################
#
#                 Cambridge Crystallographic Data Centre
#                                CCDC 
#
#######################################################################
#
# If this CIF has been generated from an entry in the Cambridge 
# Structural Database, then it will include bibliographic, chemical, 
# crystal, experimental, refinement or atomic coordinate data resulting 
# from the CCDC's data processing and validation procedures.
#
#######################################################################

data_PAHCOR
_chemical_formula_moiety         'C22 H19 N1 O5'
_chemical_name_systematic        
'Ethyl 2-amino-5-oxo-4-(p-tolyl)-4H,5H-pyrano(3,2-c)chromene-3-carboxylate'
_symmetry_cell_setting           monoclinic
_symmetry_space_group_name_H-M   'P 21/c'
_symmetry_Int_Tables_number      14
_space_group_name_Hall           '-P 2ybc'
loop_
_symmetry_equiv_pos_site_id
_symmetry_equiv_pos_as_xyz
1 x,y,z
2 x,1/2-y,1/2+z
3 -x,-y,-z
4 -x,1/2+y,1/2-z
_cell_length_a                   15.239(2)
_cell_length_b                   7.8500(10)
_cell_length_c                   15.846(3)
_cell_angle_alpha                90
_cell_angle_beta                 101.000(10)
_cell_angle_gamma                90
_cell_volume                     1860.77
_exptl_crystal_colour            colorless
_exptl_crystal_description       block
_chemical_melting_point          '464-465 K'
_cell_formula_units_Z            4
_exptl_crystal_recrystallization_method DMF/water
loop_
_atom_site_label
_atom_site_type_symbol
_atom_site_fract_x
_atom_site_fract_y
_atom_site_fract_z
O1 O 0.64193(8) 0.19343(14) 0.21859(7)
O2 O 0.50048(7) 0.62681(16) 0.13568(8)
O3 O 0.59842(9) 0.78971(16) 0.21782(9)
O4 O 0.80705(9) 0.47615(17) 0.45982(8)
O5 O 0.80808(9) 0.18976(18) 0.46140(8)
N1 N 0.72474(12) 0.0314(2) 0.31677(12)
C1 C 0.59831(10) 0.3425(2) 0.19417(10)
C2 C 0.51913(11) 0.3223(2) 0.12928(11)
C3 C 0.48594(12) 0.1657(2) 0.09449(12)
H1 H 0.5162 0.0653 0.1124
C4 C 0.40829(13) 0.1611(3) 0.03366(13)
H2 H 0.3862 0.0574 0.0104
C5 C 0.36301(13) 0.3104(3) 0.00695(13)
H3 H 0.3107 0.3055 -0.0343
C6 C 0.39402(12) 0.4661(3) 0.04026(12)
H4 H 0.3636 0.5660 0.0218
C7 C 0.47204(11) 0.4694(2) 0.10215(11)
C8 C 0.57810(11) 0.6455(2) 0.19591(11)
C9 C 0.62770(11) 0.4938(2) 0.22716(10)
C10 C 0.71228(11) 0.5094(2) 0.29399(11)
H5 H 0.7022 0.5937 0.3367
C11 C 0.73056(10) 0.3380(2) 0.33873(11)
C12 C 0.70185(11) 0.1916(2) 0.29591(11)
C13 C 0.79247(11) 0.5667(2) 0.25616(11)
C14 C 0.80562(11) 0.5081(2) 0.17688(11)
H6 H 0.7624 0.4392 0.1441
C15 C 0.88149(12) 0.5500(2) 0.14544(12)
H7 H 0.8883 0.5089 0.0920
C16 C 0.94745(11) 0.6521(2) 0.19214(13)
C17 C 0.93370(12) 0.7113(2) 0.27057(13)
H8 H 0.9769 0.7806 0.3031
C18 C 0.85807(11) 0.6713(2) 0.30227(12)
H9 H 0.8509 0.7148 0.3551
C19 C 1.03096(13) 0.6967(3) 0.15922(15)
H10 H 1.0289 0.6446 0.1041
H11 H 1.0823 0.6558 0.1988
H12 H 1.0349 0.8181 0.1538
C20 C 0.78447(11) 0.3229(3) 0.42353(11)
C21 C 0.86360(16) 0.4768(3) 0.54441(13)
H16 H 0.8995 0.5798 0.5512
H17 H 0.9040 0.3802 0.5494
C22 C 0.81160(18) 0.4685(3) 0.61317(14)
H18 H 0.7750 0.5684 0.6112
H19 H 0.8515 0.4625 0.6678
H20 H 0.7743 0.3690 0.6055
H21 H 0.7590(11) 0.017(2) 0.3679(8)
H22 H 0.6907(12) -0.050(2) 0.2891(12)
H13? H 1.0685 0.7678 0.2004
H14? H 1.0151 0.7565 0.1056
H15? H 1.0625 0.5942 0.1507
loop_
_geom_bond_atom_site_label_1
_geom_bond_atom_site_label_2
_geom_bond_site_symmetry_1
_geom_bond_site_symmetry_2
O1 C1 1_555 1_555
O2 C7 1_555 1_555
O3 C8 1_555 1_555
O4 C20 1_555 1_555
O5 C20 1_555 1_555
N1 C12 1_555 1_555
C1 C2 1_555 1_555
C2 C3 1_555 1_555
C3 H1 1_555 1_555
C4 C3 1_555 1_555
H2 C4 1_555 1_555
C5 C4 1_555 1_555
H3 C5 1_555 1_555
C6 C5 1_555 1_555
H4 C6 1_555 1_555
C7 C2 1_555 1_555
C8 O2 1_555 1_555
C9 C1 1_555 1_555
C10 C9 1_555 1_555
H5 C10 1_555 1_555
C11 C10 1_555 1_555
C12 O1 1_555 1_555
C13 C10 1_555 1_555
C14 C13 1_555 1_555
H6 C14 1_555 1_555
C15 C14 1_555 1_555
H7 C15 1_555 1_555
C16 C15 1_555 1_555
C17 C16 1_555 1_555
H8 C17 1_555 1_555
C18 C13 1_555 1_555
H9 C18 1_555 1_555
C19 C16 1_555 1_555
H10 C19 1_555 1_555
H11 C19 1_555 1_555
H12 C19 1_555 1_555
C20 C11 1_555 1_555
C21 O4 1_555 1_555
H16 C21 1_555 1_555
H17 C21 1_555 1_555
C22 C21 1_555 1_555
H18 C22 1_555 1_555
H19 C22 1_555 1_555
H20 C22 1_555 1_555
H21 N1 1_555 1_555
H22 N1 1_555 1_555
C6 C7 1_555 1_555
C8 C9 1_555 1_555
C11 C12 1_555 1_555
C17 C18 1_555 1_555

#END
