
#######################################################################
#
#                 Cambridge Crystallographic Data Centre
#                                CCDC 
#
#######################################################################
#
# If this CIF has been generated from an entry in the Cambridge 
# Structural Database, then it will include bibliographic, chemical, 
# crystal, experimental, refinement or atomic coordinate data resulting 
# from the CCDC's data processing and validation procedures.
#
#######################################################################

data_PAHCEG
_chemical_formula_moiety         'C8 H20 N4 P2 S2'
_chemical_name_systematic        
1,1,5,5-Tetraethyl-1,5-diphospha-3,7-dithia-2,4,6,8-tetra-azocine
_symmetry_cell_setting           monoclinic
_symmetry_space_group_name_H-M   'P 21/a'
_symmetry_Int_Tables_number      14
_space_group_name_Hall           '-P 2yab'
loop_
_symmetry_equiv_pos_site_id
_symmetry_equiv_pos_as_xyz
1 x,y,z
2 1/2-x,1/2+y,-z
3 -x,-y,-z
4 1/2+x,1/2-y,z
_cell_length_a                   15.244(3)
_cell_length_b                   9.494(3)
_cell_length_c                   10.210(2)
_cell_angle_alpha                90
_cell_angle_beta                 102.51(1)
_cell_angle_gamma                90
_cell_volume                     1442.58
_exptl_crystal_colour            'pale yellow'
_cell_formula_units_Z            4
loop_
_atom_site_label
_atom_site_type_symbol
_atom_site_fract_x
_atom_site_fract_y
_atom_site_fract_z
S1 S 0.1046(1) 0.0899(2) 0.5952(2)
S2 S 0.1090(1) -0.0229(2) 0.8172(2)
P1 P 0.2132(1) -0.1492(2) 0.6539(2)
P2 P 0.1964(1) 0.2349(2) 0.8224(2)
N1 N 0.1668(4) -0.0273(6) 0.5504(7)
N2 N 0.1775(4) -0.1415(6) 0.7906(7)
N3 N 0.1536(4) 0.1098(6) 0.8966(6)
N4 N 0.1559(4) 0.2253(6) 0.6631(7)
C1 C 0.1874(5) -0.3166(8) 0.5793(9)
C2 C 0.0867(6) -0.3437(10) 0.5420(11)
C3 C 0.3321(5) -0.1379(8) 0.6785(9)
C4 C 0.3856(5) -0.2531(10) 0.7627(10)
C5 C 0.3170(5) 0.2324(8) 0.8651(9)
C6 C 0.3646(6) 0.3523(11) 0.8156(10)
C7 C 0.1652(6) 0.3998(8) 0.8834(8)
C8 C 0.0644(6) 0.4203(10) 0.8640(10)
H1 H 0.2106 -0.3215 0.5002
H2 H 0.2147 -0.3869 0.6406
H3 H 0.0640 -0.3385 0.6215
H4 H 0.0596 -0.2731 0.4810
H5 H 0.0733 -0.4333 0.5023
H6 H 0.3464 -0.1397 0.5924
H7 H 0.3499 -0.0501 0.7205
H8 H 0.3711 -0.2508 0.8485
H9 H 0.3675 -0.3404 0.7204
H10 H 0.4491 -0.2466 0.7756
H11 H 0.3348 0.2307 0.9600
H12 H 0.3360 0.1481 0.8293
H13 H 0.3466 0.3534 0.7210
H14 H 0.3455 0.4361 0.8517
H15 H 0.4284 0.3505 0.8386
H16 H 0.1913 0.4055 0.9765
H17 H 0.1884 0.4730 0.8372
H18 H 0.0386 0.4144 0.7708
H19 H 0.0415 0.3469 0.9101
H20 H 0.0481 0.5079 0.8964
loop_
_geom_bond_atom_site_label_1
_geom_bond_atom_site_label_2
_geom_bond_site_symmetry_1
_geom_bond_site_symmetry_2
S1 N1 1_555 1_555
S2 N2 1_555 1_555
P1 N1 1_555 1_555
P2 N3 1_555 1_555
N2 P1 1_555 1_555
N3 S2 1_555 1_555
N4 S1 1_555 1_555
C1 P1 1_555 1_555
C2 C1 1_555 1_555
C3 P1 1_555 1_555
C4 C3 1_555 1_555
C5 P2 1_555 1_555
C6 C5 1_555 1_555
C7 P2 1_555 1_555
C8 C7 1_555 1_555
H1 C1 1_555 1_555
H2 C1 1_555 1_555
H3 C2 1_555 1_555
H4 C2 1_555 1_555
H5 C2 1_555 1_555
H6 C3 1_555 1_555
H7 C3 1_555 1_555
H8 C4 1_555 1_555
H9 C4 1_555 1_555
H10 C4 1_555 1_555
H11 C5 1_555 1_555
H12 C5 1_555 1_555
H13 C6 1_555 1_555
H14 C6 1_555 1_555
H15 C6 1_555 1_555
H16 C7 1_555 1_555
H17 C7 1_555 1_555
H18 C8 1_555 1_555
H19 C8 1_555 1_555
H20 C8 1_555 1_555
P2 N4 1_555 1_555

#END
