
#######################################################################
#
#                 Cambridge Crystallographic Data Centre
#                                CCDC 
#
#######################################################################
#
# If this CIF has been generated from an entry in the Cambridge 
# Structural Database, then it will include bibliographic, chemical, 
# crystal, experimental, refinement or atomic coordinate data resulting 
# from the CCDC's data processing and validation procedures.
#
#######################################################################

data_PAHDEK
_chemical_formula_moiety         'C24 H36 N2'
_chemical_name_systematic        4,4'-bis(di-isopropylamino)biphenyl
_symmetry_cell_setting           triclinic
_symmetry_space_group_name_H-M   'P -1'
_symmetry_Int_Tables_number      2
_space_group_name_Hall           '-P 1'
loop_
_symmetry_equiv_pos_site_id
_symmetry_equiv_pos_as_xyz
1 x,y,z
2 -x,-y,-z
_cell_length_a                   17.7621(3)
_cell_length_b                   22.2461(4)
_cell_length_c                   27.0076(4)
_cell_angle_alpha                66.1403(16)
_cell_angle_beta                 79.7820(13)
_cell_angle_gamma                83.1039(13)
_cell_volume                     9591.06
_exptl_crystal_colour            'light brown'
_exptl_crystal_description       irregular
_cell_formula_units_Z            18
loop_
_atom_site_label
_atom_site_type_symbol
_atom_site_fract_x
_atom_site_fract_y
_atom_site_fract_z
N1 N 0.47167(9) 0.49176(7) 0.32164(6)
C1 C 0.49530(9) 0.49880(8) 0.47370(7)
C2 C 0.48406(11) 0.55564(8) 0.42711(7)
H1 H 0.4820 0.5974 0.4293
C3 C 0.47593(11) 0.55317(9) 0.37798(7)
H2 H 0.4674 0.5932 0.3479
C4 C 0.47986(10) 0.49340(8) 0.37112(7)
C5 C 0.49048(11) 0.43613(8) 0.41807(7)
H3 H 0.4933 0.3943 0.4159
C6 C 0.49687(11) 0.43940(8) 0.46735(7)
H4 H 0.5026 0.3994 0.4982
C7 C 0.50016(11) 0.54368(8) 0.26868(7)
H5 H 0.5105 0.5220 0.2420
C8 C 0.57690(12) 0.56938(9) 0.26765(8)
H6 H 0.5698 0.5939 0.2913
H7 H 0.5959 0.5985 0.2301
H8 H 0.6140 0.5322 0.2808
C9 C 0.43922(12) 0.59892(9) 0.24725(8)
H9 H 0.3919 0.5799 0.2479
H10 H 0.4577 0.6281 0.2096
H11 H 0.4291 0.6241 0.2705
C10 C 0.46246(11) 0.42737(8) 0.31945(7)
H12 H 0.4385 0.3981 0.3567
C11 C 0.53926(11) 0.39365(9) 0.30676(8)
H13 H 0.5638 0.4203 0.2700
H14 H 0.5307 0.3501 0.3086
H15 H 0.5725 0.3889 0.3336
C12 C 0.40795(13) 0.43431(10) 0.27960(9)
H16 H 0.3600 0.4573 0.2881
H17 H 0.3973 0.3905 0.2829
H18 H 0.4315 0.4596 0.2422
N1A N 0.52833(9) 0.50824(7) 0.67836(6)
C1A C 0.50470(9) 0.50120(8) 0.52630(7)
C2A C 0.51594(11) 0.44436(8) 0.57289(7)
H1A H 0.5180 0.4026 0.5707
C3A C 0.52407(11) 0.44683(9) 0.62202(7)
H2A H 0.5326 0.4068 0.6521
C4A C 0.52014(10) 0.50660(8) 0.62888(7)
C5A C 0.50952(11) 0.56387(8) 0.58193(7)
H3A H 0.5067 0.6057 0.5841
C6A C 0.50313(11) 0.56060(8) 0.53265(7)
H4A H 0.4974 0.6006 0.5018
C7A C 0.49984(11) 0.45632(8) 0.73132(7)
H5A H 0.4895 0.4780 0.7580
C8A C 0.42310(12) 0.43062(9) 0.73235(8)
H6A H 0.4302 0.4061 0.7087
H7A H 0.4041 0.4015 0.7699
H8A H 0.3860 0.4678 0.7192
C9A C 0.56078(12) 0.40108(9) 0.75275(8)
H9A H 0.6081 0.4201 0.7521
H10A H 0.5423 0.3719 0.7904
H11A H 0.5709 0.3759 0.7295
C10A C 0.53754(11) 0.57263(8) 0.68055(7)
H12A H 0.5615 0.6019 0.6433
C11A C 0.46074(11) 0.60635(9) 0.69324(8)
H13A H 0.4362 0.5797 0.7300
H14A H 0.4693 0.6499 0.6914
H15A H 0.4275 0.6111 0.6664
C12A C 0.59205(13) 0.56569(10) 0.72040(9)
H16A H 0.6400 0.5427 0.7119
H17A H 0.6027 0.6095 0.7171
H18A H 0.5685 0.5404 0.7578
N2 N 0.77352(8) 0.48461(6) 0.41873(6)
C13 C 0.96621(9) 0.49783(7) 0.48831(6)
C14 C 0.93017(10) 0.55296(8) 0.45130(7)
H19 H 0.9497 0.5949 0.4411
C15 C 0.86737(10) 0.54922(8) 0.42884(7)
H20 H 0.8460 0.5883 0.4034
C16 C 0.83451(9) 0.48885(8) 0.44281(6)
C17 C 0.86992(10) 0.43347(8) 0.48051(7)
H21 H 0.8499 0.3915 0.4915
C18 C 0.93315(10) 0.43822(8) 0.50206(7)
H22 H 0.9550 0.3992 0.5273
C19 C 0.71400(10) 0.53836(8) 0.40171(8)
H23 H 0.6677 0.5168 0.4018
C20 C 0.73461(13) 0.58740(9) 0.34242(9)
H24 H 0.7791 0.6111 0.3398
H25 H 0.6910 0.6188 0.3314
H26 H 0.7468 0.5635 0.3182
C21 C 0.68924(11) 0.57180(9) 0.44143(10)
H27 H 0.6784 0.5384 0.4786
H28 H 0.6430 0.6001 0.4316
H29 H 0.7303 0.5985 0.4398
C22 C 0.75030(10) 0.41854(8) 0.42865(7)
H30 H 0.7977 0.3887 0.4329
C23 C 0.71799(11) 0.41887(9) 0.37970(8)
H31 H 0.6669 0.4412 0.3780
H32 H 0.7144 0.3735 0.3837
H33 H 0.7519 0.4421 0.3460
C24 C 0.69484(11) 0.38980(9) 0.48147(7)
H34 H 0.6484 0.4188 0.4795
H35 H 0.7192 0.3859 0.5125
H36 H 0.6813 0.3462 0.4863
N2A N 1.22648(8) 0.51539(6) 0.58127(6)
C13A C 1.03379(9) 0.50217(7) 0.51169(6)
C14A C 1.06983(10) 0.44704(8) 0.54870(7)
H19A H 1.0503 0.4051 0.5589
C15A C 1.13263(10) 0.45078(8) 0.57116(7)
H20A H 1.1540 0.4117 0.5966
C16A C 1.16549(9) 0.51115(8) 0.55719(6)
C17A C 1.13008(10) 0.56653(8) 0.51949(7)
H21A H 1.1501 0.6085 0.5085
C18A C 1.06685(10) 0.56178(8) 0.49794(7)
H22A H 1.0450 0.6008 0.4727
C19A C 1.28600(10) 0.46164(8) 0.59829(8)
H23A H 1.3323 0.4832 0.5982
C20A C 1.26539(13) 0.41260(9) 0.65758(9)
H24A H 1.2209 0.3889 0.6602
H25A H 1.3090 0.3812 0.6686
H26A H 1.2532 0.4365 0.6818
C21A C 1.31076(11) 0.42820(9) 0.55857(10)
H27A H 1.3216 0.4616 0.5214
H28A H 1.3570 0.3999 0.5684
H29A H 1.2697 0.4015 0.5602
C22A C 1.24970(10) 0.58146(8) 0.57135(7)
H30A H 1.2023 0.6113 0.5671
C23A C 1.28201(11) 0.58113(9) 0.62030(8)
H31A H 1.3331 0.5588 0.6220
H32A H 1.2856 0.6265 0.6163
H33A H 1.2481 0.5579 0.6540
C24A C 1.30516(11) 0.61020(9) 0.51853(7)
H34A H 1.3516 0.5812 0.5205
H35A H 1.2808 0.6141 0.4875
H36A H 1.3187 0.6538 0.5137
N3 N 0.37294(8) 0.17039(7) 0.36258(6)
C25 C 0.56928(9) 0.16609(7) 0.43509(6)
C26 C 0.52413(9) 0.22394(8) 0.41248(7)
H37 H 0.5384 0.2636 0.4129
C27 C 0.45966(10) 0.22574(8) 0.38963(7)
H38 H 0.4311 0.2663 0.3748
C28 C 0.43536(9) 0.16852(8) 0.38791(6)
C29 C 0.47963(10) 0.11013(8) 0.41145(7)
H39 H 0.4648 0.0702 0.4120
C30 C 0.54446(9) 0.10933(8) 0.43391(7)
H40 H 0.5730 0.0688 0.4490
C31 C 0.34052(11) 0.23550(8) 0.32847(7)
H41 H 0.3840 0.2654 0.3121
C32 C 0.28192(11) 0.26630(10) 0.36100(9)
H42 H 0.2370 0.2395 0.3763
H43 H 0.2663 0.3109 0.3369
H44 H 0.3047 0.2684 0.3907
C33 C 0.30670(13) 0.23372(11) 0.28095(8)
H45 H 0.3436 0.2111 0.2618
H46 H 0.2956 0.2788 0.2555
H47 H 0.2593 0.2101 0.2950
C34 C 0.32112(10) 0.11578(8) 0.38274(8)
H48 H 0.2713 0.1363 0.3696
C35 C 0.30288(11) 0.08394(9) 0.44462(8)
H49 H 0.2649 0.0509 0.4549
H50 H 0.2822 0.1177 0.4588
H51 H 0.3497 0.0627 0.4601
C36 C 0.34643(13) 0.06527(10) 0.35699(10)
H52 H 0.3931 0.0407 0.3707
H53 H 0.3566 0.0881 0.3171
H54 H 0.3057 0.0347 0.3667
N4 N 0.83638(8) 0.17420(7) 0.52423(6)
C37 C 0.63923(9) 0.16666(8) 0.45758(6)
C38 C 0.66996(10) 0.11126(8) 0.49739(7)
H55 H 0.6458 0.0708 0.5102
C39 C 0.73447(10) 0.11317(8) 0.51886(7)
H56 H 0.7524 0.0743 0.5465
C40 C 0.77427(9) 0.17101(8) 0.50106(7)
C41 C 0.74438(10) 0.22690(8) 0.45952(7)
H57 H 0.7698 0.2669 0.4454
C42 C 0.67897(10) 0.22461(8) 0.43896(7)
H58 H 0.6605 0.2633 0.4115
C43 C 0.89384(10) 0.11895(8) 0.54177(8)
H59 H 0.9421 0.1392 0.5399
C44 C 0.87384(13) 0.07194(9) 0.60179(9)
H60 H 0.8595 0.0975 0.6246
H61 H 0.9184 0.0423 0.6138
H62 H 0.8308 0.0461 0.6052
C45 C 0.91329(11) 0.08279(9) 0.50326(9)
H63 H 0.8672 0.0635 0.5021
H64 H 0.9529 0.0478 0.5165
H65 H 0.9323 0.1139 0.4665
C46 C 0.86204(10) 0.23942(8) 0.51452(7)
H66 H 0.8161 0.2709 0.5082
C47 C 0.89090(11) 0.23820(9) 0.56492(8)
H67 H 0.8531 0.2184 0.5973
H68 H 0.8985 0.2833 0.5601
H69 H 0.9396 0.2122 0.5697
C48 C 0.92156(10) 0.26582(9) 0.46348(8)
H70 H 0.9679 0.2366 0.4684
H71 H 0.9342 0.3101 0.4578
H72 H 0.9007 0.2678 0.4316
N5 N 1.14644(8) 0.15605(7) 0.63141(6)
C49 C 1.11186(9) 0.16313(8) 0.47665(7)
C50 C 1.13291(10) 0.21788(8) 0.48342(7)
H73 H 1.1401 0.2580 0.4523
C51 C 1.14365(10) 0.21573(8) 0.53360(7)
H74 H 1.1584 0.2542 0.5358
C52 C 1.13338(9) 0.15813(8) 0.58163(7)
C53 C 1.11255(9) 0.10296(8) 0.57493(7)
H75 H 1.1046 0.0629 0.6061
C54 C 1.10331(10) 0.10553(8) 0.52406(7)
H76 H 1.0907 0.0667 0.5214
C55 C 1.12496(11) 0.21224(8) 0.64795(7)
H77 H 1.1162 0.1928 0.6889
C56 C 1.18965(13) 0.25967(9) 0.63156(8)
H78 H 1.2380 0.2343 0.6405
H79 H 1.1778 0.2886 0.6516
H80 H 1.1945 0.2863 0.5922
C57 C 1.04945(12) 0.24838(9) 0.63047(8)
H81 H 1.0543 0.2679 0.5904
H82 H 1.0370 0.2832 0.6446
H83 H 1.0086 0.2172 0.6452
C58 C 1.15723(10) 0.09126(8) 0.67628(7)
H84 H 1.1786 0.0595 0.6591
C59 C 1.21599(11) 0.09341(9) 0.71047(7)
H85 H 1.2635 0.1103 0.6864
H86 H 1.2264 0.0489 0.7372
H87 H 1.1957 0.1223 0.7297
C60 C 1.08188(11) 0.06512(8) 0.71213(7)
H88 H 1.0454 0.0644 0.6891
H89 H 1.0607 0.0938 0.7314
H90 H 1.0913 0.0204 0.7388
N6 N 1.06598(9) 0.17309(7) 0.26774(6)
C61 C 1.09994(9) 0.16604(8) 0.42283(6)
C62 C 1.10354(10) 0.10926(8) 0.41185(7)
H91 H 1.1144 0.0677 0.4397
C63 C 1.09181(10) 0.11177(8) 0.36170(7)
H92 H 1.0933 0.0717 0.3567
C64 C 1.07779(9) 0.17168(8) 0.31767(7)
C65 C 1.07342(10) 0.22839(8) 0.32908(7)
H93 H 1.0633 0.2701 0.3012
C66 C 1.08346(10) 0.22519(8) 0.38003(7)
H94 H 1.0789 0.2648 0.3860
C67 C 1.10196(12) 0.12350(9) 0.24686(7)
H95 H 1.1053 0.1457 0.2062
C68 C 1.18494(13) 0.10278(10) 0.25804(8)
H96 H 1.1853 0.0772 0.2973
H97 H 1.2141 0.1421 0.2463
H98 H 1.2084 0.0758 0.2377
C69 C 1.05303(15) 0.06436(10) 0.26350(9)
H99 H 1.0026 0.0797 0.2516
H100 H 1.0468 0.0408 0.3033
H101 H 1.0784 0.0347 0.2462
C70 C 1.03895(12) 0.23548(9) 0.22728(8)
H102 H 1.0095 0.2614 0.2479
C71 C 1.10549(14) 0.27590(10) 0.19019(9)
H103 H 1.1351 0.2522 0.1688
H104 H 1.1386 0.2830 0.2125
H105 H 1.0856 0.3185 0.1654
C72 C 0.98419(14) 0.22442(11) 0.19447(9)
H106 H 0.9438 0.1962 0.2196
H107 H 1.0125 0.2031 0.1708
H108 H 0.9611 0.2669 0.1720
N7 N 0.79700(9) 0.15828(7) 0.29339(6)
C73 C 0.77289(10) 0.16607(8) 0.13665(7)
C74 C 0.76807(12) 0.22271(9) 0.14716(7)
H109 H 0.7588 0.2641 0.1187
C75 C 0.77636(12) 0.22061(9) 0.19783(8)
H110 H 0.7743 0.2608 0.2027
C76 C 0.78778(10) 0.16070(8) 0.24265(7)
C77 C 0.79059(11) 0.10384(9) 0.23196(7)
H111 H 0.7966 0.0620 0.2608
C78 C 0.78483(11) 0.10692(8) 0.18045(7)
H112 H 0.7892 0.0671 0.1748
C79 C 0.75946(13) 0.20830(9) 0.31352(8)
H113 H 0.7548 0.1864 0.3543
C80 C 0.80853(15) 0.26614(10) 0.29760(9)
H114 H 0.8600 0.2500 0.3070
H115 H 0.7855 0.2939 0.3173
H116 H 0.8118 0.2920 0.2581
C81 C 0.67681(13) 0.22974(11) 0.30088(9)
H117 H 0.6776 0.2540 0.2614
H118 H 0.6534 0.2581 0.3200
H119 H 0.6469 0.1907 0.3133
C82 C 0.81978(10) 0.09491(8) 0.33590(7)
H120 H 0.8486 0.0673 0.3166
C83 C 0.87412(12) 0.10466(10) 0.36962(8)
H121 H 0.9178 0.1290 0.3451
H122 H 0.8926 0.0617 0.3947
H123 H 0.8469 0.1296 0.3907
C84 C 0.75058(12) 0.05681(9) 0.37256(8)
H124 H 0.7219 0.0816 0.3933
H125 H 0.7683 0.0137 0.3980
H126 H 0.7173 0.0507 0.3498
N8 N 0.7406(3) 0.18416(14) -0.07771(16)
C85 C 0.7639(6) 0.1693(4) 0.0810(4)
C86 C 0.74161(16) 0.1158(2) 0.07273(15)
H127 H 0.7302 0.0759 0.1034
C87 C 0.7359(2) 0.1201(2) 0.02053(18)
H128 H 0.7207 0.0831 0.0164
C88 C 0.7523(10) 0.1783(3) -0.0262(2)
C89 C 0.77287(19) 0.2320(2) -0.01776(16)
H129 H 0.7836 0.2722 -0.0482
C90 C 0.7779(2) 0.2273(3) 0.0344(2)
H130 H 0.7912 0.2649 0.0387
C91 C 0.75464(19) 0.12853(15) -0.09445(12)
H131 H 0.7639 0.1485 -0.1353
C92 C 0.8263(2) 0.08504(17) -0.07729(14)
H132 H 0.8704 0.1125 -0.0883
H133 H 0.8354 0.0536 -0.0950
H134 H 0.8191 0.0610 -0.0375
C93 C 0.6830(2) 0.0893(2) -0.07952(16)
H135 H 0.6720 0.0666 -0.0397
H136 H 0.6917 0.0568 -0.0962
H137 H 0.6394 0.1193 -0.0932
C94 C 0.7492(2) 0.25118(16) -0.12437(12)
H138 H 0.7309 0.2845 -0.1081
C95 C 0.8319(2) 0.26407(17) -0.14872(15)
H139 H 0.8608 0.2630 -0.1206
H140 H 0.8349 0.3074 -0.1790
H141 H 0.8538 0.2302 -0.1624
C96 C 0.6977(3) 0.26144(19) -0.16645(15)
H142 H 0.7210 0.2384 -0.1901
H143 H 0.6911 0.3086 -0.1887
H144 H 0.6477 0.2440 -0.1478
N9 N 0.89749(8) 0.50664(7) 0.24693(6)
C97 C 0.70213(9) 0.50021(7) 0.17761(6)
C98 C 0.73981(10) 0.55815(8) 0.16171(7)
H145 H 0.7205 0.5974 0.1352
C99 C 0.80439(10) 0.56089(8) 0.18304(7)
H146 H 0.8279 0.6016 0.1707
C100 C 0.83563(9) 0.50443(8) 0.22263(6)
C101 C 0.79871(10) 0.44591(8) 0.23807(7)
H147 H 0.8182 0.4065 0.2644
C102 C 0.73462(10) 0.44378(8) 0.21614(7)
H148 H 0.7120 0.4029 0.2275
C103 C 0.92270(10) 0.57161(8) 0.23813(7)
H149 H 0.8764 0.6027 0.2328
C104 C 0.98124(11) 0.59961(10) 0.18675(8)
H150 H 1.0288 0.5718 0.1914
H151 H 0.9918 0.6444 0.1809
H152 H 0.9606 0.6005 0.1551
C105 C 0.95246(13) 0.56926(10) 0.28877(9)
H153 H 0.9151 0.5488 0.3213
H154 H 0.9600 0.6141 0.2845
H155 H 1.0013 0.5433 0.2929
C106 C 0.95486(10) 0.45119(9) 0.26355(8)
H156 H 1.0027 0.4710 0.2632
C107 C 0.97606(11) 0.41745(10) 0.22344(9)
H157 H 0.9315 0.3959 0.2228
H158 H 1.0182 0.3845 0.2350
H159 H 0.9921 0.4503 0.1868
C108 C 0.93444(12) 0.40141(10) 0.32258(8)
H160 H 0.9206 0.4249 0.3470
H161 H 0.9787 0.3708 0.3337
H162 H 0.8910 0.3767 0.3246
N10 N 0.43826(15) 0.50610(8) 0.07946(12)
C109 C 0.6328(3) 0.4991(2) 0.1547(3)
C110 C 0.6097(2) 0.44291(18) 0.15169(9)
H163 H 0.6389 0.4026 0.1660
C111 C 0.5451(2) 0.44428(17) 0.12827(10)
H164 H 0.5317 0.4049 0.1270
C112 C 0.4993(3) 0.50281(16) 0.1065(3)
C113 C 0.52203(14) 0.55884(13) 0.11066(10)
H165 H 0.4926 0.5992 0.0971
C114 C 0.58608(16) 0.55666(15) 0.13400(10)
H166 H 0.5990 0.5957 0.1361
C115 C 0.38874(12) 0.45043(10) 0.09573(8)
H167 H 0.3389 0.4705 0.0825
C116 C 0.41835(14) 0.40369(11) 0.06665(10)
H168 H 0.4671 0.3817 0.0785
H169 H 0.4261 0.4289 0.0270
H170 H 0.3808 0.3706 0.0759
C117 C 0.36969(14) 0.41420(12) 0.15761(10)
H171 H 0.4171 0.3963 0.1734
H172 H 0.3367 0.3781 0.1657
H173 H 0.3430 0.4449 0.1734
C118 C 0.40519(12) 0.57157(10) 0.04752(8)
H174 H 0.4479 0.6023 0.0327
C119 C 0.37204(14) 0.57305(11) -0.00141(9)
H175 H 0.4090 0.5515 -0.0214
H176 H 0.3614 0.6188 -0.0257
H177 H 0.3244 0.5498 0.0115
C120 C 0.34512(13) 0.59831(11) 0.08278(10)
H178 H 0.3673 0.5977 0.1137
H179 H 0.3008 0.5708 0.0965
H180 H 0.3287 0.6436 0.0607
N11 N 0.82456(9) 0.81990(7) 0.13840(6)
C121 C 1.01589(10) 0.82954(8) 0.21023(7)
C122 C 0.97786(10) 0.77133(8) 0.22719(7)
H181 H 0.9960 0.7328 0.2550
C123 C 0.91462(10) 0.76781(8) 0.20488(7)
H182 H 0.8906 0.7272 0.2181
C124 C 0.88526(10) 0.82324(8) 0.16299(7)
C125 C 0.92366(11) 0.88162(8) 0.14588(7)
H183 H 0.9062 0.9203 0.1178
C126 C 0.98646(10) 0.88413(8) 0.16906(7)
H184 H 1.0104 0.9247 0.1563
C127 C 0.79909(10) 0.75437(9) 0.14935(7)
H185 H 0.8454 0.7233 0.1554
C128 C 0.76879(12) 0.75364(10) 0.09997(8)
H186 H 0.7185 0.7773 0.0965
H187 H 0.7640 0.7080 0.1050
H188 H 0.8045 0.7751 0.0667
C129 C 0.74095(11) 0.72813(10) 0.20100(8)
H189 H 0.7624 0.7276 0.2322
H190 H 0.7292 0.6833 0.2077
H191 H 0.6939 0.7566 0.1963
C130 C 0.76872(11) 0.87579(9) 0.11814(8)
H192 H 0.7213 0.8560 0.1178
C131 C 0.79340(14) 0.92236(10) 0.05854(9)
H193 H 0.8340 0.9494 0.0572
H194 H 0.7493 0.9509 0.0439
H195 H 0.8126 0.8964 0.0366
C132 C 0.74489(12) 0.91284(10) 0.15557(10)
H196 H 0.7253 0.8820 0.1923
H197 H 0.7048 0.9467 0.1411
H198 H 0.7893 0.9337 0.1574
C133 C 1.08345(10) 0.83176(8) 0.23443(7)
C134 C 1.10964(10) 0.89036(8) 0.23088(7)
H199 H 1.0828 0.9307 0.2124
C135 C 1.17351(10) 0.89161(8) 0.25337(7)
H200 H 1.1889 0.9327 0.2499
C136 C 1.21623(10) 0.83374(8) 0.28115(7)
C137 C 1.18807(11) 0.77455(8) 0.28635(8)
H201 H 1.2136 0.7339 0.3060
C138 C 1.12441(11) 0.77401(9) 0.26365(8)
H202 H 1.1078 0.7329 0.2680
N12 N 1.2803(4) 0.8329(2) 0.3042(4)
C139 C 1.33516(14) 0.88505(11) 0.27731(10)
H203 H 1.3853 0.8641 0.2896
C140 C 1.31773(17) 0.94172(12) 0.29629(13)
H204 H 1.2705 0.9661 0.2834
H205 H 1.3602 0.9713 0.2813
H206 H 1.3113 0.9242 0.3363
C141 C 1.34862(16) 0.90790(13) 0.21495(11)
H207 H 1.3614 0.8696 0.2052
H208 H 1.3910 0.9375 0.1996
H209 H 1.3021 0.9312 0.2001
C142 C 1.31081(14) 0.76944(11) 0.34214(10)
H210 H 1.2665 0.7405 0.3600
C143 C 1.34243(17) 0.77818(14) 0.38747(11)
H211 H 1.3883 0.8038 0.3720
H212 H 1.3558 0.7349 0.4148
H213 H 1.3036 0.8015 0.4048
C144 C 1.36950(16) 0.73376(12) 0.31301(12)
H214 H 1.3471 0.7291 0.2842
H215 H 1.3836 0.6901 0.3395
H216 H 1.4153 0.7593 0.2968
N13 N 0.58934(9) 0.83079(7) 0.40059(6)
C145 C 0.55669(9) 0.82614(8) 0.24912(7)
C146 C 0.54631(11) 0.88404(8) 0.25871(7)
H217 H 0.5326 0.9239 0.2301
C147 C 0.55516(11) 0.88571(8) 0.30817(7)
H218 H 0.5466 0.9264 0.3126
C148 C 0.57640(10) 0.82901(8) 0.35179(7)
C149 C 0.58720(11) 0.77060(8) 0.34248(7)
H219 H 0.6018 0.7308 0.3708
C150 C 0.57713(11) 0.76938(8) 0.29311(7)
H220 H 0.5844 0.7286 0.2890
C151 C 0.59732(11) 0.89529(8) 0.40182(7)
H221 H 0.6188 0.9247 0.3640
C152 C 0.65538(13) 0.88980(10) 0.43938(8)
H222 H 0.6354 0.8627 0.4773
H223 H 0.6640 0.9338 0.4366
H224 H 0.7038 0.8694 0.4283
C153 C 0.52153(13) 0.92853(10) 0.41694(9)
H225 H 0.4853 0.9313 0.3926
H226 H 0.5304 0.9730 0.4131
H227 H 0.5003 0.9027 0.4549
C154 C 0.56437(13) 0.77860(9) 0.45469(7)
H228 H 0.5547 0.8007 0.4811
C155 C 0.48900(14) 0.75078(10) 0.45811(9)
H229 H 0.4501 0.7869 0.4463
H230 H 0.4726 0.7210 0.4959
H231 H 0.4955 0.7264 0.4343
C156 C 0.62785(16) 0.72524(10) 0.47459(8)
H232 H 0.6402 0.7019 0.4500
H233 H 0.6103 0.6941 0.5117
H234 H 0.6736 0.7457 0.4748
N14 N 0.52971(17) 0.82091(11) 0.04134(11)
C157 C 0.5471(7) 0.8240(4) 0.1964(3)
C158 C 0.5432(3) 0.7652(2) 0.18976(19)
H235 H 0.5435 0.7249 0.2209
C159 C 0.53907(18) 0.76351(15) 0.13935(14)
H236 H 0.5386 0.7221 0.1370
C160 C 0.5356(3) 0.82138(14) 0.09158(15)
C161 C 0.5365(4) 0.8805(2) 0.0993(2)
H237 H 0.5318 0.9212 0.0691
C162 C 0.5441(8) 0.8815(4) 0.1491(3)
H238 H 0.5473 0.9227 0.1512
C163 C 0.51986(15) 0.75793(12) 0.03712(10)
H239 H 0.4946 0.7281 0.0736
C164 C 0.59618(16) 0.72384(12) 0.02501(11)
H240 H 0.6235 0.7523 -0.0101
H241 H 0.5870 0.6822 0.0233
H242 H 0.6272 0.7151 0.0541
C165 C 0.46636(18) 0.76777(14) -0.00430(12)
H243 H 0.4180 0.7898 0.0048
H244 H 0.4563 0.7249 -0.0033
H245 H 0.4905 0.7950 -0.0411
C166 C 0.55959(15) 0.87366(11) -0.01048(9)
H246 H 0.5702 0.8531 -0.0380
C167 C 0.63659(16) 0.89827(13) -0.01022(11)
H247 H 0.6289 0.9236 0.0128
H248 H 0.6574 0.9263 -0.0476
H249 H 0.6726 0.8605 0.0043
C168 C 0.49952(18) 0.92964(13) -0.03172(13)
H250 H 0.4549 0.9121 -0.0370
H251 H 0.5214 0.9627 -0.0667
H252 H 0.4837 0.9500 -0.0051
C169 C 0.16602(9) 0.49835(8) 0.14394(7)
C170 C 0.14918(10) 0.55704(8) 0.10086(7)
H253 H 0.1428 0.5968 0.1067
C171 C 0.14136(11) 0.55954(9) 0.04991(7)
H254 H 0.1316 0.6010 0.0216
C172 C 0.14748(10) 0.50207(9) 0.03912(7)
C173 C 0.16329(11) 0.44250(9) 0.08337(7)
H255 H 0.1673 0.4023 0.0784
C174 C 0.17299(10) 0.44116(8) 0.13350(7)
H256 H 0.1847 0.4002 0.1617
N15 N 0.13647(17) 0.50485(9) -0.01119(10)
C175 C 0.10774(13) 0.56639(10) -0.05185(9)
H257 H 0.0769 0.5918 -0.0313
C176 C 0.05396(15) 0.55342(12) -0.08446(10)
H258 H 0.0827 0.5299 -0.1063
H259 H 0.0323 0.5954 -0.1088
H260 H 0.0125 0.5267 -0.0592
C177 C 0.17237(15) 0.60928(11) -0.08974(10)
H261 H 0.2049 0.6180 -0.0679
H262 H 0.1505 0.6510 -0.1144
H263 H 0.2032 0.5863 -0.1113
C178 C 0.17595(13) 0.45610(10) -0.03249(8)
H264 H 0.1783 0.4782 -0.0731
C179 C 0.13066(15) 0.39511(12) -0.01554(10)
H265 H 0.1292 0.3695 0.0238
H266 H 0.1554 0.3681 -0.0355
H267 H 0.0783 0.4086 -0.0240
C180 C 0.25984(13) 0.43854(11) -0.02229(9)
H268 H 0.2870 0.4790 -0.0346
H269 H 0.2845 0.4119 -0.0426
H270 H 0.2615 0.4135 0.0169
N16 N 0.20030(17) 0.48304(11) 0.35680(10)
C181 C 0.1762(5) 0.4944(2) 0.1993(2)
C182 C 0.16107(16) 0.4371(2) 0.24641(16)
H271 H 0.1462 0.3996 0.2429
C183 C 0.16712(16) 0.43355(14) 0.29799(12)
H272 H 0.1548 0.3942 0.3289
C184 C 0.1911(3) 0.48707(13) 0.30560(13)
C185 C 0.20771(15) 0.54424(13) 0.25793(10)
H273 H 0.2246 0.5814 0.2610
C186 C 0.19999(15) 0.54751(13) 0.20673(11)
H274 H 0.2112 0.5871 0.1757
C187 C 0.19458(16) 0.41776(12) 0.40320(10)
H275 H 0.2129 0.3837 0.3878
C188 C 0.11145(17) 0.40389(12) 0.43037(11)
H276 H 0.0903 0.4381 0.4439
H277 H 0.1101 0.3608 0.4610
H278 H 0.0808 0.4039 0.4035
C189 C 0.2459(2) 0.40967(16) 0.44505(12)
H279 H 0.2959 0.4270 0.4262
H280 H 0.2526 0.3629 0.4684
H281 H 0.2222 0.4339 0.4677
C190 C 0.18610(14) 0.54025(12) 0.37229(10)
H282 H 0.1743 0.5215 0.4131
C191 C 0.11597(15) 0.58449(12) 0.35196(10)
H283 H 0.1238 0.6040 0.3119
H284 H 0.1086 0.6195 0.3659
H285 H 0.0706 0.5583 0.3651
C192 C 0.25780(16) 0.57972(15) 0.35853(12)
H286 H 0.3023 0.5493 0.3691
H287 H 0.2502 0.6087 0.3786
H288 H 0.2666 0.6063 0.3191
N17 N 0.9591(3) 0.84242(17) -0.0335(3)
C193 C 0.7638(3) 0.8422(2) -0.1052(2)
C194 C 0.80373(14) 0.89926(13) -0.12088(10)
H289 H 0.7860 0.9390 -0.1478
C195 C 0.86793(14) 0.89987(12) -0.09865(10)
H290 H 0.8925 0.9399 -0.1102
C196 C 0.8977(3) 0.8420(2) -0.0590(3)
C197 C 0.8569(2) 0.78467(19) -0.04320(15)
H291 H 0.8739 0.7449 -0.0159
C198 C 0.7931(3) 0.7846(2) -0.0662(2)
H292 H 0.7687 0.7445 -0.0553
C199 C 0.99068(15) 0.90634(12) -0.04570(11)
H293 H 0.9468 0.9400 -0.0520
C200 C 1.04845(14) 0.92807(12) -0.09835(12)
H294 H 1.0920 0.8958 -0.0941
H295 H 1.0666 0.9711 -0.1056
H296 H 1.0237 0.9312 -0.1290
C201 C 1.02456(18) 0.90587(15) 0.00258(14)
H297 H 0.9872 0.8896 0.0358
H298 H 1.0369 0.9507 -0.0046
H299 H 1.0713 0.8770 0.0075
C202 C 1.01265(14) 0.78429(11) -0.01387(10)
H300 H 1.0614 0.8020 -0.0131
C203 C 1.03389(14) 0.74875(11) -0.05291(11)
H301 H 0.9885 0.7290 -0.0547
H302 H 1.0738 0.7142 -0.0396
H303 H 1.0529 0.7803 -0.0895
C204 C 0.98745(16) 0.73762(13) 0.04492(10)
H304 H 0.9755 0.7626 0.0683
H305 H 1.0289 0.7044 0.0578
H306 H 0.9418 0.7158 0.0464
N18 N 0.49940(10) 0.85010(10) -0.20368(8)
C205 C 0.6944(2) 0.84251(14) -0.12885(16)
C206 C 0.67117(12) 0.78690(10) -0.13266(9)
H307 H 0.7003 0.7465 -0.1187
C207 C 0.60708(12) 0.78857(10) -0.15613(9)
H308 H 0.5938 0.7494 -0.1578
C208 C 0.56103(14) 0.84687(11) -0.17752(10)
C209 C 0.58392(12) 0.90254(11) -0.17270(9)
H309 H 0.5542 0.9428 -0.1857
C210 C 0.64838(12) 0.90030(11) -0.14955(9)
H310 H 0.6618 0.9393 -0.1477
C211 C 0.45158(12) 0.79318(11) -0.18845(9)
H311 H 0.4014 0.8126 -0.2015
C212 C 0.48355(15) 0.74861(11) -0.21938(11)
H312 H 0.4913 0.7753 -0.2588
H313 H 0.4471 0.7150 -0.2114
H314 H 0.5325 0.7272 -0.2077
C213 C 0.43260(14) 0.75472(12) -0.12720(10)
H315 H 0.4799 0.7345 -0.1118
H316 H 0.3979 0.7202 -0.1203
H317 H 0.4078 0.7846 -0.1099
C214 C 0.46372(12) 0.91525(9) -0.23409(8)
H318 H 0.5051 0.9473 -0.2486
C215 C 0.43160(15) 0.91647(11) -0.28329(9)
H319 H 0.4707 0.8983 -0.3047
H320 H 0.4170 0.9620 -0.3061
H321 H 0.3865 0.8900 -0.2706
C216 C 0.40321(13) 0.93845(12) -0.19714(11)
H322 H 0.3638 0.9061 -0.1796
H323 H 0.3797 0.9810 -0.2190
H324 H 0.4273 0.9432 -0.1690
N19? N 0.7430(7) 0.1631(3) -0.0694(4)
C217? C 0.7670(12) 0.1689(7) 0.0842(7)
C218? C 0.7681(4) 0.1109(4) 0.0750(3)
H325? H 0.7754 0.0699 0.1044
C219? C 0.7594(5) 0.1104(5) 0.0258(4)
H326? H 0.7616 0.0691 0.0227
C220? C 0.748(2) 0.1676(7) -0.0201(5)
C221? C 0.7463(4) 0.2257(4) -0.0114(4)
H327? H 0.7390 0.2665 -0.0410
C222? C 0.7553(6) 0.2268(7) 0.0383(5)
H328? H 0.7535 0.2680 0.0414
C223? C 0.7301(4) 0.1005(3) -0.0722(2)
H329? H 0.7020 0.0734 -0.0357
C224? C 0.8033(4) 0.0599(3) -0.0807(3)
H330? H 0.8318 0.0834 -0.1169
H331? H 0.7899 0.0171 -0.0781
H332? H 0.8351 0.0530 -0.0525
C225? C 0.6781(4) 0.1082(4) -0.1150(3)
H333? H 0.7073 0.1259 -0.1518
H334? H 0.6341 0.1384 -0.1124
H335? H 0.6600 0.0652 -0.1079
C226? C 0.7716(4) 0.2155(3) -0.1239(2)
H336? H 0.7796 0.1940 -0.1507
C227? C 0.8508(4) 0.2373(3) -0.1241(3)
H337? H 0.8463 0.2590 -0.0985
H338? H 0.8699 0.2680 -0.1610
H339? H 0.8865 0.1986 -0.1130
C228? C 0.7119(5) 0.2717(4) -0.1438(3)
H340? H 0.6636 0.2538 -0.1428
H341? H 0.7299 0.3012 -0.1814
H342? H 0.7038 0.2962 -0.1201
N20? N 0.4395(8) 0.4889(6) 0.0848(7)
C229? C 0.6336(17) 0.4998(12) 0.1549(13)
C230? C 0.6039(12) 0.4400(11) 0.1646(8)
H343? H 0.6275 0.4002 0.1875
C231? C 0.5409(12) 0.4369(10) 0.1418(8)
H344? H 0.5230 0.3949 0.1501
C232? C 0.5027(16) 0.4926(9) 0.1073(15)
C233? C 0.5312(9) 0.5522(8) 0.0984(6)
H345? H 0.5065 0.5920 0.0763
C234? C 0.5949(10) 0.5556(9) 0.1207(7)
H346? H 0.6127 0.5977 0.1123
C235? C 0.4162(6) 0.4236(5) 0.0929(4)
H347? H 0.4643 0.3947 0.0957
C236? C 0.3859(7) 0.4267(5) 0.0422(5)
H348? H 0.4207 0.4511 0.0094
H349? H 0.3349 0.4492 0.0404
H350? H 0.3826 0.3820 0.0445
C237? C 0.3629(7) 0.3906(6) 0.1472(5)
H351? H 0.3896 0.3838 0.1780
H352? H 0.3488 0.3480 0.1498
H353? H 0.3165 0.4190 0.1482
C238? C 0.3775(6) 0.5396(5) 0.0742(4)
H354? H 0.3313 0.5172 0.0756
C239? C 0.3927(7) 0.5912(6) 0.0157(5)
H355? H 0.4424 0.6097 0.0100
H356? H 0.3522 0.6264 0.0099
H357? H 0.3932 0.5705 -0.0102
C240? C 0.3557(6) 0.5704(6) 0.1160(5)
H358? H 0.3996 0.5924 0.1172
H359? H 0.3408 0.5360 0.1521
H360? H 0.3126 0.6026 0.1057
N21? N 1.2778(11) 0.8388(6) 0.3061(12)
C241? C 1.2981(4) 0.9032(3) 0.3028(3)
H361? H 1.2490 0.9300 0.3041
C242? C 1.3343(4) 0.8950(3) 0.3525(3)
H362? H 1.3060 0.8635 0.3856
H363? H 1.3324 0.9376 0.3555
H364? H 1.3878 0.8785 0.3483
C243? C 1.3470(4) 0.9411(4) 0.2494(3)
H365? H 1.3938 0.9145 0.2448
H366? H 1.3607 0.9822 0.2500
H367? H 1.3182 0.9512 0.2190
C244? C 1.3414(4) 0.7878(3) 0.3161(3)
H368? H 1.3869 0.8096 0.3171
C245? C 1.3243(5) 0.7325(4) 0.3734(3)
H369? H 1.3091 0.7519 0.4007
H370? H 1.3703 0.7034 0.3821
H371? H 1.2826 0.7071 0.3738
C246? C 1.3653(4) 0.7610(3) 0.2718(3)
H372? H 1.3239 0.7362 0.2709
H373? H 1.4115 0.7318 0.2797
H374? H 1.3761 0.7976 0.2363
N22? N 0.5190(6) 0.8421(4) 0.0387(4)
C247? C 0.5479(19) 0.8308(12) 0.1948(10)
C248? C 0.5287(11) 0.7764(9) 0.1874(6)
H375? H 0.5219 0.7360 0.2182
C249? C 0.5190(7) 0.7791(5) 0.1360(5)
H376? H 0.5050 0.7411 0.1328
C250? C 0.5300(11) 0.8378(6) 0.0895(5)
C251? C 0.5476(13) 0.8938(8) 0.0962(7)
H377? H 0.5557 0.9343 0.0656
C252? C 0.553(3) 0.8886(12) 0.1482(9)
H378? H 0.5599 0.9277 0.1525
C253? C 0.5353(4) 0.7859(4) 0.0211(3)
H379? H 0.5428 0.8062 -0.0198
C254? C 0.6097(4) 0.7474(4) 0.0364(3)
H380? H 0.6523 0.7765 0.0190
H381? H 0.6169 0.7111 0.0239
H382? H 0.6079 0.7295 0.0762
C255? C 0.4669(5) 0.7424(4) 0.0374(3)
H383? H 0.4566 0.7207 0.0774
H384? H 0.4786 0.7091 0.0217
H385? H 0.4216 0.7698 0.0236
C256? C 0.5117(4) 0.9072(3) -0.0050(3)
H386? H 0.4893 0.9380 0.0131
C257? C 0.5876(5) 0.9342(4) -0.0387(3)
H387? H 0.6220 0.9352 -0.0144
H388? H 0.5785 0.9789 -0.0655
H389? H 0.6112 0.9058 -0.0577
C258? C 0.4549(5) 0.9094(4) -0.0433(3)
H390? H 0.4759 0.8815 -0.0633
H391? H 0.4471 0.9548 -0.0693
H392? H 0.4057 0.8933 -0.0214
N23? N 0.1408(16) 0.4901(8) -0.0101(8)
C259? C 0.1681(9) 0.5416(7) -0.0630(6)
H393? H 0.1793 0.5202 -0.0899
C260? C 0.1060(10) 0.5944(9) -0.0825(8)
H394? H 0.0580 0.5739 -0.0779
H395? H 0.1206 0.6219 -0.1213
H396? H 0.0989 0.6217 -0.0611
C261? C 0.2422(10) 0.5722(9) -0.0655(8)
H397? H 0.2313 0.6023 -0.0465
H398? H 0.2631 0.5966 -0.1038
H399? H 0.2796 0.5373 -0.0479
C262? C 0.1373(9) 0.4256(8) -0.0130(6)
H400? H 0.1153 0.3956 0.0245
C263? C 0.0833(11) 0.4265(9) -0.0502(7)
H401? H 0.0307 0.4237 -0.0311
H402? H 0.0964 0.3889 -0.0608
H403? H 0.0876 0.4675 -0.0830
C264? C 0.2159(9) 0.3949(9) -0.0247(7)
H404? H 0.2396 0.4214 -0.0617
H405? H 0.2107 0.3501 -0.0216
H406? H 0.2481 0.3934 0.0018
N24? N 0.1966(7) 0.5050(4) 0.3482(4)
C265? C 0.1728(16) 0.4997(8) 0.1947(8)
C266? C 0.1801(8) 0.4428(8) 0.2419(6)
H407? H 0.1797 0.4013 0.2398
C267? C 0.1879(7) 0.4442(6) 0.2922(5)
H408? H 0.1936 0.4039 0.3226
C268? C 0.1876(12) 0.5036(6) 0.2985(5)
C269? C 0.1825(6) 0.5601(4) 0.2510(4)
H409? H 0.1845 0.6016 0.2528
C270? C 0.1749(6) 0.5588(5) 0.2013(4)
H410? H 0.1709 0.5993 0.1707
C271? C 0.1689(5) 0.4533(4) 0.4021(3)
H411? H 0.1597 0.4750 0.4288
C272? C 0.0906(5) 0.4282(4) 0.4033(4)
H412? H 0.0541 0.4658 0.3899
H413? H 0.0713 0.3996 0.4409
H414? H 0.0970 0.4034 0.3799
C273? C 0.2287(7) 0.3977(5) 0.4227(4)
H415? H 0.2426 0.3765 0.3966
H416? H 0.2077 0.3653 0.4583
H417? H 0.2743 0.4154 0.4265
C274? C 0.2073(5) 0.5679(4) 0.3516(3)
H418? H 0.2339 0.5962 0.3150
C275? C 0.1303(5) 0.6051(4) 0.3606(3)
H419? H 0.1022 0.6152 0.3298
H420? H 0.1401 0.6461 0.3632
H421? H 0.0998 0.5775 0.3946
C276? C 0.2595(5) 0.5616(5) 0.3934(4)
H422? H 0.2304 0.5456 0.4302
H423? H 0.2787 0.6047 0.3848
H424? H 0.3028 0.5304 0.3916
N25? N 0.9553(11) 0.8368(7) -0.0325(10)
C277? C 0.7583(14) 0.8353(10) -0.1024(11)
C278? C 0.7847(6) 0.8933(6) -0.1050(5)
H425? H 0.7579 0.9338 -0.1234
C279? C 0.8471(6) 0.8948(5) -0.0823(4)
H426? H 0.8624 0.9361 -0.0863
C280? C 0.8895(14) 0.8375(8) -0.0534(14)
C281? C 0.8662(11) 0.7788(9) -0.0524(8)
H427? H 0.8959 0.7389 -0.0374
C282? C 0.8005(13) 0.7789(11) -0.0729(11)
H428? H 0.7826 0.7375 -0.0666
C283? C 1.0098(6) 0.8886(5) -0.0592(4)
H429? H 1.0598 0.8675 -0.0468
C284? C 1.0249(6) 0.9140(5) -0.1222(4)
H430? H 1.0396 0.8768 -0.1331
H431? H 1.0663 0.9446 -0.1362
H432? H 0.9782 0.9369 -0.1372
C285? C 0.9911(7) 0.9432(6) -0.0379(6)
H433? H 0.9411 0.9647 -0.0471
H434? H 1.0305 0.9756 -0.0548
H435? H 0.9898 0.9244 0.0019
C286? C 0.9851(6) 0.7719(5) 0.0055(4)
H436? H 0.9406 0.7433 0.0234
C287? C 1.0426(6) 0.7378(5) -0.0257(5)
H437? H 1.0194 0.7353 -0.0551
H438? H 1.0565 0.6933 -0.0005
H439? H 1.0887 0.7631 -0.0414
C288? C 1.0178(6) 0.7806(5) 0.0501(4)
H440? H 1.0666 0.8019 0.0348
H441? H 1.0263 0.7375 0.0792
H442? H 0.9818 0.8081 0.0650
N26? N 0.4939(6) 0.8234(5) -0.1922(5)
C289? C 0.6886(12) 0.8327(8) -0.1241(9)
C290? C 0.6508(6) 0.7751(5) -0.1062(5)
H443? H 0.6692 0.7367 -0.0784
C291? C 0.5869(6) 0.7720(5) -0.1278(5)
H444? H 0.5630 0.7314 -0.1147
C292? C 0.5567(9) 0.8274(7) -0.1685(7)
C293? C 0.5938(7) 0.8852(6) -0.1868(5)
H445? H 0.5758 0.9236 -0.2149
C294? C 0.6579(7) 0.8870(6) -0.1641(5)
H446? H 0.6817 0.9277 -0.1767
C295? C 0.4676(7) 0.7568(6) -0.1816(5)
H447? H 0.5134 0.7253 -0.1753
C296? C 0.4388(9) 0.7587(6) -0.2318(5)
H448? H 0.3853 0.7760 -0.2319
H449? H 0.4421 0.7141 -0.2311
H450? H 0.4703 0.7872 -0.2648
C297? C 0.4087(8) 0.7321(7) -0.1292(5)
H451? H 0.4322 0.7281 -0.0978
H452? H 0.3923 0.6890 -0.1236
H453? H 0.3642 0.7634 -0.1331
C298? C 0.4376(6) 0.8790(5) -0.2110(4)
H454? H 0.3891 0.8591 -0.2093
C299? C 0.4600(9) 0.9235(6) -0.2711(5)
H455? H 0.5013 0.9509 -0.2744
H456? H 0.4155 0.9518 -0.2853
H457? H 0.4775 0.8963 -0.2923
C300? C 0.4180(8) 0.9170(7) -0.1734(6)
H458? H 0.3918 0.8885 -0.1378
H459? H 0.3845 0.9558 -0.1901
H460? H 0.4653 0.9310 -0.1682
loop_
_geom_bond_atom_site_label_1
_geom_bond_atom_site_label_2
_geom_bond_site_symmetry_1
_geom_bond_site_symmetry_2
N1 C4 1_555 1_555
C1 C2 1_555 1_555
C2 H1 1_555 1_555
C3 C2 1_555 1_555
H2 C3 1_555 1_555
C4 C3 1_555 1_555
C5 C4 1_555 1_555
H3 C5 1_555 1_555
C6 C1 1_555 1_555
H4 C6 1_555 1_555
C7 N1 1_555 1_555
H5 C7 1_555 1_555
C8 C7 1_555 1_555
H6 C8 1_555 1_555
H7 C8 1_555 1_555
H8 C8 1_555 1_555
C9 C7 1_555 1_555
H9 C9 1_555 1_555
H10 C9 1_555 1_555
H11 C9 1_555 1_555
C10 N1 1_555 1_555
H12 C10 1_555 1_555
C11 C10 1_555 1_555
H13 C11 1_555 1_555
H14 C11 1_555 1_555
H15 C11 1_555 1_555
C12 C10 1_555 1_555
H16 C12 1_555 1_555
H17 C12 1_555 1_555
H18 C12 1_555 1_555
N2 C16 1_555 1_555
C13 C14 1_555 1_555
C14 H19 1_555 1_555
C15 C14 1_555 1_555
H20 C15 1_555 1_555
C16 C15 1_555 1_555
C17 C16 1_555 1_555
H21 C17 1_555 1_555
C18 C13 1_555 1_555
H22 C18 1_555 1_555
C19 N2 1_555 1_555
H23 C19 1_555 1_555
C20 C19 1_555 1_555
H24 C20 1_555 1_555
H25 C20 1_555 1_555
H26 C20 1_555 1_555
C21 C19 1_555 1_555
H27 C21 1_555 1_555
H28 C21 1_555 1_555
H29 C21 1_555 1_555
C22 N2 1_555 1_555
H30 C22 1_555 1_555
C23 C22 1_555 1_555
H31 C23 1_555 1_555
H32 C23 1_555 1_555
H33 C23 1_555 1_555
C24 C22 1_555 1_555
H34 C24 1_555 1_555
H35 C24 1_555 1_555
H36 C24 1_555 1_555
N3 C28 1_555 1_555
C25 C26 1_555 1_555
C26 H37 1_555 1_555
C27 C26 1_555 1_555
H38 C27 1_555 1_555
C28 C27 1_555 1_555
C29 C28 1_555 1_555
H39 C29 1_555 1_555
C30 C25 1_555 1_555
H40 C30 1_555 1_555
C31 N3 1_555 1_555
H41 C31 1_555 1_555
C32 C31 1_555 1_555
H42 C32 1_555 1_555
H43 C32 1_555 1_555
H44 C32 1_555 1_555
C33 C31 1_555 1_555
H45 C33 1_555 1_555
H46 C33 1_555 1_555
H47 C33 1_555 1_555
C34 N3 1_555 1_555
H48 C34 1_555 1_555
C35 C34 1_555 1_555
H49 C35 1_555 1_555
H50 C35 1_555 1_555
H51 C35 1_555 1_555
C36 C34 1_555 1_555
H52 C36 1_555 1_555
H53 C36 1_555 1_555
H54 C36 1_555 1_555
N4 C40 1_555 1_555
C37 C25 1_555 1_555
C38 C37 1_555 1_555
H55 C38 1_555 1_555
C39 C38 1_555 1_555
H56 C39 1_555 1_555
C40 C39 1_555 1_555
C41 C40 1_555 1_555
H57 C41 1_555 1_555
C42 C37 1_555 1_555
H58 C42 1_555 1_555
C43 N4 1_555 1_555
H59 C43 1_555 1_555
C44 C43 1_555 1_555
H60 C44 1_555 1_555
H61 C44 1_555 1_555
H62 C44 1_555 1_555
C45 C43 1_555 1_555
H63 C45 1_555 1_555
H64 C45 1_555 1_555
H65 C45 1_555 1_555
C46 N4 1_555 1_555
H66 C46 1_555 1_555
C47 C46 1_555 1_555
H67 C47 1_555 1_555
H68 C47 1_555 1_555
H69 C47 1_555 1_555
C48 C46 1_555 1_555
H70 C48 1_555 1_555
H71 C48 1_555 1_555
H72 C48 1_555 1_555
N5 C52 1_555 1_555
C49 C50 1_555 1_555
C50 H73 1_555 1_555
C51 C50 1_555 1_555
H74 C51 1_555 1_555
C52 C51 1_555 1_555
C53 C52 1_555 1_555
H75 C53 1_555 1_555
C54 C49 1_555 1_555
H76 C54 1_555 1_555
C55 N5 1_555 1_555
H77 C55 1_555 1_555
C56 C55 1_555 1_555
H78 C56 1_555 1_555
H79 C56 1_555 1_555
H80 C56 1_555 1_555
C57 C55 1_555 1_555
H81 C57 1_555 1_555
H82 C57 1_555 1_555
H83 C57 1_555 1_555
C58 N5 1_555 1_555
H84 C58 1_555 1_555
C59 C58 1_555 1_555
H85 C59 1_555 1_555
H86 C59 1_555 1_555
H87 C59 1_555 1_555
C60 C58 1_555 1_555
H88 C60 1_555 1_555
H89 C60 1_555 1_555
H90 C60 1_555 1_555
N6 C64 1_555 1_555
C61 C49 1_555 1_555
C62 C61 1_555 1_555
H91 C62 1_555 1_555
C63 C62 1_555 1_555
H92 C63 1_555 1_555
C64 C63 1_555 1_555
C65 C64 1_555 1_555
H93 C65 1_555 1_555
C66 C61 1_555 1_555
H94 C66 1_555 1_555
C67 N6 1_555 1_555
H95 C67 1_555 1_555
C68 C67 1_555 1_555
H96 C68 1_555 1_555
H97 C68 1_555 1_555
H98 C68 1_555 1_555
C69 C67 1_555 1_555
H99 C69 1_555 1_555
H100 C69 1_555 1_555
H101 C69 1_555 1_555
C70 N6 1_555 1_555
H102 C70 1_555 1_555
C71 C70 1_555 1_555
H103 C71 1_555 1_555
H104 C71 1_555 1_555
H105 C71 1_555 1_555
C72 C70 1_555 1_555
H106 C72 1_555 1_555
H107 C72 1_555 1_555
H108 C72 1_555 1_555
N7 C76 1_555 1_555
C73 C74 1_555 1_555
C74 H109 1_555 1_555
C75 C74 1_555 1_555
H110 C75 1_555 1_555
C76 C75 1_555 1_555
C77 C76 1_555 1_555
H111 C77 1_555 1_555
C78 C73 1_555 1_555
H112 C78 1_555 1_555
C79 N7 1_555 1_555
H113 C79 1_555 1_555
C80 C79 1_555 1_555
H114 C80 1_555 1_555
H115 C80 1_555 1_555
H116 C80 1_555 1_555
C81 C79 1_555 1_555
H117 C81 1_555 1_555
H118 C81 1_555 1_555
H119 C81 1_555 1_555
C82 N7 1_555 1_555
H120 C82 1_555 1_555
C83 C82 1_555 1_555
H121 C83 1_555 1_555
H122 C83 1_555 1_555
H123 C83 1_555 1_555
C84 C82 1_555 1_555
H124 C84 1_555 1_555
H125 C84 1_555 1_555
H126 C84 1_555 1_555
N8 C88 1_555 1_555
C85 C73 1_555 1_555
C86 C85 1_555 1_555
H127 C86 1_555 1_555
C87 C86 1_555 1_555
H128 C87 1_555 1_555
C88 C87 1_555 1_555
C89 C88 1_555 1_555
H129 C89 1_555 1_555
C90 C85 1_555 1_555
H130 C90 1_555 1_555
C91 N8 1_555 1_555
H131 C91 1_555 1_555
C92 C91 1_555 1_555
H132 C92 1_555 1_555
H133 C92 1_555 1_555
H134 C92 1_555 1_555
C93 C91 1_555 1_555
H135 C93 1_555 1_555
H136 C93 1_555 1_555
H137 C93 1_555 1_555
C94 N8 1_555 1_555
H138 C94 1_555 1_555
C95 C94 1_555 1_555
H139 C95 1_555 1_555
H140 C95 1_555 1_555
H141 C95 1_555 1_555
C96 C94 1_555 1_555
H142 C96 1_555 1_555
H143 C96 1_555 1_555
H144 C96 1_555 1_555
N9 C100 1_555 1_555
C97 C98 1_555 1_555
C98 H145 1_555 1_555
C99 C98 1_555 1_555
H146 C99 1_555 1_555
C100 C99 1_555 1_555
C101 C100 1_555 1_555
H147 C101 1_555 1_555
C102 C97 1_555 1_555
H148 C102 1_555 1_555
C103 N9 1_555 1_555
H149 C103 1_555 1_555
C104 C103 1_555 1_555
H150 C104 1_555 1_555
H151 C104 1_555 1_555
H152 C104 1_555 1_555
C105 C103 1_555 1_555
H153 C105 1_555 1_555
H154 C105 1_555 1_555
H155 C105 1_555 1_555
C106 N9 1_555 1_555
H156 C106 1_555 1_555
C107 C106 1_555 1_555
H157 C107 1_555 1_555
H158 C107 1_555 1_555
H159 C107 1_555 1_555
C108 C106 1_555 1_555
H160 C108 1_555 1_555
H161 C108 1_555 1_555
H162 C108 1_555 1_555
N10 C112 1_555 1_555
C109 C97 1_555 1_555
C110 C109 1_555 1_555
H163 C110 1_555 1_555
C111 C110 1_555 1_555
H164 C111 1_555 1_555
C112 C111 1_555 1_555
C113 C112 1_555 1_555
H165 C113 1_555 1_555
C114 C109 1_555 1_555
H166 C114 1_555 1_555
C115 N10 1_555 1_555
H167 C115 1_555 1_555
C116 C115 1_555 1_555
H168 C116 1_555 1_555
H169 C116 1_555 1_555
H170 C116 1_555 1_555
C117 C115 1_555 1_555
H171 C117 1_555 1_555
H172 C117 1_555 1_555
H173 C117 1_555 1_555
C118 N10 1_555 1_555
H174 C118 1_555 1_555
C119 C118 1_555 1_555
H175 C119 1_555 1_555
H176 C119 1_555 1_555
H177 C119 1_555 1_555
C120 C118 1_555 1_555
H178 C120 1_555 1_555
H179 C120 1_555 1_555
H180 C120 1_555 1_555
N11 C124 1_555 1_555
C121 C122 1_555 1_555
C122 H181 1_555 1_555
C123 C122 1_555 1_555
H182 C123 1_555 1_555
C124 C123 1_555 1_555
C125 C124 1_555 1_555
H183 C125 1_555 1_555
C126 C121 1_555 1_555
H184 C126 1_555 1_555
C127 N11 1_555 1_555
H185 C127 1_555 1_555
C128 C127 1_555 1_555
H186 C128 1_555 1_555
H187 C128 1_555 1_555
H188 C128 1_555 1_555
C129 C127 1_555 1_555
H189 C129 1_555 1_555
H190 C129 1_555 1_555
H191 C129 1_555 1_555
C130 N11 1_555 1_555
H192 C130 1_555 1_555
C131 C130 1_555 1_555
H193 C131 1_555 1_555
H194 C131 1_555 1_555
H195 C131 1_555 1_555
C132 C130 1_555 1_555
H196 C132 1_555 1_555
H197 C132 1_555 1_555
H198 C132 1_555 1_555
C133 C121 1_555 1_555
C134 C133 1_555 1_555
H199 C134 1_555 1_555
C135 C134 1_555 1_555
H200 C135 1_555 1_555
C136 C135 1_555 1_555
C137 C136 1_555 1_555
H201 C137 1_555 1_555
C138 C133 1_555 1_555
H202 C138 1_555 1_555
N12 C136 1_555 1_555
C139 N12 1_555 1_555
H203 C139 1_555 1_555
C140 C139 1_555 1_555
H204 C140 1_555 1_555
H205 C140 1_555 1_555
H206 C140 1_555 1_555
C141 C139 1_555 1_555
H207 C141 1_555 1_555
H208 C141 1_555 1_555
H209 C141 1_555 1_555
C142 N12 1_555 1_555
H210 C142 1_555 1_555
C143 C142 1_555 1_555
H211 C143 1_555 1_555
H212 C143 1_555 1_555
H213 C143 1_555 1_555
C144 C142 1_555 1_555
H214 C144 1_555 1_555
H215 C144 1_555 1_555
H216 C144 1_555 1_555
N13 C148 1_555 1_555
C145 C146 1_555 1_555
C146 H217 1_555 1_555
C147 C146 1_555 1_555
H218 C147 1_555 1_555
C148 C147 1_555 1_555
C149 C148 1_555 1_555
H219 C149 1_555 1_555
C150 C145 1_555 1_555
H220 C150 1_555 1_555
C151 N13 1_555 1_555
H221 C151 1_555 1_555
C152 C151 1_555 1_555
H222 C152 1_555 1_555
H223 C152 1_555 1_555
H224 C152 1_555 1_555
C153 C151 1_555 1_555
H225 C153 1_555 1_555
H226 C153 1_555 1_555
H227 C153 1_555 1_555
C154 N13 1_555 1_555
H228 C154 1_555 1_555
C155 C154 1_555 1_555
H229 C155 1_555 1_555
H230 C155 1_555 1_555
H231 C155 1_555 1_555
C156 C154 1_555 1_555
H232 C156 1_555 1_555
H233 C156 1_555 1_555
H234 C156 1_555 1_555
N14 C160 1_555 1_555
C157 C145 1_555 1_555
C158 C157 1_555 1_555
H235 C158 1_555 1_555
C159 C158 1_555 1_555
H236 C159 1_555 1_555
C160 C159 1_555 1_555
C161 C160 1_555 1_555
H237 C161 1_555 1_555
C162 C157 1_555 1_555
H238 C162 1_555 1_555
C163 N14 1_555 1_555
H239 C163 1_555 1_555
C164 C163 1_555 1_555
H240 C164 1_555 1_555
H241 C164 1_555 1_555
H242 C164 1_555 1_555
C165 C163 1_555 1_555
H243 C165 1_555 1_555
H244 C165 1_555 1_555
H245 C165 1_555 1_555
C166 N14 1_555 1_555
H246 C166 1_555 1_555
C167 C166 1_555 1_555
H247 C167 1_555 1_555
H248 C167 1_555 1_555
H249 C167 1_555 1_555
C168 C166 1_555 1_555
H250 C168 1_555 1_555
H251 C168 1_555 1_555
H252 C168 1_555 1_555
C169 C170 1_555 1_555
C170 H253 1_555 1_555
C171 C170 1_555 1_555
H254 C171 1_555 1_555
C172 C171 1_555 1_555
C173 C172 1_555 1_555
H255 C173 1_555 1_555
C174 C169 1_555 1_555
H256 C174 1_555 1_555
N15 C172 1_555 1_555
C175 N15 1_555 1_555
H257 C175 1_555 1_555
C176 C175 1_555 1_555
H258 C176 1_555 1_555
H259 C176 1_555 1_555
H260 C176 1_555 1_555
C177 C175 1_555 1_555
H261 C177 1_555 1_555
H262 C177 1_555 1_555
H263 C177 1_555 1_555
C178 N15 1_555 1_555
H264 C178 1_555 1_555
C179 C178 1_555 1_555
H265 C179 1_555 1_555
H266 C179 1_555 1_555
H267 C179 1_555 1_555
C180 C178 1_555 1_555
H268 C180 1_555 1_555
H269 C180 1_555 1_555
H270 C180 1_555 1_555
N16 C184 1_555 1_555
C181 C169 1_555 1_555
C182 C181 1_555 1_555
H271 C182 1_555 1_555
C183 C182 1_555 1_555
H272 C183 1_555 1_555
C184 C183 1_555 1_555
C185 C184 1_555 1_555
H273 C185 1_555 1_555
C186 C181 1_555 1_555
H274 C186 1_555 1_555
C187 N16 1_555 1_555
H275 C187 1_555 1_555
C188 C187 1_555 1_555
H276 C188 1_555 1_555
H277 C188 1_555 1_555
H278 C188 1_555 1_555
C189 C187 1_555 1_555
H279 C189 1_555 1_555
H280 C189 1_555 1_555
H281 C189 1_555 1_555
C190 N16 1_555 1_555
H282 C190 1_555 1_555
C191 C190 1_555 1_555
H283 C191 1_555 1_555
H284 C191 1_555 1_555
H285 C191 1_555 1_555
C192 C190 1_555 1_555
H286 C192 1_555 1_555
H287 C192 1_555 1_555
H288 C192 1_555 1_555
N17 C196 1_555 1_555
C193 C194 1_555 1_555
C194 H289 1_555 1_555
C195 C194 1_555 1_555
H290 C195 1_555 1_555
C196 C195 1_555 1_555
C197 C196 1_555 1_555
H291 C197 1_555 1_555
C198 C193 1_555 1_555
H292 C198 1_555 1_555
C199 N17 1_555 1_555
H293 C199 1_555 1_555
C200 C199 1_555 1_555
H294 C200 1_555 1_555
H295 C200 1_555 1_555
H296 C200 1_555 1_555
C201 C199 1_555 1_555
H297 C201 1_555 1_555
H298 C201 1_555 1_555
H299 C201 1_555 1_555
C202 N17 1_555 1_555
H300 C202 1_555 1_555
C203 C202 1_555 1_555
H301 C203 1_555 1_555
H302 C203 1_555 1_555
H303 C203 1_555 1_555
C204 C202 1_555 1_555
H304 C204 1_555 1_555
H305 C204 1_555 1_555
H306 C204 1_555 1_555
N18 C208 1_555 1_555
C205 C193 1_555 1_555
C206 C205 1_555 1_555
H307 C206 1_555 1_555
C207 C206 1_555 1_555
H308 C207 1_555 1_555
C208 C207 1_555 1_555
C209 C208 1_555 1_555
H309 C209 1_555 1_555
C210 C205 1_555 1_555
H310 C210 1_555 1_555
C211 N18 1_555 1_555
H311 C211 1_555 1_555
C212 C211 1_555 1_555
H312 C212 1_555 1_555
H313 C212 1_555 1_555
H314 C212 1_555 1_555
C213 C211 1_555 1_555
H315 C213 1_555 1_555
H316 C213 1_555 1_555
H317 C213 1_555 1_555
C214 N18 1_555 1_555
H318 C214 1_555 1_555
C215 C214 1_555 1_555
H319 C215 1_555 1_555
H320 C215 1_555 1_555
H321 C215 1_555 1_555
C216 C214 1_555 1_555
H322 C216 1_555 1_555
H323 C216 1_555 1_555
H324 C216 1_555 1_555
N1A C4A 1_555 1_555
C1A C1 1_555 1_555
C2A C1A 1_555 1_555
H1A C2A 1_555 1_555
C3A C2A 1_555 1_555
H2A C3A 1_555 1_555
C4A C3A 1_555 1_555
C5A C4A 1_555 1_555
H3A C5A 1_555 1_555
C6A C1A 1_555 1_555
H4A C6A 1_555 1_555
C7A N1A 1_555 1_555
H5A C7A 1_555 1_555
C8A C7A 1_555 1_555
H6A C8A 1_555 1_555
H7A C8A 1_555 1_555
H8A C8A 1_555 1_555
C9A C7A 1_555 1_555
H9A C9A 1_555 1_555
H10A C9A 1_555 1_555
H11A C9A 1_555 1_555
C10A N1A 1_555 1_555
H12A C10A 1_555 1_555
C11A C10A 1_555 1_555
H13A C11A 1_555 1_555
H14A C11A 1_555 1_555
H15A C11A 1_555 1_555
C12A C10A 1_555 1_555
H16A C12A 1_555 1_555
H17A C12A 1_555 1_555
H18A C12A 1_555 1_555
N2A C16A 1_555 1_555
C13A C13 1_555 1_555
C14A C13A 1_555 1_555
H19A C14A 1_555 1_555
C15A C14A 1_555 1_555
H20A C15A 1_555 1_555
C16A C15A 1_555 1_555
C17A C16A 1_555 1_555
H21A C17A 1_555 1_555
C18A C13A 1_555 1_555
H22A C18A 1_555 1_555
C19A N2A 1_555 1_555
H23A C19A 1_555 1_555
C20A C19A 1_555 1_555
H24A C20A 1_555 1_555
H25A C20A 1_555 1_555
H26A C20A 1_555 1_555
C21A C19A 1_555 1_555
H27A C21A 1_555 1_555
H28A C21A 1_555 1_555
H29A C21A 1_555 1_555
C22A N2A 1_555 1_555
H30A C22A 1_555 1_555
C23A C22A 1_555 1_555
H31A C23A 1_555 1_555
H32A C23A 1_555 1_555
H33A C23A 1_555 1_555
C24A C22A 1_555 1_555
H34A C24A 1_555 1_555
H35A C24A 1_555 1_555
H36A C24A 1_555 1_555
C5 C6 1_555 1_555
C17 C18 1_555 1_555
C29 C30 1_555 1_555
C41 C42 1_555 1_555
C53 C54 1_555 1_555
C65 C66 1_555 1_555
C77 C78 1_555 1_555
C89 C90 1_555 1_555
C101 C102 1_555 1_555
C113 C114 1_555 1_555
C125 C126 1_555 1_555
C137 C138 1_555 1_555
C149 C150 1_555 1_555
C161 C162 1_555 1_555
C173 C174 1_555 1_555
C185 C186 1_555 1_555
C197 C198 1_555 1_555
C209 C210 1_555 1_555
C5A C6A 1_555 1_555
C17A C18A 1_555 1_555

#END
