
#######################################################################
#
#                 Cambridge Crystallographic Data Centre
#                                CCDC 
#
#######################################################################
#
# If this CIF has been generated from an entry in the Cambridge 
# Structural Database, then it will include bibliographic, chemical, 
# crystal, experimental, refinement or atomic coordinate data resulting 
# from the CCDC's data processing and validation procedures.
#
#######################################################################

data_PAHHIQ
_chemical_formula_moiety         'C10 H12 Br1 N1 O4'
_chemical_name_systematic        1-(2-Bromo-1,1-dimethoxyethyl)-4-nitrobenzene
_symmetry_cell_setting           triclinic
_symmetry_space_group_name_H-M   'P -1'
_symmetry_Int_Tables_number      2
_space_group_name_Hall           '-P 1'
loop_
_symmetry_equiv_pos_site_id
_symmetry_equiv_pos_as_xyz
1 x,y,z
2 -x,-y,-z
_cell_length_a                   7.0910(10)
_cell_length_b                   9.9060(10)
_cell_length_c                   10.2620(10)
_cell_angle_alpha                117.552(2)
_cell_angle_beta                 102.567(2)
_cell_angle_gamma                97.488(2)
_cell_volume                     601.15
_exptl_crystal_colour            colorless
_exptl_crystal_description       prism
_cell_formula_units_Z            2
_exptl_crystal_recrystallization_method 'petroleum ether'
loop_
_atom_site_label
_atom_site_type_symbol
_atom_site_fract_x
_atom_site_fract_y
_atom_site_fract_z
Br1 Br 0.64781(5) 0.43738(3) 0.76792(3)
O1 O 1.0712(2) 0.3484(2) 0.5501(2)
O2 O 0.9218(3) 0.2052(2) 0.6460(2)
O3 O 0.1835(3) 0.0191(3) -0.0553(2)
O4 O 0.1497(3) -0.1820(3) -0.0251(3)
N1 N 0.2307(3) -0.0468(3) 0.0175(2)
C1 C 0.7171(3) 0.2082(2) 0.4344(2)
C2 C 0.6107(4) 0.0571(3) 0.3865(3)
C3 C 0.4503(4) -0.0269(3) 0.2508(3)
C4 C 0.3982(3) 0.0434(3) 0.1643(3)
C5 C 0.4997(4) 0.1935(3) 0.2093(3)
C6 C 0.6599(4) 0.2761(3) 0.3445(3)
C7 C 0.8970(3) 0.3024(2) 0.5819(3)
C8 C 0.8719(4) 0.4617(3) 0.6938(3)
C9 C 1.1305(4) 0.2203(4) 0.4421(3)
C10 C 1.0841(5) 0.2698(4) 0.7865(3)
H1 H 0.6473 0.0115 0.4462
H2 H 0.3792 -0.1286 0.2185
H3 H 0.4612 0.2389 0.1497
H4 H 0.7302 0.3777 0.3760
H5 H 0.8510 0.5218 0.6420
H6 H 0.9939 0.5206 0.7814
H7 H 1.1244 0.1385 0.4678
H8 H 1.2651 0.2577 0.4469
H9 H 1.0417 0.1789 0.3392
H10 H 1.2045 0.3120 0.7743
H11 H 1.1027 0.1883 0.8100
H12 H 1.0541 0.3525 0.8696
loop_
_geom_bond_atom_site_label_1
_geom_bond_atom_site_label_2
_geom_bond_site_symmetry_1
_geom_bond_site_symmetry_2
Br1 C8 1_555 1_555
O1 C7 1_555 1_555
O2 C7 1_555 1_555
O3 N1 1_555 1_555
O4 N1 1_555 1_555
N1 C4 1_555 1_555
C1 C2 1_555 1_555
C2 C3 1_555 1_555
C3 C4 1_555 1_555
C4 C5 1_555 1_555
C5 C6 1_555 1_555
C6 C1 1_555 1_555
C7 C1 1_555 1_555
C8 C7 1_555 1_555
C9 O1 1_555 1_555
C10 O2 1_555 1_555
H1 C2 1_555 1_555
H2 C3 1_555 1_555
H3 C5 1_555 1_555
H4 C6 1_555 1_555
H5 C8 1_555 1_555
H6 C8 1_555 1_555
H7 C9 1_555 1_555
H8 C9 1_555 1_555
H9 C9 1_555 1_555
H10 C10 1_555 1_555
H11 C10 1_555 1_555
H12 C10 1_555 1_555

#END
