
#######################################################################
#
#                 Cambridge Crystallographic Data Centre
#                                CCDC 
#
#######################################################################
#
# If this CIF has been generated from an entry in the Cambridge 
# Structural Database, then it will include bibliographic, chemical, 
# crystal, experimental, refinement or atomic coordinate data resulting 
# from the CCDC's data processing and validation procedures.
#
#######################################################################

data_PAHKIT
_chemical_formula_moiety         'C7 H12 N2'
_chemical_name_systematic        5-t-Butylpyrazole
_symmetry_cell_setting           monoclinic
_symmetry_space_group_name_H-M   'C 2/c'
_symmetry_Int_Tables_number      15
_space_group_name_Hall           '-C 2yn'
loop_
_symmetry_equiv_pos_site_id
_symmetry_equiv_pos_as_xyz
1 x,y,z
2 1/2+x,1/2+y,z
3 x,-y,1/2+z
4 1/2+x,1/2-y,1/2+z
5 -x,-y,-z
6 1/2-x,1/2-y,-z
7 -x,y,1/2-z
8 1/2-x,1/2+y,1/2-z
_cell_length_a                   22.105(3)
_cell_length_b                   10.7547(13)
_cell_length_c                   17.074(2)
_cell_angle_alpha                90
_cell_angle_beta                 127.879(4)
_cell_angle_gamma                90
_cell_volume                     3203.84
_exptl_crystal_colour            colorless
_exptl_crystal_description       rod
_cell_formula_units_Z            16
_exptl_crystal_recrystallization_method hexane
loop_
_atom_site_label
_atom_site_type_symbol
_atom_site_fract_x
_atom_site_fract_y
_atom_site_fract_z
N1 N 0.05960(9) 0.24862(15) 0.20117(12)
N2 N -0.01390(9) 0.21910(14) 0.12527(12)
C1 C -0.04066(13) 0.3213(2) 0.07014(17)
C2 C 0.01433(12) 0.4140(2) 0.10983(16)
C3 C 0.07882(10) 0.36475(16) 0.19459(14)
C4 C 0.15732(11) 0.41775(18) 0.27179(15)
C5 C 0.16555(15) 0.5397(2) 0.2328(2)
H1 H 0.1270 0.5992 0.2204
H2 H 0.1581 0.5238 0.1709
H3 H 0.2169 0.5741 0.2822
C6 C 0.21901(12) 0.3282(2) 0.29238(19)
H4 H 0.2697 0.3643 0.3424
H5 H 0.2126 0.3135 0.2310
H6 H 0.2144 0.2492 0.3170
C7 C 0.16805(17) 0.4383(3) 0.3679(2)
H7 H 0.1298 0.4981 0.3563
H8 H 0.2196 0.4709 0.4187
H9 H 0.1616 0.3592 0.3904
H10 H 0.0913(11) 0.1893(17) 0.2493(15)
H11 H -0.0940(12) 0.3245(18) 0.0103(16)
H12 H 0.0107(10) 0.4909(17) 0.0865(13)
N3 N 0.10234(8) 0.01749(15) 0.37919(12)
N4 N 0.13963(9) 0.05227(15) 0.34252(12)
C8 C 0.17931(11) -0.0490(2) 0.35414(15)
C9 C 0.16786(10) -0.14592(19) 0.39749(13)
C10 C 0.11789(9) -0.10055(16) 0.41294(13)
C11 C 0.08145(10) -0.15873(17) 0.45524(13)
C12 C 0.09548(12) -0.07806(19) 0.53887(16)
H13 H 0.1507 -0.0705 0.5919
H14 H 0.0712 -0.1168 0.5653
H15 H 0.0735 0.0047 0.5129
C13 C 0.11638(15) -0.28663(19) 0.49742(19)
H16 H 0.1071 -0.3399 0.4445
H17 H 0.0928 -0.3241 0.5251
H18 H 0.1717 -0.2781 0.5498
C14 C -0.00491(12) -0.1698(2) 0.37399(16)
H19 H -0.0149 -0.2227 0.3204
H20 H -0.0266 -0.0870 0.3477
H21 H -0.0286 -0.2068 0.4017
H22 H 0.0713(11) 0.0800(17) 0.3788(14)
H23 H 0.2138(11) -0.0465(16) 0.3356(14)
H24 H 0.1894(9) -0.2294(16) 0.4123(13)
loop_
_geom_bond_atom_site_label_1
_geom_bond_atom_site_label_2
_geom_bond_site_symmetry_1
_geom_bond_site_symmetry_2
N1 N2 1_555 1_555
N2 C1 1_555 1_555
C1 C2 1_555 1_555
C2 C3 1_555 1_555
C3 N1 1_555 1_555
C4 C3 1_555 1_555
C5 C4 1_555 1_555
H1 C5 1_555 1_555
H2 C5 1_555 1_555
H3 C5 1_555 1_555
C6 C4 1_555 1_555
H4 C6 1_555 1_555
H5 C6 1_555 1_555
H6 C6 1_555 1_555
C7 C4 1_555 1_555
H7 C7 1_555 1_555
H8 C7 1_555 1_555
H9 C7 1_555 1_555
H10 N1 1_555 1_555
H11 C1 1_555 1_555
H12 C2 1_555 1_555
N3 N4 1_555 1_555
N4 C8 1_555 1_555
C8 C9 1_555 1_555
C9 C10 1_555 1_555
C10 N3 1_555 1_555
C11 C10 1_555 1_555
C12 C11 1_555 1_555
H13 C12 1_555 1_555
H14 C12 1_555 1_555
H15 C12 1_555 1_555
C13 C11 1_555 1_555
H16 C13 1_555 1_555
H17 C13 1_555 1_555
H18 C13 1_555 1_555
C14 C11 1_555 1_555
H19 C14 1_555 1_555
H20 C14 1_555 1_555
H21 C14 1_555 1_555
H22 N3 1_555 1_555
H23 C8 1_555 1_555
H24 C9 1_555 1_555

#END
