
#######################################################################
#
#                 Cambridge Crystallographic Data Centre
#                                CCDC 
#
#######################################################################
#
# If this CIF has been generated from an entry in the Cambridge 
# Structural Database, then it will include bibliographic, chemical, 
# crystal, experimental, refinement or atomic coordinate data resulting 
# from the CCDC's data processing and validation procedures.
#
#######################################################################

data_PAHLUH
_chemical_formula_moiety         'C28 H28 Br1 N3 O4'
_chemical_name_systematic        
N-((6-Bromo-2-methoxyquinolin-3-yl)(phenyl)methyl)-N-(2-furylmethyl)-2-(morpholin-4-yl)acetamide
_chemical_properties_biological  'Anti-tubercular activity'
_symmetry_cell_setting           monoclinic
_symmetry_space_group_name_H-M   'C 2/c'
_symmetry_Int_Tables_number      15
_space_group_name_Hall           '-C 2yn'
loop_
_symmetry_equiv_pos_site_id
_symmetry_equiv_pos_as_xyz
1 x,y,z
2 -x,y,1/2-z
3 1/2+x,1/2+y,z
4 1/2-x,1/2+y,1/2-z
5 -x,-y,-z
6 x,-y,1/2+z
7 1/2-x,1/2-y,-z
8 1/2+x,1/2-y,1/2+z
_cell_length_a                   32.666(6)
_cell_length_b                   10.737(2)
_cell_length_c                   17.161(3)
_cell_angle_alpha                90
_cell_angle_beta                 120.43(3)
_cell_angle_gamma                90
_cell_volume                     5189.84
_exptl_crystal_colour            colorless
_exptl_crystal_description       block
_chemical_melting_point          '217-219 deg.C'
_cell_formula_units_Z            8
_exptl_crystal_recrystallization_method ethanol/water
loop_
_atom_site_label
_atom_site_type_symbol
_atom_site_fract_x
_atom_site_fract_y
_atom_site_fract_z
Br1 Br 0.23791(2) 0.95514(7) 0.59731(4)
C1 C 0.21067(17) 0.9702(4) 0.4714(3)
C2 C 0.20381(19) 1.0909(5) 0.4363(3)
H1 H 0.2130 1.1593 0.4748
C3 C 0.1837(2) 1.1080(4) 0.3456(3)
H2 H 0.1794 1.1883 0.3225
C4 C 0.16924(16) 1.0047(4) 0.2862(3)
C5 C 0.17663(14) 0.8832(4) 0.3231(3)
C6 C 0.19748(15) 0.8680(4) 0.4175(3)
H3 H 0.2021 0.7887 0.4424
C7 C 0.16155(13) 0.7814(3) 0.2622(3)
H4 H 0.1666 0.7004 0.2843
C8 C 0.13966(13) 0.8016(3) 0.1715(2)
C9 C 0.13507(15) 0.9289(4) 0.1425(3)
C10 C 0.1047(2) 1.0687(4) 0.0171(4)
H5 H 0.0841 1.1097 0.0336
H6 H 0.0899 1.0667 -0.0476
H7 H 0.1342 1.1134 0.0422
C11 C 0.11800(13) 0.6992(3) 0.1011(2)
H8 H 0.1225 0.7235 0.0509
C12 C 0.14187(14) 0.5731(3) 0.1342(3)
C13 C 0.18892(16) 0.5602(4) 0.1581(3)
H9 H 0.2059 0.6295 0.1579
C14 C 0.21120(19) 0.4439(5) 0.1827(4)
H10 H 0.2429 0.4362 0.1991
C15 C 0.1864(2) 0.3415(4) 0.1827(3)
H11 H 0.2010 0.2640 0.1981
C16 C 0.1407(2) 0.3527(4) 0.1603(3)
H12 H 0.1242 0.2826 0.1613
C17 C 0.11773(16) 0.4670(4) 0.1359(3)
H13 H 0.0861 0.4729 0.1206
C18 C 0.04899(16) 0.6957(5) 0.1291(3)
H14 H 0.0714 0.6518 0.1837
H15 H 0.0189 0.6518 0.1028
C19 C 0.04244(17) 0.8250(5) 0.1535(3)
C20 C 0.0533(3) 0.8773(7) 0.2321(4)
H16 H 0.0666 0.8382 0.2880
C21 C 0.0402(3) 1.0059(8) 0.2130(5)
H17 H 0.0421 1.0658 0.2538
C22 C 0.0255(3) 1.0226(7) 0.1293(6)
H18 H 0.0159 1.0989 0.0997
C23 C 0.03323(16) 0.6859(4) -0.0253(3)
C24 C 0.04952(17) 0.6946(4) -0.0936(3)
H19 H 0.0220 0.6869 -0.1538
H20 H 0.0630 0.7766 -0.0891
C25 C 0.1039(2) 0.6290(5) -0.1424(4)
H21 H 0.1174 0.7120 -0.1301
H22 H 0.0789 0.6252 -0.2053
C26 C 0.1416(3) 0.5342(7) -0.1244(5)
H23 H 0.1548 0.5518 -0.1627
H24 H 0.1670 0.5413 -0.0620
C27 C 0.0652(2) 0.4757(4) -0.1003(4)
H25 H 0.0392 0.4682 -0.1622
H26 H 0.0532 0.4566 -0.0602
C28 C 0.1049(3) 0.3857(5) -0.0836(4)
H27 H 0.1300 0.3911 -0.0208
H28 H 0.0927 0.3013 -0.0949
N1 N 0.14893(14) 1.0257(3) 0.1946(2)
N2 N 0.06633(11) 0.6934(3) 0.0647(2)
N3 N 0.08423(13) 0.6020(3) -0.0836(2)
O1 O 0.11372(13) 0.9436(2) 0.0516(2)
O2 O -0.00899(12) 0.6766(4) -0.0520(3)
O3 O 0.1241(2) 0.4127(5) -0.1404(3)
O4 O 0.02570(17) 0.9134(4) 0.0892(3)
loop_
_geom_bond_atom_site_label_1
_geom_bond_atom_site_label_2
_geom_bond_site_symmetry_1
_geom_bond_site_symmetry_2
Br1 C1 1_555 1_555
C1 C2 1_555 1_555
C2 H1 1_555 1_555
C3 C2 1_555 1_555
H2 C3 1_555 1_555
C4 C3 1_555 1_555
C5 C4 1_555 1_555
C6 C1 1_555 1_555
H3 C6 1_555 1_555
C7 C5 1_555 1_555
H4 C7 1_555 1_555
C8 C7 1_555 1_555
C9 C8 1_555 1_555
C10 H5 1_555 1_555
H6 C10 1_555 1_555
H7 C10 1_555 1_555
C11 C8 1_555 1_555
H8 C11 1_555 1_555
C12 C11 1_555 1_555
C13 C12 1_555 1_555
H9 C13 1_555 1_555
C14 C13 1_555 1_555
H10 C14 1_555 1_555
C15 C14 1_555 1_555
H11 C15 1_555 1_555
C16 C15 1_555 1_555
H12 C16 1_555 1_555
C17 C12 1_555 1_555
H13 C17 1_555 1_555
C18 H14 1_555 1_555
H15 C18 1_555 1_555
C19 C18 1_555 1_555
C20 C19 1_555 1_555
H16 C20 1_555 1_555
C21 C20 1_555 1_555
H17 C21 1_555 1_555
C22 C21 1_555 1_555
H18 C22 1_555 1_555
C23 C24 1_555 1_555
C24 H19 1_555 1_555
H20 C24 1_555 1_555
C25 H21 1_555 1_555
H22 C25 1_555 1_555
C26 C25 1_555 1_555
H23 C26 1_555 1_555
H24 C26 1_555 1_555
C27 H25 1_555 1_555
H26 C27 1_555 1_555
C28 C27 1_555 1_555
H27 C28 1_555 1_555
H28 C28 1_555 1_555
N1 C4 1_555 1_555
N2 C11 1_555 1_555
N3 C24 1_555 1_555
O1 C9 1_555 1_555
O2 C23 1_555 1_555
O3 C26 1_555 1_555
O4 C19 1_555 1_555
C5 C6 1_555 1_555
C9 N1 1_555 1_555
C10 O1 1_555 1_555
C16 C17 1_555 1_555
C18 N2 1_555 1_555
C22 O4 1_555 1_555
C23 N2 1_555 1_555
C25 N3 1_555 1_555
C27 N3 1_555 1_555
C28 O3 1_555 1_555

#END
