
#######################################################################
#
#                 Cambridge Crystallographic Data Centre
#                                CCDC 
#
#######################################################################
#
# If this CIF has been generated from an entry in the Cambridge 
# Structural Database, then it will include bibliographic, chemical, 
# crystal, experimental, refinement or atomic coordinate data resulting 
# from the CCDC's data processing and validation procedures.
#
#######################################################################

data_PAHPIA
_chemical_formula_moiety         'C47 H37 N5 O4'
_chemical_name_systematic        
5-(4-methoxy-2,6-dimethylphenyl)-5'-(5-(6-(2-(4-methoxy-2,6-dimethylphenyl)furo[2,3-c]pyridin-5-yl)pyridin-2-yl)furo[2,3-c]pyridin-2-yl)-2,2'-bipyridine
_symmetry_cell_setting           monoclinic
_symmetry_space_group_name_H-M   'C 2/c'
_symmetry_Int_Tables_number      15
_space_group_name_Hall           '-C 2yn'
loop_
_symmetry_equiv_pos_site_id
_symmetry_equiv_pos_as_xyz
1 x,y,z
2 -x,y,1/2-z
3 1/2+x,1/2+y,z
4 1/2-x,1/2+y,1/2-z
5 -x,-y,-z
6 x,-y,1/2+z
7 1/2-x,1/2-y,-z
8 1/2+x,1/2-y,1/2+z
_cell_length_a                   32.6617(14)
_cell_length_b                   8.8705(3)
_cell_length_c                   25.8704(9)
_cell_angle_alpha                90
_cell_angle_beta                 93.738(4)
_cell_angle_gamma                90
_cell_volume                     7479.37
_exptl_crystal_colour            brown
_exptl_crystal_description       plate
_cell_formula_units_Z            8
loop_
_atom_site_label
_atom_site_type_symbol
_atom_site_fract_x
_atom_site_fract_y
_atom_site_fract_z
O1 O 0.03178(7) 1.1930(3) 0.03385(9)
O2 O 0.19152(8) 0.0266(2) 0.09638(9)
O3 O 0.14900(9) 2.4689(4) -0.28745(11)
O4 O 0.33641(8) -0.1810(3) -0.04161(10)
N1 N 0.00458(9) 0.8852(4) 0.11801(11)
N2 N 0.06118(9) 0.5358(3) 0.11570(10)
N3 N 0.10319(10) 0.1776(3) 0.15819(11)
N4 N 0.10404(9) 1.4085(4) -0.10419(11)
N5 N 0.08838(10) 1.8065(3) -0.11511(11)
C1 C 0.00413(11) 1.0221(4) 0.09720(14)
H1 H -0.0138 1.0965 0.1094
C2 C 0.02910(10) 1.0577(4) 0.05847(13)
C3 C 0.05570(11) 0.9523(4) 0.03851(13)
C4 C 0.05625(11) 0.8090(4) 0.06057(12)
H2 H 0.0738 0.7328 0.0487
C5 C 0.03085(10) 0.7799(4) 0.10003(13)
C6 C 0.03045(11) 0.6302(4) 0.12555(12)
C7 C 0.00040(11) 0.5921(5) 0.15860(14)
H3 H -0.0210 0.6608 0.1650
C8 C 0.00214(12) 0.4512(5) 0.18223(14)
H4 H -0.0185 0.4215 0.2044
C9 C 0.03395(12) 0.3553(5) 0.17312(14)
H5 H 0.0361 0.2597 0.1896
C10 C 0.06295(11) 0.4008(4) 0.13930(12)
C11 C 0.09778(11) 0.3026(4) 0.12786(12)
C12 C 0.12226(10) 0.3362(4) 0.08780(12)
H6 H 0.1174 0.4238 0.0672
C13 C 0.15445(11) 0.2379(4) 0.07839(12)
C14 C 0.15922(11) 0.1128(4) 0.11048(12)
C15 C 0.13418(13) 0.0849(4) 0.14965(14)
H7 H 0.1389 -0.0013 0.1710
C16 C 0.07538(11) 1.0295(4) -0.00089(13)
H8 H 0.0951 0.9884 -0.0223
C17 C 0.06081(10) 1.1736(4) -0.00241(12)
C18 C 0.06931(11) 1.3037(4) -0.03303(13)
C19 C 0.05286(11) 1.4456(4) -0.02396(13)
H9 H 0.0355 1.4597 0.0037
C20 C 0.06178(11) 1.5644(4) -0.05504(12)
H10 H 0.0506 1.6612 -0.0490
C21 C 0.08724(10) 1.5432(4) -0.09553(12)
C22 C 0.09534(11) 1.2963(4) -0.07367(14)
H11 H 0.1079 1.2019 -0.0798
C23 C 0.09716(11) 1.6672(4) -0.13024(12)
C24 C 0.11412(13) 1.6418(5) -0.17756(14)
H12 H 0.1195 1.5420 -0.1886
C25 C 0.12292(13) 1.7626(5) -0.20792(14)
H13 H 0.1337 1.7455 -0.2406
C26 C 0.11648(11) 1.9083(5) -0.19201(13)
C27 C 0.09786(12) 1.9208(5) -0.14536(14)
H14 H 0.0914 2.0195 -0.1342
C28 C 0.12675(11) 2.0489(5) -0.22052(13)
C29 C 0.09510(12) 2.1381(4) -0.24337(13)
C30 C 0.10452(12) 2.2754(5) -0.26552(14)
H15 H 0.0830 2.3360 -0.2808
C31 C 0.14376(13) 2.3246(5) -0.26570(14)
C32 C 0.17521(13) 2.2394(6) -0.24553(15)
H16 H 0.2027 2.2735 -0.2471
C33 C 0.16700(13) 2.0977(6) -0.22188(15)
C34 C 0.05182(12) 2.0870(5) -0.24555(16)
H17 H 0.0500 1.9839 -0.2591
H18 H 0.0350 2.1541 -0.2683
H19 H 0.0418 2.0892 -0.2107
C35 C 0.18908(14) 2.5239(6) -0.2865(2)
H20 H 0.2068 2.4486 -0.3014
H21 H 0.1990 2.5446 -0.2506
H22 H 0.1896 2.6171 -0.3068
C36 C 0.20232(14) 2.0015(7) -0.2005(2)
H23 H 0.2167 2.0536 -0.1713
H24 H 0.2213 1.9835 -0.2276
H25 H 0.1918 1.9048 -0.1887
C37 C 0.18511(11) 0.2240(4) 0.04191(13)
H26 H 0.1898 0.2920 0.0145
C38 C 0.20637(11) 0.0962(4) 0.05339(13)
C39 C 0.23966(11) 0.0197(3) 0.02876(13)
C40 C 0.23377(12) -0.0257(4) -0.02289(14)
C41 C 0.26585(11) -0.0938(4) -0.04691(14)
H27 H 0.2620 -0.1237 -0.0821
C42 C 0.30305(11) -0.1183(4) -0.02039(14)
C43 C 0.30832(11) -0.0777(4) 0.03147(14)
H28 H 0.3338 -0.0979 0.0501
C44 C 0.27745(12) -0.0090(4) 0.05641(14)
C45 C 0.19280(13) -0.0069(5) -0.05280(16)
H29 H 0.1707 -0.0221 -0.0295
H30 H 0.1903 -0.0813 -0.0808
H31 H 0.1908 0.0949 -0.0675
C46 C 0.28445(13) 0.0392(5) 0.11258(15)
H32 H 0.2722 -0.0353 0.1349
H33 H 0.2717 0.1377 0.1174
H34 H 0.3140 0.0464 0.1217
C47 C 0.33505(14) -0.1902(5) -0.09712(15)
H35 H 0.3285 -0.0908 -0.1120
H36 H 0.3139 -0.2627 -0.1093
H37 H 0.3618 -0.2233 -0.1080
loop_
_geom_bond_atom_site_label_1
_geom_bond_atom_site_label_2
_geom_bond_site_symmetry_1
_geom_bond_site_symmetry_2
O1 C2 1_555 1_555
O2 C14 1_555 1_555
O3 C31 1_555 1_555
O4 C42 1_555 1_555
N1 C1 1_555 1_555
N2 C6 1_555 1_555
N3 C11 1_555 1_555
N4 C21 1_555 1_555
N5 C23 1_555 1_555
C1 H1 1_555 1_555
C2 C1 1_555 1_555
C3 C2 1_555 1_555
C4 C3 1_555 1_555
H2 C4 1_555 1_555
C5 N1 1_555 1_555
C6 C5 1_555 1_555
C7 C6 1_555 1_555
H3 C7 1_555 1_555
C8 C7 1_555 1_555
H4 C8 1_555 1_555
C9 C8 1_555 1_555
H5 C9 1_555 1_555
C10 N2 1_555 1_555
C11 C10 1_555 1_555
C12 C11 1_555 1_555
H6 C12 1_555 1_555
C13 C12 1_555 1_555
C14 C13 1_555 1_555
C15 N3 1_555 1_555
H7 C15 1_555 1_555
C16 C3 1_555 1_555
H8 C16 1_555 1_555
C17 O1 1_555 1_555
C18 C17 1_555 1_555
C19 C18 1_555 1_555
H9 C19 1_555 1_555
C20 C19 1_555 1_555
H10 C20 1_555 1_555
C21 C20 1_555 1_555
C22 N4 1_555 1_555
H11 C22 1_555 1_555
C23 C21 1_555 1_555
C24 C23 1_555 1_555
H12 C24 1_555 1_555
C25 C24 1_555 1_555
H13 C25 1_555 1_555
C26 C25 1_555 1_555
C27 N5 1_555 1_555
H14 C27 1_555 1_555
C28 C26 1_555 1_555
C29 C28 1_555 1_555
C30 C29 1_555 1_555
H15 C30 1_555 1_555
C31 C30 1_555 1_555
C32 C31 1_555 1_555
H16 C32 1_555 1_555
C33 C28 1_555 1_555
C34 C29 1_555 1_555
H17 C34 1_555 1_555
H18 C34 1_555 1_555
H19 C34 1_555 1_555
C35 O3 1_555 1_555
H20 C35 1_555 1_555
H21 C35 1_555 1_555
H22 C35 1_555 1_555
C36 C33 1_555 1_555
H23 C36 1_555 1_555
H24 C36 1_555 1_555
H25 C36 1_555 1_555
C37 C13 1_555 1_555
H26 C37 1_555 1_555
C38 O2 1_555 1_555
C39 C38 1_555 1_555
C40 C39 1_555 1_555
C41 C40 1_555 1_555
H27 C41 1_555 1_555
C42 C41 1_555 1_555
C43 C42 1_555 1_555
H28 C43 1_555 1_555
C44 C39 1_555 1_555
C45 C40 1_555 1_555
H29 C45 1_555 1_555
H30 C45 1_555 1_555
H31 C45 1_555 1_555
C46 C44 1_555 1_555
H32 C46 1_555 1_555
H33 C46 1_555 1_555
H34 C46 1_555 1_555
C47 O4 1_555 1_555
H35 C47 1_555 1_555
H36 C47 1_555 1_555
H37 C47 1_555 1_555
C4 C5 1_555 1_555
C9 C10 1_555 1_555
C14 C15 1_555 1_555
C16 C17 1_555 1_555
C18 C22 1_555 1_555
C26 C27 1_555 1_555
C32 C33 1_555 1_555
C37 C38 1_555 1_555
C43 C44 1_555 1_555

#END
