
#######################################################################
#
#                 Cambridge Crystallographic Data Centre
#                                CCDC 
#
#######################################################################
#
# If this CIF has been generated from an entry in the Cambridge 
# Structural Database, then it will include bibliographic, chemical, 
# crystal, experimental, refinement or atomic coordinate data resulting 
# from the CCDC's data processing and validation procedures.
#
#######################################################################

data_PAHPIZ
_chemical_name_common            3,3'-Diacetylstilbene
_chemical_formula_moiety         'C18 H16 O2'
_chemical_name_systematic        
(E)-1,1'-(Ethene-1,2-diyldi-3,1-phenylene)diethanone
_symmetry_cell_setting           triclinic
_symmetry_space_group_name_H-M   'P -1'
_symmetry_Int_Tables_number      2
_space_group_name_Hall           '-P 1'
loop_
_symmetry_equiv_pos_site_id
_symmetry_equiv_pos_as_xyz
1 x,y,z
2 -x,-y,-z
_cell_length_a                   5.6819(10)
_cell_length_b                   7.604(2)
_cell_length_c                   8.515(2)
_cell_angle_alpha                112.524(11)
_cell_angle_beta                 100.058(14)
_cell_angle_gamma                96.822(13)
_cell_volume                     327.559
_exptl_crystal_colour            tan
_exptl_crystal_description       plate
_chemical_melting_point          '193-194 deg.C'
_cell_formula_units_Z            1
_exptl_crystal_recrystallization_method benzene
loop_
_atom_site_label
_atom_site_type_symbol
_atom_site_fract_x
_atom_site_fract_y
_atom_site_fract_z
O1 O 0.68381(14) 0.27467(12) 0.25816(10)
C1 C 0.97454(18) 0.48798(14) 0.91601(13)
H1 H 1.091(2) 0.542(2) 0.8686(17)
C2 C 0.74377(17) 0.37983(14) 0.78598(13)
C3 C 0.72386(18) 0.35386(15) 0.61208(13)
H2 H 0.8600 0.4048 0.5805
C4 C 0.50679(18) 0.25411(14) 0.48365(13)
C5 C 0.30572(18) 0.18181(15) 0.53051(14)
H3 H 0.1564 0.1170 0.4450
C6 C 0.32419(18) 0.20485(15) 0.70281(14)
H4 H 0.1877 0.1537 0.7340
C7 C 0.53999(19) 0.30185(15) 0.82922(13)
H5 H 0.5504 0.3158 0.9461
C8 C 0.49959(19) 0.22425(15) 0.29843(13)
C9 C 0.2613(2) 0.12627(17) 0.16240(14)
H6 H 0.2789 0.1294 0.0510
H7 H 0.1325 0.1949 0.2014
H8 H 0.2177 -0.0091 0.1466
O1A O 1.31619(14) 0.72533(12) 1.74184(10)
C1A C 1.02546(18) 0.51202(14) 1.08399(13)
H1A H 0.909(2) 0.458(2) 1.1314(17)
C2A C 1.25623(17) 0.62017(14) 1.21402(13)
C3A C 1.27614(18) 0.64614(15) 1.38792(13)
H2A H 1.1400 0.5952 1.4195
C4A C 1.49321(18) 0.74589(14) 1.51635(13)
C5A C 1.69428(18) 0.81819(15) 1.46949(14)
H3A H 1.8436 0.8830 1.5550
C6A C 1.67581(18) 0.79515(15) 1.29719(14)
H4A H 1.8123 0.8463 1.2660
C7A C 1.46001(19) 0.69815(15) 1.17078(13)
H5A H 1.4496 0.6842 1.0539
C8A C 1.50041(19) 0.77575(15) 1.70157(13)
C9A C 1.7387(2) 0.87373(17) 1.83760(14)
H6A H 1.7211 0.8706 1.9490
H7A H 1.8675 0.8051 1.7986
H8A H 1.7823 1.0091 1.8534
loop_
_geom_bond_atom_site_label_1
_geom_bond_atom_site_label_2
_geom_bond_site_symmetry_1
_geom_bond_site_symmetry_2
O1 C8 1_555 1_555
C1 H1 1_555 1_555
C2 C1 1_555 1_555
C3 C2 1_555 1_555
H2 C3 1_555 1_555
C4 C3 1_555 1_555
C5 C4 1_555 1_555
H3 C5 1_555 1_555
C6 C5 1_555 1_555
H4 C6 1_555 1_555
C7 C2 1_555 1_555
H5 C7 1_555 1_555
C8 C4 1_555 1_555
C9 C8 1_555 1_555
H6 C9 1_555 1_555
H7 C9 1_555 1_555
H8 C9 1_555 1_555
O1A C8A 1_555 1_555
C1A C1 1_555 1_555
H1A C1A 1_555 1_555
C2A C1A 1_555 1_555
C3A C2A 1_555 1_555
H2A C3A 1_555 1_555
C4A C3A 1_555 1_555
C5A C4A 1_555 1_555
H3A C5A 1_555 1_555
C6A C5A 1_555 1_555
H4A C6A 1_555 1_555
C7A C2A 1_555 1_555
H5A C7A 1_555 1_555
C8A C4A 1_555 1_555
C9A C8A 1_555 1_555
H6A C9A 1_555 1_555
H7A C9A 1_555 1_555
H8A C9A 1_555 1_555
C6 C7 1_555 1_555
C6A C7A 1_555 1_555

#END
