
#######################################################################
#
#                 Cambridge Crystallographic Data Centre
#                                CCDC 
#
#######################################################################
#
# If this CIF has been generated from an entry in the Cambridge 
# Structural Database, then it will include bibliographic, chemical, 
# crystal, experimental, refinement or atomic coordinate data resulting 
# from the CCDC's data processing and validation procedures.
#
#######################################################################

data_PAHWOM
_chemical_formula_moiety         'C60 H44 N4 S16,2(C16 H14 N4 O4),0.5(C7 H8)'
_chemical_name_systematic        
"6,14,22,30-tetrakis(1,3-Benzodithiol-2-ylidene)-2,2,10,10,18,18,26,26-octamethyl-5,7,13,15,21,23,29,31-octathia-33,34,35,36-tetraazanonacyclo[25.5.1.1^3,9^.1^11,17^.1^19,25^.0^4,8^.0^12,16^.0^20,24^.0^28,32^]hexatriaconta-1(32),3,8,11,16,19,24,27-octaene bis(2,2'-(1-(3,5-dinitrophenyl)ethane-1,1-diyl)bis(1H-pyrrole)) toluene solvate"
_symmetry_cell_setting           triclinic
_symmetry_space_group_name_H-M   'P -1'
_symmetry_Int_Tables_number      2
_space_group_name_Hall           '-P 1'
loop_
_symmetry_equiv_pos_site_id
_symmetry_equiv_pos_as_xyz
1 x,y,z
2 -x,-y,-z
_cell_length_a                   10.542(7)
_cell_length_b                   10.846(8)
_cell_length_c                   42.98(3)
_cell_angle_alpha                84.763(19)
_cell_angle_beta                 86.36(3)
_cell_angle_gamma                71.110(14)
_cell_volume                     4627.18
_exptl_crystal_colour            colorless
_exptl_crystal_description       plate
_cell_formula_units_Z            2
loop_
_atom_site_label
_atom_site_type_symbol
_atom_site_fract_x
_atom_site_fract_y
_atom_site_fract_z
O1 O 0.5299(4) 0.2288(4) 0.19226(10)
O2 O 0.5123(4) 0.4126(5) 0.21179(10)
O3 O 0.4509(5) 0.2276(4) 0.08320(10)
O4 O 0.3977(4) 0.4092(4) 0.05379(10)
C61 C 0.3417(6) 0.7750(6) 0.12638(14)
C62 C 0.2723(6) 0.8314(6) 0.09582(14)
C63 C 0.1412(7) 0.8722(7) 0.08808(16)
H45 H 0.0667 0.8749 0.1020
C64 C 0.1356(8) 0.9098(7) 0.05579(17)
H46 H 0.0566 0.9418 0.0441
C65 C 0.2617(8) 0.8925(7) 0.04442(16)
H47 H 0.2873 0.9110 0.0234
C66 C 0.2406(6) 0.8235(7) 0.15346(15)
H48 H 0.2836 0.7892 0.1734
H49 H 0.1634 0.7930 0.1520
H50 H 0.2104 0.9192 0.1523
C67 C 0.3882(6) 0.6242(6) 0.12841(14)
C68 C 0.4304(6) 0.5557(6) 0.15703(14)
H51 H 0.4349 0.6008 0.1747
C69 C 0.4659(6) 0.4200(6) 0.15919(13)
C70 C 0.4648(6) 0.3474(6) 0.13443(14)
H52 H 0.4893 0.2548 0.1364
C71 C 0.4256(6) 0.4197(6) 0.10667(14)
C72 C 0.3874(5) 0.5549(6) 0.10311(14)
H53 H 0.3608 0.5996 0.0833
N5 N 0.4251(5) 0.3465(5) 0.07934(12)
N6 N 0.5063(5) 0.3472(5) 0.18998(12)
N7 N 0.3460(5) 0.8438(5) 0.06861(13)
H54 H 0.4340 0.8233 0.0671
C93 C 0.4633(6) 0.8179(5) 0.12780(13)
C94 C 0.6729(6) 0.8346(6) 0.12680(14)
H75 H 0.7669 0.8173 0.1237
N12 N 0.5998(6) 0.7454(8) 0.12978(17)
H76 H 0.6338 0.6597 0.1324
C95 C 0.4577(7) 0.9470(6) 0.12347(17)
H77 H 0.3777 1.0191 0.1212
C96 C 0.5815(8) 0.9559(6) 0.12285(18)
H78 H 0.6024 1.0352 0.1201
C73 C 0.5402(9) 0.0259(9) 0.0285(2)
H55 H 0.5661 0.0444 0.0478
C74 C 0.6134(9) -0.0888(9) 0.0145(2)
C75 C 0.4288(10) 0.1124(9) 0.01363(19)
H57 H 0.3793 0.1919 0.0236
C76 C 0.739(2) -0.1608(19) 0.0281(4)
H58 H 0.8096 -0.1278 0.0185
H59 H 0.7611 -0.2536 0.0247
H60 H 0.7324 -0.1503 0.0507
C73A C 0.4598(9) -0.0259(9) -0.0285(2)
H55A H 0.4339 -0.0444 -0.0478
C74A C 0.3866(9) 0.0888(9) -0.0145(2)
C75A C 0.5712(10) -0.1124(9) -0.01363(19)
H57A H 0.6207 -0.1919 -0.0236
C76A C 0.261(2) 0.1608(19) -0.0281(4)
H58A H 0.1904 0.1278 -0.0185
H59A H 0.2389 0.2536 -0.0247
H60A H 0.2676 0.1503 -0.0507
O5 O 0.8800(5) -0.0732(4) 0.31426(10)
O6 O 0.6836(4) -0.0574(4) 0.33561(10)
O7 O 0.6549(4) -0.2078(5) 0.44493(11)
O8 O 0.8361(5) -0.2875(5) 0.47138(10)
C77 C 1.2271(6) -0.2670(6) 0.39434(14)
C78 C 1.2856(6) -0.3369(7) 0.42508(14)
C79 C 1.3379(6) -0.4667(7) 0.43438(15)
H61 H 1.3451 -0.5375 0.4222
C80 C 1.3795(7) -0.4770(7) 0.46545(16)
H62 H 1.4204 -0.5554 0.4778
C81 C 1.3496(7) -0.3527(8) 0.47419(17)
H63 H 1.3649 -0.3292 0.4940
C82 C 1.2850(6) -0.3606(6) 0.36859(15)
H64 H 1.2577 -0.3146 0.3482
H65 H 1.2511 -0.4351 0.3719
H66 H 1.3831 -0.3918 0.3692
C83 C 1.2626(6) -0.1417(7) 0.38816(15)
C84 C 1.1867(7) -0.0134(7) 0.39128(17)
H67 H 1.0932 0.0178 0.3963
C85 C 1.2712(7) 0.0627(7) 0.38579(17)
H68 H 1.2458 0.1549 0.3865
C86 C 1.3966(7) -0.0190(7) 0.37928(18)
H69 H 1.4744 0.0062 0.3746
C87 C 1.0731(6) -0.2308(6) 0.39472(14)
C88 C 0.9964(6) -0.2538(6) 0.42076(14)
H70 H 1.0382 -0.2930 0.4398
C89 C 0.8577(6) -0.2190(6) 0.41879(14)
C90 C 0.7908(6) -0.1655(6) 0.39187(14)
H71 H 0.6963 -0.1439 0.3909
C91 C 0.8700(6) -0.1452(6) 0.36642(14)
C92 C 1.0073(6) -0.1744(6) 0.36720(14)
H72 H 1.0569 -0.1561 0.3491
N8 N 0.8049(6) -0.0876(5) 0.33661(12)
N9 N 0.7784(6) -0.2407(6) 0.44705(13)
N10 N 1.2941(5) -0.2681(6) 0.44959(12)
H73 H 1.2678 -0.1823 0.4495
N11 N 1.3911(6) -0.1441(6) 0.38066(15)
H74 H 1.4595 -0.2145 0.3773
C1 C 0.4873(6) 0.3102(6) 0.29894(13)
C2 C 0.5527(6) 0.2808(5) 0.32664(13)
C3 C 0.6940(6) 0.2520(6) 0.31982(13)
C4 C 0.7114(6) 0.2652(6) 0.28803(14)
C5 C 0.6638(6) 0.2137(6) 0.37976(14)
C6 C 0.6841(6) 0.1746(6) 0.41049(14)
C7 C 0.7839(7) 0.0581(7) 0.46274(15)
C8 C 0.6464(7) 0.1092(7) 0.46915(15)
C9 C 0.5928(9) 0.0868(8) 0.49891(17)
H1 H 0.4996 0.1241 0.5036
C10 C 0.6778(9) 0.0091(9) 0.52166(17)
H2 H 0.6422 -0.0074 0.5419
C11 C 0.8136(9) -0.0442(8) 0.51489(17)
H3 H 0.8706 -0.0984 0.5304
C12 C 0.8670(8) -0.0193(7) 0.48575(17)
H4 H 0.9607 -0.0550 0.4814
C13 C 0.3418(6) 0.3458(6) 0.29031(14)
C14 C 0.2532(6) 0.3413(6) 0.31996(14)
H5 H 0.1593 0.3656 0.3143
H6 H 0.2628 0.4027 0.3343
H7 H 0.2812 0.2526 0.3302
C15 C 0.2948(6) 0.4840(6) 0.27436(15)
H8 H 0.3463 0.4867 0.2546
H9 H 0.3087 0.5454 0.2881
H10 H 0.1992 0.5084 0.2701
C16 C 0.3312(5) 0.2478(6) 0.26902(14)
C17 C 0.2757(5) 0.2558(6) 0.24054(13)
C18 C 0.2908(5) 0.1247(6) 0.23271(13)
C19 C 0.3553(5) 0.0394(6) 0.25645(13)
C20 C 0.1849(6) 0.2794(6) 0.18514(13)
C21 C 0.1526(6) 0.3207(6) 0.15553(14)
C22 C 0.0954(6) 0.4590(6) 0.10238(14)
C23 C 0.1194(6) 0.3302(7) 0.09552(14)
C24 C 0.1137(6) 0.3008(7) 0.06515(15)
H11 H 0.1283 0.2130 0.0606
C25 C 0.0864(7) 0.4003(8) 0.04124(16)
H12 H 0.0836 0.3805 0.0203
C26 C 0.0632(7) 0.5283(8) 0.04811(15)
H13 H 0.0439 0.5959 0.0317
C27 C 0.0678(6) 0.5593(7) 0.07851(15)
H14 H 0.0524 0.6472 0.0830
C28 C 0.3557(6) -0.1667(6) 0.23474(14)
H15 H 0.2586 -0.1321 0.2320
H16 H 0.3828 -0.2618 0.2388
H17 H 0.4025 -0.1447 0.2157
C29 C 0.3175(6) -0.1398(6) 0.29239(14)
H18 H 0.3432 -0.1040 0.3102
H19 H 0.3413 -0.2350 0.2961
H20 H 0.2205 -0.1019 0.2899
C30 C 0.5422(6) -0.1628(5) 0.26695(13)
C31 C 0.6220(6) -0.2518(6) 0.28856(13)
C32 C 0.7588(6) -0.2736(5) 0.27903(13)
C33 C 0.7638(6) -0.1985(6) 0.25193(14)
C34 C 0.7622(6) -0.4014(6) 0.33229(14)
C35 C 0.7992(6) -0.4579(6) 0.36087(13)
C36 C 0.9414(6) -0.5528(6) 0.40978(14)
C37 C 0.8082(6) -0.5279(6) 0.42037(14)
C38 C 0.7787(7) -0.5502(7) 0.45193(15)
H21 H 0.6887 -0.5376 0.4592
C39 C 0.8831(8) -0.5914(7) 0.47264(16)
H22 H 0.8636 -0.6044 0.4943
C40 C 1.0142(8) -0.6135(8) 0.46218(16)
H23 H 1.0838 -0.6416 0.4768
C41 C 1.0460(7) -0.5953(7) 0.43066(16)
H24 H 1.1365 -0.6114 0.4234
C42 C 0.8742(6) -0.1813(6) 0.22960(13)
C43 C 1.0112(6) -0.2582(6) 0.24369(15)
H25 H 1.0835 -0.2465 0.2295
H26 H 1.0200 -0.3513 0.2466
H27 H 1.0171 -0.2258 0.2639
C44 C 0.8673(7) -0.2369(6) 0.19834(14)
H28 H 0.7817 -0.1884 0.1888
H29 H 0.8742 -0.3294 0.2020
H30 H 0.9414 -0.2285 0.1843
C45 C 0.8599(5) -0.0380(6) 0.22512(13)
C46 C 0.8534(6) 0.0460(6) 0.19895(13)
C47 C 0.8400(6) 0.1725(6) 0.20925(13)
C48 C 0.8399(5) 0.1626(6) 0.24130(14)
C49 C 0.8284(6) 0.2007(6) 0.14897(14)
C50 C 0.8050(6) 0.2523(6) 0.11967(14)
C51 C 0.7560(6) 0.2889(6) 0.06012(14)
C52 C 0.7346(6) 0.4119(6) 0.07041(14)
C53 C 0.6874(6) 0.5228(7) 0.04999(15)
H31 H 0.6719 0.6074 0.0569
C54 C 0.6635(7) 0.5080(7) 0.01943(15)
H32 H 0.6314 0.5831 0.0053
C55 C 0.6858(7) 0.3858(7) 0.00922(15)
H33 H 0.6694 0.3766 -0.0118
C56 C 0.7320(7) 0.2768(7) 0.02973(15)
H34 H 0.7473 0.1924 0.0227
C57 C 0.8317(6) 0.2572(6) 0.26584(13)
C58 C 0.9617(6) 0.2122(6) 0.28455(14)
H35 H 0.9685 0.1295 0.2967
H36 H 0.9594 0.2787 0.2988
H37 H 1.0397 0.1999 0.2700
C59 C 0.8154(6) 0.3938(6) 0.24902(15)
H38 H 0.8945 0.3894 0.2353
H39 H 0.8063 0.4570 0.2646
H40 H 0.7352 0.4213 0.2365
C60 C 0.3920(6) -0.1062(6) 0.26246(14)
N1 N 0.5856(5) 0.2988(5) 0.27590(11)
H41 H 0.5703 0.3115 0.2558
N2 N 0.3782(5) 0.1150(5) 0.27832(11)
H42 H 0.4180 0.0830 0.2960
N3 N 0.6324(5) -0.1330(5) 0.24479(11)
H43 H 0.6081 -0.0786 0.2281
N4 N 0.8510(5) 0.0342(5) 0.25033(11)
H44 H 0.8521 0.0023 0.2699
S1 S 0.79648(15) 0.21071(16) 0.35235(4)
S2 S 0.49983(15) 0.28191(16) 0.36617(3)
S3 S 0.54974(17) 0.19915(19) 0.43837(4)
S4 S 0.84327(16) 0.10908(17) 0.42626(4)
S5 S 0.18678(15) 0.38434(15) 0.21401(3)
S6 S 0.21740(16) 0.11286(15) 0.19806(4)
S7 S 0.14707(15) 0.21365(16) 0.12763(4)
S8 S 0.09522(16) 0.48775(16) 0.14226(4)
S9 S 0.59253(15) -0.34838(16) 0.32161(4)
S10 S 0.88090(14) -0.38495(15) 0.30268(3)
S11 S 0.96960(15) -0.52484(16) 0.36960(4)
S12 S 0.68619(15) -0.47503(16) 0.39160(4)
S13 S 0.86936(15) 0.03132(15) 0.15846(3)
S14 S 0.83514(15) 0.29688(15) 0.17960(3)
S15 S 0.81697(17) 0.15654(16) 0.08788(4)
S16 S 0.77480(16) 0.41937(16) 0.10904(4)
H56? H 0.6911 -0.1496 0.0242
C97? C 0.4585(9) 0.9322(10) 0.1402(3)
C98? C 0.5815(10) 0.9421(10) 0.1396(3)
H79? H 0.6298 0.6810 0.1108
H80? H 0.3795 0.9945 0.1480
H81? H 0.6032 1.0127 0.1469
N13? N 0.5977(8) 0.7561(9) 0.1193(3)
loop_
_geom_bond_atom_site_label_1
_geom_bond_atom_site_label_2
_geom_bond_site_symmetry_1
_geom_bond_site_symmetry_2
C1 C2 1_555 1_555
C2 C3 1_555 1_555
C3 C4 1_555 1_555
C4 C57 1_555 1_555
C5 C6 1_555 1_555
C6 S3 1_555 1_555
C7 C8 1_555 1_555
C8 C9 1_555 1_555
C9 H1 1_555 1_555
C10 C9 1_555 1_555
H2 C10 1_555 1_555
C11 C10 1_555 1_555
H3 C11 1_555 1_555
C12 C7 1_555 1_555
H4 C12 1_555 1_555
C13 C1 1_555 1_555
C14 C13 1_555 1_555
H5 C14 1_555 1_555
H6 C14 1_555 1_555
H7 C14 1_555 1_555
C15 C13 1_555 1_555
H8 C15 1_555 1_555
H9 C15 1_555 1_555
H10 C15 1_555 1_555
C16 C13 1_555 1_555
C17 C16 1_555 1_555
C18 C17 1_555 1_555
C19 C18 1_555 1_555
C20 C21 1_555 1_555
C21 S7 1_555 1_555
C22 C23 1_555 1_555
C23 C24 1_555 1_555
C24 H11 1_555 1_555
C25 C24 1_555 1_555
H12 C25 1_555 1_555
C26 C25 1_555 1_555
H13 C26 1_555 1_555
C27 C22 1_555 1_555
H14 C27 1_555 1_555
C28 H15 1_555 1_555
H16 C28 1_555 1_555
H17 C28 1_555 1_555
C29 H18 1_555 1_555
H19 C29 1_555 1_555
H20 C29 1_555 1_555
C30 C31 1_555 1_555
C31 C32 1_555 1_555
C32 C33 1_555 1_555
C33 C42 1_555 1_555
C34 C35 1_555 1_555
C35 S11 1_555 1_555
C36 C37 1_555 1_555
C37 C38 1_555 1_555
C38 H21 1_555 1_555
C39 C38 1_555 1_555
H22 C39 1_555 1_555
C40 C39 1_555 1_555
H23 C40 1_555 1_555
C41 C36 1_555 1_555
H24 C41 1_555 1_555
C42 C43 1_555 1_555
C43 H25 1_555 1_555
H26 C43 1_555 1_555
H27 C43 1_555 1_555
C44 C42 1_555 1_555
H28 C44 1_555 1_555
H29 C44 1_555 1_555
H30 C44 1_555 1_555
C45 C42 1_555 1_555
C46 C45 1_555 1_555
C47 C46 1_555 1_555
C48 C47 1_555 1_555
C49 C50 1_555 1_555
C50 S15 1_555 1_555
C51 C52 1_555 1_555
C52 C53 1_555 1_555
C53 H31 1_555 1_555
C54 C53 1_555 1_555
H32 C54 1_555 1_555
C55 C54 1_555 1_555
H33 C55 1_555 1_555
C56 C51 1_555 1_555
H34 C56 1_555 1_555
C57 C48 1_555 1_555
C58 C57 1_555 1_555
H35 C58 1_555 1_555
H36 C58 1_555 1_555
H37 C58 1_555 1_555
C59 C57 1_555 1_555
H38 C59 1_555 1_555
H39 C59 1_555 1_555
H40 C59 1_555 1_555
C60 C19 1_555 1_555
N1 C1 1_555 1_555
H41 N1 1_555 1_555
N2 C16 1_555 1_555
H42 N2 1_555 1_555
N3 C30 1_555 1_555
H43 N3 1_555 1_555
N4 C45 1_555 1_555
H44 N4 1_555 1_555
O1 N6 1_555 1_555
O2 N6 1_555 1_555
O3 N5 1_555 1_555
O4 N5 1_555 1_555
S1 C3 1_555 1_555
S2 C2 1_555 1_555
S3 C8 1_555 1_555
S4 C6 1_555 1_555
S5 C17 1_555 1_555
S6 C18 1_555 1_555
S7 C23 1_555 1_555
S8 C21 1_555 1_555
S9 C31 1_555 1_555
S10 C32 1_555 1_555
S11 C36 1_555 1_555
S12 C35 1_555 1_555
S13 C46 1_555 1_555
S14 C47 1_555 1_555
S15 C51 1_555 1_555
S16 C50 1_555 1_555
C61 C62 1_555 1_555
C62 C63 1_555 1_555
C63 H45 1_555 1_555
C64 C63 1_555 1_555
H46 C64 1_555 1_555
C65 C64 1_555 1_555
H47 C65 1_555 1_555
C66 C61 1_555 1_555
H48 C66 1_555 1_555
H49 C66 1_555 1_555
H50 C66 1_555 1_555
C67 C61 1_555 1_555
C68 C67 1_555 1_555
H51 C68 1_555 1_555
C69 C68 1_555 1_555
C70 C69 1_555 1_555
H52 C70 1_555 1_555
C71 C70 1_555 1_555
C72 C67 1_555 1_555
H53 C72 1_555 1_555
N5 C71 1_555 1_555
N6 C69 1_555 1_555
N7 C62 1_555 1_555
H54 N7 1_555 1_555
C73 H55 1_555 1_555
C74 C73 1_555 1_555
C75 C73 1_555 1_555
H57 C75 1_555 1_555
C76 C74 1_555 1_555
H58 C76 1_555 1_555
H59 C76 1_555 1_555
H60 C76 1_555 1_555
O5 N8 1_555 1_555
O6 N8 1_555 1_555
O7 N9 1_555 1_555
O8 N9 1_555 1_555
C77 C78 1_555 1_555
C78 C79 1_555 1_555
C79 H61 1_555 1_555
C80 C79 1_555 1_555
H62 C80 1_555 1_555
C81 C80 1_555 1_555
H63 C81 1_555 1_555
C82 C77 1_555 1_555
H64 C82 1_555 1_555
H65 C82 1_555 1_555
H66 C82 1_555 1_555
C83 C77 1_555 1_555
C84 C83 1_555 1_555
H67 C84 1_555 1_555
C85 C84 1_555 1_555
H68 C85 1_555 1_555
C86 C85 1_555 1_555
H69 C86 1_555 1_555
C87 C77 1_555 1_555
C88 C87 1_555 1_555
H70 C88 1_555 1_555
C89 C88 1_555 1_555
C90 C89 1_555 1_555
H71 C90 1_555 1_555
C91 C90 1_555 1_555
C92 C87 1_555 1_555
H72 C92 1_555 1_555
N8 C91 1_555 1_555
N9 C89 1_555 1_555
N10 C78 1_555 1_555
H73 N10 1_555 1_555
N11 C83 1_555 1_555
H74 N11 1_555 1_555
C93 C61 1_555 1_555
C94 H75 1_555 1_555
N12 C93 1_555 1_555
H76 N12 1_555 1_555
C95 C93 1_555 1_555
H77 C95 1_555 1_555
C96 C94 1_555 1_555
H78 C96 1_555 1_555
C73A H55A 1_555 1_555
C74A C75 1_555 1_555
C75A C74 1_555 1_555
H57A C75A 1_555 1_555
C76A C74A 1_555 1_555
H58A C76A 1_555 1_555
H59A C76A 1_555 1_555
H60A C76A 1_555 1_555
C4 N1 1_555 1_555
C5 S1 1_555 1_555
C5 S2 1_555 1_555
C7 S4 1_555 1_555
C11 C12 1_555 1_555
C19 N2 1_555 1_555
C20 S5 1_555 1_555
C20 S6 1_555 1_555
C22 S8 1_555 1_555
C26 C27 1_555 1_555
C28 C60 1_555 1_555
C29 C60 1_555 1_555
C30 C60 1_555 1_555
C33 N3 1_555 1_555
C34 S9 1_555 1_555
C34 S10 1_555 1_555
C37 S12 1_555 1_555
C40 C41 1_555 1_555
C48 N4 1_555 1_555
C49 S13 1_555 1_555
C49 S14 1_555 1_555
C52 S16 1_555 1_555
C55 C56 1_555 1_555
C65 N7 1_555 1_555
C71 C72 1_555 1_555
C81 N10 1_555 1_555
C86 N11 1_555 1_555
C91 C92 1_555 1_555
C94 N12 1_555 1_555
C95 C96 1_555 1_555
C73A C74A 1_555 1_555
C73A C75A 1_555 1_555

#END
