
#######################################################################
#
#                 Cambridge Crystallographic Data Centre
#                                CCDC 
#
#######################################################################
#
# If this CIF has been generated from an entry in the Cambridge 
# Structural Database, then it will include bibliographic, chemical, 
# crystal, experimental, refinement or atomic coordinate data resulting 
# from the CCDC's data processing and validation procedures.
#
#######################################################################

data_PAHXIH
_chemical_formula_moiety         'C38 H36 N8 O8'
_chemical_name_systematic        
cis-5,15-bis(3,5-Dinitrophenyl)-5,10,10,15,20,20-hexamethyl-5,10,15,20,22,24-hexahydroporphyrin
_symmetry_cell_setting           monoclinic
_symmetry_space_group_name_H-M   'I 2/a'
_symmetry_Int_Tables_number      15
_space_group_name_Hall           '-I 2ya'
loop_
_symmetry_equiv_pos_site_id
_symmetry_equiv_pos_as_xyz
1 x,y,z
2 1/2-x,y,-z
3 1/2+x,1/2+y,1/2+z
4 -x,1/2+y,1/2-z
5 -x,-y,-z
6 1/2+x,-y,z
7 1/2-x,1/2-y,1/2-z
8 x,1/2-y,1/2+z
_cell_length_a                   19.3307(19)
_cell_length_b                   10.2766(10)
_cell_length_c                   36.119(4)
_cell_angle_alpha                90
_cell_angle_beta                 90.283(5)
_cell_angle_gamma                90
_cell_volume                     7175.09
_exptl_crystal_colour            orange
_exptl_crystal_description       prism
_cell_formula_units_Z            8
loop_
_atom_site_label
_atom_site_type_symbol
_atom_site_fract_x
_atom_site_fract_y
_atom_site_fract_z
O1 O 1.07793(9) 0.66765(18) 0.79461(5)
O2 O 1.16409(7) 0.5362(2) 0.80386(6)
O3 O 1.02366(9) -0.00124(17) 0.78750(5)
O4 O 1.12315(8) 0.07093(18) 0.80706(4)
O5 O 0.46607(8) 0.90201(15) 1.05238(4)
O6 O 0.43010(8) 0.91485(15) 0.99514(5)
O7 O 0.62897(9) 0.56226(14) 1.08251(4)
O8 O 0.70393(7) 0.50641(14) 1.04085(4)
N1 N 0.84886(7) 0.60693(14) 0.83329(4)
H1 H 0.8633 0.5820 0.8550
N2 N 0.77159(7) 0.31440(14) 0.85146(4)
H2 H 0.7365 0.3338 0.8373
N3 N 0.67023(7) 0.47527(14) 0.91072(4)
H3 H 0.7112 0.4940 0.9192
N4 N 0.73016(7) 0.75651(14) 0.88247(4)
H4 H 0.7141 0.7210 0.8623
N5 N 1.10228(9) 0.5590(2) 0.79849(5)
N6 N 1.06283(10) 0.0861(2) 0.79679(5)
N7 N 0.46958(9) 0.87348(17) 1.01926(5)
N8 N 0.65088(9) 0.56284(16) 1.05077(4)
C1 C 0.83064(9) 0.73271(17) 0.82414(5)
C2 C 0.81056(9) 0.73085(18) 0.78777(5)
H5 H 0.7952 0.8028 0.7739
C3 C 0.81695(9) 0.60112(18) 0.77456(5)
H6 H 0.8066 0.5721 0.7505
C4 C 0.84078(8) 0.52645(17) 0.80300(5)
C5 C 0.86031(9) 0.38394(17) 0.80456(5)
C6 C 0.82310(9) 0.31226(18) 0.77257(5)
H7 H 0.8319 0.2196 0.7745
H8 H 0.8403 0.3441 0.7491
H9 H 0.7737 0.3281 0.7741
C7 C 0.93897(9) 0.36549(18) 0.80035(5)
C8 C 0.98439(9) 0.46972(19) 0.79940(5)
H10 H 0.9676 0.5556 0.8000
C9 C 1.05523(9) 0.4457(2) 0.79749(5)
C10 C 1.08283(10) 0.3225(2) 0.79609(5)
H11 H 1.1308 0.3085 0.7950
C11 C 1.03639(10) 0.2208(2) 0.79639(5)
C12 C 0.96564(9) 0.23918(19) 0.79839(5)
H12 H 0.9356 0.1672 0.7984
C13 C 0.84010(9) 0.32720(16) 0.84170(5)
C14 C 0.87865(9) 0.28724(17) 0.87143(5)
H13 H 0.9272 0.2855 0.8728
C15 C 0.83240(9) 0.24885(18) 0.89990(5)
H14 H 0.8448 0.2171 0.9234
C16 C 0.76682(9) 0.26644(16) 0.88689(5)
C17 C 0.69685(9) 0.23641(17) 0.90374(5)
C18 C 0.66416(10) 0.11974(18) 0.88352(6)
H15 H 0.6581 0.1408 0.8575
H16 H 0.6196 0.1002 0.8944
H17 H 0.6943 0.0446 0.8859
C19 C 0.70703(10) 0.20253(19) 0.94498(5)
H18 H 0.7372 0.1274 0.9472
H19 H 0.6626 0.1828 0.9560
H20 H 0.7278 0.2760 0.9577
C20 C 0.64925(9) 0.35295(17) 0.90005(5)
C21 C 0.58217(9) 0.36449(18) 0.88820(5)
H21 H 0.5543 0.2967 0.8790
C22 C 0.56218(9) 0.49629(18) 0.89213(5)
H22 H 0.5186 0.5313 0.8862
C23 C 0.61767(9) 0.56375(17) 0.90608(5)
C24 C 0.62344(9) 0.70393(17) 0.91906(5)
C25 C 0.57667(9) 0.78998(18) 0.89466(5)
H23 H 0.5921 0.7856 0.8692
H24 H 0.5791 0.8793 0.9033
H25 H 0.5293 0.7593 0.8962
C26 C 0.60032(9) 0.70902(17) 0.95973(5)
C27 C 0.63434(9) 0.63457(17) 0.98649(5)
H26 H 0.6723 0.5825 0.9798
C28 C 0.61233(10) 0.63738(18) 1.02268(5)
C29 C 0.55804(10) 0.71302(19) 1.03484(5)
H27 H 0.5442 0.7149 1.0598
C30 C 0.52563(10) 0.78541(19) 1.00790(6)
C31 C 0.54493(10) 0.78506(18) 0.97099(5)
H28 H 0.5206 0.8361 0.9537
C32 C 0.69668(9) 0.75583(17) 0.91605(5)
C33 C 0.73818(9) 0.82218(17) 0.94049(5)
H29 H 0.7287 0.8379 0.9656
C34 C 0.79816(9) 0.86285(17) 0.92100(5)
H30 H 0.8354 0.9103 0.9310
C35 C 0.79227(9) 0.82088(17) 0.88514(5)
C36 C 0.83683(9) 0.84407(17) 0.85134(5)
C37 C 0.81313(10) 0.97052(18) 0.83191(6)
H31 H 0.8403 0.9839 0.8097
H32 H 0.8196 1.0437 0.8485
H33 H 0.7646 0.9634 0.8253
C38 C 0.91305(9) 0.86012(19) 0.86324(6)
H34 H 0.9285 0.7818 0.8758
H35 H 0.9172 0.9338 0.8799
H36 H 0.9413 0.8749 0.8415
loop_
_geom_bond_atom_site_label_1
_geom_bond_atom_site_label_2
_geom_bond_site_symmetry_1
_geom_bond_site_symmetry_2
O1 N5 1_555 1_555
O2 N5 1_555 1_555
O3 N6 1_555 1_555
O4 N6 1_555 1_555
O5 N7 1_555 1_555
O6 N7 1_555 1_555
O7 N8 1_555 1_555
O8 N8 1_555 1_555
N1 H1 1_555 1_555
N2 H2 1_555 1_555
N3 H3 1_555 1_555
N4 H4 1_555 1_555
N5 C9 1_555 1_555
N6 C11 1_555 1_555
N7 C30 1_555 1_555
N8 C28 1_555 1_555
C1 N1 1_555 1_555
C2 C1 1_555 1_555
H5 C2 1_555 1_555
C3 C2 1_555 1_555
H6 C3 1_555 1_555
C4 N1 1_555 1_555
C5 C4 1_555 1_555
C6 C5 1_555 1_555
H7 C6 1_555 1_555
H8 C6 1_555 1_555
H9 C6 1_555 1_555
C7 C5 1_555 1_555
C8 C7 1_555 1_555
H10 C8 1_555 1_555
C9 C8 1_555 1_555
C10 C9 1_555 1_555
H11 C10 1_555 1_555
C11 C10 1_555 1_555
C12 C7 1_555 1_555
H12 C12 1_555 1_555
C13 N2 1_555 1_555
C14 C13 1_555 1_555
H13 C14 1_555 1_555
C15 C14 1_555 1_555
H14 C15 1_555 1_555
C16 N2 1_555 1_555
C17 C16 1_555 1_555
C18 C17 1_555 1_555
H15 C18 1_555 1_555
H16 C18 1_555 1_555
H17 C18 1_555 1_555
C19 C17 1_555 1_555
H18 C19 1_555 1_555
H19 C19 1_555 1_555
H20 C19 1_555 1_555
C20 N3 1_555 1_555
C21 C20 1_555 1_555
H21 C21 1_555 1_555
C22 C21 1_555 1_555
H22 C22 1_555 1_555
C23 N3 1_555 1_555
C24 C23 1_555 1_555
C25 C24 1_555 1_555
H23 C25 1_555 1_555
H24 C25 1_555 1_555
H25 C25 1_555 1_555
C26 C24 1_555 1_555
C27 C26 1_555 1_555
H26 C27 1_555 1_555
C28 C27 1_555 1_555
C29 C28 1_555 1_555
H27 C29 1_555 1_555
C30 C29 1_555 1_555
C31 C26 1_555 1_555
H28 C31 1_555 1_555
C32 N4 1_555 1_555
C33 C32 1_555 1_555
H29 C33 1_555 1_555
C34 C33 1_555 1_555
H30 C34 1_555 1_555
C35 N4 1_555 1_555
C36 C1 1_555 1_555
C37 C36 1_555 1_555
H31 C37 1_555 1_555
H32 C37 1_555 1_555
H33 C37 1_555 1_555
C38 C36 1_555 1_555
H34 C38 1_555 1_555
H35 C38 1_555 1_555
H36 C38 1_555 1_555
C3 C4 1_555 1_555
C5 C13 1_555 1_555
C11 C12 1_555 1_555
C15 C16 1_555 1_555
C17 C20 1_555 1_555
C22 C23 1_555 1_555
C24 C32 1_555 1_555
C30 C31 1_555 1_555
C34 C35 1_555 1_555
C35 C36 1_555 1_555

#END
