
#######################################################################
#
#                 Cambridge Crystallographic Data Centre
#                                CCDC 
#
#######################################################################
#
# If this CIF has been generated from an entry in the Cambridge 
# Structural Database, then it will include bibliographic, chemical, 
# crystal, experimental, refinement or atomic coordinate data resulting 
# from the CCDC's data processing and validation procedures.
#
#######################################################################

data_PAHYAA
_chemical_formula_moiety         'C52 H36 N4 S20,2(C6 H3 N3 O6),3(C1 H2 Cl2)'
_chemical_name_systematic        
'2,2,10,10,18,18,26,26-Octamethyl-6,14,22,30-tetra(thieno[3,4-d][1,3]-dithiol-2-ylidene)-5,7,13,15,21,23,29,31-octathia-33,34,35,36-tetra-azanonacyclo-[25.5.1.1^3,9^.1^11,17^.1^19,25^.0^4,8^.0^12,16^.0^20,24^.0^28,32^]-hexatriaconta-1(32),3,8,11,16,19,24,27-octaene bis(1,3,5-trinitrobenzene) dichloromethane solvate'
_symmetry_cell_setting           triclinic
_symmetry_space_group_name_H-M   'P -1'
_symmetry_Int_Tables_number      2
_space_group_name_Hall           '-P 1'
loop_
_symmetry_equiv_pos_site_id
_symmetry_equiv_pos_as_xyz
1 x,y,z
2 -x,-y,-z
_cell_length_a                   10.712(6)
_cell_length_b                   16.115(8)
_cell_length_c                   26.873(12)
_cell_angle_alpha                100.37(3)
_cell_angle_beta                 97.72(3)
_cell_angle_gamma                106.080(19)
_cell_volume                     4300.56
_exptl_crystal_colour            black
_exptl_crystal_description       prism
_cell_formula_units_Z            2
loop_
_atom_site_label
_atom_site_type_symbol
_atom_site_fract_x
_atom_site_fract_y
_atom_site_fract_z
C1 C 0.4433(6) 0.4480(4) 0.1678(2)
C2 C 0.4647(6) 0.5387(4) 0.1821(2)
C3 C 0.3380(6) 0.5523(4) 0.1860(2)
C4 C 0.2423(6) 0.4707(4) 0.1728(2)
C5 C 0.5148(6) 0.7055(4) 0.2210(2)
C6 C 0.5748(6) 0.7888(4) 0.2488(2)
C7 C 0.7456(8) 0.9311(4) 0.3071(3)
C8 C 0.6196(8) 0.9397(4) 0.3116(3)
C9 C 0.6270(10) 1.0144(5) 0.3482(3)
H1 H 0.5533 1.0306 0.3566
C10 C 0.8479(9) 1.0001(5) 0.3396(3)
H2 H 0.9384 1.0061 0.3414
C11 C 0.0929(6) 0.4424(4) 0.1687(2)
C12 C 0.0497(7) 0.5248(5) 0.1864(3)
H3 H -0.0456 0.5070 0.1838
H4 H 0.0745 0.5660 0.1645
H5 H 0.0930 0.5533 0.2219
C13 C 0.0260(7) 0.3985(5) 0.1111(3)
H6 H 0.0491 0.3448 0.1003
H7 H 0.0567 0.4395 0.0898
H8 H -0.0694 0.3839 0.1074
C14 C 0.0526(6) 0.3768(4) 0.2019(2)
C15 C -0.0467(6) 0.2971(4) 0.1935(2)
C16 C -0.0456(6) 0.2689(4) 0.2413(2)
C17 C 0.0527(6) 0.3315(4) 0.2784(2)
C18 C -0.2176(6) 0.1407(4) 0.1717(2)
C19 C -0.2843(6) 0.0577(4) 0.1431(2)
C20 C -0.3919(6) -0.1112(4) 0.1123(2)
C21 C -0.3904(6) -0.0781(4) 0.0663(2)
C22 C -0.4445(7) -0.1439(4) 0.0219(3)
H9 H -0.4531 -0.1342 -0.0117
C23 C -0.4463(7) -0.2023(4) 0.1019(3)
H10 H -0.4560 -0.2360 0.1270
C24 C 0.0943(6) 0.3443(4) 0.3361(2)
C25 C 0.0528(6) 0.4237(5) 0.3638(3)
H11 H 0.1068 0.4786 0.3576
H12 H 0.0657 0.4267 0.4006
H13 H -0.0398 0.4149 0.3504
C26 C 0.0249(6) 0.2590(5) 0.3532(2)
H14 H -0.0704 0.2466 0.3448
H15 H 0.0529 0.2674 0.3901
H16 H 0.0487 0.2095 0.3352
C27 C 0.2434(6) 0.3655(4) 0.3505(2)
C28 C 0.3400(5) 0.4319(4) 0.38690(19)
C29 C 0.4652(5) 0.4178(4) 0.3846(2)
C30 C 0.4426(6) 0.3414(4) 0.3462(2)
C31 C 0.5149(6) 0.5640(4) 0.4535(2)
C32 C 0.5727(6) 0.6436(4) 0.4856(2)
C33 C 0.6102(7) 0.8087(4) 0.5285(3)
C34 C 0.7383(7) 0.7990(4) 0.5276(3)
C35 C 0.8372(9) 0.8802(5) 0.5431(3)
H17 H 0.9280 0.8875 0.5448
C36 C 0.6115(9) 0.8951(5) 0.5447(3)
H18 H 0.5359 0.9129 0.5477
C37 C 0.5319(6) 0.2906(4) 0.3248(2)
C38 C 0.6778(7) 0.3445(5) 0.3473(3)
H19 H 0.6961 0.4025 0.3392
H20 H 0.7346 0.3136 0.3323
H21 H 0.6947 0.3514 0.3844
C39 C 0.5019(8) 0.2010(5) 0.3401(3)
H22 H 0.5221 0.2108 0.3774
H23 H 0.5557 0.1676 0.3252
H24 H 0.4089 0.1680 0.3275
C40 C 0.5063(6) 0.2761(4) 0.2666(2)
C41 C 0.4704(6) 0.2023(4) 0.2267(2)
C42 C 0.4694(6) 0.2314(4) 0.1794(2)
C43 C 0.5078(6) 0.3223(4) 0.1915(2)
C44 C 0.3907(6) 0.0589(4) 0.1530(2)
C45 C 0.3295(6) -0.0244(4) 0.1245(2)
C46 C 0.2083(6) -0.1592(4) 0.0488(2)
C47 C 0.2077(7) -0.1929(4) 0.0942(2)
C48 C 0.1455(8) -0.2818(5) 0.0842(3)
H25 H 0.1347 -0.3152 0.1095
C49 C 0.1468(8) -0.2234(5) 0.0046(3)
H26 H 0.1375 -0.2132 -0.0288
C50 C 0.5338(6) 0.3915(4) 0.1583(2)
C51 C 0.6788(7) 0.4486(5) 0.1749(3)
H27 H 0.6977 0.4916 0.1537
H28 H 0.7353 0.4111 0.1707
H29 H 0.6955 0.4793 0.2108
C52 C 0.5040(8) 0.3448(5) 0.1000(3)
H30 H 0.4132 0.3060 0.0902
H31 H 0.5637 0.3101 0.0939
H32 H 0.5166 0.3892 0.0795
N1 N 0.3076(5) 0.4085(3) 0.16219(19)
H33 H 0.2684 0.3516 0.1531
N2 N 0.5283(5) 0.3482(3) 0.2442(2)
H34 H 0.5522 0.4031 0.2614
N3 N 0.3082(5) 0.3128(3) 0.32674(18)
H35 H 0.2689 0.2660 0.3019
N4 N 0.1107(5) 0.3973(3) 0.25379(19)
H36 H 0.1753 0.4452 0.2691
S1 S 0.60343(15) 0.49324(10) 0.42868(6)
S2 S 0.33915(15) 0.52178(10) 0.43518(6)
S3 S 0.47656(18) 0.70977(11) 0.51075(7)
S4 S 0.74649(17) 0.69077(11) 0.50749(7)
S5 S 0.7723(3) 0.96596(13) 0.55891(10)
S6 S 0.43691(17) 0.08684(10) 0.22126(6)
S7 S 0.43305(18) 0.14915(11) 0.12219(6)
S8 S 0.28491(17) -0.04513(11) 0.05656(6)
S9 S 0.28944(17) -0.11666(11) 0.15288(6)
S10 S 0.0894(3) -0.32474(14) 0.01930(8)
S11 S 0.60327(16) 0.63446(11) 0.19622(7)
S12 S 0.33956(16) 0.66298(11) 0.20414(7)
S13 S 0.48217(19) 0.85919(12) 0.27067(7)
S14 S 0.74990(17) 0.83807(11) 0.26248(7)
S15 S 0.7875(3) 1.07290(15) 0.37601(9)
S16 S -0.17343(16) 0.23157(10) 0.14116(6)
S17 S -0.16995(15) 0.16848(11) 0.23980(6)
S18 S -0.33425(16) -0.03308(10) 0.17165(6)
S19 S -0.32949(16) 0.03726(10) 0.07516(6)
S20 S -0.4939(2) -0.24573(12) 0.03637(8)
O1 O 0.4089(8) 0.5427(5) 0.3030(2)
O2 O 0.6169(9) 0.5465(4) 0.3066(3)
O3 O 0.3048(9) 0.7890(8) 0.3973(5)
O4 O 0.4607(9) 0.9145(6) 0.4326(4)
O5 O 0.9607(8) 0.8155(7) 0.3951(5)
O6 O 0.9169(7) 0.9227(5) 0.4398(3)
N5 N 0.5250(11) 0.5778(5) 0.3165(3)
N6 N 0.8852(8) 0.8502(6) 0.4121(3)
N7 N 0.4226(10) 0.8368(7) 0.4093(4)
C53 C 0.5721(8) 0.6706(5) 0.3501(3)
C54 C 0.7049(8) 0.7152(5) 0.3654(3)
H37 H 0.7688 0.6890 0.3557
C55 C 0.7408(7) 0.7993(5) 0.3955(3)
C56 C 0.6526(8) 0.8414(5) 0.4109(3)
H38 H 0.6808 0.8993 0.4317
C57 C 0.5216(8) 0.7944(6) 0.3944(3)
C58 C 0.4769(9) 0.7076(6) 0.3636(3)
H39 H 0.3861 0.6764 0.3527
O7 O -0.1411(7) -0.2385(4) 0.1170(3)
O8 O -0.1548(6) -0.2003(4) 0.0428(3)
O9 O 0.0715(9) -0.0213(6) 0.2744(3)
O10 O 0.1530(6) 0.1186(4) 0.2737(3)
O11 O 0.0388(9) 0.1095(5) 0.0401(3)
O12 O 0.1369(7) 0.2068(4) 0.1111(3)
N8 N -0.1207(6) -0.1833(5) 0.0901(3)
N9 N 0.0956(7) 0.0397(6) 0.2520(3)
N10 N 0.0763(7) 0.1321(5) 0.0867(3)
C59 C -0.0139(7) -0.0712(5) 0.1711(3)
H40 H -0.0347 -0.1156 0.1897
C60 C -0.0491(6) -0.0895(5) 0.1169(3)
C61 C -0.0249(7) -0.0266(5) 0.0883(3)
H41 H -0.0526 -0.0411 0.0522
C62 C 0.0437(7) 0.0607(5) 0.1157(3)
C63 C 0.0831(7) 0.0845(5) 0.1687(3)
H42 H 0.1278 0.1437 0.1861
C64 C 0.0541(7) 0.0175(5) 0.1952(3)
Cl1 Cl -0.1770(4) -0.4782(2) 0.05812(13)
Cl2 Cl -0.3074(5) -0.4954(3) -0.04475(12)
C65 C -0.2669(8) -0.4321(6) 0.0182(2)
Cl4 Cl 0.0428(6) 0.3924(4) 0.5716(2)
Cl5 Cl -0.1111(13) 0.2235(6) 0.5084(5)
C66 C -0.1102(14) 0.3308(7) 0.5328(4)
Cl9 Cl 0.0105(4) 0.7331(2) 0.22247(14)
Cl10 Cl -0.0068(8) 0.6465(4) 0.3055(2)
C68 C 0.0757(15) 0.7423(8) 0.2866(4)
Cl3? Cl -0.4050(6) -0.4370(4) 0.0447(3)
Cl6? Cl -0.1162(10) 0.3782(9) 0.4793(4)
Cl7? Cl -0.0297(15) 0.4225(8) 0.5138(6)
Cl8? Cl -0.1470(10) 0.2415(8) 0.4816(4)
C67? C -0.097(4) 0.3278(10) 0.5361(6)
C69? C 0.149(6) 0.7456(14) 0.2848(16)
Cl11? Cl 0.073(2) 0.6645(11) 0.3154(11)
Cl12? Cl 0.1470(18) 0.8470(11) 0.3192(7)
loop_
_geom_bond_atom_site_label_1
_geom_bond_atom_site_label_2
_geom_bond_site_symmetry_1
_geom_bond_site_symmetry_2
C1 C2 1_555 1_555
C2 C3 1_555 1_555
C3 C4 1_555 1_555
C4 C11 1_555 1_555
C5 C6 1_555 1_555
C6 S13 1_555 1_555
C7 C8 1_555 1_555
C8 C9 1_555 1_555
C9 H1 1_555 1_555
C10 C7 1_555 1_555
H2 C10 1_555 1_555
C11 C12 1_555 1_555
C12 H3 1_555 1_555
H4 C12 1_555 1_555
H5 C12 1_555 1_555
C13 C11 1_555 1_555
H6 C13 1_555 1_555
H7 C13 1_555 1_555
H8 C13 1_555 1_555
C14 C11 1_555 1_555
C15 C14 1_555 1_555
C16 C15 1_555 1_555
C17 C16 1_555 1_555
C18 C19 1_555 1_555
C19 S18 1_555 1_555
C20 C21 1_555 1_555
C21 C22 1_555 1_555
C22 H9 1_555 1_555
C23 C20 1_555 1_555
H10 C23 1_555 1_555
C24 C17 1_555 1_555
C25 C24 1_555 1_555
H11 C25 1_555 1_555
H12 C25 1_555 1_555
H13 C25 1_555 1_555
C26 C24 1_555 1_555
H14 C26 1_555 1_555
H15 C26 1_555 1_555
H16 C26 1_555 1_555
C27 C24 1_555 1_555
C28 C27 1_555 1_555
C29 C28 1_555 1_555
C30 C29 1_555 1_555
C31 C32 1_555 1_555
C32 S3 1_555 1_555
C33 C34 1_555 1_555
C34 C35 1_555 1_555
C35 H17 1_555 1_555
C36 C33 1_555 1_555
H18 C36 1_555 1_555
C37 C30 1_555 1_555
C38 C37 1_555 1_555
H19 C38 1_555 1_555
H20 C38 1_555 1_555
H21 C38 1_555 1_555
C39 C37 1_555 1_555
H22 C39 1_555 1_555
H23 C39 1_555 1_555
H24 C39 1_555 1_555
C40 C37 1_555 1_555
C41 C40 1_555 1_555
C42 C41 1_555 1_555
C43 C42 1_555 1_555
C44 C45 1_555 1_555
C45 S8 1_555 1_555
C46 C47 1_555 1_555
C47 C48 1_555 1_555
C48 H25 1_555 1_555
C49 C46 1_555 1_555
H26 C49 1_555 1_555
C50 C1 1_555 1_555
C51 C50 1_555 1_555
H27 C51 1_555 1_555
H28 C51 1_555 1_555
H29 C51 1_555 1_555
C52 C50 1_555 1_555
H30 C52 1_555 1_555
H31 C52 1_555 1_555
H32 C52 1_555 1_555
N1 C1 1_555 1_555
H33 N1 1_555 1_555
N2 C40 1_555 1_555
H34 N2 1_555 1_555
N3 C27 1_555 1_555
H35 N3 1_555 1_555
N4 C14 1_555 1_555
H36 N4 1_555 1_555
O1 N5 1_555 1_555
O2 N5 1_555 1_555
O3 N7 1_555 1_555
O4 N7 1_555 1_555
O5 N6 1_555 1_555
O6 N6 1_555 1_555
N5 C53 1_555 1_555
N6 C55 1_555 1_555
N7 C57 1_555 1_555
C53 C54 1_555 1_555
C54 H37 1_555 1_555
C55 C54 1_555 1_555
C56 C55 1_555 1_555
H38 C56 1_555 1_555
C57 C56 1_555 1_555
C58 C53 1_555 1_555
H39 C58 1_555 1_555
S1 C29 1_555 1_555
S2 C28 1_555 1_555
S3 C33 1_555 1_555
S4 C32 1_555 1_555
S5 C35 1_555 1_555
S6 C41 1_555 1_555
S7 C42 1_555 1_555
S8 C46 1_555 1_555
S9 C45 1_555 1_555
S10 C48 1_555 1_555
S11 C2 1_555 1_555
S12 C3 1_555 1_555
S13 C8 1_555 1_555
S14 C6 1_555 1_555
S15 C9 1_555 1_555
S16 C15 1_555 1_555
S17 C16 1_555 1_555
S18 C20 1_555 1_555
S19 C19 1_555 1_555
S20 C22 1_555 1_555
O7 N8 1_555 1_555
O8 N8 1_555 1_555
O9 N9 1_555 1_555
O10 N9 1_555 1_555
O11 N10 1_555 1_555
O12 N10 1_555 1_555
N8 C60 1_555 1_555
N9 C64 1_555 1_555
N10 C62 1_555 1_555
C59 H40 1_555 1_555
C60 C59 1_555 1_555
C61 C60 1_555 1_555
H41 C61 1_555 1_555
C62 C61 1_555 1_555
C63 C62 1_555 1_555
H42 C63 1_555 1_555
C64 C59 1_555 1_555
Cl1 C65 1_555 1_555
Cl2 C65 1_555 1_555
Cl4 C66 1_555 1_555
Cl5 C66 1_555 1_555
Cl9 C68 1_555 1_555
Cl10 C68 1_555 1_555
C4 N1 1_555 1_555
C5 S11 1_555 1_555
C5 S12 1_555 1_555
C7 S14 1_555 1_555
C10 S15 1_555 1_555
C17 N4 1_555 1_555
C18 S16 1_555 1_555
C18 S17 1_555 1_555
C21 S19 1_555 1_555
C23 S20 1_555 1_555
C30 N3 1_555 1_555
C31 S1 1_555 1_555
C31 S2 1_555 1_555
C34 S4 1_555 1_555
C36 S5 1_555 1_555
C43 C50 1_555 1_555
C43 N2 1_555 1_555
C44 S6 1_555 1_555
C44 S7 1_555 1_555
C47 S9 1_555 1_555
C49 S10 1_555 1_555
C57 C58 1_555 1_555
C63 C64 1_555 1_555

#END
