
#######################################################################
#
#                 Cambridge Crystallographic Data Centre
#                                CCDC 
#
#######################################################################
#
# If this CIF has been generated from an entry in the Cambridge 
# Structural Database, then it will include bibliographic, chemical, 
# crystal, experimental, refinement or atomic coordinate data resulting 
# from the CCDC's data processing and validation procedures.
#
#######################################################################

data_PAHYON01
_chemical_name_common            Imidazolidine-2,4-dione
_chemical_formula_moiety         'C3 H4 N2 O2'
_chemical_name_systematic        Hydantoin
_symmetry_cell_setting           monoclinic
_symmetry_space_group_name_H-M   'C 2/c'
_symmetry_Int_Tables_number      15
_space_group_name_Hall           '-C 2yn'
loop_
_symmetry_equiv_pos_site_id
_symmetry_equiv_pos_as_xyz
1 x,y,z
2 1/2+x,1/2+y,z
3 -x,y,1/2-z
4 1/2-x,1/2+y,1/2-z
5 -x,-y,-z
6 1/2-x,1/2-y,-z
7 x,-y,1/2+z
8 1/2+x,1/2-y,1/2+z
_cell_length_a                   9.3538(7)
_cell_length_b                   12.1757(11)
_cell_length_c                   7.2286(6)
_cell_angle_alpha                90
_cell_angle_beta                 104.593(4)
_cell_angle_gamma                90
_cell_volume                     796.7
_exptl_crystal_colour            colorless
_exptl_crystal_description       plate
_cell_formula_units_Z            8
_exptl_crystal_recrystallization_method methanol
loop_
_atom_site_label
_atom_site_type_symbol
_atom_site_fract_x
_atom_site_fract_y
_atom_site_fract_z
C1 C 0.7974(3) 0.00484(19) 0.8218(3)
N1 N 0.6630(2) 0.01532(16) 0.6856(3)
C2 C 0.6326(3) 0.12247(19) 0.6338(3)
C3 C 0.7522(3) 0.1883(2) 0.7508(4)
N2 N 0.8510(3) 0.10869(19) 0.8685(3)
O1 O 0.5237(2) 0.15458(14) 0.5136(3)
O2 O 0.8518(2) -0.08264(14) 0.8866(3)
H1 H 0.802(3) 0.224(3) 0.685(5)
H2 H 0.723(3) 0.236(3) 0.815(5)
H3 H 0.943(3) 0.119(2) 0.959(4)
H4 H 0.610(4) -0.038(3) 0.623(5)
loop_
_geom_bond_atom_site_label_1
_geom_bond_atom_site_label_2
_geom_bond_site_symmetry_1
_geom_bond_site_symmetry_2
C1 N1 1_555 1_555
N1 C2 1_555 1_555
C2 C3 1_555 1_555
C3 N2 1_555 1_555
N2 C1 1_555 1_555
O1 C2 1_555 1_555
O2 C1 1_555 1_555
H1 C3 1_555 1_555
H2 C3 1_555 1_555
H3 N2 1_555 1_555
H4 N1 1_555 1_555

#END
