
#######################################################################
#
#                 Cambridge Crystallographic Data Centre
#                                CCDC 
#
#######################################################################
#
# If this CIF has been generated from an entry in the Cambridge 
# Structural Database, then it will include bibliographic, chemical, 
# crystal, experimental, refinement or atomic coordinate data resulting 
# from the CCDC's data processing and validation procedures.
#
#######################################################################

data_PAHZOP
_chemical_formula_moiety         'C29 H24 F3 N1 O5'
_chemical_name_systematic        
"Ethyl 6'-hydroxy-1,3-dioxo-2',4'-diphenyl-6'-(trifluoromethyl)-1,3-dihydrospiro[indene-2,3'-piperidine]-5'-carboxylate"
_symmetry_cell_setting           monoclinic
_symmetry_space_group_name_H-M   'P 21/n'
_symmetry_Int_Tables_number      14
_space_group_name_Hall           '-P 2yn'
loop_
_symmetry_equiv_pos_site_id
_symmetry_equiv_pos_as_xyz
1 x,y,z
2 1/2-x,1/2+y,1/2-z
3 -x,-y,-z
4 1/2+x,1/2-y,1/2+z
_cell_length_a                   9.0592(10)
_cell_length_b                   17.724(2)
_cell_length_c                   15.9846(18)
_cell_angle_alpha                90
_cell_angle_beta                 100.901(2)
_cell_angle_gamma                90
_cell_volume                     2520.26
_chemical_melting_point          '171-173 deg.C'
_cell_formula_units_Z            4
loop_
_atom_site_label
_atom_site_type_symbol
_atom_site_fract_x
_atom_site_fract_y
_atom_site_fract_z
C1 C -0.0639(3) 0.01858(13) 0.26546(15)
C2 C -0.0812(3) 0.04001(14) 0.17525(15)
C3 C -0.1740(3) 0.00831(18) 0.10508(17)
H1 H -0.2347 -0.0330 0.1107
C4 C -0.1726(4) 0.0404(2) 0.0267(2)
H2 H -0.2325 0.0200 -0.0217
C5 C -0.0841(4) 0.1023(2) 0.0187(2)
H3 H -0.0878 0.1234 -0.0349
C6 C 0.0096(3) 0.13389(18) 0.08795(17)
H4 H 0.0695 0.1754 0.0821
C7 C 0.0103(3) 0.10095(14) 0.16656(15)
C8 C 0.1014(3) 0.12198(13) 0.25030(15)
C9 C 0.0582(2) 0.06910(12) 0.31789(14)
C10 C -0.0042(2) 0.11022(12) 0.38955(14)
H5 H -0.0408 0.0711 0.4238
C11 C -0.1369(3) 0.16174(12) 0.35644(14)
C12 C -0.1195(3) 0.23054(14) 0.31805(16)
H6 H -0.0245 0.2451 0.3100
C13 C -0.2406(3) 0.27774(16) 0.29159(18)
H7 H -0.2270 0.3238 0.2662
C14 C -0.3815(3) 0.25630(17) 0.30295(19)
H8 H -0.4632 0.2882 0.2859
C15 C -0.4014(3) 0.18800(17) 0.33931(19)
H9 H -0.4971 0.1731 0.3458
C16 C -0.2800(3) 0.14106(15) 0.36646(17)
H10 H -0.2946 0.0951 0.3917
C17 C 0.1230(3) 0.15228(12) 0.44918(14)
H11 H 0.1617 0.1920 0.4165
C18 C 0.0588(3) 0.18890(15) 0.51982(16)
C19 C 0.0110(6) 0.3049(2) 0.5822(2)
H12 H -0.0326 0.2701 0.6175
H13 H 0.0924 0.3317 0.6184
C20 C -0.1005(7) 0.3575(4) 0.5434(3)
H14 H -0.0623 0.3864 0.5014
H15 H -0.1252 0.3908 0.5862
H16 H -0.1890 0.3307 0.5167
C21 C 0.2530(3) 0.09784(13) 0.48437(14)
C22 C 0.3875(3) 0.14121(15) 0.53492(17)
C23 C 0.1913(2) 0.01718(12) 0.35929(14)
H17 H 0.1526 -0.0202 0.3948
C24 C 0.2626(2) -0.02464(13) 0.29435(14)
C25 C 0.3735(3) 0.00746(15) 0.25735(17)
H18 H 0.4063 0.0562 0.2723
C26 C 0.4363(3) -0.03216(18) 0.19832(19)
H19 H 0.5112 -0.0101 0.1740
C27 C 0.3880(3) -0.10408(17) 0.17563(18)
H20 H 0.4293 -0.1306 0.1354
C28 C 0.2788(3) -0.13660(15) 0.21248(18)
H21 H 0.2461 -0.1853 0.1972
C29 C 0.2174(3) -0.09764(13) 0.27176(16)
H22 H 0.1446 -0.1206 0.2971
F1 F 0.42343(18) 0.20183(9) 0.49352(11)
F2 F 0.51096(18) 0.09875(10) 0.55155(11)
F3 F 0.3597(2) 0.16595(11) 0.60889(10)
N1 N 0.3041(2) 0.06290(10) 0.41437(11)
H23 H 0.3941 0.0684 0.4054
O1 O -0.13350(19) -0.02990(10) 0.29462(11)
O2 O 0.19411(19) 0.17199(9) 0.26239(11)
O3 O 0.0046(2) 0.15477(12) 0.57122(12)
O4 O 0.0694(3) 0.26336(10) 0.51723(12)
O5 O 0.2139(2) 0.04137(9) 0.53825(10)
H24 H 0.1677 0.0604 0.5724
loop_
_geom_bond_atom_site_label_1
_geom_bond_atom_site_label_2
_geom_bond_site_symmetry_1
_geom_bond_site_symmetry_2
C1 C2 1_555 1_555
C2 C3 1_555 1_555
C3 H1 1_555 1_555
C4 C3 1_555 1_555
H2 C4 1_555 1_555
C5 C4 1_555 1_555
H3 C5 1_555 1_555
C6 C5 1_555 1_555
H4 C6 1_555 1_555
C7 C2 1_555 1_555
C8 C7 1_555 1_555
C9 C1 1_555 1_555
C10 C9 1_555 1_555
H5 C10 1_555 1_555
C11 C10 1_555 1_555
C12 C11 1_555 1_555
H6 C12 1_555 1_555
C13 C12 1_555 1_555
H7 C13 1_555 1_555
C14 C13 1_555 1_555
H8 C14 1_555 1_555
C15 C14 1_555 1_555
H9 C15 1_555 1_555
C16 C11 1_555 1_555
H10 C16 1_555 1_555
C17 C10 1_555 1_555
H11 C17 1_555 1_555
C18 C17 1_555 1_555
C19 H12 1_555 1_555
H13 C19 1_555 1_555
C20 C19 1_555 1_555
H14 C20 1_555 1_555
H15 C20 1_555 1_555
H16 C20 1_555 1_555
C21 C17 1_555 1_555
C22 C21 1_555 1_555
C23 C9 1_555 1_555
H17 C23 1_555 1_555
C24 C23 1_555 1_555
C25 C24 1_555 1_555
H18 C25 1_555 1_555
C26 C25 1_555 1_555
H19 C26 1_555 1_555
C27 C26 1_555 1_555
H20 C27 1_555 1_555
C28 C27 1_555 1_555
H21 C28 1_555 1_555
C29 C24 1_555 1_555
H22 C29 1_555 1_555
F1 C22 1_555 1_555
F2 C22 1_555 1_555
F3 C22 1_555 1_555
N1 C21 1_555 1_555
H23 N1 1_555 1_555
O1 C1 1_555 1_555
O2 C8 1_555 1_555
O3 C18 1_555 1_555
O4 C18 1_555 1_555
O5 C21 1_555 1_555
H24 O5 1_555 1_555
C6 C7 1_555 1_555
C8 C9 1_555 1_555
C15 C16 1_555 1_555
C19 O4 1_555 1_555
C23 N1 1_555 1_555
C28 C29 1_555 1_555

#END
