
#######################################################################
#
#                 Cambridge Crystallographic Data Centre
#                                CCDC 
#
#######################################################################
#
# If this CIF has been generated from an entry in the Cambridge 
# Structural Database, then it will include bibliographic, chemical, 
# crystal, experimental, refinement or atomic coordinate data resulting 
# from the CCDC's data processing and validation procedures.
#
#######################################################################

data_PAHZEF
_chemical_formula_moiety         'C12 H10 F3 N3 O2'
_chemical_name_systematic        
'Methyl 1-(4-methylphenyl)-5-(trifluoromethyl)-1H-1,2,3-triazole-4-carboxylate'
_symmetry_cell_setting           triclinic
_symmetry_space_group_name_H-M   'P -1'
_symmetry_Int_Tables_number      2
_space_group_name_Hall           '-P 1'
loop_
_symmetry_equiv_pos_site_id
_symmetry_equiv_pos_as_xyz
1 x,y,z
2 -x,-y,-z
_cell_length_a                   8.010(11)
_cell_length_b                   9.002(13)
_cell_length_c                   10.461(15)
_cell_angle_alpha                103.949(19)
_cell_angle_beta                 108.294(16)
_cell_angle_gamma                103.603(18)
_cell_volume                     654.312
_chemical_melting_point          '72.3-73.5 deg.C'
_cell_formula_units_Z            2
loop_
_atom_site_label
_atom_site_type_symbol
_atom_site_fract_x
_atom_site_fract_y
_atom_site_fract_z
C1 C 0.0766(7) 0.7916(7) 0.9843(4)
H1 H 0.0104 0.6794 0.9641
H2 H -0.0106 0.8490 0.9677
H3 H 0.1635 0.8388 1.0825
C2 C 0.1814(6) 0.8038(5) 0.8875(4)
C3 C 0.1163(5) 0.8468(5) 0.7684(4)
H4 H 0.0075 0.8731 0.7493
C4 C 0.2073(5) 0.8521(4) 0.6763(4)
H5 H 0.1597 0.8795 0.5954
C5 C 0.3687(5) 0.8163(4) 0.7068(3)
C6 C 0.4398(6) 0.7751(6) 0.8249(4)
H6 H 0.5502 0.7516 0.8450
C7 C 0.3449(7) 0.7693(6) 0.9136(4)
H7 H 0.3927 0.7409 0.9939
C8 C 0.4262(4) 0.7139(4) 0.4806(3)
C9 C 0.2631(5) 0.5605(5) 0.4080(4)
C10 C 0.5692(5) 0.7777(4) 0.4436(3)
C11 C 0.5979(6) 0.7158(5) 0.3097(4)
C12 C 0.8133(8) 0.7277(8) 0.2017(6)
H8 H 0.7832 0.6118 0.1689
H9 H 0.9435 0.7793 0.2250
H10 H 0.7398 0.7588 0.1275
O1 O 0.4754(5) 0.6235(4) 0.2022(3)
F1 F 0.2070(5) 0.5067(3) 0.4993(3)
F2 F 0.3057(3) 0.4412(3) 0.3410(2)
F3 F 0.1249(4) 0.5741(4) 0.3154(4)
N1 N 0.6896(4) 0.9169(4) 0.5504(3)
N2 N 0.6274(4) 0.9427(4) 0.6525(3)
N3 N 0.4669(4) 0.8200(3) 0.6119(3)
O2 O 0.7727(4) 0.7778(4) 0.3283(3)
loop_
_geom_bond_atom_site_label_1
_geom_bond_atom_site_label_2
_geom_bond_site_symmetry_1
_geom_bond_site_symmetry_2
C1 H1 1_555 1_555
H2 C1 1_555 1_555
H3 C1 1_555 1_555
C2 C1 1_555 1_555
C3 C2 1_555 1_555
H4 C3 1_555 1_555
C4 C3 1_555 1_555
H5 C4 1_555 1_555
C5 C4 1_555 1_555
C6 C5 1_555 1_555
H6 C6 1_555 1_555
C7 C2 1_555 1_555
H7 C7 1_555 1_555
C8 C9 1_555 1_555
C9 F1 1_555 1_555
C10 C8 1_555 1_555
C11 C10 1_555 1_555
C12 H8 1_555 1_555
H9 C12 1_555 1_555
H10 C12 1_555 1_555
O1 C11 1_555 1_555
F2 C9 1_555 1_555
F3 C9 1_555 1_555
N1 C10 1_555 1_555
N2 N1 1_555 1_555
N3 C5 1_555 1_555
O2 C11 1_555 1_555
C6 C7 1_555 1_555
C8 N3 1_555 1_555
C12 O2 1_555 1_555
N2 N3 1_555 1_555

#END
