
#######################################################################
#
#                 Cambridge Crystallographic Data Centre
#                                CCDC 
#
#######################################################################
#
# If this CIF has been generated from an entry in the Cambridge 
# Structural Database, then it will include bibliographic, chemical, 
# crystal, experimental, refinement or atomic coordinate data resulting 
# from the CCDC's data processing and validation procedures.
#
#######################################################################

data_PAJBOT
_chemical_formula_moiety         'C22 H26 F3 N1 O2 S1,C4 H10 O1'
_chemical_name_systematic        
'(R~S~,1S,3R)- N-((E)-3-Hydroxy-1,5-diphenyl-3-(trifluoromethyl)pent-4-en-1-yl)-2-methylpropane-2-sulfinamide diethyl ether solvate'
_symmetry_cell_setting           orthorhombic
_symmetry_space_group_name_H-M   'P 21 21 21'
_symmetry_Int_Tables_number      19
_space_group_name_Hall           'P 2ac 2ab'
loop_
_symmetry_equiv_pos_site_id
_symmetry_equiv_pos_as_xyz
1 x,y,z
2 1/2-x,-y,1/2+z
3 -x,1/2+y,1/2-z
4 1/2+x,1/2-y,-z
_cell_length_a                   9.3233(10)
_cell_length_b                   15.1280(16)
_cell_length_c                   20.521(2)
_cell_angle_alpha                90
_cell_angle_beta                 90
_cell_angle_gamma                90
_cell_volume                     2894.34
_exptl_crystal_colour            colorless
_exptl_crystal_description       prismatic
_chemical_melting_point          '153-155 deg.C'
_cell_formula_units_Z            4
loop_
_atom_site_label
_atom_site_type_symbol
_atom_site_fract_x
_atom_site_fract_y
_atom_site_fract_z
S1 S 0.33525(10) 0.40443(6) 1.03557(4)
O1 O 0.6185(3) 0.26775(17) 0.87756(12)
O2 O 0.2664(3) 0.31612(17) 1.02615(14)
N1 N 0.4638(3) 0.4191(2) 0.98057(14)
F1 F 0.8705(3) 0.43220(17) 0.82941(11)
F2 F 0.9096(3) 0.29876(18) 0.85914(12)
F3 F 0.7879(3) 0.32434(17) 0.77331(11)
C1 C 0.6024(4) 0.3741(2) 0.99635(16)
H1 H 0.5858 0.3104 1.0004
C2 C 0.7102(4) 0.3907(2) 0.94195(15)
H2 H 0.8014 0.3655 0.9550
H3 H 0.7237 0.4541 0.9379
C3 C 0.6716(4) 0.3542(2) 0.87490(16)
C4 C 0.5682(4) 0.4117(2) 0.83945(16)
H4 H 0.5893 0.4717 0.8378
C5 C 0.4522(4) 0.3864(3) 0.81077(17)
H5 H 0.4324 0.3262 0.8128
C6 C 0.3479(5) 0.4403(3) 0.77546(17)
C7 C 0.2221(5) 0.4029(4) 0.7527(2)
H6 H 0.2058 0.3429 0.7596
C8 C 0.1200(6) 0.4521(5) 0.7201(3)
H7 H 0.0361 0.4252 0.7057
C9 C 0.1421(7) 0.5402(6) 0.7088(2)
H8 H 0.0735 0.5735 0.6870
C10 C 0.2676(7) 0.5793(4) 0.7304(3)
H9 H 0.2835 0.6390 0.7225
C11 C 0.3699(6) 0.5304(4) 0.7635(2)
H10 H 0.4536 0.5575 0.7779
C12 C 0.6614(4) 0.4095(3) 1.06047(16)
C13 C 0.7183(5) 0.3516(3) 1.10543(19)
H11 H 0.7157 0.2910 1.0979
C14 C 0.7787(6) 0.3842(5) 1.1611(2)
H12 H 0.8182 0.3448 1.1910
C15 C 0.7828(6) 0.4707(5) 1.1742(2)
H13 H 0.8247 0.4907 1.2126
C16 C 0.7246(5) 0.5309(4) 1.1304(2)
H14 H 0.7254 0.5912 1.1393
C17 C 0.6655(4) 0.4989(3) 1.07347(19)
H15 H 0.6278 0.5384 1.0433
C18 C 0.2049(4) 0.4834(3) 1.00402(19)
C19 C 0.1641(6) 0.4629(3) 0.9337(2)
H16 H 0.0879 0.5014 0.9202
H17 H 0.1330 0.4025 0.9305
H18 H 0.2459 0.4718 0.9060
C20 C 0.0766(5) 0.4729(3) 1.0508(2)
H19 H 0.0063 0.5175 1.0415
H20 H 0.1089 0.4791 1.0949
H21 H 0.0345 0.4155 1.0450
C21 C 0.2723(6) 0.5757(3) 1.0117(3)
H22 H 0.3413 0.5851 0.9777
H23 H 0.3189 0.5797 1.0533
H24 H 0.1986 0.6198 1.0089
C22 C 0.8112(5) 0.3521(3) 0.83447(19)
H35 H 0.438(5) 0.406(3) 0.9400(12)
H36 H 0.669(4) 0.239(2) 0.9031(14)
O3 O 0.2806(12) 0.2002(7) 0.6416(6)
C23 C 0.5034(12) 0.2506(6) 0.6253(4)
H25 H 0.4594 0.2902 0.6559
H26 H 0.5462 0.2841 0.5907
H27 H 0.5760 0.2165 0.6470
C24 C 0.3858(15) 0.1864(8) 0.5963(6)
H28 H 0.3559 0.2041 0.5530
H29 H 0.4179 0.1255 0.5956
C25 C 0.1577(17) 0.1687(10) 0.6013(7)
H30 H 0.1544 0.1986 0.5596
H31 H 0.1624 0.1053 0.5942
C26 C 0.0340(14) 0.1926(8) 0.6424(7)
H32 H 0.0656 0.2018 0.6864
H33 H -0.0353 0.1457 0.6414
H34 H -0.0088 0.2459 0.6261
loop_
_geom_bond_atom_site_label_1
_geom_bond_atom_site_label_2
_geom_bond_site_symmetry_1
_geom_bond_site_symmetry_2
S1 O2 1_555 1_555
O1 C3 1_555 1_555
O3 C24 1_555 1_555
N1 S1 1_555 1_555
F1 C22 1_555 1_555
F2 C22 1_555 1_555
F3 C22 1_555 1_555
C1 N1 1_555 1_555
H1 C1 1_555 1_555
C2 C1 1_555 1_555
H2 C2 1_555 1_555
H3 C2 1_555 1_555
C3 C2 1_555 1_555
C4 C3 1_555 1_555
H4 C4 1_555 1_555
C5 C4 1_555 1_555
H5 C5 1_555 1_555
C6 C5 1_555 1_555
C7 C6 1_555 1_555
H6 C7 1_555 1_555
C8 C7 1_555 1_555
H7 C8 1_555 1_555
C9 C8 1_555 1_555
H8 C9 1_555 1_555
C10 C9 1_555 1_555
H9 C10 1_555 1_555
C11 C6 1_555 1_555
H10 C11 1_555 1_555
C12 C1 1_555 1_555
C13 C12 1_555 1_555
H11 C13 1_555 1_555
C14 C13 1_555 1_555
H12 C14 1_555 1_555
C15 C14 1_555 1_555
H13 C15 1_555 1_555
C16 C15 1_555 1_555
H14 C16 1_555 1_555
C17 C12 1_555 1_555
H15 C17 1_555 1_555
C18 S1 1_555 1_555
C19 C18 1_555 1_555
H16 C19 1_555 1_555
H17 C19 1_555 1_555
H18 C19 1_555 1_555
C20 C18 1_555 1_555
H19 C20 1_555 1_555
H20 C20 1_555 1_555
H21 C20 1_555 1_555
C21 C18 1_555 1_555
H22 C21 1_555 1_555
H23 C21 1_555 1_555
H24 C21 1_555 1_555
C22 C3 1_555 1_555
C23 H25 1_555 1_555
H26 C23 1_555 1_555
H27 C23 1_555 1_555
C24 C23 1_555 1_555
H28 C24 1_555 1_555
H29 C24 1_555 1_555
C25 O3 1_555 1_555
H30 C25 1_555 1_555
H31 C25 1_555 1_555
C26 C25 1_555 1_555
H32 C26 1_555 1_555
H33 C26 1_555 1_555
H34 C26 1_555 1_555
H35 N1 1_555 1_555
H36 O1 1_555 1_555
C10 C11 1_555 1_555
C16 C17 1_555 1_555

#END
