
#######################################################################
#
#                 Cambridge Crystallographic Data Centre
#                                CCDC 
#
#######################################################################
#
# If this CIF has been generated from an entry in the Cambridge 
# Structural Database, then it will include bibliographic, chemical, 
# crystal, experimental, refinement or atomic coordinate data resulting 
# from the CCDC's data processing and validation procedures.
#
#######################################################################

data_PAJBIN
_chemical_formula_moiety         'C5 H9 N2 1+,F1 1-,1.5(H2 O1)'
_chemical_name_systematic        
'1,3-Dimethyl-1H-imidazol-3-ium fluoride sesquihydrate'
_symmetry_cell_setting           monoclinic
_symmetry_space_group_name_H-M   'P 21/n'
_symmetry_Int_Tables_number      14
_space_group_name_Hall           '-P 2yn'
loop_
_symmetry_equiv_pos_site_id
_symmetry_equiv_pos_as_xyz
1 x,y,z
2 1/2-x,1/2+y,1/2-z
3 -x,-y,-z
4 1/2+x,1/2-y,1/2+z
_cell_length_a                   6.930(6)
_cell_length_b                   15.911(14)
_cell_length_c                   13.378(12)
_cell_angle_alpha                90
_cell_angle_beta                 97.553(15)
_cell_angle_gamma                90
_cell_volume                     1462.3
_cell_formula_units_Z            8
loop_
_atom_site_label
_atom_site_type_symbol
_atom_site_fract_x
_atom_site_fract_y
_atom_site_fract_z
F1 F 0.1324(2) 0.62455(8) 0.76138(11)
F2 F 0.1736(2) 0.73788(9) 0.45111(9)
N1 N 0.7185(3) 0.43971(11) 0.72627(13)
C1 C 0.7570(3) 0.35834(13) 0.71992(16)
H1 H 0.7826 0.3301 0.6622
N2 N 0.7527(3) 0.32462(11) 0.80896(13)
C2 C 0.7088(4) 0.38549(14) 0.87447(17)
H2 H 0.6956 0.3783 0.9422
C3 C 0.6885(3) 0.45695(15) 0.82257(17)
H3 H 0.6592 0.5093 0.8476
C4 C 0.7156(4) 0.50003(16) 0.64468(19)
H4 H 0.8228 0.5382 0.6592
H5 H 0.5955 0.5309 0.6381
H6 H 0.7265 0.4709 0.5829
C5 C 0.7810(4) 0.23588(15) 0.8321(2)
H7 H 0.6566 0.2087 0.8290
H8 H 0.8505 0.2298 0.8987
H9 H 0.8544 0.2106 0.7840
N3 N 0.2145(3) 0.41454(10) 0.84524(12)
C6 C 0.2049(3) 0.44497(13) 0.75345(15)
H10 H 0.1826 0.5008 0.7350
N4 N 0.2323(3) 0.38245(10) 0.69185(13)
C7 C 0.2606(3) 0.31074(14) 0.74691(18)
H11 H 0.2824 0.2575 0.7220
C8 C 0.2516(3) 0.33044(13) 0.84296(18)
H12 H 0.2674 0.2940 0.8977
C9 C 0.2021(4) 0.46394(15) 0.93567(16)
H13 H 0.3297 0.4703 0.9726
H14 H 0.1191 0.4358 0.9771
H15 H 0.1492 0.5183 0.9170
C10 C 0.2270(5) 0.38901(17) 0.58344(18)
H16 H 0.2196 0.4471 0.5640
H17 H 0.1150 0.3597 0.5508
H18 H 0.3428 0.3645 0.5637
O1 O 0.2476(5) 0.10874(14) 0.92014(19)
H19 H 0.299(6) 0.122(3) 0.870(2)
H20 H 0.281(5) 0.1464(16) 0.962(2)
O2 O 1.0210(4) 0.68971(19) 0.93027(17)
H21 H 0.911(3) 0.714(2) 0.926(3)
H22 H 1.003(5) 0.6610(18) 0.8778(18)
O3 O 0.4854(4) 0.62467(13) 0.8799(2)
H23 H 0.530(4) 0.6727(14) 0.902(2)
H24 H 0.390(5) 0.643(3) 0.841(3)
loop_
_geom_bond_atom_site_label_1
_geom_bond_atom_site_label_2
_geom_bond_site_symmetry_1
_geom_bond_site_symmetry_2
N1 C1 1_555 1_555
C1 H1 1_555 1_555
N2 C1 1_555 1_555
C2 N2 1_555 1_555
H2 C2 1_555 1_555
C3 N1 1_555 1_555
H3 C3 1_555 1_555
C4 N1 1_555 1_555
H4 C4 1_555 1_555
H5 C4 1_555 1_555
H6 C4 1_555 1_555
C5 N2 1_555 1_555
H7 C5 1_555 1_555
H8 C5 1_555 1_555
H9 C5 1_555 1_555
N3 C6 1_555 1_555
C6 H10 1_555 1_555
N4 C6 1_555 1_555
C7 N4 1_555 1_555
H11 C7 1_555 1_555
C8 N3 1_555 1_555
H12 C8 1_555 1_555
C9 N3 1_555 1_555
H13 C9 1_555 1_555
H14 C9 1_555 1_555
H15 C9 1_555 1_555
C10 N4 1_555 1_555
H16 C10 1_555 1_555
H17 C10 1_555 1_555
H18 C10 1_555 1_555
O1 H19 1_555 1_555
H20 O1 1_555 1_555
O2 H21 1_555 1_555
H22 O2 1_555 1_555
O3 H23 1_555 1_555
H24 O3 1_555 1_555
C2 C3 1_555 1_555
C7 C8 1_555 1_555

#END
