
#######################################################################
#
#                 Cambridge Crystallographic Data Centre
#                                CCDC 
#
#######################################################################
#
# If this CIF has been generated from an entry in the Cambridge 
# Structural Database, then it will include bibliographic, chemical, 
# crystal, experimental, refinement or atomic coordinate data resulting 
# from the CCDC's data processing and validation procedures.
#
#######################################################################

data_PAJDEM
_chemical_formula_moiety         'C44 H26 N4 S2,0.5(C2 H4 Cl2)'
_chemical_name_systematic        
'3,11-bis(10H-phenothiazin-10-yl)dibenzo[a,j]phenazine 1,2-dichloroethane solvate'
_symmetry_cell_setting           monoclinic
_symmetry_space_group_name_H-M   'C 2/c'
_symmetry_Int_Tables_number      15
_space_group_name_Hall           '-C 2yn'
loop_
_symmetry_equiv_pos_site_id
_symmetry_equiv_pos_as_xyz
1 x,y,z
2 -x,y,1/2-z
3 1/2+x,1/2+y,z
4 1/2-x,1/2+y,1/2-z
5 -x,-y,-z
6 x,-y,1/2+z
7 1/2-x,1/2-y,-z
8 1/2+x,1/2-y,1/2+z
_cell_length_a                   30.0933(6)
_cell_length_b                   8.43900(15)
_cell_length_c                   26.6268(5)
_cell_angle_alpha                90
_cell_angle_beta                 95.5660(7)
_cell_angle_gamma                90
_cell_volume                     6730.19
_exptl_crystal_colour            orange
_exptl_crystal_description       prism
_chemical_melting_point          '573 K'
_cell_formula_units_Z            8
_exptl_crystal_recrystallization_method dichloromethane
_exptl_crystal_preparation       Luminescent
loop_
_atom_site_label
_atom_site_type_symbol
_atom_site_fract_x
_atom_site_fract_y
_atom_site_fract_z
Cl1 Cl 0.4323 1.7104 0.7771
C1 C 0.48463(19) 1.7618(9) 0.7603(3)
Cl1A Cl 0.5677 1.7104 0.7229
C1A C 0.51537(19) 1.7618(9) 0.7397(3)
S1 S 0.31195(5) 1.19640(19) 0.77464(6)
S2 S -0.07928(6) 0.4868(3) 0.36142(9)
N1 N 0.23237(14) 1.0614(6) 0.42759(17)
N2 N 0.19909(13) 0.8850(5) 0.50601(15)
N3 N 0.34046(15) 0.9502(6) 0.70431(16)
N4 N 0.00666(14) 0.6015(6) 0.41968(18)
C2 C 0.25515(17) 1.0490(7) 0.47333(19)
C3 C 0.29711(17) 1.1283(7) 0.4822(2)
C4 C 0.32089(18) 1.1256(7) 0.5272(2)
C5 C 0.30494(16) 1.0388(7) 0.56944(19)
C6 C 0.33023(18) 1.0381(7) 0.6164(2)
C7 C 0.31566(17) 0.9522(7) 0.65640(19)
C8 C 0.27563(18) 0.8694(7) 0.6492(3)
C9 C 0.25041(18) 0.8700(7) 0.60253(19)
C10 C 0.26426(16) 0.9556(7) 0.56169(18)
C11 C 0.23843(16) 0.9629(7) 0.51320(19)
C12 C 0.17634(16) 0.8995(7) 0.4604(2)
C13 C 0.13310(17) 0.8192(7) 0.4512(2)
C14 C 0.11412(18) 0.7273(7) 0.4880(2)
C15 C 0.07379(19) 0.6576(8) 0.4791(2)
C16 C 0.04943(19) 0.6742(8) 0.4316(3)
C17 C 0.06687(18) 0.7630(8) 0.3945(2)
C18 C 0.10927(18) 0.8355(7) 0.4032(2)
C19 C 0.12716(19) 0.9314(8) 0.3656(2)
C20 C 0.16659(19) 1.0029(7) 0.3733(2)
C21 C 0.19245(17) 0.9888(7) 0.4213(2)
C22 C 0.37289(17) 1.0751(8) 0.7168(2)
C23 C 0.41523(18) 1.0649(8) 0.6983(3)
C24 C 0.44565(19) 1.1849(9) 0.7089(3)
C25 C 0.43533(19) 1.3136(8) 0.7390(3)
C26 C 0.3943(2) 1.3170(8) 0.7595(3)
C27 C 0.36360(18) 1.1947(8) 0.7480(2)
C28 C 0.30569(17) 0.9926(7) 0.7821(2)
C29 C 0.28478(16) 0.9298(8) 0.8228(2)
C30 C 0.27982(18) 0.7686(8) 0.8283(2)
C31 C 0.29708(19) 0.6645(7) 0.7940(2)
C32 C 0.31774(18) 0.7239(7) 0.7545(2)
C33 C 0.32045(16) 0.8884(8) 0.74706(19)
C34 C -0.0317(2) 0.6883(9) 0.4287(3)
C35 C -0.0292(2) 0.8170(7) 0.4612(3)
C36 C -0.0678(2) 0.9087(8) 0.4663(3)
C37 C -0.1075(2) 0.8685(10) 0.4419(3)
C38 C -0.1105(2) 0.7393(10) 0.4110(3)
C39 C -0.07362(19) 0.6492(9) 0.4040(3)
C40 C -0.0338(3) 0.3675(9) 0.3860(3)
C41 C -0.0362(3) 0.2054(11) 0.3771(3)
C42 C 0.0007(4) 0.1135(10) 0.3876(4)
C43 C 0.0388(4) 0.1803(9) 0.4096(3)
C44 C 0.0419(3) 0.3372(9) 0.4202(3)
C45 C 0.0048(2) 0.4365(7) 0.4085(2)
H1 H 0.3084 1.1845 0.4553
H2 H 0.3485 1.1808 0.5318
H3 H 0.3574 1.0963 0.6210
H4 H 0.2653 0.8117 0.6764
H5 H 0.2233 0.8115 0.5983
H6 H 0.1303 0.7142 0.5202
H7 H 0.0619 0.5975 0.5048
H8 H 0.0501 0.7755 0.3626
H9 H 0.1101 0.9445 0.3340
H10 H 0.1776 1.0633 0.3471
H11 H 0.4226 0.9762 0.6788
H12 H 0.4738 1.1805 0.6957
H13 H 0.4561 1.3979 0.7454
H14 H 0.3874 1.4014 0.7810
H15 H 0.2740 0.9996 0.8468
H16 H 0.2647 0.7280 0.8552
H17 H 0.2944 0.5533 0.7982
H18 H 0.3303 0.6534 0.7320
H19 H -0.0017 0.8434 0.4800
H20 H -0.0658 1.0001 0.4872
H21 H -0.1333 0.9299 0.4461
H22 H -0.1387 0.7110 0.3940
H23 H -0.0636 0.1588 0.3637
H24 H -0.0002 0.0038 0.3796
H25 H 0.0641 0.1148 0.4178
H26 H 0.0691 0.3801 0.4354
loop_
_geom_bond_atom_site_label_1
_geom_bond_atom_site_label_2
_geom_bond_site_symmetry_1
_geom_bond_site_symmetry_2
Cl1 C1 1_555 1_555
C1 C1A 1_555 1_555
S1 C27 1_555 1_555
S2 C39 1_555 1_555
N1 C2 1_555 1_555
N2 C11 1_555 1_555
N3 C7 1_555 1_555
N4 C16 1_555 1_555
C2 C3 1_555 1_555
C3 C4 1_555 1_555
C4 C5 1_555 1_555
C5 C6 1_555 1_555
C6 C7 1_555 1_555
C7 C8 1_555 1_555
C8 C9 1_555 1_555
C9 C10 1_555 1_555
C10 C5 1_555 1_555
C11 C2 1_555 1_555
C12 N2 1_555 1_555
C13 C12 1_555 1_555
C14 C13 1_555 1_555
C15 C14 1_555 1_555
C16 C15 1_555 1_555
C17 C16 1_555 1_555
C18 C13 1_555 1_555
C19 C18 1_555 1_555
C20 C19 1_555 1_555
C21 N1 1_555 1_555
C22 N3 1_555 1_555
C23 C22 1_555 1_555
C24 C23 1_555 1_555
C25 C24 1_555 1_555
C26 C25 1_555 1_555
C27 C22 1_555 1_555
C28 S1 1_555 1_555
C29 C28 1_555 1_555
C30 C29 1_555 1_555
C31 C30 1_555 1_555
C32 C31 1_555 1_555
C33 N3 1_555 1_555
C34 N4 1_555 1_555
C35 C34 1_555 1_555
C36 C35 1_555 1_555
C37 C36 1_555 1_555
C38 C37 1_555 1_555
C39 C34 1_555 1_555
C40 S2 1_555 1_555
C41 C40 1_555 1_555
C42 C41 1_555 1_555
C43 C42 1_555 1_555
C44 C43 1_555 1_555
C45 N4 1_555 1_555
H1 C3 1_555 1_555
H2 C4 1_555 1_555
H3 C6 1_555 1_555
H4 C8 1_555 1_555
H5 C9 1_555 1_555
H6 C14 1_555 1_555
H7 C15 1_555 1_555
H8 C17 1_555 1_555
H9 C19 1_555 1_555
H10 C20 1_555 1_555
H11 C23 1_555 1_555
H12 C24 1_555 1_555
H13 C25 1_555 1_555
H14 C26 1_555 1_555
H15 C29 1_555 1_555
H16 C30 1_555 1_555
H17 C31 1_555 1_555
H18 C32 1_555 1_555
H19 C35 1_555 1_555
H20 C36 1_555 1_555
H21 C37 1_555 1_555
H22 C38 1_555 1_555
H23 C41 1_555 1_555
H24 C42 1_555 1_555
H25 C43 1_555 1_555
H26 C44 1_555 1_555
Cl1A C1A 1_555 1_555
C10 C11 1_555 1_555
C12 C21 1_555 1_555
C17 C18 1_555 1_555
C20 C21 1_555 1_555
C26 C27 1_555 1_555
C28 C33 1_555 1_555
C32 C33 1_555 1_555
C38 C39 1_555 1_555
C40 C45 1_555 1_555
C44 C45 1_555 1_555

#END
