
#######################################################################
#
#                 Cambridge Crystallographic Data Centre
#                                CCDC 
#
#######################################################################
#
# If this CIF has been generated from an entry in the Cambridge 
# Structural Database, then it will include bibliographic, chemical, 
# crystal, experimental, refinement or atomic coordinate data resulting 
# from the CCDC's data processing and validation procedures.
#
#######################################################################

data_PAJFAI
_chemical_name_common            'Orcin 1,4-diazabicyclo(2.2.2)octane'
_chemical_formula_moiety         'C7 H8 O2,C6 H12 N2'
_chemical_name_systematic        
'5-Methyl-1,3-benzenediol 1,4-diazabicyclo(2.2.2)octane'
_symmetry_cell_setting           orthorhombic
_symmetry_space_group_name_H-M   'P 21 21 21'
_symmetry_Int_Tables_number      19
_space_group_name_Hall           'P 2ac 2ab'
loop_
_symmetry_equiv_pos_site_id
_symmetry_equiv_pos_as_xyz
1 x,y,z
2 1/2-x,-y,1/2+z
3 1/2+x,1/2-y,-z
4 -x,1/2+y,1/2-z
_cell_length_a                   12.2569(6)
_cell_length_b                   12.5985(6)
_cell_length_c                   16.8506(9)
_cell_angle_alpha                90
_cell_angle_beta                 90
_cell_angle_gamma                90
_cell_volume                     2602.05
_exptl_crystal_colour            colorless
_exptl_crystal_description       prism
_cell_formula_units_Z            8
loop_
_atom_site_label
_atom_site_type_symbol
_atom_site_fract_x
_atom_site_fract_y
_atom_site_fract_z
N1 N 0.35392(19) 0.96077(19) 0.89770(15)
N2 N 0.15548(18) 1.02328(19) 0.90321(15)
C1 C 0.3493(2) 1.0765(2) 0.8976(2)
H1 H 0.3846 1.1036 0.8502
H2 H 0.3880 1.1039 0.9434
C2 C 0.2297(2) 1.1140(2) 0.8999(2)
H3 H 0.2185 1.1587 0.9460
H4 H 0.2142 1.1559 0.8529
C3 C 0.3012(2) 0.9225(2) 0.97123(17)
H5 H 0.3403 0.9496 1.0170
H6 H 0.3040 0.8456 0.9729
C4 C 0.1823(2) 0.9594(2) 0.97427(19)
H7 H 0.1345 0.8982 0.9769
H8 H 0.1706 1.0017 1.0216
C5 C 0.2942(2) 0.9217(2) 0.82898(19)
H9 H 0.2979 0.8448 0.8275
H10 H 0.3275 0.9488 0.7809
C6 C 0.1739(2) 0.9569(2) 0.8325(2)
H11 H 0.1558 0.9969 0.7851
H12 H 0.1270 0.8950 0.8346
N3 N 0.35698(19) 0.54541(18) 0.84590(16)
N4 N 0.15835(19) 0.48274(19) 0.85339(14)
C7 C 0.3516(2) 0.4295(2) 0.8488(2)
H13 H 0.3914 0.4040 0.8947
H14 H 0.3857 0.4002 0.8017
C8 C 0.2329(2) 0.3924(2) 0.8535(2)
H15 H 0.2169 0.3469 0.8085
H16 H 0.2224 0.3514 0.9015
C9 C 0.3046(2) 0.5863(3) 0.91765(19)
H17 H 0.3085 0.6632 0.9179
H18 H 0.3431 0.5603 0.9640
C10 C 0.1844(2) 0.5511(3) 0.92158(19)
H19 H 0.1715 0.5126 0.9705
H20 H 0.1374 0.6130 0.9212
C11 C 0.2956(2) 0.5814(2) 0.77530(18)
H21 H 0.3293 0.5532 0.7277
H22 H 0.2976 0.6583 0.7722
C12 C 0.1769(2) 0.5438(2) 0.78034(19)
H23 H 0.1286 0.6048 0.7794
H24 H 0.1602 0.4999 0.7347
O1 O 0.57360(16) 0.94161(16) 0.89557(16)
H25 H 0.5072 0.9335 0.8943
O2 O 0.57432(16) 0.56999(15) 0.82461(16)
H26 H 0.5080 0.5773 0.8276
C13 C 0.6235(2) 0.8483(2) 0.87842(16)
C14 C 0.5672(2) 0.7558(2) 0.85998(17)
H27 H 0.4913 0.7554 0.8601
C15 C 0.6241(2) 0.6642(2) 0.84145(17)
C16 C 0.7375(2) 0.6648(2) 0.84002(18)
H28 H 0.7755 0.6035 0.8265
C17 C 0.7937(2) 0.7569(2) 0.85878(17)
C18 C 0.7373(2) 0.8482(2) 0.87774(18)
H29 H 0.7753 0.9099 0.8901
C19 C 0.9172(3) 0.7574(2) 0.8584(2)
H30 H 0.9431 0.8266 0.8730
H31 H 0.9431 0.7399 0.8063
H32 H 0.9438 0.7060 0.8958
O3 O 0.94242(16) 0.44160(16) 0.85138(16)
H33 H 1.0089 0.4345 0.8523
O4 O 0.94221(17) 0.06990(16) 0.92750(16)
H34 H 1.0087 0.0764 0.9250
C20 C 0.8941(2) 0.3474(2) 0.86996(16)
C21 C 0.7802(2) 0.3470(2) 0.87098(17)
H35 H 0.7421 0.4085 0.8582
C22 C 0.7241(2) 0.2566(2) 0.89075(17)
C23 C 0.7804(2) 0.1653(2) 0.91022(18)
H36 H 0.7424 0.1043 0.9244
C24 C 0.8937(2) 0.1643(2) 0.90865(18)
C25 C 0.9511(2) 0.2553(2) 0.88899(17)
H37 H 1.0270 0.2549 0.8885
C26 C 0.6006(3) 0.2572(3) 0.8901(2)
H38 H 0.5749 0.3265 0.8757
H39 H 0.5739 0.2393 0.9420
H40 H 0.5746 0.2061 0.8523
loop_
_geom_bond_atom_site_label_1
_geom_bond_atom_site_label_2
_geom_bond_site_symmetry_1
_geom_bond_site_symmetry_2
N1 C1 1_555 1_555
N2 C2 1_555 1_555
C1 H1 1_555 1_555
H2 C1 1_555 1_555
C2 C1 1_555 1_555
H3 C2 1_555 1_555
H4 C2 1_555 1_555
C3 N1 1_555 1_555
H5 C3 1_555 1_555
H6 C3 1_555 1_555
C4 N2 1_555 1_555
H7 C4 1_555 1_555
H8 C4 1_555 1_555
C5 N1 1_555 1_555
H9 C5 1_555 1_555
H10 C5 1_555 1_555
C6 N2 1_555 1_555
H11 C6 1_555 1_555
H12 C6 1_555 1_555
N3 C7 1_555 1_555
N4 C8 1_555 1_555
C7 H13 1_555 1_555
H14 C7 1_555 1_555
C8 C7 1_555 1_555
H15 C8 1_555 1_555
H16 C8 1_555 1_555
C9 N3 1_555 1_555
H17 C9 1_555 1_555
H18 C9 1_555 1_555
C10 N4 1_555 1_555
H19 C10 1_555 1_555
H20 C10 1_555 1_555
C11 N3 1_555 1_555
H21 C11 1_555 1_555
H22 C11 1_555 1_555
C12 N4 1_555 1_555
H23 C12 1_555 1_555
H24 C12 1_555 1_555
O1 H25 1_555 1_555
O2 H26 1_555 1_555
C13 O1 1_555 1_555
C14 C13 1_555 1_555
H27 C14 1_555 1_555
C15 O2 1_555 1_555
C16 C15 1_555 1_555
H28 C16 1_555 1_555
C17 C16 1_555 1_555
C18 C13 1_555 1_555
H29 C18 1_555 1_555
C19 C17 1_555 1_555
H30 C19 1_555 1_555
H31 C19 1_555 1_555
H32 C19 1_555 1_555
O3 H33 1_555 1_555
O4 H34 1_555 1_555
C20 O3 1_555 1_555
C21 C20 1_555 1_555
H35 C21 1_555 1_555
C22 C21 1_555 1_555
C23 C22 1_555 1_555
H36 C23 1_555 1_555
C24 O4 1_555 1_555
C25 C20 1_555 1_555
H37 C25 1_555 1_555
C26 C22 1_555 1_555
H38 C26 1_555 1_555
H39 C26 1_555 1_555
H40 C26 1_555 1_555
C3 C4 1_555 1_555
C5 C6 1_555 1_555
C9 C10 1_555 1_555
C11 C12 1_555 1_555
C14 C15 1_555 1_555
C17 C18 1_555 1_555
C23 C24 1_555 1_555
C24 C25 1_555 1_555

#END
