
#######################################################################
#
#                 Cambridge Crystallographic Data Centre
#                                CCDC 
#
#######################################################################
#
# If this CIF has been generated from an entry in the Cambridge 
# Structural Database, then it will include bibliographic, chemical, 
# crystal, experimental, refinement or atomic coordinate data resulting 
# from the CCDC's data processing and validation procedures.
#
#######################################################################

data_PAJRUO
_chemical_compound_source        'Heracleum candicans WALL'
_chemical_name_common            'Candibirin A dimethylsulfoxide solvate'
_chemical_formula_moiety         'C32 H28 O10,2(C2 H6 O1 S1)'
_chemical_name_systematic        
"9,9'-(1,4-dioxane-2,5-diyldimethylenedioxy)di(7H-furo(3,2-g)chromen-7-one) dimethylsulfoxide solvate"
_symmetry_cell_setting           orthorhombic
_symmetry_space_group_name_H-M   'P 21 21 21'
_symmetry_Int_Tables_number      19
_space_group_name_Hall           'P 2ac 2ab'
loop_
_symmetry_equiv_pos_site_id
_symmetry_equiv_pos_as_xyz
1 x,y,z
2 1/2-x,-y,1/2+z
3 -x,1/2+y,1/2-z
4 1/2+x,1/2-y,-z
_cell_length_a                   10.903(2)
_cell_length_b                   13.068(2)
_cell_length_c                   24.400(4)
_cell_angle_alpha                90
_cell_angle_beta                 90
_cell_angle_gamma                90
_cell_volume                     3476.52
_exptl_crystal_colour            colorless
_exptl_crystal_description       needle
_chemical_melting_point          '364-370 K'
_cell_formula_units_Z            4
loop_
_atom_site_label
_atom_site_type_symbol
_atom_site_fract_x
_atom_site_fract_y
_atom_site_fract_z
S1 S 0.15725(5) 0.81176(4) 0.466258(17)
O1 O 0.1606(2) 0.74413(11) 0.51541(5)
C1 C 0.2781(3) 0.9002(2) 0.47354(12)
H1 H 0.2691 0.9369 0.5083
H2 H 0.2759 0.9491 0.4431
H3 H 0.3567 0.8637 0.4732
C2 C 0.0334(3) 0.8963(2) 0.47584(11)
H4 H -0.0434 0.8573 0.4771
H5 H 0.0304 0.9451 0.4454
H6 H 0.0442 0.9335 0.5104
S2 S 0.71444(19) 0.41444(9) 0.36750(4)
O2 O 0.7189(5) 0.4712(3) 0.42049(14)
C3 C 0.6009(6) 0.3191(6) 0.3757(4)
H7 H 0.6178 0.2796 0.4090
H8 H 0.6017 0.2734 0.3439
H9 H 0.5201 0.3516 0.3788
C4 C 0.8404(4) 0.3288(4) 0.36807(17)
H10 H 0.9167 0.3675 0.3725
H11 H 0.8428 0.2909 0.3334
H12 H 0.8313 0.2806 0.3986
C7 C 0.28323(16) 0.27607(12) 0.25822(6)
C8 C 0.38609(15) 0.26870(12) 0.22505(6)
O4 O 0.49653(11) 0.28602(9) 0.25005(5)
C9 C 0.60495(16) 0.28647(14) 0.22135(7)
O5 O 0.69646(12) 0.30371(13) 0.24724(6)
C10 C 0.59840(18) 0.26553(18) 0.16344(8)
H19 H 0.6718 0.2652 0.1425
C11 C 0.4927(2) 0.24669(18) 0.13870(7)
H20 H 0.4920 0.2324 0.1005
C12 C 0.37874(17) 0.24752(14) 0.16863(7)
C13 C 0.26555(18) 0.23256(16) 0.14385(7)
H21 H 0.2599 0.2179 0.1058
C14 C 0.16150(17) 0.23944(13) 0.17579(6)
C15 C 0.17246(16) 0.26063(12) 0.23197(6)
O6 O 0.05933(11) 0.26830(10) 0.25545(5)
C16 C 0.03164(18) 0.23526(15) 0.16574(8)
H22 H -0.0072 0.2222 0.1316
C17 C -0.02381(17) 0.25333(15) 0.21355(8)
H23 H -0.1103 0.2556 0.2182
O7 O 0.29792(10) 0.30942(9) 0.31078(4)
C18 C 0.23055(16) 0.25640(13) 0.35269(6)
H24 H 0.2634 0.1864 0.3577
H25 H 0.1428 0.2513 0.3426
C19 C 0.24521(14) 0.31749(12) 0.40457(6)
H26 H 0.3309 0.3446 0.4062
O8 O 0.16269(11) 0.40120(8) 0.40189(4)
C20 C 0.22031(15) 0.25426(12) 0.45664(6)
C21 C 0.10797(17) 0.18687(15) 0.45113(7)
H27 H 0.0880 0.1569 0.4868
H28 H 0.1246 0.1321 0.4247
H29 H 0.0386 0.2280 0.4382
C22 C 0.33305(18) 0.19297(15) 0.47204(7)
H30 H 0.4005 0.2398 0.4808
H31 H 0.3568 0.1492 0.4412
H32 H 0.3148 0.1503 0.5041
C23 C 0.28214(16) 0.45849(13) 0.64109(6)
C24 C 0.38356(16) 0.47089(12) 0.67462(6)
O9 O 0.49513(11) 0.47459(9) 0.64862(5)
C25 C 0.60127(16) 0.49270(14) 0.67658(8)
O10 O 0.69212(13) 0.50192(12) 0.64861(6)
C26 C 0.59438(19) 0.49833(15) 0.73522(8)
H33 H 0.6677 0.5061 0.7559
C27 C 0.48830(19) 0.49288(15) 0.76109(7)
H34 H 0.4868 0.4975 0.7999
C28 C 0.37580(17) 0.48017(13) 0.73208(7)
C29 C 0.26182(18) 0.47888(13) 0.75740(7)
H35 H 0.2553 0.4836 0.7961
C30 C 0.15850(18) 0.47058(12) 0.72541(7)
C31 C 0.16994(17) 0.46045(12) 0.66848(7)
O11 O 0.05678(12) 0.45435(11) 0.64468(5)
C32 C 0.0273(2) 0.47100(15) 0.73589(8)
H36 H -0.0121 0.4768 0.7705
C33 C -0.02691(18) 0.46159(16) 0.68680(9)
H37 H -0.1133 0.4601 0.6817
O12 O 0.30184(11) 0.43987(11) 0.58701(5)
C34 C 0.21704(16) 0.48007(14) 0.54730(6)
H38 H 0.2304 0.5544 0.5421
H39 H 0.1315 0.4691 0.5596
O13 O 0.19016(11) 0.32413(9) 0.50049(4)
C35 C 0.24087(14) 0.42313(12) 0.49440(6)
H40 H 0.3314 0.4170 0.4887
C36 C 0.18294(15) 0.47675(12) 0.44404(6)
C37 C 0.05642(16) 0.51938(14) 0.45609(7)
H41 H 0.0177 0.5413 0.4218
H42 H 0.0637 0.5781 0.4809
H43 H 0.0061 0.4663 0.4734
C38 C 0.26861(17) 0.55843(14) 0.42164(7)
H44 H 0.3461 0.5267 0.4104
H45 H 0.2846 0.6096 0.4501
H46 H 0.2303 0.5917 0.3900
S3? S 0.6283(2) 0.41609(10) 0.36918(5)
O3? O 0.5890(5) 0.4601(4) 0.42268(18)
C5? C 0.6093(8) 0.2823(4) 0.3740(5)
H13? H 0.6435 0.2581 0.4088
H14? H 0.6521 0.2490 0.3435
H15? H 0.5218 0.2655 0.3724
C6? C 0.7900(6) 0.4183(7) 0.3690(3)
H16? H 0.8185 0.4894 0.3695
H17? H 0.8204 0.3843 0.3358
H18? H 0.8209 0.3825 0.4014
loop_
_geom_bond_atom_site_label_1
_geom_bond_atom_site_label_2
_geom_bond_site_symmetry_1
_geom_bond_site_symmetry_2
S1 O1 1_555 1_555
C1 S1 1_555 1_555
H1 C1 1_555 1_555
H2 C1 1_555 1_555
H3 C1 1_555 1_555
C2 S1 1_555 1_555
H4 C2 1_555 1_555
H5 C2 1_555 1_555
H6 C2 1_555 1_555
S2 O2 1_555 1_555
C3 S2 1_555 1_555
H7 C3 1_555 1_555
H8 C3 1_555 1_555
H9 C3 1_555 1_555
C4 S2 1_555 1_555
H10 C4 1_555 1_555
H11 C4 1_555 1_555
H12 C4 1_555 1_555
C7 C8 1_555 1_555
C8 O4 1_555 1_555
O4 C9 1_555 1_555
C9 O5 1_555 1_555
C10 C9 1_555 1_555
H19 C10 1_555 1_555
C11 C10 1_555 1_555
H20 C11 1_555 1_555
C12 C8 1_555 1_555
C13 C12 1_555 1_555
H21 C13 1_555 1_555
C14 C13 1_555 1_555
C15 C7 1_555 1_555
O6 C15 1_555 1_555
C16 C14 1_555 1_555
H22 C16 1_555 1_555
C17 O6 1_555 1_555
H23 C17 1_555 1_555
O7 C7 1_555 1_555
C18 O7 1_555 1_555
H24 C18 1_555 1_555
H25 C18 1_555 1_555
C19 C18 1_555 1_555
H26 C19 1_555 1_555
O8 C19 1_555 1_555
C20 C19 1_555 1_555
C21 C20 1_555 1_555
H27 C21 1_555 1_555
H28 C21 1_555 1_555
H29 C21 1_555 1_555
C22 C20 1_555 1_555
H30 C22 1_555 1_555
H31 C22 1_555 1_555
H32 C22 1_555 1_555
C23 C24 1_555 1_555
C24 O9 1_555 1_555
O9 C25 1_555 1_555
C25 O10 1_555 1_555
C26 C25 1_555 1_555
H33 C26 1_555 1_555
C27 C26 1_555 1_555
H34 C27 1_555 1_555
C28 C24 1_555 1_555
C29 C28 1_555 1_555
H35 C29 1_555 1_555
C30 C29 1_555 1_555
C31 C23 1_555 1_555
O11 C31 1_555 1_555
C32 C30 1_555 1_555
H36 C32 1_555 1_555
C33 O11 1_555 1_555
H37 C33 1_555 1_555
O12 C23 1_555 1_555
C34 O12 1_555 1_555
H38 C34 1_555 1_555
H39 C34 1_555 1_555
O13 C20 1_555 1_555
C35 C34 1_555 1_555
H40 C35 1_555 1_555
C36 O8 1_555 1_555
C37 C36 1_555 1_555
H41 C37 1_555 1_555
H42 C37 1_555 1_555
H43 C37 1_555 1_555
C38 C36 1_555 1_555
H44 C38 1_555 1_555
H45 C38 1_555 1_555
H46 C38 1_555 1_555
C11 C12 1_555 1_555
C14 C15 1_555 1_555
C16 C17 1_555 1_555
C27 C28 1_555 1_555
C30 C31 1_555 1_555
C32 C33 1_555 1_555
O13 C35 1_555 1_555
C35 C36 1_555 1_555

#END
