
#######################################################################
#
#                 Cambridge Crystallographic Data Centre
#                                CCDC 
#
#######################################################################
#
# If this CIF has been generated from an entry in the Cambridge 
# Structural Database, then it will include bibliographic, chemical, 
# crystal, experimental, refinement or atomic coordinate data resulting 
# from the CCDC's data processing and validation procedures.
#
#######################################################################

data_PAJSID
_chemical_formula_moiety         'C26 H21 O1 P1,0.5(C4 H4 O4)'
_chemical_name_systematic        
'bis((benzoylmethylene)triphenylphosphorane) fumaric acid'
_symmetry_cell_setting           monoclinic
_symmetry_space_group_name_H-M   'P 21/c'
_symmetry_Int_Tables_number      14
_space_group_name_Hall           '-P 2ybc'
loop_
_symmetry_equiv_pos_site_id
_symmetry_equiv_pos_as_xyz
1 x,y,z
2 x,1/2-y,1/2+z
3 -x,-y,-z
4 -x,1/2+y,1/2-z
_cell_length_a                   13.0883(6)
_cell_length_b                   9.7883(5)
_cell_length_c                   17.9970(9)
_cell_angle_alpha                90
_cell_angle_beta                 102.500(2)
_cell_angle_gamma                90
_cell_volume                     2250.98
_exptl_crystal_colour            colorless
_exptl_crystal_description       Block
_chemical_melting_point          '424 K'
_cell_formula_units_Z            4
loop_
_atom_site_label
_atom_site_type_symbol
_atom_site_fract_x
_atom_site_fract_y
_atom_site_fract_z
P1 P 0.15578(3) 0.29489(4) 0.116942(19)
O1 O 0.26748(8) 0.28033(10) 0.28037(5)
C1 C 0.36392(10) 0.07388(13) 0.27647(8)
C2 C 0.37744(11) 0.04920(15) 0.35455(8)
H2 H 0.3391(13) 0.0998(18) 0.3831(10)
C3 C 0.44652(12) -0.05154(16) 0.38948(9)
H3 H 0.4539(14) -0.0720(19) 0.4445(11)
C4 C 0.50331(12) -0.12699(16) 0.34732(10)
H4 H 0.5498(16) -0.198(2) 0.3708(12)
C5 C 0.49199(11) -0.10129(16) 0.27023(10)
H5 H 0.5312(16) -0.153(2) 0.2408(11)
C6 C 0.42279(11) -0.00159(15) 0.23484(9)
H6 H 0.4166(13) 0.0192(18) 0.1821(11)
C7 C 0.28756(10) 0.18112(14) 0.23947(8)
C8 C 0.23982(10) 0.16899(14) 0.16312(8)
H7 H 0.2484(13) 0.0898(18) 0.1320(10)
C9 C 0.10647(11) 0.23261(14) 0.02154(7)
C10 C 0.17593(12) 0.17661(17) -0.01932(8)
H8 H 0.2505(16) 0.167(2) 0.0042(11)
C11 C 0.13933(12) 0.13232(17) -0.09370(9)
H9 H 0.1874(14) 0.0918(19) -0.1210(11)
C12 C 0.03405(12) 0.14494(15) -0.12742(8)
H10 H 0.0073(14) 0.1153(19) -0.1801(11)
C13 C -0.03549(12) 0.19860(15) -0.08729(9)
H11 H -0.1103(15) 0.2057(18) -0.1094(11)
C14 C 0.00079(11) 0.24256(15) -0.01250(8)
H12 H -0.0461(13) 0.2814(17) 0.0127(10)
C15 C 0.21684(10) 0.45832(14) 0.10913(8)
C16 C 0.22401(11) 0.51085(16) 0.03789(8)
H13 H 0.1928(13) 0.4625(17) -0.0081(10)
C17 C 0.27617(12) 0.63307(17) 0.03339(9)
H14 H 0.2823(14) 0.6684(19) -0.0157(11)
C18 C 0.32162(12) 0.70341(16) 0.09927(10)
H15 H 0.3594(16) 0.787(2) 0.0937(11)
C19 C 0.31347(11) 0.65289(15) 0.17001(9)
H16 H 0.3450(15) 0.7014(19) 0.2178(11)
C20 C 0.26091(11) 0.53168(15) 0.17519(8)
H17 H 0.2561(13) 0.4959(18) 0.2240(10)
C21 C 0.04178(10) 0.32295(14) 0.15598(7)
C22 C -0.00575(11) 0.45062(15) 0.15439(8)
H18 H 0.0272(13) 0.5299(18) 0.1397(10)
C23 C -0.10330(11) 0.46180(16) 0.17353(8)
H19 H -0.1343(13) 0.5530(18) 0.1714(9)
C24 C -0.15317(11) 0.34601(16) 0.19273(8)
H20 H -0.2207(14) 0.3555(18) 0.2041(10)
C25 C -0.10496(12) 0.21935(16) 0.19535(9)
H21 H -0.1388(15) 0.137(2) 0.2096(11)
C26 C -0.00729(11) 0.20790(15) 0.17754(8)
H22 H 0.0256(13) 0.1199(19) 0.1801(10)
O2 O 0.39840(9) 0.36099(11) 0.39512(6)
H1 H 0.345(2) 0.332(3) 0.3504(17)
O3 O 0.33980(9) 0.57307(12) 0.36341(6)
C27 C 0.39633(11) 0.49353(15) 0.40497(8)
C28 C 0.47073(11) 0.54169(16) 0.47523(8)
H23 H 0.4751(13) 0.6381(18) 0.4814(10)
C28B C 0.52927(11) 0.45831(16) 0.52477(8)
C27B C 0.60367(11) 0.50647(15) 0.59503(8)
O2B O 0.60160(9) 0.63901(11) 0.60488(6)
H1B H 0.655(2) 0.668(3) 0.6496(17)
O3B O 0.66020(9) 0.42693(12) 0.63659(6)
H23B H 0.5249(13) 0.3619(18) 0.5186(10)
loop_
_geom_bond_atom_site_label_1
_geom_bond_atom_site_label_2
_geom_bond_site_symmetry_1
_geom_bond_site_symmetry_2
P1 C8 1_555 1_555
O1 C7 1_555 1_555
O2 H1 1_555 1_555
O3 C27 1_555 1_555
C1 C2 1_555 1_555
C2 H2 1_555 1_555
C3 C2 1_555 1_555
H3 C3 1_555 1_555
C4 C3 1_555 1_555
H4 C4 1_555 1_555
C5 C4 1_555 1_555
H5 C5 1_555 1_555
C6 C1 1_555 1_555
H6 C6 1_555 1_555
C7 C1 1_555 1_555
C8 C7 1_555 1_555
H7 C8 1_555 1_555
C9 P1 1_555 1_555
C10 C9 1_555 1_555
H8 C10 1_555 1_555
C11 C10 1_555 1_555
H9 C11 1_555 1_555
C12 C11 1_555 1_555
H10 C12 1_555 1_555
C13 C12 1_555 1_555
H11 C13 1_555 1_555
C14 C9 1_555 1_555
H12 C14 1_555 1_555
C15 P1 1_555 1_555
C16 C15 1_555 1_555
H13 C16 1_555 1_555
C17 C16 1_555 1_555
H14 C17 1_555 1_555
C18 C17 1_555 1_555
H15 C18 1_555 1_555
C19 C18 1_555 1_555
H16 C19 1_555 1_555
C20 C15 1_555 1_555
H17 C20 1_555 1_555
C21 P1 1_555 1_555
C22 C21 1_555 1_555
H18 C22 1_555 1_555
C23 C22 1_555 1_555
H19 C23 1_555 1_555
C24 C23 1_555 1_555
H20 C24 1_555 1_555
C25 C24 1_555 1_555
H21 C25 1_555 1_555
C26 C21 1_555 1_555
H22 C26 1_555 1_555
C27 O2 1_555 1_555
C28 C27 1_555 1_555
H23 C28 1_555 1_555
C28B C28 1_555 1_555
C27B C28B 1_555 1_555
O2B C27B 1_555 1_555
H1B O2B 1_555 1_555
O3B C27B 1_555 1_555
H23B C28B 1_555 1_555
C5 C6 1_555 1_555
C13 C14 1_555 1_555
C19 C20 1_555 1_555
C25 C26 1_555 1_555

#END
