
#######################################################################
#
#                 Cambridge Crystallographic Data Centre
#                                CCDC 
#
#######################################################################
#
# If this CIF has been generated from an entry in the Cambridge 
# Structural Database, then it will include bibliographic, chemical, 
# crystal, experimental, refinement or atomic coordinate data resulting 
# from the CCDC's data processing and validation procedures.
#
#######################################################################

data_PAJSOJ
_chemical_formula_moiety         'C26 H21 O1 P1,0.5(C8 H6 O4)'
_chemical_name_systematic        
'bis((benzoylmethylene)triphenylphosphorane) terephthalic acid'
_symmetry_cell_setting           monoclinic
_symmetry_space_group_name_H-M   'P 21/n'
_symmetry_Int_Tables_number      14
_space_group_name_Hall           '-P 2yn'
loop_
_symmetry_equiv_pos_site_id
_symmetry_equiv_pos_as_xyz
1 x,y,z
2 1/2+x,1/2-y,1/2+z
3 -x,-y,-z
4 1/2-x,1/2+y,1/2-z
_cell_length_a                   10.0900(6)
_cell_length_b                   17.9737(9)
_cell_length_c                   13.1613(7)
_cell_angle_alpha                90
_cell_angle_beta                 92.048(2)
_cell_angle_gamma                90
_cell_volume                     2385.34
_exptl_crystal_colour            colorless
_exptl_crystal_description       Block
_chemical_melting_point          '499 K'
_cell_formula_units_Z            4
loop_
_atom_site_label
_atom_site_type_symbol
_atom_site_fract_x
_atom_site_fract_y
_atom_site_fract_z
P1 P 0.09257(4) 0.05436(2) 0.71012(3)
C1 C 0.33402(15) 0.13224(9) 0.49083(12)
C2 C 0.37333(16) 0.20261(9) 0.45790(13)
H1 H 0.3422(17) 0.2460(10) 0.4919(13)
C3 C 0.45588(17) 0.20968(10) 0.37613(13)
H2 H 0.4796(19) 0.2588(11) 0.3544(15)
C4 C 0.50052(17) 0.14705(11) 0.32640(14)
H3 H 0.559(2) 0.1529(11) 0.2686(15)
C5 C 0.46312(18) 0.07680(11) 0.35881(13)
H4 H 0.493(2) 0.0322(12) 0.3221(16)
C6 C 0.38014(16) 0.06933(9) 0.44016(12)
H5 H 0.3561(19) 0.0225(11) 0.4609(15)
C7 C 0.24066(15) 0.12721(8) 0.57705(12)
C8 C 0.21723(16) 0.05936(9) 0.62356(12)
H6 H 0.260(2) 0.0158(11) 0.6075(15)
C9 C 0.13250(16) 0.09662(8) 0.83188(12)
C10 C 0.23301(16) 0.15013(9) 0.83917(13)
H7 H 0.2821(19) 0.1634(10) 0.7795(15)
C11 C 0.26251(18) 0.18462(10) 0.93167(14)
H8 H 0.331(2) 0.2200(11) 0.9359(15)
C12 C 0.19370(19) 0.16559(10) 1.01722(14)
H9 H 0.214(2) 0.1894(12) 1.0817(17)
C13 C 0.09436(19) 0.11226(10) 1.01027(13)
H10 H 0.0484(19) 0.0994(11) 1.0672(16)
C14 C 0.06388(17) 0.07749(9) 0.91848(13)
H11 H -0.007(2) 0.0395(12) 0.9128(15)
C15 C -0.06206(15) 0.09309(8) 0.66028(12)
C16 C -0.16209(17) 0.11541(9) 0.72397(13)
H12 H -0.1490(19) 0.1149(10) 0.7982(16)
C17 C -0.28252(18) 0.14004(10) 0.68204(14)
H13 H -0.348(2) 0.1548(11) 0.7269(16)
C18 C -0.30315(17) 0.14351(9) 0.57738(14)
H14 H -0.3827(19) 0.1626(10) 0.5477(14)
C19 C -0.20305(17) 0.12233(9) 0.51410(13)
H15 H -0.217(2) 0.1253(11) 0.4392(17)
C20 C -0.08320(17) 0.09651(9) 0.55514(12)
H16 H -0.014(2) 0.0816(11) 0.5110(15)
C21 C 0.06361(15) -0.04351(8) 0.73310(11)
C22 C -0.05286(17) -0.07811(9) 0.69852(12)
H17 H -0.1223(18) -0.0492(9) 0.6688(13)
C23 C -0.06747(18) -0.15489(9) 0.70885(13)
H18 H -0.150(2) -0.1799(12) 0.6856(17)
C24 C 0.03421(18) -0.19636(9) 0.75375(13)
H19 H 0.023(2) -0.2502(12) 0.7627(15)
C25 C 0.14995(17) -0.16218(9) 0.78929(14)
H20 H 0.218(2) -0.1899(12) 0.8219(16)
C26 C 0.16525(16) -0.08581(9) 0.77951(12)
H21 H 0.246(2) -0.0618(10) 0.8043(14)
O1 O 0.18317(11) 0.18648(6) 0.60581(9)
C27 C 0.46622(18) 0.05034(10) 0.07495(13)
H22 H 0.4424(19) 0.0853(11) 0.1239(15)
C28 C 0.54177(17) 0.07348(9) -0.00534(13)
C29 C 0.42462(19) -0.02301(10) 0.08039(14)
H23 H 0.372(2) -0.0397(11) 0.1369(16)
C30 C 0.58964(18) 0.15223(9) -0.01359(13)
O2 O 0.56381(13) 0.19272(7) 0.06691(9)
H24 H 0.605(3) 0.2385(16) 0.066(2)
O3 O 0.64555(17) 0.17524(7) -0.08662(11)
C29B C 0.57538(19) 0.02301(10) -0.08039(14)
C27B C 0.53378(18) -0.05034(10) -0.07495(13)
H22B H 0.5576(19) -0.0853(11) -0.1239(15)
C28B C 0.45823(17) -0.07348(9) 0.00534(13)
C30B C 0.41036(18) -0.15223(9) 0.01359(13)
O2B O 0.43619(13) -0.19272(7) -0.06691(9)
H24B H 0.395(3) -0.2385(16) -0.066(2)
O3B O 0.35445(17) -0.17524(7) 0.08662(11)
H23B H 0.628(2) 0.0397(11) -0.1369(16)
loop_
_geom_bond_atom_site_label_1
_geom_bond_atom_site_label_2
_geom_bond_site_symmetry_1
_geom_bond_site_symmetry_2
P1 C8 1_555 1_555
C1 C2 1_555 1_555
C2 H1 1_555 1_555
C3 C2 1_555 1_555
H2 C3 1_555 1_555
C4 C3 1_555 1_555
H3 C4 1_555 1_555
C5 C4 1_555 1_555
H4 C5 1_555 1_555
C6 C1 1_555 1_555
H5 C6 1_555 1_555
C7 C1 1_555 1_555
C8 C7 1_555 1_555
H6 C8 1_555 1_555
C9 P1 1_555 1_555
C10 C9 1_555 1_555
H7 C10 1_555 1_555
C11 C10 1_555 1_555
H8 C11 1_555 1_555
C12 C11 1_555 1_555
H9 C12 1_555 1_555
C13 C12 1_555 1_555
H10 C13 1_555 1_555
C14 C9 1_555 1_555
H11 C14 1_555 1_555
C15 P1 1_555 1_555
C16 C15 1_555 1_555
H12 C16 1_555 1_555
C17 C16 1_555 1_555
H13 C17 1_555 1_555
C18 C17 1_555 1_555
H14 C18 1_555 1_555
C19 C18 1_555 1_555
H15 C19 1_555 1_555
C20 C15 1_555 1_555
H16 C20 1_555 1_555
C21 P1 1_555 1_555
C22 C21 1_555 1_555
H17 C22 1_555 1_555
C23 C22 1_555 1_555
H18 C23 1_555 1_555
C24 C23 1_555 1_555
H19 C24 1_555 1_555
C25 C24 1_555 1_555
H20 C25 1_555 1_555
C26 C21 1_555 1_555
H21 C26 1_555 1_555
C27 H22 1_555 1_555
C28 C27 1_555 1_555
C29 C27 1_555 1_555
H23 C29 1_555 1_555
C30 C28 1_555 1_555
O1 C7 1_555 1_555
O2 C30 1_555 1_555
H24 O2 1_555 1_555
O3 C30 1_555 1_555
C29B C28 1_555 1_555
C27B C29B 1_555 1_555
H22B C27B 1_555 1_555
C28B C29 1_555 1_555
C30B C28B 1_555 1_555
O2B C30B 1_555 1_555
H24B O2B 1_555 1_555
O3B C30B 1_555 1_555
H23B C29B 1_555 1_555
C5 C6 1_555 1_555
C13 C14 1_555 1_555
C19 C20 1_555 1_555
C25 C26 1_555 1_555
C27B C28B 1_555 1_555

#END
