
#######################################################################
#
#                 Cambridge Crystallographic Data Centre
#                                CCDC 
#
#######################################################################
#
# If this CIF has been generated from an entry in the Cambridge 
# Structural Database, then it will include bibliographic, chemical, 
# crystal, experimental, refinement or atomic coordinate data resulting 
# from the CCDC's data processing and validation procedures.
#
#######################################################################

data_PAJTUS
_chemical_formula_moiety         'C24 H17 N1 O1'
_chemical_name_systematic        9-(6-phenylpyridin-2-yl)-9H-fluoren-9-ol
_symmetry_cell_setting           monoclinic
_symmetry_space_group_name_H-M   'P 21/n'
_symmetry_Int_Tables_number      14
_space_group_name_Hall           '-P 2yn'
loop_
_symmetry_equiv_pos_site_id
_symmetry_equiv_pos_as_xyz
1 x,y,z
2 1/2-x,1/2+y,1/2-z
3 -x,-y,-z
4 1/2+x,1/2-y,1/2+z
_cell_length_a                   10.6442(8)
_cell_length_b                   13.0015(10)
_cell_length_c                   12.3761(9)
_cell_angle_alpha                90
_cell_angle_beta                 90.232(3)
_cell_angle_gamma                90
_cell_volume                     1712.72
_exptl_crystal_colour            colorless
_cell_formula_units_Z            4
loop_
_atom_site_label
_atom_site_type_symbol
_atom_site_fract_x
_atom_site_fract_y
_atom_site_fract_z
O1 O -0.00017(9) 0.24860(8) 0.70560(8)
H1 H 0.0071 0.2854 0.6502
N1 N 0.15177(10) 0.26918(9) 0.54795(9)
C1 C 0.10842(12) 0.18609(11) 0.71747(11)
C2 C 0.16850(13) 0.20369(13) 0.82837(12)
C3 C 0.21801(16) 0.29340(15) 0.86998(15)
H2 H 0.2233 0.3540 0.8274
C4 C 0.26028(17) 0.2918(2) 0.97748(18)
H3 H 0.2952 0.3524 1.0082
C5 C 0.25205(17) 0.2037(2) 1.03933(16)
H4 H 0.2801 0.2052 1.1123
C6 C 0.20417(15) 0.11429(18) 0.99756(14)
H5 H 0.2002 0.0537 1.0403
C7 C 0.16147(13) 0.11432(13) 0.89099(12)
C8 C 0.10146(13) 0.03279(12) 0.82686(13)
C9 C 0.06997(16) -0.06866(14) 0.85091(16)
H6 H 0.0898 -0.0971 0.9196
C10 C 0.00936(17) -0.12735(14) 0.77343(19)
H7 H -0.0126 -0.1965 0.7894
C11 C -0.01964(17) -0.08708(14) 0.67358(18)
H8 H -0.0607 -0.1287 0.6212
C12 C 0.01086(14) 0.01417(13) 0.64905(14)
H9 H -0.0095 0.0422 0.5803
C13 C 0.07103(13) 0.07329(11) 0.72574(12)
C14 C 0.19612(12) 0.20431(11) 0.62194(11)
C15 C 0.31049(14) 0.15479(13) 0.61162(13)
H10 H 0.3409 0.1102 0.6666
C16 C 0.37895(14) 0.17230(13) 0.51894(13)
H11 H 0.4576 0.1392 0.5090
C17 C 0.33275(14) 0.23832(12) 0.44037(12)
H12 H 0.3786 0.2498 0.3758
C18 C 0.21857(12) 0.28757(11) 0.45713(11)
C19 C 0.16266(13) 0.36227(11) 0.37984(11)
C20 C 0.22703(15) 0.39498(13) 0.28836(13)
H13 H 0.3075 0.3671 0.2728
C21 C 0.17499(16) 0.46762(14) 0.21989(14)
H14 H 0.2202 0.4890 0.1578
C22 C 0.05867(15) 0.50930(12) 0.24044(13)
H15 H 0.0240 0.5597 0.1934
C23 C -0.00690(15) 0.47702(13) 0.33004(13)
H16 H -0.0874 0.5051 0.3448
C24 C 0.04415(14) 0.40385(12) 0.39870(12)
H17 H -0.0025 0.3816 0.4597
loop_
_geom_bond_atom_site_label_1
_geom_bond_atom_site_label_2
_geom_bond_site_symmetry_1
_geom_bond_site_symmetry_2
O1 H1 1_555 1_555
N1 C14 1_555 1_555
C1 O1 1_555 1_555
C2 C1 1_555 1_555
C3 C2 1_555 1_555
H2 C3 1_555 1_555
C4 C3 1_555 1_555
H3 C4 1_555 1_555
C5 C4 1_555 1_555
H4 C5 1_555 1_555
C6 C5 1_555 1_555
H5 C6 1_555 1_555
C7 C2 1_555 1_555
C8 C7 1_555 1_555
C9 C8 1_555 1_555
H6 C9 1_555 1_555
C10 C9 1_555 1_555
H7 C10 1_555 1_555
C11 C10 1_555 1_555
H8 C11 1_555 1_555
C12 C11 1_555 1_555
H9 C12 1_555 1_555
C13 C1 1_555 1_555
C14 C1 1_555 1_555
C15 C14 1_555 1_555
H10 C15 1_555 1_555
C16 C15 1_555 1_555
H11 C16 1_555 1_555
C17 C16 1_555 1_555
H12 C17 1_555 1_555
C18 N1 1_555 1_555
C19 C18 1_555 1_555
C20 C19 1_555 1_555
H13 C20 1_555 1_555
C21 C20 1_555 1_555
H14 C21 1_555 1_555
C22 C21 1_555 1_555
H15 C22 1_555 1_555
C23 C22 1_555 1_555
H16 C23 1_555 1_555
C24 C19 1_555 1_555
H17 C24 1_555 1_555
C6 C7 1_555 1_555
C8 C13 1_555 1_555
C12 C13 1_555 1_555
C17 C18 1_555 1_555
C23 C24 1_555 1_555

#END
