
#######################################################################
#
#                 Cambridge Crystallographic Data Centre
#                                CCDC 
#
#######################################################################
#
# If this CIF has been generated from an entry in the Cambridge 
# Structural Database, then it will include bibliographic, chemical, 
# crystal, experimental, refinement or atomic coordinate data resulting 
# from the CCDC's data processing and validation procedures.
#
#######################################################################

data_PAJYAC
_chemical_formula_moiety         'C32 H19 N1 O4,2(C1 H1 Cl3)'
_chemical_name_systematic        
"2,2'-(Pyridin-4-ylmethylene)bis(3-hydroxy-1H-phenalen-1-one) chloroform solvate"
_symmetry_cell_setting           monoclinic
_symmetry_space_group_name_H-M   'P 21/c'
_symmetry_Int_Tables_number      14
_space_group_name_Hall           '-P 2ybc'
loop_
_symmetry_equiv_pos_site_id
_symmetry_equiv_pos_as_xyz
1 x,y,z
2 -x,1/2+y,1/2-z
3 -x,-y,-z
4 x,1/2-y,1/2+z
_cell_length_a                   11.2851(19)
_cell_length_b                   14.863(2)
_cell_length_c                   18.889(3)
_cell_angle_alpha                90
_cell_angle_beta                 93.660(7)
_cell_angle_gamma                90
_cell_volume                     3161.8
_exptl_crystal_colour            orange
_exptl_crystal_description       cube
_cell_formula_units_Z            4
loop_
_atom_site_label
_atom_site_type_symbol
_atom_site_fract_x
_atom_site_fract_y
_atom_site_fract_z
C1 C 1.0810(4) 0.1673(3) 1.0477(2)
C2 C 0.9994(5) 0.2407(3) 1.0416(2)
C3 C 0.9886(5) 0.2970(3) 1.0993(2)
H1 H 0.9312 0.3438 1.0967
C4 C 1.0623(5) 0.2854(3) 1.1619(3)
H2 H 1.0554 0.3259 1.2003
C5 C 1.1425(5) 0.2177(4) 1.1685(3)
H3 H 1.1921 0.2120 1.2108
C6 C 1.1531(5) 0.1547(3) 1.1121(2)
C7 C 1.2315(5) 0.0806(3) 1.1169(3)
H4 H 1.2799 0.0712 1.1593
C8 C 1.2390(5) 0.0218(4) 1.0613(3)
H5 H 1.2911 -0.0283 1.0656
C9 C 1.1692(5) 0.0363(3) 0.9979(3)
H6 H 1.1757 -0.0044 0.9595
C10 C 1.0919(4) 0.1073(3) 0.9899(2)
C11 C 1.0230(4) 0.1247(3) 0.9218(2)
C12 C 0.9431(4) 0.2002(3) 0.9158(2)
C13 C 0.9285(4) 0.2547(3) 0.9739(2)
C14 C 0.5027(5) 0.1510(3) 0.8024(2)
C15 C 0.5916(4) 0.0973(3) 0.7727(2)
C16 C 0.5560(5) 0.0228(3) 0.7326(2)
H7 H 0.6147 -0.0150 0.7144
C17 C 0.4359(6) 0.0018(4) 0.7181(3)
H8 H 0.4138 -0.0482 0.6889
C18 C 0.3503(5) 0.0539(4) 0.7464(3)
H9 H 0.2690 0.0396 0.7361
C19 C 0.3810(5) 0.1290(3) 0.7909(3)
C20 C 0.2958(5) 0.1823(4) 0.8239(3)
H10 H 0.2140 0.1672 0.8178
C21 C 0.3302(5) 0.2553(4) 0.8645(3)
H11 H 0.2723 0.2902 0.8864
C22 C 0.4497(5) 0.2786(3) 0.8739(3)
H12 H 0.4718 0.3299 0.9016
C23 C 0.5367(4) 0.2291(3) 0.8438(2)
C24 C 0.6625(5) 0.2513(3) 0.8547(2)
C25 C 0.7507(4) 0.1967(3) 0.8306(2)
C26 C 0.7193(4) 0.1192(3) 0.7856(2)
C27 C 1.0474(5) 0.4352(3) 0.8010(3)
H13 H 1.1128 0.4700 0.8197
C28 C 1.0103(5) 0.3610(3) 0.8376(2)
H14 H 1.0498 0.3455 0.8819
C29 C 0.9160(4) 0.3088(3) 0.8104(2)
C30 C 0.8583(5) 0.3376(3) 0.7465(2)
H15 H 0.7908 0.3057 0.7271
C31 C 0.8986(5) 0.4116(3) 0.7118(3)
H16 H 0.8603 0.4297 0.6678
C32 C 0.8827(4) 0.2179(3) 0.8425(2)
N1 N 0.9910(4) 0.4579(2) 0.7393(2)
H17 H 1.0159 0.5049 0.7162
O1 O 0.7962(3) 0.0733(2) 0.75731(17)
O2 O 0.6878(3) 0.32772(19) 0.88866(17)
O3 O 0.8592(3) 0.3250(2) 0.97261(17)
O4 O 1.0400(3) 0.0740(2) 0.86915(16)
H20 H 0.913(4) 0.179(3) 0.809(2)
H21 H 0.783(6) 0.328(4) 0.924(3)
Cl1 Cl 0.5673(4) 0.0457(3) 1.0920(2)
Cl2 Cl 0.5069(7) 0.2097(4) 1.1651(4)
C33 C 0.5330(15) 0.1615(11) 1.0859(7)
H18 H 0.4616 0.1699 1.0524
Cl3 Cl 0.6639(14) 0.2140(9) 1.0472(8)
Cl4 Cl 0.7099(11) 0.4862(9) 1.0729(6)
Cl5 Cl 0.6520(15) 0.6172(6) 0.9492(5)
C34 C 0.714(3) 0.511(2) 0.9897(14)
H19 H 0.6953 0.4577 0.9587
Cl6 Cl 0.8757(8) 0.5400(5) 0.9930(5)
C35? C 0.719(3) 0.523(2) 0.9754(13)
Cl7? Cl 0.6707(17) 0.4842(10) 1.0630(8)
Cl8? Cl 0.5893(11) 0.5902(11) 0.9650(6)
Cl9? Cl 0.8360(10) 0.5546(6) 0.9555(10)
H22? H 0.7015 0.4709 0.9432
loop_
_geom_bond_atom_site_label_1
_geom_bond_atom_site_label_2
_geom_bond_site_symmetry_1
_geom_bond_site_symmetry_2
C1 C2 1_555 1_555
C2 C3 1_555 1_555
C3 H1 1_555 1_555
C4 C3 1_555 1_555
H2 C4 1_555 1_555
C5 C4 1_555 1_555
H3 C5 1_555 1_555
C6 C1 1_555 1_555
C7 C6 1_555 1_555
H4 C7 1_555 1_555
C8 C7 1_555 1_555
H5 C8 1_555 1_555
C9 C8 1_555 1_555
H6 C9 1_555 1_555
C10 C1 1_555 1_555
C11 C10 1_555 1_555
C12 C11 1_555 1_555
C13 C2 1_555 1_555
C14 C15 1_555 1_555
C15 C16 1_555 1_555
C16 H7 1_555 1_555
C17 C16 1_555 1_555
H8 C17 1_555 1_555
C18 C17 1_555 1_555
H9 C18 1_555 1_555
C19 C14 1_555 1_555
C20 C19 1_555 1_555
H10 C20 1_555 1_555
C21 C20 1_555 1_555
H11 C21 1_555 1_555
C22 C21 1_555 1_555
H12 C22 1_555 1_555
C23 C14 1_555 1_555
C24 C23 1_555 1_555
C25 C24 1_555 1_555
C26 C15 1_555 1_555
C27 H13 1_555 1_555
C28 C27 1_555 1_555
H14 C28 1_555 1_555
C29 C28 1_555 1_555
C30 C29 1_555 1_555
H15 C30 1_555 1_555
C31 C30 1_555 1_555
H16 C31 1_555 1_555
C32 C12 1_555 1_555
N1 C27 1_555 1_555
H17 N1 1_555 1_555
O1 C26 1_555 1_555
O2 C24 1_555 1_555
O3 C13 1_555 1_555
O4 C11 1_555 1_555
Cl1 C33 1_555 1_555
Cl2 C33 1_555 1_555
C33 H18 1_555 1_555
Cl3 C33 1_555 1_555
Cl4 C34 1_555 1_555
Cl5 C34 1_555 1_555
C34 H19 1_555 1_555
Cl6 C34 1_555 1_555
H20 C32 1_555 1_555
H21 O3 1_555 1_555
C5 C6 1_555 1_555
C9 C10 1_555 1_555
C12 C13 1_555 1_555
C18 C19 1_555 1_555
C22 C23 1_555 1_555
C25 C26 1_555 1_555
C25 C32 1_555 1_555
C29 C32 1_555 1_555
C31 N1 1_555 1_555

#END
