
#######################################################################
#
#                 Cambridge Crystallographic Data Centre
#                                CCDC 
#
#######################################################################
#
# If this CIF has been generated from an entry in the Cambridge 
# Structural Database, then it will include bibliographic, chemical, 
# crystal, experimental, refinement or atomic coordinate data resulting 
# from the CCDC's data processing and validation procedures.
#
#######################################################################

data_PAJZUY
_chemical_formula_moiety         'C41 H64 N6 O9'
_chemical_name_systematic        
'trans-(S,S)-2-(((2-(((2-(((2-(((2-(((2-((t-butoxycarbonyl)amino)cyclopentyl)carbonyl)amino)cyclopentyl)carbonyl)amino)cyclopentyl)carbonyl)amino)cyclopentyl)carbonyl)amino)cyclopentyl)carbonyl)amino)cyclopentanecarboxylic acid'
_symmetry_cell_setting           orthorhombic
_symmetry_space_group_name_H-M   'P 21 21 21'
_symmetry_Int_Tables_number      19
_space_group_name_Hall           'P 2ac 2ab'
loop_
_symmetry_equiv_pos_site_id
_symmetry_equiv_pos_as_xyz
1 x,y,z
2 1/2-x,-y,1/2+z
3 1/2+x,1/2-y,-z
4 -x,1/2+y,1/2-z
_cell_length_a                   11.3181(4)
_cell_length_b                   15.2381(6)
_cell_length_c                   24.5920(8)
_cell_angle_alpha                90
_cell_angle_beta                 90
_cell_angle_gamma                90
_cell_volume                     4241.29
_exptl_crystal_colour            white
_exptl_crystal_description       needle
_cell_formula_units_Z            4
_exptl_crystal_recrystallization_method 'Methanol, P123 aqueous solution'
loop_
_atom_site_label
_atom_site_type_symbol
_atom_site_fract_x
_atom_site_fract_y
_atom_site_fract_z
O1 O -0.53232(15) -0.65623(11) -0.30701(6)
O2 O -0.34409(15) -0.61348(11) -0.56843(6)
O3 O -0.30977(15) -0.30685(11) -0.56700(6)
O4 O -0.51531(14) -0.58032(11) -0.38610(6)
O5 O -0.13910(17) -0.16050(13) -0.81814(7)
O6 O -0.20295(16) -0.40659(11) -0.70803(6)
O7 O -0.30970(17) -0.22895(12) -0.81393(6)
H1 H -0.3509 -0.2544 -0.7903
O8 O -0.45599(15) -0.30496(12) -0.75064(6)
N1 N -0.31605(18) -0.49604(13) -0.65746(7)
H2 H -0.3189 -0.5347 -0.6309
O9 O -0.16343(16) -0.55089(11) -0.45930(6)
N2 N -0.37844(18) -0.25224(12) -0.67256(7)
H3 H -0.3714 -0.2592 -0.6372
N3 N -0.37760(17) -0.57076(14) -0.31902(7)
H4 H -0.3590 -0.5877 -0.2859
N4 N -0.44478(17) -0.55837(13) -0.49633(7)
H5 H -0.4728 -0.5702 -0.4638
N5 N -0.21970(18) -0.67717(13) -0.42002(7)
H6 H -0.2284 -0.7059 -0.3892
N6 N -0.19699(18) -0.42267(13) -0.54196(8)
H7 H -0.1894 -0.4661 -0.5186
C1 C -0.6419(2) -0.70171(17) -0.32403(9)
C2 C -0.4780(2) -0.60052(16) -0.34107(9)
C3 C -0.2152(2) -0.19300(16) -0.79031(10)
C4 C -0.3249(2) -0.17558(15) -0.69758(9)
H8 H -0.3827 -0.1471 -0.7228
C5 C -0.2136(2) -0.45778(16) -0.66885(9)
C6 C -0.6295(3) -0.49783(19) -0.70072(12)
H9 H -0.6328 -0.4985 -0.7409
H10 H -0.7019 -0.5259 -0.6862
C7 C -0.1761(2) -0.55338(16) -0.36167(9)
H11 H -0.1559 -0.5997 -0.3344
C8 C -0.6198(2) -0.75618(17) -0.37487(10)
H12 H -0.5491 -0.7923 -0.3697
H13 H -0.6081 -0.7171 -0.4060
H14 H -0.6880 -0.7943 -0.3816
C9 C -0.2460(2) -0.72294(16) -0.47025(9)
H15 H -0.1883 -0.7042 -0.4988
C10 C -0.2676(2) -0.42860(18) -0.31606(10)
H16 H -0.3330 -0.3855 -0.3176
H17 H -0.2492 -0.4417 -0.2775
C11 C -0.2867(2) -0.10979(17) -0.65352(10)
H18 H -0.3024 -0.0488 -0.6654
H19 H -0.3295 -0.1208 -0.6191
C12 C -0.3857(2) -0.62251(16) -0.52233(9)
C13 C -0.1056(2) -0.41156(17) -0.58282(10)
H20 H -0.1090 -0.3503 -0.5974
C14 C -0.3964(2) -0.78895(17) -0.52673(10)
H21 H -0.4799 -0.8075 -0.5231
H22 H -0.3804 -0.7759 -0.5655
C15 C -0.1125(2) -0.47714(17) -0.63067(10)
H23 H -0.1220 -0.5378 -0.6159
C16 C -0.4234(2) -0.47629(17) -0.68725(9)
H24 H -0.4035 -0.4722 -0.7268
C17 C -0.5766(3) -0.33864(19) -0.50537(12)
H25 H -0.6427 -0.3105 -0.4856
H26 H -0.5735 -0.3151 -0.5429
C18 C -0.2916(2) -0.37108(16) -0.53763(9)
C19 C -0.1832(2) -0.59409(17) -0.41783(9)
C20 C -0.5897(2) -0.43789(18) -0.50564(10)
H27 H -0.6462 -0.4569 -0.5340
H28 H -0.6174 -0.4595 -0.4699
C21 C -0.5192(2) -0.54486(18) -0.68023(11)
H29 H -0.5277 -0.5620 -0.6416
H30 H -0.5022 -0.5978 -0.7022
C22 C -0.1592(3) -0.39507(18) -0.34605(11)
H31 H -0.1140 -0.3534 -0.3232
H32 H -0.1818 -0.3655 -0.3804
C23 C -0.3723(2) -0.70780(15) -0.49148(9)
H33 H -0.4282 -0.7078 -0.4600
C24 C -0.1570(3) -0.1249(2) -0.64643(11)
H34 H -0.1418 -0.1770 -0.6234
H35 H -0.1182 -0.0731 -0.6299
C25 C -0.6172(2) -0.40469(19) -0.67952(11)
H36 H -0.6617 -0.3975 -0.6452
H37 H -0.6479 -0.3622 -0.7065
C26 C 0.0176(2) -0.4289(2) -0.56013(12)
H38 H 0.0468 -0.3775 -0.5395
H39 H 0.0173 -0.4808 -0.5359
C27 C -0.4373(2) -0.31198(16) -0.70067(9)
C28 C -0.2387(2) -0.82235(17) -0.46334(11)
H40 H -0.1562 -0.8428 -0.4676
H41 H -0.2676 -0.8399 -0.4269
C29 C -0.2984(2) -0.51201(16) -0.34729(9)
H42 H -0.3373 -0.4943 -0.3821
C30 C -0.2091(2) -0.19844(17) -0.72908(9)
H43 H -0.1883 -0.2604 -0.7197
C31 C -0.1138(3) -0.1396(2) -0.70410(11)
H44 H -0.0359 -0.1692 -0.7043
H45 H -0.1074 -0.0834 -0.7241
C32 C -0.6650(3) -0.7617(2) -0.27610(11)
H46 H -0.6694 -0.7268 -0.2427
H47 H -0.6006 -0.8044 -0.2730
H48 H -0.7398 -0.7927 -0.2816
C33 C -0.4658(2) -0.47118(16) -0.51796(9)
H49 H -0.4556 -0.4733 -0.5583
C34 C -0.3799(2) -0.39936(16) -0.49447(9)
H50 H -0.3366 -0.4237 -0.4624
C35 C -0.0873(2) -0.47776(19) -0.35739(11)
H51 H -0.0306 -0.4887 -0.3275
H52 H -0.0426 -0.4715 -0.3918
C36 C -0.7405(2) -0.63553(19) -0.33085(11)
H53 H -0.7254 -0.5996 -0.3631
H54 H -0.7442 -0.5977 -0.2987
H55 H -0.8159 -0.6664 -0.3352
C37 C -0.4839(2) -0.38975(16) -0.66985(9)
H56 H -0.4701 -0.3803 -0.6301
C38 C -0.3150(4) -0.8600(2) -0.50657(16)
H57 H -0.3616 -0.9096 -0.4918
H58 H -0.2657 -0.8822 -0.5369
C39 C 0.0099(2) -0.4687(2) -0.65651(13)
H59 H 0.0337 -0.5247 -0.6737
H60 H 0.0102 -0.4220 -0.6845
C40 C -0.4601(3) -0.32432(19) -0.47595(12)
H61 H -0.4717 -0.3261 -0.4361
H62 H -0.4255 -0.2669 -0.4859
C41 C 0.0934(3) -0.4455(3) -0.60989(14)
H63 H 0.1490 -0.4944 -0.6030
H64 H 0.1397 -0.3923 -0.6190
loop_
_geom_bond_atom_site_label_1
_geom_bond_atom_site_label_2
_geom_bond_site_symmetry_1
_geom_bond_site_symmetry_2
O1 C1 1_555 1_555
O2 C12 1_555 1_555
O3 C18 1_555 1_555
O4 C2 1_555 1_555
O5 C3 1_555 1_555
O6 C5 1_555 1_555
O7 H1 1_555 1_555
O8 C27 1_555 1_555
N1 H2 1_555 1_555
O9 C19 1_555 1_555
N2 H3 1_555 1_555
N3 H4 1_555 1_555
N4 H5 1_555 1_555
N5 H6 1_555 1_555
N6 H7 1_555 1_555
C1 C8 1_555 1_555
C2 O1 1_555 1_555
C3 O7 1_555 1_555
C4 N2 1_555 1_555
H8 C4 1_555 1_555
C5 N1 1_555 1_555
C6 H9 1_555 1_555
H10 C6 1_555 1_555
C7 H11 1_555 1_555
C8 H12 1_555 1_555
H13 C8 1_555 1_555
H14 C8 1_555 1_555
C9 N5 1_555 1_555
H15 C9 1_555 1_555
C10 H16 1_555 1_555
H17 C10 1_555 1_555
C11 C4 1_555 1_555
H18 C11 1_555 1_555
H19 C11 1_555 1_555
C12 N4 1_555 1_555
C13 N6 1_555 1_555
H20 C13 1_555 1_555
C14 H21 1_555 1_555
H22 C14 1_555 1_555
C15 C5 1_555 1_555
H23 C15 1_555 1_555
C16 N1 1_555 1_555
H24 C16 1_555 1_555
C17 H25 1_555 1_555
H26 C17 1_555 1_555
C18 N6 1_555 1_555
C19 N5 1_555 1_555
C20 C17 1_555 1_555
H27 C20 1_555 1_555
H28 C20 1_555 1_555
C21 C6 1_555 1_555
H29 C21 1_555 1_555
H30 C21 1_555 1_555
C22 C10 1_555 1_555
H31 C22 1_555 1_555
H32 C22 1_555 1_555
C23 C9 1_555 1_555
H33 C23 1_555 1_555
C24 C11 1_555 1_555
H34 C24 1_555 1_555
H35 C24 1_555 1_555
C25 C6 1_555 1_555
H36 C25 1_555 1_555
H37 C25 1_555 1_555
C26 C13 1_555 1_555
H38 C26 1_555 1_555
H39 C26 1_555 1_555
C27 N2 1_555 1_555
C28 C9 1_555 1_555
H40 C28 1_555 1_555
H41 C28 1_555 1_555
C29 N3 1_555 1_555
H42 C29 1_555 1_555
C30 C3 1_555 1_555
H43 C30 1_555 1_555
C31 C24 1_555 1_555
H44 C31 1_555 1_555
H45 C31 1_555 1_555
C32 C1 1_555 1_555
H46 C32 1_555 1_555
H47 C32 1_555 1_555
H48 C32 1_555 1_555
C33 N4 1_555 1_555
H49 C33 1_555 1_555
C34 C18 1_555 1_555
H50 C34 1_555 1_555
C35 C7 1_555 1_555
H51 C35 1_555 1_555
H52 C35 1_555 1_555
C36 C1 1_555 1_555
H53 C36 1_555 1_555
H54 C36 1_555 1_555
H55 C36 1_555 1_555
C37 C16 1_555 1_555
H56 C37 1_555 1_555
C38 C14 1_555 1_555
H57 C38 1_555 1_555
H58 C38 1_555 1_555
C39 C15 1_555 1_555
H59 C39 1_555 1_555
H60 C39 1_555 1_555
C40 C17 1_555 1_555
H61 C40 1_555 1_555
H62 C40 1_555 1_555
C41 C26 1_555 1_555
H63 C41 1_555 1_555
H64 C41 1_555 1_555
N3 C2 1_555 1_555
C4 C30 1_555 1_555
C7 C19 1_555 1_555
C7 C29 1_555 1_555
C10 C29 1_555 1_555
C12 C23 1_555 1_555
C13 C15 1_555 1_555
C14 C23 1_555 1_555
C16 C21 1_555 1_555
C20 C33 1_555 1_555
C22 C35 1_555 1_555
C25 C37 1_555 1_555
C27 C37 1_555 1_555
C28 C38 1_555 1_555
C30 C31 1_555 1_555
C33 C34 1_555 1_555
C34 C40 1_555 1_555
C39 C41 1_555 1_555

#END
