
#######################################################################
#
#                 Cambridge Crystallographic Data Centre
#                                CCDC 
#
#######################################################################
#
# If this CIF has been generated from an entry in the Cambridge 
# Structural Database, then it will include bibliographic, chemical, 
# crystal, experimental, refinement or atomic coordinate data resulting 
# from the CCDC's data processing and validation procedures.
#
#######################################################################

data_PAKSOM
_chemical_formula_moiety         'C16 H16 N6 2+,2(F6 P1 1-)'
_chemical_name_systematic        
"1,1'-quinoxaline-2,3-diylbis(3-methyl-1H-imidazol-3-ium) bis(hexafluorophosphate)"
_symmetry_cell_setting           monoclinic
_symmetry_space_group_name_H-M   'P 21/c'
_symmetry_Int_Tables_number      14
_space_group_name_Hall           '-P 2ybc'
loop_
_symmetry_equiv_pos_site_id
_symmetry_equiv_pos_as_xyz
1 x,y,z
2 -x,1/2+y,1/2-z
3 -x,-y,-z
4 x,1/2-y,1/2+z
_cell_length_a                   8.1474(16)
_cell_length_b                   24.660(5)
_cell_length_c                   11.411(2)
_cell_angle_alpha                90
_cell_angle_beta                 107.97(3)
_cell_angle_gamma                90
_cell_volume                     2180.8
_exptl_crystal_colour            colorless
_exptl_crystal_description       Prism
_cell_formula_units_Z            4
loop_
_atom_site_label
_atom_site_type_symbol
_atom_site_fract_x
_atom_site_fract_y
_atom_site_fract_z
P1 P -0.50149(14) 0.31845(4) -0.46461(10)
F1 F -0.5885(5) 0.26101(12) -0.4989(3)
F2 F -0.4918(4) 0.30848(17) -0.3259(3)
F3 F -0.3155(4) 0.29174(15) -0.4377(3)
F4 F -0.5069(5) 0.32825(17) -0.6035(3)
F5 F -0.6876(4) 0.34364(14) -0.4930(4)
F6 F -0.4182(5) 0.37640(14) -0.4317(4)
P2 P -0.83751(14) 0.09682(4) -0.48082(10)
F7 F -0.9138(4) 0.08653(11) -0.3692(2)
F8 F -1.0253(4) 0.10885(14) -0.5706(3)
F9 F -0.7661(4) 0.10834(17) -0.5936(3)
F10 F -0.8047(6) 0.15772(13) -0.4437(3)
F11 F -0.6525(4) 0.08159(18) -0.3928(4)
F12 F -0.8703(6) 0.03459(14) -0.5174(4)
N1 N -0.3709(4) 0.09375(13) -0.5405(3)
N2 N -0.2861(4) 0.10787(12) -0.3446(3)
N3 N 0.0540(4) 0.24453(13) -0.2365(3)
N4 N -0.0690(4) 0.18228(12) -0.1624(3)
N5 N -0.0654(4) 0.11926(12) -0.0110(3)
N6 N -0.2769(4) 0.04793(12) -0.1858(3)
C1 C -0.3048(5) 0.07026(16) -0.4323(3)
H1 H -0.2762 0.0338 -0.4192
C2 C -0.3963(5) 0.14781(16) -0.5226(4)
H2 H -0.4416 0.1734 -0.5840
C3 C -0.3442(5) 0.15726(16) -0.4008(4)
H3 H -0.3466 0.1902 -0.3619
C4 C -0.4157(6) 0.06626(19) -0.6597(4)
H4 H -0.3852 0.0286 -0.6474
H5 H -0.3538 0.0826 -0.7098
H6 H -0.5374 0.0695 -0.7002
C5 C 0.0406(5) 0.19153(16) -0.2254(4)
H7 H 0.0980 0.1653 -0.2563
C6 C -0.0477(6) 0.26985(17) -0.1789(4)
H8 H -0.0612 0.3071 -0.1736
C7 C -0.1249(6) 0.23177(16) -0.1311(4)
H9 H -0.2008 0.2373 -0.0859
C8 C 0.1684(7) 0.2721(2) -0.2961(5)
H10 H 0.2271 0.2455 -0.3299
H11 H 0.2517 0.2935 -0.2362
H12 H 0.1009 0.2951 -0.3609
C9 C -0.1193(5) 0.13043(14) -0.1280(3)
C10 C -0.2274(5) 0.09487(14) -0.2162(3)
C11 C -0.1161(5) 0.07099(15) 0.0250(3)
C12 C -0.0638(5) 0.05698(16) 0.1501(4)
H13 H 0.0083 0.0799 0.2083
C13 C -0.1192(6) 0.00938(16) 0.1862(4)
H14 H -0.0850 0.0002 0.2693
C14 C -0.2273(6) -0.02578(16) 0.0994(4)
H15 H -0.2651 -0.0577 0.1260
C15 C -0.2779(6) -0.01391(16) -0.0236(4)
H16 H -0.3477 -0.0378 -0.0804
C16 C -0.2231(5) 0.03489(15) -0.0633(3)
loop_
_geom_bond_atom_site_label_1
_geom_bond_atom_site_label_2
_geom_bond_site_symmetry_1
_geom_bond_site_symmetry_2
P1 F1 1_555 1_555
F2 P1 1_555 1_555
F3 P1 1_555 1_555
F4 P1 1_555 1_555
F5 P1 1_555 1_555
F6 P1 1_555 1_555
P2 F7 1_555 1_555
F8 P2 1_555 1_555
F9 P2 1_555 1_555
F10 P2 1_555 1_555
F11 P2 1_555 1_555
F12 P2 1_555 1_555
N1 C1 1_555 1_555
N2 C1 1_555 1_555
N3 C5 1_555 1_555
N4 C5 1_555 1_555
N5 C9 1_555 1_555
N6 C10 1_555 1_555
C1 H1 1_555 1_555
C2 N1 1_555 1_555
H2 C2 1_555 1_555
C3 N2 1_555 1_555
H3 C3 1_555 1_555
C4 N1 1_555 1_555
H4 C4 1_555 1_555
H5 C4 1_555 1_555
H6 C4 1_555 1_555
C5 H7 1_555 1_555
C6 N3 1_555 1_555
H8 C6 1_555 1_555
C7 N4 1_555 1_555
H9 C7 1_555 1_555
C8 N3 1_555 1_555
H10 C8 1_555 1_555
H11 C8 1_555 1_555
H12 C8 1_555 1_555
C9 N4 1_555 1_555
C10 N2 1_555 1_555
C11 N5 1_555 1_555
C12 C11 1_555 1_555
H13 C12 1_555 1_555
C13 C12 1_555 1_555
H14 C13 1_555 1_555
C14 C13 1_555 1_555
H15 C14 1_555 1_555
C15 C14 1_555 1_555
H16 C15 1_555 1_555
C16 N6 1_555 1_555
C2 C3 1_555 1_555
C6 C7 1_555 1_555
C9 C10 1_555 1_555
C11 C16 1_555 1_555
C15 C16 1_555 1_555

#END
