
#######################################################################
#
#                 Cambridge Crystallographic Data Centre
#                                CCDC 
#
#######################################################################
#
# If this CIF has been generated from an entry in the Cambridge 
# Structural Database, then it will include bibliographic, chemical, 
# crystal, experimental, refinement or atomic coordinate data resulting 
# from the CCDC's data processing and validation procedures.
#
#######################################################################

data_PAKVED
_chemical_formula_moiety         'C24 H24 N6'
_chemical_name_systematic        
1,4-bis(benztriazol-1-ylmethyl)-2,3,5,6-tetramethylbenzene
_symmetry_cell_setting           orthorhombic
_symmetry_space_group_name_H-M   'P b c a'
_symmetry_Int_Tables_number      61
_space_group_name_Hall           '-P 2ac 2ab'
loop_
_symmetry_equiv_pos_site_id
_symmetry_equiv_pos_as_xyz
1 x,y,z
2 1/2-x,-y,1/2+z
3 -x,1/2+y,1/2-z
4 1/2+x,1/2-y,-z
5 -x,-y,-z
6 1/2+x,y,1/2-z
7 x,1/2-y,1/2+z
8 1/2-x,1/2+y,z
_cell_length_a                   9.842(5)
_cell_length_b                   9.455(5)
_cell_length_c                   22.165(12)
_cell_angle_alpha                90
_cell_angle_beta                 90
_cell_angle_gamma                90
_cell_volume                     2062.59
_exptl_crystal_colour            colorless
_cell_formula_units_Z            4
_exptl_crystal_recrystallization_method acetone
loop_
_atom_site_label
_atom_site_type_symbol
_atom_site_fract_x
_atom_site_fract_y
_atom_site_fract_z
N1 N 0.2132(3) 0.2021(3) 0.43167(13)
N2 N 0.1151(4) 0.1074(4) 0.4488(2)
N3 N 0.0214(3) 0.0908(4) 0.4070(2)
C1 C 0.0609(4) 0.1782(5) 0.3601(2)
C2 C 0.0017(7) 0.2030(9) 0.3026(4)
C3 C 0.0633(8) 0.2988(10) 0.2651(3)
C4 C 0.1800(6) 0.3699(7) 0.2809(2)
C5 C 0.2409(5) 0.3471(5) 0.33616(17)
C6 C 0.1785(3) 0.2487(4) 0.37472(18)
C7 C 0.3334(3) 0.2405(3) 0.46679(18)
C8 C 0.4192(3) 0.1137(3) 0.48428(13)
C9 C 0.5131(3) 0.0611(3) 0.44285(13)
C10 C 0.5249(5) 0.1243(5) 0.38069(17)
C11 C 0.4041(3) 0.0533(3) 0.54113(13)
C12 C 0.2995(5) 0.1045(5) 0.5856(2)
H1 H 0.388(3) 0.309(4) 0.4409(16)
H2 H 0.297(3) 0.291(4) 0.5054(16)
H3 H 0.320(5) 0.129(5) 0.618(3)
H4 H 0.219(6) 0.441(6) 0.245(3)
H5 H -0.072(7) 0.160(6) 0.290(2)
H6 H 0.009(5) 0.326(5) 0.228(2)
H7 H 0.342(5) 0.402(4) 0.3463(19)
H8 H 0.253(6) 0.188(7) 0.568(2)
H9 H 0.235(4) 0.012(5) 0.5979(19)
H10 H 0.437(5) 0.114(5) 0.353(2)
H11 H 0.615(5) 0.119(4) 0.367(2)
H12 H 0.483(7) 0.233(8) 0.381(3)
N1D N 0.7868(3) -0.2021(3) 0.56833(13)
N2D N 0.8849(4) -0.1074(4) 0.5512(2)
N3D N 0.9786(3) -0.0908(4) 0.5930(2)
C1D C 0.9391(4) -0.1782(5) 0.6399(2)
C2D C 0.9983(7) -0.2030(9) 0.6974(4)
C3D C 0.9367(8) -0.2988(10) 0.7349(3)
C4D C 0.8200(6) -0.3699(7) 0.7191(2)
C5D C 0.7591(5) -0.3471(5) 0.66384(17)
C6D C 0.8215(3) -0.2487(4) 0.62528(18)
C7D C 0.6666(3) -0.2405(3) 0.53321(18)
C8D C 0.5808(3) -0.1137(3) 0.51572(13)
C9D C 0.4869(3) -0.0611(3) 0.55715(13)
C10D C 0.4751(5) -0.1243(5) 0.61931(17)
C11D C 0.5959(3) -0.0533(3) 0.45887(13)
C12D C 0.7005(5) -0.1045(5) 0.4144(2)
H1D H 0.612(3) -0.309(4) 0.5591(16)
H2D H 0.703(3) -0.291(4) 0.4946(16)
H3D H 0.680(5) -0.129(5) 0.382(3)
H4D H 0.781(6) -0.441(6) 0.755(3)
H5D H 1.072(7) -0.160(6) 0.710(2)
H6D H 0.991(5) -0.326(5) 0.772(2)
H7D H 0.658(5) -0.402(4) 0.6537(19)
H8D H 0.747(6) -0.188(7) 0.432(2)
H9D H 0.765(4) -0.012(5) 0.4021(19)
H10D H 0.563(5) -0.114(5) 0.647(2)
H11D H 0.385(5) -0.119(4) 0.633(2)
H12D H 0.517(7) -0.233(8) 0.619(3)
loop_
_geom_bond_atom_site_label_1
_geom_bond_atom_site_label_2
_geom_bond_site_symmetry_1
_geom_bond_site_symmetry_2
N1 N2 1_555 1_555
N2 N3 1_555 1_555
N3 C1 1_555 1_555
C1 C2 1_555 1_555
C2 C3 1_555 1_555
C3 C4 1_555 1_555
C4 C5 1_555 1_555
C5 C6 1_555 1_555
C6 N1 1_555 1_555
C7 N1 1_555 1_555
C8 C7 1_555 1_555
C9 C8 1_555 1_555
C10 C9 1_555 1_555
C11 C8 1_555 1_555
C12 C11 1_555 1_555
H1 C7 1_555 1_555
H2 C7 1_555 1_555
H3 C12 1_555 1_555
H4 C4 1_555 1_555
H5 C2 1_555 1_555
H6 C3 1_555 1_555
H7 C5 1_555 1_555
H8 C12 1_555 1_555
H9 C12 1_555 1_555
H10 C10 1_555 1_555
H11 C10 1_555 1_555
H12 C10 1_555 1_555
N1D N2D 1_555 1_555
N2D N3D 1_555 1_555
N3D C1D 1_555 1_555
C1D C2D 1_555 1_555
C2D C3D 1_555 1_555
C3D C4D 1_555 1_555
C4D C5D 1_555 1_555
C5D C6D 1_555 1_555
C6D N1D 1_555 1_555
C7D N1D 1_555 1_555
C8D C7D 1_555 1_555
C9D C11 1_555 1_555
C10D C9D 1_555 1_555
C11D C9 1_555 1_555
C12D C11D 1_555 1_555
H1D C7D 1_555 1_555
H2D C7D 1_555 1_555
H3D C12D 1_555 1_555
H4D C4D 1_555 1_555
H5D C2D 1_555 1_555
H6D C3D 1_555 1_555
H7D C5D 1_555 1_555
H8D C12D 1_555 1_555
H9D C12D 1_555 1_555
H10D C10D 1_555 1_555
H11D C10D 1_555 1_555
H12D C10D 1_555 1_555
C1 C6 1_555 1_555
C1D C6D 1_555 1_555
C8D C9D 1_555 1_555
C8D C11D 1_555 1_555

#END
