
#######################################################################
#
#                 Cambridge Crystallographic Data Centre
#                                CCDC 
#
#######################################################################
#
# If this CIF has been generated from an entry in the Cambridge 
# Structural Database, then it will include bibliographic, chemical, 
# crystal, experimental, refinement or atomic coordinate data resulting 
# from the CCDC's data processing and validation procedures.
#
#######################################################################

data_PAKWAC
_chemical_formula_moiety         'C60,C28 H18 N2 S8'
_chemical_name_systematic        
'C60fullerene 2,6-bis(phenylsulfanyl)-3,7-bis(pyridin-2-ylsulfanyl)tetrathiafulvalene'
_symmetry_cell_setting           triclinic
_symmetry_space_group_name_H-M   'P -1'
_symmetry_Int_Tables_number      2
_space_group_name_Hall           '-P 1'
loop_
_symmetry_equiv_pos_site_id
_symmetry_equiv_pos_as_xyz
1 x,y,z
2 -x,-y,-z
_cell_length_a                   10.3135(4)
_cell_length_b                   10.3164(6)
_cell_length_c                   13.7643(11)
_cell_angle_alpha                68.271(7)
_cell_angle_beta                 86.126(5)
_cell_angle_gamma                79.343(4)
_cell_volume                     1336.97
_exptl_crystal_colour            black
_exptl_crystal_description       block
_chemical_melting_point          '453 K'
_cell_formula_units_Z            1
_exptl_crystal_recrystallization_method chlorobenzene
loop_
_atom_site_label
_atom_site_type_symbol
_atom_site_fract_x
_atom_site_fract_y
_atom_site_fract_z
C1 C 1.0047(11) -0.0360(12) 0.5508(9)
C2 C 1.0662(13) -0.1384(12) 0.7469(10)
C3 C 0.9867(13) -0.2209(13) 0.7367(10)
C4 C 1.1361(14) -0.0146(12) 0.8798(10)
C5 C 1.0174(12) 0.0774(13) 0.8569(9)
H1 H 0.9473 0.0590 0.8251
C6 C 1.0038(16) 0.1989(15) 0.8821(10)
H2 H 0.9245 0.2662 0.8649
C7 C 1.1046(18) 0.2220(15) 0.9317(10)
H3 H 1.0936 0.3028 0.9510
C8 C 1.2232(17) 0.1249(18) 0.9532(12)
H4 H 1.2937 0.1414 0.9855
C9 C 0.7947(13) -0.3381(13) 0.8739(9)
C10 C 0.7133(13) -0.2143(13) 0.8203(10)
H5 H 0.7431 -0.1448 0.7602
C11 C 0.5837(15) -0.1938(15) 0.8576(12)
H6 H 0.5247 -0.1090 0.8219
C12 C 0.5409(15) -0.2953(17) 0.9453(12)
H7 H 0.4535 -0.2803 0.9704
C13 C 0.6286(14) -0.4205(14) 0.9966(11)
H8 H 0.6008 -0.4905 1.0576
S1 S 1.0958(3) 0.0056(3) 0.6359(2)
S2 S 0.9226(3) -0.1803(3) 0.6138(2)
S3 S 1.1646(3) -0.1787(3) 0.8587(3)
S4 S 0.9605(3) -0.3806(3) 0.8364(3)
C14 C 1.2388(13) 0.0045(14) 0.9276(10)
N1 N 0.7543(12) -0.4426(13) 0.9593(10)
C1A C 0.9953(11) 0.0360(12) 0.4492(9)
C2A C 0.9338(13) 0.1384(12) 0.2531(10)
C3A C 1.0133(13) 0.2209(13) 0.2633(10)
C4A C 0.8639(14) 0.0146(12) 0.1202(10)
C5A C 0.9826(12) -0.0774(13) 0.1431(9)
H1A H 1.0527 -0.0590 0.1749
C6A C 0.9962(16) -0.1989(15) 0.1179(10)
H2A H 1.0755 -0.2662 0.1351
C7A C 0.8954(18) -0.2220(15) 0.0683(10)
H3A H 0.9064 -0.3028 0.0490
C8A C 0.7768(17) -0.1249(18) 0.0468(12)
H4A H 0.7063 -0.1414 0.0145
C9A C 1.2053(13) 0.3381(13) 0.1261(9)
C10A C 1.2867(13) 0.2143(13) 0.1797(10)
H5A H 1.2569 0.1448 0.2398
C11A C 1.4163(15) 0.1938(15) 0.1424(12)
H6A H 1.4753 0.1090 0.1781
C12A C 1.4591(15) 0.2953(17) 0.0547(12)
H7A H 1.5465 0.2803 0.0296
C13A C 1.3714(14) 0.4205(14) 0.0034(11)
H8A H 1.3992 0.4905 -0.0576
S1A S 0.9042(3) -0.0056(3) 0.3641(2)
S2A S 1.0774(3) 0.1803(3) 0.3862(2)
S3A S 0.8354(3) 0.1787(3) 0.1413(3)
S4A S 1.0395(3) 0.3806(3) 0.1636(3)
C14A C 0.7612(13) -0.0045(14) 0.0724(10)
N1A N 1.2457(12) 0.4426(13) 0.0407(10)
C16 C 0.3526(13) 0.2136(12) 0.5077(10)
C17 C 0.4538(14) 0.1439(12) 0.5849(11)
C18 C 0.5863(15) 0.1319(13) 0.5535(13)
C19 C 0.6217(15) 0.1900(15) 0.4445(13)
C20 C 0.5232(15) 0.2562(15) 0.3715(13)
C21 C 0.3865(14) 0.2661(13) 0.4037(11)
C22 C 0.2477(13) 0.2936(14) 0.5500(12)
C23 C 0.4197(14) 0.1783(12) 0.6775(10)
C24 C 0.6831(15) 0.1585(14) 0.6101(15)
C25 C 0.7392(14) 0.2551(16) 0.4332(15)
C26 C 0.5395(15) 0.3900(15) 0.2825(11)
C27 C 0.3159(15) 0.4043(14) 0.3368(11)
C28 C 0.2882(16) 0.2706(15) 0.6563(13)
C29 C 0.7754(14) 0.2301(15) 0.5365(14)
C30 C 0.4109(14) 0.4789(14) 0.2635(11)
C31 C 0.2167(14) 0.4829(15) 0.3761(13)
C32 C 0.2080(15) 0.6322(16) 0.3501(12)
C33 C 0.1696(13) 0.6677(17) 0.4428(13)
C34 C 0.1530(14) 0.5378(14) 0.5264(11)
C35 C 0.1832(13) 0.4222(16) 0.4859(12)
C36 C 0.2611(15) 0.3766(17) 0.6940(13)
C37 C 0.3596(14) 0.4024(15) 0.7532(11)
C38 C 0.4841(18) 0.3141(16) 0.7728(11)
C39 C 0.5126(17) 0.1998(14) 0.7338(11)
C40 C 0.6467(15) 0.1871(14) 0.7017(12)
C41 C 0.7036(16) 0.2997(17) 0.7191(13)
C42 C 0.6011(15) 0.3753(15) 0.7654(10)
C43 C 0.7536(14) 0.3769(18) 0.3545(12)
C44 C 0.6511(16) 0.4442(16) 0.2796(12)
C45 C 0.1904(14) 0.5136(14) 0.6276(11)
C16A C 0.6474(13) 0.7864(12) 0.4923(10)
C17A C 0.5462(14) 0.8561(12) 0.4151(11)
C18A C 0.4137(15) 0.8681(13) 0.4465(13)
C19A C 0.3783(15) 0.8100(15) 0.5555(13)
C20A C 0.4768(15) 0.7438(15) 0.6285(13)
C21A C 0.6135(14) 0.7339(13) 0.5963(11)
C22A C 0.7523(13) 0.7064(14) 0.4500(12)
C23A C 0.5803(14) 0.8217(12) 0.3225(10)
C24A C 0.3169(15) 0.8415(14) 0.3899(15)
C25A C 0.2608(14) 0.7449(16) 0.5668(15)
C26A C 0.4605(15) 0.6100(15) 0.7175(11)
C27A C 0.6841(15) 0.5957(14) 0.6632(11)
C28A C 0.7118(16) 0.7294(15) 0.3437(13)
C29A C 0.2246(14) 0.7699(15) 0.4635(14)
C30A C 0.5891(14) 0.5211(14) 0.7365(11)
C31A C 0.7833(14) 0.5171(15) 0.6239(13)
C32A C 0.7920(15) 0.3678(16) 0.6499(12)
C33A C 0.8304(13) 0.3323(17) 0.5572(13)
C34A C 0.8470(14) 0.4622(14) 0.4736(11)
C35A C 0.8168(13) 0.5778(16) 0.5141(12)
C36A C 0.7389(15) 0.6234(17) 0.3060(13)
C37A C 0.6404(14) 0.5976(15) 0.2468(11)
C38A C 0.5159(18) 0.6859(16) 0.2272(11)
C39A C 0.4874(17) 0.8002(14) 0.2662(11)
C40A C 0.3533(15) 0.8129(14) 0.2983(12)
C41A C 0.2964(16) 0.7003(17) 0.2809(13)
C42A C 0.3989(15) 0.6247(15) 0.2346(10)
C43A C 0.2464(14) 0.6231(18) 0.6455(12)
C44A C 0.3489(16) 0.5558(16) 0.7204(12)
C45A C 0.8096(14) 0.4864(14) 0.3724(11)
C15? C 0.7543(12) -0.4426(13) 0.9593(10)
N2? N 1.2388(13) 0.0045(14) 0.9276(10)
loop_
_geom_bond_atom_site_label_1
_geom_bond_atom_site_label_2
_geom_bond_site_symmetry_1
_geom_bond_site_symmetry_2
C1 S1 1_555 1_555
C2 C3 1_555 1_555
C3 S2 1_555 1_555
C4 C5 1_555 1_555
C5 H1 1_555 1_555
C6 C5 1_555 1_555
H2 C6 1_555 1_555
C7 C6 1_555 1_555
H3 C7 1_555 1_555
C8 C7 1_555 1_555
H4 C8 1_555 1_555
C9 C10 1_555 1_555
C10 H5 1_555 1_555
C11 C10 1_555 1_555
H6 C11 1_555 1_555
C12 C11 1_555 1_555
H7 C12 1_555 1_555
C13 C12 1_555 1_555
H8 C13 1_555 1_555
S1 C2 1_555 1_555
S2 C1 1_555 1_555
S3 C2 1_555 1_555
S4 C3 1_555 1_555
C14 C4 1_555 1_555
N1 C9 1_555 1_555
C16 C17 1_555 1_555
C17 C18 1_555 1_555
C18 C19 1_555 1_555
C19 C20 1_555 1_555
C20 C21 1_555 1_555
C21 C16 1_555 1_555
C22 C16 1_555 1_555
C23 C17 1_555 1_555
C24 C18 1_555 1_555
C25 C19 1_555 1_555
C26 C20 1_555 1_555
C27 C21 1_555 1_555
C28 C22 1_555 1_555
C29 C24 1_555 1_555
C30 C26 1_555 1_555
C31 C27 1_555 1_555
C32 C31 1_555 1_555
C33 C32 1_555 1_555
C34 C33 1_555 1_555
C35 C22 1_555 1_555
C36 C28 1_555 1_555
C37 C36 1_555 1_555
C38 C37 1_555 1_555
C39 C23 1_555 1_555
C40 C24 1_555 1_555
C41 C40 1_555 1_555
C42 C38 1_555 1_555
C43 C25 1_555 1_555
C44 C26 1_555 1_555
C45 C34 1_555 1_555
C1A C1 1_555 1_555
C2A C3A 1_555 1_555
C3A S2A 1_555 1_555
C4A C5A 1_555 1_555
C5A H1A 1_555 1_555
C6A C5A 1_555 1_555
H2A C6A 1_555 1_555
C7A C6A 1_555 1_555
H3A C7A 1_555 1_555
C8A C7A 1_555 1_555
H4A C8A 1_555 1_555
C9A C10A 1_555 1_555
C10A H5A 1_555 1_555
C11A C10A 1_555 1_555
H6A C11A 1_555 1_555
C12A C11A 1_555 1_555
H7A C12A 1_555 1_555
C13A C12A 1_555 1_555
H8A C13A 1_555 1_555
S1A C1A 1_555 1_555
S2A C1A 1_555 1_555
S3A C2A 1_555 1_555
S4A C3A 1_555 1_555
C14A C4A 1_555 1_555
N1A C9A 1_555 1_555
C16A C17A 1_555 1_555
C17A C18A 1_555 1_555
C18A C19A 1_555 1_555
C19A C20A 1_555 1_555
C20A C21A 1_555 1_555
C21A C16A 1_555 1_555
C22A C16A 1_555 1_555
C23A C17A 1_555 1_555
C24A C18A 1_555 1_555
C25A C19A 1_555 1_555
C26A C20A 1_555 1_555
C27A C21A 1_555 1_555
C28A C22A 1_555 1_555
C29A C33 1_555 1_555
C30A C42 1_555 1_555
C31A C27A 1_555 1_555
C32A C41 1_555 1_555
C33A C29 1_555 1_555
C34A C33A 1_555 1_555
C35A C22A 1_555 1_555
C36A C28A 1_555 1_555
C37A C44 1_555 1_555
C38A C37A 1_555 1_555
C39A C23A 1_555 1_555
C40A C24A 1_555 1_555
C41A C32 1_555 1_555
C42A C30 1_555 1_555
C43A C45 1_555 1_555
C44A C37 1_555 1_555
C45A C43 1_555 1_555
C4 S3 1_555 1_555
C8 C14 1_555 1_555
C9 S4 1_555 1_555
C13 N1 1_555 1_555
C23 C28 1_555 1_555
C25 C29 1_555 1_555
C27 C30 1_555 1_555
C31 C35 1_555 1_555
C34 C35 1_555 1_555
C36 C45 1_555 1_555
C38 C39 1_555 1_555
C39 C40 1_555 1_555
C41 C42 1_555 1_555
C43 C44 1_555 1_555
C2A S1A 1_555 1_555
C4A S3A 1_555 1_555
C8A C14A 1_555 1_555
C9A S4A 1_555 1_555
C13A N1A 1_555 1_555
C23A C28A 1_555 1_555
C24A C29A 1_555 1_555
C25A C29A 1_555 1_555
C25A C43A 1_555 1_555
C26A C30A 1_555 1_555
C26A C44A 1_555 1_555
C27A C30A 1_555 1_555
C31A C32A 1_555 1_555
C31A C35A 1_555 1_555
C32A C33A 1_555 1_555
C34A C35A 1_555 1_555
C34A C45A 1_555 1_555
C36A C37A 1_555 1_555
C36A C45A 1_555 1_555
C38A C39A 1_555 1_555
C38A C42A 1_555 1_555
C39A C40A 1_555 1_555
C40A C41A 1_555 1_555
C41A C42A 1_555 1_555
C43A C44A 1_555 1_555

#END
