
#######################################################################
#
#                 Cambridge Crystallographic Data Centre
#                                CCDC 
#
#######################################################################
#
# If this CIF has been generated from an entry in the Cambridge 
# Structural Database, then it will include bibliographic, chemical, 
# crystal, experimental, refinement or atomic coordinate data resulting 
# from the CCDC's data processing and validation procedures.
#
#######################################################################

data_PAKYIM
_chemical_name_common            'Ulimorelin chloride acetonitrile solvate'
_chemical_formula_moiety         'C30 H40 F1 N4 O4 1+,Cl1 1-,1.58(C2 H3 N1)'
_chemical_name_systematic        
'5-cyclopropyl-11-(4-fluorobenzyl)-2,7,8-trimethyl-6,9,12-trioxo-3,4,5,6,7,8,9,10,11,12,13,14,15,16-tetradecahydro-2H-1,4,7,10,13-benzoxatetraazacyclooctadecin-4-ium chloride acetonitrile solvate'
_chemical_properties_biological  'gastroprokinetic properties'
_symmetry_cell_setting           orthorhombic
_symmetry_space_group_name_H-M   'P 21 21 21'
_symmetry_Int_Tables_number      19
_space_group_name_Hall           'P 2ac 2ab'
loop_
_symmetry_equiv_pos_site_id
_symmetry_equiv_pos_as_xyz
1 x,y,z
2 1/2-x,-y,1/2+z
3 1/2+x,1/2-y,-z
4 -x,1/2+y,1/2-z
_cell_length_a                   13.234(7)
_cell_length_b                   14.397(5)
_cell_length_c                   17.715(8)
_cell_angle_alpha                90
_cell_angle_beta                 90
_cell_angle_gamma                90
_cell_volume                     3375.24
_exptl_crystal_colour            colorless
_exptl_crystal_description       Needle
_cell_formula_units_Z            4
loop_
_atom_site_label
_atom_site_type_symbol
_atom_site_fract_x
_atom_site_fract_y
_atom_site_fract_z
C1 C 0.5552(8) 0.1716(7) 0.2375(5)
C2 C 0.5286(8) 0.1923(6) 0.1649(6)
H1 H 0.4764 0.2334 0.1539
C3 C 0.5847(7) 0.1478(6) 0.1071(5)
H2 H 0.5668 0.1589 0.0571
C4 C 0.6626(7) 0.0904(6) 0.1211(5)
C5 C 0.6886(8) 0.0726(6) 0.1960(5)
H3 H 0.7431 0.0345 0.2076
C6 C 0.6299(8) 0.1142(7) 0.2544(6)
H4 H 0.6443 0.1009 0.3047
C7 C 0.7270(7) 0.0491(6) 0.0601(5)
H5 H 0.6847 0.0131 0.0262
H6 H 0.7761 0.0074 0.0825
C8 C 0.7822(7) 0.1241(5) 0.0151(5)
H7 H 0.7311 0.1611 -0.0113
C9 C 0.8527(9) 0.0819(7) -0.0447(5)
C10 C 1.0169(8) 0.0696(6) -0.1037(5)
H8 H 1.073 0.1126 -0.1081
H9 H 0.983 0.0677 -0.1522
C11 C 1.0587(7) -0.0272(6) -0.0863(5)
H10 H 1.1023 -0.0466 -0.1273
H11 H 1.003 -0.0709 -0.0832
C12 C 1.1187(7) -0.0300(6) -0.0119(5)
H12 H 1.1728 0.0153 -0.015
H13 H 1.0743 -0.0109 0.0288
C13 C 1.1646(8) -0.1241(6) 0.0085(5)
C14 C 1.1573(9) -0.2006(6) -0.0406(5)
H14 H 1.1244 -0.1945 -0.0867
C15 C 1.1990(11) -0.2840(7) -0.0202(7)
H15 H 1.1968 -0.3329 -0.0545
C16 C 1.2431(11) -0.2983(7) 0.0475(7)
H16 H 1.2691 -0.3563 0.0602
C17 C 1.2490(8) -0.2223(6) 0.0993(5)
H17 H 1.2783 -0.2298 0.1466
C18 C 1.2102(7) -0.1377(6) 0.0771(5)
C19 C 1.2986(7) -0.0053(6) 0.1296(5)
H18 H 1.3141 0.011 0.0771
C20 C 1.3920(8) -0.0471(6) 0.1662(6)
H19 H 1.3751 -0.0698 0.2155
H20 H 1.4435 -0.0005 0.1703
H21 H 1.4164 -0.0975 0.1357
C21 C 1.2656(7) 0.0815(6) 0.1717(5)
H22 H 1.2476 0.0652 0.2231
H23 H 1.3215 0.1251 0.1738
C22 C 1.1354(6) 0.2074(5) 0.1766(4)
H24 H 1.1115 0.1872 0.2264
C23 C 1.2105(8) 0.2857(6) 0.1852(5)
H25 H 1.2427 0.3059 0.1381
C24 C 1.2759(9) 0.2925(9) 0.2542(7)
H26 H 1.2662 0.2466 0.2936
H27 H 1.3449 0.3135 0.2477
C25 C 1.1954(10) 0.3589(8) 0.2412(8)
H28 H 1.2146 0.4216 0.2272
H29 H 1.136 0.3549 0.2731
C26 C 1.0479(8) 0.2440(6) 0.1302(5)
C27 C 0.9344(7) 0.2709(8) 0.2392(5)
H30 H 0.8663 0.2483 0.2414
H31 H 0.9386 0.3297 0.2646
H32 H 0.9788 0.2273 0.2633
C28 C 0.8981(7) 0.3366(6) 0.1105(5)
H33 H 0.9415 0.379 0.0818
C29 C 0.8230(10) 0.3971(8) 0.1541(6)
H34 H 0.7893 0.4384 0.1198
H35 H 0.8586 0.4328 0.1914
H36 H 0.7741 0.3582 0.1786
C30 C 0.8420(7) 0.2773(6) 0.0530(5)
F1 F 0.5011(5) 0.2131(4) 0.2932(3)
N1 N 0.8369(5) 0.1859(4) 0.0654(4)
H37 H 0.8668 0.1631 0.1043
N2 N 0.9470(7) 0.1050(5) -0.0480(4)
H38 H 0.9696 0.1437 -0.0151
N3 N 1.1771(5) 0.1268(4) 0.1341(3)
H39 H 1.196 0.1461 0.0878
H40 H 1.1279 0.0842 0.1281
N4 N 0.9647(6) 0.2824(4) 0.1598(4)
O1 O 1.0626(4) 0.2465(3) 0.0596(3)
O2 O 0.7995(5) 0.3184(4) -0.0009(3)
O3 O 0.8131(6) 0.0253(4) -0.0913(4)
O4 O 1.2123(5) -0.0644(4) 0.1309(3)
Cl1 Cl 0.9696(2) 0.03741(16) 0.16499(14)
C31 C 0.955(2) 0.7783(15) 0.0546(11)
H41 H 0.9008 0.8046 0.0256
H42 H 1.0076 0.7579 0.0212
H43 H 0.9814 0.8245 0.0884
C32 C 0.9178 0.7 0.0977
N5 N 0.8745(18) 0.6343(14) 0.1328(10)
C33 C 1.082(2) 0.532(2) 0.1350(13)
H44 H 1.0403 0.5432 0.1783
H45 H 1.142 0.5693 0.1382
H46 H 1.1007 0.4674 0.1336
N6 N 0.9771(19) 0.558(2) 0.0116(12)
C34 C 1.028(2) 0.555(3) 0.0685(16)
loop_
_geom_bond_atom_site_label_1
_geom_bond_atom_site_label_2
_geom_bond_site_symmetry_1
_geom_bond_site_symmetry_2
C1 C2 1_555 1_555
C2 H1 1_555 1_555
C3 C2 1_555 1_555
H2 C3 1_555 1_555
C4 C3 1_555 1_555
C5 C4 1_555 1_555
H3 C5 1_555 1_555
C6 C1 1_555 1_555
H4 C6 1_555 1_555
C7 C4 1_555 1_555
H5 C7 1_555 1_555
H6 C7 1_555 1_555
C8 C7 1_555 1_555
H7 C8 1_555 1_555
C9 C8 1_555 1_555
C10 H8 1_555 1_555
H9 C10 1_555 1_555
C11 C10 1_555 1_555
H10 C11 1_555 1_555
H11 C11 1_555 1_555
C12 C11 1_555 1_555
H12 C12 1_555 1_555
H13 C12 1_555 1_555
C13 C12 1_555 1_555
C14 C13 1_555 1_555
H14 C14 1_555 1_555
C15 C14 1_555 1_555
H15 C15 1_555 1_555
C16 C15 1_555 1_555
H16 C16 1_555 1_555
C17 C16 1_555 1_555
H17 C17 1_555 1_555
C18 C13 1_555 1_555
C19 H18 1_555 1_555
C20 C19 1_555 1_555
H19 C20 1_555 1_555
H20 C20 1_555 1_555
H21 C20 1_555 1_555
C21 C19 1_555 1_555
H22 C21 1_555 1_555
H23 C21 1_555 1_555
C22 H24 1_555 1_555
C23 C22 1_555 1_555
H25 C23 1_555 1_555
C24 C23 1_555 1_555
H26 C24 1_555 1_555
H27 C24 1_555 1_555
C25 C23 1_555 1_555
H28 C25 1_555 1_555
H29 C25 1_555 1_555
C26 C22 1_555 1_555
C27 H30 1_555 1_555
H31 C27 1_555 1_555
H32 C27 1_555 1_555
C28 H33 1_555 1_555
C29 C28 1_555 1_555
H34 C29 1_555 1_555
H35 C29 1_555 1_555
H36 C29 1_555 1_555
C30 C28 1_555 1_555
F1 C1 1_555 1_555
N1 C8 1_555 1_555
H37 N1 1_555 1_555
N2 C9 1_555 1_555
H38 N2 1_555 1_555
N3 C21 1_555 1_555
H39 N3 1_555 1_555
H40 N3 1_555 1_555
N4 C26 1_555 1_555
O1 C26 1_555 1_555
O2 C30 1_555 1_555
O3 C9 1_555 1_555
O4 C18 1_555 1_555
C31 H41 1_555 1_555
H42 C31 1_555 1_555
H43 C31 1_555 1_555
C32 C31 1_555 1_555
N5 C32 1_555 1_555
C33 H44 1_555 1_555
H45 C33 1_555 1_555
H46 C33 1_555 1_555
N6 C34 1_555 1_555
C34 C33 1_555 1_555
C5 C6 1_555 1_555
C10 N2 1_555 1_555
C17 C18 1_555 1_555
C19 O4 1_555 1_555
C22 N3 1_555 1_555
C24 C25 1_555 1_555
C27 N4 1_555 1_555
C28 N4 1_555 1_555
C30 N1 1_555 1_555

#END
