
#######################################################################
#
#                 Cambridge Crystallographic Data Centre
#                                CCDC 
#
#######################################################################
#
# If this CIF has been generated from an entry in the Cambridge 
# Structural Database, then it will include bibliographic, chemical, 
# crystal, experimental, refinement or atomic coordinate data resulting 
# from the CCDC's data processing and validation procedures.
#
#######################################################################

data_PAKYAE
_chemical_name_common            'Ulimorelin hydrochloride dihydrate'
_chemical_formula_moiety         'C30 H40 F1 N4 O4 1+,Cl1 1-,2(H2 O1)'
_chemical_name_systematic        
'(2R,5S,8R,11S)-5-5-cyclopropyl-11-(4-fluorobenzyl)-2,7,8-trimethyl-6,9,12-trioxo-3,4,5,6,7,8,9,10,11,12,13,14,15,16-tetradecahydro-2H-1,4,7,10,13-benzoxatetraazacyclooctadecin-4-ium chloride dihydrate'
_chemical_properties_biological  'gastroprokinetic properties'
_symmetry_cell_setting           orthorhombic
_symmetry_space_group_name_H-M   'P 21 21 21'
_symmetry_Int_Tables_number      19
_space_group_name_Hall           'P 2ac 2ab'
loop_
_symmetry_equiv_pos_site_id
_symmetry_equiv_pos_as_xyz
1 x,y,z
2 1/2-x,-y,1/2+z
3 1/2+x,1/2-y,-z
4 -x,1/2+y,1/2-z
_cell_length_a                   10.479(3)
_cell_length_b                   13.409(5)
_cell_length_c                   22.100(6)
_cell_angle_alpha                90
_cell_angle_beta                 90
_cell_angle_gamma                90
_cell_volume                     3105.34
_exptl_crystal_colour            colorless
_exptl_crystal_description       Needle
_cell_formula_units_Z            4
loop_
_atom_site_label
_atom_site_type_symbol
_atom_site_fract_x
_atom_site_fract_y
_atom_site_fract_z
C1 C 0.3264(8) 0.7109(5) 0.8426(3)
C2 C 0.2079(9) 0.7307(5) 0.8186(3)
H1 H 0.1975 0.7782 0.7877
C3 C 0.1028(8) 0.6778(5) 0.8418(3)
H2 H 0.0208 0.69 0.8263
C4 C 0.1191(7) 0.6082(5) 0.8871(3)
C5 C 0.2412(7) 0.5907(5) 0.9087(3)
H3 H 0.2532 0.5428 0.9392
C6 C 0.3456(8) 0.6415(5) 0.8866(3)
H4 H 0.4279 0.6285 0.9016
C7 C 0.0038(7) 0.5478(5) 0.9088(3)
H5 H 0.0308 0.5011 0.9404
H6 H -0.0599 0.5929 0.9262
C8 C -0.0556(7) 0.4901(5) 0.8568(3)
H7 H -0.0777 0.5393 0.825
C9 C -0.1798(8) 0.4405(5) 0.8763(3)
C10 C -0.3056(7) 0.2909(5) 0.8941(4)
H8 H -0.3738 0.3179 0.8684
H9 H -0.3278 0.3055 0.9362
C11 C -0.3009(8) 0.1793(5) 0.8859(3)
H10 H -0.2572 0.1648 0.8476
H11 H -0.3885 0.1544 0.8823
C12 C -0.2347(7) 0.1225(4) 0.9359(3)
H12 H -0.1431 0.137 0.9344
H13 H -0.267 0.146 0.975
C13 C -0.2535(7) 0.0118(5) 0.9320(3)
C14 C -0.3775(7) -0.0264(6) 0.9325(3)
H14 H -0.4468 0.0174 0.9373
C15 C -0.4006(8) -0.1284(5) 0.9261(3)
H15 H -0.4844 -0.1532 0.9283
C16 C -0.3010(8) -0.1920(5) 0.9168(3)
H16 H -0.3168 -0.2599 0.9093
C17 C -0.1782(7) -0.1572(5) 0.9182(3)
H17 H -0.1099 -0.202 0.9136
C18 C -0.1536(7) -0.0551(5) 0.9264(2)
C19 C 0.0768(7) -0.0790(5) 0.9163(3)
H18 H 0.0572 -0.1232 0.8816
C20 C 0.1169(8) -0.1414(5) 0.9709(3)
H19 H 0.1419 -0.0976 1.0037
H20 H 0.1885 -0.1835 0.9598
H21 H 0.046 -0.1827 0.9837
C21 C 0.1836(7) -0.0079(5) 0.8995(3)
H22 H 0.2145 0.0257 0.9361
H23 H 0.2548 -0.0458 0.8822
C22 C 0.2459(7) 0.1273(4) 0.8268(3)
H24 H 0.3093 0.1506 0.8568
C23 C 0.3051(10) 0.0640(5) 0.7776(4)
H25 H 0.242 0.0378 0.7483
C24 C 0.4142(10) -0.0052(6) 0.7881(4)
H26 H 0.4134 -0.0697 0.7672
H27 H 0.4536 -0.0057 0.8283
C25 C 0.4280(8) 0.0889(5) 0.7498(4)
H28 H 0.4764 0.1448 0.7669
H29 H 0.4361 0.0808 0.7059
C26 C 0.1791(7) 0.2123(4) 0.7951(2)
C27 C 0.3575(7) 0.3294(5) 0.8223(3)
H30 H 0.3703 0.2838 0.8558
H31 H 0.35 0.397 0.8376
H32 H 0.4296 0.3253 0.7948
C28 C 0.1775(7) 0.3715(4) 0.7475(2)
H33 H 0.1567 0.3339 0.7103
C29 C 0.2631(8) 0.4584(5) 0.7295(3)
H34 H 0.2734 0.503 0.7637
H35 H 0.2245 0.4944 0.6961
H36 H 0.3459 0.4333 0.7172
C30 C 0.0568(6) 0.4169(4) 0.7704(3)
F1 F 0.4285(5) 0.7616(3) 0.8198(2)
N1 N 0.0368(5) 0.4221(4) 0.8306(2)
H37 H 0.0806 0.3835 0.8545
N2 N -0.1872(6) 0.3418(4) 0.8794(2)
H38 H -0.119 0.3065 0.8724
N3 N 0.1399(5) 0.0680(3) 0.8551(2)
H39 H 0.0855 0.1107 0.874
H40 H 0.0955 0.0367 0.8252
N4 N 0.2393(5) 0.3022(3) 0.78961(19)
O1 O 0.0757(5) 0.1987(3) 0.7719(2)
O2 O -0.0220(5) 0.4517(3) 0.73378(19)
O3 O -0.2735(5) 0.4949(4) 0.8871(3)
O4 O -0.0322(4) -0.0152(3) 0.92912(18)
Cl1 Cl 0.09468(15) 0.25508(10) 0.93538(6)
O5 O 0.4864(9) 0.4520(7) 0.9385(4)
H41 H 0.4(2) 0.4(2) 0.95(10)
H42 H 0.56(18) 0.4(2) 0.93(10)
O6 O 0.3905(5) 0.1731(4) 0.9601(2)
H43 H 0.302(4) 0.165(13) 0.954(8)
H44 H 0.360(9) 0.234(4) 0.976(4)
loop_
_geom_bond_atom_site_label_1
_geom_bond_atom_site_label_2
_geom_bond_site_symmetry_1
_geom_bond_site_symmetry_2
C1 C2 1_555 1_555
C2 H1 1_555 1_555
C3 C2 1_555 1_555
H2 C3 1_555 1_555
C4 C3 1_555 1_555
C5 C4 1_555 1_555
H3 C5 1_555 1_555
C6 C1 1_555 1_555
H4 C6 1_555 1_555
C7 C4 1_555 1_555
H5 C7 1_555 1_555
H6 C7 1_555 1_555
C8 C7 1_555 1_555
H7 C8 1_555 1_555
C9 C8 1_555 1_555
C10 H8 1_555 1_555
H9 C10 1_555 1_555
C11 C10 1_555 1_555
H10 C11 1_555 1_555
H11 C11 1_555 1_555
C12 C11 1_555 1_555
H12 C12 1_555 1_555
H13 C12 1_555 1_555
C13 C12 1_555 1_555
C14 C13 1_555 1_555
H14 C14 1_555 1_555
C15 C14 1_555 1_555
H15 C15 1_555 1_555
C16 C15 1_555 1_555
H16 C16 1_555 1_555
C17 C16 1_555 1_555
H17 C17 1_555 1_555
C18 C13 1_555 1_555
C19 H18 1_555 1_555
C20 C19 1_555 1_555
H19 C20 1_555 1_555
H20 C20 1_555 1_555
H21 C20 1_555 1_555
C21 C19 1_555 1_555
H22 C21 1_555 1_555
H23 C21 1_555 1_555
C22 H24 1_555 1_555
C23 C22 1_555 1_555
H25 C23 1_555 1_555
C24 C23 1_555 1_555
H26 C24 1_555 1_555
H27 C24 1_555 1_555
C25 C23 1_555 1_555
H28 C25 1_555 1_555
H29 C25 1_555 1_555
C26 C22 1_555 1_555
C27 H30 1_555 1_555
H31 C27 1_555 1_555
H32 C27 1_555 1_555
C28 H33 1_555 1_555
C29 C28 1_555 1_555
H34 C29 1_555 1_555
H35 C29 1_555 1_555
H36 C29 1_555 1_555
C30 C28 1_555 1_555
F1 C1 1_555 1_555
N1 C8 1_555 1_555
H37 N1 1_555 1_555
N2 C9 1_555 1_555
H38 N2 1_555 1_555
N3 C21 1_555 1_555
H39 N3 1_555 1_555
H40 N3 1_555 1_555
N4 C26 1_555 1_555
O1 C26 1_555 1_555
O2 C30 1_555 1_555
O3 C9 1_555 1_555
O4 C18 1_555 1_555
O5 H41 1_555 1_555
H42 O5 1_555 1_555
O6 H43 1_555 1_555
H44 O6 1_555 1_555
C5 C6 1_555 1_555
C10 N2 1_555 1_555
C17 C18 1_555 1_555
C19 O4 1_555 1_555
C22 N3 1_555 1_555
C24 C25 1_555 1_555
C27 N4 1_555 1_555
C28 N4 1_555 1_555
C30 N1 1_555 1_555

#END
