
#######################################################################
#
#                 Cambridge Crystallographic Data Centre
#                                CCDC 
#
#######################################################################
#
# If this CIF has been generated from an entry in the Cambridge 
# Structural Database, then it will include bibliographic, chemical, 
# crystal, experimental, refinement or atomic coordinate data resulting 
# from the CCDC's data processing and validation procedures.
#
#######################################################################

data_PAKZEG
_chemical_formula_moiety         'C14 H19 N2 O4 1+,C2 F3 O2 1-,2(C2 H1 F3 O2)'
_chemical_name_systematic        
'4a-Azonia-8a-aza-2,6-dioxa-3,4,7,8-tetrahydro-4,4,8,8-tetramethyl-anthracene-1,5-dione trifluoroacetate trifluoroacetic acid solvate'
_symmetry_cell_setting           monoclinic
_symmetry_space_group_name_H-M   'P 21/c'
_symmetry_Int_Tables_number      14
_space_group_name_Hall           '-P 2ybc'
loop_
_symmetry_equiv_pos_site_id
_symmetry_equiv_pos_as_xyz
1 x,y,z
2 -x,1/2+y,1/2-z
3 -x,-y,-z
4 x,1/2-y,1/2+z
_cell_length_a                   8.042(9)
_cell_length_b                   21.93(2)
_cell_length_c                   14.54(2)
_cell_angle_alpha                90
_cell_angle_beta                 90.27(9)
_cell_angle_gamma                90
_cell_volume                     2564.26
_exptl_crystal_colour            'deep green'
_cell_formula_units_Z            4
loop_
_atom_site_label
_atom_site_type_symbol
_atom_site_fract_x
_atom_site_fract_y
_atom_site_fract_z
O1 O 0.4656(7) 0.5657(3) 0.4617(3)
O2 O 0.5571(6) 0.6601(3) 0.4654(3)
O3 O 0.5152(7) 0.6539(3) 0.9412(3)
O4 O 0.4423(6) 0.5578(3) 0.9412(3)
N1 N 0.4797(7) 0.6651(3) 0.6577(4)
N2 N 0.4622(6) 0.5544(3) 0.7466(3)
C1 C 0.5001(10) 0.6093(4) 0.5060(5)
C2 C 0.6066(10) 0.7099(4) 0.5243(5)
C3 C 0.4800(8) 0.7232(4) 0.5999(5)
C4 C 0.4765(8) 0.6626(4) 0.7490(4)
C5 C 0.4714(8) 0.6087(4) 0.7956(4)
C6 C 0.4769(9) 0.6097(4) 0.8970(5)
C7 C 0.3638(9) 0.5100(4) 0.8869(4)
C8 C 0.4556(8) 0.4950(4) 0.7990(4)
C9 C 0.4703(8) 0.5567(4) 0.6533(4)
C10 C 0.4788(9) 0.6097(3) 0.6073(5)
C11 C 0.6332(9) 0.4733(4) 0.8180(5)
C12 C 0.3545(9) 0.4488(4) 0.7455(5)
C13 C 0.5287(10) 0.7769(4) 0.6578(5)
C14 C 0.3070(10) 0.7301(4) 0.5590(5)
H1 H 0.6223 0.7459 0.4877
H2 H 0.7114 0.6998 0.5522
H3 H 0.4778 0.7000 0.7832
H4 H 0.2517 0.5218 0.8726
H5 H 0.3591 0.4737 0.9237
H6 H 0.4704 0.5192 0.6192
H7 H 0.6908 0.5045 0.8518
H8 H 0.6323 0.4363 0.8533
H9 H 0.6887 0.4663 0.7607
H10 H 0.2442 0.4643 0.7361
H11 H 0.4057 0.4413 0.6870
H12 H 0.3492 0.4114 0.7797
H13 H 0.6384 0.7705 0.6823
H14 H 0.5280 0.8130 0.6204
H15 H 0.4515 0.7816 0.7074
H16 H 0.2282 0.7385 0.6068
H17 H 0.3064 0.7629 0.5153
H18 H 0.2771 0.6928 0.5286
C15 C -0.0185(11) 0.3197(5) 0.6506(6)
C16 C -0.0271(11) 0.2594(5) 0.6986(5)
F1 F 0.0983(11) 0.3555(4) 0.6865(5)
F2 F -0.1622(9) 0.3480(4) 0.6474(5)
F3 F 0.0247(6) 0.3110(3) 0.5604(3)
O5 O -0.1536(7) 0.2398(4) 0.7273(4)
O6 O 0.1212(8) 0.2339(4) 0.7060(5)
H19 H 0.141(13) 0.1929(56) 0.7223(76)
C17 C 0.0380(4) 0.4439(2) 0.3954(3)
C18 C 0.0301(8) 0.3977(4) 0.3099(5)
F4 F 0.0617(23) 0.4987(3) 0.3658(5)
F5 F -0.1002(9) 0.4417(7) 0.4400(6)
F6 F 0.1587(15) 0.4286(6) 0.4494(7)
O7 O 0.1406(8) 0.3605(4) 0.3052(4)
O8 O -0.0891(7) 0.4104(4) 0.2542(4)
C19 C -0.0134(4) 0.6381(2) 0.0577(3)
F10 F -0.1061(8) 0.6077(4) 0.1125(4)
F11 F -0.0646(8) 0.6933(3) 0.0537(5)
F14 F 0.1367(7) 0.6372(3) 0.0875(3)
C21 C -0.0211(8) 0.6081(4) -0.0429(6)
O9 O -0.1191(11) 0.5734(6) -0.0609(6)
O10 O 0.0895(7) 0.6337(3) -0.0956(4)
F7? F 0.0949(29) 0.4959(4) 0.3684(5)
F8? F -0.1092(8) 0.4512(9) 0.4285(10)
F9? F 0.1345(22) 0.4219(6) 0.4582(7)
C20? C -0.0079(6) 0.6170(4) 0.0665(3)
F12? F -0.0314(19) 0.5656(7) 0.1064(7)
F13? F -0.1184(8) 0.6550(9) 0.0930(6)
H20? H 0.070(10) 0.6238(48) -0.1911(59)
loop_
_geom_bond_atom_site_label_1
_geom_bond_atom_site_label_2
_geom_bond_site_symmetry_1
_geom_bond_site_symmetry_2
O1 C1 1_555 1_555
O2 C1 1_555 1_555
O3 C6 1_555 1_555
O4 C6 1_555 1_555
N1 C3 1_555 1_555
N2 C5 1_555 1_555
C1 C10 1_555 1_555
C2 O2 1_555 1_555
C3 C2 1_555 1_555
C4 N1 1_555 1_555
C5 C4 1_555 1_555
C6 C5 1_555 1_555
C7 O4 1_555 1_555
C8 N2 1_555 1_555
C9 N2 1_555 1_555
C10 N1 1_555 1_555
C11 C8 1_555 1_555
C12 C8 1_555 1_555
C13 C3 1_555 1_555
C14 C3 1_555 1_555
C15 C16 1_555 1_555
C16 O5 1_555 1_555
F1 C15 1_555 1_555
F2 C15 1_555 1_555
F3 C15 1_555 1_555
O6 C16 1_555 1_555
C17 C18 1_555 1_555
C18 O7 1_555 1_555
F4 C17 1_555 1_555
F5 C17 1_555 1_555
F6 C17 1_555 1_555
O8 C18 1_555 1_555
C19 F10 1_555 1_555
F11 C19 1_555 1_555
F14 C19 1_555 1_555
C21 C19 1_555 1_555
O9 C21 1_555 1_555
O10 C21 1_555 1_555
H1 C2 1_555 1_555
H2 C2 1_555 1_555
H3 C4 1_555 1_555
H4 C7 1_555 1_555
H5 C7 1_555 1_555
H6 C9 1_555 1_555
H7 C11 1_555 1_555
H8 C11 1_555 1_555
H9 C11 1_555 1_555
H10 C12 1_555 1_555
H11 C12 1_555 1_555
H12 C12 1_555 1_555
H13 C13 1_555 1_555
H14 C13 1_555 1_555
H15 C13 1_555 1_555
H16 C14 1_555 1_555
H17 C14 1_555 1_555
H18 C14 1_555 1_555
H19 O6 1_555 1_555
C7 C8 1_555 1_555
C9 C10 1_555 1_555

#END
