
#######################################################################
#
#                 Cambridge Crystallographic Data Centre
#                                CCDC 
#
#######################################################################
#
# If this CIF has been generated from an entry in the Cambridge 
# Structural Database, then it will include bibliographic, chemical, 
# crystal, experimental, refinement or atomic coordinate data resulting 
# from the CCDC's data processing and validation procedures.
#
#######################################################################

data_PAKZAC
_chemical_formula_moiety         'C17 H24 N2 O4 S3'
_chemical_name_systematic        
\a-4-(2,2-Dimethyl-1,3-dioxolan-4-yl)-5-(methoxycarbonyl)-2-thioxo-1,3-diazabicyclo(4.3.0)non-5-ene-7-spiro-2'-(1',3'-dithiane)
_symmetry_cell_setting           trigonal
_symmetry_space_group_name_H-M   'P 31'
_symmetry_Int_Tables_number      144
_space_group_name_Hall           'P 31'
loop_
_symmetry_equiv_pos_site_id
_symmetry_equiv_pos_as_xyz
1 x,y,z
2 -y,x-y,1/3+z
3 -x+y,-x,2/3+z
_cell_length_a                   11.252(6)
_cell_length_b                   11.252(6)
_cell_length_c                   14.289(7)
_cell_angle_alpha                90
_cell_angle_beta                 90
_cell_angle_gamma                120
_cell_volume                     1566.72
_exptl_crystal_colour            colorless
_chemical_melting_point          144-145deg.C
_cell_formula_units_Z            3
loop_
_atom_site_label
_atom_site_type_symbol
_atom_site_fract_x
_atom_site_fract_y
_atom_site_fract_z
S1 S 0.8477 0.1347 0.5237
S2 S 0.4951(2) -0.5152(2) 0.4341(1)
S3 S 0.3754(1) -0.3817(1) 0.5580(1)
O1 O 0.5551(5) -0.4948(5) 0.6711(4)
O2 O 0.7433(6) -0.4924(5) 0.6213(5)
O3 O 1.0699(5) -0.0706(5) 0.4061(3)
O4 O 1.1001(4) -0.1251(5) 0.5526(3)
N1 N 0.8836(4) -0.0639(5) 0.5900(3)
N2 N 0.7015(4) -0.1345(4) 0.4915(3)
C1 C 0.8101(5) -0.0283(5) 0.5357(3)
C2 C 0.6051(5) -0.1175(5) 0.4320(4)
C3 C 0.5182(5) -0.2611(6) 0.3938(4)
C4 C 0.5101(5) -0.3546(5) 0.4730(3)
C5 C 0.6468(5) -0.2707(5) 0.5222(3)
C6 C 0.7183(5) -0.3057(5) 0.5796(4)
C7 C 0.8673(5) -0.2013(5) 0.5964(4)
C8 C 0.9611(5) -0.2226(6) 0.5282(4)
C9 C 0.9490(7) -0.1978(9) 0.4235(5)
C10 C 1.1728(6) -0.0636(6) 0.4676(4)
C11 C 1.2366(7) -0.1409(9) 0.4266(6)
C12 C 1.2748(11) 0.0799(9) 0.4905(8)
C13 C 0.6580(6) -0.4425(6) 0.6283(4)
C14 C 0.6959(13) -0.6207(10) 0.6760(10)
C15 C 0.2221(5) -0.4877(6) 0.4892(4)
C16 C 0.2137(6) -0.6187(6) 0.4559(5)
C17 C 0.3232(7) -0.5974(6) 0.3856(4)
loop_
_geom_bond_atom_site_label_1
_geom_bond_atom_site_label_2
_geom_bond_site_symmetry_1
_geom_bond_site_symmetry_2
S1 C1 1_555 1_555
S2 C4 1_555 1_555
S3 C4 1_555 1_555
O1 C13 1_555 1_555
O2 C13 1_555 1_555
O3 C9 1_555 1_555
O4 C8 1_555 1_555
N1 C1 1_555 1_555
N2 C1 1_555 1_555
C2 N2 1_555 1_555
C3 C2 1_555 1_555
C4 C3 1_555 1_555
C5 N2 1_555 1_555
C6 C5 1_555 1_555
C7 N1 1_555 1_555
C8 C7 1_555 1_555
C9 C8 1_555 1_555
C10 O3 1_555 1_555
C11 C10 1_555 1_555
C12 C10 1_555 1_555
C13 C6 1_555 1_555
C14 O2 1_555 1_555
C15 S3 1_555 1_555
C16 C15 1_555 1_555
C17 S2 1_555 1_555
O4 C10 1_555 1_555
C4 C5 1_555 1_555
C6 C7 1_555 1_555
C16 C17 1_555 1_555

#END
