
#######################################################################
#
#                 Cambridge Crystallographic Data Centre
#                                CCDC 
#
#######################################################################
#
# If this CIF has been generated from an entry in the Cambridge 
# Structural Database, then it will include bibliographic, chemical, 
# crystal, experimental, refinement or atomic coordinate data resulting 
# from the CCDC's data processing and validation procedures.
#
#######################################################################

data_PALFOY
_chemical_name_common            '8-5-8 dicarbamate'
_chemical_formula_moiety         'C23 H46 N2 O4'
_chemical_name_systematic        1,5-bis(N-octyl-carbamoyloxy)pentane
_symmetry_cell_setting           triclinic
_symmetry_space_group_name_H-M   'P -1'
_symmetry_Int_Tables_number      2
_space_group_name_Hall           '-P 1'
loop_
_symmetry_equiv_pos_site_id
_symmetry_equiv_pos_as_xyz
1 x,y,z
2 -x,-y,-z
_cell_length_a                   5.048(4)
_cell_length_b                   10.359(9)
_cell_length_c                   23.59(2)
_cell_angle_alpha                84.402(14)
_cell_angle_beta                 88.068(14)
_cell_angle_gamma                83.793(14)
_cell_volume                     1220.16
_exptl_crystal_colour            colorless
_exptl_crystal_description       'thin plate'
_chemical_melting_point          '92.8-94 deg.C'
_cell_formula_units_Z            2
_exptl_crystal_recrystallization_method hexanes
loop_
_atom_site_label
_atom_site_type_symbol
_atom_site_fract_x
_atom_site_fract_y
_atom_site_fract_z
O1 O 1.0672(9) -0.0802(4) -0.1464(2)
O2 O 0.7025(9) 0.0150(4) -0.10136(19)
O3 O 0.8939(10) 0.5868(5) 0.1460(2)
O4 O 0.5781(9) 0.4893(4) 0.10539(19)
N1 N 0.4562(11) 0.6313(5) 0.1669(2)
H1 H 0.2981 0.6128 0.161
C1 C 0.6610(12) 0.5731(6) 0.1406(3)
C2 C 0.1418(13) -0.5306(7) -0.3757(3)
H2 H 0.0404 -0.5761 -0.346
H3 H 0.0298 -0.4538 -0.3908
C3 C 0.8707(13) 0.0924(6) -0.0737(3)
H4 H 0.9498 0.1533 -0.1014
H5 H 1.0122 0.037 -0.0539
C4 C 0.3209(13) -0.3996(6) -0.3023(3)
H6 H 0.2236 -0.4463 -0.2721
H7 H 0.2045 -0.324 -0.317
C5 C -0.0026(13) 0.9101(7) 0.3079(3)
H8 H -0.0898 0.8348 0.3232
H9 H -0.1143 0.9568 0.2783
C6 C 0.2609(13) 0.8630(7) 0.2813(3)
H10 H 0.3764 0.8191 0.3108
H11 H 0.3449 0.9375 0.264
C7 C 0.3886(13) -0.4877(6) -0.3498(3)
H12 H 0.501 -0.5646 -0.3349
H13 H 0.4896 -0.4419 -0.3795
C8 C 0.7338(14) -0.2210(7) -0.2042(3)
H14 H 0.8338 -0.297 -0.185
H15 H 0.8489 -0.1824 -0.2334
C9 C 0.8307(13) -0.0677(6) -0.1385(3)
C10 C 0.4911(13) -0.2616(6) -0.2315(3)
H16 H 0.3818 -0.3038 -0.2022
H17 H 0.3859 -0.1842 -0.2483
C11 C 0.5642(13) -0.3537(6) -0.2771(3)
H18 H 0.677 -0.429 -0.2608
H19 H 0.6656 -0.3099 -0.3074
C12 C -0.2528(13) 1.0412(6) 0.3828(3)
H20 H -0.3354 0.9642 0.3977
H21 H -0.3676 1.0883 0.3539
C13 C 0.7796(13) 0.4185(6) 0.0732(3)
H22 H 0.9072 0.3679 0.0986
H23 H 0.8738 0.4785 0.0479
C14 C 0.0153(13) 0.9987(7) 0.3553(3)
H24 H 0.1313 0.9532 0.3844
H25 H 0.0963 1.0757 0.3398
C15 C 0.8291(14) 0.2574(6) -0.0011(3)
H26 H 0.975 0.2088 0.0201
H27 H 0.9042 0.3198 -0.0287
C16 C 0.6909(13) 0.1643(6) -0.0323(3)
H28 H 0.6183 0.1012 -0.0046
H29 H 0.543 0.2128 -0.0528
C17 C -0.2328(14) 1.1278(7) 0.4311(3)
H30 H -0.1242 1.0794 0.4608
H31 H -0.1436 1.203 0.4166
C18 C 0.2109(14) -0.6194(7) -0.4232(3)
H32 H 0.3134 -0.5742 -0.4528
H33 H 0.3217 -0.6966 -0.408
C19 C 0.6464(13) 0.3300(6) 0.0394(3)
H34 H 0.5053 0.3814 0.0177
H35 H 0.5643 0.2671 0.0656
C20 C 0.4949(14) 0.7282(7) 0.2067(3)
H36 H 0.5635 0.8036 0.186
H37 H 0.6243 0.6909 0.2348
C21 C 0.2318(13) 0.7701(6) 0.2364(3)
H38 H 0.1075 0.8123 0.2081
H39 H 0.1575 0.6933 0.2542
C22 C -0.0341(14) -0.6605(7) -0.4490(3)
H40 H 0.0196 -0.716 -0.4785
H41 H -0.1428 -0.5846 -0.4647
H42 H -0.1343 -0.7071 -0.42
C23 C -0.4983(14) 1.1740(7) 0.4565(3)
H43 H -0.4731 1.2284 0.4861
H44 H -0.5855 1.1001 0.4721
H45 H -0.6064 1.223 0.4274
N2 N 0.6483(10) -0.1258(5) -0.1630(2)
H46 H 0.4818 -0.108 -0.1548
loop_
_geom_bond_atom_site_label_1
_geom_bond_atom_site_label_2
_geom_bond_site_symmetry_1
_geom_bond_site_symmetry_2
O1 C9 1_555 1_555
O2 C3 1_555 1_555
O3 C1 1_555 1_555
O4 C1 1_555 1_555
N1 H1 1_555 1_555
C1 N1 1_555 1_555
C2 H2 1_555 1_555
H3 C2 1_555 1_555
C3 H4 1_555 1_555
H5 C3 1_555 1_555
C4 H6 1_555 1_555
H7 C4 1_555 1_555
C5 H8 1_555 1_555
H9 C5 1_555 1_555
C6 C5 1_555 1_555
H10 C6 1_555 1_555
H11 C6 1_555 1_555
C7 C2 1_555 1_555
H12 C7 1_555 1_555
H13 C7 1_555 1_555
C8 H14 1_555 1_555
H15 C8 1_555 1_555
C9 O2 1_555 1_555
C10 C8 1_555 1_555
H16 C10 1_555 1_555
H17 C10 1_555 1_555
C11 C4 1_555 1_555
H18 C11 1_555 1_555
H19 C11 1_555 1_555
C12 H20 1_555 1_555
H21 C12 1_555 1_555
C13 O4 1_555 1_555
H22 C13 1_555 1_555
H23 C13 1_555 1_555
C14 C5 1_555 1_555
H24 C14 1_555 1_555
H25 C14 1_555 1_555
C15 H26 1_555 1_555
H27 C15 1_555 1_555
C16 C3 1_555 1_555
H28 C16 1_555 1_555
H29 C16 1_555 1_555
C17 C12 1_555 1_555
H30 C17 1_555 1_555
H31 C17 1_555 1_555
C18 C2 1_555 1_555
H32 C18 1_555 1_555
H33 C18 1_555 1_555
C19 C13 1_555 1_555
H34 C19 1_555 1_555
H35 C19 1_555 1_555
C20 N1 1_555 1_555
H36 C20 1_555 1_555
H37 C20 1_555 1_555
C21 C6 1_555 1_555
H38 C21 1_555 1_555
H39 C21 1_555 1_555
C22 C18 1_555 1_555
H40 C22 1_555 1_555
H41 C22 1_555 1_555
H42 C22 1_555 1_555
C23 C17 1_555 1_555
H43 C23 1_555 1_555
H44 C23 1_555 1_555
H45 C23 1_555 1_555
N2 C8 1_555 1_555
H46 N2 1_555 1_555
C4 C7 1_555 1_555
C9 N2 1_555 1_555
C10 C11 1_555 1_555
C12 C14 1_555 1_555
C15 C16 1_555 1_555
C15 C19 1_555 1_555
C20 C21 1_555 1_555

#END
