
#######################################################################
#
#                 Cambridge Crystallographic Data Centre
#                                CCDC 
#
#######################################################################
#
# If this CIF has been generated from an entry in the Cambridge 
# Structural Database, then it will include bibliographic, chemical, 
# crystal, experimental, refinement or atomic coordinate data resulting 
# from the CCDC's data processing and validation procedures.
#
#######################################################################

data_PALKUL
_chemical_formula_moiety         'C15 H20 N2 O2'
_chemical_name_systematic        
"ethyl 3,4-diethyl-1H,1'H-2,2'-bipyrrole-5-carboxylate"
_symmetry_cell_setting           monoclinic
_symmetry_space_group_name_H-M   'P 21/n'
_symmetry_Int_Tables_number      14
_space_group_name_Hall           '-P 2yn'
loop_
_symmetry_equiv_pos_site_id
_symmetry_equiv_pos_as_xyz
1 x,y,z
2 1/2-x,1/2+y,1/2-z
3 -x,-y,-z
4 1/2+x,1/2-y,1/2+z
_cell_length_a                   4.8258(4)
_cell_length_b                   21.769(2)
_cell_length_c                   13.5995(14)
_cell_angle_alpha                90
_cell_angle_beta                 94.422(9)
_cell_angle_gamma                90
_cell_volume                     1424.41
_exptl_crystal_colour            green
_exptl_crystal_description       block
_cell_formula_units_Z            4
loop_
_atom_site_label
_atom_site_type_symbol
_atom_site_fract_x
_atom_site_fract_y
_atom_site_fract_z
O1 O 1.1037(2) 0.14209(5) 0.89564(8)
N1 N 1.1535(3) -0.02189(6) 0.88100(9)
O2 O 1.3951(2) 0.07868(5) 0.98358(8)
C1 C 1.0010(3) -0.06057(8) 0.81978(10)
C2 C 1.0707(3) 0.03779(7) 0.86296(11)
C3 C 1.2061(3) 0.08632(7) 0.91955(11)
N2 N 1.2545(3) -0.15377(7) 0.87848(11)
C4 C 0.8154(3) -0.02473(8) 0.76044(11)
C5 C 0.8592(3) 0.03699(8) 0.78726(11)
C6 C 1.0438(3) -0.12624(8) 0.82155(11)
C7 C 0.7113(4) 0.09102(9) 0.73970(13)
H1 H 0.6911 0.1225 0.7891
H2 H 0.5265 0.0785 0.7144
C8 C 1.2291(4) 0.19379(7) 0.94796(13)
H3 H 1.4245 0.1965 0.9363
H4 H 1.2138 0.1891 1.0183
C9 C 1.0304(4) -0.22854(9) 0.79979(13)
H5 H 0.9760 -0.2674 0.7774
C10 C 0.6102(4) -0.04774(9) 0.67987(13)
H6 H 0.4677 -0.0168 0.6664
H7 H 0.5205 -0.0844 0.7028
C11 C 1.2460(4) -0.21564(8) 0.86472(14)
H8 H 1.3684 -0.2441 0.8951
C12 C 0.9027(4) -0.17306(9) 0.77196(13)
H9 H 0.7481 -0.1685 0.7273
C13 C 1.0793(4) 0.25069(9) 0.91122(14)
H10 H 1.0931 0.2546 0.8414
H11 H 1.1618 0.2860 0.9442
H12 H 0.8872 0.2480 0.9245
C14 C 0.8623(5) 0.11793(11) 0.65615(15)
H13 H 1.0377 0.1344 0.6818
H14 H 0.7519 0.1501 0.6247
H15 H 0.8932 0.0864 0.6089
C15 C 0.7411(5) -0.06269(11) 0.58478(14)
H16 H 0.8219 -0.0262 0.5596
H17 H 0.6013 -0.0782 0.5371
H18 H 0.8831 -0.0932 0.5975
H19 H 1.291(4) -0.0327(8) 0.9252(13)
H20 H 1.376(4) -0.1329(10) 0.9172(15)
loop_
_geom_bond_atom_site_label_1
_geom_bond_atom_site_label_2
_geom_bond_site_symmetry_1
_geom_bond_site_symmetry_2
O1 C3 1_555 1_555
N1 C1 1_555 1_555
O2 C3 1_555 1_555
C1 C4 1_555 1_555
C2 N1 1_555 1_555
C3 C2 1_555 1_555
N2 C6 1_555 1_555
C4 C5 1_555 1_555
C5 C2 1_555 1_555
C6 C1 1_555 1_555
C7 C5 1_555 1_555
H1 C7 1_555 1_555
H2 C7 1_555 1_555
C8 O1 1_555 1_555
H3 C8 1_555 1_555
H4 C8 1_555 1_555
C9 H5 1_555 1_555
C10 C4 1_555 1_555
H6 C10 1_555 1_555
H7 C10 1_555 1_555
C11 N2 1_555 1_555
H8 C11 1_555 1_555
C12 C6 1_555 1_555
H9 C12 1_555 1_555
C13 C8 1_555 1_555
H10 C13 1_555 1_555
H11 C13 1_555 1_555
H12 C13 1_555 1_555
C14 C7 1_555 1_555
H13 C14 1_555 1_555
H14 C14 1_555 1_555
H15 C14 1_555 1_555
C15 C10 1_555 1_555
H16 C15 1_555 1_555
H17 C15 1_555 1_555
H18 C15 1_555 1_555
H19 N1 1_555 1_555
H20 N2 1_555 1_555
C9 C11 1_555 1_555
C9 C12 1_555 1_555

#END
