
#######################################################################
#
#                 Cambridge Crystallographic Data Centre
#                                CCDC 
#
#######################################################################
#
# If this CIF has been generated from an entry in the Cambridge 
# Structural Database, then it will include bibliographic, chemical, 
# crystal, experimental, refinement or atomic coordinate data resulting 
# from the CCDC's data processing and validation procedures.
#
#######################################################################

data_PALLIA
_chemical_formula_moiety         'C28 H28 Br2 N4,2(C28 H28 Br2 N4)'
_chemical_name_systematic        
'bis(14,19-dibromo-3,4,9,10-tetraethyl-21,22,23,24-tetraazapentacyclo[16.2.1.1^2,5^.1^8,11^.1^12,15^]tetracosa-1(21),2,4,6,8(23),9,11,13,15,17,19-undecaene) 9,19-dibromo-3,4,13,14-tetraethyl-21,22,23,24-tetraazapentacyclo[16.2.1.1^2,5^.1^8,11^.1^12,15^]tetracosa-1(21),2,4,6,8(23),9,11,13,15,17,19-undecaene'
_symmetry_cell_setting           triclinic
_symmetry_space_group_name_H-M   'P -1'
_symmetry_Int_Tables_number      2
_space_group_name_Hall           '-P 1'
loop_
_symmetry_equiv_pos_site_id
_symmetry_equiv_pos_as_xyz
1 x,y,z
2 -x,-y,-z
_cell_length_a                   12.4515(11)
_cell_length_b                   13.7116(9)
_cell_length_c                   14.1476(10)
_cell_angle_alpha                118.347(7)
_cell_angle_beta                 112.630(9)
_cell_angle_gamma                92.877(7)
_cell_volume                     1879.75
_exptl_crystal_colour            blue
_exptl_crystal_description       block
_cell_formula_units_Z            1
loop_
_atom_site_label
_atom_site_type_symbol
_atom_site_fract_x
_atom_site_fract_y
_atom_site_fract_z
Br1 Br -0.30923(12) 0.96977(13) 0.22532(13)
N1 N 0.1387(6) 0.9728(6) 0.1023(6)
H1 H 0.0981 0.9843 0.0456
N2 N -0.0939(6) 0.9870(6) 0.0741(6)
C1 C 0.4213(9) 0.9387(8) 0.3020(8)
H2 H 0.4186 0.8981 0.3419
H3 H 0.4507 0.8967 0.2441
C2 C -0.1867(8) 0.9714(8) 0.1784(9)
C3 C -0.3005(8) 1.0063(7) 0.0115(8)
H4 H -0.3639 1.0050 0.0306
C4 C 0.1925(8) 0.9426(7) 0.2554(8)
C5 C -0.0775(8) 0.9606(8) 0.2265(9)
H5 H -0.0446 0.9508 0.2915
C6 C -0.1994(8) 0.9894(7) 0.0815(8)
C7 C 0.0971(8) 0.9602(7) 0.1737(8)
C8 C 0.2901(9) 0.9465(7) 0.2345(8)
C9 C 0.2538(8) 0.9645(7) 0.1352(8)
C10 C -0.0199(8) 0.9671(7) 0.1590(8)
C11 C -0.3257(8) 1.0252(7) -0.0839(8)
H6 H -0.4032 1.0318 -0.1180
C12 C 0.1892(9) 0.9267(8) 0.3526(8)
H7 H 0.2497 0.8887 0.3734
H8 H 0.1102 0.8762 0.3204
C13 C 0.2127(10) 1.0401(8) 0.4681(8)
H9 H 0.2919 1.0897 0.5023
H10 H 0.2085 1.0239 0.5258
H11 H 0.1524 1.0778 0.4487
C14 C 0.5020(9) 1.0563(10) 0.3914(10)
H12 H 0.5071 1.0946 0.3507
H13 H 0.5814 1.0535 0.4358
H14 H 0.4705 1.0980 0.4464
Br1A Br 0.30923(12) 1.03023(13) -0.22532(13)
N1A N -0.1387(6) 1.0272(6) -0.1023(6)
H1A H -0.0981 1.0157 -0.0456
N2A N 0.0939(6) 1.0130(6) -0.0741(6)
C1A C -0.4213(9) 1.0613(8) -0.3020(8)
H2A H -0.4186 1.1019 -0.3419
H3A H -0.4507 1.1033 -0.2441
C2A C 0.1867(8) 1.0286(8) -0.1784(9)
C3A C 0.3005(8) 0.9937(7) -0.0115(8)
H4A H 0.3639 0.9950 -0.0306
C4A C -0.1925(8) 1.0574(7) -0.2554(8)
C5A C 0.0775(8) 1.0394(8) -0.2265(9)
H5A H 0.0446 1.0492 -0.2915
C6A C 0.1994(8) 1.0106(7) -0.0815(8)
C7A C -0.0971(8) 1.0398(7) -0.1737(8)
C8A C -0.2901(9) 1.0535(7) -0.2345(8)
C9A C -0.2538(8) 1.0355(7) -0.1352(8)
C10A C 0.0199(8) 1.0329(7) -0.1590(8)
C11A C 0.3257(8) 0.9748(7) 0.0839(8)
H6A H 0.4032 0.9682 0.1180
C12A C -0.1892(9) 1.0733(8) -0.3526(8)
H7A H -0.2497 1.1113 -0.3734
H8A H -0.1102 1.1238 -0.3204
C13A C -0.2127(10) 0.9599(8) -0.4681(8)
H9A H -0.2919 0.9103 -0.5023
H10A H -0.2085 0.9761 -0.5258
H11A H -0.1524 0.9222 -0.4487
C14A C -0.5020(9) 0.9437(10) -0.3914(10)
H12A H -0.5071 0.9054 -0.3507
H13A H -0.5814 0.9465 -0.4358
H14A H -0.4705 0.9020 -0.4464
Br2 Br 0.56753(12) 0.27775(12) 0.21353(14)
Br3 Br 0.42803(12) 0.39679(13) -0.31568(14)
C15 C 1.1686(9) 0.3769(7) -0.2222(7)
H15 H 1.1625 0.4249 -0.2557
H16 H 1.2474 0.4091 -0.1515
N3 N 0.7332(7) 0.3601(6) -0.1071(7)
H17 H 0.7769 0.3506 -0.0498
N4 N 0.7804(7) 0.3221(6) 0.0722(7)
C16 C 0.5836(9) 0.3820(8) -0.2363(9)
N5 N 1.0120(7) 0.3121(6) 0.0952(7)
H18 H 0.9691 0.3243 0.0398
N6 N 0.9679(7) 0.3519(6) -0.0813(7)
C17 C 0.6751(9) 0.3849(8) -0.2636(9)
H19 H 0.6749 0.3937 -0.3250
C18 C 1.1658(9) 0.2809(7) 0.2215(9)
C19 C 0.6907(9) 0.2983(8) 0.1741(10)
C20 C 0.8032(9) 0.2906(8) 0.2214(9)
H20 H 0.8382 0.2790 0.2850
C21 C 0.8595(9) 0.3038(8) 0.1555(9)
C22 C 0.7726(9) 0.3719(8) -0.1795(9)
C23 C 1.0623(10) 0.3762(7) -0.1827(9)
C24 C 1.0746(9) 0.3534(8) -0.0892(9)
C25 C 0.9469(10) 0.3847(7) -0.2312(9)
C26 C 1.1278(9) 0.3023(7) 0.1242(8)
C27 C 0.5723(9) 0.3353(8) 0.0094(10)
H21 H 0.5084 0.3307 0.0273
C28 C 1.0747(9) 0.2810(8) 0.2504(9)
C29 C 0.9774(9) 0.2991(7) 0.1688(8)
C30 C 0.8899(9) 0.3708(8) -0.1654(9)
C31 C 1.2888(9) 0.2659(8) 0.2791(9)
H22 H 1.2817 0.2187 0.3114
H23 H 1.3132 0.2243 0.2168
C32 C 1.1983(8) 0.3126(7) 0.0702(8)
H24 H 1.2750 0.3032 0.1011
C33 C 0.6174(10) 0.3649(8) -0.1358(10)
C34 C 0.6767(9) 0.3201(8) 0.0802(10)
C35 C 1.1728(9) 0.3346(8) -0.0221(9)
H25 H 1.2362 0.3367 -0.0412
C36 C 1.1007(10) 0.3860(9) 0.4639(9)
H26 H 1.1786 0.4360 0.4951
H27 H 1.0994 0.3735 0.5248
H28 H 1.0386 0.4214 0.4424
C37 C 1.0778(9) 0.2712(9) 0.3527(9)
H29 H 1.1410 0.2363 0.3753
H30 H 1.0008 0.2201 0.3244
C38 C 0.5477(9) 0.3558(8) -0.0819(10)
H31 H 0.4711 0.3653 -0.1131
C39 C 1.3847(9) 0.3753(9) 0.3772(10)
H32 H 1.4004 0.4181 0.3441
H33 H 1.4576 0.3589 0.4152
H34 H 1.3587 0.4201 0.4363
C40 C 0.8924(9) 0.4065(8) -0.3340(9)
H35 H 0.8449 0.4603 -0.3157
H36 H 0.9577 0.4420 -0.3391
C41 C 1.1577(10) 0.2668(10) -0.3065(12)
H37 H 1.1685 0.2205 -0.2714
H38 H 1.2184 0.2682 -0.3322
H39 H 1.0785 0.2341 -0.3751
C42 C 0.8120(11) 0.2958(9) -0.4559(10)
H40 H 0.8584 0.2419 -0.4739
H41 H 0.7822 0.3131 -0.5180
H42 H 0.7448 0.2626 -0.4527
H43? H -0.0770 0.9963 0.0249
H44? H 0.9531 0.3410 -0.0319
loop_
_geom_bond_atom_site_label_1
_geom_bond_atom_site_label_2
_geom_bond_site_symmetry_1
_geom_bond_site_symmetry_2
Br1 C2 1_555 1_555
N1 H1 1_555 1_555
N2 C6 1_555 1_555
C1 H2 1_555 1_555
H3 C1 1_555 1_555
C2 C5 1_555 1_555
C3 H4 1_555 1_555
C4 C7 1_555 1_555
C5 H5 1_555 1_555
C6 C2 1_555 1_555
C7 N1 1_555 1_555
C8 C1 1_555 1_555
C9 N1 1_555 1_555
C10 N2 1_555 1_555
C11 C3 1_555 1_555
H6 C11 1_555 1_555
C12 C4 1_555 1_555
H7 C12 1_555 1_555
H8 C12 1_555 1_555
C13 C12 1_555 1_555
H9 C13 1_555 1_555
H10 C13 1_555 1_555
H11 C13 1_555 1_555
C14 C1 1_555 1_555
H12 C14 1_555 1_555
H13 C14 1_555 1_555
H14 C14 1_555 1_555
Br2 C19 1_555 1_555
Br3 C16 1_555 1_555
C15 H15 1_555 1_555
H16 C15 1_555 1_555
N3 H17 1_555 1_555
N4 C21 1_555 1_555
C16 C17 1_555 1_555
N5 H18 1_555 1_555
N6 C24 1_555 1_555
C17 H19 1_555 1_555
C18 C26 1_555 1_555
C19 C20 1_555 1_555
C20 H20 1_555 1_555
C21 C20 1_555 1_555
C22 N3 1_555 1_555
C23 C15 1_555 1_555
C24 C23 1_555 1_555
C25 C23 1_555 1_555
C26 N5 1_555 1_555
C27 H21 1_555 1_555
C28 C18 1_555 1_555
C29 N5 1_555 1_555
C30 N6 1_555 1_555
C31 C18 1_555 1_555
H22 C31 1_555 1_555
H23 C31 1_555 1_555
C32 C26 1_555 1_555
H24 C32 1_555 1_555
C33 N3 1_555 1_555
C34 N4 1_555 1_555
C35 C24 1_555 1_555
H25 C35 1_555 1_555
C36 H26 1_555 1_555
H27 C36 1_555 1_555
H28 C36 1_555 1_555
C37 C28 1_555 1_555
H29 C37 1_555 1_555
H30 C37 1_555 1_555
C38 C27 1_555 1_555
H31 C38 1_555 1_555
C39 C31 1_555 1_555
H32 C39 1_555 1_555
H33 C39 1_555 1_555
H34 C39 1_555 1_555
C40 C25 1_555 1_555
H35 C40 1_555 1_555
H36 C40 1_555 1_555
C41 C15 1_555 1_555
H37 C41 1_555 1_555
H38 C41 1_555 1_555
H39 C41 1_555 1_555
C42 C40 1_555 1_555
H40 C42 1_555 1_555
H41 C42 1_555 1_555
H42 C42 1_555 1_555
Br1A C2A 1_555 1_555
N1A H1A 1_555 1_555
N2A C6A 1_555 1_555
C1A H2A 1_555 1_555
H3A C1A 1_555 1_555
C2A C5A 1_555 1_555
C3A H4A 1_555 1_555
C4A C7A 1_555 1_555
C5A H5A 1_555 1_555
C6A C2A 1_555 1_555
C7A N1A 1_555 1_555
C8A C1A 1_555 1_555
C9A C11 1_555 1_555
C10A N2A 1_555 1_555
C11A C9 1_555 1_555
H6A C11A 1_555 1_555
C12A C4A 1_555 1_555
H7A C12A 1_555 1_555
H8A C12A 1_555 1_555
C13A C12A 1_555 1_555
H9A C13A 1_555 1_555
H10A C13A 1_555 1_555
H11A C13A 1_555 1_555
C14A C1A 1_555 1_555
H12A C14A 1_555 1_555
H13A C14A 1_555 1_555
H14A C14A 1_555 1_555
C3 C6 1_555 1_555
C4 C8 1_555 1_555
C5 C10 1_555 1_555
C7 C10 1_555 1_555
C8 C9 1_555 1_555
C16 C33 1_555 1_555
C17 C22 1_555 1_555
C19 C34 1_555 1_555
C21 C29 1_555 1_555
C22 C30 1_555 1_555
C25 C30 1_555 1_555
C27 C34 1_555 1_555
C28 C29 1_555 1_555
C32 C35 1_555 1_555
C33 C38 1_555 1_555
C36 C37 1_555 1_555
N1A C9A 1_555 1_555
C3A C6A 1_555 1_555
C3A C11A 1_555 1_555
C4A C8A 1_555 1_555
C5A C10A 1_555 1_555
C7A C10A 1_555 1_555
C8A C9A 1_555 1_555

#END
