
#######################################################################
#
#                 Cambridge Crystallographic Data Centre
#                                CCDC 
#
#######################################################################
#
# If this CIF has been generated from an entry in the Cambridge 
# Structural Database, then it will include bibliographic, chemical, 
# crystal, experimental, refinement or atomic coordinate data resulting 
# from the CCDC's data processing and validation procedures.
#
#######################################################################

data_PALMOG
_chemical_formula_moiety         'C19 H22 N2 O2'
_chemical_name_systematic        
'2-(((2-Ammoniocyclohexyl)imino)(2-hydroxyphenyl)methyl)phenolate unknown solvate'
_symmetry_cell_setting           orthorhombic
_symmetry_space_group_name_H-M   'P n a 21'
_symmetry_Int_Tables_number      33
_space_group_name_Hall           'P 2c -2n'
loop_
_symmetry_equiv_pos_site_id
_symmetry_equiv_pos_as_xyz
1 x,y,z
2 -x,-y,1/2+z
3 1/2+x,1/2-y,z
4 1/2-x,1/2+y,1/2+z
_cell_length_a                   16.1561(4)
_cell_length_b                   8.8031(1)
_cell_length_c                   26.0539(7)
_cell_angle_alpha                90
_cell_angle_beta                 90
_cell_angle_gamma                90
_cell_volume                     3705.48
_exptl_crystal_colour            colorless
_exptl_crystal_description       plate
_cell_formula_units_Z            8
loop_
_atom_site_label
_atom_site_type_symbol
_atom_site_fract_x
_atom_site_fract_y
_atom_site_fract_z
O1 O 0.25124(16) 0.2221(3) 0.35026(12)
O2 O 0.44337(14) -0.0222(3) 0.48134(12)
H1 H 0.4461 0.0593 0.4646
N1 N 0.39332(19) 0.2235(3) 0.43951(15)
N2 N 0.4339(2) 0.2290(3) 0.33236(17)
H2 H 0.4353 0.1328 0.3452
H3 H 0.4621 0.2321 0.3021
H4 H 0.3804 0.2572 0.3270
C1 C 0.4159(2) 0.3656(4) 0.41457(15)
H5 H 0.3647 0.4175 0.4021
C2 C 0.4724(2) 0.3331(4) 0.36897(15)
H6 H 0.5232 0.2823 0.3826
C3 C 0.4995(3) 0.4787(4) 0.34307(16)
H7 H 0.4505 0.5306 0.3284
H8 H 0.5378 0.4545 0.3146
C4 C 0.5424(3) 0.5843(4) 0.38100(17)
H9 H 0.5948 0.5371 0.3925
H10 H 0.5561 0.6811 0.3636
C5 C 0.4888(3) 0.6166(4) 0.42693(15)
H11 H 0.4397 0.6757 0.4160
H12 H 0.5202 0.6789 0.4519
C6 C 0.4602(2) 0.4686(4) 0.45308(16)
H13 H 0.5087 0.4148 0.4675
H14 H 0.4222 0.4932 0.4817
C7 C 0.3168(2) 0.1916(3) 0.44958(13)
C8 C 0.2458(2) 0.2977(4) 0.43751(14)
C9 C 0.2169(2) 0.3089(4) 0.38642(14)
C10 C 0.1513(2) 0.4090(4) 0.37732(15)
H15 H 0.1315 0.4215 0.3433
C11 C 0.1144(2) 0.4904(4) 0.41690(17)
H16 H 0.0697 0.5571 0.4098
C12 C 0.1429(2) 0.4743(4) 0.46652(17)
H17 H 0.1174 0.5285 0.4938
C13 C 0.2087(2) 0.3785(4) 0.47593(16)
H18 H 0.2288 0.3685 0.5100
C14 C 0.2989(2) 0.0453(4) 0.47546(14)
C15 C 0.3627(2) -0.0545(4) 0.48973(15)
C16 C 0.3433(2) -0.1915(4) 0.51245(14)
H19 H 0.3868 -0.2588 0.5217
C17 C 0.2614(3) -0.2339(4) 0.52219(19)
H20 H 0.2492 -0.3284 0.5381
C18 C 0.1989(2) -0.1361(4) 0.50828(15)
H21 H 0.1428 -0.1635 0.5143
C19 C 0.2168(2) 0.0005(4) 0.48579(16)
H22 H 0.1727 0.0670 0.4769
O3 O 0.49366(19) 0.7557(3) 0.74362(13)
O4 O 0.30575(15) 0.4828(3) 0.60973(12)
H23 H 0.3108 0.5616 0.6276
N3 N 0.3550(2) 0.7285(3) 0.65181(15)
N4 N 0.3175(2) 0.7283(4) 0.75854(18)
H24 H 0.2991 0.7463 0.7910
H25 H 0.3731 0.7450 0.7570
H26 H 0.3067 0.6301 0.7499
C20 C 0.3299(2) 0.8698(4) 0.67562(14)
H27 H 0.3801 0.9256 0.6878
C21 C 0.2740(2) 0.8332(4) 0.72162(15)
H28 H 0.2233 0.7805 0.7086
C22 C 0.2472(2) 0.9798(4) 0.74834(16)
H29 H 0.2120 0.9550 0.7783
H30 H 0.2966 1.0350 0.7609
C23 C 0.1992(2) 1.0799(5) 0.71121(17)
H31 H 0.1840 1.1761 0.7285
H32 H 0.1475 1.0278 0.7010
C24 C 0.2512(3) 1.1156(4) 0.66267(17)
H33 H 0.2169 1.1729 0.6378
H34 H 0.2991 1.1798 0.6722
C25 C 0.2816(3) 0.9704(4) 0.63799(16)
H35 H 0.3177 0.9962 0.6086
H36 H 0.2336 0.9128 0.6246
C26 C 0.4312(2) 0.6998(4) 0.64142(13)
C27 C 0.5028(2) 0.8019(4) 0.65282(14)
C28 C 0.5315(2) 0.8260(4) 0.70304(14)
C29 C 0.5978(2) 0.9250(4) 0.71080(15)
H37 H 0.6169 0.9432 0.7447
C30 C 0.6358(2) 0.9963(4) 0.67045(16)
H38 H 0.6814 1.0620 0.6766
C31 C 0.6082(2) 0.9735(4) 0.62087(16)
H39 H 0.6350 1.0226 0.5930
C32 C 0.5413(2) 0.8786(4) 0.61211(15)
H40 H 0.5213 0.8653 0.5781
C33 C 0.4500(2) 0.5507(4) 0.61642(14)
C34 C 0.3868(2) 0.4498(4) 0.60202(14)
C35 C 0.4059(2) 0.3088(4) 0.57872(15)
H41 H 0.3626 0.2413 0.5693
C36 C 0.4848(3) 0.2706(4) 0.5700(2)
H42 H 0.4972 0.1753 0.5547
C37 C 0.5502(2) 0.3710(4) 0.58328(17)
H43 H 0.6060 0.3436 0.5766
C38 C 0.5321(2) 0.5074(4) 0.60585(15)
H44 H 0.5760 0.5745 0.6146
loop_
_geom_bond_atom_site_label_1
_geom_bond_atom_site_label_2
_geom_bond_site_symmetry_1
_geom_bond_site_symmetry_2
O1 C9 1_555 1_555
O2 H1 1_555 1_555
N1 C1 1_555 1_555
N2 H2 1_555 1_555
H3 N2 1_555 1_555
H4 N2 1_555 1_555
C1 H5 1_555 1_555
C2 N2 1_555 1_555
H6 C2 1_555 1_555
C3 C2 1_555 1_555
H7 C3 1_555 1_555
H8 C3 1_555 1_555
C4 C3 1_555 1_555
H9 C4 1_555 1_555
H10 C4 1_555 1_555
C5 C4 1_555 1_555
H11 C5 1_555 1_555
H12 C5 1_555 1_555
C6 C1 1_555 1_555
H13 C6 1_555 1_555
H14 C6 1_555 1_555
C7 N1 1_555 1_555
C8 C7 1_555 1_555
C9 C8 1_555 1_555
C10 C9 1_555 1_555
H15 C10 1_555 1_555
C11 C10 1_555 1_555
H16 C11 1_555 1_555
C12 C11 1_555 1_555
H17 C12 1_555 1_555
C13 C8 1_555 1_555
H18 C13 1_555 1_555
C14 C7 1_555 1_555
C15 O2 1_555 1_555
C16 C15 1_555 1_555
H19 C16 1_555 1_555
C17 C16 1_555 1_555
H20 C17 1_555 1_555
C18 C17 1_555 1_555
H21 C18 1_555 1_555
C19 C14 1_555 1_555
H22 C19 1_555 1_555
O3 C28 1_555 1_555
O4 H23 1_555 1_555
N3 C20 1_555 1_555
N4 H24 1_555 1_555
H25 N4 1_555 1_555
H26 N4 1_555 1_555
C20 H27 1_555 1_555
C21 N4 1_555 1_555
H28 C21 1_555 1_555
C22 C21 1_555 1_555
H29 C22 1_555 1_555
H30 C22 1_555 1_555
C23 C22 1_555 1_555
H31 C23 1_555 1_555
H32 C23 1_555 1_555
C24 C23 1_555 1_555
H33 C24 1_555 1_555
H34 C24 1_555 1_555
C25 C20 1_555 1_555
H35 C25 1_555 1_555
H36 C25 1_555 1_555
C26 N3 1_555 1_555
C27 C26 1_555 1_555
C28 C27 1_555 1_555
C29 C28 1_555 1_555
H37 C29 1_555 1_555
C30 C29 1_555 1_555
H38 C30 1_555 1_555
C31 C30 1_555 1_555
H39 C31 1_555 1_555
C32 C27 1_555 1_555
H40 C32 1_555 1_555
C33 C26 1_555 1_555
C34 O4 1_555 1_555
C35 C34 1_555 1_555
H41 C35 1_555 1_555
C36 C35 1_555 1_555
H42 C36 1_555 1_555
C37 C36 1_555 1_555
H43 C37 1_555 1_555
C38 C33 1_555 1_555
H44 C38 1_555 1_555
C1 C2 1_555 1_555
C5 C6 1_555 1_555
C12 C13 1_555 1_555
C14 C15 1_555 1_555
C18 C19 1_555 1_555
C20 C21 1_555 1_555
C24 C25 1_555 1_555
C31 C32 1_555 1_555
C33 C34 1_555 1_555
C37 C38 1_555 1_555

#END
