
#######################################################################
#
#                 Cambridge Crystallographic Data Centre
#                                CCDC 
#
#######################################################################
#
# If this CIF has been generated from an entry in the Cambridge 
# Structural Database, then it will include bibliographic, chemical, 
# crystal, experimental, refinement or atomic coordinate data resulting 
# from the CCDC's data processing and validation procedures.
#
#######################################################################

data_PALMUM
_chemical_formula_moiety         'C21 H27 Cl1 N1 O3 1+,Cl1 1-'
_chemical_name_systematic        
'N-(4-t-Butoxy-1-(4-chlorophenyl)-4-oxobutyl)-4-methoxyanilinium chloride'
_symmetry_cell_setting           monoclinic
_symmetry_space_group_name_H-M   'P 21'
_symmetry_Int_Tables_number      4
_space_group_name_Hall           'P 2yb'
loop_
_symmetry_equiv_pos_site_id
_symmetry_equiv_pos_as_xyz
1 x,y,z
2 -x,1/2+y,-z
_cell_length_a                   12.8667(4)
_cell_length_b                   7.3876(2)
_cell_length_c                   13.3443(5)
_cell_angle_alpha                90
_cell_angle_beta                 108.072(4)
_cell_angle_gamma                90
_cell_volume                     1205.85
_exptl_crystal_colour            colorless
_exptl_crystal_description       block
_cell_formula_units_Z            2
loop_
_atom_site_label
_atom_site_type_symbol
_atom_site_fract_x
_atom_site_fract_y
_atom_site_fract_z
Cl1 Cl 0.10149(9) 0.33504(13) 0.95718(10)
Cl2 Cl 0.56065(16) 0.9275(4) 0.8430(2)
N1 N 0.1221(3) 0.9260(5) 1.0167(3)
H1 H 0.1267 1.0437 1.0010
H2 H 0.0556 0.9084 1.0239
C1 C 0.2399(3) 0.8410(7) 0.9059(3)
C2 C 0.0318(4) 0.8542(7) 0.8301(3)
H3 H 0.0384 0.9758 0.8053
H4 H -0.0337 0.8498 0.8515
C3 C 0.1300(4) 0.8133(6) 0.9239(3)
H5 H 0.1254 0.6857 0.9421
C4 C -0.0781(5) 0.7569(10) 0.6463(5)
C5 C 0.2736(4) 1.0146(6) 0.8866(4)
H6 H 0.2294 1.1140 0.8871
C6 C 0.3720(5) 1.0388(8) 0.8668(4)
H7 H 0.3936 1.1536 0.8526
O1 O -0.0769(5) 0.6680(10) 0.5672(4)
C7 C 0.0206(5) 0.7213(8) 0.7409(4)
H8 H 0.0859 0.7271 0.7193
H9 H 0.0155 0.5997 0.7665
O2 O 0.4396(5) 0.7896(8) 1.4007(4)
C8 C 0.3065(5) 0.6981(8) 0.9054(5)
H10 H 0.2854 0.5825 0.9187
C9 C 0.2892(6) 1.0071(8) 1.1573(4)
H11 H 0.2947 1.1119 1.1207
C10 C 0.1975(5) 0.7338(7) 1.1711(4)
H12 H 0.1411 0.6519 1.1428
C11 C 0.2037(4) 0.8893(6) 1.1171(3)
C12 C 0.4374(4) 0.8920(8) 0.8683(5)
C13 C 0.3579(6) 0.8161(11) 1.3077(4)
C14 C 0.2738(5) 0.6985(9) 1.2662(5)
H13 H 0.2684 0.5936 1.3028
C15 C 0.4060(6) 0.7219(10) 0.8852(7)
H14 H 0.4500 0.6228 0.8834
C16 C 0.3672(6) 0.9680(11) 1.2528(5)
H15 H 0.4262 1.0457 1.2796
C17 C 0.4292(9) 0.6396(15) 1.4611(7)
H16 H 0.4483 0.5316 1.4308
H17 H 0.3551 0.6307 1.4620
H18 H 0.4773 0.6536 1.5318
C18 C -0.1648(9) 0.6712(16) 0.4634(7)
O3 O -0.1487(5) 0.8638(10) 0.6480(5)
C19 C -0.2748(11) 0.618(2) 0.4830(11)
H19 H -0.3288 0.5903 0.4168
H20 H -0.2998 0.7165 0.5161
H21 H -0.2632 0.5131 0.5279
C20 C -0.1424(14) 0.495(2) 0.4098(12)
H22 H -0.0678 0.4938 0.4097
H23 H -0.1903 0.4895 0.3386
H24 H -0.1552 0.3914 0.4481
C21 C -0.1827(12) 0.877(2) 0.4312(10)
H25 H -0.1314 0.9127 0.3958
H26 H -0.1718 0.9497 0.4933
H27 H -0.2558 0.8942 0.3849
loop_
_geom_bond_atom_site_label_1
_geom_bond_atom_site_label_2
_geom_bond_site_symmetry_1
_geom_bond_site_symmetry_2
Cl2 C12 1_555 1_555
N1 H1 1_555 1_555
H2 N1 1_555 1_555
C1 C3 1_555 1_555
C2 H3 1_555 1_555
H4 C2 1_555 1_555
C3 N1 1_555 1_555
H5 C3 1_555 1_555
C4 O1 1_555 1_555
C5 C1 1_555 1_555
H6 C5 1_555 1_555
C6 C5 1_555 1_555
H7 C6 1_555 1_555
O1 C18 1_555 1_555
C7 C2 1_555 1_555
H8 C7 1_555 1_555
H9 C7 1_555 1_555
O2 C13 1_555 1_555
C8 C1 1_555 1_555
H10 C8 1_555 1_555
C9 H11 1_555 1_555
C10 H12 1_555 1_555
C11 N1 1_555 1_555
C12 C6 1_555 1_555
C13 C14 1_555 1_555
C14 C10 1_555 1_555
H13 C14 1_555 1_555
C15 C8 1_555 1_555
H14 C15 1_555 1_555
C16 C9 1_555 1_555
H15 C16 1_555 1_555
C17 O2 1_555 1_555
H16 C17 1_555 1_555
H17 C17 1_555 1_555
H18 C17 1_555 1_555
C18 C19 1_555 1_555
O3 C4 1_555 1_555
C19 H19 1_555 1_555
H20 C19 1_555 1_555
H21 C19 1_555 1_555
C20 C18 1_555 1_555
H22 C20 1_555 1_555
H23 C20 1_555 1_555
H24 C20 1_555 1_555
C21 C18 1_555 1_555
H25 C21 1_555 1_555
H26 C21 1_555 1_555
H27 C21 1_555 1_555
C2 C3 1_555 1_555
C4 C7 1_555 1_555
C9 C11 1_555 1_555
C10 C11 1_555 1_555
C12 C15 1_555 1_555
C13 C16 1_555 1_555

#END
