
#######################################################################
#
#                 Cambridge Crystallographic Data Centre
#                                CCDC 
#
#######################################################################
#
# If this CIF has been generated from an entry in the Cambridge 
# Structural Database, then it will include bibliographic, chemical, 
# crystal, experimental, refinement or atomic coordinate data resulting 
# from the CCDC's data processing and validation procedures.
#
#######################################################################

data_PALVIK
_chemical_formula_moiety         'C33 H27 N1 O5 S1'
_chemical_name_systematic        
3a'-methyl-5'-((4-methylphenyl)sulfonyl)-1'-phenyl-3',3a'-dihydrospiro[1,4-benzodioxine-2,2'-cyclopenta[c]quinolin]-4'(5'H)-one
_symmetry_cell_setting           monoclinic
_symmetry_space_group_name_H-M   'P 21/n'
_symmetry_Int_Tables_number      14
_space_group_name_Hall           '-P 2yn'
loop_
_symmetry_equiv_pos_site_id
_symmetry_equiv_pos_as_xyz
1 x,y,z
2 1/2-x,1/2+y,1/2-z
3 -x,-y,-z
4 1/2+x,1/2-y,1/2+z
_cell_length_a                   8.3676(8)
_cell_length_b                   17.9504(16)
_cell_length_c                   18.8093(18)
_cell_angle_alpha                90
_cell_angle_beta                 97.692(2)
_cell_angle_gamma                90
_cell_volume                     2799.77
_exptl_crystal_colour            white
_exptl_crystal_description       block
_cell_formula_units_Z            4
loop_
_atom_site_label
_atom_site_type_symbol
_atom_site_fract_x
_atom_site_fract_y
_atom_site_fract_z
N1 N 0.2576(3) 0.58551(14) 0.22138(13)
O1 O 0.6592(3) 0.75308(12) 0.24939(11)
O2 O 0.6234(3) 0.90695(12) 0.27971(14)
O3 O 0.2301(3) 0.68459(13) 0.14392(12)
O4 O 0.3153(3) 0.45567(13) 0.18358(12)
O5 O 0.1164(3) 0.53021(15) 0.10400(12)
S1 S 0.26580(12) 0.52541(6) 0.15081(5)
C1 C 0.2548(4) 0.6631(2) 0.20541(19)
C2 C 0.2864(4) 0.71348(17) 0.27043(16)
C3 C 0.4014(4) 0.67597(17) 0.32893(15)
C4 C 0.3485(3) 0.60203(17) 0.35020(16)
C5 C 0.2679(4) 0.55849(19) 0.29469(16)
C6 C 0.1936(4) 0.49224(18) 0.31006(18)
H1 H 0.1333 0.4651 0.2738
C7 C 0.2110(4) 0.46743(19) 0.38027(19)
H2 H 0.1640 0.4225 0.3906
C8 C 0.2959(4) 0.50750(19) 0.43520(18)
H3 H 0.3089 0.4891 0.4818
C9 C 0.3620(4) 0.57562(18) 0.42028(16)
H4 H 0.4158 0.6039 0.4574
C10 C 0.3760(4) 0.78591(18) 0.25551(17)
H5 H 0.3213 0.8289 0.2721
H6 H 0.3807 0.7914 0.2045
C11 C 0.5478(4) 0.77871(18) 0.29708(16)
C12 C 0.6115(4) 0.84974(18) 0.33246(17)
H7 H 0.5402 0.8663 0.3659
H8 H 0.7171 0.8408 0.3593
C13 C 0.5382(4) 0.71299(17) 0.34759(15)
C14 C 0.6793(4) 0.69050(17) 0.39917(16)
C15 C 0.7161(4) 0.7229(2) 0.46642(18)
H9 H 0.6469 0.7585 0.4813
C16 C 0.8537(5) 0.7033(2) 0.51170(19)
H10 H 0.8776 0.7268 0.5559
C17 C 0.9546(4) 0.6498(2) 0.4920(2)
H11 H 1.0467 0.6362 0.5226
C18 C 0.9180(5) 0.6161(2) 0.4264(2)
H12 H 0.9854 0.5791 0.4127
C19 C 0.7825(4) 0.6365(2) 0.38028(18)
H13 H 0.7606 0.6133 0.3358
C20 C 0.7201(4) 0.8086(2) 0.20977(19)
C21 C 0.7039(4) 0.8827(2) 0.2247(2)
C22 C 0.7690(5) 0.9358(3) 0.1836(2)
H14 H 0.7557 0.9862 0.1926
C23 C 0.8538(6) 0.9136(4) 0.1291(3)
H15 H 0.8975 0.9492 0.1015
C24 C 0.8740(6) 0.8395(4) 0.1156(2)
H16 H 0.9345 0.8249 0.0799
C25 C 0.8046(5) 0.7865(3) 0.1547(2)
H17 H 0.8145 0.7361 0.1443
C26 C 0.4242(4) 0.55903(18) 0.10783(17)
C27 C 0.5815(5) 0.5486(2) 0.13942(19)
H18 H 0.6027 0.5257 0.1840
C28 C 0.7078(5) 0.5726(2) 0.1041(2)
H19 H 0.8136 0.5664 0.1257
C29 C 0.6780(6) 0.6057(2) 0.0370(2)
C30 C 0.5228(6) 0.6133(2) 0.0060(2)
H20 H 0.5019 0.6342 -0.0396
C31 C 0.3947(5) 0.5908(2) 0.04050(19)
H21 H 0.2893 0.5970 0.0184
C32 C 0.8187(5) 0.6339(2) 0.0010(2)
H22 H 0.8828 0.5924 -0.0106
H23 H 0.8837 0.6668 0.0330
H24 H 0.7782 0.6601 -0.0421
C33 C 0.1219(4) 0.73164(19) 0.29534(17)
H25 H 0.0572 0.7598 0.2588
H26 H 0.1390 0.7603 0.3388
H27 H 0.0674 0.6861 0.3039
loop_
_geom_bond_atom_site_label_1
_geom_bond_atom_site_label_2
_geom_bond_site_symmetry_1
_geom_bond_site_symmetry_2
N1 S1 1_555 1_555
O1 C11 1_555 1_555
O2 C12 1_555 1_555
O3 C1 1_555 1_555
O4 S1 1_555 1_555
O5 S1 1_555 1_555
S1 C26 1_555 1_555
C1 N1 1_555 1_555
C2 C1 1_555 1_555
C3 C2 1_555 1_555
C4 C3 1_555 1_555
C5 N1 1_555 1_555
C6 C5 1_555 1_555
H1 C6 1_555 1_555
C7 C6 1_555 1_555
H2 C7 1_555 1_555
C8 C7 1_555 1_555
H3 C8 1_555 1_555
C9 C4 1_555 1_555
H4 C9 1_555 1_555
C10 C2 1_555 1_555
H5 C10 1_555 1_555
H6 C10 1_555 1_555
C11 C10 1_555 1_555
C12 C11 1_555 1_555
H7 C12 1_555 1_555
H8 C12 1_555 1_555
C13 C3 1_555 1_555
C14 C13 1_555 1_555
C15 C14 1_555 1_555
H9 C15 1_555 1_555
C16 C15 1_555 1_555
H10 C16 1_555 1_555
C17 C16 1_555 1_555
H11 C17 1_555 1_555
C18 C17 1_555 1_555
H12 C18 1_555 1_555
C19 C14 1_555 1_555
H13 C19 1_555 1_555
C20 O1 1_555 1_555
C21 O2 1_555 1_555
C22 C21 1_555 1_555
H14 C22 1_555 1_555
C23 C22 1_555 1_555
H15 C23 1_555 1_555
C24 C23 1_555 1_555
H16 C24 1_555 1_555
C25 C20 1_555 1_555
H17 C25 1_555 1_555
C26 C27 1_555 1_555
C27 H18 1_555 1_555
C28 C27 1_555 1_555
H19 C28 1_555 1_555
C29 C28 1_555 1_555
C30 C29 1_555 1_555
H20 C30 1_555 1_555
C31 C26 1_555 1_555
H21 C31 1_555 1_555
C32 C29 1_555 1_555
H22 C32 1_555 1_555
H23 C32 1_555 1_555
H24 C32 1_555 1_555
C33 C2 1_555 1_555
H25 C33 1_555 1_555
H26 C33 1_555 1_555
H27 C33 1_555 1_555
C4 C5 1_555 1_555
C8 C9 1_555 1_555
C11 C13 1_555 1_555
C18 C19 1_555 1_555
C20 C21 1_555 1_555
C24 C25 1_555 1_555
C30 C31 1_555 1_555

#END
