
#######################################################################
#
#                 Cambridge Crystallographic Data Centre
#                                CCDC 
#
#######################################################################
#
# If this CIF has been generated from an entry in the Cambridge 
# Structural Database, then it will include bibliographic, chemical, 
# crystal, experimental, refinement or atomic coordinate data resulting 
# from the CCDC's data processing and validation procedures.
#
#######################################################################

data_PALWAA
_chemical_formula_moiety         'C36 H36,C1 H1 Cl3'
_chemical_name_systematic        
'Heptacyclo(13.13.2.2^8,22^,1^3,27^,1^6,10^,1^13,17^,1^20,24^)hexatriaconta-1,3(33),6,8,10(34),13,15,17(35),20,22,24(36),27-dodecaene chloroform solvate'
_symmetry_cell_setting           rhombohedral
_symmetry_space_group_name_H-M   'R 3'
_symmetry_Int_Tables_number      146
_space_group_name_Hall           'P 3*'
loop_
_symmetry_equiv_pos_site_id
_symmetry_equiv_pos_as_xyz
1 x,y,z
2 z,x,y
3 y,z,x
_cell_length_a                   9.324(1)
_cell_length_b                   9.324(1)
_cell_length_c                   9.324(1)
_cell_angle_alpha                100.80(1)
_cell_angle_beta                 100.80(1)
_cell_angle_gamma                100.80(1)
_cell_volume                     761.061
_exptl_crystal_colour            colorless
_chemical_melting_point          'above 350 deg.C'
_cell_formula_units_Z            1
loop_
_atom_site_label
_atom_site_type_symbol
_atom_site_fract_x
_atom_site_fract_y
_atom_site_fract_z
C1 C 0.12120 0.12120 0.12120
Cl1 Cl 0.03277(20) 0.20895(20) -0.00813(20)
H1 H 0.1964 0.1964 0.1964
Cl1A Cl -0.00813(20) 0.03277(20) 0.20895(20)
Cl1B Cl 0.20895(20) -0.00813(20) 0.03277(20)
C2 C 0.43619(26) 0.42255(25) 0.26317(25)
C3 C 0.48610(25) 0.31046(26) 0.32521(26)
C4 C 0.60540(26) 0.23912(25) 0.27061(26)
C5 C 0.74520(27) 0.35233(26) 0.26443(25)
C6 C 0.81730(25) 0.46619(26) 0.41047(25)
C7 C 0.85207(25) 0.61865(25) 0.41445(25)
C8 C 0.91692(24) 0.72497(24) 0.54800(25)
C9 C 0.94737(24) 0.67645(25) 0.68022(25)
C10 C 0.91411(24) 0.52456(25) 0.68017(25)
C11 C 0.84824(25) 0.42113(25) 0.54556(26)
C12 C 0.95352(26) 0.89076(26) 0.55102(26)
C13 C 0.94653(26) 0.47042(26) 0.82373(26)
H2 H 0.4799 0.4564 0.1866
H3 H 0.5616 0.1764 0.1721
H4 H 0.6354 0.1759 0.3353
H5 H 0.7182 0.4046 0.1877
H6 H 0.8176 0.2982 0.2365
H7 H 0.8307 0.6518 0.3229
H8 H 0.9930 0.7496 0.7726
H9 H 0.8224 0.3163 0.5447
H10 H 1.0373 0.9120 0.5060
H11 H 0.9836 0.9461 0.6537
H12 H 0.8999 0.3654 0.8017
H13 H 1.0528 0.4810 0.8553
C3A C 0.32521(26) 0.48610(25) 0.31046(26)
C2B C 0.42255(25) 0.26317(25) 0.43619(26)
C13A C 0.82373(26) 0.94653(26) 0.47042(26)
C12B C 0.89076(26) 0.55102(26) 0.95352(26)
C2A C 0.26317(25) 0.43619(26) 0.42255(25)
C4A C 0.27061(26) 0.60540(26) 0.23912(25)
C3B C 0.31046(26) 0.32521(26) 0.48610(25)
H2B H 0.4564 0.1866 0.4799
C10A C 0.68017(25) 0.91411(24) 0.52456(25)
H12A H 0.8017 0.8999 0.3654
H13A H 0.8553 1.0528 0.4810
C8B C 0.72497(24) 0.54800(25) 0.91692(24)
H10B H 0.9120 0.5060 1.0373
H11B H 0.9461 0.6537 0.9836
H2A H 0.1866 0.4799 0.4564
C5A C 0.26443(25) 0.74520(27) 0.35233(26)
H3A H 0.1721 0.5616 0.1764
H4A H 0.3353 0.6354 0.1759
C4B C 0.23912(25) 0.27061(26) 0.60540(26)
C9A C 0.68022(25) 0.94737(24) 0.67645(25)
C11A C 0.54556(26) 0.84824(25) 0.42113(25)
C7B C 0.61865(25) 0.41445(25) 0.85207(25)
C9B C 0.67645(25) 0.68022(25) 0.94737(24)
C6A C 0.41047(25) 0.81730(25) 0.46619(26)
H5A H 0.1877 0.7182 0.4046
H6A H 0.2365 0.8176 0.2982
C5B C 0.35233(26) 0.26443(25) 0.74520(27)
H3B H 0.1764 0.1721 0.5616
H4B H 0.1759 0.3353 0.6354
C8A C 0.54800(25) 0.91692(24) 0.72497(24)
H8A H 0.7726 0.9930 0.7496
H9A H 0.5447 0.8224 0.3163
C6B C 0.46619(26) 0.41047(25) 0.81730(25)
H7B H 0.6518 0.3229 0.8307
C10B C 0.52456(25) 0.68017(25) 0.91411(24)
H8B H 0.7496 0.7726 0.9930
C7A C 0.41445(25) 0.85207(25) 0.61865(25)
H5B H 0.4046 0.1877 0.7182
H6B H 0.2982 0.2365 0.8176
C12A C 0.55102(26) 0.95352(26) 0.89076(26)
C11B C 0.42113(25) 0.54556(26) 0.84824(25)
C13B C 0.47042(26) 0.82373(26) 0.94653(26)
H7A H 0.3229 0.8307 0.6518
H10A H 0.5060 1.0373 0.9120
H11A H 0.6537 0.9836 0.9461
H9B H 0.3163 0.5447 0.8224
H12B H 0.3654 0.8017 0.8999
H13B H 0.4810 0.8553 1.0528
loop_
_geom_bond_atom_site_label_1
_geom_bond_atom_site_label_2
_geom_bond_site_symmetry_1
_geom_bond_site_symmetry_2
C1 Cl1 1_555 1_555
C2 C3 1_555 1_555
C3 C4 1_555 1_555
C4 C5 1_555 1_555
C5 C6 1_555 1_555
C6 C7 1_555 1_555
C7 C8 1_555 1_555
C8 C9 1_555 1_555
C9 C10 1_555 1_555
C10 C11 1_555 1_555
C11 C6 1_555 1_555
C12 C8 1_555 1_555
C13 C10 1_555 1_555
H1 C1 1_555 1_555
H2 C2 1_555 1_555
H3 C4 1_555 1_555
H4 C4 1_555 1_555
H5 C5 1_555 1_555
H6 C5 1_555 1_555
H7 C7 1_555 1_555
H8 C9 1_555 1_555
H9 C11 1_555 1_555
H10 C12 1_555 1_555
H11 C12 1_555 1_555
H12 C13 1_555 1_555
H13 C13 1_555 1_555
Cl1A C1 1_555 1_555
Cl1B C1 1_555 1_555
C3A C2 1_555 1_555
C2B C3 1_555 1_555
C13A C12 1_555 1_555
C12B C13 1_555 1_555
C2A C3A 1_555 1_555
C4A C3A 1_555 1_555
C3B C2B 1_555 1_555
H2B C2B 1_555 1_555
C10A C13A 1_555 1_555
H12A C13A 1_555 1_555
H13A C13A 1_555 1_555
C8B C12B 1_555 1_555
H10B C12B 1_555 1_555
H11B C12B 1_555 1_555
H2A C2A 1_555 1_555
C5A C4A 1_555 1_555
H3A C4A 1_555 1_555
H4A C4A 1_555 1_555
C4B C3B 1_555 1_555
C9A C10A 1_555 1_555
C11A C10A 1_555 1_555
C7B C8B 1_555 1_555
C9B C8B 1_555 1_555
C6A C5A 1_555 1_555
H5A C5A 1_555 1_555
H6A C5A 1_555 1_555
C5B C4B 1_555 1_555
H3B C4B 1_555 1_555
H4B C4B 1_555 1_555
C8A C9A 1_555 1_555
H8A C9A 1_555 1_555
H9A C11A 1_555 1_555
C6B C7B 1_555 1_555
H7B C7B 1_555 1_555
C10B C9B 1_555 1_555
H8B C9B 1_555 1_555
C7A C6A 1_555 1_555
H5B C5B 1_555 1_555
H6B C5B 1_555 1_555
C12A C8A 1_555 1_555
C11B C6B 1_555 1_555
C13B C10B 1_555 1_555
H7A C7A 1_555 1_555
H10A C12A 1_555 1_555
H11A C12A 1_555 1_555
H9B C11B 1_555 1_555
H12B C13B 1_555 1_555
H13B C13B 1_555 1_555
C2A C3B 1_555 1_555
C11A C6A 1_555 1_555
C5B C6B 1_555 1_555
C8A C7A 1_555 1_555
C10B C11B 1_555 1_555
C12A C13B 1_555 1_555

#END
