
#######################################################################
#
#                 Cambridge Crystallographic Data Centre
#                                CCDC 
#
#######################################################################
#
# If this CIF has been generated from an entry in the Cambridge 
# Structural Database, then it will include bibliographic, chemical, 
# crystal, experimental, refinement or atomic coordinate data resulting 
# from the CCDC's data processing and validation procedures.
#
#######################################################################

data_PALXOP
_chemical_formula_moiety         'C18 H16 N2 O1'
_chemical_name_systematic        
(1R,4R;1S,4S)-2-Amino-3-cyano-1,4-diphenyl-2-cyclopenten-1-ol
_symmetry_cell_setting           orthorhombic
_symmetry_space_group_name_H-M   'P b c a'
_symmetry_Int_Tables_number      61
_space_group_name_Hall           '-P 2ac 2ab'
loop_
_symmetry_equiv_pos_site_id
_symmetry_equiv_pos_as_xyz
1 x,y,z
2 1/2-x,-y,1/2+z
3 1/2+x,1/2-y,-z
4 -x,1/2+y,1/2-z
5 -x,-y,-z
6 1/2+x,y,1/2-z
7 1/2-x,1/2+y,z
8 x,1/2-y,1/2+z
_cell_length_a                   23.229(2)
_cell_length_b                   11.880(3)
_cell_length_c                   10.733(3)
_cell_angle_alpha                90
_cell_angle_beta                 90
_cell_angle_gamma                90
_cell_volume                     2961.88
_exptl_crystal_colour            colorless
_exptl_crystal_description       prismatic
_chemical_melting_point          164-166deg.C
_cell_formula_units_Z            8
_exptl_crystal_recrystallization_method ethanol
loop_
_atom_site_label
_atom_site_type_symbol
_atom_site_fract_x
_atom_site_fract_y
_atom_site_fract_z
O1 O 0.5939(1) 0.7259(3) 0.0814(3)
N1 N 0.5467(2) 0.6470(3) 0.3381(4)
N2 N 0.4556(2) 0.3989(3) 0.2667(4)
C1 C 0.6326(2) 0.5398(4) 0.0791(5)
C2 C 0.6164(2) 0.6402(3) 0.1607(4)
C3 C 0.5660(2) 0.5933(3) 0.2367(4)
C4 C 0.5450(2) 0.4993(3) 0.1829(4)
C5 C 0.5792(2) 0.4625(4) 0.0697(5)
C6 C 0.4954(2) 0.4436(3) 0.2273(4)
C7 C 0.5927(2) 0.3376(4) 0.0689(4)
C8 C 0.5710(2) 0.2670(5) -0.0219(5)
C9 C 0.5819(3) 0.1526(5) -0.0180(6)
C10 C 0.6139(3) 0.1069(5) 0.0740(6)
C11 C 0.6349(2) 0.1746(5) 0.1660(6)
C12 C 0.6250(2) 0.2896(4) 0.1622(5)
C13 C 0.6651(2) 0.6824(4) 0.2431(5)
C14 C 0.6871(2) 0.6128(5) 0.3353(5)
C15 C 0.7312(2) 0.6498(7) 0.4108(6)
C16 C 0.7527(3) 0.7559(8) 0.4001(8)
C17 C 0.7305(3) 0.8264(7) 0.3115(8)
C18 C 0.6868(2) 0.7909(4) 0.2316(6)
loop_
_geom_bond_atom_site_label_1
_geom_bond_atom_site_label_2
_geom_bond_site_symmetry_1
_geom_bond_site_symmetry_2
O1 C2 1_555 1_555
N1 C3 1_555 1_555
N2 C6 1_555 1_555
C1 C2 1_555 1_555
C2 C3 1_555 1_555
C3 C4 1_555 1_555
C4 C5 1_555 1_555
C5 C1 1_555 1_555
C6 C4 1_555 1_555
C7 C5 1_555 1_555
C8 C7 1_555 1_555
C9 C8 1_555 1_555
C10 C9 1_555 1_555
C11 C10 1_555 1_555
C12 C7 1_555 1_555
C13 C2 1_555 1_555
C14 C13 1_555 1_555
C15 C14 1_555 1_555
C16 C15 1_555 1_555
C17 C16 1_555 1_555
C18 C13 1_555 1_555
C11 C12 1_555 1_555
C17 C18 1_555 1_555

#END
