
#######################################################################
#
#                 Cambridge Crystallographic Data Centre
#                                CCDC 
#
#######################################################################
#
# If this CIF has been generated from an entry in the Cambridge 
# Structural Database, then it will include bibliographic, chemical, 
# crystal, experimental, refinement or atomic coordinate data resulting 
# from the CCDC's data processing and validation procedures.
#
#######################################################################

data_PALYIN
_chemical_formula_moiety         'C28 H20 N2'
_chemical_name_systematic        
N-(4-(9H-carbazol-9-yl)phenyl)naphthalen-2-amine
_symmetry_cell_setting           monoclinic
_symmetry_space_group_name_H-M   'P 21/c'
_symmetry_Int_Tables_number      14
_space_group_name_Hall           '-P 2ybc'
loop_
_symmetry_equiv_pos_site_id
_symmetry_equiv_pos_as_xyz
1 x,y,z
2 -x,1/2+y,1/2-z
3 -x,-y,-z
4 x,1/2-y,1/2+z
_cell_length_a                   14.5800(12)
_cell_length_b                   16.7802(13)
_cell_length_c                   17.3277(15)
_cell_angle_alpha                90
_cell_angle_beta                 105.121(2)
_cell_angle_gamma                90
_cell_volume                     4092.54
_exptl_crystal_colour            colorless
_exptl_crystal_description       block
_cell_formula_units_Z            8
_chemical_properties_physical    'Light-sensitive, Photo-sensitive'
_exptl_crystal_preparation       Luminescent
loop_
_atom_site_label
_atom_site_type_symbol
_atom_site_fract_x
_atom_site_fract_y
_atom_site_fract_z
N1 N 0.8640(2) 0.68733(16) 0.46444(18)
N2 N 0.97030(18) 0.86249(14) 0.22676(16)
C1 C 0.9422(2) 0.81815(16) 0.28704(18)
C2 C 0.76362(19) 0.57734(16) 0.39825(19)
H1 H 0.7850 0.5836 0.3525
C3 C 0.69751(19) 0.51648(17) 0.4003(2)
C4 C 0.8878(2) 0.72932(16) 0.40350(19)
C5 C 1.0487(2) 0.8979(2) 0.1339(2)
C6 C 1.0329(2) 0.8365(2) 0.1840(2)
C7 C 0.8606(2) 0.77418(18) 0.2685(2)
H2 H 0.8231 0.7737 0.2160
C8 C 0.9915(2) 0.9641(2) 0.1469(2)
C9 C 0.9438(2) 0.94028(18) 0.2045(2)
C10 C 0.8324(2) 0.73056(18) 0.3256(2)
H3 H 0.7759 0.7019 0.3117
C11 C 0.6624(2) 0.46460(19) 0.3349(2)
H4 H 0.6817 0.4713 0.2883
C12 C 0.9969(2) 0.81767(17) 0.3643(2)
H5 H 1.0525 0.8476 0.3782
C13 C 0.6672(2) 0.5058(2) 0.4702(2)
C14 C 0.7971(2) 0.62734(17) 0.46161(19)
C15 C 0.7650(2) 0.6164(2) 0.5309(2)
H6 H 0.7867 0.6500 0.5745
C16 C 0.9703(2) 0.77348(17) 0.42136(19)
H7 H 1.0089 0.7733 0.4734
C17 C 1.0754(2) 0.7624(2) 0.1853(2)
H8 H 1.0644 0.7218 0.2182
C18 C 1.1344(2) 0.7514(3) 0.1357(3)
H9 H 1.1631 0.7021 0.1347
C19 C 1.1521(3) 0.8123(3) 0.0871(3)
H10 H 1.1934 0.8033 0.0552
C20 C 0.8820(2) 0.98898(19) 0.2305(2)
H11 H 0.8522 0.9721 0.2690
C21 C 0.5714(3) 0.3945(2) 0.4081(3)
H12 H 0.5296 0.3533 0.4106
C22 C 1.1100(3) 0.8850(3) 0.0853(2)
H13 H 1.1219 0.9253 0.0523
C23 C 0.9743(3) 1.0412(2) 0.1162(2)
H14 H 1.0054 1.0597 0.0792
C24 C 0.6009(3) 0.4051(2) 0.3394(3)
H15 H 0.5786 0.3714 0.2960
C25 C 0.6023(3) 0.4430(2) 0.4720(3)
H16 H 0.5808 0.4352 0.5175
C26 C 0.7034(3) 0.5578(2) 0.5347(2)
H17 H 0.6841 0.5514 0.5814
C27 C 0.8661(3) 1.0642(2) 0.1968(3)
H18 H 0.8239 1.0984 0.2122
C28 C 0.9120(3) 1.0892(2) 0.1406(3)
H19 H 0.9001 1.1401 0.1189
H20 H 0.898(2) 0.6989(18) 0.5097(19)
N3 N 0.6193(2) 0.30132(15) 0.02636(18)
N4 N 0.53322(16) 0.10888(13) 0.26171(14)
C29 C 0.55559(19) 0.15792(15) 0.20195(17)
C30 C 0.60014(19) 0.25494(14) 0.08631(17)
C31 C 0.4673(2) 0.06432(16) 0.35899(17)
C32 C 0.51071(19) 0.22202(14) 0.07497(16)
H21 H 0.4644 0.2330 0.0280
C33 C 0.5271(2) 0.00224(16) 0.34147(17)
C34 C 0.48859(18) 0.17337(14) 0.13155(16)
H22 H 0.4283 0.1510 0.1221
C35 C 0.5668(2) 0.03205(16) 0.28194(18)
C36 C 0.4733(2) 0.12938(17) 0.30839(17)
C37 C 0.7963(2) 0.46368(16) 0.0964(2)
C38 C 0.6679(2) 0.23727(18) 0.15630(19)
H23 H 0.7292 0.2573 0.1649
C39 C 0.68707(19) 0.36076(16) 0.03086(19)
C40 C 0.7297(2) 0.40026(16) 0.0983(2)
H24 H 0.7164 0.3867 0.1463
C41 C 0.7081(2) 0.38212(18) -0.0409(2)
H25 H 0.6793 0.3540 -0.0872
C42 C 0.4269(2) 0.20088(18) 0.31202(19)
H26 H 0.4326 0.2436 0.2794
C43 C 0.6446(2) 0.18986(18) 0.21353(19)
H27 H 0.6904 0.1794 0.2609
C44 C 0.3635(2) 0.1423(2) 0.4148(2)
H28 H 0.3253 0.1474 0.4499
C45 C 0.8129(2) 0.4828(2) 0.0225(2)
C46 C 0.5510(2) -0.07400(17) 0.37090(19)
H29 H 0.5244 -0.0952 0.4097
C47 C 0.7687(3) 0.4419(2) -0.0456(2)
H30 H 0.7802 0.4552 -0.0944
C48 C 0.6519(3) -0.08767(18) 0.2827(2)
H31 H 0.6938 -0.1188 0.2634
C49 C 0.6286(2) -0.01221(16) 0.25144(19)
H32 H 0.6539 0.0078 0.2113
C50 C 0.6140(3) -0.11761(19) 0.3422(2)
H33 H 0.6318 -0.1681 0.3629
C51 C 0.3718(2) 0.2065(2) 0.3656(2)
H34 H 0.3397 0.2537 0.3690
C52 C 0.4106(2) 0.0722(2) 0.41217(19)
H35 H 0.4049 0.0302 0.4456
C53 C 0.8378(2) 0.5061(2) 0.1645(2)
H36 H 0.8252 0.4934 0.2130
C54 C 0.8769(3) 0.5488(3) 0.0193(3)
H37 H 0.8894 0.5634 -0.0287
C55 C 0.9172(3) 0.5880(3) 0.0869(4)
H38 H 0.9587 0.6297 0.0853
C56 C 0.8991(3) 0.5684(2) 0.1595(3)
H39 H 0.9282 0.5972 0.2051
H40 H 0.582(2) 0.2973(17) -0.0173(18)
loop_
_geom_bond_atom_site_label_1
_geom_bond_atom_site_label_2
_geom_bond_site_symmetry_1
_geom_bond_site_symmetry_2
N1 C4 1_555 1_555
N2 C1 1_555 1_555
C1 C7 1_555 1_555
C2 H1 1_555 1_555
C3 C2 1_555 1_555
C4 C10 1_555 1_555
C5 C6 1_555 1_555
C6 N2 1_555 1_555
C7 H2 1_555 1_555
C8 C5 1_555 1_555
C9 N2 1_555 1_555
C10 C7 1_555 1_555
H3 C10 1_555 1_555
C11 C3 1_555 1_555
H4 C11 1_555 1_555
C12 C1 1_555 1_555
H5 C12 1_555 1_555
C13 C3 1_555 1_555
C14 N1 1_555 1_555
C15 C14 1_555 1_555
H6 C15 1_555 1_555
C16 C4 1_555 1_555
H7 C16 1_555 1_555
C17 C6 1_555 1_555
H8 C17 1_555 1_555
C18 C17 1_555 1_555
H9 C18 1_555 1_555
C19 C18 1_555 1_555
H10 C19 1_555 1_555
C20 C9 1_555 1_555
H11 C20 1_555 1_555
C21 H12 1_555 1_555
C22 C5 1_555 1_555
H13 C22 1_555 1_555
C23 C8 1_555 1_555
H14 C23 1_555 1_555
C24 C11 1_555 1_555
H15 C24 1_555 1_555
C25 C13 1_555 1_555
H16 C25 1_555 1_555
C26 C13 1_555 1_555
H17 C26 1_555 1_555
C27 C20 1_555 1_555
H18 C27 1_555 1_555
C28 C23 1_555 1_555
H19 C28 1_555 1_555
H20 N1 1_555 1_555
N3 C30 1_555 1_555
N4 C29 1_555 1_555
C29 C34 1_555 1_555
C30 C32 1_555 1_555
C31 C33 1_555 1_555
C32 H21 1_555 1_555
C33 C35 1_555 1_555
C34 C32 1_555 1_555
H22 C34 1_555 1_555
C35 N4 1_555 1_555
C36 N4 1_555 1_555
C37 C40 1_555 1_555
C38 C30 1_555 1_555
H23 C38 1_555 1_555
C39 N3 1_555 1_555
C40 C39 1_555 1_555
H24 C40 1_555 1_555
C41 C39 1_555 1_555
H25 C41 1_555 1_555
C42 C36 1_555 1_555
H26 C42 1_555 1_555
C43 C29 1_555 1_555
H27 C43 1_555 1_555
C44 H28 1_555 1_555
C45 C37 1_555 1_555
C46 C33 1_555 1_555
H29 C46 1_555 1_555
C47 C41 1_555 1_555
H30 C47 1_555 1_555
C48 H31 1_555 1_555
C49 C35 1_555 1_555
H32 C49 1_555 1_555
C50 C46 1_555 1_555
H33 C50 1_555 1_555
C51 C42 1_555 1_555
H34 C51 1_555 1_555
C52 C31 1_555 1_555
H35 C52 1_555 1_555
C53 C37 1_555 1_555
H36 C53 1_555 1_555
C54 C45 1_555 1_555
H37 C54 1_555 1_555
C55 C54 1_555 1_555
H38 C55 1_555 1_555
C56 C53 1_555 1_555
H39 C56 1_555 1_555
H40 N3 1_555 1_555
C2 C14 1_555 1_555
C8 C9 1_555 1_555
C12 C16 1_555 1_555
C15 C26 1_555 1_555
C19 C22 1_555 1_555
C21 C24 1_555 1_555
C21 C25 1_555 1_555
C27 C28 1_555 1_555
C31 C36 1_555 1_555
C38 C43 1_555 1_555
C44 C51 1_555 1_555
C44 C52 1_555 1_555
C45 C47 1_555 1_555
C48 C49 1_555 1_555
C48 C50 1_555 1_555
C55 C56 1_555 1_555

#END
