
#######################################################################
#
#                 Cambridge Crystallographic Data Centre
#                                CCDC 
#
#######################################################################
#
# If this CIF has been generated from an entry in the Cambridge 
# Structural Database, then it will include bibliographic, chemical, 
# crystal, experimental, refinement or atomic coordinate data resulting 
# from the CCDC's data processing and validation procedures.
#
#######################################################################

data_PAMBZA01
_chemical_formula_moiety         'C7 H8 N1 O2 1+,Cl1 1-'
_chemical_name_systematic        '4-Carboxyanilinium chloride'
_symmetry_cell_setting           monoclinic
_symmetry_space_group_name_H-M   'P 21/c'
_symmetry_Int_Tables_number      14
_space_group_name_Hall           '-P 2ybc'
loop_
_symmetry_equiv_pos_site_id
_symmetry_equiv_pos_as_xyz
1 x,y,z
2 -x,1/2+y,1/2-z
3 -x,-y,-z
4 x,1/2-y,1/2+z
_cell_length_a                   5.601(5)
_cell_length_b                   8.269(5)
_cell_length_c                   17.118(5)
_cell_angle_alpha                90
_cell_angle_beta                 96.371(5)
_cell_angle_gamma                90
_cell_volume                     787.918
_exptl_crystal_colour            yellow
_exptl_crystal_description       block
_cell_formula_units_Z            4
loop_
_atom_site_label
_atom_site_type_symbol
_atom_site_fract_x
_atom_site_fract_y
_atom_site_fract_z
C1 C 0.5758(9) 0.2824(5) 0.5157(3)
C2 C 0.3637(8) 0.1926(6) 0.4999(3)
C3 C 0.3059(9) 0.1230(6) 0.4273(3)
C4 C 0.4607(8) 0.1434(5) 0.3701(3)
C5 C 0.6671(9) 0.2347(6) 0.3835(3)
C6 C 0.7245(9) 0.3053(6) 0.4564(3)
C7 C 0.6379(9) 0.3487(6) 0.5964(3)
N1 N 0.4043(9) 0.0640(6) 0.2933(3)
O1 O 0.8194(7) 0.4512(5) 0.6027(2)
O2 O 0.5313(8) 0.3078(5) 0.6508(2)
H1 H 0.858(13) 0.482(9) 0.659(5)
H2 H 0.279(10) 0.006(6) 0.293(3)
H3 H 0.393(14) 0.131(11) 0.253(5)
H4 H 0.545(14) 0.002(9) 0.286(4)
H5 H 0.262(9) 0.183(6) 0.541(3)
H6 H 0.175(10) 0.067(6) 0.419(3)
H7 H 0.780(10) 0.249(6) 0.347(3)
H8 H 0.863(9) 0.363(6) 0.465(3)
Cl1 Cl 0.9009(2) 0.60977(15) 0.76491(7)
loop_
_geom_bond_atom_site_label_1
_geom_bond_atom_site_label_2
_geom_bond_site_symmetry_1
_geom_bond_site_symmetry_2
C1 C2 1_555 1_555
C2 C3 1_555 1_555
C3 C4 1_555 1_555
C4 C5 1_555 1_555
C5 C6 1_555 1_555
C6 C1 1_555 1_555
C7 C1 1_555 1_555
N1 C4 1_555 1_555
O1 C7 1_555 1_555
O2 C7 1_555 1_555
H1 O1 1_555 1_555
H2 N1 1_555 1_555
H3 N1 1_555 1_555
H4 N1 1_555 1_555
H5 C2 1_555 1_555
H6 C3 1_555 1_555
H7 C5 1_555 1_555
H8 C6 1_555 1_555

#END
