
#######################################################################
#
#                 Cambridge Crystallographic Data Centre
#                                CCDC 
#
#######################################################################
#
# If this CIF has been generated from an entry in the Cambridge 
# Structural Database, then it will include bibliographic, chemical, 
# crystal, experimental, refinement or atomic coordinate data resulting 
# from the CCDC's data processing and validation procedures.
#
#######################################################################

data_PAMGIW
_chemical_formula_moiety         'C70,C30 H20 S8'
_chemical_name_systematic        
'C70fullerene 2,3,6,7-tetrakis(phenylsulfanyl)tetrathiafulvalene'
_symmetry_cell_setting           triclinic
_symmetry_space_group_name_H-M   'P 1'
_symmetry_Int_Tables_number      1
_space_group_name_Hall           'P 1'
loop_
_symmetry_equiv_pos_site_id
_symmetry_equiv_pos_as_xyz
1 x,y,z
_cell_length_a                   10.3115(7)
_cell_length_b                   10.6597(7)
_cell_length_c                   14.2727(14)
_cell_angle_alpha                68.533(8)
_cell_angle_beta                 88.990(7)
_cell_angle_gamma                80.494(6)
_cell_volume                     1438.37
_exptl_crystal_colour            'dark black'
_exptl_crystal_description       plate
_cell_formula_units_Z            1
loop_
_atom_site_label
_atom_site_type_symbol
_atom_site_fract_x
_atom_site_fract_y
_atom_site_fract_z
S1 S 0.5738(9) 0.9917(10) 0.8415(8)
S2 S 0.5337(8) 1.1662(10) 0.6045(8)
S3 S 0.2625(9) 1.1779(10) 0.3703(9)
S4 S 0.4698(8) 1.3730(9) 0.3936(8)
S5 S 0.4529(10) 0.6104(11) 1.0346(9)
S6 S 0.3905(8) 0.8157(10) 0.8233(8)
S7 S 0.3514(8) 0.9914(10) 0.5832(8)
S8 S 0.6567(9) 0.8042(10) 1.0597(9)
C1 C 0.4061(18) 0.945(2) 0.3558(16)
H1 H 0.4722 0.9500 0.3970
C2 C 0.4224(18) 0.841(2) 0.3177(17)
H2 H 0.4995 0.7764 0.3334
C3 C 0.324(2) 0.833(2) 0.2561(17)
H3 H 0.3346 0.7631 0.2306
C4 C 0.2085(19) 0.929(2) 0.2326(17)
H4 H 0.1425 0.9234 0.1914
C5 C 0.1922(17) 1.033(2) 0.2708(17)
H5 H 0.1151 1.0971 0.2551
C6 C 0.291(2) 1.0408(19) 0.3324(16)
C7 C 0.548(3) 0.866(4) 0.935(3)
C8 C 0.6320(18) 0.9475(17) 1.0936(16)
C9 C 0.5197(16) 1.047(2) 1.0676(15)
H6 H 0.4524 1.0424 1.0273
C10 C 0.5081(18) 1.155(2) 1.1020(17)
H7 H 0.4330 1.2219 1.0846
C11 C 0.609(2) 1.163(2) 1.1622(19)
H8 H 0.6009 1.2345 1.1852
C12 C 0.721(2) 1.063(3) 1.188(2)
H9 H 0.7882 1.0676 1.2285
C13 C 0.7326(17) 0.955(2) 1.1539(18)
H10 H 0.8077 0.8881 1.1712
C14 C 0.458(4) 1.205(4) 0.490(3)
C15 C 0.2945(15) 0.641(2) 1.0763(15)
C16 C 0.201(2) 0.7587(17) 1.0345(13)
H11 H 0.2201 0.8317 0.9792
C17 C 0.0775(18) 0.7671(19) 1.0753(16)
H12 H 0.0147 0.8456 1.0473
C18 C 0.0483(16) 0.658(2) 1.1579(16)
H13 H -0.0340 0.6636 1.1852
C19 C 0.142(2) 0.541(2) 1.1997(14)
H14 H 0.1227 0.4677 1.2550
C20 C 0.2653(18) 0.5323(17) 1.1589(15)
H15 H 0.3281 0.4538 1.1869
C21 C 0.6654(19) 1.4571(18) 0.2661(17)
H16 H 0.6065 1.5391 0.2401
C22 C 0.6302(15) 1.347(2) 0.3448(16)
C23 C 0.718(2) 1.2247(19) 0.3837(14)
H17 H 0.6946 1.1511 0.4364
C24 C 0.8415(18) 1.2122(18) 0.3438(16)
H18 H 0.9004 1.1303 0.3698
C25 C 0.8768(16) 1.322(2) 0.2651(16)
H19 H 0.9593 1.3139 0.2384
C26 C 0.789(2) 1.445(2) 0.2262(15)
H20 H 0.8123 1.5183 0.1735
C27 C 0.468(3) 0.763(3) 0.949(3)
C28 C 0.454(2) 1.026(3) 0.671(2)
C29 C 0.369(3) 1.143(3) 0.466(3)
C30 C 0.468(4) 0.957(4) 0.766(3)
C31 C -0.0928(13) 1.134(2) 0.8348(15)
C32 C -0.1876(18) 1.200(2) 0.7534(12)
C33 C -0.2894(17) 1.281(2) 0.7843(15)
C34 C -0.2575(18) 1.266(2) 0.8848(15)
C35 C -0.1360(17) 1.174(2) 0.9160(12)
C36 C -0.1908(18) 1.431(2) 0.4879(17)
C37 C -0.237(2) 1.3500(16) 0.5811(16)
C38 C -0.338(2) 1.435(2) 0.6098(14)
C39 C -0.3534(19) 1.5688(18) 0.5344(18)
C40 C -0.2625(19) 1.5658(18) 0.4590(14)
C41 C 0.050(2) 1.5113(19) 0.9716(17)
C42 C -0.0727(19) 1.600(2) 0.939(2)
C43 C -0.052(2) 1.714(2) 0.853(2)
C44 C 0.084(2) 1.696(2) 0.8324(16)
C45 C 0.1466(16) 1.570(2) 0.906(2)
C46 C 0.137(2) 1.139(3) 0.8730(12)
C47 C 0.2352(19) 1.198(3) 0.8089(16)
C48 C 0.201(2) 1.211(2) 0.7095(14)
C49 C 0.0818(18) 1.160(3) 0.7120(14)
C50 C 0.0420(15) 1.116(3) 0.8131(16)
C51 C -0.260(4) 1.735(3) 0.778(3)
C52 C -0.2818(19) 1.3855(15) 0.9107(16)
C53 C -0.1882(19) 1.4071(17) 0.9726(15)
C54 C -0.1890(19) 1.5500(18) 0.9403(18)
C55 C -0.283(2) 1.6168(14) 0.8584(15)
C56 C -0.340(2) 1.5152(19) 0.8402(14)
C57 C 0.1352(16) 1.4950(17) 0.4630(16)
C58 C 0.0067(17) 1.5256(15) 0.4175(15)
C59 C -0.0562(15) 1.4107(19) 0.4643(18)
C60 C 0.033(2) 1.3092(16) 0.5387(16)
C61 C 0.152(2) 1.3613(18) 0.5380(17)
C62 C 0.237(3) 1.657(2) 0.7037(16)
C63 C 0.1209(16) 1.7294(18) 0.4517(13)
C64 C 0.1460(19) 1.7832(16) 0.5258(16)
C65 C 0.236(2) 1.6824(19) 0.6006(12)
C66 C 0.2659(19) 1.5662(15) 0.5728(13)
C67 C 0.1950(18) 1.5953(17) 0.4808(13)
C68 C -0.013(2) 1.219(3) 0.6312(16)
C69 C 0.255(3) 1.331(2) 0.9076(13)
C70 C 0.295(3) 1.2953(17) 0.8234(17)
C71 C 0.316(2) 1.416(2) 0.7436(12)
C72 C 0.288(3) 1.5265(16) 0.7784(14)
C73 C 0.251(2) 1.473(2) 0.8798(15)
C74 C -0.151(2) 1.237(3) 0.651(2)
C75 C -0.140(3) 1.788(4) 0.776(3)
C76 C -0.0637(15) 1.6591(16) 0.3931(17)
C77 C -0.2002(15) 1.6797(17) 0.4105(15)
C78 C -0.2293(14) 1.797(2) 0.4371(16)
C79 C -0.1108(17) 1.8490(19) 0.4360(16)
C80 C -0.0084(12) 1.7637(19) 0.4088(16)
C81 C -0.0793(19) 1.893(2) 0.5145(12)
C82 C -0.1715(15) 1.894(3) 0.5894(16)
C83 C -0.100(2) 1.862(3) 0.6816(12)
C84 C 0.036(2) 1.842(3) 0.6637(16)
C85 C 0.0492(16) 1.861(3) 0.5604(17)
C86 C 0.1503(15) 1.276(3) 0.981(2)
C87 C 0.0941(18) 1.174(2) 0.9619(19)
C88 C -0.0427(17) 1.196(2) 0.9783(18)
C89 C -0.0710(16) 1.311(2) 1.0080(19)
C90 C 0.048(2) 1.360(2) 1.010(2)
C91 C -0.380(3) 1.528(2) 0.7434(17)
C92 C 0.293(3) 1.429(3) 0.6426(18)
C93 C -0.358(3) 1.415(3) 0.7093(19)
C94 C 0.226(3) 1.322(3) 0.6234(18)
C95 C 0.125(4) 1.757(4) 0.737(3)
C96 C -0.313(2) 1.790(2) 0.5181(12)
C97 C -0.3753(19) 1.675(2) 0.5661(15)
C98 C -0.388(2) 1.659(2) 0.6688(14)
C99 C -0.334(2) 1.764(3) 0.6843(13)
C100 C -0.2869(19) 1.845(2) 0.5912(17)
loop_
_geom_bond_atom_site_label_1
_geom_bond_atom_site_label_2
_geom_bond_site_symmetry_1
_geom_bond_site_symmetry_2
S1 C7 1_555 1_555
S2 C14 1_555 1_555
S3 C6 1_555 1_555
S4 C14 1_555 1_555
S5 C15 1_555 1_555
S6 C27 1_555 1_555
S7 C28 1_555 1_555
S8 C7 1_555 1_555
C1 H1 1_555 1_555
C2 C1 1_555 1_555
H2 C2 1_555 1_555
C3 C2 1_555 1_555
H3 C3 1_555 1_555
C4 C3 1_555 1_555
H4 C4 1_555 1_555
C5 C4 1_555 1_555
H5 C5 1_555 1_555
C6 C1 1_555 1_555
C7 C27 1_555 1_555
C8 S8 1_555 1_555
C9 C8 1_555 1_555
H6 C9 1_555 1_555
C10 C9 1_555 1_555
H7 C10 1_555 1_555
C11 C10 1_555 1_555
H8 C11 1_555 1_555
C12 C11 1_555 1_555
H9 C12 1_555 1_555
C13 C8 1_555 1_555
H10 C13 1_555 1_555
C14 C29 1_555 1_555
C15 C16 1_555 1_555
C16 H11 1_555 1_555
C17 C16 1_555 1_555
H12 C17 1_555 1_555
C18 C17 1_555 1_555
H13 C18 1_555 1_555
C19 C18 1_555 1_555
H14 C19 1_555 1_555
C20 C15 1_555 1_555
H15 C20 1_555 1_555
C21 H16 1_555 1_555
C22 S4 1_555 1_555
C23 C22 1_555 1_555
H17 C23 1_555 1_555
C24 C23 1_555 1_555
H18 C24 1_555 1_555
C25 C24 1_555 1_555
H19 C25 1_555 1_555
C26 C21 1_555 1_555
H20 C26 1_555 1_555
C27 S5 1_555 1_555
C28 S2 1_555 1_555
C29 S3 1_555 1_555
C30 S1 1_555 1_555
C31 C32 1_555 1_555
C32 C33 1_555 1_555
C33 C34 1_555 1_555
C34 C35 1_555 1_555
C35 C31 1_555 1_555
C36 C37 1_555 1_555
C37 C38 1_555 1_555
C38 C39 1_555 1_555
C39 C40 1_555 1_555
C40 C36 1_555 1_555
C41 C42 1_555 1_555
C42 C43 1_555 1_555
C43 C44 1_555 1_555
C44 C45 1_555 1_555
C45 C41 1_555 1_555
C46 C47 1_555 1_555
C47 C48 1_555 1_555
C48 C49 1_555 1_555
C49 C50 1_555 1_555
C50 C31 1_555 1_555
C51 C55 1_555 1_555
C52 C34 1_555 1_555
C53 C52 1_555 1_555
C54 C42 1_555 1_555
C55 C54 1_555 1_555
C56 C52 1_555 1_555
C57 C58 1_555 1_555
C58 C59 1_555 1_555
C59 C36 1_555 1_555
C60 C59 1_555 1_555
C61 C57 1_555 1_555
C62 C65 1_555 1_555
C63 C64 1_555 1_555
C64 C65 1_555 1_555
C65 C66 1_555 1_555
C66 C67 1_555 1_555
C67 C57 1_555 1_555
C68 C49 1_555 1_555
C69 C70 1_555 1_555
C70 C47 1_555 1_555
C71 C70 1_555 1_555
C72 C62 1_555 1_555
C73 C45 1_555 1_555
C74 C32 1_555 1_555
C75 C43 1_555 1_555
C76 C58 1_555 1_555
C77 C40 1_555 1_555
C78 C77 1_555 1_555
C79 C78 1_555 1_555
C80 C63 1_555 1_555
C81 C79 1_555 1_555
C82 C81 1_555 1_555
C83 C75 1_555 1_555
C84 C83 1_555 1_555
C85 C64 1_555 1_555
C86 C69 1_555 1_555
C87 C46 1_555 1_555
C88 C35 1_555 1_555
C89 C53 1_555 1_555
C90 C41 1_555 1_555
C91 C56 1_555 1_555
C92 C66 1_555 1_555
C93 C33 1_555 1_555
C94 C48 1_555 1_555
C95 C44 1_555 1_555
C96 C78 1_555 1_555
C97 C39 1_555 1_555
C98 C91 1_555 1_555
C99 C51 1_555 1_555
C100 C82 1_555 1_555
S6 C30 1_555 1_555
S7 C29 1_555 1_555
C5 C6 1_555 1_555
C12 C13 1_555 1_555
C19 C20 1_555 1_555
C21 C22 1_555 1_555
C25 C26 1_555 1_555
C28 C30 1_555 1_555
C37 C74 1_555 1_555
C38 C93 1_555 1_555
C46 C50 1_555 1_555
C51 C75 1_555 1_555
C53 C54 1_555 1_555
C55 C56 1_555 1_555
C60 C61 1_555 1_555
C60 C68 1_555 1_555
C61 C94 1_555 1_555
C62 C95 1_555 1_555
C63 C67 1_555 1_555
C68 C74 1_555 1_555
C69 C73 1_555 1_555
C71 C72 1_555 1_555
C71 C92 1_555 1_555
C72 C73 1_555 1_555
C76 C77 1_555 1_555
C76 C80 1_555 1_555
C79 C80 1_555 1_555
C81 C85 1_555 1_555
C82 C83 1_555 1_555
C84 C85 1_555 1_555
C84 C95 1_555 1_555
C86 C87 1_555 1_555
C86 C90 1_555 1_555
C87 C88 1_555 1_555
C88 C89 1_555 1_555
C89 C90 1_555 1_555
C91 C93 1_555 1_555
C92 C94 1_555 1_555
C96 C97 1_555 1_555
C96 C100 1_555 1_555
C97 C98 1_555 1_555
C98 C99 1_555 1_555
C99 C100 1_555 1_555

#END
