
#######################################################################
#
#                 Cambridge Crystallographic Data Centre
#                                CCDC 
#
#######################################################################
#
# If this CIF has been generated from an entry in the Cambridge 
# Structural Database, then it will include bibliographic, chemical, 
# crystal, experimental, refinement or atomic coordinate data resulting 
# from the CCDC's data processing and validation procedures.
#
#######################################################################

data_PAMGOC
_chemical_formula_moiety         '2(C70),0.5(C34 H28 S8),C6 H5 Cl1'
_chemical_name_systematic        
'bis(C70fullerene) hemikis(2,3,6,7-tetrakis((3-methylphenyl)sulfanyl)tetrathiafulvalene) chlorobenzene solvate'
_symmetry_cell_setting           monoclinic
_symmetry_space_group_name_H-M   'C 2/n'
_symmetry_Int_Tables_number      15
_space_group_name_Hall           '-C 2yac'
loop_
_symmetry_equiv_pos_site_id
_symmetry_equiv_pos_as_xyz
1 x,y,z
2 -x,1/2+y,1/2-z
3 1/2+x,1/2+y,z
4 1/2-x,y,1/2-z
5 -x,-y,-z
6 x,1/2-y,1/2+z
7 1/2-x,1/2-y,-z
8 1/2+x,-y,1/2+z
_cell_length_a                   22.859(5)
_cell_length_b                   27.904(6)
_cell_length_c                   26.409(6)
_cell_angle_alpha                90
_cell_angle_beta                 92.808(5)
_cell_angle_gamma                90
_cell_volume                     16825
_exptl_crystal_colour            'dark black'
_exptl_crystal_description       Prism
_cell_formula_units_Z            8
loop_
_atom_site_label
_atom_site_type_symbol
_atom_site_fract_x
_atom_site_fract_y
_atom_site_fract_z
C18 C 0.1597(3) 0.1741(2) 0.4663(2)
C19 C 0.1857(3) 0.0176(2) 0.3408(2)
C20 C 0.1412(2) 0.1387(2) 0.4998(2)
C21 C 0.2414(3) 0.20533(18) 0.4281(3)
C22 C 0.2150(3) 0.1979(2) 0.4761(3)
C23 C 0.3377(3) 0.1862(2) 0.4680(3)
C24 C 0.2020(3) 0.18670(19) 0.3881(2)
C25 C 0.3745(3) 0.1469(2) 0.3990(3)
C26 C 0.1437(3) 0.0498(2) 0.3591(2)
C27 C 0.1652(3) -0.0340(2) 0.4141(3)
C28 C 0.2197(3) -0.0021(2) 0.5590(2)
C29 C 0.3150(3) -0.07851(19) 0.4921(3)
C30 C 0.1487(3) 0.1012(2) 0.3508(2)
C31 C 0.3769(3) -0.0200(2) 0.5391(2)
C32 C 0.2093(3) -0.0599(2) 0.4958(3)
C33 C 0.2236(3) 0.1628(2) 0.3470(2)
C34 C 0.1415(3) 0.0103(2) 0.4920(3)
C35 C 0.3569(3) -0.0662(2) 0.4142(3)
C36 C 0.2422(3) 0.0874(2) 0.3118(2)
C37 C 0.2206(3) 0.0471(2) 0.5718(2)
C38 C 0.3238(3) 0.1747(2) 0.3813(3)
C39 C 0.2813(3) 0.1203(2) 0.5703(2)
C40 C 0.1327(3) 0.0023(2) 0.4375(3)
C41 C 0.1247(2) 0.1251(2) 0.3940(2)
C42 C 0.3790(3) 0.1093(2) 0.5333(3)
C43 C 0.2670(3) -0.0665(2) 0.5202(3)
C44 C 0.2363(3) 0.0366(2) 0.3167(2)
C45 C 0.2764(3) 0.0711(2) 0.5816(2)
C46 C 0.1181(2) 0.0425(2) 0.4062(3)
C47 C 0.4049(2) 0.1166(2) 0.4847(3)
C48 C 0.2865(3) 0.1569(2) 0.3433(2)
C49 C 0.3443(3) 0.0339(2) 0.3290(2)
C50 C 0.3070(3) -0.08536(19) 0.4378(3)
C51 C 0.3789(3) 0.0623(2) 0.5547(3)
C52 C 0.1962(3) 0.1194(2) 0.3276(2)
C53 C 0.2306(3) 0.1481(2) 0.5528(2)
C54 C 0.2970(3) 0.1105(2) 0.3217(2)
C55 C 0.3265(3) -0.0073(2) 0.5682(2)
C56 C 0.3823(3) 0.0012(2) 0.3599(3)
C57 C 0.3823(2) 0.1540(2) 0.4523(3)
C58 C 0.4201(3) 0.0191(2) 0.3968(3)
C59 C 0.4220(2) 0.0701(2) 0.4065(3)
C60 C 0.2022(3) -0.06711(19) 0.4441(3)
C61 C 0.3968(3) -0.0476(2) 0.4539(3)
C62 C 0.4338(2) 0.0303(2) 0.4844(3)
C63 C 0.2511(3) -0.08009(19) 0.4143(3)
C64 C 0.1808(3) -0.0206(2) 0.5197(3)
C65 C 0.4305(2) 0.0776(2) 0.4602(3)
C66 C 0.1143(2) 0.0957(2) 0.4796(3)
C67 C 0.3290(3) 0.0439(2) 0.5778(2)
C68 C 0.3014(3) 0.19952(19) 0.4245(3)
C69 C 0.2503(3) 0.1849(2) 0.5187(3)
C70 C 0.2924(3) -0.0366(2) 0.3440(2)
C71 C 0.2444(3) -0.0547(2) 0.3667(3)
C72 C 0.1341(2) 0.0559(2) 0.5120(2)
C73 C 0.3313(3) 0.1393(2) 0.5465(2)
C74 C 0.1512(2) 0.1674(2) 0.4122(2)
C75 C 0.4285(2) -0.0054(2) 0.4451(3)
C76 C 0.1909(3) -0.0268(2) 0.3671(3)
C77 C 0.3491(3) 0.0838(2) 0.3358(2)
C78 C 0.3492(3) -0.0421(2) 0.3680(3)
C79 C 0.2895(3) 0.0105(2) 0.3200(2)
C80 C 0.3709(3) -0.0549(2) 0.5016(3)
C81 C 0.1067(2) 0.0893(2) 0.4286(3)
C82 C 0.3885(3) 0.1032(2) 0.3757(3)
C83 C 0.4088(3) 0.0233(2) 0.5300(3)
C84 C 0.2735(3) -0.0298(2) 0.5593(2)
C85 C 0.3127(3) 0.1791(2) 0.5144(3)
C86 C 0.1780(3) 0.1258(2) 0.5436(2)
C87 C 0.1730(3) 0.0749(2) 0.5511(2)
C88 C 0.4567(3) 0.1732(2) 0.6300(2)
C89 C 0.3691(3) 0.2031(3) 0.8429(3)
C90 C 0.5433(3) 0.2960(3) 0.6707(3)
C91 C 0.6732(3) 0.2422(4) 0.7346(4)
C92 C 0.4416(3) 0.0687(2) 0.7103(3)
C93 C 0.4420(4) 0.2622(4) 0.8569(3)
C94 C 0.3757(3) 0.1410(3) 0.6719(3)
C95 C 0.6030(3) 0.2271(3) 0.6486(2)
C96 C 0.5196(3) 0.3200(2) 0.7104(3)
C97 C 0.5226(5) 0.3244(4) 0.7976(5)
C98 C 0.5382(3) 0.2321(3) 0.8900(2)
C99 C 0.5136(3) 0.1872(3) 0.8968(2)
C100 C 0.6352(5) 0.2838(4) 0.7166(5)
C101 C 0.5986(3) 0.2369(3) 0.8753(2)
C102 C 0.4240(4) 0.2864(3) 0.7004(4)
C103 C 0.5065(4) 0.2627(3) 0.6427(3)
C104 C 0.4481(4) 0.2588(3) 0.6542(3)
C105 C 0.6304(3) 0.1195(2) 0.7195(3)
C106 C 0.4606(5) 0.0940(3) 0.6668(3)
C107 C 0.5181(4) 0.1040(2) 0.8651(3)
C108 C 0.5931(4) 0.0907(3) 0.7981(3)
C109 C 0.6690(4) 0.1597(4) 0.7919(4)
C110 C 0.3760(3) 0.2645(3) 0.7245(3)
C111 C 0.4365(4) 0.0728(3) 0.8161(4)
C112 C 0.6695(3) 0.2035(3) 0.8209(3)
C113 C 0.3711(4) 0.2008(4) 0.6704(3)
C114 C 0.5501(3) 0.1439(3) 0.8829(3)
C115 C 0.4202(4) 0.2146(3) 0.6436(3)
C116 C 0.3522(4) 0.1233(4) 0.7146(4)
C117 C 0.6182(4) 0.3085(3) 0.7551(4)
C118 C 0.4223(3) 0.2884(3) 0.8062(3)
C119 C 0.5413(4) 0.0767(2) 0.8203(3)
C120 C 0.4647(4) 0.3138(3) 0.7264(4)
C121 C 0.6011(4) 0.2770(4) 0.6743(4)
C122 C 0.5166(3) 0.1772(3) 0.6269(3)
C123 C 0.5277(5) 0.0993(3) 0.6686(3)
C124 C 0.3506(3) 0.2271(2) 0.8014(3)
C125 C 0.6047(4) 0.1496(3) 0.8640(3)
C126 C 0.4666(4) 0.3153(2) 0.7842(3)
C127 C 0.4877(4) 0.0585(2) 0.7931(3)
C128 C 0.3759(4) 0.2681(3) 0.7803(4)
C129 C 0.6722(3) 0.1978(4) 0.7179(4)
C130 C 0.4296(4) 0.1299(3) 0.6490(3)
C131 C 0.5038(4) 0.2709(3) 0.8699(3)
C132 C 0.5436(4) 0.2208(3) 0.6292(3)
C133 C 0.5623(4) 0.3266(3) 0.7572(4)
C134 C 0.5438(5) 0.0746(3) 0.7152(4)
C135 C 0.4904(3) 0.0560(2) 0.7421(3)
C136 C 0.5535(4) 0.1375(3) 0.6477(3)
C137 C 0.3902(4) 0.0826(3) 0.7906(4)
C138 C 0.6326(3) 0.1974(3) 0.8624(3)
C139 C 0.4534(3) 0.1793(4) 0.8914(3)
C140 C 0.3705(4) 0.1499(4) 0.8425(4)
C141 C 0.6270(4) 0.1246(4) 0.8226(4)
C142 C 0.3489(3) 0.2240(3) 0.7082(3)
C143 C 0.6387(5) 0.2850(4) 0.8058(5)
C144 C 0.3309(3) 0.1964(4) 0.7513(4)
C145 C 0.4577(5) 0.1051(3) 0.8645(4)
C146 C 0.5929(4) 0.0889(3) 0.7388(4)
C147 C 0.3513(3) 0.1284(3) 0.8029(4)
C148 C 0.4173(4) 0.2215(4) 0.8705(3)
C149 C 0.5396(5) 0.3035(3) 0.8404(4)
C150 C 0.6045(4) 0.2817(4) 0.8447(4)
C151 C 0.6334(5) 0.1906(4) 0.6685(4)
C152 C 0.3338(3) 0.1472(4) 0.7587(4)
C153 C 0.6121(5) 0.1475(4) 0.6707(4)
C154 C 0.6669(4) 0.1530(4) 0.7463(5)
C155 C 0.6701(3) 0.2480(4) 0.7958(4)
C156 C 0.4250(5) 0.1408(4) 0.8754(3)
C157 C 0.3884(4) 0.0821(3) 0.7368(4)
S1 S 0.53284(5) 0.49271(4) 0.57923(4)
S2 S 0.53154(5) 0.42594(4) 0.49149(5)
S3 S 0.61123(5) 0.35514(4) 0.54820(5)
S4 S 0.61167(5) 0.42830(5) 0.64376(5)
C1 C 0.5025(2) 0.30933(17) 0.52994(19)
H1 H 0.4839 0.3372 0.5397
C2 C 0.56753(19) 0.40654(17) 0.54884(19)
C3 C 0.5023(2) 0.43285(17) 0.68768(19)
H2 H 0.4842 0.4281 0.6558
C4 C 0.5632(2) 0.30754(16) 0.52877(18)
C5 C 0.5630(2) 0.43662(16) 0.69389(18)
C6 C 0.5590(2) 0.22448(17) 0.50263(18)
C7 C 0.56779(19) 0.43700(16) 0.58835(18)
C8 C 0.4962(2) 0.44215(18) 0.7783(2)
H3 H 0.4735 0.4439 0.8065
C9 C 0.4983(2) 0.22690(17) 0.50324(19)
H4 H 0.4760 0.1999 0.4947
C10 C 0.5569(2) 0.44531(18) 0.78434(19)
C11 C 0.5127(2) 0.48285(17) 0.51480(18)
C12 C 0.5910(2) 0.26549(18) 0.51444(19)
H5 H 0.6315 0.2650 0.5128
C13 C 0.4696(2) 0.43644(18) 0.7307(2)
H6 H 0.4290 0.4350 0.7272
C14 C 0.4703(2) 0.26881(18) 0.51633(19)
H7 H 0.4297 0.2698 0.5160
C15 C 0.5860(3) 0.4510(2) 0.8364(2)
H8 H 0.5583 0.4636 0.8591
H9 H 0.6184 0.4727 0.8348
H10 H 0.5998 0.4204 0.8485
C16 C 0.5903(2) 0.44324(17) 0.74151(19)
H11 H 0.6308 0.4463 0.7449
C17 C 0.5891(2) 0.17870(19) 0.4892(2)
H12 H 0.6053 0.1638 0.5195
H13 H 0.6200 0.1856 0.4669
H14 H 0.5613 0.1574 0.4725
S1D S 0.46716(5) 0.50729(4) 0.42077(4)
S2D S 0.46846(5) 0.57406(4) 0.50851(5)
S3D S 0.38877(5) 0.64486(4) 0.45180(5)
S4D S 0.38833(5) 0.57170(5) 0.35624(5)
C1D C 0.4975(2) 0.69067(17) 0.47006(19)
H1D H 0.5161 0.6628 0.4603
C2D C 0.43247(19) 0.59346(17) 0.45116(19)
C3D C 0.4977(2) 0.56715(17) 0.31232(19)
H2D H 0.5158 0.5719 0.3442
C4D C 0.4368(2) 0.69246(16) 0.47123(18)
C5D C 0.4370(2) 0.56338(16) 0.30611(18)
C6D C 0.4410(2) 0.77552(17) 0.49737(18)
C7D C 0.43221(19) 0.56300(16) 0.41165(18)
C8D C 0.5038(2) 0.55785(18) 0.2217(2)
H3D H 0.5265 0.5561 0.1935
C9D C 0.5017(2) 0.77310(17) 0.49676(19)
H4D H 0.5240 0.8001 0.5053
C10D C 0.4431(2) 0.55469(18) 0.21566(19)
C11D C 0.4873(2) 0.51715(17) 0.48520(18)
C12D C 0.4090(2) 0.73451(18) 0.48556(19)
H5D H 0.3685 0.7350 0.4872
C13D C 0.5304(2) 0.56356(18) 0.2693(2)
H6D H 0.5710 0.5650 0.2728
C14D C 0.5297(2) 0.73119(18) 0.48367(19)
H7D H 0.5703 0.7302 0.4840
C15D C 0.4140(3) 0.5490(2) 0.1636(2)
H8D H 0.4417 0.5364 0.1409
H9D H 0.3816 0.5273 0.1652
H10D H 0.4002 0.5796 0.1515
C16D C 0.4097(2) 0.55676(17) 0.25849(19)
H11D H 0.3692 0.5537 0.2551
C17D C 0.4109(2) 0.82130(19) 0.5108(2)
H12D H 0.3947 0.8362 0.4805
H13D H 0.3800 0.8144 0.5331
H14D H 0.4387 0.8426 0.5275
Cl1? Cl 0.25845(18) -0.12465(16) 0.66318(18)
C158? C 0.2525(3) -0.0313(4) 0.7061(3)
C159? C 0.2530(3) -0.0814(4) 0.7081(4)
C160? C 0.2500 -0.0052(5) 0.7500
C161? C 0.2500 -0.1076(7) 0.7500
C162? C 0.7514(3) 0.2063(3) 0.9888(4)
C163? C 0.7527(5) 0.2195(5) 0.9423(6)
Cl2? Cl 0.75405(18) 0.2790(2) 0.91345(19)
C164? C 0.74595(18) 0.2210(2) 1.08655(19)
C165? C 0.7513(6) 0.2368(6) 1.0296(6)
C166? C 0.7476(8) 0.2014(7) 1.0340(8)
loop_
_geom_bond_atom_site_label_1
_geom_bond_atom_site_label_2
_geom_bond_site_symmetry_1
_geom_bond_site_symmetry_2
S1 C7 1_555 1_555
S2 C2 1_555 1_555
S3 C2 1_555 1_555
S4 C5 1_555 1_555
C1 H1 1_555 1_555
C2 C7 1_555 1_555
C3 H2 1_555 1_555
C4 S3 1_555 1_555
C5 C3 1_555 1_555
C6 C9 1_555 1_555
C7 S4 1_555 1_555
C8 H3 1_555 1_555
C9 H4 1_555 1_555
C10 C8 1_555 1_555
C11 S1 1_555 1_555
C12 C4 1_555 1_555
H5 C12 1_555 1_555
C13 C3 1_555 1_555
H6 C13 1_555 1_555
C14 C1 1_555 1_555
H7 C14 1_555 1_555
C15 C10 1_555 1_555
H8 C15 1_555 1_555
H9 C15 1_555 1_555
H10 C15 1_555 1_555
C16 C5 1_555 1_555
H11 C16 1_555 1_555
C17 C6 1_555 1_555
H12 C17 1_555 1_555
H13 C17 1_555 1_555
H14 C17 1_555 1_555
C18 C20 1_555 1_555
C19 C26 1_555 1_555
C20 C66 1_555 1_555
C21 C22 1_555 1_555
C22 C18 1_555 1_555
C23 C57 1_555 1_555
C24 C21 1_555 1_555
C25 C38 1_555 1_555
C26 C30 1_555 1_555
C27 C40 1_555 1_555
C28 C37 1_555 1_555
C29 C43 1_555 1_555
C30 C41 1_555 1_555
C31 C55 1_555 1_555
C32 C43 1_555 1_555
C33 C24 1_555 1_555
C34 C40 1_555 1_555
C35 C50 1_555 1_555
C36 C44 1_555 1_555
C37 C45 1_555 1_555
C38 C48 1_555 1_555
C39 C45 1_555 1_555
C40 C46 1_555 1_555
C41 C74 1_555 1_555
C42 C47 1_555 1_555
C43 C84 1_555 1_555
C44 C19 1_555 1_555
C45 C67 1_555 1_555
C46 C26 1_555 1_555
C47 C57 1_555 1_555
C48 C33 1_555 1_555
C49 C56 1_555 1_555
C50 C29 1_555 1_555
C51 C42 1_555 1_555
C52 C30 1_555 1_555
C53 C39 1_555 1_555
C54 C36 1_555 1_555
C55 C67 1_555 1_555
C56 C58 1_555 1_555
C57 C25 1_555 1_555
C58 C59 1_555 1_555
C59 C65 1_555 1_555
C60 C27 1_555 1_555
C61 C35 1_555 1_555
C62 C65 1_555 1_555
C63 C50 1_555 1_555
C64 C28 1_555 1_555
C65 C47 1_555 1_555
C66 C72 1_555 1_555
C67 C51 1_555 1_555
C68 C21 1_555 1_555
C69 C22 1_555 1_555
C70 C71 1_555 1_555
C71 C63 1_555 1_555
C72 C34 1_555 1_555
C73 C39 1_555 1_555
C74 C18 1_555 1_555
C75 C58 1_555 1_555
C76 C19 1_555 1_555
C77 C49 1_555 1_555
C78 C35 1_555 1_555
C79 C44 1_555 1_555
C80 C29 1_555 1_555
C81 C41 1_555 1_555
C82 C25 1_555 1_555
C83 C31 1_555 1_555
C84 C28 1_555 1_555
C85 C23 1_555 1_555
C86 C20 1_555 1_555
C87 C37 1_555 1_555
C88 C115 1_555 1_555
C89 C124 1_555 1_555
C90 C96 1_555 1_555
C91 C100 1_555 1_555
C92 C106 1_555 1_555
C93 C118 1_555 1_555
C94 C113 1_555 1_555
C95 C121 1_555 1_555
C96 C120 1_555 1_555
C97 C126 1_555 1_555
C98 C99 1_555 1_555
C99 C114 1_555 1_555
C100 C117 1_555 1_555
C101 C98 1_555 1_555
C102 C104 1_555 1_555
C103 C90 1_555 1_555
C104 C103 1_555 1_555
C105 C146 1_555 1_555
C106 C123 1_555 1_555
C107 C114 1_555 1_555
C108 C119 1_555 1_555
C109 C112 1_555 1_555
C110 C102 1_555 1_555
C111 C127 1_555 1_555
C112 C138 1_555 1_555
C113 C115 1_555 1_555
C114 C125 1_555 1_555
C115 C104 1_555 1_555
C116 C94 1_555 1_555
C117 C133 1_555 1_555
C118 C126 1_555 1_555
C119 C107 1_555 1_555
C120 C102 1_555 1_555
C121 C90 1_555 1_555
C122 C88 1_555 1_555
C123 C134 1_555 1_555
C124 C128 1_555 1_555
C125 C138 1_555 1_555
C126 C120 1_555 1_555
C127 C119 1_555 1_555
C128 C110 1_555 1_555
C129 C91 1_555 1_555
C130 C88 1_555 1_555
C131 C93 1_555 1_555
C132 C95 1_555 1_555
C133 C96 1_555 1_555
C134 C135 1_555 1_555
C135 C92 1_555 1_555
C136 C122 1_555 1_555
C137 C111 1_555 1_555
C138 C101 1_555 1_555
C139 C99 1_555 1_555
C140 C89 1_555 1_555
C141 C108 1_555 1_555
C142 C110 1_555 1_555
C143 C117 1_555 1_555
C144 C124 1_555 1_555
C145 C107 1_555 1_555
C146 C108 1_555 1_555
C147 C137 1_555 1_555
C148 C89 1_555 1_555
C149 C97 1_555 1_555
C150 C101 1_555 1_555
C151 C95 1_555 1_555
C152 C116 1_555 1_555
C153 C105 1_555 1_555
C154 C105 1_555 1_555
C155 C91 1_555 1_555
C156 C139 1_555 1_555
C157 C92 1_555 1_555
S1D C7D 1_555 1_555
S2D C2D 1_555 1_555
S3D C2D 1_555 1_555
S4D C5D 1_555 1_555
C1D H1D 1_555 1_555
C2D C7D 1_555 1_555
C3D H2D 1_555 1_555
C4D S3D 1_555 1_555
C5D C3D 1_555 1_555
C6D C9D 1_555 1_555
C7D S4D 1_555 1_555
C8D H3D 1_555 1_555
C9D H4D 1_555 1_555
C10D C8D 1_555 1_555
C11D C11 1_555 1_555
C12D C4D 1_555 1_555
H5D C12D 1_555 1_555
C13D C3D 1_555 1_555
H6D C13D 1_555 1_555
C14D C1D 1_555 1_555
H7D C14D 1_555 1_555
C15D C10D 1_555 1_555
H8D C15D 1_555 1_555
H9D C15D 1_555 1_555
H10D C15D 1_555 1_555
C16D C5D 1_555 1_555
H11D C16D 1_555 1_555
C17D C6D 1_555 1_555
H12D C17D 1_555 1_555
H13D C17D 1_555 1_555
H14D C17D 1_555 1_555
S2 C11 1_555 1_555
C1 C4 1_555 1_555
C6 C12 1_555 1_555
C8 C13 1_555 1_555
C9 C14 1_555 1_555
C10 C16 1_555 1_555
C23 C68 1_555 1_555
C24 C74 1_555 1_555
C27 C76 1_555 1_555
C31 C80 1_555 1_555
C32 C60 1_555 1_555
C32 C64 1_555 1_555
C33 C52 1_555 1_555
C34 C64 1_555 1_555
C36 C52 1_555 1_555
C38 C68 1_555 1_555
C42 C73 1_555 1_555
C46 C81 1_555 1_555
C48 C54 1_555 1_555
C49 C79 1_555 1_555
C51 C83 1_555 1_555
C53 C69 1_555 1_555
C53 C86 1_555 1_555
C54 C77 1_555 1_555
C55 C84 1_555 1_555
C56 C78 1_555 1_555
C59 C82 1_555 1_555
C60 C63 1_555 1_555
C61 C75 1_555 1_555
C61 C80 1_555 1_555
C62 C75 1_555 1_555
C62 C83 1_555 1_555
C66 C81 1_555 1_555
C69 C85 1_555 1_555
C70 C78 1_555 1_555
C70 C79 1_555 1_555
C71 C76 1_555 1_555
C72 C87 1_555 1_555
C73 C85 1_555 1_555
C77 C82 1_555 1_555
C86 C87 1_555 1_555
C93 C148 1_555 1_555
C94 C130 1_555 1_555
C97 C133 1_555 1_555
C98 C131 1_555 1_555
C100 C121 1_555 1_555
C103 C132 1_555 1_555
C106 C130 1_555 1_555
C109 C141 1_555 1_555
C109 C154 1_555 1_555
C111 C145 1_555 1_555
C112 C155 1_555 1_555
C113 C142 1_555 1_555
C116 C157 1_555 1_555
C118 C128 1_555 1_555
C122 C132 1_555 1_555
C123 C136 1_555 1_555
C125 C141 1_555 1_555
C127 C135 1_555 1_555
C129 C151 1_555 1_555
C129 C154 1_555 1_555
C131 C149 1_555 1_555
C134 C146 1_555 1_555
C136 C153 1_555 1_555
C137 C157 1_555 1_555
C139 C148 1_555 1_555
C140 C147 1_555 1_555
C140 C156 1_555 1_555
C142 C144 1_555 1_555
C143 C150 1_555 1_555
C143 C155 1_555 1_555
C144 C152 1_555 1_555
C145 C156 1_555 1_555
C147 C152 1_555 1_555
C149 C150 1_555 1_555
C151 C153 1_555 1_555
S1D C11D 1_555 1_555
S2D C11D 1_555 1_555
C1D C4D 1_555 1_555
C6D C12D 1_555 1_555
C8D C13D 1_555 1_555
C9D C14D 1_555 1_555
C10D C16D 1_555 1_555

#END
