
#######################################################################
#
#                 Cambridge Crystallographic Data Centre
#                                CCDC 
#
#######################################################################
#
# If this CIF has been generated from an entry in the Cambridge 
# Structural Database, then it will include bibliographic, chemical, 
# crystal, experimental, refinement or atomic coordinate data resulting 
# from the CCDC's data processing and validation procedures.
#
#######################################################################

data_PAMHAP
_chemical_formula_moiety         '2(C60),C26 H16 N4 S8,2(C6 H5 Cl1)'
_chemical_name_systematic        
'bis(C60fullerene) 2,3,6,7-tetrakis(3-pyridylsulfanyl)tetrathiafulvalene chlorobenzene solvate'
_symmetry_cell_setting           triclinic
_symmetry_space_group_name_H-M   'P -1'
_symmetry_Int_Tables_number      2
_space_group_name_Hall           '-P 1'
loop_
_symmetry_equiv_pos_site_id
_symmetry_equiv_pos_as_xyz
1 x,y,z
2 -x,-y,-z
_cell_length_a                   10.439(4)
_cell_length_b                   10.466(4)
_cell_length_c                   42.064(18)
_cell_angle_alpha                83.276(15)
_cell_angle_beta                 83.192(15)
_cell_angle_gamma                79.164(17)
_cell_volume                     4460.69
_exptl_crystal_colour            'light black'
_exptl_crystal_description       block
_cell_formula_units_Z            2
loop_
_atom_site_label
_atom_site_type_symbol
_atom_site_fract_x
_atom_site_fract_y
_atom_site_fract_z
S1 S 0.9865(3) 0.7190(3) 0.30915(7)
S2 S 1.1715(3) 0.9036(3) 0.30871(7)
S3 S 1.1715(3) 0.8436(3) 0.38608(6)
S4 S 0.9866(3) 0.6605(3) 0.38627(7)
S5 S 0.9896(3) 0.7534(3) 0.23686(7)
S6 S 1.1924(3) 0.9560(3) 0.23637(7)
S7 S 1.0266(3) 0.5454(3) 0.45434(7)
S8 S 1.2321(3) 0.7491(3) 0.45408(7)
C1 C 1.0152(11) 0.5831(12) 0.2384(3)
C2 C 1.0527(11) 0.7859(12) 0.2713(2)
C3 C 1.1342(11) 0.3689(12) 0.2527(3)
H1 H 1.2002 0.3146 0.2633
C4 C 1.0788(11) 0.7688(11) 0.3638(3)
N1 N 0.9575(13) 0.4015(14) 0.2182(3)
C5 C 1.0564(11) 0.6622(13) 0.4220(3)
N2 N 1.5615(11) 1.0120(12) 0.2191(3)
C6 C 1.0811(11) 0.7901(12) 0.3313(3)
C7 C 0.7947(13) 0.4863(14) 0.4786(3)
H2 H 0.8467 0.4049 0.4828
C8 C 1.1408(12) 0.7454(13) 0.4223(3)
C9 C 1.3632(11) 0.9280(12) 0.2383(3)
C10 C 1.0562(13) 0.3172(15) 0.2349(3)
H3 H 1.0685 0.2273 0.2338
N3 N 1.0431(13) 1.1213(13) 0.4645(3)
C11 C 1.1124(11) 0.5013(13) 0.2544(3)
H4 H 1.1638 0.5367 0.2664
C12 C 0.7812(13) 0.7040(14) 0.4556(3)
H5 H 0.8194 0.7720 0.4447
N4 N 0.6665(11) 0.5003(12) 0.4883(3)
C13 C 1.1853(11) 0.9097(12) 0.4642(3)
C14 C 1.5658(12) 0.8013(13) 0.2514(3)
H6 H 1.6135 0.7280 0.2620
C15 C 1.6255(13) 0.8921(14) 0.2343(3)
H7 H 1.7166 0.8759 0.2320
C16 C 0.8533(12) 0.5852(12) 0.4627(3)
C17 C 1.4293(12) 1.0267(12) 0.2221(3)
H8 H 1.3806 1.1037 0.2134
C18 C 1.1328(14) 1.1513(14) 0.4845(3)
H9 H 1.1181 1.2355 0.4908
C19 C 1.2318(13) 1.0713(14) 0.4943(3)
H10 H 1.2820 1.0956 0.5086
C20 C 0.6445(13) 0.7216(15) 0.4655(3)
H11 H 0.5904 0.8017 0.4612
C21 C 0.9361(12) 0.5279(12) 0.2216(3)
H12 H 0.8659 0.5817 0.2124
C22 C 1.4309(11) 0.8192(12) 0.2531(2)
H13 H 1.3866 0.7560 0.2643
C23 C 1.1345(12) 0.8700(13) 0.2710(3)
C24 C 0.5957(13) 0.6185(14) 0.4813(3)
H14 H 0.5063 0.6307 0.4878
C25 C 1.0717(12) 0.9929(13) 0.4550(3)
H15 H 1.0158 0.9643 0.4428
C26 C 1.2624(15) 0.9545(16) 0.4840(3)
H16 H 1.3381 0.8995 0.4901
Cl1 Cl 0.8840(3) 0.0811(3) 0.21477(8)
C27 C 0.9938(14) 0.0618(14) 0.1083(3)
H17 H 1.0142 0.0603 0.0862
C28 C 1.0226(13) 0.1337(14) 0.1586(3)
H18 H 1.0670 0.1790 0.1702
C29 C 0.8996(13) -0.0068(14) 0.1249(3)
H19 H 0.8560 -0.0540 0.1137
C30 C 0.8705(14) -0.0057(14) 0.1574(3)
H20 H 0.8123 -0.0564 0.1685
C31 C 0.9283(13) 0.0711(14) 0.1733(3)
C32 C 1.0532(15) 0.1292(16) 0.1250(3)
H21 H 1.1167 0.1747 0.1143
Cl2 Cl 0.8047(6) 0.0451(6) 0.03726(13)
C33 C 0.7826(10) -0.0810(11) -0.0117(3)
H22 H 0.7126 -0.0139 -0.0158
C34 C 0.8539(12) -0.0799(11) 0.0141(2)
C35 C 0.9585(11) -0.1802(13) 0.0202(2)
H23 H 1.0062 -0.1795 0.0375
C36 C 0.9919(11) -0.2814(11) 0.0005(3)
H24 H 1.0619 -0.3485 0.0046
C37 C 0.9206(13) -0.2824(11) -0.0253(3)
H25 H 0.9430 -0.3502 -0.0386
C38 C 0.8160(12) -0.1822(13) -0.0315(2)
H26 H 0.7683 -0.1829 -0.0487
C39 C 0.3151(13) 0.1893(16) 0.3229(3)
C40 C 0.2693(15) 0.1856(17) 0.3802(3)
C41 C 0.4187(18) 0.395(2) 0.2875(4)
C42 C 0.7338(18) 0.4861(19) 0.2992(4)
C43 C 0.6429(17) 0.0933(17) 0.2870(4)
C44 C 0.3458(19) 0.532(2) 0.3291(5)
C45 C 0.4722(16) -0.0220(16) 0.3894(4)
C46 C 0.6479(16) -0.0665(16) 0.3464(4)
C47 C 0.8408(15) 0.3823(18) 0.3041(4)
C48 C 0.3123(15) 0.5268(18) 0.3611(4)
C49 C 0.8490(14) 0.4297(17) 0.3586(4)
C50 C 0.9294(17) 0.214(2) 0.3475(5)
C51 C 0.5140(17) 0.4889(17) 0.2872(3)
C52 C 0.410(2) 0.488(2) 0.4110(5)
C53 C 0.8511(15) 0.3469(18) 0.3884(4)
C54 C 0.5196(16) -0.0211(17) 0.3331(4)
C55 C 0.8960(15) 0.2132(19) 0.3825(4)
C56 C 0.6986(15) 0.2695(16) 0.4318(3)
C57 C 0.4268(18) 0.0601(18) 0.4130(4)
C58 C 0.4712(15) 0.2703(17) 0.2795(3)
C59 C 0.2663(15) 0.3279(19) 0.3308(4)
C60 C 0.8485(14) 0.0141(14) 0.3515(3)
C61 C 0.3172(17) 0.3988(19) 0.4097(4)
C62 C 0.8469(15) 0.1481(16) 0.3028(3)
C63 C 0.8159(14) 0.2726(17) 0.2886(3)
C64 C 0.3119(15) 0.1071(17) 0.3530(4)
C65 C 0.6437(17) 0.4391(19) 0.2794(4)
C66 C 0.5261(16) 0.4528(17) 0.4241(4)
C67 C 0.3257(17) 0.1572(19) 0.4069(4)
C68 C 0.695(2) -0.028(2) 0.3999(5)
C69 C 0.3559(17) 0.277(2) 0.4244(4)
C70 C 0.5553(17) 0.3117(19) 0.4390(3)
C71 C 0.6523(18) 0.5584(18) 0.3796(4)
C72 C 0.6030(16) 0.2278(18) 0.2739(3)
C73 C 0.5278(16) 0.0973(17) 0.4325(3)
C74 C 0.8941(14) 0.3527(17) 0.3316(4)
C75 C 0.7589(17) 0.0478(18) 0.3028(4)
C76 C 0.8157(16) 0.0078(17) 0.3844(4)
C77 C 0.8433(17) 0.1178(19) 0.4006(4)
C78 C 0.4087(15) 0.1655(16) 0.2986(3)
C79 C 0.907(2) 0.119(2) 0.3322(6)
C80 C 0.6237(19) -0.0686(18) 0.3827(4)
C81 C 0.402(2) 0.573(2) 0.3809(5)
C82 C 0.6878(16) 0.3185(17) 0.2734(3)
C83 C 0.7526(16) 0.3679(17) 0.4130(3)
C84 C 0.259(2) 0.424(2) 0.3813(5)
C85 C 0.4201(15) 0.0034(16) 0.3586(4)
C86 C 0.2346(16) 0.325(2) 0.3651(5)
C87 C 0.760(2) -0.024(2) 0.3311(5)
C88 C 0.6861(17) 0.5640(18) 0.3224(4)
C89 C 0.5115(18) 0.0546(18) 0.3039(4)
C90 C 0.6483(17) 0.4863(17) 0.4076(4)
C91 C 0.638(2) 0.054(2) 0.4241(5)
C92 C 0.4762(17) 0.2296(18) 0.4390(4)
C93 C 0.747(2) 0.153(2) 0.4254(5)
C94 C 0.7470(15) 0.5417(15) 0.3528(3)
C95 C 0.467(2) 0.569(2) 0.3122(5)
C96 C 0.5458(17) 0.6100(17) 0.3310(4)
C97 C 0.3212(17) 0.425(2) 0.3122(4)
C98 C 0.5237(18) 0.6079(19) 0.3663(5)
C99 C 0.5279(13) 0.7926(15) 0.0484(3)
C100 C 0.4899(10) 0.8765(12) 0.0734(3)
C101 C 0.5973(12) 0.8637(11) 0.0920(2)
C102 C 0.7016(9) 0.7719(12) 0.0786(3)
C103 C 0.6587(13) 0.7279(12) 0.0517(3)
C104 C 0.4394(10) 0.7931(14) 0.1710(3)
C105 C 0.5694(12) 0.7265(12) 0.1745(2)
C106 C 0.6515(9) 0.7685(12) 0.1475(3)
C107 C 0.5723(12) 0.8612(12) 0.1273(2)
C108 C 0.4412(10) 0.8764(13) 0.1419(3)
C109 C 0.1833(12) 0.6196(17) 0.1651(3)
C110 C 0.2267(15) 0.7411(13) 0.1635(3)
C111 C 0.3352(15) 0.7230(14) 0.1820(4)
C112 C 0.3590(13) 0.5903(16) 0.1950(3)
C113 C 0.2651(16) 0.5264(13) 0.1846(4)
C114 C 0.1469(13) 0.6653(9) 0.1091(3)
C115 C 0.1426(11) 0.5746(12) 0.1369(2)
C116 C 0.1774(11) 0.4467(10) 0.1268(3)
C117 C 0.2032(13) 0.4584(12) 0.0928(3)
C118 C 0.1844(14) 0.5935(14) 0.0818(2)
C119 C 0.2550(8) 0.3611(11) 0.1498(2)
C120 C 0.3582(11) 0.2688(10) 0.1362(2)
C121 C 0.4659(9) 0.2538(11) 0.1548(3)
C122 C 0.4292(11) 0.3368(14) 0.1800(2)
C123 C 0.2989(11) 0.4031(11) 0.1769(2)
C124 C 0.6938(17) 0.303(2) 0.1500(5)
C125 C 0.7359(17) 0.3053(17) 0.0925(5)
C126 C 0.6014(14) 0.5300(14) 0.0334(3)
C127 C 0.6249(13) 0.3983(13) 0.0472(3)
C128 C 0.7313(13) 0.3830(13) 0.0662(3)
C129 C 0.7735(13) 0.5052(17) 0.0642(4)
C130 C 0.6933(17) 0.5961(12) 0.0439(4)
C131 C 0.593(2) 0.2348(18) 0.1366(4)
C132 C 0.1869(14) 0.7857(17) 0.1084(4)
C133 C 0.2288(17) 0.8216(18) 0.1365(3)
C134 C 0.3333(17) 0.8915(17) 0.1269(3)
C135 C 0.3560(13) 0.8988(14) 0.0928(3)
C136 C 0.2656(15) 0.8334(16) 0.0814(3)
C137 C 0.4795(13) 0.5196(15) 0.1982(3)
C138 C 0.5192(14) 0.3887(13) 0.1904(3)
C139 C 0.6505(13) 0.3748(13) 0.1759(4)
C140 C 0.6919(13) 0.4971(17) 0.1748(5)
C141 C 0.5863(18) 0.5866(12) 0.1886(4)
C142 C 0.5146(10) 0.2544(12) 0.0857(3)
C143 C 0.3840(12) 0.2704(13) 0.1006(3)
C144 C 0.3044(9) 0.3641(13) 0.0808(3)
C145 C 0.3859(11) 0.4060(12) 0.0536(2)
C146 C 0.5157(10) 0.3382(13) 0.0566(3)
C147 C 0.7736(13) 0.5411(13) 0.1478(2)
C148 C 0.8128(12) 0.4643(9) 0.1215(3)
C149 C 0.8174(11) 0.5504(11) 0.0929(2)
C150 C 0.7810(11) 0.6805(9) 0.1014(2)
C151 C 0.7540(12) 0.6748(11) 0.1354(2)
C152 C 0.603(3) 0.228(2) 0.1045(5)
C153 C 0.4409(18) 0.7393(15) 0.0378(5)
C154 C 0.3111(17) 0.7587(16) 0.0532(5)
C155 C 0.2660(14) 0.638(2) 0.0565(5)
C156 C 0.3679(18) 0.5433(14) 0.0430(4)
C157 C 0.4760(14) 0.6062(16) 0.0315(3)
C158 C 0.770(2) 0.334(2) 0.1194(6)
loop_
_geom_bond_atom_site_label_1
_geom_bond_atom_site_label_2
_geom_bond_site_symmetry_1
_geom_bond_site_symmetry_2
S1 C2 1_555 1_555
S2 C6 1_555 1_555
S3 C4 1_555 1_555
S4 C4 1_555 1_555
S5 C1 1_555 1_555
S6 C9 1_555 1_555
S7 C5 1_555 1_555
S8 C8 1_555 1_555
C1 C11 1_555 1_555
C2 S5 1_555 1_555
C3 H1 1_555 1_555
C4 C6 1_555 1_555
N1 C10 1_555 1_555
C5 S4 1_555 1_555
N2 C15 1_555 1_555
C6 S1 1_555 1_555
C7 H2 1_555 1_555
C8 S3 1_555 1_555
C9 C17 1_555 1_555
C10 C3 1_555 1_555
H3 C10 1_555 1_555
N3 C18 1_555 1_555
C11 C3 1_555 1_555
H4 C11 1_555 1_555
C12 H5 1_555 1_555
N4 C7 1_555 1_555
C13 S8 1_555 1_555
C14 H6 1_555 1_555
C15 C14 1_555 1_555
H7 C15 1_555 1_555
C16 S7 1_555 1_555
C17 N2 1_555 1_555
H8 C17 1_555 1_555
C18 H9 1_555 1_555
C19 C18 1_555 1_555
H10 C19 1_555 1_555
C20 C12 1_555 1_555
H11 C20 1_555 1_555
C21 C1 1_555 1_555
H12 C21 1_555 1_555
C22 C9 1_555 1_555
H13 C22 1_555 1_555
C23 S2 1_555 1_555
C24 N4 1_555 1_555
H14 C24 1_555 1_555
C25 N3 1_555 1_555
H15 C25 1_555 1_555
C26 C13 1_555 1_555
H16 C26 1_555 1_555
Cl1 C31 1_555 1_555
C27 H17 1_555 1_555
C28 H18 1_555 1_555
C29 C27 1_555 1_555
H19 C29 1_555 1_555
C30 C29 1_555 1_555
H20 C30 1_555 1_555
C31 C28 1_555 1_555
C32 C27 1_555 1_555
H21 C32 1_555 1_555
Cl2 C34 1_555 1_555
C33 H22 1_555 1_555
C34 C33 1_555 1_555
C35 C34 1_555 1_555
H23 C35 1_555 1_555
C36 C35 1_555 1_555
H24 C36 1_555 1_555
C37 C36 1_555 1_555
H25 C37 1_555 1_555
C38 C33 1_555 1_555
H26 C38 1_555 1_555
C39 C59 1_555 1_555
C40 C64 1_555 1_555
C41 C51 1_555 1_555
C42 C47 1_555 1_555
C43 C72 1_555 1_555
C44 C48 1_555 1_555
C45 C57 1_555 1_555
C46 C54 1_555 1_555
C47 C63 1_555 1_555
C48 C81 1_555 1_555
C49 C53 1_555 1_555
C50 C55 1_555 1_555
C51 C65 1_555 1_555
C52 C61 1_555 1_555
C53 C55 1_555 1_555
C54 C85 1_555 1_555
C55 C77 1_555 1_555
C56 C70 1_555 1_555
C57 C67 1_555 1_555
C58 C41 1_555 1_555
C59 C86 1_555 1_555
C60 C76 1_555 1_555
C61 C69 1_555 1_555
C62 C63 1_555 1_555
C63 C82 1_555 1_555
C64 C39 1_555 1_555
C65 C42 1_555 1_555
C66 C52 1_555 1_555
C67 C40 1_555 1_555
C68 C76 1_555 1_555
C69 C67 1_555 1_555
C70 C66 1_555 1_555
C71 C90 1_555 1_555
C72 C58 1_555 1_555
C73 C57 1_555 1_555
C74 C47 1_555 1_555
C75 C43 1_555 1_555
C76 C77 1_555 1_555
C77 C93 1_555 1_555
C78 C39 1_555 1_555
C79 C50 1_555 1_555
C80 C45 1_555 1_555
C81 C52 1_555 1_555
C82 C65 1_555 1_555
C83 C53 1_555 1_555
C84 C48 1_555 1_555
C85 C45 1_555 1_555
C86 C40 1_555 1_555
C87 C46 1_555 1_555
C88 C42 1_555 1_555
C89 C43 1_555 1_555
C90 C66 1_555 1_555
C91 C68 1_555 1_555
C92 C69 1_555 1_555
C93 C56 1_555 1_555
C94 C49 1_555 1_555
C95 C44 1_555 1_555
C96 C88 1_555 1_555
C97 C41 1_555 1_555
C98 C71 1_555 1_555
C99 C100 1_555 1_555
C100 C101 1_555 1_555
C101 C102 1_555 1_555
C102 C103 1_555 1_555
C103 C99 1_555 1_555
C104 C105 1_555 1_555
C105 C106 1_555 1_555
C106 C107 1_555 1_555
C107 C101 1_555 1_555
C108 C104 1_555 1_555
C109 C110 1_555 1_555
C110 C111 1_555 1_555
C111 C104 1_555 1_555
C112 C111 1_555 1_555
C113 C109 1_555 1_555
C114 C115 1_555 1_555
C115 C109 1_555 1_555
C116 C115 1_555 1_555
C117 C116 1_555 1_555
C118 C114 1_555 1_555
C119 C116 1_555 1_555
C120 C119 1_555 1_555
C121 C120 1_555 1_555
C122 C121 1_555 1_555
C123 C113 1_555 1_555
C124 C131 1_555 1_555
C125 C128 1_555 1_555
C126 C127 1_555 1_555
C127 C128 1_555 1_555
C128 C129 1_555 1_555
C129 C130 1_555 1_555
C130 C103 1_555 1_555
C131 C121 1_555 1_555
C132 C114 1_555 1_555
C133 C110 1_555 1_555
C134 C108 1_555 1_555
C135 C100 1_555 1_555
C136 C132 1_555 1_555
C137 C112 1_555 1_555
C138 C122 1_555 1_555
C139 C124 1_555 1_555
C140 C139 1_555 1_555
C141 C105 1_555 1_555
C142 C143 1_555 1_555
C143 C120 1_555 1_555
C144 C117 1_555 1_555
C145 C144 1_555 1_555
C146 C127 1_555 1_555
C147 C140 1_555 1_555
C148 C147 1_555 1_555
C149 C129 1_555 1_555
C150 C102 1_555 1_555
C151 C106 1_555 1_555
C152 C125 1_555 1_555
C153 C99 1_555 1_555
C154 C136 1_555 1_555
C155 C118 1_555 1_555
C156 C145 1_555 1_555
C157 C126 1_555 1_555
C158 C124 1_555 1_555
S6 C23 1_555 1_555
C2 C23 1_555 1_555
N1 C21 1_555 1_555
C5 C8 1_555 1_555
C7 C16 1_555 1_555
C12 C16 1_555 1_555
C13 C25 1_555 1_555
C14 C22 1_555 1_555
C19 C26 1_555 1_555
C20 C24 1_555 1_555
C28 C32 1_555 1_555
C30 C31 1_555 1_555
C37 C38 1_555 1_555
C44 C97 1_555 1_555
C46 C80 1_555 1_555
C49 C74 1_555 1_555
C50 C74 1_555 1_555
C51 C95 1_555 1_555
C54 C89 1_555 1_555
C56 C83 1_555 1_555
C58 C78 1_555 1_555
C59 C97 1_555 1_555
C60 C79 1_555 1_555
C60 C87 1_555 1_555
C61 C84 1_555 1_555
C62 C75 1_555 1_555
C62 C79 1_555 1_555
C64 C85 1_555 1_555
C68 C80 1_555 1_555
C70 C92 1_555 1_555
C71 C94 1_555 1_555
C72 C82 1_555 1_555
C73 C91 1_555 1_555
C73 C92 1_555 1_555
C75 C87 1_555 1_555
C78 C89 1_555 1_555
C81 C98 1_555 1_555
C83 C90 1_555 1_555
C84 C86 1_555 1_555
C88 C94 1_555 1_555
C91 C93 1_555 1_555
C95 C96 1_555 1_555
C96 C98 1_555 1_555
C107 C108 1_555 1_555
C112 C113 1_555 1_555
C117 C118 1_555 1_555
C119 C123 1_555 1_555
C122 C123 1_555 1_555
C125 C158 1_555 1_555
C126 C130 1_555 1_555
C131 C152 1_555 1_555
C132 C133 1_555 1_555
C133 C134 1_555 1_555
C134 C135 1_555 1_555
C135 C136 1_555 1_555
C137 C138 1_555 1_555
C137 C141 1_555 1_555
C138 C139 1_555 1_555
C140 C141 1_555 1_555
C142 C146 1_555 1_555
C142 C152 1_555 1_555
C143 C144 1_555 1_555
C145 C146 1_555 1_555
C147 C151 1_555 1_555
C148 C149 1_555 1_555
C148 C158 1_555 1_555
C149 C150 1_555 1_555
C150 C151 1_555 1_555
C153 C154 1_555 1_555
C153 C157 1_555 1_555
C154 C155 1_555 1_555
C155 C156 1_555 1_555
C156 C157 1_555 1_555

#END
