
#######################################################################
#
#                 Cambridge Crystallographic Data Centre
#                                CCDC 
#
#######################################################################
#
# If this CIF has been generated from an entry in the Cambridge 
# Structural Database, then it will include bibliographic, chemical, 
# crystal, experimental, refinement or atomic coordinate data resulting 
# from the CCDC's data processing and validation procedures.
#
#######################################################################

data_PAMKAP
_chemical_formula_moiety         'C30 H45 N1 O4'
_chemical_name_systematic        
(22S,25R)-N-Formyl-22-N-spirosol-5-en-3\b-yl-acetate
_symmetry_cell_setting           orthorhombic
_symmetry_space_group_name_H-M   'P 21 21 21'
_symmetry_Int_Tables_number      19
_space_group_name_Hall           'P 2ac 2ab'
loop_
_symmetry_equiv_pos_site_id
_symmetry_equiv_pos_as_xyz
1 x,y,z
2 1/2+x,1/2-y,-z
3 -x,1/2+y,1/2-z
4 1/2-x,-y,1/2+z
_cell_length_a                   35.1700(7)
_cell_length_b                   10.2680(9)
_cell_length_c                   7.4900(3)
_cell_angle_alpha                90
_cell_angle_beta                 90
_cell_angle_gamma                90
_cell_volume                     2704.83
_exptl_crystal_colour            colorless
_chemical_melting_point          '194-196 deg.C'
_cell_formula_units_Z            4
loop_
_atom_site_label
_atom_site_type_symbol
_atom_site_fract_x
_atom_site_fract_y
_atom_site_fract_z
C1 C 0.8683(2) 0.3284(6) 0.4696(7)
C2 C 0.9117(1) 0.3366(6) 0.4925(8)
C3 C 0.9195(1) 0.4123(5) 0.6600(7)
C4 C 0.9749(2) 0.5325(6) 0.7346(7)
C5 C 1.0185(2) 0.5340(1) 0.7310(1)
C6 C 0.9024(1) 0.3458(6) 0.8249(6)
C7 C 0.8609(1) 0.3278(5) 0.8044(6)
C8 C 0.8362(1) 0.3627(5) 0.9331(7)
C9 C 0.7945(1) 0.3508(6) 0.9285(7)
C10 C 0.7803(1) 0.2670(4) 0.7706(6)
C11 C 0.8040(1) 0.2918(5) 0.6013(6)
C12 C 0.8469(1) 0.2649(4) 0.6273(6)
C13 C 0.7875(1) 0.2219(6) 0.4380(6)
C14 C 0.7448(1) 0.2466(5) 0.4057(7)
C15 C 0.7214(1) 0.2132(5) 0.5749(6)
C16 C 0.7385(1) 0.2911(5) 0.7334(6)
C17 C 0.7092(1) 0.2722(6) 0.8835(7)
C18 C 0.6721(1) 0.2937(6) 0.7779(6)
C19 C 0.6802(1) 0.2685(5) 0.5772(6)
C20 C 0.7227(1) 0.0680(5) 0.6082(9)
C21 C 0.8555(1) 0.1194(6) 0.6350(9)
C22 C 0.6476(1) 0.1781(5) 0.5162(6)
C23 C 0.6326(2) 0.2120(6) 0.3284(7)
C24 C 0.6187(1) 0.1902(5) 0.6720(7)
C25 C 0.5922(1) 0.3081(5) 0.6543(7)
C26 C 0.5668(2) 0.3201(6) 0.8177(8)
C27 C 0.5445(2) 0.1993(7) 0.8563(9)
C28 C 0.5705(2) 0.0843(7) 0.8714(7)
C29 C 0.5112(2) 0.1805(9) 0.7170(1)
N1 N 0.5959(1) 0.0756(4) 0.7049(6)
C30 C 0.5952(2) -0.0327(5) 0.6171(8)
O1 O 0.96067(9) 0.4229(4) 0.6807(6)
O2 O 0.9567(1) 0.6277(6) 0.7754(7)
O3 O 0.64305(8) 0.2035(3) 0.8255(4)
O4 O 0.5759(1) -0.1276(5) 0.6447(6)
loop_
_geom_bond_atom_site_label_1
_geom_bond_atom_site_label_2
_geom_bond_site_symmetry_1
_geom_bond_site_symmetry_2
C1 C2 1_555 1_555
C2 C3 1_555 1_555
C3 C6 1_555 1_555
C4 C5 1_555 1_555
C6 C7 1_555 1_555
C7 C8 1_555 1_555
C8 C9 1_555 1_555
C9 C10 1_555 1_555
C10 C11 1_555 1_555
C11 C12 1_555 1_555
C12 C1 1_555 1_555
C13 C11 1_555 1_555
C14 C13 1_555 1_555
C15 C14 1_555 1_555
C16 C10 1_555 1_555
C17 C16 1_555 1_555
C18 C17 1_555 1_555
C19 C15 1_555 1_555
C20 C15 1_555 1_555
C21 C12 1_555 1_555
C22 C19 1_555 1_555
C23 C22 1_555 1_555
C24 C22 1_555 1_555
C25 C24 1_555 1_555
C26 C25 1_555 1_555
C27 C26 1_555 1_555
C28 C27 1_555 1_555
C29 C27 1_555 1_555
N1 C24 1_555 1_555
C30 N1 1_555 1_555
O1 C3 1_555 1_555
O2 C4 1_555 1_555
O3 C18 1_555 1_555
O4 C30 1_555 1_555
C4 O1 1_555 1_555
C7 C12 1_555 1_555
C15 C16 1_555 1_555
C18 C19 1_555 1_555
C24 O3 1_555 1_555
C28 N1 1_555 1_555

#END
