
#######################################################################
#
#                 Cambridge Crystallographic Data Centre
#                                CCDC 
#
#######################################################################
#
# If this CIF has been generated from an entry in the Cambridge 
# Structural Database, then it will include bibliographic, chemical, 
# crystal, experimental, refinement or atomic coordinate data resulting 
# from the CCDC's data processing and validation procedures.
#
#######################################################################

data_PAMLEX
_chemical_formula_moiety         'C38 H37 N3 O4'
_chemical_name_systematic        
3',6'-bis(diethylamino)-2-(4-methyl-2-oxo-2H-chromen-7-yl)spiro[isoindole-1,9'-xanthen]-3(2H)-one
_symmetry_cell_setting           triclinic
_symmetry_space_group_name_H-M   'P -1'
_symmetry_Int_Tables_number      2
_space_group_name_Hall           '-P 1'
loop_
_symmetry_equiv_pos_site_id
_symmetry_equiv_pos_as_xyz
1 x,y,z
2 -x,-y,-z
_cell_length_a                   9.6575(3)
_cell_length_b                   12.1006(4)
_cell_length_c                   15.5767(5)
_cell_angle_alpha                108.837(2)
_cell_angle_beta                 92.772(2)
_cell_angle_gamma                94.376(2)
_cell_volume                     1712.65
_exptl_crystal_colour            colorless
_exptl_crystal_description       block
_cell_formula_units_Z            2
loop_
_atom_site_label
_atom_site_type_symbol
_atom_site_fract_x
_atom_site_fract_y
_atom_site_fract_z
C1 C 0.07124(19) 0.23535(15) 0.19192(12)
C2 C 0.0547(2) 0.12245(16) 0.21384(13)
C3 C -0.0209(2) 0.11267(19) 0.28518(16)
H1 H -0.0573 0.1791 0.3222
C4 C -0.0443(3) 0.0100(2) 0.30349(16)
H2 H -0.0953 0.0082 0.3522
C5 C 0.0078(2) -0.09238(18) 0.24970(15)
C6 C 0.0882(3) -0.08312(18) 0.17973(15)
H3 H 0.1279 -0.1484 0.1438
C7 C 0.1092(2) 0.02230(16) 0.16364(13)
C8 C 0.2168(2) 0.11838(16) 0.07035(13)
C9 C 0.3019(3) 0.10562(18) -0.00082(14)
H4 H 0.3363 0.0338 -0.0278
C10 C 0.3363(2) 0.19821(18) -0.03230(13)
C11 C 0.2836(2) 0.30490(19) 0.01273(15)
H5 H 0.3057 0.3698 -0.0054
C12 C 0.2001(2) 0.31496(18) 0.08296(15)
H6 H 0.1663 0.3868 0.1108
C13 C 0.1638(2) 0.22187(16) 0.11434(12)
C14 C -0.1100(3) -0.2108(2) 0.3327(2)
H7 H -0.1540 -0.2906 0.3124
H8 H -0.1827 -0.1588 0.3360
C15 C -0.0402(5) -0.1846(3) 0.4250(2)
H9 H -0.1074 -0.1957 0.4656
H10 H 0.0009 -0.1049 0.4465
H11 H 0.0311 -0.2365 0.4225
C16 C 0.0636(4) -0.2990(2) 0.2203(2)
H12 H 0.1572 -0.2695 0.2137
H13 H 0.0706 -0.3477 0.2588
C17 C -0.0005(5) -0.3708(3) 0.1311(3)
H14 H 0.0551 -0.4340 0.1049
H15 H -0.0063 -0.3235 0.0923
H16 H -0.0923 -0.4022 0.1374
C18 C 0.4922(3) 0.0764(3) -0.1412(2)
H17 H 0.5772 0.0953 -0.1664
H18 H 0.5173 0.0457 -0.0928
C19 C 0.4033(5) -0.0120(4) -0.2114(3)
H19 H 0.4513 -0.0810 -0.2345
H20 H 0.3800 0.0176 -0.2599
H21 H 0.3196 -0.0315 -0.1863
C20 C 0.4433(3) 0.2768(2) -0.14417(17)
H22 H 0.3608 0.3188 -0.1397
H23 H 0.4554 0.2401 -0.2083
C21 C 0.5654(3) 0.3620(3) -0.1023(2)
H24 H 0.5746 0.4190 -0.1330
H25 H 0.6479 0.3215 -0.1074
H26 H 0.5530 0.4008 -0.0392
C22 C 0.24621(19) 0.33749(15) 0.32866(12)
C23 C 0.3725(2) 0.32188(19) 0.28881(14)
H27 H 0.3757 0.3107 0.2270
C24 C 0.4913(2) 0.32285(19) 0.33997(14)
H28 H 0.5747 0.3119 0.3122
C25 C 0.4913(2) 0.33982(16) 0.43294(13)
C26 C 0.3642(2) 0.35604(16) 0.47123(12)
C27 C 0.2427(2) 0.35471(16) 0.42105(13)
H29 H 0.1592 0.3652 0.4486
C28 C 0.6147(2) 0.34342(18) 0.49097(14)
C29 C 0.7525(2) 0.3293(3) 0.45116(17)
H30 H 0.7404 0.3172 0.3871
H31 H 0.7911 0.2629 0.4605
H32 H 0.8146 0.3987 0.4802
C30 C 0.6004(2) 0.36141(19) 0.57915(15)
H33 H 0.6796 0.3653 0.6168
C31 C 0.4691(2) 0.3751(2) 0.61868(15)
C32 C -0.0681(2) 0.27374(16) 0.17074(13)
C33 C -0.1656(2) 0.2177(2) 0.09827(15)
H34 H -0.1498 0.1476 0.0544
C34 C -0.2869(3) 0.2696(2) 0.09363(17)
H35 H -0.3538 0.2337 0.0457
C35 C -0.3112(2) 0.3738(2) 0.15863(17)
H36 H -0.3941 0.4065 0.1538
C36 C -0.2142(2) 0.42979(19) 0.23041(15)
H37 H -0.2299 0.4999 0.2743
C37 C -0.0926(2) 0.37764(16) 0.23465(13)
C38 C 0.0279(2) 0.41820(16) 0.30230(13)
N1 N 0.12277(16) 0.33660(13) 0.27583(10)
N2 N -0.0161(3) -0.19760(18) 0.26609(16)
N3 N 0.4207(2) 0.18576(18) -0.10277(14)
O1 O 0.19072(19) 0.01824(12) 0.09264(10)
O2 O 0.04380(16) 0.50642(13) 0.36854(11)
O3 O 0.35417(15) 0.37373(14) 0.56229(9)
O4 O 0.44911(19) 0.38927(17) 0.69694(11)
loop_
_geom_bond_atom_site_label_1
_geom_bond_atom_site_label_2
_geom_bond_site_symmetry_1
_geom_bond_site_symmetry_2
C1 C2 1_555 1_555
C2 C3 1_555 1_555
C3 H1 1_555 1_555
C4 C3 1_555 1_555
H2 C4 1_555 1_555
C5 C4 1_555 1_555
C6 C5 1_555 1_555
H3 C6 1_555 1_555
C7 C2 1_555 1_555
C8 C9 1_555 1_555
C9 H4 1_555 1_555
C10 C9 1_555 1_555
C11 C10 1_555 1_555
H5 C11 1_555 1_555
C12 C11 1_555 1_555
H6 C12 1_555 1_555
C13 C1 1_555 1_555
C14 H7 1_555 1_555
H8 C14 1_555 1_555
C15 C14 1_555 1_555
H9 C15 1_555 1_555
H10 C15 1_555 1_555
H11 C15 1_555 1_555
C16 H12 1_555 1_555
H13 C16 1_555 1_555
C17 C16 1_555 1_555
H14 C17 1_555 1_555
H15 C17 1_555 1_555
H16 C17 1_555 1_555
C18 H17 1_555 1_555
H18 C18 1_555 1_555
C19 C18 1_555 1_555
H19 C19 1_555 1_555
H20 C19 1_555 1_555
H21 C19 1_555 1_555
C20 H22 1_555 1_555
H23 C20 1_555 1_555
C21 C20 1_555 1_555
H24 C21 1_555 1_555
H25 C21 1_555 1_555
H26 C21 1_555 1_555
C22 C23 1_555 1_555
C23 H27 1_555 1_555
C24 C23 1_555 1_555
H28 C24 1_555 1_555
C25 C24 1_555 1_555
C26 C25 1_555 1_555
C27 C22 1_555 1_555
H29 C27 1_555 1_555
C28 C25 1_555 1_555
C29 C28 1_555 1_555
H30 C29 1_555 1_555
H31 C29 1_555 1_555
H32 C29 1_555 1_555
C30 C28 1_555 1_555
H33 C30 1_555 1_555
C31 C30 1_555 1_555
C32 C1 1_555 1_555
C33 C32 1_555 1_555
H34 C33 1_555 1_555
C34 C33 1_555 1_555
H35 C34 1_555 1_555
C35 C34 1_555 1_555
H36 C35 1_555 1_555
C36 C35 1_555 1_555
H37 C36 1_555 1_555
C37 C32 1_555 1_555
C38 C37 1_555 1_555
N1 C1 1_555 1_555
N2 C5 1_555 1_555
N3 C10 1_555 1_555
O1 C7 1_555 1_555
O2 C38 1_555 1_555
O3 C26 1_555 1_555
O4 C31 1_555 1_555
C6 C7 1_555 1_555
C8 C13 1_555 1_555
C8 O1 1_555 1_555
C12 C13 1_555 1_555
C14 N2 1_555 1_555
C16 N2 1_555 1_555
C18 N3 1_555 1_555
C20 N3 1_555 1_555
C22 N1 1_555 1_555
C26 C27 1_555 1_555
C31 O3 1_555 1_555
C36 C37 1_555 1_555
C38 N1 1_555 1_555

#END
