
#######################################################################
#
#                 Cambridge Crystallographic Data Centre
#                                CCDC 
#
#######################################################################
#
# If this CIF has been generated from an entry in the Cambridge 
# Structural Database, then it will include bibliographic, chemical, 
# crystal, experimental, refinement or atomic coordinate data resulting 
# from the CCDC's data processing and validation procedures.
#
#######################################################################

data_PAMLUL
_chemical_compound_source        'soft coral Cladiella sp'
_chemical_formula_moiety         'C27 H40 O3'
_chemical_name_systematic        'Cladiellin A'
_chemical_properties_biological  'antioxidant activity'
_symmetry_cell_setting           orthorhombic
_symmetry_space_group_name_H-M   'P 21 21 21'
_symmetry_Int_Tables_number      19
_space_group_name_Hall           'P 2ac 2ab'
loop_
_symmetry_equiv_pos_site_id
_symmetry_equiv_pos_as_xyz
1 x,y,z
2 1/2-x,-y,1/2+z
3 -x,1/2+y,1/2-z
4 1/2+x,1/2-y,-z
_cell_length_a                   12.0167(16)
_cell_length_b                   13.6419(19)
_cell_length_c                   29.948(4)
_cell_angle_alpha                90
_cell_angle_beta                 90
_cell_angle_gamma                90
_cell_volume                     4909.39
_exptl_crystal_colour            colorless
_exptl_crystal_description       block
_chemical_melting_point          169.5-171.5deg.C
_cell_formula_units_Z            8
loop_
_atom_site_label
_atom_site_type_symbol
_atom_site_fract_x
_atom_site_fract_y
_atom_site_fract_z
C1 C 0.6573(3) 0.4234(2) 0.82332(9)
H1 H 0.6758 0.4002 0.8516
C2 C 0.6811(3) 0.5158(2) 0.81391(12)
H2 H 0.7178 0.5537 0.8351
C3 C 0.6515(3) 0.55983(19) 0.77130(12)
C4 C 0.5963(2) 0.49676(18) 0.73982(10)
H3 H 0.5760 0.5228 0.7123
C5 C 0.5728(2) 0.40287(17) 0.74803(8)
C6 C 0.5251(2) 0.33740(19) 0.71267(9)
H4 H 0.5073 0.3755 0.6863
H5 H 0.4573 0.3070 0.7234
C7 C 0.6107(2) 0.25876(19) 0.70116(8)
H6 H 0.5784 0.2135 0.6798
H7 H 0.6745 0.2895 0.6871
C8 C 0.64988(18) 0.20162(15) 0.74203(7)
H8 H 0.5888 0.1603 0.7528
C9 C 0.68818(18) 0.27001(15) 0.78019(7)
H9 H 0.7550 0.3033 0.7692
C10 C 0.6025(2) 0.35351(16) 0.79160(8)
C11 C 0.7257(2) 0.20955(17) 0.82075(8)
H10 H 0.7491 0.2536 0.8444
H11 H 0.6633 0.1714 0.8318
C12 C 0.8217(2) 0.14046(17) 0.80913(8)
H12 H 0.8872 0.1789 0.8019
H13 H 0.8391 0.1003 0.8349
C13 C 0.79327(18) 0.07414(15) 0.76968(7)
C14 C 0.74953(19) 0.13683(16) 0.73089(7)
H14 H 0.8100 0.1827 0.7242
C15 C 0.7470(3) 0.06623(19) 0.69112(8)
H15 H 0.7531 0.1014 0.6631
H16 H 0.6791 0.0278 0.6910
C16 C 0.8499(3) 0.0006(2) 0.69913(10)
H17 H 0.9074 0.0151 0.6774
H18 H 0.8299 -0.0680 0.6965
C17 C 0.8920(2) 0.02327(17) 0.74683(9)
H19 H 0.9512 0.0723 0.7439
C18 C 0.71192(19) -0.00602(16) 0.78425(8)
H20 H 0.6504 0.0236 0.8003
H21 H 0.6820 -0.0383 0.7580
C19 C 0.4965(2) 0.3126(2) 0.81379(11)
H22 H 0.4464 0.3656 0.8203
H23 H 0.5160 0.2797 0.8410
H24 H 0.4610 0.2671 0.7939
C20 C 0.9402(2) -0.06231(19) 0.77375(10)
H25 H 0.9745 -0.0336 0.8004
C21 C 1.0336(3) -0.1138(3) 0.74819(16)
H26 H 1.0873 -0.0663 0.7385
H27 H 1.0030 -0.1468 0.7227
H28 H 1.0691 -0.1608 0.7674
C22 C 0.8503(2) -0.13355(17) 0.79036(9)
C23 C 0.8921(3) -0.2075(2) 0.82458(10)
H29 H 0.8285 -0.2445 0.8353
H30 H 0.9406 -0.2534 0.8093
C24 C 0.9536(4) -0.1685(2) 0.86452(13)
H31 H 1.0083 -0.1218 0.8538
H32 H 0.9008 -0.1324 0.8827
C28 C 1.0085(18) -0.2348(11) 0.8924(4)
H42 H 1.0845 -0.2467 0.8818
C29 C 1.0099(13) -0.1951(9) 0.9425(3)
H43 H 1.0529 -0.2386 0.9609
H44 H 0.9351 -0.1919 0.9537
H45 H 1.0425 -0.1308 0.9431
C30 C 0.9561(14) -0.3271(10) 0.9066(5)
H46 H 0.9481 -0.3697 0.8813
H47 H 0.8841 -0.3135 0.9191
H48 H 1.0018 -0.3583 0.9287
O1 O 0.6727(2) 0.64639(15) 0.76234(11)
O2 O 0.76511(14) -0.07772(11) 0.81238(6)
O3 O 0.80440(19) -0.18340(12) 0.75331(7)
H49 H 0.7695 -0.2313 0.7620
C31 C 0.0159(3) 0.1498(3) 0.91094(12)
H50 H 0.0124 0.0819 0.9131
C32 C -0.0767(3) 0.2009(5) 0.92014(12)
H51 H -0.1407 0.1674 0.9287
C33 C -0.0797(3) 0.3064(4) 0.91716(12)
C34 C 0.0247(3) 0.3536(3) 0.90780(11)
H52 H 0.0265 0.4217 0.9075
C35 C 0.1197(3) 0.3054(3) 0.89945(9)
C36 C 0.2263(3) 0.3586(3) 0.89174(12)
H53 H 0.2151 0.4281 0.8968
H54 H 0.2495 0.3497 0.8610
C37 C 0.3172(2) 0.3214(2) 0.92273(10)
H55 H 0.2986 0.3383 0.9533
H56 H 0.3870 0.3531 0.9153
C38 C 0.3310(2) 0.2108(2) 0.91899(8)
H57 H 0.3525 0.1955 0.8882
C39 C 0.2207(2) 0.1582(2) 0.92884(9)
H58 H 0.1996 0.1772 0.9592
C40 C 0.1242(2) 0.1949(3) 0.89750(9)
C41 C 0.2336(2) 0.0458(2) 0.92940(12)
H59 H 0.1658 0.0172 0.9412
H60 H 0.2423 0.0229 0.8989
C42 C 0.3320(2) 0.0093(2) 0.95702(10)
H61 H 0.3168 0.0201 0.9884
H62 H 0.3410 -0.0606 0.9524
C43 C 0.4391(2) 0.0613(2) 0.94443(8)
C44 C 0.4205(2) 0.1716(2) 0.94980(8)
H63 H 0.3925 0.1810 0.9802
C45 C 0.5375(2) 0.2169(2) 0.94893(10)
H64 H 0.5411 0.2745 0.9679
H65 H 0.5584 0.2353 0.9188
C46 C 0.6135(3) 0.1347(2) 0.96682(10)
H66 H 0.6714 0.1199 0.9453
H67 H 0.6484 0.1550 0.9945
C47 C 0.5402(2) 0.0439(2) 0.97471(8)
H68 H 0.5136 0.0473 1.0056
C48 C 0.4766(3) 0.0349(2) 0.89675(8)
H69 H 0.4153 0.0453 0.8762
H70 H 0.5372 0.0777 0.8879
C49 C 0.1447(3) 0.1632(3) 0.84780(11)
H71 H 0.0846 0.1862 0.8295
H72 H 0.1488 0.0930 0.8461
H73 H 0.2134 0.1910 0.8374
C50 C 0.5931(2) -0.0566(2) 0.96858(9)
H74 H 0.5403 -0.1043 0.9809
C51 C 0.7010(3) -0.0672(3) 0.99599(11)
H75 H 0.6868 -0.0496 1.0265
H76 H 0.7572 -0.0249 0.9839
H77 H 0.7262 -0.1340 0.9947
C52 C 0.6109(2) -0.0850(2) 0.91922(9)
C53 C 0.6298(3) -0.1941(2) 0.91202(11)
H78 H 0.6436 -0.2049 0.8805
H79 H 0.6967 -0.2128 0.9280
C54 C 0.5365(3) -0.2623(3) 0.92648(14)
H80 H 0.5251 -0.2544 0.9583
H81 H 0.4685 -0.2420 0.9116
C55 C 0.5552(4) -0.3691(3) 0.91695(15)
H82 H 0.5716 -0.3739 0.8850
C56 C 0.4505(5) -0.4274(4) 0.9246(3)
H83 H 0.3898 -0.3971 0.9090
H84 H 0.4342 -0.4291 0.9560
H85 H 0.4607 -0.4930 0.9138
C57 C 0.6530(5) -0.4120(4) 0.9407(2)
H86 H 0.6601 -0.4800 0.9329
H87 H 0.6425 -0.4059 0.9723
H88 H 0.7193 -0.3776 0.9320
O4 O -0.1672(2) 0.3511(3) 0.92237(12)
O5 O 0.51234(18) -0.06494(15) 0.89419(6)
O6 O 0.70144(18) -0.03153(16) 0.90232(7)
H89 H 0.7142 -0.0488 0.8766
H33? H 0.9100 -0.1157 0.8773
H34? H 1.0236 -0.1407 0.8545
C25? C 0.9813(12) -0.2448(11) 0.9031(6)
H35? H 0.9262 -0.2593 0.9262
C26? C 1.1064(14) -0.2130(12) 0.9166(7)
H36? H 1.1052 -0.1488 0.9297
H37? H 1.1524 -0.2123 0.8904
H38? H 1.1359 -0.2591 0.9377
C27? C 1.0495(18) -0.3232(10) 0.8841(5)
H39? H 1.0020 -0.3724 0.8713
H40? H 1.0941 -0.3521 0.9072
H41? H 1.0970 -0.2967 0.8613
loop_
_geom_bond_atom_site_label_1
_geom_bond_atom_site_label_2
_geom_bond_site_symmetry_1
_geom_bond_site_symmetry_2
C1 H1 1_555 1_555
C2 C1 1_555 1_555
H2 C2 1_555 1_555
C3 C2 1_555 1_555
C4 C3 1_555 1_555
H3 C4 1_555 1_555
C5 C4 1_555 1_555
C6 C5 1_555 1_555
H4 C6 1_555 1_555
H5 C6 1_555 1_555
C7 C6 1_555 1_555
H6 C7 1_555 1_555
H7 C7 1_555 1_555
C8 C7 1_555 1_555
H8 C8 1_555 1_555
C9 C8 1_555 1_555
H9 C9 1_555 1_555
C10 C1 1_555 1_555
C11 C9 1_555 1_555
H10 C11 1_555 1_555
H11 C11 1_555 1_555
C12 C11 1_555 1_555
H12 C12 1_555 1_555
H13 C12 1_555 1_555
C13 C12 1_555 1_555
C14 C8 1_555 1_555
H14 C14 1_555 1_555
C15 C14 1_555 1_555
H15 C15 1_555 1_555
H16 C15 1_555 1_555
C16 C15 1_555 1_555
H17 C16 1_555 1_555
H18 C16 1_555 1_555
C17 C13 1_555 1_555
H19 C17 1_555 1_555
C18 C13 1_555 1_555
H20 C18 1_555 1_555
H21 C18 1_555 1_555
C19 C10 1_555 1_555
H22 C19 1_555 1_555
H23 C19 1_555 1_555
H24 C19 1_555 1_555
C20 C17 1_555 1_555
H25 C20 1_555 1_555
C21 C20 1_555 1_555
H26 C21 1_555 1_555
H27 C21 1_555 1_555
H28 C21 1_555 1_555
C22 C20 1_555 1_555
C23 C22 1_555 1_555
H29 C23 1_555 1_555
H30 C23 1_555 1_555
C24 C23 1_555 1_555
H31 C24 1_555 1_555
H32 C24 1_555 1_555
C28 C24 1_555 1_555
H42 C28 1_555 1_555
C29 C28 1_555 1_555
H43 C29 1_555 1_555
H44 C29 1_555 1_555
H45 C29 1_555 1_555
C30 C28 1_555 1_555
H46 C30 1_555 1_555
H47 C30 1_555 1_555
H48 C30 1_555 1_555
O1 C3 1_555 1_555
O2 C18 1_555 1_555
O3 C22 1_555 1_555
H49 O3 1_555 1_555
C31 H50 1_555 1_555
C32 C31 1_555 1_555
H51 C32 1_555 1_555
C33 C32 1_555 1_555
C34 C33 1_555 1_555
H52 C34 1_555 1_555
C35 C34 1_555 1_555
C36 C35 1_555 1_555
H53 C36 1_555 1_555
H54 C36 1_555 1_555
C37 C36 1_555 1_555
H55 C37 1_555 1_555
H56 C37 1_555 1_555
C38 C37 1_555 1_555
H57 C38 1_555 1_555
C39 C38 1_555 1_555
H58 C39 1_555 1_555
C40 C31 1_555 1_555
C41 C39 1_555 1_555
H59 C41 1_555 1_555
H60 C41 1_555 1_555
C42 C41 1_555 1_555
H61 C42 1_555 1_555
H62 C42 1_555 1_555
C43 C42 1_555 1_555
C44 C38 1_555 1_555
H63 C44 1_555 1_555
C45 C44 1_555 1_555
H64 C45 1_555 1_555
H65 C45 1_555 1_555
C46 C45 1_555 1_555
H66 C46 1_555 1_555
H67 C46 1_555 1_555
C47 C43 1_555 1_555
H68 C47 1_555 1_555
C48 C43 1_555 1_555
H69 C48 1_555 1_555
H70 C48 1_555 1_555
C49 C40 1_555 1_555
H71 C49 1_555 1_555
H72 C49 1_555 1_555
H73 C49 1_555 1_555
C50 C47 1_555 1_555
H74 C50 1_555 1_555
C51 C50 1_555 1_555
H75 C51 1_555 1_555
H76 C51 1_555 1_555
H77 C51 1_555 1_555
C52 C50 1_555 1_555
C53 C52 1_555 1_555
H78 C53 1_555 1_555
H79 C53 1_555 1_555
C54 C53 1_555 1_555
H80 C54 1_555 1_555
H81 C54 1_555 1_555
C55 C54 1_555 1_555
H82 C55 1_555 1_555
C56 C55 1_555 1_555
H83 C56 1_555 1_555
H84 C56 1_555 1_555
H85 C56 1_555 1_555
C57 C55 1_555 1_555
H86 C57 1_555 1_555
H87 C57 1_555 1_555
H88 C57 1_555 1_555
O4 C33 1_555 1_555
O5 C48 1_555 1_555
O6 C52 1_555 1_555
H89 O6 1_555 1_555
C5 C10 1_555 1_555
C9 C10 1_555 1_555
C13 C14 1_555 1_555
C16 C17 1_555 1_555
C22 O2 1_555 1_555
C35 C40 1_555 1_555
C39 C40 1_555 1_555
C43 C44 1_555 1_555
C46 C47 1_555 1_555
C52 O5 1_555 1_555

#END
