
#######################################################################
#
#                 Cambridge Crystallographic Data Centre
#                                CCDC 
#
#######################################################################
#
# If this CIF has been generated from an entry in the Cambridge 
# Structural Database, then it will include bibliographic, chemical, 
# crystal, experimental, refinement or atomic coordinate data resulting 
# from the CCDC's data processing and validation procedures.
#
#######################################################################

data_PAMQEC
_chemical_compound_source        'endolichenic fungal Phialocephala fortinii'
_chemical_formula_moiety         'C21 H18 O5'
_chemical_name_systematic        
4-methoxy-3,4-dihydro-2H-spiro[naphthalene-1,2'-naphtho[1,8-de][1,3]dioxine]-3,5-diol
_symmetry_cell_setting           monoclinic
_symmetry_space_group_name_H-M   'P 21'
_symmetry_Int_Tables_number      4
_space_group_name_Hall           'P 2yb'
loop_
_symmetry_equiv_pos_site_id
_symmetry_equiv_pos_as_xyz
1 x,y,z
2 -x,1/2+y,-z
_cell_length_a                   11.7030(6)
_cell_length_b                   9.1801(5)
_cell_length_c                   16.8493(8)
_cell_angle_alpha                90
_cell_angle_beta                 108.668(3)
_cell_angle_gamma                90
_cell_volume                     1714.96
_exptl_crystal_colour            pink
_exptl_crystal_description       block
_cell_formula_units_Z            4
loop_
_atom_site_label
_atom_site_type_symbol
_atom_site_fract_x
_atom_site_fract_y
_atom_site_fract_z
O1 O 0.4462(2) 0.5692(3) 0.30023(15)
O2 O 0.81230(18) 0.8439(3) 0.41558(15)
H1 H 0.8453 0.9187 0.4075
O3 O 0.4856(2) 0.7638(3) 0.22143(14)
O4 O 0.6604(2) 0.8616(3) 0.51076(13)
O5 O 0.4839(2) 1.1399(3) 0.47018(16)
C1 C 0.6258(3) 0.9329(4) 0.4300(2)
H2 H 0.6521 1.0348 0.4369
C2 C 0.4222(3) 1.0288(4) 0.4213(2)
C3 C 0.6853(3) 0.8548(4) 0.3745(2)
H3 H 0.6704 0.9094 0.3222
C4 C 0.4901(3) 0.9261(4) 0.3943(2)
C5 C 0.2990(3) 1.0142(4) 0.3998(2)
H4 H 0.2543 1.0814 0.4189
C6 C 0.4301(3) 0.8136(4) 0.3416(2)
C7 C 0.5274(3) 0.6701(5) 0.1729(2)
C8 C 0.5006(3) 0.7094(4) 0.3050(2)
C9 C 0.4829(3) 0.4686(4) 0.2526(2)
C10 C 0.6343(3) 0.7024(4) 0.3546(2)
H5 H 0.6456 0.6491 0.4063
H6 H 0.6769 0.6511 0.3223
C11 C 0.2424(3) 0.9001(5) 0.3501(2)
H7 H 0.1594 0.8892 0.3370
C12 C 0.3060(3) 0.8014(4) 0.3192(2)
H8 H 0.2659 0.7272 0.2835
C13 C 0.5255(3) 0.5197(5) 0.1883(2)
C14 C 0.5642(3) 0.4176(5) 0.1388(2)
C15 C 0.5572(4) 0.2682(5) 0.1558(3)
H9 H 0.5834 0.1998 0.1247
C16 C 0.6052(4) 0.6190(7) 0.0613(3)
H10 H 0.6318 0.6530 0.0183
C17 C 0.4754(4) 0.3240(5) 0.2667(3)
H11 H 0.4459 0.2917 0.3087
C18 C 0.7330(4) 0.9460(5) 0.5786(3)
H12 H 0.7495 0.8913 0.6296
H13 H 0.6910 1.0340 0.5830
H14 H 0.8075 0.9699 0.5692
C19 C 0.5667(4) 0.7210(6) 0.1103(2)
H15 H 0.5682 0.8204 0.1001
C20 C 0.6047(4) 0.4734(6) 0.0749(3)
H16 H 0.6314 0.4100 0.0415
C21 C 0.5129(4) 0.2228(6) 0.2166(3)
H17 H 0.5070 0.1235 0.2256
O6 O 0.9234(2) 0.5972(3) 0.41954(13)
O7 O 1.05075(19) 0.2202(3) 0.20059(13)
O8 O 0.84169(19) 0.2165(3) 0.12703(13)
O9 O 0.9763(2) 0.0405(3) 0.40920(14)
H18 H 1.0035 0.0654 0.4584
O10 O 0.8036(2) 0.2612(3) 0.37648(15)
C22 C 0.9223(3) 0.2973(4) 0.37869(19)
H19 H 0.9689 0.3287 0.4354
C23 C 0.9792(3) 0.1612(4) 0.35665(19)
H20 H 1.0633 0.1824 0.3618
C24 C 0.9234(3) 0.4172(4) 0.31721(19)
C25 C 1.0692(3) 0.1012(4) 0.1566(2)
C26 C 0.9312(3) 0.2315(4) 0.20775(19)
C27 C 0.9698(3) 0.0369(4) 0.0977(2)
C28 C 0.8525(3) 0.0931(4) 0.0828(2)
C29 C 0.9242(3) 0.5633(4) 0.3399(2)
C30 C 0.9238(3) 0.3861(4) 0.2355(2)
C31 C 0.9252(4) 0.6739(4) 0.2843(2)
H21 H 0.9259 0.7707 0.3008
C32 C 0.9130(3) 0.1170(4) 0.2672(2)
H22 H 0.8276 0.1065 0.2595
H23 H 0.9431 0.0239 0.2553
C33 C 0.9251(4) 0.6408(5) 0.2051(3)
H24 H 0.9254 0.7153 0.1678
C34 C 1.1838(3) 0.0555(5) 0.1665(2)
H25 H 1.2497 0.1015 0.2044
C35 C 0.9862(4) -0.0827(5) 0.0490(2)
C36 C 0.9244(4) 0.4976(5) 0.1803(2)
H26 H 0.9244 0.4758 0.1264
C37 C 0.7547(3) 0.0369(5) 0.0232(2)
H27 H 0.6784 0.0764 0.0140
C38 C 1.2001(4) -0.0621(6) 0.1183(3)
H28 H 1.2780 -0.0943 0.1248
C39 C 0.7714(4) -0.0813(6) -0.0239(3)
H29 H 0.7051 -0.1205 -0.0649
C40 C 0.8822(5) -0.1406(6) -0.0115(3)
H30 H 0.8899 -0.2207 -0.0432
C41 C 0.7688(4) 0.3165(5) 0.4427(3)
H31 H 0.7725 0.4210 0.4425
H32 H 0.8223 0.2803 0.4949
H33 H 0.6878 0.2862 0.4363
C42 C 1.1051(5) -0.1308(6) 0.0621(3)
H34 H 1.1189 -0.2101 0.0321
loop_
_geom_bond_atom_site_label_1
_geom_bond_atom_site_label_2
_geom_bond_site_symmetry_1
_geom_bond_site_symmetry_2
O1 C8 1_555 1_555
O2 H1 1_555 1_555
O3 C7 1_555 1_555
O4 C1 1_555 1_555
O5 C2 1_555 1_555
C1 H2 1_555 1_555
C2 C4 1_555 1_555
C3 O2 1_555 1_555
H3 C3 1_555 1_555
C4 C1 1_555 1_555
C5 C2 1_555 1_555
H4 C5 1_555 1_555
C6 C4 1_555 1_555
C7 C13 1_555 1_555
C8 O3 1_555 1_555
C9 O1 1_555 1_555
C10 C3 1_555 1_555
H5 C10 1_555 1_555
H6 C10 1_555 1_555
C11 C5 1_555 1_555
H7 C11 1_555 1_555
C12 C6 1_555 1_555
H8 C12 1_555 1_555
C13 C9 1_555 1_555
C14 C13 1_555 1_555
C15 C14 1_555 1_555
H9 C15 1_555 1_555
C16 H10 1_555 1_555
C17 C9 1_555 1_555
H11 C17 1_555 1_555
C18 O4 1_555 1_555
H12 C18 1_555 1_555
H13 C18 1_555 1_555
H14 C18 1_555 1_555
C19 C7 1_555 1_555
H15 C19 1_555 1_555
C20 C14 1_555 1_555
H16 C20 1_555 1_555
C21 C15 1_555 1_555
H17 C21 1_555 1_555
O6 C29 1_555 1_555
O7 C25 1_555 1_555
O8 C26 1_555 1_555
O9 H18 1_555 1_555
O10 C22 1_555 1_555
C22 H19 1_555 1_555
C23 O9 1_555 1_555
H20 C23 1_555 1_555
C24 C22 1_555 1_555
C25 C27 1_555 1_555
C26 O7 1_555 1_555
C27 C28 1_555 1_555
C28 O8 1_555 1_555
C29 C24 1_555 1_555
C30 C24 1_555 1_555
C31 C29 1_555 1_555
H21 C31 1_555 1_555
C32 C23 1_555 1_555
H22 C32 1_555 1_555
H23 C32 1_555 1_555
C33 C31 1_555 1_555
H24 C33 1_555 1_555
C34 C25 1_555 1_555
H25 C34 1_555 1_555
C35 C27 1_555 1_555
C36 C30 1_555 1_555
H26 C36 1_555 1_555
C37 C28 1_555 1_555
H27 C37 1_555 1_555
C38 C34 1_555 1_555
H28 C38 1_555 1_555
C39 C37 1_555 1_555
H29 C39 1_555 1_555
C40 C35 1_555 1_555
H30 C40 1_555 1_555
C41 O10 1_555 1_555
H31 C41 1_555 1_555
H32 C41 1_555 1_555
H33 C41 1_555 1_555
C42 C35 1_555 1_555
H34 C42 1_555 1_555
C1 C3 1_555 1_555
C6 C8 1_555 1_555
C8 C10 1_555 1_555
C11 C12 1_555 1_555
C16 C19 1_555 1_555
C16 C20 1_555 1_555
C17 C21 1_555 1_555
C22 C23 1_555 1_555
C26 C30 1_555 1_555
C26 C32 1_555 1_555
C33 C36 1_555 1_555
C38 C42 1_555 1_555
C39 C40 1_555 1_555

#END
