
#######################################################################
#
#                 Cambridge Crystallographic Data Centre
#                                CCDC 
#
#######################################################################
#
# If this CIF has been generated from an entry in the Cambridge 
# Structural Database, then it will include bibliographic, chemical, 
# crystal, experimental, refinement or atomic coordinate data resulting 
# from the CCDC's data processing and validation procedures.
#
#######################################################################

data_PAMQUS
_chemical_compound_source        'endolichenic fungal Phialocephala fortinii'
_chemical_formula_moiety         'C20 H16 O7,0.5(C1 H4 O1),1.5(H2 O1)'
_chemical_name_systematic        
'1,2,6,7,8b-pentahydroxy-7a,8a,8b,8c,9,10-hexahydroperylo[1,2-b]oxiren-11(7H)-one methanol solvate sesquihydrate'
_symmetry_cell_setting           monoclinic
_symmetry_space_group_name_H-M   'P 21'
_symmetry_Int_Tables_number      4
_space_group_name_Hall           'P 2yb'
loop_
_symmetry_equiv_pos_site_id
_symmetry_equiv_pos_as_xyz
1 x,y,z
2 -x,1/2+y,-z
_cell_length_a                   12.7755(7)
_cell_length_b                   7.2748(3)
_cell_length_c                   20.3792(13)
_cell_angle_alpha                90
_cell_angle_beta                 106.971(2)
_cell_angle_gamma                90
_cell_volume                     1811.55
_exptl_crystal_colour            yellow
_exptl_crystal_description       block
_cell_formula_units_Z            4
loop_
_atom_site_label
_atom_site_type_symbol
_atom_site_fract_x
_atom_site_fract_y
_atom_site_fract_z
O1 O 0.8508(3) -0.1246(5) 0.43193(19)
H1 H 0.8192 -0.1831 0.4549
O2 O 0.8671(3) 0.3169(6) 0.5229(2)
O3 O 0.6747(3) 0.2794(6) 0.5769(2)
H2 H 0.6953 0.2694 0.6188
O4 O 0.4858(3) 0.1506(8) 0.5030(2)
H3 H 0.5283 0.1958 0.5374
O5 O 0.6290(3) -0.0591(6) 0.11084(19)
H4 H 0.5789 -0.1285 0.1118
O6 O 0.8375(4) 0.0258(6) 0.1374(2)
H5 H 0.8994 0.0692 0.1488
O7 O 1.0157(4) 0.1370(9) 0.2236(2)
C1 C 0.8244(5) 0.0705(8) 0.4338(3)
C2 C 0.8899(5) 0.1332(9) 0.5048(3)
H6 H 0.9669 0.0958 0.5198
C3 C 0.8379(5) 0.1589(9) 0.5589(3)
H7 H 0.8842 0.1379 0.6059
C4 C 0.7185(5) 0.1296(10) 0.5464(3)
H8 H 0.7080 0.0151 0.5690
C5 C 0.6535(4) 0.1179(8) 0.4716(3)
C6 C 0.7025(4) 0.0933(8) 0.4193(3)
C7 C 0.6391(4) 0.0727(8) 0.3498(3)
C8 C 0.5262(5) 0.0679(8) 0.3361(3)
H9 H 0.4826 0.0488 0.2913
C9 C 0.4768(5) 0.0911(9) 0.3881(3)
H10 H 0.4009 0.0877 0.3779
C10 C 0.5400(5) 0.1190(9) 0.4545(3)
C11 C 0.6931(4) 0.0611(8) 0.2949(3)
C12 C 0.6354(5) 0.0060(8) 0.2287(3)
H11 H 0.5618 -0.0242 0.2194
C13 C 0.6839(5) -0.0051(9) 0.1766(3)
C14 C 0.7937(5) 0.0423(9) 0.1891(3)
C15 C 0.8541(4) 0.0993(8) 0.2559(3)
C16 C 0.8027(4) 0.1083(8) 0.3091(3)
C17 C 0.8648(4) 0.1744(8) 0.3800(3)
C18 C 0.9898(4) 0.1562(9) 0.3938(3)
H12 H 1.0270 0.2177 0.4364
H13 H 1.0101 0.0273 0.3985
C19 C 1.0257(5) 0.2402(9) 0.3356(3)
H14 H 1.0111 0.3712 0.3337
H15 H 1.1039 0.2232 0.3447
C20 C 0.9682(5) 0.1563(9) 0.2686(3)
O8 O 0.4586(3) 0.7148(5) 0.1045(2)
H16 H 0.4240 0.7673 0.1272
O9 O 0.3422(4) 0.2478(7) 0.0670(2)
O10 O 0.1839(4) 0.2567(8) 0.1488(3)
H17 H 0.1243 0.2458 0.1197
O11 O 0.2278(4) 0.4133(8) 0.2716(2)
H18 H 0.1877 0.3556 0.2395
O12 O 0.9215(3) 0.6947(6) 0.33913(19)
H19 H 0.8992 0.7308 0.3708
O13 O 0.9581(3) 0.6255(7) 0.2207(2)
H20 H 0.9604 0.6038 0.1817
O14 O 0.8861(4) 0.5055(8) 0.0985(2)
C21 C 0.4587(5) 0.5165(9) 0.1171(3)
C22 C 0.3706(5) 0.4386(10) 0.0587(3)
H21 H 0.3708 0.4763 0.0125
C23 C 0.2646(6) 0.3888(11) 0.0675(4)
H22 H 0.2018 0.3971 0.0262
C24 C 0.2400(5) 0.4182(11) 0.1334(3)
H23 H 0.1913 0.5246 0.1286
C25 C 0.3392(5) 0.4486(10) 0.1949(3)
C26 C 0.4437(5) 0.4858(8) 0.1871(3)
C27 C 0.5334(5) 0.5175(8) 0.2451(3)
C28 C 0.5160(5) 0.5171(9) 0.3092(3)
H24 H 0.5745 0.5406 0.3478
C29 C 0.4141(5) 0.4827(10) 0.3170(3)
H25 H 0.4040 0.4842 0.3604
C30 C 0.3266(5) 0.4456(10) 0.2593(4)
C31 C 0.6438(5) 0.5460(7) 0.2366(3)
C32 C 0.7309(5) 0.6065(8) 0.2926(3)
H26 H 0.7184 0.6275 0.3347
C33 C 0.8346(5) 0.6351(9) 0.2860(3)
C34 C 0.8543(5) 0.5993(9) 0.2241(3)
C35 C 0.7691(5) 0.5350(9) 0.1681(3)
C36 C 0.6623(5) 0.5092(8) 0.1746(3)
C37 C 0.5706(4) 0.4412(9) 0.1151(3)
H27 H 0.5677 0.3074 0.1201
C38 C 0.5921(5) 0.4772(10) 0.0465(3)
H28 H 0.5887 0.6083 0.0374
H29 H 0.5362 0.4175 0.0101
C39 C 0.7048(5) 0.4039(10) 0.0477(3)
H30 H 0.7059 0.2713 0.0529
H31 H 0.7185 0.4321 0.0044
C40 C 0.7924(5) 0.4858(10) 0.1046(3)
O15 O 0.2665(4) 0.1432(7) 0.5132(3)
H32 H 0.3303 0.1336 0.5086
H33 H 0.2331 0.0419 0.5016
O16 O 0.8061(5) 0.3238(9) 0.7190(3)
H34 H 0.8637 0.3820 0.7402
H35 H 0.8149 0.2106 0.7295
O17 O 0.9966(6) 0.279(2) 1.0390(6)
H36 H 0.9621 0.3494 1.0564
C41 C 0.9553(12) 0.292(3) 0.9643(9)
H37 H 0.8803 0.2532 0.9494
H38 H 0.9982 0.2149 0.9439
H39 H 0.9603 0.4173 0.9504
O18 O 0.3223(5) 0.9043(8) 0.1659(3)
H40 H 0.3478 0.9611 0.1375
H41 H 0.2735 0.9724 0.1741
loop_
_geom_bond_atom_site_label_1
_geom_bond_atom_site_label_2
_geom_bond_site_symmetry_1
_geom_bond_site_symmetry_2
O1 H1 1_555 1_555
O2 C2 1_555 1_555
O3 H2 1_555 1_555
O4 H3 1_555 1_555
O5 H4 1_555 1_555
O6 H5 1_555 1_555
O7 C20 1_555 1_555
C1 O1 1_555 1_555
C2 C1 1_555 1_555
H6 C2 1_555 1_555
C3 O2 1_555 1_555
H7 C3 1_555 1_555
C4 O3 1_555 1_555
H8 C4 1_555 1_555
C5 C4 1_555 1_555
C6 C1 1_555 1_555
C7 C6 1_555 1_555
C8 C7 1_555 1_555
H9 C8 1_555 1_555
C9 C8 1_555 1_555
H10 C9 1_555 1_555
C10 O4 1_555 1_555
C11 C7 1_555 1_555
C12 C11 1_555 1_555
H11 C12 1_555 1_555
C13 O5 1_555 1_555
C14 O6 1_555 1_555
C15 C14 1_555 1_555
C16 C11 1_555 1_555
C17 C1 1_555 1_555
C18 C17 1_555 1_555
H12 C18 1_555 1_555
H13 C18 1_555 1_555
C19 C18 1_555 1_555
H14 C19 1_555 1_555
H15 C19 1_555 1_555
C20 C15 1_555 1_555
O8 H16 1_555 1_555
O9 C22 1_555 1_555
O10 H17 1_555 1_555
O11 H18 1_555 1_555
O12 H19 1_555 1_555
O13 H20 1_555 1_555
O14 C40 1_555 1_555
C21 O8 1_555 1_555
C22 C21 1_555 1_555
H21 C22 1_555 1_555
C23 O9 1_555 1_555
H22 C23 1_555 1_555
C24 O10 1_555 1_555
H23 C24 1_555 1_555
C25 C24 1_555 1_555
C26 C21 1_555 1_555
C27 C26 1_555 1_555
C28 C27 1_555 1_555
H24 C28 1_555 1_555
C29 C28 1_555 1_555
H25 C29 1_555 1_555
C30 O11 1_555 1_555
C31 C27 1_555 1_555
C32 C31 1_555 1_555
H26 C32 1_555 1_555
C33 O12 1_555 1_555
C34 O13 1_555 1_555
C35 C34 1_555 1_555
C36 C31 1_555 1_555
C37 C21 1_555 1_555
H27 C37 1_555 1_555
C38 C37 1_555 1_555
H28 C38 1_555 1_555
H29 C38 1_555 1_555
C39 C38 1_555 1_555
H30 C39 1_555 1_555
H31 C39 1_555 1_555
C40 C35 1_555 1_555
O15 H32 1_555 1_555
H33 O15 1_555 1_555
O16 H34 1_555 1_555
H35 O16 1_555 1_555
O17 H36 1_555 1_555
C41 O17 1_555 1_555
H37 C41 1_555 1_555
H38 C41 1_555 1_555
H39 C41 1_555 1_555
O18 H40 1_555 1_555
H41 O18 1_555 1_555
C2 C3 1_555 1_555
C3 C4 1_555 1_555
C5 C6 1_555 1_555
C5 C10 1_555 1_555
C9 C10 1_555 1_555
C12 C13 1_555 1_555
C13 C14 1_555 1_555
C15 C16 1_555 1_555
C16 C17 1_555 1_555
C19 C20 1_555 1_555
C22 C23 1_555 1_555
C23 C24 1_555 1_555
C25 C26 1_555 1_555
C25 C30 1_555 1_555
C29 C30 1_555 1_555
C32 C33 1_555 1_555
C33 C34 1_555 1_555
C35 C36 1_555 1_555
C36 C37 1_555 1_555
C39 C40 1_555 1_555

#END
