
#######################################################################
#
#                 Cambridge Crystallographic Data Centre
#                                CCDC 
#
#######################################################################
#
# If this CIF has been generated from an entry in the Cambridge 
# Structural Database, then it will include bibliographic, chemical, 
# crystal, experimental, refinement or atomic coordinate data resulting 
# from the CCDC's data processing and validation procedures.
#
#######################################################################

data_PAMQOK
_chemical_formula_moiety         'C10 H10 N6 O1 S1'
_chemical_name_systematic        
4-Phenyl-1-(1H-1,2,4-triazol-3-ylcarbonyl)thiosemicarbazide
_symmetry_cell_setting           orthorhombic
_symmetry_space_group_name_H-M   'P b c n'
_symmetry_Int_Tables_number      60
_space_group_name_Hall           '-P 2n 2ab'
loop_
_symmetry_equiv_pos_site_id
_symmetry_equiv_pos_as_xyz
1 x,y,z
2 1/2-x,1/2-y,1/2+z
3 -x,y,1/2-z
4 1/2+x,1/2-y,-z
5 -x,-y,-z
6 1/2+x,1/2+y,1/2-z
7 x,-y,1/2+z
8 1/2-x,1/2+y,z
_cell_length_a                   12.1981(10)
_cell_length_b                   10.1097(8)
_cell_length_c                   19.9112(16)
_cell_angle_alpha                90
_cell_angle_beta                 90
_cell_angle_gamma                90
_cell_volume                     2455.43
_exptl_crystal_colour            colorless
_exptl_crystal_description       block
_chemical_melting_point          '490-491 K'
_cell_formula_units_Z            8
_exptl_crystal_recrystallization_method DMF
loop_
_atom_site_label
_atom_site_type_symbol
_atom_site_fract_x
_atom_site_fract_y
_atom_site_fract_z
S1 S 0.36987(5) 1.03361(6) 0.57497(2)
N1 N 0.36349(16) 1.02177(17) 0.44388(7)
N2 N 0.31876(15) 0.97948(18) 0.38313(8)
N3 N 0.29471(15) 0.88794(16) 0.25111(8)
N4 N 0.25263(16) 0.81516(19) 0.20040(9)
N5 N 0.22539(15) 0.69518(17) 0.28896(7)
N6 N 0.19538(15) 1.02416(18) 0.49447(8)
O1 O 0.32144(14) 0.76525(14) 0.41589(6)
C1 C 0.30337(17) 1.02426(18) 0.50070(9)
C2 C 0.30769(17) 0.8486(2) 0.37264(9)
C3 C 0.27521(17) 0.8111(2) 0.30301(9)
C4 C 0.2126(2) 0.7021(2) 0.22316(11)
C5 C 0.12087(17) 1.0323(2) 0.54984(9)
C6 C 0.1021(2) 0.9218(2) 0.58824(11)
C7 C 0.0303(2) 0.9297(3) 0.64178(13)
C8 C -0.0223(2) 1.0450(3) 0.65562(13)
C9 C -0.0057(2) 1.1540(3) 0.61621(13)
C10 C 0.0672(2) 1.1481(3) 0.56297(11)
H1 H 0.4352(13) 1.008(2) 0.4485(9)
H2 H 0.3134(18) 1.041(2) 0.3538(10)
H3 H 0.1835(17) 0.640(2) 0.1961(9)
H4 H 0.1330(17) 0.840(2) 0.5756(9)
H5 H 0.0171(19) 0.8533(17) 0.6649(10)
H6 H -0.0704(18) 1.055(2) 0.6920(10)
H7 H -0.040(2) 1.233(2) 0.6255(11)
H8 H 0.0811(17) 1.222(2) 0.5374(9)
H9 H 0.266(2) 0.840(2) 0.1587(11)
H10 H 0.1703(17) 1.038(2) 0.4574(9)
loop_
_geom_bond_atom_site_label_1
_geom_bond_atom_site_label_2
_geom_bond_site_symmetry_1
_geom_bond_site_symmetry_2
S1 C1 1_555 1_555
N1 N2 1_555 1_555
N2 C2 1_555 1_555
N3 N4 1_555 1_555
N4 C4 1_555 1_555
N5 C3 1_555 1_555
N6 C1 1_555 1_555
O1 C2 1_555 1_555
C1 N1 1_555 1_555
C2 C3 1_555 1_555
C3 N3 1_555 1_555
C4 N5 1_555 1_555
C5 N6 1_555 1_555
C6 C5 1_555 1_555
C7 C6 1_555 1_555
C8 C7 1_555 1_555
C9 C8 1_555 1_555
C10 C5 1_555 1_555
H1 N1 1_555 1_555
H2 N2 1_555 1_555
H3 C4 1_555 1_555
H4 C6 1_555 1_555
H5 C7 1_555 1_555
H6 C8 1_555 1_555
H7 C9 1_555 1_555
H8 C10 1_555 1_555
H9 N4 1_555 1_555
H10 N6 1_555 1_555
C9 C10 1_555 1_555

#END
