
#######################################################################
#
#                 Cambridge Crystallographic Data Centre
#                                CCDC 
#
#######################################################################
#
# If this CIF has been generated from an entry in the Cambridge 
# Structural Database, then it will include bibliographic, chemical, 
# crystal, experimental, refinement or atomic coordinate data resulting 
# from the CCDC's data processing and validation procedures.
#
#######################################################################

data_PAMSOO
_chemical_compound_source        'aerial parts of Siegesbeckia pubescens Makino'
_chemical_name_common            
ent-2alpha,15R,16,19-Tetrahydroxypimar-8(14)-ene
_chemical_formula_moiety         'C20 H34 O4'
_chemical_name_systematic        pimar-8(14)-ene-2,15,16,18-tetrol
_symmetry_cell_setting           orthorhombic
_symmetry_space_group_name_H-M   'P 21 21 21'
_symmetry_Int_Tables_number      19
_space_group_name_Hall           'P 2ac 2ab'
loop_
_symmetry_equiv_pos_site_id
_symmetry_equiv_pos_as_xyz
1 x,y,z
2 1/2+x,1/2-y,-z
3 -x,1/2+y,1/2-z
4 1/2-x,-y,1/2+z
_cell_length_a                   6.776(2)
_cell_length_b                   14.138(5)
_cell_length_c                   19.569(10)
_cell_angle_alpha                90
_cell_angle_beta                 90
_cell_angle_gamma                90
_cell_volume                     1874.69
_exptl_crystal_colour            colorless
_exptl_crystal_description       Prism
_cell_formula_units_Z            4
loop_
_atom_site_label
_atom_site_type_symbol
_atom_site_fract_x
_atom_site_fract_y
_atom_site_fract_z
O1 O 0.47425(18) 0.32468(9) 0.18534(6)
O2 O -0.14495(19) 0.33834(11) 0.15791(7)
O3 O 0.1828(2) 0.67676(9) 0.55631(7)
O4 O 0.5939(2) 0.67116(10) 0.52071(7)
C1 C 0.2834(3) 0.59248(12) 0.53626(9)
C2 C 0.0234(3) 0.32832(14) 0.20174(9)
C3 C -0.0392(3) 0.35762(13) 0.27320(9)
C4 C 0.1355(3) 0.35850(12) 0.32363(9)
C5 C 0.2358(3) 0.25836(12) 0.32172(9)
C6 C 0.4409(3) 0.62207(13) 0.48533(10)
C7 C 0.2721(3) 0.20955(12) 0.25090(9)
C8 C 0.2566(3) 0.42507(13) 0.49891(9)
C9 C 0.0968(3) 0.22687(13) 0.20231(10)
C10 C 0.2215(3) 0.36143(12) 0.45013(9)
C11 C -0.0142(3) 0.49848(14) 0.56706(9)
C12 C 0.2755(3) 0.44095(12) 0.30625(10)
C13 C 0.1399(3) 0.51491(12) 0.51044(9)
C14 C 0.0550(3) 0.37055(13) 0.39851(9)
C15 C 0.4135(3) 0.25613(13) 0.37000(9)
C16 C 0.2847(3) 0.10161(13) 0.26389(10)
C17 C 0.3448(3) 0.27311(12) 0.44359(10)
C18 C -0.0732(3) 0.45955(13) 0.41162(10)
C19 C 0.0387(3) 0.54337(13) 0.44308(10)
C20 C 0.4681(3) 0.23226(13) 0.21562(9)
H1 H 0.5877(6) 0.3369(7) 0.1738(11)
H2 H -0.1111(7) 0.3308(19) 0.11806(13)
H3 H 0.137(3) 0.6699(6) 0.5948(5)
H4 H 0.622(3) 0.7195(9) 0.4998(7)
H5 H 0.3510(3) 0.56752(12) 0.57671(9)
H6 H 0.1292(3) 0.37012(14) 0.18582(9)
H7 H -0.0973(3) 0.42026(13) 0.27136(9)
H8 H -0.1391(3) 0.31414(13) 0.28969(9)
H9 H 0.1392(3) 0.21706(12) 0.34408(9)
H10 H 0.3836(3) 0.66288(13) 0.45077(10)
H11 H 0.4947(3) 0.56668(13) 0.46279(10)
H12 H 0.3616(3) 0.41327(13) 0.52831(9)
H13 H -0.0112(3) 0.18573(13) 0.21556(10)
H14 H 0.1360(3) 0.20955(13) 0.15631(10)
H15 H 0.0519(3) 0.4877(10) 0.60974(17)
H16 H -0.0974(14) 0.5532(4) 0.5709(5)
H17 H -0.0932(14) 0.4443(6) 0.5558(4)
H18 H 0.3436(15) 0.4274(4) 0.2644(4)
H19 H 0.2005(4) 0.4981(2) 0.3011(7)
H20 H 0.3698(13) 0.4487(6) 0.3424(3)
H21 H -0.0318(3) 0.31624(13) 0.40655(9)
H22 H 0.4787(3) 0.19522(13) 0.36684(9)
H23 H 0.5073(3) 0.30466(13) 0.35686(9)
H24 H 0.4024(13) 0.08764(18) 0.2893(7)
H25 H 0.1714(13) 0.0815(2) 0.2895(7)
H26 H 0.288(2) 0.06883(14) 0.22095(10)
H27 H 0.4594(3) 0.27845(12) 0.47308(10)
H28 H 0.2682(3) 0.21915(12) 0.45883(10)
H29 H -0.1306(3) 0.47969(13) 0.36860(10)
H30 H -0.1808(3) 0.44239(13) 0.44188(10)
H31 H -0.0527(3) 0.59479(13) 0.45167(10)
H32 H 0.1375(3) 0.56568(13) 0.41101(10)
H33 H 0.4920(3) 0.18544(13) 0.18035(9)
H34 H 0.5738(3) 0.22719(13) 0.24886(9)
loop_
_geom_bond_atom_site_label_1
_geom_bond_atom_site_label_2
_geom_bond_site_symmetry_1
_geom_bond_site_symmetry_2
O1 C20 1_555 1_555
O2 C2 1_555 1_555
O3 C1 1_555 1_555
O4 C6 1_555 1_555
C1 C6 1_555 1_555
C2 C3 1_555 1_555
C3 C4 1_555 1_555
C4 C5 1_555 1_555
C5 C7 1_555 1_555
C6 H10 1_555 1_555
C7 C9 1_555 1_555
C8 C10 1_555 1_555
C9 C2 1_555 1_555
C10 C14 1_555 1_555
C11 C13 1_555 1_555
C12 C4 1_555 1_555
C13 C1 1_555 1_555
C14 C4 1_555 1_555
C15 C5 1_555 1_555
C16 C7 1_555 1_555
C17 C10 1_555 1_555
C18 C14 1_555 1_555
C19 C13 1_555 1_555
C20 C7 1_555 1_555
H1 O1 1_555 1_555
H2 O2 1_555 1_555
H3 O3 1_555 1_555
H4 O4 1_555 1_555
H5 C1 1_555 1_555
H6 C2 1_555 1_555
H7 C3 1_555 1_555
H8 C3 1_555 1_555
H9 C5 1_555 1_555
H11 C6 1_555 1_555
H12 C8 1_555 1_555
H13 C9 1_555 1_555
H14 C9 1_555 1_555
H15 C11 1_555 1_555
H16 C11 1_555 1_555
H17 C11 1_555 1_555
H18 C12 1_555 1_555
H19 C12 1_555 1_555
H20 C12 1_555 1_555
H21 C14 1_555 1_555
H22 C15 1_555 1_555
H23 C15 1_555 1_555
H24 C16 1_555 1_555
H25 C16 1_555 1_555
H26 C16 1_555 1_555
H27 C17 1_555 1_555
H28 C17 1_555 1_555
H29 C18 1_555 1_555
H30 C18 1_555 1_555
H31 C19 1_555 1_555
H32 C19 1_555 1_555
H33 C20 1_555 1_555
H34 C20 1_555 1_555
C8 C13 1_555 1_555
C15 C17 1_555 1_555
C18 C19 1_555 1_555

#END
