
#######################################################################
#
#                 Cambridge Crystallographic Data Centre
#                                CCDC 
#
#######################################################################
#
# If this CIF has been generated from an entry in the Cambridge 
# Structural Database, then it will include bibliographic, chemical, 
# crystal, experimental, refinement or atomic coordinate data resulting 
# from the CCDC's data processing and validation procedures.
#
#######################################################################

data_PAMSIG
_chemical_formula_moiety         'C19 H26 O3'
_chemical_name_systematic        
'(1R,2S,5R)-2-Isopropyl-5-methylcyclohexyl (2S,3S)-3-phenyloxirane-2-carboxylate'
_symmetry_cell_setting           orthorhombic
_symmetry_space_group_name_H-M   'P 21 21 21'
_symmetry_Int_Tables_number      19
_space_group_name_Hall           'P 2ac 2ab'
loop_
_symmetry_equiv_pos_site_id
_symmetry_equiv_pos_as_xyz
1 x,y,z
2 1/2-x,-y,1/2+z
3 1/2+x,1/2-y,-z
4 -x,1/2+y,1/2-z
_cell_length_a                   5.6507(6)
_cell_length_b                   12.8745(17)
_cell_length_c                   24.386(3)
_cell_angle_alpha                90
_cell_angle_beta                 90
_cell_angle_gamma                90
_cell_volume                     1774.08
_exptl_crystal_colour            colorless
_exptl_crystal_description       prism
_chemical_melting_point          '104 deg.C'
_cell_formula_units_Z            4
_exptl_crystal_recrystallization_method '90% aqueous ethanol'
loop_
_atom_site_label
_atom_site_type_symbol
_atom_site_fract_x
_atom_site_fract_y
_atom_site_fract_z
C1 C 0.3969(4) 0.35533(17) 0.13176(9)
C2 C 0.1558(4) 0.3274(2) 0.15209(10)
H1 H 0.0293 0.3241 0.1246
C3 C 0.0868(4) 0.35831(18) 0.20759(10)
H2 H -0.0826 0.3716 0.2126
C4 C 0.2445(4) 0.41691(19) 0.24467(9)
C5 C 0.1872(5) 0.5177(2) 0.25721(11)
H3 H 0.0486 0.5465 0.2434
C6 C 0.3327(6) 0.5764(2) 0.28993(12)
H4 H 0.2927 0.6449 0.2978
C7 C 0.5348(6) 0.5352(3) 0.31091(12)
H5 H 0.6336 0.5756 0.3327
C8 C 0.5923(5) 0.4348(3) 0.29991(11)
H6 H 0.729 0.4061 0.3148
C9 C 0.4476(5) 0.3751(2) 0.26649(10)
H7 H 0.488 0.3066 0.2588
C10 C 0.6001(4) 0.48769(19) 0.08178(9)
H8 H 0.7271 0.4359 0.0827
C11 C 0.6610(5) 0.5744(2) 0.12059(10)
H9 H 0.6819 0.5463 0.1572
H10 H 0.531 0.6235 0.1218
C12 C 0.8851(6) 0.6306(2) 0.10349(12)
H11 H 1.0157 0.5806 0.1043
C13 C 0.9468(9) 0.7197(3) 0.14215(16)
H12 H 0.8207 0.7697 0.1421
H13 H 1.0904 0.7523 0.1301
H14 H 0.9681 0.6931 0.1786
C14 C 0.8575(7) 0.6683(2) 0.04544(13)
H15 H 1.0048 0.6997 0.0334
H16 H 0.7357 0.7214 0.0442
C15 C 0.7922(7) 0.5817(3) 0.00672(12)
H17 H 0.9224 0.5327 0.0049
H18 H 0.7699 0.6103 -0.0297
C16 C 0.5665(5) 0.5234(2) 0.02368(10)
H19 H 0.4376 0.5743 0.0239
C17 C 0.4926(7) 0.4362(3) -0.01516(12)
H20 H 0.3534 0.4031 0.0012
C18 C 0.6787(10) 0.3521(3) -0.02126(18)
H21 H 0.6191 0.2979 -0.0445
H22 H 0.7159 0.3239 0.0142
H23 H 0.819 0.3812 -0.0373
C19 C 0.4147(9) 0.4786(5) -0.07110(14)
H24 H 0.5507 0.5026 -0.091
H25 H 0.3064 0.5352 -0.0658
H26 H 0.338 0.4244 -0.0915
O1 O 0.1465(3) 0.25354(13) 0.19492(7)
O2 O 0.5762(3) 0.31145(14) 0.14234(8)
O3 O 0.3811(3) 0.43912(14) 0.10025(7)
loop_
_geom_bond_atom_site_label_1
_geom_bond_atom_site_label_2
_geom_bond_site_symmetry_1
_geom_bond_site_symmetry_2
C1 C2 1_555 1_555
C2 H1 1_555 1_555
C3 C2 1_555 1_555
H2 C3 1_555 1_555
C4 C3 1_555 1_555
C5 C4 1_555 1_555
H3 C5 1_555 1_555
C6 C5 1_555 1_555
H4 C6 1_555 1_555
C7 C6 1_555 1_555
H5 C7 1_555 1_555
C8 C7 1_555 1_555
H6 C8 1_555 1_555
C9 C4 1_555 1_555
H7 C9 1_555 1_555
C10 H8 1_555 1_555
C11 C10 1_555 1_555
H9 C11 1_555 1_555
H10 C11 1_555 1_555
C12 C11 1_555 1_555
H11 C12 1_555 1_555
C13 C12 1_555 1_555
H12 C13 1_555 1_555
H13 C13 1_555 1_555
H14 C13 1_555 1_555
C14 C12 1_555 1_555
H15 C14 1_555 1_555
H16 C14 1_555 1_555
C15 C14 1_555 1_555
H17 C15 1_555 1_555
H18 C15 1_555 1_555
C16 C10 1_555 1_555
H19 C16 1_555 1_555
C17 C16 1_555 1_555
H20 C17 1_555 1_555
C18 C17 1_555 1_555
H21 C18 1_555 1_555
H22 C18 1_555 1_555
H23 C18 1_555 1_555
C19 C17 1_555 1_555
H24 C19 1_555 1_555
H25 C19 1_555 1_555
H26 C19 1_555 1_555
O1 C2 1_555 1_555
O2 C1 1_555 1_555
O3 C1 1_555 1_555
C3 O1 1_555 1_555
C8 C9 1_555 1_555
C10 O3 1_555 1_555
C15 C16 1_555 1_555

#END
