
#######################################################################
#
#                 Cambridge Crystallographic Data Centre
#                                CCDC 
#
#######################################################################
#
# If this CIF has been generated from an entry in the Cambridge 
# Structural Database, then it will include bibliographic, chemical, 
# crystal, experimental, refinement or atomic coordinate data resulting 
# from the CCDC's data processing and validation procedures.
#
#######################################################################

data_PAMTED
_chemical_formula_moiety         'C20 H14 N12 S2'
_chemical_name_systematic        
'bis(4-Phenyl-5-(1H-1,2,4-triazol-3-yl)-4H-1,2,4-triazol-3-yl) disulfide'
_symmetry_cell_setting           monoclinic
_symmetry_space_group_name_H-M   'P 21/c'
_symmetry_Int_Tables_number      14
_space_group_name_Hall           '-P 2ybc'
loop_
_symmetry_equiv_pos_site_id
_symmetry_equiv_pos_as_xyz
1 x,y,z
2 -x,1/2+y,1/2-z
3 -x,-y,-z
4 x,1/2-y,1/2+z
_cell_length_a                   9.8647(8)
_cell_length_b                   13.3308(10)
_cell_length_c                   16.9443(14)
_cell_angle_alpha                90
_cell_angle_beta                 101.6300(10)
_cell_angle_gamma                90
_cell_volume                     2182.5
_exptl_crystal_colour            colorless
_exptl_crystal_description       block
_cell_formula_units_Z            4
_exptl_crystal_recrystallization_method DMF
loop_
_atom_site_label
_atom_site_type_symbol
_atom_site_fract_x
_atom_site_fract_y
_atom_site_fract_z
S1 S 0.63316(5) 0.91556(4) -0.04806(3)
S2 S 0.53789(5) 0.82151(4) 0.02068(3)
N1 N 0.89631(17) 0.85472(12) -0.04024(10)
N2 N 1.02117(17) 0.85233(12) 0.01408(10)
N3 N 0.86819(15) 0.92347(11) 0.07395(9)
N4 N 1.09277(19) 0.92378(13) 0.22442(10)
N5 N 1.2212(2) 0.91198(14) 0.26966(13)
N6 N 1.24040(18) 0.86546(14) 0.14993(11)
N7 N 0.49640(17) 0.66837(12) -0.08891(10)
N8 N 0.54207(16) 0.57188(12) -0.09562(9)
N9 N 0.64987(15) 0.63220(11) 0.02127(9)
N10 N 0.68161(18) 0.38446(12) -0.07000(10)
N11 N 0.76391(19) 0.30988(15) -0.03427(12)
N12 N 0.79023(18) 0.42913(13) 0.05508(10)
C1 C 0.8067(2) 0.89750(14) -0.00333(11)
C2 C 1.00154(19) 0.89237(13) 0.08178(11)
C3 C 1.1108(2) 0.89616(13) 0.15321(12)
C4 C 1.3051(3) 0.8780(2) 0.22551(17)
C5 C 0.80188(18) 0.97545(14) 0.13016(11)
C6 C 0.7712(3) 0.9257(2) 0.19473(14)
C7 C 0.7039(3) 0.9774(3) 0.24626(17)
C8 C 0.6689(3) 1.0757(3) 0.23206(18)
C9 C 0.6997(2) 1.1241(2) 0.16744(16)
C10 C 0.7667(2) 1.07404(16) 0.11563(13)
C11 C 0.56119(18) 0.70323(13) -0.01945(11)
C12 C 0.63265(19) 0.55146(14) -0.02906(11)
C13 C 0.7020(2) 0.45491(14) -0.01409(11)
C14 C 0.8266(2) 0.33719(17) 0.03828(15)
C15 C 0.7353(2) 0.64342(13) 0.10057(12)
C16 C 0.8759(2) 0.65183(16) 0.10885(15)
C17 C 0.9556(3) 0.66174(17) 0.18581(19)
C18 C 0.8946(4) 0.66494(17) 0.25115(17)
C19 C 0.7553(4) 0.65772(18) 0.24194(15)
C20 C 0.6736(3) 0.64656(16) 0.16610(14)
H1 H 1.397(2) 0.8673(15) 0.2468(13)
H2 H 1.232(2) 0.9267(17) 0.3201(15)
H3 H 0.793(2) 0.8560(16) 0.2005(13)
H4 H 0.684(3) 0.9467(18) 0.2843(16)
H5 H 0.623(3) 1.1080(18) 0.2626(16)
H6 H 0.673(2) 1.1914(17) 0.1587(13)
H7 H 0.793(2) 1.1051(14) 0.0696(12)
H8 H 0.768(2) 0.2510(16) -0.0591(13)
H9 H 0.890(2) 0.2971(14) 0.0760(12)
H10 H 0.9133(19) 0.6523(13) 0.0613(12)
H11 H 1.051(3) 0.6620(17) 0.1899(15)
H12 H 0.952(2) 0.6712(15) 0.3047(14)
H13 H 0.712(2) 0.6621(15) 0.2849(14)
H14 H 0.579(2) 0.6407(14) 0.1594(12)
loop_
_geom_bond_atom_site_label_1
_geom_bond_atom_site_label_2
_geom_bond_site_symmetry_1
_geom_bond_site_symmetry_2
S1 S2 1_555 1_555
S2 C11 1_555 1_555
N1 N2 1_555 1_555
N2 C2 1_555 1_555
N3 C1 1_555 1_555
N4 N5 1_555 1_555
N5 C4 1_555 1_555
N6 C3 1_555 1_555
N7 N8 1_555 1_555
N8 C12 1_555 1_555
N9 C11 1_555 1_555
N10 N11 1_555 1_555
N11 C14 1_555 1_555
N12 C13 1_555 1_555
C1 S1 1_555 1_555
C2 N3 1_555 1_555
C3 N4 1_555 1_555
C4 N6 1_555 1_555
C5 N3 1_555 1_555
C6 C5 1_555 1_555
C7 C6 1_555 1_555
C8 C7 1_555 1_555
C9 C8 1_555 1_555
C10 C5 1_555 1_555
C11 N7 1_555 1_555
C12 N9 1_555 1_555
C13 N10 1_555 1_555
C14 N12 1_555 1_555
C15 N9 1_555 1_555
C16 C15 1_555 1_555
C17 C16 1_555 1_555
C18 C17 1_555 1_555
C19 C18 1_555 1_555
C20 C15 1_555 1_555
H1 C4 1_555 1_555
H2 N5 1_555 1_555
H3 C6 1_555 1_555
H4 C7 1_555 1_555
H5 C8 1_555 1_555
H6 C9 1_555 1_555
H7 C10 1_555 1_555
H8 N11 1_555 1_555
H9 C14 1_555 1_555
H10 C16 1_555 1_555
H11 C17 1_555 1_555
H12 C18 1_555 1_555
H13 C19 1_555 1_555
H14 C20 1_555 1_555
N1 C1 1_555 1_555
C2 C3 1_555 1_555
C9 C10 1_555 1_555
C12 C13 1_555 1_555
C19 C20 1_555 1_555

#END
