
#######################################################################
#
#                 Cambridge Crystallographic Data Centre
#                                CCDC 
#
#######################################################################
#
# If this CIF has been generated from an entry in the Cambridge 
# Structural Database, then it will include bibliographic, chemical, 
# crystal, experimental, refinement or atomic coordinate data resulting 
# from the CCDC's data processing and validation procedures.
#
#######################################################################

data_PAMVOP
_chemical_formula_moiety         'C10 H9 Cl1 N2 O3 S1'
_chemical_name_systematic        
5-Chloromethyl-3-(4-(methylsulfonyl)phenyl)-1,2,4-oxadiazole
_symmetry_cell_setting           monoclinic
_symmetry_space_group_name_H-M   'P 21/c'
_symmetry_Int_Tables_number      14
_space_group_name_Hall           '-P 2ybc'
loop_
_symmetry_equiv_pos_site_id
_symmetry_equiv_pos_as_xyz
1 x,y,z
2 -x,1/2+y,1/2-z
3 -x,-y,-z
4 x,1/2-y,1/2+z
_cell_length_a                   5.6170(11)
_cell_length_b                   12.247(2)
_cell_length_c                   16.993(3)
_cell_angle_alpha                90
_cell_angle_beta                 93.06(3)
_cell_angle_gamma                90
_cell_volume                     1167.31
_exptl_crystal_colour            colorless
_exptl_crystal_description       block
_cell_formula_units_Z            4
_exptl_crystal_recrystallization_method ethanol
loop_
_atom_site_label
_atom_site_type_symbol
_atom_site_fract_x
_atom_site_fract_y
_atom_site_fract_z
Cl1 Cl 1.12637(18) -0.42201(9) 0.22181(5)
S1 S 0.40975(12) 0.33529(6) 0.05880(4)
O1 O 0.4904(4) 0.35986(18) -0.01828(12)
O2 O 0.1630(4) 0.35274(18) 0.07226(15)
O3 O 0.6843(4) -0.28905(17) 0.18218(12)
N1 N 0.5470(4) -0.1923(2) 0.17786(15)
N2 N 0.8762(4) -0.17544(19) 0.10857(14)
C1 C 0.5868(6) 0.4076(3) 0.12880(18)
H1 H 0.5598 0.4845 0.1219
H2 H 0.7518 0.3916 0.1221
H3 H 0.5459 0.3864 0.1808
C2 C 0.4786(5) 0.1971(2) 0.07911(15)
C3 C 0.3320(5) 0.1349(2) 0.12378(17)
H4 H 0.1939 0.1651 0.1424
C4 C 0.3903(5) 0.0282(2) 0.14078(17)
H5 H 0.2904 -0.0140 0.1704
C5 C 0.5986(5) -0.0169(2) 0.11387(14)
C6 C 0.7434(5) 0.0466(2) 0.06916(16)
H6 H 0.8823 0.0167 0.0509
C7 C 0.6859(5) 0.1531(2) 0.05120(17)
H7 H 0.7841 0.1950 0.0208
C8 C 0.6711(5) -0.1289(2) 0.13364(15)
C9 C 0.8740(5) -0.2709(2) 0.13936(16)
C10 C 1.0450(5) -0.3613(3) 0.13075(17)
H8 H 1.1867 -0.3336 0.1073
H9 H 0.9739 -0.4160 0.0956
loop_
_geom_bond_atom_site_label_1
_geom_bond_atom_site_label_2
_geom_bond_site_symmetry_1
_geom_bond_site_symmetry_2
Cl1 C10 1_555 1_555
S1 O1 1_555 1_555
O2 S1 1_555 1_555
O3 N1 1_555 1_555
N1 C8 1_555 1_555
N2 C8 1_555 1_555
C1 S1 1_555 1_555
H1 C1 1_555 1_555
H2 C1 1_555 1_555
H3 C1 1_555 1_555
C2 S1 1_555 1_555
C3 C2 1_555 1_555
H4 C3 1_555 1_555
C4 C3 1_555 1_555
H5 C4 1_555 1_555
C5 C4 1_555 1_555
C6 C5 1_555 1_555
H6 C6 1_555 1_555
C7 C2 1_555 1_555
H7 C7 1_555 1_555
C8 C5 1_555 1_555
C9 O3 1_555 1_555
C10 C9 1_555 1_555
H8 C10 1_555 1_555
H9 C10 1_555 1_555
N2 C9 1_555 1_555
C6 C7 1_555 1_555

#END
