
#######################################################################
#
#                 Cambridge Crystallographic Data Centre
#                                CCDC 
#
#######################################################################
#
# If this CIF has been generated from an entry in the Cambridge 
# Structural Database, then it will include bibliographic, chemical, 
# crystal, experimental, refinement or atomic coordinate data resulting 
# from the CCDC's data processing and validation procedures.
#
#######################################################################

data_PAMWAC
_chemical_formula_moiety         'C14 H18 N2 O2'
_chemical_name_systematic        
4-p-Tolyl-1,3,4,4a,5,6,7,8a-octahydro-2H-pyrano(2,3-d)pyrimidin-2-one
_symmetry_cell_setting           triclinic
_symmetry_space_group_name_H-M   'P -1'
_symmetry_Int_Tables_number      2
_space_group_name_Hall           '-P 1'
loop_
_symmetry_equiv_pos_site_id
_symmetry_equiv_pos_as_xyz
1 x,y,z
2 -x,-y,-z
_cell_length_a                   7.7151(10)
_cell_length_b                   8.5541(11)
_cell_length_c                   9.6887(13)
_cell_angle_alpha                88.516(2)
_cell_angle_beta                 76.964(2)
_cell_angle_gamma                83.401(2)
_cell_volume                     618.807
_exptl_crystal_colour            colorless
_exptl_crystal_description       prism
_cell_formula_units_Z            2
_exptl_crystal_recrystallization_method DMF
loop_
_atom_site_label
_atom_site_type_symbol
_atom_site_fract_x
_atom_site_fract_y
_atom_site_fract_z
O1 O 0.75791(14) -0.03244(11) -0.00243(11)
O2 O 0.78614(12) 0.44337(10) 0.02673(9)
N1 N 0.84457(15) 0.18026(13) 0.08654(13)
H1 H 0.9546 0.1399 0.0659
N2 N 0.54593(15) 0.14422(14) 0.12559(13)
H2 H 0.4662 0.0864 0.1141
C1 C 0.71710(18) 0.09202(15) 0.06612(14)
C2 C 0.48082(17) 0.28861(15) 0.20754(13)
H3 H 0.4349 0.3678 0.1459
C3 C 0.58620(19) 0.52325(16) 0.30750(14)
H4 H 0.4673 0.5349 0.3689
H5 H 0.6699 0.5492 0.3622
C4 C 0.59077(19) 0.63768(16) 0.18378(15)
H6 H 0.4908 0.6274 0.1405
H7 H 0.5798 0.7448 0.2178
C5 C 0.76487(18) 0.60300(16) 0.07525(15)
H8 H 0.7660 0.6741 -0.0045
H9 H 0.8642 0.6202 0.1170
C6 C 0.80411(17) 0.33677(15) 0.14062(14)
H10 H 0.9038 0.3626 0.1799
C7 C 0.63427(17) 0.35172(15) 0.25793(13)
H11 H 0.6579 0.2875 0.3383
C8 C 0.32813(17) 0.25735(16) 0.33050(14)
C9 C 0.3511(2) 0.1457(2) 0.4312(2)
H12 H 0.4619 0.0864 0.4223
C10 C 0.2139(2) 0.1188(2) 0.5454(2)
H13 H 0.2356 0.0441 0.6126
C11 C 0.0466(2) 0.2000(2) 0.56179(16)
C12 C 0.0227(2) 0.3106(2) 0.46006(17)
H14 H -0.0895 0.3670 0.4675
C13 C 0.16138(19) 0.34086(19) 0.34634(15)
H15 H 0.1411 0.4180 0.2806
C14 C -0.1023(3) 0.1706(3) 0.6870(2)
H16 H -0.2089 0.2376 0.6805
H17 H -0.0680 0.1930 0.7730
H18 H -0.1248 0.0625 0.6871
H19? H -0.0589 0.0912 0.7466
H20? H -0.1998 0.1357 0.6540
H21? H -0.1430 0.2662 0.7400
loop_
_geom_bond_atom_site_label_1
_geom_bond_atom_site_label_2
_geom_bond_site_symmetry_1
_geom_bond_site_symmetry_2
O1 C1 1_555 1_555
O2 C5 1_555 1_555
N1 H1 1_555 1_555
N2 H2 1_555 1_555
C1 N1 1_555 1_555
C2 N2 1_555 1_555
H3 C2 1_555 1_555
C3 H4 1_555 1_555
H5 C3 1_555 1_555
C4 C3 1_555 1_555
H6 C4 1_555 1_555
H7 C4 1_555 1_555
C5 C4 1_555 1_555
H8 C5 1_555 1_555
H9 C5 1_555 1_555
C6 O2 1_555 1_555
H10 C6 1_555 1_555
C7 C2 1_555 1_555
H11 C7 1_555 1_555
C8 C2 1_555 1_555
C9 C8 1_555 1_555
H12 C9 1_555 1_555
C10 C9 1_555 1_555
H13 C10 1_555 1_555
C11 C10 1_555 1_555
C12 C11 1_555 1_555
H14 C12 1_555 1_555
C13 C8 1_555 1_555
H15 C13 1_555 1_555
C14 C11 1_555 1_555
H16 C14 1_555 1_555
H17 C14 1_555 1_555
H18 C14 1_555 1_555
N1 C6 1_555 1_555
N2 C1 1_555 1_555
C3 C7 1_555 1_555
C6 C7 1_555 1_555
C12 C13 1_555 1_555

#END
