
#######################################################################
#
#                 Cambridge Crystallographic Data Centre
#                                CCDC 
#
#######################################################################
#
# If this CIF has been generated from an entry in the Cambridge 
# Structural Database, then it will include bibliographic, chemical, 
# crystal, experimental, refinement or atomic coordinate data resulting 
# from the CCDC's data processing and validation procedures.
#
#######################################################################

data_PAMXIL
_chemical_formula_moiety         'C22 H18 N8 S2'
_chemical_name_systematic        
1,1'-Diphenyl-5,5'-(o-phenylenebis(methylenethio))di-1H-tetrazole
_symmetry_cell_setting           orthorhombic
_symmetry_space_group_name_H-M   'P b c a'
_symmetry_Int_Tables_number      61
_space_group_name_Hall           '-P 2ac 2ab'
loop_
_symmetry_equiv_pos_site_id
_symmetry_equiv_pos_as_xyz
1 x,y,z
2 1/2-x,-y,1/2+z
3 -x,1/2+y,1/2-z
4 1/2+x,1/2-y,-z
5 -x,-y,-z
6 1/2+x,y,1/2-z
7 x,1/2-y,1/2+z
8 1/2-x,1/2+y,z
_cell_length_a                   12.485(4)
_cell_length_b                   13.666(4)
_cell_length_c                   25.801(8)
_cell_angle_alpha                90
_cell_angle_beta                 90
_cell_angle_gamma                90
_cell_volume                     4402.17
_exptl_crystal_colour            colorless
_exptl_crystal_description       block
_chemical_melting_point          '433-434 K'
_cell_formula_units_Z            8
_exptl_crystal_recrystallization_method acetonitrile/chloroform
loop_
_atom_site_label
_atom_site_type_symbol
_atom_site_fract_x
_atom_site_fract_y
_atom_site_fract_z
S1 S 0.50614(7) 0.15262(7) 0.41071(3)
S2 S 0.14111(8) 0.11341(7) 0.41454(4)
N1 N 0.5508(2) 0.01986(19) 0.33594(10)
N2 N 0.5521(2) -0.0779(2) 0.32760(12)
N3 N 0.5238(2) -0.1178(2) 0.37102(12)
N4 N 0.5038(2) -0.0488(2) 0.40808(10)
N5 N 0.1215(2) -0.0453(2) 0.35180(10)
N6 N 0.1777(3) -0.0960(2) 0.31542(12)
N7 N 0.2685(3) -0.0518(3) 0.31132(13)
N8 N 0.2749(2) 0.0262(2) 0.34371(12)
C1 C 0.48302(15) 0.1233(2) 0.26754(10)
H1 H 0.4147 0.0988 0.2736
C2 C 0.49878(19) 0.1948(2) 0.23002(10)
H2 H 0.4410 0.2182 0.2110
C3 C 0.6010(2) 0.23142(17) 0.22097(9)
H3 H 0.6115 0.2793 0.1959
C4 C 0.68738(17) 0.1965(2) 0.24944(11)
H4 H 0.7557 0.2209 0.2434
C5 C 0.67162(15) 0.12490(19) 0.28696(10)
H5 H 0.7294 0.1015 0.3060
C6 C 0.56944(18) 0.08831(16) 0.29601(8)
C7 C 0.5203(2) 0.0364(2) 0.38501(12)
C8 C 0.4123(3) 0.1242(2) 0.46321(12)
H6 H 0.3591 0.0777 0.4512
H7 H 0.4505 0.0953 0.4922
C9 C 0.3584(2) 0.2175(2) 0.48014(12)
C10 C 0.3920(3) 0.2635(3) 0.52510(12)
H8 H 0.4482 0.2367 0.5440
C11 C 0.3438(3) 0.3484(3) 0.54254(14)
H9 H 0.3676 0.3784 0.5728
C12 C 0.2608(3) 0.3880(3) 0.51485(15)
H10 H 0.2277 0.4448 0.5265
C13 C 0.2258(3) 0.3440(3) 0.46963(15)
H11 H 0.1697 0.3718 0.4511
C14 C 0.2736(2) 0.2587(2) 0.45169(12)
C15 C 0.2341(3) 0.2144(3) 0.40182(12)
H12 H 0.2946 0.1904 0.3819
H13 H 0.1983 0.2643 0.3814
C16 C 0.1825(3) 0.0293(2) 0.36826(12)
C17 C 0.0139(3) -0.0723(2) 0.36563(13)
C18 C -0.0116(3) -0.0843(2) 0.41731(14)
H14 H 0.0398 -0.0761 0.4430
C19 C -0.1162(3) -0.1088(3) 0.42963(17)
H15 H -0.1357 -0.1171 0.4641
C20 C -0.1912(3) -0.1210(3) 0.39130(19)
H16 H -0.2613 -0.1372 0.4001
C21 C -0.1638(3) -0.1095(3) 0.34028(18)
H17 H -0.2151 -0.1182 0.3146
C22 C -0.0603(3) -0.0850(3) 0.32697(15)
H18 H -0.0411 -0.0772 0.2924
loop_
_geom_bond_atom_site_label_1
_geom_bond_atom_site_label_2
_geom_bond_site_symmetry_1
_geom_bond_site_symmetry_2
S1 C7 1_555 1_555
S2 C15 1_555 1_555
N1 N2 1_555 1_555
N2 N3 1_555 1_555
N3 N4 1_555 1_555
N4 C7 1_555 1_555
N5 N6 1_555 1_555
N6 N7 1_555 1_555
N7 N8 1_555 1_555
N8 C16 1_555 1_555
C1 H1 1_555 1_555
C2 C1 1_555 1_555
H2 C2 1_555 1_555
C3 C2 1_555 1_555
H3 C3 1_555 1_555
C4 C3 1_555 1_555
H4 C4 1_555 1_555
C5 C4 1_555 1_555
H5 C5 1_555 1_555
C6 N1 1_555 1_555
C7 N1 1_555 1_555
C8 S1 1_555 1_555
H6 C8 1_555 1_555
H7 C8 1_555 1_555
C9 C8 1_555 1_555
C10 C9 1_555 1_555
H8 C10 1_555 1_555
C11 C10 1_555 1_555
H9 C11 1_555 1_555
C12 C11 1_555 1_555
H10 C12 1_555 1_555
C13 C12 1_555 1_555
H11 C13 1_555 1_555
C14 C9 1_555 1_555
C15 C14 1_555 1_555
H12 C15 1_555 1_555
H13 C15 1_555 1_555
C16 S2 1_555 1_555
C17 N5 1_555 1_555
C18 C17 1_555 1_555
H14 C18 1_555 1_555
C19 C18 1_555 1_555
H15 C19 1_555 1_555
C20 C19 1_555 1_555
H16 C20 1_555 1_555
C21 C20 1_555 1_555
H17 C21 1_555 1_555
C22 C17 1_555 1_555
H18 C22 1_555 1_555
N5 C16 1_555 1_555
C1 C6 1_555 1_555
C5 C6 1_555 1_555
C13 C14 1_555 1_555
C21 C22 1_555 1_555

#END
