
#######################################################################
#
#                 Cambridge Crystallographic Data Centre
#                                CCDC 
#
#######################################################################
#
# If this CIF has been generated from an entry in the Cambridge 
# Structural Database, then it will include bibliographic, chemical, 
# crystal, experimental, refinement or atomic coordinate data resulting 
# from the CCDC's data processing and validation procedures.
#
#######################################################################

data_PAMZOO10
_chemical_formula_moiety         'C19 H23 N3 O3'
_chemical_name_systematic        
2-Ethoxycarbonyl-5-methyl-10-(2,4,6-trimethylphenyl)-1,2,9-triaza-8-oxabicyclo(5.3.0)deca-3,5,9-triene
_symmetry_cell_setting           orthorhombic
_symmetry_space_group_name_H-M   'P 21 21 21'
_symmetry_Int_Tables_number      19
_space_group_name_Hall           'P 2ac 2ab'
loop_
_symmetry_equiv_pos_site_id
_symmetry_equiv_pos_as_xyz
1 x,y,z
2 1/2+x,1/2-y,-z
3 -x,1/2+y,1/2-z
4 1/2-x,-y,1/2+z
_cell_length_a                   7.671(3)
_cell_length_b                   8.621(2)
_cell_length_c                   28.191(8)
_cell_angle_alpha                90
_cell_angle_beta                 90
_cell_angle_gamma                90
_cell_volume                     1864.32
_exptl_crystal_colour            colorless
_chemical_melting_point          406K
_cell_formula_units_Z            4
loop_
_atom_site_label
_atom_site_type_symbol
_atom_site_fract_x
_atom_site_fract_y
_atom_site_fract_z
N1 N 0.0451(5) 0.3427(5) 0.1544(1)
N2 N 0.1975(5) 0.4221(5) 0.1645(1)
C1 C 0.3461(7) 0.4041(6) 0.1356(2)
C2 C 0.3951(7) 0.2703(7) 0.1178(2)
C3 C 0.3257(6) 0.1145(6) 0.1259(1)
C4 C 0.1760(7) 0.0783(5) 0.1476(2)
C5 C 0.0325(6) 0.1778(6) 0.1653(2)
O1 O -0.1277(4) 0.1426(4) 0.1404(1)
N3 N -0.1451(5) 0.2541(4) 0.1017(1)
C6 C -0.0424(5) 0.3646(5) 0.1115(1)
C7 C 0.1908(8) 0.5173(8) 0.2042(2)
O2 O 0.0699(6) 0.5197(6) 0.2314(1)
O3 O 0.3364(6) 0.5971(6) 0.2074(2)
C8 C 0.3688(16) 0.6815(12) 0.2540(3)
C9 C 0.4424(8) -0.0155(8) 0.1085(3)
C10 C -0.0196(5) 0.5071(5) 0.0832(2)
C11 C 0.0672(6) 0.4987(5) 0.0394(2)
C12 C 0.0963(6) 0.6340(5) 0.0145(2)
C13 C 0.0423(7) 0.7772(5) 0.0319(2)
C14 C -0.0466(7) 0.7822(5) 0.0739(2)
C15 C -0.0809(6) 0.6495(6) 0.0994(2)
C16 C 0.1248(7) 0.3470(5) 0.0185(2)
C17 C 0.0768(9) 0.9250(7) 0.0030(3)
C18 C -0.1883(8) 0.6590(8) 0.1455(2)
C19 C 0.4942(26) 0.7775(19) 0.2482(8)
H1 H 0.40380 0.49560 0.13330
H2 H 0.49590 0.26980 0.10010
H3 H 0.13850 -0.02010 0.14730
H4 H 0.01090 0.15670 0.19800
H5 H 0.57090 0.01700 0.11260
H6 H 0.41930 -0.11130 0.12750
H7 H 0.41800 -0.03610 0.07430
H8 H 0.16130 0.62920 -0.01610
H9 H -0.08750 0.88450 0.08640
H10 H 0.18860 0.35630 -0.00940
H11 H 0.03380 0.29600 0.01120
H12 H 0.19820 0.29020 0.03960
H13 H 0.03270 1.01460 0.02000
H14 H 0.20500 0.93700 -0.00220
H15 H 0.01720 0.91700 -0.02840
H16 H -0.30360 0.70830 0.13870
H17 H -0.12550 0.72520 0.16910
H18 H -0.20770 0.54960 0.15960
C20? C 0.3086(24) 0.8180(19) 0.2469(6)
loop_
_geom_bond_atom_site_label_1
_geom_bond_atom_site_label_2
_geom_bond_site_symmetry_1
_geom_bond_site_symmetry_2
N1 N2 1_555 1_555
N2 C1 1_555 1_555
C1 C2 1_555 1_555
C2 C3 1_555 1_555
C3 C4 1_555 1_555
C4 C5 1_555 1_555
C5 N1 1_555 1_555
O1 C5 1_555 1_555
N3 O1 1_555 1_555
C6 N1 1_555 1_555
C7 N2 1_555 1_555
O2 C7 1_555 1_555
O3 C7 1_555 1_555
C8 O3 1_555 1_555
C9 C3 1_555 1_555
C10 C6 1_555 1_555
C11 C10 1_555 1_555
C12 C11 1_555 1_555
C13 C12 1_555 1_555
C14 C13 1_555 1_555
C15 C10 1_555 1_555
C16 C11 1_555 1_555
C17 C13 1_555 1_555
C18 C15 1_555 1_555
C19 C8 1_555 1_555
H1 C1 1_555 1_555
H2 C2 1_555 1_555
H3 C4 1_555 1_555
H4 C5 1_555 1_555
H5 C9 1_555 1_555
H6 C9 1_555 1_555
H7 C9 1_555 1_555
H8 C12 1_555 1_555
H9 C14 1_555 1_555
H10 C16 1_555 1_555
H11 C16 1_555 1_555
H12 C16 1_555 1_555
H13 C17 1_555 1_555
H14 C17 1_555 1_555
H15 C17 1_555 1_555
H16 C18 1_555 1_555
H17 C18 1_555 1_555
H18 C18 1_555 1_555
N3 C6 1_555 1_555
C14 C15 1_555 1_555

#END
