
#######################################################################
#
#                 Cambridge Crystallographic Data Centre
#                                CCDC 
#
#######################################################################
#
# If this CIF has been generated from an entry in the Cambridge 
# Structural Database, then it will include bibliographic, chemical, 
# crystal, experimental, refinement or atomic coordinate data resulting 
# from the CCDC's data processing and validation procedures.
#
#######################################################################

data_PANFES
_chemical_compound_source        
'ethanol extract of the Monascus purpureus fermented rice'
_chemical_name_common            'Monascustin methanol solvate'
_chemical_formula_moiety         'C10 H18 N2 O3,C1 H4 O1'
_chemical_name_systematic        
'3-hydroxy-2-isobutyl-3-methyl-5-oxoprolinamide methanol solvate'
_chemical_properties_biological  
'weakly active for inhibitory activity against histone deacetylase 1 (HDAC1).'
_symmetry_cell_setting           orthorhombic
_symmetry_space_group_name_H-M   'P 21 21 21'
_symmetry_Int_Tables_number      19
_space_group_name_Hall           'P 2ac 2ab'
loop_
_symmetry_equiv_pos_site_id
_symmetry_equiv_pos_as_xyz
1 x,y,z
2 1/2-x,-y,1/2+z
3 1/2+x,1/2-y,-z
4 -x,1/2+y,1/2-z
_cell_length_a                   7.403(3)
_cell_length_b                   8.932(5)
_cell_length_c                   20.101(8)
_cell_angle_alpha                90
_cell_angle_beta                 90
_cell_angle_gamma                90
_cell_volume                     1329.15
_exptl_crystal_colour            colorless
_exptl_crystal_description       column
_cell_formula_units_Z            4
loop_
_atom_site_label
_atom_site_type_symbol
_atom_site_fract_x
_atom_site_fract_y
_atom_site_fract_z
O1 O 0.14403(15) 0.10336(14) 0.81930(6)
O2 O 0.16158(15) 0.51686(15) 0.74544(6)
H1 H 0.0648 0.5352 0.7274
O3 O 0.50176(19) 0.67314(15) 0.80881(7)
N1 N 0.32944(16) 0.30267(15) 0.83966(6)
H2 H 0.4269 0.2511 0.8437
N2 N 0.56622(19) 0.45226(16) 0.76105(7)
H3 H 0.6501 0.4905 0.7368
H4 H 0.5423 0.3582 0.7583
C1 C 0.1689(2) 0.23927(18) 0.82772(7)
C2 C 0.0279(2) 0.3607(2) 0.82869(9)
H5 H -0.0324 0.3648 0.8715
H6 H -0.0617 0.3446 0.7942
C3 C 0.1349(2) 0.5036(2) 0.81579(8)
C4 C 0.3272(2) 0.46452(17) 0.84532(7)
C5 C 0.3510(2) 0.5150(2) 0.91802(8)
H7 H 0.2509 0.4761 0.9440
H8 H 0.3445 0.6234 0.9196
C6 C 0.5302(3) 0.4645(2) 0.95113(9)
H9 H 0.6119 0.4312 0.9157
C7 C 0.6189(6) 0.5956(4) 0.9862(2)
H10 H 0.5396 0.6328 1.0202
H11 H 0.6430 0.6737 0.9546
H12 H 0.7303 0.5634 1.0061
C8 C 0.5034(4) 0.3361(3) 0.99781(13)
H13 H 0.4273 0.3669 1.0340
H14 H 0.6183 0.3045 1.0149
H15 H 0.4475 0.2545 0.9745
C9 C 0.4738(2) 0.53829(18) 0.80269(8)
C10 C 0.0480(3) 0.6444(2) 0.84286(10)
H16 H -0.0662 0.6601 0.8213
H17 H 0.1254 0.7285 0.8345
H18 H 0.0295 0.6339 0.8899
O4 O 0.63570(19) 0.11593(16) 0.86273(7)
H19 H 0.6784 0.0950 0.8263
C11 C 0.5960(5) -0.0166(3) 0.89754(13)
H20 H 0.6672 -0.0972 0.8799
H21 H 0.4701 -0.0398 0.8926
H22 H 0.6236 -0.0033 0.9438
loop_
_geom_bond_atom_site_label_1
_geom_bond_atom_site_label_2
_geom_bond_site_symmetry_1
_geom_bond_site_symmetry_2
O1 C1 1_555 1_555
O2 H1 1_555 1_555
O3 C9 1_555 1_555
N1 H2 1_555 1_555
N2 H3 1_555 1_555
H4 N2 1_555 1_555
C1 N1 1_555 1_555
C2 C1 1_555 1_555
H5 C2 1_555 1_555
H6 C2 1_555 1_555
C3 O2 1_555 1_555
C4 N1 1_555 1_555
C5 C4 1_555 1_555
H7 C5 1_555 1_555
H8 C5 1_555 1_555
C6 C5 1_555 1_555
H9 C6 1_555 1_555
C7 C6 1_555 1_555
H10 C7 1_555 1_555
H11 C7 1_555 1_555
H12 C7 1_555 1_555
C8 C6 1_555 1_555
H13 C8 1_555 1_555
H14 C8 1_555 1_555
H15 C8 1_555 1_555
C9 N2 1_555 1_555
C10 C3 1_555 1_555
H16 C10 1_555 1_555
H17 C10 1_555 1_555
H18 C10 1_555 1_555
O4 H19 1_555 1_555
C11 O4 1_555 1_555
H20 C11 1_555 1_555
H21 C11 1_555 1_555
H22 C11 1_555 1_555
C2 C3 1_555 1_555
C3 C4 1_555 1_555
C4 C9 1_555 1_555

#END
