
#######################################################################
#
#                 Cambridge Crystallographic Data Centre
#                                CCDC 
#
#######################################################################
#
# If this CIF has been generated from an entry in the Cambridge 
# Structural Database, then it will include bibliographic, chemical, 
# crystal, experimental, refinement or atomic coordinate data resulting 
# from the CCDC's data processing and validation procedures.
#
#######################################################################

data_PANHEU
_chemical_compound_source        'leaves of Cleistochlamys kirkii'
_chemical_name_common            (Z)-acetylmolodorinol
_chemical_formula_moiety         'C16 H14 O6'
_chemical_name_systematic        
'2-acetoxy-3-(5-oxofuran-2(5H)-ylidene)propyl benzoate'
_chemical_properties_biological  'Antiplasmodial and cytotoxic activity'
_symmetry_cell_setting           monoclinic
_symmetry_space_group_name_H-M   'P 21'
_symmetry_Int_Tables_number      4
_space_group_name_Hall           'P 2yb'
loop_
_symmetry_equiv_pos_site_id
_symmetry_equiv_pos_as_xyz
1 x,y,z
2 -x,1/2+y,-z
_cell_length_a                   7.1535(9)
_cell_length_b                   11.5439(10)
_cell_length_c                   9.2553(12)
_cell_angle_alpha                90
_cell_angle_beta                 110.398(14)
_cell_angle_gamma                90
_cell_volume                     716.37
_exptl_crystal_colour            colorless
_exptl_crystal_description       needle
_cell_formula_units_Z            2
loop_
_atom_site_label
_atom_site_type_symbol
_atom_site_fract_x
_atom_site_fract_y
_atom_site_fract_z
O1 O -0.0018(2) 0.18416(12) 0.18439(16)
O2 O 0.17371(19) 0.34884(10) 0.26224(14)
O3 O 0.63758(18) 0.54156(11) 0.46421(14)
O4 O 0.7020(2) 0.41244(12) 0.65845(15)
O5 O 0.4544(2) 0.64009(11) 0.66698(14)
O6 O 0.3080(2) 0.80995(12) 0.67786(16)
C1 C 0.0434(3) 0.27734(16) 0.1506(2)
C2 C -0.0121(3) 0.33880(17) 0.0030(2)
H1 H -0.1013 0.3112 -0.0929
C3 C 0.0838(3) 0.43988(16) 0.0263(2)
H2 H 0.0759 0.4963 -0.0504
C4 C 0.2026(3) 0.44906(15) 0.1892(2)
C5 C 0.3195(3) 0.53473(16) 0.2654(2)
H3 H 0.3374 0.5988 0.2071
C6 C 0.4253(3) 0.53808(16) 0.4364(2)
H4 H 0.3912 0.4680 0.4858
C7 C 0.3681(3) 0.64690(16) 0.5013(2)
H5 H 0.4192 0.7159 0.4636
H6 H 0.2211 0.6531 0.4685
C8 C 0.4151(3) 0.73130(16) 0.7422(2)
C9 C 0.5197(3) 0.72372(16) 0.9118(2)
C10 C 0.6430(3) 0.63086(16) 0.9814(2)
H7 H 0.6616 0.5686 0.9206
C11 C 0.7386(3) 0.63026(18) 1.1404(2)
H8 H 0.8222 0.5671 1.1885
C12 C 0.7125(3) 0.72153(18) 1.2293(2)
H9 H 0.7787 0.7207 1.3379
C13 C 0.5899(3) 0.81383(18) 1.1600(2)
H10 H 0.5716 0.8760 1.2210
C14 C 0.4941(3) 0.81503(16) 1.0014(2)
H11 H 0.4107 0.8784 0.9537
C15 C 0.7581(3) 0.47206(16) 0.5748(2)
C16 C 0.9674(3) 0.48016(19) 0.5772(2)
H12 H 0.9737 0.4513 0.4794
H13 H 1.0549 0.4334 0.6623
H14 H 1.0112 0.5611 0.5914
loop_
_geom_bond_atom_site_label_1
_geom_bond_atom_site_label_2
_geom_bond_site_symmetry_1
_geom_bond_site_symmetry_2
O1 C1 1_555 1_555
O2 C1 1_555 1_555
O3 C6 1_555 1_555
O4 C15 1_555 1_555
O5 C7 1_555 1_555
O6 C8 1_555 1_555
C1 C2 1_555 1_555
C2 H1 1_555 1_555
C3 C2 1_555 1_555
H2 C3 1_555 1_555
C4 O2 1_555 1_555
C5 C4 1_555 1_555
H3 C5 1_555 1_555
C6 C5 1_555 1_555
H4 C6 1_555 1_555
C7 C6 1_555 1_555
H5 C7 1_555 1_555
H6 C7 1_555 1_555
C8 O5 1_555 1_555
C9 C8 1_555 1_555
C10 C9 1_555 1_555
H7 C10 1_555 1_555
C11 C10 1_555 1_555
H8 C11 1_555 1_555
C12 C11 1_555 1_555
H9 C12 1_555 1_555
C13 C12 1_555 1_555
H10 C13 1_555 1_555
C14 C9 1_555 1_555
H11 C14 1_555 1_555
C15 O3 1_555 1_555
C16 C15 1_555 1_555
H12 C16 1_555 1_555
H13 C16 1_555 1_555
H14 C16 1_555 1_555
C3 C4 1_555 1_555
C13 C14 1_555 1_555

#END
