
#######################################################################
#
#                 Cambridge Crystallographic Data Centre
#                                CCDC 
#
#######################################################################
#
# If this CIF has been generated from an entry in the Cambridge 
# Structural Database, then it will include bibliographic, chemical, 
# crystal, experimental, refinement or atomic coordinate data resulting 
# from the CCDC's data processing and validation procedures.
#
#######################################################################

data_PANKUL
_chemical_name_common            Guaiphenesin
_chemical_formula_moiety         'C10 H14 O4'
_chemical_name_systematic        3-(2-Methoxyphenoxy)propane-1,2-diol
_chemical_properties_biological  
'an ingredient found in cold preparations- cures coughs and clears phlegm and historically used to treat rheumatism'
_symmetry_cell_setting           orthorhombic
_symmetry_space_group_name_H-M   'P 21 21 21'
_symmetry_Int_Tables_number      19
_space_group_name_Hall           'P 2ac 2ab'
loop_
_symmetry_equiv_pos_site_id
_symmetry_equiv_pos_as_xyz
1 x,y,z
2 1/2-x,-y,1/2+z
3 -x,1/2+y,1/2-z
4 1/2+x,1/2-y,-z
_cell_length_a                   4.9836(10)
_cell_length_b                   7.6562(15)
_cell_length_c                   25.698(5)
_cell_angle_alpha                90
_cell_angle_beta                 90
_cell_angle_gamma                90
_cell_volume                     980.518
_exptl_crystal_colour            colorless
_exptl_crystal_description       needle
_chemical_melting_point          '355.4 K'
_cell_formula_units_Z            4
loop_
_atom_site_label
_atom_site_type_symbol
_atom_site_fract_x
_atom_site_fract_y
_atom_site_fract_z
C1 C 1.2993(5) 0.5757(4) 0.02231(11)
H1 H 1.2735 0.6945 0.0115
H2 H 1.3004 0.5009 -0.0077
H3 H 1.4674 0.5655 0.0403
C2 C 1.0968(4) 0.3583(3) 0.07477(8)
C3 C 1.2737(5) 0.2306(3) 0.05803(8)
H4 H 1.3976 0.2562 0.0321
C4 C 1.2676(5) 0.0650(3) 0.07965(10)
H5 H 1.3853 -0.0203 0.0677
C5 C 1.0883(5) 0.0258(3) 0.11871(11)
H6 H 1.0859 -0.0855 0.1332
C6 C 0.9106(5) 0.1529(3) 0.13648(9)
H7 H 0.7896 0.1264 0.1629
C7 C 0.9138(4) 0.3183(3) 0.11489(7)
C8 C 0.5792(4) 0.4210(3) 0.17351(8)
H8 H 0.6862 0.3980 0.2043
H9 H 0.4656 0.3204 0.1670
C9 C 0.4095(4) 0.5827(3) 0.18138(7)
H10 H 0.2902 0.5954 0.1513
C10 C 0.5733(4) 0.7480(3) 0.18666(9)
H11 H 0.6559 0.7752 0.1535
H12 H 0.4554 0.8441 0.1958
O1 O 1.0869(3) 0.5255(2) 0.05609(6)
O2 O 0.7492(3) 0.45292(19) 0.12978(6)
O3 O 0.2484(3) 0.5507(2) 0.22650(6)
H13 H 0.2657 0.4485 0.2355
O4 O 0.7766(3) 0.7314(2) 0.22526(7)
H14 H 0.8962 0.6676 0.2144
loop_
_geom_bond_atom_site_label_1
_geom_bond_atom_site_label_2
_geom_bond_site_symmetry_1
_geom_bond_site_symmetry_2
C1 H1 1_555 1_555
H2 C1 1_555 1_555
H3 C1 1_555 1_555
C2 C3 1_555 1_555
C3 H4 1_555 1_555
C4 C3 1_555 1_555
H5 C4 1_555 1_555
C5 C4 1_555 1_555
H6 C5 1_555 1_555
C6 C5 1_555 1_555
H7 C6 1_555 1_555
C7 C2 1_555 1_555
C8 H8 1_555 1_555
H9 C8 1_555 1_555
C9 C8 1_555 1_555
H10 C9 1_555 1_555
C10 C9 1_555 1_555
H11 C10 1_555 1_555
H12 C10 1_555 1_555
O1 C1 1_555 1_555
O2 C7 1_555 1_555
O3 C9 1_555 1_555
H13 O3 1_555 1_555
O4 C10 1_555 1_555
H14 O4 1_555 1_555
C2 O1 1_555 1_555
C6 C7 1_555 1_555
C8 O2 1_555 1_555

#END
