
#######################################################################
#
#                 Cambridge Crystallographic Data Centre
#                                CCDC 
#
#######################################################################
#
# If this CIF has been generated from an entry in the Cambridge 
# Structural Database, then it will include bibliographic, chemical, 
# crystal, experimental, refinement or atomic coordinate data resulting 
# from the CCDC's data processing and validation procedures.
#
#######################################################################

data_PANNIE
_chemical_formula_moiety         'C19 H16 N4 O2,2(H2 O1)'
_chemical_name_systematic        
"5-methyl-N,N'-bis(pyridin-3-yl)isophthalamide dihydrate"
_symmetry_cell_setting           monoclinic
_symmetry_space_group_name_H-M   'C 2/c'
_symmetry_Int_Tables_number      15
_space_group_name_Hall           '-C 2yn'
loop_
_symmetry_equiv_pos_site_id
_symmetry_equiv_pos_as_xyz
1 x,y,z
2 -x,y,1/2-z
3 1/2+x,1/2+y,z
4 1/2-x,1/2+y,1/2-z
5 -x,-y,-z
6 x,-y,1/2+z
7 1/2-x,1/2-y,-z
8 1/2+x,1/2-y,1/2+z
_cell_length_a                   11.1507(12)
_cell_length_b                   16.5148(19)
_cell_length_c                   10.2432(18)
_cell_angle_alpha                90
_cell_angle_beta                 104.9430(10)
_cell_angle_gamma                90
_cell_volume                     1822.51
_exptl_crystal_colour            yellow
_exptl_crystal_description       block
_cell_formula_units_Z            4
loop_
_atom_site_label
_atom_site_type_symbol
_atom_site_fract_x
_atom_site_fract_y
_atom_site_fract_z
C1 C 0.5000 0.20157(15) 0.7500
H1 H 0.5000 0.2579 0.7500
O1 O 0.30920(12) 0.16971(8) 0.41429(11)
C2 C 0.44966(14) 0.15935(11) 0.63107(15)
N1 N 0.43780(14) 0.27585(10) 0.48541(15)
C3 C 0.39221(15) 0.20207(11) 0.50043(16)
C4 C 0.5000 0.03206(15) 0.7500
C5 C 0.44860(15) 0.07542(11) 0.63288(16)
H2 H 0.4126 0.0475 0.5536
C6 C 0.38821(15) 0.33063(12) 0.37871(17)
C7 C 0.33816(17) 0.30769(14) 0.24611(17)
H3 H 0.3340 0.2534 0.2209
C8 C 0.5000 -0.05925(16) 0.7500
N2 N 0.35320(15) 0.47060(11) 0.31898(19)
C9 C 0.39300(17) 0.41244(13) 0.4088(2)
H4 H 0.4265 0.4276 0.4982
C10 C 0.30371(19) 0.44698(17) 0.1917(2)
H5 H 0.2740 0.4866 0.1269
C11 C 0.2944(2) 0.36793(18) 0.1518(2)
H6 H 0.2589 0.3546 0.0619
H7 H 0.4939(17) 0.2969(11) 0.5486(19)
O1A O 0.69080(12) 0.16971(8) 1.08571(11)
C2A C 0.55034(14) 0.15935(11) 0.86893(15)
N1A N 0.56220(14) 0.27585(10) 1.01459(15)
C3A C 0.60779(15) 0.20207(11) 0.99957(16)
C5A C 0.55140(15) 0.07542(11) 0.86712(16)
H2A H 0.5874 0.0475 0.9464
C6A C 0.61179(15) 0.33063(12) 1.12129(17)
C7A C 0.66184(17) 0.30769(14) 1.25389(17)
H3A H 0.6660 0.2534 1.2791
N2A N 0.64680(15) 0.47060(11) 1.18102(19)
C9A C 0.60700(17) 0.41244(13) 1.0912(2)
H4A H 0.5735 0.4276 1.0018
C10A C 0.69629(19) 0.44698(17) 1.3083(2)
H5A H 0.7260 0.4866 1.3731
C11A C 0.7056(2) 0.36793(18) 1.3482(2)
H6A H 0.7411 0.3546 1.4381
H7A H 0.5061(17) 0.2969(11) 0.9514(19)
O2 O 0.14152(15) 0.14032(12) 0.16291(17)
H8 H 0.185(3) 0.1541(16) 0.240(3)
H9 H 0.140(2) 0.083(2) 0.164(3)
H10? H 0.4611 -0.0786 0.6608
H11? H 0.5839 -0.0786 0.7772
H12? H 0.4550 -0.0786 0.8120
loop_
_geom_bond_atom_site_label_1
_geom_bond_atom_site_label_2
_geom_bond_site_symmetry_1
_geom_bond_site_symmetry_2
C1 H1 1_555 1_555
O1 C3 1_555 1_555
C2 C1 1_555 1_555
N1 C3 1_555 1_555
C3 C2 1_555 1_555
C4 C5 1_555 1_555
C5 C2 1_555 1_555
H2 C5 1_555 1_555
C6 N1 1_555 1_555
C7 C6 1_555 1_555
H3 C7 1_555 1_555
C8 C4 1_555 1_555
N2 C9 1_555 1_555
C9 C6 1_555 1_555
H4 C9 1_555 1_555
C10 N2 1_555 1_555
H5 C10 1_555 1_555
C11 C7 1_555 1_555
H6 C11 1_555 1_555
H7 N1 1_555 1_555
O2 H8 1_555 1_555
H9 O2 1_555 1_555
O1A C3A 1_555 1_555
C2A C1 1_555 1_555
N1A C3A 1_555 1_555
C3A C2A 1_555 1_555
C5A C4 1_555 1_555
H2A C5A 1_555 1_555
C6A N1A 1_555 1_555
C7A C6A 1_555 1_555
H3A C7A 1_555 1_555
N2A C9A 1_555 1_555
C9A C6A 1_555 1_555
H4A C9A 1_555 1_555
C10A N2A 1_555 1_555
H5A C10A 1_555 1_555
C11A C7A 1_555 1_555
H6A C11A 1_555 1_555
H7A N1A 1_555 1_555
C10 C11 1_555 1_555
C2A C5A 1_555 1_555
C10A C11A 1_555 1_555

#END
