
#######################################################################
#
#                 Cambridge Crystallographic Data Centre
#                                CCDC 
#
#######################################################################
#
# If this CIF has been generated from an entry in the Cambridge 
# Structural Database, then it will include bibliographic, chemical, 
# crystal, experimental, refinement or atomic coordinate data resulting 
# from the CCDC's data processing and validation procedures.
#
#######################################################################

data_PANQEC
_chemical_formula_moiety         'C19 H27 N5 2+,C3 H6 O1,2(I1 1-)'
_chemical_name_systematic        
"1,1'-((Benzylimino)diethane-2,1-diyl)bis(3-methyl-1H-imidazol-3-ium) bis(iodide) acetone solvate"
_symmetry_cell_setting           monoclinic
_symmetry_space_group_name_H-M   'P 21/c'
_symmetry_Int_Tables_number      14
_space_group_name_Hall           '-P 2ybc'
loop_
_symmetry_equiv_pos_site_id
_symmetry_equiv_pos_as_xyz
1 x,y,z
2 -x,1/2+y,1/2-z
3 -x,-y,-z
4 x,1/2-y,1/2+z
_cell_length_a                   7.15831(15)
_cell_length_b                   37.7352(8)
_cell_length_c                   9.7528(7)
_cell_angle_alpha                90
_cell_angle_beta                 95.274(7)
_cell_angle_gamma                90
_cell_volume                     2623.28
_exptl_crystal_colour            colorless
_exptl_crystal_description       prism
_cell_formula_units_Z            4
loop_
_atom_site_label
_atom_site_type_symbol
_atom_site_fract_x
_atom_site_fract_y
_atom_site_fract_z
I1 I 0.20476(7) 0.414262(12) -0.02604(5)
I2 I 0.41670(7) 0.256355(12) 0.61874(5)
O1 O 0.3852(8) 0.50501(15) 0.2962(6)
C1 C 0.3062(12) 0.5271(3) 0.0683(9)
C2 C 0.2656(12) 0.5096(2) 0.2011(9)
C3 C 0.0671(12) 0.4979(2) 0.2084(9)
H1 H 0.2900 0.5099 -0.0069
H2 H 0.4355 0.5359 0.0766
H3 H 0.2195 0.5470 0.0488
H4 H 0.0382 0.4785 0.1428
H5 H -0.0177 0.5178 0.1854
H6 H 0.0508 0.4896 0.3018
N1 N 0.2663(9) 0.41249(15) 0.5104(6)
N2 N 0.2646(8) 0.36445(15) 0.3869(6)
N3 N -0.0686(7) 0.32099(14) 0.3024(6)
N4 N -0.1108(8) 0.22541(15) 0.3915(6)
N5 N -0.2169(9) 0.17185(15) 0.3662(6)
C4 C 0.2648(11) 0.4500(2) 0.5488(8)
C5 C 0.2602(10) 0.40005(19) 0.3835(8)
C6 C 0.2757(11) 0.3844(2) 0.5996(8)
C7 C 0.2744(11) 0.3543(2) 0.5241(7)
C8 C 0.2510(10) 0.34121(18) 0.2682(8)
C9 C 0.0487(9) 0.33830(18) 0.2069(7)
C10 C -0.0661(9) 0.28267(17) 0.2859(7)
C11 C -0.1027(11) 0.26337(19) 0.4165(8)
C12 C -0.2594(10) 0.20432(19) 0.4010(7)
C13 C 0.0304(10) 0.20511(19) 0.3450(7)
C14 C -0.0362(11) 0.1718(2) 0.3311(8)
C15 C -0.3414(13) 0.1409(2) 0.3647(9)
C16 C -0.2615(10) 0.33545(19) 0.2891(8)
C17 C -0.2654(10) 0.37277(18) 0.3430(8)
C18 C -0.3143(11) 0.40119(19) 0.2564(9)
C19 C -0.3188(11) 0.4356(2) 0.3075(9)
C20 C -0.2729(11) 0.4421(2) 0.4441(9)
C21 C -0.2205(12) 0.4139(2) 0.5311(9)
C22 C -0.2181(11) 0.3797(2) 0.4810(8)
H7 H 0.1388 0.4567 0.5713
H8 H 0.2996 0.4645 0.4717
H9 H 0.3549 0.4540 0.6292
H10 H 0.2537 0.4141 0.3023
H11 H 0.2821 0.3858 0.6972
H12 H 0.2792 0.3307 0.5585
H13 H 0.2987 0.3174 0.2959
H14 H 0.3294 0.3506 0.1980
H15 H -0.0012 0.3623 0.1845
H16 H 0.0438 0.3245 0.1202
H17 H 0.0577 0.2754 0.2579
H18 H -0.1626 0.2758 0.2115
H19 H -0.0015 0.2687 0.4896
H20 H -0.2230 0.2715 0.4482
H21 H -0.3772 0.2117 0.4286
H22 H 0.1514 0.2131 0.3263
H23 H 0.0305 0.1518 0.3021
H24 H -0.4431 0.1456 0.4230
H25 H -0.2698 0.1202 0.3999
H26 H -0.3946 0.1363 0.2702
H27 H -0.3431 0.3203 0.3410
H28 H -0.3114 0.3351 0.1910
H29 H -0.3451 0.3971 0.1609
H30 H -0.3542 0.4546 0.2469
H31 H -0.2766 0.4656 0.4791
H32 H -0.1860 0.4182 0.6260
H33 H -0.1836 0.3607 0.5421
loop_
_geom_bond_atom_site_label_1
_geom_bond_atom_site_label_2
_geom_bond_site_symmetry_1
_geom_bond_site_symmetry_2
O1 C2 1_555 1_555
C1 C2 1_555 1_555
C2 C3 1_555 1_555
C3 H4 1_555 1_555
H1 C1 1_555 1_555
H2 C1 1_555 1_555
H3 C1 1_555 1_555
H5 C3 1_555 1_555
H6 C3 1_555 1_555
N1 C4 1_555 1_555
N2 C5 1_555 1_555
N3 C9 1_555 1_555
N4 C11 1_555 1_555
N5 C12 1_555 1_555
C4 H7 1_555 1_555
C5 N1 1_555 1_555
C6 N1 1_555 1_555
C7 N2 1_555 1_555
C8 N2 1_555 1_555
C9 C8 1_555 1_555
C10 N3 1_555 1_555
C11 C10 1_555 1_555
C12 N4 1_555 1_555
C13 N4 1_555 1_555
C14 N5 1_555 1_555
C15 N5 1_555 1_555
C16 N3 1_555 1_555
C17 C16 1_555 1_555
C18 C17 1_555 1_555
C19 C18 1_555 1_555
C20 C19 1_555 1_555
C21 C20 1_555 1_555
C22 C17 1_555 1_555
H8 C4 1_555 1_555
H9 C4 1_555 1_555
H10 C5 1_555 1_555
H11 C6 1_555 1_555
H12 C7 1_555 1_555
H13 C8 1_555 1_555
H14 C8 1_555 1_555
H15 C9 1_555 1_555
H16 C9 1_555 1_555
H17 C10 1_555 1_555
H18 C10 1_555 1_555
H19 C11 1_555 1_555
H20 C11 1_555 1_555
H21 C12 1_555 1_555
H22 C13 1_555 1_555
H23 C14 1_555 1_555
H24 C15 1_555 1_555
H25 C15 1_555 1_555
H26 C15 1_555 1_555
H27 C16 1_555 1_555
H28 C16 1_555 1_555
H29 C18 1_555 1_555
H30 C19 1_555 1_555
H31 C20 1_555 1_555
H32 C21 1_555 1_555
H33 C22 1_555 1_555
C6 C7 1_555 1_555
C13 C14 1_555 1_555
C21 C22 1_555 1_555

#END
