
#######################################################################
#
#                 Cambridge Crystallographic Data Centre
#                                CCDC 
#
#######################################################################
#
# If this CIF has been generated from an entry in the Cambridge 
# Structural Database, then it will include bibliographic, chemical, 
# crystal, experimental, refinement or atomic coordinate data resulting 
# from the CCDC's data processing and validation procedures.
#
#######################################################################

data_PANVEI
_chemical_formula_moiety         'C25 H24 F3 N3 O2 S1'
_chemical_name_systematic        
(S)-1-(benzo[b]thiophen-6-yl)-N-cyclopentyl-6-oxo-4-(4-(trifluoromethyl)phenyl)piperazine-2-carboxamide
_chemical_properties_biological  
'potent pan-serotypic oxopiperazine; potent anti-dengue activity in the cell-based assay across all four dengue serotypes with EC50 < 0.1  M;  antiviral activity'
_symmetry_cell_setting           monoclinic
_symmetry_space_group_name_H-M   'P 21'
_symmetry_Int_Tables_number      4
_space_group_name_Hall           'P 2yb'
loop_
_symmetry_equiv_pos_site_id
_symmetry_equiv_pos_as_xyz
1 x,y,z
2 -x,1/2+y,-z
_cell_length_a                   10.323(2)
_cell_length_b                   10.486(2)
_cell_length_c                   10.727(3)
_cell_angle_alpha                90
_cell_angle_beta                 90.707(14)
_cell_angle_gamma                90
_cell_volume                     1161.08
_exptl_crystal_colour            colorless
_exptl_crystal_description       needle
_cell_formula_units_Z            2
loop_
_atom_site_label
_atom_site_type_symbol
_atom_site_fract_x
_atom_site_fract_y
_atom_site_fract_z
C1 C 0.05238(16) 0.88324(16) 1.24731(16)
H1 H 0.1198 0.9366 1.2177
C2 C -0.01061(18) 0.90977(16) 1.35898(16)
S1 S 0.01866(5) 1.03821(4) 1.45718(4)
C3 C -0.0961(2) 0.9833(2) 1.56160(18)
H2 H -0.1155 1.0252 1.6376
C4 C -0.15433(19) 0.8757(2) 1.52361(18)
H3 H -0.2191 0.8333 1.5702
C5 C -0.10895(17) 0.83083(18) 1.40550(17)
C6 C -0.14787(17) 0.72427(17) 1.33443(17)
H4 H -0.2153 0.6705 1.3630
C7 C -0.08768(16) 0.69843(17) 1.22333(16)
H5 H -0.1144 0.6273 1.1746
C8 C 0.01312(16) 0.77725(15) 1.18206(15)
N1 N 0.07141(13) 0.75368(13) 1.06259(12)
C9 C 0.14111(15) 0.64657(15) 1.04336(15)
O1 O 0.16868(11) 0.57130(10) 1.12773(10)
C10 C 0.19393(16) 0.62189(16) 0.91462(16)
H6 H 0.2893 0.6141 0.9224
H7 H 0.1606 0.5382 0.8861
N2 N 0.16573(13) 0.71469(13) 0.81712(13)
C11 C 0.10494(16) 0.83457(15) 0.85199(16)
H8 H 0.0597 0.8712 0.7784
H9 H 0.1726 0.8958 0.8793
C12 C 0.00908(15) 0.81579(16) 0.95587(14)
H10 H -0.0225 0.9015 0.9829
C13 C -0.10884(15) 0.73529(15) 0.91460(15)
O2 O -0.10593(12) 0.61819(11) 0.92299(11)
N3 N -0.20927(12) 0.80233(13) 0.87029(13)
H11 H -0.2034 0.8860 0.8679
C14 C -0.32876(16) 0.74160(17) 0.82559(16)
H12 H -0.3100 0.6735 0.7631
C15 C -0.41821(16) 0.84438(17) 0.76987(17)
H13 H -0.4809 0.8062 0.7101
H14 H -0.3672 0.9102 0.7261
C16 C -0.48893(18) 0.9027(2) 0.88166(19)
H15 H -0.4513 0.9867 0.9036
H16 H -0.5821 0.9142 0.8619
C17 C -0.4706(2) 0.8080(3) 0.9898(2)
H17 H -0.4140 0.8450 1.0556
H18 H -0.5552 0.7863 1.0268
C18 C -0.40781(19) 0.6892(2) 0.9335(2)
H19 H -0.3513 0.6458 0.9954
H20 H -0.4744 0.6284 0.9031
C19 C 0.23896(15) 0.71039(17) 0.70877(15)
C20 C 0.31335(16) 0.60279(16) 0.67936(16)
H21 H 0.3148 0.5317 0.7343
C21 C 0.38489(17) 0.59933(17) 0.57067(17)
H22 H 0.4342 0.5255 0.5517
C22 C 0.38530(16) 0.70203(19) 0.48947(16)
C23 C 0.31053(17) 0.80823(18) 0.51719(17)
H23 H 0.3084 0.8783 0.4611
C24 C 0.23957(17) 0.81324(18) 0.62469(16)
H24 H 0.1902 0.8873 0.6424
C25 C 0.46097(18) 0.69931(19) 0.37256(17)
F1 F 0.54148(12) 0.59903(12) 0.36509(12)
F2 F 0.53557(13) 0.80277(12) 0.35923(13)
F3 F 0.38588(13) 0.69186(18) 0.27030(11)
loop_
_geom_bond_atom_site_label_1
_geom_bond_atom_site_label_2
_geom_bond_site_symmetry_1
_geom_bond_site_symmetry_2
C1 H1 1_555 1_555
C2 C1 1_555 1_555
S1 C2 1_555 1_555
C3 S1 1_555 1_555
H2 C3 1_555 1_555
C4 C3 1_555 1_555
H3 C4 1_555 1_555
C5 C2 1_555 1_555
C6 C5 1_555 1_555
H4 C6 1_555 1_555
C7 C6 1_555 1_555
H5 C7 1_555 1_555
C8 C1 1_555 1_555
N1 C8 1_555 1_555
C9 N1 1_555 1_555
O1 C9 1_555 1_555
C10 C9 1_555 1_555
H6 C10 1_555 1_555
H7 C10 1_555 1_555
N2 C10 1_555 1_555
C11 N2 1_555 1_555
H8 C11 1_555 1_555
H9 C11 1_555 1_555
C12 N1 1_555 1_555
H10 C12 1_555 1_555
C13 C12 1_555 1_555
O2 C13 1_555 1_555
N3 C13 1_555 1_555
H11 N3 1_555 1_555
C14 N3 1_555 1_555
H12 C14 1_555 1_555
C15 C14 1_555 1_555
H13 C15 1_555 1_555
H14 C15 1_555 1_555
C16 C15 1_555 1_555
H15 C16 1_555 1_555
H16 C16 1_555 1_555
C17 C16 1_555 1_555
H17 C17 1_555 1_555
H18 C17 1_555 1_555
C18 C14 1_555 1_555
H19 C18 1_555 1_555
H20 C18 1_555 1_555
C19 N2 1_555 1_555
C20 C19 1_555 1_555
H21 C20 1_555 1_555
C21 C20 1_555 1_555
H22 C21 1_555 1_555
C22 C21 1_555 1_555
C23 C22 1_555 1_555
H23 C23 1_555 1_555
C24 C19 1_555 1_555
H24 C24 1_555 1_555
C25 C22 1_555 1_555
F1 C25 1_555 1_555
F2 C25 1_555 1_555
F3 C25 1_555 1_555
C4 C5 1_555 1_555
C7 C8 1_555 1_555
C11 C12 1_555 1_555
C17 C18 1_555 1_555
C23 C24 1_555 1_555

#END
