
#######################################################################
#
#                 Cambridge Crystallographic Data Centre
#                                CCDC 
#
#######################################################################
#
# If this CIF has been generated from an entry in the Cambridge 
# Structural Database, then it will include bibliographic, chemical, 
# crystal, experimental, refinement or atomic coordinate data resulting 
# from the CCDC's data processing and validation procedures.
#
#######################################################################

data_PAPFEU
_chemical_formula_moiety         'C22 H18 N2 O6'
_chemical_name_systematic        
"cis-methyl (1,1''-dimethyl-2,2''-dioxo-1,1'',2,2''-tetrahydrodispiro[indole-3,2'-[1,3]dioxolane-4',3''-indol]-5'-ylidene)acetate"
_symmetry_cell_setting           monoclinic
_symmetry_space_group_name_H-M   'P 21/n'
_symmetry_Int_Tables_number      14
_space_group_name_Hall           '-P 2yn'
loop_
_symmetry_equiv_pos_site_id
_symmetry_equiv_pos_as_xyz
1 x,y,z
2 1/2-x,1/2+y,1/2-z
3 -x,-y,-z
4 1/2+x,1/2-y,1/2+z
_cell_length_a                   12.1235(7)
_cell_length_b                   10.5988(6)
_cell_length_c                   16.7683(10)
_cell_angle_alpha                90
_cell_angle_beta                 104.596(3)
_cell_angle_gamma                90
_cell_volume                     2085.1
_exptl_crystal_description       block
_cell_formula_units_Z            4
loop_
_atom_site_label
_atom_site_type_symbol
_atom_site_fract_x
_atom_site_fract_y
_atom_site_fract_z
N1 N 0.33465(19) 1.0561(2) 0.22582(15)
N2 N 0.3842(2) 0.6345(2) -0.04582(14)
C1 C 0.5097(2) 1.0345(2) 0.19848(16)
C2 C 0.4396(2) 0.9201(2) 0.16220(15)
C3 C 0.6208(2) 1.0661(2) 0.20286(18)
H1 H 0.6650 1.0167 0.1771
C4 C 0.4452(2) 1.1071(2) 0.23828(16)
C5 C 0.3211(2) 0.9526(2) 0.17764(17)
C6 C 0.6005(3) 1.2448(3) 0.28513(19)
H2 H 0.6323 1.3162 0.3143
C7 C 0.6659(3) 1.1730(2) 0.24643(19)
H3 H 0.7408 1.1964 0.2495
C8 C 0.4887(3) 1.2136(3) 0.28191(19)
H4 H 0.4447 1.2626 0.3081
O1 O 0.23327(16) 0.89415(18) 0.15227(13)
O2 O 0.2675(2) 0.6760(2) 0.04001(16)
O3 O 0.43277(15) 0.89711(15) 0.07715(10)
O4 O 0.50062(17) 0.71621(16) 0.14593(11)
O5 O 0.58210(19) 0.56418(17) 0.28848(12)
O6 O 0.5700(2) 0.6622(2) 0.40271(13)
C9 C 0.2416(3) 1.1153(3) 0.2523(2)
H5 H 0.2193 1.1915 0.2214
H6 H 0.2662 1.1350 0.3099
H7 H 0.1779 1.0586 0.2429
C10 C 0.4959(2) 0.6668(2) -0.04815(16)
C11 C 0.5429(2) 0.7508(2) 0.01418(16)
C12 C 0.4600(2) 0.7703(2) 0.06533(16)
C13 C 0.3558(3) 0.6900(2) 0.01897(19)
C14 C 0.5568(3) 0.6233(3) -0.10171(18)
H8 H 0.5258 0.5654 -0.1430
C15 C 0.3089(3) 0.5501(3) -0.1031(2)
H9 H 0.3490 0.4738 -0.1086
H10 H 0.2843 0.5904 -0.1559
H11 H 0.2438 0.5305 -0.0826
C16 C 0.6508(3) 0.7968(3) 0.02274(18)
H12 H 0.6818 0.8548 0.0639
C17 C 0.7131(3) 0.7553(3) -0.0312(2)
H13 H 0.7864 0.7856 -0.0266
C18 C 0.6661(3) 0.6695(3) -0.0913(2)
H14 H 0.7094 0.6414 -0.1263
C19 C 0.5577(2) 0.6552(2) 0.32241(16)
C20 C 0.4861(2) 0.7978(2) 0.20346(16)
C21 C 0.5118(2) 0.7745(2) 0.28307(16)
H15 H 0.5000 0.8392 0.3175
C22 C 0.6202(4) 0.5548(4) 0.4499(2)
H16 H 0.5704 0.4835 0.4353
H17 H 0.6317 0.5727 0.5075
H18 H 0.6922 0.5364 0.4384
loop_
_geom_bond_atom_site_label_1
_geom_bond_atom_site_label_2
_geom_bond_site_symmetry_1
_geom_bond_site_symmetry_2
N1 C4 1_555 1_555
N2 C10 1_555 1_555
C1 C2 1_555 1_555
C2 C5 1_555 1_555
C3 C1 1_555 1_555
H1 C3 1_555 1_555
C4 C1 1_555 1_555
C5 N1 1_555 1_555
C6 H2 1_555 1_555
C7 C3 1_555 1_555
H3 C7 1_555 1_555
C8 C4 1_555 1_555
H4 C8 1_555 1_555
O1 C5 1_555 1_555
O2 C13 1_555 1_555
O3 C2 1_555 1_555
O4 C12 1_555 1_555
O5 C19 1_555 1_555
O6 C19 1_555 1_555
C9 N1 1_555 1_555
H5 C9 1_555 1_555
H6 C9 1_555 1_555
H7 C9 1_555 1_555
C10 C11 1_555 1_555
C11 C12 1_555 1_555
C12 O3 1_555 1_555
C13 N2 1_555 1_555
C14 C10 1_555 1_555
H8 C14 1_555 1_555
C15 N2 1_555 1_555
H9 C15 1_555 1_555
H10 C15 1_555 1_555
H11 C15 1_555 1_555
C16 C11 1_555 1_555
H12 C16 1_555 1_555
C17 C16 1_555 1_555
H13 C17 1_555 1_555
C18 C14 1_555 1_555
H14 C18 1_555 1_555
C19 C21 1_555 1_555
C20 C2 1_555 1_555
C21 C20 1_555 1_555
H15 C21 1_555 1_555
C22 O6 1_555 1_555
H16 C22 1_555 1_555
H17 C22 1_555 1_555
H18 C22 1_555 1_555
C6 C7 1_555 1_555
C6 C8 1_555 1_555
O4 C20 1_555 1_555
C12 C13 1_555 1_555
C17 C18 1_555 1_555

#END
