
#######################################################################
#
#                 Cambridge Crystallographic Data Centre
#                                CCDC 
#
#######################################################################
#
# If this CIF has been generated from an entry in the Cambridge 
# Structural Database, then it will include bibliographic, chemical, 
# crystal, experimental, refinement or atomic coordinate data resulting 
# from the CCDC's data processing and validation procedures.
#
#######################################################################

data_PAPFAQ
_chemical_formula_moiety         'C22 H18 N2 O6'
_chemical_name_systematic        
"trans-methyl (1,1''-dimethyl-2,2''-dioxo-1,1'',2,2''-tetrahydrodispiro[indole-3,2'-[1,3]dioxolane-4',3''-indol]-5'-ylidene)acetate"
_symmetry_cell_setting           orthorhombic
_symmetry_space_group_name_H-M   'P b c a'
_symmetry_Int_Tables_number      61
_space_group_name_Hall           '-P 2ac 2ab'
loop_
_symmetry_equiv_pos_site_id
_symmetry_equiv_pos_as_xyz
1 x,y,z
2 1/2-x,-y,1/2+z
3 -x,1/2+y,1/2-z
4 1/2+x,1/2-y,-z
5 -x,-y,-z
6 1/2+x,y,1/2-z
7 x,1/2-y,1/2+z
8 1/2-x,1/2+y,z
_cell_length_a                   13.4773(4)
_cell_length_b                   8.8893(3)
_cell_length_c                   32.3378(10)
_cell_angle_alpha                90
_cell_angle_beta                 90
_cell_angle_gamma                90
_cell_volume                     3874.19
_exptl_crystal_description       block
_cell_formula_units_Z            8
loop_
_atom_site_label
_atom_site_type_symbol
_atom_site_fract_x
_atom_site_fract_y
_atom_site_fract_z
O1 O 0.42812(15) 0.5304(2) 0.18765(6)
O2 O 0.41737(18) 0.9606(2) 0.06019(7)
O3 O 0.35621(12) 0.7302(2) 0.12149(5)
O4 O 0.51499(12) 0.6988(2) 0.09906(5)
O5 O 0.71691(15) 0.7651(4) 0.09633(7)
O6 O 0.77410(14) 0.8757(3) 0.15315(6)
N1 N 0.40106(15) 0.7445(3) 0.22590(6)
N2 N 0.39361(16) 0.7607(3) 0.01595(6)
C1 C 0.38221(17) 0.8975(3) 0.21714(7)
C2 C 0.35941(19) 1.0110(3) 0.24443(8)
H1 H 0.3553 0.9935 0.2727
C3 C 0.3427(2) 1.1539(3) 0.22777(9)
H2 H 0.3278 1.2331 0.2455
C4 C 0.3477(2) 1.1808(3) 0.18593(9)
H3 H 0.3350 1.2767 0.1757
C5 C 0.3717(2) 1.0647(3) 0.15893(9)
H4 H 0.3753 1.0820 0.1306
C6 C 0.38992(17) 0.9239(3) 0.17471(7)
C7 C 0.41911(17) 0.7795(3) 0.15435(7)
C8 C 0.41595(18) 0.6641(3) 0.19078(7)
C9 C 0.3964(2) 0.6771(4) 0.26667(8)
H5 H 0.3327 0.6969 0.2788
H6 H 0.4474 0.7194 0.2838
H7 H 0.4061 0.5704 0.2644
C10 C 0.38074(17) 0.6033(3) 0.02082(7)
C11 C 0.3637(2) 0.4967(4) -0.00927(8)
H8 H 0.3599 0.5232 -0.0370
C12 C 0.3522(2) 0.3490(4) 0.00328(10)
H9 H 0.3416 0.2749 -0.0165
C13 C 0.3562(2) 0.3090(3) 0.04427(11)
H10 H 0.3468 0.2091 0.0519
C14 C 0.3742(2) 0.4171(3) 0.07438(9)
H11 H 0.3772 0.3906 0.1022
C15 C 0.38740(17) 0.5634(3) 0.06229(7)
C16 C 0.41278(17) 0.7012(3) 0.08590(7)
C17 C 0.40692(19) 0.8276(3) 0.05313(8)
C18 C 0.3922(2) 0.8409(4) -0.02324(9)
H12 H 0.3913 0.9473 -0.0181
H13 H 0.3341 0.8130 -0.0386
H14 H 0.4504 0.8154 -0.0389
C19 C 0.52192(18) 0.7752(3) 0.13490(7)
C20 C 0.60592(19) 0.8273(3) 0.15076(8)
H15 H 0.6038 0.8732 0.1766
C21 C 0.7021(2) 0.8164(4) 0.12963(8)
C22 C 0.8716(2) 0.8744(6) 0.13429(10)
H16 H 0.8881 0.7736 0.1261
H17 H 0.9198 0.9099 0.1539
H18 H 0.8716 0.9387 0.1104
loop_
_geom_bond_atom_site_label_1
_geom_bond_atom_site_label_2
_geom_bond_site_symmetry_1
_geom_bond_site_symmetry_2
O1 C8 1_555 1_555
O2 C17 1_555 1_555
O3 C7 1_555 1_555
O4 C16 1_555 1_555
O5 C21 1_555 1_555
O6 C21 1_555 1_555
N1 C1 1_555 1_555
N2 C10 1_555 1_555
C1 C2 1_555 1_555
C2 H1 1_555 1_555
C3 C2 1_555 1_555
H2 C3 1_555 1_555
C4 C3 1_555 1_555
H3 C4 1_555 1_555
C5 C4 1_555 1_555
H4 C5 1_555 1_555
C6 C1 1_555 1_555
C7 C6 1_555 1_555
C8 N1 1_555 1_555
C9 N1 1_555 1_555
H5 C9 1_555 1_555
H6 C9 1_555 1_555
H7 C9 1_555 1_555
C10 C11 1_555 1_555
C11 H8 1_555 1_555
C12 C11 1_555 1_555
H9 C12 1_555 1_555
C13 C12 1_555 1_555
H10 C13 1_555 1_555
C14 C13 1_555 1_555
H11 C14 1_555 1_555
C15 C10 1_555 1_555
C16 O3 1_555 1_555
C17 N2 1_555 1_555
C18 N2 1_555 1_555
H12 C18 1_555 1_555
H13 C18 1_555 1_555
H14 C18 1_555 1_555
C19 O4 1_555 1_555
C20 C19 1_555 1_555
H15 C20 1_555 1_555
C21 C20 1_555 1_555
C22 O6 1_555 1_555
H16 C22 1_555 1_555
H17 C22 1_555 1_555
H18 C22 1_555 1_555
C5 C6 1_555 1_555
C7 C8 1_555 1_555
C7 C19 1_555 1_555
C14 C15 1_555 1_555
C15 C16 1_555 1_555
C16 C17 1_555 1_555

#END
