
#######################################################################
#
#                 Cambridge Crystallographic Data Centre
#                                CCDC 
#
#######################################################################
#
# If this CIF has been generated from an entry in the Cambridge 
# Structural Database, then it will include bibliographic, chemical, 
# crystal, experimental, refinement or atomic coordinate data resulting 
# from the CCDC's data processing and validation procedures.
#
#######################################################################

data_PAPGUJ
_chemical_formula_moiety         'C30 H28 Br2 Cl2 O10'
_chemical_name_systematic        
'Triethyl 3,7-dichloro-1-ethoxy-3,5-bis(4-bromophenoxy)-8-oxatricyclo(3.2.1.0^2,4^)oct-6-ene-2,4,6-tricarboxylate'
_symmetry_cell_setting           orthorhombic
_symmetry_space_group_name_H-M   'P n a 21'
_symmetry_Int_Tables_number      33
_space_group_name_Hall           'P 2c -2n'
loop_
_symmetry_equiv_pos_site_id
_symmetry_equiv_pos_as_xyz
1 x,y,z
2 -x,-y,1/2+z
3 1/2+x,1/2-y,z
4 1/2-x,1/2+y,1/2+z
_cell_length_a                   17.790(4)
_cell_length_b                   7.9794(16)
_cell_length_c                   22.872(5)
_cell_angle_alpha                90
_cell_angle_beta                 90
_cell_angle_gamma                90
_cell_volume                     3246.76
_exptl_crystal_colour            colorless
_exptl_crystal_description       block
_chemical_melting_point          129-130deg.C
_cell_formula_units_Z            4
loop_
_atom_site_label
_atom_site_type_symbol
_atom_site_fract_x
_atom_site_fract_y
_atom_site_fract_z
Br1 Br 0.02713(5) 0.57613(10) 0.26924(6)
Br2 Br 0.31946(5) -0.25125(12) 0.26999(6)
Cl1 Cl 0.04856(8) 0.3347(2) -0.10242(8)
Cl2 Cl 0.19771(9) -0.37793(18) -0.03478(8)
O1 O 0.1051(2) 0.0378(5) 0.09346(18)
O2 O 0.2591(2) -0.1154(5) 0.01399(18)
O3 O 0.1753(2) 0.1550(5) 0.01729(18)
O4 O 0.2104(2) 0.2424(5) -0.07756(19)
O5 O 0.0754(2) -0.0630(7) -0.1398(2)
O6 O 0.1921(2) -0.1647(6) -0.14459(19)
O7 O 0.0429(3) -0.3183(7) 0.0443(2)
O8 O 0.0030(2) -0.1919(5) -0.03804(19)
O9 O -0.0694(2) 0.3087(6) 0.0064(3)
O10 O -0.0536(3) 0.0637(6) 0.0548(2)
C1 C 0.1167(3) -0.1015(7) 0.0007(3)
C2 C 0.1556(3) -0.0464(7) -0.0561(3)
C3 C 0.1616(3) 0.1509(7) -0.0451(3)
C4 C 0.0820(3) 0.2196(7) -0.0461(3)
C5 C 0.0477(3) 0.1694(7) 0.0030(3)
C6 C 0.1086(3) 0.0674(7) 0.0344(2)
C7 C 0.1940(3) -0.1625(7) -0.0132(3)
C8 C 0.2690(3) -0.1530(7) 0.0738(3)
C9 C 0.3339(4) -0.0900(8) 0.0978(3)
H1 H 0.3671 -0.0284 0.0749
C10 C 0.3494(4) -0.1186(9) 0.1561(3)
H2 H 0.3928 -0.0767 0.1733
C11 C 0.2986(4) -0.2109(10) 0.1880(3)
C12 C 0.2356(4) -0.2762(8) 0.1650(3)
H3 H 0.2029 -0.3386 0.1881
C13 C 0.2200(4) -0.2486(8) 0.1057(3)
H4 H 0.1773 -0.2942 0.0884
C14 C 0.0874(3) 0.1694(8) 0.1313(3)
C15 C 0.0886(4) 0.3363(9) 0.1163(3)
H5 H 0.1022 0.3688 0.0787
C16 C 0.0696(3) 0.4551(9) 0.1574(3)
H6 H 0.0693 0.5680 0.1474
C17 C 0.0514(4) 0.4078(9) 0.2125(3)
C18 C 0.0491(4) 0.2388(9) 0.2281(3)
H7 H 0.0349 0.2070 0.2656
C19 C 0.0680(4) 0.1205(8) 0.1873(3)
H8 H 0.0677 0.0075 0.1972
C20 C -0.0310(4) 0.1915(8) 0.0209(3)
C21 C -0.1310(4) 0.0690(10) 0.0774(3)
H9 H -0.1530 -0.0422 0.0761
H10 H -0.1614 0.1429 0.0534
C22 C -0.1298(5) 0.1314(13) 0.1391(4)
H11 H -0.1803 0.1369 0.1539
H12 H -0.1077 0.2411 0.1402
H13 H -0.1007 0.0564 0.1629
C23 C 0.1346(4) -0.0932(8) -0.1184(3)
C24 C 0.1787(4) -0.2274(11) -0.2038(3)
H14 H 0.1542 -0.1422 -0.2273
H15 H 0.1466 -0.3257 -0.2026
C25 C 0.2536(5) -0.2711(12) -0.2295(5)
H16 H 0.2468 -0.3138 -0.2683
H17 H 0.2775 -0.3547 -0.2057
H18 H 0.2846 -0.1726 -0.2308
C26 C 0.0497(4) -0.2208(7) 0.0058(3)
C27 C -0.0682(4) -0.2884(9) -0.0383(3)
H19 H -0.1036 -0.2417 -0.0105
H20 H -0.0590 -0.4047 -0.0283
C28 C -0.0978(4) -0.2744(9) -0.0991(4)
H21 H -0.1442 -0.3352 -0.1021
H22 H -0.0619 -0.3204 -0.1260
H23 H -0.1064 -0.1586 -0.1083
C29 C 0.2861(3) 0.1788(8) -0.0819(3)
H24 H 0.2869 0.0774 -0.1053
H25 H 0.3055 0.1527 -0.0433
C30 C 0.3328(4) 0.3122(11) -0.1101(4)
H26 H 0.3838 0.2740 -0.1135
H27 H 0.3314 0.4119 -0.0867
H28 H 0.3132 0.3363 -0.1483
loop_
_geom_bond_atom_site_label_1
_geom_bond_atom_site_label_2
_geom_bond_site_symmetry_1
_geom_bond_site_symmetry_2
Br1 C17 1_555 1_555
Br2 C11 1_555 1_555
Cl1 C4 1_555 1_555
Cl2 C7 1_555 1_555
O1 C6 1_555 1_555
O2 C7 1_555 1_555
O3 C3 1_555 1_555
O4 C3 1_555 1_555
O5 C23 1_555 1_555
O6 C23 1_555 1_555
O7 C26 1_555 1_555
O8 C26 1_555 1_555
O9 C20 1_555 1_555
O10 C20 1_555 1_555
C1 C2 1_555 1_555
C2 C3 1_555 1_555
C3 C4 1_555 1_555
C4 C5 1_555 1_555
C5 C6 1_555 1_555
C6 O3 1_555 1_555
C7 C1 1_555 1_555
C8 O2 1_555 1_555
C9 C8 1_555 1_555
H1 C9 1_555 1_555
C10 C9 1_555 1_555
H2 C10 1_555 1_555
C11 C10 1_555 1_555
C12 C11 1_555 1_555
H3 C12 1_555 1_555
C13 C8 1_555 1_555
H4 C13 1_555 1_555
C14 O1 1_555 1_555
C15 C14 1_555 1_555
H5 C15 1_555 1_555
C16 C15 1_555 1_555
H6 C16 1_555 1_555
C17 C16 1_555 1_555
C18 C17 1_555 1_555
H7 C18 1_555 1_555
C19 C14 1_555 1_555
H8 C19 1_555 1_555
C20 C5 1_555 1_555
C21 O10 1_555 1_555
H9 C21 1_555 1_555
H10 C21 1_555 1_555
C22 C21 1_555 1_555
H11 C22 1_555 1_555
H12 C22 1_555 1_555
H13 C22 1_555 1_555
C23 C2 1_555 1_555
C24 O6 1_555 1_555
H14 C24 1_555 1_555
H15 C24 1_555 1_555
C25 C24 1_555 1_555
H16 C25 1_555 1_555
H17 C25 1_555 1_555
H18 C25 1_555 1_555
C26 C1 1_555 1_555
C27 O8 1_555 1_555
H19 C27 1_555 1_555
H20 C27 1_555 1_555
C28 C27 1_555 1_555
H21 C28 1_555 1_555
H22 C28 1_555 1_555
H23 C28 1_555 1_555
C29 O4 1_555 1_555
H24 C29 1_555 1_555
H25 C29 1_555 1_555
C30 C29 1_555 1_555
H26 C30 1_555 1_555
H27 C30 1_555 1_555
H28 C30 1_555 1_555
C1 C6 1_555 1_555
C2 C7 1_555 1_555
C12 C13 1_555 1_555
C18 C19 1_555 1_555

#END
