
#######################################################################
#
#                 Cambridge Crystallographic Data Centre
#                                CCDC 
#
#######################################################################
#
# If this CIF has been generated from an entry in the Cambridge 
# Structural Database, then it will include bibliographic, chemical, 
# crystal, experimental, refinement or atomic coordinate data resulting 
# from the CCDC's data processing and validation procedures.
#
#######################################################################

data_PAPHAQ
_chemical_formula_moiety         'C24 H22 Cl4 O6'
_chemical_name_systematic        
'Dimethyl (Z,Z)-1,4-dichloro-1,4-bis(4-chloro-3,5-dimethylphenoxy)-1,3-butadiene-2,3-dicarboxylate'
_symmetry_cell_setting           triclinic
_symmetry_space_group_name_H-M   'P -1'
_symmetry_Int_Tables_number      2
_space_group_name_Hall           '-P 1'
loop_
_symmetry_equiv_pos_site_id
_symmetry_equiv_pos_as_xyz
1 x,y,z
2 -x,-y,-z
_cell_length_a                   8.2829(17)
_cell_length_b                   12.724(3)
_cell_length_c                   13.209(3)
_cell_angle_alpha                67.00(3)
_cell_angle_beta                 78.30(3)
_cell_angle_gamma                86.13(3)
_cell_volume                     1254.72
_exptl_crystal_colour            colorless
_exptl_crystal_description       platelet
_chemical_melting_point          179-180deg.C
_cell_formula_units_Z            2
loop_
_atom_site_label
_atom_site_type_symbol
_atom_site_fract_x
_atom_site_fract_y
_atom_site_fract_z
Cl1 Cl 0.75326(11) 0.45168(8) 0.48664(7)
Cl2 Cl 0.29107(10) 0.45075(7) 0.14010(7)
Cl3 Cl 0.63065(9) -0.03132(7) 0.17364(7)
Cl4 Cl -0.07829(10) -0.25285(7) 0.57703(8)
O1 O 0.5711(2) 0.34806(17) 0.12932(15)
O2 O 0.0913(3) 0.3264(2) 0.0649(2)
O3 O 0.1770(3) 0.15944(19) 0.0607(2)
O4 O 0.6858(3) 0.1385(2) -0.05988(18)
O5 O 0.5123(3) 0.28382(18) -0.10590(15)
O6 O 0.4372(2) 0.07853(16) 0.27667(15)
C1 C 0.7345(3) 0.4507(2) 0.1882(2)
H1 H 0.7888 0.4853 0.1142
C2 C 0.7807(3) 0.4762(2) 0.2720(3)
C3 C 0.6955(3) 0.4217(2) 0.3806(2)
C4 C 0.5696(3) 0.3424(2) 0.4101(2)
C5 C 0.5266(3) 0.3196(2) 0.3247(2)
H2 H 0.4425 0.2674 0.3407
C6 C 0.6085(3) 0.3744(2) 0.2161(2)
C7 C 0.4121(3) 0.3433(2) 0.1219(2)
C8 C 0.3626(3) 0.2609(2) 0.0955(2)
C9 C 0.4845(3) 0.1727(2) 0.0822(2)
C10 C 0.5068(3) 0.0833(2) 0.1726(2)
C11 C 0.3171(3) -0.0054(2) 0.3447(2)
C12 C 0.2289(3) -0.0599(2) 0.3010(2)
H3 H 0.2516 -0.0451 0.2247
C13 C 0.1049(3) -0.1378(2) 0.3734(2)
C14 C 0.0771(3) -0.1567(2) 0.4858(2)
C15 C 0.1649(3) -0.1021(2) 0.5305(2)
C16 C 0.2877(3) -0.0244(2) 0.4565(2)
H4 H 0.3493 0.0144 0.4828
C17 C 0.9160(4) 0.5623(3) 0.2415(3)
H5 H 0.9338 0.5696 0.3080
H6 H 0.8850 0.6349 0.1907
H7 H 1.0156 0.5375 0.2062
C18 C 0.4814(4) 0.2818(3) 0.5287(2)
H8 H 0.5263 0.3065 0.5774
H9 H 0.4955 0.2009 0.5503
H10 H 0.3662 0.2991 0.5343
C19 C 0.1966(3) 0.2561(3) 0.0727(2)
C20 C 0.0211(5) 0.1404(4) 0.0396(4)
H11 H 0.0211 0.0678 0.0332
H12 H 0.0021 0.1998 -0.0289
H13 H -0.0647 0.1409 0.1004
C21 C 0.5736(3) 0.1926(2) -0.0332(2)
C22 C 0.5899(5) 0.3190(3) -0.2228(2)
H14 H 0.5370 0.3861 -0.2666
H15 H 0.5796 0.2587 -0.2477
H16 H 0.7045 0.3356 -0.2317
C23 C 0.0053(4) -0.1963(3) 0.3268(3)
H17 H -0.0748 -0.2465 0.3865
H18 H 0.0772 -0.2397 0.2914
H19 H -0.0500 -0.1401 0.2727
C24 C 0.1331(4) -0.1229(3) 0.6527(2)
H20 H 0.0470 -0.1793 0.6923
H21 H 0.1001 -0.0530 0.6622
H22 H 0.2320 -0.1497 0.6818
loop_
_geom_bond_atom_site_label_1
_geom_bond_atom_site_label_2
_geom_bond_site_symmetry_1
_geom_bond_site_symmetry_2
Cl1 C3 1_555 1_555
Cl2 C7 1_555 1_555
Cl3 C10 1_555 1_555
Cl4 C14 1_555 1_555
O1 C6 1_555 1_555
O2 C19 1_555 1_555
O3 C19 1_555 1_555
O4 C21 1_555 1_555
O5 C21 1_555 1_555
O6 C10 1_555 1_555
C1 H1 1_555 1_555
C2 C1 1_555 1_555
C3 C2 1_555 1_555
C4 C3 1_555 1_555
C5 C4 1_555 1_555
H2 C5 1_555 1_555
C6 C1 1_555 1_555
C7 O1 1_555 1_555
C8 C7 1_555 1_555
C9 C8 1_555 1_555
C10 C9 1_555 1_555
C11 O6 1_555 1_555
C12 C11 1_555 1_555
H3 C12 1_555 1_555
C13 C12 1_555 1_555
C14 C13 1_555 1_555
C15 C14 1_555 1_555
C16 C11 1_555 1_555
H4 C16 1_555 1_555
C17 C2 1_555 1_555
H5 C17 1_555 1_555
H6 C17 1_555 1_555
H7 C17 1_555 1_555
C18 C4 1_555 1_555
H8 C18 1_555 1_555
H9 C18 1_555 1_555
H10 C18 1_555 1_555
C19 C8 1_555 1_555
C20 O3 1_555 1_555
H11 C20 1_555 1_555
H12 C20 1_555 1_555
H13 C20 1_555 1_555
C21 C9 1_555 1_555
C22 O5 1_555 1_555
H14 C22 1_555 1_555
H15 C22 1_555 1_555
H16 C22 1_555 1_555
C23 C13 1_555 1_555
H17 C23 1_555 1_555
H18 C23 1_555 1_555
H19 C23 1_555 1_555
C24 C15 1_555 1_555
H20 C24 1_555 1_555
H21 C24 1_555 1_555
H22 C24 1_555 1_555
C5 C6 1_555 1_555
C15 C16 1_555 1_555

#END
