
#######################################################################
#
#                 Cambridge Crystallographic Data Centre
#                                CCDC 
#
#######################################################################
#
# If this CIF has been generated from an entry in the Cambridge 
# Structural Database, then it will include bibliographic, chemical, 
# crystal, experimental, refinement or atomic coordinate data resulting 
# from the CCDC's data processing and validation procedures.
#
#######################################################################

data_PAPKUN
_chemical_formula_moiety         'C16 H15 N1 O2'
_chemical_name_systematic        
4-(4'-(N,N-Dimethylaminophenyl)ethynyl)-6-methylpyran-2-one
_symmetry_cell_setting           triclinic
_symmetry_space_group_name_H-M   'P -1'
_symmetry_Int_Tables_number      2
_space_group_name_Hall           '-P 1'
loop_
_symmetry_equiv_pos_site_id
_symmetry_equiv_pos_as_xyz
1 x,y,z
2 -x,-y,-z
_cell_length_a                   7.307(1)
_cell_length_b                   8.038(1)
_cell_length_c                   12.305(1)
_cell_angle_alpha                96.35(1)
_cell_angle_beta                 101.85(1)
_cell_angle_gamma                112.68(1)
_cell_volume                     638.045
_exptl_crystal_colour            'light brown'
_exptl_crystal_description       block
_chemical_melting_point          '426-428 K'
_cell_formula_units_Z            2
_exptl_crystal_recrystallization_method toluene
loop_
_atom_site_label
_atom_site_type_symbol
_atom_site_fract_x
_atom_site_fract_y
_atom_site_fract_z
O1 O 0.22505(10) 1.01154(9) 0.25667(5)
O2 O 0.27530(12) 0.81250(10) 0.13977(6)
N1 N 0.26172(13) 0.27942(11) 0.96113(7)
C1 C 0.25844(15) 0.85283(13) 0.23377(8)
C2 C 0.27127(15) 0.75766(13) 0.32544(8)
H1 H 0.2941(19) 0.6498(18) 0.3089(11)
C3 C 0.25024(13) 0.81869(12) 0.42818(7)
C4 C 0.21298(14) 0.98195(12) 0.44435(8)
H2 H 0.199(2) 1.0240(18) 0.5196(11)
C5 C 0.20260(14) 1.07192(13) 0.35909(7)
C6 C 0.17210(17) 1.24449(14) 0.36156(9)
H3 H 0.129(2) 1.2740(19) 0.4267(12)
H4 H 0.073(2) 1.233(2) 0.2966(13)
H5 H 0.304(3) 1.349(2) 0.3657(14)
C7 C 0.26471(14) 0.72702(12) 0.51986(8)
C8 C 0.27404(14) 0.65436(12) 0.60032(8)
C9 C 0.27892(14) 0.56352(13) 0.69327(8)
C10 C 0.30099(14) 0.39720(13) 0.68339(7)
H6 H 0.327(2) 0.3456(18) 0.6133(12)
C11 C 0.29473(15) 0.30233(12) 0.77096(8)
H7 H 0.313(2) 0.1847(18) 0.7583(11)
C12 C 0.26585(13) 0.37119(12) 0.87406(7)
C13 C 0.24690(15) 0.54053(13) 0.88425(8)
H8 H 0.235(2) 0.5928(18) 0.9578(11)
C14 C 0.25453(15) 0.63345(13) 0.79639(8)
H9 H 0.249(2) 0.753(2) 0.8088(12)
C15 C 0.27212(17) 0.10198(14) 0.94673(9)
H10 H 0.396(2) 0.1098(17) 0.9251(11)
H11 H 0.155(2) 0.0132(19) 0.8900(12)
H12 H 0.280(2) 0.067(2) 1.0212(14)
C16 C 0.20937(16) 0.33955(15) 1.06150(8)
H13 H 0.072(2) 0.3198(19) 1.0442(12)
H14 H 0.296(2) 0.470(2) 1.0983(12)
H15 H 0.240(2) 0.273(2) 1.1205(14)
loop_
_geom_bond_atom_site_label_1
_geom_bond_atom_site_label_2
_geom_bond_site_symmetry_1
_geom_bond_site_symmetry_2
O1 C1 1_555 1_555
O2 C1 1_555 1_555
N1 C12 1_555 1_555
C1 C2 1_555 1_555
C2 H1 1_555 1_555
C3 C2 1_555 1_555
C4 C3 1_555 1_555
H2 C4 1_555 1_555
C5 O1 1_555 1_555
C6 C5 1_555 1_555
H3 C6 1_555 1_555
H4 C6 1_555 1_555
H5 C6 1_555 1_555
C7 C3 1_555 1_555
C8 C7 1_555 1_555
C9 C8 1_555 1_555
C10 C9 1_555 1_555
H6 C10 1_555 1_555
C11 C10 1_555 1_555
H7 C11 1_555 1_555
C12 C11 1_555 1_555
C13 C12 1_555 1_555
H8 C13 1_555 1_555
C14 C9 1_555 1_555
H9 C14 1_555 1_555
C15 N1 1_555 1_555
H10 C15 1_555 1_555
H11 C15 1_555 1_555
H12 C15 1_555 1_555
C16 N1 1_555 1_555
H13 C16 1_555 1_555
H14 C16 1_555 1_555
H15 C16 1_555 1_555
C4 C5 1_555 1_555
C13 C14 1_555 1_555

#END
