
#######################################################################
#
#                 Cambridge Crystallographic Data Centre
#                                CCDC 
#
#######################################################################
#
# If this CIF has been generated from an entry in the Cambridge 
# Structural Database, then it will include bibliographic, chemical, 
# crystal, experimental, refinement or atomic coordinate data resulting 
# from the CCDC's data processing and validation procedures.
#
#######################################################################

data_PAPNUP
_chemical_formula_moiety         'C50 H60 O10,0.5(H2 O1)'
_chemical_name_systematic        
'5,8,13,16,21,24,29,32,37,40-Decamethoxy(2~5~)metacyclophane hemihydrate'
_symmetry_cell_setting           triclinic
_symmetry_space_group_name_H-M   'P -1'
_symmetry_Int_Tables_number      2
_space_group_name_Hall           '-P 1'
loop_
_symmetry_equiv_pos_site_id
_symmetry_equiv_pos_as_xyz
1 x,y,z
2 -x,-y,-z
_cell_length_a                   9.950(1)
_cell_length_b                   14.219(1)
_cell_length_c                   17.831(1)
_cell_angle_alpha                75.65(1)
_cell_angle_beta                 76.41(1)
_cell_angle_gamma                69.70(1)
_cell_volume                     2261.18
_exptl_crystal_colour            colorless
_chemical_melting_point          '136-137 deg.C'
_cell_formula_units_Z            2
loop_
_atom_site_label
_atom_site_type_symbol
_atom_site_fract_x
_atom_site_fract_y
_atom_site_fract_z
C1 C 0.3171(4) 0.4042(2) 0.0913(2)
C2 C 0.3400(4) 0.5069(2) 0.0865(2)
C3 C 0.2615(3) 0.5600(2) 0.1548(2)
C4 C 0.3113(3) 0.5232(2) 0.2269(2)
C5 C 0.2414(4) 0.5719(2) 0.2894(2)
C6 C 0.1254(3) 0.6606(3) 0.2810(2)
C7 C 0.0748(3) 0.7002(2) 0.2105(2)
C8 C 0.1425(3) 0.6475(2) 0.1486(2)
C9 C -0.0078(4) 0.6444(3) 0.0644(2)
C10 C 0.3863(4) 0.4440(3) 0.3790(2)
O1 O 0.2825(3) 0.5395(2) 0.3627(1)
O2 O 0.0918(2) 0.6881(2) 0.0773(1)
C11 C -0.0491(3) 0.7973(2) 0.2010(2)
C12 C -0.0057(3) 0.8916(2) 0.1566(2)
C13 C 0.0727(3) 0.9335(2) 0.1978(2)
C14 C 0.0382(3) 0.9317(2) 0.2782(2)
C15 C 0.1110(4) 0.9709(3) 0.3144(2)
C16 C 0.2194(4) 1.0109(2) 0.2709(2)
C17 C 0.2563(3) 1.0136(2) 0.1914(2)
C18 C 0.1793(3) 0.9769(2) 0.1551(2)
C19 C 0.1295(4) 1.0715(3) 0.0319(2)
C20 C 0.1635(7) 0.9916(4) 0.4324(3)
O3 O 0.0722(3) 0.9669(2) 0.3934(1)
O4 O 0.2158(2) 0.9807(2) 0.0746(1)
C21 C 0.3824(3) 1.0500(2) 0.1456(2)
C22 C 0.5252(3) 0.9625(2) 0.1360(2)
C23 C 0.5661(3) 0.8958(2) 0.2120(2)
C24 C 0.5827(3) 0.9381(2) 0.2699(2)
C25 C 0.6129(4) 0.8814(3) 0.3418(2)
C26 C 0.6281(4) 0.7783(3) 0.3570(2)
C27 C 0.6157(3) 0.7319(2) 0.3003(2)
C28 C 0.5859(3) 0.7910(2) 0.2285(2)
C29 C 0.4403(4) 0.7425(3) 0.1670(3)
C30 C 0.6456(7) 0.8802(4) 0.4693(3)
O5 O 0.6237(3) 0.9334(2) 0.3937(2)
O6 O 0.5827(2) 0.7432(2) 0.1706(1)
C31 C 0.6335(4) 0.6198(2) 0.3176(2)
C32 C 0.7866(3) 0.5513(2) 0.2952(2)
C33 C 0.7907(3) 0.4407(2) 0.3123(2)
C34 C 0.7628(3) 0.3932(2) 0.3898(2)
C35 C 0.7576(3) 0.2942(2) 0.4073(2)
C36 C 0.7816(3) 0.2421(2) 0.3467(2)
C37 C 0.8108(3) 0.2864(2) 0.2694(2)
C38 C 0.8157(3) 0.3870(2) 0.2529(2)
C39 C 0.7336(4) 0.4839(3) 0.1346(2)
C40 C 0.7245(5) 0.2841(3) 0.5450(2)
O7 O 0.7308(3) 0.2414(2) 0.4811(2)
O8 O 0.8541(2) 0.4312(2) 0.1757(1)
C41 C 0.8441(3) 0.2265(2) 0.2045(2)
C42 C 0.7488(3) 0.1586(2) 0.2144(2)
C43 C 0.5879(3) 0.2125(2) 0.2187(2)
C44 C 0.4947(3) 0.1979(2) 0.2886(2)
C45 C 0.3453(3) 0.2434(2) 0.2934(2)
C46 C 0.2881(3) 0.3060(2) 0.2285(2)
C47 C 0.3790(3) 0.3244(2) 0.1584(2)
C48 C 0.5280(3) 0.2754(2) 0.1540(2)
C49 C 0.6430(4) 0.2224(3) 0.0330(2)
C50 C 0.1142(4) 0.2740(3) 0.3755(2)
O9 O 0.2655(2) 0.2225(2) 0.3658(1)
O10 O 0.6190(2) 0.2930(2) 0.0834(1)
H1 H 0.3592 0.3795 0.0429
H2 H 0.2145 0.4145 0.0997
H3 H 0.3088 0.5522 0.0397
H4 H 0.4423 0.4952 0.0819
H5 H 0.3955 0.4645 0.2329
H6 H 0.0805 0.6946 0.3250
H7 H -0.0374 0.6756 0.0142
H8 H 0.0385 0.5726 0.0658
H9 H -0.0914 0.6549 0.1049
H10 H 0.4032 0.4310 0.4320
H11 H 0.3517 0.3920 0.3722
H12 H 0.4754 0.4435 0.3435
H13 H -0.1009 0.8105 0.2519
H14 H -0.1146 0.7873 0.1740
H15 H -0.0911 0.9453 0.1426
H16 H 0.0568 0.8747 0.1087
H17 H -0.0368 0.9036 0.3088
H18 H 0.2695 1.0373 0.2965
H19 H 0.1592 1.0707 -0.0233
H20 H 0.0293 1.0739 0.0466
H21 H 0.1413 1.1304 0.0433
H22 H 0.2459 1.0028 0.3952
H23 H 0.1101 1.0522 0.4540
H24 H 0.1960 0.9360 0.4739
H25 H 0.3955 1.0967 0.1720
H26 H 0.3602 1.0862 0.0947
H27 H 0.6027 0.9900 0.1089
H28 H 0.5153 0.9208 0.1040
H29 H 0.5721 1.0097 0.2595
H30 H 0.6467 0.7387 0.4077
H31 H 0.4476 0.7082 0.1254
H32 H 0.4005 0.7076 0.2158
H33 H 0.3781 0.8114 0.1565
H34 H 0.6495 0.9251 0.5005
H35 H 0.5680 0.8517 0.4936
H36 H 0.7360 0.8262 0.4652
H37 H 0.5711 0.6076 0.2898
H38 H 0.6025 0.5999 0.3727
H39 H 0.8494 0.5598 0.3248
H40 H 0.8201 0.5716 0.2405
H41 H 0.7467 0.4299 0.4312
H42 H 0.7802 0.1727 0.3588
H43 H 0.7683 0.5119 0.0817
H44 H 0.6843 0.4370 0.1338
H45 H 0.6676 0.5380 0.1606
H46 H 0.7049 0.2395 0.5935
H47 H 0.8161 0.2947 0.5416
H48 H 0.6489 0.3483 0.5432
H49 H 0.9444 0.1858 0.1996
H50 H 0.8307 0.2744 0.1563
H51 H 0.7639 0.1099 0.2621
H52 H 0.7811 0.1215 0.1719
H53 H 0.5339 0.1553 0.3342
H54 H 0.1850 0.3367 0.2317
H55 H 0.7066 0.2377 -0.0146
H56 H 0.6855 0.1542 0.0592
H57 H 0.5511 0.2282 0.0210
H58 H 0.0681 0.2543 0.4279
H59 H 0.0996 0.3462 0.3650
H60 H 0.0728 0.2576 0.3389
O11 O 0.0000 0.5000 0.5000
C51? C -0.0678(19) 0.9471(14) 0.4373(9)
H61? H -0.1151 0.9325 0.4024
H62? H -0.0452 0.8894 0.4789
H63? H -0.1310 1.0056 0.4590
loop_
_geom_bond_atom_site_label_1
_geom_bond_atom_site_label_2
_geom_bond_site_symmetry_1
_geom_bond_site_symmetry_2
C1 C2 1_555 1_555
C2 C3 1_555 1_555
C3 C4 1_555 1_555
C4 C5 1_555 1_555
C5 C6 1_555 1_555
C6 C7 1_555 1_555
C7 C8 1_555 1_555
C8 C3 1_555 1_555
C9 O2 1_555 1_555
C10 O1 1_555 1_555
O1 C5 1_555 1_555
O2 C8 1_555 1_555
C11 C7 1_555 1_555
C12 C11 1_555 1_555
C13 C12 1_555 1_555
C14 C13 1_555 1_555
C15 C14 1_555 1_555
C16 C15 1_555 1_555
C17 C16 1_555 1_555
C18 C13 1_555 1_555
C19 O4 1_555 1_555
C20 O3 1_555 1_555
O3 C15 1_555 1_555
O4 C18 1_555 1_555
C21 C17 1_555 1_555
C22 C21 1_555 1_555
C23 C22 1_555 1_555
C24 C23 1_555 1_555
C25 C24 1_555 1_555
C26 C25 1_555 1_555
C27 C26 1_555 1_555
C28 C23 1_555 1_555
C29 O6 1_555 1_555
C30 O5 1_555 1_555
O5 C25 1_555 1_555
O6 C28 1_555 1_555
C31 C27 1_555 1_555
C32 C31 1_555 1_555
C33 C32 1_555 1_555
C34 C33 1_555 1_555
C35 C34 1_555 1_555
C36 C35 1_555 1_555
C37 C36 1_555 1_555
C38 C33 1_555 1_555
C39 O8 1_555 1_555
C40 O7 1_555 1_555
O7 C35 1_555 1_555
O8 C38 1_555 1_555
C41 C37 1_555 1_555
C42 C41 1_555 1_555
C43 C42 1_555 1_555
C44 C43 1_555 1_555
C45 C44 1_555 1_555
C46 C45 1_555 1_555
C47 C1 1_555 1_555
C48 C43 1_555 1_555
C49 O10 1_555 1_555
C50 O9 1_555 1_555
O9 C45 1_555 1_555
O10 C48 1_555 1_555
H1 C1 1_555 1_555
H2 C1 1_555 1_555
H3 C2 1_555 1_555
H4 C2 1_555 1_555
H5 C4 1_555 1_555
H6 C6 1_555 1_555
H7 C9 1_555 1_555
H8 C9 1_555 1_555
H9 C9 1_555 1_555
H10 C10 1_555 1_555
H11 C10 1_555 1_555
H12 C10 1_555 1_555
H13 C11 1_555 1_555
H14 C11 1_555 1_555
H15 C12 1_555 1_555
H16 C12 1_555 1_555
H17 C14 1_555 1_555
H18 C16 1_555 1_555
H19 C19 1_555 1_555
H20 C19 1_555 1_555
H21 C19 1_555 1_555
H22 C20 1_555 1_555
H23 C20 1_555 1_555
H24 C20 1_555 1_555
H25 C21 1_555 1_555
H26 C21 1_555 1_555
H27 C22 1_555 1_555
H28 C22 1_555 1_555
H29 C24 1_555 1_555
H30 C26 1_555 1_555
H31 C29 1_555 1_555
H32 C29 1_555 1_555
H33 C29 1_555 1_555
H34 C30 1_555 1_555
H35 C30 1_555 1_555
H36 C30 1_555 1_555
H37 C31 1_555 1_555
H38 C31 1_555 1_555
H39 C32 1_555 1_555
H40 C32 1_555 1_555
H41 C34 1_555 1_555
H42 C36 1_555 1_555
H43 C39 1_555 1_555
H44 C39 1_555 1_555
H45 C39 1_555 1_555
H46 C40 1_555 1_555
H47 C40 1_555 1_555
H48 C40 1_555 1_555
H49 C41 1_555 1_555
H50 C41 1_555 1_555
H51 C42 1_555 1_555
H52 C42 1_555 1_555
H53 C44 1_555 1_555
H54 C46 1_555 1_555
H55 C49 1_555 1_555
H56 C49 1_555 1_555
H57 C49 1_555 1_555
H58 C50 1_555 1_555
H59 C50 1_555 1_555
H60 C50 1_555 1_555
C17 C18 1_555 1_555
C27 C28 1_555 1_555
C37 C38 1_555 1_555
C46 C47 1_555 1_555
C47 C48 1_555 1_555

#END
