
#######################################################################
#
#                 Cambridge Crystallographic Data Centre
#                                CCDC 
#
#######################################################################
#
# If this CIF has been generated from an entry in the Cambridge 
# Structural Database, then it will include bibliographic, chemical, 
# crystal, experimental, refinement or atomic coordinate data resulting 
# from the CCDC's data processing and validation procedures.
#
#######################################################################

data_PAPNID
_chemical_formula_moiety         'C27 H30 O3'
_chemical_name_systematic        5,13,21-Trimethoxy(2~3~)metacyclophane
_symmetry_cell_setting           monoclinic
_symmetry_space_group_name_H-M   'C 2/c'
_symmetry_Int_Tables_number      15
_space_group_name_Hall           '-C 2yn'
loop_
_symmetry_equiv_pos_site_id
_symmetry_equiv_pos_as_xyz
1 x,y,z
2 1/2+x,1/2+y,z
3 -x,y,1/2-z
4 1/2-x,1/2+y,1/2-z
5 -x,-y,-z
6 1/2-x,1/2-y,-z
7 x,-y,1/2+z
8 1/2+x,1/2-y,1/2+z
_cell_length_a                   9.455(1)
_cell_length_b                   16.502(1)
_cell_length_c                   28.782(2)
_cell_angle_alpha                90
_cell_angle_beta                 96.27(1)
_cell_angle_gamma                90
_cell_volume                     4463.89
_exptl_crystal_colour            colorless
_chemical_melting_point          '106-107 deg.C'
_cell_formula_units_Z            8
loop_
_atom_site_label
_atom_site_type_symbol
_atom_site_fract_x
_atom_site_fract_y
_atom_site_fract_z
C1 C 0.0362(4) 0.4627(3) 0.3305(2)
C2 C 0.0193(4) 0.5534(3) 0.3423(1)
C3 C 0.1554(4) 0.6013(2) 0.3500(1)
C4 C 0.1899(5) 0.6532(3) 0.3151(2)
C5 C 0.3129(6) 0.6982(3) 0.3220(2)
C6 C 0.3998(4) 0.6933(2) 0.3633(2)
C7 C 0.3690(4) 0.6405(2) 0.3983(1)
C8 C 0.2455(4) 0.5947(2) 0.3903(1)
O1 O 0.3428(12) 0.7360(8) 0.2809(4)
C9 C 0.2776(13) 0.7234(11) 0.2354(4)
C10 C 0.4653(4) 0.6306(2) 0.4429(1)
C11 C 0.6175(4) 0.6057(2) 0.4355(2)
C12 C 0.6215(3) 0.5315(2) 0.4052(1)
C13 C 0.6466(4) 0.5394(2) 0.3593(2)
C14 C 0.6466(4) 0.4714(3) 0.3309(1)
C15 C 0.6242(4) 0.3959(2) 0.3484(1)
C16 C 0.5974(3) 0.3871(2) 0.3943(1)
C17 C 0.5967(3) 0.4550(2) 0.4222(1)
O2 O 0.6481(11) 0.4587(6) 0.2814(4)
C18 C 0.6445(11) 0.5343(7) 0.2562(5)
C19 C 0.5659(4) 0.3042(2) 0.4133(1)
C20 C 0.4260(4) 0.2690(2) 0.3906(2)
C21 C 0.2964(4) 0.3186(2) 0.3981(2)
C22 C 0.2368(4) 0.3137(2) 0.4396(2)
C23 C 0.1125(4) 0.3547(2) 0.4460(2)
C24 C 0.0478(4) 0.4035(2) 0.4108(2)
C25 C 0.1082(4) 0.4117(2) 0.3692(2)
C26 C 0.2326(4) 0.3697(2) 0.3635(2)
O3 O 0.0612(3) 0.3425(2) 0.4882(1)
C27 C -0.0726(5) 0.3742(3) 0.4947(2)
H1 H 0.0937 0.4608 0.3050
H2 H -0.0548 0.4397 0.3198
H3 H -0.0259 0.5551 0.3706
H4 H -0.0429 0.5793 0.3182
H5 H 0.1292 0.6579 0.2862
H6 H 0.4829 0.7270 0.3681
H7 H 0.2240 0.5572 0.4140
H8 H 0.3148 0.7601 0.2139
H9 H 0.2990 0.6687 0.2271
H10 H 0.1764 0.7301 0.2339
H11 H 0.4266 0.5891 0.4612
H12 H 0.4665 0.6803 0.4602
H13 H 0.6723 0.5958 0.4651
H14 H 0.6606 0.6501 0.4207
H15 H 0.6641 0.5919 0.3468
H16 H 0.6257 0.3491 0.3286
H17 H 0.5792 0.4494 0.4543
H18 H 0.6494 0.5247 0.2235
H19 H 0.5560 0.5603 0.2604
H20 H 0.7221 0.5685 0.2682
H21 H 0.5602 0.3085 0.4463
H22 H 0.6433 0.2685 0.4087
H23 H 0.4142 0.2150 0.4019
H24 H 0.4316 0.2660 0.3576
H25 H 0.2825 0.2813 0.4646
H26 H -0.0384 0.4317 0.4152
H27 H 0.2755 0.3759 0.3350
H28 H -0.0948 0.3614 0.5256
H29 H -0.0743 0.4319 0.4905
H30 H -0.1417 0.3496 0.4721
O4? O 0.3811(12) 0.7676(8) 0.3008(5)
C28? C 0.3134(15) 0.7762(12) 0.2556(6)
O5? O 0.6899(10) 0.5010(5) 0.2891(4)
C29? C 0.6862(12) 0.4388(8) 0.2550(4)
H31? H 0.3568 0.8215 0.2418
H32? H 0.3229 0.7287 0.2369
H33? H 0.2144 0.7873 0.2571
H34? H 0.7183 0.4624 0.2276
H35? H 0.7482 0.3950 0.2658
H36? H 0.5312 0.4187 0.2478
loop_
_geom_bond_atom_site_label_1
_geom_bond_atom_site_label_2
_geom_bond_site_symmetry_1
_geom_bond_site_symmetry_2
C1 C2 1_555 1_555
C2 C3 1_555 1_555
C3 C4 1_555 1_555
C4 C5 1_555 1_555
C5 C6 1_555 1_555
C6 C7 1_555 1_555
C7 C8 1_555 1_555
C8 C3 1_555 1_555
O1 C5 1_555 1_555
C9 O1 1_555 1_555
C10 C7 1_555 1_555
C11 C10 1_555 1_555
C12 C11 1_555 1_555
C13 C12 1_555 1_555
C14 C13 1_555 1_555
C15 C14 1_555 1_555
C16 C15 1_555 1_555
C17 C12 1_555 1_555
O2 C14 1_555 1_555
C18 O2 1_555 1_555
C19 C16 1_555 1_555
C20 C19 1_555 1_555
C21 C20 1_555 1_555
C22 C21 1_555 1_555
C23 C22 1_555 1_555
C24 C23 1_555 1_555
C25 C1 1_555 1_555
C26 C21 1_555 1_555
O3 C23 1_555 1_555
C27 O3 1_555 1_555
H1 C1 1_555 1_555
H2 C1 1_555 1_555
H3 C2 1_555 1_555
H4 C2 1_555 1_555
H5 C4 1_555 1_555
H6 C6 1_555 1_555
H7 C8 1_555 1_555
H8 C9 1_555 1_555
H9 C9 1_555 1_555
H10 C9 1_555 1_555
H11 C10 1_555 1_555
H12 C10 1_555 1_555
H13 C11 1_555 1_555
H14 C11 1_555 1_555
H15 C13 1_555 1_555
H16 C15 1_555 1_555
H17 C17 1_555 1_555
H18 C18 1_555 1_555
H19 C18 1_555 1_555
H20 C18 1_555 1_555
H21 C19 1_555 1_555
H22 C19 1_555 1_555
H23 C20 1_555 1_555
H24 C20 1_555 1_555
H25 C22 1_555 1_555
H26 C24 1_555 1_555
H27 C26 1_555 1_555
H28 C27 1_555 1_555
H29 C27 1_555 1_555
H30 C27 1_555 1_555
C16 C17 1_555 1_555
C24 C25 1_555 1_555
C25 C26 1_555 1_555

#END
