
#######################################################################
#
#                 Cambridge Crystallographic Data Centre
#                                CCDC 
#
#######################################################################
#
# If this CIF has been generated from an entry in the Cambridge 
# Structural Database, then it will include bibliographic, chemical, 
# crystal, experimental, refinement or atomic coordinate data resulting 
# from the CCDC's data processing and validation procedures.
#
#######################################################################

data_PAPPAX
_chemical_formula_moiety         'C32 H24'
_chemical_name_systematic        (2.2.2.2)Paracyclophan-1,17-diyne
_symmetry_cell_setting           monoclinic
_symmetry_space_group_name_H-M   'P 21/c'
_symmetry_Int_Tables_number      14
_space_group_name_Hall           '-P 2ybc'
loop_
_symmetry_equiv_pos_site_id
_symmetry_equiv_pos_as_xyz
1 x,y,z
2 -x,1/2+y,1/2-z
3 -x,-y,-z
4 x,1/2-y,1/2+z
_cell_length_a                   11.057(1)
_cell_length_b                   8.822(1)
_cell_length_c                   12.029(1)
_cell_angle_alpha                90
_cell_angle_beta                 101.67(1)
_cell_angle_gamma                90
_cell_volume                     1149.11
_exptl_crystal_colour            colorless
_chemical_melting_point          '327-329 deg.C'
_cell_formula_units_Z            2
loop_
_atom_site_label
_atom_site_type_symbol
_atom_site_fract_x
_atom_site_fract_y
_atom_site_fract_z
C1 C 0.4655(1) 0.1057(2) 0.3525(1)
C2 C 0.3974(1) -0.0062(2) 0.2683(1)
C3 C 0.3363(1) -0.1312(2) 0.3003(1)
C4 C 0.2550(1) -0.2144(2) 0.2217(1)
C5 C 0.2322(1) -0.1756(2) 0.1069(1)
C6 C 0.2999(1) -0.0564(2) 0.0741(1)
C7 C 0.3809(1) 0.0252(2) 0.1534(1)
C8 C 0.1355(1) -0.2407(2) 0.0232(1)
C9 C 0.0502(1) -0.2698(2) -0.0521(1)
C10 C -0.0524(1) -0.2738(2) -0.1460(1)
C11 C -0.1534(1) -0.3696(2) -0.1530(1)
C12 C -0.2553(1) -0.3538(2) -0.2396(1)
C13 C -0.2602(1) -0.2433(2) -0.3226(1)
C14 C -0.1562(1) -0.1542(2) -0.3184(1)
C15 C -0.0551(1) -0.1667(2) -0.2318(1)
C16 C 0.3774(1) 0.2060(2) 0.4056(1)
H1 H 0.5142 0.1704 0.3147
H2 H 0.5206 0.0515 0.4110
H3 H 0.3521 -0.1615 0.3785
H4 H 0.2133 -0.3000 0.2459
H5 H 0.2910 -0.0320 -0.0048
H6 H 0.4278 0.1053 0.1284
H7 H -0.1517 -0.4476 -0.0971
H8 H -0.3249 -0.4197 -0.2420
H9 H -0.1547 -0.0820 -0.3779
H10 H 0.0147 -0.1013 -0.2300
H11 H 0.4183 0.2984 0.4338
H12 H 0.3568 0.1524 0.4687
C16B C -0.3774(1) -0.2060(2) -0.4056(1)
C13B C 0.2602(1) 0.2433(2) 0.3226(1)
C1B C -0.4655(1) -0.1057(2) -0.3525(1)
H11B H -0.4183 -0.2984 -0.4338
H12B H -0.3568 -0.1524 -0.4687
C12B C 0.2553(1) 0.3538(2) 0.2396(1)
C14B C 0.1562(1) 0.1542(2) 0.3184(1)
C2B C -0.3974(1) 0.0062(2) -0.2683(1)
H1B H -0.5142 -0.1704 -0.3147
H2B H -0.5206 -0.0515 -0.4110
C11B C 0.1534(1) 0.3696(2) 0.1530(1)
H8B H 0.3249 0.4197 0.2420
C15B C 0.0551(1) 0.1667(2) 0.2318(1)
H9B H 0.1547 0.0820 0.3779
C3B C -0.3363(1) 0.1312(2) -0.3003(1)
C7B C -0.3809(1) -0.0252(2) -0.1534(1)
C10B C 0.0524(1) 0.2738(2) 0.1460(1)
H7B H 0.1517 0.4476 0.0971
H10B H -0.0147 0.1013 0.2300
C4B C -0.2550(1) 0.2144(2) -0.2217(1)
H3B H -0.3521 0.1615 -0.3785
C6B C -0.2999(1) 0.0564(2) -0.0741(1)
H6B H -0.4278 -0.1053 -0.1284
C9B C -0.0502(1) 0.2698(2) 0.0521(1)
C5B C -0.2322(1) 0.1756(2) -0.1069(1)
H4B H -0.2133 0.3000 -0.2459
H5B H -0.2910 0.0320 0.0048
C8B C -0.1355(1) 0.2407(2) -0.0232(1)
loop_
_geom_bond_atom_site_label_1
_geom_bond_atom_site_label_2
_geom_bond_site_symmetry_1
_geom_bond_site_symmetry_2
C1 C2 1_555 1_555
C2 C3 1_555 1_555
C3 C4 1_555 1_555
C4 C5 1_555 1_555
C5 C6 1_555 1_555
C6 C7 1_555 1_555
C7 C2 1_555 1_555
C8 C5 1_555 1_555
C9 C8 1_555 1_555
C10 C9 1_555 1_555
C11 C10 1_555 1_555
C12 C11 1_555 1_555
C13 C12 1_555 1_555
C14 C13 1_555 1_555
C15 C10 1_555 1_555
C16 C1 1_555 1_555
H1 C1 1_555 1_555
H2 C1 1_555 1_555
H3 C3 1_555 1_555
H4 C4 1_555 1_555
H5 C6 1_555 1_555
H6 C7 1_555 1_555
H7 C11 1_555 1_555
H8 C12 1_555 1_555
H9 C14 1_555 1_555
H10 C15 1_555 1_555
H11 C16 1_555 1_555
H12 C16 1_555 1_555
C16B C13 1_555 1_555
C13B C16 1_555 1_555
C1B C16B 1_555 1_555
H11B C16B 1_555 1_555
H12B C16B 1_555 1_555
C12B C13B 1_555 1_555
C14B C13B 1_555 1_555
C2B C1B 1_555 1_555
H1B C1B 1_555 1_555
H2B C1B 1_555 1_555
C11B C12B 1_555 1_555
H8B C12B 1_555 1_555
C15B C14B 1_555 1_555
H9B C14B 1_555 1_555
C3B C2B 1_555 1_555
C7B C2B 1_555 1_555
C10B C11B 1_555 1_555
H7B C11B 1_555 1_555
H10B C15B 1_555 1_555
C4B C3B 1_555 1_555
H3B C3B 1_555 1_555
C6B C7B 1_555 1_555
H6B C7B 1_555 1_555
C9B C10B 1_555 1_555
C5B C4B 1_555 1_555
H4B C4B 1_555 1_555
H5B C6B 1_555 1_555
C8B C9B 1_555 1_555
C14 C15 1_555 1_555
C15B C10B 1_555 1_555
C6B C5B 1_555 1_555
C5B C8B 1_555 1_555

#END
