
#######################################################################
#
#                 Cambridge Crystallographic Data Centre
#                                CCDC 
#
#######################################################################
#
# If this CIF has been generated from an entry in the Cambridge 
# Structural Database, then it will include bibliographic, chemical, 
# crystal, experimental, refinement or atomic coordinate data resulting 
# from the CCDC's data processing and validation procedures.
#
#######################################################################

data_PAPPAA
_chemical_name_common            
'salinomycin-Salicylhydroxamic acid acetonitrile solvate'
_chemical_formula_moiety         'C49 H75 N1 O13,2(C2 H3 N1)'
_chemical_name_systematic        
'N-((2-(6-(6-(2-(5-ethyl-5-hydroxy-6-methyltetrahydro-2H-pyran-2-yl)-15-hydroxy-2,10,12-trimethyl-1,6,8-trioxadispiro[4.1.5^7^.3^5^]pentadec-13-en-9-yl)-3-hydroxy-4-methyl-5-oxooctan-2-yl)-5-methyltetrahydro-2H-pyran-2-yl)butanoyl)oxy)-2-hydroxybenzamide acetonitrile solvate'
_chemical_properties_biological  'antiproliferative activities'
_symmetry_cell_setting           monoclinic
_symmetry_space_group_name_H-M   'P 21'
_symmetry_Int_Tables_number      4
_space_group_name_Hall           'P 2yb'
loop_
_symmetry_equiv_pos_site_id
_symmetry_equiv_pos_as_xyz
1 x,y,z
2 -x,1/2+y,-z
_cell_length_a                   11.40081(14)
_cell_length_b                   19.5374(3)
_cell_length_c                   12.60036(18)
_cell_angle_alpha                90
_cell_angle_beta                 97.3809(12)
_cell_angle_gamma                90
_cell_volume                     2783.38
_exptl_crystal_colour            colorless
_cell_formula_units_Z            2
_exptl_crystal_recrystallization_method 'Vapour deposition'
loop_
_atom_site_label
_atom_site_type_symbol
_atom_site_fract_x
_atom_site_fract_y
_atom_site_fract_z
O1 O 0.93502(16) 0.80004(10) -0.02508(16)
O2 O 0.72498(16) 0.70569(11) -0.03540(15)
O3 O 0.8954(2) 0.59538(12) 0.43111(17)
O4 O 0.52512(18) 0.63249(12) -0.01569(16)
O5 O 0.6631(2) 0.68857(12) 0.34999(17)
O6 O 0.81940(17) 0.68402(13) 0.18262(18)
H1 H 0.8328 0.6783 0.1208
O7 O 0.81711(18) 0.75737(13) -0.17025(16)
C1 C 1.0485(2) 0.82207(15) 0.0258(2)
H2 H 1.0973 0.7811 0.0412
O8 O 0.8866(2) 0.82026(13) 0.2465(2)
C2 C 0.9905(3) 0.69238(18) -0.0983(3)
H3 H 1.0699 0.6900 -0.0701
O9 O 0.4778(2) 0.76299(14) 0.3707(2)
C3 C 0.9361(3) 0.76142(17) -0.1231(2)
C4 C 0.5555(3) 0.86544(15) 0.3048(2)
C5 C 0.8140(4) 0.5673(2) 0.4987(3)
H4 H 0.8359 0.5864 0.5704
C6 C 1.0284(3) 0.85356(16) 0.1329(3)
H5 H 1.1069 0.8630 0.1715
C7 C 0.5621(3) 0.79274(17) 0.3390(3)
C8 C 0.5487(2) 0.69555(16) 0.0429(2)
H6 H 0.6000 0.6851 0.1094
C9 C 0.8894(3) 0.56478(15) 0.3275(3)
H7 H 0.8083 0.5700 0.2918
C10 C 0.9690(3) 0.80249(16) 0.2018(3)
C11 C 1.1106(3) 0.86762(16) -0.0489(3)
H8 H 1.0607 0.9078 -0.0675
C12 C 0.4789(3) 0.57909(18) 0.0464(3)
H9 H 0.4618 0.5400 -0.0019
C13 C 0.9278(2) 0.68085(15) 0.2532(2)
H10 H 0.9103 0.6955 0.3239
C14 C 0.6917(3) 0.66800(17) 0.4542(3)
C15 C 1.1198(3) 0.82735(19) -0.1510(3)
H11 H 1.1702 0.7878 -0.1344
H12 H 1.1557 0.8559 -0.2010
C16 C 0.7451(3) 0.70196(19) -0.1431(2)
C17 C 0.4436(3) 0.89608(18) 0.2848(3)
C18 C 1.0197(2) 0.73039(16) 0.2200(2)
H13 H 1.0467 0.7140 0.1537
N1 N 0.6657(3) 0.76007(15) 0.3357(2)
H14 H 0.7293 0.7815 0.3256
O10 O 0.7426(3) 0.57903(15) -0.1174(3)
H15 H 0.7035 0.5939 -0.0722
O11 O 0.2752(2) 0.6081(2) -0.0132(3)
H16 H 0.3084 0.6211 -0.0635
C19 C 0.5571(3) 0.7557(2) -0.1385(3)
H17 H 0.4740 0.7436 -0.1460
H18 H 0.5643 0.8034 -0.1580
O12 O 0.7132(3) 0.70662(15) 0.5263(2)
C20 C 0.6159(3) 0.74295(16) -0.0235(2)
O13 O 0.3439(2) 0.86320(16) 0.3010(3)
H19 H 0.3607 0.8256 0.3277
C21 C 0.9709(3) 0.60633(16) 0.2646(3)
H20 H 1.0501 0.6064 0.3054
C22 C 0.4323(3) 0.7235(2) 0.0723(3)
H21 H 0.3799 0.7346 0.0077
H22 H 0.4468 0.7650 0.1142
C23 C 0.9980(3) 0.80369(19) -0.2029(3)
H23 H 0.9501 0.8448 -0.2206
C24 C 0.3608(3) 0.6013(2) 0.0806(3)
C25 C 0.9618(4) 0.92184(17) 0.1246(3)
H24 H 0.9842 0.9475 0.0645
H25 H 0.8775 0.9129 0.1106
C26 C 0.9798(3) 0.5740(2) 0.1556(3)
H26 H 1.0190 0.5306 0.1654
H27 H 1.0242 0.6036 0.1148
H28 H 0.9019 0.5675 0.1181
C27 C 1.2313(4) 0.8925(2) 0.0041(4)
H29 H 1.2204 0.9262 0.0574
H30 H 1.2741 0.9123 -0.0490
H31 H 1.2751 0.8545 0.0373
C28 C 0.6877(3) 0.59139(18) 0.4605(2)
H32 H 0.6627 0.5729 0.3889
C29 C 0.5718(3) 0.5548(2) 0.1367(3)
H33 H 0.6464 0.5496 0.1100
H34 H 0.5479 0.5117 0.1634
H35 H 0.5793 0.5880 0.1934
C30 C 0.3743(3) 0.6698(2) 0.1368(3)
H36 H 0.4218 0.6640 0.2058
H37 H 0.2969 0.6861 0.1494
C31 C 0.6237(3) 0.7101(2) -0.2076(3)
H38 H 0.6297 0.7315 -0.2762
H39 H 0.5848 0.6662 -0.2196
C32 C 0.6493(3) 0.80939(18) 0.0356(3)
H40 H 0.6823 0.7993 0.1079
H41 H 0.5801 0.8373 0.0360
H42 H 0.7067 0.8334 0.0003
C33 C 0.8042(4) 0.6338(2) -0.1599(3)
H43 H 0.8003 0.6265 -0.2372
C34 C 0.9304(3) 0.63511(19) -0.1148(3)
H44 H 0.9688 0.5938 -0.0975
C35 C 0.4330(4) 0.9624(2) 0.2450(3)
H45 H 0.3585 0.9820 0.2290
C36 C 1.1265(3) 0.7366(2) 0.3073(4)
H46 H 1.1815 0.7693 0.2854
H47 H 1.1646 0.6928 0.3180
H48 H 1.1003 0.7514 0.3729
C37 C 0.6548(4) 0.90354(18) 0.2891(3)
H49 H 0.7296 0.8842 0.3038
C38 C 0.8306(5) 0.4895(2) 0.5083(4)
H50 H 0.9059 0.4799 0.5509
H51 H 0.7687 0.4705 0.5454
C39 C 0.9170(4) 0.48782(18) 0.3367(4)
H52 H 0.9050 0.4681 0.2646
C40 C 0.5313(4) 0.99874(19) 0.2293(3)
H53 H 0.5236 1.0433 0.2032
C41 C 0.8276(5) 0.4553(2) 0.4018(4)
H54 H 0.7488 0.4592 0.3627
H55 H 0.8455 0.4070 0.4121
C42 C 1.0034(4) 0.7643(3) -0.3073(3)
H56 H 1.0478 0.7229 -0.2923
H57 H 1.0411 0.7921 -0.3558
H58 H 0.9246 0.7532 -0.3391
C43 C 0.3098(4) 0.5485(3) 0.1519(4)
H59 H 0.3636 0.5440 0.2177
H60 H 0.2354 0.5658 0.1706
C44 C 0.9866(5) 0.9648(2) 0.2250(4)
H61 H 0.9494 1.0087 0.2131
H62 H 1.0704 0.9708 0.2425
H63 H 0.9557 0.9421 0.2830
C45 C 0.6429(4) 0.9699(2) 0.2519(4)
H64 H 0.7096 0.9953 0.2420
C46 C 0.5973(5) 0.5703(2) 0.5353(3)
H65 H 0.5999 0.5210 0.5443
H66 H 0.6196 0.5908 0.6050
C47 C 0.2884(6) 0.4781(3) 0.1032(5)
H67 H 0.2386 0.4819 0.0360
H68 H 0.2504 0.4497 0.1508
H69 H 0.3626 0.4579 0.0919
C48 C 1.0447(5) 0.4735(3) 0.3852(6)
H70 H 1.0975 0.4874 0.3358
H71 H 1.0542 0.4255 0.3997
H72 H 1.0623 0.4988 0.4507
C49 C 0.4750(6) 0.5910(4) 0.4945(6)
H73 H 0.4530 0.5717 0.4248
H74 H 0.4706 0.6400 0.4900
H75 H 0.4219 0.5749 0.5423
C50 C 0.6765(7) 0.8704(4) 0.6062(6)
H76 H 0.6685 0.8291 0.5647
H77 H 0.7244 0.8617 0.6732
H78 H 0.7132 0.9050 0.5676
C51 C 0.5682(8) 0.8921(4) 0.6247(7)
N2 N 0.4789(9) 0.9035(8) 0.6380(12)
C52 C 0.3180(11) 0.7457(9) 0.5969(9)
H79 H 0.3316 0.7249 0.5306
H80 H 0.3862 0.7720 0.6250
H81 H 0.2504 0.7753 0.5849
N3 N 0.2958(5) 0.6572(4) 0.7577(5)
C53 C 0.2931(9) 0.6841(7) 0.6856(7)
loop_
_geom_bond_atom_site_label_1
_geom_bond_atom_site_label_2
_geom_bond_site_symmetry_1
_geom_bond_site_symmetry_2
O1 C1 1_555 1_555
O2 C16 1_555 1_555
O3 C5 1_555 1_555
O4 C8 1_555 1_555
O5 C14 1_555 1_555
O6 H1 1_555 1_555
O7 C3 1_555 1_555
C1 H2 1_555 1_555
O8 C10 1_555 1_555
C2 H3 1_555 1_555
O9 C7 1_555 1_555
C3 O1 1_555 1_555
C4 C7 1_555 1_555
C5 H4 1_555 1_555
C6 C1 1_555 1_555
H5 C6 1_555 1_555
C7 N1 1_555 1_555
C8 H6 1_555 1_555
C9 O3 1_555 1_555
H7 C9 1_555 1_555
C10 C6 1_555 1_555
C11 C1 1_555 1_555
H8 C11 1_555 1_555
C12 O4 1_555 1_555
H9 C12 1_555 1_555
C13 O6 1_555 1_555
H10 C13 1_555 1_555
C14 O12 1_555 1_555
C15 C11 1_555 1_555
H11 C15 1_555 1_555
H12 C15 1_555 1_555
C16 O7 1_555 1_555
C17 C4 1_555 1_555
C18 C10 1_555 1_555
H13 C18 1_555 1_555
N1 O5 1_555 1_555
H14 N1 1_555 1_555
O10 H15 1_555 1_555
O11 H16 1_555 1_555
C19 H17 1_555 1_555
H18 C19 1_555 1_555
C20 O2 1_555 1_555
O13 C17 1_555 1_555
H19 O13 1_555 1_555
C21 C9 1_555 1_555
H20 C21 1_555 1_555
C22 C8 1_555 1_555
H21 C22 1_555 1_555
H22 C22 1_555 1_555
C23 C3 1_555 1_555
H23 C23 1_555 1_555
C24 C12 1_555 1_555
C25 C6 1_555 1_555
H24 C25 1_555 1_555
H25 C25 1_555 1_555
C26 C21 1_555 1_555
H26 C26 1_555 1_555
H27 C26 1_555 1_555
H28 C26 1_555 1_555
C27 C11 1_555 1_555
H29 C27 1_555 1_555
H30 C27 1_555 1_555
H31 C27 1_555 1_555
C28 C5 1_555 1_555
H32 C28 1_555 1_555
C29 C12 1_555 1_555
H33 C29 1_555 1_555
H34 C29 1_555 1_555
H35 C29 1_555 1_555
C30 C22 1_555 1_555
H36 C30 1_555 1_555
H37 C30 1_555 1_555
C31 C16 1_555 1_555
H38 C31 1_555 1_555
H39 C31 1_555 1_555
C32 C20 1_555 1_555
H40 C32 1_555 1_555
H41 C32 1_555 1_555
H42 C32 1_555 1_555
C33 C16 1_555 1_555
H43 C33 1_555 1_555
C34 C2 1_555 1_555
H44 C34 1_555 1_555
C35 C17 1_555 1_555
H45 C35 1_555 1_555
C36 C18 1_555 1_555
H46 C36 1_555 1_555
H47 C36 1_555 1_555
H48 C36 1_555 1_555
C37 C4 1_555 1_555
H49 C37 1_555 1_555
C38 C5 1_555 1_555
H50 C38 1_555 1_555
H51 C38 1_555 1_555
C39 C9 1_555 1_555
H52 C39 1_555 1_555
C40 C35 1_555 1_555
H53 C40 1_555 1_555
C41 C38 1_555 1_555
H54 C41 1_555 1_555
H55 C41 1_555 1_555
C42 C23 1_555 1_555
H56 C42 1_555 1_555
H57 C42 1_555 1_555
H58 C42 1_555 1_555
C43 C24 1_555 1_555
H59 C43 1_555 1_555
H60 C43 1_555 1_555
C44 C25 1_555 1_555
H61 C44 1_555 1_555
H62 C44 1_555 1_555
H63 C44 1_555 1_555
C45 C37 1_555 1_555
H64 C45 1_555 1_555
C46 C28 1_555 1_555
H65 C46 1_555 1_555
H66 C46 1_555 1_555
C47 C43 1_555 1_555
H67 C47 1_555 1_555
H68 C47 1_555 1_555
H69 C47 1_555 1_555
C48 C39 1_555 1_555
H70 C48 1_555 1_555
H71 C48 1_555 1_555
H72 C48 1_555 1_555
C49 C46 1_555 1_555
H73 C49 1_555 1_555
H74 C49 1_555 1_555
H75 C49 1_555 1_555
C50 H76 1_555 1_555
H77 C50 1_555 1_555
H78 C50 1_555 1_555
C51 C50 1_555 1_555
N2 C51 1_555 1_555
C52 H79 1_555 1_555
H80 C52 1_555 1_555
H81 C52 1_555 1_555
N3 C53 1_555 1_555
C53 C52 1_555 1_555
C2 C3 1_555 1_555
C8 C20 1_555 1_555
C13 C18 1_555 1_555
C13 C21 1_555 1_555
C14 C28 1_555 1_555
C15 C23 1_555 1_555
O10 C33 1_555 1_555
O11 C24 1_555 1_555
C19 C20 1_555 1_555
C19 C31 1_555 1_555
C24 C30 1_555 1_555
C33 C34 1_555 1_555
C39 C41 1_555 1_555
C40 C45 1_555 1_555

#END
