
#######################################################################
#
#                 Cambridge Crystallographic Data Centre
#                                CCDC 
#
#######################################################################
#
# If this CIF has been generated from an entry in the Cambridge 
# Structural Database, then it will include bibliographic, chemical, 
# crystal, experimental, refinement or atomic coordinate data resulting 
# from the CCDC's data processing and validation procedures.
#
#######################################################################

data_PAPPOL
_chemical_formula_moiety         'C26 H16 O5'
_chemical_name_systematic        
3',6'-bis(2-Propynyloxy)spiro(phthalid-3,9'-xanthene)
_symmetry_cell_setting           orthorhombic
_symmetry_space_group_name_H-M   'P b c a'
_symmetry_Int_Tables_number      61
_space_group_name_Hall           '-P 2ac 2ab'
loop_
_symmetry_equiv_pos_site_id
_symmetry_equiv_pos_as_xyz
1 x,y,z
2 1/2-x,-y,1/2+z
3 1/2+x,1/2-y,-z
4 -x,1/2+y,1/2-z
5 -x,-y,-z
6 1/2+x,y,1/2-z
7 1/2-x,1/2+y,z
8 x,1/2-y,1/2+z
_cell_length_a                   14.332(2)
_cell_length_b                   12.706(3)
_cell_length_c                   20.612(3)
_cell_angle_alpha                90
_cell_angle_beta                 90
_cell_angle_gamma                90
_cell_volume                     3753.49
_exptl_crystal_colour            colorless
_chemical_melting_point          193deg.C
_cell_formula_units_Z            8
loop_
_atom_site_label
_atom_site_type_symbol
_atom_site_fract_x
_atom_site_fract_y
_atom_site_fract_z
C1 C 0.3747(3) 0.4592(3) 0.2613(2)
C2 C 0.3981(2) 0.4218(3) 0.2123(2)
C3 C 0.4302(2) 0.3778(2) 0.1504(2)
O1 O 0.3884(1) 0.2788(2) 0.1345(1)
C4 C 0.2945(2) 0.2773(2) 0.1219(1)
C5 C 0.2371(2) 0.3647(2) 0.1245(1)
C6 C 0.1431(2) 0.3526(2) 0.1112(1)
C7 C 0.1043(2) 0.2564(2) 0.0955(1)
C8 C 0.1639(2) 0.1702(2) 0.0927(2)
C9 C 0.2574(2) 0.1795(2) 0.1056(1)
O2 O 0.0924(1) 0.4443(2) 0.1156(1)
C10 C 0.0026(2) 0.4431(2) 0.0913(1)
C11 C -0.0430(2) 0.3517(2) 0.0748(1)
C12 C 0.0009(2) 0.2454(2) 0.0855(1)
C13 C -0.1323(2) 0.3624(3) 0.0479(2)
C14 C -0.1730(2) 0.4595(2) 0.0394(2)
C15 C -0.1253(2) 0.5495(3) 0.0586(1)
C16 C -0.0369(2) 0.5428(2) 0.0844(1)
O3 O -0.1716(2) 0.6423(2) 0.0472(1)
C17 C -0.1362(2) 0.7354(3) 0.0778(2)
C18 C -0.1568(3) 0.7354(3) 0.1475(2)
C19 C -0.1762(3) 0.7366(3) 0.2024(2)
O4 O -0.0178(2) 0.1818(2) 0.0265(1)
C20 C -0.0739(2) 0.0982(2) 0.0401(2)
O5 O -0.1017(2) 0.0403(2) -0.0018(1)
C21 C -0.0903(2) 0.0953(2) 0.1104(1)
C22 C -0.1369(2) 0.0215(2) 0.1477(2)
C23 C -0.1359(3) 0.0343(3) 0.2141(2)
C24 C -0.0898(2) 0.1195(3) 0.2418(2)
C25 C -0.0445(2) 0.1943(3) 0.2042(2)
C26 C -0.0457(2) 0.1807(2) 0.1377(1)
H1 H 0.3573(29) 0.4971(29) 0.2996(12)
H2 H 0.4966 0.3686 0.1527
H3 H 0.4173 0.4272 0.1163
H4 H 0.2621 0.4325 0.1356
H5 H 0.1388 0.1027 0.0812
H6 H 0.2976 0.1191 0.1044
H7 H -0.1659 0.2999 0.0359
H8 H -0.2332 0.4657 0.0194
H9 H -0.0033 0.6050 0.0969
H10 H -0.1643 0.7960 0.0581
H11 H -0.0700 0.7393 0.0713
H12 H -0.1900(28) 0.7385(30) 0.2477(7)
H13 H -0.1694 -0.0359 0.1275
H14 H -0.1662 -0.0165 0.2413
H15 H -0.0896 0.1268 0.2882
H16 H -0.0140 0.2540 0.2233
loop_
_geom_bond_atom_site_label_1
_geom_bond_atom_site_label_2
_geom_bond_site_symmetry_1
_geom_bond_site_symmetry_2
C1 C2 1_555 1_555
C2 C3 1_555 1_555
C3 O1 1_555 1_555
O1 C4 1_555 1_555
C4 C5 1_555 1_555
C5 C6 1_555 1_555
C6 C7 1_555 1_555
C7 C8 1_555 1_555
C8 C9 1_555 1_555
C9 C4 1_555 1_555
O2 C6 1_555 1_555
C10 O2 1_555 1_555
C11 C10 1_555 1_555
C12 C7 1_555 1_555
C13 C11 1_555 1_555
C14 C13 1_555 1_555
C15 C14 1_555 1_555
C16 C10 1_555 1_555
O3 C15 1_555 1_555
C17 O3 1_555 1_555
C18 C17 1_555 1_555
C19 C18 1_555 1_555
O4 C12 1_555 1_555
C20 O4 1_555 1_555
O5 C20 1_555 1_555
C21 C20 1_555 1_555
C22 C21 1_555 1_555
C23 C22 1_555 1_555
C24 C23 1_555 1_555
C25 C24 1_555 1_555
C26 C12 1_555 1_555
H1 C1 1_555 1_555
H2 C3 1_555 1_555
H3 C3 1_555 1_555
H4 C5 1_555 1_555
H5 C8 1_555 1_555
H6 C9 1_555 1_555
H7 C13 1_555 1_555
H8 C14 1_555 1_555
H9 C16 1_555 1_555
H10 C17 1_555 1_555
H11 C17 1_555 1_555
H12 C19 1_555 1_555
H13 C22 1_555 1_555
H14 C23 1_555 1_555
H15 C24 1_555 1_555
H16 C25 1_555 1_555
C11 C12 1_555 1_555
C15 C16 1_555 1_555
C21 C26 1_555 1_555
C25 C26 1_555 1_555

#END
