
#######################################################################
#
#                 Cambridge Crystallographic Data Centre
#                                CCDC 
#
#######################################################################
#
# If this CIF has been generated from an entry in the Cambridge 
# Structural Database, then it will include bibliographic, chemical, 
# crystal, experimental, refinement or atomic coordinate data resulting 
# from the CCDC's data processing and validation procedures.
#
#######################################################################

data_PAPQIJ
_chemical_compound_source        'fruits of Walsura robusta'
_chemical_name_common            'Walsunoid H'
_chemical_formula_moiety         'C28 H32 O7'
_chemical_name_systematic        
'17-(3-furyl)-6-hydroxy-4,4,8-trimethyl-3,7-dioxo-14,15-epoxyandrosta-1,5-dien-11-yl acetate'
_chemical_properties_biological  
'potential cytoctoxic activity with cell viability less than 50% under the concentration of 10 muM on MCF-7/DOX cells'
_symmetry_cell_setting           orthorhombic
_symmetry_space_group_name_H-M   'P 21 21 21'
_symmetry_Int_Tables_number      19
_space_group_name_Hall           'P 2ac 2ab'
loop_
_symmetry_equiv_pos_site_id
_symmetry_equiv_pos_as_xyz
1 x,y,z
2 1/2-x,-y,1/2+z
3 1/2+x,1/2-y,-z
4 -x,1/2+y,1/2-z
_cell_length_a                   11.7289(2)
_cell_length_b                   12.9410(2)
_cell_length_c                   16.7872(2)
_cell_angle_alpha                90
_cell_angle_beta                 90
_cell_angle_gamma                90
_cell_volume                     2548.02
_exptl_crystal_colour            colorless
_exptl_crystal_description       block
_chemical_melting_point          '254-255 deg.C'
_cell_formula_units_Z            4
_chemical_properties_physical    Heat-sensitive
_exptl_crystal_recrystallization_method methanol
loop_
_atom_site_label
_atom_site_type_symbol
_atom_site_fract_x
_atom_site_fract_y
_atom_site_fract_z
O1 O 0.64396(11) 0.91626(10) 0.80582(7)
O2 O 0.72966(15) 1.26447(10) 0.55185(7)
H1 H 0.6917 1.2463 0.5133
O3 O 0.45803(11) 0.90476(12) 0.67951(9)
O4 O 1.01284(13) 1.31880(12) 0.79235(9)
O5 O 0.59373(15) 1.10637(12) 0.52739(9)
C1 C 0.79619(14) 1.10082(13) 0.73240(9)
C2 C 0.73253(13) 1.00770(12) 0.69657(9)
H2 H 0.7788 0.9901 0.6499
C3 C 0.70407(16) 0.81431(14) 0.68992(11)
H3 H 0.6631 0.7629 0.7207
H4 H 0.7755 0.7836 0.6730
C4 C 0.79440(14) 1.19102(13) 0.67338(9)
C5 C 0.61418(14) 1.03438(13) 0.65960(9)
C6 C 0.55824(14) 0.93384(14) 0.63334(10)
C7 C 0.72864(16) 1.18798(13) 0.60834(9)
O6 O 0.73698(18) 0.79996(17) 0.87974(10)
C8 C 0.73022(15) 0.90666(14) 0.74370(9)
H5 H 0.8048 0.8962 0.7687
C9 C 0.96567(16) 1.25353(15) 0.75107(11)
C10 C 0.52998(16) 1.09683(17) 0.71170(12)
H6 H 0.5599 1.1649 0.7206
H7 H 0.5199 1.0625 0.7619
H8 H 0.4578 1.1018 0.6850
C11 C 0.87348(16) 1.28228(14) 0.69082(10)
C12 C 0.64230(15) 1.10645(14) 0.59117(10)
C13 C 0.63284(14) 0.84144(13) 0.61507(9)
C14 C 0.54321(17) 0.75693(15) 0.59269(11)
H9 H 0.5115 0.7310 0.6428
O7 O 0.6252(2) 0.54653(15) 0.45545(13)
C15 C 0.7558(2) 1.13209(17) 0.81682(10)
H10 H 0.7986 1.1909 0.8347
H11 H 0.7676 1.0755 0.8529
H12 H 0.6762 1.1492 0.8153
C16 C 0.70727(18) 0.86331(16) 0.54173(11)
H13 H 0.7514 0.8030 0.5291
H14 H 0.7576 0.9200 0.5529
H15 H 0.6594 0.8806 0.4973
C17 C 0.58842(19) 0.66525(15) 0.54843(12)
C18 C 1.00012(18) 1.14536(17) 0.75230(16)
H16 H 1.0759 1.1276 0.7610
C19 C 0.44819(17) 0.92003(19) 0.59477(15)
H17 H 0.4065 0.9795 0.5734
C20 C 0.4478(2) 0.81817(18) 0.55124(15)
H18 H 0.4643 0.8276 0.4951
H19 H 0.3749 0.7835 0.5568
C21 C 0.9477(2) 1.3127(2) 0.61797(13)
H20 H 0.9947 1.2552 0.6028
H21 H 0.9953 1.3704 0.6318
H22 H 0.8991 1.3314 0.5742
C22 C 0.92243(16) 1.07267(16) 0.74097(13)
H23 H 0.9447 1.0038 0.7382
C23 C 0.8034(2) 1.37560(17) 0.71953(15)
H24 H 0.8535 1.4327 0.7299
H25 H 0.7634 1.3576 0.7675
H26 H 0.7494 1.3947 0.6791
C24 C 0.6653(2) 0.59003(17) 0.57914(16)
H27 H 0.6966 0.5891 0.6300
C25 C 0.6842(3) 0.52116(19) 0.52165(19)
H28 H 0.7314 0.4638 0.5264
C26 C 0.6590(2) 0.8584(2) 0.87108(12)
C27 C 0.5650(3) 0.8769(3) 0.93005(16)
H29 H 0.5711 0.9458 0.9508
H30 H 0.5713 0.8281 0.9729
H31 H 0.4926 0.8685 0.9042
C28 C 0.5672(3) 0.6348(2) 0.47295(15)
H32 H 0.5196 0.6695 0.4377
loop_
_geom_bond_atom_site_label_1
_geom_bond_atom_site_label_2
_geom_bond_site_symmetry_1
_geom_bond_site_symmetry_2
O1 C8 1_555 1_555
O2 H1 1_555 1_555
O3 C6 1_555 1_555
O4 C9 1_555 1_555
O5 C12 1_555 1_555
C1 C2 1_555 1_555
C2 H2 1_555 1_555
C3 H3 1_555 1_555
H4 C3 1_555 1_555
C4 C1 1_555 1_555
C5 C2 1_555 1_555
C6 C5 1_555 1_555
C7 O2 1_555 1_555
O6 C26 1_555 1_555
C8 C2 1_555 1_555
H5 C8 1_555 1_555
C9 C11 1_555 1_555
C10 C5 1_555 1_555
H6 C10 1_555 1_555
H7 C10 1_555 1_555
H8 C10 1_555 1_555
C11 C4 1_555 1_555
C12 C5 1_555 1_555
C13 C3 1_555 1_555
C14 C13 1_555 1_555
H9 C14 1_555 1_555
O7 C25 1_555 1_555
C15 C1 1_555 1_555
H10 C15 1_555 1_555
H11 C15 1_555 1_555
H12 C15 1_555 1_555
C16 C13 1_555 1_555
H13 C16 1_555 1_555
H14 C16 1_555 1_555
H15 C16 1_555 1_555
C17 C14 1_555 1_555
C18 C9 1_555 1_555
H16 C18 1_555 1_555
C19 O3 1_555 1_555
H17 C19 1_555 1_555
C20 C14 1_555 1_555
H18 C20 1_555 1_555
H19 C20 1_555 1_555
C21 C11 1_555 1_555
H20 C21 1_555 1_555
H21 C21 1_555 1_555
H22 C21 1_555 1_555
C22 C1 1_555 1_555
H23 C22 1_555 1_555
C23 C11 1_555 1_555
H24 C23 1_555 1_555
H25 C23 1_555 1_555
H26 C23 1_555 1_555
C24 C17 1_555 1_555
H27 C24 1_555 1_555
C25 C24 1_555 1_555
H28 C25 1_555 1_555
C26 O1 1_555 1_555
C27 C26 1_555 1_555
H29 C27 1_555 1_555
H30 C27 1_555 1_555
H31 C27 1_555 1_555
C28 O7 1_555 1_555
H32 C28 1_555 1_555
C3 C8 1_555 1_555
C4 C7 1_555 1_555
C6 C13 1_555 1_555
C6 C19 1_555 1_555
C7 C12 1_555 1_555
C17 C28 1_555 1_555
C18 C22 1_555 1_555
C19 C20 1_555 1_555

#END
