
#######################################################################
#
#                 Cambridge Crystallographic Data Centre
#                                CCDC 
#
#######################################################################
#
# If this CIF has been generated from an entry in the Cambridge 
# Structural Database, then it will include bibliographic, chemical, 
# crystal, experimental, refinement or atomic coordinate data resulting 
# from the CCDC's data processing and validation procedures.
#
#######################################################################

data_PAPYUB01
_chemical_formula_moiety         'C28 H20 D2 Si1'
_chemical_name_systematic        
1,1-Dideutero-2,3,4,5-tetraphenyl-1-silacyclopenta-2,4-diene
_symmetry_cell_setting           tetragonal
_symmetry_space_group_name_H-M   'I 41/a'
_symmetry_Int_Tables_number      88
_space_group_name_Hall           '-I 4ad'
loop_
_symmetry_equiv_pos_site_id
_symmetry_equiv_pos_as_xyz
1 x,y,z
2 3/4-y,1/4+x,1/4+z
3 1/2+x,1/2+y,1/2+z
4 1/4-y,3/4+x,3/4+z
5 1/4+y,1/4-x,1/4+z
6 1/2-x,-y,1/2+z
7 3/4+y,3/4-x,3/4+z
8 -x,1/2-y,z
9 -x,-y,-z
10 1/4+y,3/4-x,3/4-z
11 1/2-x,1/2-y,1/2-z
12 3/4+y,1/4-x,1/4-z
13 3/4-y,3/4+x,3/4-z
14 1/2+x,y,1/2-z
15 1/4-y,1/4+x,1/4-z
16 x,1/2+y,-z
_cell_length_a                   26.5807(12)
_cell_length_b                   26.5807(12)
_cell_length_c                   11.9078(10)
_cell_angle_alpha                90
_cell_angle_beta                 90
_cell_angle_gamma                90
_cell_volume                     8413.26
_exptl_crystal_colour            green
_exptl_crystal_description       Block
_chemical_melting_point          '204-206 deg.C'
_cell_formula_units_Z            16
_exptl_crystal_recrystallization_method toluene
loop_
_atom_site_label
_atom_site_type_symbol
_atom_site_fract_x
_atom_site_fract_y
_atom_site_fract_z
Si1 Si 0.239081(17) 0.261290(16) 0.04960(4)
C1 C 0.27839(6) 0.22610(6) -0.05269(13)
C2 C 0.25646(6) 0.18040(6) -0.06811(13)
C3 C 0.20934(6) 0.17052(5) -0.00144(13)
C4 C 0.19346(6) 0.20839(6) 0.06665(13)
C5 C 0.32299(6) 0.24509(5) -0.11358(13)
C6 C 0.36268(6) 0.26680(6) -0.05436(16)
C7 C 0.40450(7) 0.28566(7) -0.11019(17)
C8 C 0.40705(7) 0.28388(6) -0.22529(16)
C9 C 0.36805(7) 0.26266(6) -0.28529(16)
C10 C 0.32649(6) 0.24343(6) -0.23035(15)
C11 C 0.27802(6) 0.14180(6) -0.14424(14)
C12 C 0.32764(6) 0.12624(6) -0.12942(16)
C13 C 0.34925(7) 0.09168(7) -0.20133(17)
C14 C 0.32179(8) 0.07218(8) -0.28904(19)
C15 C 0.27252(8) 0.08673(9) -0.30440(19)
C16 C 0.25058(7) 0.12118(7) -0.23223(17)
C17 C 0.18294(6) 0.12130(6) -0.01223(13)
C18 C 0.20821(7) 0.07616(6) 0.00430(15)
C19 C 0.18266(8) 0.03096(7) 0.00050(17)
C20 C 0.13163(8) 0.03017(7) -0.02102(17)
C21 C 0.10635(7) 0.07433(7) -0.04088(15)
C22 C 0.13186(6) 0.11984(7) -0.03645(14)
C23 C 0.15034(6) 0.20764(6) 0.14486(13)
C24 C 0.13920(6) 0.16660(6) 0.21468(14)
C25 C 0.09934(6) 0.16824(7) 0.28915(15)
C26 C 0.06874(7) 0.21030(7) 0.29458(15)
C27 C 0.07903(7) 0.25108(7) 0.22681(16)
C28 C 0.11974(6) 0.24999(6) 0.15466(16)
D1 D 0.2192(6) 0.3047(6) 0.0069(15)
D2 D 0.2647(6) 0.2723(6) 0.1508(15)
H1 H 0.1144(6) 0.1505(6) -0.0511(13)
H2 H 0.1276(7) 0.2763(7) 0.1113(16)
H3 H 0.3602(6) 0.2678(6) 0.0269(16)
H4 H 0.0393(7) 0.2131(7) 0.3452(16)
H5 H 0.3696(7) 0.2614(7) -0.3648(18)
H6 H 0.2446(8) 0.0756(7) 0.0188(16)
H7 H 0.2990(7) 0.2301(7) -0.2713(15)
H8 H 0.1588(6) 0.1367(7) 0.2126(14)
H9 H 0.2165(8) 0.1317(7) -0.2458(17)
H10 H 0.0912(7) 0.1416(7) 0.3361(16)
H11 H 0.4365(7) 0.2980(7) -0.2650(17)
H12 H 0.1126(8) -0.0004(8) -0.0217(17)
H13 H 0.0706(8) 0.0756(7) -0.0542(16)
H14 H 0.4310(7) 0.2997(7) -0.0668(16)
H15 H 0.3468(7) 0.1393(7) -0.0619(16)
H16 H 0.0578(7) 0.2814(8) 0.2308(17)
H17 H 0.2027(8) 0.0014(8) 0.0097(19)
H18 H 0.3845(8) 0.0813(8) -0.1893(17)
H19 H 0.3373(8) 0.0474(8) -0.3390(19)
H20 H 0.2520(9) 0.0749(9) -0.366(2)
loop_
_geom_bond_atom_site_label_1
_geom_bond_atom_site_label_2
_geom_bond_site_symmetry_1
_geom_bond_site_symmetry_2
Si1 C1 1_555 1_555
C1 C2 1_555 1_555
C2 C3 1_555 1_555
C3 C4 1_555 1_555
C4 Si1 1_555 1_555
C5 C1 1_555 1_555
C6 C5 1_555 1_555
C7 C6 1_555 1_555
C8 C7 1_555 1_555
C9 C8 1_555 1_555
C10 C5 1_555 1_555
C11 C2 1_555 1_555
C12 C11 1_555 1_555
C13 C12 1_555 1_555
C14 C13 1_555 1_555
C15 C14 1_555 1_555
C16 C11 1_555 1_555
C17 C3 1_555 1_555
C18 C17 1_555 1_555
C19 C18 1_555 1_555
C20 C19 1_555 1_555
C21 C20 1_555 1_555
C22 C17 1_555 1_555
C23 C4 1_555 1_555
C24 C23 1_555 1_555
C25 C24 1_555 1_555
C26 C25 1_555 1_555
C27 C26 1_555 1_555
C28 C23 1_555 1_555
D1 Si1 1_555 1_555
D2 Si1 1_555 1_555
H1 C22 1_555 1_555
H2 C28 1_555 1_555
H3 C6 1_555 1_555
H4 C26 1_555 1_555
H5 C9 1_555 1_555
H6 C18 1_555 1_555
H7 C10 1_555 1_555
H8 C24 1_555 1_555
H9 C16 1_555 1_555
H10 C25 1_555 1_555
H11 C8 1_555 1_555
H12 C20 1_555 1_555
H13 C21 1_555 1_555
H14 C7 1_555 1_555
H15 C12 1_555 1_555
H16 C27 1_555 1_555
H17 C19 1_555 1_555
H18 C13 1_555 1_555
H19 C14 1_555 1_555
H20 C15 1_555 1_555
C9 C10 1_555 1_555
C15 C16 1_555 1_555
C21 C22 1_555 1_555
C27 C28 1_555 1_555

#END
