
#######################################################################
#
#                 Cambridge Crystallographic Data Centre
#                                CCDC 
#
#######################################################################
#
# If this CIF has been generated from an entry in the Cambridge 
# Structural Database, then it will include bibliographic, chemical, 
# crystal, experimental, refinement or atomic coordinate data resulting 
# from the CCDC's data processing and validation procedures.
#
#######################################################################

data_PAPZUD
_chemical_formula_moiety         
'3(C6 H5 N1 O3),C30 H30 N20 O10,2(Cs1 1+),2(Cl1 1-),9(H2 O1)'
_chemical_name_systematic        
'di-cesium cucurbit[5]uril dichloride tris(4-nitrophenol) nonahydrate'
_symmetry_cell_setting           monoclinic
_symmetry_space_group_name_H-M   'P 21/c'
_symmetry_Int_Tables_number      14
_space_group_name_Hall           '-P 2ybc'
loop_
_symmetry_equiv_pos_site_id
_symmetry_equiv_pos_as_xyz
1 x,y,z
2 -x,1/2+y,1/2-z
3 -x,-y,-z
4 x,1/2-y,1/2+z
_cell_length_a                   10.8896(10)
_cell_length_b                   28.942(3)
_cell_length_c                   21.4650(19)
_cell_angle_alpha                90
_cell_angle_beta                 97.671(3)
_cell_angle_gamma                90
_cell_volume                     6704.51
_exptl_crystal_colour            colorless
_exptl_crystal_description       prism
_cell_formula_units_Z            4
loop_
_atom_site_label
_atom_site_type_symbol
_atom_site_fract_x
_atom_site_fract_y
_atom_site_fract_z
O1 O 0.1528(10) 0.9560(3) 0.2940(4)
Cl1 Cl -0.0507(5) 0.58310(19) -0.1465(3)
Cl2 Cl 0.2671(7) 0.7980(3) 0.3621(4)
Cl3 Cl -0.5995(7) 0.9268(3) 0.3667(3)
Cs1 Cs 0.16334(3) 0.716672(12) 0.055278(17)
Cs2 Cs 0.44990(3) 0.708431(13) 0.214178(17)
C1 C 0.0964(4) 0.74723(16) 0.2367(2)
C2 C -0.0304(4) 0.78353(16) 0.3017(2)
H1 H 0.0061 0.8059 0.3338
C3 C -0.0056(4) 0.73324(16) 0.32471(19)
H2 H 0.0397 0.7322 0.3679
C4 C -0.2188(4) 0.74640(16) 0.30555(19)
C5 C 0.1265(4) 0.66941(17) 0.2833(2)
H3 H 0.1449 0.6608 0.3277
H4 H 0.2054 0.6715 0.2662
C6 C -0.1545(5) 0.66683(16) 0.3373(2)
H5 H -0.0935 0.6567 0.3723
H6 H -0.2366 0.6652 0.3511
C7 C 0.0591(5) 0.62315(16) 0.1884(2)
C8 C -0.0448(4) 0.60850(16) 0.2750(2)
H7 H -0.0124 0.5908 0.3131
C9 C -0.0951(5) 0.57576(16) 0.2199(2)
H8 H -0.0762 0.5430 0.2304
C10 C -0.2576(5) 0.62047(17) 0.2501(2)
C11 C -0.0406(5) 0.56857(17) 0.1081(2)
H9 H 0.0396 0.5707 0.0923
H10 H -0.0584 0.5358 0.1137
C12 C -0.3181(5) 0.56398(18) 0.1658(2)
H11 H -0.3985 0.5640 0.1815
H12 H -0.2947 0.5317 0.1601
C13 C -0.1105(5) 0.62151(16) 0.0204(2)
C14 C -0.2642(5) 0.57394(17) 0.0540(2)
H13 H -0.2740 0.5406 0.0442
C15 C -0.3219(5) 0.60407(17) -0.0014(2)
H14 H -0.3547 0.5850 -0.0382
C16 C -0.4280(5) 0.61626(18) 0.0855(2)
C17 C -0.2257(5) 0.66403(16) -0.0678(2)
H15 H -0.2862 0.6521 -0.1019
H16 H -0.1447 0.6646 -0.0829
C18 C -0.5037(5) 0.66072(18) -0.0110(2)
H17 H -0.5199 0.6506 -0.0549
H18 H -0.5828 0.6605 0.0061
C19 C -0.1748(4) 0.74480(16) -0.03767(19)
C20 C -0.3856(4) 0.72694(17) -0.0562(2)
H19 H -0.4312 0.7243 -0.0992
C21 C -0.3696(4) 0.77820(17) -0.0350(2)
H20 H -0.4104 0.7994 -0.0676
C22 C -0.4858(4) 0.73962(18) 0.0332(2)
C23 C -0.1734(5) 0.82623(16) -0.0037(2)
H21 H -0.2196 0.8529 -0.0229
H22 H -0.0913 0.8265 -0.0177
C24 C -0.4512(4) 0.82285(18) 0.0547(2)
H23 H -0.4590 0.8484 0.0245
H24 H -0.5304 0.8200 0.0715
C25 C -0.0490(4) 0.82098(15) 0.1002(2)
C26 C -0.2412(5) 0.85741(16) 0.0987(2)
H25 H -0.2562 0.8889 0.0814
C27 C -0.1716(4) 0.85858(16) 0.1664(2)
H26 H -0.1605 0.8906 0.1824
C28 C -0.3614(5) 0.82096(17) 0.1668(2)
C29 C 0.0443(4) 0.82845(17) 0.2118(2)
H27 H 0.1234 0.8274 0.1948
H28 H 0.0478 0.8544 0.2413
C30 C -0.2326(5) 0.82750(17) 0.2703(2)
H29 H -0.1880 0.8549 0.2881
H30 H -0.3132 0.8268 0.2859
N1 N 0.0298(4) 0.78643(13) 0.24535(18)
N2 N 0.0678(4) 0.71426(13) 0.27897(19)
N3 N -0.1635(4) 0.78686(14) 0.29224(19)
N4 N -0.1288(4) 0.71446(13) 0.32202(18)
N5 N 0.0522(4) 0.63328(14) 0.25024(18)
N6 N -0.0315(4) 0.59160(14) 0.16910(19)
N7 N -0.1510(4) 0.63596(14) 0.28505(17)
N8 N -0.2275(4) 0.58478(14) 0.21251(19)
N9 N -0.1340(4) 0.58758(14) 0.06227(19)
N10 N -0.2198(4) 0.63293(15) -0.01490(19)
N11 N -0.3317(4) 0.58706(15) 0.10481(19)
N12 N -0.4197(4) 0.62788(15) 0.0242(2)
N13 N -0.2598(4) 0.71073(13) -0.05341(19)
N14 N -0.2370(4) 0.78445(14) -0.02640(19)
N15 N -0.4562(4) 0.70749(15) -0.0092(2)
N16 N -0.4287(4) 0.78025(14) 0.02167(19)
N17 N -0.1583(4) 0.83149(14) 0.06389(18)
N18 N -0.0543(4) 0.83692(14) 0.16054(18)
N19 N -0.3562(4) 0.83402(14) 0.10544(18)
N20 N -0.2529(4) 0.83178(14) 0.20190(17)
O2 O 0.1689(3) 0.74236(12) 0.19858(15)
O3 O 0.1347(3) 0.63896(13) 0.15663(16)
O4 O -0.0097(3) 0.63756(13) 0.01572(16)
O5 O -0.0626(3) 0.74114(12) -0.03693(15)
O6 O 0.0397(3) 0.80206(12) 0.08222(16)
O7 O -0.3304(3) 0.74024(12) 0.30425(15)
O8 O -0.3614(3) 0.63499(13) 0.25263(17)
O9 O -0.5080(4) 0.62867(14) 0.11623(18)
O10 O -0.5531(3) 0.73334(14) 0.07337(17)
O11 O -0.4515(3) 0.80290(13) 0.18612(17)
C31 C 0.1571(5) 0.88950(19) 0.0352(3)
C32 C 0.0613(6) 0.9222(2) 0.0206(3)
H31 H 0.0174 0.9241 -0.0201
C33 C 0.0344(6) 0.9511(2) 0.0678(3)
H32 H -0.0274 0.9738 0.0591
C34 C 0.0963(6) 0.9471(2) 0.1268(3)
C35 C 0.1896(5) 0.9137(2) 0.1414(3)
H33 H 0.2311 0.9110 0.1826
C36 C 0.2181(5) 0.8860(2) 0.0956(3)
H34 H 0.2809 0.8638 0.1047
N21 N 0.1800(5) 0.8573(2) -0.0129(3)
O12 O 0.1191(5) 0.8611(2) -0.0648(2)
O13 O 0.2616(5) 0.82739(19) -0.0002(2)
O14 O 0.0644(6) 0.9755(2) 0.1729(3)
H43 H 0.1131 0.9715 0.2057
C37 C 0.3472(5) 1.01580(16) 0.1051(3)
C38 C 0.3634(5) 1.01277(18) 0.1700(3)
H35 H 0.3162 1.0316 0.1935
C39 C 0.4482(5) 0.98241(17) 0.2003(3)
H36 H 0.4592 0.9802 0.2444
C40 C 0.5176(5) 0.95491(17) 0.1648(3)
C41 C 0.4998(6) 0.9581(2) 0.0997(3)
H37 H 0.5464 0.9394 0.0758
C42 C 0.4155(6) 0.98822(19) 0.0703(3)
H38 H 0.4037 0.9902 0.0262
N22 N 0.2585(5) 1.04857(17) 0.0733(3)
O15 O 0.6026(4) 0.92492(15) 0.1919(2)
H44 H 0.6048 0.9261 0.2307
O16 O 0.2506(5) 1.05200(18) 0.0162(2)
O17 O 0.1933(5) 1.07057(17) 0.1051(2)
C43 C 0.3649(6) 0.9234(2) -0.1471(3)
C44 C 0.2727(8) 0.9531(3) -0.1426(6)
H39 H 0.2477 0.9600 -0.1034
C45 C 0.2131(7) 0.9739(3) -0.1986(7)
H40 H 0.1498 0.9959 -0.1981
C46 C 0.2568(10) 0.9588(4) -0.2576(5)
C47 C 0.3469(7) 0.9268(3) -0.2590(4)
H41 H 0.3710 0.9163 -0.2970
C48 C 0.3985(7) 0.9113(3) -0.2046(3)
H42 H 0.4640 0.8902 -0.2046
N23 N 0.4356(8) 0.9042(2) -0.0881(3)
O18 O 0.3953(9) 0.9150(3) -0.0399(3)
O19 O 0.5317(9) 0.8824(2) -0.0929(4)
O20 O 0.1979(11) 0.9774(3) -0.3132(6)
H45 H 0.1741 1.0040 -0.3066
Cl4? Cl -0.4594(10) 0.9066(4) 0.3316(5)
loop_
_geom_bond_atom_site_label_1
_geom_bond_atom_site_label_2
_geom_bond_site_symmetry_1
_geom_bond_site_symmetry_2
C1 N1 1_555 1_555
C2 H1 1_555 1_555
C3 C2 1_555 1_555
H2 C3 1_555 1_555
C4 N3 1_555 1_555
C5 H3 1_555 1_555
H4 C5 1_555 1_555
C6 H5 1_555 1_555
H6 C6 1_555 1_555
C7 N5 1_555 1_555
C8 H7 1_555 1_555
C9 C8 1_555 1_555
H8 C9 1_555 1_555
C10 N7 1_555 1_555
C11 H9 1_555 1_555
H10 C11 1_555 1_555
C12 H11 1_555 1_555
H12 C12 1_555 1_555
C13 N9 1_555 1_555
C14 H13 1_555 1_555
C15 C14 1_555 1_555
H14 C15 1_555 1_555
C16 N11 1_555 1_555
C17 H15 1_555 1_555
H16 C17 1_555 1_555
C18 H17 1_555 1_555
H18 C18 1_555 1_555
C19 N13 1_555 1_555
C20 H19 1_555 1_555
C21 C20 1_555 1_555
H20 C21 1_555 1_555
C22 N15 1_555 1_555
C23 H21 1_555 1_555
H22 C23 1_555 1_555
C24 H23 1_555 1_555
H24 C24 1_555 1_555
C25 N17 1_555 1_555
C26 H25 1_555 1_555
C27 C26 1_555 1_555
H26 C27 1_555 1_555
C28 N19 1_555 1_555
C29 H27 1_555 1_555
H28 C29 1_555 1_555
C30 H29 1_555 1_555
H30 C30 1_555 1_555
N1 C2 1_555 1_555
N2 C1 1_555 1_555
N3 C2 1_555 1_555
N4 C3 1_555 1_555
N5 C5 1_555 1_555
N6 C7 1_555 1_555
N7 C6 1_555 1_555
N8 C9 1_555 1_555
N9 C11 1_555 1_555
N10 C13 1_555 1_555
N11 C12 1_555 1_555
N12 C15 1_555 1_555
N13 C17 1_555 1_555
N14 C19 1_555 1_555
N15 C18 1_555 1_555
N16 C21 1_555 1_555
N17 C23 1_555 1_555
N18 C25 1_555 1_555
N19 C24 1_555 1_555
N20 C27 1_555 1_555
O2 C1 1_555 1_555
O3 C7 1_555 1_555
O4 C13 1_555 1_555
O5 C19 1_555 1_555
O6 C25 1_555 1_555
O7 C4 1_555 1_555
O8 C10 1_555 1_555
O9 C16 1_555 1_555
O10 C22 1_555 1_555
O11 C28 1_555 1_555
C31 C32 1_555 1_555
C32 H31 1_555 1_555
C33 C32 1_555 1_555
H32 C33 1_555 1_555
C34 C33 1_555 1_555
C35 C34 1_555 1_555
H33 C35 1_555 1_555
C36 C31 1_555 1_555
H34 C36 1_555 1_555
C37 C38 1_555 1_555
C38 H35 1_555 1_555
C39 C38 1_555 1_555
H36 C39 1_555 1_555
C40 C39 1_555 1_555
C41 C40 1_555 1_555
H37 C41 1_555 1_555
C42 C37 1_555 1_555
H38 C42 1_555 1_555
C43 C44 1_555 1_555
C44 H39 1_555 1_555
C45 C44 1_555 1_555
H40 C45 1_555 1_555
C46 C45 1_555 1_555
C47 C46 1_555 1_555
H41 C47 1_555 1_555
C48 C43 1_555 1_555
H42 C48 1_555 1_555
N21 C31 1_555 1_555
N22 C37 1_555 1_555
N23 C43 1_555 1_555
O12 N21 1_555 1_555
O13 N21 1_555 1_555
O14 C34 1_555 1_555
H43 O14 1_555 1_555
O15 C40 1_555 1_555
H44 O15 1_555 1_555
O16 N22 1_555 1_555
O17 N22 1_555 1_555
O18 N23 1_555 1_555
O19 N23 1_555 1_555
O20 C46 1_555 1_555
H45 O20 1_555 1_555
C3 N2 1_555 1_555
C4 N4 1_555 1_555
C5 N2 1_555 1_555
C6 N4 1_555 1_555
C8 N5 1_555 1_555
C8 N7 1_555 1_555
C9 N6 1_555 1_555
C10 N8 1_555 1_555
C11 N6 1_555 1_555
C12 N8 1_555 1_555
C14 N9 1_555 1_555
C14 N11 1_555 1_555
C15 N10 1_555 1_555
C16 N12 1_555 1_555
C17 N10 1_555 1_555
C18 N12 1_555 1_555
C20 N13 1_555 1_555
C20 N15 1_555 1_555
C21 N14 1_555 1_555
C22 N16 1_555 1_555
C23 N14 1_555 1_555
C24 N16 1_555 1_555
C26 N17 1_555 1_555
C26 N19 1_555 1_555
C27 N18 1_555 1_555
C28 N20 1_555 1_555
C29 N1 1_555 1_555
C29 N18 1_555 1_555
C30 N3 1_555 1_555
C30 N20 1_555 1_555
C35 C36 1_555 1_555
C41 C42 1_555 1_555
C47 C48 1_555 1_555

#END
