
#######################################################################
#
#                 Cambridge Crystallographic Data Centre
#                                CCDC 
#
#######################################################################
#
# If this CIF has been generated from an entry in the Cambridge 
# Structural Database, then it will include bibliographic, chemical, 
# crystal, experimental, refinement or atomic coordinate data resulting 
# from the CCDC's data processing and validation procedures.
#
#######################################################################

data_PAPZEN
_chemical_formula_moiety         
'2(C6 H5 N1 O3),C30 H30 N20 O10,K1 1+,Cl1 1-,63.5(H2 O1)'
_chemical_name_systematic        
'potassium cucurbit[5]uril chloride bis(4-nitrophenol) hydrate'
_symmetry_cell_setting           orthorhombic
_symmetry_space_group_name_H-M   'P n m a'
_symmetry_Int_Tables_number      62
_space_group_name_Hall           '-P 2ac 2n'
loop_
_symmetry_equiv_pos_site_id
_symmetry_equiv_pos_as_xyz
1 x,y,z
2 1/2-x,-y,1/2+z
3 -x,1/2+y,-z
4 1/2+x,1/2-y,1/2-z
5 -x,-y,-z
6 1/2+x,y,1/2-z
7 x,1/2-y,z
8 1/2-x,1/2+y,1/2+z
_cell_length_a                   18.076(5)
_cell_length_b                   30.754(8)
_cell_length_c                   34.191(9)
_cell_angle_alpha                90
_cell_angle_beta                 90
_cell_angle_gamma                90
_cell_volume                     19007.1
_exptl_crystal_colour            colorless
_exptl_crystal_description       prism
_cell_formula_units_Z            8
loop_
_atom_site_label
_atom_site_type_symbol
_atom_site_fract_x
_atom_site_fract_y
_atom_site_fract_z
K2 K -0.02203(9) 0.7500 -0.08231(5)
Cl1 Cl 0.2251(3) 0.7500 0.10240(18)
Cl2 Cl 0.0685(3) 0.7500 -0.14725(17)
C1 C -0.0814(3) 0.6895(2) -0.1666(2)
C2 C -0.0686(2) 0.68851(16) -0.23712(14)
H1 H -0.1088 0.6818 -0.2554
C3 C -0.0347(3) 0.64583(18) -0.21867(16)
H2 H -0.0596 0.6195 -0.2280
C4 C 0.0535(3) 0.68640(15) -0.25569(14)
C5 C -0.0261(4) 0.6243(2) -0.1466(2)
H3 H -0.0358 0.5942 -0.1535
H4 H -0.0573 0.6319 -0.1246
C6 C 0.1005(4) 0.61719(19) -0.22603(19)
H5 H 0.0766 0.5893 -0.2223
H6 H 0.1324 0.6147 -0.2487
C7 C 0.0789(5) 0.6517(2) -0.10172(17)
C8 C 0.1199(4) 0.6094(2) -0.1551(2)
H7 H 0.1154 0.5777 -0.1549
C9 C 0.1899(4) 0.6258(2) -0.12784(19)
H8 H 0.2190 0.6016 -0.1172
C10 C 0.2105(5) 0.6478(2) -0.1931(3)
C11 C 0.1865(4) 0.67056(19) -0.06625(19)
H9 H 0.2289 0.6528 -0.0592
H10 H 0.1536 0.6712 -0.0439
C12 C 0.3049(4) 0.6685(2) -0.1417(2)
H11 H 0.3219 0.6505 -0.1202
H12 H 0.3411 0.6667 -0.1626
C13 C 0.1713(3) 0.7500 -0.06153(17)
C14 C 0.2844(3) 0.72552(18) -0.08826(13)
H13 H 0.3234 0.7143 -0.0711
C15 C 0.3042(4) 0.7500 -0.1524(2)
C16 C -0.1401(4) 0.7500 -0.2024(2)
H14 H -0.1720 0.7500 -0.1797
H15 H -0.1713 0.7500 -0.2255
C17 C -0.0131(6) 0.7500 -0.2803(3)
H16 H 0.0278 0.7500 -0.2986
H17 H -0.0587 0.7500 -0.2952
N1 N -0.0960(2) 0.71120(16) -0.20225(14)
N2 N -0.0416(3) 0.65121(17) -0.17810(14)
N3 N -0.0097(2) 0.70952(13) -0.25604(11)
N4 N 0.0419(2) 0.65015(14) -0.23494(13)
N5 N 0.0570(4) 0.63001(18) -0.13536(17)
N6 N 0.1496(3) 0.65032(16) -0.09731(14)
N7 N 0.1450(3) 0.62535(15) -0.19345(16)
N8 N 0.2319(3) 0.6525(2) -0.15583(16)
N9 N 0.2116(2) 0.71352(14) -0.07336(10)
N10 N 0.2979(2) 0.7124(2) -0.12899(13)
O1 O -0.1010(2) 0.69983(15) -0.13436(12)
O2 O 0.0324(3) 0.66641(16) -0.07965(13)
O3 O 0.1147(2) 0.7500 -0.04571(12)
O4 O 0.11281(19) 0.69516(11) -0.27316(10)
O5 O 0.2430(3) 0.66278(17) -0.22189(15)
O6 O 0.3196(3) 0.7500 -0.18611(17)
C1F C -0.0814(3) 0.8105(2) -0.1666(2)
C2F C -0.0686(2) 0.81149(16) -0.23712(14)
H1F H -0.1088 0.8182 -0.2554
C3F C -0.0347(3) 0.85417(18) -0.21867(16)
H2F H -0.0596 0.8805 -0.2280
C4F C 0.0535(3) 0.81360(15) -0.25569(14)
C5F C -0.0261(4) 0.8757(2) -0.1466(2)
H3F H -0.0358 0.9058 -0.1535
H4F H -0.0573 0.8681 -0.1246
C6F C 0.1005(4) 0.88281(19) -0.22603(19)
H5F H 0.0766 0.9107 -0.2223
H6F H 0.1324 0.8853 -0.2487
C7F C 0.0789(5) 0.8483(2) -0.10172(17)
C8F C 0.1199(4) 0.8906(2) -0.1551(2)
H7F H 0.1154 0.9223 -0.1549
C9F C 0.1899(4) 0.8742(2) -0.12784(19)
H8F H 0.2190 0.8984 -0.1172
C10F C 0.2105(5) 0.8522(2) -0.1931(3)
C11F C 0.1865(4) 0.82944(19) -0.06625(19)
H9F H 0.2289 0.8472 -0.0592
H10F H 0.1536 0.8288 -0.0439
C12F C 0.3049(4) 0.8315(2) -0.1417(2)
H11F H 0.3219 0.8495 -0.1202
H12F H 0.3411 0.8333 -0.1626
C14F C 0.2844(3) 0.77448(18) -0.08826(13)
H13F H 0.3234 0.7857 -0.0711
N1F N -0.0960(2) 0.78880(16) -0.20225(14)
N2F N -0.0416(3) 0.84879(17) -0.17810(14)
N3F N -0.0097(2) 0.79048(13) -0.25604(11)
N4F N 0.0419(2) 0.84985(14) -0.23494(13)
N5F N 0.0570(4) 0.86999(18) -0.13536(17)
N6F N 0.1496(3) 0.84968(16) -0.09731(14)
N7F N 0.1450(3) 0.87465(15) -0.19345(16)
N8F N 0.2319(3) 0.8475(2) -0.15583(16)
N9F N 0.2116(2) 0.78648(14) -0.07336(10)
N10F N 0.2979(2) 0.7876(2) -0.12899(13)
O1F O -0.1010(2) 0.80017(15) -0.13436(12)
O2F O 0.0324(3) 0.83359(16) -0.07965(13)
O4F O 0.11281(19) 0.80484(11) -0.27316(10)
O5F O 0.2430(3) 0.83722(17) -0.22189(15)
C18 C 0.3310(4) 0.7500 0.02056(19)
C19 C 0.4407(2) 0.72498(15) 0.04601(14)
H18 H 0.4807 0.7134 0.0296
C20 C 0.4608(3) 0.7500 0.1115(2)
C21 C 0.3424(3) 0.67052(16) 0.02243(13)
H19 H 0.3845 0.6527 0.0151
H20 H 0.3085 0.6708 0.0004
C22 C 0.4590(3) 0.67030(18) 0.10105(16)
H21 H 0.4916 0.6699 0.1236
H22 H 0.4821 0.6531 0.0806
C23 C 0.2297(3) 0.64967(14) 0.05991(15)
C24 C 0.3422(3) 0.62594(16) 0.08554(15)
H23 H 0.3695 0.6018 0.0735
C25 C 0.2812(3) 0.60791(16) 0.11242(16)
H24 H 0.2809 0.5761 0.1136
C26 C 0.3638(3) 0.64869(16) 0.15056(15)
C27 C 0.1416(3) 0.62236(17) 0.10665(13)
H25 H 0.1344 0.5934 0.1171
H26 H 0.1080 0.6259 0.0848
C28 C 0.2579(3) 0.61864(16) 0.18671(16)
H27 H 0.2926 0.6184 0.2084
H28 H 0.2364 0.5898 0.1846
C29 C 0.0778(2) 0.68925(14) 0.12671(13)
C30 C 0.1280(3) 0.64883(16) 0.17925(13)
H29 H 0.1030 0.6221 0.1876
C31 C 0.0860(3) 0.6888(2) 0.19383(14)
H30 H 0.0449 0.6812 0.2112
C32 C 0.2107(3) 0.68793(18) 0.21675(15)
C33 C 0.0159(4) 0.7500 0.1600(2)
H31 H -0.0161 0.7500 0.1827
H32 H -0.0150 0.7500 0.1368
C34 C 0.1387(4) 0.7500 0.2367(2)
H33 H 0.1726 0.7500 0.2587
H34 H 0.0888 0.7500 0.2471
N11 N 0.3687(2) 0.71540(13) 0.02922(11)
N12 N 0.3046(3) 0.64971(14) 0.05638(12)
N13 N 0.4526(2) 0.71417(15) 0.08762(13)
N14 N 0.3906(2) 0.64985(12) 0.11172(12)
N15 N 0.2142(2) 0.62605(13) 0.09311(12)
N16 N 0.1228(2) 0.65395(13) 0.13657(11)
N17 N 0.2970(2) 0.62861(13) 0.15116(10)
N18 N 0.1982(2) 0.65084(13) 0.19487(11)
N19 N 0.0623(2) 0.71084(13) 0.16029(11)
N20 N 0.1492(2) 0.71231(15) 0.21547(12)
O7 O 0.2703(3) 0.7500 0.00335(12)
O8 O 0.18696(19) 0.66553(11) 0.03751(9)
O9 O 0.05835(17) 0.69827(10) 0.09498(10)
O10 O 0.4793(3) 0.7500 0.14461(15)
O11 O 0.3925(2) 0.66368(12) 0.17870(11)
O12 O 0.2687(2) 0.69604(12) 0.23414(10)
C19F C 0.4407(2) 0.77502(15) 0.04601(14)
H18F H 0.4807 0.7866 0.0296
C21F C 0.3424(3) 0.82948(16) 0.02243(13)
H19F H 0.3845 0.8473 0.0151
H20F H 0.3085 0.8292 0.0004
C22F C 0.4590(3) 0.82970(18) 0.10105(16)
H21F H 0.4916 0.8301 0.1236
H22F H 0.4821 0.8469 0.0806
C23F C 0.2297(3) 0.85033(14) 0.05991(15)
C24F C 0.3422(3) 0.87406(16) 0.08554(15)
H23F H 0.3695 0.8982 0.0735
C25F C 0.2812(3) 0.89209(16) 0.11242(16)
H24F H 0.2809 0.9239 0.1136
C26F C 0.3638(3) 0.85131(16) 0.15056(15)
C27F C 0.1416(3) 0.87764(17) 0.10665(13)
H25F H 0.1344 0.9066 0.1171
H26F H 0.1080 0.8741 0.0848
C28F C 0.2579(3) 0.88136(16) 0.18671(16)
H27F H 0.2926 0.8816 0.2084
H28F H 0.2364 0.9102 0.1846
C29F C 0.0778(2) 0.81075(14) 0.12671(13)
C30F C 0.1280(3) 0.85117(16) 0.17925(13)
H29F H 0.1030 0.8779 0.1876
C31F C 0.0860(3) 0.8112(2) 0.19383(14)
H30F H 0.0449 0.8188 0.2112
C32F C 0.2107(3) 0.81207(18) 0.21675(15)
N11F N 0.3687(2) 0.78460(13) 0.02922(11)
N12F N 0.3046(3) 0.85029(14) 0.05638(12)
N13F N 0.4526(2) 0.78583(15) 0.08762(13)
N14F N 0.3906(2) 0.85015(12) 0.11172(12)
N15F N 0.2142(2) 0.87395(13) 0.09311(12)
N16F N 0.1228(2) 0.84605(13) 0.13657(11)
N17F N 0.2970(2) 0.87139(13) 0.15116(10)
N18F N 0.1982(2) 0.84916(13) 0.19487(11)
N19F N 0.0623(2) 0.78916(13) 0.16029(11)
N20F N 0.1492(2) 0.78769(15) 0.21547(12)
O8F O 0.18696(19) 0.83447(11) 0.03751(9)
O9F O 0.05835(17) 0.80173(10) 0.09498(10)
O11F O 0.3925(2) 0.83632(12) 0.17870(11)
O12F O 0.2687(2) 0.80396(12) 0.23414(10)
C35 C 0.1924(3) 0.43101(17) 0.13833(18)
H35 H 0.1902 0.4376 0.1118
C36 C 0.2130(3) 0.3911(2) 0.1510(2)
H36 H 0.2199 0.3688 0.1330
C37 C 0.2246(3) 0.38298(18) 0.19221(17)
C38 C 0.2083(3) 0.41305(16) 0.21878(17)
H37 H 0.2142 0.4071 0.2453
C39 C 0.1822(3) 0.45372(17) 0.20653(18)
H38 H 0.1701 0.4752 0.2246
C40 C 0.1749(3) 0.46109(17) 0.16610(16)
N21 N 0.1539(3) 0.5063(2) 0.1561(2)
O13 O 0.24772(17) 0.34261(13) 0.20062(11)
H39 H 0.2520 0.3400 0.2244
O14 O 0.1410(4) 0.53083(18) 0.17778(19)
O15 O 0.1543(4) 0.51333(15) 0.11983(18)
C41 C 0.3915(3) 0.44458(18) 0.17412(17)
H40 H 0.3428 0.4454 0.1654
C42 C 0.4301(3) 0.40682(16) 0.17271(17)
H41 H 0.4083 0.3815 0.1633
C43 C 0.5055(3) 0.40682(19) 0.18600(14)
C44 C 0.5384(3) 0.4444(2) 0.2007(2)
H42 H 0.5875 0.4442 0.2089
C45 C 0.4966(3) 0.4817(2) 0.2029(2)
H43 H 0.5164 0.5068 0.2139
C46 C 0.4241(3) 0.48170(17) 0.18845(18)
N22 N 0.3821(3) 0.52254(19) 0.18764(17)
O16 O 0.5485(2) 0.37168(14) 0.18429(14)
H44 H 0.5281 0.3529 0.1711
O17 O 0.4090(3) 0.55616(15) 0.19884(17)
O18 O 0.3187(3) 0.52224(13) 0.17395(17)
K1 K 0.12892(10) 0.7500 0.03734(5)
loop_
_geom_bond_atom_site_label_1
_geom_bond_atom_site_label_2
_geom_bond_site_symmetry_1
_geom_bond_site_symmetry_2
C1 N1 1_555 1_555
C2 H1 1_555 1_555
C3 C2 1_555 1_555
H2 C3 1_555 1_555
C4 N3 1_555 1_555
C5 H3 1_555 1_555
H4 C5 1_555 1_555
C6 H5 1_555 1_555
H6 C6 1_555 1_555
C7 N5 1_555 1_555
C8 H7 1_555 1_555
C9 C8 1_555 1_555
H8 C9 1_555 1_555
C10 N7 1_555 1_555
C11 H9 1_555 1_555
H10 C11 1_555 1_555
C12 H11 1_555 1_555
H12 C12 1_555 1_555
C13 N9 1_555 1_555
C14 H13 1_555 1_555
C15 N10 1_555 1_555
C16 H14 1_555 1_555
H15 C16 1_555 1_555
C17 H16 1_555 1_555
H17 C17 1_555 1_555
C18 N11 1_555 1_555
C19 H18 1_555 1_555
C20 N13 1_555 1_555
C21 H19 1_555 1_555
H20 C21 1_555 1_555
C22 H21 1_555 1_555
H22 C22 1_555 1_555
C23 N12 1_555 1_555
C24 H23 1_555 1_555
C25 C24 1_555 1_555
H24 C25 1_555 1_555
C26 N14 1_555 1_555
C27 H25 1_555 1_555
H26 C27 1_555 1_555
C28 H27 1_555 1_555
H28 C28 1_555 1_555
C29 N16 1_555 1_555
C30 H29 1_555 1_555
C31 C30 1_555 1_555
H30 C31 1_555 1_555
C32 N18 1_555 1_555
C33 H31 1_555 1_555
H32 C33 1_555 1_555
C34 H33 1_555 1_555
H34 C34 1_555 1_555
N1 C2 1_555 1_555
N2 C1 1_555 1_555
N3 C2 1_555 1_555
N4 C3 1_555 1_555
N5 C5 1_555 1_555
N6 C7 1_555 1_555
N7 C6 1_555 1_555
N8 C9 1_555 1_555
N9 C11 1_555 1_555
N10 C12 1_555 1_555
N11 C19 1_555 1_555
N12 C21 1_555 1_555
N13 C19 1_555 1_555
N14 C22 1_555 1_555
N15 C23 1_555 1_555
N16 C27 1_555 1_555
N17 C25 1_555 1_555
N18 C28 1_555 1_555
N19 C29 1_555 1_555
N20 C31 1_555 1_555
O1 C1 1_555 1_555
O2 C7 1_555 1_555
O3 C13 1_555 1_555
O4 C4 1_555 1_555
O5 C10 1_555 1_555
O6 C15 1_555 1_555
O7 C18 1_555 1_555
O8 C23 1_555 1_555
O9 C29 1_555 1_555
O10 C20 1_555 1_555
O11 C26 1_555 1_555
O12 C32 1_555 1_555
C35 H35 1_555 1_555
C36 C35 1_555 1_555
H36 C36 1_555 1_555
C37 C36 1_555 1_555
C38 C37 1_555 1_555
H37 C38 1_555 1_555
C39 C38 1_555 1_555
H38 C39 1_555 1_555
C40 C35 1_555 1_555
N21 C40 1_555 1_555
O13 C37 1_555 1_555
H39 O13 1_555 1_555
O14 N21 1_555 1_555
O15 N21 1_555 1_555
C41 H40 1_555 1_555
C42 C41 1_555 1_555
H41 C42 1_555 1_555
C43 C42 1_555 1_555
C44 C43 1_555 1_555
H42 C44 1_555 1_555
C45 C44 1_555 1_555
H43 C45 1_555 1_555
C46 C41 1_555 1_555
N22 C46 1_555 1_555
O16 C43 1_555 1_555
H44 O16 1_555 1_555
O17 N22 1_555 1_555
O18 N22 1_555 1_555
C1F N1F 1_555 1_555
C2F H1F 1_555 1_555
C3F C2F 1_555 1_555
H2F C3F 1_555 1_555
C4F N3F 1_555 1_555
C5F H3F 1_555 1_555
H4F C5F 1_555 1_555
C6F H5F 1_555 1_555
H6F C6F 1_555 1_555
C7F N5F 1_555 1_555
C8F H7F 1_555 1_555
C9F C8F 1_555 1_555
H8F C9F 1_555 1_555
C10F N7F 1_555 1_555
C11F H9F 1_555 1_555
H10F C11F 1_555 1_555
C12F H11F 1_555 1_555
H12F C12F 1_555 1_555
C14F C14 1_555 1_555
H13F C14F 1_555 1_555
C19F C19 1_555 1_555
H18F C19F 1_555 1_555
C21F H19F 1_555 1_555
H20F C21F 1_555 1_555
C22F H21F 1_555 1_555
H22F C22F 1_555 1_555
C23F N12F 1_555 1_555
C24F H23F 1_555 1_555
C25F C24F 1_555 1_555
H24F C25F 1_555 1_555
C26F N14F 1_555 1_555
C27F H25F 1_555 1_555
H26F C27F 1_555 1_555
C28F H27F 1_555 1_555
H28F C28F 1_555 1_555
C29F N16F 1_555 1_555
C30F H29F 1_555 1_555
C31F C30F 1_555 1_555
H30F C31F 1_555 1_555
C32F N18F 1_555 1_555
N1F C16 1_555 1_555
N2F C1F 1_555 1_555
N3F C17 1_555 1_555
N4F C3F 1_555 1_555
N5F C5F 1_555 1_555
N6F C7F 1_555 1_555
N7F C6F 1_555 1_555
N8F C9F 1_555 1_555
N9F C13 1_555 1_555
N10F C15 1_555 1_555
N11F C18 1_555 1_555
N12F C21F 1_555 1_555
N13F C20 1_555 1_555
N14F C22F 1_555 1_555
N15F C23F 1_555 1_555
N16F C27F 1_555 1_555
N17F C25F 1_555 1_555
N18F C28F 1_555 1_555
N19F C33 1_555 1_555
N20F C34 1_555 1_555
O1F C1F 1_555 1_555
O2F C7F 1_555 1_555
O4F C4F 1_555 1_555
O5F C10F 1_555 1_555
O8F C23F 1_555 1_555
O9F C29F 1_555 1_555
O11F C26F 1_555 1_555
O12F C32F 1_555 1_555
C3 N2 1_555 1_555
C4 N4 1_555 1_555
C5 N2 1_555 1_555
C6 N4 1_555 1_555
C8 N5 1_555 1_555
C8 N7 1_555 1_555
C9 N6 1_555 1_555
C10 N8 1_555 1_555
C11 N6 1_555 1_555
C12 N8 1_555 1_555
C14 N9 1_555 1_555
C14 N10 1_555 1_555
C16 N1 1_555 1_555
C17 N3 1_555 1_555
C21 N11 1_555 1_555
C22 N13 1_555 1_555
C24 N12 1_555 1_555
C24 N14 1_555 1_555
C25 N15 1_555 1_555
C26 N17 1_555 1_555
C27 N15 1_555 1_555
C28 N17 1_555 1_555
C30 N16 1_555 1_555
C30 N18 1_555 1_555
C31 N19 1_555 1_555
C32 N20 1_555 1_555
C33 N19 1_555 1_555
C34 N20 1_555 1_555
C39 C40 1_555 1_555
C45 C46 1_555 1_555
C2F N1F 1_555 1_555
C2F N3F 1_555 1_555
C3F N2F 1_555 1_555
C4F N4F 1_555 1_555
C5F N2F 1_555 1_555
C6F N4F 1_555 1_555
C8F N5F 1_555 1_555
C8F N7F 1_555 1_555
C9F N6F 1_555 1_555
C10F N8F 1_555 1_555
C11F N6F 1_555 1_555
C11F N9F 1_555 1_555
C12F N8F 1_555 1_555
C12F N10F 1_555 1_555
C14F N9F 1_555 1_555
C14F N10F 1_555 1_555
C19F N11F 1_555 1_555
C19F N13F 1_555 1_555
C21F N11F 1_555 1_555
C22F N13F 1_555 1_555
C24F N12F 1_555 1_555
C24F N14F 1_555 1_555
C25F N15F 1_555 1_555
C26F N17F 1_555 1_555
C27F N15F 1_555 1_555
C28F N17F 1_555 1_555
C29F N19F 1_555 1_555
C30F N16F 1_555 1_555
C30F N18F 1_555 1_555
C31F N19F 1_555 1_555
C31F N20F 1_555 1_555
C32F N20F 1_555 1_555

#END
