
#######################################################################
#
#                 Cambridge Crystallographic Data Centre
#                                CCDC 
#
#######################################################################
#
# If this CIF has been generated from an entry in the Cambridge 
# Structural Database, then it will include bibliographic, chemical, 
# crystal, experimental, refinement or atomic coordinate data resulting 
# from the CCDC's data processing and validation procedures.
#
#######################################################################

data_PAPZEM
_chemical_formula_moiety         'C56 H42 Si2'
_chemical_name_systematic        
1,1'-Bi(1-hydro-2,3,4,5-tetraphenyl-1-silacyclopenta-2,4-diene)
_symmetry_cell_setting           triclinic
_symmetry_space_group_name_H-M   'P -1'
_symmetry_Int_Tables_number      2
_space_group_name_Hall           '-P 1'
loop_
_symmetry_equiv_pos_site_id
_symmetry_equiv_pos_as_xyz
1 x,y,z
2 -x,-y,-z
_cell_length_a                   10.0229(17)
_cell_length_b                   12.806(2)
_cell_length_c                   17.695(3)
_cell_angle_alpha                89.440(3)
_cell_angle_beta                 88.558(3)
_cell_angle_gamma                71.737(3)
_cell_volume                     2156.12
_exptl_crystal_colour            green
_exptl_crystal_description       BLOCKS
_cell_formula_units_Z            2
loop_
_atom_site_label
_atom_site_type_symbol
_atom_site_fract_x
_atom_site_fract_y
_atom_site_fract_z
Si1 Si 0.86238(15) 0.51547(10) 0.17758(8)
Si2 Si 0.85300(14) 0.56776(10) 0.30578(8)
C1 C 1.0379(5) 0.4651(4) 0.1282(3)
C2 C 1.0603(5) 0.3576(4) 0.1100(3)
C3 C 0.9474(5) 0.3094(4) 0.1345(3)
C4 C 0.8319(5) 0.3795(4) 0.1696(3)
C5 C 1.1304(5) 0.5327(4) 0.1102(3)
C6 C 1.1341(7) 0.6143(4) 0.1609(3)
H1 H 1.0758 0.6268 0.2045
C7 C 1.2227(8) 0.6774(5) 0.1479(4)
H2 H 1.2250 0.7312 0.1832
C8 C 1.3063(8) 0.6619(5) 0.0844(4)
H3 H 1.3672 0.7039 0.0762
C9 C 1.3009(7) 0.5844(5) 0.0325(3)
H4 H 1.3570 0.5745 -0.0118
C10 C 1.2135(6) 0.5207(4) 0.0449(3)
H5 H 1.2103 0.4686 0.0085
C11 C 1.1877(5) 0.2871(4) 0.0693(3)
C12 C 1.1786(7) 0.2450(4) -0.0014(3)
H6 H 1.0904 0.2591 -0.0234
C13 C 1.2970(9) 0.1829(5) -0.0394(4)
H7 H 1.2899 0.1554 -0.0877
C14 C 1.4275(8) 0.1605(6) -0.0069(5)
H8 H 1.5087 0.1179 -0.0331
C15 C 1.4382(7) 0.2003(6) 0.0634(5)
H9 H 1.5265 0.1843 0.0858
C16 C 1.3191(6) 0.2639(5) 0.1012(3)
H10 H 1.3268 0.2919 0.1492
C17 C 0.9643(5) 0.1913(4) 0.1210(3)
C18 C 0.8605(6) 0.1614(4) 0.0849(3)
H11 H 0.7830 0.2164 0.0653
C19 C 0.8692(6) 0.0517(5) 0.0772(3)
H12 H 0.7968 0.0326 0.0539
C20 C 0.9857(7) -0.0299(4) 0.1043(3)
H13 H 0.9939 -0.1045 0.0983
C21 C 1.0880(6) -0.0005(4) 0.1396(4)
H14 H 1.1657 -0.0555 0.1588
C22 C 1.0793(6) 0.1085(4) 0.1476(3)
H15 H 1.1519 0.1268 0.1712
C23 C 0.7133(5) 0.3524(4) 0.2061(3)
C24 C 0.7319(6) 0.2590(5) 0.2505(3)
H16 H 0.8221 0.2080 0.2551
C25 C 0.6180(7) 0.2405(6) 0.2879(3)
H17 H 0.6316 0.1775 0.3182
C26 C 0.4858(7) 0.3138(7) 0.2810(4)
H18 H 0.4090 0.3008 0.3065
C27 C 0.4654(6) 0.4058(6) 0.2371(4)
H19 H 0.3744 0.4552 0.2316
C28 C 0.5795(6) 0.4262(5) 0.2005(3)
H20 H 0.5654 0.4907 0.1718
C29 C 1.0206(5) 0.5328(4) 0.3583(3)
C30 C 1.0405(5) 0.6291(4) 0.3779(3)
C31 C 0.9305(5) 0.7320(4) 0.3533(3)
C32 C 0.8208(5) 0.7191(4) 0.3156(3)
C33 C 1.1072(5) 0.4200(4) 0.3782(3)
C34 C 1.1073(6) 0.3337(4) 0.3303(3)
H21 H 1.0545 0.3493 0.2861
C35 C 1.1833(7) 0.2261(4) 0.3465(3)
H22 H 1.1829 0.1698 0.3129
C36 C 1.2595(6) 0.2006(4) 0.4115(3)
H23 H 1.3110 0.1273 0.4225
C37 C 1.2591(6) 0.2851(5) 0.4607(3)
H24 H 1.3112 0.2688 0.5051
C38 C 1.1825(6) 0.3925(4) 0.4444(3)
H25 H 1.1813 0.4483 0.4787
C39 C 1.1622(5) 0.6375(4) 0.4215(3)
C40 C 1.2970(6) 0.6047(5) 0.3906(3)
H26 H 1.3125 0.5782 0.3408
C41 C 1.4098(7) 0.6107(6) 0.4327(4)
H27 H 1.5010 0.5897 0.4112
C42 C 1.3867(8) 0.6477(6) 0.5062(4)
H28 H 1.4625 0.6514 0.5351
C43 C 1.2553(7) 0.6787(5) 0.5370(4)
H29 H 1.2409 0.7023 0.5875
C44 C 1.1425(6) 0.6760(4) 0.4952(3)
H30 H 1.0513 0.7005 0.5167
C45 C 0.9471(5) 0.8409(4) 0.3709(3)
C46 C 1.0641(6) 0.8679(4) 0.3462(3)
H31 H 1.1367 0.8157 0.3195
C47 C 1.0757(7) 0.9709(5) 0.3602(4)
H32 H 1.1548 0.9886 0.3419
C48 C 0.9724(7) 1.0472(5) 0.4007(4)
H33 H 0.9807 1.1169 0.4107
C49 C 0.8566(7) 1.0204(4) 0.4264(3)
H34 H 0.7857 1.0721 0.4544
C50 C 0.8430(6) 0.9188(4) 0.4117(3)
H35 H 0.7627 0.9022 0.4293
C51 C 0.7017(5) 0.8059(4) 0.2824(3)
C52 C 0.5704(7) 0.7924(6) 0.2816(5)
H36 H 0.5577 0.7283 0.3024
C53 C 0.4574(7) 0.8713(7) 0.2509(5)
H37 H 0.3686 0.8610 0.2527
C54 C 0.4721(8) 0.9635(6) 0.2181(5)
H38 H 0.3947 1.0167 0.1969
C55 C 0.6037(8) 0.9770(5) 0.2165(3)
H39 H 0.6164 1.0399 0.1936
C56 C 0.7154(7) 0.8999(4) 0.2480(3)
H40 H 0.8039 0.9108 0.2462
H41 H 0.748(4) 0.525(3) 0.345(2)
H42 H 0.757(5) 0.606(4) 0.139(2)
loop_
_geom_bond_atom_site_label_1
_geom_bond_atom_site_label_2
_geom_bond_site_symmetry_1
_geom_bond_site_symmetry_2
Si1 Si2 1_555 1_555
Si2 C29 1_555 1_555
C1 Si1 1_555 1_555
C2 C1 1_555 1_555
C3 C2 1_555 1_555
C4 Si1 1_555 1_555
C5 C1 1_555 1_555
C6 C5 1_555 1_555
H1 C6 1_555 1_555
C7 C6 1_555 1_555
H2 C7 1_555 1_555
C8 C7 1_555 1_555
H3 C8 1_555 1_555
C9 C8 1_555 1_555
H4 C9 1_555 1_555
C10 C5 1_555 1_555
H5 C10 1_555 1_555
C11 C2 1_555 1_555
C12 C11 1_555 1_555
H6 C12 1_555 1_555
C13 C12 1_555 1_555
H7 C13 1_555 1_555
C14 C13 1_555 1_555
H8 C14 1_555 1_555
C15 C14 1_555 1_555
H9 C15 1_555 1_555
C16 C11 1_555 1_555
H10 C16 1_555 1_555
C17 C3 1_555 1_555
C18 C17 1_555 1_555
H11 C18 1_555 1_555
C19 C18 1_555 1_555
H12 C19 1_555 1_555
C20 C19 1_555 1_555
H13 C20 1_555 1_555
C21 C20 1_555 1_555
H14 C21 1_555 1_555
C22 C17 1_555 1_555
H15 C22 1_555 1_555
C23 C4 1_555 1_555
C24 C23 1_555 1_555
H16 C24 1_555 1_555
C25 C24 1_555 1_555
H17 C25 1_555 1_555
C26 C25 1_555 1_555
H18 C26 1_555 1_555
C27 C26 1_555 1_555
H19 C27 1_555 1_555
C28 C23 1_555 1_555
H20 C28 1_555 1_555
C29 C30 1_555 1_555
C30 C31 1_555 1_555
C31 C32 1_555 1_555
C32 Si2 1_555 1_555
C33 C29 1_555 1_555
C34 C33 1_555 1_555
H21 C34 1_555 1_555
C35 C34 1_555 1_555
H22 C35 1_555 1_555
C36 C35 1_555 1_555
H23 C36 1_555 1_555
C37 C36 1_555 1_555
H24 C37 1_555 1_555
C38 C33 1_555 1_555
H25 C38 1_555 1_555
C39 C30 1_555 1_555
C40 C39 1_555 1_555
H26 C40 1_555 1_555
C41 C40 1_555 1_555
H27 C41 1_555 1_555
C42 C41 1_555 1_555
H28 C42 1_555 1_555
C43 C42 1_555 1_555
H29 C43 1_555 1_555
C44 C39 1_555 1_555
H30 C44 1_555 1_555
C45 C31 1_555 1_555
C46 C45 1_555 1_555
H31 C46 1_555 1_555
C47 C46 1_555 1_555
H32 C47 1_555 1_555
C48 C47 1_555 1_555
H33 C48 1_555 1_555
C49 C48 1_555 1_555
H34 C49 1_555 1_555
C50 C45 1_555 1_555
H35 C50 1_555 1_555
C51 C32 1_555 1_555
C52 C51 1_555 1_555
H36 C52 1_555 1_555
C53 C52 1_555 1_555
H37 C53 1_555 1_555
C54 C53 1_555 1_555
H38 C54 1_555 1_555
C55 C54 1_555 1_555
H39 C55 1_555 1_555
C56 C51 1_555 1_555
H40 C56 1_555 1_555
H41 Si2 1_555 1_555
H42 Si1 1_555 1_555
C3 C4 1_555 1_555
C9 C10 1_555 1_555
C15 C16 1_555 1_555
C21 C22 1_555 1_555
C27 C28 1_555 1_555
C37 C38 1_555 1_555
C43 C44 1_555 1_555
C49 C50 1_555 1_555
C55 C56 1_555 1_555

#END
