
#######################################################################
#
#                 Cambridge Crystallographic Data Centre
#                                CCDC 
#
#######################################################################
#
# If this CIF has been generated from an entry in the Cambridge 
# Structural Database, then it will include bibliographic, chemical, 
# crystal, experimental, refinement or atomic coordinate data resulting 
# from the CCDC's data processing and validation procedures.
#
#######################################################################

data_PAPZOX
_chemical_formula_moiety         
'8(C6 H5 N1 O3),C30 H30 N20 O10,2(Rb1 1+),2(Cl1 1-),4(H2 O1)'
_chemical_name_systematic        
'di-rubidium cucurbit[5]uril dichloride octakis(4-nitrophenol) tetrahydrate'
_symmetry_cell_setting           triclinic
_symmetry_space_group_name_H-M   'P -1'
_symmetry_Int_Tables_number      2
_space_group_name_Hall           '-P 1'
loop_
_symmetry_equiv_pos_site_id
_symmetry_equiv_pos_as_xyz
1 x,y,z
2 -x,-y,-z
_cell_length_a                   10.3714(8)
_cell_length_b                   18.4416(15)
_cell_length_c                   24.7943(19)
_cell_angle_alpha                81.556(3)
_cell_angle_beta                 78.978(3)
_cell_angle_gamma                81.251(3)
_cell_volume                     4566.63
_exptl_crystal_colour            colorless
_exptl_crystal_description       prism
_cell_formula_units_Z            2
loop_
_atom_site_label
_atom_site_type_symbol
_atom_site_fract_x
_atom_site_fract_y
_atom_site_fract_z
O1 O -0.2971(3) 0.54759(18) 0.35377(15)
O2 O 1.2096(3) -0.1294(2) 0.69863(14)
H1 H 1.1631 -0.1516 0.6835
H2 H 1.2725 -0.1554 0.7112
O3 O 0.7536(3) 0.41248(19) 0.07550(14)
O4 O 0.8330(4) 0.4031(2) 0.50402(14)
Rb1 Rb 0.66193(4) 0.33441(2) 0.211985(18)
Rb2 Rb -0.15116(4) 0.38510(2) 0.322259(18)
Cl1 Cl 0.50867(14) 0.39733(8) 0.54394(6)
Cl2 Cl 0.2720(13) 0.3583(5) 0.2639(4)
C1 C 0.4169(4) 0.2911(2) 0.12971(15)
C2 C 0.3696(4) 0.4152(2) 0.07957(15)
H3 H 0.4657 0.4092 0.0670
H4 H 0.3275 0.4308 0.0468
C3 C 0.4208(4) 0.4887(2) 0.14587(15)
C4 C 0.4241(4) 0.5735(2) 0.21388(16)
H5 H 0.5201 0.5629 0.2023
H6 H 0.4011 0.6274 0.2103
C5 C 0.4720(4) 0.4909(2) 0.29663(16)
C6 C 0.4812(4) 0.4283(2) 0.39120(16)
H7 H 0.5773 0.4214 0.3787
H8 H 0.4639 0.4471 0.4272
C7 C 0.4968(4) 0.3006(2) 0.36952(15)
C8 C 0.4749(4) 0.1697(2) 0.36825(16)
H9 H 0.4574 0.1315 0.3997
H10 H 0.5711 0.1661 0.3562
C9 C 0.4673(4) 0.1719(2) 0.26882(16)
C10 C 0.4132(4) 0.1638(2) 0.17719(15)
H11 H 0.5095 0.1615 0.1663
H12 H 0.3863 0.1210 0.1651
C11 C 0.2685(4) 0.1244(2) 0.27027(15)
H13 H 0.2718 0.0729 0.2626
C12 C 0.2886(4) 0.1271(2) 0.33053(15)
H14 H 0.2904 0.0775 0.3523
C13 C 0.3198(4) 0.2549(2) 0.43225(15)
H15 H 0.3352 0.2217 0.4662
C14 C 0.3227(4) 0.3363(2) 0.43957(15)
H16 H 0.3371 0.3412 0.4771
C15 C 0.2994(4) 0.5317(2) 0.36589(16)
H17 H 0.3080 0.5639 0.3933
C16 C 0.2803(4) 0.5772(2) 0.30964(15)
H18 H 0.2850 0.6304 0.3099
C17 C 0.2268(4) 0.5707(2) 0.16487(16)
H19 H 0.2211 0.6231 0.1484
C18 C 0.2089(4) 0.5191(2) 0.12268(16)
H20 H 0.1904 0.5479 0.0874
C19 C 0.2042(4) 0.3188(2) 0.10458(15)
H21 H 0.1898 0.3191 0.0662
C20 C 0.2195(4) 0.2393(2) 0.13485(15)
H22 H 0.2115 0.2023 0.1109
C21 C 0.0363(4) 0.3093(2) 0.18186(15)
C22 C 0.0366(4) 0.4319(2) 0.12762(16)
H23 H 0.0468 0.4464 0.0875
H24 H -0.0585 0.4374 0.1426
C23 C 0.0422(4) 0.5071(2) 0.20097(16)
C24 C 0.0827(4) 0.5982(2) 0.25801(16)
H25 H 0.1048 0.6487 0.2473
H26 H -0.0132 0.6013 0.2707
C25 C 0.0757(4) 0.1785(2) 0.21963(15)
H27 H 0.0982 0.1346 0.2000
H28 H -0.0205 0.1854 0.2317
C26 C 0.1380(4) 0.1900(2) 0.40954(15)
H29 H 0.0413 0.1966 0.4199
H30 H 0.1725 0.1463 0.4326
C27 C 0.1139(4) 0.3223(2) 0.42104(15)
C28 C 0.1456(4) 0.4487(2) 0.43386(15)
H31 H 0.1840 0.4646 0.4626
H32 H 0.0491 0.4548 0.4453
C29 C 0.0911(4) 0.5180(2) 0.34649(16)
C30 C 0.0834(4) 0.1926(2) 0.31660(15)
N1 N 0.3513(3) 0.23042(17) 0.14923(13)
N2 N 0.3304(3) 0.34406(18) 0.10532(13)
N3 N 0.3358(3) 0.47225(18) 0.11502(13)
N4 N 0.3576(3) 0.54327(18) 0.17689(13)
N5 N 0.3893(3) 0.54400(18) 0.27119(13)
N6 N 0.4205(3) 0.48221(18) 0.35197(12)
N7 N 0.4320(3) 0.35773(17) 0.39766(13)
N8 N 0.4274(3) 0.24110(17) 0.38646(12)
N9 N 0.4145(3) 0.15491(18) 0.32311(12)
N10 N 0.3796(3) 0.15909(18) 0.23706(13)
N11 N 0.1729(3) 0.17704(17) 0.35188(12)
N12 N 0.1391(3) 0.16543(17) 0.26811(12)
N13 N 0.1131(3) 0.24183(18) 0.18179(12)
N14 N 0.0897(3) 0.35497(17) 0.13783(13)
N15 N 0.0976(3) 0.48153(18) 0.15118(13)
N16 N 0.1179(3) 0.55838(18) 0.20968(13)
N17 N 0.1492(3) 0.56405(18) 0.30349(13)
N18 N 0.1791(3) 0.49596(18) 0.38243(13)
N19 N 0.1917(3) 0.37120(18) 0.43005(13)
N20 N 0.1883(3) 0.25388(17) 0.42125(13)
O5 O 0.5300(3) 0.29661(16) 0.13324(11)
O6 O 0.5360(3) 0.46024(16) 0.14584(11)
O7 O 0.5744(3) 0.45779(15) 0.27459(11)
O8 O 0.5997(3) 0.30170(15) 0.33564(11)
O9 O 0.5750(3) 0.19392(15) 0.25078(11)
O10 O -0.0297(3) 0.22498(15) 0.32712(11)
O11 O -0.0632(3) 0.32520(15) 0.21562(11)
O12 O -0.0574(3) 0.48927(16) 0.23131(11)
O13 O -0.0200(3) 0.50003(16) 0.35258(12)
O14 O -0.0018(3) 0.33577(15) 0.41459(11)
C31 C 0.7608(5) -0.0052(3) 0.0888(2)
C32 C 0.7316(6) 0.0275(3) 0.1370(2)
H33 H 0.6792 0.0048 0.1683
C33 C 0.7768(5) 0.0918(3) 0.1404(2)
H34 H 0.7564 0.1131 0.1737
C34 C 0.8525(5) 0.1256(3) 0.09478(18)
C35 C 0.8853(6) 0.0943(3) 0.0456(2)
H35 H 0.9396 0.1169 0.0149
C36 C 0.8372(5) 0.0298(3) 0.0423(2)
H36 H 0.8557 0.0092 0.0087
N25 N 0.9008(5) 0.1946(2) 0.0989(2)
O27 O 0.7124(5) -0.0685(3) 0.08782(18)
H69 H 0.7560 -0.0899 0.0617
O28 O 0.9870(5) 0.2181(2) 0.06059(17)
O38 O 0.8584(4) 0.2246(2) 0.14063(17)
C37 C 0.1329(5) 0.9692(3) 0.17110(19)
H37 H 0.0651 0.9988 0.1918
C38 C 0.1602(5) 0.8963(3) 0.18926(18)
H38 H 0.1138 0.8756 0.2230
C39 C 0.2038(5) 1.0002(2) 0.12243(18)
C40 C 0.3035(5) 0.9558(2) 0.09164(19)
H39 H 0.3537 0.9768 0.0590
C41 C 0.3285(5) 0.8821(3) 0.10877(19)
H40 H 0.3936 0.8517 0.0875
C42 C 0.2576(4) 0.8529(2) 0.15736(17)
N23 N 0.2837(4) 0.7742(2) 0.17501(16)
O24 O 0.3541(4) 0.73482(19) 0.14247(14)
O25 O 0.2347(4) 0.74994(18) 0.22182(13)
O26 O 0.1761(4) 1.07296(16) 0.10581(14)
H68 H 0.1046 1.0817 0.1205
C43 C 0.4458(5) 0.8046(3) -0.02659(19)
H41 H 0.3748 0.8150 -0.0462
C44 C 0.5323(5) 0.8544(3) -0.03082(17)
H42 H 0.5199 0.8994 -0.0537
C45 C 0.4637(5) 0.7390(3) 0.0068(2)
C46 C 0.6390(5) 0.8409(2) -0.00227(17)
C47 C 0.5682(5) 0.7218(3) 0.0358(2)
H43 H 0.5802 0.6759 0.0577
C48 C 0.6545(5) 0.7731(3) 0.0319(2)
H44 H 0.7243 0.7628 0.0522
N22 N 0.3704(6) 0.6864(3) 0.0105(2)
O18 O 0.2744(5) 0.7051(3) -0.0157(2)
O19 O 0.3899(6) 0.6270(3) 0.0367(2)
O20 O 0.7231(4) 0.88858(19) -0.00658(14)
H66 H 0.7851 0.9022 -0.0358
C49 C 0.9585(4) 0.6280(3) 0.02373(18)
H45 H 0.9983 0.6273 -0.0136
C50 C 0.9887(4) 0.6775(3) 0.05403(19)
H46 H 1.0469 0.7121 0.0375
C51 C 0.9322(5) 0.6758(3) 0.10899(18)
C52 C 0.8445(5) 0.6272(3) 0.13420(17)
H47 H 0.8079 0.6269 0.1719
C53 C 0.8114(4) 0.5791(2) 0.10360(17)
H48 H 0.7497 0.5464 0.1199
C54 C 0.8697(4) 0.5791(2) 0.04795(17)
N21 N 0.9687(5) 0.7282(3) 0.1415(2)
O15 O 0.9192(5) 0.7264(2) 0.19020(17)
O16 O 1.0462(7) 0.7699(4) 0.1185(2)
O17 O 0.8412(3) 0.53193(19) 0.01584(12)
H65 H 0.7873 0.5052 0.0346
C55 C 0.5934(5) 0.7564(3) 0.2193(2)
H49 H 0.6277 0.7395 0.1847
C56 C 0.5462(5) 0.8304(3) 0.2216(2)
H50 H 0.5503 0.8643 0.1893
C57 C 0.4927(4) 0.8533(3) 0.2729(2)
C58 C 0.4855(5) 0.8035(3) 0.3204(2)
H51 H 0.4472 0.8198 0.3548
C59 C 0.5341(5) 0.7304(3) 0.3176(2)
H52 H 0.5289 0.6965 0.3499
C60 C 0.5908(5) 0.7071(3) 0.2668(2)
N24 N 0.4475(4) 0.9303(3) 0.2766(2)
O21 O 0.4514(5) 0.9734(2) 0.2336(2)
O22 O 0.4060(5) 0.9513(2) 0.3224(2)
O23 O 0.6438(4) 0.63632(18) 0.26081(15)
H67 H 0.6364 0.6111 0.2916
C61 C 0.7412(4) 0.1838(2) 0.43935(17)
H53 H 0.7955 0.2037 0.4075
C62 C 0.6593(4) 0.2303(2) 0.47386(17)
C63 C 0.7436(5) 0.1091(3) 0.45122(18)
H54 H 0.7999 0.0773 0.4280
C64 C 0.6622(5) 0.0808(2) 0.49792(18)
C65 C 0.5762(4) 0.2012(3) 0.52022(18)
H55 H 0.5192 0.2331 0.5432
C72 C 0.5768(5) 0.1271(3) 0.53238(18)
H60 H 0.5205 0.1072 0.5636
N26 N 0.6665(6) 0.0010(3) 0.5113(2)
O29 O 0.6652(3) 0.30354(17) 0.46029(13)
H70 H 0.6127 0.3266 0.4835
O30 O 0.5924(6) -0.0218(2) 0.55307(19)
O37 O 0.7440(6) -0.0393(2) 0.48200(18)
C66 C 0.9079(4) 0.2074(3) 0.55063(18)
H56 H 0.9191 0.2366 0.5161
C67 C 0.9248(5) 0.1323(2) 0.55335(18)
H57 H 0.9468 0.1095 0.5207
C68 C 0.8739(5) 0.2410(3) 0.5993(2)
C69 C 0.9096(4) 0.0899(3) 0.60417(19)
C70 C 0.8779(5) 0.1218(3) 0.65287(19)
H58 H 0.8693 0.0921 0.6872
C71 C 0.8596(5) 0.1956(3) 0.6504(2)
H59 H 0.8367 0.2175 0.6834
N27 N 0.9308(4) 0.0101(2) 0.6067(2)
O31 O 0.9287(5) -0.0179(2) 0.56529(18)
O32 O 0.9467(5) -0.0259(2) 0.65147(17)
O33 O 0.8555(4) 0.3145(2) 0.59960(16)
H71 H 0.8669 0.3352 0.5673
C73 C 1.1621(5) 0.1974(3) 0.6988(2)
H61 H 1.1434 0.2412 0.7156
C74 C 1.1902(5) 0.1998(3) 0.6421(2)
C75 C 1.2219(5) 0.1373(3) 0.6162(2)
H62 H 1.2430 0.1407 0.5773
C76 C 1.2224(5) 0.0692(3) 0.6478(2)
H63 H 1.2453 0.0256 0.6308
C77 C 1.1883(5) 0.0656(3) 0.7055(2)
C78 C 1.1617(5) 0.1297(4) 0.7304(2)
H64 H 1.1433 0.1271 0.7692
N28 N 1.1837(5) 0.2710(3) 0.6086(2)
O34 O 1.1514(5) 0.3270(3) 0.6316(2)
O35 O 1.2092(5) 0.2729(3) 0.55751(17)
O36 O 1.1796(5) 0.0003(3) 0.73903(15)
H72 H 1.1972 -0.0344 0.7198
loop_
_geom_bond_atom_site_label_1
_geom_bond_atom_site_label_2
_geom_bond_site_symmetry_1
_geom_bond_site_symmetry_2
O2 H1 1_555 1_555
H2 O2 1_555 1_555
C1 N1 1_555 1_555
C2 H3 1_555 1_555
H4 C2 1_555 1_555
C3 N3 1_555 1_555
C4 H5 1_555 1_555
H6 C4 1_555 1_555
C5 N5 1_555 1_555
C6 H7 1_555 1_555
H8 C6 1_555 1_555
C7 N7 1_555 1_555
C8 H9 1_555 1_555
H10 C8 1_555 1_555
C9 N9 1_555 1_555
C10 H11 1_555 1_555
H12 C10 1_555 1_555
C11 H13 1_555 1_555
C12 C11 1_555 1_555
H14 C12 1_555 1_555
C13 H15 1_555 1_555
C14 C13 1_555 1_555
H16 C14 1_555 1_555
C15 H17 1_555 1_555
C16 C15 1_555 1_555
H18 C16 1_555 1_555
C17 H19 1_555 1_555
C18 C17 1_555 1_555
H20 C18 1_555 1_555
C19 H21 1_555 1_555
C20 C19 1_555 1_555
H22 C20 1_555 1_555
C21 N13 1_555 1_555
C22 H23 1_555 1_555
H24 C22 1_555 1_555
C23 N15 1_555 1_555
C24 H25 1_555 1_555
H26 C24 1_555 1_555
C25 H27 1_555 1_555
H28 C25 1_555 1_555
C26 H29 1_555 1_555
H30 C26 1_555 1_555
C27 N19 1_555 1_555
C28 H31 1_555 1_555
H32 C28 1_555 1_555
C29 N17 1_555 1_555
C30 N11 1_555 1_555
N1 C10 1_555 1_555
N2 C1 1_555 1_555
N3 C2 1_555 1_555
N4 C3 1_555 1_555
N5 C4 1_555 1_555
N6 C5 1_555 1_555
N7 C6 1_555 1_555
N8 C7 1_555 1_555
N9 C8 1_555 1_555
N10 C9 1_555 1_555
N11 C12 1_555 1_555
N12 C11 1_555 1_555
N13 C20 1_555 1_555
N14 C19 1_555 1_555
N15 C18 1_555 1_555
N16 C17 1_555 1_555
N17 C16 1_555 1_555
N18 C15 1_555 1_555
N19 C14 1_555 1_555
N20 C13 1_555 1_555
O5 C1 1_555 1_555
O6 C3 1_555 1_555
O7 C5 1_555 1_555
O8 C7 1_555 1_555
O9 C9 1_555 1_555
O10 C30 1_555 1_555
O11 C21 1_555 1_555
O12 C23 1_555 1_555
O13 C29 1_555 1_555
O14 C27 1_555 1_555
C31 C32 1_555 1_555
C32 H33 1_555 1_555
C33 C32 1_555 1_555
H34 C33 1_555 1_555
C34 C33 1_555 1_555
C35 C34 1_555 1_555
H35 C35 1_555 1_555
C36 C31 1_555 1_555
H36 C36 1_555 1_555
C37 H37 1_555 1_555
C38 C37 1_555 1_555
H38 C38 1_555 1_555
C39 C37 1_555 1_555
C40 C39 1_555 1_555
H39 C40 1_555 1_555
C41 C40 1_555 1_555
H40 C41 1_555 1_555
C42 C38 1_555 1_555
C43 H41 1_555 1_555
C44 C43 1_555 1_555
H42 C44 1_555 1_555
C45 C43 1_555 1_555
C46 C44 1_555 1_555
C47 C45 1_555 1_555
H43 C47 1_555 1_555
C48 C46 1_555 1_555
H44 C48 1_555 1_555
C49 H45 1_555 1_555
C50 C49 1_555 1_555
H46 C50 1_555 1_555
C51 C50 1_555 1_555
C52 C51 1_555 1_555
H47 C52 1_555 1_555
C53 C52 1_555 1_555
H48 C53 1_555 1_555
C54 C49 1_555 1_555
C55 H49 1_555 1_555
C56 C55 1_555 1_555
H50 C56 1_555 1_555
C57 C56 1_555 1_555
C58 C57 1_555 1_555
H51 C58 1_555 1_555
C59 C58 1_555 1_555
H52 C59 1_555 1_555
C60 C55 1_555 1_555
C61 H53 1_555 1_555
C62 C61 1_555 1_555
C63 C61 1_555 1_555
H54 C63 1_555 1_555
C64 C63 1_555 1_555
C65 C62 1_555 1_555
H55 C65 1_555 1_555
C66 H56 1_555 1_555
C67 C66 1_555 1_555
H57 C67 1_555 1_555
C68 C66 1_555 1_555
C69 C67 1_555 1_555
C70 C69 1_555 1_555
H58 C70 1_555 1_555
C71 C68 1_555 1_555
H59 C71 1_555 1_555
C72 C64 1_555 1_555
H60 C72 1_555 1_555
C73 H61 1_555 1_555
C74 C73 1_555 1_555
C75 C74 1_555 1_555
H62 C75 1_555 1_555
C76 C75 1_555 1_555
H63 C76 1_555 1_555
C77 C76 1_555 1_555
C78 C73 1_555 1_555
H64 C78 1_555 1_555
N21 C51 1_555 1_555
N22 C45 1_555 1_555
N23 C42 1_555 1_555
N24 C57 1_555 1_555
N25 C34 1_555 1_555
N26 C64 1_555 1_555
N27 C69 1_555 1_555
N28 C74 1_555 1_555
O15 N21 1_555 1_555
O16 N21 1_555 1_555
O17 C54 1_555 1_555
H65 O17 1_555 1_555
O18 N22 1_555 1_555
O19 N22 1_555 1_555
O20 C46 1_555 1_555
H66 O20 1_555 1_555
O21 N24 1_555 1_555
O22 N24 1_555 1_555
O23 C60 1_555 1_555
H67 O23 1_555 1_555
O24 N23 1_555 1_555
O25 N23 1_555 1_555
O26 C39 1_555 1_555
H68 O26 1_555 1_555
O27 C31 1_555 1_555
H69 O27 1_555 1_555
O28 N25 1_555 1_555
O29 C62 1_555 1_555
H70 O29 1_555 1_555
O30 N26 1_555 1_555
O31 N27 1_555 1_555
O32 N27 1_555 1_555
O33 C68 1_555 1_555
H71 O33 1_555 1_555
O34 N28 1_555 1_555
O35 N28 1_555 1_555
O36 C77 1_555 1_555
H72 O36 1_555 1_555
O37 N26 1_555 1_555
O38 N25 1_555 1_555
C2 N2 1_555 1_555
C4 N4 1_555 1_555
C6 N6 1_555 1_555
C8 N8 1_555 1_555
C10 N10 1_555 1_555
C11 N10 1_555 1_555
C12 N9 1_555 1_555
C13 N8 1_555 1_555
C14 N7 1_555 1_555
C15 N6 1_555 1_555
C16 N5 1_555 1_555
C17 N4 1_555 1_555
C18 N3 1_555 1_555
C19 N2 1_555 1_555
C20 N1 1_555 1_555
C21 N14 1_555 1_555
C22 N14 1_555 1_555
C22 N15 1_555 1_555
C23 N16 1_555 1_555
C24 N16 1_555 1_555
C24 N17 1_555 1_555
C25 N12 1_555 1_555
C25 N13 1_555 1_555
C26 N11 1_555 1_555
C26 N20 1_555 1_555
C27 N20 1_555 1_555
C28 N18 1_555 1_555
C28 N19 1_555 1_555
C29 N18 1_555 1_555
C30 N12 1_555 1_555
C35 C36 1_555 1_555
C41 C42 1_555 1_555
C47 C48 1_555 1_555
C53 C54 1_555 1_555
C59 C60 1_555 1_555
C65 C72 1_555 1_555
C70 C71 1_555 1_555
C77 C78 1_555 1_555

#END
