
#######################################################################
#
#                 Cambridge Crystallographic Data Centre
#                                CCDC 
#
#######################################################################
#
# If this CIF has been generated from an entry in the Cambridge 
# Structural Database, then it will include bibliographic, chemical, 
# crystal, experimental, refinement or atomic coordinate data resulting 
# from the CCDC's data processing and validation procedures.
#
#######################################################################

data_PAQBOA
_chemical_formula_moiety         
'2(C6 H5 N1 O3),C30 H30 N20 O10,2(K1 1+),2(Br1 1-),5(H2 O1)'
_chemical_name_systematic        
'di-potassium cucurbit[5]uril dibromide bis(4-nitrophenol) pentahydrate'
_symmetry_cell_setting           orthorhombic
_symmetry_space_group_name_H-M   'P 21 21 2'
_symmetry_Int_Tables_number      18
_space_group_name_Hall           'P 2 2ab'
loop_
_symmetry_equiv_pos_site_id
_symmetry_equiv_pos_as_xyz
1 x,y,z
2 -x,-y,z
3 1/2+x,1/2-y,-z
4 1/2-x,1/2+y,-z
_cell_length_a                   16.725(3)
_cell_length_b                   11.850(2)
_cell_length_c                   13.514(2)
_cell_angle_alpha                90
_cell_angle_beta                 90
_cell_angle_gamma                90
_cell_volume                     2678.36
_exptl_crystal_colour            colorless
_exptl_crystal_description       prism
_cell_formula_units_Z            2
loop_
_atom_site_label
_atom_site_type_symbol
_atom_site_fract_x
_atom_site_fract_y
_atom_site_fract_z
O1 O 0.60314(13) -0.01672(17) 1.49305(16)
O2 O 0.5000 0.0000 1.2734(2)
N1 N 0.7366(2) 0.0098(3) 1.1450(2)
C1 C 0.6987(2) 0.0722(3) 1.0638(2)
C2 C 0.74078(19) 0.1593(3) 1.0189(2)
H1 H 0.7935 0.1760 1.0382
C3 C 0.70403(17) 0.2202(3) 0.9460(2)
H2 H 0.7317 0.2792 0.9146
C4 C 0.62554(17) 0.1955(3) 0.9181(2)
C5 C 0.5855(2) 0.1059(3) 0.9629(2)
H3 H 0.5333 0.0873 0.9428
C6 C 0.6219(2) 0.0451(3) 1.0358(2)
H4 H 0.5948 -0.0149 1.0666
O4 O 0.81001(18) 0.0153(3) 1.15230(18)
O5 O 0.6942(2) -0.0434(2) 1.2023(2)
O6 O 0.59184(14) 0.25986(18) 0.84693(15)
H5 H 0.541(2) 0.2421(8) 0.8411(3)
K1 K 0.57225(4) -0.18832(6) 1.36177(5)
Br1 Br 0.907831(18) -0.69633(3) 1.18035(2)
C7 C 0.46634(17) -0.6562(2) 1.5963(2)
C8 C 0.33020(17) -0.5774(2) 1.6076(2)
H6 H 0.3167 -0.6578 1.6067
H7 H 0.3045 -0.5438 1.6658
C9 C 0.28626(15) -0.5819(2) 1.4334(2)
C10 C 0.24275(17) -0.5393(2) 1.2641(2)
H8 H 0.1963 -0.4951 1.2426
H9 H 0.2271 -0.6190 1.2641
C11 C 0.35985(17) -0.6072(2) 1.1694(2)
C12 C 0.46969(17) -0.6382(3) 1.0513(2)
H10 H 0.4517 -0.7168 1.0550
H11 H 0.4732 -0.6179 0.9811
C13 C 0.42596(16) -0.2950(2) 1.16511(18)
C14 C 0.28135(16) -0.4070(2) 1.5118(2)
H12 H 0.2398 -0.3829 1.5596
C15 C 0.25243(17) -0.3937(2) 1.4030(2)
H13 H 0.1960 -0.3689 1.3994
C16 C 0.32002(17) -0.4210(2) 1.1368(2)
H14 H 0.2721 -0.4002 1.0979
C17 C 0.39196(17) -0.4529(2) 1.0678(2)
H15 H 0.3771 -0.4486 0.9970
C18 C 0.60948(15) -0.6978(2) 1.60775(18)
H16 H 0.5931 -0.7771 1.6031
H17 H 0.6485 -0.6919 1.6616
C19 C 0.63739(16) -0.7252(2) 1.4304(2)
C20 C 0.30426(17) -0.2633(2) 1.2641(2)
H18 H 0.2485 -0.2606 1.2420
H19 H 0.3242 -0.1855 1.2661
C21 C 0.54407(16) -0.5196(2) 1.6765(2)
H20 H 0.5661 -0.5225 1.7445
N2 N 0.54054(14) -0.63070(19) 1.63264(17)
N3 N 0.41619(14) -0.56575(18) 1.61745(16)
N4 N 0.29830(14) -0.5250(2) 1.52006(16)
N5 N 0.26310(15) -0.50685(18) 1.36302(18)
N6 N 0.30698(14) -0.52344(19) 1.19292(17)
N7 N 0.41011(15) -0.56721(19) 1.09775(16)
N8 N 0.45213(15) -0.36907(19) 1.09369(17)
N9 N 0.64798(13) -0.66592(19) 1.51621(16)
N10 N 0.30657(12) -0.3093(2) 1.36333(16)
N11 N 0.35022(13) -0.32583(19) 1.19242(17)
O7 O 0.58765(11) -0.79910(16) 1.41646(13)
O8 O 0.44662(12) -0.74148(16) 1.55461(14)
O9 O 0.29358(11) -0.68452(16) 1.42161(13)
O10 O 0.36010(11) -0.70229(17) 1.20366(13)
O11 O 0.46363(11) -0.21411(15) 1.19686(14)
C7A C 0.53366(17) -0.3438(2) 1.5963(2)
C8A C 0.66980(17) -0.4226(2) 1.6076(2)
H6A H 0.6833 -0.3422 1.6067
H7A H 0.6955 -0.4562 1.6658
C9A C 0.71374(15) -0.4181(2) 1.4334(2)
C10A C 0.75725(17) -0.4607(2) 1.2641(2)
H8A H 0.8037 -0.5049 1.2426
H9A H 0.7729 -0.3810 1.2641
C11A C 0.64015(17) -0.3928(2) 1.1694(2)
C12A C 0.53031(17) -0.3618(3) 1.0513(2)
H10A H 0.5483 -0.2832 1.0550
H11A H 0.5268 -0.3821 0.9811
C13A C 0.57404(16) -0.7050(2) 1.16511(18)
C14A C 0.71865(16) -0.5930(2) 1.5118(2)
H12A H 0.7602 -0.6171 1.5596
C15A C 0.74757(17) -0.6063(2) 1.4030(2)
H13A H 0.8040 -0.6311 1.3994
C16A C 0.67998(17) -0.5790(2) 1.1368(2)
H14A H 0.7279 -0.5998 1.0979
C17A C 0.60804(17) -0.5471(2) 1.0678(2)
H15A H 0.6229 -0.5514 0.9970
C18A C 0.39052(15) -0.3022(2) 1.60775(18)
H16A H 0.4069 -0.2229 1.6031
H17A H 0.3515 -0.3081 1.6616
C19A C 0.36261(16) -0.2748(2) 1.4304(2)
C20A C 0.69574(17) -0.7367(2) 1.2641(2)
H18A H 0.7515 -0.7394 1.2420
H19A H 0.6758 -0.8145 1.2661
C21A C 0.45593(16) -0.4804(2) 1.6765(2)
H20A H 0.4339 -0.4775 1.7445
N2A N 0.45946(14) -0.36930(19) 1.63264(17)
N3A N 0.58381(14) -0.43425(18) 1.61745(16)
N4A N 0.70170(14) -0.4750(2) 1.52006(16)
N5A N 0.73690(15) -0.49315(18) 1.36302(18)
N6A N 0.69302(14) -0.47656(19) 1.19292(17)
N7A N 0.58989(15) -0.43279(19) 1.09775(16)
N8A N 0.54787(15) -0.63093(19) 1.09369(17)
N9A N 0.35202(13) -0.33408(19) 1.51621(16)
N10A N 0.69343(12) -0.6907(2) 1.36333(16)
N11A N 0.64978(13) -0.67417(19) 1.19242(17)
O7A O 0.41235(11) -0.20090(16) 1.41646(13)
O8A O 0.55338(12) -0.25852(16) 1.55461(14)
O9A O 0.70642(11) -0.31548(16) 1.42161(13)
O10A O 0.63990(11) -0.29771(17) 1.20366(13)
O11A O 0.53637(11) -0.78589(15) 1.19686(14)
O3? O 0.5114(7) -0.4614(6) 1.3617(5)
loop_
_geom_bond_atom_site_label_1
_geom_bond_atom_site_label_2
_geom_bond_site_symmetry_1
_geom_bond_site_symmetry_2
N1 C1 1_555 1_555
C1 C2 1_555 1_555
C2 H1 1_555 1_555
C3 C2 1_555 1_555
H2 C3 1_555 1_555
C4 C3 1_555 1_555
C5 C4 1_555 1_555
H3 C5 1_555 1_555
C6 C1 1_555 1_555
H4 C6 1_555 1_555
O4 N1 1_555 1_555
O5 N1 1_555 1_555
O6 C4 1_555 1_555
H5 O6 1_555 1_555
C7 N2 1_555 1_555
C8 H6 1_555 1_555
H7 C8 1_555 1_555
C9 N4 1_555 1_555
C10 H8 1_555 1_555
H9 C10 1_555 1_555
C11 N6 1_555 1_555
C12 H10 1_555 1_555
H11 C12 1_555 1_555
C13 N8 1_555 1_555
C14 H12 1_555 1_555
C15 C14 1_555 1_555
H13 C15 1_555 1_555
C16 H14 1_555 1_555
C17 C16 1_555 1_555
H15 C17 1_555 1_555
C18 H16 1_555 1_555
H17 C18 1_555 1_555
C19 N9 1_555 1_555
C20 H18 1_555 1_555
H19 C20 1_555 1_555
C21 H20 1_555 1_555
N2 C18 1_555 1_555
N3 C7 1_555 1_555
N4 C8 1_555 1_555
N5 C9 1_555 1_555
N6 C10 1_555 1_555
N7 C11 1_555 1_555
N8 C17 1_555 1_555
N9 C18 1_555 1_555
N10 C15 1_555 1_555
N11 C13 1_555 1_555
O7 C19 1_555 1_555
O8 C7 1_555 1_555
O9 C9 1_555 1_555
O10 C11 1_555 1_555
O11 C13 1_555 1_555
C7A N2A 1_555 1_555
C8A H6A 1_555 1_555
H7A C8A 1_555 1_555
C9A N4A 1_555 1_555
C10A H8A 1_555 1_555
H9A C10A 1_555 1_555
C11A N6A 1_555 1_555
C12A N8 1_555 1_555
H10A C12A 1_555 1_555
H11A C12A 1_555 1_555
C13A N8A 1_555 1_555
C14A N9 1_555 1_555
H12A C14A 1_555 1_555
C15A C14A 1_555 1_555
H13A C15A 1_555 1_555
C16A H14A 1_555 1_555
C17A C16A 1_555 1_555
H15A C17A 1_555 1_555
C18A H16A 1_555 1_555
H17A C18A 1_555 1_555
C19A N10 1_555 1_555
C20A H18A 1_555 1_555
H19A C20A 1_555 1_555
C21A C21 1_555 1_555
H20A C21A 1_555 1_555
N2A C18A 1_555 1_555
N3A C21 1_555 1_555
N4A C8A 1_555 1_555
N5A C9A 1_555 1_555
N6A C10A 1_555 1_555
N7A C11A 1_555 1_555
N8A C12 1_555 1_555
N9A C14 1_555 1_555
N10A C19 1_555 1_555
N11A C13A 1_555 1_555
O7A C19A 1_555 1_555
O8A C7A 1_555 1_555
O9A C9A 1_555 1_555
O10A C11A 1_555 1_555
O11A C13A 1_555 1_555
C5 C6 1_555 1_555
C8 N3 1_555 1_555
C10 N5 1_555 1_555
C12 N7 1_555 1_555
C14 N4 1_555 1_555
C15 N5 1_555 1_555
C16 N6 1_555 1_555
C16 N11 1_555 1_555
C17 N7 1_555 1_555
C20 N10 1_555 1_555
C20 N11 1_555 1_555
C21 N2 1_555 1_555
N3 C21A 1_555 1_555
C7A N3A 1_555 1_555
C8A N3A 1_555 1_555
C10A N5A 1_555 1_555
C12A N7A 1_555 1_555
C14A N4A 1_555 1_555
C15A N5A 1_555 1_555
C15A N10A 1_555 1_555
C16A N6A 1_555 1_555
C16A N11A 1_555 1_555
C17A N7A 1_555 1_555
C17A N8A 1_555 1_555
C18A N9A 1_555 1_555
C19A N9A 1_555 1_555
C20A N10A 1_555 1_555
C20A N11A 1_555 1_555
C21A N2A 1_555 1_555

#END
