
#######################################################################
#
#                 Cambridge Crystallographic Data Centre
#                                CCDC 
#
#######################################################################
#
# If this CIF has been generated from an entry in the Cambridge 
# Structural Database, then it will include bibliographic, chemical, 
# crystal, experimental, refinement or atomic coordinate data resulting 
# from the CCDC's data processing and validation procedures.
#
#######################################################################

data_PAQCIU
_chemical_formula_moiety         'C12 H30 Li1 O6 1+,C21 H40 B10 Li1 N1 O2 P1 1-'
_chemical_name_systematic        
'tris(1,2-Dimethoxyethane)-lithium ((1,2-dicarba-closo-dodecaboran-1-yl)(\h^5^-indenyl)(diisopropylamido)phosphine)-(1,2-dimethoxyethane)-lithium'
_symmetry_cell_setting           triclinic
_symmetry_space_group_name_H-M   'P -1'
_symmetry_Int_Tables_number      2
_space_group_name_Hall           '-P 1'
loop_
_symmetry_equiv_pos_site_id
_symmetry_equiv_pos_as_xyz
1 x,y,z
2 -x,-y,-z
_cell_length_a                   10.8963(12)
_cell_length_b                   14.7517(16)
_cell_length_c                   16.3540(17)
_cell_angle_alpha                77.524(3)
_cell_angle_beta                 78.818(3)
_cell_angle_gamma                69.933(2)
_cell_volume                     2390.18
_cell_formula_units_Z            2
loop_
_atom_site_label
_atom_site_type_symbol
_atom_site_fract_x
_atom_site_fract_y
_atom_site_fract_z
N1 N -0.2896(3) 0.8379(2) -0.38399(17)
P1 P -0.18920(9) 0.73570(7) -0.33254(6)
C1 C -0.2293(3) 0.7511(2) -0.2172(2)
C2 C -0.1028(4) 0.7381(3) -0.1632(2)
C3 C -0.2773(4) 0.9364(3) -0.3983(3)
H1 H -0.2185 0.9346 -0.3591
C4 C -0.2139(5) 0.9675(3) -0.4863(3)
H2 H -0.1312 0.9187 -0.4990
H3 H -0.1993 1.0287 -0.4887
H4 H -0.2712 0.9749 -0.5268
C5 C -0.3738(4) 0.8238(3) -0.4373(3)
H5 H -0.4199 0.8887 -0.4664
C6 C -0.4081(4) 1.0141(3) -0.3761(3)
H6 H -0.4459 0.9944 -0.3198
H7 H -0.4676 1.0215 -0.4152
H8 H -0.3932 1.0753 -0.3794
C7 C -0.4770(5) 0.7820(4) -0.3859(3)
H9 H -0.5265 0.8222 -0.3442
H10 H -0.4356 0.7170 -0.3583
H11 H -0.5351 0.7798 -0.4222
C8 C -0.2937(5) 0.7627(3) -0.5054(3)
H12 H -0.2299 0.7921 -0.5383
H13 H -0.3516 0.7598 -0.5414
H14 H -0.2492 0.6977 -0.4792
C9 C -0.0242(3) 0.7373(3) -0.3590(2)
C10 C 0.0405(4) 0.8071(3) -0.3662(2)
H15 H -0.0063 0.8776 -0.3740
C11 C 0.1742(4) 0.7694(3) -0.3907(2)
H16 H 0.2358 0.8073 -0.4095
C12 C 0.3199(4) 0.5968(4) -0.4193(3)
H17 H 0.4001 0.6092 -0.4317
C13 C 0.3140(6) 0.5071(4) -0.4219(3)
H18 H 0.3909 0.4587 -0.4376
C14 C 0.1969(6) 0.4859(3) -0.4020(3)
H19 H 0.1968 0.4232 -0.4032
C15 C 0.0811(4) 0.5556(3) -0.3806(2)
H20 H 0.0028 0.5403 -0.3677
C16 C 0.0802(4) 0.6500(3) -0.3780(2)
C17 C 0.2016(4) 0.6715(3) -0.3972(2)
C18 C 0.2247(6) 0.4994(4) -0.1818(3)
H21 H 0.3006 0.4568 -0.1559
H22 H 0.2306 0.4850 -0.2372
H23 H 0.1464 0.4895 -0.1479
C19 C 0.3080(7) 0.6130(6) -0.1531(4)
H24 H 0.3954 0.5792 -0.1787
H25 H 0.3008 0.5857 -0.0935
C20 C 0.2965(8) 0.7125(7) -0.1609(5)
H26 H 0.2996 0.7246 -0.1054
H27 H 0.3739 0.7228 -0.1971
C21 C 0.1796(6) 0.8732(5) -0.1957(4)
H28 H 0.2453 0.8814 -0.1690
H29 H 0.0936 0.9047 -0.1685
H30 H 0.1876 0.9019 -0.2542
B1 B -0.1630(5) 0.6446(3) -0.1548(3)
H61 H -0.1026 0.5774 -0.1800
B2 B -0.3348(4) 0.6943(3) -0.1589(3)
H62 H -0.3884 0.6593 -0.1859
B3 B -0.3751(4) 0.8208(3) -0.1729(3)
H63 H -0.4550 0.8698 -0.2089
B4 B -0.2268(4) 0.8474(3) -0.1770(3)
H64 H -0.2085 0.9134 -0.2161
B5 B -0.1315(5) 0.6729(4) -0.0650(3)
H65 H -0.0514 0.6238 -0.0292
B6 B -0.2751(5) 0.6434(4) -0.0605(3)
H66 H -0.2891 0.5753 -0.0230
B7 B -0.4076(5) 0.7550(4) -0.0717(3)
H67 H -0.5084 0.7602 -0.0410
B8 B -0.3408(5) 0.8511(4) -0.0839(3)
H68 H -0.3986 0.9204 -0.0614
B9 B -0.1700(5) 0.7987(4) -0.0789(3)
H69 H -0.1152 0.8333 -0.0525
B10 B -0.2809(5) 0.7422(4) -0.0133(3)
H70 H -0.2996 0.7397 0.0556
O1 O 0.2196(3) 0.5945(3) -0.1879(2)
O2 O 0.1969(4) 0.7767(4) -0.1891(3)
Li1 Li 0.0855(7) 0.7165(5) -0.2354(4)
C22 C -0.5286(6) 0.7097(6) 0.2807(6)
H31 H -0.4492 0.7271 0.2631
H32 H -0.5073 0.6399 0.2890
H33 H -0.5717 0.7330 0.3327
C23 C -0.6028(10) 0.8435(8) 0.1725(7)
H34 H -0.6314 0.8914 0.2102
H35 H -0.5116 0.8364 0.1495
C24 C -0.6812(11) 0.8762(6) 0.1061(6)
H36 H -0.6835 0.9425 0.0808
H37 H -0.6421 0.8349 0.0630
C25 C -0.8936(9) 0.9164(4) 0.0722(4)
H38 H -0.8756 0.9742 0.0400
H39 H -0.9832 0.9335 0.0989
H40 H -0.8803 0.8704 0.0353
C26 C -1.1330(6) 0.7893(5) 0.2328(5)
H41 H -1.1954 0.7784 0.2050
H42 H -1.1505 0.8583 0.2291
H43 H -1.1407 0.7595 0.2911
C27 C -0.9924(7) 0.6749(5) 0.1510(4)
H44 H -1.0601 0.6974 0.1139
H45 H -1.0069 0.6196 0.1913
C28 C -0.8665(7) 0.6432(4) 0.1018(4)
H46 H -0.8478 0.5752 0.0971
H47 H -0.8717 0.6807 0.0454
C29 C -0.6350(6) 0.6076(4) 0.0918(3)
H48 H -0.6399 0.5695 0.0525
H49 H -0.5803 0.5661 0.1334
H50 H -0.5980 0.6579 0.0621
C30 C -0.7246(5) 0.5209(3) 0.3246(3)
H51 H -0.7299 0.4880 0.3820
H52 H -0.6339 0.5060 0.2999
H53 H -0.7720 0.4993 0.2930
C31 C -0.8678(6) 0.6490(4) 0.3931(4)
H54 H -0.8349 0.6055 0.4432
H55 H -0.9517 0.6422 0.3888
C32 C -0.8877(5) 0.7486(4) 0.4017(3)
H56 H -0.9658 0.7702 0.4417
H57 H -0.8131 0.7508 0.4245
C33 C -0.9164(6) 0.9089(4) 0.3304(3)
H58 H -0.9637 0.9242 0.3842
H59 H -0.9644 0.9521 0.2862
H60 H -0.8310 0.9167 0.3240
O3 O -0.6129(4) 0.7523(3) 0.2182(3)
O4 O -0.8074(6) 0.8739(3) 0.1347(2)
O5 O -1.0050(4) 0.7478(3) 0.1936(2)
O6 O -0.7636(4) 0.6512(2) 0.1321(2)
O7 O -0.7800(3) 0.6222(2) 0.3228(2)
O8 O -0.9021(3) 0.8125(2) 0.32566(19)
Li2 Li -0.8063(7) 0.7411(5) 0.2228(4)
loop_
_geom_bond_atom_site_label_1
_geom_bond_atom_site_label_2
_geom_bond_site_symmetry_1
_geom_bond_site_symmetry_2
N1 P1 1_555 1_555
P1 C1 1_555 1_555
C1 C2 1_555 1_555
C2 B1 1_555 1_555
C3 N1 1_555 1_555
H1 C3 1_555 1_555
C4 C3 1_555 1_555
H2 C4 1_555 1_555
H3 C4 1_555 1_555
H4 C4 1_555 1_555
C5 N1 1_555 1_555
H5 C5 1_555 1_555
C6 C3 1_555 1_555
H6 C6 1_555 1_555
H7 C6 1_555 1_555
H8 C6 1_555 1_555
C7 C5 1_555 1_555
H9 C7 1_555 1_555
H10 C7 1_555 1_555
H11 C7 1_555 1_555
C8 C5 1_555 1_555
H12 C8 1_555 1_555
H13 C8 1_555 1_555
H14 C8 1_555 1_555
C9 P1 1_555 1_555
C10 C9 1_555 1_555
H15 C10 1_555 1_555
C11 C10 1_555 1_555
H16 C11 1_555 1_555
C12 H17 1_555 1_555
C13 C12 1_555 1_555
H18 C13 1_555 1_555
C14 C13 1_555 1_555
H19 C14 1_555 1_555
C15 C14 1_555 1_555
H20 C15 1_555 1_555
C16 C9 1_555 1_555
C17 C11 1_555 1_555
C18 H21 1_555 1_555
H22 C18 1_555 1_555
H23 C18 1_555 1_555
C19 H24 1_555 1_555
H25 C19 1_555 1_555
C20 C19 1_555 1_555
H26 C20 1_555 1_555
H27 C20 1_555 1_555
C21 H28 1_555 1_555
H29 C21 1_555 1_555
H30 C21 1_555 1_555
C22 H31 1_555 1_555
H32 C22 1_555 1_555
H33 C22 1_555 1_555
C23 H34 1_555 1_555
H35 C23 1_555 1_555
C24 C23 1_555 1_555
H36 C24 1_555 1_555
H37 C24 1_555 1_555
C25 H38 1_555 1_555
H39 C25 1_555 1_555
H40 C25 1_555 1_555
C26 H41 1_555 1_555
H42 C26 1_555 1_555
H43 C26 1_555 1_555
C27 H44 1_555 1_555
H45 C27 1_555 1_555
C28 C27 1_555 1_555
H46 C28 1_555 1_555
H47 C28 1_555 1_555
C29 H48 1_555 1_555
H49 C29 1_555 1_555
H50 C29 1_555 1_555
C30 H51 1_555 1_555
H52 C30 1_555 1_555
H53 C30 1_555 1_555
C31 H54 1_555 1_555
H55 C31 1_555 1_555
C32 C31 1_555 1_555
H56 C32 1_555 1_555
H57 C32 1_555 1_555
C33 H58 1_555 1_555
H59 C33 1_555 1_555
H60 C33 1_555 1_555
B1 C1 1_555 1_555
H61 B1 1_555 1_555
B2 C1 1_555 1_555
H62 B2 1_555 1_555
B3 C1 1_555 1_555
H63 B3 1_555 1_555
B4 C1 1_555 1_555
H64 B4 1_555 1_555
B5 C2 1_555 1_555
H65 B5 1_555 1_555
B6 B1 1_555 1_555
H66 B6 1_555 1_555
B7 B2 1_555 1_555
H67 B7 1_555 1_555
B8 B3 1_555 1_555
H68 B8 1_555 1_555
B9 C2 1_555 1_555
H69 B9 1_555 1_555
B10 B5 1_555 1_555
H70 B10 1_555 1_555
O1 C18 1_555 1_555
O2 C20 1_555 1_555
O3 C22 1_555 1_555
O4 C24 1_555 1_555
O5 C26 1_555 1_555
O6 C28 1_555 1_555
O7 C30 1_555 1_555
O8 C32 1_555 1_555
Li1 C2 1_555 1_555
Li2 O3 1_555 1_555
C2 B4 1_555 1_555
C9 Li1 1_555 1_555
C10 Li1 1_555 1_555
C11 Li1 1_555 1_555
C12 C17 1_555 1_555
C15 C16 1_555 1_555
C16 C17 1_555 1_555
C16 Li1 1_555 1_555
C17 Li1 1_555 1_555
C19 O1 1_555 1_555
C21 O2 1_555 1_555
C23 O3 1_555 1_555
C25 O4 1_555 1_555
C27 O5 1_555 1_555
C29 O6 1_555 1_555
C31 O7 1_555 1_555
C33 O8 1_555 1_555
B1 B2 1_555 1_555
B1 B5 1_555 1_555
B2 B3 1_555 1_555
B2 B6 1_555 1_555
B3 B4 1_555 1_555
B3 B7 1_555 1_555
B4 B8 1_555 1_555
B4 B9 1_555 1_555
B5 B6 1_555 1_555
B5 B9 1_555 1_555
B6 B7 1_555 1_555
B6 B10 1_555 1_555
B7 B8 1_555 1_555
B7 B10 1_555 1_555
B8 B9 1_555 1_555
B8 B10 1_555 1_555
B9 B10 1_555 1_555
O1 Li1 1_555 1_555
O2 Li1 1_555 1_555
O4 Li2 1_555 1_555
O5 Li2 1_555 1_555
O6 Li2 1_555 1_555
O7 Li2 1_555 1_555
O8 Li2 1_555 1_555

#END
