
#######################################################################
#
#                 Cambridge Crystallographic Data Centre
#                                CCDC 
#
#######################################################################
#
# If this CIF has been generated from an entry in the Cambridge 
# Structural Database, then it will include bibliographic, chemical, 
# crystal, experimental, refinement or atomic coordinate data resulting 
# from the CCDC's data processing and validation procedures.
#
#######################################################################

data_PAQCIV
_chemical_formula_moiety         
'2(C6 H5 N1 O3),C30 H30 N20 O10,2(K1 1+),6(H2 O1),2(N1 O3 1-)'
_chemical_name_systematic        
'di-potassium cucurbit[5]uril dinitrate bis(3-nitrophenol) hexahydrate'
_symmetry_cell_setting           monoclinic
_symmetry_space_group_name_H-M   'P 21'
_symmetry_Int_Tables_number      4
_space_group_name_Hall           'P 2yb'
loop_
_symmetry_equiv_pos_site_id
_symmetry_equiv_pos_as_xyz
1 x,y,z
2 -x,1/2+y,-z
_cell_length_a                   11.898(2)
_cell_length_b                   15.873(3)
_cell_length_c                   14.603(3)
_cell_angle_alpha                90
_cell_angle_beta                 90.604(2)
_cell_angle_gamma                90
_cell_volume                     2757.72
_exptl_crystal_colour            colorless
_exptl_crystal_description       block
_cell_formula_units_Z            2
loop_
_atom_site_label
_atom_site_type_symbol
_atom_site_fract_x
_atom_site_fract_y
_atom_site_fract_z
O1 O 0.2379(2) 0.3800(3) 0.4627(2)
O2 O 0.3011(3) 0.5337(3) 0.2839(2)
O3 O 1.2457(2) 0.1733(2) 0.3089(3)
O4 O 0.2424(3) 0.3620(3) 0.2234(3)
K1 K 0.42966(6) 0.37517(5) 0.36772(5)
K2 K 1.07206(6) 0.28293(5) 0.33630(5)
C1 C 0.5480(3) 0.2543(2) 0.1663(2)
C2 C 0.7030(3) 0.2429(2) 0.0680(2)
H1 H 0.6970 0.2340 0.0018
C3 C 0.6889(3) 0.1590(2) 0.1219(2)
H2 H 0.6743 0.1116 0.0805
C4 C 0.8672(3) 0.2157(2) 0.1548(2)
C5 C 0.5411(3) 0.1138(2) 0.2389(2)
H3 H 0.5496 0.0586 0.2115
H4 H 0.4613 0.1259 0.2418
C6 C 0.8251(3) 0.0800(2) 0.2284(2)
H5 H 0.7898 0.0292 0.2048
H6 H 0.9058 0.0716 0.2271
C7 C 0.5471(3) 0.1611(2) 0.4002(2)
C8 C 0.6846(3) 0.0626(2) 0.3603(2)
H7 H 0.6735 0.0021 0.3503
C9 C 0.6964(3) 0.0838(2) 0.4636(2)
H8 H 0.6790 0.0351 0.5021
C10 C 0.8667(3) 0.1141(2) 0.3897(2)
C11 C 0.5818(3) 0.1802(2) 0.5661(2)
H9 H 0.5953 0.1352 0.6099
H10 H 0.5016 0.1913 0.5647
C12 C 0.8626(3) 0.1396(2) 0.5564(2)
H11 H 0.9433 0.1314 0.5539
H12 H 0.8348 0.1059 0.6068
C13 C 0.6020(3) 0.3349(2) 0.5776(2)
C14 C 0.7532(3) 0.2558(2) 0.6361(2)
H13 H 0.7561 0.2260 0.6948
C15 C 0.7774(3) 0.3513(2) 0.6487(2)
H14 H 0.7845 0.3666 0.7135
C16 C 0.9203(3) 0.2894(2) 0.5612(2)
C17 C 0.6590(3) 0.4809(2) 0.6053(2)
H15 H 0.6928 0.5055 0.6598
H16 H 0.5785 0.4897 0.6086
C18 C 0.9397(3) 0.4409(2) 0.5894(2)
H17 H 1.0194 0.4302 0.5824
H18 H 0.9304 0.4740 0.6447
C19 C 0.6360(3) 0.5368(2) 0.4484(2)
C20 C 0.8141(3) 0.5559(2) 0.5176(2)
H19 H 0.8327 0.5974 0.5650
C21 C 0.8147(2) 0.5958(2) 0.4198(2)
H20 H 0.8308 0.6563 0.4217
C22 C 0.9527(2) 0.4897(2) 0.4282(2)
C23 C 0.6600(3) 0.6040(2) 0.2969(2)
H21 H 0.6931 0.6579 0.2814
H22 H 0.5793 0.6117 0.3000
C24 C 0.9441(3) 0.5683(2) 0.2824(2)
H23 H 1.0239 0.5558 0.2808
H24 H 0.9351 0.6282 0.2716
C25 C 0.6077(3) 0.4861(2) 0.1946(2)
C26 C 0.7823(3) 0.5483(2) 0.1670(2)
H25 H 0.7889 0.6035 0.1373
C27 C 0.7602(3) 0.4761(2) 0.0954(2)
H26 H 0.7586 0.4982 0.0327
C28 C 0.9292(3) 0.4487(2) 0.1746(2)
C29 C 0.5880(3) 0.3800(2) 0.0721(2)
H27 H 0.5084 0.3910 0.0792
H28 H 0.6048 0.3843 0.0074
C30 C 0.8716(3) 0.3435(2) 0.0584(2)
H29 H 0.8457 0.3522 -0.0041
H30 H 0.9516 0.3319 0.0566
N1 N 0.6113(2) 0.29494(19) 0.10211(19)
N2 N 0.5931(2) 0.1753(2) 0.1803(2)
N3 N 0.8150(2) 0.27112(19) 0.09533(19)
N4 N 0.7961(2) 0.14960(19) 0.1691(2)
N5 N 0.5864(2) 0.1111(2) 0.33163(19)
N6 N 0.6161(2) 0.15194(19) 0.47637(18)
N7 N 0.7914(2) 0.0918(2) 0.32225(19)
N8 N 0.8133(2) 0.10861(19) 0.47275(19)
N9 N 0.6401(2) 0.25531(19) 0.59720(19)
N10 N 0.6808(2) 0.39190(19) 0.60553(19)
N11 N 0.8406(2) 0.22778(19) 0.57622(19)
N12 N 0.8832(2) 0.36191(19) 0.60078(18)
N13 N 0.7008(2) 0.52523(19) 0.52597(18)
N14 N 0.7015(2) 0.57837(19) 0.38574(18)
N15 N 0.8998(2) 0.49017(19) 0.51128(18)
N16 N 0.9024(2) 0.54851(18) 0.37297(18)
N17 N 0.6846(2) 0.54379(18) 0.22417(18)
N18 N 0.6512(2) 0.4444(2) 0.12147(18)
N19 N 0.8878(2) 0.5222(2) 0.20910(19)
N20 N 0.8541(2) 0.4198(2) 0.10960(18)
O5 O 0.46473(19) 0.28299(17) 0.20307(16)
O6 O 0.4630(2) 0.20547(17) 0.39718(17)
O7 O 0.50968(19) 0.35201(16) 0.54342(16)
O8 O 0.53810(19) 0.51711(16) 0.43806(16)
O9 O 0.51377(19) 0.47425(16) 0.22740(16)
O10 O 0.96121(19) 0.22371(17) 0.18660(17)
O11 O 0.96443(18) 0.13326(16) 0.37889(16)
O12 O 1.00844(18) 0.27923(17) 0.52137(16)
O13 O 1.03222(19) 0.44559(16) 0.40689(15)
O14 O 1.01685(19) 0.41492(17) 0.19599(16)
C31 C 0.9248(3) 0.1724(3) 0.8966(3)
C32 C 1.0193(3) 0.1794(3) 0.9538(3)
H31 H 1.0654 0.2265 0.9499
C33 C 1.0442(3) 0.1169(3) 1.0156(3)
H32 H 1.1070 0.1227 1.0535
C34 C 0.9782(4) 0.0452(3) 1.0232(3)
H33 H 0.9959 0.0025 1.0644
C35 C 0.8851(4) 0.0406(3) 0.9664(3)
C36 C 0.8564(3) 0.1032(3) 0.9039(3)
H34 H 0.7921 0.0983 0.8676
N21 N 0.8114(4) -0.0331(3) 0.9714(3)
O15 O 0.8927(3) 0.2321(2) 0.8342(2)
H35 H 0.9384 0.2707 0.8346
O16 O 0.8513(3) -0.0998(3) 1.0033(3)
O17 O 0.7139(3) -0.0270(3) 0.9442(3)
C37 C 0.3896(3) 0.1954(3) 0.9795(3)
C38 C 0.3749(3) 0.2736(3) 0.9394(3)
H36 H 0.3205 0.3107 0.9605
C39 C 0.4426(3) 0.2953(2) 0.8676(2)
C40 C 0.5268(3) 0.2439(3) 0.8334(3)
H37 H 0.5716 0.2606 0.7849
C41 C 0.5403(3) 0.1659(3) 0.8757(3)
H38 H 0.5958 0.1294 0.8552
C42 C 0.4734(3) 0.1416(3) 0.9474(3)
H39 H 0.4840 0.0892 0.9746
N22 N 0.4268(3) 0.3800(2) 0.8259(2)
O18 O 0.3204(3) 0.1746(2) 1.0504(2)
H40 H 0.3352 0.1269 1.0682
O19 O 0.4730(3) 0.3943(2) 0.75331(19)
O20 O 0.3682(3) 0.4301(2) 0.8656(2)
N23 N 0.1186(4) 0.3365(3) 0.7641(3)
O21 O 0.1741(3) 0.3869(2) 0.7171(3)
O22 O 0.1496(3) 0.2626(2) 0.7724(2)
O23 O 0.0240(3) 0.3630(3) 0.7980(3)
N24 N 0.2910(4) -0.0205(3) 0.1427(2)
O24 O 0.2837(3) -0.0980(2) 0.1368(2)
O25 O 0.3707(3) 0.0164(3) 0.1039(2)
O26 O 0.2177(4) 0.0203(3) 0.1861(3)
loop_
_geom_bond_atom_site_label_1
_geom_bond_atom_site_label_2
_geom_bond_site_symmetry_1
_geom_bond_site_symmetry_2
C1 N1 1_555 1_555
C2 H1 1_555 1_555
C3 C2 1_555 1_555
H2 C3 1_555 1_555
C4 N3 1_555 1_555
C5 H3 1_555 1_555
H4 C5 1_555 1_555
C6 H5 1_555 1_555
H6 C6 1_555 1_555
C7 N5 1_555 1_555
C8 H7 1_555 1_555
C9 C8 1_555 1_555
H8 C9 1_555 1_555
C10 N7 1_555 1_555
C11 H9 1_555 1_555
H10 C11 1_555 1_555
C12 H11 1_555 1_555
H12 C12 1_555 1_555
C13 N9 1_555 1_555
C14 H13 1_555 1_555
C15 C14 1_555 1_555
H14 C15 1_555 1_555
C16 N11 1_555 1_555
C17 H15 1_555 1_555
H16 C17 1_555 1_555
C18 H17 1_555 1_555
H18 C18 1_555 1_555
C19 N13 1_555 1_555
C20 H19 1_555 1_555
C21 C20 1_555 1_555
H20 C21 1_555 1_555
C22 N15 1_555 1_555
C23 H21 1_555 1_555
H22 C23 1_555 1_555
C24 H23 1_555 1_555
H24 C24 1_555 1_555
C25 N17 1_555 1_555
C26 H25 1_555 1_555
C27 C26 1_555 1_555
H26 C27 1_555 1_555
C28 N19 1_555 1_555
C29 H27 1_555 1_555
H28 C29 1_555 1_555
C30 H29 1_555 1_555
H30 C30 1_555 1_555
N1 C2 1_555 1_555
N2 C1 1_555 1_555
N3 C2 1_555 1_555
N4 C3 1_555 1_555
N5 C5 1_555 1_555
N6 C7 1_555 1_555
N7 C6 1_555 1_555
N8 C9 1_555 1_555
N9 C11 1_555 1_555
N10 C13 1_555 1_555
N11 C12 1_555 1_555
N12 C15 1_555 1_555
N13 C17 1_555 1_555
N14 C19 1_555 1_555
N15 C18 1_555 1_555
N16 C21 1_555 1_555
N17 C23 1_555 1_555
N18 C25 1_555 1_555
N19 C24 1_555 1_555
N20 C27 1_555 1_555
O5 C1 1_555 1_555
O6 C7 1_555 1_555
O7 C13 1_555 1_555
O8 C19 1_555 1_555
O9 C25 1_555 1_555
O10 C4 1_555 1_555
O11 C10 1_555 1_555
O12 C16 1_555 1_555
O13 C22 1_555 1_555
O14 C28 1_555 1_555
C31 C32 1_555 1_555
C32 H31 1_555 1_555
C33 C32 1_555 1_555
H32 C33 1_555 1_555
C34 C33 1_555 1_555
H33 C34 1_555 1_555
C35 C34 1_555 1_555
C36 C31 1_555 1_555
H34 C36 1_555 1_555
N21 C35 1_555 1_555
O15 C31 1_555 1_555
H35 O15 1_555 1_555
O16 N21 1_555 1_555
O17 N21 1_555 1_555
C37 C38 1_555 1_555
C38 H36 1_555 1_555
C39 C38 1_555 1_555
C40 C39 1_555 1_555
H37 C40 1_555 1_555
C41 C40 1_555 1_555
H38 C41 1_555 1_555
C42 C37 1_555 1_555
H39 C42 1_555 1_555
N22 C39 1_555 1_555
O18 C37 1_555 1_555
H40 O18 1_555 1_555
O19 N22 1_555 1_555
O20 N22 1_555 1_555
N23 O21 1_555 1_555
O22 N23 1_555 1_555
O23 N23 1_555 1_555
N24 O24 1_555 1_555
O25 N24 1_555 1_555
O26 N24 1_555 1_555
C3 N2 1_555 1_555
C4 N4 1_555 1_555
C5 N2 1_555 1_555
C6 N4 1_555 1_555
C8 N5 1_555 1_555
C8 N7 1_555 1_555
C9 N6 1_555 1_555
C10 N8 1_555 1_555
C11 N6 1_555 1_555
C12 N8 1_555 1_555
C14 N9 1_555 1_555
C14 N11 1_555 1_555
C15 N10 1_555 1_555
C16 N12 1_555 1_555
C17 N10 1_555 1_555
C18 N12 1_555 1_555
C20 N13 1_555 1_555
C20 N15 1_555 1_555
C21 N14 1_555 1_555
C22 N16 1_555 1_555
C23 N14 1_555 1_555
C24 N16 1_555 1_555
C26 N17 1_555 1_555
C26 N19 1_555 1_555
C27 N18 1_555 1_555
C28 N20 1_555 1_555
C29 N1 1_555 1_555
C29 N18 1_555 1_555
C30 N3 1_555 1_555
C30 N20 1_555 1_555
C35 C36 1_555 1_555
C41 C42 1_555 1_555

#END
