
#######################################################################
#
#                 Cambridge Crystallographic Data Centre
#                                CCDC 
#
#######################################################################
#
# If this CIF has been generated from an entry in the Cambridge 
# Structural Database, then it will include bibliographic, chemical, 
# crystal, experimental, refinement or atomic coordinate data resulting 
# from the CCDC's data processing and validation procedures.
#
#######################################################################

data_PAQCER
_chemical_formula_moiety         
'C6 H5 N1 O3,C30 H30 N20 O10,2(K1 1+),2(I1 1-),9(H2 O1)'
_chemical_name_systematic        
'di-potassium cucurbit[5]uril bis(iodide) 3-nitrophenol nonahydrate'
_symmetry_cell_setting           orthorhombic
_symmetry_space_group_name_H-M   'P n a 21'
_symmetry_Int_Tables_number      33
_space_group_name_Hall           'P 2c -2n'
loop_
_symmetry_equiv_pos_site_id
_symmetry_equiv_pos_as_xyz
1 x,y,z
2 -x,-y,1/2+z
3 1/2+x,1/2-y,z
4 1/2-x,1/2+y,1/2+z
_cell_length_a                   11.7842(16)
_cell_length_b                   24.518(3)
_cell_length_c                   18.522(3)
_cell_angle_alpha                90
_cell_angle_beta                 90
_cell_angle_gamma                90
_cell_volume                     5351.47
_exptl_crystal_colour            colorless
_exptl_crystal_description       prism
_cell_formula_units_Z            4
loop_
_atom_site_label
_atom_site_type_symbol
_atom_site_fract_x
_atom_site_fract_y
_atom_site_fract_z
O1 O 0.2437(3) 0.44816(17) 0.0165(2)
O2 O 1.2553(3) 0.53103(16) 0.1631(3)
O3 O 1.2432(4) 0.4195(3) 0.2548(3)
K1 K 0.43128(9) 0.47607(4) 0.09301(6)
K2 K 1.06985(9) 0.47027(5) 0.17563(6)
I1 I 0.41960(7) 0.26868(4) 0.33653(6)
I2 I 0.53352(6) 0.25242(3) -0.09579(4)
C1 C 0.5417(4) 0.75326(19) 0.0555(3)
C2 C 0.5430(5) 0.7670(2) 0.1287(3)
H1 H 0.5984 0.7912 0.1463
C3 C 0.4647(5) 0.7456(2) 0.1747(3)
H2 H 0.4653 0.7562 0.2234
C4 C 0.3845(4) 0.7085(2) 0.1514(3)
H3 H 0.3311 0.6932 0.1832
C5 C 0.3866(4) 0.69510(18) 0.0792(3)
C6 C 0.4627(4) 0.71679(18) 0.0301(3)
H4 H 0.4604 0.7069 -0.0189
N1 N 0.3080(3) 0.65161(15) 0.0509(2)
O4 O 0.6202(3) 0.77619(16) 0.0114(2)
H5 H 0.6580 0.7988 0.0344
O5 O 0.3216(3) 0.63601(14) -0.00967(19)
O6 O 0.2355(3) 0.63453(15) 0.0932(2)
C7 C 0.6354(4) 0.51635(18) -0.0483(3)
C8 C 0.8092(4) 0.55954(18) -0.0685(2)
H6 H 0.8211 0.5858 -0.1084
C9 C 0.8177(4) 0.49898(16) -0.0955(3)
H7 H 0.8352 0.4969 -0.1477
C10 C 0.9583(4) 0.51382(19) -0.0063(3)
C11 C 0.6665(4) 0.42314(16) -0.0940(3)
H8 H 0.5843 0.4235 -0.1022
H9 H 0.7025 0.4109 -0.1389
C12 C 0.9496(4) 0.42123(17) -0.0601(3)
H10 H 0.9388 0.4099 -0.1104
H11 H 1.0313 0.4209 -0.0501
C13 C 0.6139(4) 0.37075(17) 0.0158(2)
C14 C 0.7946(4) 0.35266(18) -0.0353(3)
H12 H 0.8071 0.3317 -0.0803
C15 C 0.7732(4) 0.31415(18) 0.0313(3)
H13 H 0.7690 0.2753 0.0169
C16 C 0.9394(4) 0.36475(19) 0.0506(3)
C17 C 0.5999(4) 0.3060(2) 0.1154(3)
H14 H 0.5189 0.3077 0.1035
H15 H 0.6222 0.2675 0.1159
C18 C 0.8845(4) 0.30261(18) 0.1500(3)
H16 H 0.8594 0.2645 0.1502
H17 H 0.9653 0.3031 0.1627
C19 C 0.5506(4) 0.36888(19) 0.2147(3)
C20 C 0.7126(4) 0.31559(17) 0.2321(3)
H18 H 0.7133 0.2765 0.2455
C21 C 0.6951(4) 0.35172(17) 0.2985(2)
H19 H 0.6810 0.3297 0.3424
C22 C 0.8737(4) 0.36807(17) 0.2506(3)
C23 C 0.5427(4) 0.42286(17) 0.3277(3)
H20 H 0.5514 0.4102 0.3776
H21 H 0.4613 0.4242 0.3169
C24 C 0.8313(4) 0.42133(17) 0.3599(3)
H22 H 0.7978 0.4093 0.4056
H23 H 0.9140 0.4214 0.3659
C25 C 0.5392(4) 0.51687(19) 0.2807(3)
C26 C 0.6815(4) 0.49798(18) 0.3642(3)
H24 H 0.6657 0.4942 0.4164
C27 C 0.6909(4) 0.55843(16) 0.3412(3)
H25 H 0.6825 0.5833 0.3830
C28 C 0.8631(4) 0.51432(17) 0.3151(2)
C29 C 0.5711(4) 0.61399(18) 0.2505(3)
H26 H 0.4899 0.6141 0.2390
H27 H 0.5865 0.6456 0.2814
C30 C 0.8549(4) 0.61293(18) 0.2848(3)
H28 H 0.9364 0.6115 0.2952
H29 H 0.8227 0.6433 0.3125
C31 C 0.5922(4) 0.60480(16) 0.1179(2)
C32 C 0.7412(4) 0.65013(17) 0.1778(3)
H30 H 0.7328 0.6877 0.1966
C33 C 0.7649(4) 0.65033(17) 0.0959(3)
H31 H 0.7712 0.6878 0.0762
C34 C 0.9158(4) 0.60675(18) 0.1565(3)
C35 C 0.6463(4) 0.61252(18) -0.0103(2)
H32 H 0.5642 0.6109 -0.0183
H33 H 0.6756 0.6440 -0.0370
C36 C 0.9347(4) 0.61127(18) 0.0229(3)
H34 H 0.9225 0.6427 -0.0088
H35 H 1.0160 0.6093 0.0338
N2 N 0.6972(3) 0.56361(15) -0.0392(2)
N3 N 0.7031(3) 0.47808(15) -0.0793(2)
N4 N 0.9015(3) 0.56213(15) -0.0151(2)
N5 N 0.9081(3) 0.47624(15) -0.0517(2)
N6 N 0.6912(3) 0.38410(15) -0.0383(2)
N7 N 0.6642(3) 0.33421(14) 0.0588(2)
N8 N 0.8949(3) 0.38228(16) -0.0138(2)
N9 N 0.8704(3) 0.32483(14) 0.0777(2)
N10 N 0.6163(3) 0.32829(15) 0.1864(2)
N11 N 0.5973(3) 0.38398(16) 0.2791(2)
N12 N 0.8216(3) 0.33253(14) 0.2042(2)
N13 N 0.8015(3) 0.38221(14) 0.3037(2)
N14 N 0.5904(3) 0.47783(15) 0.3213(2)
N15 N 0.5977(3) 0.56430(15) 0.2906(2)
N16 N 0.7940(3) 0.47620(14) 0.3450(2)
N17 N 0.8032(3) 0.56273(15) 0.3087(2)
N18 N 0.6353(3) 0.61987(15) 0.1837(2)
N19 N 0.6673(3) 0.62080(14) 0.0659(2)
N20 N 0.8392(3) 0.62375(14) 0.2082(2)
N21 N 0.8725(3) 0.61972(14) 0.0897(2)
O7 O 0.5349(3) 0.51024(12) -0.03116(19)
O8 O 0.5184(3) 0.38941(13) 0.02045(19)
O9 O 0.4633(3) 0.38758(13) 0.18821(19)
O10 O 0.4538(3) 0.51130(14) 0.2433(2)
O11 O 0.5030(3) 0.58187(12) 0.10850(19)
O12 O 1.0385(3) 0.50553(14) 0.03351(19)
O13 O 1.0263(3) 0.38167(14) 0.07844(19)
O14 O 0.9724(3) 0.38505(13) 0.2438(2)
O15 O 0.9616(3) 0.50805(12) 0.29729(17)
O16 O 1.0066(3) 0.58527(13) 0.16805(19)
I3? I 0.5996(3) 0.22384(15) -0.0789(2)
loop_
_geom_bond_atom_site_label_1
_geom_bond_atom_site_label_2
_geom_bond_site_symmetry_1
_geom_bond_site_symmetry_2
C1 C2 1_555 1_555
C2 H1 1_555 1_555
C3 C2 1_555 1_555
H2 C3 1_555 1_555
C4 C3 1_555 1_555
H3 C4 1_555 1_555
C5 C4 1_555 1_555
C6 C1 1_555 1_555
H4 C6 1_555 1_555
N1 C5 1_555 1_555
O4 C1 1_555 1_555
H5 O4 1_555 1_555
O5 N1 1_555 1_555
O6 N1 1_555 1_555
C7 N2 1_555 1_555
C8 H6 1_555 1_555
C9 C8 1_555 1_555
H7 C9 1_555 1_555
C10 N4 1_555 1_555
C11 H8 1_555 1_555
H9 C11 1_555 1_555
C12 H10 1_555 1_555
H11 C12 1_555 1_555
C13 N6 1_555 1_555
C14 H12 1_555 1_555
C15 C14 1_555 1_555
H13 C15 1_555 1_555
C16 N8 1_555 1_555
C17 H14 1_555 1_555
H15 C17 1_555 1_555
C18 H16 1_555 1_555
H17 C18 1_555 1_555
C19 N10 1_555 1_555
C20 H18 1_555 1_555
C21 C20 1_555 1_555
H19 C21 1_555 1_555
C22 N12 1_555 1_555
C23 H20 1_555 1_555
H21 C23 1_555 1_555
C24 H22 1_555 1_555
H23 C24 1_555 1_555
C25 N14 1_555 1_555
C26 H24 1_555 1_555
C27 C26 1_555 1_555
H25 C27 1_555 1_555
C28 N16 1_555 1_555
C29 H26 1_555 1_555
H27 C29 1_555 1_555
C30 H28 1_555 1_555
H29 C30 1_555 1_555
C31 N18 1_555 1_555
C32 H30 1_555 1_555
C33 C32 1_555 1_555
H31 C33 1_555 1_555
C34 N20 1_555 1_555
C35 H32 1_555 1_555
H33 C35 1_555 1_555
C36 H34 1_555 1_555
H35 C36 1_555 1_555
N2 C8 1_555 1_555
N3 C7 1_555 1_555
N4 C8 1_555 1_555
N5 C9 1_555 1_555
N6 C11 1_555 1_555
N7 C13 1_555 1_555
N8 C12 1_555 1_555
N9 C15 1_555 1_555
N10 C17 1_555 1_555
N11 C19 1_555 1_555
N12 C18 1_555 1_555
N13 C21 1_555 1_555
N14 C23 1_555 1_555
N15 C25 1_555 1_555
N16 C24 1_555 1_555
N17 C27 1_555 1_555
N18 C29 1_555 1_555
N19 C31 1_555 1_555
N20 C30 1_555 1_555
N21 C33 1_555 1_555
O7 C7 1_555 1_555
O8 C13 1_555 1_555
O9 C19 1_555 1_555
O10 C25 1_555 1_555
O11 C31 1_555 1_555
O12 C10 1_555 1_555
O13 C16 1_555 1_555
O14 C22 1_555 1_555
O15 C28 1_555 1_555
O16 C34 1_555 1_555
C5 C6 1_555 1_555
C9 N3 1_555 1_555
C10 N5 1_555 1_555
C11 N3 1_555 1_555
C12 N5 1_555 1_555
C14 N6 1_555 1_555
C14 N8 1_555 1_555
C15 N7 1_555 1_555
C16 N9 1_555 1_555
C17 N7 1_555 1_555
C18 N9 1_555 1_555
C20 N10 1_555 1_555
C20 N12 1_555 1_555
C21 N11 1_555 1_555
C22 N13 1_555 1_555
C23 N11 1_555 1_555
C24 N13 1_555 1_555
C26 N14 1_555 1_555
C26 N16 1_555 1_555
C27 N15 1_555 1_555
C28 N17 1_555 1_555
C29 N15 1_555 1_555
C30 N17 1_555 1_555
C32 N18 1_555 1_555
C32 N20 1_555 1_555
C33 N19 1_555 1_555
C34 N21 1_555 1_555
C35 N2 1_555 1_555
C35 N19 1_555 1_555
C36 N4 1_555 1_555
C36 N21 1_555 1_555

#END
