
#######################################################################
#
#                 Cambridge Crystallographic Data Centre
#                                CCDC 
#
#######################################################################
#
# If this CIF has been generated from an entry in the Cambridge 
# Structural Database, then it will include bibliographic, chemical, 
# crystal, experimental, refinement or atomic coordinate data resulting 
# from the CCDC's data processing and validation procedures.
#
#######################################################################

data_PAQCAN
_chemical_formula_moiety         
'2(C6 H5 N1 O3),C30 H30 N20 O10,2(K1 1+),7(H2 O1),2(N1 O3 1-)'
_chemical_name_systematic        
'di-potassium cucurbit[5]uril dinitrate bis(4-nitrophenol) heptahydrate'
_symmetry_cell_setting           orthorhombic
_symmetry_space_group_name_H-M   'P 21 21 21'
_symmetry_Int_Tables_number      19
_space_group_name_Hall           'P 2ac 2ab'
loop_
_symmetry_equiv_pos_site_id
_symmetry_equiv_pos_as_xyz
1 x,y,z
2 1/2-x,-y,1/2+z
3 1/2+x,1/2-y,-z
4 -x,1/2+y,1/2-z
_cell_length_a                   12.0327(18)
_cell_length_b                   16.188(2)
_cell_length_c                   28.931(4)
_cell_angle_alpha                90
_cell_angle_beta                 90
_cell_angle_gamma                90
_cell_volume                     5635.33
_exptl_crystal_colour            colorless
_exptl_crystal_description       prism
_cell_formula_units_Z            4
loop_
_atom_site_label
_atom_site_type_symbol
_atom_site_fract_x
_atom_site_fract_y
_atom_site_fract_z
K1 K 1.07297(8) 0.06034(6) 0.31727(3)
K2 K 0.42420(8) -0.01935(6) 0.32183(4)
O1 O 0.1988(3) 0.0673(2) -0.07339(12)
O2 O 0.2371(3) -0.1165(2) 0.33592(11)
O3 O 1.2630(3) 0.0845(2) 0.26744(13)
O4 O 1.2112(4) 0.0847(3) 0.39727(15)
O5 O 0.8049(4) 0.4667(3) 0.29593(16)
C1 C 0.9399(4) -0.1481(2) 0.28926(14)
C2 C 0.7982(3) -0.2453(2) 0.30396(14)
H1 H 0.8090 -0.3058 0.3060
C3 C 0.7914(3) -0.2160(2) 0.25310(14)
H2 H 0.8065 -0.2616 0.2312
C4 C 0.6233(3) -0.1882(2) 0.29039(14)
C5 C 0.9150(4) -0.1184(2) 0.20607(13)
H3 H 0.9955 -0.1098 0.2081
H4 H 0.9016 -0.1593 0.1817
C6 C 0.6329(4) -0.1490(2) 0.20801(14)
H5 H 0.6580 -0.1803 0.1810
H6 H 0.5517 -0.1532 0.2093
C7 C 0.9015(3) 0.0338(2) 0.20841(13)
C8 C 0.7525(3) -0.0339(2) 0.17261(14)
H7 H 0.7497 -0.0593 0.1415
C9 C 0.7341(3) 0.0608(2) 0.17025(13)
H8 H 0.7347 0.0813 0.1380
C10 C 0.5845(4) -0.0016(3) 0.21056(14)
C11 C 0.8554(3) 0.1808(2) 0.19975(13)
H9 H 0.9365 0.1864 0.1991
H10 H 0.8257 0.2091 0.1725
C12 C 0.5755(4) 0.1496(2) 0.20166(14)
H11 H 0.4948 0.1423 0.2036
H12 H 0.5908 0.1875 0.1760
C13 C 0.8726(4) 0.2244(2) 0.28144(14)
C14 C 0.6993(3) 0.2512(2) 0.24650(14)
H13 H 0.6828 0.2967 0.2247
C15 C 0.6957(3) 0.2810(2) 0.29683(14)
H14 H 0.6857 0.3416 0.2989
C16 C 0.5531(3) 0.1843(2) 0.28441(14)
C17 C 0.8448(4) 0.2761(2) 0.36115(14)
H15 H 0.9258 0.2814 0.3598
H16 H 0.8143 0.3298 0.3702
C18 C 0.5598(4) 0.2444(2) 0.36266(14)
H17 H 0.5674 0.3020 0.3727
H18 H 0.4804 0.2308 0.3628
C19 C 0.8873(4) 0.1548(2) 0.40884(14)
C20 C 0.7134(4) 0.2149(3) 0.42204(14)
H19 H 0.7019 0.2674 0.4389
C21 C 0.7279(4) 0.1408(3) 0.45604(15)
H20 H 0.7260 0.1587 0.4887
C22 C 0.5690(4) 0.1184(3) 0.41017(14)
C23 C 0.8928(4) 0.0400(2) 0.46571(14)
H21 H 0.8713 0.0396 0.4984
H22 H 0.9732 0.0493 0.4642
C24 C 0.6123(4) 0.0100(3) 0.46756(15)
H23 H 0.5318 0.0010 0.4671
H24 H 0.6353 0.0145 0.5000
C25 C 0.9329(4) -0.0752(2) 0.41216(14)
C26 C 0.7744(4) -0.0922(3) 0.45982(14)
H25 H 0.7781 -0.1066 0.4930
C27 C 0.7882(4) -0.1699(3) 0.42838(14)
H26 H 0.7990 -0.2204 0.4472
C28 C 0.6149(4) -0.1098(3) 0.41341(13)
C29 C 0.9386(3) -0.2064(2) 0.36854(13)
H27 H 0.9286 -0.2633 0.3793
H28 H 1.0186 -0.1951 0.3679
C30 C 0.6561(4) -0.2368(2) 0.37025(14)
H29 H 0.5751 -0.2429 0.3701
H30 H 0.6881 -0.2894 0.3805
N1 N 0.8954(3) -0.19994(19) 0.32181(11)
N2 N 0.8752(3) -0.1521(2) 0.25030(11)
N3 N 0.6932(3) -0.2202(2) 0.32376(12)
N4 N 0.6789(3) -0.1867(2) 0.24928(11)
N5 N 0.8625(3) -0.0412(2) 0.19303(11)
N6 N 0.8268(3) 0.0930(2) 0.19692(11)
N7 N 0.6628(3) -0.0632(2) 0.20170(12)
N8 N 0.6264(3) 0.07076(19) 0.19171(11)
N9 N 0.8134(3) 0.2210(2) 0.24078(11)
N10 N 0.8035(3) 0.2547(2) 0.31558(12)
N11 N 0.6146(3) 0.1867(2) 0.24431(11)
N12 N 0.6017(3) 0.2369(2) 0.31580(12)
N13 N 0.8161(3) 0.2158(2) 0.39595(12)
N14 N 0.8369(3) 0.1079(2) 0.44291(12)
N15 N 0.6159(3) 0.1920(2) 0.39541(12)
N16 N 0.6361(3) 0.0863(2) 0.44487(12)
N17 N 0.8679(3) -0.0402(2) 0.44578(12)
N18 N 0.8870(3) -0.1513(2) 0.40128(12)
N19 N 0.6668(3) -0.0621(2) 0.44711(12)
N20 N 0.6858(3) -0.1737(2) 0.40283(12)
O6 O 1.0248(2) -0.10638(18) 0.29436(10)
O7 O 0.9906(2) 0.04484(17) 0.22861(10)
O8 O 0.9702(2) 0.20472(17) 0.28637(10)
O9 O 0.9807(3) 0.14307(18) 0.39357(10)
O10 O 1.0171(2) -0.04565(17) 0.39549(10)
O11 O 0.5268(2) -0.16656(18) 0.29667(10)
O12 O 0.4976(2) -0.01016(19) 0.23038(11)
O13 O 0.4700(2) 0.14363(18) 0.29091(10)
O14 O 0.4836(3) 0.08675(18) 0.39569(11)
O15 O 0.5224(2) -0.09817(17) 0.39805(10)
C31 C 0.9904(4) 0.4363(3) 0.41770(15)
H31 H 1.0373 0.4499 0.3929
C32 C 1.0040(4) 0.3623(3) 0.44137(16)
H32 H 1.0599 0.3248 0.4328
C33 C 0.9326(5) 0.3447(3) 0.47827(16)
C34 C 0.8521(5) 0.3981(3) 0.49086(17)
H33 H 0.8046 0.3847 0.5155
C35 C 0.8389(5) 0.4712(3) 0.46816(17)
H34 H 0.7840 0.5090 0.4775
C36 C 0.9076(4) 0.4892(3) 0.43111(14)
N21 N 0.8907(4) 0.5678(2) 0.40703(14)
O16 O 0.9497(4) 0.2704(2) 0.49933(13)
H39 H 0.9047 0.2648 0.5209
O17 O 0.9385(4) 0.5780(2) 0.37025(12)
O18 O 0.8309(3) 0.6201(2) 0.42467(13)
C37 C 0.3899(4) 0.1770(3) -0.01409(15)
H35 H 0.3321 0.1543 -0.0318
C38 C 0.4410(4) 0.1319(3) 0.01975(15)
H36 H 0.4177 0.0775 0.0257
C39 C 0.5279(4) 0.1663(3) 0.04563(16)
C40 C 0.5630(4) 0.2468(3) 0.03711(15)
H37 H 0.6223 0.2694 0.0541
C41 C 0.5105(4) 0.2933(3) 0.00363(15)
H38 H 0.5320 0.3482 -0.0019
C42 C 0.4260(4) 0.2576(3) -0.02148(13)
N22 N 0.3705(3) 0.30853(18) -0.05821(11)
O19 O 0.5823(3) 0.1230(2) 0.07903(12)
H40 H 0.5552 0.0760 0.0811
O20 O 0.3164(3) 0.2714(2) -0.08662(10)
O21 O 0.3851(3) 0.38235(17) -0.05737(12)
N23 N 0.7800(5) 0.2029(3) 0.58581(17)
O22 O 0.7986(5) 0.1369(3) 0.56863(16)
O23 O 0.7146(4) 0.2117(3) 0.62084(16)
O24 O 0.8205(6) 0.2677(3) 0.5724(2)
N24 N 0.3926(4) -0.0052(3) 0.12046(17)
O25 O 0.3269(4) -0.0630(2) 0.12689(14)
O26 O 0.4849(4) -0.0206(2) 0.09797(17)
O27 O 0.3701(4) 0.0652(2) 0.13705(16)
loop_
_geom_bond_atom_site_label_1
_geom_bond_atom_site_label_2
_geom_bond_site_symmetry_1
_geom_bond_site_symmetry_2
C1 N1 1_555 1_555
C2 H1 1_555 1_555
C3 C2 1_555 1_555
H2 C3 1_555 1_555
C4 N3 1_555 1_555
C5 H3 1_555 1_555
H4 C5 1_555 1_555
C6 H5 1_555 1_555
H6 C6 1_555 1_555
C7 N5 1_555 1_555
C8 H7 1_555 1_555
C9 C8 1_555 1_555
H8 C9 1_555 1_555
C10 N7 1_555 1_555
C11 H9 1_555 1_555
H10 C11 1_555 1_555
C12 H11 1_555 1_555
H12 C12 1_555 1_555
C13 N9 1_555 1_555
C14 H13 1_555 1_555
C15 C14 1_555 1_555
H14 C15 1_555 1_555
C16 N11 1_555 1_555
C17 H15 1_555 1_555
H16 C17 1_555 1_555
C18 H17 1_555 1_555
H18 C18 1_555 1_555
C19 N13 1_555 1_555
C20 H19 1_555 1_555
C21 C20 1_555 1_555
H20 C21 1_555 1_555
C22 N15 1_555 1_555
C23 H21 1_555 1_555
H22 C23 1_555 1_555
C24 H23 1_555 1_555
H24 C24 1_555 1_555
C25 N17 1_555 1_555
C26 H25 1_555 1_555
C27 C26 1_555 1_555
H26 C27 1_555 1_555
C28 N19 1_555 1_555
C29 H27 1_555 1_555
H28 C29 1_555 1_555
C30 H29 1_555 1_555
H30 C30 1_555 1_555
N1 C2 1_555 1_555
N2 C1 1_555 1_555
N3 C2 1_555 1_555
N4 C3 1_555 1_555
N5 C5 1_555 1_555
N6 C7 1_555 1_555
N7 C6 1_555 1_555
N8 C9 1_555 1_555
N9 C11 1_555 1_555
N10 C13 1_555 1_555
N11 C12 1_555 1_555
N12 C15 1_555 1_555
N13 C17 1_555 1_555
N14 C19 1_555 1_555
N15 C18 1_555 1_555
N16 C21 1_555 1_555
N17 C23 1_555 1_555
N18 C25 1_555 1_555
N19 C24 1_555 1_555
N20 C27 1_555 1_555
O6 C1 1_555 1_555
O7 C7 1_555 1_555
O8 C13 1_555 1_555
O9 C19 1_555 1_555
O10 C25 1_555 1_555
O11 C4 1_555 1_555
O12 C10 1_555 1_555
O13 C16 1_555 1_555
O14 C22 1_555 1_555
O15 C28 1_555 1_555
C31 H31 1_555 1_555
C32 C31 1_555 1_555
H32 C32 1_555 1_555
C33 C32 1_555 1_555
C34 C33 1_555 1_555
H33 C34 1_555 1_555
C35 C34 1_555 1_555
H34 C35 1_555 1_555
C36 C31 1_555 1_555
C37 H35 1_555 1_555
C38 C37 1_555 1_555
H36 C38 1_555 1_555
C39 C38 1_555 1_555
C40 C39 1_555 1_555
H37 C40 1_555 1_555
C41 C40 1_555 1_555
H38 C41 1_555 1_555
C42 C37 1_555 1_555
N21 C36 1_555 1_555
N22 C42 1_555 1_555
O16 C33 1_555 1_555
H39 O16 1_555 1_555
O17 N21 1_555 1_555
O18 N21 1_555 1_555
O19 C39 1_555 1_555
H40 O19 1_555 1_555
O20 N22 1_555 1_555
O21 N22 1_555 1_555
N23 O22 1_555 1_555
N24 O25 1_555 1_555
O23 N23 1_555 1_555
O24 N23 1_555 1_555
O26 N24 1_555 1_555
O27 N24 1_555 1_555
C3 N2 1_555 1_555
C4 N4 1_555 1_555
C5 N2 1_555 1_555
C6 N4 1_555 1_555
C8 N5 1_555 1_555
C8 N7 1_555 1_555
C9 N6 1_555 1_555
C10 N8 1_555 1_555
C11 N6 1_555 1_555
C12 N8 1_555 1_555
C14 N9 1_555 1_555
C14 N11 1_555 1_555
C15 N10 1_555 1_555
C16 N12 1_555 1_555
C17 N10 1_555 1_555
C18 N12 1_555 1_555
C20 N13 1_555 1_555
C20 N15 1_555 1_555
C21 N14 1_555 1_555
C22 N16 1_555 1_555
C23 N14 1_555 1_555
C24 N16 1_555 1_555
C26 N17 1_555 1_555
C26 N19 1_555 1_555
C27 N18 1_555 1_555
C28 N20 1_555 1_555
C29 N1 1_555 1_555
C29 N18 1_555 1_555
C30 N3 1_555 1_555
C30 N20 1_555 1_555
C35 C36 1_555 1_555
C41 C42 1_555 1_555

#END
