
#######################################################################
#
#                 Cambridge Crystallographic Data Centre
#                                CCDC 
#
#######################################################################
#
# If this CIF has been generated from an entry in the Cambridge 
# Structural Database, then it will include bibliographic, chemical, 
# crystal, experimental, refinement or atomic coordinate data resulting 
# from the CCDC's data processing and validation procedures.
#
#######################################################################

data_PAQGUM
_chemical_formula_moiety         'C11 H9 Br1 N4 O1 S1'
_chemical_name_systematic        
(E)-4-bromo-N'-(4-methyl-1,2,3-thiadizole-5-yl)methyldenebenzohydrazine
_symmetry_cell_setting           triclinic
_symmetry_space_group_name_H-M   'P -1'
_symmetry_Int_Tables_number      2
_space_group_name_Hall           '-P 1'
loop_
_symmetry_equiv_pos_site_id
_symmetry_equiv_pos_as_xyz
1 x,y,z
2 -x,-y,-z
_cell_length_a                   9.5767(5)
_cell_length_b                   9.6459(7)
_cell_length_c                   13.7997(9)
_cell_angle_alpha                84.771(6)
_cell_angle_beta                 87.927(5)
_cell_angle_gamma                88.623(5)
_cell_volume                     1268.35
_cell_formula_units_Z            4
loop_
_atom_site_label
_atom_site_type_symbol
_atom_site_fract_x
_atom_site_fract_y
_atom_site_fract_z
Br1 Br 0.38745(4) 0.69587(4) 0.08450(3)
S1 S 0.68825(9) -0.40456(9) 0.37746(6)
O1 O 0.7516(2) 0.1027(3) 0.24184(19)
N1 N 0.5849(3) -0.1166(3) 0.2869(2)
C1 C 0.4599(4) 0.5142(4) 0.1206(2)
C2 C 0.6256(3) 0.1167(4) 0.2266(2)
N2 N 0.6337(3) -0.5676(3) 0.4095(2)
N3 N 0.5003(3) -0.5781(3) 0.3993(2)
C3 C 0.4889(3) -0.2060(4) 0.3090(2)
H1 H 0.3957 -0.1807 0.2995
N4 N 0.5363(3) 0.0108(3) 0.2468(2)
H2 H 0.4492 0.0228 0.2347
C4 C 0.5250(3) -0.3460(4) 0.3486(2)
C5 C 0.3725(3) 0.4022(4) 0.1275(3)
H3 H 0.2798 0.4139 0.1100
C6 C 0.6508(3) 0.3682(4) 0.1778(2)
H4 H 0.7438 0.3569 0.1946
C7 C 0.5637(3) 0.2530(3) 0.1870(2)
C8 C 0.4244(3) 0.2713(4) 0.1609(3)
H5 H 0.3659 0.1953 0.1660
C9 C 0.2806(3) -0.4547(4) 0.3503(3)
H6 H 0.2594 -0.5263 0.3094
H7 H 0.2519 -0.3657 0.3198
H8 H 0.2317 -0.4716 0.4121
C10 C 0.4347(4) -0.4558(4) 0.3654(2)
C11 C 0.6006(3) 0.4985(4) 0.1442(2)
H9 H 0.6593 0.5744 0.1374
Br2 Br 1.02220(4) 0.40074(4) -0.18491(3)
S2 S 1.09070(10) -0.24570(10) 0.53516(7)
O2 O 1.2540(2) -0.0363(2) 0.19899(18)
C12 C 1.0558(3) 0.2801(4) -0.0717(2)
C13 C 1.1036(3) 0.1041(3) 0.0943(2)
N5 N 1.0448(3) -0.0897(3) 0.3350(2)
C14 C 1.1801(3) 0.0867(4) 0.0077(3)
H10 H 1.2474 0.0158 0.0060
N6 N 1.0127(4) -0.2820(3) 0.6461(2)
N7 N 1.0242(3) -0.0207(3) 0.2447(2)
H11 H 0.9410 0.0029 0.2272
C15 C 1.0053(3) 0.2130(4) 0.0966(3)
H12 H 0.9558 0.2265 0.1543
C16 C 1.1559(4) 0.1744(4) -0.0753(3)
H13 H 1.2064 0.1625 -0.1329
C17 C 1.1353(3) 0.0101(3) 0.1834(2)
C18 C 0.9338(3) -0.1034(3) 0.3896(2)
H14 H 0.8478 -0.0722 0.3659
C19 C 0.9431(4) -0.1680(4) 0.4884(2)
C20 C 0.8406(4) -0.1722(4) 0.5609(3)
N8 N 0.8832(4) -0.2374(3) 0.6481(2)
C21 C 0.6959(4) -0.1121(4) 0.5555(3)
H15 H 0.6904 -0.0282 0.5881
H16 H 0.6312 -0.1781 0.5864
H17 H 0.6729 -0.0912 0.4885
C22 C 0.9806(4) 0.3013(4) 0.0137(3)
H18 H 0.9148 0.3736 0.0153
loop_
_geom_bond_atom_site_label_1
_geom_bond_atom_site_label_2
_geom_bond_site_symmetry_1
_geom_bond_site_symmetry_2
Br1 C1 1_555 1_555
S1 N2 1_555 1_555
O1 C2 1_555 1_555
N1 C3 1_555 1_555
C1 C5 1_555 1_555
C2 N4 1_555 1_555
N2 N3 1_555 1_555
N3 C10 1_555 1_555
C3 H1 1_555 1_555
N4 N1 1_555 1_555
H2 N4 1_555 1_555
C4 S1 1_555 1_555
C5 H3 1_555 1_555
C6 H4 1_555 1_555
C7 C2 1_555 1_555
C8 C5 1_555 1_555
H5 C8 1_555 1_555
C9 H6 1_555 1_555
H7 C9 1_555 1_555
H8 C9 1_555 1_555
C10 C4 1_555 1_555
C11 C1 1_555 1_555
H9 C11 1_555 1_555
Br2 C12 1_555 1_555
S2 N6 1_555 1_555
O2 C17 1_555 1_555
C12 C16 1_555 1_555
C13 C14 1_555 1_555
N5 N7 1_555 1_555
C14 H10 1_555 1_555
N6 N8 1_555 1_555
N7 H11 1_555 1_555
C15 C13 1_555 1_555
H12 C15 1_555 1_555
C16 C14 1_555 1_555
H13 C16 1_555 1_555
C17 C13 1_555 1_555
C18 N5 1_555 1_555
H14 C18 1_555 1_555
C19 S2 1_555 1_555
C20 C19 1_555 1_555
N8 C20 1_555 1_555
C21 C20 1_555 1_555
H15 C21 1_555 1_555
H16 C21 1_555 1_555
H17 C21 1_555 1_555
C22 C12 1_555 1_555
H18 C22 1_555 1_555
C3 C4 1_555 1_555
C6 C7 1_555 1_555
C6 C11 1_555 1_555
C7 C8 1_555 1_555
C9 C10 1_555 1_555
N7 C17 1_555 1_555
C15 C22 1_555 1_555
C18 C19 1_555 1_555

#END
