
#######################################################################
#
#                 Cambridge Crystallographic Data Centre
#                                CCDC 
#
#######################################################################
#
# If this CIF has been generated from an entry in the Cambridge 
# Structural Database, then it will include bibliographic, chemical, 
# crystal, experimental, refinement or atomic coordinate data resulting 
# from the CCDC's data processing and validation procedures.
#
#######################################################################

data_PAQMUS
_chemical_formula_moiety         'C29 H20 Cl1 I1 N1 O2 1+,C1 H2 Cl2,I3 1-'
_chemical_name_systematic        
'10-(4-chlorophenyl)-9-iodo-12,13-dimethoxyquinolino[1,2-f]phenanthridin-15-ium tri-iodide dichloromethane solvate'
_symmetry_cell_setting           monoclinic
_symmetry_space_group_name_H-M   'P 21/c'
_symmetry_Int_Tables_number      14
_space_group_name_Hall           '-P 2ybc'
loop_
_symmetry_equiv_pos_site_id
_symmetry_equiv_pos_as_xyz
1 x,y,z
2 -x,1/2+y,1/2-z
3 -x,-y,-z
4 x,1/2-y,1/2+z
_cell_length_a                   15.0448(19)
_cell_length_b                   25.649(3)
_cell_length_c                   8.8558(11)
_cell_angle_alpha                90
_cell_angle_beta                 97.767(2)
_cell_angle_gamma                90
_cell_volume                     3385.96
_exptl_crystal_colour            colorless
_exptl_crystal_description       block
_cell_formula_units_Z            4
loop_
_atom_site_label
_atom_site_type_symbol
_atom_site_fract_x
_atom_site_fract_y
_atom_site_fract_z
C1 C 0.7742(6) -0.0239(3) 0.1140(11)
C2 C 0.7970(7) -0.0166(4) 0.2703(12)
H1 H 0.7864 0.0152 0.3148
C3 C 0.8356(7) -0.0571(4) 0.3586(12)
H2 H 0.8526 -0.0522 0.4626
C4 C 0.8491(9) -0.1051(5) 0.2932(14)
H3 H 0.8765 -0.1319 0.3531
C5 C 0.8224(7) -0.1133(4) 0.1410(14)
H4 H 0.8300 -0.1459 0.0987
C6 C 0.7836(6) -0.0726(4) 0.0487(12)
C7 C 0.7475(7) -0.0797(4) -0.1113(12)
C8 C 0.7711(8) -0.1219(4) -0.1979(14)
H5 H 0.8108 -0.1469 -0.1528
C9 C 0.7369(10) -0.1266(5) -0.3467(14)
H6 H 0.7535 -0.1550 -0.4022
C10 C 0.6787(9) -0.0909(4) -0.4165(13)
H7 H 0.6562 -0.0948 -0.5189
C11 C 0.6528(7) -0.0487(4) -0.3357(12)
H8 H 0.6136 -0.0240 -0.3839
C12 C 0.6860(6) -0.0433(4) -0.1804(11)
C13 C 0.6692(6) 0.0046(3) -0.0989(10)
C14 C 0.5976(6) 0.0398(4) -0.1358(10)
C15 C 0.6007(6) 0.0902(3) -0.0770(10)
C16 C 0.6833(6) 0.1073(3) 0.0099(10)
C17 C 0.6985(6) 0.1598(4) 0.0499(12)
H9 H 0.6555 0.1848 0.0172
C18 C 0.7768(6) 0.1740(4) 0.1370(13)
C19 C 0.8436(6) 0.1357(4) 0.1852(12)
C20 C 0.8292(6) 0.0851(4) 0.1471(10)
H10 H 0.8735 0.0604 0.1764
C21 C 0.7466(5) 0.0696(3) 0.0624(10)
C22 C 0.5250(4) 0.1269(2) -0.1055(7)
C23 C 0.5013(5) 0.1491(3) -0.2485(6)
H11 H 0.5333 0.1408 -0.3280
C24 C 0.4297(6) 0.1837(3) -0.2727(7)
H12 H 0.4139 0.1986 -0.3684
C25 C 0.3819(4) 0.1962(3) -0.1539(10)
C26 C 0.4056(5) 0.1740(3) -0.0109(8)
H13 H 0.3735 0.1824 0.0685
C27 C 0.4771(5) 0.1394(3) 0.0132(6)
H14 H 0.4929 0.1245 0.1089
C28 C 0.7393(10) 0.2649(5) 0.138(2)
H15 H 0.7284 0.2657 0.0289
H16 H 0.7659 0.2973 0.1753
H17 H 0.6836 0.2599 0.1779
C29 C 0.9903(8) 0.1182(5) 0.310(2)
H18 H 0.9698 0.0932 0.3784
H19 H 1.0416 0.1363 0.3612
H20 H 1.0066 0.1005 0.2224
Cl1 Cl 0.2932(3) 0.23859(16) -0.1870(7)
I1 I 0.47337(4) 0.01107(3) -0.24241(8)
N1 N 0.7313(5) 0.0174(3) 0.0237(8)
O1 O 0.7988(5) 0.2230(3) 0.1867(10)
O2 O 0.9196(5) 0.1550(3) 0.2627(10)
C30 C 0.0270(10) 0.7615(6) 0.031(2)
H21 H 0.0528 0.7343 0.0990
H22 H 0.0582 0.7611 -0.0583
Cl2 Cl 0.0451(3) 0.81981(18) 0.1194(6)
Cl3 Cl -0.0861(3) 0.74679(19) -0.0271(8)
I2 I 0.64098(9) 0.11067(6) 0.42972(12)
I3 I 0.80045(8) 0.07231(4) 0.63420(12)
I4 I 0.94513(9) 0.02557(5) 0.82824(18)
loop_
_geom_bond_atom_site_label_1
_geom_bond_atom_site_label_2
_geom_bond_site_symmetry_1
_geom_bond_site_symmetry_2
C1 C2 1_555 1_555
C2 H1 1_555 1_555
C3 C2 1_555 1_555
H2 C3 1_555 1_555
C4 C3 1_555 1_555
H3 C4 1_555 1_555
C5 C4 1_555 1_555
H4 C5 1_555 1_555
C6 C1 1_555 1_555
C7 C6 1_555 1_555
C8 C7 1_555 1_555
H5 C8 1_555 1_555
C9 C8 1_555 1_555
H6 C9 1_555 1_555
C10 C9 1_555 1_555
H7 C10 1_555 1_555
C11 C10 1_555 1_555
H8 C11 1_555 1_555
C12 C7 1_555 1_555
C13 C12 1_555 1_555
C14 C13 1_555 1_555
C15 C14 1_555 1_555
C16 C15 1_555 1_555
C17 C16 1_555 1_555
H9 C17 1_555 1_555
C18 C17 1_555 1_555
C19 C18 1_555 1_555
C20 C19 1_555 1_555
H10 C20 1_555 1_555
C21 C16 1_555 1_555
C22 C15 1_555 1_555
C23 C22 1_555 1_555
H11 C23 1_555 1_555
C24 C23 1_555 1_555
H12 C24 1_555 1_555
C25 C24 1_555 1_555
C26 C25 1_555 1_555
H13 C26 1_555 1_555
C27 C22 1_555 1_555
H14 C27 1_555 1_555
C28 H15 1_555 1_555
H16 C28 1_555 1_555
H17 C28 1_555 1_555
C29 H18 1_555 1_555
H19 C29 1_555 1_555
H20 C29 1_555 1_555
Cl1 C25 1_555 1_555
I1 C14 1_555 1_555
N1 C1 1_555 1_555
O1 C18 1_555 1_555
O2 C19 1_555 1_555
C30 H21 1_555 1_555
H22 C30 1_555 1_555
Cl2 C30 1_555 1_555
Cl3 C30 1_555 1_555
I2 I3 1_555 1_555
I3 I4 1_555 1_555
C5 C6 1_555 1_555
C11 C12 1_555 1_555
C13 N1 1_555 1_555
C20 C21 1_555 1_555
C21 N1 1_555 1_555
C26 C27 1_555 1_555
C28 O1 1_555 1_555
C29 O2 1_555 1_555

#END
