
#######################################################################
#
#                 Cambridge Crystallographic Data Centre
#                                CCDC 
#
#######################################################################
#
# If this CIF has been generated from an entry in the Cambridge 
# Structural Database, then it will include bibliographic, chemical, 
# crystal, experimental, refinement or atomic coordinate data resulting 
# from the CCDC's data processing and validation procedures.
#
#######################################################################

data_PAQMOM
_chemical_formula_moiety         'C23 H17 Cl1 I1 N1 O2'
_chemical_name_systematic        
4-(4-chlorophenyl)-3-iodo-6,7-dimethoxy-2-phenylquinoline
_symmetry_cell_setting           monoclinic
_symmetry_space_group_name_H-M   'P 21/n'
_symmetry_Int_Tables_number      14
_space_group_name_Hall           '-P 2yn'
loop_
_symmetry_equiv_pos_site_id
_symmetry_equiv_pos_as_xyz
1 x,y,z
2 1/2-x,1/2+y,1/2-z
3 -x,-y,-z
4 1/2+x,1/2-y,1/2+z
_cell_length_a                   15.3633(12)
_cell_length_b                   7.1360(6)
_cell_length_c                   19.6205(15)
_cell_angle_alpha                90
_cell_angle_beta                 104.8790(10)
_cell_angle_gamma                90
_cell_volume                     2078.92
_exptl_crystal_colour            colorless
_exptl_crystal_description       block
_cell_formula_units_Z            4
loop_
_atom_site_label
_atom_site_type_symbol
_atom_site_fract_x
_atom_site_fract_y
_atom_site_fract_z
C1 C 0.4332(2) -0.0885(4) 0.15975(16)
C2 C 0.3710(2) 0.0603(4) 0.15264(16)
C3 C 0.3280(2) 0.1311(4) 0.08694(16)
C4 C 0.3474(2) 0.0441(4) 0.02731(15)
C5 C 0.3060(2) 0.0980(5) -0.04354(16)
H1 H 0.2672 0.2003 -0.0521
C6 C 0.3222(2) 0.0022(5) -0.09857(16)
C7 C 0.3812(2) -0.1569(5) -0.08666(16)
C8 C 0.4239(2) -0.2074(5) -0.01893(16)
H2 H 0.4639 -0.3077 -0.0110
C9 C 0.4077(2) -0.1089(4) 0.03885(15)
C10 C 0.4836(2) -0.1660(5) 0.22997(16)
C11 C 0.4524(3) -0.3187(6) 0.2574(2)
H3 H 0.3980 -0.3730 0.2337
C12 C 0.5018(3) -0.3946(7) 0.3214(2)
H4 H 0.4798 -0.4992 0.3398
C13 C 0.5806(3) -0.3186(7) 0.3566(2)
H5 H 0.6125 -0.3679 0.3996
C14 C 0.6125(4) -0.1704(9) 0.3285(3)
H6 H 0.6676 -0.1188 0.3519
C15 C 0.5644(3) -0.0928(8) 0.2650(2)
H7 H 0.5876 0.0099 0.2464
C16 C 0.2631(2) 0.2906(4) 0.07694(16)
C17 C 0.1772(3) 0.2673(5) 0.0855(2)
H8 H 0.1590 0.1494 0.0966
C18 C 0.1179(3) 0.4160(6) 0.0779(2)
H9 H 0.0607 0.3992 0.0846
C19 C 0.1444(2) 0.5876(5) 0.06028(17)
C20 C 0.2276(3) 0.6149(5) 0.0511(3)
H10 H 0.2447 0.7329 0.0391
C21 C 0.2874(3) 0.4663(5) 0.0596(2)
H11 H 0.3448 0.4855 0.0535
C22 C 0.2335(3) 0.2067(7) -0.1842(2)
H12 H 0.1796 0.1936 -0.1685
H13 H 0.2179 0.2269 -0.2342
H14 H 0.2676 0.3117 -0.1609
C23 C 0.4426(3) -0.4104(7) -0.1376(2)
H15 H 0.5043 -0.3784 -0.1162
H16 H 0.4380 -0.4659 -0.1829
H17 H 0.4220 -0.4980 -0.1080
Cl1 Cl 0.07041(8) 0.77713(15) 0.05124(6)
I1 I 0.34235(2) 0.17062(4) 0.243892(13)
N1 N 0.45079(18) -0.1713(4) 0.10460(13)
O1 O 0.28614(18) 0.0407(4) -0.16788(12)
O2 O 0.38862(18) -0.2453(4) -0.14578(12)
loop_
_geom_bond_atom_site_label_1
_geom_bond_atom_site_label_2
_geom_bond_site_symmetry_1
_geom_bond_site_symmetry_2
C1 C2 1_555 1_555
C2 C3 1_555 1_555
C3 C4 1_555 1_555
C4 C5 1_555 1_555
C5 H1 1_555 1_555
C6 C5 1_555 1_555
C7 C6 1_555 1_555
C8 C7 1_555 1_555
H2 C8 1_555 1_555
C9 C4 1_555 1_555
C10 C1 1_555 1_555
C11 C10 1_555 1_555
H3 C11 1_555 1_555
C12 C11 1_555 1_555
H4 C12 1_555 1_555
C13 C12 1_555 1_555
H5 C13 1_555 1_555
C14 C13 1_555 1_555
H6 C14 1_555 1_555
C15 C10 1_555 1_555
H7 C15 1_555 1_555
C16 C3 1_555 1_555
C17 C16 1_555 1_555
H8 C17 1_555 1_555
C18 C17 1_555 1_555
H9 C18 1_555 1_555
C19 C18 1_555 1_555
C20 C19 1_555 1_555
H10 C20 1_555 1_555
C21 C16 1_555 1_555
H11 C21 1_555 1_555
C22 H12 1_555 1_555
H13 C22 1_555 1_555
H14 C22 1_555 1_555
C23 H15 1_555 1_555
H16 C23 1_555 1_555
H17 C23 1_555 1_555
Cl1 C19 1_555 1_555
I1 C2 1_555 1_555
N1 C1 1_555 1_555
O1 C6 1_555 1_555
O2 C7 1_555 1_555
C8 C9 1_555 1_555
C9 N1 1_555 1_555
C14 C15 1_555 1_555
C20 C21 1_555 1_555
C22 O1 1_555 1_555
C23 O2 1_555 1_555

#END
