
#######################################################################
#
#                 Cambridge Crystallographic Data Centre
#                                CCDC 
#
#######################################################################
#
# If this CIF has been generated from an entry in the Cambridge 
# Structural Database, then it will include bibliographic, chemical, 
# crystal, experimental, refinement or atomic coordinate data resulting 
# from the CCDC's data processing and validation procedures.
#
#######################################################################

data_PAQSUY
_chemical_formula_moiety         'C29 H31 P2 1+,C1 F3 O3 S1 1-'
_chemical_name_systematic        
'(4-(diphenylphosphino)butyl)(methyl)diphenylphosphonium trifluoromethanesulfonate'
_symmetry_cell_setting           monoclinic
_symmetry_space_group_name_H-M   'P 21/n'
_symmetry_Int_Tables_number      14
_space_group_name_Hall           '-P 2yn'
loop_
_symmetry_equiv_pos_site_id
_symmetry_equiv_pos_as_xyz
1 x,y,z
2 1/2-x,1/2+y,1/2-z
3 -x,-y,-z
4 1/2+x,1/2-y,1/2+z
_cell_length_a                   8.8798(3)
_cell_length_b                   17.8601(6)
_cell_length_c                   19.2653(6)
_cell_angle_alpha                90
_cell_angle_beta                 102.3630(10)
_cell_angle_gamma                90
_cell_volume                     2984.51
_exptl_crystal_colour            colorless
_exptl_crystal_description       block
_cell_formula_units_Z            4
loop_
_atom_site_label
_atom_site_type_symbol
_atom_site_fract_x
_atom_site_fract_y
_atom_site_fract_z
S1 S 0.87950(13) 0.64739(7) -0.10177(6)
O1 O 1.0015(5) 0.6949(4) -0.0978(4)
O2 O 0.8442(6) 0.5976(3) -0.16252(19)
O3 O 0.8724(3) 0.61095(16) -0.03755(14)
F1 F 0.5875(4) 0.6693(3) -0.1232(2)
F2 F 0.7136(5) 0.7556(2) -0.06798(18)
F3 F 0.7091(6) 0.7470(2) -0.17736(16)
C1 C 0.7130(7) 0.7076(3) -0.1185(2)
P1 P 1.86376(10) 0.63711(6) -0.40595(5)
P2 P 1.29398(9) 0.87944(5) -0.35701(4)
C2 C 1.7665(4) 0.5515(2) -0.3900(2)
C3 C 1.7112(5) 0.5062(3) -0.4482(3)
H1 H 1.7222 0.5210 -0.4931
C4 C 1.6398(7) 0.4393(4) -0.4397(5)
H2 H 1.6040 0.4092 -0.4792
C5 C 1.6206(7) 0.4166(4) -0.3753(5)
H3 H 1.5720 0.3713 -0.3707
C6 C 1.6732(5) 0.4606(3) -0.3163(4)
H4 H 1.6593 0.4456 -0.2719
C7 C 1.7483(4) 0.5286(2) -0.3242(3)
H5 H 1.7858 0.5582 -0.2846
C8 C 2.0572(4) 0.62041(18) -0.35241(19)
C9 C 2.1048(4) 0.6323(2) -0.2800(2)
H6 H 2.0345 0.6504 -0.2545
C10 C 2.2540(5) 0.6180(2) -0.2450(2)
H7 H 2.2836 0.6268 -0.1964
C11 C 2.3597(4) 0.5909(2) -0.2813(3)
H8 H 2.4608 0.5819 -0.2576
C12 C 2.3151(4) 0.5773(3) -0.3526(3)
H9 H 2.3855 0.5575 -0.3771
C13 C 2.1665(4) 0.5928(2) -0.3885(2)
H10 H 2.1387 0.5847 -0.4373
C14 C 1.7820(4) 0.7059(2) -0.35305(18)
H11 H 1.7875 0.6863 -0.3056
H12 H 1.8415 0.7518 -0.3490
C15 C 1.6147(4) 0.7223(2) -0.38820(18)
H13 H 1.6089 0.7354 -0.4376
H14 H 1.5541 0.6772 -0.3873
C16 C 1.5453(4) 0.7848(2) -0.35272(18)
H15 H 1.6027 0.8305 -0.3553
H16 H 1.5538 0.7727 -0.3029
C17 C 1.3772(4) 0.79740(18) -0.38748(17)
H17 H 1.3184 0.7540 -0.3787
H18 H 1.3680 0.8013 -0.4384
C18 C 1.3040(3) 0.87130(17) -0.26366(16)
C19 C 1.2074(5) 0.8216(2) -0.2404(2)
H19 H 1.1336 0.7958 -0.2732
C20 C 1.2193(6) 0.8098(3) -0.1685(2)
H20 H 1.1555 0.7754 -0.1529
C21 C 1.3257(6) 0.8493(3) -0.1208(2)
H21 H 1.3334 0.8421 -0.0723
C22 C 1.4193(6) 0.8985(3) -0.1434(2)
H22 H 1.4918 0.9247 -0.1103
C23 C 1.4098(5) 0.9107(2) -0.2147(2)
H23 H 1.4745 0.9452 -0.2297
C24 C 1.0959(4) 0.8878(2) -0.40148(18)
C25 C 1.0249(4) 0.8372(2) -0.4518(2)
H24 H 1.0799 0.7966 -0.4637
C26 C 0.8707(5) 0.8467(3) -0.4848(2)
H25 H 0.8229 0.8126 -0.5190
C27 C 0.7899(5) 0.9058(3) -0.4673(3)
H26 H 0.6876 0.9126 -0.4903
C28 C 0.8572(5) 0.9546(3) -0.4167(3)
H27 H 0.8004 0.9943 -0.4043
C29 C 1.0101(5) 0.9459(3) -0.3830(3)
H28 H 1.0554 0.9795 -0.3478
C30 C 1.3968(4) 0.9604(2) -0.3757(2)
H29 H 1.3530 1.0043 -0.3592
H30 H 1.3894 0.9641 -0.4261
H31 H 1.5031 0.9561 -0.3521
loop_
_geom_bond_atom_site_label_1
_geom_bond_atom_site_label_2
_geom_bond_site_symmetry_1
_geom_bond_site_symmetry_2
S1 O1 1_555 1_555
O2 S1 1_555 1_555
O3 S1 1_555 1_555
F1 C1 1_555 1_555
F2 C1 1_555 1_555
F3 C1 1_555 1_555
C1 S1 1_555 1_555
P1 C2 1_555 1_555
P2 C17 1_555 1_555
C2 C3 1_555 1_555
C3 H1 1_555 1_555
C4 C3 1_555 1_555
H2 C4 1_555 1_555
C5 C4 1_555 1_555
H3 C5 1_555 1_555
C6 C5 1_555 1_555
H4 C6 1_555 1_555
C7 C2 1_555 1_555
H5 C7 1_555 1_555
C8 P1 1_555 1_555
C9 C8 1_555 1_555
H6 C9 1_555 1_555
C10 C9 1_555 1_555
H7 C10 1_555 1_555
C11 C10 1_555 1_555
H8 C11 1_555 1_555
C12 C11 1_555 1_555
H9 C12 1_555 1_555
C13 C8 1_555 1_555
H10 C13 1_555 1_555
C14 P1 1_555 1_555
H11 C14 1_555 1_555
H12 C14 1_555 1_555
C15 C14 1_555 1_555
H13 C15 1_555 1_555
H14 C15 1_555 1_555
C16 C15 1_555 1_555
H15 C16 1_555 1_555
H16 C16 1_555 1_555
C17 C16 1_555 1_555
H17 C17 1_555 1_555
H18 C17 1_555 1_555
C18 P2 1_555 1_555
C19 C18 1_555 1_555
H19 C19 1_555 1_555
C20 C19 1_555 1_555
H20 C20 1_555 1_555
C21 C20 1_555 1_555
H21 C21 1_555 1_555
C22 C21 1_555 1_555
H22 C22 1_555 1_555
C23 C18 1_555 1_555
H23 C23 1_555 1_555
C24 P2 1_555 1_555
C25 C24 1_555 1_555
H24 C25 1_555 1_555
C26 C25 1_555 1_555
H25 C26 1_555 1_555
C27 C26 1_555 1_555
H26 C27 1_555 1_555
C28 C27 1_555 1_555
H27 C28 1_555 1_555
C29 C24 1_555 1_555
H28 C29 1_555 1_555
C30 P2 1_555 1_555
H29 C30 1_555 1_555
H30 C30 1_555 1_555
H31 C30 1_555 1_555
C6 C7 1_555 1_555
C12 C13 1_555 1_555
C22 C23 1_555 1_555
C28 C29 1_555 1_555

#END
