
#######################################################################
#
#                 Cambridge Crystallographic Data Centre
#                                CCDC 
#
#######################################################################
#
# If this CIF has been generated from an entry in the Cambridge 
# Structural Database, then it will include bibliographic, chemical, 
# crystal, experimental, refinement or atomic coordinate data resulting 
# from the CCDC's data processing and validation procedures.
#
#######################################################################

data_PAQTEI
_chemical_formula_moiety         'C74 H78 N2 O4 S8'
_chemical_name_systematic        
2,7-bis(2-ethylhexyl)-4,9-bis(5'''-hexyl-2,2':5',2'':5'',2'''-quaterthiophen-5-yl)benzo[lmn][3,8]phenanthroline-1,3,6,8(2H,7H)-tetrone
_symmetry_cell_setting           monoclinic
_symmetry_space_group_name_H-M   'P 21/c'
_symmetry_Int_Tables_number      14
_space_group_name_Hall           '-P 2ybc'
loop_
_symmetry_equiv_pos_site_id
_symmetry_equiv_pos_as_xyz
1 x,y,z
2 -x,1/2+y,1/2-z
3 -x,-y,-z
4 x,1/2-y,1/2+z
_cell_length_a                   20.041(3)
_cell_length_b                   16.808(3)
_cell_length_c                   9.9175(13)
_cell_angle_alpha                90
_cell_angle_beta                 100.606(5)
_cell_angle_gamma                90
_cell_volume                     3283.63
_exptl_crystal_colour            blue
_exptl_crystal_description       prism
_cell_formula_units_Z            2
loop_
_atom_site_label
_atom_site_type_symbol
_atom_site_fract_x
_atom_site_fract_y
_atom_site_fract_z
C1 C 0.4738(4) 0.5268(4) 1.4986(7)
C2 C 0.4663(4) 0.5747(4) 1.6171(7)
C3 C 0.4158(4) 0.6376(5) 1.5973(7)
C4 C 0.3691(4) 0.5881(5) 1.3641(8)
C5 C 0.3045(5) 0.6884(6) 1.4693(9)
H1 H 0.2924 0.7108 1.3756
H2 H 0.3157 0.7332 1.5343
C6 C 0.2430(5) 0.6420(8) 1.5041(12)
H3 H 0.2393 0.5902 1.4537
C7 C 0.2555(8) 0.6244(10) 1.6578(13)
H4 H 0.3011 0.6005 1.6854
H5 H 0.2548 0.675 1.7088
C8 C 0.2032(10) 0.5689(13) 1.6956(17)
H6 H 0.1891 0.5306 1.62
H7 H 0.1627 0.5998 1.7082
C9 C 0.2309(18) 0.5237(12) 1.827(2)
H8 H 0.1979 0.4824 1.8423
H9 H 0.2738 0.4969 1.8176
C10 C 0.2438(13) 0.5795(16) 1.9484(19)
H10 H 0.2874 0.6064 1.9516
H11 H 0.2449 0.549 2.033
H12 H 0.2074 0.6191 1.9392
C11 C 0.1789(6) 0.6899(12) 1.453(2)
H13 H 0.1902 0.7473 1.4526
H14 H 0.146 0.6819 1.515
C12 C 0.1474(12) 0.6633(19) 1.308(2)
H15 H 0.1667 0.6119 1.2884
H16 H 0.157 0.703 1.2419
H17 H 0.0982 0.6578 1.3009
C13 C 0.5652(4) 0.5076(5) 1.7386(7)
H18 H 0.5976 0.5014 1.8208
C14 C 0.5108(4) 0.5612(4) 1.7390(7)
C15 C 0.5044(4) 0.5930(4) 1.8760(7)
C16 C 0.4475(5) 0.6168(5) 1.9260(7)
H19 H 0.4033 0.6193 1.8713
C17 C 0.4618(4) 0.6369(4) 2.0668(7)
H20 H 0.4282 0.6546 2.116
C18 C 0.5280(4) 0.6284(4) 2.1247(7)
C19 C 0.5596(4) 0.6459(5) 2.2650(7)
C20 C 0.5336(4) 0.6920(4) 2.3582(7)
H21 H 0.4924 0.721 2.3372
C21 C 0.5766(4) 0.6906(4) 2.4908(7)
H22 H 0.5659 0.7178 2.5682
C22 C 0.6343(4) 0.6467(4) 2.4956(7)
C23 C 0.6899(4) 0.6336(5) 2.6108(7)
C24 C 0.7500(5) 0.5974(6) 2.6153(9)
H23 H 0.7632 0.574 2.5371
C25 C 0.7924(5) 0.5971(7) 2.7480(9)
H24 H 0.8365 0.5744 2.7673
C26 C 0.7619(5) 0.6334(6) 2.8432(8)
C27 C 0.7904(5) 0.6480(7) 2.9905(9)
C28 C 0.7608(5) 0.6737(5) 3.0908(8)
H25 H 0.7145 0.6893 3.0774
C29 C 0.8044(5) 0.6760(6) 3.2192(9)
H26 H 0.7897 0.6918 3.3009
C30 C 0.8674(6) 0.6541(9) 3.2167(12)
C31 C 0.9312(7) 0.6496(13) 3.3250(12)
H27 H 0.9596 0.6969 3.3163
H28 H 0.9573 0.6019 3.3076
C32 C 0.9179(7) 0.6458(11) 3.4690(12)
H29 H 0.893 0.694 3.4886
H30 H 0.8894 0.5988 3.4789
C33 C 0.9846(8) 0.6400(14) 3.5710(16)
H31 H 1.0117 0.6883 3.5621
H32 H 1.0104 0.5939 3.5455
C34 C 0.9780(10) 0.6312(15) 3.7186(18)
H33 H 0.9462 0.5869 3.7254
H34 H 0.9573 0.6803 3.7472
C35 C 1.0394(16) 0.6165(19) 3.813(4)
H35 H 1.0518 0.5601 3.8026
H36 H 1.0754 0.6493 3.7839
C36 C 1.041(2) 0.633(3) 3.975(5)
H37 H 1.0848 0.6149 4.0283
H38 H 1.0362 0.6903 3.9898
H39 H 1.0041 0.6044 4.0053
C37 C 0.4266(4) 0.5357(4) 1.3743(7)
N1 N 0.3647(4) 0.6354(4) 1.4775(6)
O1 O 0.4143(3) 0.6931(3) 1.6747(5)
O2 O 0.3253(3) 0.5953(5) 1.2585(6)
S1 S 0.57498(11) 0.59667(12) 2.00632(18)
S2 S 0.63720(11) 0.60338(12) 2.33914(18)
S3 S 0.68220(11) 0.66859(13) 2.77298(19)
S4 S 0.87378(17) 0.6296(4) 3.0508(3)
C1B C 0.5262(4) 0.4732(4) 1.5014(7)
C2B C 0.5337(4) 0.4253(4) 1.3829(7)
C3B C 0.5842(4) 0.3624(5) 1.4027(7)
C4B C 0.6309(4) 0.4119(5) 1.6359(8)
C5B C 0.6955(5) 0.3116(6) 1.5307(9)
H1B H 0.7076 0.2892 1.6244
H2B H 0.6843 0.2668 1.4657
C6B C 0.7570(5) 0.3580(8) 1.4959(12)
H3B H 0.7607 0.4098 1.5463
C7B C 0.7445(8) 0.3756(10) 1.3422(13)
H4B H 0.6989 0.3995 1.3146
H5B H 0.7452 0.325 1.2912
C8B C 0.7968(10) 0.4311(13) 1.3044(17)
H6B H 0.8109 0.4694 1.38
H7B H 0.8373 0.4002 1.2918
C9B C 0.7691(18) 0.4763(12) 1.173(2)
H8B H 0.8021 0.5176 1.1577
H9B H 0.7262 0.5031 1.1824
C10B C 0.7562(13) 0.4205(16) 1.0516(19)
H10B H 0.7126 0.3936 1.0484
H11B H 0.7551 0.451 0.967
H12B H 0.7926 0.3809 1.0608
C11B C 0.8211(6) 0.3101(12) 1.547(2)
H13B H 0.8098 0.2527 1.5474
H14B H 0.854 0.3181 1.485
C12B C 0.8526(12) 0.3367(19) 1.692(2)
H15B H 0.8333 0.3881 1.7116
H16B H 0.843 0.297 1.7581
H17B H 0.9018 0.3422 1.6991
C13B C 0.4348(4) 0.4924(5) 1.2614(7)
H18B H 0.4024 0.4986 1.1792
C14B C 0.4892(4) 0.4388(4) 1.2610(7)
C15B C 0.4956(4) 0.4070(4) 1.1240(7)
C16B C 0.5525(5) 0.3832(5) 1.0740(7)
H19B H 0.5967 0.3807 1.1287
C17B C 0.5382(4) 0.3631(4) 0.9332(7)
H20B H 0.5718 0.3454 0.884
C18B C 0.4720(4) 0.3716(4) 0.8753(7)
C19B C 0.4404(4) 0.3541(5) 0.7350(7)
C20B C 0.4664(4) 0.3080(4) 0.6418(7)
H21B H 0.5076 0.279 0.6628
C21B C 0.4234(4) 0.3094(4) 0.5092(7)
H22B H 0.4341 0.2822 0.4318
C22B C 0.3657(4) 0.3533(4) 0.5044(7)
C23B C 0.3101(4) 0.3664(5) 0.3892(7)
C24B C 0.2500(5) 0.4026(6) 0.3847(9)
H23B H 0.2368 0.426 0.4629
C25B C 0.2076(5) 0.4029(7) 0.2520(9)
H24B H 0.1635 0.4256 0.2327
C26B C 0.2381(5) 0.3666(6) 0.1568(8)
C27B C 0.2096(5) 0.3520(7) 0.0095(9)
C28B C 0.2392(5) 0.3263(5) -0.0908(8)
H25B H 0.2855 0.3107 -0.0774
C29B C 0.1956(5) 0.3240(6) -0.2192(9)
H26B H 0.2103 0.3082 -0.3009
C30B C 0.1326(6) 0.3459(9) -0.2167(12)
C31B C 0.0688(7) 0.3504(13) -0.3250(12)
H27B H 0.0404 0.3031 -0.3163
H28B H 0.0427 0.3981 -0.3076
C32B C 0.0821(7) 0.3542(11) -0.4690(12)
H29B H 0.107 0.306 -0.4886
H30B H 0.1106 0.4012 -0.4789
C33B C 0.0154(8) 0.3600(14) -0.5710(16)
H31B H -0.0117 0.3117 -0.5621
H32B H -0.0104 0.4061 -0.5455
C34B C 0.0220(10) 0.3688(15) -0.7186(18)
H33B H 0.0538 0.4131 -0.7254
H34B H 0.0427 0.3197 -0.7472
C35B C -0.0394(16) 0.3835(19) -0.813(4)
H35B H -0.0518 0.4399 -0.8026
H36B H -0.0754 0.3507 -0.7839
C36B C -0.041(2) 0.367(3) -0.975(5)
H37B H -0.0848 0.3851 -1.0283
H38B H -0.0362 0.3097 -0.9898
H39B H -0.0041 0.3956 -1.0053
C37B C 0.5734(4) 0.4643(4) 1.6257(7)
N1B N 0.6353(4) 0.3646(4) 1.5225(6)
O1B O 0.5857(3) 0.3069(3) 1.3253(5)
O2B O 0.6747(3) 0.4047(5) 1.7415(6)
S1B S 0.42502(11) 0.40333(12) 0.99368(18)
S2B S 0.36280(11) 0.39662(12) 0.66086(18)
S3B S 0.31780(11) 0.33141(13) 0.22702(19)
S4B S 0.12622(17) 0.3704(4) -0.0508(3)
loop_
_geom_bond_atom_site_label_1
_geom_bond_atom_site_label_2
_geom_bond_site_symmetry_1
_geom_bond_site_symmetry_2
C1 C2 1_555 1_555
C2 C3 1_555 1_555
C3 N1 1_555 1_555
C4 C37 1_555 1_555
C5 H1 1_555 1_555
H2 C5 1_555 1_555
C6 C5 1_555 1_555
H3 C6 1_555 1_555
C7 C6 1_555 1_555
H4 C7 1_555 1_555
H5 C7 1_555 1_555
C8 C7 1_555 1_555
H6 C8 1_555 1_555
H7 C8 1_555 1_555
C9 C8 1_555 1_555
H8 C9 1_555 1_555
H9 C9 1_555 1_555
C10 C9 1_555 1_555
H10 C10 1_555 1_555
H11 C10 1_555 1_555
H12 C10 1_555 1_555
C11 C6 1_555 1_555
H13 C11 1_555 1_555
H14 C11 1_555 1_555
C12 C11 1_555 1_555
H15 C12 1_555 1_555
H16 C12 1_555 1_555
H17 C12 1_555 1_555
C13 H18 1_555 1_555
C14 C2 1_555 1_555
C15 C14 1_555 1_555
C16 C15 1_555 1_555
H19 C16 1_555 1_555
C17 C16 1_555 1_555
H20 C17 1_555 1_555
C18 C17 1_555 1_555
C19 C18 1_555 1_555
C20 C19 1_555 1_555
H21 C20 1_555 1_555
C21 C20 1_555 1_555
H22 C21 1_555 1_555
C22 C21 1_555 1_555
C23 C22 1_555 1_555
C24 C23 1_555 1_555
H23 C24 1_555 1_555
C25 C24 1_555 1_555
H24 C25 1_555 1_555
C26 C25 1_555 1_555
C27 C26 1_555 1_555
C28 C27 1_555 1_555
H25 C28 1_555 1_555
C29 C28 1_555 1_555
H26 C29 1_555 1_555
C30 C29 1_555 1_555
C31 C30 1_555 1_555
H27 C31 1_555 1_555
H28 C31 1_555 1_555
C32 C31 1_555 1_555
H29 C32 1_555 1_555
H30 C32 1_555 1_555
C33 C32 1_555 1_555
H31 C33 1_555 1_555
H32 C33 1_555 1_555
C34 C33 1_555 1_555
H33 C34 1_555 1_555
H34 C34 1_555 1_555
C35 C34 1_555 1_555
H35 C35 1_555 1_555
H36 C35 1_555 1_555
C36 C35 1_555 1_555
H37 C36 1_555 1_555
H38 C36 1_555 1_555
H39 C36 1_555 1_555
C37 C1 1_555 1_555
N1 C4 1_555 1_555
O1 C3 1_555 1_555
O2 C4 1_555 1_555
S1 C15 1_555 1_555
S2 C19 1_555 1_555
S3 C23 1_555 1_555
S4 C27 1_555 1_555
C1B C1 1_555 1_555
C2B C1B 1_555 1_555
C3B C2B 1_555 1_555
C4B C37B 1_555 1_555
C5B H1B 1_555 1_555
H2B C5B 1_555 1_555
C6B C5B 1_555 1_555
H3B C6B 1_555 1_555
C7B C6B 1_555 1_555
H4B C7B 1_555 1_555
H5B C7B 1_555 1_555
C8B C7B 1_555 1_555
H6B C8B 1_555 1_555
H7B C8B 1_555 1_555
C9B C8B 1_555 1_555
H8B C9B 1_555 1_555
H9B C9B 1_555 1_555
C10B C9B 1_555 1_555
H10B C10B 1_555 1_555
H11B C10B 1_555 1_555
H12B C10B 1_555 1_555
C11B C6B 1_555 1_555
H13B C11B 1_555 1_555
H14B C11B 1_555 1_555
C12B C11B 1_555 1_555
H15B C12B 1_555 1_555
H16B C12B 1_555 1_555
H17B C12B 1_555 1_555
C13B C37 1_555 1_555
H18B C13B 1_555 1_555
C14B C2B 1_555 1_555
C15B C14B 1_555 1_555
C16B C15B 1_555 1_555
H19B C16B 1_555 1_555
C17B C16B 1_555 1_555
H20B C17B 1_555 1_555
C18B C17B 1_555 1_555
C19B C18B 1_555 1_555
C20B C19B 1_555 1_555
H21B C20B 1_555 1_555
C21B C20B 1_555 1_555
H22B C21B 1_555 1_555
C22B C21B 1_555 1_555
C23B C22B 1_555 1_555
C24B C23B 1_555 1_555
H23B C24B 1_555 1_555
C25B C24B 1_555 1_555
H24B C25B 1_555 1_555
C26B C25B 1_555 1_555
C27B C26B 1_555 1_555
C28B C27B 1_555 1_555
H25B C28B 1_555 1_555
C29B C28B 1_555 1_555
H26B C29B 1_555 1_555
C30B C29B 1_555 1_555
C31B C30B 1_555 1_555
H27B C31B 1_555 1_555
H28B C31B 1_555 1_555
C32B C31B 1_555 1_555
H29B C32B 1_555 1_555
H30B C32B 1_555 1_555
C33B C32B 1_555 1_555
H31B C33B 1_555 1_555
H32B C33B 1_555 1_555
C34B C33B 1_555 1_555
H33B C34B 1_555 1_555
H34B C34B 1_555 1_555
C35B C34B 1_555 1_555
H35B C35B 1_555 1_555
H36B C35B 1_555 1_555
C36B C35B 1_555 1_555
H37B C36B 1_555 1_555
H38B C36B 1_555 1_555
H39B C36B 1_555 1_555
C37B C13 1_555 1_555
N1B C3B 1_555 1_555
O1B C3B 1_555 1_555
O2B C4B 1_555 1_555
S1B C15B 1_555 1_555
S2B C19B 1_555 1_555
S3B C23B 1_555 1_555
S4B C27B 1_555 1_555
C5 N1 1_555 1_555
C13 C14 1_555 1_555
C18 S1 1_555 1_555
C22 S2 1_555 1_555
C26 S3 1_555 1_555
C30 S4 1_555 1_555
C1B C37B 1_555 1_555
C4B N1B 1_555 1_555
C5B N1B 1_555 1_555
C13B C14B 1_555 1_555
C18B S1B 1_555 1_555
C22B S2B 1_555 1_555
C26B S3B 1_555 1_555
C30B S4B 1_555 1_555

#END
