
#######################################################################
#
#                 Cambridge Crystallographic Data Centre
#                                CCDC 
#
#######################################################################
#
# If this CIF has been generated from an entry in the Cambridge 
# Structural Database, then it will include bibliographic, chemical, 
# crystal, experimental, refinement or atomic coordinate data resulting 
# from the CCDC's data processing and validation procedures.
#
#######################################################################

data_PAQWIO
_chemical_formula_moiety         'C23 H23 N1 O4 S1'
_chemical_name_systematic        
5-Benzoyl-3-(carboxymethyl)-1-(\a-methylbenzyl)-6-(methylsulfanyl)-1,2,3,4-tetrahydro-2-pyridone
_symmetry_cell_setting           monoclinic
_symmetry_space_group_name_H-M   'P 21'
_symmetry_Int_Tables_number      4
_space_group_name_Hall           'P 2yb'
loop_
_symmetry_equiv_pos_site_id
_symmetry_equiv_pos_as_xyz
1 x,y,z
2 -x,1/2+y,-z
_cell_length_a                   10.088(5)
_cell_length_b                   10.060(5)
_cell_length_c                   10.538(5)
_cell_angle_alpha                90
_cell_angle_beta                 110.456(5)
_cell_angle_gamma                90
_cell_volume                     1002.01
_exptl_crystal_colour            white
_chemical_melting_point          '172-174 deg.C'
_cell_formula_units_Z            2
_exptl_crystal_recrystallization_method chloroform/hexane
loop_
_atom_site_label
_atom_site_type_symbol
_atom_site_fract_x
_atom_site_fract_y
_atom_site_fract_z
S1 S 0.74781(5) 0.23000(6) 0.26268(4)
O1 O 0.85758(16) 0.40977(16) 0.72112(14)
O2 O 1.09388(18) -0.00900(19) 0.90992(16)
O3 O 0.98810(18) 0.04661(18) 1.05760(15)
H1 H 1.0338 -0.0162 1.1008
O4 O 0.89917(16) -0.10917(18) 0.43065(16)
N1 N 0.76553(17) 0.30953(18) 0.51749(16)
C1 C 0.9120(2) 0.1771(2) 0.71173(19)
H2 H 1.0057 0.1716 0.7036
C2 C 0.8448(2) 0.3088(2) 0.65231(19)
C3 C 0.8231(2) 0.0599(2) 0.63600(19)
H3 H 0.8752 -0.0222 0.6656
H4 H 0.7365 0.0547 0.6562
C4 C 0.7875(2) 0.0766(2) 0.48514(19)
C5 C 0.76393(19) 0.1983(2) 0.43327(18)
C6 C 0.6796(2) 0.4300(2) 0.4624(2)
C7 C 0.7595(2) 0.5327(2) 0.4105(2)
H5 H 0.8490 0.5512 0.4798
H6 H 0.7049 0.6130 0.3873
H7 H 0.7750 0.4985 0.3318
C8 C 0.5345(2) 0.3895(2) 0.3641(2)
C9 C 0.4547(2) 0.2969(2) 0.4051(2)
H8 H 0.4908 0.2615 0.4920
C10 C 0.3218(2) 0.2565(2) 0.3183(3)
H9 H 0.2705 0.1937 0.3468
C11 C 0.2667(2) 0.3100(3) 0.1897(2)
H10 H 0.1787 0.2823 0.1308
C12 C 0.3426(2) 0.4050(3) 0.1488(2)
H11 H 0.3039 0.4431 0.0633
C13 C 0.4762(2) 0.4438(3) 0.2346(2)
H12 H 0.5270 0.5065 0.2054
C14 C 0.9304(2) 0.1747(2) 0.8620(2)
H13 H 0.9766 0.2565 0.9031
H14 H 0.8372 0.1739 0.8695
C15 C 1.0135(2) 0.0600(2) 0.9420(2)
C16 C 0.7912(2) -0.0444(2) 0.4018(2)
C17 C 0.6599(2) -0.0847(2) 0.28904(19)
C18 C 0.5287(2) -0.0298(3) 0.2749(2)
H15 H 0.5220 0.0342 0.3360
C19 C 0.4084(2) -0.0698(3) 0.1706(2)
H16 H 0.3213 -0.0321 0.1612
C20 C 0.4177(3) -0.1653(3) 0.0808(2)
H17 H 0.3367 -0.1920 0.0105
C21 C 0.5473(3) -0.2222(3) 0.0943(2)
H18 H 0.5528 -0.2876 0.0339
C22 C 0.6681(2) -0.1817(2) 0.1975(2)
H19 H 0.7550 -0.2192 0.2060
C23 C 0.9330(2) 0.2266(3) 0.2830(2)
H20 H 0.9433 0.2427 0.1972
H21 H 0.9719 0.1411 0.3165
H22 H 0.9824 0.2942 0.3462
H23 H 0.664(2) 0.467(3) 0.537(2)
loop_
_geom_bond_atom_site_label_1
_geom_bond_atom_site_label_2
_geom_bond_site_symmetry_1
_geom_bond_site_symmetry_2
S1 C5 1_555 1_555
O1 C2 1_555 1_555
O2 C15 1_555 1_555
O3 H1 1_555 1_555
O4 C16 1_555 1_555
N1 C2 1_555 1_555
C1 H2 1_555 1_555
C2 C1 1_555 1_555
C3 C1 1_555 1_555
H3 C3 1_555 1_555
H4 C3 1_555 1_555
C4 C3 1_555 1_555
C5 N1 1_555 1_555
C6 N1 1_555 1_555
C7 C6 1_555 1_555
H5 C7 1_555 1_555
H6 C7 1_555 1_555
H7 C7 1_555 1_555
C8 C6 1_555 1_555
C9 C8 1_555 1_555
H8 C9 1_555 1_555
C10 C9 1_555 1_555
H9 C10 1_555 1_555
C11 C10 1_555 1_555
H10 C11 1_555 1_555
C12 C11 1_555 1_555
H11 C12 1_555 1_555
C13 C8 1_555 1_555
H12 C13 1_555 1_555
C14 C1 1_555 1_555
H13 C14 1_555 1_555
H14 C14 1_555 1_555
C15 O3 1_555 1_555
C16 C4 1_555 1_555
C17 C16 1_555 1_555
C18 C17 1_555 1_555
H15 C18 1_555 1_555
C19 C18 1_555 1_555
H16 C19 1_555 1_555
C20 C19 1_555 1_555
H17 C20 1_555 1_555
C21 C20 1_555 1_555
H18 C21 1_555 1_555
C22 C17 1_555 1_555
H19 C22 1_555 1_555
C23 S1 1_555 1_555
H20 C23 1_555 1_555
H21 C23 1_555 1_555
H22 C23 1_555 1_555
H23 C6 1_555 1_555
C4 C5 1_555 1_555
C12 C13 1_555 1_555
C14 C15 1_555 1_555
C21 C22 1_555 1_555

#END
