
#######################################################################
#
#                 Cambridge Crystallographic Data Centre
#                                CCDC 
#
#######################################################################
#
# If this CIF has been generated from an entry in the Cambridge 
# Structural Database, then it will include bibliographic, chemical, 
# crystal, experimental, refinement or atomic coordinate data resulting 
# from the CCDC's data processing and validation procedures.
#
#######################################################################

data_PAQZOW
_chemical_formula_moiety         'C24 H24 N2 O8'
_chemical_name_systematic        
2,9-bis(Ethoxycarbonylacetoxymethyl)-1,10-phenanthroline
_symmetry_cell_setting           monoclinic
_symmetry_space_group_name_H-M   'I 2/a'
_symmetry_Int_Tables_number      15
_space_group_name_Hall           '-I 2ya'
loop_
_symmetry_equiv_pos_site_id
_symmetry_equiv_pos_as_xyz
1 x,y,z
2 1/2-x,y,-z
3 1/2+x,1/2+y,1/2+z
4 -x,1/2+y,1/2-z
5 -x,-y,-z
6 1/2+x,-y,z
7 1/2-x,1/2-y,1/2-z
8 x,1/2-y,1/2+z
_cell_length_a                   8.010(3)
_cell_length_b                   18.401(11)
_cell_length_c                   15.415(7)
_cell_angle_alpha                90
_cell_angle_beta                 90.23(3)
_cell_angle_gamma                90
_cell_volume                     2272.03
_exptl_crystal_colour            'pale yellow'
_chemical_melting_point          '94 deg.C'
_cell_formula_units_Z            4
_exptl_crystal_recrystallization_method hexane/dichloromethane
loop_
_atom_site_label
_atom_site_type_symbol
_atom_site_fract_x
_atom_site_fract_y
_atom_site_fract_z
N1 N 0.1681(3) 0.3607(1) 0.9206(2)
C1 C 0.2062(4) 0.4255(2) 0.9582(2)
C2 C 0.0881(4) 0.3616(2) 0.8450(2)
C3 C 0.1673(4) 0.4927(2) 0.9200(2)
C4 C 0.0424(5) 0.2895(2) 0.8078(2)
O1 O 0.0670(3) 0.2925(1) 0.7149(1)
C5 C 0.0443(5) 0.4266(2) 0.8030(2)
C6 C 0.0830(5) 0.4907(2) 0.8395(2)
O2 O -0.1015(4) 0.1983(2) 0.6940(2)
O3 O -0.0730(5) 0.3839(2) 0.5800(2)
C7 C 0.2107(5) 0.5588(2) 0.9615(2)
C8 C 0.0125(6) 0.2592(2) 0.5709(2)
O4 O 0.0312(5) 0.3419(2) 0.4609(2)
C9 C -0.0167(5) 0.2465(2) 0.6653(2)
C10 C 0.1266(10) 0.4274(3) 0.3651(6)
C11 C -0.0186(5) 0.3338(2) 0.5395(3)
C12 C -0.0008(17) 0.4115(4) 0.4185(6)
H1 H 0.1011 0.2489 0.8309
H2 H -0.0747 0.2770 0.8143
H3 H -0.0077 0.4216 0.7496
H4 H 0.0575 0.5375 0.8157
H5 H 0.1808 0.6040 0.9342
H6 H -0.0518 0.2276 0.5367
H7 H 0.1249 0.2419 0.5594
H8 H 0.1051 0.4731 0.3371
H9 H 0.2294 0.4304 0.3972
H10 H 0.1351 0.3899 0.3221
H11 H -0.0133 0.4492 0.4611
H12 H -0.1028 0.4081 0.3859
C1A C 0.2938(4) 0.4255(2) 1.0418(2)
N1A N 0.3319(3) 0.3607(1) 1.0794(2)
C2A C 0.4119(4) 0.3616(2) 1.1550(2)
C4A C 0.4576(5) 0.2895(2) 1.1922(2)
O1A O 0.4330(3) 0.2925(1) 1.2851(1)
C9A C 0.5167(5) 0.2465(2) 1.3347(2)
O2A O 0.6015(4) 0.1983(2) 1.3060(2)
C8A C 0.4875(6) 0.2592(2) 1.4291(2)
C11A C 0.5186(5) 0.3338(2) 1.4605(3)
O3A O 0.5730(5) 0.3839(2) 1.4200(2)
O4A O 0.4688(5) 0.3419(2) 1.5391(2)
C12A C 0.5008(17) 0.4115(4) 1.5815(6)
C10A C 0.3734(10) 0.4274(3) 1.6349(6)
H8A H 0.3949 0.4731 1.6629
H9A H 0.2706 0.4304 1.6028
H10A H 0.3649 0.3899 1.6779
H11A H 0.5133 0.4492 1.5389
H12A H 0.6028 0.4081 1.6141
H6A H 0.5518 0.2276 1.4633
H7A H 0.3751 0.2419 1.4406
H1A H 0.3989 0.2489 1.1691
H2A H 0.5747 0.2770 1.1857
C5A C 0.4557(5) 0.4266(2) 1.1970(2)
C6A C 0.4170(5) 0.4907(2) 1.1605(2)
C3A C 0.3327(4) 0.4927(2) 1.0800(2)
C7A C 0.2893(5) 0.5588(2) 1.0385(2)
H5A H 0.3192 0.6040 1.0658
H4A H 0.4425 0.5375 1.1843
H3A H 0.5077 0.4216 1.2504
loop_
_geom_bond_atom_site_label_1
_geom_bond_atom_site_label_2
_geom_bond_site_symmetry_1
_geom_bond_site_symmetry_2
N1 C1 1_555 1_555
C1 C3 1_555 1_555
C2 N1 1_555 1_555
C3 C6 1_555 1_555
C4 C2 1_555 1_555
O1 C4 1_555 1_555
C5 C2 1_555 1_555
C6 C5 1_555 1_555
O2 C9 1_555 1_555
O3 C11 1_555 1_555
C7 C3 1_555 1_555
C8 C9 1_555 1_555
O4 C11 1_555 1_555
C9 O1 1_555 1_555
C10 C12 1_555 1_555
C11 C8 1_555 1_555
C12 O4 1_555 1_555
H1 C4 1_555 1_555
H2 C4 1_555 1_555
H3 C5 1_555 1_555
H4 C6 1_555 1_555
H5 C7 1_555 1_555
H6 C8 1_555 1_555
H7 C8 1_555 1_555
H8 C10 1_555 1_555
H9 C10 1_555 1_555
H10 C10 1_555 1_555
H11 C12 1_555 1_555
H12 C12 1_555 1_555
C1A C1 1_555 1_555
N1A C1A 1_555 1_555
C2A N1A 1_555 1_555
C4A C2A 1_555 1_555
O1A C4A 1_555 1_555
C9A O1A 1_555 1_555
O2A C9A 1_555 1_555
C8A C9A 1_555 1_555
C11A C8A 1_555 1_555
O3A C11A 1_555 1_555
O4A C11A 1_555 1_555
C12A O4A 1_555 1_555
C10A C12A 1_555 1_555
H8A C10A 1_555 1_555
H9A C10A 1_555 1_555
H10A C10A 1_555 1_555
H11A C12A 1_555 1_555
H12A C12A 1_555 1_555
H6A C8A 1_555 1_555
H7A C8A 1_555 1_555
H1A C4A 1_555 1_555
H2A C4A 1_555 1_555
C5A C2A 1_555 1_555
C6A C5A 1_555 1_555
C3A C1A 1_555 1_555
C7A C7 1_555 1_555
H5A C7A 1_555 1_555
H4A C6A 1_555 1_555
H3A C5A 1_555 1_555
C6A C3A 1_555 1_555
C3A C7A 1_555 1_555

#END
