
#######################################################################
#
#                 Cambridge Crystallographic Data Centre
#                                CCDC 
#
#######################################################################
#
# If this CIF has been generated from an entry in the Cambridge 
# Structural Database, then it will include bibliographic, chemical, 
# crystal, experimental, refinement or atomic coordinate data resulting 
# from the CCDC's data processing and validation procedures.
#
#######################################################################

data_PARCOD
_chemical_compound_source        'aerial parts of Baeckea frutescens L.'
_chemical_name_common            'frutescone A'
_chemical_formula_moiety         'C29 H44 O3'
_chemical_name_systematic        
4'-isopropyl-7'-methoxy-6,6',6',8',10,10-hexamethyl-4',6'-dihydrospiro[bicyclo[7.2.0]undec-5-ene-2,2'-chromen]-5'(3'H)-one
_chemical_properties_biological  
'tested for cytotoxicity against human cancer cell lines Caco-2, A549 and HepG2'
_symmetry_cell_setting           monoclinic
_symmetry_space_group_name_H-M   'P 21'
_symmetry_Int_Tables_number      4
_space_group_name_Hall           'P 2yb'
loop_
_symmetry_equiv_pos_site_id
_symmetry_equiv_pos_as_xyz
1 x,y,z
2 -x,1/2+y,-z
_cell_length_a                   9.11100(10)
_cell_length_b                   9.88290(10)
_cell_length_c                   14.9752(2)
_cell_angle_alpha                90
_cell_angle_beta                 100.1270(10)
_cell_angle_gamma                90
_cell_volume                     1327.41
_exptl_crystal_colour            colorless
_exptl_crystal_description       block
_cell_formula_units_Z            2
loop_
_atom_site_label
_atom_site_type_symbol
_atom_site_fract_x
_atom_site_fract_y
_atom_site_fract_z
O1 O 0.22757(13) 0.24175(16) 0.63199(9)
O2 O 0.73179(17) 0.1082(2) 0.67233(11)
O3 O 0.4584(2) 0.1736(2) 0.37892(10)
C1 C 0.49125(19) 0.1998(2) 0.66462(12)
C2 C 0.1773(2) 0.0386(2) 0.84367(12)
H1 H 0.2790 0.0586 0.8745
C3 C 0.36365(19) 0.2921(2) 0.78433(13)
H2 H 0.3570 0.2807 0.8478
H3 H 0.3806 0.3875 0.7747
C4 C 0.1785(2) -0.0964(2) 0.78957(13)
C5 C 0.14719(19) 0.1154(2) 0.74992(12)
H4 H 0.0390 0.1200 0.7298
C6 C 0.3592(2) 0.2127(2) 0.60668(13)
C7 C 0.6195(2) 0.1562(2) 0.62590(14)
C8 C 0.2044(2) -0.0117(2) 0.70709(13)
H5 H 0.3083 -0.0060 0.7006
H6 H 0.1424 -0.0389 0.6505
C9 C 0.21409(19) 0.2537(2) 0.72797(13)
C10 C 0.49970(18) 0.2136(2) 0.76583(12)
H7 H 0.4954 0.1226 0.7911
C11 C 0.3391(2) 0.1940(2) 0.50796(13)
C12 C 0.4611(2) 0.1837(2) 0.47069(13)
C13 C 0.0262(3) -0.1655(3) 0.77018(19)
H8 H 0.0272 -0.2352 0.7256
H9 H -0.0490 -0.0999 0.7477
H10 H 0.0047 -0.2048 0.8251
C14 C 0.0594(2) 0.3269(2) 0.87820(17)
H11 H -0.0284 0.2793 0.8587
C15 C 0.0909(3) 0.4378(2) 0.8167(2)
H12 H 0.1827 0.4837 0.8425
H13 H 0.0105 0.5034 0.8087
C16 C 0.6663(3) 0.4241(3) 0.7819(2)
H14 H 0.6599 0.4230 0.7172
H15 H 0.7626 0.4570 0.8099
H16 H 0.5903 0.4823 0.7975
C17 C 0.1817(3) 0.1835(3) 0.45589(15)
H17 H 0.1125 0.1944 0.4968
H18 H 0.1675 0.0965 0.4272
H19 H 0.1652 0.2531 0.4105
C18 C 0.0724(3) 0.0442(3) 0.91313(15)
H20 H -0.0273 0.0650 0.8814
H21 H 0.0691 -0.0449 0.9399
C19 C 0.1382(3) 0.2862(3) 0.95670(16)
C20 C 0.7082(3) 0.0678(4) 0.4877(2)
H22 H 0.8072 0.0665 0.5226
H23 H 0.7130 0.0861 0.4253
H24 H 0.6616 -0.0184 0.4923
C21 C 0.1052(2) 0.3746(2) 0.72486(17)
H25 H 0.1371 0.4447 0.6871
H26 H 0.0072 0.3448 0.6955
C22 C 0.2997(3) -0.1970(3) 0.82653(17)
H27 H 0.3945 -0.1518 0.8378
H28 H 0.3020 -0.2681 0.7831
H29 H 0.2795 -0.2349 0.8821
C23 C 0.6541(3) 0.2804(4) 0.91730(16)
H30 H 0.7546 0.2991 0.9462
H31 H 0.6250 0.1928 0.9359
H32 H 0.5886 0.3479 0.9345
C24 C 0.6168(2) 0.1785(2) 0.52416(14)
C25 C 0.6444(2) 0.2823(3) 0.81508(14)
H33 H 0.7279 0.2279 0.8017
C26 C 0.6910(3) 0.3182(3) 0.51699(18)
H34 H 0.6934 0.3379 0.4545
H35 H 0.7909 0.3165 0.5506
H36 H 0.6347 0.3868 0.5414
C27 C 0.1146(3) 0.1470(3) 0.98935(16)
H37 H 0.0363 0.1495 1.0256
H38 H 0.2053 0.1171 1.0283
C28 C 0.2598(3) 0.3670(5) 1.0126(2)
H39 H 0.2767 0.4480 0.9805
H40 H 0.3496 0.3143 1.0239
H41 H 0.2310 0.3905 1.0693
C29 C 0.3912(4) 0.2807(4) 0.32324(18)
H42 H 0.3241 0.3293 0.3544
H43 H 0.3369 0.2443 0.2677
H44 H 0.4670 0.3410 0.3099
loop_
_geom_bond_atom_site_label_1
_geom_bond_atom_site_label_2
_geom_bond_site_symmetry_1
_geom_bond_site_symmetry_2
O1 C6 1_555 1_555
O2 C7 1_555 1_555
O3 C12 1_555 1_555
C1 C6 1_555 1_555
C2 H1 1_555 1_555
C3 H2 1_555 1_555
H3 C3 1_555 1_555
C4 C2 1_555 1_555
C5 C2 1_555 1_555
H4 C5 1_555 1_555
C6 C11 1_555 1_555
C7 C1 1_555 1_555
C8 C4 1_555 1_555
H5 C8 1_555 1_555
H6 C8 1_555 1_555
C9 O1 1_555 1_555
C10 C1 1_555 1_555
H7 C10 1_555 1_555
C11 C12 1_555 1_555
C12 C24 1_555 1_555
C13 C4 1_555 1_555
H8 C13 1_555 1_555
H9 C13 1_555 1_555
H10 C13 1_555 1_555
C14 H11 1_555 1_555
C15 C14 1_555 1_555
H12 C15 1_555 1_555
H13 C15 1_555 1_555
C16 H14 1_555 1_555
H15 C16 1_555 1_555
H16 C16 1_555 1_555
C17 C11 1_555 1_555
H17 C17 1_555 1_555
H18 C17 1_555 1_555
H19 C17 1_555 1_555
C18 C2 1_555 1_555
H20 C18 1_555 1_555
H21 C18 1_555 1_555
C19 C14 1_555 1_555
C20 H22 1_555 1_555
H23 C20 1_555 1_555
H24 C20 1_555 1_555
C21 C9 1_555 1_555
H25 C21 1_555 1_555
H26 C21 1_555 1_555
C22 C4 1_555 1_555
H27 C22 1_555 1_555
H28 C22 1_555 1_555
H29 C22 1_555 1_555
C23 H30 1_555 1_555
H31 C23 1_555 1_555
H32 C23 1_555 1_555
C24 C7 1_555 1_555
C25 C10 1_555 1_555
H33 C25 1_555 1_555
C26 C24 1_555 1_555
H34 C26 1_555 1_555
H35 C26 1_555 1_555
H36 C26 1_555 1_555
C27 C18 1_555 1_555
H37 C27 1_555 1_555
H38 C27 1_555 1_555
C28 C19 1_555 1_555
H39 C28 1_555 1_555
H40 C28 1_555 1_555
H41 C28 1_555 1_555
C29 O3 1_555 1_555
H42 C29 1_555 1_555
H43 C29 1_555 1_555
H44 C29 1_555 1_555
C3 C9 1_555 1_555
C3 C10 1_555 1_555
C5 C8 1_555 1_555
C5 C9 1_555 1_555
C15 C21 1_555 1_555
C16 C25 1_555 1_555
C19 C27 1_555 1_555
C20 C24 1_555 1_555
C23 C25 1_555 1_555

#END
