
#######################################################################
#
#                 Cambridge Crystallographic Data Centre
#                                CCDC 
#
#######################################################################
#
# If this CIF has been generated from an entry in the Cambridge 
# Structural Database, then it will include bibliographic, chemical, 
# crystal, experimental, refinement or atomic coordinate data resulting 
# from the CCDC's data processing and validation procedures.
#
#######################################################################

data_PARDOC
_chemical_formula_moiety         'C25 H21 N3 O6'
_chemical_name_systematic        
4'-Ethoxycarbonyl-3'-(4-nitrophenyl)-2'-phenylspiro(indoline-3,5'-isoxazolidine)-2-one
_chemical_properties_biological  
'inhibits Mycobacterium tuberculosis showing significant inhibition of invasion at 100 micromolar concentration; low level activity against tumour cell invasion'
_symmetry_cell_setting           triclinic
_symmetry_space_group_name_H-M   'P -1'
_symmetry_Int_Tables_number      2
_space_group_name_Hall           '-P 1'
loop_
_symmetry_equiv_pos_site_id
_symmetry_equiv_pos_as_xyz
1 x,y,z
2 -x,-y,-z
_cell_length_a                   8.8355(9)
_cell_length_b                   10.9983(9)
_cell_length_c                   11.7112(12)
_cell_angle_alpha                87.345(3)
_cell_angle_beta                 84.725(3)
_cell_angle_gamma                71.029(3)
_cell_volume                     1071.51
_exptl_crystal_colour            colorless
_exptl_crystal_description       block
_chemical_melting_point          '171-172 deg.C'
_cell_formula_units_Z            2
loop_
_atom_site_label
_atom_site_type_symbol
_atom_site_fract_x
_atom_site_fract_y
_atom_site_fract_z
O1 O 0.46323(18) 0.84935(13) 0.46144(11)
O2 O 0.50382(16) 0.76828(12) 0.20760(11)
O3 O 0.1790(2) 0.26140(17) 0.62689(14)
O4 O 0.0684(3) 0.2207(2) 0.48492(18)
O5 O 0.03500(18) 0.84098(15) 0.16573(13)
O6 O 0.00784(16) 0.98531(13) 0.30194(12)
N1 N 0.4436(2) 1.03059(16) 0.34987(14)
H1 H 0.466(3) 1.075(2) 0.403(2)
N2 N 0.48879(19) 0.64616(14) 0.25701(13)
N3 N 0.1403(2) 0.28118(17) 0.52919(16)
C1 C 0.3439(2) 0.98602(18) 0.18810(16)
C2 C 0.2898(2) 1.01018(19) 0.07941(16)
H2 H 0.2590 0.9480 0.0422
C3 C 0.2815(3) 1.1276(2) 0.02591(18)
H3 H 0.2429 1.1466 -0.0481
C4 C 0.3292(3) 1.2168(2) 0.07989(19)
H4 H 0.3236 1.2961 0.0418
C5 C 0.3851(3) 1.19315(19) 0.18861(18)
H5 H 0.4182 1.2546 0.2252
C6 C 0.3908(2) 1.07709(18) 0.24132(16)
C7 C 0.4327(2) 0.91164(18) 0.37269(16)
C8 C 0.3746(2) 0.86812(17) 0.26466(15)
C9 C 0.5990(2) 0.54747(17) 0.18685(15)
C10 C 0.5543(2) 0.45364(18) 0.13553(16)
H6 H 0.4454 0.4560 0.1433
C11 C 0.6690(3) 0.35681(19) 0.07306(17)
H7 H 0.6379 0.2925 0.0395
C12 C 0.8274(3) 0.3526(2) 0.05898(17)
H8 H 0.9051 0.2866 0.0156
C13 C 0.8713(2) 0.4469(2) 0.10947(17)
H9 H 0.9799 0.4450 0.1000
C14 C 0.7597(2) 0.54303(19) 0.17310(16)
H10 H 0.7920 0.6062 0.2075
C15 C 0.3151(2) 0.66783(17) 0.25361(15)
H11 H 0.2892 0.6634 0.1729
C16 C 0.2639(2) 0.56996(17) 0.32850(15)
C17 C 0.3196(2) 0.5363(2) 0.43680(17)
H12 H 0.3856 0.5789 0.4657
C18 C 0.2802(2) 0.4416(2) 0.50296(17)
H13 H 0.3201 0.4174 0.5761
C19 C 0.1813(2) 0.38320(18) 0.45967(17)
C20 C 0.1188(3) 0.4175(2) 0.35475(18)
H14 H 0.0484 0.3776 0.3281
C21 C 0.1609(2) 0.51144(19) 0.28917(17)
H15 H 0.1192 0.5362 0.2166
C22 C 0.2404(2) 0.80622(17) 0.29718(16)
H16 H 0.2210 0.8035 0.3826
C23 C 0.0831(2) 0.87691(18) 0.24623(16)
C24 C -0.1448(3) 1.0641(2) 0.2606(2)
H17 H -0.2241 1.0175 0.2712
H18 H -0.1304 1.0849 0.1780
C25 C -0.2015(3) 1.1844(2) 0.3289(2)
H19 H -0.3073 1.2378 0.3067
H20 H -0.1251 1.2321 0.3141
H21 H -0.2091 1.1622 0.4108
loop_
_geom_bond_atom_site_label_1
_geom_bond_atom_site_label_2
_geom_bond_site_symmetry_1
_geom_bond_site_symmetry_2
O1 C7 1_555 1_555
O2 N2 1_555 1_555
O3 N3 1_555 1_555
O4 N3 1_555 1_555
O5 C23 1_555 1_555
O6 C23 1_555 1_555
N1 H1 1_555 1_555
N2 C9 1_555 1_555
N3 C19 1_555 1_555
C1 C2 1_555 1_555
C2 H2 1_555 1_555
C3 C2 1_555 1_555
H3 C3 1_555 1_555
C4 C3 1_555 1_555
H4 C4 1_555 1_555
C5 C4 1_555 1_555
H5 C5 1_555 1_555
C6 N1 1_555 1_555
C7 N1 1_555 1_555
C8 O2 1_555 1_555
C9 C10 1_555 1_555
C10 H6 1_555 1_555
C11 C10 1_555 1_555
H7 C11 1_555 1_555
C12 C11 1_555 1_555
H8 C12 1_555 1_555
C13 C12 1_555 1_555
H9 C13 1_555 1_555
C14 C9 1_555 1_555
H10 C14 1_555 1_555
C15 N2 1_555 1_555
H11 C15 1_555 1_555
C16 C15 1_555 1_555
C17 C16 1_555 1_555
H12 C17 1_555 1_555
C18 C17 1_555 1_555
H13 C18 1_555 1_555
C19 C18 1_555 1_555
C20 C19 1_555 1_555
H14 C20 1_555 1_555
C21 C16 1_555 1_555
H15 C21 1_555 1_555
C22 C8 1_555 1_555
H16 C22 1_555 1_555
C23 C22 1_555 1_555
C24 O6 1_555 1_555
H17 C24 1_555 1_555
H18 C24 1_555 1_555
C25 C24 1_555 1_555
H19 C25 1_555 1_555
H20 C25 1_555 1_555
H21 C25 1_555 1_555
C1 C6 1_555 1_555
C1 C8 1_555 1_555
C5 C6 1_555 1_555
C7 C8 1_555 1_555
C13 C14 1_555 1_555
C15 C22 1_555 1_555
C20 C21 1_555 1_555

#END
