
#######################################################################
#
#                 Cambridge Crystallographic Data Centre
#                                CCDC 
#
#######################################################################
#
# If this CIF has been generated from an entry in the Cambridge 
# Structural Database, then it will include bibliographic, chemical, 
# crystal, experimental, refinement or atomic coordinate data resulting 
# from the CCDC's data processing and validation procedures.
#
#######################################################################

data_PARDUK
_chemical_formula_moiety         'C14 H12 O2 S1'
_chemical_name_systematic        
4-ethyl-6-phenyl-1H,3H-thieno[3,4-c]furan-1-one
_symmetry_cell_setting           triclinic
_symmetry_space_group_name_H-M   'P -1'
_symmetry_Int_Tables_number      2
_space_group_name_Hall           '-P 1'
loop_
_symmetry_equiv_pos_site_id
_symmetry_equiv_pos_as_xyz
1 x,y,z
2 -x,-y,-z
_cell_length_a                   7.598(5)
_cell_length_b                   12.832(9)
_cell_length_c                   13.345(9)
_cell_angle_alpha                74.526(7)
_cell_angle_beta                 76.450(7)
_cell_angle_gamma                82.005(7)
_cell_volume                     1214.96
_exptl_crystal_colour            colorless
_exptl_crystal_description       block
_cell_formula_units_Z            4
loop_
_atom_site_label
_atom_site_type_symbol
_atom_site_fract_x
_atom_site_fract_y
_atom_site_fract_z
C1 C 0.0667(2) 0.19761(14) 0.73396(14)
C2 C -0.0241(2) 0.21459(14) 0.83165(14)
C3 C -0.1192(3) 0.14766(15) 0.93754(15)
H1 H -0.2165 0.1094 0.9282
H2 H -0.0321 0.0936 0.9724
C4 C -0.1489(2) 0.33154(15) 0.94508(14)
C5 C -0.0382(2) 0.32472(14) 0.83860(14)
C6 C 0.0409(2) 0.39692(14) 0.74548(14)
C7 C 0.1100(3) 0.09492(15) 0.69307(15)
H3 H 0.229 0.0991 0.6428
H4 H 0.017 0.0911 0.6535
C8 C 0.1161(3) -0.00920(15) 0.78224(17)
H5 H 0.1993 -0.0031 0.8261
H6 H 0.1587 -0.0715 0.751
H7 H -0.0059 -0.0194 0.8265
C9 C 0.0446(2) 0.51727(14) 0.71892(14)
C10 C 0.0447(2) 0.57215(15) 0.79749(15)
H8 H 0.0488 0.5317 0.8679
C11 C 0.0389(3) 0.68542(16) 0.77279(16)
H9 H 0.0381 0.7215 0.8265
C12 C 0.0341(3) 0.74580(16) 0.66920(16)
H10 H 0.0286 0.8228 0.6528
C13 C 0.0375(3) 0.69282(16) 0.59020(16)
H11 H 0.0356 0.7337 0.5197
C14 C 0.0437(3) 0.57935(15) 0.61448(15)
H12 H 0.0474 0.5438 0.5599
O1 O -0.19570(18) 0.22843(10) 1.00007(10)
O2 O -0.19963(19) 0.40844(11) 0.98517(10)
S1 S 0.13589(6) 0.32270(4) 0.65091(4)
C15 C 0.4796(2) 0.56800(15) 0.21658(15)
C16 C 0.5573(2) 0.64533(15) 0.12981(14)
C17 C 0.6572(3) 0.64864(16) 0.01693(15)
H13 H 0.7655 0.5959 0.0155
H14 H 0.5771 0.6325 -0.0248
C18 C 0.6465(2) 0.82320(16) 0.04886(15)
C19 C 0.5455(2) 0.75149(14) 0.14676(14)
C20 C 0.4566(2) 0.75972(14) 0.24874(14)
C21 C 0.4620(3) 0.44886(15) 0.22752(16)
H15 H 0.5609 0.4225 0.1749
H16 H 0.3454 0.4419 0.2098
C22 C 0.4693(3) 0.37548(17) 0.33864(18)
H17 H 0.5835 0.3824 0.3576
H18 H 0.4624 0.2999 0.3383
H19 H 0.3667 0.3974 0.3908
C23 C 0.4148(2) 0.85417(15) 0.29750(14)
C24 C 0.3960(3) 0.96081(16) 0.23427(16)
H20 H 0.4117 0.9726 0.1595
C25 C 0.3543(3) 1.04952(17) 0.28067(17)
H21 H 0.3431 1.121 0.2372
C26 C 0.3293(3) 1.03297(18) 0.39087(17)
H22 H 0.2999 1.0931 0.4223
C27 C 0.3475(3) 0.92811(18) 0.45467(17)
H23 H 0.3311 0.9171 0.5294
C28 C 0.3899(3) 0.83910(17) 0.40899(15)
H24 H 0.402 0.768 0.453
O3 O 0.71028(19) 0.76108(11) -0.02494(10)
O4 O 0.67996(18) 0.91770(11) 0.02721(11)
S2 S 0.38836(6) 0.63127(4) 0.32175(4)
loop_
_geom_bond_atom_site_label_1
_geom_bond_atom_site_label_2
_geom_bond_site_symmetry_1
_geom_bond_site_symmetry_2
C1 C2 1_555 1_555
C2 C3 1_555 1_555
C3 H1 1_555 1_555
H2 C3 1_555 1_555
C4 C5 1_555 1_555
C5 C2 1_555 1_555
C6 C5 1_555 1_555
C7 C1 1_555 1_555
H3 C7 1_555 1_555
H4 C7 1_555 1_555
C8 C7 1_555 1_555
H5 C8 1_555 1_555
H6 C8 1_555 1_555
H7 C8 1_555 1_555
C9 C6 1_555 1_555
C10 C9 1_555 1_555
H8 C10 1_555 1_555
C11 C10 1_555 1_555
H9 C11 1_555 1_555
C12 C11 1_555 1_555
H10 C12 1_555 1_555
C13 C12 1_555 1_555
H11 C13 1_555 1_555
C14 C9 1_555 1_555
H12 C14 1_555 1_555
O1 C3 1_555 1_555
O2 C4 1_555 1_555
S1 C1 1_555 1_555
C15 C16 1_555 1_555
C16 C17 1_555 1_555
C17 H13 1_555 1_555
H14 C17 1_555 1_555
C18 C19 1_555 1_555
C19 C16 1_555 1_555
C20 C19 1_555 1_555
C21 C15 1_555 1_555
H15 C21 1_555 1_555
H16 C21 1_555 1_555
C22 C21 1_555 1_555
H17 C22 1_555 1_555
H18 C22 1_555 1_555
H19 C22 1_555 1_555
C23 C20 1_555 1_555
C24 C23 1_555 1_555
H20 C24 1_555 1_555
C25 C24 1_555 1_555
H21 C25 1_555 1_555
C26 C25 1_555 1_555
H22 C26 1_555 1_555
C27 C26 1_555 1_555
H23 C27 1_555 1_555
C28 C23 1_555 1_555
H24 C28 1_555 1_555
O3 C17 1_555 1_555
O4 C18 1_555 1_555
S2 C15 1_555 1_555
C4 O1 1_555 1_555
C6 S1 1_555 1_555
C13 C14 1_555 1_555
C18 O3 1_555 1_555
C20 S2 1_555 1_555
C27 C28 1_555 1_555

#END
