
#######################################################################
#
#                 Cambridge Crystallographic Data Centre
#                                CCDC 
#
#######################################################################
#
# If this CIF has been generated from an entry in the Cambridge 
# Structural Database, then it will include bibliographic, chemical, 
# crystal, experimental, refinement or atomic coordinate data resulting 
# from the CCDC's data processing and validation procedures.
#
#######################################################################

data_PARDUI
_chemical_formula_moiety         'C25 H21 Cl1 N2 O4'
_chemical_name_systematic        
3'-(4-Chlorophenyl)-5'-ethoxycarbonyl-2'-phenylspiro(indoline-3,4'-isoxazolidine)-2-one
_chemical_properties_biological  
'low level activity against Mycobacterium tuberculosis'
_symmetry_cell_setting           monoclinic
_symmetry_space_group_name_H-M   'P 21/n'
_symmetry_Int_Tables_number      14
_space_group_name_Hall           '-P 2yn'
loop_
_symmetry_equiv_pos_site_id
_symmetry_equiv_pos_as_xyz
1 x,y,z
2 1/2-x,1/2+y,1/2-z
3 -x,-y,-z
4 1/2+x,1/2-y,1/2+z
_cell_length_a                   15.4065(12)
_cell_length_b                   7.1722(9)
_cell_length_c                   19.9684(16)
_cell_angle_alpha                90
_cell_angle_beta                 91.229(3)
_cell_angle_gamma                90
_cell_volume                     2205.97
_exptl_crystal_colour            colorless
_exptl_crystal_description       block
_chemical_melting_point          '158-159 deg.C'
_cell_formula_units_Z            4
loop_
_atom_site_label
_atom_site_type_symbol
_atom_site_fract_x
_atom_site_fract_y
_atom_site_fract_z
Cl1 Cl 0.54810(3) 0.04593(8) 0.58456(3)
O1 O 0.06899(8) 0.21174(16) 0.51392(6)
O2 O 0.17082(8) 0.76374(15) 0.49942(6)
O3 O 0.09904(8) 0.80169(16) 0.37523(6)
O4 O 0.03220(8) 0.52362(16) 0.38473(6)
N1 N 0.16117(10) 0.1571(2) 0.42666(8)
H1 H 0.1442(13) 0.045(3) 0.4180(10)
C1 C 0.23529(11) 0.4322(2) 0.42147(8)
N2 N 0.21995(9) 0.68743(19) 0.55596(7)
C2 C 0.29200(11) 0.5588(3) 0.39412(9)
H2 H 0.3001 0.6785 0.4136
C3 C 0.33707(13) 0.5073(3) 0.33739(10)
H3 H 0.3759 0.5932 0.3177
C4 C 0.32601(14) 0.3322(3) 0.30934(10)
H4 H 0.3576 0.2998 0.2707
C5 C 0.26961(13) 0.2030(3) 0.33654(10)
H5 H 0.2624 0.0825 0.3175
C6 C 0.22444(11) 0.2567(2) 0.39234(9)
C7 C 0.12614(11) 0.2586(2) 0.47671(8)
C8 C 0.17472(10) 0.4467(2) 0.47913(8)
C9 C 0.21552(11) 0.4793(2) 0.54982(8)
H6 H 0.1738 0.4324 0.5836
C10 C 0.30098(11) 0.3807(2) 0.56156(8)
C11 C 0.38123(12) 0.4673(3) 0.55761(9)
H7 H 0.3840 0.5975 0.5493
C12 C 0.45752(12) 0.3661(3) 0.56573(9)
H8 H 0.5123 0.4263 0.5634
C13 C 0.45264(12) 0.1767(3) 0.57729(9)
C14 C 0.37413(13) 0.0871(3) 0.58225(10)
H9 H 0.3719 -0.0432 0.5906
C15 C 0.29807(12) 0.1903(2) 0.57487(9)
H10 H 0.2435 0.1302 0.5790
C16 C 0.18476(11) 0.7540(2) 0.61753(8)
C17 C 0.11439(12) 0.8745(2) 0.62035(9)
H11 H 0.0865 0.9175 0.5804
C18 C 0.08534(13) 0.9312(3) 0.68258(10)
H12 H 0.0372 1.0135 0.6849
C19 C 0.12551(14) 0.8695(3) 0.74134(10)
H13 H 0.1046 0.9080 0.7836
C20 C 0.19598(14) 0.7518(3) 0.73796(10)
H14 H 0.2238 0.7093 0.7780
C21 C 0.22654(13) 0.6952(3) 0.67651(9)
H15 H 0.2759 0.6163 0.6745
C22 C 0.11475(11) 0.6180(2) 0.47650(8)
H16 H 0.0652 0.6017 0.5075
C23 C 0.08173(11) 0.6638(2) 0.40665(8)
C24 C 0.00303(13) 0.5287(3) 0.31453(9)
H17 H -0.0012 0.6595 0.2990
H18 H -0.0551 0.4708 0.3098
C25 C 0.06689(15) 0.4243(3) 0.27311(10)
H19 H 0.0478 0.4270 0.2260
H20 H 0.0704 0.2947 0.2885
H21 H 0.1242 0.4829 0.2778
loop_
_geom_bond_atom_site_label_1
_geom_bond_atom_site_label_2
_geom_bond_site_symmetry_1
_geom_bond_site_symmetry_2
Cl1 C13 1_555 1_555
O1 C7 1_555 1_555
O2 N2 1_555 1_555
O3 C23 1_555 1_555
O4 C23 1_555 1_555
N1 H1 1_555 1_555
C1 C2 1_555 1_555
N2 C9 1_555 1_555
C2 H2 1_555 1_555
C3 C2 1_555 1_555
H3 C3 1_555 1_555
C4 C3 1_555 1_555
H4 C4 1_555 1_555
C5 C4 1_555 1_555
H5 C5 1_555 1_555
C6 N1 1_555 1_555
C7 N1 1_555 1_555
C8 C1 1_555 1_555
C9 C8 1_555 1_555
H6 C9 1_555 1_555
C10 C9 1_555 1_555
C11 C10 1_555 1_555
H7 C11 1_555 1_555
C12 C11 1_555 1_555
H8 C12 1_555 1_555
C13 C12 1_555 1_555
C14 C13 1_555 1_555
H9 C14 1_555 1_555
C15 C10 1_555 1_555
H10 C15 1_555 1_555
C16 N2 1_555 1_555
C17 C16 1_555 1_555
H11 C17 1_555 1_555
C18 C17 1_555 1_555
H12 C18 1_555 1_555
C19 C18 1_555 1_555
H13 C19 1_555 1_555
C20 C19 1_555 1_555
H14 C20 1_555 1_555
C21 C16 1_555 1_555
H15 C21 1_555 1_555
C22 O2 1_555 1_555
H16 C22 1_555 1_555
C23 C22 1_555 1_555
C24 O4 1_555 1_555
H17 C24 1_555 1_555
H18 C24 1_555 1_555
C25 C24 1_555 1_555
H19 C25 1_555 1_555
H20 C25 1_555 1_555
H21 C25 1_555 1_555
C1 C6 1_555 1_555
C5 C6 1_555 1_555
C7 C8 1_555 1_555
C8 C22 1_555 1_555
C14 C15 1_555 1_555
C20 C21 1_555 1_555

#END
