
#######################################################################
#
#                 Cambridge Crystallographic Data Centre
#                                CCDC 
#
#######################################################################
#
# If this CIF has been generated from an entry in the Cambridge 
# Structural Database, then it will include bibliographic, chemical, 
# crystal, experimental, refinement or atomic coordinate data resulting 
# from the CCDC's data processing and validation procedures.
#
#######################################################################

data_PARDAQ
_chemical_compound_source        'aerial parts of Baeckea frutescens L.'
_chemical_name_common            'frutescone C'
_chemical_formula_moiety         'C29 H44 O3'
_chemical_name_systematic        
10-isopropyl-7-methoxy-2,2,4a,6,8,8-hexamethyl-13-methylene-2,2a,3,4,4a,8,10,10a,11,12,13,13a-dodecahydrocyclobuta[6,7]cyclonona[1,2-b]chromen-9(1H)-one
_chemical_properties_biological  
'tested for cytotoxicity against human cancer cell lines Caco-2, A549 and HepG2'
_symmetry_cell_setting           orthorhombic
_symmetry_space_group_name_H-M   'P 21 21 21'
_symmetry_Int_Tables_number      19
_space_group_name_Hall           'P 2ac 2ab'
loop_
_symmetry_equiv_pos_site_id
_symmetry_equiv_pos_as_xyz
1 x,y,z
2 1/2-x,-y,1/2+z
3 -x,1/2+y,1/2-z
4 1/2+x,1/2-y,-z
_cell_length_a                   8.41900(10)
_cell_length_b                   17.21920(10)
_cell_length_c                   18.20720(10)
_cell_angle_alpha                90
_cell_angle_beta                 90
_cell_angle_gamma                90
_cell_volume                     2639.47
_exptl_crystal_description       block
_cell_formula_units_Z            4
loop_
_atom_site_label
_atom_site_type_symbol
_atom_site_fract_x
_atom_site_fract_y
_atom_site_fract_z
O1 O 0.46371(15) 0.67152(7) 0.72057(7)
O2 O 0.51024(17) 0.90146(7) 0.58108(8)
O3 O 0.01194(16) 0.77094(9) 0.60247(9)
C1 C 0.3864(2) 0.72305(9) 0.67772(8)
C2 C 0.2298(2) 0.71661(9) 0.66378(8)
C3 C 0.4890(2) 0.78672(9) 0.65347(9)
C4 C 0.1541(2) 0.77367(10) 0.61749(9)
C5 C 0.1348(2) 0.65247(9) 0.69922(9)
H1 H 0.0437 0.6426 0.6671
C6 C 0.4247(2) 0.83955(9) 0.60833(9)
C7 C 0.2389(2) 0.57837(8) 0.69729(9)
H2 H 0.2502 0.5654 0.6451
C8 C 0.0657(2) 0.67437(10) 0.77646(9)
H3 H 0.1350 0.6516 0.8140
C9 C 0.0303(2) 0.47105(11) 0.68566(13)
H4 H -0.0192 0.4292 0.7130
H5 H -0.0501 0.5102 0.6766
C10 C 0.1619(2) 0.50665(10) 0.73264(11)
H6 H 0.2432 0.4678 0.7412
H7 H 0.1180 0.5212 0.7799
C11 C 0.4106(2) 0.58991(9) 0.72576(9)
C12 C 0.2526(2) 0.84138(10) 0.58678(10)
C13 C 0.6564(2) 0.79060(11) 0.68147(11)
H8 H 0.6581 0.7773 0.7327
H9 H 0.6968 0.8423 0.6751
H10 H 0.7214 0.7547 0.6546
C14 C 0.5306(2) 0.54832(11) 0.67592(12)
H11 H 0.6355 0.5577 0.6960
H12 H 0.5270 0.5735 0.6283
C15 C 0.4052(2) 0.43339(11) 0.60113(11)
H13 H 0.3914 0.4765 0.5665
C16 C 0.0876(3) 0.43983(11) 0.61317(12)
C17 C -0.1007(2) 0.64099(12) 0.78700(12)
H14 H -0.1683 0.6584 0.7478
H15 H -0.1430 0.6583 0.8331
H16 H -0.0955 0.5853 0.7867
C18 C 0.2389(3) 0.39394(11) 0.61372(11)
H17 H 0.2433 0.3632 0.6590
C19 C 0.4392(3) 0.57120(11) 0.80633(10)
H18 H 0.5441 0.5877 0.8200
H19 H 0.4294 0.5162 0.8139
H20 H 0.3623 0.5979 0.8359
C20 C 0.5154(2) 0.46020(11) 0.66271(12)
H21 H 0.6207 0.4400 0.6526
H22 H 0.4794 0.4365 0.7081
C21 C 0.0577(3) 0.76182(11) 0.78991(12)
H23 H 0.1624 0.7836 0.7864
H24 H 0.0153 0.7715 0.8380
H25 H -0.0098 0.7854 0.7537
C22 C 0.2379(3) 0.83983(16) 0.50258(12)
H26 H 0.2934 0.7955 0.4836
H27 H 0.2832 0.8864 0.4825
H28 H 0.1278 0.8367 0.4891
C23 C 0.4562(3) 0.35968(13) 0.55679(12)
C24 C 0.1794(3) 0.91693(12) 0.61694(17)
H29 H 0.0691 0.9193 0.6038
H30 H 0.2341 0.9608 0.5964
H31 H 0.1895 0.9178 0.6694
C25 C 0.6398(3) 0.88271(14) 0.53285(15)
H32 H 0.5996 0.8569 0.4900
H33 H 0.7131 0.8492 0.5579
H34 H 0.6932 0.9296 0.5185
C26 C 0.2799(4) 0.34072(15) 0.54813(15)
H35 H 0.2549 0.2865 0.5567
H36 H 0.2352 0.3583 0.5019
C27 C 0.0012(4) 0.45097(17) 0.55348(16)
H37 H 0.0335 0.4298 0.5089
H38 H -0.0919 0.4799 0.5561
C28 C 0.5463(4) 0.37612(18) 0.48634(15)
H39 H 0.4897 0.4142 0.4580
H40 H 0.5559 0.3291 0.4584
H41 H 0.6501 0.3955 0.4980
C29 C 0.5427(4) 0.29911(16) 0.60201(16)
H42 H 0.6478 0.3173 0.6131
H43 H 0.5494 0.2516 0.5746
H44 H 0.4858 0.2901 0.6469
loop_
_geom_bond_atom_site_label_1
_geom_bond_atom_site_label_2
_geom_bond_site_symmetry_1
_geom_bond_site_symmetry_2
O1 C1 1_555 1_555
O2 C6 1_555 1_555
O3 C4 1_555 1_555
C1 C2 1_555 1_555
C2 C4 1_555 1_555
C3 C1 1_555 1_555
C4 C12 1_555 1_555
C5 C2 1_555 1_555
H1 C5 1_555 1_555
C6 C3 1_555 1_555
C7 C5 1_555 1_555
H2 C7 1_555 1_555
C8 C5 1_555 1_555
H3 C8 1_555 1_555
C9 H4 1_555 1_555
H5 C9 1_555 1_555
C10 C7 1_555 1_555
H6 C10 1_555 1_555
H7 C10 1_555 1_555
C11 O1 1_555 1_555
C12 C6 1_555 1_555
C13 C3 1_555 1_555
H8 C13 1_555 1_555
H9 C13 1_555 1_555
H10 C13 1_555 1_555
C14 C11 1_555 1_555
H11 C14 1_555 1_555
H12 C14 1_555 1_555
C15 H13 1_555 1_555
C16 C9 1_555 1_555
C17 C8 1_555 1_555
H14 C17 1_555 1_555
H15 C17 1_555 1_555
H16 C17 1_555 1_555
C18 C15 1_555 1_555
H17 C18 1_555 1_555
C19 C11 1_555 1_555
H18 C19 1_555 1_555
H19 C19 1_555 1_555
H20 C19 1_555 1_555
C20 C14 1_555 1_555
H21 C20 1_555 1_555
H22 C20 1_555 1_555
C21 C8 1_555 1_555
H23 C21 1_555 1_555
H24 C21 1_555 1_555
H25 C21 1_555 1_555
C22 C12 1_555 1_555
H26 C22 1_555 1_555
H27 C22 1_555 1_555
H28 C22 1_555 1_555
C23 C15 1_555 1_555
C24 C12 1_555 1_555
H29 C24 1_555 1_555
H30 C24 1_555 1_555
H31 C24 1_555 1_555
C25 O2 1_555 1_555
H32 C25 1_555 1_555
H33 C25 1_555 1_555
H34 C25 1_555 1_555
C26 C18 1_555 1_555
H35 C26 1_555 1_555
H36 C26 1_555 1_555
C27 C16 1_555 1_555
H37 C27 1_555 1_555
H38 C27 1_555 1_555
C28 C23 1_555 1_555
H39 C28 1_555 1_555
H40 C28 1_555 1_555
H41 C28 1_555 1_555
C29 C23 1_555 1_555
H42 C29 1_555 1_555
H43 C29 1_555 1_555
H44 C29 1_555 1_555
C7 C11 1_555 1_555
C9 C10 1_555 1_555
C15 C20 1_555 1_555
C16 C18 1_555 1_555
C23 C26 1_555 1_555

#END
