
#######################################################################
#
#                 Cambridge Crystallographic Data Centre
#                                CCDC 
#
#######################################################################
#
# If this CIF has been generated from an entry in the Cambridge 
# Structural Database, then it will include bibliographic, chemical, 
# crystal, experimental, refinement or atomic coordinate data resulting 
# from the CCDC's data processing and validation procedures.
#
#######################################################################

data_PARDAN
_chemical_formula_moiety         'C12 H10 Cl1 N1 O2'
_chemical_name_systematic        
cis-6-(2-Chlorophenyl)-4-methyl-4H,6H-furo(3,4-c)isoxazole
_symmetry_cell_setting           monoclinic
_symmetry_space_group_name_H-M   'P 21/c'
_symmetry_Int_Tables_number      14
_space_group_name_Hall           '-P 2ybc'
loop_
_symmetry_equiv_pos_site_id
_symmetry_equiv_pos_as_xyz
1 x,y,z
2 -x,1/2+y,1/2-z
3 -x,-y,-z
4 x,1/2-y,1/2+z
_cell_length_a                   13.042(4)
_cell_length_b                   10.193(2)
_cell_length_c                   8.122(3)
_cell_angle_alpha                90
_cell_angle_beta                 103.28(2)
_cell_angle_gamma                90
_cell_volume                     1050.84
_exptl_crystal_colour            colorless
_chemical_melting_point          '109-110 deg.C'
_cell_formula_units_Z            4
loop_
_atom_site_label
_atom_site_type_symbol
_atom_site_fract_x
_atom_site_fract_y
_atom_site_fract_z
Cl1 Cl 0.2295(1) 0.9197(1) 0.1098(1)
O1 O 0.0043(1) 0.6144(2) 0.2996(3)
O2 O 0.2409(2) 0.4820(2) 0.0542(2)
N1 N 0.0750(2) 0.6953(2) 0.2343(3)
C1 C 0.0233(2) 0.4860(3) 0.2703(4)
C2 C 0.1027(2) 0.4793(3) 0.1887(3)
C3 C 0.1308(2) 0.6103(3) 0.1714(3)
C4 C 0.2216(2) 0.6180(3) 0.0869(3)
C5 C 0.1706(2) 0.3901(3) 0.1130(3)
C6 C 0.2350(2) 0.2922(3) 0.2348(4)
C7 C 0.3195(2) 0.6807(3) 0.1979(3)
C8 C 0.3291(2) 0.8165(3) 0.2179(3)
C9 C 0.4172(2) 0.8736(3) 0.3215(3)
C10 C 0.4995(2) 0.7953(3) 0.4058(4)
C11 C 0.4917(2) 0.6603(3) 0.3866(4)
C12 C 0.4026(2) 0.6041(3) 0.2850(3)
H1 H -0.0135 0.4122 0.3026
H2 H 0.2010 0.6649 -0.0180
H3 H 0.1282 0.3443 0.0182
H4 H 0.2759 0.2386 0.1767
H5 H 0.2811 0.3390 0.3246
H6 H 0.1887 0.2374 0.2811
H7 H 0.4213 0.9673 0.3333
H8 H 0.5610 0.8340 0.4772
H9 H 0.5485 0.6056 0.4446
H10 H 0.3983 0.5103 0.2741
loop_
_geom_bond_atom_site_label_1
_geom_bond_atom_site_label_2
_geom_bond_site_symmetry_1
_geom_bond_site_symmetry_2
Cl1 C8 1_555 1_555
O1 N1 1_555 1_555
O2 C4 1_555 1_555
N1 C3 1_555 1_555
C1 O1 1_555 1_555
C2 C1 1_555 1_555
C3 C2 1_555 1_555
C4 C3 1_555 1_555
C5 O2 1_555 1_555
C6 C5 1_555 1_555
C7 C4 1_555 1_555
C8 C7 1_555 1_555
C9 C8 1_555 1_555
C10 C9 1_555 1_555
C11 C10 1_555 1_555
C12 C7 1_555 1_555
H1 C1 1_555 1_555
H2 C4 1_555 1_555
H3 C5 1_555 1_555
H4 C6 1_555 1_555
H5 C6 1_555 1_555
H6 C6 1_555 1_555
H7 C9 1_555 1_555
H8 C10 1_555 1_555
H9 C11 1_555 1_555
H10 C12 1_555 1_555
C2 C5 1_555 1_555
C11 C12 1_555 1_555

#END
