
#######################################################################
#
#                 Cambridge Crystallographic Data Centre
#                                CCDC 
#
#######################################################################
#
# If this CIF has been generated from an entry in the Cambridge 
# Structural Database, then it will include bibliographic, chemical, 
# crystal, experimental, refinement or atomic coordinate data resulting 
# from the CCDC's data processing and validation procedures.
#
#######################################################################

data_PARFIY
_chemical_formula_moiety         'C16 H11 N7 O2 S1,0.5(C4 H10 O1)'
_chemical_name_systematic        
5-Cyano-5-(pyrimidin-2-yl)-2,7-dimethyl-5H-dipyridazino(4,5-b:4,5-e)-4H-thiopyran-1,6-dione
_symmetry_cell_setting           triclinic
_symmetry_space_group_name_H-M   'P -1'
_symmetry_Int_Tables_number      2
_space_group_name_Hall           '-P 1'
loop_
_symmetry_equiv_pos_site_id
_symmetry_equiv_pos_as_xyz
1 x,y,z
2 -x,-y,-z
_cell_length_a                   9.4098
_cell_length_b                   13.0553
_cell_length_c                   16.9147(1)
_cell_angle_alpha                103.9575(5)
_cell_angle_beta                 101.5499(1)
_cell_angle_gamma                109.3312(7)
_cell_volume                     1811.71
_exptl_crystal_colour            colorless
_exptl_crystal_description       block
_chemical_melting_point          '186 deg.C'
_cell_formula_units_Z            4
loop_
_atom_site_label
_atom_site_type_symbol
_atom_site_fract_x
_atom_site_fract_y
_atom_site_fract_z
S1 S -0.1070(1) 0.46877(8) 0.38555(6)
O1 O 0.1569(3) 0.9042(2) 0.5545(2)
O2 O -0.0081(3) 0.2967(2) 0.3121(2)
N1 N -0.1063(3) 0.8034(2) 0.5285(2)
N2 N -0.2405(3) 0.7060(3) 0.4954(2)
N3 N 0.2595(3) 0.4039(2) 0.3531(2)
N4 N 0.3895(3) 0.5036(3) 0.3925(2)
N5 N 0.4198(4) 0.7956(3) 0.6249(2)
N6 N 0.4133(3) 0.8604(2) 0.4395(2)
N7 N 0.1398(3) 0.7849(3) 0.3562(2)
C1 C 0.2106(4) 0.7138(3) 0.4725(2)
C2 C 0.0488(4) 0.7031(3) 0.4806(2)
C3 C 0.0408(4) 0.8100(3) 0.5235(2)
C4 C -0.2302(4) 0.6129(3) 0.4553(2)
C5 C -0.0859(4) 0.6061(3) 0.4450(2)
C6 C 0.0890(4) 0.4957(3) 0.3900(2)
C7 C 0.1063(4) 0.3907(3) 0.3489(2)
C8 C 0.3678(4) 0.5960(3) 0.4279(2)
C9 C 0.2173(4) 0.5981(3) 0.4287(2)
C10 C -0.1236(4) 0.9088(3) 0.5728(3)
C11 C 0.2922(4) 0.3049(3) 0.3133(2)
C12 C 0.3293(4) 0.7642(3) 0.5582(2)
C13 C 0.2585(4) 0.7938(3) 0.4190(2)
C14 C 0.4470(4) 0.9295(3) 0.3919(2)
C15 C 0.3323(4) 0.9303(3) 0.3275(2)
C16 C 0.1783(4) 0.8558(3) 0.3105(2)
H1 H -0.3253 0.5433 0.4317
H2 H 0.4589 0.6672 0.4557
H3 H -0.0926 0.9647 0.5462
H4 H -0.0582 0.9398 0.6316
H5 H -0.2307 0.8912 0.5720
H6 H 0.3727 0.2985 0.3526
H7 H 0.1984 0.2359 0.2944
H8 H 0.3252 0.3136 0.2642
H9 H 0.5554 0.9797 0.4048
H10 H 0.3598 0.9808 0.2951
H11 H 0.0958 0.8541 0.2655
S2 S 0.1399(1) 0.06310(8) 0.11590(6)
O3 O 0.2263(3) 0.3556(2) -0.0445(2)
O4 O -0.0749(3) -0.0228(2) 0.2025(2)
N8 N 0.3932(3) 0.2635(3) -0.0285(2)
N9 N 0.4430(3) 0.1888(3) 0.0004(2)
N10 N -0.2457(3) 0.0628(2) 0.1710(2)
N11 N -0.2972(3) 0.1290(3) 0.1316(2)
N12 N -0.1816(4) 0.1914(3) -0.1118(2)
N13 N -0.0135(3) 0.4215(2) 0.0692(2)
N14 N 0.2191(3) 0.4119(2) 0.1491(2)
C17 C 0.0254(4) 0.2409(3) 0.0348(2)
C18 C 0.1678(4) 0.2151(3) 0.0229(2)
C19 C 0.2601(4) 0.2829(3) -0.0192(2)
C20 C 0.3592(4) 0.1319(3) 0.0390(2)
C21 C 0.2212(4) 0.1432(3) 0.0554(2)
C22 C -0.0213(4) 0.0992(3) 0.1196(2)
C23 C -0.1138(4) 0.0417(3) 0.1683(2)
C24 C -0.2096(4) 0.1801(3) 0.0909(2)
C25 C -0.0673(4) 0.1697(3) 0.0823(2)
C26 C 0.5008(4) 0.3346(3) -0.0640(3)
C27 C -0.3444(5) 0.0108(3) 0.2182(3)
C28 C -0.0871(4) 0.2161(3) -0.0481(2)
C29 C 0.0819(4) 0.3700(3) 0.0882(2)
C30 C 0.0413(4) 0.5338(3) 0.1166(2)
C31 C 0.1860(4) 0.5896(3) 0.1787(2)
C32 C 0.2723(4) 0.5250(3) 0.1961(2)
H12 H 0.3929 0.0783 0.0590
H13 H -0.2431 0.2286 0.0635
H14 H 0.4433 0.3348 -0.1179
H15 H 0.5787 0.3055 -0.0737
H16 H 0.5530 0.4122 -0.0261
H17 H -0.2793 0.0168 0.2724
H18 H -0.4131 0.0483 0.2293
H19 H -0.4071 -0.0691 0.1874
H20 H -0.0219 0.5767 0.1055
H21 H 0.2254 0.6696 0.2114
H22 H 0.3716 0.5614 0.2402
O5 O 0.6537(3) 0.6145(2) 0.2533(2)
C33 C 0.7518(5) 0.7354(4) 0.2869(3)
C34 C 0.6595(5) 0.7978(3) 0.3239(3)
C35 C 0.7286(5) 0.5483(4) 0.2117(2)
C36 C 0.6216(6) 0.4232(4) 0.1845(3)
H23 H 0.8463 0.7513 0.3312
H24 H 0.7835 0.7637 0.2435
H25 H 0.5808 0.7988 0.2797
H26 H 0.7269 0.8752 0.3594
H27 H 0.6083 0.7592 0.3587
H28 H 0.7450 0.5679 0.1619
H29 H 0.8289 0.5635 0.2490
H30 H 0.5771 0.4085 0.2292
H31 H 0.5378 0.4013 0.1339
H32 H 0.6796 0.3756 0.1746
loop_
_geom_bond_atom_site_label_1
_geom_bond_atom_site_label_2
_geom_bond_site_symmetry_1
_geom_bond_site_symmetry_2
S1 C5 1_555 1_555
S2 C21 1_555 1_555
O1 C3 1_555 1_555
O2 C7 1_555 1_555
O3 C19 1_555 1_555
O4 C23 1_555 1_555
O5 C33 1_555 1_555
N1 N2 1_555 1_555
N2 C4 1_555 1_555
N3 N4 1_555 1_555
N4 C8 1_555 1_555
N5 C12 1_555 1_555
N6 C13 1_555 1_555
N7 C13 1_555 1_555
N8 N9 1_555 1_555
N9 C20 1_555 1_555
N10 N11 1_555 1_555
N11 C24 1_555 1_555
N12 C28 1_555 1_555
N13 C29 1_555 1_555
N14 C29 1_555 1_555
C1 C2 1_555 1_555
C2 C3 1_555 1_555
C3 N1 1_555 1_555
C4 C5 1_555 1_555
C5 C2 1_555 1_555
C6 S1 1_555 1_555
C7 N3 1_555 1_555
C8 C9 1_555 1_555
C9 C1 1_555 1_555
C10 N1 1_555 1_555
C11 N3 1_555 1_555
C12 C1 1_555 1_555
C13 C1 1_555 1_555
C14 N6 1_555 1_555
C15 C14 1_555 1_555
C16 N7 1_555 1_555
C17 C18 1_555 1_555
C18 C19 1_555 1_555
C19 N8 1_555 1_555
C20 C21 1_555 1_555
C21 C18 1_555 1_555
C22 S2 1_555 1_555
C23 N10 1_555 1_555
C24 C25 1_555 1_555
C25 C17 1_555 1_555
C26 N8 1_555 1_555
C27 N10 1_555 1_555
C28 C17 1_555 1_555
C29 C17 1_555 1_555
C30 N13 1_555 1_555
C31 C30 1_555 1_555
C32 N14 1_555 1_555
C33 C34 1_555 1_555
C34 H25 1_555 1_555
C35 O5 1_555 1_555
C36 C35 1_555 1_555
H1 C4 1_555 1_555
H2 C8 1_555 1_555
H3 C10 1_555 1_555
H4 C10 1_555 1_555
H5 C10 1_555 1_555
H6 C11 1_555 1_555
H7 C11 1_555 1_555
H8 C11 1_555 1_555
H9 C14 1_555 1_555
H10 C15 1_555 1_555
H11 C16 1_555 1_555
H12 C20 1_555 1_555
H13 C24 1_555 1_555
H14 C26 1_555 1_555
H15 C26 1_555 1_555
H16 C26 1_555 1_555
H17 C27 1_555 1_555
H18 C27 1_555 1_555
H19 C27 1_555 1_555
H20 C30 1_555 1_555
H21 C31 1_555 1_555
H22 C32 1_555 1_555
H23 C33 1_555 1_555
H24 C33 1_555 1_555
H26 C34 1_555 1_555
H27 C34 1_555 1_555
H28 C35 1_555 1_555
H29 C35 1_555 1_555
H30 C36 1_555 1_555
H31 C36 1_555 1_555
H32 C36 1_555 1_555
C6 C7 1_555 1_555
C6 C9 1_555 1_555
C15 C16 1_555 1_555
C22 C23 1_555 1_555
C22 C25 1_555 1_555
C31 C32 1_555 1_555

#END
