
#######################################################################
#
#                 Cambridge Crystallographic Data Centre
#                                CCDC 
#
#######################################################################
#
# If this CIF has been generated from an entry in the Cambridge 
# Structural Database, then it will include bibliographic, chemical, 
# crystal, experimental, refinement or atomic coordinate data resulting 
# from the CCDC's data processing and validation procedures.
#
#######################################################################

data_PARFAQ01
_chemical_formula_moiety         'C12 H11 N1 O3'
_chemical_name_systematic        
'ethyl (2-oxo-1,2-dihydro-3H-indol-3-ylidene)acetate'
_symmetry_cell_setting           monoclinic
_symmetry_space_group_name_H-M   'C 2/c'
_symmetry_Int_Tables_number      15
_space_group_name_Hall           '-C 2yn'
loop_
_symmetry_equiv_pos_site_id
_symmetry_equiv_pos_as_xyz
1 x,y,z
2 -x,y,1/2-z
3 1/2+x,1/2+y,z
4 1/2-x,1/2+y,1/2-z
5 -x,-y,-z
6 x,-y,1/2+z
7 1/2-x,1/2-y,-z
8 1/2+x,1/2-y,1/2+z
_cell_length_a                   23.325(12)
_cell_length_b                   5.092(3)
_cell_length_c                   17.761(9)
_cell_angle_alpha                90
_cell_angle_beta                 90.285(9)
_cell_angle_gamma                90
_cell_volume                     2109.46
_exptl_crystal_colour            orange
_exptl_crystal_description       rod
_cell_formula_units_Z            8
loop_
_atom_site_label
_atom_site_type_symbol
_atom_site_fract_x
_atom_site_fract_y
_atom_site_fract_z
O1 O 0.28897(6) -0.5125(3) 0.44263(8)
O2 O 0.42516(7) 0.2425(4) 0.52720(10)
O3 O 0.4278(3) 0.2073(11) 0.4062(3)
N1 N 0.28746(7) -0.5500(3) 0.57230(9)
H1 H 0.2650 -0.6834 0.5762
C1 C 0.34293(8) -0.2145(4) 0.52502(11)
C2 C 0.34636(8) -0.2094(4) 0.60733(11)
C3 C 0.37423(9) -0.0503(4) 0.65949(12)
H2 H 0.3964 0.0910 0.6437
C4 C 0.36842(10) -0.1057(5) 0.73559(12)
H3 H 0.3873 -0.0015 0.7708
C5 C 0.33501(9) -0.3137(5) 0.75995(12)
H4 H 0.3321 -0.3475 0.8112
C6 C 0.30585(9) -0.4723(4) 0.70916(11)
H5 H 0.2829 -0.6102 0.7254
C7 C 0.31220(8) -0.4175(4) 0.63350(11)
C8 C 0.30342(8) -0.4409(4) 0.50615(11)
C9 C 0.36669(9) -0.0832(4) 0.46758(12)
H6 H 0.3539 -0.1277 0.4196
C10 C 0.41085(9) 0.1240(5) 0.47202(12)
C11 C 0.4748(3) 0.3916(13) 0.4067(4)
H7 H 0.5081 0.3148 0.4310
H8 H 0.4642 0.5496 0.4338
C12 C 0.4876(2) 0.4547(13) 0.3263(3)
H9 H 0.5195 0.5733 0.3241
H10 H 0.4546 0.5352 0.3034
H11 H 0.4968 0.2960 0.2998
C13? C 0.4694(2) 0.5530(12) 0.3687(4)
H12? H 0.4450 0.6276 0.4064
H13? H 0.4483 0.5342 0.3224
H14? H 0.5017 0.6664 0.3607
O4? O 0.4408(3) 0.1074(12) 0.4035(3)
C14? C 0.4899(3) 0.2904(15) 0.3942(4)
H15? H 0.5164 0.2194 0.3576
H16? H 0.5102 0.3084 0.4418
loop_
_geom_bond_atom_site_label_1
_geom_bond_atom_site_label_2
_geom_bond_site_symmetry_1
_geom_bond_site_symmetry_2
O1 C8 1_555 1_555
O2 C10 1_555 1_555
O3 C10 1_555 1_555
N1 H1 1_555 1_555
C1 C2 1_555 1_555
C2 C3 1_555 1_555
C3 H2 1_555 1_555
C4 C3 1_555 1_555
H3 C4 1_555 1_555
C5 C4 1_555 1_555
H4 C5 1_555 1_555
C6 C5 1_555 1_555
H5 C6 1_555 1_555
C7 N1 1_555 1_555
C8 N1 1_555 1_555
C9 C1 1_555 1_555
H6 C9 1_555 1_555
C10 C9 1_555 1_555
C11 O3 1_555 1_555
H7 C11 1_555 1_555
H8 C11 1_555 1_555
C12 C11 1_555 1_555
H9 C12 1_555 1_555
H10 C12 1_555 1_555
H11 C12 1_555 1_555
C1 C8 1_555 1_555
C2 C7 1_555 1_555
C6 C7 1_555 1_555

#END
