
#######################################################################
#
#                 Cambridge Crystallographic Data Centre
#                                CCDC 
#
#######################################################################
#
# If this CIF has been generated from an entry in the Cambridge 
# Structural Database, then it will include bibliographic, chemical, 
# crystal, experimental, refinement or atomic coordinate data resulting 
# from the CCDC's data processing and validation procedures.
#
#######################################################################

data_PARGEV
_chemical_formula_moiety         'C20 H20 N1 O1 P1'
_chemical_name_systematic        'Diphenyl(1-phenylethylamino)phosphine oxide'
_symmetry_cell_setting           tetragonal
_symmetry_space_group_name_H-M   'P 43'
_symmetry_Int_Tables_number      78
_space_group_name_Hall           'P 4cw'
loop_
_symmetry_equiv_pos_site_id
_symmetry_equiv_pos_as_xyz
1 x,y,z
2 -x,-y,1/2+z
3 -y,x,3/4+z
4 y,-x,1/4+z
_cell_length_a                   11.4093(16)
_cell_length_b                   11.4093(16)
_cell_length_c                   13.279(4)
_cell_angle_alpha                90
_cell_angle_beta                 90
_cell_angle_gamma                90
_cell_volume                     1728.56
_exptl_crystal_colour            colorless
_exptl_crystal_description       blocks
_cell_formula_units_Z            4
_exptl_crystal_recrystallization_method toluene
loop_
_atom_site_label
_atom_site_type_symbol
_atom_site_fract_x
_atom_site_fract_y
_atom_site_fract_z
P1 P 0.621330(18) 0.273343(18) 0.131252(16)
N1 N 0.64076(7) 0.29457(7) 0.01075(6)
H1 H 0.6693(15) 0.3695(15) -0.0146(13)
O1 O 0.49753(6) 0.26659(7) 0.16700(6)
C1 C 0.57575(8) 0.22457(9) -0.06351(7)
H2 H 0.5313 0.1629 -0.0261
C2 C 0.48654(10) 0.30105(11) -0.11947(10)
H3 H 0.4310 0.3345 -0.0711
H4 H 0.4440 0.2531 -0.1686
H5 H 0.5276 0.3645 -0.1545
C3 C 0.65634(9) 0.16331(8) -0.13742(7)
C4 C 0.62706(12) 0.05077(10) -0.17161(10)
H6 H 0.5589 0.0130 -0.1464
C5 C 0.69701(16) -0.00613(11) -0.24218(12)
H7 H 0.6752 -0.0816 -0.2660
C6 C 0.79769(15) 0.04629(12) -0.27770(10)
H8 H 0.8461 0.0067 -0.3249
C7 C 0.82794(12) 0.15777(12) -0.24383(9)
H9 H 0.8976 0.1938 -0.2677
C8 C 0.75686(10) 0.21697(10) -0.17516(8)
H10 H 0.7770 0.2939 -0.1541
C9 C 0.69477(8) 0.13817(7) 0.16326(7)
C10 C 0.78633(9) 0.09323(9) 0.10536(9)
H11 H 0.8107 0.1330 0.0461
C11 C 0.84241(11) -0.01062(10) 0.13454(14)
H12 H 0.9048 -0.0411 0.0951
C12 C 0.80701(14) -0.06872(10) 0.22064(15)
H13 H 0.8458 -0.1386 0.2407
C13 C 0.71568(14) -0.02572(11) 0.27737(13)
H14 H 0.6911 -0.0669 0.3359
C14 C 0.65857(10) 0.07797(10) 0.24989(9)
H15 H 0.5958 0.1073 0.2896
C15 C 0.70330(8) 0.39165(7) 0.18766(6)
C16 C 0.66765(9) 0.50719(8) 0.16929(8)
H16 H 0.6039 0.5222 0.1251
C17 C 0.72544(10) 0.59986(9) 0.21562(9)
H17 H 0.7019 0.6781 0.2020
C18 C 0.81745(12) 0.57866(10) 0.28164(9)
H18 H 0.8560 0.6423 0.3138
C19 C 0.85298(12) 0.46447(11) 0.30064(10)
H19 H 0.9158 0.4499 0.3459
C20 C 0.79643(10) 0.37101(9) 0.25316(9)
H20 H 0.8216 0.2930 0.2656
loop_
_geom_bond_atom_site_label_1
_geom_bond_atom_site_label_2
_geom_bond_site_symmetry_1
_geom_bond_site_symmetry_2
P1 N1 1_555 1_555
N1 H1 1_555 1_555
O1 P1 1_555 1_555
C1 N1 1_555 1_555
H2 C1 1_555 1_555
C2 C1 1_555 1_555
H3 C2 1_555 1_555
H4 C2 1_555 1_555
H5 C2 1_555 1_555
C3 C1 1_555 1_555
C4 C3 1_555 1_555
H6 C4 1_555 1_555
C5 C4 1_555 1_555
H7 C5 1_555 1_555
C6 C5 1_555 1_555
H8 C6 1_555 1_555
C7 C6 1_555 1_555
H9 C7 1_555 1_555
C8 C3 1_555 1_555
H10 C8 1_555 1_555
C9 P1 1_555 1_555
C10 C9 1_555 1_555
H11 C10 1_555 1_555
C11 C10 1_555 1_555
H12 C11 1_555 1_555
C12 C11 1_555 1_555
H13 C12 1_555 1_555
C13 C12 1_555 1_555
H14 C13 1_555 1_555
C14 C9 1_555 1_555
H15 C14 1_555 1_555
C15 P1 1_555 1_555
C16 C15 1_555 1_555
H16 C16 1_555 1_555
C17 C16 1_555 1_555
H17 C17 1_555 1_555
C18 C17 1_555 1_555
H18 C18 1_555 1_555
C19 C18 1_555 1_555
H19 C19 1_555 1_555
C20 C15 1_555 1_555
H20 C20 1_555 1_555
C7 C8 1_555 1_555
C13 C14 1_555 1_555
C19 C20 1_555 1_555

#END
