
#######################################################################
#
#                 Cambridge Crystallographic Data Centre
#                                CCDC 
#
#######################################################################
#
# If this CIF has been generated from an entry in the Cambridge 
# Structural Database, then it will include bibliographic, chemical, 
# crystal, experimental, refinement or atomic coordinate data resulting 
# from the CCDC's data processing and validation procedures.
#
#######################################################################

data_PARMUT
_chemical_formula_moiety         '2(C5 H6 N1 1+),O8 S2 2-'
_chemical_name_systematic        
'bis(pyridinium) ((sulfonatoperoxy)sulfonyl)oxide'
_symmetry_cell_setting           triclinic
_symmetry_space_group_name_H-M   'P -1'
_symmetry_Int_Tables_number      2
_space_group_name_Hall           '-P 1'
loop_
_symmetry_equiv_pos_site_id
_symmetry_equiv_pos_as_xyz
1 x,y,z
2 -x,-y,-z
_cell_length_a                   6.8561(17)
_cell_length_b                   7.0999(14)
_cell_length_c                   7.969(2)
_cell_angle_alpha                70.080(6)
_cell_angle_beta                 88.026(7)
_cell_angle_gamma                79.211(8)
_cell_volume                     358.075
_exptl_crystal_colour            colorless
_exptl_crystal_description       Prism
_cell_formula_units_Z            1
loop_
_atom_site_label
_atom_site_type_symbol
_atom_site_fract_x
_atom_site_fract_y
_atom_site_fract_z
S1 S 0.53976(4) 0.26114(4) 0.72607(3)
O1 O 0.45043(13) 0.41009(13) 0.52581(11)
O2 O 0.48493(13) 0.38172(13) 0.84086(11)
O3 O 0.75031(12) 0.20920(14) 0.71159(12)
O4 O 0.42721(14) 0.10318(14) 0.74934(12)
S1A S 0.46024(4) 0.73886(4) 0.27393(3)
O1A O 0.54957(13) 0.58991(13) 0.47419(11)
O2A O 0.51507(13) 0.61828(13) 0.15914(11)
O3A O 0.24969(12) 0.79080(14) 0.28841(12)
O4A O 0.57279(14) 0.89682(14) 0.25066(12)
N1 N 0.80147(14) 0.72259(14) 0.91378(13)
C1 C 0.96384(17) 0.76405(17) 0.97170(15)
H1 H 0.9696 0.7722 1.0879
C2 C 1.12223(17) 0.79471(18) 0.86170(17)
H2 H 1.2386 0.8244 0.9008
C3 C 1.11003(18) 0.78181(19) 0.69351(17)
H3 H 1.2189 0.8017 0.6165
C4 C 0.9394(2) 0.7400(2) 0.63699(16)
H4 H 0.9298 0.7311 0.5214
C5 C 0.78423(18) 0.71152(19) 0.75117(17)
H5 H 0.6653 0.6841 0.7146
H6 H 0.707(2) 0.698(3) 0.9858(19)
loop_
_geom_bond_atom_site_label_1
_geom_bond_atom_site_label_2
_geom_bond_site_symmetry_1
_geom_bond_site_symmetry_2
S1 O1 1_555 1_555
O1 O1A 1_555 1_555
O2 S1 1_555 1_555
O3 S1 1_555 1_555
O4 S1 1_555 1_555
N1 C1 1_555 1_555
C1 H1 1_555 1_555
C2 C1 1_555 1_555
H2 C2 1_555 1_555
C3 C2 1_555 1_555
H3 C3 1_555 1_555
C4 C3 1_555 1_555
H4 C4 1_555 1_555
C5 N1 1_555 1_555
H5 C5 1_555 1_555
H6 N1 1_555 1_555
S1A O1A 1_555 1_555
O2A S1A 1_555 1_555
O3A S1A 1_555 1_555
O4A S1A 1_555 1_555
C4 C5 1_555 1_555

#END
