
#######################################################################
#
#                 Cambridge Crystallographic Data Centre
#                                CCDC 
#
#######################################################################
#
# If this CIF has been generated from an entry in the Cambridge 
# Structural Database, then it will include bibliographic, chemical, 
# crystal, experimental, refinement or atomic coordinate data resulting 
# from the CCDC's data processing and validation procedures.
#
#######################################################################

data_PARMUS
_chemical_formula_moiety         'C26 H20 N2'
_chemical_name_systematic        
4,4'-(Biphenyl-4,4'-diyldiethene-2,1-diyl)dipyridine
_symmetry_cell_setting           monoclinic
_symmetry_space_group_name_H-M   'P 21/c'
_symmetry_Int_Tables_number      14
_space_group_name_Hall           '-P 2ybc'
loop_
_symmetry_equiv_pos_site_id
_symmetry_equiv_pos_as_xyz
1 x,y,z
2 -x,1/2+y,1/2-z
3 -x,-y,-z
4 x,1/2-y,1/2+z
_cell_length_a                   12.898(6)
_cell_length_b                   5.714(3)
_cell_length_c                   12.723(6)
_cell_angle_alpha                90
_cell_angle_beta                 92.486(8)
_cell_angle_gamma                90
_cell_volume                     936.792
_cell_formula_units_Z            2
loop_
_atom_site_label
_atom_site_type_symbol
_atom_site_fract_x
_atom_site_fract_y
_atom_site_fract_z
N1 N 0.5656(2) 0.0512(6) 0.3130(2)
C1 C 0.6245(3) -0.1251(7) 0.3485(3)
H1 H 0.6321 -0.2534 0.3046
C2 C 0.6750(2) -0.1304(6) 0.4458(3)
H2 H 0.7164 -0.2580 0.4651
C3 C 0.6644(2) 0.0541(6) 0.5152(2)
C4 C 0.5999(2) 0.2340(6) 0.4792(2)
H3 H 0.5876 0.3606 0.5228
C5 C 0.5543(3) 0.2270(7) 0.3802(3)
H4 H 0.5129 0.3526 0.3585
C6 C 0.7161(3) 0.0685(6) 0.6192(2)
H5 H 0.6964 0.1914 0.6619
C7 C 0.7876(2) -0.0741(6) 0.6591(2)
H6 H 0.8031 -0.2036 0.6185
C8 C 0.8453(2) -0.0522(6) 0.7598(2)
C9 C 0.9160(3) -0.2229(6) 0.7920(2)
H7 H 0.9240 -0.3541 0.7499
C10 C 0.9747(3) -0.2043(6) 0.8847(2)
H8 H 1.0211 -0.3234 0.9034
C11 C 0.9668(2) -0.0133(6) 0.9509(2)
C12 C 0.8931(3) 0.1548(6) 0.9190(2)
H9 H 0.8833 0.2838 0.9620
C13 C 0.8349(3) 0.1361(7) 0.8269(2)
H10 H 0.7872 0.2530 0.8089
N1B N 1.4344(2) -0.0512(6) 1.6870(2)
C1B C 1.3755(3) 0.1251(7) 1.6515(3)
H1B H 1.3679 0.2534 1.6954
C2B C 1.3250(2) 0.1304(6) 1.5542(3)
H2B H 1.2836 0.2580 1.5349
C3B C 1.3356(2) -0.0541(6) 1.4848(2)
C4B C 1.4001(2) -0.2340(6) 1.5208(2)
H3B H 1.4124 -0.3606 1.4772
C5B C 1.4457(3) -0.2270(7) 1.6198(3)
H4B H 1.4871 -0.3526 1.6415
C6B C 1.2839(3) -0.0685(6) 1.3808(2)
H5B H 1.3036 -0.1914 1.3381
C7B C 1.2124(2) 0.0741(6) 1.3409(2)
H6B H 1.1969 0.2036 1.3815
C8B C 1.1547(2) 0.0522(6) 1.2402(2)
C9B C 1.0840(3) 0.2229(6) 1.2080(2)
H7B H 1.0760 0.3541 1.2501
C10B C 1.0253(3) 0.2043(6) 1.1153(2)
H8B H 0.9789 0.3234 1.0966
C11B C 1.0332(2) 0.0133(6) 1.0491(2)
C12B C 1.1069(3) -0.1548(6) 1.0810(2)
H9B H 1.1167 -0.2838 1.0380
C13B C 1.1651(3) -0.1361(7) 1.1731(2)
H10B H 1.2128 -0.2530 1.1911
loop_
_geom_bond_atom_site_label_1
_geom_bond_atom_site_label_2
_geom_bond_site_symmetry_1
_geom_bond_site_symmetry_2
N1 C1 1_555 1_555
C1 H1 1_555 1_555
C2 C1 1_555 1_555
H2 C2 1_555 1_555
C3 C2 1_555 1_555
C4 C3 1_555 1_555
H3 C4 1_555 1_555
C5 N1 1_555 1_555
H4 C5 1_555 1_555
C6 C3 1_555 1_555
H5 C6 1_555 1_555
C7 C6 1_555 1_555
H6 C7 1_555 1_555
C8 C7 1_555 1_555
C9 C8 1_555 1_555
H7 C9 1_555 1_555
C10 C9 1_555 1_555
H8 C10 1_555 1_555
C11 C10 1_555 1_555
C12 C11 1_555 1_555
H9 C12 1_555 1_555
C13 C8 1_555 1_555
H10 C13 1_555 1_555
N1B C1B 1_555 1_555
C1B H1B 1_555 1_555
C2B C1B 1_555 1_555
H2B C2B 1_555 1_555
C3B C2B 1_555 1_555
C4B C3B 1_555 1_555
H3B C4B 1_555 1_555
C5B N1B 1_555 1_555
H4B C5B 1_555 1_555
C6B C3B 1_555 1_555
H5B C6B 1_555 1_555
C7B C6B 1_555 1_555
H6B C7B 1_555 1_555
C8B C7B 1_555 1_555
C9B C8B 1_555 1_555
H7B C9B 1_555 1_555
C10B C9B 1_555 1_555
H8B C10B 1_555 1_555
C11B C11 1_555 1_555
C12B C11B 1_555 1_555
H9B C12B 1_555 1_555
C13B C8B 1_555 1_555
H10B C13B 1_555 1_555
C4 C5 1_555 1_555
C12 C13 1_555 1_555
C4B C5B 1_555 1_555
C10B C11B 1_555 1_555
C12B C13B 1_555 1_555

#END
