
#######################################################################
#
#                 Cambridge Crystallographic Data Centre
#                                CCDC 
#
#######################################################################
#
# If this CIF has been generated from an entry in the Cambridge 
# Structural Database, then it will include bibliographic, chemical, 
# crystal, experimental, refinement or atomic coordinate data resulting 
# from the CCDC's data processing and validation procedures.
#
#######################################################################

data_PARNAZ
_chemical_formula_moiety         'C68 H76 N4 O4,2(C1 H1 Cl3)'
_chemical_name_systematic        
'4,6,23,25,34,36,53,55-Octamethyl-9,20,39,50-tetraazaundecacyclo[48.10.2.2^28,31^.0^3,8^.0^9,60^.0^20,29^.0^21,26^.0^33,38^.0^39,63^.0^51,56^.0^58,62^]tetrahexaconta-1(60),3,5,7,21,23,25,28,30,33,35,37,51,53,55,58,61,63-octadecaene-2,27,32,57-tetrone chloroform solvate'
_symmetry_cell_setting           triclinic
_symmetry_space_group_name_H-M   'P -1'
_symmetry_Int_Tables_number      2
_space_group_name_Hall           '-P 1'
loop_
_symmetry_equiv_pos_site_id
_symmetry_equiv_pos_as_xyz
1 x,y,z
2 -x,-y,-z
_cell_length_a                   9.0296(18)
_cell_length_b                   11.840(2)
_cell_length_c                   15.691(3)
_cell_angle_alpha                76.16(3)
_cell_angle_beta                 88.15(3)
_cell_angle_gamma                77.51(3)
_cell_volume                     1589.95
_exptl_crystal_colour            red
_exptl_crystal_description       block
_cell_formula_units_Z            1
loop_
_atom_site_label
_atom_site_type_symbol
_atom_site_fract_x
_atom_site_fract_y
_atom_site_fract_z
C1 C 0.2657(3) -0.0540(3) 0.58185(19)
C2 C 0.3691(4) -0.1446(3) 0.6389(2)
H1 H 0.4358 -0.2009 0.6159
C3 C 0.3742(4) -0.1519(3) 0.7265(2)
C4 C 0.4905(4) -0.2458(4) 0.7859(2)
H2 H 0.5501 -0.2967 0.7525
H3 H 0.4400 -0.2923 0.8315
H4 H 0.5555 -0.2082 0.8117
C5 C 0.2722(4) -0.0689(3) 0.7604(2)
H5 H 0.2730 -0.0762 0.8208
C6 C 0.1698(4) 0.0240(3) 0.7089(2)
C7 C 0.0648(4) 0.1097(3) 0.7524(2)
H6 H 0.0780 0.0825 0.8150
H7 H -0.0384 0.1139 0.7364
H8 H 0.0878 0.1872 0.7335
C8 C 0.1675(3) 0.0347(3) 0.61626(18)
C9 C 0.0675(3) 0.1330(3) 0.55717(19)
C10 C 0.0778(3) 0.1343(3) 0.46288(18)
C11 C -0.0133(3) 0.2275(3) 0.40423(19)
H9 H -0.0791 0.2860 0.4256
C12 C -0.0096(3) 0.2366(3) 0.31423(18)
C13 C -0.0944(3) 0.3354(3) 0.1642(2)
C14 C -0.1865(4) 0.4307(3) 0.1047(2)
H10 H -0.2505 0.4899 0.1263
C15 C -0.1853(4) 0.4392(4) 0.0165(2)
C16 C -0.2857(5) 0.5422(4) -0.0460(3)
H11 H -0.3507 0.5911 -0.0132
H12 H -0.3464 0.5122 -0.0808
H13 H -0.2239 0.5887 -0.0838
C17 C -0.0885(5) 0.3512(4) -0.0149(2)
H14 H -0.0885 0.3566 -0.0750
C18 C 0.0070(4) 0.2569(4) 0.0381(2)
C19 C 0.1063(6) 0.1652(5) -0.0033(2)
H15 H 0.0956 0.1911 -0.0660
H16 H 0.0761 0.0904 0.0162
H17 H 0.2103 0.1558 0.0137
C20 C 0.0066(4) 0.2472(3) 0.13043(19)
C21 C 0.1071(4) 0.1508(3) 0.1901(2)
C22 C 0.0934(3) 0.1478(3) 0.28396(19)
C23 C 0.1847(3) 0.0545(3) 0.34322(19)
H18 H 0.2533 -0.0026 0.3219
C24 C 0.1767(3) 0.0437(3) 0.43334(18)
C25 C -0.2116(4) 0.4217(3) 0.2851(2)
H19 H -0.2324 0.3896 0.3461
H20 H -0.3058 0.4379 0.2519
C26 C -0.1643(4) 0.5381(3) 0.2783(2)
H21 H -0.2524 0.5964 0.2884
H22 H -0.1323 0.5658 0.2187
C27 C -0.0369(4) 0.5344(3) 0.3414(2)
H23 H -0.0497 0.6121 0.3543
H24 H -0.0461 0.4774 0.3961
C28 C 0.1202(4) 0.5012(4) 0.3069(2)
H25 H 0.1303 0.5589 0.2528
H26 H 0.1329 0.4240 0.2933
C29 C 0.2479(4) 0.4961(4) 0.3722(3)
H27 H 0.3422 0.4979 0.3409
H28 H 0.2232 0.5658 0.3964
C30 C 0.2702(4) 0.3826(4) 0.4480(2)
H29 H 0.1738 0.3784 0.4763
H30 H 0.3007 0.3134 0.4236
C31 C 0.3853(4) 0.3777(3) 0.5155(3)
H31 H 0.3534 0.4466 0.5402
H32 H 0.4807 0.3840 0.4866
C32 C 0.4124(4) 0.2677(3) 0.5894(2)
H33 H 0.3154 0.2561 0.6140
H34 H 0.4719 0.2808 0.6351
C33 C 0.4942(3) 0.1533(3) 0.5636(2)
H35 H 0.4934 0.0856 0.6126
H36 H 0.4403 0.1428 0.5146
C34 C 0.3449(3) -0.1569(3) 0.4614(2)
H37 H 0.2901 -0.1624 0.4109
H38 H 0.3445 -0.2282 0.5073
N1 N 0.2638(3) -0.0517(2) 0.49281(16)
N2 N -0.1019(3) 0.3295(2) 0.25410(15)
O1 O -0.0205(2) 0.2145(2) 0.58077(13)
O2 O 0.2012(3) 0.0735(3) 0.16565(15)
C1A C 0.7343(3) 0.0540(3) 0.41815(19)
C2A C 0.6309(4) 0.1446(3) 0.3611(2)
H1A H 0.5642 0.2009 0.3841
C3A C 0.6258(4) 0.1519(3) 0.2735(2)
C4A C 0.5095(4) 0.2458(4) 0.2141(2)
H2A H 0.4499 0.2967 0.2475
H3A H 0.5600 0.2923 0.1685
H4A H 0.4445 0.2082 0.1883
C5A C 0.7278(4) 0.0689(3) 0.2396(2)
H5A H 0.7270 0.0762 0.1792
C6A C 0.8302(4) -0.0240(3) 0.2911(2)
C7A C 0.9352(4) -0.1097(3) 0.2476(2)
H6A H 0.9220 -0.0825 0.1850
H7A H 1.0384 -0.1139 0.2636
H8A H 0.9122 -0.1872 0.2665
C8A C 0.8325(3) -0.0347(3) 0.38374(18)
C9A C 0.9325(3) -0.1330(3) 0.44283(19)
C10A C 0.9222(3) -0.1343(3) 0.53712(18)
C11A C 1.0133(3) -0.2275(3) 0.59577(19)
H9A H 1.0791 -0.2860 0.5744
C12A C 1.0096(3) -0.2366(3) 0.68577(18)
C13A C 1.0944(3) -0.3354(3) 0.8358(2)
C14A C 1.1865(4) -0.4307(3) 0.8953(2)
H10A H 1.2505 -0.4899 0.8737
C15A C 1.1853(4) -0.4392(4) 0.9835(2)
C16A C 1.2857(5) -0.5422(4) 1.0460(3)
H11A H 1.3507 -0.5911 1.0132
H12A H 1.3464 -0.5122 1.0808
H13A H 1.2239 -0.5887 1.0838
C17A C 1.0885(5) -0.3512(4) 1.0149(2)
H14A H 1.0885 -0.3566 1.0750
C18A C 0.9930(4) -0.2569(4) 0.9619(2)
C19A C 0.8937(6) -0.1652(5) 1.0033(2)
H15A H 0.9044 -0.1911 1.0660
H16A H 0.9239 -0.0904 0.9838
H17A H 0.7897 -0.1558 0.9863
C20A C 0.9934(4) -0.2472(3) 0.86957(19)
C21A C 0.8929(4) -0.1508(3) 0.8099(2)
C22A C 0.9066(3) -0.1478(3) 0.71604(19)
C23A C 0.8153(3) -0.0545(3) 0.65678(19)
H18A H 0.7467 0.0026 0.6781
C24A C 0.8233(3) -0.0437(3) 0.56666(18)
C25A C 1.2116(4) -0.4217(3) 0.7149(2)
H19A H 1.2324 -0.3896 0.6539
H20A H 1.3058 -0.4379 0.7481
C26A C 1.1643(4) -0.5381(3) 0.7217(2)
H21A H 1.2524 -0.5964 0.7116
H22A H 1.1323 -0.5658 0.7813
C27A C 1.0369(4) -0.5344(3) 0.6586(2)
H23A H 1.0497 -0.6121 0.6457
H24A H 1.0461 -0.4774 0.6039
C28A C 0.8798(4) -0.5012(4) 0.6931(2)
H25A H 0.8697 -0.5589 0.7472
H26A H 0.8671 -0.4240 0.7067
C29A C 0.7521(4) -0.4961(4) 0.6278(3)
H27A H 0.6578 -0.4979 0.6591
H28A H 0.7768 -0.5658 0.6036
C30A C 0.7298(4) -0.3826(4) 0.5520(2)
H29A H 0.8262 -0.3784 0.5237
H30A H 0.6993 -0.3134 0.5764
C31A C 0.6147(4) -0.3777(3) 0.4845(3)
H31A H 0.6466 -0.4466 0.4598
H32A H 0.5193 -0.3840 0.5134
C32A C 0.5876(4) -0.2677(3) 0.4106(2)
H33A H 0.6846 -0.2561 0.3860
H34A H 0.5281 -0.2808 0.3649
C33A C 0.5058(3) -0.1533(3) 0.4364(2)
H35A H 0.5066 -0.0856 0.3874
H36A H 0.5597 -0.1428 0.4854
C34A C 0.6551(3) 0.1569(3) 0.5386(2)
H37A H 0.7099 0.1624 0.5891
H38A H 0.6555 0.2282 0.4927
N1A N 0.7362(3) 0.0517(2) 0.50719(16)
N2A N 1.1019(3) -0.3295(2) 0.74590(15)
O1A O 1.0205(2) -0.2145(2) 0.41923(13)
O2A O 0.7988(3) -0.0735(3) 0.83435(15)
C35 C 0.3942(5) 0.8463(4) 0.1250(3)
H39 H 0.3216 0.9257 0.1293
Cl1 Cl 0.5799(11) 0.8528(11) 0.1623(8)
Cl2 Cl 0.3338(8) 0.7284(8) 0.1967(4)
Cl3 Cl 0.4039(14) 0.8440(11) 0.0142(5)
Cl4? Cl 0.559(4) 0.836(5) 0.113(3)
Cl5? Cl 0.5375(14) 0.8858(13) 0.1653(11)
Cl6? Cl 0.4021(19) 0.6889(12) 0.1809(10)
Cl7? Cl 0.361(3) 0.726(3) 0.1800(14)
Cl8? Cl 0.444(4) 0.798(3) 0.0359(17)
Cl9? Cl 0.374(2) 0.851(2) 0.0184(11)
loop_
_geom_bond_atom_site_label_1
_geom_bond_atom_site_label_2
_geom_bond_site_symmetry_1
_geom_bond_site_symmetry_2
C1 C2 1_555 1_555
C2 H1 1_555 1_555
C3 C2 1_555 1_555
C4 C3 1_555 1_555
H2 C4 1_555 1_555
H3 C4 1_555 1_555
H4 C4 1_555 1_555
C5 C3 1_555 1_555
H5 C5 1_555 1_555
C6 C5 1_555 1_555
C7 C6 1_555 1_555
H6 C7 1_555 1_555
H7 C7 1_555 1_555
H8 C7 1_555 1_555
C8 C1 1_555 1_555
C9 C8 1_555 1_555
C10 C9 1_555 1_555
C11 C10 1_555 1_555
H9 C11 1_555 1_555
C12 C11 1_555 1_555
C13 C14 1_555 1_555
C14 H10 1_555 1_555
C15 C14 1_555 1_555
C16 C15 1_555 1_555
H11 C16 1_555 1_555
H12 C16 1_555 1_555
H13 C16 1_555 1_555
C17 C15 1_555 1_555
H14 C17 1_555 1_555
C18 C17 1_555 1_555
C19 C18 1_555 1_555
H15 C19 1_555 1_555
H16 C19 1_555 1_555
H17 C19 1_555 1_555
C20 C13 1_555 1_555
C21 C20 1_555 1_555
C22 C12 1_555 1_555
C23 C22 1_555 1_555
H18 C23 1_555 1_555
C24 C10 1_555 1_555
C25 H19 1_555 1_555
H20 C25 1_555 1_555
C26 C25 1_555 1_555
H21 C26 1_555 1_555
H22 C26 1_555 1_555
C27 C26 1_555 1_555
H23 C27 1_555 1_555
H24 C27 1_555 1_555
C28 C27 1_555 1_555
H25 C28 1_555 1_555
H26 C28 1_555 1_555
C29 C28 1_555 1_555
H27 C29 1_555 1_555
H28 C29 1_555 1_555
C30 C29 1_555 1_555
H29 C30 1_555 1_555
H30 C30 1_555 1_555
C31 C30 1_555 1_555
H31 C31 1_555 1_555
H32 C31 1_555 1_555
C32 C31 1_555 1_555
H33 C32 1_555 1_555
H34 C32 1_555 1_555
C33 C32 1_555 1_555
H35 C33 1_555 1_555
H36 C33 1_555 1_555
C34 H37 1_555 1_555
H38 C34 1_555 1_555
C35 H39 1_555 1_555
Cl1 C35 1_555 1_555
Cl2 C35 1_555 1_555
Cl3 C35 1_555 1_555
N1 C1 1_555 1_555
N2 C12 1_555 1_555
O1 C9 1_555 1_555
O2 C21 1_555 1_555
C1A C2A 1_555 1_555
C2A H1A 1_555 1_555
C3A C2A 1_555 1_555
C4A C3A 1_555 1_555
H2A C4A 1_555 1_555
H3A C4A 1_555 1_555
H4A C4A 1_555 1_555
C5A C3A 1_555 1_555
H5A C5A 1_555 1_555
C6A C5A 1_555 1_555
C7A C6A 1_555 1_555
H6A C7A 1_555 1_555
H7A C7A 1_555 1_555
H8A C7A 1_555 1_555
C8A C1A 1_555 1_555
C9A C8A 1_555 1_555
C10A C9A 1_555 1_555
C11A C10A 1_555 1_555
H9A C11A 1_555 1_555
C12A C11A 1_555 1_555
C13A C14A 1_555 1_555
C14A H10A 1_555 1_555
C15A C14A 1_555 1_555
C16A C15A 1_555 1_555
H11A C16A 1_555 1_555
H12A C16A 1_555 1_555
H13A C16A 1_555 1_555
C17A C15A 1_555 1_555
H14A C17A 1_555 1_555
C18A C17A 1_555 1_555
C19A C18A 1_555 1_555
H15A C19A 1_555 1_555
H16A C19A 1_555 1_555
H17A C19A 1_555 1_555
C20A C13A 1_555 1_555
C21A C20A 1_555 1_555
C22A C12A 1_555 1_555
C23A C22A 1_555 1_555
H18A C23A 1_555 1_555
C24A C10A 1_555 1_555
C25A H19A 1_555 1_555
H20A C25A 1_555 1_555
C26A C25A 1_555 1_555
H21A C26A 1_555 1_555
H22A C26A 1_555 1_555
C27A C26A 1_555 1_555
H23A C27A 1_555 1_555
H24A C27A 1_555 1_555
C28A C27A 1_555 1_555
H25A C28A 1_555 1_555
H26A C28A 1_555 1_555
C29A C28A 1_555 1_555
H27A C29A 1_555 1_555
H28A C29A 1_555 1_555
C30A C29A 1_555 1_555
H29A C30A 1_555 1_555
H30A C30A 1_555 1_555
C31A C30A 1_555 1_555
H31A C31A 1_555 1_555
H32A C31A 1_555 1_555
C32A C31A 1_555 1_555
H33A C32A 1_555 1_555
H34A C32A 1_555 1_555
C33A C34 1_555 1_555
H35A C33A 1_555 1_555
H36A C33A 1_555 1_555
C34A C33 1_555 1_555
H37A C34A 1_555 1_555
H38A C34A 1_555 1_555
N1A C1A 1_555 1_555
N2A C12A 1_555 1_555
O1A C9A 1_555 1_555
O2A C21A 1_555 1_555
C6 C8 1_555 1_555
C13 N2 1_555 1_555
C18 C20 1_555 1_555
C21 C22 1_555 1_555
C23 C24 1_555 1_555
C24 N1 1_555 1_555
C25 N2 1_555 1_555
C34 N1 1_555 1_555
C6A C8A 1_555 1_555
C13A N2A 1_555 1_555
C18A C20A 1_555 1_555
C21A C22A 1_555 1_555
C23A C24A 1_555 1_555
C24A N1A 1_555 1_555
C25A N2A 1_555 1_555
C32A C33A 1_555 1_555
C34A N1A 1_555 1_555

#END
