
#######################################################################
#
#                 Cambridge Crystallographic Data Centre
#                                CCDC 
#
#######################################################################
#
# If this CIF has been generated from an entry in the Cambridge 
# Structural Database, then it will include bibliographic, chemical, 
# crystal, experimental, refinement or atomic coordinate data resulting 
# from the CCDC's data processing and validation procedures.
#
#######################################################################

data_PARTUZ
_chemical_formula_moiety         'C9 H7 N2 O3 1+,Cl1 O4 1-,H2 O1'
_chemical_name_systematic        
'2-(Carboxycarbonyl)imidazo[1,2-a]pyridin-1-ium perchlorate monohydrate'
_symmetry_cell_setting           monoclinic
_symmetry_space_group_name_H-M   'P 21/n'
_symmetry_Int_Tables_number      14
_space_group_name_Hall           '-P 2yn'
loop_
_symmetry_equiv_pos_site_id
_symmetry_equiv_pos_as_xyz
1 x,y,z
2 1/2-x,1/2+y,1/2-z
3 -x,-y,-z
4 1/2+x,1/2-y,1/2+z
_cell_length_a                   11.3426(2)
_cell_length_b                   9.4653(2)
_cell_length_c                   11.4987(3)
_cell_angle_alpha                90
_cell_angle_beta                 102.212(2)
_cell_angle_gamma                90
_cell_volume                     1206.58
_cell_formula_units_Z            4
loop_
_atom_site_label
_atom_site_type_symbol
_atom_site_fract_x
_atom_site_fract_y
_atom_site_fract_z
N1 N 0.6036(3) 0.0753(4) 0.8000(3)
O1 O 0.6305(3) 0.5374(3) 0.6416(3)
H1 H 0.5956 0.6114 0.6190
N2 N 0.4234(3) 0.0706(4) 0.8392(3)
O2 O 0.7318(3) 0.3058(3) 0.7409(3)
C1 C 0.4431(4) 0.2070(4) 0.8049(3)
H2 H 0.3899 0.2827 0.7997
C2 C 0.5595(4) 0.4564(4) 0.6886(4)
C3 C 0.5551(3) 0.2093(4) 0.7804(3)
C4 C 0.3222(4) 0.0117(5) 0.8705(4)
H3 H 0.2548 0.0667 0.8730
C5 C 0.3241(4) -0.1263(5) 0.8970(4)
H4 H 0.2572 -0.1669 0.9184
C6 C 0.6261(4) 0.3214(4) 0.7386(4)
C7 C 0.4261(4) -0.2119(5) 0.8929(4)
H5 H 0.4252 -0.3074 0.9117
C8 C 0.5255(4) -0.1547(4) 0.8616(4)
H6 H 0.5929 -0.2095 0.8586
C9 C 0.5221(3) -0.0101(4) 0.8341(3)
O3 O 0.4564(3) 0.4801(3) 0.6936(3)
H9 H 0.678(6) 0.050(7) 0.798(6)
Cl1 Cl 0.25917(9) -0.04252(10) 0.51297(9)
O5 O 0.2839(5) 0.0665(5) 0.5983(5)
O6 O 0.3431(4) -0.0172(6) 0.4347(5)
O7 O 0.1398(4) -0.0291(5) 0.4430(4)
O8 O 0.2840(4) -0.1790(4) 0.5644(4)
O4 O 0.4788(4) 0.2531(4) 0.4715(4)
H7 H 0.533(7) 0.219(9) 0.439(7)
H8 H 0.447(6) 0.181(8) 0.460(6)
loop_
_geom_bond_atom_site_label_1
_geom_bond_atom_site_label_2
_geom_bond_site_symmetry_1
_geom_bond_site_symmetry_2
N1 C3 1_555 1_555
O1 H1 1_555 1_555
N2 C1 1_555 1_555
O2 C6 1_555 1_555
C1 H2 1_555 1_555
C2 O1 1_555 1_555
C3 C1 1_555 1_555
C4 N2 1_555 1_555
H3 C4 1_555 1_555
C5 C4 1_555 1_555
H4 C5 1_555 1_555
C6 C2 1_555 1_555
C7 C5 1_555 1_555
H5 C7 1_555 1_555
C8 C7 1_555 1_555
H6 C8 1_555 1_555
C9 N1 1_555 1_555
O3 C2 1_555 1_555
Cl1 O5 1_555 1_555
O4 H7 1_555 1_555
O6 Cl1 1_555 1_555
H8 O4 1_555 1_555
O7 Cl1 1_555 1_555
O8 Cl1 1_555 1_555
H9 N1 1_555 1_555
N2 C9 1_555 1_555
C3 C6 1_555 1_555
C8 C9 1_555 1_555

#END
