
#######################################################################
#
#                 Cambridge Crystallographic Data Centre
#                                CCDC 
#
#######################################################################
#
# If this CIF has been generated from an entry in the Cambridge 
# Structural Database, then it will include bibliographic, chemical, 
# crystal, experimental, refinement or atomic coordinate data resulting 
# from the CCDC's data processing and validation procedures.
#
#######################################################################

data_PASHEZ
_chemical_formula_moiety         'C19 H15 N1 O1'
_chemical_name_systematic        
3-[(naphthalen-1-yl)imino]-2,3-dihydro-1H-inden-4-ol
_symmetry_cell_setting           orthorhombic
_symmetry_space_group_name_H-M   'P 21 21 21'
_symmetry_Int_Tables_number      19
_space_group_name_Hall           'P 2ac 2ab'
loop_
_symmetry_equiv_pos_site_id
_symmetry_equiv_pos_as_xyz
1 x,y,z
2 1/2+x,1/2-y,-z
3 -x,1/2+y,1/2-z
4 1/2-x,-y,1/2+z
_cell_length_a                   7.2039(4)
_cell_length_b                   13.1902(5)
_cell_length_c                   14.9699(6)
_cell_angle_alpha                90
_cell_angle_beta                 90
_cell_angle_gamma                90
_cell_volume                     1422.45
_exptl_crystal_colour            yellow
_exptl_crystal_description       parallelepiped
_cell_formula_units_Z            4
loop_
_atom_site_label
_atom_site_type_symbol
_atom_site_fract_x
_atom_site_fract_y
_atom_site_fract_z
O1 O 0.3882(2) 0.01352(15) 0.90296(13)
H1 H 0.302(5) 0.031(3) 0.862(2)
N1 N 0.0676(2) 0.10785(12) 0.84389(10)
C1 C 0.1569(3) 0.08703(13) 0.99652(13)
C2 C 0.3269(3) 0.03829(15) 0.98553(15)
C3 C 0.4303(4) 0.0178(2) 1.0618(2)
H2 H 0.5433 -0.0159 1.0572
C4 C 0.3647(5) 0.0479(2) 1.1449(2)
H3 H 0.4364 0.0346 1.1952
C5 C 0.1970(4) 0.0966(2) 1.15541(17)
H4 H 0.1558 0.1162 1.2117
C6 C 0.0918(3) 0.11560(16) 1.08031(13)
C7 C -0.0892(4) 0.1705(2) 1.07187(16)
H5 H -0.0775 0.2398 1.0928
H6 H -0.1850 0.1368 1.1064
C8 C -0.1360(3) 0.1681(2) 0.97200(16)
H7 H -0.2478 0.1289 0.9615
H8 H -0.1548 0.2363 0.9494
C9 C 0.0295(3) 0.11883(14) 0.92704(13)
C10 C -0.0629(3) 0.14035(15) 0.77790(13)
C11 C -0.2376(3) 0.09949(18) 0.77306(16)
H9 H -0.2750 0.0516 0.8149
C12 C -0.3605(3) 0.1297(2) 0.70504(18)
H10 H -0.4785 0.1013 0.7020
C13 C -0.3083(4) 0.2001(2) 0.64372(16)
H11 H -0.3918 0.2202 0.5997
C14 C -0.1287(3) 0.24318(16) 0.64597(13)
C15 C -0.0021(3) 0.21184(15) 0.71368(12)
C16 C 0.1768(3) 0.25457(15) 0.71416(14)
H12 H 0.2612 0.2351 0.7579
C17 C 0.2286(4) 0.32432(18) 0.65136(17)
H13 H 0.3480 0.3511 0.6525
C18 C 0.1043(5) 0.35546(19) 0.58590(17)
H14 H 0.1402 0.4036 0.5439
C19 C -0.0697(4) 0.3158(2) 0.58308(15)
H15 H -0.1514 0.3371 0.5388
loop_
_geom_bond_atom_site_label_1
_geom_bond_atom_site_label_2
_geom_bond_site_symmetry_1
_geom_bond_site_symmetry_2
O1 H1 1_555 1_555
N1 C9 1_555 1_555
C1 C2 1_555 1_555
C2 O1 1_555 1_555
C3 C2 1_555 1_555
H2 C3 1_555 1_555
C4 C3 1_555 1_555
H3 C4 1_555 1_555
C5 C4 1_555 1_555
H4 C5 1_555 1_555
C6 C1 1_555 1_555
C7 C6 1_555 1_555
H5 C7 1_555 1_555
H6 C7 1_555 1_555
C8 C7 1_555 1_555
H7 C8 1_555 1_555
H8 C8 1_555 1_555
C9 C1 1_555 1_555
C10 N1 1_555 1_555
C11 C10 1_555 1_555
H9 C11 1_555 1_555
C12 C11 1_555 1_555
H10 C12 1_555 1_555
C13 C12 1_555 1_555
H11 C13 1_555 1_555
C14 C13 1_555 1_555
C15 C10 1_555 1_555
C16 C15 1_555 1_555
H12 C16 1_555 1_555
C17 C16 1_555 1_555
H13 C17 1_555 1_555
C18 C17 1_555 1_555
H14 C18 1_555 1_555
C19 C14 1_555 1_555
H15 C19 1_555 1_555
C5 C6 1_555 1_555
C8 C9 1_555 1_555
C14 C15 1_555 1_555
C18 C19 1_555 1_555

#END
