
#######################################################################
#
#                 Cambridge Crystallographic Data Centre
#                                CCDC 
#
#######################################################################
#
# If this CIF has been generated from an entry in the Cambridge 
# Structural Database, then it will include bibliographic, chemical, 
# crystal, experimental, refinement or atomic coordinate data resulting 
# from the CCDC's data processing and validation procedures.
#
#######################################################################

data_PASYEP
_chemical_formula_moiety         'C15 H19 N1 O5 S1'
_chemical_name_systematic        
'Ethyl (5-(4-methoxyphenyl)-4-nitrotetrahydrothiophen-3-yl)acetate'
_symmetry_cell_setting           orthorhombic
_symmetry_space_group_name_H-M   'P 21 21 21'
_symmetry_Int_Tables_number      19
_space_group_name_Hall           'P 2ac 2ab'
loop_
_symmetry_equiv_pos_site_id
_symmetry_equiv_pos_as_xyz
1 x,y,z
2 1/2-x,-y,1/2+z
3 -x,1/2+y,1/2-z
4 1/2+x,1/2-y,-z
_cell_length_a                   10.3462(8)
_cell_length_b                   11.0309(9)
_cell_length_c                   13.7792(11)
_cell_angle_alpha                90
_cell_angle_beta                 90
_cell_angle_gamma                90
_cell_volume                     1572.59
_exptl_crystal_colour            colorless
_exptl_crystal_description       prism
_cell_formula_units_Z            4
loop_
_atom_site_label
_atom_site_type_symbol
_atom_site_fract_x
_atom_site_fract_y
_atom_site_fract_z
S1 S 0.09408(3) 0.42667(4) 0.17924(3)
O1 O 0.23443(15) 0.57554(14) -0.10042(11)
O2 O 0.2765(2) 0.39475(19) -0.15109(13)
O3 O -0.22719(11) 0.36692(9) -0.06411(10)
O4 O -0.24967(9) 0.56898(9) -0.06742(8)
O5 O 0.73073(10) 0.52779(10) 0.19818(9)
N1 N 0.23713(13) 0.46581(15) -0.08991(11)
C1 C 0.20303(12) 0.49373(12) 0.08899(10)
H1 H 0.1713 0.5759 0.0726
C2 C 0.18264(12) 0.41137(12) 0.00156(10)
H2 H 0.2277 0.3337 0.0140
C3 C 0.03749(13) 0.38507(11) -0.00931(11)
H3 H 0.0247 0.3202 -0.0580
C4 C 0.00202(15) 0.33732(15) 0.09131(12)
H4 H 0.0244 0.2513 0.0968
H5 H -0.0909 0.3465 0.1029
C5 C -0.04122(13) 0.49632(13) -0.03821(13)
H6 H -0.0359 0.5568 0.0138
H7 H -0.0035 0.5321 -0.0968
C6 C -0.18178(13) 0.46706(12) -0.05722(11)
C7 C -0.38616(13) 0.55435(13) -0.09080(12)
H8 H -0.4315 0.5136 -0.0375
H9 H -0.3964 0.5057 -0.1498
C8 C -0.43959(16) 0.67969(15) -0.10586(16)
H10 H -0.4261 0.7275 -0.0477
H11 H -0.5314 0.6746 -0.1195
H12 H -0.3958 0.7178 -0.1601
C9 C 0.34145(12) 0.50356(12) 0.12314(11)
C10 C 0.41497(14) 0.40174(12) 0.14686(12)
H13 H 0.3765 0.3246 0.1450
C11 C 0.54383(13) 0.41242(12) 0.17314(12)
H14 H 0.5921 0.3429 0.1887
C12 C 0.60216(13) 0.52725(12) 0.17641(11)
C13 C 0.52898(14) 0.62987(12) 0.15702(12)
H15 H 0.5662 0.7074 0.1622
C14 C 0.39942(14) 0.61710(12) 0.12971(12)
H16 H 0.3505 0.6867 0.1155
C15 C 0.79603(15) 0.64132(14) 0.19128(14)
H17 H 0.7847 0.6743 0.1266
H18 H 0.8874 0.6297 0.2040
H19 H 0.7604 0.6972 0.2386
loop_
_geom_bond_atom_site_label_1
_geom_bond_atom_site_label_2
_geom_bond_site_symmetry_1
_geom_bond_site_symmetry_2
S1 C1 1_555 1_555
O1 N1 1_555 1_555
O2 N1 1_555 1_555
O3 C6 1_555 1_555
O4 C6 1_555 1_555
O5 C12 1_555 1_555
N1 C2 1_555 1_555
C1 H1 1_555 1_555
C2 C1 1_555 1_555
H2 C2 1_555 1_555
C3 C2 1_555 1_555
H3 C3 1_555 1_555
C4 S1 1_555 1_555
H4 C4 1_555 1_555
H5 C4 1_555 1_555
C5 C3 1_555 1_555
H6 C5 1_555 1_555
H7 C5 1_555 1_555
C6 C5 1_555 1_555
C7 O4 1_555 1_555
H8 C7 1_555 1_555
H9 C7 1_555 1_555
C8 C7 1_555 1_555
H10 C8 1_555 1_555
H11 C8 1_555 1_555
H12 C8 1_555 1_555
C9 C1 1_555 1_555
C10 C9 1_555 1_555
H13 C10 1_555 1_555
C11 C10 1_555 1_555
H14 C11 1_555 1_555
C12 C11 1_555 1_555
C13 C12 1_555 1_555
H15 C13 1_555 1_555
C14 C9 1_555 1_555
H16 C14 1_555 1_555
C15 O5 1_555 1_555
H17 C15 1_555 1_555
H18 C15 1_555 1_555
H19 C15 1_555 1_555
C3 C4 1_555 1_555
C13 C14 1_555 1_555

#END
