
#######################################################################
#
#                 Cambridge Crystallographic Data Centre
#                                CCDC 
#
#######################################################################
#
# If this CIF has been generated from an entry in the Cambridge 
# Structural Database, then it will include bibliographic, chemical, 
# crystal, experimental, refinement or atomic coordinate data resulting 
# from the CCDC's data processing and validation procedures.
#
#######################################################################

data_PATFOI
_chemical_formula_moiety         'C26 H20 Br2 N4 O4,C2 H3 N1'
_chemical_name_systematic        
'1-benzyl-6-bromo-3-(1-(2-bromophenyl)-2-nitroethyl)-3-(3-oxo-2,3-dihydro-1H-pyrazol-1-yl)-1,3-dihydro-2H-indol-2-one acetonitrile solvate'
_symmetry_cell_setting           triclinic
_symmetry_space_group_name_H-M   'P -1'
_symmetry_Int_Tables_number      2
_space_group_name_Hall           '-P 1'
loop_
_symmetry_equiv_pos_site_id
_symmetry_equiv_pos_as_xyz
1 x,y,z
2 -x,-y,-z
_cell_length_a                   8.5342(14)
_cell_length_b                   8.6870(14)
_cell_length_c                   18.025(3)
_cell_angle_alpha                88.680(3)
_cell_angle_beta                 84.146(3)
_cell_angle_gamma                78.769(3)
_cell_volume                     1303.88
_exptl_crystal_colour            colorless
_exptl_crystal_description       prism
_cell_formula_units_Z            2
loop_
_atom_site_label
_atom_site_type_symbol
_atom_site_fract_x
_atom_site_fract_y
_atom_site_fract_z
Br1 Br 0.24006(3) 0.35256(3) 0.25125(2)
Br2 Br 0.92316(3) 0.16741(3) 0.35562(2)
O1 O 0.6196(3) 0.6155(3) -0.06468(10)
O2 O 0.4833(2) 0.9668(2) 0.24350(10)
O3 O -0.0018(3) 0.7195(3) 0.17686(14)
O4 O -0.0417(3) 0.9722(3) 0.16933(17)
N1 N 0.6365(3) 0.7525(2) 0.29640(11)
N2 N 0.5544(3) 0.7310(3) 0.11882(11)
C1 C 0.2232(3) 0.8400(3) 0.16420(15)
H1 H 0.2436 0.9356 0.1873
H2 H 0.2643 0.8401 0.1108
N3 N 0.0460(3) 0.8435(3) 0.17085(13)
C2 C 0.5366(3) 0.7726(3) 0.58153(15)
H3 H 0.4995 0.7610 0.6325
C3 C 0.6530(3) 0.8639(3) 0.56176(15)
H4 H 0.6950 0.9141 0.5993
C4 C 0.7068(3) 0.8808(3) 0.48729(14)
H5 H 0.7857 0.9428 0.4741
C5 C 0.6457(3) 0.8073(3) 0.43147(13)
C6 C 0.7049(3) 0.8349(3) 0.35069(13)
H6 H 0.6793 0.9489 0.3400
H7 H 0.8232 0.8016 0.3442
C7 C 0.5349(3) 0.8259(3) 0.24697(14)
C8 C 0.4968(3) 0.6983(3) 0.19599(13)
C9 C 0.3129(3) 0.6947(3) 0.20226(13)
H8 H 0.3000 0.6008 0.1742
C10 C 0.2449(3) 0.6763(3) 0.28265(13)
C11 C 0.2105(3) 0.5336(3) 0.31182(14)
C12 C 0.1496(3) 0.5194(3) 0.38572(15)
H9 H 0.1301 0.4209 0.4042
C13 C 0.1172(3) 0.6489(3) 0.43247(14)
H10 H 0.0760 0.6392 0.4830
C14 C 0.6755(3) 0.5897(3) 0.28451(13)
C15 C 0.5960(3) 0.5489(3) 0.22578(13)
C16 C 0.6385(3) 0.8412(3) 0.09200(15)
H11 H 0.6667 0.9212 0.1201
C17 C 0.6754(3) 0.8160(3) 0.01693(15)
H12 H 0.7325 0.8743 -0.0177
C18 C 0.6101(3) 0.6852(3) 0.00256(14)
N4 N 0.5383(3) 0.6311(3) 0.06349(12)
H13 H 0.4910 0.5495 0.0676
C19 C 0.1456(3) 0.7926(3) 0.40491(15)
H14 H 0.1219 0.8823 0.4362
C20 C 0.2089(3) 0.8047(3) 0.33098(15)
H15 H 0.2283 0.9036 0.3129
C21 C 0.6186(3) 0.3939(3) 0.20434(14)
H16 H 0.5672 0.3654 0.1638
C22 C 0.7182(3) 0.2793(3) 0.24303(14)
H17 H 0.7337 0.1718 0.2297
C23 C 0.7943(3) 0.3249(3) 0.30130(14)
C24 C 0.7754(3) 0.4809(3) 0.32358(14)
H18 H 0.8284 0.5102 0.3633
C25 C 0.5303(3) 0.7169(3) 0.45181(14)
H19 H 0.4879 0.6664 0.4144
C26 C 0.4763(3) 0.6999(3) 0.52670(15)
H20 H 0.3976 0.6377 0.5400
N5 N 0.8297(5) 0.2303(5) 0.0104(2)
C27 C 0.9585(4) 0.4078(6) 0.0899(2)
H21 H 0.8947 0.5146 0.0905
H22 H 1.0684 0.4093 0.0684
H23 H 0.9605 0.3668 0.1410
C28 C 0.8868(4) 0.3072(5) 0.04490(19)
loop_
_geom_bond_atom_site_label_1
_geom_bond_atom_site_label_2
_geom_bond_site_symmetry_1
_geom_bond_site_symmetry_2
Br1 C11 1_555 1_555
Br2 C23 1_555 1_555
O1 C18 1_555 1_555
O2 C7 1_555 1_555
O3 N3 1_555 1_555
O4 N3 1_555 1_555
N1 C6 1_555 1_555
N2 C8 1_555 1_555
C1 H1 1_555 1_555
H2 C1 1_555 1_555
N3 C1 1_555 1_555
C2 H3 1_555 1_555
C3 C2 1_555 1_555
H4 C3 1_555 1_555
C4 C3 1_555 1_555
H5 C4 1_555 1_555
C5 C4 1_555 1_555
C6 C5 1_555 1_555
H6 C6 1_555 1_555
H7 C6 1_555 1_555
C7 N1 1_555 1_555
C8 C7 1_555 1_555
C9 C1 1_555 1_555
H8 C9 1_555 1_555
C10 C9 1_555 1_555
C11 C10 1_555 1_555
C12 C11 1_555 1_555
H9 C12 1_555 1_555
C13 C12 1_555 1_555
H10 C13 1_555 1_555
C14 N1 1_555 1_555
C15 C8 1_555 1_555
C16 N2 1_555 1_555
H11 C16 1_555 1_555
C17 C16 1_555 1_555
H12 C17 1_555 1_555
C18 C17 1_555 1_555
N4 N2 1_555 1_555
H13 N4 1_555 1_555
C19 C13 1_555 1_555
H14 C19 1_555 1_555
C20 C10 1_555 1_555
H15 C20 1_555 1_555
C21 C15 1_555 1_555
H16 C21 1_555 1_555
C22 C21 1_555 1_555
H17 C22 1_555 1_555
C23 C22 1_555 1_555
C24 C14 1_555 1_555
H18 C24 1_555 1_555
C25 C5 1_555 1_555
H19 C25 1_555 1_555
C26 C2 1_555 1_555
H20 C26 1_555 1_555
N5 C28 1_555 1_555
C27 H21 1_555 1_555
H22 C27 1_555 1_555
H23 C27 1_555 1_555
C28 C27 1_555 1_555
C8 C9 1_555 1_555
C14 C15 1_555 1_555
C18 N4 1_555 1_555
C19 C20 1_555 1_555
C23 C24 1_555 1_555
C25 C26 1_555 1_555

#END
