
#######################################################################
#
#                 Cambridge Crystallographic Data Centre
#                                CCDC 
#
#######################################################################
#
# If this CIF has been generated from an entry in the Cambridge 
# Structural Database, then it will include bibliographic, chemical, 
# crystal, experimental, refinement or atomic coordinate data resulting 
# from the CCDC's data processing and validation procedures.
#
#######################################################################

data_PATFUO
_chemical_formula_moiety         'C23 H18 O2'
_chemical_name_systematic        
(2,5-diphenyl-4,5-dihydrofuran-3-yl)(phenyl)methanone
_symmetry_cell_setting           monoclinic
_symmetry_space_group_name_H-M   'P 21'
_symmetry_Int_Tables_number      4
_space_group_name_Hall           'P 2yb'
loop_
_symmetry_equiv_pos_site_id
_symmetry_equiv_pos_as_xyz
1 x,y,z
2 -x,1/2+y,-z
_cell_length_a                   6.0965(3)
_cell_length_b                   7.8294(3)
_cell_length_c                   17.9271(8)
_cell_angle_alpha                90
_cell_angle_beta                 96.951(2)
_cell_angle_gamma                90
_cell_volume                     849.406
_exptl_crystal_colour            colorless
_cell_formula_units_Z            2
loop_
_atom_site_label
_atom_site_type_symbol
_atom_site_fract_x
_atom_site_fract_y
_atom_site_fract_z
O1 O 0.5374(3) 1.1418(3) 0.28894(10)
C1 C 0.1532(4) 1.1754(4) 0.17504(13)
H1 H 0.2512 1.1502 0.1363
H2 H 0.1786 1.2942 0.1930
O2 O -0.1248(3) 0.9644(2) 0.16596(9)
C2 C 0.1563(4) 0.9937(3) 0.40775(14)
H3 H 0.0287 1.0448 0.3811
C3 C 0.3692(4) 1.0617(3) 0.29922(14)
C4 C 0.1471(4) 0.9274(4) 0.47944(15)
H4 H 0.0155 0.9370 0.5026
C5 C 0.0266(4) 0.9275(3) 0.22580(12)
C6 C 0.5374(4) 0.9085(4) 0.41383(14)
H5 H 0.6723 0.9051 0.3923
C7 C 0.1859(4) 1.0480(3) 0.23946(13)
C8 C 0.3315(5) 0.8475(4) 0.51653(15)
H6 H 0.3247 0.7997 0.5649
C9 C 0.5253(5) 0.8364(4) 0.48407(15)
H7 H 0.6500 0.7797 0.5097
C10 C -0.0895(5) 1.1445(3) 0.14567(14)
H8 H -0.1835 1.2191 0.1741
C11 C 0.3518(4) 0.9856(3) 0.37492(13)
C12 C 0.1691(4) 0.6602(3) 0.29201(13)
H9 H 0.3150 0.7048 0.2961
C13 C -0.0059(4) 0.7571(3) 0.25830(12)
C14 C 0.1330(4) 0.4989(3) 0.31970(15)
H10 H 0.2533 0.4345 0.3438
C15 C -0.2536(4) 0.5255(4) 0.27791(16)
H11 H -0.3984 0.4786 0.2723
C16 C -0.2185(4) 0.6887(4) 0.25166(15)
H12 H -0.3400 0.7541 0.2290
C17 C -0.0432(5) 1.0948(4) 0.00946(16)
H13 H 0.0885 1.0330 0.0251
C18 C -0.0786(4) 0.4313(4) 0.31219(15)
H14 H -0.1031 0.3200 0.3307
C19 C -0.3557(4) 1.2542(4) 0.03966(17)
H15 H -0.4386 1.3029 0.0759
C20 C -0.1615(4) 1.1655(3) 0.06309(14)
C21 C -0.3061(5) 1.1996(5) -0.08868(17)
H16 H -0.3556 1.2105 -0.1408
C22 C -0.1131(5) 1.1124(4) -0.06609(17)
H17 H -0.0291 1.0649 -0.1023
C23 C -0.4291(5) 1.2718(5) -0.03664(18)
H18 H -0.5614 1.3323 -0.0527
loop_
_geom_bond_atom_site_label_1
_geom_bond_atom_site_label_2
_geom_bond_site_symmetry_1
_geom_bond_site_symmetry_2
O1 C3 1_555 1_555
C1 H1 1_555 1_555
H2 C1 1_555 1_555
O2 C5 1_555 1_555
C2 H3 1_555 1_555
C3 C7 1_555 1_555
C4 C2 1_555 1_555
H4 C4 1_555 1_555
C5 C7 1_555 1_555
C6 H5 1_555 1_555
C7 C1 1_555 1_555
C8 C4 1_555 1_555
H6 C8 1_555 1_555
C9 C6 1_555 1_555
H7 C9 1_555 1_555
C10 C1 1_555 1_555
H8 C10 1_555 1_555
C11 C2 1_555 1_555
C12 H9 1_555 1_555
C13 C5 1_555 1_555
C14 C12 1_555 1_555
H10 C14 1_555 1_555
C15 H11 1_555 1_555
C16 C13 1_555 1_555
H12 C16 1_555 1_555
C17 H13 1_555 1_555
C18 C14 1_555 1_555
H14 C18 1_555 1_555
C19 H15 1_555 1_555
C20 C10 1_555 1_555
C21 H16 1_555 1_555
C22 C17 1_555 1_555
H17 C22 1_555 1_555
C23 C19 1_555 1_555
H18 C23 1_555 1_555
O2 C10 1_555 1_555
C3 C11 1_555 1_555
C6 C11 1_555 1_555
C8 C9 1_555 1_555
C12 C13 1_555 1_555
C15 C16 1_555 1_555
C15 C18 1_555 1_555
C17 C20 1_555 1_555
C19 C20 1_555 1_555
C21 C22 1_555 1_555
C21 C23 1_555 1_555

#END
