
#######################################################################
#
#                 Cambridge Crystallographic Data Centre
#                                CCDC 
#
#######################################################################
#
# If this CIF has been generated from an entry in the Cambridge 
# Structural Database, then it will include bibliographic, chemical, 
# crystal, experimental, refinement or atomic coordinate data resulting 
# from the CCDC's data processing and validation procedures.
#
#######################################################################

data_PATJOL
_chemical_name_common            
'Methyl ((S)-1-((S)-1-p-Tosylpyrrolidine-2-carbonyloxy)ethyl)-9H-pyrido[3,4-b]indole-3-carboxylate'
_chemical_formula_moiety         'C27 H27 N3 O6 S1'
_chemical_name_systematic        
'Methyl (S)-1-((S)-1-((1-((4-methylphenyl)sulfonyl)prolyl)oxy)ethyl)-9H-\b-carboline-3-carboxylate'
_symmetry_cell_setting           monoclinic
_symmetry_space_group_name_H-M   'P 21'
_symmetry_Int_Tables_number      4
_space_group_name_Hall           'P 2yb'
loop_
_symmetry_equiv_pos_site_id
_symmetry_equiv_pos_as_xyz
1 x,y,z
2 -x,1/2+y,-z
_cell_length_a                   5.6811(5)
_cell_length_b                   24.623(2)
_cell_length_c                   9.1472(8)
_cell_angle_alpha                90
_cell_angle_beta                 93.864(2)
_cell_angle_gamma                90
_cell_volume                     1276.65
_exptl_crystal_colour            colorless
_exptl_crystal_description       prismatic
_chemical_melting_point          '267.3-267.7 deg.C'
_cell_formula_units_Z            2
loop_
_atom_site_label
_atom_site_type_symbol
_atom_site_fract_x
_atom_site_fract_y
_atom_site_fract_z
S1 S 0.24658(15) 0.78749(3) 1.16034(9)
N1 N 0.8913(4) 0.59546(11) 0.8030(3)
N2 N 0.3481(4) 0.61400(9) 0.5644(3)
N3 N 0.3457(5) 0.72654(11) 1.1459(3)
O1 O 0.2583(4) 0.68619(10) 0.8628(2)
O2 O 0.6311(3) 0.70383(7) 0.8138(2)
O3 O -0.0004(4) 0.78420(12) 1.1744(3)
O4 O 0.3355(6) 0.81816(11) 1.0438(3)
O5 O -0.0406(5) 0.58352(11) 0.3912(3)
O6 O 0.0537(4) 0.49658(10) 0.4217(3)
C1 C 0.9730(5) 0.54473(12) 0.8448(3)
C2 C 1.1737(6) 0.53013(14) 0.9295(4)
H1 H 1.2806 0.5561 0.9667
C3 C 1.2093(7) 0.47564(15) 0.9566(4)
H2 H 1.3430 0.4649 1.0135
C4 C 1.0546(7) 0.43672(15) 0.9027(4)
H3 H 1.0833 0.4004 0.9253
C5 C 0.8576(7) 0.45078(14) 0.8157(4)
H4 H 0.7545 0.4242 0.7777
C6 C 0.8142(5) 0.50546(12) 0.7852(3)
C7 C 0.6322(5) 0.53422(11) 0.6993(3)
C8 C 0.4329(5) 0.51976(13) 0.6111(3)
H5 H 0.3914 0.4835 0.5971
C9 C 0.2995(5) 0.56054(12) 0.5453(3)
C10 C 0.5369(5) 0.62873(11) 0.6469(3)
C11 C 0.6866(5) 0.58968(11) 0.7145(3)
C12 C 0.5821(5) 0.68874(11) 0.6613(3)
H6 H 0.4415 0.7084 0.6223
C13 C 0.7924(6) 0.70783(13) 0.5821(4)
H7 H 0.8146 0.7461 0.5978
H8 H 0.7651 0.7008 0.4791
H9 H 0.9310 0.6887 0.6192
C14 C 0.4519(5) 0.70029(11) 0.9010(3)
C15 C 0.5412(5) 0.71354(14) 1.0568(3)
H10 H 0.6571 0.7430 1.0591
C16 C 0.6437(7) 0.6629(2) 1.1318(4)
H11 H 0.6991 0.6377 1.0602
H12 H 0.7747 0.6723 1.2006
C17 C 0.4480(8) 0.63842(17) 1.2097(5)
H13 H 0.3549 0.6141 1.1454
H14 H 0.5093 0.6182 1.2949
C18 C 0.3039(6) 0.68486(15) 1.2538(4)
H15 H 0.1381 0.6752 1.2510
H16 H 0.3542 0.6970 1.3518
C19 C 0.3681(5) 0.81345(12) 1.3297(3)
C20 C 0.5787(5) 0.84146(12) 1.3371(4)
H17 H 0.6593 0.8471 1.2532
C21 C 0.6678(6) 0.86101(13) 1.4706(5)
H18 H 0.8077 0.8807 1.4752
C22 C 0.5560(7) 0.85224(14) 1.5976(4)
C23 C 0.3451(7) 0.82411(14) 1.5869(4)
H19 H 0.2655 0.8180 1.6709
C24 C 0.2509(6) 0.80506(13) 1.4549(4)
H20 H 0.1080 0.7865 1.4497
C25 C 0.6590(9) 0.8720(2) 1.7445(5)
H21 H 0.5443 0.8678 1.8162
H22 H 0.7012 0.9096 1.7374
H23 H 0.7969 0.8510 1.7735
C26 C 0.0867(6) 0.54959(14) 0.4445(4)
C27 C -0.1501(7) 0.48278(19) 0.3257(5)
H24 H -0.2798 0.5059 0.3467
H25 H -0.1923 0.4456 0.3410
H26 H -0.1135 0.4878 0.2257
H27 H 0.961(5) 0.6266(13) 0.821(3)
loop_
_geom_bond_atom_site_label_1
_geom_bond_atom_site_label_2
_geom_bond_site_symmetry_1
_geom_bond_site_symmetry_2
S1 N3 1_555 1_555
N1 C1 1_555 1_555
N2 C9 1_555 1_555
N3 C15 1_555 1_555
O1 C14 1_555 1_555
O2 C12 1_555 1_555
O3 S1 1_555 1_555
O4 S1 1_555 1_555
O5 C26 1_555 1_555
O6 C26 1_555 1_555
C1 C2 1_555 1_555
C2 H1 1_555 1_555
C3 C2 1_555 1_555
H2 C3 1_555 1_555
C4 C3 1_555 1_555
H3 C4 1_555 1_555
C5 C4 1_555 1_555
H4 C5 1_555 1_555
C6 C1 1_555 1_555
C7 C6 1_555 1_555
C8 C7 1_555 1_555
H5 C8 1_555 1_555
C9 C8 1_555 1_555
C10 N2 1_555 1_555
C11 N1 1_555 1_555
C12 C10 1_555 1_555
H6 C12 1_555 1_555
C13 C12 1_555 1_555
H7 C13 1_555 1_555
H8 C13 1_555 1_555
H9 C13 1_555 1_555
C14 O2 1_555 1_555
C15 C14 1_555 1_555
H10 C15 1_555 1_555
C16 C15 1_555 1_555
H11 C16 1_555 1_555
H12 C16 1_555 1_555
C17 C16 1_555 1_555
H13 C17 1_555 1_555
H14 C17 1_555 1_555
C18 N3 1_555 1_555
H15 C18 1_555 1_555
H16 C18 1_555 1_555
C19 S1 1_555 1_555
C20 C19 1_555 1_555
H17 C20 1_555 1_555
C21 C20 1_555 1_555
H18 C21 1_555 1_555
C22 C21 1_555 1_555
C23 C22 1_555 1_555
H19 C23 1_555 1_555
C24 C19 1_555 1_555
H20 C24 1_555 1_555
C25 C22 1_555 1_555
H21 C25 1_555 1_555
H22 C25 1_555 1_555
H23 C25 1_555 1_555
C26 C9 1_555 1_555
C27 O6 1_555 1_555
H24 C27 1_555 1_555
H25 C27 1_555 1_555
H26 C27 1_555 1_555
H27 N1 1_555 1_555
C5 C6 1_555 1_555
C7 C11 1_555 1_555
C10 C11 1_555 1_555
C17 C18 1_555 1_555
C23 C24 1_555 1_555

#END
