
#######################################################################
#
#                 Cambridge Crystallographic Data Centre
#                                CCDC 
#
#######################################################################
#
# If this CIF has been generated from an entry in the Cambridge 
# Structural Database, then it will include bibliographic, chemical, 
# crystal, experimental, refinement or atomic coordinate data resulting 
# from the CCDC's data processing and validation procedures.
#
#######################################################################

data_PATLUU
_chemical_formula_moiety         'C21 H25 N1 O6 S1'
_chemical_name_systematic        
1-[(4-methylphenyl)sulfonyl]-6-(2,4,6-trimethoxyphenyl)piperidin-3-one
_symmetry_cell_setting           monoclinic
_symmetry_space_group_name_H-M   'P 21/c'
_symmetry_Int_Tables_number      14
_space_group_name_Hall           '-P 2ybc'
loop_
_symmetry_equiv_pos_site_id
_symmetry_equiv_pos_as_xyz
1 x,y,z
2 -x,1/2+y,1/2-z
3 -x,-y,-z
4 x,1/2-y,1/2+z
_cell_length_a                   7.4155(4)
_cell_length_b                   15.9590(6)
_cell_length_c                   17.2343(7)
_cell_angle_alpha                90
_cell_angle_beta                 96.638(2)
_cell_angle_gamma                90
_cell_volume                     2025.9
_cell_formula_units_Z            4
loop_
_atom_site_label
_atom_site_type_symbol
_atom_site_fract_x
_atom_site_fract_y
_atom_site_fract_z
S1 S 0.47825(14) 0.37363(6) 0.21643(5)
O1 O 0.0536(5) 0.2970(2) 0.29632(18)
O2 O 0.1773(5) 0.3804(2) 0.5611(2)
N1 N 0.2635(5) 0.3895(2) 0.19159(19)
C1 C 0.1121(6) 0.3394(3) 0.4313(2)
C2 C 0.4999(5) 0.2910(3) 0.2842(2)
O3 O 0.5496(5) 0.4479(2) 0.25596(19)
C3 C 0.1651(6) 0.4512(2) 0.2372(2)
O4 O 0.2582(5) 0.5700(2) 0.3493(2)
O5 O 0.5537(5) 0.3449(2) 0.1490(2)
C4 C 0.2179(6) 0.4939(3) 0.3785(2)
C5 C 0.1656(5) 0.4317(2) 0.3233(2)
C6 C 0.2274(6) 0.4800(3) 0.4593(2)
C7 C 0.4708(6) 0.2097(3) 0.2581(2)
C8 C 0.1083(6) 0.3546(3) 0.3518(2)
C9 C 0.1740(6) 0.4020(3) 0.4845(2)
C10 C 0.4826(6) 0.1440(3) 0.3110(3)
C11 C -0.0285(7) 0.4606(3) 0.1953(3)
C12 C 0.5222(6) 0.1586(3) 0.3908(2)
C13 C 0.1638(6) 0.3332(3) 0.1350(2)
C14 C -0.0289(8) 0.4652(3) 0.1067(3)
C15 C 0.0369(7) 0.3838(3) 0.0765(3)
C16 C 0.5414(6) 0.3073(3) 0.3643(2)
O6 O -0.0074(7) 0.3572(3) 0.0122(3)
C17 C 0.0009(7) 0.2156(3) 0.3206(3)
C18 C 0.2343(8) 0.4433(3) 0.6181(3)
C19 C 0.5498(7) 0.2410(3) 0.4166(3)
C20 C 0.2835(8) 0.6401(4) 0.4011(3)
C21 C 0.5272(9) 0.0864(4) 0.4484(4)
loop_
_geom_bond_atom_site_label_1
_geom_bond_atom_site_label_2
_geom_bond_site_symmetry_1
_geom_bond_site_symmetry_2
S1 N1 1_555 1_555
O1 C8 1_555 1_555
O2 C9 1_555 1_555
N1 C3 1_555 1_555
C1 C8 1_555 1_555
C2 S1 1_555 1_555
O3 S1 1_555 1_555
C3 C5 1_555 1_555
O4 C4 1_555 1_555
O5 S1 1_555 1_555
C4 C5 1_555 1_555
C5 C8 1_555 1_555
C6 C4 1_555 1_555
C7 C2 1_555 1_555
C9 C1 1_555 1_555
C10 C7 1_555 1_555
C11 C3 1_555 1_555
C12 C10 1_555 1_555
C13 N1 1_555 1_555
C14 C11 1_555 1_555
C15 C13 1_555 1_555
C16 C2 1_555 1_555
O6 C15 1_555 1_555
C17 O1 1_555 1_555
C18 O2 1_555 1_555
C19 C12 1_555 1_555
C20 O4 1_555 1_555
C21 C12 1_555 1_555
C6 C9 1_555 1_555
C14 C15 1_555 1_555
C16 C19 1_555 1_555

#END
