
#######################################################################
#
#                 Cambridge Crystallographic Data Centre
#                                CCDC 
#
#######################################################################
#
# If this CIF has been generated from an entry in the Cambridge 
# Structural Database, then it will include bibliographic, chemical, 
# crystal, experimental, refinement or atomic coordinate data resulting 
# from the CCDC's data processing and validation procedures.
#
#######################################################################

data_PATLII
_chemical_formula_moiety         'C28 H31 N1 O6 S1'
_chemical_name_systematic        
5-benzyl-1-[(4-methylphenyl)sulfonyl]-6-(2,4,6-trimethoxyphenyl)piperidin-3-one
_symmetry_cell_setting           triclinic
_symmetry_space_group_name_H-M   'P -1'
_symmetry_Int_Tables_number      2
_space_group_name_Hall           '-P 1'
loop_
_symmetry_equiv_pos_site_id
_symmetry_equiv_pos_as_xyz
1 x,y,z
2 -x,-y,-z
_cell_length_a                   9.7056(4)
_cell_length_b                   9.9354(4)
_cell_length_c                   14.6445(7)
_cell_angle_alpha                77.376(2)
_cell_angle_beta                 71.223(2)
_cell_angle_gamma                74.500(2)
_cell_volume                     1274.71
_cell_formula_units_Z            2
loop_
_atom_site_label
_atom_site_type_symbol
_atom_site_fract_x
_atom_site_fract_y
_atom_site_fract_z
S1 S 0.17492(14) 0.55574(13) 0.13779(9)
O1 O -0.2324(4) 0.6789(4) 0.3399(3)
O2 O 0.1258(4) 0.6670(4) 0.0686(3)
N1 N 0.0740(4) 0.5947(4) 0.2458(3)
O3 O 0.1702(4) 0.4123(4) 0.1376(3)
O4 O 0.0578(4) 0.9930(4) 0.1367(3)
C1 C -0.0887(5) 0.8367(5) 0.2359(4)
C2 C -0.0809(6) 0.9610(5) 0.1706(4)
C3 C -0.2290(6) 0.7999(5) 0.2742(4)
C4 C 0.3622(6) 0.5585(5) 0.1269(4)
C5 C 0.0504(5) 0.7459(5) 0.2604(4)
O5 O -0.4533(6) 1.0940(5) 0.1499(4)
C6 C 0.6518(6) 0.5655(6) 0.1139(4)
C7 C 0.4130(6) 0.6834(6) 0.0826(4)
C8 C -0.2038(6) 1.0466(6) 0.1429(4)
C9 C 0.4497(7) 0.4399(6) 0.1638(4)
C10 C 0.0745(7) 0.4822(6) 0.3299(4)
C11 C -0.3541(6) 0.8833(6) 0.2483(4)
C12 C 0.5579(7) 0.6834(6) 0.0787(5)
C13 C 0.0545(6) 0.7472(6) 0.3658(4)
C14 C 0.1789(7) 0.4914(6) 0.3838(5)
C15 C -0.3388(7) 1.0050(6) 0.1820(4)
C16 C 0.5941(7) 0.4438(6) 0.1571(4)
C17 C 0.0654(7) 0.8924(7) 0.3797(5)
C18 C 0.0731(7) 1.1238(7) 0.0715(5)
C19 C -0.3699(7) 0.6334(7) 0.3806(5)
O6 O 0.2392(7) 0.3867(6) 0.4292(4)
C20 C 0.1944(7) 0.6370(7) 0.3823(5)
C21 C 0.8090(7) 0.5684(6) 0.1050(5)
C22 C -0.0705(7) 1.0081(6) 0.3866(4)
C23 C -0.2104(8) 0.9861(7) 0.4479(5)
C24 C -0.3231(9) 1.2322(8) 0.3994(6)
C25 C -0.1806(9) 1.2514(8) 0.3422(6)
C26 C -0.0587(7) 1.1414(7) 0.3363(5)
C27 C -0.6004(9) 1.0656(8) 0.1936(6)
C28 C -0.3329(10) 1.0973(9) 0.4536(7)
loop_
_geom_bond_atom_site_label_1
_geom_bond_atom_site_label_2
_geom_bond_site_symmetry_1
_geom_bond_site_symmetry_2
S1 O2 1_555 1_555
O1 C3 1_555 1_555
N1 S1 1_555 1_555
O3 S1 1_555 1_555
O4 C2 1_555 1_555
C1 C2 1_555 1_555
C2 C8 1_555 1_555
C3 C1 1_555 1_555
C4 S1 1_555 1_555
C5 N1 1_555 1_555
O5 C15 1_555 1_555
C6 C12 1_555 1_555
C7 C4 1_555 1_555
C8 C15 1_555 1_555
C9 C4 1_555 1_555
C10 N1 1_555 1_555
C11 C3 1_555 1_555
C12 C7 1_555 1_555
C13 C5 1_555 1_555
C14 C10 1_555 1_555
C15 C11 1_555 1_555
C16 C6 1_555 1_555
C17 C13 1_555 1_555
C18 O4 1_555 1_555
C19 O1 1_555 1_555
O6 C14 1_555 1_555
C20 C13 1_555 1_555
C21 C6 1_555 1_555
C22 C17 1_555 1_555
C23 C22 1_555 1_555
C24 C25 1_555 1_555
C25 C26 1_555 1_555
C26 C22 1_555 1_555
C27 O5 1_555 1_555
C28 C23 1_555 1_555
C1 C5 1_555 1_555
C9 C16 1_555 1_555
C14 C20 1_555 1_555
C24 C28 1_555 1_555

#END
