
#######################################################################
#
#                 Cambridge Crystallographic Data Centre
#                                CCDC 
#
#######################################################################
#
# If this CIF has been generated from an entry in the Cambridge 
# Structural Database, then it will include bibliographic, chemical, 
# crystal, experimental, refinement or atomic coordinate data resulting 
# from the CCDC's data processing and validation procedures.
#
#######################################################################

data_PATSEJ03
_chemical_formula_moiety         'C34 H26'
_chemical_name_systematic        cis,cis-2,5-Diphenyl-1,4-distyrylbenzene
_symmetry_cell_setting           triclinic
_symmetry_space_group_name_H-M   'P -1'
_symmetry_Int_Tables_number      2
_space_group_name_Hall           '-P 1'
loop_
_symmetry_equiv_pos_site_id
_symmetry_equiv_pos_as_xyz
1 x,y,z
2 -x,-y,-z
_cell_length_a                   5.4867(11)
_cell_length_b                   12.864(3)
_cell_length_c                   17.893(4)
_cell_angle_alpha                97.67(3)
_cell_angle_beta                 90.92(3)
_cell_angle_gamma                96.00(3)
_cell_volume                     1244.17
_exptl_crystal_colour            colorless
_exptl_crystal_description       prism
_cell_formula_units_Z            2
_exptl_crystal_recrystallization_method chloroform/methanol
loop_
_atom_site_label
_atom_site_type_symbol
_atom_site_fract_x
_atom_site_fract_y
_atom_site_fract_z
C1 C 0.8026(6) 1.2364(3) 0.41918(17)
H1 H 0.677(4) 1.2630(19) 0.4472(12)
C3 C 0.9602(7) 1.3016(3) 0.38142(19)
H3 H 0.922(5) 1.379(2) 0.3863(14)
C5 C 1.1491(7) 1.2610(3) 0.34250(19)
H5 H 1.261(5) 1.301(2) 0.3199(14)
C7 C 1.1848(6) 1.1576(3) 0.34083(18)
H7 H 1.312(5) 1.120(2) 0.3022(15)
C9 C 1.0230(6) 1.0920(3) 0.37783(16)
H9 H 1.051(4) 1.0212(18) 0.3747(11)
C11 C 0.8294(5) 1.1301(2) 0.41734(15)
H11 H 0.833(6) 0.776(3) 0.419(2)
C13 C 0.7116(8) 0.7188(4) 0.4020(2)
H13 H 0.824(7) 0.618(3) 0.479(2)
C15 C 0.7038(9) 0.6213(4) 0.4304(3)
H15 H 0.555(7) 0.475(3) 0.421(2)
C17 C 0.5452(11) 0.5393(4) 0.3981(3)
H17 H 0.317(9) 0.474(4) 0.314(3)
C19 C 0.4031(11) 0.5476(4) 0.3375(3)
H19 H 0.274(8) 0.647(3) 0.271(2)
C21 C 0.4134(8) 0.6419(3) 0.3085(2)
H21 H 0.560(4) 0.8224(18) 0.2519(13)
C23 C 0.5653(5) 0.7302(2) 0.34059(16)
H23 H 0.565(6) 0.982(2) 0.3095(17)
C25 C 0.5683(6) 0.8295(3) 0.30827(18)
H25 H 0.699(4) 1.169(2) 0.5609(13)
C27 C 0.5718(5) 0.9274(3) 0.34271(17)
C29 C 0.6602(5) 1.0617(2) 0.45874(16)
C31 C 0.5464(5) 0.9630(2) 0.42335(16)
C33 C 0.6104(5) 1.0959(2) 0.53326(17)
C1A C 0.1974(6) 0.7636(3) 0.58082(17)
H1A H 0.323(4) 0.7370(19) 0.5528(12)
C3A C 0.0398(7) 0.6984(3) 0.61858(19)
H3A H 0.078(5) 0.621(2) 0.6137(14)
C5A C -0.1491(7) 0.7390(3) 0.65750(19)
H5A H -0.261(5) 0.699(2) 0.6801(14)
C7A C -0.1848(6) 0.8424(3) 0.65917(18)
H7A H -0.312(5) 0.880(2) 0.6978(15)
C9A C -0.0230(6) 0.9080(3) 0.62217(16)
H9A H -0.051(4) 0.9788(18) 0.6253(11)
C11A C 0.1706(5) 0.8699(2) 0.58266(15)
H11A H 0.167(6) 1.224(3) 0.581(2)
C13A C 0.2884(8) 1.2812(4) 0.5980(2)
H13A H 0.176(7) 1.382(3) 0.521(2)
C15A C 0.2962(9) 1.3787(4) 0.5696(3)
H15A H 0.445(7) 1.525(3) 0.579(2)
C17A C 0.4548(11) 1.4607(4) 0.6019(3)
H17A H 0.683(9) 1.526(4) 0.686(3)
C19A C 0.5969(11) 1.4524(4) 0.6625(3)
H19A H 0.726(8) 1.353(3) 0.729(2)
C21A C 0.5866(8) 1.3581(3) 0.6915(2)
H21A H 0.440(4) 1.1776(18) 0.7481(13)
C23A C 0.4347(5) 1.2698(2) 0.65941(16)
H23A H 0.435(6) 1.018(2) 0.6905(17)
C25A C 0.4317(6) 1.1705(3) 0.69173(18)
H25A H 0.301(4) 0.831(2) 0.4391(13)
C27A C 0.4282(5) 1.0726(3) 0.65729(17)
C29A C 0.3398(5) 0.9383(2) 0.54126(16)
C31A C 0.4536(5) 1.0370(2) 0.57665(16)
C33A C 0.3896(5) 0.9041(2) 0.46674(17)
C2 C 0.2642(7) 1.2612(3) 0.10925(19)
H2 H 0.136(4) 1.2774(18) 0.0883(13)
C4 C 0.4154(7) 1.3371(3) 0.15520(19)
H4 H 0.387(5) 1.415(2) 0.1564(13)
C6 C 0.6087(7) 1.3091(3) 0.1937(2)
H6 H 0.719(5) 1.360(2) 0.2249(15)
C8 C 0.6543(6) 1.2064(3) 0.1875(2)
H8 H 0.782(5) 1.181(2) 0.2185(15)
C10 C 0.5000(6) 1.1310(3) 0.1425(2)
H10 H 0.531(4) 1.062(2) 0.1343(13)
C12 C 0.3039(5) 1.1568(2) 0.10253(15)
H12 H 0.359(7) 0.831(3) 0.068(2)
C14 C 0.2803(7) 0.7625(4) 0.0869(2)
H14 H 0.436(6) 0.663(3) 0.0086(19)
C16 C 0.3277(9) 0.6659(4) 0.0511(2)
H16 H 0.224(6) 0.510(3) 0.0443(18)
C18 C 0.1996(10) 0.5757(4) 0.0676(3)
H18 H -0.076(6) 0.528(3) 0.1309(19)
C20 C 0.0235(10) 0.5822(4) 0.1199(3)
H20 H -0.145(6) 0.693(2) 0.1930(16)
C22 C -0.0236(8) 0.6788(4) 0.1572(2)
H22 H 0.055(4) 0.8872(18) 0.2361(14)
C24 C 0.1071(6) 0.7713(3) 0.14097(17)
H24 H 0.034(5) 1.027(2) 0.1870(16)
C26 C 0.0646(6) 0.8734(3) 0.1823(2)
H26 H 0.159(4) 1.1445(18) -0.0353(12)
C28 C 0.0478(6) 0.9634(3) 0.15474(18)
C30 C 0.1439(5) 1.0754(2) 0.05181(16)
C32 C 0.0350(5) 0.9812(2) 0.07550(16)
C34 C 0.1046(6) 1.0900(3) -0.02250(19)
C2A C -0.2642(7) 0.7388(3) -0.10925(19)
H2A H -0.136(4) 0.7226(18) -0.0883(13)
C4A C -0.4154(7) 0.6629(3) -0.15520(19)
H4A H -0.387(5) 0.585(2) -0.1564(13)
C6A C -0.6087(7) 0.6909(3) -0.1937(2)
H6A H -0.719(5) 0.640(2) -0.2249(15)
C8A C -0.6543(6) 0.7936(3) -0.1875(2)
H8A H -0.782(5) 0.819(2) -0.2185(15)
C10A C -0.5000(6) 0.8690(3) -0.1425(2)
H10A H -0.531(4) 0.938(2) -0.1343(13)
C12A C -0.3039(5) 0.8432(2) -0.10253(15)
H12A H -0.359(7) 1.169(3) -0.068(2)
C14A C -0.2803(7) 1.2375(4) -0.0869(2)
H14A H -0.436(6) 1.337(3) -0.0086(19)
C16A C -0.3277(9) 1.3341(4) -0.0511(2)
H16A H -0.224(6) 1.490(3) -0.0443(18)
C18A C -0.1996(10) 1.4243(4) -0.0676(3)
H18A H 0.076(6) 1.472(3) -0.1309(19)
C20A C -0.0235(10) 1.4178(4) -0.1199(3)
H20A H 0.145(6) 1.307(2) -0.1930(16)
C22A C 0.0236(8) 1.3212(4) -0.1572(2)
H22A H -0.055(4) 1.1128(18) -0.2361(14)
C24A C -0.1071(6) 1.2287(3) -0.14097(17)
H24A H -0.034(5) 0.973(2) -0.1870(16)
C26A C -0.0646(6) 1.1266(3) -0.1823(2)
H26A H -0.159(4) 0.8555(18) 0.0353(12)
C28A C -0.0478(6) 1.0366(3) -0.15474(18)
C30A C -0.1439(5) 0.9246(2) -0.05181(16)
C32A C -0.0350(5) 1.0188(2) -0.07550(16)
C34A C -0.1046(6) 0.9100(3) 0.02250(19)
loop_
_geom_bond_atom_site_label_1
_geom_bond_atom_site_label_2
_geom_bond_site_symmetry_1
_geom_bond_site_symmetry_2
C1 H1 1_555 1_555
C2 H2 1_555 1_555
C3 C1 1_555 1_555
C4 C2 1_555 1_555
H3 C3 1_555 1_555
H4 C4 1_555 1_555
C5 C3 1_555 1_555
C6 C4 1_555 1_555
H5 C5 1_555 1_555
H6 C6 1_555 1_555
C7 C5 1_555 1_555
C8 C6 1_555 1_555
H7 C7 1_555 1_555
H8 C8 1_555 1_555
C9 C7 1_555 1_555
C10 C8 1_555 1_555
H9 C9 1_555 1_555
H10 C10 1_555 1_555
C11 C1 1_555 1_555
C12 C2 1_555 1_555
H11 C13 1_555 1_555
H12 C14 1_555 1_555
C13 C15 1_555 1_555
C14 C16 1_555 1_555
H13 C15 1_555 1_555
H14 C16 1_555 1_555
C15 C17 1_555 1_555
C16 C18 1_555 1_555
H15 C17 1_555 1_555
H16 C18 1_555 1_555
C17 C19 1_555 1_555
C18 C20 1_555 1_555
H17 C19 1_555 1_555
H18 C20 1_555 1_555
C19 C21 1_555 1_555
C20 C22 1_555 1_555
H19 C21 1_555 1_555
H20 C22 1_555 1_555
C21 C23 1_555 1_555
C22 C24 1_555 1_555
H21 C25 1_555 1_555
H22 C26 1_555 1_555
C23 C13 1_555 1_555
C24 C14 1_555 1_555
H23 C27 1_555 1_555
H24 C28 1_555 1_555
C25 C23 1_555 1_555
C26 C24 1_555 1_555
H25 C33 1_555 1_555
H26 C34 1_555 1_555
C27 C25 1_555 1_555
C28 C26 1_555 1_555
C29 C11 1_555 1_555
C30 C12 1_555 1_555
C31 C27 1_555 1_555
C32 C28 1_555 1_555
C33 C29 1_555 1_555
C34 C30 1_555 1_555
C1A H1A 1_555 1_555
C2A H2A 1_555 1_555
C3A C1A 1_555 1_555
C4A C2A 1_555 1_555
H3A C3A 1_555 1_555
H4A C4A 1_555 1_555
C5A C3A 1_555 1_555
C6A C4A 1_555 1_555
H5A C5A 1_555 1_555
H6A C6A 1_555 1_555
C7A C5A 1_555 1_555
C8A C6A 1_555 1_555
H7A C7A 1_555 1_555
H8A C8A 1_555 1_555
C9A C7A 1_555 1_555
C10A C8A 1_555 1_555
H9A C9A 1_555 1_555
H10A C10A 1_555 1_555
C11A C1A 1_555 1_555
C12A C2A 1_555 1_555
H11A C13A 1_555 1_555
H12A C14A 1_555 1_555
C13A C15A 1_555 1_555
C14A C16A 1_555 1_555
H13A C15A 1_555 1_555
H14A C16A 1_555 1_555
C15A C17A 1_555 1_555
C16A C18A 1_555 1_555
H15A C17A 1_555 1_555
H16A C18A 1_555 1_555
C17A C19A 1_555 1_555
C18A C20A 1_555 1_555
H17A C19A 1_555 1_555
H18A C20A 1_555 1_555
C19A C21A 1_555 1_555
C20A C22A 1_555 1_555
H19A C21A 1_555 1_555
H20A C22A 1_555 1_555
C21A C23A 1_555 1_555
C22A C24A 1_555 1_555
H21A C25A 1_555 1_555
H22A C26A 1_555 1_555
C23A C13A 1_555 1_555
C24A C14A 1_555 1_555
H23A C27A 1_555 1_555
H24A C28A 1_555 1_555
C25A C23A 1_555 1_555
C26A C24A 1_555 1_555
H25A C33A 1_555 1_555
H26A C34A 1_555 1_555
C27A C25A 1_555 1_555
C28A C26A 1_555 1_555
C29A C11A 1_555 1_555
C30A C12A 1_555 1_555
C31A C33 1_555 1_555
C32A C34 1_555 1_555
C33A C31 1_555 1_555
C34A C32 1_555 1_555
C9 C11 1_555 1_555
C10 C12 1_555 1_555
C29 C31 1_555 1_555
C30 C32 1_555 1_555
C9A C11A 1_555 1_555
C10A C12A 1_555 1_555
C27A C31A 1_555 1_555
C28A C32A 1_555 1_555
C29A C31A 1_555 1_555
C29A C33A 1_555 1_555
C30A C32A 1_555 1_555
C30A C34A 1_555 1_555

#END
