
#######################################################################
#
#                 Cambridge Crystallographic Data Centre
#                                CCDC 
#
#######################################################################
#
# If this CIF has been generated from an entry in the Cambridge 
# Structural Database, then it will include bibliographic, chemical, 
# crystal, experimental, refinement or atomic coordinate data resulting 
# from the CCDC's data processing and validation procedures.
#
#######################################################################

data_PATTAI
_chemical_formula_moiety         'C19 H19 Cl1 N6 O1'
_chemical_name_systematic        
6-chloro-N-[2-(5-phenyl-2H-tetrazol-2-yl)cyclohexyl]pyridine-2-carboxamide
_symmetry_cell_setting           monoclinic
_symmetry_space_group_name_H-M   'C 2'
_symmetry_Int_Tables_number      5
_space_group_name_Hall           'C 2y'
loop_
_symmetry_equiv_pos_site_id
_symmetry_equiv_pos_as_xyz
1 x,y,z
2 -x,y,-z
3 1/2+x,1/2+y,z
4 1/2-x,1/2+y,-z
_cell_length_a                   20.4899(8)
_cell_length_b                   9.7314(5)
_cell_length_c                   10.0601(5)
_cell_angle_alpha                90
_cell_angle_beta                 101.493(4)
_cell_angle_gamma                90
_cell_volume                     1965.72
_exptl_crystal_colour            'light colorless'
_exptl_crystal_description       block
_cell_formula_units_Z            4
loop_
_atom_site_label
_atom_site_type_symbol
_atom_site_fract_x
_atom_site_fract_y
_atom_site_fract_z
Cl1 Cl 0.41777(5) 0.28117(16) 0.07917(15)
O1 O 0.34187(12) 0.7269(3) 0.4521(3)
N1 N 0.38096(12) 0.4695(3) 0.2332(3)
N2 N 0.27593(11) 0.5696(3) 0.3248(3)
H1 H 0.2759 0.4999 0.2723
N3 N 0.24766(12) 0.5453(3) 0.5997(3)
N4 N 0.30185(13) 0.4697(3) 0.6314(3)
N5 N 0.33681(13) 0.5257(3) 0.7441(3)
N6 N 0.24482(13) 0.6488(3) 0.6829(3)
C1 C 0.43214(16) 0.4230(4) 0.1857(4)
C2 C 0.49581(15) 0.4784(5) 0.2152(4)
H2 H 0.5305 0.4403 0.1803
C3 C 0.50541(15) 0.5908(5) 0.2976(4)
H3 H 0.5471 0.6319 0.3200
C4 C 0.45196(15) 0.6433(4) 0.3479(3)
H4 H 0.4572 0.7207 0.4033
C5 C 0.39162(14) 0.5790(4) 0.3144(3)
C6 C 0.33368(16) 0.6333(4) 0.3699(3)
C7 C 0.21303(14) 0.6105(4) 0.3588(3)
H5 H 0.2160 0.7070 0.3872
C8 C 0.15804(16) 0.5957(5) 0.2337(3)
H6 H 0.1585 0.5028 0.1991
H7 H 0.1668 0.6579 0.1639
C9 C 0.08926(17) 0.6263(6) 0.2624(4)
H8 H 0.0871 0.7214 0.2901
H9 H 0.0557 0.6124 0.1807
C10 C 0.07560(16) 0.5327(6) 0.3733(4)
H10 H 0.0760 0.4378 0.3438
H11 H 0.0318 0.5524 0.3916
C11 C 0.12834(15) 0.5530(5) 0.5027(4)
H12 H 0.1268 0.6469 0.5342
H13 H 0.1192 0.4922 0.5732
C12 C 0.19718(14) 0.5223(4) 0.4745(3)
H14 H 0.1987 0.4254 0.4488
C13 C 0.30142(15) 0.6331(4) 0.7734(3)
C14 C 0.32143(16) 0.7241(4) 0.8907(3)
C15 C 0.2725(2) 0.7933(5) 0.9420(4)
H15 H 0.2278 0.7791 0.9040
C16 C 0.2901(3) 0.8829(6) 1.0491(5)
H16 H 0.2572 0.9290 1.0831
C17 C 0.3556(3) 0.9048(6) 1.1060(4)
H17 H 0.3672 0.9657 1.1782
C18 C 0.4047(3) 0.8360(6) 1.0558(4)
H18 H 0.4494 0.8510 1.0939
C19 C 0.38749(19) 0.7454(5) 0.9493(4)
H19 H 0.4206 0.6983 0.9167
loop_
_geom_bond_atom_site_label_1
_geom_bond_atom_site_label_2
_geom_bond_site_symmetry_1
_geom_bond_site_symmetry_2
Cl1 C1 1_555 1_555
O1 C6 1_555 1_555
N1 C1 1_555 1_555
N2 H1 1_555 1_555
N3 N4 1_555 1_555
N4 N5 1_555 1_555
N5 C13 1_555 1_555
N6 N3 1_555 1_555
C1 C2 1_555 1_555
C2 H2 1_555 1_555
C3 C2 1_555 1_555
H3 C3 1_555 1_555
C4 C3 1_555 1_555
H4 C4 1_555 1_555
C5 N1 1_555 1_555
C6 N2 1_555 1_555
C7 N2 1_555 1_555
H5 C7 1_555 1_555
C8 C7 1_555 1_555
H6 C8 1_555 1_555
H7 C8 1_555 1_555
C9 C8 1_555 1_555
H8 C9 1_555 1_555
H9 C9 1_555 1_555
C10 C9 1_555 1_555
H10 C10 1_555 1_555
H11 C10 1_555 1_555
C11 C10 1_555 1_555
H12 C11 1_555 1_555
H13 C11 1_555 1_555
C12 N3 1_555 1_555
H14 C12 1_555 1_555
C13 N6 1_555 1_555
C14 C13 1_555 1_555
C15 C14 1_555 1_555
H15 C15 1_555 1_555
C16 C15 1_555 1_555
H16 C16 1_555 1_555
C17 C16 1_555 1_555
H17 C17 1_555 1_555
C18 C17 1_555 1_555
H18 C18 1_555 1_555
C19 C14 1_555 1_555
H19 C19 1_555 1_555
C4 C5 1_555 1_555
C5 C6 1_555 1_555
C7 C12 1_555 1_555
C11 C12 1_555 1_555
C18 C19 1_555 1_555

#END
