
#######################################################################
#
#                 Cambridge Crystallographic Data Centre
#                                CCDC 
#
#######################################################################
#
# If this CIF has been generated from an entry in the Cambridge 
# Structural Database, then it will include bibliographic, chemical, 
# crystal, experimental, refinement or atomic coordinate data resulting 
# from the CCDC's data processing and validation procedures.
#
#######################################################################

data_PATVUE
_chemical_formula_moiety         'C31 H35 N1 O4 S1,C1 H2 Cl2'
_chemical_name_systematic        
'4-(3,5-di-t-butyl-4-hydroxyphenyl)-3-methylidene-1-[(4-methylphenyl)sulfonyl]-3,4-dihydroquinolin-2(1H)-one dichloromethane solvate'
_symmetry_cell_setting           monoclinic
_symmetry_space_group_name_H-M   'P 21'
_symmetry_Int_Tables_number      4
_space_group_name_Hall           'P 2yb'
loop_
_symmetry_equiv_pos_site_id
_symmetry_equiv_pos_as_xyz
1 x,y,z
2 -x,1/2+y,-z
_cell_length_a                   9.4913(6)
_cell_length_b                   16.7660(11)
_cell_length_c                   10.7446(7)
_cell_angle_alpha                90
_cell_angle_beta                 109.854(7)
_cell_angle_gamma                90
_cell_volume                     1608.17
_exptl_crystal_colour            'light colorless'
_exptl_crystal_description       block
_chemical_melting_point          '471-474 K'
_cell_formula_units_Z            2
_exptl_crystal_recrystallization_method 'ethyl acetate /petroleum ether'
loop_
_atom_site_label
_atom_site_type_symbol
_atom_site_fract_x
_atom_site_fract_y
_atom_site_fract_z
S1 S -0.04919(10) -0.43095(6) -0.68426(9)
O1 O 0.0205(3) -0.3935(2) -0.0205(3)
H1 H -0.0573 -0.3830 -0.0067
O2 O -0.2501(3) -0.2973(2) -0.6999(3)
O3 O 0.0830(3) -0.4754(2) -0.6212(3)
O4 O -0.1143(3) -0.4323(2) -0.8252(3)
N1 N -0.0061(3) -0.3352(2) -0.6347(3)
C1 C 0.1554(4) -0.3277(2) -0.2794(3)
H2 H 0.2283 -0.3423 -0.3151
C2 C 0.1404(4) -0.3721(3) -0.1757(3)
C3 C 0.0303(4) -0.3470(3) -0.1237(3)
C4 C -0.0610(4) -0.2813(3) -0.1714(3)
C5 C -0.0421(4) -0.2400(3) -0.2769(3)
H3 H -0.1032 -0.1964 -0.3120
C6 C 0.0658(4) -0.2623(3) -0.3316(3)
C7 C 0.2403(4) -0.4452(3) -0.1216(3)
C8 C 0.3444(5) -0.4608(3) -0.1998(4)
H4 H 0.2861 -0.4700 -0.2910
H5 H 0.4048 -0.5068 -0.1646
H6 H 0.4080 -0.4153 -0.1932
C9 C 0.3382(5) -0.4317(4) 0.0226(4)
H7 H 0.3962 -0.4788 0.0563
H8 H 0.2756 -0.4204 0.0743
H9 H 0.4043 -0.3876 0.0278
C10 C 0.1479(6) -0.5215(3) -0.1312(5)
H10 H 0.0883 -0.5311 -0.2219
H11 H 0.0835 -0.5154 -0.0795
H12 H 0.2141 -0.5658 -0.0980
C11 C -0.1828(4) -0.2538(3) -0.1137(4)
C12 C -0.1134(5) -0.2357(4) 0.0351(4)
H13 H -0.0550 -0.2806 0.0795
H14 H -0.1918 -0.2257 0.0708
H15 H -0.0502 -0.1896 0.0480
C13 C -0.3027(5) -0.3182(4) -0.1365(5)
H16 H -0.3519 -0.3258 -0.2298
H17 H -0.3748 -0.3019 -0.0969
H18 H -0.2567 -0.3673 -0.0971
C14 C -0.2601(5) -0.1771(4) -0.1791(5)
H19 H -0.1877 -0.1348 -0.1623
H20 H -0.3366 -0.1630 -0.1433
H21 H -0.3044 -0.1852 -0.2728
C15 C 0.0812(4) -0.2136(3) -0.4477(3)
H22 H 0.1130 -0.1595 -0.4162
C16 C 0.1922(4) -0.2472(3) -0.5056(4)
C17 C 0.3395(5) -0.2194(3) -0.4723(4)
H23 H 0.3734 -0.1796 -0.4088
C18 C 0.4337(5) -0.2496(4) -0.5315(5)
H24 H 0.5318 -0.2311 -0.5066
C19 C 0.3860(5) -0.3069(4) -0.6271(5)
H25 H 0.4511 -0.3259 -0.6682
C20 C 0.2419(4) -0.3368(3) -0.6635(4)
H26 H 0.2095 -0.3757 -0.7288
C21 C 0.1463(4) -0.3075(3) -0.6004(3)
C22 C -0.1211(4) -0.2819(3) -0.6380(4)
C23 C -0.0689(5) -0.2082(3) -0.5592(4)
C24 C -0.1580(6) -0.1453(3) -0.5875(5)
H27 H -0.2503 -0.1480 -0.6551
H28 H -0.1284 -0.0983 -0.5398
C25 C -0.1855(4) -0.4569(3) -0.6148(3)
C26 C -0.1495(5) -0.4581(3) -0.4805(4)
H29 H -0.0541 -0.4437 -0.4254
C27 C -0.2563(5) -0.4809(4) -0.4281(4)
H30 H -0.2322 -0.4822 -0.3367
C28 C -0.3987(5) -0.5020(3) -0.5078(5)
C29 C -0.4298(4) -0.5027(4) -0.6424(5)
H31 H -0.5240 -0.5189 -0.6976
C30 C -0.3248(4) -0.4799(3) -0.6973(4)
H32 H -0.3476 -0.4799 -0.7886
C31 C -0.5168(6) -0.5266(5) -0.4494(7)
H33 H -0.4705 -0.5352 -0.3560
H34 H -0.5643 -0.5749 -0.4909
H35 H -0.5904 -0.4851 -0.4643
C32 C -0.7045(11) -0.1764(7) -0.9705(16)
H36 H -0.7486 -0.2041 -1.0540
H37 H -0.7406 -0.2030 -0.9070
Cl1 Cl -0.5248(3) -0.1920(3) -0.9232(6)
Cl2 Cl -0.7752(5) -0.0872(3) -0.9907(8)
H38? H -0.8009 -0.1916 -1.0337
H39? H -0.6644 -0.2232 -0.9171
Cl3? Cl -0.5921(8) -0.1563(6) -1.0565(9)
Cl4? Cl -0.7358(10) -0.1106(9) -0.8741(9)
loop_
_geom_bond_atom_site_label_1
_geom_bond_atom_site_label_2
_geom_bond_site_symmetry_1
_geom_bond_site_symmetry_2
S1 O3 1_555 1_555
O1 H1 1_555 1_555
O2 C22 1_555 1_555
O4 S1 1_555 1_555
N1 S1 1_555 1_555
C1 H2 1_555 1_555
C2 C1 1_555 1_555
C3 O1 1_555 1_555
C4 C3 1_555 1_555
C5 C4 1_555 1_555
H3 C5 1_555 1_555
C6 C1 1_555 1_555
C7 C2 1_555 1_555
C8 C7 1_555 1_555
H4 C8 1_555 1_555
H5 C8 1_555 1_555
H6 C8 1_555 1_555
C9 C7 1_555 1_555
H7 C9 1_555 1_555
H8 C9 1_555 1_555
H9 C9 1_555 1_555
C10 C7 1_555 1_555
H10 C10 1_555 1_555
H11 C10 1_555 1_555
H12 C10 1_555 1_555
C11 C4 1_555 1_555
C12 C11 1_555 1_555
H13 C12 1_555 1_555
H14 C12 1_555 1_555
H15 C12 1_555 1_555
C13 C11 1_555 1_555
H16 C13 1_555 1_555
H17 C13 1_555 1_555
H18 C13 1_555 1_555
C14 C11 1_555 1_555
H19 C14 1_555 1_555
H20 C14 1_555 1_555
H21 C14 1_555 1_555
C15 C6 1_555 1_555
H22 C15 1_555 1_555
C16 C15 1_555 1_555
C17 C16 1_555 1_555
H23 C17 1_555 1_555
C18 C17 1_555 1_555
H24 C18 1_555 1_555
C19 C18 1_555 1_555
H25 C19 1_555 1_555
C20 C19 1_555 1_555
H26 C20 1_555 1_555
C21 N1 1_555 1_555
C22 N1 1_555 1_555
C23 C15 1_555 1_555
C24 C23 1_555 1_555
H27 C24 1_555 1_555
H28 C24 1_555 1_555
C25 S1 1_555 1_555
C26 C25 1_555 1_555
H29 C26 1_555 1_555
C27 C26 1_555 1_555
H30 C27 1_555 1_555
C28 C27 1_555 1_555
C29 C28 1_555 1_555
H31 C29 1_555 1_555
C30 C25 1_555 1_555
H32 C30 1_555 1_555
C31 C28 1_555 1_555
H33 C31 1_555 1_555
H34 C31 1_555 1_555
H35 C31 1_555 1_555
C32 H36 1_555 1_555
H37 C32 1_555 1_555
Cl1 C32 1_555 1_555
Cl2 C32 1_555 1_555
C2 C3 1_555 1_555
C5 C6 1_555 1_555
C16 C21 1_555 1_555
C20 C21 1_555 1_555
C22 C23 1_555 1_555
C29 C30 1_555 1_555

#END
