
#######################################################################
#
#                 Cambridge Crystallographic Data Centre
#                                CCDC 
#
#######################################################################
#
# If this CIF has been generated from an entry in the Cambridge 
# Structural Database, then it will include bibliographic, chemical, 
# crystal, experimental, refinement or atomic coordinate data resulting 
# from the CCDC's data processing and validation procedures.
#
#######################################################################

data_PATVIS
_chemical_formula_moiety         'C25 H19 N1 O1'
_chemical_name_systematic        2,3,3-triphenyl-2,3-dihydro-1,2-benzoxazole
_symmetry_cell_setting           monoclinic
_symmetry_space_group_name_H-M   'P 21/c'
_symmetry_Int_Tables_number      14
_space_group_name_Hall           '-P 2ybc'
loop_
_symmetry_equiv_pos_site_id
_symmetry_equiv_pos_as_xyz
1 x,y,z
2 -x,1/2+y,1/2-z
3 -x,-y,-z
4 x,1/2-y,1/2+z
_cell_length_a                   10.4008(8)
_cell_length_b                   19.8632(15)
_cell_length_c                   8.9591(7)
_cell_angle_alpha                90
_cell_angle_beta                 91.710(2)
_cell_angle_gamma                90
_cell_volume                     1850.06
_exptl_crystal_colour            colorless
_exptl_crystal_description       block
_cell_formula_units_Z            4
loop_
_atom_site_label
_atom_site_type_symbol
_atom_site_fract_x
_atom_site_fract_y
_atom_site_fract_z
C1 C 0.7159(2) 0.42601(12) 0.4814(3)
C2 C 0.7140(2) 0.41333(12) 0.6501(3)
C3 C 0.6040(2) 0.36787(12) 0.6980(3)
C4 C 0.9109(2) 0.34087(13) 0.6115(3)
C5 C 0.7163(2) 0.47824(12) 0.7392(3)
C6 C 0.6917(3) 0.37365(14) 0.3818(3)
H1 H 0.6698 0.3314 0.4178
C7 C 0.8398(3) 0.49165(14) 0.7869(3)
C8 C 0.8826(3) 0.27315(14) 0.6132(3)
H2 H 0.8196 0.2570 0.6755
C9 C 0.7500(3) 0.48773(14) 0.4239(3)
H3 H 0.7663 0.5236 0.4884
C10 C 0.6178(3) 0.32824(14) 0.8248(3)
H4 H 0.6966 0.3269 0.8766
C11 C 0.6187(3) 0.52209(14) 0.7726(3)
H5 H 0.5341 0.5133 0.7421
C12 C 0.4857(3) 0.36996(15) 0.6249(3)
H6 H 0.4737 0.3971 0.5412
C13 C 0.6999(3) 0.38353(16) 0.2292(3)
H7 H 0.6826 0.3481 0.1637
C14 C 1.0052(3) 0.36424(16) 0.5195(3)
H8 H 1.0247 0.4099 0.5170
C15 C 0.7602(3) 0.49710(17) 0.2720(3)
H9 H 0.7853 0.5388 0.2355
C16 C 0.9472(3) 0.22907(16) 0.5229(4)
H10 H 0.9265 0.1835 0.5233
C17 C 0.7334(3) 0.44533(18) 0.1745(3)
H11 H 0.7380 0.4521 0.0721
C18 C 0.6502(4) 0.57978(16) 0.8531(4)
H12 H 0.5859 0.6102 0.8768
C19 C 0.8736(3) 0.54879(16) 0.8658(3)
H13 H 0.9585 0.5573 0.8957
C20 C 0.7760(4) 0.59260(17) 0.8983(4)
H14 H 0.7950 0.6316 0.9519
C21 C 1.0419(3) 0.25206(19) 0.4325(4)
H15 H 1.0863 0.2223 0.3728
C22 C 1.0703(3) 0.3195(2) 0.4312(4)
H16 H 1.1343 0.3353 0.3700
C23 C 0.4003(3) 0.29162(17) 0.8006(5)
H17 H 0.3327 0.2654 0.8335
C24 C 0.5161(3) 0.29073(15) 0.8754(4)
H18 H 0.5269 0.2647 0.9611
C25 C 0.3839(3) 0.33163(18) 0.6757(5)
H19 H 0.3045 0.3330 0.6252
N1 N 0.8408(2) 0.38326(10) 0.7093(2)
O1 O 0.92446(19) 0.44231(10) 0.7457(2)
loop_
_geom_bond_atom_site_label_1
_geom_bond_atom_site_label_2
_geom_bond_site_symmetry_1
_geom_bond_site_symmetry_2
C1 C2 1_555 1_555
C2 C3 1_555 1_555
C3 C10 1_555 1_555
C4 C8 1_555 1_555
C5 C2 1_555 1_555
C6 C1 1_555 1_555
H1 C6 1_555 1_555
C7 C5 1_555 1_555
C8 H2 1_555 1_555
C9 C1 1_555 1_555
H3 C9 1_555 1_555
C10 H4 1_555 1_555
C11 C5 1_555 1_555
H5 C11 1_555 1_555
C12 C3 1_555 1_555
H6 C12 1_555 1_555
C13 C6 1_555 1_555
H7 C13 1_555 1_555
C14 C4 1_555 1_555
H8 C14 1_555 1_555
C15 C9 1_555 1_555
H9 C15 1_555 1_555
C16 C8 1_555 1_555
H10 C16 1_555 1_555
C17 C13 1_555 1_555
H11 C17 1_555 1_555
C18 C11 1_555 1_555
H12 C18 1_555 1_555
C19 C7 1_555 1_555
H13 C19 1_555 1_555
C20 C18 1_555 1_555
H14 C20 1_555 1_555
C21 C16 1_555 1_555
H15 C21 1_555 1_555
C22 C14 1_555 1_555
H16 C22 1_555 1_555
C23 H17 1_555 1_555
C24 C10 1_555 1_555
H18 C24 1_555 1_555
C25 C12 1_555 1_555
H19 C25 1_555 1_555
N1 C2 1_555 1_555
O1 C7 1_555 1_555
C4 N1 1_555 1_555
C15 C17 1_555 1_555
C19 C20 1_555 1_555
C21 C22 1_555 1_555
C23 C24 1_555 1_555
C23 C25 1_555 1_555
N1 O1 1_555 1_555

#END
