
#######################################################################
#
#                 Cambridge Crystallographic Data Centre
#                                CCDC 
#
#######################################################################
#
# If this CIF has been generated from an entry in the Cambridge 
# Structural Database, then it will include bibliographic, chemical, 
# crystal, experimental, refinement or atomic coordinate data resulting 
# from the CCDC's data processing and validation procedures.
#
#######################################################################

data_PATWAL
_chemical_formula_moiety         'C16 H12 O3'
_chemical_name_systematic        
3-[(2-hydroxyphenyl)methyl]-2H-1-benzopyran-2-one
_symmetry_cell_setting           monoclinic
_symmetry_space_group_name_H-M   'P 21/c'
_symmetry_Int_Tables_number      14
_space_group_name_Hall           '-P 2ybc'
loop_
_symmetry_equiv_pos_site_id
_symmetry_equiv_pos_as_xyz
1 x,y,z
2 -x,1/2+y,1/2-z
3 -x,-y,-z
4 x,1/2-y,1/2+z
_cell_length_a                   28.471(2)
_cell_length_b                   6.6342(3)
_cell_length_c                   13.3836(11)
_cell_angle_alpha                90
_cell_angle_beta                 103.623(10)
_cell_angle_gamma                90
_cell_volume                     2456.81
_exptl_crystal_colour            'light colorless'
_exptl_crystal_description       block
_chemical_melting_point          '432-435 K'
_cell_formula_units_Z            8
_exptl_crystal_recrystallization_method '1,2-dichloroethane/petroleum ether'
loop_
_atom_site_label
_atom_site_type_symbol
_atom_site_fract_x
_atom_site_fract_y
_atom_site_fract_z
O1 O 0.0171(2) 0.3387(8) 0.1076(5)
O2 O 0.0887(3) 0.4658(9) 0.1115(6)
O3 O 0.1811(3) 0.4896(12) 0.2215(8)
H1 H 0.1560 0.4766 0.1771
C1 C -0.0136(3) 0.1809(12) 0.1143(6)
C2 C -0.0611(3) 0.2208(13) 0.1028(7)
H2 H -0.0723 0.3527 0.0928
C3 C -0.0924(4) 0.0685(15) 0.1059(7)
H3 H -0.1252 0.0961 0.0971
C4 C -0.0757(4) -0.1307(15) 0.1221(7)
H4 H -0.0972 -0.2350 0.1248
C5 C -0.0274(3) -0.1702(12) 0.1341(6)
H5 H -0.0162 -0.3020 0.1446
C6 C 0.0050(3) -0.0146(11) 0.1308(5)
C7 C 0.0564(3) -0.0423(11) 0.1410(6)
H6 H 0.0693 -0.1714 0.1518
C8 C 0.0853(3) 0.1105(11) 0.1355(6)
C9 C 0.0659(3) 0.3134(10) 0.1182(6)
C10 C 0.1393(3) 0.0935(13) 0.1513(8)
H7 H 0.1497 0.1854 0.1044
H8 H 0.1470 -0.0422 0.1332
C11 C 0.1684(3) 0.1386(14) 0.2607(8)
C12 C 0.1863(3) 0.3309(16) 0.2879(9)
C13 C 0.2126(4) 0.363(2) 0.3852(11)
H9 H 0.2267 0.4889 0.4012
C14 C 0.2196(4) 0.223(4) 0.4594(12)
H10 H 0.2363 0.2530 0.5261
C15 C 0.2007(5) 0.032(2) 0.4328(11)
H11 H 0.2050 -0.0694 0.4823
C16 C 0.1753(4) -0.0103(17) 0.3327(9)
H12 H 0.1631 -0.1389 0.3151
O4 O 0.4838(2) -0.3297(8) 0.0916(5)
O5 O 0.4115(3) -0.4532(10) 0.0220(6)
O6 O 0.3215(3) -0.4758(10) 0.0475(8)
H13 H 0.3366 -0.4424 0.0050
C17 C 0.5135(3) -0.1675(12) 0.1288(6)
C18 C 0.5618(3) -0.2127(14) 0.1653(7)
H14 H 0.5728 -0.3448 0.1657
C19 C 0.5938(4) -0.0543(18) 0.2017(7)
H15 H 0.6265 -0.0815 0.2274
C20 C 0.5773(4) 0.1422(15) 0.1998(6)
H16 H 0.5988 0.2467 0.2239
C21 C 0.5274(3) 0.1836(14) 0.1607(7)
H17 H 0.5162 0.3156 0.1578
C22 C 0.4952(3) 0.0250(12) 0.1267(6)
C23 C 0.4440(3) 0.0496(13) 0.0841(6)
H18 H 0.4311 0.1789 0.0794
C24 C 0.4147(3) -0.1028(14) 0.0516(6)
C25 C 0.4350(4) -0.3000(16) 0.0546(7)
C26 C 0.3610(3) -0.0784(14) 0.0123(7)
H19 H 0.3502 -0.1683 -0.0457
H20 H 0.3544 0.0585 -0.0125
C27 C 0.3313(4) -0.1216(14) 0.0926(8)
C28 C 0.3140(4) -0.3092(17) 0.1034(9)
C29 C 0.2867(4) -0.341(2) 0.1777(11)
H21 H 0.2740 -0.4672 0.1859
C30 C 0.2794(4) -0.184(2) 0.2365(11)
H22 H 0.2609 -0.2040 0.2844
C31 C 0.2987(6) 0.008(2) 0.2279(13)
H23 H 0.2945 0.1128 0.2712
C32 C 0.3242(4) 0.0359(17) 0.1530(10)
H24 H 0.3366 0.1624 0.1437
loop_
_geom_bond_atom_site_label_1
_geom_bond_atom_site_label_2
_geom_bond_site_symmetry_1
_geom_bond_site_symmetry_2
O1 C1 1_555 1_555
O2 C9 1_555 1_555
O3 H1 1_555 1_555
C1 C2 1_555 1_555
C2 H2 1_555 1_555
C3 C2 1_555 1_555
H3 C3 1_555 1_555
C4 C3 1_555 1_555
H4 C4 1_555 1_555
C5 C4 1_555 1_555
H5 C5 1_555 1_555
C6 C1 1_555 1_555
C7 C6 1_555 1_555
H6 C7 1_555 1_555
C8 C7 1_555 1_555
C9 O1 1_555 1_555
C10 C8 1_555 1_555
H7 C10 1_555 1_555
H8 C10 1_555 1_555
C11 C10 1_555 1_555
C12 O3 1_555 1_555
C13 C12 1_555 1_555
H9 C13 1_555 1_555
C14 C13 1_555 1_555
H10 C14 1_555 1_555
C15 C14 1_555 1_555
H11 C15 1_555 1_555
C16 C11 1_555 1_555
H12 C16 1_555 1_555
O4 C17 1_555 1_555
O5 C25 1_555 1_555
O6 H13 1_555 1_555
C17 C18 1_555 1_555
C18 H14 1_555 1_555
C19 C18 1_555 1_555
H15 C19 1_555 1_555
C20 C19 1_555 1_555
H16 C20 1_555 1_555
C21 C20 1_555 1_555
H17 C21 1_555 1_555
C22 C17 1_555 1_555
C23 C22 1_555 1_555
H18 C23 1_555 1_555
C24 C23 1_555 1_555
C25 O4 1_555 1_555
C26 C24 1_555 1_555
H19 C26 1_555 1_555
H20 C26 1_555 1_555
C27 C26 1_555 1_555
C28 O6 1_555 1_555
C29 C28 1_555 1_555
H21 C29 1_555 1_555
C30 C29 1_555 1_555
H22 C30 1_555 1_555
C31 C30 1_555 1_555
H23 C31 1_555 1_555
C32 C27 1_555 1_555
H24 C32 1_555 1_555
C5 C6 1_555 1_555
C8 C9 1_555 1_555
C11 C12 1_555 1_555
C15 C16 1_555 1_555
C21 C22 1_555 1_555
C24 C25 1_555 1_555
C27 C28 1_555 1_555
C31 C32 1_555 1_555

#END
