
#######################################################################
#
#                 Cambridge Crystallographic Data Centre
#                                CCDC 
#
#######################################################################
#
# If this CIF has been generated from an entry in the Cambridge 
# Structural Database, then it will include bibliographic, chemical, 
# crystal, experimental, refinement or atomic coordinate data resulting 
# from the CCDC's data processing and validation procedures.
#
#######################################################################

data_PATXAM
_chemical_formula_moiety         'C26 H23 N5 O2 S3,C1 H1 Cl3'
_chemical_name_systematic        
'7-(2-ethylhexyl)-4,10-bis(thiophen-2-yl)-6H-pyrrolo[3,4-b][1,2,5]thiadiazolo[3,4-g]quinoxaline-6,8(7H)-dione chloroform solvate'
_symmetry_cell_setting           monoclinic
_symmetry_space_group_name_H-M   'P 21/c'
_symmetry_Int_Tables_number      14
_space_group_name_Hall           '-P 2ybc'
loop_
_symmetry_equiv_pos_site_id
_symmetry_equiv_pos_as_xyz
1 x,y,z
2 -x,1/2+y,1/2-z
3 -x,-y,-z
4 x,1/2-y,1/2+z
_cell_length_a                   5.50555(10)
_cell_length_b                   37.4382(7)
_cell_length_c                   14.3097(3)
_cell_angle_alpha                90
_cell_angle_beta                 93.9485(9)
_cell_angle_gamma                90
_cell_volume                     2942.48
_exptl_crystal_description       plate
_cell_formula_units_Z            4
loop_
_atom_site_label
_atom_site_type_symbol
_atom_site_fract_x
_atom_site_fract_y
_atom_site_fract_z
Cl1 Cl 0.3561(8) 0.67214(11) 0.6073(2)
Cl2 Cl 0.3373(7) 0.72802(8) 0.4666(3)
Cl3 Cl -0.0769(6) 0.68528(8) 0.4902(3)
C1 C 0.2385(18) 0.6861(3) 0.4957(7)
H1 H 0.293006 0.669114 0.449408
S1 S 1.1003(3) 0.56904(4) 0.69385(12)
S2 S 0.2457(3) 0.51089(4) 0.91780(11)
S3 S 1.0378(3) 0.40831(4) 0.56419(12)
O1 O 0.0302(9) 0.40229(11) 0.8748(3)
O2 O 0.5203(9) 0.34269(12) 0.6792(4)
N1 N 0.8791(10) 0.56254(13) 0.7580(4)
N2 N 1.1336(9) 0.53028(12) 0.6480(3)
N3 N 0.4092(9) 0.45687(13) 0.8125(3)
N4 N 0.7011(9) 0.41981(13) 0.6881(3)
N5 N 0.2533(10) 0.36453(14) 0.7839(3)
C2 C 0.8153(11) 0.52746(16) 0.7468(4)
C3 C 0.9607(11) 0.50893(15) 0.6813(4)
C4 C 0.9274(10) 0.47238(15) 0.6605(4)
C5 C 0.7374(12) 0.45560(16) 0.7056(4)
C6 C 0.5936(11) 0.47444(16) 0.7721(4)
C7 C 0.6260(11) 0.51048(15) 0.7947(4)
C8 C 0.1961(12) 0.39732(17) 0.8243(4)
C9 C 0.3817(11) 0.42326(16) 0.7915(4)
C10 C 0.5290(11) 0.40475(17) 0.7302(4)
C11 C 0.4430(13) 0.36701(18) 0.7249(5)
C12 C 0.2041(13) 0.54870(18) 0.9807(5)
H2 H 0.079520 0.551499 1.020800
C13 C 0.3727(14) 0.57452(18) 0.9662(5)
H3 H 0.377145 0.596391 0.997135
C14 C 0.5393(12) 0.56493(16) 0.9001(4)
H4 H 0.665859 0.579317 0.882319
C15 C 0.4857(12) 0.52958(16) 0.8639(4)
C16 C 1.0734(12) 0.45273(15) 0.5938(4)
C17 C 1.2686(11) 0.46771(16) 0.5473(4)
H5 H 1.318980 0.491326 0.554255
C18 C 1.3773(12) 0.44297(18) 0.4896(4)
H6 H 1.506951 0.448425 0.453725
C19 C 1.2692(12) 0.40913(18) 0.4918(4)
H7 H 1.318246 0.389549 0.457803
C20 C 0.1120(13) 0.33184(18) 0.7945(5)
H8 H 0.080774 0.320744 0.733565
H9 H -0.043717 0.337947 0.818016
C21 C 0.246(2) 0.3046(2) 0.8624(7)
H10 H 0.403867 0.299656 0.837823
C22 C 0.294(2) 0.3194(3) 0.9588(7)
H11 H 0.376137 0.342191 0.953886
H12 H 0.406407 0.303416 0.993502
C23 C 0.073(3) 0.3248(3) 1.0156(8)
H13 H -0.018924 0.302831 1.019346
H14 H -0.032781 0.343215 0.987754
C24 C 0.187(3) 0.3371(4) 1.1200(12)
H15 H 0.288673 0.318516 1.149485
H16 H 0.281689 0.358925 1.116912
C25 C -0.040(4) 0.3429(3) 1.1703(11)
H17 H 0.003182 0.350286 1.233460
H18 H -0.137457 0.360997 1.138615
H19 H -0.130539 0.320972 1.170879
C26 C 0.106(3) 0.2706(3) 0.8589(9)
H20 H -0.067793 0.275021 0.854072
H21 H 0.146863 0.256183 0.914217
C27 C 0.196(4) 0.2500(4) 0.7609(13)
H22 H 0.113497 0.227511 0.752960
H23 H 0.155205 0.264882 0.707311
H24 H 0.368257 0.246184 0.767008
loop_
_geom_bond_atom_site_label_1
_geom_bond_atom_site_label_2
_geom_bond_site_symmetry_1
_geom_bond_site_symmetry_2
Cl1 C1 1_555 1_555
Cl2 C1 1_555 1_555
Cl3 C1 1_555 1_555
C1 H1 1_555 1_555
S1 N1 1_555 1_555
S2 C12 1_555 1_555
S3 C16 1_555 1_555
O1 C8 1_555 1_555
O2 C11 1_555 1_555
N1 C2 1_555 1_555
N2 S1 1_555 1_555
N3 C6 1_555 1_555
N4 C5 1_555 1_555
N5 C8 1_555 1_555
C2 C3 1_555 1_555
C3 N2 1_555 1_555
C4 C3 1_555 1_555
C5 C4 1_555 1_555
C6 C5 1_555 1_555
C7 C2 1_555 1_555
C8 C9 1_555 1_555
C9 N3 1_555 1_555
C10 N4 1_555 1_555
C11 N5 1_555 1_555
C12 H2 1_555 1_555
C13 C12 1_555 1_555
H3 C13 1_555 1_555
C14 C13 1_555 1_555
H4 C14 1_555 1_555
C15 S2 1_555 1_555
C16 C4 1_555 1_555
C17 C16 1_555 1_555
H5 C17 1_555 1_555
C18 C17 1_555 1_555
H6 C18 1_555 1_555
C19 S3 1_555 1_555
H7 C19 1_555 1_555
C20 N5 1_555 1_555
H8 C20 1_555 1_555
H9 C20 1_555 1_555
C21 C20 1_555 1_555
H10 C21 1_555 1_555
C22 C21 1_555 1_555
H11 C22 1_555 1_555
H12 C22 1_555 1_555
C23 C22 1_555 1_555
H13 C23 1_555 1_555
H14 C23 1_555 1_555
C24 C23 1_555 1_555
H15 C24 1_555 1_555
H16 C24 1_555 1_555
C25 C24 1_555 1_555
H17 C25 1_555 1_555
H18 C25 1_555 1_555
H19 C25 1_555 1_555
C26 C21 1_555 1_555
H20 C26 1_555 1_555
H21 C26 1_555 1_555
C27 C26 1_555 1_555
H22 C27 1_555 1_555
H23 C27 1_555 1_555
H24 C27 1_555 1_555
C6 C7 1_555 1_555
C7 C15 1_555 1_555
C9 C10 1_555 1_555
C10 C11 1_555 1_555
C14 C15 1_555 1_555
C18 C19 1_555 1_555

#END
