
#######################################################################
#
#                 Cambridge Crystallographic Data Centre
#                                CCDC 
#
#######################################################################
#
# If this CIF has been generated from an entry in the Cambridge 
# Structural Database, then it will include bibliographic, chemical, 
# crystal, experimental, refinement or atomic coordinate data resulting 
# from the CCDC's data processing and validation procedures.
#
#######################################################################

data_PATXIS
_chemical_name_common            
'N-Cyclopropylmethyl-7a-((R)-1-hydroxy-1-methyl-3-(2-thienyl)propyl)-6,14-endoethano-6,7,8,14-tetrahydronororipavine hydrochloride monohydrate'
_chemical_formula_moiety         'C31 H40 N1 O4 S1 1+,Cl1 1-,H2 O1'
_chemical_name_systematic        
'N-Cyclopropylmethyl-7\a-((R)-1-hydroxy-1-methyl-3-(2-thienyl)propyl)-6,14-endoethano-6,7,8,14-tetrahydrodemethylthebaine hydrochloride monohydrate'
_chemical_properties_biological  
'mixed agonist and antagonist opioid receptor activities'
_symmetry_cell_setting           orthorhombic
_symmetry_space_group_name_H-M   'P 21 21 21'
_symmetry_Int_Tables_number      19
_space_group_name_Hall           'P 2ac 2ab'
loop_
_symmetry_equiv_pos_site_id
_symmetry_equiv_pos_as_xyz
1 x,y,z
2 1/2-x,-y,1/2+z
3 -x,1/2+y,1/2-z
4 1/2+x,1/2-y,-z
_cell_length_a                   10.4168(4)
_cell_length_b                   13.1207(7)
_cell_length_c                   21.1964(9)
_cell_angle_alpha                90
_cell_angle_beta                 90
_cell_angle_gamma                90
_cell_volume                     2897.03
_chemical_melting_point          '255-257 deg.C'
_cell_formula_units_Z            4
loop_
_atom_site_label
_atom_site_type_symbol
_atom_site_fract_x
_atom_site_fract_y
_atom_site_fract_z
Cl1 Cl 0.36294(7) 0.76569(5) 0.98107(3)
S1 S 0.18368(8) 0.61646(6) 1.22870(3)
N1 N 0.2649(2) 0.94589(15) 0.90291(9)
H1 H 0.268(2) 0.8811(19) 0.9359(11)
O1 O 0.16369(16) 1.46353(11) 0.99861(7)
H2 H 0.1440 1.5135 0.9775
O2 O 0.21728(16) 1.26903(12) 1.05164(7)
O3 O 0.09297(17) 1.15097(11) 1.15745(7)
O4 O 0.08714(17) 0.96605(11) 1.21057(6)
H3 H 0.0974 1.0280 1.2115
C1 C 0.1613(2) 1.37963(19) 0.96191(11)
C2 C 0.1261(3) 1.37685(19) 0.89721(11)
H4 H 0.1084 1.4377 0.8765
C3 C 0.1174(3) 1.28613(18) 0.86403(11)
H5 H 0.0872 1.2867 0.8227
C4 C 0.1530(3) 1.19443(17) 0.89147(11)
C5 C 0.1208(3) 1.08929(17) 0.86437(10)
H6 H 0.1759 1.0769 0.8283
H7 H 0.0329 1.0905 0.8492
C6 C 0.1355(3) 0.99884(17) 0.91112(10)
H8 H 0.0679 0.9491 0.9017
C7 C 0.1205(2) 1.03196(16) 0.98110(11)
C8 C 0.1258(2) 0.94747(16) 1.03116(9)
H9 H 0.2016 0.9058 1.0246
H10 H 0.0509 0.9040 1.0273
C9 C 0.1299(3) 0.99575(16) 1.09845(10)
H11 H 0.2196 0.9904 1.1119
C10 C 0.1024(2) 1.11341(18) 1.09339(11)
C11 C 0.2208(2) 1.15722(17) 1.06066(11)
H12 H 0.2978 1.1388 1.0846
C12 C 0.2292(2) 1.11060(19) 0.99349(10)
C13 C 0.1986(2) 1.19903(17) 0.95249(11)
C14 C 0.1954(2) 1.28599(19) 0.98785(11)
C15 C 0.3747(3) 1.01716(18) 0.91583(11)
H13 H 0.3758 1.0709 0.8844
H14 H 0.4552 0.9802 0.9130
C16 C 0.3614(2) 1.06304(16) 0.98044(11)
H15 H 0.4266 1.1151 0.9856
H16 H 0.3775 1.0105 1.0116
C17 C -0.0162(2) 1.13842(17) 1.05450(11)
H17 H -0.0205 1.2114 1.0476
H18 H -0.0924 1.1181 1.0776
C18 C -0.0129(2) 1.08260(17) 0.98993(11)
H19 H -0.0796 1.0311 0.9886
H20 H -0.0284 1.1309 0.9561
C19 C 0.2835(2) 0.89328(18) 0.84012(10)
H21 H 0.2876 0.9443 0.8071
H22 H 0.3646 0.8571 0.8406
C20 C 0.1778(3) 0.8197(2) 0.82537(12)
H23 H 0.1601 0.7689 0.8581
C21 C 0.1644(3) 0.78269(19) 0.75878(11)
H24 H 0.1417 0.7117 0.7523
H25 H 0.2217 0.8111 0.7273
C22 C 0.0639(3) 0.8522(2) 0.78688(12)
H26 H 0.0611 0.9222 0.7722
H27 H -0.0189 0.8228 0.7973
C23 C 0.0366(3) 1.25030(17) 1.16619(11)
H28 H 0.0349 1.2666 1.2103
H29 H -0.0495 1.2502 1.1499
H30 H 0.0867 1.3003 1.1441
C24 C 0.0528(3) 0.93540(18) 1.14775(11)
C25 C -0.0936(2) 0.94644(18) 1.14046(11)
H31 H -0.1163 1.0173 1.1413
H32 H -0.1358 0.9116 1.1745
H33 H -0.1200 0.9172 1.1010
C26 C 0.0832(2) 0.82171(17) 1.14568(11)
H34 H 0.0547 0.7956 1.1052
H35 H 0.0321 0.7884 1.1779
C27 C 0.2238(3) 0.78922(18) 1.15501(12)
H36 H 0.2747 0.8117 1.1193
H37 H 0.2580 0.8211 1.1927
C28 C 0.2327(3) 0.67567(19) 1.16105(12)
C29 C 0.2686(2) 0.60413(16) 1.11324(10)
H38 H 0.2955 0.6202 1.0726
C30 C 0.2556(3) 0.5021(2) 1.13915(12)
H39 H 0.282(2) 0.4503(16) 1.1150(9)
C31 C 0.2128(3) 0.4983(2) 1.19848(13)
H40 H 0.205(2) 0.4422(16) 1.2237(10)
O5 O 0.1065(3) 1.64345(15) 0.94812(10)
H41 H 0.036(3) 1.6692(18) 0.9633(12)
H42 H 0.170(4) 1.683(3) 0.9518(19)
loop_
_geom_bond_atom_site_label_1
_geom_bond_atom_site_label_2
_geom_bond_site_symmetry_1
_geom_bond_site_symmetry_2
S1 C28 1_555 1_555
N1 H1 1_555 1_555
O1 H2 1_555 1_555
O2 C11 1_555 1_555
O3 C10 1_555 1_555
O4 H3 1_555 1_555
C1 O1 1_555 1_555
C2 C1 1_555 1_555
H4 C2 1_555 1_555
C3 C2 1_555 1_555
H5 C3 1_555 1_555
C4 C3 1_555 1_555
C5 C4 1_555 1_555
H6 C5 1_555 1_555
H7 C5 1_555 1_555
C6 N1 1_555 1_555
H8 C6 1_555 1_555
C7 C6 1_555 1_555
C8 C7 1_555 1_555
H9 C8 1_555 1_555
H10 C8 1_555 1_555
C9 C8 1_555 1_555
H11 C9 1_555 1_555
C10 C9 1_555 1_555
C11 C10 1_555 1_555
H12 C11 1_555 1_555
C12 C7 1_555 1_555
C13 C4 1_555 1_555
C14 O2 1_555 1_555
C15 N1 1_555 1_555
H13 C15 1_555 1_555
H14 C15 1_555 1_555
C16 C12 1_555 1_555
H15 C16 1_555 1_555
H16 C16 1_555 1_555
C17 C10 1_555 1_555
H17 C17 1_555 1_555
H18 C17 1_555 1_555
C18 C7 1_555 1_555
H19 C18 1_555 1_555
H20 C18 1_555 1_555
C19 N1 1_555 1_555
H21 C19 1_555 1_555
H22 C19 1_555 1_555
C20 C19 1_555 1_555
H23 C20 1_555 1_555
C21 C20 1_555 1_555
H24 C21 1_555 1_555
H25 C21 1_555 1_555
C22 C20 1_555 1_555
H26 C22 1_555 1_555
H27 C22 1_555 1_555
C23 O3 1_555 1_555
H28 C23 1_555 1_555
H29 C23 1_555 1_555
H30 C23 1_555 1_555
C24 O4 1_555 1_555
C25 C24 1_555 1_555
H31 C25 1_555 1_555
H32 C25 1_555 1_555
H33 C25 1_555 1_555
C26 C24 1_555 1_555
H34 C26 1_555 1_555
H35 C26 1_555 1_555
C27 C26 1_555 1_555
H36 C27 1_555 1_555
H37 C27 1_555 1_555
C28 C27 1_555 1_555
C29 C28 1_555 1_555
H38 C29 1_555 1_555
C30 C29 1_555 1_555
H39 C30 1_555 1_555
C31 S1 1_555 1_555
H40 C31 1_555 1_555
O5 H41 1_555 1_555
H42 O5 1_555 1_555
C1 C14 1_555 1_555
C5 C6 1_555 1_555
C9 C24 1_555 1_555
C11 C12 1_555 1_555
C12 C13 1_555 1_555
C13 C14 1_555 1_555
C15 C16 1_555 1_555
C17 C18 1_555 1_555
C21 C22 1_555 1_555
C30 C31 1_555 1_555

#END
