
#######################################################################
#
#                 Cambridge Crystallographic Data Centre
#                                CCDC 
#
#######################################################################
#
# If this CIF has been generated from an entry in the Cambridge 
# Structural Database, then it will include bibliographic, chemical, 
# crystal, experimental, refinement or atomic coordinate data resulting 
# from the CCDC's data processing and validation procedures.
#
#######################################################################

data_PATZES
_chemical_name_common            
'3-((benzyloxy)carbonyl)-11-bromo-1-ethyl-9-oxo-8-oxa-3-azatricyclo[5.2.2.0$2,6!]undec-10-ene-4-carboxylic acid'
_chemical_formula_moiety         'C20 H20 Br1 N1 O6'
_chemical_name_systematic        
'(2S,3aR,4R,7R,7aS)-1-((benzyloxy)carbonyl)-5-bromo-7-ethyl-8-oxo-2,3,3a,4,7,7a-hexahydro-1H-4,7-(epoxymethano)indole-2-carboxylic acid'
_symmetry_cell_setting           monoclinic
_symmetry_space_group_name_H-M   'P 21'
_symmetry_Int_Tables_number      4
_space_group_name_Hall           'P 2yb'
loop_
_symmetry_equiv_pos_site_id
_symmetry_equiv_pos_as_xyz
1 x,y,z
2 -x,1/2+y,-z
_cell_length_a                   9.2873(4)
_cell_length_b                   11.4628(4)
_cell_length_c                   9.2961(4)
_cell_angle_alpha                90
_cell_angle_beta                 98.9100(10)
_cell_angle_gamma                90
_cell_volume                     977.706
_exptl_crystal_colour            colorless
_exptl_crystal_description       block
_chemical_melting_point          '189-191 deg.C'
_cell_formula_units_Z            2
loop_
_atom_site_label
_atom_site_type_symbol
_atom_site_fract_x
_atom_site_fract_y
_atom_site_fract_z
Br1 Br 0.52279(4) 0.52958(5) 0.98850(4)
O1 O 1.2472(2) 0.71617(18) 0.6588(2)
O2 O 1.1812(2) 0.7772(2) 0.8704(2)
O3 O 0.9650(2) 0.69976(17) 0.33735(18)
H1 H 0.9560 0.7587 0.2868
O4 O 0.9780(2) 0.82748(17) 0.5194(2)
O5 O 1.0677(2) 0.36709(16) 0.86942(19)
O6 O 0.8358(2) 0.40208(14) 0.79257(18)
N1 N 1.0434(2) 0.64583(18) 0.7240(2)
C1 C 1.5501(4) 0.8751(4) 0.5403(5)
H2 H 1.5762 0.9277 0.6159
C2 C 1.6243(4) 0.8757(5) 0.4206(6)
H3 H 1.6989 0.9292 0.4170
C3 C 1.5892(5) 0.8000(5) 0.3113(6)
H4 H 1.6405 0.7993 0.2329
C4 C 1.4787(6) 0.7249(4) 0.3163(6)
H5 H 1.4529 0.6732 0.2394
C5 C 1.4025(5) 0.7224(4) 0.4326(5)
H6 H 1.3264 0.6698 0.4330
C6 C 1.4388(3) 0.7972(3) 0.5472(4)
C7 C 1.3621(4) 0.8003(3) 0.6779(4)
H7 H 1.4304 0.7824 0.7651
H8 H 1.3225 0.8775 0.6888
C8 C 1.1586(3) 0.7198(2) 0.7614(3)
C9 C 0.9904(3) 0.6201(2) 0.5697(3)
H9 H 1.0549 0.5634 0.5330
C10 C 0.8397(3) 0.5669(2) 0.5683(3)
H10 H 0.8437 0.4828 0.5582
H11 H 0.7714 0.5979 0.4879
C11 C 0.7928(3) 0.6000(2) 0.7151(3)
H12 H 0.7222 0.6642 0.7014
C12 C 0.7279(3) 0.4949(2) 0.7854(3)
H13 H 0.6346 0.4709 0.7290
C13 C 0.7119(3) 0.5266(3) 0.9377(3)
C14 C 0.8319(3) 0.5520(2) 1.0226(3)
H14 H 0.8360 0.5711 1.1203
C15 C 0.9660(3) 0.5475(2) 0.9467(2)
C16 C 0.9311(3) 0.6382(2) 0.8167(3)
H15 H 0.9154 0.7156 0.8564
C17 C 0.9641(3) 0.4304(2) 0.8701(2)
C18 C 1.1090(3) 0.5702(2) 1.0483(3)
H16 H 1.1886 0.5660 0.9922
H17 H 1.1070 0.6489 1.0865
C19 C 1.1392(4) 0.4859(3) 1.1751(3)
H18 H 1.2306 0.5052 1.2334
H19 H 1.1435 0.4078 1.1386
H20 H 1.0627 0.4913 1.2333
C20 C 0.9787(3) 0.7295(2) 0.4765(3)
loop_
_geom_bond_atom_site_label_1
_geom_bond_atom_site_label_2
_geom_bond_site_symmetry_1
_geom_bond_site_symmetry_2
Br1 C13 1_555 1_555
O1 C7 1_555 1_555
O2 C8 1_555 1_555
O3 H1 1_555 1_555
O4 C20 1_555 1_555
O5 C17 1_555 1_555
O6 C12 1_555 1_555
N1 C8 1_555 1_555
C1 H2 1_555 1_555
C2 C1 1_555 1_555
H3 C2 1_555 1_555
C3 C2 1_555 1_555
H4 C3 1_555 1_555
C4 C3 1_555 1_555
H5 C4 1_555 1_555
C5 C4 1_555 1_555
H6 C5 1_555 1_555
C6 C1 1_555 1_555
C7 C6 1_555 1_555
H7 C7 1_555 1_555
H8 C7 1_555 1_555
C8 O1 1_555 1_555
C9 N1 1_555 1_555
H9 C9 1_555 1_555
C10 C9 1_555 1_555
H10 C10 1_555 1_555
H11 C10 1_555 1_555
C11 C10 1_555 1_555
H12 C11 1_555 1_555
C12 C11 1_555 1_555
H13 C12 1_555 1_555
C13 C12 1_555 1_555
C14 C13 1_555 1_555
H14 C14 1_555 1_555
C15 C14 1_555 1_555
C16 N1 1_555 1_555
H15 C16 1_555 1_555
C17 O6 1_555 1_555
C18 C15 1_555 1_555
H16 C18 1_555 1_555
H17 C18 1_555 1_555
C19 C18 1_555 1_555
H18 C19 1_555 1_555
H19 C19 1_555 1_555
H20 C19 1_555 1_555
C20 O3 1_555 1_555
C5 C6 1_555 1_555
C9 C20 1_555 1_555
C11 C16 1_555 1_555
C15 C16 1_555 1_555
C15 C17 1_555 1_555

#END
