
#######################################################################
#
#                 Cambridge Crystallographic Data Centre
#                                CCDC 
#
#######################################################################
#
# If this CIF has been generated from an entry in the Cambridge 
# Structural Database, then it will include bibliographic, chemical, 
# crystal, experimental, refinement or atomic coordinate data resulting 
# from the CCDC's data processing and validation procedures.
#
#######################################################################

data_PAVBAS
_chemical_formula_moiety         'C18 H15 N1 O2'
_chemical_name_systematic        3,4-bis(4-methylphenyl)-1H-pyrrole-2,5-dione
_symmetry_cell_setting           triclinic
_symmetry_space_group_name_H-M   'P -1'
_symmetry_Int_Tables_number      2
_space_group_name_Hall           '-P 1'
loop_
_symmetry_equiv_pos_site_id
_symmetry_equiv_pos_as_xyz
1 x,y,z
2 -x,-y,-z
_cell_length_a                   10.8587(4)
_cell_length_b                   11.8492(4)
_cell_length_c                   12.7173(5)
_cell_angle_alpha                69.065(4)
_cell_angle_beta                 81.847(3)
_cell_angle_gamma                72.045(3)
_cell_volume                     1452.93
_exptl_crystal_colour            colorless
_exptl_crystal_description       prism
_cell_formula_units_Z            4
loop_
_atom_site_label
_atom_site_type_symbol
_atom_site_fract_x
_atom_site_fract_y
_atom_site_fract_z
O1 O 0.71655(13) 0.37156(12) 0.02321(12)
O2 O 0.44418(15) 0.61570(12) 0.21184(13)
N1 N 0.58831(15) 0.52060(13) 0.09838(12)
H1 H 0.6174 0.5831 0.0579
C1 C 0.62994(16) 0.40333(15) 0.08774(14)
C2 C 0.57785(15) 0.19131(15) 0.18181(14)
C3 C 0.46793(16) 0.39657(15) 0.22694(13)
C4 C 0.49345(17) 0.52482(15) 0.18262(15)
C5 C 0.36596(16) 0.36771(16) 0.31333(14)
C6 C 0.55148(16) 0.32430(15) 0.17104(13)
C7 C 0.31453(17) 0.26968(17) 0.32506(15)
H2 H 0.3450 0.2219 0.2777
C8 C 0.21885(18) 0.24211(19) 0.40607(17)
H3 H 0.1866 0.1757 0.4123
C9 C 0.31624(19) 0.43784(18) 0.38549(17)
H4 H 0.3482 0.5044 0.3795
C10 C 0.63411(18) -0.06444(16) 0.20304(17)
C11 C 0.60232(18) 0.09690(16) 0.28685(15)
H5 H 0.6002 0.1183 0.3508
C12 C 0.6104(2) 0.02989(18) 0.09905(17)
H6 H 0.6120 0.0081 0.0354
C13 C 0.5843(2) 0.15602(17) 0.08763(15)
H7 H 0.5712 0.2171 0.0166
C14 C 0.16978(18) 0.3113(2) 0.47829(16)
C15 C 0.62973(19) -0.02864(16) 0.29618(16)
H8 H 0.6455 -0.0902 0.3667
C16 C 0.2196(2) 0.4094(2) 0.46626(17)
H9 H 0.1878 0.4576 0.5132
C17 C 0.6661(3) -0.2007(2) 0.2126(2)
H10 H 0.5999 -0.2129 0.1786
H11 H 0.6708 -0.2521 0.2907
H12 H 0.7480 -0.2241 0.1748
C18 C 0.0645(2) 0.2814(3) 0.5661(2)
H13 H -0.0131 0.2958 0.5295
H14 H 0.0477 0.3346 0.6114
H15 H 0.0920 0.1949 0.6131
O3 O 0.24430(16) 0.32392(15) 0.02129(14)
O4 O -0.03301(17) 0.55737(15) 0.21880(18)
N2 N 0.11546(17) 0.46904(15) 0.10177(15)
H16 H 0.1489 0.5302 0.0673
C19 C -0.11399(17) 0.31588(16) 0.30424(15)
C20 C 0.07996(17) 0.15279(16) 0.15558(15)
C21 C 0.06688(17) 0.27913(16) 0.15659(15)
C22 C 0.15411(18) 0.35550(17) 0.08420(16)
C23 C -0.01579(17) 0.34825(15) 0.21513(15)
C24 C 0.1023(2) -0.09128(17) 0.15739(16)
C25 C -0.22068(19) 0.40955(18) 0.32345(17)
H17 H -0.2309 0.4930 0.2783
C26 C 0.20039(18) 0.06390(19) 0.16357(18)
H18 H 0.2746 0.0854 0.1677
C27 C 0.01541(19) 0.47235(17) 0.18242(18)
C28 C 0.21034(19) -0.05612(18) 0.16547(17)
H19 H 0.2914 -0.1146 0.1723
C29 C -0.2993(2) 0.2565(2) 0.47954(18)
C30 C -0.02895(18) 0.11792(18) 0.14679(19)
H20 H -0.1103 0.1759 0.1403
C31 C -0.0167(2) -0.0021(2) 0.1476(2)
H21 H -0.0904 -0.0233 0.1415
C32 C -0.10080(19) 0.19240(19) 0.37533(18)
H22 H -0.0301 0.1284 0.3651
C33 C -0.1920(2) 0.1640(2) 0.46109(19)
H23 H -0.1812 0.0809 0.5075
C34 C -0.3115(2) 0.3791(2) 0.40917(19)
H24 H -0.3824 0.4428 0.4196
C35 C 0.1145(3) -0.2213(2) 0.1579(2)
H25 H 0.1675 -0.2355 0.0942
H26 H 0.0302 -0.2293 0.1538
H27 H 0.1538 -0.2822 0.2260
C36 C -0.3996(3) 0.2251(3) 0.5707(2)
H28 H -0.4826 0.2519 0.5379
H29 H -0.4035 0.2674 0.6234
H30 H -0.3770 0.1358 0.6090
loop_
_geom_bond_atom_site_label_1
_geom_bond_atom_site_label_2
_geom_bond_site_symmetry_1
_geom_bond_site_symmetry_2
O1 C1 1_555 1_555
O2 C4 1_555 1_555
N1 H1 1_555 1_555
C1 N1 1_555 1_555
C2 C6 1_555 1_555
C3 C4 1_555 1_555
C4 N1 1_555 1_555
C5 C3 1_555 1_555
C6 C1 1_555 1_555
C7 C5 1_555 1_555
H2 C7 1_555 1_555
C8 C7 1_555 1_555
H3 C8 1_555 1_555
C9 C5 1_555 1_555
H4 C9 1_555 1_555
C10 C12 1_555 1_555
C11 C2 1_555 1_555
H5 C11 1_555 1_555
C12 H6 1_555 1_555
C13 C2 1_555 1_555
H7 C13 1_555 1_555
C14 C8 1_555 1_555
C15 C10 1_555 1_555
H8 C15 1_555 1_555
C16 C9 1_555 1_555
H9 C16 1_555 1_555
C17 C10 1_555 1_555
H10 C17 1_555 1_555
H11 C17 1_555 1_555
H12 C17 1_555 1_555
C18 C14 1_555 1_555
H13 C18 1_555 1_555
H14 C18 1_555 1_555
H15 C18 1_555 1_555
O3 C22 1_555 1_555
O4 C27 1_555 1_555
N2 H16 1_555 1_555
C19 C23 1_555 1_555
C20 C21 1_555 1_555
C21 C22 1_555 1_555
C22 N2 1_555 1_555
C23 C21 1_555 1_555
C24 C28 1_555 1_555
C25 C19 1_555 1_555
H17 C25 1_555 1_555
C26 C20 1_555 1_555
H18 C26 1_555 1_555
C27 N2 1_555 1_555
C28 C26 1_555 1_555
H19 C28 1_555 1_555
C29 C33 1_555 1_555
C30 C20 1_555 1_555
H20 C30 1_555 1_555
C31 C24 1_555 1_555
H21 C31 1_555 1_555
C32 C19 1_555 1_555
H22 C32 1_555 1_555
C33 C32 1_555 1_555
H23 C33 1_555 1_555
C34 C25 1_555 1_555
H24 C34 1_555 1_555
C35 C24 1_555 1_555
H25 C35 1_555 1_555
H26 C35 1_555 1_555
H27 C35 1_555 1_555
C36 C29 1_555 1_555
H28 C36 1_555 1_555
H29 C36 1_555 1_555
H30 C36 1_555 1_555
C3 C6 1_555 1_555
C11 C15 1_555 1_555
C12 C13 1_555 1_555
C14 C16 1_555 1_555
C23 C27 1_555 1_555
C29 C34 1_555 1_555
C30 C31 1_555 1_555

#END
