
#######################################################################
#
#                 Cambridge Crystallographic Data Centre
#                                CCDC 
#
#######################################################################
#
# If this CIF has been generated from an entry in the Cambridge 
# Structural Database, then it will include bibliographic, chemical, 
# crystal, experimental, refinement or atomic coordinate data resulting 
# from the CCDC's data processing and validation procedures.
#
#######################################################################

data_PAVBEW
_chemical_name_common            2,3-bis(4-fluorophenyl)maleimide
_chemical_formula_moiety         'C16 H9 F2 N1 O2'
_chemical_name_systematic        3,4-bis(4-fluorophenyl)-1H-pyrrole-2,5-dione
_symmetry_cell_setting           monoclinic
_symmetry_space_group_name_H-M   'P 21/c'
_symmetry_Int_Tables_number      14
_space_group_name_Hall           '-P 2ybc'
loop_
_symmetry_equiv_pos_site_id
_symmetry_equiv_pos_as_xyz
1 x,y,z
2 -x,1/2+y,1/2-z
3 -x,-y,-z
4 x,1/2-y,1/2+z
_cell_length_a                   10.1015(6)
_cell_length_b                   21.6426(11)
_cell_length_c                   11.7949(7)
_cell_angle_alpha                90
_cell_angle_beta                 97.996(5)
_cell_angle_gamma                90
_cell_volume                     2553.56
_exptl_crystal_colour            colorless
_exptl_crystal_description       prism
_cell_formula_units_Z            8
loop_
_atom_site_label
_atom_site_type_symbol
_atom_site_fract_x
_atom_site_fract_y
_atom_site_fract_z
F1 F -0.13518(10) 0.46970(5) 0.17013(10)
F2 F 0.53311(12) 0.58821(5) -0.12479(9)
O1 O 0.69342(12) 0.60078(6) 0.42015(10)
O2 O 0.32441(12) 0.55286(6) 0.58550(10)
N1 N 0.52697(15) 0.58076(6) 0.53154(12)
H1 H 0.5712 0.5872 0.5982
C1 C 0.39385(18) 0.56275(7) 0.51193(15)
C2 C 0.48776(17) 0.57949(7) 0.21522(15)
C3 C 0.35788(17) 0.55748(7) 0.38331(14)
C4 C 0.57900(18) 0.58704(7) 0.43005(15)
C5 C 0.46747(17) 0.57330(7) 0.33588(15)
C6 C 0.22686(17) 0.53510(7) 0.32854(14)
C7 C 0.21761(18) 0.50306(8) 0.22455(14)
H2 H 0.2945 0.4958 0.1913
C8 C 0.39669(18) 0.61261(8) 0.13842(15)
H3 H 0.3251 0.6324 0.1646
C9 C 0.59751(18) 0.55191(8) 0.17621(15)
H4 H 0.6603 0.5309 0.2273
C10 C -0.01612(18) 0.49195(8) 0.22298(16)
C11 C 0.09551(18) 0.48200(8) 0.17065(15)
H5 H 0.0891 0.4616 0.1007
C12 C 0.41182(18) 0.61629(8) 0.02390(15)
H6 H 0.3510 0.6381 -0.0276
C13 C 0.51964(19) 0.58671(8) -0.01171(15)
C14 C 0.61361(18) 0.55559(8) 0.06165(16)
H7 H 0.6868 0.5373 0.0351
C15 C 0.11033(18) 0.54426(8) 0.37793(16)
H8 H 0.1151 0.5652 0.4472
C16 C -0.01221(18) 0.52262(8) 0.32531(16)
H9 H -0.0896 0.5287 0.3584
F3 F 0.52913(10) 0.78620(5) 0.90775(10)
F4 F -0.14490(12) 0.68438(5) 1.26073(9)
O3 O -0.30095(12) 0.64090(6) 0.72232(10)
O4 O 0.07175(12) 0.66037(6) 0.54953(10)
N2 N -0.13116(14) 0.64228(7) 0.61107(12)
H10 H -0.1744 0.6281 0.5485
C17 C -0.18471(17) 0.64997(7) 0.71084(15)
C18 C 0.00112(17) 0.66023(7) 0.62420(15)
C19 C 0.16746(17) 0.70639(7) 0.78976(14)
C20 C 0.03634(17) 0.67956(7) 0.74761(14)
C21 C -0.09058(17) 0.67703(7) 0.92163(15)
C22 C 0.17617(17) 0.75339(8) 0.87181(15)
H11 H 0.0993 0.7668 0.8995
C23 C -0.07263(17) 0.67144(7) 0.79997(14)
C24 C 0.28340(17) 0.68734(8) 0.74715(15)
H12 H 0.2785 0.6561 0.6926
C25 C 0.40561(18) 0.71471(8) 0.78570(16)
H13 H 0.4829 0.7027 0.7570
C26 C 0.40911(17) 0.76002(8) 0.86754(16)
C27 C -0.20591(18) 0.70310(8) 0.95356(16)
H14 H -0.2713 0.7188 0.8977
C28 C 0.00587(18) 0.65327(8) 1.00708(15)
H15 H 0.0830 0.6355 0.9868
C29 C 0.29802(18) 0.78007(8) 0.91214(15)
H16 H 0.3046 0.8107 0.9679
C30 C -0.01156(19) 0.65576(8) 1.12106(16)
H17 H 0.0531 0.6401 1.1776
C31 C -0.1271(2) 0.68200(8) 1.14894(15)
C32 C -0.22409(19) 0.70580(9) 1.06796(16)
H18 H -0.3008 0.7235 1.0893
loop_
_geom_bond_atom_site_label_1
_geom_bond_atom_site_label_2
_geom_bond_site_symmetry_1
_geom_bond_site_symmetry_2
F1 C10 1_555 1_555
F2 C13 1_555 1_555
O1 C4 1_555 1_555
O2 C1 1_555 1_555
N1 H1 1_555 1_555
C1 N1 1_555 1_555
C2 C5 1_555 1_555
C3 C1 1_555 1_555
C4 N1 1_555 1_555
C5 C3 1_555 1_555
C6 C3 1_555 1_555
C7 C6 1_555 1_555
H2 C7 1_555 1_555
C8 C2 1_555 1_555
H3 C8 1_555 1_555
C9 C2 1_555 1_555
H4 C9 1_555 1_555
C10 C11 1_555 1_555
C11 C7 1_555 1_555
H5 C11 1_555 1_555
C12 C8 1_555 1_555
H6 C12 1_555 1_555
C13 C12 1_555 1_555
C14 C9 1_555 1_555
H7 C14 1_555 1_555
C15 C6 1_555 1_555
H8 C15 1_555 1_555
C16 C10 1_555 1_555
H9 C16 1_555 1_555
F3 C26 1_555 1_555
F4 C31 1_555 1_555
O3 C17 1_555 1_555
O4 C18 1_555 1_555
N2 H10 1_555 1_555
C17 N2 1_555 1_555
C18 N2 1_555 1_555
C19 C20 1_555 1_555
C20 C18 1_555 1_555
C21 C23 1_555 1_555
C22 C19 1_555 1_555
H11 C22 1_555 1_555
C23 C17 1_555 1_555
C24 C19 1_555 1_555
H12 C24 1_555 1_555
C25 C24 1_555 1_555
H13 C25 1_555 1_555
C26 C25 1_555 1_555
C27 C21 1_555 1_555
H14 C27 1_555 1_555
C28 C21 1_555 1_555
H15 C28 1_555 1_555
C29 C22 1_555 1_555
H16 C29 1_555 1_555
C30 C28 1_555 1_555
H17 C30 1_555 1_555
C31 C30 1_555 1_555
C32 C27 1_555 1_555
H18 C32 1_555 1_555
C4 C5 1_555 1_555
C13 C14 1_555 1_555
C15 C16 1_555 1_555
C20 C23 1_555 1_555
C26 C29 1_555 1_555
C31 C32 1_555 1_555

#END
