
#######################################################################
#
#                 Cambridge Crystallographic Data Centre
#                                CCDC 
#
#######################################################################
#
# If this CIF has been generated from an entry in the Cambridge 
# Structural Database, then it will include bibliographic, chemical, 
# crystal, experimental, refinement or atomic coordinate data resulting 
# from the CCDC's data processing and validation procedures.
#
#######################################################################

data_PAVCOH
_chemical_formula_moiety         'C33 H17 N3 O1'
_chemical_name_systematic        
spiro[fluorene-9,9'-quinolino[3,2,1-kl]phenoxazine]-2,7-dicarbonitrile
_symmetry_cell_setting           monoclinic
_symmetry_space_group_name_H-M   'C 2/c'
_symmetry_Int_Tables_number      15
_space_group_name_Hall           '-C 2yn'
loop_
_symmetry_equiv_pos_site_id
_symmetry_equiv_pos_as_xyz
1 x,y,z
2 -x,y,1/2-z
3 1/2+x,1/2+y,z
4 1/2-x,1/2+y,1/2-z
5 -x,-y,-z
6 x,-y,1/2+z
7 1/2-x,1/2-y,-z
8 1/2+x,1/2-y,1/2+z
_cell_length_a                   8.423(5)
_cell_length_b                   20.457(10)
_cell_length_c                   28.733(15)
_cell_angle_alpha                90
_cell_angle_beta                 91.783(17)
_cell_angle_gamma                90
_cell_volume                     4948.57
_exptl_crystal_colour            green
_exptl_crystal_description       block
_cell_formula_units_Z            8
loop_
_atom_site_label
_atom_site_type_symbol
_atom_site_fract_x
_atom_site_fract_y
_atom_site_fract_z
O1 O 0.6024(3) 0.36596(11) 0.49916(8)
N1 N 0.7531(6) 0.2979(2) 0.25911(15)
N2 N 0.3172(5) 0.81160(16) 0.40325(14)
N3 N 0.4280(3) 0.40814(11) 0.42112(9)
C1 C 0.3703(7) 0.2283(2) 0.4170(2)
H1 H 0.3209 0.1965 0.3985
C2 C 0.4536(7) 0.2110(2) 0.4570(2)
H2 H 0.4574 0.1673 0.4660
C3 C 0.5306(5) 0.25678(19) 0.48386(18)
H3 H 0.5894 0.2446 0.5104
C4 C 0.3607(5) 0.29378(17) 0.40433(17)
H4 H 0.3070 0.3059 0.3769
C5 C 0.7262(5) 0.3501(2) 0.27013(14)
C6 C 0.7191(4) 0.5299(2) 0.26401(12)
H5 H 0.7540 0.5631 0.2447
C7 C 0.7493(4) 0.4655(2) 0.25355(12)
H6 H 0.8049 0.4547 0.2272
C8 C 0.5349(4) 0.72247(17) 0.32602(13)
H7 H 0.5451 0.7645 0.3142
C9 C 0.5195(4) 0.32099(17) 0.47094(13)
C10 C 0.6957(4) 0.41714(17) 0.28274(12)
C11 C 0.6132(4) 0.43094(16) 0.32286(11)
H8 H 0.5794 0.3975 0.3421
C12 C 0.6030(4) 0.67056(17) 0.30347(12)
H9 H 0.6594 0.6771 0.2765
C13 C 0.4510(4) 0.71240(15) 0.36638(12)
C14 C 0.5854(4) 0.60787(15) 0.32193(11)
C15 C 0.4314(4) 0.34106(15) 0.43276(13)
C16 C 0.3772(5) 0.76745(17) 0.38753(14)
C17 C 0.6359(4) 0.54496(16) 0.30385(10)
C18 C 0.4372(4) 0.64975(14) 0.38588(11)
H10 H 0.3844 0.6434 0.4135
C19 C 0.5827(4) 0.49554(15) 0.33320(10)
C20 C 0.5044(4) 0.59783(14) 0.36284(10)
C21 C 0.0163(4) 0.45132(18) 0.38327(13)
H11 H -0.0864 0.4352 0.3854
C22 C 0.7851(4) 0.52463(16) 0.48105(12)
H12 H 0.8631 0.5510 0.4949
C23 C 0.4969(3) 0.52526(13) 0.37514(10)
C24 C 0.1425(4) 0.41633(16) 0.40181(12)
H13 H 0.1245 0.3763 0.4161
C25 C 0.7534(4) 0.46383(16) 0.49968(11)
H14 H 0.8102 0.4489 0.5258
C26 C 0.5529(3) 0.44740(14) 0.43982(10)
C27 C 0.0415(4) 0.51025(17) 0.36150(12)
H15 H -0.0436 0.5335 0.3484
C28 C 0.7015(4) 0.54627(15) 0.44195(11)
H16 H 0.7231 0.5874 0.4298
C29 C 0.6366(4) 0.42590(14) 0.47889(10)
C30 C 0.5859(4) 0.50761(14) 0.42056(10)
C31 C 0.3249(4) 0.50004(13) 0.37746(9)
C32 C 0.2978(4) 0.44029(14) 0.39937(10)
C33 C 0.1949(4) 0.53460(15) 0.35922(11)
H17 H 0.2112 0.5749 0.3452
loop_
_geom_bond_atom_site_label_1
_geom_bond_atom_site_label_2
_geom_bond_site_symmetry_1
_geom_bond_site_symmetry_2
O1 C9 1_555 1_555
N1 C5 1_555 1_555
N2 C16 1_555 1_555
N3 C15 1_555 1_555
C1 H1 1_555 1_555
C2 C1 1_555 1_555
H2 C2 1_555 1_555
C3 C2 1_555 1_555
H3 C3 1_555 1_555
C4 C1 1_555 1_555
H4 C4 1_555 1_555
C5 C10 1_555 1_555
C6 H5 1_555 1_555
C7 C6 1_555 1_555
H6 C7 1_555 1_555
C8 H7 1_555 1_555
C9 C3 1_555 1_555
C10 C7 1_555 1_555
C11 C10 1_555 1_555
H8 C11 1_555 1_555
C12 C8 1_555 1_555
H9 C12 1_555 1_555
C13 C8 1_555 1_555
C14 C12 1_555 1_555
C15 C4 1_555 1_555
C16 C13 1_555 1_555
C17 C6 1_555 1_555
C18 C13 1_555 1_555
H10 C18 1_555 1_555
C19 C11 1_555 1_555
C20 C14 1_555 1_555
C21 H11 1_555 1_555
C22 H12 1_555 1_555
C23 C19 1_555 1_555
C24 C21 1_555 1_555
H13 C24 1_555 1_555
C25 C22 1_555 1_555
H14 C25 1_555 1_555
C26 N3 1_555 1_555
C27 C21 1_555 1_555
H15 C27 1_555 1_555
C28 C22 1_555 1_555
H16 C28 1_555 1_555
C29 O1 1_555 1_555
C30 C23 1_555 1_555
C31 C23 1_555 1_555
C32 N3 1_555 1_555
C33 C27 1_555 1_555
H17 C33 1_555 1_555
C9 C15 1_555 1_555
C14 C17 1_555 1_555
C17 C19 1_555 1_555
C18 C20 1_555 1_555
C20 C23 1_555 1_555
C24 C32 1_555 1_555
C25 C29 1_555 1_555
C26 C29 1_555 1_555
C26 C30 1_555 1_555
C28 C30 1_555 1_555
C31 C32 1_555 1_555
C31 C33 1_555 1_555

#END
