
#######################################################################
#
#                 Cambridge Crystallographic Data Centre
#                                CCDC 
#
#######################################################################
#
# If this CIF has been generated from an entry in the Cambridge 
# Structural Database, then it will include bibliographic, chemical, 
# crystal, experimental, refinement or atomic coordinate data resulting 
# from the CCDC's data processing and validation procedures.
#
#######################################################################

data_PAVCEX
_chemical_formula_moiety         'C16 H14 N2'
_chemical_name_systematic        
(E)-1-(1H-indol-1-yl)-N-(4-methylphenyl)methanimine
_symmetry_cell_setting           monoclinic
_symmetry_space_group_name_H-M   'P 21/c'
_symmetry_Int_Tables_number      14
_space_group_name_Hall           '-P 2ybc'
loop_
_symmetry_equiv_pos_site_id
_symmetry_equiv_pos_as_xyz
1 x,y,z
2 -x,1/2+y,1/2-z
3 -x,-y,-z
4 x,1/2-y,1/2+z
_cell_length_a                   11.3407(15)
_cell_length_b                   9.2307(14)
_cell_length_c                   12.6634(17)
_cell_angle_alpha                90
_cell_angle_beta                 109.296(6)
_cell_angle_gamma                90
_cell_volume                     1251.17
_exptl_crystal_colour            orange
_exptl_crystal_description       Block
_cell_formula_units_Z            4
loop_
_atom_site_label
_atom_site_type_symbol
_atom_site_fract_x
_atom_site_fract_y
_atom_site_fract_z
N1 N 0.37909(12) 0.09426(14) 0.21454(11)
N2 N 0.49167(12) 0.17904(15) 0.10501(11)
C1 C 0.47342(15) 0.08248(18) 0.16846(13)
H1 H 0.5254 0.0004 0.1848
C2 C 0.59188(14) 0.16603(18) 0.06201(13)
C3 C 0.58560(16) 0.2522(2) -0.02869(14)
H2 H 0.5155 0.3117 -0.0601
C4 C 0.68086(16) 0.2522(2) -0.07405(14)
H3 H 0.6740 0.3113 -0.1362
C5 C 0.36574(17) -0.00096(19) 0.29481(14)
H4 H 0.4175 -0.0812 0.3232
C6 C 0.78588(15) 0.16739(19) -0.03018(14)
C7 C 0.26791(17) 0.0385(2) 0.32586(15)
H5 H 0.2404 -0.0081 0.3795
C8 C 0.28428(14) 0.19783(18) 0.19322(13)
C9 C 0.69671(16) 0.0806(2) 0.10679(15)
H6 H 0.7036 0.0214 0.1689
C10 C 0.79157(17) 0.0818(2) 0.06066(16)
H7 H 0.8619 0.0226 0.0921
C11 C 0.25454(16) 0.31300(19) 0.11837(15)
H8 H 0.3029 0.3346 0.0728
C12 C 0.89019(17) 0.1677(2) -0.07915(16)
H9 H 0.9009 0.0708 -0.1042
H10 H 0.9670 0.1987 -0.0226
H11 H 0.8698 0.2339 -0.1422
C13 C 0.21321(16) 0.1640(2) 0.26251(14)
C14 C 0.07944(17) 0.3632(2) 0.18160(18)
H12 H 0.0096 0.4210 0.1767
C15 C 0.15086(17) 0.3943(2) 0.11392(17)
H13 H 0.1280 0.4726 0.0639
C16 C 0.10923(17) 0.2493(2) 0.25548(18)
H14 H 0.0602 0.2291 0.3008
loop_
_geom_bond_atom_site_label_1
_geom_bond_atom_site_label_2
_geom_bond_site_symmetry_1
_geom_bond_site_symmetry_2
N1 C1 1_555 1_555
N2 C1 1_555 1_555
C1 H1 1_555 1_555
C2 N2 1_555 1_555
C3 C2 1_555 1_555
H2 C3 1_555 1_555
C4 C3 1_555 1_555
H3 C4 1_555 1_555
C5 N1 1_555 1_555
H4 C5 1_555 1_555
C6 C4 1_555 1_555
C7 C5 1_555 1_555
H5 C7 1_555 1_555
C8 N1 1_555 1_555
C9 C2 1_555 1_555
H6 C9 1_555 1_555
C10 C6 1_555 1_555
H7 C10 1_555 1_555
C11 C8 1_555 1_555
H8 C11 1_555 1_555
C12 C6 1_555 1_555
H9 C12 1_555 1_555
H10 C12 1_555 1_555
H11 C12 1_555 1_555
C13 C7 1_555 1_555
C14 H12 1_555 1_555
C15 C11 1_555 1_555
H13 C15 1_555 1_555
C16 C13 1_555 1_555
H14 C16 1_555 1_555
C8 C13 1_555 1_555
C9 C10 1_555 1_555
C14 C15 1_555 1_555
C14 C16 1_555 1_555

#END
