
#######################################################################
#
#                 Cambridge Crystallographic Data Centre
#                                CCDC 
#
#######################################################################
#
# If this CIF has been generated from an entry in the Cambridge 
# Structural Database, then it will include bibliographic, chemical, 
# crystal, experimental, refinement or atomic coordinate data resulting 
# from the CCDC's data processing and validation procedures.
#
#######################################################################

data_PAVDAT
_chemical_formula_moiety         'C15 H17 N2 O1 1+,Br1 1-'
_chemical_name_systematic        
'5-Carbamoyl-2-methyl-1-(2-methylbenzyl)pyridinium bromide'
_symmetry_cell_setting           monoclinic
_symmetry_space_group_name_H-M   'C 2/c'
_symmetry_Int_Tables_number      15
_space_group_name_Hall           '-C 2yn'
loop_
_symmetry_equiv_pos_site_id
_symmetry_equiv_pos_as_xyz
1 x,y,z
2 -x,y,1/2-z
3 1/2+x,1/2+y,z
4 1/2-x,1/2+y,1/2-z
5 -x,-y,-z
6 x,-y,1/2+z
7 1/2-x,1/2-y,-z
8 1/2+x,1/2-y,1/2+z
_cell_length_a                   8.4880(17)
_cell_length_b                   10.502(2)
_cell_length_c                   33.450(7)
_cell_angle_alpha                90
_cell_angle_beta                 96.85(3)
_cell_angle_gamma                90
_cell_volume                     2960.48
_exptl_crystal_colour            colorless
_exptl_crystal_description       block
_cell_formula_units_Z            8
loop_
_atom_site_label
_atom_site_type_symbol
_atom_site_fract_x
_atom_site_fract_y
_atom_site_fract_z
Br1 Br 0.01684(4) 0.38708(4) 0.349683(12)
N1 N 0.2074(3) 0.3760(3) 0.26330(9)
H1 H 0.1599 0.4033 0.2830
H2 H 0.2111 0.2957 0.2585
N2 N 0.4953(3) 0.4466(3) 0.15096(8)
O1 O 0.2735(4) 0.5725(3) 0.24558(9)
C1 C 0.2742(4) 0.4572(4) 0.24056(11)
C2 C 0.3589(4) 0.4032(3) 0.20721(10)
C3 C 0.3794(4) 0.2738(4) 0.20086(11)
H3 H 0.3414 0.2144 0.2180
C4 C 0.4560(4) 0.2342(3) 0.16924(11)
H4 H 0.4696 0.1475 0.1652
C5 C 0.5131(4) 0.3198(3) 0.14343(10)
C6 C 0.5919(4) 0.2774(3) 0.10809(10)
H5 H 0.5354 0.3112 0.0838
H6 H 0.5916 0.1861 0.1068
H7 H 0.6993 0.3078 0.1109
C7 C 0.4195(3) 0.4868(3) 0.18186(9)
H8 H 0.4083 0.5737 0.1860
C8 C 0.5564(4) 0.5431(3) 0.12466(10)
H9 H 0.6635 0.5199 0.1201
H10 H 0.5617 0.6246 0.1384
C9 C 0.4566(4) 0.5572(3) 0.08456(10)
C10 C 0.3025(4) 0.5121(3) 0.07804(11)
H11 H 0.2579 0.4712 0.0986
C11 C 0.2144(5) 0.5281(4) 0.04038(14)
H12 H 0.1113 0.4971 0.0356
C12 C 0.2825(7) 0.5909(4) 0.01029(14)
H13 H 0.2248 0.6027 -0.0149
C13 C 0.4333(7) 0.6351(4) 0.01754(14)
H14 H 0.4773 0.6767 -0.0030
C14 C 0.5231(5) 0.6206(3) 0.05406(12)
C15 C 0.6904(6) 0.6707(5) 0.06056(15)
H15 H 0.7139 0.7144 0.0368
H16 H 0.7629 0.6010 0.0661
H17 H 0.7010 0.7286 0.0829
loop_
_geom_bond_atom_site_label_1
_geom_bond_atom_site_label_2
_geom_bond_site_symmetry_1
_geom_bond_site_symmetry_2
N1 H1 1_555 1_555
H2 N1 1_555 1_555
N2 C5 1_555 1_555
O1 C1 1_555 1_555
C1 N1 1_555 1_555
C2 C1 1_555 1_555
C3 C2 1_555 1_555
H3 C3 1_555 1_555
C4 C3 1_555 1_555
H4 C4 1_555 1_555
C5 C4 1_555 1_555
C6 C5 1_555 1_555
H5 C6 1_555 1_555
H6 C6 1_555 1_555
H7 C6 1_555 1_555
C7 N2 1_555 1_555
H8 C7 1_555 1_555
C8 N2 1_555 1_555
H9 C8 1_555 1_555
H10 C8 1_555 1_555
C9 C8 1_555 1_555
C10 C9 1_555 1_555
H11 C10 1_555 1_555
C11 C10 1_555 1_555
H12 C11 1_555 1_555
C12 C11 1_555 1_555
H13 C12 1_555 1_555
C13 C12 1_555 1_555
H14 C13 1_555 1_555
C14 C9 1_555 1_555
C15 C14 1_555 1_555
H15 C15 1_555 1_555
H16 C15 1_555 1_555
H17 C15 1_555 1_555
C2 C7 1_555 1_555
C13 C14 1_555 1_555

#END
