
#######################################################################
#
#                 Cambridge Crystallographic Data Centre
#                                CCDC 
#
#######################################################################
#
# If this CIF has been generated from an entry in the Cambridge 
# Structural Database, then it will include bibliographic, chemical, 
# crystal, experimental, refinement or atomic coordinate data resulting 
# from the CCDC's data processing and validation procedures.
#
#######################################################################

data_PAVFOJ
_chemical_formula_moiety         'C10 H6 O6 S2 2-,2(C4 H7 N2 1+),2(H2 O1)'
_chemical_name_systematic        
'bis(2-methylimidazolium) naphthalene-1,5-disulfonate dihydrate'
_symmetry_cell_setting           triclinic
_symmetry_space_group_name_H-M   'P -1'
_symmetry_Int_Tables_number      2
_space_group_name_Hall           '-P 1'
loop_
_symmetry_equiv_pos_site_id
_symmetry_equiv_pos_as_xyz
1 x,y,z
2 -x,-y,-z
_cell_length_a                   7.1301(14)
_cell_length_b                   8.1773(16)
_cell_length_c                   9.970(2)
_cell_angle_alpha                75.58(3)
_cell_angle_beta                 75.10(3)
_cell_angle_gamma                80.34(3)
_cell_volume                     540.703
_exptl_crystal_colour            colorless
_exptl_crystal_description       block
_cell_formula_units_Z            1
loop_
_atom_site_label
_atom_site_type_symbol
_atom_site_fract_x
_atom_site_fract_y
_atom_site_fract_z
O1 O 0.7815(4) 0.0540(4) 0.1408(3)
H11 H 0.876(4) -0.014(4) 0.158(3)
H12 H 0.796(4) 0.096(4) 0.056(2)
C1 C 0.7423(4) 0.6967(3) -0.0199(3)
H1 H 0.8089 0.7809 -0.0115
S1 S 0.13194(10) 0.66733(9) 0.23893(7)
O2 O 0.2455(3) 0.6595(2) 0.33926(19)
O3 O 0.1153(3) 0.8363(2) 0.1501(2)
C2 C 0.4534(3) 0.5560(3) 0.0451(2)
C3 C 0.2599(3) 0.5340(3) 0.1233(2)
O4 O -0.0547(2) 0.6045(2) 0.3027(2)
C5 C 0.5575(4) 0.6821(3) 0.0549(3)
H4 H 0.4977 0.7567 0.1140
C6 C 0.1658(4) 0.4121(3) 0.1091(3)
H5 H 0.0378 0.4008 0.1597
C1A C 0.2577(4) 0.3033(3) 0.0199(3)
H1A H 0.1911 0.2191 0.0115
S1A S 0.86806(10) 0.33267(9) -0.23893(7)
O2A O 0.7545(3) 0.3405(2) -0.33926(19)
O3A O 0.8847(3) 0.1637(2) -0.1501(2)
C2A C 0.5466(3) 0.4440(3) -0.0451(2)
C3A C 0.7401(3) 0.4660(3) -0.1233(2)
O4A O 1.0547(2) 0.3955(2) -0.3027(2)
C5A C 0.4425(4) 0.3179(3) -0.0549(3)
H4A H 0.5023 0.2433 -0.1140
C6A C 0.8342(4) 0.5879(3) -0.1091(3)
H5A H 0.9622 0.5992 -0.1597
N1 N 0.4574(3) 0.1263(3) 0.3230(2)
H2 H 0.5580 0.0903 0.2647
N2 N 0.2739(3) 0.2647(3) 0.4672(2)
H3 H 0.2318 0.3366 0.5212
C4 C 0.4508(4) 0.2493(3) 0.3875(3)
C7 C 0.2826(4) 0.0645(4) 0.3619(3)
H6 H 0.2496 -0.0228 0.3308
C8 C 0.6089(4) 0.3484(4) 0.3718(3)
H7 H 0.6461 0.3283 0.4610
H8 H 0.5664 0.4669 0.3429
H9 H 0.7188 0.3156 0.3012
C9 C 0.1682(5) 0.1513(4) 0.4521(3)
H10 H 0.0386 0.1372 0.4970
loop_
_geom_bond_atom_site_label_1
_geom_bond_atom_site_label_2
_geom_bond_site_symmetry_1
_geom_bond_site_symmetry_2
O1 H11 1_555 1_555
C1 H1 1_555 1_555
S1 O2 1_555 1_555
O3 S1 1_555 1_555
C2 C3 1_555 1_555
C3 S1 1_555 1_555
O4 S1 1_555 1_555
N1 H2 1_555 1_555
N2 H3 1_555 1_555
C4 N1 1_555 1_555
C5 C1 1_555 1_555
H4 C5 1_555 1_555
C6 C3 1_555 1_555
H5 C6 1_555 1_555
C7 N1 1_555 1_555
H6 C7 1_555 1_555
C8 C4 1_555 1_555
H7 C8 1_555 1_555
H8 C8 1_555 1_555
H9 C8 1_555 1_555
C9 N2 1_555 1_555
H10 C9 1_555 1_555
H12 O1 1_555 1_555
C1A C6 1_555 1_555
H1A C1A 1_555 1_555
S1A O2A 1_555 1_555
O3A S1A 1_555 1_555
C2A C2 1_555 1_555
C3A S1A 1_555 1_555
O4A S1A 1_555 1_555
C5A C1A 1_555 1_555
H4A C5A 1_555 1_555
C6A C1 1_555 1_555
H5A C6A 1_555 1_555
C2 C5 1_555 1_555
N2 C4 1_555 1_555
C7 C9 1_555 1_555
C2A C3A 1_555 1_555
C2A C5A 1_555 1_555
C3A C6A 1_555 1_555

#END
