
#######################################################################
#
#                 Cambridge Crystallographic Data Centre
#                                CCDC 
#
#######################################################################
#
# If this CIF has been generated from an entry in the Cambridge 
# Structural Database, then it will include bibliographic, chemical, 
# crystal, experimental, refinement or atomic coordinate data resulting 
# from the CCDC's data processing and validation procedures.
#
#######################################################################

data_PAVGAW
_chemical_formula_moiety         'C30 H42 N6 O2'
_chemical_name_systematic        
N,N'-bis(2,6-diisopropylphenyl)-3,6-dimethyl-1,2,4,5-tetrazine-1,4-dicarboxamide
_symmetry_cell_setting           monoclinic
_symmetry_space_group_name_H-M   'P 21/n'
_symmetry_Int_Tables_number      14
_space_group_name_Hall           '-P 2yn'
loop_
_symmetry_equiv_pos_site_id
_symmetry_equiv_pos_as_xyz
1 x,y,z
2 1/2-x,1/2+y,1/2-z
3 -x,-y,-z
4 1/2+x,1/2-y,1/2+z
_cell_length_a                   9.0599(14)
_cell_length_b                   33.203(5)
_cell_length_c                   10.8082(17)
_cell_angle_alpha                90
_cell_angle_beta                 112.013(2)
_cell_angle_gamma                90
_cell_volume                     3014.26
_exptl_crystal_colour            colorless
_exptl_crystal_description       block
_cell_formula_units_Z            4
loop_
_atom_site_label
_atom_site_type_symbol
_atom_site_fract_x
_atom_site_fract_y
_atom_site_fract_z
O1 O 0.4285(2) 0.09149(5) 0.40846(15)
O2 O 0.43830(19) 0.24162(4) 0.01245(15)
N1 N 0.4915(2) 0.12554(5) 0.25237(15)
N2 N 0.4850(2) 0.12384(5) 0.11873(15)
N3 N 0.3522(2) 0.06577(5) 0.19903(17)
H1 H 0.3448 0.0704 0.1186
N4 N 0.5403(2) 0.19120(5) 0.16262(15)
N5 N 0.6465(2) 0.18257(5) 0.29506(16)
N6 N 0.6382(2) 0.25574(5) 0.21099(16)
H2 H 0.7105 0.2450 0.2793
C1 C 0.5118(3) 0.16145(7) -0.0599(2)
H3 H 0.6140 0.1715 -0.0529
H4 H 0.4301 0.1796 -0.1130
H5 H 0.4947 0.1354 -0.1013
C2 C 0.7190(3) 0.13600(7) 0.4748(2)
H6 H 0.7613 0.1098 0.4696
H7 H 0.6580 0.1347 0.5306
H8 H 0.8050 0.1548 0.5121
C3 C 0.5067(2) 0.15814(6) 0.07548(19)
C4 C 0.4247(2) 0.09282(6) 0.2953(2)
C5 C 0.5345(2) 0.23148(6) 0.1203(2)
C6 C 0.6150(2) 0.14950(6) 0.33887(19)
C7 C 0.2869(3) 0.02908(6) 0.2285(2)
C8 C 0.3805(3) -0.00559(6) 0.2557(2)
C9 C 0.3178(3) -0.04044(7) 0.2882(2)
H9 H 0.3786 -0.0639 0.3084
C10 C 0.1687(3) -0.04073(8) 0.2906(3)
H10 H 0.1285 -0.0644 0.3121
C11 C 0.0774(3) -0.00655(8) 0.2619(2)
H11 H -0.0245 -0.0075 0.2635
C12 C 0.1332(3) 0.02956(7) 0.2302(2)
C13 C 0.6338(2) 0.29878(6) 0.19910(19)
C14 C 0.6868(2) 0.31737(6) 0.10760(19)
C15 C 0.6880(3) 0.35907(6) 0.1049(2)
H12 H 0.7230 0.3722 0.0449
C16 C 0.6386(3) 0.38145(6) 0.1892(2)
H13 H 0.6401 0.4094 0.1857
C17 C 0.5867(3) 0.36249(7) 0.2788(2)
H14 H 0.5540 0.3779 0.3358
C18 C 0.5826(2) 0.32085(6) 0.2854(2)
C19 C 0.0314(3) 0.06713(8) 0.1971(3)
H15 H 0.1005 0.0899 0.1982
C20 C 0.5466(3) -0.00640(7) 0.2537(2)
H16 H 0.5678 0.0203 0.2253
C21 C 0.5165(3) 0.30030(8) 0.3790(2)
H17 H 0.5600 0.2729 0.3944
C22 C 0.7482(3) 0.29395(7) 0.0170(2)
H18 H 0.7259 0.2654 0.0244
C23 C -0.0464(5) 0.07606(12) 0.2968(4)
H19 H -0.0918 0.1026 0.2809
H20 H 0.0322 0.0746 0.3858
H21 H -0.1287 0.0567 0.2865
C24 C -0.0932(6) 0.06421(15) 0.0601(4)
H22 H -0.1517 0.0890 0.0380
H23 H -0.1645 0.0425 0.0569
H24 H -0.0435 0.0592 -0.0028
C25 C 0.6701(4) -0.01415(13) 0.3899(3)
H25 H 0.7742 -0.0130 0.3860
H26 H 0.6535 -0.0403 0.4200
H27 H 0.6619 0.0059 0.4509
C26 C 0.5627(4) -0.03696(12) 0.1547(3)
H28 H 0.6654 -0.0342 0.1490
H29 H 0.4812 -0.0323 0.0685
H30 H 0.5516 -0.0637 0.1842
C27 C 0.3390(3) 0.29666(12) 0.3105(3)
H31 H 0.2963 0.2835 0.3689
H32 H 0.3142 0.2812 0.2303
H33 H 0.2931 0.3230 0.2886
C28 C 0.5620(5) 0.32021(13) 0.5130(3)
H34 H 0.5167 0.3055 0.5666
H35 H 0.5226 0.3473 0.5015
H36 H 0.6758 0.3205 0.5566
C29 C 0.6639(6) 0.30637(12) -0.1280(3)
H37 H 0.7050 0.2910 -0.1832
H38 H 0.6818 0.3345 -0.1374
H39 H 0.5518 0.3015 -0.1551
C30 C 0.9261(4) 0.29894(13) 0.0624(4)
H40 H 0.9769 0.2860 0.1472
H41 H 0.9522 0.3271 0.0708
H42 H 0.9624 0.2869 -0.0019
loop_
_geom_bond_atom_site_label_1
_geom_bond_atom_site_label_2
_geom_bond_site_symmetry_1
_geom_bond_site_symmetry_2
O1 C4 1_555 1_555
O2 C5 1_555 1_555
N1 N2 1_555 1_555
N2 C3 1_555 1_555
N3 H1 1_555 1_555
N4 N5 1_555 1_555
N5 C6 1_555 1_555
N6 H2 1_555 1_555
C1 H3 1_555 1_555
H4 C1 1_555 1_555
H5 C1 1_555 1_555
C2 H6 1_555 1_555
H7 C2 1_555 1_555
H8 C2 1_555 1_555
C3 N4 1_555 1_555
C4 N1 1_555 1_555
C5 N4 1_555 1_555
C6 N1 1_555 1_555
C7 N3 1_555 1_555
C8 C7 1_555 1_555
C9 C8 1_555 1_555
H9 C9 1_555 1_555
C10 C9 1_555 1_555
H10 C10 1_555 1_555
C11 C10 1_555 1_555
H11 C11 1_555 1_555
C12 C7 1_555 1_555
C13 N6 1_555 1_555
C14 C13 1_555 1_555
C15 C14 1_555 1_555
H12 C15 1_555 1_555
C16 C15 1_555 1_555
H13 C16 1_555 1_555
C17 C16 1_555 1_555
H14 C17 1_555 1_555
C18 C13 1_555 1_555
C19 C12 1_555 1_555
H15 C19 1_555 1_555
C20 C8 1_555 1_555
H16 C20 1_555 1_555
C21 C18 1_555 1_555
H17 C21 1_555 1_555
C22 C14 1_555 1_555
H18 C22 1_555 1_555
C23 C19 1_555 1_555
H19 C23 1_555 1_555
H20 C23 1_555 1_555
H21 C23 1_555 1_555
C24 C19 1_555 1_555
H22 C24 1_555 1_555
H23 C24 1_555 1_555
H24 C24 1_555 1_555
C25 C20 1_555 1_555
H25 C25 1_555 1_555
H26 C25 1_555 1_555
H27 C25 1_555 1_555
C26 C20 1_555 1_555
H28 C26 1_555 1_555
H29 C26 1_555 1_555
H30 C26 1_555 1_555
C27 C21 1_555 1_555
H31 C27 1_555 1_555
H32 C27 1_555 1_555
H33 C27 1_555 1_555
C28 C21 1_555 1_555
H34 C28 1_555 1_555
H35 C28 1_555 1_555
H36 C28 1_555 1_555
C29 C22 1_555 1_555
H37 C29 1_555 1_555
H38 C29 1_555 1_555
H39 C29 1_555 1_555
C30 C22 1_555 1_555
H40 C30 1_555 1_555
H41 C30 1_555 1_555
H42 C30 1_555 1_555
N3 C4 1_555 1_555
N6 C5 1_555 1_555
C1 C3 1_555 1_555
C2 C6 1_555 1_555
C11 C12 1_555 1_555
C17 C18 1_555 1_555

#END
