
#######################################################################
#
#                 Cambridge Crystallographic Data Centre
#                                CCDC 
#
#######################################################################
#
# If this CIF has been generated from an entry in the Cambridge 
# Structural Database, then it will include bibliographic, chemical, 
# crystal, experimental, refinement or atomic coordinate data resulting 
# from the CCDC's data processing and validation procedures.
#
#######################################################################

data_PAVJUS
_chemical_formula_moiety         'C14 H12 N2 O1 S6'
_chemical_name_systematic        
4',5'-bis(methylsulfanyl)-N-(pyridin-2-yl)-tetrathiafulvalene-4-carboxamide
_symmetry_cell_setting           monoclinic
_symmetry_space_group_name_H-M   'P 21/c'
_symmetry_Int_Tables_number      14
_space_group_name_Hall           '-P 2ybc'
loop_
_symmetry_equiv_pos_site_id
_symmetry_equiv_pos_as_xyz
1 x,y,z
2 -x,1/2+y,1/2-z
3 -x,-y,-z
4 x,1/2-y,1/2+z
_cell_length_a                   10.683(2)
_cell_length_b                   16.387(3)
_cell_length_c                   10.065(2)
_cell_angle_alpha                90
_cell_angle_beta                 90.98(3)
_cell_angle_gamma                90
_cell_volume                     1761.74
_exptl_crystal_colour            brown
_exptl_crystal_description       block
_cell_formula_units_Z            4
_exptl_crystal_recrystallization_method 'chloroform/carbon disulfide'
loop_
_atom_site_label
_atom_site_type_symbol
_atom_site_fract_x
_atom_site_fract_y
_atom_site_fract_z
S1 S 0.73716(5) 0.14095(4) 0.23987(5)
S2 S 0.64899(5) 0.19929(4) 0.49991(5)
S3 S 0.40081(5) 0.09646(4) 0.47080(5)
S4 S 0.47590(6) 0.03177(4) 0.21094(6)
S5 S 0.24802(7) -0.07641(4) 0.18757(8)
S6 S 0.15901(6) 0.00201(5) 0.46962(7)
O1 O 0.98555(13) 0.18937(11) 0.16808(14)
N1 N 1.22546(18) 0.32343(13) 0.41006(18)
N2 N 1.05257(15) 0.24788(12) 0.36184(17)
H1 H 1.0287 0.2615 0.4399
C1 C 1.3458(2) 0.34353(18) 0.3908(2)
H2 H 1.3820 0.3829 0.4459
C2 C 1.4184(2) 0.30917(16) 0.2941(2)
H3 H 1.5013 0.3250 0.2838
C3 C 1.3654(2) 0.25130(16) 0.2137(2)
H4 H 1.4125 0.2272 0.1475
C4 C 1.24227(19) 0.22832(14) 0.2301(2)
H5 H 1.2046 0.1890 0.1761
C5 C 1.17710(18) 0.26660(13) 0.33083(19)
C6 C 0.96602(18) 0.21085(13) 0.28264(19)
C7 C 0.84266(18) 0.19620(13) 0.34097(19)
C8 C 0.79970(18) 0.22218(13) 0.4580(2)
H6 H 0.8509 0.2522 0.5155
C9 C 0.61977(18) 0.13781(13) 0.35934(19)
C10 C 0.51412(18) 0.09390(13) 0.34722(19)
C11 C 0.2987(2) 0.02776(13) 0.3933(2)
C12 C 0.3335(2) -0.00294(14) 0.2755(2)
C13 C 0.1571(3) 0.0665(2) 0.6116(3)
H7 H 0.0824 0.0565 0.6607
H8 H 0.1587 0.1225 0.5837
H9 H 0.2291 0.0553 0.6670
C14 C 0.1527(3) -0.0175(2) 0.0792(3)
H10 H 0.1012 -0.0530 0.0258
H11 H 0.2047 0.0147 0.0227
H12 H 0.1004 0.0179 0.1303
loop_
_geom_bond_atom_site_label_1
_geom_bond_atom_site_label_2
_geom_bond_site_symmetry_1
_geom_bond_site_symmetry_2
S1 C7 1_555 1_555
S2 C8 1_555 1_555
S3 C10 1_555 1_555
S4 C10 1_555 1_555
S5 C12 1_555 1_555
S6 C11 1_555 1_555
O1 C6 1_555 1_555
N1 C1 1_555 1_555
N2 H1 1_555 1_555
C1 H2 1_555 1_555
C2 C1 1_555 1_555
H3 C2 1_555 1_555
C3 C2 1_555 1_555
H4 C3 1_555 1_555
C4 C3 1_555 1_555
H5 C4 1_555 1_555
C5 N1 1_555 1_555
C6 N2 1_555 1_555
C7 C6 1_555 1_555
C8 C7 1_555 1_555
H6 C8 1_555 1_555
C9 S1 1_555 1_555
C10 C9 1_555 1_555
C11 S3 1_555 1_555
C12 S4 1_555 1_555
C13 S6 1_555 1_555
H7 C13 1_555 1_555
H8 C13 1_555 1_555
H9 C13 1_555 1_555
C14 S5 1_555 1_555
H10 C14 1_555 1_555
H11 C14 1_555 1_555
H12 C14 1_555 1_555
S2 C9 1_555 1_555
N2 C5 1_555 1_555
C4 C5 1_555 1_555
C11 C12 1_555 1_555

#END
