
#######################################################################
#
#                 Cambridge Crystallographic Data Centre
#                                CCDC 
#
#######################################################################
#
# If this CIF has been generated from an entry in the Cambridge 
# Structural Database, then it will include bibliographic, chemical, 
# crystal, experimental, refinement or atomic coordinate data resulting 
# from the CCDC's data processing and validation procedures.
#
#######################################################################

data_PAVKAA
_chemical_formula_moiety         'C14 H11 F1 N4 O4'
_chemical_name_systematic        
(E)-1-(2,4-Dinitrophenyl)-2-[1-(3-fluorophenyl)ethylidene]hydrazine
_symmetry_cell_setting           monoclinic
_symmetry_space_group_name_H-M   'P 21/c'
_symmetry_Int_Tables_number      14
_space_group_name_Hall           '-P 2ybc'
loop_
_symmetry_equiv_pos_site_id
_symmetry_equiv_pos_as_xyz
1 x,y,z
2 -x,1/2+y,1/2-z
3 -x,-y,-z
4 x,1/2-y,1/2+z
_cell_length_a                   7.0165(6)
_cell_length_b                   13.3336(11)
_cell_length_c                   14.4498(12)
_cell_angle_alpha                90
_cell_angle_beta                 94.791(2)
_cell_angle_gamma                90
_cell_volume                     1347.13
_exptl_crystal_colour            yellow
_exptl_crystal_description       block
_cell_formula_units_Z            4
loop_
_atom_site_label
_atom_site_type_symbol
_atom_site_fract_x
_atom_site_fract_y
_atom_site_fract_z
O1 O 0.16769(19) 0.27587(9) 0.33374(8)
O2 O 0.2526(2) 0.12572(9) 0.37606(9)
O3 O 0.4548(2) 0.04192(10) 0.68409(10)
O4 O 0.5525(2) 0.15695(12) 0.78252(10)
N1 N 0.22627(19) 0.52482(9) 0.47367(9)
N2 N 0.2316(2) 0.42615(10) 0.44717(9)
H1 H 0.187(4) 0.4037(18) 0.3918(17)
N3 N 0.2368(2) 0.21543(10) 0.39303(9)
N4 N 0.4801(2) 0.13015(11) 0.70636(10)
C1 C 0.2965(2) 0.35508(11) 0.50920(10)
C2 C 0.2999(2) 0.25164(11) 0.48499(10)
C3 C 0.3613(2) 0.17866(11) 0.54990(11)
H2 H 0.3624 0.1113 0.5332
C4 C 0.4199(2) 0.20773(12) 0.63873(11)
C5 C 0.4229(2) 0.30902(13) 0.66526(11)
H3 H 0.4656 0.3272 0.7256
C6 C 0.3626(2) 0.38075(12) 0.60177(10)
H4 H 0.3649 0.4478 0.6196
C7 C 0.1518(2) 0.58571(11) 0.41102(10)
C8 C 0.1511(2) 0.69296(11) 0.43865(11)
C9 C 0.1014(2) 0.76901(13) 0.37412(12)
H5 H 0.0644 0.7534 0.3125
C10 C 0.1085(3) 0.86754(13) 0.40379(13)
H6 H 0.0755 0.9175 0.3605
F1 F 0.2507(3) 0.84685(12) 0.64414(10)
C11 C 0.1615(3) 0.89560(13) 0.49351(14)
H7 H 0.1654 0.9626 0.5115
C12 C 0.2086(2) 0.81953(12) 0.55571(10)
C13 C 0.2046(2) 0.71958(11) 0.53113(11)
H8 H 0.2369 0.6704 0.5753
C14 C 0.0737(3) 0.55223(14) 0.31617(11)
H9 H -0.0124 0.4970 0.3219
H10 H 0.1771 0.5314 0.2811
H11 H 0.0064 0.6068 0.2848
F2? F 0.0366(5) 0.9380(2) 0.3455(2)
H12? H 0.2449 0.8363 0.6171
loop_
_geom_bond_atom_site_label_1
_geom_bond_atom_site_label_2
_geom_bond_site_symmetry_1
_geom_bond_site_symmetry_2
O1 N3 1_555 1_555
O2 N3 1_555 1_555
O3 N4 1_555 1_555
O4 N4 1_555 1_555
N1 N2 1_555 1_555
N2 H1 1_555 1_555
N3 C2 1_555 1_555
N4 C4 1_555 1_555
C1 N2 1_555 1_555
C2 C1 1_555 1_555
C3 C2 1_555 1_555
H2 C3 1_555 1_555
C4 C3 1_555 1_555
C5 C4 1_555 1_555
H3 C5 1_555 1_555
C6 C1 1_555 1_555
H4 C6 1_555 1_555
C7 N1 1_555 1_555
C8 C7 1_555 1_555
C9 C8 1_555 1_555
H5 C9 1_555 1_555
C10 C9 1_555 1_555
H6 C10 1_555 1_555
F1 C12 1_555 1_555
C11 C10 1_555 1_555
H7 C11 1_555 1_555
C12 C11 1_555 1_555
C13 C8 1_555 1_555
H8 C13 1_555 1_555
C14 C7 1_555 1_555
H9 C14 1_555 1_555
H10 C14 1_555 1_555
H11 C14 1_555 1_555
C5 C6 1_555 1_555
C12 C13 1_555 1_555

#END
