
#######################################################################
#
#                 Cambridge Crystallographic Data Centre
#                                CCDC 
#
#######################################################################
#
# If this CIF has been generated from an entry in the Cambridge 
# Structural Database, then it will include bibliographic, chemical, 
# crystal, experimental, refinement or atomic coordinate data resulting 
# from the CCDC's data processing and validation procedures.
#
#######################################################################

data_PAVKEE
_chemical_formula_moiety         'C17 H14 N2 O2'
_chemical_name_systematic        6-(Benzyloxy)-2-phenylpyridazin-3(2H)-one
_symmetry_cell_setting           triclinic
_symmetry_space_group_name_H-M   'P -1'
_symmetry_Int_Tables_number      2
_space_group_name_Hall           '-P 1'
loop_
_symmetry_equiv_pos_site_id
_symmetry_equiv_pos_as_xyz
1 x,y,z
2 -x,-y,-z
_cell_length_a                   7.390(4)
_cell_length_b                   9.385(5)
_cell_length_c                   10.587(6)
_cell_angle_alpha                106.618(7)
_cell_angle_beta                 97.489(6)
_cell_angle_gamma                101.098(9)
_cell_volume                     676.886
_exptl_crystal_colour            colorless
_exptl_crystal_description       prism
_cell_formula_units_Z            2
loop_
_atom_site_label
_atom_site_type_symbol
_atom_site_fract_x
_atom_site_fract_y
_atom_site_fract_z
O1 O 0.42844(11) 0.94745(8) 0.63170(7)
O2 O 0.77932(11) 0.49972(8) 0.63235(8)
N1 N 0.48299(13) 0.75278(10) 0.71052(9)
N2 N 0.57426(13) 0.63946(10) 0.71641(9)
C1 C 0.36869(16) 0.78488(12) 0.81087(11)
C2 C 0.18835(17) 0.79994(12) 0.77449(12)
H1 H 0.1387 0.7879 0.6836
C3 C 0.08053(17) 0.83289(12) 0.87255(12)
H2 H -0.0429 0.8447 0.8488
C4 C 0.15216(17) 0.84853(12) 1.00468(12)
H3 H 0.0780 0.8708 1.0713
C5 C 0.33193(17) 0.83158(12) 1.03932(12)
H4 H 0.3805 0.8414 1.1298
C6 C 0.44193(17) 0.80031(12) 0.94267(11)
H5 H 0.5658 0.7896 0.9667
C7 C 0.50525(16) 0.84005(12) 0.62487(11)
C8 C 0.62325(15) 0.79457(12) 0.52976(11)
H6 H 0.6404 0.8461 0.4653
C9 C 0.70914(16) 0.68125(12) 0.53036(11)
H7 H 0.7855 0.6509 0.4669
C10 C 0.68183(16) 0.60737(12) 0.63011(11)
C11 C 0.76814(17) 0.43746(13) 0.74356(11)
H8 H 0.6432 0.3673 0.7289
H9 H 0.7866 0.5214 0.8293
C12 C 0.91981(16) 0.35233(12) 0.74890(11)
C13 C 1.09241(17) 0.42585(13) 0.83407(11)
H10 H 1.1142 0.5302 0.8874
C14 C 1.23333(17) 0.34891(13) 0.84226(11)
H11 H 1.3512 0.4006 0.9008
C15 C 1.20271(17) 0.19639(13) 0.76516(11)
H12 H 1.2986 0.1428 0.7712
C16 C 1.03045(17) 0.12308(13) 0.67916(11)
H13 H 1.0090 0.0189 0.6255
C17 C 0.89004(17) 0.19985(12) 0.67083(11)
H14 H 0.7727 0.1484 0.6116
loop_
_geom_bond_atom_site_label_1
_geom_bond_atom_site_label_2
_geom_bond_site_symmetry_1
_geom_bond_site_symmetry_2
O1 C7 1_555 1_555
O2 C10 1_555 1_555
N1 N2 1_555 1_555
N2 C10 1_555 1_555
C1 N1 1_555 1_555
C2 C1 1_555 1_555
H1 C2 1_555 1_555
C3 C2 1_555 1_555
H2 C3 1_555 1_555
C4 C3 1_555 1_555
H3 C4 1_555 1_555
C5 C4 1_555 1_555
H4 C5 1_555 1_555
C6 C1 1_555 1_555
H5 C6 1_555 1_555
C7 N1 1_555 1_555
C8 C7 1_555 1_555
H6 C8 1_555 1_555
C9 C8 1_555 1_555
H7 C9 1_555 1_555
C10 C9 1_555 1_555
C11 O2 1_555 1_555
H8 C11 1_555 1_555
H9 C11 1_555 1_555
C12 C11 1_555 1_555
C13 C12 1_555 1_555
H10 C13 1_555 1_555
C14 C13 1_555 1_555
H11 C14 1_555 1_555
C15 C14 1_555 1_555
H12 C15 1_555 1_555
C16 C15 1_555 1_555
H13 C16 1_555 1_555
C17 C12 1_555 1_555
H14 C17 1_555 1_555
C5 C6 1_555 1_555
C16 C17 1_555 1_555

#END
