
#######################################################################
#
#                 Cambridge Crystallographic Data Centre
#                                CCDC 
#
#######################################################################
#
# If this CIF has been generated from an entry in the Cambridge 
# Structural Database, then it will include bibliographic, chemical, 
# crystal, experimental, refinement or atomic coordinate data resulting 
# from the CCDC's data processing and validation procedures.
#
#######################################################################

data_PAVLED10
_chemical_name_common            '(1!6$)Starand chloroform solvate'
_chemical_formula_moiety         'C42 H24 O6,2(C1 H1 Cl3)'
_chemical_name_systematic        
'(2,4)(4,6)(6,8)(8,10)(10,12)(12,2)-Hexa-o-phenylene-12-crown-6 chloroform solvate'
_symmetry_cell_setting           monoclinic
_symmetry_space_group_name_H-M   'P 21/c'
_symmetry_Int_Tables_number      14
_space_group_name_Hall           '-P 2ybc'
loop_
_symmetry_equiv_pos_site_id
_symmetry_equiv_pos_as_xyz
1 x,y,z
2 -x,1/2+y,1/2-z
3 -x,-y,-z
4 x,1/2-y,1/2+z
_cell_length_a                   15.813(6)
_cell_length_b                   13.108(1)
_cell_length_c                   20.257(7)
_cell_angle_alpha                90
_cell_angle_beta                 109.35(2)
_cell_angle_gamma                90
_cell_volume                     3961.62
_exptl_crystal_colour            white
_chemical_melting_point          350deg.C(dec.)
_cell_formula_units_Z            4
loop_
_atom_site_label
_atom_site_type_symbol
_atom_site_fract_x
_atom_site_fract_y
_atom_site_fract_z
Cl4 Cl 0.46237(9) 0.2098(1) 0.16571(7)
Cl5 Cl 0.6390(1) 0.2232(2) 0.1647(1)
Cl6 Cl 0.5089(2) 0.3313(2) 0.0628(1)
C44 C 0.5274(3) 0.2170(3) 0.1102(2)
O4 O -0.3923(1) 0.5724(1) 0.50684(8)
O5 O -0.4223(1) 0.3966(1) 0.48687(8)
O6 O -0.4496(1) 0.5343(1) 0.59758(9)
C22 C -0.3780(2) 0.5825(2) 0.5804(1)
C23 C -0.2937(2) 0.5211(2) 0.6128(1)
C24 C -0.2364(2) 0.5172(3) 0.6811(2)
C25 C -0.1658(2) 0.4492(3) 0.6969(2)
C26 C -0.1544(2) 0.3853(3) 0.6473(2)
C27 C -0.2123(2) 0.3878(2) 0.5786(2)
C28 C -0.2821(2) 0.4570(2) 0.5623(1)
C29 C -0.3573(2) 0.4757(2) 0.4952(1)
C30 C -0.3449(2) 0.4788(2) 0.4243(1)
C31 C -0.2806(2) 0.5266(2) 0.4033(2)
C32 C -0.2872(2) 0.5179(3) 0.3337(2)
C33 C -0.3571(2) 0.4644(3) 0.2872(2)
C34 C -0.4234(2) 0.4195(3) 0.3077(2)
C35 C -0.4161(2) 0.4275(2) 0.3775(1)
C36 C -0.5215(2) 0.6075(2) 0.5849(1)
C37 C -0.4732(2) 0.7074(2) 0.5982(2)
C38 C -0.5031(2) 0.8033(3) 0.6086(2)
C39 C -0.4432(3) 0.8831(3) 0.6171(2)
C40 C -0.3578(3) 0.8686(3) 0.6146(3)
C41 C -0.3283(2) 0.7729(3) 0.6043(2)
C42 C -0.3875(2) 0.6923(2) 0.5963(1)
O5B O -0.5777(1) 0.6034(1) 0.51313(8)
C29B C -0.6427(2) 0.5243(2) 0.5048(1)
O4B O -0.6077(1) 0.4276(1) 0.49316(8)
C22B C -0.6220(2) 0.4175(2) 0.4196(1)
O6B O -0.5504(1) 0.4657(1) 0.40242(9)
C36B C -0.4785(2) 0.3925(2) 0.4151(1)
C35B C -0.5839(2) 0.5725(2) 0.6225(1)
C30B C -0.6551(2) 0.5212(2) 0.5757(1)
C28B C -0.7179(2) 0.5430(2) 0.4377(1)
C23B C -0.7063(2) 0.4789(2) 0.3872(1)
C42B C -0.6125(2) 0.3077(2) 0.4037(1)
C37B C -0.5268(2) 0.2926(2) 0.4018(2)
C38B C -0.4969(2) 0.1967(3) 0.3914(2)
C39B C -0.5568(3) 0.1169(3) 0.3829(2)
C40B C -0.6422(3) 0.1314(3) 0.3854(3)
C41B C -0.6717(2) 0.2271(3) 0.3957(2)
C24B C -0.7636(2) 0.4828(3) 0.3189(2)
C25B C -0.8342(2) 0.5508(3) 0.3031(2)
C26B C -0.8456(2) 0.6147(3) 0.3527(2)
C27B C -0.7877(2) 0.6122(2) 0.4214(2)
C31B C -0.7194(2) 0.4734(2) 0.5967(2)
C32B C -0.7128(2) 0.4821(3) 0.6663(2)
C33B C -0.6429(2) 0.5356(3) 0.7128(2)
C34B C -0.5766(2) 0.5805(3) 0.6923(2)
Cl1? Cl 0.05239(7) 0.17633(9) 0.70263(5)
Cl2? Cl 0.20728(8) 0.2010(1) 0.66033(7)
Cl3? Cl 0.04908(8) 0.31638(8) 0.59388(6)
Cl7? Cl 0.5861(2) 0.1831(3) 0.6113(2)
O1? O -0.0852(1) 0.1010(1) 0.50370(8)
O2? O -0.0954(1) 0.0780(1) 0.51119(8)
O3? O 0.0476(1) 0.0524(1) 0.59499(9)
C1? C -0.1030(2) 0.1180(2) 0.4299(1)
C2? C -0.1986(2) 0.0839(2) 0.3987(1)
C3? C -0.2596(2) 0.0990(3) 0.3327(2)
C4? C -0.3424(2) 0.0507(3) 0.3162(2)
C5? C -0.3620(2) 0.0110(3) 0.3636(2)
C6? C -0.3019(2) 0.0256(3) 0.4300(2)
C7? C -0.2198(2) 0.0234(2) 0.4469(1)
C8? C -0.1391(2) 0.0173(2) 0.5116(1)
C9? C -0.1445(2) 0.0215(2) 0.5848(1)
C10? C -0.1912(2) 0.0862(2) 0.6137(2)
C11? C -0.1799(2) 0.0749(3) 0.6838(2)
C12? C -0.1237(2) 0.0009(3) 0.7236(1)
C13? C -0.0761(2) 0.0628(3) 0.6950(2)
C14? C -0.0862(2) 0.0510(2) 0.6253(1)
C15? C -0.0383(2) 0.1016(2) 0.5807(1)
C16? C -0.0148(2) 0.2125(2) 0.5852(1)
C17? C -0.0633(2) 0.2978(3) 0.5909(2)
C18? C -0.0257(2) 0.3926(3) 0.5917(2)
C19? C 0.0596(2) 0.4024(3) 0.5862(2)
C20? C 0.1084(2) 0.3170(2) 0.5801(2)
C21? C 0.0699(2) 0.2225(2) 0.5791(1)
C43? C 0.0904(2) 0.1988(3) 0.6315(2)
Cl8? Cl 0.186(1) 0.252(2) 0.124(1)
Cl9? Cl 0.513(1) 0.224(2) 0.181(1)
Cl10? Cl 0.4347(9) 0.257(1) 0.6273(7)
loop_
_geom_bond_atom_site_label_1
_geom_bond_atom_site_label_2
_geom_bond_site_symmetry_1
_geom_bond_site_symmetry_2
Cl4 C44 1_555 1_555
Cl5 C44 1_555 1_555
Cl6 C44 1_555 1_555
O4 C22 1_555 1_555
O5 C29 1_555 1_555
O6 C22 1_555 1_555
C22 C23 1_555 1_555
C23 C24 1_555 1_555
C24 C25 1_555 1_555
C25 C26 1_555 1_555
C26 C27 1_555 1_555
C27 C28 1_555 1_555
C28 C23 1_555 1_555
C29 O4 1_555 1_555
C30 C29 1_555 1_555
C31 C30 1_555 1_555
C32 C31 1_555 1_555
C33 C32 1_555 1_555
C34 C33 1_555 1_555
C35 C30 1_555 1_555
C36 O6 1_555 1_555
C37 C36 1_555 1_555
C38 C37 1_555 1_555
C39 C38 1_555 1_555
C40 C39 1_555 1_555
C41 C40 1_555 1_555
C42 C22 1_555 1_555
O5B C36 1_555 1_555
C29B O5B 1_555 1_555
O4B C29B 1_555 1_555
C22B O4B 1_555 1_555
O6B C22B 1_555 1_555
C36B O5 1_555 1_555
C35B C36 1_555 1_555
C30B C29B 1_555 1_555
C28B C29B 1_555 1_555
C23B C22B 1_555 1_555
C42B C22B 1_555 1_555
C37B C36B 1_555 1_555
C38B C37B 1_555 1_555
C39B C38B 1_555 1_555
C40B C39B 1_555 1_555
C41B C42B 1_555 1_555
C24B C23B 1_555 1_555
C25B C24B 1_555 1_555
C26B C25B 1_555 1_555
C27B C28B 1_555 1_555
C31B C30B 1_555 1_555
C32B C31B 1_555 1_555
C33B C32B 1_555 1_555
C34B C35B 1_555 1_555
C28 C29 1_555 1_555
C34 C35 1_555 1_555
C35 C36B 1_555 1_555
C37 C42 1_555 1_555
C41 C42 1_555 1_555
O6B C36B 1_555 1_555
C35B C30B 1_555 1_555
C28B C23B 1_555 1_555
C42B C37B 1_555 1_555
C40B C41B 1_555 1_555
C26B C27B 1_555 1_555
C33B C34B 1_555 1_555

#END
