
#######################################################################
#
#                 Cambridge Crystallographic Data Centre
#                                CCDC 
#
#######################################################################
#
# If this CIF has been generated from an entry in the Cambridge 
# Structural Database, then it will include bibliographic, chemical, 
# crystal, experimental, refinement or atomic coordinate data resulting 
# from the CCDC's data processing and validation procedures.
#
#######################################################################

data_PAVMAC
_chemical_formula_moiety         'C16 H16 Br1 N1 O4'
_chemical_name_systematic        N-(4-Bromophenyl)-3,4,5-trimethoxybenzamide
_symmetry_cell_setting           monoclinic
_symmetry_space_group_name_H-M   'C c'
_symmetry_Int_Tables_number      9
_space_group_name_Hall           'C -2yc'
loop_
_symmetry_equiv_pos_site_id
_symmetry_equiv_pos_as_xyz
1 x,y,z
2 x,-y,1/2+z
3 1/2+x,1/2+y,z
4 1/2+x,1/2-y,1/2+z
_cell_length_a                   9.5860(19)
_cell_length_b                   26.010(5)
_cell_length_c                   7.1390(14)
_cell_angle_alpha                90
_cell_angle_beta                 112.04(3)
_cell_angle_gamma                90
_cell_volume                     1649.9
_exptl_crystal_colour            colorless
_exptl_crystal_description       block
_cell_formula_units_Z            4
loop_
_atom_site_label
_atom_site_type_symbol
_atom_site_fract_x
_atom_site_fract_y
_atom_site_fract_z
Br1 Br 0.49808(11) 0.47594(3) 0.04427(12)
N1 N 0.5036(10) 0.28535(15) 0.5367(13)
H1 H 0.5729 0.2840 0.6555
O1 O 0.4265(6) 0.05888(17) 0.6046(7)
C1 C 0.5016(7) 0.2076(3) 0.8251(10)
H2 H 0.5203 0.2407 0.8776
C2 C 0.5285(8) 0.1651(3) 0.9537(11)
O2 O 0.5191(7) 0.07461(17) 0.9997(8)
O3 O 0.5812(7) 0.1688(2) 1.1618(7)
C3 C 0.5010(8) 0.1162(3) 0.8755(10)
O4 O 0.3061(5) 0.24199(18) 0.3087(8)
C4 C 0.4450(8) 0.1084(3) 0.6641(11)
C5 C 0.4170(8) 0.1506(3) 0.5388(11)
H3 H 0.3778 0.1461 0.3994
C6 C 0.4467(7) 0.1996(2) 0.6193(10)
C7 C 0.3625(12) 0.0497(3) 0.3925(12)
H4 H 0.3546 0.0134 0.3677
H5 H 0.4256 0.0647 0.3297
H6 H 0.2642 0.0650 0.3372
C8 C 0.6627(12) 0.0518(4) 1.0685(17)
H7 H 0.6647 0.0231 1.1541
H8 H 0.7367 0.0766 1.1435
H9 H 0.6846 0.0402 0.9549
C9 C 0.6542(13) 0.2131(3) 1.2509(12)
H10 H 0.6845 0.2104 1.3949
H11 H 0.5876 0.2418 1.2027
H12 H 0.7414 0.2178 1.2174
C10 C 0.4106(8) 0.2446(3) 0.4759(11)
C11 C 0.4968(7) 0.3301(2) 0.4216(10)
C12 C 0.3606(8) 0.3507(3) 0.2917(11)
H13 H 0.2701 0.3352 0.2792
C13 C 0.3614(9) 0.3948(2) 0.1802(11)
H14 H 0.2714 0.4088 0.0924
C14 C 0.4971(8) 0.4173(3) 0.2018(10)
C15 C 0.6283(9) 0.3986(3) 0.3347(12)
H15 H 0.7182 0.4154 0.3539
C16 C 0.6286(8) 0.3538(3) 0.4433(11)
H16 H 0.7193 0.3402 0.5308
loop_
_geom_bond_atom_site_label_1
_geom_bond_atom_site_label_2
_geom_bond_site_symmetry_1
_geom_bond_site_symmetry_2
Br1 C14 1_555 1_555
N1 H1 1_555 1_555
O1 C4 1_555 1_555
C1 H2 1_555 1_555
C2 C1 1_555 1_555
O2 C3 1_555 1_555
O3 C2 1_555 1_555
C3 C2 1_555 1_555
O4 C10 1_555 1_555
C4 C3 1_555 1_555
C5 C4 1_555 1_555
H3 C5 1_555 1_555
C6 C1 1_555 1_555
C7 O1 1_555 1_555
H4 C7 1_555 1_555
H5 C7 1_555 1_555
H6 C7 1_555 1_555
C8 O2 1_555 1_555
H7 C8 1_555 1_555
H8 C8 1_555 1_555
H9 C8 1_555 1_555
C9 O3 1_555 1_555
H10 C9 1_555 1_555
H11 C9 1_555 1_555
H12 C9 1_555 1_555
C10 N1 1_555 1_555
C11 N1 1_555 1_555
C12 C11 1_555 1_555
H13 C12 1_555 1_555
C13 C12 1_555 1_555
H14 C13 1_555 1_555
C14 C13 1_555 1_555
C15 C14 1_555 1_555
H15 C15 1_555 1_555
C16 C11 1_555 1_555
H16 C16 1_555 1_555
C5 C6 1_555 1_555
C6 C10 1_555 1_555
C15 C16 1_555 1_555

#END
