
#######################################################################
#
#                 Cambridge Crystallographic Data Centre
#                                CCDC 
#
#######################################################################
#
# If this CIF has been generated from an entry in the Cambridge 
# Structural Database, then it will include bibliographic, chemical, 
# crystal, experimental, refinement or atomic coordinate data resulting 
# from the CCDC's data processing and validation procedures.
#
#######################################################################

data_PAVNUX
_chemical_formula_moiety         'C29 H25 N3 O1'
_chemical_name_systematic        
2-(4,5-Diphenyl-2-(pyridin-2-yl)-1H-imidazol-1-yl)-3-phenylpropan-1-ol
_symmetry_cell_setting           orthorhombic
_symmetry_space_group_name_H-M   'P 21 21 21'
_symmetry_Int_Tables_number      19
_space_group_name_Hall           'P 2ac 2ab'
loop_
_symmetry_equiv_pos_site_id
_symmetry_equiv_pos_as_xyz
1 x,y,z
2 1/2-x,-y,1/2+z
3 -x,1/2+y,1/2-z
4 1/2+x,1/2-y,-z
_cell_length_a                   9.2695(4)
_cell_length_b                   15.8818(6)
_cell_length_c                   16.0498(6)
_cell_angle_alpha                90
_cell_angle_beta                 90
_cell_angle_gamma                90
_cell_volume                     2362.79
_exptl_crystal_colour            colorless
_exptl_crystal_description       prismatic
_cell_formula_units_Z            4
loop_
_atom_site_label
_atom_site_type_symbol
_atom_site_fract_x
_atom_site_fract_y
_atom_site_fract_z
O1 O 0.74800(17) 0.67325(12) 0.63461(10)
H1 H 0.788(3) 0.6736(19) 0.5871(18)
N1 N 0.38909(18) 0.81423(9) 0.51834(9)
N2 N 0.45320(16) 0.73451(8) 0.62480(8)
N3 N 0.3134(2) 0.60522(11) 0.49389(10)
C1 C 0.3385(3) 1.00699(12) 0.64156(14)
H2 H 0.3170 0.9829 0.6929
C2 C 0.3175(3) 1.09285(14) 0.63001(17)
H3 H 0.2801 1.1254 0.6731
C3 C 0.3515(4) 1.12968(14) 0.55573(18)
H4 H 0.3390 1.1873 0.5484
C4 C 0.4043(4) 1.08104(15) 0.49205(18)
H5 H 0.4270 1.1059 0.4413
C5 C 0.4241(3) 0.99523(14) 0.50254(15)
H6 H 0.4599 0.9629 0.4588
C6 C 0.3908(2) 0.95713(11) 0.57826(12)
C7 C 0.4089(2) 0.86522(10) 0.58664(11)
C8 C 0.44924(19) 0.81699(10) 0.65331(10)
C9 C 0.5020(2) 0.84066(10) 0.73772(10)
C10 C 0.6491(3) 0.84668(14) 0.75092(14)
H7 H 0.7133 0.8351 0.7079
C11 C 0.7002(4) 0.87002(17) 0.82853(18)
H8 H 0.7990 0.8748 0.8372
C12 C 0.6071(5) 0.88607(16) 0.89254(16)
H9 H 0.6425 0.9013 0.9446
C13 C 0.4622(4) 0.87974(17) 0.87992(14)
H10 H 0.3989 0.8909 0.9235
C14 C 0.4087(3) 0.85679(14) 0.80277(13)
H11 H 0.3096 0.8522 0.7947
C15 C 0.4153(2) 0.73696(11) 0.54294(10)
C16 C 0.4123(2) 0.66518(10) 0.48335(10)
C17 C 0.5080(3) 0.66655(14) 0.41749(13)
H12 H 0.5735 0.7105 0.4115
C18 C 0.5044(3) 0.60158(16) 0.36082(15)
H13 H 0.5682 0.6007 0.3161
C19 C 0.4059(3) 0.53848(14) 0.37106(15)
H14 H 0.4017 0.4934 0.3342
C20 C 0.3140(3) 0.54377(14) 0.43719(14)
H15 H 0.2462 0.5011 0.4433
C21 C 0.1277(2) 0.65894(16) 0.71789(14)
H16 H 0.1068 0.6486 0.6621
C22 C 0.0228(3) 0.69407(19) 0.7686(2)
H17 H -0.0677 0.7066 0.7469
C23 C 0.0523(3) 0.71040(17) 0.85053(19)
H18 H -0.0175 0.7347 0.8845
C24 C 0.1850(3) 0.69072(16) 0.88228(15)
H19 H 0.2050 0.7012 0.9381
C25 C 0.2892(2) 0.65539(14) 0.83191(13)
H20 H 0.3791 0.6423 0.8543
C26 C 0.2624(2) 0.63902(11) 0.74854(11)
C27 C 0.3778(2) 0.60045(11) 0.69460(11)
H21 H 0.3347 0.5818 0.6427
H22 H 0.4167 0.5513 0.7226
C28 C 0.5014(2) 0.66113(10) 0.67490(10)
H23 H 0.5348 0.6836 0.7284
C29 C 0.6303(2) 0.61828(12) 0.63495(11)
H24 H 0.607(2) 0.5961(13) 0.5795(12)
H25 H 0.656(2) 0.5676(14) 0.6711(13)
loop_
_geom_bond_atom_site_label_1
_geom_bond_atom_site_label_2
_geom_bond_site_symmetry_1
_geom_bond_site_symmetry_2
O1 H1 1_555 1_555
N1 C7 1_555 1_555
N2 C8 1_555 1_555
N3 C16 1_555 1_555
C1 H2 1_555 1_555
C2 C1 1_555 1_555
H3 C2 1_555 1_555
C3 C2 1_555 1_555
H4 C3 1_555 1_555
C4 C3 1_555 1_555
H5 C4 1_555 1_555
C5 C4 1_555 1_555
H6 C5 1_555 1_555
C6 C1 1_555 1_555
C7 C6 1_555 1_555
C8 C7 1_555 1_555
C9 C8 1_555 1_555
C10 C9 1_555 1_555
H7 C10 1_555 1_555
C11 C10 1_555 1_555
H8 C11 1_555 1_555
C12 C11 1_555 1_555
H9 C12 1_555 1_555
C13 C12 1_555 1_555
H10 C13 1_555 1_555
C14 C9 1_555 1_555
H11 C14 1_555 1_555
C15 N1 1_555 1_555
C16 C15 1_555 1_555
C17 C16 1_555 1_555
H12 C17 1_555 1_555
C18 C17 1_555 1_555
H13 C18 1_555 1_555
C19 C18 1_555 1_555
H14 C19 1_555 1_555
C20 N3 1_555 1_555
H15 C20 1_555 1_555
C21 H16 1_555 1_555
C22 C21 1_555 1_555
H17 C22 1_555 1_555
C23 C22 1_555 1_555
H18 C23 1_555 1_555
C24 C23 1_555 1_555
H19 C24 1_555 1_555
C25 C24 1_555 1_555
H20 C25 1_555 1_555
C26 C21 1_555 1_555
C27 C26 1_555 1_555
H21 C27 1_555 1_555
H22 C27 1_555 1_555
C28 N2 1_555 1_555
H23 C28 1_555 1_555
C29 O1 1_555 1_555
H24 C29 1_555 1_555
H25 C29 1_555 1_555
N2 C15 1_555 1_555
C5 C6 1_555 1_555
C13 C14 1_555 1_555
C19 C20 1_555 1_555
C25 C26 1_555 1_555
C27 C28 1_555 1_555
C28 C29 1_555 1_555

#END
