
#######################################################################
#
#                 Cambridge Crystallographic Data Centre
#                                CCDC 
#
#######################################################################
#
# If this CIF has been generated from an entry in the Cambridge 
# Structural Database, then it will include bibliographic, chemical, 
# crystal, experimental, refinement or atomic coordinate data resulting 
# from the CCDC's data processing and validation procedures.
#
#######################################################################

data_PAVPEJ
_chemical_formula_moiety         'C21 H21 N3 O2'
_chemical_name_systematic        
3-((bis(pyridin-2-ylmethyl)amino)methyl)-2-hydroxy-5-methylbenzaldehyde
_symmetry_cell_setting           triclinic
_symmetry_space_group_name_H-M   'P -1'
_symmetry_Int_Tables_number      2
_space_group_name_Hall           '-P 1'
loop_
_symmetry_equiv_pos_site_id
_symmetry_equiv_pos_as_xyz
1 x,y,z
2 -x,-y,-z
_cell_length_a                   8.479(3)
_cell_length_b                   9.007(3)
_cell_length_c                   12.734(4)
_cell_angle_alpha                107.565(4)
_cell_angle_beta                 94.068(4)
_cell_angle_gamma                99.092(4)
_cell_volume                     908.211
_exptl_crystal_colour            colorless
_exptl_crystal_description       prism
_cell_formula_units_Z            2
loop_
_atom_site_label
_atom_site_type_symbol
_atom_site_fract_x
_atom_site_fract_y
_atom_site_fract_z
O1 O 0.30347(14) 0.24261(15) 0.70069(11)
O2 O 0.2793(2) 0.4303(2) 0.45307(13)
N1 N 0.08654(17) 0.36504(16) 1.11217(10)
N2 N 0.44036(16) 0.04369(16) 0.84649(12)
N3 N 0.13178(14) 0.13408(13) 0.85047(9)
C1 C 0.1725(2) 0.4744(2) 1.20326(14)
H1 H 0.1422 0.4755 1.2722
C2 C 0.3018(2) 0.5841(2) 1.20004(17)
H2 H 0.3586 0.6568 1.2652
C3 C 0.3457(2) 0.5845(2) 1.09924(19)
H3 H 0.4331 0.6578 1.0944
C4 C 0.2591(2) 0.47535(19) 1.00495(15)
H4 H 0.2865 0.4747 0.9354
C5 C 0.13093(17) 0.36626(16) 1.01410(12)
C6 C 0.5620(2) -0.0253(2) 0.80858(17)
H5 H 0.6501 0.0376 0.7938
C7 C 0.5662(2) -0.1817(2) 0.79005(16)
H6 H 0.6543 -0.2242 0.7636
C8 C 0.4367(3) -0.2741(2) 0.81160(18)
H7 H 0.4350 -0.3813 0.8001
C9 C 0.3086(2) -0.2069(2) 0.85051(16)
H8 H 0.2190 -0.2683 0.8648
C10 C 0.31508(17) -0.04723(17) 0.86807(12)
C11 C 0.03455(17) 0.24405(18) 0.91278(12)
H9 H -0.0550 0.1841 0.9350
H10 H -0.0093 0.2971 0.8647
C12 C 0.18157(18) 0.03443(18) 0.91383(12)
H11 H 0.0896 -0.0450 0.9134
H12 H 0.2170 0.0996 0.9903
C13 C 0.04151(18) 0.03472(17) 0.74274(12)
H13 H -0.0639 -0.0127 0.7545
H14 H 0.0976 -0.0504 0.7096
C14 C 0.02146(18) 0.12748(17) 0.66384(11)
C15 C -0.1264(2) 0.11424(19) 0.60476(12)
H15 H -0.2157 0.0511 0.6179
C16 C -0.1472(2) 0.1916(2) 0.52628(13)
C17 C -0.0125(2) 0.28009(19) 0.50600(13)
H16 H -0.0229 0.3306 0.4527
C18 C 0.1394(2) 0.29671(18) 0.56266(12)
C19 C 0.15547(19) 0.22339(18) 0.64412(12)
C20 C -0.3128(3) 0.1731(3) 0.46591(17)
H17 H -0.3064 0.2332 0.4151
H18 H -0.3843 0.2111 0.5187
H19 H -0.3529 0.0631 0.4256
C21 C 0.2815(3) 0.3831(2) 0.53231(16)
H20 H 0.3792 0.4027 0.5768
H21 H 0.286(3) 0.207(3) 0.762(2)
loop_
_geom_bond_atom_site_label_1
_geom_bond_atom_site_label_2
_geom_bond_site_symmetry_1
_geom_bond_site_symmetry_2
O1 C19 1_555 1_555
O2 C21 1_555 1_555
N1 C1 1_555 1_555
N2 C6 1_555 1_555
N3 C11 1_555 1_555
C1 H1 1_555 1_555
C2 C1 1_555 1_555
H2 C2 1_555 1_555
C3 C2 1_555 1_555
H3 C3 1_555 1_555
C4 C3 1_555 1_555
H4 C4 1_555 1_555
C5 N1 1_555 1_555
C6 H5 1_555 1_555
C7 C6 1_555 1_555
H6 C7 1_555 1_555
C8 C7 1_555 1_555
H7 C8 1_555 1_555
C9 C8 1_555 1_555
H8 C9 1_555 1_555
C10 N2 1_555 1_555
C11 C5 1_555 1_555
H9 C11 1_555 1_555
H10 C11 1_555 1_555
C12 N3 1_555 1_555
H11 C12 1_555 1_555
H12 C12 1_555 1_555
C13 N3 1_555 1_555
H13 C13 1_555 1_555
H14 C13 1_555 1_555
C14 C13 1_555 1_555
C15 C14 1_555 1_555
H15 C15 1_555 1_555
C16 C15 1_555 1_555
C17 C16 1_555 1_555
H16 C17 1_555 1_555
C18 C17 1_555 1_555
C19 C14 1_555 1_555
C20 C16 1_555 1_555
H17 C20 1_555 1_555
H18 C20 1_555 1_555
H19 C20 1_555 1_555
C21 C18 1_555 1_555
H20 C21 1_555 1_555
H21 O1 1_555 1_555
C4 C5 1_555 1_555
C9 C10 1_555 1_555
C10 C12 1_555 1_555
C18 C19 1_555 1_555

#END
