
#######################################################################
#
#                 Cambridge Crystallographic Data Centre
#                                CCDC 
#
#######################################################################
#
# If this CIF has been generated from an entry in the Cambridge 
# Structural Database, then it will include bibliographic, chemical, 
# crystal, experimental, refinement or atomic coordinate data resulting 
# from the CCDC's data processing and validation procedures.
#
#######################################################################

data_PAVTAJ
_chemical_formula_moiety         'C14 H17 N3 O3'
_chemical_name_systematic        
'2-(4-Isopropyl-4-methyl-5-oxo-4,5-dihydro-1H-imidazol-2-yl)-5-methylnicotinic acid'
_symmetry_cell_setting           monoclinic
_symmetry_space_group_name_H-M   'P 21/c'
_symmetry_Int_Tables_number      14
_space_group_name_Hall           '-P 2ybc'
loop_
_symmetry_equiv_pos_site_id
_symmetry_equiv_pos_as_xyz
1 x,y,z
2 -x,1/2+y,1/2-z
3 -x,-y,-z
4 x,1/2-y,1/2+z
_cell_length_a                   12.102(2)
_cell_length_b                   16.035(3)
_cell_length_c                   7.2883(15)
_cell_angle_alpha                90
_cell_angle_beta                 94.17(3)
_cell_angle_gamma                90
_cell_volume                     1410.59
_exptl_crystal_colour            colorless
_exptl_crystal_description       block
_cell_formula_units_Z            4
_exptl_crystal_recrystallization_method acetonitrile
loop_
_atom_site_label
_atom_site_type_symbol
_atom_site_fract_x
_atom_site_fract_y
_atom_site_fract_z
C1 C 1.01695(11) 0.78025(8) 0.26937(16)
C2 C 1.12083(12) 0.76017(9) 0.35266(18)
H1 H 1.1400 0.7043 0.3680
C3 C 1.19647(12) 0.82072(10) 0.41336(19)
C4 C 1.16383(14) 0.90226(10) 0.3862(2)
H2 H 1.2136 0.9439 0.4251
C5 C 0.99292(11) 0.86611(8) 0.25086(18)
C6 C 0.94567(12) 0.70446(8) 0.2115(2)
C7 C 1.30826(14) 0.79919(12) 0.5050(2)
H3 H 1.3650 0.8150 0.4264
H4 H 1.3122 0.7402 0.5275
H5 H 1.3189 0.8286 0.6197
C8 C 0.88794(12) 0.90408(8) 0.17407(18)
C9 C 0.77171(13) 1.00954(9) 0.1004(2)
C10 C 0.71625(13) 0.92605(9) 0.0469(2)
C11 C 0.60962(13) 0.91307(11) 0.1470(2)
H6 H 0.5570 0.9565 0.1037
C12 C 0.69487(16) 0.92380(12) -0.1627(2)
H7 H 0.7637 0.9304 -0.2187
H8 H 0.6455 0.9683 -0.2015
H9 H 0.6620 0.8713 -0.1991
C13 C 0.62931(18) 0.92271(16) 0.3541(2)
H10 H 0.6825 0.8821 0.4004
H11 H 0.5609 0.9145 0.4104
H12 H 0.6570 0.9777 0.3823
C14 C 0.5557(2) 0.82921(17) 0.1010(4)
H13 H 0.6040 0.7852 0.1465
H14 H 0.5424 0.8240 -0.0299
H15 H 0.4866 0.8255 0.1576
N1 N 1.06558(11) 0.92563(7) 0.30766(19)
N2 N 0.80181(10) 0.86483(7) 0.10681(16)
N3 N 0.87614(11) 0.98947(8) 0.17332(19)
H16 H 0.9282(14) 1.0274(10) 0.208(3)
O1 O 0.85037(10) 0.71349(6) 0.12055(16)
H17 H 0.8310(18) 0.7624(4) 0.109(3)
O2 O 0.98114(10) 0.63550(7) 0.25044(19)
O3 O 0.73227(11) 1.07853(7) 0.0816(2)
loop_
_geom_bond_atom_site_label_1
_geom_bond_atom_site_label_2
_geom_bond_site_symmetry_1
_geom_bond_site_symmetry_2
C1 C2 1_555 1_555
C2 H1 1_555 1_555
C3 C2 1_555 1_555
C4 C3 1_555 1_555
H2 C4 1_555 1_555
C5 C1 1_555 1_555
C6 C1 1_555 1_555
C7 C3 1_555 1_555
H3 C7 1_555 1_555
H4 C7 1_555 1_555
H5 C7 1_555 1_555
C8 C5 1_555 1_555
C9 C10 1_555 1_555
C10 C11 1_555 1_555
C11 H6 1_555 1_555
C12 C10 1_555 1_555
H7 C12 1_555 1_555
H8 C12 1_555 1_555
H9 C12 1_555 1_555
C13 C11 1_555 1_555
H10 C13 1_555 1_555
H11 C13 1_555 1_555
H12 C13 1_555 1_555
C14 C11 1_555 1_555
H13 C14 1_555 1_555
H14 C14 1_555 1_555
H15 C14 1_555 1_555
N1 C4 1_555 1_555
N2 C8 1_555 1_555
N3 C8 1_555 1_555
H16 N3 1_555 1_555
O1 C6 1_555 1_555
H17 O1 1_555 1_555
O2 C6 1_555 1_555
O3 C9 1_555 1_555
C5 N1 1_555 1_555
C9 N3 1_555 1_555
C10 N2 1_555 1_555

#END
