
#######################################################################
#
#                 Cambridge Crystallographic Data Centre
#                                CCDC 
#
#######################################################################
#
# If this CIF has been generated from an entry in the Cambridge 
# Structural Database, then it will include bibliographic, chemical, 
# crystal, experimental, refinement or atomic coordinate data resulting 
# from the CCDC's data processing and validation procedures.
#
#######################################################################

data_PAVVAM
_chemical_formula_moiety         'C15 H14 N2 O1'
_chemical_name_systematic        
2-(4-methylphenyl)-2,3-dihydroquinazolin-4(1H)-one
_symmetry_cell_setting           monoclinic
_symmetry_space_group_name_H-M   'P 21/c'
_symmetry_Int_Tables_number      14
_space_group_name_Hall           '-P 2ybc'
loop_
_symmetry_equiv_pos_site_id
_symmetry_equiv_pos_as_xyz
1 x,y,z
2 -x,1/2+y,1/2-z
3 -x,-y,-z
4 x,1/2-y,1/2+z
_cell_length_a                   13.027(2)
_cell_length_b                   8.8840(12)
_cell_length_c                   11.4246(17)
_cell_angle_alpha                90
_cell_angle_beta                 109.209(18)
_cell_angle_gamma                90
_cell_volume                     1248.58
_exptl_crystal_colour            white
_cell_formula_units_Z            4
loop_
_atom_site_label
_atom_site_type_symbol
_atom_site_fract_x
_atom_site_fract_y
_atom_site_fract_z
O1 O 0.86661(11) 0.45950(15) 0.37146(11)
N1 N 0.94182(12) 0.34218(17) 0.55489(13)
N2 N 0.86023(12) 0.13012(18) 0.61129(14)
C1 C 0.85919(14) 0.36737(19) 0.44960(15)
C2 C 1.04575(13) 0.20207(19) 0.73606(15)
C3 C 0.76492(14) 0.1585(2) 0.51623(16)
C4 C 0.76161(14) 0.2749(2) 0.43251(16)
C5 C 1.21284(16) 0.0764(2) 0.75459(19)
C6 C 0.93359(13) 0.2551(2) 0.65943(15)
C7 C 1.08922(15) 0.2452(2) 0.85829(16)
C8 C 1.10803(15) 0.1157(2) 0.68525(17)
C9 C 1.25775(15) 0.1209(2) 0.87756(19)
C10 C 1.19357(17) 0.2043(3) 0.92814(18)
C11 C 0.67224(15) 0.0689(3) 0.49679(19)
C12 C 0.58083(17) 0.0955(3) 0.3971(2)
C13 C 0.66775(16) 0.2983(3) 0.33158(19)
C14 C 0.57736(17) 0.2093(3) 0.3136(2)
C15 C 1.37303(18) 0.0790(4) 0.9520(3)
H1 H 0.66614(16) 0.3751(3) 0.27564(19)
H2 H 0.51484(17) 0.2256(3) 0.2462(2)
H3 H 0.51976(17) 0.0355(3) 0.3855(2)
H4 H 0.67278(15) -0.0087(3) 0.55163(19)
H5 H 1.07918(15) 0.0835(2) 0.60347(17)
H6 H 1.25417(16) 0.0192(2) 0.71843(19)
H7 H 1.22110(17) 0.2335(3) 1.01080(18)
H8 H 1.04775(15) 0.3026(2) 0.89413(16)
H9 H 1.00409(12) 0.38021(17) 0.56102(13)
H10 H 0.87577(12) 0.04096(18) 0.64119(14)
H11 H 0.90400(13) 0.3191(2) 0.71055(15)
H12 H 1.3885(6) -0.0204(10) 0.9293(14)
H13 H 1.4223(2) 0.1496(14) 0.9353(15)
H14 H 1.3816(5) 0.081(2) 1.0387(3)
loop_
_geom_bond_atom_site_label_1
_geom_bond_atom_site_label_2
_geom_bond_site_symmetry_1
_geom_bond_site_symmetry_2
O1 C1 1_555 1_555
N1 C1 1_555 1_555
N2 C3 1_555 1_555
C1 C4 1_555 1_555
C2 C6 1_555 1_555
C3 C4 1_555 1_555
C4 C13 1_555 1_555
C5 C8 1_555 1_555
C6 N1 1_555 1_555
C7 C2 1_555 1_555
C8 C2 1_555 1_555
C9 C5 1_555 1_555
C10 C7 1_555 1_555
C11 C3 1_555 1_555
C12 C11 1_555 1_555
C13 C14 1_555 1_555
C14 C12 1_555 1_555
C15 C9 1_555 1_555
H1 C13 1_555 1_555
H2 C14 1_555 1_555
H3 C12 1_555 1_555
H4 C11 1_555 1_555
H5 C8 1_555 1_555
H6 C5 1_555 1_555
H7 C10 1_555 1_555
H8 C7 1_555 1_555
H9 N1 1_555 1_555
H10 N2 1_555 1_555
H11 C6 1_555 1_555
H12 C15 1_555 1_555
H13 C15 1_555 1_555
H14 C15 1_555 1_555
N2 C6 1_555 1_555
C9 C10 1_555 1_555

#END
