
#######################################################################
#
#                 Cambridge Crystallographic Data Centre
#                                CCDC 
#
#######################################################################
#
# If this CIF has been generated from an entry in the Cambridge 
# Structural Database, then it will include bibliographic, chemical, 
# crystal, experimental, refinement or atomic coordinate data resulting 
# from the CCDC's data processing and validation procedures.
#
#######################################################################

data_PAVWER
_chemical_formula_moiety         '2(C7 H13 N2 1+),H10 B10 2-'
_chemical_name_systematic        
'bis(1-methyl-3-propyl-1H-imidazol-3-ium) closo-decaborate(10)'
_symmetry_cell_setting           orthorhombic
_symmetry_space_group_name_H-M   'P b c a'
_symmetry_Int_Tables_number      61
_space_group_name_Hall           '-P 2ac 2ab'
loop_
_symmetry_equiv_pos_site_id
_symmetry_equiv_pos_as_xyz
1 x,y,z
2 1/2-x,-y,1/2+z
3 -x,1/2+y,1/2-z
4 1/2+x,1/2-y,-z
5 -x,-y,-z
6 1/2+x,y,1/2-z
7 x,1/2-y,1/2+z
8 1/2-x,1/2+y,z
_cell_length_a                   14.185(2)
_cell_length_b                   10.6148(16)
_cell_length_c                   30.936(5)
_cell_angle_alpha                90
_cell_angle_beta                 90
_cell_angle_gamma                90
_cell_volume                     4658.06
_exptl_crystal_colour            colorless
_exptl_crystal_description       Prism
_cell_formula_units_Z            8
loop_
_atom_site_label
_atom_site_type_symbol
_atom_site_fract_x
_atom_site_fract_y
_atom_site_fract_z
N1 N 0.26719(8) 0.46058(11) 0.49987(4)
N2 N 0.26235(8) 0.57247(11) 0.44173(4)
C1 C 0.17601(11) 0.50199(16) 0.49526(5)
H1 H 0.1248 0.4844 0.5141
C2 C 0.17289(10) 0.57244(16) 0.45893(5)
H2 H 0.1192 0.6141 0.4474
C3 C 0.31826(10) 0.50522(12) 0.46740(4)
H3 H 0.3838 0.4915 0.4632
C4 C 0.30238(12) 0.37797(14) 0.53416(5)
H4 H 0.3714 0.3764 0.5334
H5 H 0.2780 0.2925 0.5297
H6 H 0.2812 0.4096 0.5623
C5 C 0.29199(11) 0.63370(14) 0.40122(5)
H7 H 0.2362 0.6469 0.3825
H8 H 0.3363 0.5777 0.3856
C6 C 0.33927(11) 0.75906(15) 0.40964(5)
H9 H 0.4000 0.7449 0.4246
H10 H 0.2988 0.8107 0.4288
C7 C 0.35693(15) 0.83005(19) 0.36743(7)
H11 H 0.3929 0.7764 0.3476
H12 H 0.3928 0.9070 0.3735
H13 H 0.2964 0.8523 0.3542
N3 N 0.39490(8) 0.16788(11) 0.65944(4)
N4 N 0.41045(9) 0.28381(11) 0.71631(4)
C8 C 0.40442(12) 0.08733(14) 0.69405(5)
H14 H 0.4042 -0.0021 0.6931
C9 C 0.41419(12) 0.16000(14) 0.72962(5)
H15 H 0.4222 0.1311 0.7585
C10 C 0.39864(10) 0.28534(13) 0.67369(5)
H16 H 0.3937 0.3588 0.6563
C11 C 0.38367(11) 0.13062(15) 0.61414(5)
H17 H 0.3165 0.1203 0.6076
H18 H 0.4166 0.0508 0.6091
H19 H 0.4104 0.1959 0.5954
C12 C 0.41645(13) 0.39647(15) 0.74418(5)
H20 H 0.4548 0.4615 0.7294
H21 H 0.4488 0.3738 0.7714
C13 C 0.31993(18) 0.4512(2) 0.75473(7)
H22 H 0.3284 0.5276 0.7727
H23 H 0.2888 0.4771 0.7275
C14 C 0.25659(19) 0.3603(3) 0.77834(8)
H24 H 0.2382 0.2920 0.7588
H25 H 0.2001 0.4046 0.7884
H26 H 0.2903 0.3251 0.8032
B1 B 0.37322(10) 0.66286(14) 0.58327(5)
B2 B 0.46674(10) 0.55312(14) 0.59926(5)
B3 B 0.55145(10) 0.68300(14) 0.60032(5)
B4 B 0.45764(11) 0.79310(14) 0.58429(5)
B5 B 0.37914(10) 0.60556(14) 0.63841(5)
B6 B 0.50573(11) 0.61857(14) 0.65046(5)
B7 B 0.49973(11) 0.78949(14) 0.63976(5)
B8 B 0.37308(11) 0.77470(14) 0.62789(5)
B9 B 0.47838(11) 0.65640(15) 0.55739(5)
B10 B 0.42319(12) 0.71444(15) 0.67350(5)
H34 H 0.3066(12) 0.6491(16) 0.5639(5)
H35 H 0.4761(11) 0.4471(15) 0.5941(5)
H36 H 0.6298(13) 0.6838(17) 0.5957(6)
H37 H 0.4606(12) 0.8859(16) 0.5660(5)
H38 H 0.3217(13) 0.5359(17) 0.6486(6)
H39 H 0.5542(13) 0.5624(17) 0.6712(6)
H40 H 0.5439(13) 0.8746(17) 0.6501(6)
H41 H 0.3123(12) 0.8434(17) 0.6306(5)
H42 H 0.4944(13) 0.6383(18) 0.5214(6)
H43 H 0.4062(12) 0.7334(17) 0.7088(6)
H27? H 0.4134 0.4734 0.7261
H28? H 0.4774 0.3966 0.7597
C15? C 0.3349(10) 0.3973(12) 0.7770(4)
H29? H 0.3300 0.3146 0.7916
H30? H 0.3453 0.4631 0.7992
C16? C 0.2452(11) 0.4250(17) 0.7511(5)
H31? H 0.1936 0.4451 0.7710
H32? H 0.2282 0.3509 0.7339
H33? H 0.2563 0.4968 0.7318
loop_
_geom_bond_atom_site_label_1
_geom_bond_atom_site_label_2
_geom_bond_site_symmetry_1
_geom_bond_site_symmetry_2
N1 C1 1_555 1_555
N2 C2 1_555 1_555
C1 H1 1_555 1_555
C2 C1 1_555 1_555
H2 C2 1_555 1_555
C3 N1 1_555 1_555
H3 C3 1_555 1_555
C4 N1 1_555 1_555
H4 C4 1_555 1_555
H5 C4 1_555 1_555
H6 C4 1_555 1_555
C5 N2 1_555 1_555
H7 C5 1_555 1_555
H8 C5 1_555 1_555
C6 C5 1_555 1_555
H9 C6 1_555 1_555
H10 C6 1_555 1_555
C7 C6 1_555 1_555
H11 C7 1_555 1_555
H12 C7 1_555 1_555
H13 C7 1_555 1_555
N3 C8 1_555 1_555
N4 C9 1_555 1_555
C8 H14 1_555 1_555
C9 C8 1_555 1_555
H15 C9 1_555 1_555
C10 N3 1_555 1_555
H16 C10 1_555 1_555
C11 N3 1_555 1_555
H17 C11 1_555 1_555
H18 C11 1_555 1_555
H19 C11 1_555 1_555
C12 N4 1_555 1_555
H20 C12 1_555 1_555
H21 C12 1_555 1_555
C13 C12 1_555 1_555
H22 C13 1_555 1_555
H23 C13 1_555 1_555
C14 C13 1_555 1_555
H24 C14 1_555 1_555
H25 C14 1_555 1_555
H26 C14 1_555 1_555
B1 B2 1_555 1_555
B2 B3 1_555 1_555
B3 B4 1_555 1_555
B4 B1 1_555 1_555
B5 B1 1_555 1_555
B6 B2 1_555 1_555
B7 B3 1_555 1_555
B8 B1 1_555 1_555
B9 B1 1_555 1_555
B10 B5 1_555 1_555
H34 B1 1_555 1_555
H35 B2 1_555 1_555
H36 B3 1_555 1_555
H37 B4 1_555 1_555
H38 B5 1_555 1_555
H39 B6 1_555 1_555
H40 B7 1_555 1_555
H41 B8 1_555 1_555
H42 B9 1_555 1_555
H43 B10 1_555 1_555
N2 C3 1_555 1_555
N4 C10 1_555 1_555
B2 B5 1_555 1_555
B2 B9 1_555 1_555
B3 B6 1_555 1_555
B3 B9 1_555 1_555
B4 B7 1_555 1_555
B4 B8 1_555 1_555
B4 B9 1_555 1_555
B5 B6 1_555 1_555
B5 B8 1_555 1_555
B6 B7 1_555 1_555
B6 B10 1_555 1_555
B7 B8 1_555 1_555
B7 B10 1_555 1_555
B8 B10 1_555 1_555

#END
