
#######################################################################
#
#                 Cambridge Crystallographic Data Centre
#                                CCDC 
#
#######################################################################
#
# If this CIF has been generated from an entry in the Cambridge 
# Structural Database, then it will include bibliographic, chemical, 
# crystal, experimental, refinement or atomic coordinate data resulting 
# from the CCDC's data processing and validation procedures.
#
#######################################################################

data_PAVWOB
_chemical_formula_moiety         'C19 H16 N2 O2'
_chemical_name_systematic        
2-(2-furyl)-3-(4-methylphenyl)-2,3-dihydroquinazolin-4(1H)-one
_symmetry_cell_setting           monoclinic
_symmetry_space_group_name_H-M   'P 21/n'
_symmetry_Int_Tables_number      14
_space_group_name_Hall           '-P 2yn'
loop_
_symmetry_equiv_pos_site_id
_symmetry_equiv_pos_as_xyz
1 x,y,z
2 1/2-x,1/2+y,1/2-z
3 -x,-y,-z
4 1/2+x,1/2-y,1/2+z
_cell_length_a                   14.3966(17)
_cell_length_b                   6.8726(5)
_cell_length_c                   17.724(2)
_cell_angle_alpha                90
_cell_angle_beta                 113.844(15)
_cell_angle_gamma                90
_cell_volume                     1603.97
_cell_formula_units_Z            4
loop_
_atom_site_label
_atom_site_type_symbol
_atom_site_fract_x
_atom_site_fract_y
_atom_site_fract_z
O1 O 0.49250(12) 0.0047(2) 0.61346(10)
O2 O 0.24915(15) 0.6539(2) 0.53720(11)
N1 N 0.31551(13) 0.3850(2) 0.61512(10)
N2 N 0.26952(13) 0.0737(2) 0.55341(11)
H1 H 0.24905(13) -0.0359(2) 0.56455(11)
C1 C 0.44649(16) 0.1821(3) 0.60348(12)
C2 C 0.34883(16) 0.1830(3) 0.61528(12)
H2 H 0.36180(16) 0.1257(3) 0.66926(12)
C3 C 0.26633(16) 0.4780(3) 0.54162(13)
C4 C 0.35198(16) 0.4867(3) 0.69287(13)
C5 C 0.22785(15) 0.1522(3) 0.47562(13)
C6 C 0.23042(16) 0.3543(3) 0.46756(13)
C7 C 0.33597(17) 0.4064(3) 0.75812(14)
H3 H 0.30016(17) 0.2904(3) 0.75116(14)
C8 C 0.40520(18) 0.6593(3) 0.70414(15)
H4 H 0.41764(18) 0.7131(3) 0.66098(15)
C9 C 0.1400(2) 0.1242(4) 0.32928(16)
H5 H 0.1084(2) 0.0472(4) 0.28270(16)
C10 C 0.43975(18) 0.7513(4) 0.77963(16)
H6 H 0.47384(18) 0.8692(4) 0.78617(16)
C11 C 0.18942(19) 0.4366(4) 0.38920(15)
H7 H 0.19140(19) 0.5708(4) 0.38347(15)
C12 C 0.37343(19) 0.4992(4) 0.83378(15)
H8 H 0.36351(19) 0.4430(4) 0.87767(15)
C13 C 0.17946(17) 0.0388(3) 0.40532(15)
H9 H 0.17405(17) -0.0950(3) 0.41021(15)
C14 C 0.42520(18) 0.6733(4) 0.84576(16)
C15 C 0.5016(2) 0.3139(4) 0.58438(17)
H10 H 0.4872(2) 0.4458(4) 0.57497(17)
C16 C 0.5861(2) 0.2146(5) 0.58114(19)
H11 H 0.6374(2) 0.2684(5) 0.56857(19)
C17 C 0.1461(2) 0.3224(4) 0.32025(16)
H12 H 0.1211(2) 0.3782(4) 0.26798(16)
C18 C 0.4648(2) 0.7763(6) 0.92849(19)
H13 H 0.5373(3) 0.764(3) 0.9545(7)
H14 H 0.4470(17) 0.9116(9) 0.9203(2)
H15 H 0.4352(15) 0.719(2) 0.9629(6)
C19 C 0.5779(2) 0.0302(5) 0.59949(17)
H16 H 0.6239(2) -0.0675(5) 0.60240(17)
loop_
_geom_bond_atom_site_label_1
_geom_bond_atom_site_label_2
_geom_bond_site_symmetry_1
_geom_bond_site_symmetry_2
O1 C1 1_555 1_555
O2 C3 1_555 1_555
N1 C2 1_555 1_555
N2 H1 1_555 1_555
C1 C2 1_555 1_555
C2 N2 1_555 1_555
H2 C2 1_555 1_555
C3 N1 1_555 1_555
C4 N1 1_555 1_555
C5 N2 1_555 1_555
C6 C3 1_555 1_555
C7 C4 1_555 1_555
H3 C7 1_555 1_555
C8 C4 1_555 1_555
H4 C8 1_555 1_555
C9 H5 1_555 1_555
C10 C8 1_555 1_555
H6 C10 1_555 1_555
C11 C6 1_555 1_555
H7 C11 1_555 1_555
C12 C7 1_555 1_555
H8 C12 1_555 1_555
C13 C5 1_555 1_555
H9 C13 1_555 1_555
C14 C10 1_555 1_555
C15 C1 1_555 1_555
H10 C15 1_555 1_555
C16 C15 1_555 1_555
H11 C16 1_555 1_555
C17 C9 1_555 1_555
H12 C17 1_555 1_555
C18 C14 1_555 1_555
H13 C18 1_555 1_555
H14 C18 1_555 1_555
H15 C18 1_555 1_555
C19 O1 1_555 1_555
H16 C19 1_555 1_555
C5 C6 1_555 1_555
C9 C13 1_555 1_555
C11 C17 1_555 1_555
C12 C14 1_555 1_555
C16 C19 1_555 1_555

#END
