
#######################################################################
#
#                 Cambridge Crystallographic Data Centre
#                                CCDC 
#
#######################################################################
#
# If this CIF has been generated from an entry in the Cambridge 
# Structural Database, then it will include bibliographic, chemical, 
# crystal, experimental, refinement or atomic coordinate data resulting 
# from the CCDC's data processing and validation procedures.
#
#######################################################################

data_PAVXAN
_chemical_name_common            "4,4'-Bipyridine benzene-1,4-dicarboxylic acid"
_chemical_formula_moiety         'C10 H8 N2,C8 H6 O4'
_chemical_name_systematic        "4,4'-Bipyridine terephthalic acid"
_symmetry_cell_setting           triclinic
_symmetry_space_group_name_H-M   'P -1'
_symmetry_Int_Tables_number      2
_space_group_name_Hall           '-P 1'
loop_
_symmetry_equiv_pos_site_id
_symmetry_equiv_pos_as_xyz
1 x,y,z
2 -x,-y,-z
_cell_length_a                   6.783(4)
_cell_length_b                   6.895(4)
_cell_length_c                   8.161(5)
_cell_angle_alpha                98.340(8)
_cell_angle_beta                 95.845(9)
_cell_angle_gamma                104.623(8)
_cell_volume                     361.57
_exptl_crystal_colour            colorless
_exptl_crystal_description       rod
_cell_formula_units_Z            1
loop_
_atom_site_label
_atom_site_type_symbol
_atom_site_fract_x
_atom_site_fract_y
_atom_site_fract_z
C1 C 0.11190(17) 0.19752(17) 0.67373(14)
C2 C 0.05394(16) 0.35241(16) 0.58115(13)
C3 C -0.14077(17) 0.38403(17) 0.58505(14)
H1 H -0.2370 0.3048 0.6427
C4 C 0.19359(17) 0.46838(17) 0.49560(14)
H2 H 0.3260 0.4464 0.4924
O1 O 0.00764(13) 0.12024(14) 0.77275(11)
O2 O 0.28465(13) 0.15786(13) 0.63990(11)
H7 H 0.3174(12) 0.044(2) 0.7131(16)
C1A C -0.11190(17) 0.80248(17) 0.32627(14)
C2A C -0.05394(16) 0.64759(16) 0.41885(13)
C3A C 0.14077(17) 0.61597(17) 0.41495(14)
H1A H 0.2370 0.6952 0.3573
C4A C -0.19359(17) 0.53162(17) 0.50440(14)
H2A H -0.3260 0.5536 0.5076
O1A O -0.00764(13) 0.87976(14) 0.22725(11)
O2A O -0.28465(13) 0.84214(13) 0.36010(11)
H7A H -0.3174(12) 0.956(2) 0.2869(16)
C5 C 0.44781(18) 0.16270(17) 0.21492(14)
H3 H 0.3570 0.0943 0.2824
C6 C 0.39356(17) 0.31190(17) 0.13785(14)
H4 H 0.2664 0.3421 0.1512
C7 C 0.52575(16) 0.41778(16) 0.04063(13)
C8 C 0.70734(17) 0.36148(17) 0.02350(14)
H5 H 0.8020 0.4280 -0.0422
C9 C 0.74945(17) 0.20858(17) 0.10241(14)
H6 H 0.8731 0.1714 0.0881
N1 N 0.62329(15) 0.11110(14) 0.19795(12)
C5A C 0.55219(18) 0.83730(17) -0.21492(14)
H3A H 0.6430 0.9057 -0.2824
C6A C 0.60644(17) 0.68810(17) -0.13785(14)
H4A H 0.7336 0.6579 -0.1512
C7A C 0.47425(16) 0.58222(16) -0.04063(13)
C8A C 0.29266(17) 0.63852(17) -0.02350(14)
H5A H 0.1980 0.5720 0.0422
C9A C 0.25055(17) 0.79142(17) -0.10241(14)
H6A H 0.1269 0.8286 -0.0881
N1A N 0.37671(15) 0.88890(14) -0.19795(12)
loop_
_geom_bond_atom_site_label_1
_geom_bond_atom_site_label_2
_geom_bond_site_symmetry_1
_geom_bond_site_symmetry_2
C1 C2 1_555 1_555
C2 C3 1_555 1_555
C3 H1 1_555 1_555
C4 C2 1_555 1_555
H2 C4 1_555 1_555
C5 H3 1_555 1_555
C6 C5 1_555 1_555
H4 C6 1_555 1_555
C7 C6 1_555 1_555
C8 C7 1_555 1_555
H5 C8 1_555 1_555
C9 C8 1_555 1_555
H6 C9 1_555 1_555
N1 C5 1_555 1_555
O1 C1 1_555 1_555
O2 C1 1_555 1_555
H7 O2 1_555 1_555
C1A C2A 1_555 1_555
C2A C3A 1_555 1_555
C3A C4 1_555 1_555
H1A C3A 1_555 1_555
C4A C3 1_555 1_555
H2A C4A 1_555 1_555
C5A H3A 1_555 1_555
C6A C5A 1_555 1_555
H4A C6A 1_555 1_555
C7A C7 1_555 1_555
C8A C7A 1_555 1_555
H5A C8A 1_555 1_555
C9A C8A 1_555 1_555
H6A C9A 1_555 1_555
N1A C5A 1_555 1_555
O1A C1A 1_555 1_555
O2A C1A 1_555 1_555
H7A O2A 1_555 1_555
C9 N1 1_555 1_555
C2A C4A 1_555 1_555
C6A C7A 1_555 1_555
C9A N1A 1_555 1_555

#END
