
#######################################################################
#
#                 Cambridge Crystallographic Data Centre
#                                CCDC 
#
#######################################################################
#
# If this CIF has been generated from an entry in the Cambridge 
# Structural Database, then it will include bibliographic, chemical, 
# crystal, experimental, refinement or atomic coordinate data resulting 
# from the CCDC's data processing and validation procedures.
#
#######################################################################

data_PAVYIU
_chemical_formula_moiety         '2(C1 H6 N3 1+),C12 H8 O6 S2 2-,C10 H8'
_chemical_name_systematic        
'bis(Guanidinium) biphenyldisulfonate naphthalene clathrate'
_symmetry_cell_setting           triclinic
_symmetry_space_group_name_H-M   'P -1'
_symmetry_Int_Tables_number      2
_space_group_name_Hall           '-P 1'
loop_
_symmetry_equiv_pos_site_id
_symmetry_equiv_pos_as_xyz
1 x,y,z
2 -x,-y,-z
_cell_length_a                   6.1533(5)
_cell_length_b                   7.1738(6)
_cell_length_c                   14.584(1)
_cell_angle_alpha                98.313(1)
_cell_angle_beta                 90.198(2)
_cell_angle_gamma                93.657(2)
_cell_volume                     635.661
_exptl_crystal_colour            colorless
_exptl_crystal_description       block
_cell_formula_units_Z            1
loop_
_atom_site_label
_atom_site_type_symbol
_atom_site_fract_x
_atom_site_fract_y
_atom_site_fract_z
S1 S 0.34002(7) 0.22880(6) 0.35627(3)
O1 O 0.4246(2) 0.4256(2) 0.37228(10)
O2 O 0.1032(2) 0.2108(2) 0.36596(9)
O3 O 0.4518(2) 0.1106(2) 0.41160(10)
C1 C 0.3941(3) 0.1463(3) 0.23843(13)
C2 C 0.5977(3) 0.1862(3) 0.20232(15)
H1 H 0.7093(3) 0.2532(3) 0.24134(15)
C3 C 0.6378(3) 0.1288(3) 0.10999(15)
H2 H 0.7775(3) 0.1579(3) 0.08622(15)
C4 C 0.4786(3) 0.0290(3) 0.05034(13)
C5 C 0.2772(3) -0.0141(3) 0.08900(15)
H3 H 0.1669(3) -0.0853(3) 0.05083(15)
C6 C 0.2342(3) 0.0446(3) 0.18169(14)
H4 H 0.0953(3) 0.0151(3) 0.20610(14)
C4A C 0.5214(3) -0.0290(3) -0.05034(13)
C3A C 0.3622(3) -0.1288(3) -0.10999(15)
C2A C 0.4023(3) -0.1862(3) -0.20232(15)
C1A C 0.6059(3) -0.1463(3) -0.23843(13)
S1A S 0.65998(7) -0.22880(6) -0.35627(3)
O1A O 0.5754(2) -0.4256(2) -0.37228(10)
O2A O 0.8968(2) -0.2108(2) -0.36596(9)
O3A O 0.5482(2) -0.1106(2) -0.41160(10)
C6A C 0.7658(3) -0.0446(3) -0.18169(14)
C5A C 0.7228(3) 0.0141(3) -0.08900(15)
H3A H 0.8331(3) 0.0853(3) -0.05083(15)
H4A H 0.9047(3) -0.0151(3) -0.20610(14)
H1A H 0.2907(3) -0.2532(3) -0.24134(15)
H2A H 0.2225(3) -0.1579(3) -0.08622(15)
C7 C -0.0386(3) 0.7307(3) 0.41075(13)
N1 N 0.1772(3) 0.7537(2) 0.41423(13)
H5 H 0.2556(3) 0.6561(2) 0.41662(13)
H6 H 0.2420(3) 0.8667(2) 0.41415(13)
N2 N -0.1337(3) 0.5599(2) 0.41092(12)
H7 H -0.2766(3) 0.5430(2) 0.40824(12)
H8 H -0.0540(3) 0.4632(2) 0.41371(12)
N3 N -0.1544(3) 0.8788(2) 0.40660(12)
H9 H -0.2975(3) 0.8647(2) 0.40389(12)
H10 H -0.0882(3) 0.9912(2) 0.40656(12)
C8 C -0.1024(3) -0.4641(3) -0.00826(15)
C9 C -0.2225(4) -0.3828(3) 0.0683(2)
H11 H -0.3589(4) -0.3336(3) 0.0581(2)
C10 C -0.1441(4) -0.3744(3) 0.1569(2)
H12 H -0.2264(4) -0.3200(3) 0.2077(2)
C11 C 0.0577(4) -0.4461(4) 0.1729(2)
H13 H 0.1108(4) -0.4400(4) 0.2345(2)
C12 C -0.1778(4) -0.4756(3) -0.1008(2)
H14 H -0.3140(4) -0.4282(3) -0.1128(2)
C8A C 0.1024(3) -0.5359(3) 0.00826(15)
C9A C 0.2225(4) -0.6172(3) -0.0683(2)
H11A H 0.3589(4) -0.6664(3) -0.0581(2)
C10A C 0.1441(4) -0.6256(3) -0.1569(2)
H12A H 0.2264(4) -0.6800(3) -0.2077(2)
C11A C -0.0577(4) -0.5539(4) -0.1729(2)
H13A H -0.1108(4) -0.5600(4) -0.2345(2)
C12A C 0.1778(4) -0.5244(3) 0.1008(2)
H14A H 0.3140(4) -0.5718(3) 0.1128(2)
loop_
_geom_bond_atom_site_label_1
_geom_bond_atom_site_label_2
_geom_bond_site_symmetry_1
_geom_bond_site_symmetry_2
S1 O1 1_555 1_555
O2 S1 1_555 1_555
O3 S1 1_555 1_555
C1 S1 1_555 1_555
C2 C1 1_555 1_555
H1 C2 1_555 1_555
C3 C2 1_555 1_555
H2 C3 1_555 1_555
C4 C3 1_555 1_555
C5 C4 1_555 1_555
H3 C5 1_555 1_555
C6 C1 1_555 1_555
H4 C6 1_555 1_555
C7 N1 1_555 1_555
N1 H5 1_555 1_555
H6 N1 1_555 1_555
N2 C7 1_555 1_555
H7 N2 1_555 1_555
H8 N2 1_555 1_555
N3 C7 1_555 1_555
H9 N3 1_555 1_555
H10 N3 1_555 1_555
C8 C9 1_555 1_555
C9 H11 1_555 1_555
C10 C9 1_555 1_555
H12 C10 1_555 1_555
C11 C10 1_555 1_555
H13 C11 1_555 1_555
C12 C8 1_555 1_555
H14 C12 1_555 1_555
C4A C4 1_555 1_555
C3A C4A 1_555 1_555
C2A C3A 1_555 1_555
C1A C2A 1_555 1_555
S1A C1A 1_555 1_555
O1A S1A 1_555 1_555
O2A S1A 1_555 1_555
O3A S1A 1_555 1_555
C6A C1A 1_555 1_555
C5A C4A 1_555 1_555
H3A C5A 1_555 1_555
H4A C6A 1_555 1_555
H1A C2A 1_555 1_555
H2A C3A 1_555 1_555
C8A C8 1_555 1_555
C9A C8A 1_555 1_555
H11A C9A 1_555 1_555
C10A C9A 1_555 1_555
H12A C10A 1_555 1_555
C11A C12 1_555 1_555
H13A C11A 1_555 1_555
C12A C11 1_555 1_555
H14A C12A 1_555 1_555
C5 C6 1_555 1_555
C6A C5A 1_555 1_555
C8A C12A 1_555 1_555
C10A C11A 1_555 1_555

#END
