
#######################################################################
#
#                 Cambridge Crystallographic Data Centre
#                                CCDC 
#
#######################################################################
#
# If this CIF has been generated from an entry in the Cambridge 
# Structural Database, then it will include bibliographic, chemical, 
# crystal, experimental, refinement or atomic coordinate data resulting 
# from the CCDC's data processing and validation procedures.
#
#######################################################################

data_PAVYUG
_chemical_formula_moiety         '2(C1 H6 N3 1+),C12 H8 O6 S2 2-,C6 H4 Br2'
_chemical_name_systematic        
'bis(Guanidinium) biphenyldisulfonate p-dibromobenzene clathrate'
_symmetry_cell_setting           monoclinic
_symmetry_space_group_name_H-M   'P 21/c'
_symmetry_Int_Tables_number      14
_space_group_name_Hall           '-P 2ybc'
loop_
_symmetry_equiv_pos_site_id
_symmetry_equiv_pos_as_xyz
1 x,y,z
2 x,1/2-y,1/2+z
3 -x,-y,-z
4 -x,1/2+y,1/2-z
_cell_length_a                   15.3145(10)
_cell_length_b                   7.5637(5)
_cell_length_c                   23.9029(15)
_cell_angle_alpha                90
_cell_angle_beta                 105.321(1)
_cell_angle_gamma                90
_cell_volume                     2670.37
_exptl_crystal_colour            colorless
_exptl_crystal_description       plate
_cell_formula_units_Z            4
loop_
_atom_site_label
_atom_site_type_symbol
_atom_site_fract_x
_atom_site_fract_y
_atom_site_fract_z
S1 S 0.34182(9) -0.5146(2) 0.65039(6)
O1 O 0.4168(2) -0.6149(5) 0.6392(2)
O2 O 0.2598(2) -0.6226(5) 0.6409(2)
O3 O 0.3651(2) -0.4328(5) 0.70781(15)
C1 C 0.3165(3) -0.3405(7) 0.5993(2)
C2 C 0.3040(4) -0.1696(8) 0.6167(2)
H1 H 0.3131(4) -0.1441(8) 0.6568(2)
C3 C 0.2787(4) -0.0377(8) 0.5767(2)
H2 H 0.2710(4) 0.0791(8) 0.5892(2)
C4 C 0.2640(3) -0.0728(7) 0.5172(2)
C5 C 0.2786(4) -0.2439(8) 0.5005(2)
H3 H 0.2702(4) -0.2698(8) 0.4606(2)
C6 C 0.3054(4) -0.3769(8) 0.5411(2)
H4 H 0.3160(4) -0.4929(8) 0.5291(2)
C7 C 0.2330(3) 0.0700(7) 0.4735(2)
C8 C 0.2497(4) 0.0613(8) 0.4190(2)
H5 H 0.2797(4) -0.0393(8) 0.4092(2)
C9 C 0.2235(4) 0.1953(8) 0.3791(2)
H6 H 0.2354(4) 0.1867(8) 0.3421(2)
C10 C 0.1799(3) 0.3424(7) 0.3930(2)
C11 C 0.1593(4) 0.3518(8) 0.4464(2)
H7 H 0.1273(4) 0.4504(8) 0.4555(2)
C12 C 0.1863(4) 0.2155(8) 0.4857(2)
H8 H 0.1723(4) 0.2218(8) 0.5221(2)
S2 S 0.15665(9) 0.5230(2) 0.34426(6)
O4 O 0.0836(2) 0.6243(5) 0.3574(2)
O5 O 0.1318(2) 0.4488(5) 0.28575(15)
O6 O 0.2406(2) 0.6254(5) 0.3549(2)
C13 C -0.1291(4) 0.4459(8) 0.2626(3)
N1 N -0.1082(3) 0.5359(7) 0.3119(2)
H9 H -0.1507(3) 0.5643(7) 0.3288(2)
H10 H -0.0517(3) 0.5675(7) 0.3277(2)
N2 N -0.0646(3) 0.4085(7) 0.2368(2)
H11 H -0.0780(3) 0.3516(7) 0.2035(2)
H12 H -0.0083(3) 0.4407(7) 0.2530(2)
N3 N -0.2136(3) 0.3981(7) 0.2387(2)
H13 H -0.2564(3) 0.4262(7) 0.2555(2)
H14 H -0.2272(3) 0.3383(7) 0.2060(2)
C14 C 0.6252(4) -0.4286(7) 0.7363(2)
N4 N 0.6061(3) -0.5213(7) 0.6874(2)
H15 H 0.5497(3) -0.5496(7) 0.6702(2)
H16 H 0.6499(3) -0.5545(7) 0.6722(2)
N5 N 0.7108(3) -0.3859(7) 0.7626(2)
H17 H 0.7233(3) -0.3248(7) 0.7950(2)
H18 H 0.7547(3) -0.4190(7) 0.7474(2)
N6 N 0.5596(3) -0.3783(7) 0.7593(2)
H19 H 0.5030(3) -0.4064(7) 0.7422(2)
H20 H 0.5724(3) -0.3168(7) 0.7917(2)
C15 C 0.5323(4) -0.1586(10) 0.5248(3)
H21 H 0.5547(4) -0.2673(10) 0.5428(3)
C16 C 0.52114(11) -0.01472(15) 0.5584(3)
Br1 Br 0.55113(5) -0.03588(13) 0.64119(3)
C17 C 0.5115(3) -0.1437(6) 0.4678(2)
H22 H 0.5191(3) -0.2419(6) 0.4447(2)
C17B C 0.4885(3) 0.1437(6) 0.5322(2)
C15B C 0.4677(4) 0.1586(10) 0.4752(3)
H21B H 0.4453(4) 0.2673(10) 0.4572(3)
C16B C 0.47886(11) 0.01472(15) 0.4416(3)
Br1B Br 0.44887(5) 0.03588(13) 0.35881(3)
H22B H 0.4809(3) 0.2419(6) 0.5553(2)
C18 C 0.0218(3) -0.1325(6) 0.4637(2)
H23 H 0.0360(3) -0.2211(6) 0.4393(2)
C19 C -0.0287(4) 0.0171(9) 0.4409(3)
Br3 Br -0.06732(5) 0.04005(11) 0.35894(3)
C20 C 0.0505(4) -0.1457(9) 0.5242(3)
H24 H 0.0856(4) -0.2447(9) 0.5415(3)
C20B C -0.0505(4) 0.1457(9) 0.4758(3)
C18B C -0.0218(3) 0.1325(6) 0.5363(2)
H23B H -0.0360(3) 0.2211(6) 0.5607(2)
C19B C 0.0287(4) -0.0171(9) 0.5591(3)
Br3B Br 0.06732(5) -0.04005(11) 0.64106(3)
H24B H -0.0856(4) 0.2447(9) 0.4585(3)
Br2? Br 0.5401(3) -0.4040(6) 0.5490(2)
loop_
_geom_bond_atom_site_label_1
_geom_bond_atom_site_label_2
_geom_bond_site_symmetry_1
_geom_bond_site_symmetry_2
S1 O1 1_555 1_555
O2 S1 1_555 1_555
O3 S1 1_555 1_555
C1 S1 1_555 1_555
C2 C1 1_555 1_555
H1 C2 1_555 1_555
C3 C2 1_555 1_555
H2 C3 1_555 1_555
C4 C3 1_555 1_555
C5 C4 1_555 1_555
H3 C5 1_555 1_555
C6 C1 1_555 1_555
H4 C6 1_555 1_555
C7 C4 1_555 1_555
C8 C7 1_555 1_555
H5 C8 1_555 1_555
C9 C8 1_555 1_555
H6 C9 1_555 1_555
C10 C9 1_555 1_555
C11 C10 1_555 1_555
H7 C11 1_555 1_555
C12 C7 1_555 1_555
H8 C12 1_555 1_555
S2 C10 1_555 1_555
O4 S2 1_555 1_555
O5 S2 1_555 1_555
O6 S2 1_555 1_555
C13 N1 1_555 1_555
N1 H9 1_555 1_555
H10 N1 1_555 1_555
N2 C13 1_555 1_555
H11 N2 1_555 1_555
H12 N2 1_555 1_555
N3 C13 1_555 1_555
H13 N3 1_555 1_555
H14 N3 1_555 1_555
C14 N4 1_555 1_555
N4 H15 1_555 1_555
H16 N4 1_555 1_555
N5 C14 1_555 1_555
H17 N5 1_555 1_555
H18 N5 1_555 1_555
N6 C14 1_555 1_555
H19 N6 1_555 1_555
H20 N6 1_555 1_555
C15 H21 1_555 1_555
C16 C15 1_555 1_555
Br1 C16 1_555 1_555
C17 C15 1_555 1_555
H22 C17 1_555 1_555
C18 H23 1_555 1_555
C19 C18 1_555 1_555
Br3 C19 1_555 1_555
C20 C18 1_555 1_555
H24 C20 1_555 1_555
C17B C16 1_555 1_555
C15B C17B 1_555 1_555
H21B C15B 1_555 1_555
C16B C17 1_555 1_555
Br1B C16B 1_555 1_555
H22B C17B 1_555 1_555
C20B C19 1_555 1_555
C18B C20B 1_555 1_555
H23B C18B 1_555 1_555
C19B C20 1_555 1_555
Br3B C19B 1_555 1_555
H24B C20B 1_555 1_555
C5 C6 1_555 1_555
C11 C12 1_555 1_555
C15B C16B 1_555 1_555
C18B C19B 1_555 1_555

#END
