
#######################################################################
#
#                 Cambridge Crystallographic Data Centre
#                                CCDC 
#
#######################################################################
#
# If this CIF has been generated from an entry in the Cambridge 
# Structural Database, then it will include bibliographic, chemical, 
# crystal, experimental, refinement or atomic coordinate data resulting 
# from the CCDC's data processing and validation procedures.
#
#######################################################################

data_PAVZUJ
_chemical_name_common            (S)-N-Phenyl-t-butanesulfinamide
_chemical_formula_moiety         'C10 H15 N1 O1 S1'
_chemical_name_systematic        (S)-2-Methyl-N-phenylpropane-2-sulfinamide
_symmetry_cell_setting           orthorhombic
_symmetry_space_group_name_H-M   'P 21 21 21'
_symmetry_Int_Tables_number      19
_space_group_name_Hall           'P 2ac 2ab'
loop_
_symmetry_equiv_pos_site_id
_symmetry_equiv_pos_as_xyz
1 x,y,z
2 1/2-x,-y,1/2+z
3 1/2+x,1/2-y,-z
4 -x,1/2+y,1/2-z
_cell_length_a                   9.3596(4)
_cell_length_b                   10.4702(4)
_cell_length_c                   22.7438(10)
_cell_angle_alpha                90
_cell_angle_beta                 90
_cell_angle_gamma                90
_cell_volume                     2228.82
_exptl_crystal_colour            colorless
_exptl_crystal_description       block
_chemical_melting_point          '383-386 K'
_cell_formula_units_Z            8
loop_
_atom_site_label
_atom_site_type_symbol
_atom_site_fract_x
_atom_site_fract_y
_atom_site_fract_z
S1 S -0.63522(11) -0.88887(8) -0.08184(4)
O1 O -0.6196(3) -0.7833(2) -0.12453(11)
N1 N -0.5152(4) -0.9991(3) -0.09407(14)
H1 H -0.517(3) -1.037(2) -0.1245(12)
C1 C -0.3963(4) -1.0169(3) -0.05740(14)
C2 C -0.3226(4) -1.1295(3) -0.06151(15)
H2 H -0.3507 -1.1910 -0.0887
C3 C -0.2065(5) -1.1521(4) -0.02543(17)
H3 H -0.1560 -1.2283 -0.0289
C4 C -0.1653(5) -1.0632(5) 0.01535(16)
H4 H -0.0881 -1.0792 0.0400
C5 C -0.2383(5) -0.9517(4) 0.01931(17)
H5 H -0.2106 -0.8912 0.0470
C6 C -0.3530(5) -0.9262(3) -0.01707(15)
H6 H -0.4007 -0.8485 -0.0144
C7 C -0.7985(4) -0.9729(3) -0.10372(14)
C8 C -0.7966(4) -0.9995(4) -0.17018(14)
H7 H -0.7820 -0.9209 -0.1911
H8 H -0.8861 -1.0365 -0.1818
H9 H -0.7204 -1.0577 -0.1792
C9 C -0.9184(4) -0.8808(3) -0.08820(16)
H10 H -0.9160 -0.8631 -0.0468
H11 H -1.0086 -0.9185 -0.0982
H12 H -0.9061 -0.8027 -0.1097
C10 C -0.8088(4) -1.0947(3) -0.06758(17)
H13 H -0.7340 -1.1523 -0.0790
H14 H -0.8999 -1.1343 -0.0743
H15 H -0.7991 -1.0744 -0.0266
S2 S 0.04812(9) -1.49605(8) 0.25283(4)
O2 O 0.0446(3) -1.3883(2) 0.20975(9)
N2 N 0.0029(4) -1.4435(3) 0.31882(13)
H16 H 0.042(3) -1.376(2) 0.3290(11)
C11 C -0.1317(4) -1.4709(3) 0.34283(13)
C12 C -0.2013(4) -1.5837(3) 0.33049(14)
H17 H -0.1604 -1.6432 0.3052
C13 C -0.3322(4) -1.6075(4) 0.35607(17)
H18 H -0.3804 -1.6823 0.3466
C14 C -0.3932(4) -1.5244(5) 0.39494(17)
H19 H -0.4807 -1.5427 0.4123
C15 C -0.3220(4) -1.4137(4) 0.40762(16)
H20 H -0.3619 -1.3566 0.4343
C16 C -0.1937(4) -1.3846(3) 0.38212(14)
H21 H -0.1481 -1.3080 0.3909
C17 C 0.2373(4) -1.5304(3) 0.26576(14)
C18 C 0.2876(5) -1.5848(4) 0.20743(18)
H22 H 0.2232 -1.6508 0.1950
H23 H 0.3817 -1.6199 0.2120
H24 H 0.2898 -1.5182 0.1785
C19 C 0.3190(4) -1.4111(3) 0.28162(15)
H25 H 0.3082 -1.3490 0.2509
H26 H 0.4184 -1.4314 0.2863
H27 H 0.2825 -1.3768 0.3178
C20 C 0.2443(5) -1.6306(4) 0.31436(17)
H28 H 0.2186 -1.5922 0.3512
H29 H 0.3397 -1.6639 0.3169
H30 H 0.1791 -1.6988 0.3056
loop_
_geom_bond_atom_site_label_1
_geom_bond_atom_site_label_2
_geom_bond_site_symmetry_1
_geom_bond_site_symmetry_2
S1 O1 1_555 1_555
N1 S1 1_555 1_555
H1 N1 1_555 1_555
C1 N1 1_555 1_555
C2 C1 1_555 1_555
H2 C2 1_555 1_555
C3 C2 1_555 1_555
H3 C3 1_555 1_555
C4 C3 1_555 1_555
H4 C4 1_555 1_555
C5 C4 1_555 1_555
H5 C5 1_555 1_555
C6 C1 1_555 1_555
H6 C6 1_555 1_555
C7 S1 1_555 1_555
C8 C7 1_555 1_555
H7 C8 1_555 1_555
H8 C8 1_555 1_555
H9 C8 1_555 1_555
C9 C7 1_555 1_555
H10 C9 1_555 1_555
H11 C9 1_555 1_555
H12 C9 1_555 1_555
C10 C7 1_555 1_555
H13 C10 1_555 1_555
H14 C10 1_555 1_555
H15 C10 1_555 1_555
S2 O2 1_555 1_555
N2 S2 1_555 1_555
H16 N2 1_555 1_555
C11 N2 1_555 1_555
C12 C11 1_555 1_555
H17 C12 1_555 1_555
C13 C12 1_555 1_555
H18 C13 1_555 1_555
C14 C13 1_555 1_555
H19 C14 1_555 1_555
C15 C14 1_555 1_555
H20 C15 1_555 1_555
C16 C11 1_555 1_555
H21 C16 1_555 1_555
C17 S2 1_555 1_555
C18 C17 1_555 1_555
H22 C18 1_555 1_555
H23 C18 1_555 1_555
H24 C18 1_555 1_555
C19 C17 1_555 1_555
H25 C19 1_555 1_555
H26 C19 1_555 1_555
H27 C19 1_555 1_555
C20 C17 1_555 1_555
H28 C20 1_555 1_555
H29 C20 1_555 1_555
H30 C20 1_555 1_555
C5 C6 1_555 1_555
C15 C16 1_555 1_555

#END
