
#######################################################################
#
#                 Cambridge Crystallographic Data Centre
#                                CCDC 
#
#######################################################################
#
# If this CIF has been generated from an entry in the Cambridge 
# Structural Database, then it will include bibliographic, chemical, 
# crystal, experimental, refinement or atomic coordinate data resulting 
# from the CCDC's data processing and validation procedures.
#
#######################################################################

data_PAVZOD
_chemical_formula_moiety         'C10 H9 F2 N3 O1'
_chemical_name_systematic        
1-(2,4-Difluorophenyl)-2-(1H-1,2,4-triazol-1-yl)ethanol
_symmetry_cell_setting           orthorhombic
_symmetry_space_group_name_H-M   'P 21 21 21'
_symmetry_Int_Tables_number      19
_space_group_name_Hall           'P 2ac 2ab'
loop_
_symmetry_equiv_pos_site_id
_symmetry_equiv_pos_as_xyz
1 x,y,z
2 1/2-x,-y,1/2+z
3 1/2+x,1/2-y,-z
4 -x,1/2+y,1/2-z
_cell_length_a                   5.3770(11)
_cell_length_b                   12.598(3)
_cell_length_c                   15.601(3)
_cell_angle_alpha                90
_cell_angle_beta                 90
_cell_angle_gamma                90
_cell_volume                     1056.8
_exptl_crystal_colour            colorless
_exptl_crystal_description       plate
_chemical_melting_point          '391-393 K'
_cell_formula_units_Z            4
loop_
_atom_site_label
_atom_site_type_symbol
_atom_site_fract_x
_atom_site_fract_y
_atom_site_fract_z
F1 F 1.0193(5) 0.0759(2) 0.69521(16)
F2 F 0.7227(6) 0.42266(16) 0.67885(15)
O1 O 0.5799(5) -0.0141(2) 0.49259(14)
N1 N 0.5125(5) -0.1766(2) 0.62303(17)
N2 N 0.7087(6) -0.2399(2) 0.6393(2)
N3 N 0.3927(6) -0.3347(3) 0.5866(2)
C1 C 0.6906(6) 0.1114(2) 0.60153(17)
C2 C 0.8583(6) 0.1469(3) 0.6608(2)
C3 C 0.8761(8) 0.2503(3) 0.6881(2)
C4 C 0.7107(8) 0.3195(3) 0.6541(2)
C5 C 0.5350(8) 0.2905(3) 0.5961(2)
C6 C 0.5262(7) 0.1855(3) 0.5700(2)
C7 C 0.6804(6) -0.0045(2) 0.57500(18)
C8 C 0.5227(7) -0.0634(3) 0.6398(2)
C9 C 0.3289(7) -0.2346(3) 0.5921(2)
C10 C 0.6262(8) -0.3331(3) 0.6162(3)
H1 H 0.66000 -0.05800 0.46520
H2 H 0.99530 0.27150 0.72770
H3 H 0.42310 0.34000 0.57450
H4 H 0.40680 0.16460 0.53030
H5 H 0.84910 -0.03400 0.57530
H6 H 0.59030 -0.05180 0.69660
H7 H 0.35530 -0.03490 0.63880
H8 H 0.17440 -0.20790 0.57620
H9 H 0.72300 -0.39410 0.62000
loop_
_geom_bond_atom_site_label_1
_geom_bond_atom_site_label_2
_geom_bond_site_symmetry_1
_geom_bond_site_symmetry_2
F1 C2 1_555 1_555
F2 C4 1_555 1_555
O1 C7 1_555 1_555
N1 N2 1_555 1_555
N2 C10 1_555 1_555
N3 C9 1_555 1_555
C1 C2 1_555 1_555
C2 C3 1_555 1_555
C3 C4 1_555 1_555
C4 C5 1_555 1_555
C5 C6 1_555 1_555
C6 C1 1_555 1_555
C7 C1 1_555 1_555
C8 N1 1_555 1_555
C9 N1 1_555 1_555
C10 N3 1_555 1_555
H1 O1 1_555 1_555
H2 C3 1_555 1_555
H3 C5 1_555 1_555
H4 C6 1_555 1_555
H5 C7 1_555 1_555
H6 C8 1_555 1_555
H7 C8 1_555 1_555
H8 C9 1_555 1_555
H9 C10 1_555 1_555
C7 C8 1_555 1_555

#END
