
#######################################################################
#
#                 Cambridge Crystallographic Data Centre
#                                CCDC 
#
#######################################################################
#
# If this CIF has been generated from an entry in the Cambridge 
# Structural Database, then it will include bibliographic, chemical, 
# crystal, experimental, refinement or atomic coordinate data resulting 
# from the CCDC's data processing and validation procedures.
#
#######################################################################

data_PAWDEZ
_chemical_formula_moiety         'C16 H18 N4 O2 Se2'
_chemical_name_systematic        
2,2'-(diselane-1,2-diyl)bis(N,N-dimethylpyridine-3-carboxamide)
_symmetry_cell_setting           monoclinic
_symmetry_space_group_name_H-M   'P 21/n'
_symmetry_Int_Tables_number      14
_space_group_name_Hall           '-P 2yn'
loop_
_symmetry_equiv_pos_site_id
_symmetry_equiv_pos_as_xyz
1 x,y,z
2 1/2-x,1/2+y,1/2-z
3 -x,-y,-z
4 1/2+x,1/2-y,1/2+z
_cell_length_a                   7.167(2)
_cell_length_b                   8.726(3)
_cell_length_c                   13.947(4)
_cell_angle_alpha                90
_cell_angle_beta                 96.375(4)
_cell_angle_gamma                90
_cell_volume                     866.841
_exptl_crystal_colour            colorless
_exptl_crystal_description       block
_cell_formula_units_Z            2
_exptl_crystal_recrystallization_method chloroform/cyclohexane
loop_
_atom_site_label
_atom_site_type_symbol
_atom_site_fract_x
_atom_site_fract_y
_atom_site_fract_z
Se1 Se 0.52041(4) 0.56001(3) 0.92626(2)
N1 N 0.1797(4) 0.6437(3) 0.99097(18)
N2 N 0.4942(4) 0.9794(3) 0.79999(18)
O1 O 0.4595(4) 0.7382(3) 0.74625(17)
C1 C 0.2981(4) 0.6827(3) 0.9288(2)
C2 C 0.2725(4) 0.8092(3) 0.8665(2)
C3 C 0.1072(5) 0.8902(4) 0.8669(2)
H1 H 0.0823 0.9734 0.8257
C4 C -0.0211(5) 0.8469(4) 0.9289(2)
H2 H -0.1344 0.8987 0.9289
C5 C 0.0220(4) 0.7258(4) 0.9903(2)
H3 H -0.0627 0.6996 1.0335
C6 C 0.4161(4) 0.8408(3) 0.7996(2)
C7 C 0.4669(5) 1.1022(4) 0.8681(3)
H4 H 0.3853 1.1787 0.8368
H5 H 0.5860 1.1477 0.8902
H6 H 0.4116 1.0610 0.9222
C8 C 0.6280(5) 1.0111(4) 0.7320(3)
H7 H 0.7067 0.9231 0.7268
H8 H 0.7042 1.0973 0.7541
H9 H 0.5619 1.0339 0.6699
Se1B Se 0.47959(4) 0.43999(3) 1.07374(2)
N1B N 0.8203(4) 0.3563(3) 1.00903(18)
N2B N 0.5058(4) 0.0206(3) 1.20001(18)
O1B O 0.5405(4) 0.2618(3) 1.25375(17)
C1B C 0.7019(4) 0.3173(3) 1.0712(2)
C2B C 0.7275(4) 0.1908(3) 1.1335(2)
C3B C 0.8928(5) 0.1098(4) 1.1331(2)
H1B H 0.9177 0.0266 1.1743
C4B C 1.0211(5) 0.1531(4) 1.0711(2)
H2B H 1.1344 0.1013 1.0711
C5B C 0.9780(4) 0.2742(4) 1.0097(2)
H3B H 1.0627 0.3004 0.9665
C6B C 0.5839(4) 0.1592(3) 1.2004(2)
C7B C 0.5331(5) -0.1022(4) 1.1319(3)
H4B H 0.6147 -0.1787 1.1632
H5B H 0.4140 -0.1477 1.1098
H6B H 0.5884 -0.0610 1.0778
C8B C 0.3720(5) -0.0111(4) 1.2680(3)
H7B H 0.2933 0.0769 1.2732
H8B H 0.2958 -0.0973 1.2459
H9B H 0.4381 -0.0339 1.3301
loop_
_geom_bond_atom_site_label_1
_geom_bond_atom_site_label_2
_geom_bond_site_symmetry_1
_geom_bond_site_symmetry_2
Se1 C1 1_555 1_555
N1 C1 1_555 1_555
N2 C6 1_555 1_555
O1 C6 1_555 1_555
C1 C2 1_555 1_555
C2 C3 1_555 1_555
C3 H1 1_555 1_555
C4 C3 1_555 1_555
H2 C4 1_555 1_555
C5 N1 1_555 1_555
H3 C5 1_555 1_555
C6 C2 1_555 1_555
C7 N2 1_555 1_555
H4 C7 1_555 1_555
H5 C7 1_555 1_555
H6 C7 1_555 1_555
C8 N2 1_555 1_555
H7 C8 1_555 1_555
H8 C8 1_555 1_555
H9 C8 1_555 1_555
Se1B Se1 1_555 1_555
N1B C1B 1_555 1_555
N2B C6B 1_555 1_555
O1B C6B 1_555 1_555
C1B Se1B 1_555 1_555
C2B C1B 1_555 1_555
C3B C2B 1_555 1_555
H1B C3B 1_555 1_555
C4B C3B 1_555 1_555
H2B C4B 1_555 1_555
C5B N1B 1_555 1_555
H3B C5B 1_555 1_555
C6B C2B 1_555 1_555
C7B N2B 1_555 1_555
H4B C7B 1_555 1_555
H5B C7B 1_555 1_555
H6B C7B 1_555 1_555
C8B N2B 1_555 1_555
H7B C8B 1_555 1_555
H8B C8B 1_555 1_555
H9B C8B 1_555 1_555
C4 C5 1_555 1_555
C4B C5B 1_555 1_555

#END
