
#######################################################################
#
#                 Cambridge Crystallographic Data Centre
#                                CCDC 
#
#######################################################################
#
# If this CIF has been generated from an entry in the Cambridge 
# Structural Database, then it will include bibliographic, chemical, 
# crystal, experimental, refinement or atomic coordinate data resulting 
# from the CCDC's data processing and validation procedures.
#
#######################################################################

data_PAWHOM
_chemical_name_common            
2,3-Dimethoxy-13-methyl-5,6,12,13,14,15-hexahydro[1,3]benzodioxolo[4,5-c]benzo[g]azecin-5-ol
_chemical_formula_moiety         'C21 H25 N1 O5'
_chemical_name_systematic        
6,7-Dimethoxy-12-methyl-16,18-dioxa-12-azatetracyclo[12.7.0.0^4,9^.0^15,19^]henicosa-1(21),4,6,8,14,19-hexaen-3-ol
_symmetry_cell_setting           monoclinic
_symmetry_space_group_name_H-M   'P 21/c'
_symmetry_Int_Tables_number      14
_space_group_name_Hall           '-P 2ybc'
loop_
_symmetry_equiv_pos_site_id
_symmetry_equiv_pos_as_xyz
1 x,y,z
2 -x,1/2+y,1/2-z
3 -x,-y,-z
4 x,1/2-y,1/2+z
_cell_length_a                   9.5810(16)
_cell_length_b                   6.7405(12)
_cell_length_c                   28.886(5)
_cell_angle_alpha                90
_cell_angle_beta                 92.164(2)
_cell_angle_gamma                90
_cell_volume                     1864.15
_exptl_crystal_colour            colorless
_exptl_crystal_description       block
_cell_formula_units_Z            4
loop_
_atom_site_label
_atom_site_type_symbol
_atom_site_fract_x
_atom_site_fract_y
_atom_site_fract_z
C1 C 0.7221(2) 0.5338(3) 0.34220(6)
H1 H 0.6576 0.6282 0.3550
H2 H 0.8016 0.5203 0.3638
C2 C 0.72327(15) 0.4630(2) 0.26692(5)
C3 C 0.65789(15) 0.3100(3) 0.28885(5)
C4 C 0.60582(15) 0.1506(2) 0.26509(5)
H3 H 0.5641 0.0445 0.2798
C5 C 0.61899(14) 0.1562(2) 0.21705(5)
H4 H 0.5837 0.0503 0.1996
C6 C 0.68174(13) 0.3111(2) 0.19394(5)
C7 C 0.73928(15) 0.4729(2) 0.21985(5)
C8 C 0.80651(18) 0.6541(2) 0.19944(5)
H5 H 0.7337 0.7419 0.1873
H6 H 0.8579 0.7244 0.2239
C9 C 0.92335(19) 0.7795(2) 0.13244(6)
H7 H 1.0044 0.7549 0.1141
H8 H 0.9429 0.8954 0.1515
C10 C 0.79804(19) 0.8230(2) 0.09997(6)
H9 H 0.7165 0.8392 0.1185
H10 H 0.8141 0.9485 0.0846
C11 C 0.76530(15) 0.6684(2) 0.06336(5)
C12 C 0.67469(14) 0.5083(2) 0.06902(5)
C13 C 0.60773(14) 0.4639(2) 0.11475(5)
H11 H 0.6067 0.5852 0.1334
C14 C 0.68894(14) 0.3028(2) 0.14177(4)
H12 H 0.6543 0.1744 0.1314
H13 H 0.7863 0.3110 0.1338
C15 C 1.03219(19) 0.5291(4) 0.18198(7)
H14 H 1.0963 0.5089 0.1577
H15 H 1.0145 0.4048 0.1969
H16 H 1.0718 0.6208 0.2042
C16 C 0.64789(15) 0.3799(2) 0.03173(5)
H17 H 0.5874 0.2737 0.0354
C17 C 0.70861(15) 0.4061(2) -0.01042(5)
C18 C 0.80076(15) 0.5652(2) -0.01613(5)
C19 C 0.82693(16) 0.6915(2) 0.02052(5)
H18 H 0.8882 0.7967 0.0167
C20 C 0.5989(2) 0.1198(3) -0.04403(6)
H19 H 0.6408 0.0319 -0.0214
H20 H 0.5888 0.0524 -0.0732
H21 H 0.5087 0.1606 -0.0342
C21 C 0.95733(18) 0.7328(3) -0.06464(6)
H22 H 0.9147 0.8601 -0.0605
H23 H 0.9929 0.7246 -0.0952
H24 H 1.0326 0.7159 -0.0421
N1 N 0.90152(13) 0.60922(19) 0.16244(4)
O1 O 0.76747(15) 0.6038(2) 0.29889(4)
O2 O 0.65523(14) 0.3471(2) 0.33582(4)
O3 O 0.46774(10) 0.39104(16) 0.10842(4)
H25 H 0.4165 0.4813 0.0992
O4 O 0.68526(12) 0.28907(18) -0.04891(3)
O5 O 0.85638(11) 0.58148(19) -0.05891(4)
loop_
_geom_bond_atom_site_label_1
_geom_bond_atom_site_label_2
_geom_bond_site_symmetry_1
_geom_bond_site_symmetry_2
C1 H1 1_555 1_555
H2 C1 1_555 1_555
C2 C3 1_555 1_555
C3 C4 1_555 1_555
C4 H3 1_555 1_555
C5 C4 1_555 1_555
H4 C5 1_555 1_555
C6 C5 1_555 1_555
C7 C2 1_555 1_555
C8 C7 1_555 1_555
H5 C8 1_555 1_555
H6 C8 1_555 1_555
C9 H7 1_555 1_555
H8 C9 1_555 1_555
C10 C9 1_555 1_555
H9 C10 1_555 1_555
H10 C10 1_555 1_555
C11 C10 1_555 1_555
C12 C11 1_555 1_555
C13 C12 1_555 1_555
H11 C13 1_555 1_555
C14 C6 1_555 1_555
H12 C14 1_555 1_555
H13 C14 1_555 1_555
C15 H14 1_555 1_555
H15 C15 1_555 1_555
H16 C15 1_555 1_555
C16 C12 1_555 1_555
H17 C16 1_555 1_555
C17 C16 1_555 1_555
C18 C17 1_555 1_555
C19 C11 1_555 1_555
H18 C19 1_555 1_555
C20 H19 1_555 1_555
H20 C20 1_555 1_555
H21 C20 1_555 1_555
C21 H22 1_555 1_555
H23 C21 1_555 1_555
H24 C21 1_555 1_555
N1 C8 1_555 1_555
O1 C1 1_555 1_555
O2 C1 1_555 1_555
O3 C13 1_555 1_555
H25 O3 1_555 1_555
O4 C17 1_555 1_555
O5 C18 1_555 1_555
C2 O1 1_555 1_555
C3 O2 1_555 1_555
C6 C7 1_555 1_555
C9 N1 1_555 1_555
C13 C14 1_555 1_555
C15 N1 1_555 1_555
C18 C19 1_555 1_555
C20 O4 1_555 1_555
C21 O5 1_555 1_555

#END
