
#######################################################################
#
#                 Cambridge Crystallographic Data Centre
#                                CCDC 
#
#######################################################################
#
# If this CIF has been generated from an entry in the Cambridge 
# Structural Database, then it will include bibliographic, chemical, 
# crystal, experimental, refinement or atomic coordinate data resulting 
# from the CCDC's data processing and validation procedures.
#
#######################################################################

data_PAWKUV
_chemical_formula_moiety         'C14 H9 F1 N2'
_chemical_name_systematic        2-(4-Fluorophenyl)quinoxaline
_symmetry_cell_setting           monoclinic
_symmetry_space_group_name_H-M   'C 2/c'
_symmetry_Int_Tables_number      15
_space_group_name_Hall           '-C 2yn'
loop_
_symmetry_equiv_pos_site_id
_symmetry_equiv_pos_as_xyz
1 x,y,z
2 -x,y,1/2-z
3 1/2+x,1/2+y,z
4 1/2-x,1/2+y,1/2-z
5 -x,-y,-z
6 x,-y,1/2+z
7 1/2-x,1/2-y,-z
8 1/2+x,1/2-y,1/2+z
_cell_length_a                   24.249(13)
_cell_length_b                   3.7925(19)
_cell_length_c                   22.609(13)
_cell_angle_alpha                90
_cell_angle_beta                 91.866(9)
_cell_angle_gamma                90
_cell_volume                     2078.12
_exptl_crystal_colour            colorless
_exptl_crystal_description       prism
_cell_formula_units_Z            8
loop_
_atom_site_label
_atom_site_type_symbol
_atom_site_fract_x
_atom_site_fract_y
_atom_site_fract_z
F1 F 0.46580(3) 0.67692(19) 1.18737(3)
N1 N 0.39311(3) 0.1470(2) 0.93164(4)
N2 N 0.28374(3) -0.1127(2) 0.93193(4)
C1 C 0.36818(4) 0.0119(3) 0.88147(4)
C2 C 0.39774(4) -0.0011(3) 0.82863(5)
H1 H 0.4347 0.0813 0.8283
C3 C 0.37306(5) -0.1322(3) 0.77801(5)
H2 H 0.3931 -0.1408 0.7426
C4 C 0.31805(5) -0.2552(3) 0.77785(5)
H3 H 0.3013 -0.3434 0.7423
C5 C 0.28877(4) -0.2481(3) 0.82842(5)
H4 H 0.2519 -0.3332 0.8280
C6 C 0.31319(4) -0.1147(3) 0.88123(5)
C7 C 0.30886(4) 0.0153(3) 0.97928(5)
H5 H 0.2895 0.0180 1.0152
C8 C 0.36398(4) 0.1514(3) 0.97994(5)
C9 C 0.38994(4) 0.2927(3) 1.03511(4)
C10 C 0.35866(4) 0.4178(3) 1.08148(5)
H6 H 0.3195 0.4132 1.0779
C11 C 0.38416(5) 0.5485(3) 1.13269(5)
H7 H 0.3630 0.6352 1.1642
C12 C 0.44101(5) 0.5499(3) 1.13683(5)
C13 C 0.47352(4) 0.4309(3) 1.09221(5)
H8 H 0.5126 0.4356 1.0963
C14 C 0.44741(4) 0.3042(3) 1.04120(5)
H9 H 0.4690 0.2235 1.0096
loop_
_geom_bond_atom_site_label_1
_geom_bond_atom_site_label_2
_geom_bond_site_symmetry_1
_geom_bond_site_symmetry_2
F1 C12 1_555 1_555
N1 C1 1_555 1_555
N2 C6 1_555 1_555
C1 C2 1_555 1_555
C2 H1 1_555 1_555
C3 C2 1_555 1_555
H2 C3 1_555 1_555
C4 C3 1_555 1_555
H3 C4 1_555 1_555
C5 C4 1_555 1_555
H4 C5 1_555 1_555
C6 C1 1_555 1_555
C7 N2 1_555 1_555
H5 C7 1_555 1_555
C8 N1 1_555 1_555
C9 C8 1_555 1_555
C10 C9 1_555 1_555
H6 C10 1_555 1_555
C11 C10 1_555 1_555
H7 C11 1_555 1_555
C12 C11 1_555 1_555
C13 C12 1_555 1_555
H8 C13 1_555 1_555
C14 C9 1_555 1_555
H9 C14 1_555 1_555
C5 C6 1_555 1_555
C7 C8 1_555 1_555
C13 C14 1_555 1_555

#END
