
#######################################################################
#
#                 Cambridge Crystallographic Data Centre
#                                CCDC 
#
#######################################################################
#
# If this CIF has been generated from an entry in the Cambridge 
# Structural Database, then it will include bibliographic, chemical, 
# crystal, experimental, refinement or atomic coordinate data resulting 
# from the CCDC's data processing and validation procedures.
#
#######################################################################

data_PAWLEH
_chemical_formula_moiety         'C21 H17 N1 O6'
_chemical_name_systematic        
'dimethyl 13-amino-16-methyl-12,17-dioxapentacyclo[9.3.3.1^2,6^.0^1,11^.0^10,18^]octadeca-2,4,6(18),7,9,13,15-heptaene-14,15-dicarboxylate'
_symmetry_cell_setting           monoclinic
_symmetry_space_group_name_H-M   'P 21/c'
_symmetry_Int_Tables_number      14
_space_group_name_Hall           '-P 2ybc'
loop_
_symmetry_equiv_pos_site_id
_symmetry_equiv_pos_as_xyz
1 x,y,z
2 -x,1/2+y,1/2-z
3 -x,-y,-z
4 x,1/2-y,1/2+z
_cell_length_a                   14.5132(15)
_cell_length_b                   7.5776(5)
_cell_length_c                   16.2449(18)
_cell_angle_alpha                90
_cell_angle_beta                 108.133(2)
_cell_angle_gamma                90
_cell_volume                     1697.81
_cell_formula_units_Z            4
loop_
_atom_site_label
_atom_site_type_symbol
_atom_site_fract_x
_atom_site_fract_y
_atom_site_fract_z
N1 N 0.1967(4) 0.8641(7) 0.3214(3)
H1 H 0.2001 0.9663 0.3451
H2 H 0.1864 0.8555 0.2665
O1 O 0.2023(3) 0.5666(5) 0.3243(3)
O2 O 0.1369(3) 0.3188(6) 0.3615(3)
O3 O 0.2640(4) 0.8154(5) 0.5922(3)
O4 O 0.2286(4) 1.0012(6) 0.4817(3)
O5 O 0.0594(3) 0.3239(7) 0.5837(3)
O6 O 0.1851(4) 0.4983(6) 0.6423(3)
C1 C 0.2074(5) 0.7183(8) 0.3699(4)
C2 C 0.2235(5) 0.6983(8) 0.4537(4)
C3 C 0.2343(4) 0.5035(7) 0.4760(4)
C4 C 0.2203(5) 0.4245(8) 0.3848(4)
C5 C 0.3334(5) 0.4413(8) 0.5278(4)
C6 C 0.3879(5) 0.4641(9) 0.6113(4)
H3 H 0.3645 0.5282 0.6494
C7 C 0.4802(5) 0.3891(10) 0.6386(5)
H4 H 0.5178 0.4039 0.6961
C8 C 0.5177(5) 0.2958(9) 0.5856(5)
H5 H 0.5799 0.2490 0.6072
C9 C 0.4651(5) 0.2692(8) 0.5003(4)
C10 C 0.3719(5) 0.3447(8) 0.4731(4)
C11 C 0.3115(5) 0.3277(8) 0.3885(4)
C12 C 0.3373(6) 0.2350(9) 0.3285(5)
H6 H 0.2959 0.2227 0.2722
C13 C 0.4294(6) 0.1580(10) 0.3552(5)
H7 H 0.4489 0.0933 0.3149
C14 C 0.4917(6) 0.1727(9) 0.4365(5)
H8 H 0.5522 0.1191 0.4507
C15 C 0.1515(5) 0.4153(8) 0.4976(4)
C16 C 0.1015(5) 0.3125(9) 0.4306(4)
C17 C 0.0173(5) 0.1958(10) 0.4148(5)
H9 H 0.0387 0.0785 0.4338
H10 H -0.0178 0.1942 0.3540
H11 H -0.0243 0.2382 0.4464
C18 C 0.2360(5) 0.8484(9) 0.5068(5)
C19 C 0.2797(6) 0.9668(9) 0.6464(5)
H12 H 0.3377 1.0259 0.6448
H13 H 0.2866 0.9313 0.7047
H14 H 0.2255 1.0454 0.6262
C20 C 0.1357(5) 0.4198(9) 0.5793(5)
C21 C 0.0440(5) 0.3119(11) 0.6658(4)
H15 H 0.1029 0.2756 0.7086
H16 H -0.0061 0.2270 0.6628
H17 H 0.0246 0.4251 0.6813
loop_
_geom_bond_atom_site_label_1
_geom_bond_atom_site_label_2
_geom_bond_site_symmetry_1
_geom_bond_site_symmetry_2
N1 H1 1_555 1_555
H2 N1 1_555 1_555
O1 C1 1_555 1_555
O2 C4 1_555 1_555
O3 C18 1_555 1_555
O4 C18 1_555 1_555
O5 C20 1_555 1_555
O6 C20 1_555 1_555
C1 N1 1_555 1_555
C2 C1 1_555 1_555
C3 C2 1_555 1_555
C4 O1 1_555 1_555
C5 C3 1_555 1_555
C6 C5 1_555 1_555
H3 C6 1_555 1_555
C7 C6 1_555 1_555
H4 C7 1_555 1_555
C8 C7 1_555 1_555
H5 C8 1_555 1_555
C9 C8 1_555 1_555
C10 C5 1_555 1_555
C11 C4 1_555 1_555
C12 C11 1_555 1_555
H6 C12 1_555 1_555
C13 C12 1_555 1_555
H7 C13 1_555 1_555
C14 C9 1_555 1_555
H8 C14 1_555 1_555
C15 C3 1_555 1_555
C16 O2 1_555 1_555
C17 C16 1_555 1_555
H9 C17 1_555 1_555
H10 C17 1_555 1_555
H11 C17 1_555 1_555
C18 C2 1_555 1_555
C19 O3 1_555 1_555
H12 C19 1_555 1_555
H13 C19 1_555 1_555
H14 C19 1_555 1_555
C20 C15 1_555 1_555
C21 O5 1_555 1_555
H15 C21 1_555 1_555
H16 C21 1_555 1_555
H17 C21 1_555 1_555
C3 C4 1_555 1_555
C9 C10 1_555 1_555
C10 C11 1_555 1_555
C13 C14 1_555 1_555
C15 C16 1_555 1_555

#END
