
#######################################################################
#
#                 Cambridge Crystallographic Data Centre
#                                CCDC 
#
#######################################################################
#
# If this CIF has been generated from an entry in the Cambridge 
# Structural Database, then it will include bibliographic, chemical, 
# crystal, experimental, refinement or atomic coordinate data resulting 
# from the CCDC's data processing and validation procedures.
#
#######################################################################

data_PAWNIN
_chemical_formula_moiety         'C24 H20 N2 O4'
_chemical_name_systematic        
'ethyl 2-(4-methoxybenzene-1-carbonyl)-3-(pyridin-2-yl)indolizine-1-carboxylate'
_symmetry_cell_setting           monoclinic
_symmetry_space_group_name_H-M   'P 21/n'
_symmetry_Int_Tables_number      14
_space_group_name_Hall           '-P 2yn'
loop_
_symmetry_equiv_pos_site_id
_symmetry_equiv_pos_as_xyz
1 x,y,z
2 1/2-x,1/2+y,1/2-z
3 -x,-y,-z
4 1/2+x,1/2-y,1/2+z
_cell_length_a                   11.585(5)
_cell_length_b                   14.556(7)
_cell_length_c                   11.740(5)
_cell_angle_alpha                90
_cell_angle_beta                 94.733(6)
_cell_angle_gamma                90
_cell_volume                     1972.98
_exptl_crystal_colour            colorless
_exptl_crystal_description       Block
_cell_formula_units_Z            4
loop_
_atom_site_label
_atom_site_type_symbol
_atom_site_fract_x
_atom_site_fract_y
_atom_site_fract_z
C1 C 0.57073(14) 0.13778(13) -0.10056(17)
H1 H 0.5976 0.1471 -0.1722
C2 C 0.65044(14) 0.12719(13) -0.00903(17)
H2 H 0.7293 0.1304 -0.0181
C3 C 0.61154(14) 0.11185(13) 0.09601(16)
H3 H 0.6639 0.1039 0.1597
C4 C 0.49366(13) 0.10829(12) 0.10683(14)
H4 H 0.4658 0.0971 0.1776
C5 C 0.41736(12) 0.12163(9) 0.01047(13)
C6 C 0.29103(11) 0.12153(9) 0.01791(12)
C7 C 0.22749(11) 0.13619(9) 0.11101(12)
C8 C 0.10819(12) 0.13055(10) 0.07424(12)
C9 C 0.09951(12) 0.11359(9) -0.04308(12)
C10 C 0.00513(13) 0.10563(11) -0.12643(13)
H5 H -0.0703 0.1089 -0.1050
C11 C 0.02417(15) 0.09330(14) -0.23737(14)
H6 H -0.0380 0.0896 -0.2926
C12 C 0.13771(15) 0.08610(13) -0.26895(14)
H7 H 0.1503 0.0768 -0.3453
C13 C 0.22908(14) 0.09238(12) -0.19053(13)
H8 H 0.3039 0.0863 -0.2127
C14 C 0.00806(12) 0.14199(11) 0.14006(13)
C15 C -0.05953(14) 0.14902(12) 0.32478(14)
H9 H -0.1181 0.1036 0.3017
H10 H -0.0948 0.2095 0.3191
C16 C -0.01017(19) 0.13112(15) 0.44500(15)
H11 H 0.0262 0.0718 0.4490
H12 H -0.0713 0.1326 0.4955
H13 H 0.0461 0.1775 0.4674
C17 C 0.27305(11) 0.17071(10) 0.22804(12)
C18 C 0.29527(11) 0.10563(9) 0.32324(11)
C19 C 0.27977(12) 0.01191(10) 0.30882(12)
H14 H 0.2538 -0.0107 0.2372
C20 C 0.30198(13) -0.04884(10) 0.39859(13)
H15 H 0.2909 -0.1116 0.3874
C21 C 0.34090(12) -0.01518(10) 0.50543(12)
C22 C 0.35645(13) 0.07869(11) 0.52160(12)
H16 H 0.3824 0.1012 0.5933
C23 C 0.33366(12) 0.13828(10) 0.43210(12)
H17 H 0.3438 0.2011 0.4438
C24 C 0.36285(18) -0.16507(12) 0.58592(16)
H18 H 0.2859 -0.1843 0.5600
H19 H 0.3859 -0.1942 0.6576
H20 H 0.4154 -0.1822 0.5305
N1 N 0.45615(11) 0.13555(10) -0.09276(12)
N2 N 0.21142(10) 0.10788(8) -0.07736(10)
O1 O 0.28880(10) 0.25297(8) 0.23966(10)
O2 O -0.09062(10) 0.14855(12) 0.09903(11)
O3 O 0.03600(8) 0.14343(8) 0.25259(9)
O4 O 0.36500(11) -0.06823(8) 0.60038(9)
loop_
_geom_bond_atom_site_label_1
_geom_bond_atom_site_label_2
_geom_bond_site_symmetry_1
_geom_bond_site_symmetry_2
C1 H1 1_555 1_555
C2 C1 1_555 1_555
H2 C2 1_555 1_555
C3 C2 1_555 1_555
H3 C3 1_555 1_555
C4 C3 1_555 1_555
H4 C4 1_555 1_555
C5 C4 1_555 1_555
C6 C5 1_555 1_555
C7 C6 1_555 1_555
C8 C7 1_555 1_555
C9 C8 1_555 1_555
C10 C9 1_555 1_555
H5 C10 1_555 1_555
C11 C10 1_555 1_555
H6 C11 1_555 1_555
C12 C11 1_555 1_555
H7 C12 1_555 1_555
C13 C12 1_555 1_555
H8 C13 1_555 1_555
C14 C8 1_555 1_555
C15 H9 1_555 1_555
H10 C15 1_555 1_555
C16 C15 1_555 1_555
H11 C16 1_555 1_555
H12 C16 1_555 1_555
H13 C16 1_555 1_555
C17 C7 1_555 1_555
C18 C17 1_555 1_555
C19 C18 1_555 1_555
H14 C19 1_555 1_555
C20 C19 1_555 1_555
H15 C20 1_555 1_555
C21 C20 1_555 1_555
C22 C21 1_555 1_555
H16 C22 1_555 1_555
C23 C18 1_555 1_555
H17 C23 1_555 1_555
C24 H18 1_555 1_555
H19 C24 1_555 1_555
H20 C24 1_555 1_555
N1 C1 1_555 1_555
N2 C6 1_555 1_555
O1 C17 1_555 1_555
O2 C14 1_555 1_555
O3 C14 1_555 1_555
O4 C21 1_555 1_555
C5 N1 1_555 1_555
C9 N2 1_555 1_555
C13 N2 1_555 1_555
C15 O3 1_555 1_555
C22 C23 1_555 1_555
C24 O4 1_555 1_555

#END
