
#######################################################################
#
#                 Cambridge Crystallographic Data Centre
#                                CCDC 
#
#######################################################################
#
# If this CIF has been generated from an entry in the Cambridge 
# Structural Database, then it will include bibliographic, chemical, 
# crystal, experimental, refinement or atomic coordinate data resulting 
# from the CCDC's data processing and validation procedures.
#
#######################################################################

data_PAWPEL
_chemical_formula_moiety         'C23 H20 N2 O2'
_chemical_name_systematic        
'ethyl 3-phenyl-2-[(pyridin-2-yl)methyl]indolizine-1-carboxylate'
_symmetry_cell_setting           monoclinic
_symmetry_space_group_name_H-M   'P 21/c'
_symmetry_Int_Tables_number      14
_space_group_name_Hall           '-P 2ybc'
loop_
_symmetry_equiv_pos_site_id
_symmetry_equiv_pos_as_xyz
1 x,y,z
2 -x,1/2+y,1/2-z
3 -x,-y,-z
4 x,1/2-y,1/2+z
_cell_length_a                   9.675(4)
_cell_length_b                   22.388(8)
_cell_length_c                   9.675(4)
_cell_angle_alpha                90
_cell_angle_beta                 118.20
_cell_angle_gamma                90
_cell_volume                     1846.9
_exptl_crystal_colour            colorless
_exptl_crystal_description       Block
_cell_formula_units_Z            4
loop_
_atom_site_label
_atom_site_type_symbol
_atom_site_fract_x
_atom_site_fract_y
_atom_site_fract_z
C1 C 0.3444(3) 0.91990(11) 0.8880(3)
C2 C 0.2000(3) 0.94755(10) 0.8562(3)
C3 C 0.1920(3) 1.00137(11) 0.7845(3)
C4 C 0.3671(3) 1.05312(11) 0.7003(3)
H1 H 0.3016 1.0860 0.6587
C5 C 0.5014(3) 1.04940(13) 0.6922(4)
H2 H 0.5288 1.0797 0.6439
C6 C 0.6014(3) 0.99981(14) 0.7567(4)
H3 H 0.6950 0.9978 0.7518
C7 C 0.5624(3) 0.95517(12) 0.8255(3)
H4 H 0.6292 0.9227 0.8682
C8 C 0.4212(3) 0.95782(10) 0.8327(3)
C9 C 0.0680(3) 1.04653(11) 0.7254(3)
C10 C -0.0838(3) 1.02985(11) 0.6198(3)
H5 H -0.1046 0.9905 0.5851
C11 C -0.2037(3) 1.07061(13) 0.5661(3)
H6 H -0.3050 1.0588 0.4956
C12 C -0.1753(4) 1.12787(14) 0.6151(4)
H7 H -0.2571 1.1553 0.5782
C13 C -0.0259(4) 1.14579(12) 0.7195(4)
H8 H -0.0069 1.1853 0.7529
C14 C 0.0953(3) 1.10548(12) 0.7746(4)
H9 H 0.1962 1.1178 0.8453
C15 C 0.4099(3) 0.86415(11) 0.9652(3)
C16 C 0.3786(5) 0.78055(13) 1.0990(5)
H10 H 0.3984 0.7524 1.0342
H11 H 0.4765 0.7876 1.1937
C17 C 0.2644(7) 0.75635(18) 1.1388(6)
H12 H 0.2591 0.7809 1.2176
H13 H 0.2942 0.7165 1.1784
H14 H 0.1635 0.7555 1.0471
C18 C 0.0778(3) 0.92578(11) 0.8968(3)
H15 H 0.0158 0.9598 0.8972
H16 H 0.1303 0.9099 1.0026
C19 C -0.0319(3) 0.87881(11) 0.7906(3)
N1 N -0.1401(3) 0.86184(12) 0.8299(4)
C20 C -0.2391(5) 0.81940(18) 0.7410(5)
H17 H -0.3154 0.8069 0.7673
C21 C -0.2378(4) 0.79284(15) 0.6144(5)
H18 H -0.3095 0.7631 0.5579
C22 C -0.1284(4) 0.81139(14) 0.5743(4)
H19 H -0.1242 0.7950 0.4880
N2 N 0.3270(2) 1.00797(9) 0.7703(2)
C23 C -0.0238(4) 0.85473(12) 0.6633(4)
H20 H 0.0526 0.8679 0.6378
O1 O 0.5330(3) 0.84263(9) 0.9848(3)
O2 O 0.3204(2) 0.83595(8) 1.0150(3)
loop_
_geom_bond_atom_site_label_1
_geom_bond_atom_site_label_2
_geom_bond_site_symmetry_1
_geom_bond_site_symmetry_2
C1 C2 1_555 1_555
C2 C3 1_555 1_555
C3 C9 1_555 1_555
C4 H1 1_555 1_555
C5 C4 1_555 1_555
H2 C5 1_555 1_555
C6 C5 1_555 1_555
H3 C6 1_555 1_555
C7 C6 1_555 1_555
H4 C7 1_555 1_555
C8 C1 1_555 1_555
C9 C10 1_555 1_555
C10 H5 1_555 1_555
C11 C10 1_555 1_555
H6 C11 1_555 1_555
C12 C11 1_555 1_555
H7 C12 1_555 1_555
C13 C12 1_555 1_555
H8 C13 1_555 1_555
C14 C9 1_555 1_555
H9 C14 1_555 1_555
C15 C1 1_555 1_555
C16 H10 1_555 1_555
H11 C16 1_555 1_555
C17 C16 1_555 1_555
H12 C17 1_555 1_555
H13 C17 1_555 1_555
H14 C17 1_555 1_555
C18 C2 1_555 1_555
H15 C18 1_555 1_555
H16 C18 1_555 1_555
C19 C18 1_555 1_555
N1 C19 1_555 1_555
C20 N1 1_555 1_555
H17 C20 1_555 1_555
C21 C20 1_555 1_555
H18 C21 1_555 1_555
C22 C21 1_555 1_555
H19 C22 1_555 1_555
N2 C3 1_555 1_555
C23 C19 1_555 1_555
H20 C23 1_555 1_555
O1 C15 1_555 1_555
O2 C15 1_555 1_555
C4 N2 1_555 1_555
C7 C8 1_555 1_555
C8 N2 1_555 1_555
C13 C14 1_555 1_555
C16 O2 1_555 1_555
C22 C23 1_555 1_555

#END
