
#######################################################################
#
#                 Cambridge Crystallographic Data Centre
#                                CCDC 
#
#######################################################################
#
# If this CIF has been generated from an entry in the Cambridge 
# Structural Database, then it will include bibliographic, chemical, 
# crystal, experimental, refinement or atomic coordinate data resulting 
# from the CCDC's data processing and validation procedures.
#
#######################################################################

data_PAWQAG
_chemical_compound_source        
'lushanrubescensin isolated from Isodon rubescens var. lushanensis'
_chemical_formula_moiety         'C48 H60 O16,0.5(C3 H6 O1)'
_chemical_name_systematic        
'Lushanrubescensin tetra-acetate acetone solvate'
_symmetry_cell_setting           orthorhombic
_symmetry_space_group_name_H-M   'P 21 21 21'
_symmetry_Int_Tables_number      19
_space_group_name_Hall           'P 2ac 2ab'
loop_
_symmetry_equiv_pos_site_id
_symmetry_equiv_pos_as_xyz
1 x,y,z
2 1/2-x,-y,1/2+z
3 1/2+x,1/2-y,-z
4 -x,1/2+y,1/2-z
_cell_length_a                   9.198(1)
_cell_length_b                   13.904(1)
_cell_length_c                   42.068(1)
_cell_angle_alpha                90
_cell_angle_beta                 90
_cell_angle_gamma                90
_cell_volume                     5380.03
_exptl_crystal_colour            colorless
_exptl_crystal_description       cube
_cell_formula_units_Z            4
_exptl_crystal_recrystallization_method 'acetone/ethyl acetate/petroleum ether'
loop_
_atom_site_label
_atom_site_type_symbol
_atom_site_fract_x
_atom_site_fract_y
_atom_site_fract_z
C1 C 0.8588(9) 0.1253(6) 0.8192(1)
C2 C 0.9350(10) 0.2195(6) 0.8108(2)
C3 C 0.8533(10) 0.2629(6) 0.7828(2)
C4 C 0.8685(9) 0.2028(6) 0.7525(1)
C5 C 0.8095(8) 0.0978(5) 0.7589(1)
C6 C 0.8811(10) 0.0256(6) 0.7367(1)
C7 C 0.9111(8) -0.0113(6) 0.8518(1)
C8 C 0.7684(8) -0.0499(5) 0.8394(1)
C9 C 0.7324(7) -0.0236(5) 0.8032(1)
C10 C 0.8469(8) 0.0521(5) 0.7917(1)
C11 C 0.5702(8) 0.0043(5) 0.8013(1)
C12 C 0.4685(8) -0.0653(6) 0.8199(1)
C13 C 0.5246(8) -0.0879(5) 0.8543(1)
C14 C 0.6459(8) -0.0167(5) 0.8622(1)
C15 C 0.7560(10) -0.1598(5) 0.8422(1)
C16 C 0.6059(9) -0.1851(5) 0.8568(1)
C17 C 0.5348(11) -0.2735(6) 0.8417(1)
C18 C 0.7717(12) 0.2454(7) 0.7269(3)
C19 C 1.0284(9) 0.2062(6) 0.7410(2)
C20 C 0.9921(8) 0.0021(6) 0.7853(1)
C21 C 0.7087(12) -0.0656(7) 0.7068(2)
C22 C 0.6335(14) -0.1589(8) 0.7034(3)
C23 C 0.4060(9) 0.0551(6) 0.7611(1)
C24 C 0.3629(10) 0.0380(9) 0.7269(2)
O1 O 0.9454(6) 0.0795(4) 0.8446(1)
O2 O 0.7907(7) -0.0600(4) 0.7321(1)
O3 O 1.0063(6) -0.0085(4) 0.7518(1)
O4 O 0.9863(7) -0.0555(5) 0.8698(1)
O5 O 0.5215(5) -0.0033(4) 0.7685(1)
O6 O 0.8437(8) -0.2175(4) 0.8327(1)
O7 O 0.6893(9) 0.0030(6) 0.6900(1)
O8 O 0.3491(8) 0.1073(5) 0.7793(1)
C25 C 0.5066(8) -0.1280(5) 0.9979(1)
C26 C 0.5405(9) -0.0802(6) 1.0299(1)
C27 C 0.4406(10) 0.0040(6) 1.0340(1)
C28 C 0.4623(10) 0.0838(6) 1.0089(1)
C29 C 0.4380(8) 0.0416(5) 0.9754(1)
C30 C 0.5108(8) 0.1002(5) 0.9491(1)
C31 C 0.6233(8) -0.2408(5) 0.9625(1)
C32 C 0.4957(8) -0.2226(5) 0.9408(1)
C33 C 0.4265(7) -0.1185(5) 0.9421(1)
C34 C 0.5023(7) -0.0606(5) 0.9690(1)
C35 C 0.2580(8) -0.1334(5) 0.9453(1)
C36 C 0.1944(9) -0.2059(6) 0.9211(1)
C37 C 0.2876(9) -0.2969(5) 0.9183(1)
C38 C 0.3828(4) -0.3051(5) 0.9481(1)
C39 C 0.5198(9) -0.2435(5) 0.9058(1)
C40 C 0.4025(10) -0.2833(6) 0.8933(1)
C41 C 0.3811(11) -0.2918(6) 0.8570(1)
C42 C 0.3461(13) 0.1657(8) 1.0131(2)
C43 C 0.6179(12) 0.1309(7) 1.0136(2)
C44 C 0.6586(8) -0.0357(5) 0.9573(1)
C45 C 0.0697(10) -0.0166(7) 0.9559(3)
C46 C 0.0049(10) 0.0765(7) 0.9465(3)
C47 C 0.3398(10) 0.1557(6) 0.9105(2)
C48 C 0.2728(12) 0.1359(8) 0.8786(2)
O9 O 0.6200(6) -0.1997(4) 0.9918(1)
O10 O 0.4392(6) 0.0891(3) 0.9183(1)
O11 O 0.6511(5) 0.0617(4) 0.9449(1)
O12 O 0.7237(7) -0.2938(4) 0.9559(1)
O13 O 0.1880(5) -0.0408(4) 0.9383(1)
O14 O 0.6379(6) -0.2026(3) 0.8903(1)
O15 O 0.3032(8) 0.2190(5) 0.9282(1)
O16 O 0.0228(8) -0.06850(6) 0.9762(2)
H1 H 0.750 0.140 0.829
H2 H 0.936 0.269 0.831
H3 H 1.049 0.206 0.804
H4 H 0.894 0.336 0.778
H5 H 0.738 0.269 0.788
H6 H 0.694 0.097 0.755
H7 H 0.906 0.059 0.714
H8 H 0.746 -0.090 0.789
H9 H 0.555 0.078 0.811
H10 H 0.359 -0.034 0.821
H11 H 0.462 -0.131 0.806
H12 H 0.436 -0.084 0.872
H13 H 0.680 -0.019 0.887
H14 H 0.614 0.058 0.857
H15 H 0.524 -0.259 0.816
H16 H 0.605 -0.335 0.844
H17 H 0.780 0.201 0.705
H18 H 0.806 0.318 0.720
H19 H 0.663 0.244 0.736
H20 H 1.098 0.167 0.757
H21 H 1.065 0.279 0.739
H22 H 1.027 0.171 0.718
H23 H 0.995 -0.069 0.796
H24 H 1.082 0.044 0.794
H25 H 0.697 -0.218 0.714
H26 H 0.606 -0.176 0.680
H27 H 0.533 -0.152 0.718
H28 H 0.298 -0.032 0.727
H29 H 0.461 0.022 0.714
H30 H 0.300 0.096 0.718
H31 H 0.399 -0.164 1.000
H32 H 0.654 -0.054 1.030
H33 H 0.531 -0.131 1.050
H34 H 0.329 -0.024 1.032
H35 H 0.455 0.034 1.058
H36 H 0.322 0.039 0.971
H37 H 0.516 0.177 0.956
H38 H 0.447 -0.083 0.919
H39 H 0.232 -0.157 0.970
H40 H 0.188 -0.171 0.898
H41 H 0.084 -0.226 0.929
H42 H 0.221 -0.363 0.914
H43 H 0.321 -0.291 0.970
H44 H 0.435 -0.375 0.950
H45 H 0.341 -0.362 0.851
H46 H 0.303 -0.238 0.849
H47 H 0.238 0.134 1.011
H48 H 0.358 0.217 0.994
H49 H 0.366 0.197 1.036
H50 H 0.707 0.080 1.007
H51 H 0.639 0.155 1.038
H52 H 0.622 0.191 0.997
H53 H 0.693 -0.086 0.939
H54 H 0.736 -0.041 0.977
H55 H -0.003 0.080 0.921
H56 H 0.078 0.135 0.954
H57 H -0.099 0.082 0.958
H58 H 0.169 0.172 0.875
H59 H 0.254 0.059 0.875
H60 H 0.351 0.161 0.861
O17 O 0.6066(15) 0.2649(11) 0.8568(3)
C49 C 0.6060(30) 0.3652(16) 0.8980(5)
C50 C 0.6760(30) 0.2921(16) 0.8818(5)
C51 C 0.7810(30) 0.2462(15) 0.8980(4)
H61 H 0.679 0.419 0.891
H62 H 0.596 0.357 0.924
H63 H 0.494 0.377 0.889
H64 H 0.861 0.299 0.890
H65 H 0.806 0.174 0.888
H66 H 0.770 0.240 0.923
loop_
_geom_bond_atom_site_label_1
_geom_bond_atom_site_label_2
_geom_bond_site_symmetry_1
_geom_bond_site_symmetry_2
C1 C2 1_555 1_555
C2 C3 1_555 1_555
C3 C4 1_555 1_555
C4 C5 1_555 1_555
C5 C6 1_555 1_555
C6 O2 1_555 1_555
C7 C8 1_555 1_555
C8 C9 1_555 1_555
C9 C10 1_555 1_555
C10 C1 1_555 1_555
C11 C9 1_555 1_555
C12 C11 1_555 1_555
C13 C12 1_555 1_555
C14 C8 1_555 1_555
C15 C8 1_555 1_555
C16 C13 1_555 1_555
C17 C16 1_555 1_555
C18 C4 1_555 1_555
C19 C4 1_555 1_555
C20 C10 1_555 1_555
C21 C22 1_555 1_555
C22 H25 1_555 1_555
C23 C24 1_555 1_555
C24 H28 1_555 1_555
O1 C1 1_555 1_555
O2 C21 1_555 1_555
O3 C6 1_555 1_555
O4 C7 1_555 1_555
O5 C11 1_555 1_555
O6 C15 1_555 1_555
O7 C21 1_555 1_555
O8 C23 1_555 1_555
C25 C26 1_555 1_555
C26 C27 1_555 1_555
C27 C28 1_555 1_555
C28 C29 1_555 1_555
C29 C30 1_555 1_555
C30 O10 1_555 1_555
C31 C32 1_555 1_555
C32 C33 1_555 1_555
C33 C34 1_555 1_555
C34 C25 1_555 1_555
C35 C33 1_555 1_555
C36 C35 1_555 1_555
C37 C36 1_555 1_555
C38 C32 1_555 1_555
C39 C32 1_555 1_555
C40 C37 1_555 1_555
C41 C17 1_555 1_555
C42 C28 1_555 1_555
C43 C28 1_555 1_555
C44 C34 1_555 1_555
C45 C46 1_555 1_555
C46 H55 1_555 1_555
C47 C48 1_555 1_555
C48 H58 1_555 1_555
O9 C25 1_555 1_555
O10 C47 1_555 1_555
O11 C30 1_555 1_555
O12 C31 1_555 1_555
O13 C35 1_555 1_555
O14 C16 1_555 1_555
O15 C47 1_555 1_555
O16 C45 1_555 1_555
O17 C50 1_555 1_555
C49 C50 1_555 1_555
C50 C51 1_555 1_555
C51 H64 1_555 1_555
H1 C1 1_555 1_555
H2 C2 1_555 1_555
H3 C2 1_555 1_555
H4 C3 1_555 1_555
H5 C3 1_555 1_555
H6 C5 1_555 1_555
H7 C6 1_555 1_555
H8 C9 1_555 1_555
H9 C11 1_555 1_555
H10 C12 1_555 1_555
H11 C12 1_555 1_555
H12 C13 1_555 1_555
H13 C14 1_555 1_555
H14 C14 1_555 1_555
H15 C17 1_555 1_555
H16 C17 1_555 1_555
H17 C18 1_555 1_555
H18 C18 1_555 1_555
H19 C18 1_555 1_555
H20 C19 1_555 1_555
H21 C19 1_555 1_555
H22 C19 1_555 1_555
H23 C20 1_555 1_555
H24 C20 1_555 1_555
H26 C22 1_555 1_555
H27 C22 1_555 1_555
H29 C24 1_555 1_555
H30 C24 1_555 1_555
H31 C25 1_555 1_555
H32 C26 1_555 1_555
H33 C26 1_555 1_555
H34 C27 1_555 1_555
H35 C27 1_555 1_555
H36 C29 1_555 1_555
H37 C30 1_555 1_555
H38 C33 1_555 1_555
H39 C35 1_555 1_555
H40 C36 1_555 1_555
H41 C36 1_555 1_555
H42 C37 1_555 1_555
H43 C38 1_555 1_555
H44 C38 1_555 1_555
H45 C41 1_555 1_555
H46 C41 1_555 1_555
H47 C42 1_555 1_555
H48 C42 1_555 1_555
H49 C42 1_555 1_555
H50 C43 1_555 1_555
H51 C43 1_555 1_555
H52 C43 1_555 1_555
H53 C44 1_555 1_555
H54 C44 1_555 1_555
H56 C46 1_555 1_555
H57 C46 1_555 1_555
H59 C48 1_555 1_555
H60 C48 1_555 1_555
H61 C49 1_555 1_555
H62 C49 1_555 1_555
H63 C49 1_555 1_555
H65 C51 1_555 1_555
H66 C51 1_555 1_555
C5 C10 1_555 1_555
C7 O1 1_555 1_555
C13 C14 1_555 1_555
C15 C16 1_555 1_555
C20 O3 1_555 1_555
C23 O5 1_555 1_555
C29 C34 1_555 1_555
C31 O9 1_555 1_555
C37 C38 1_555 1_555
C39 C40 1_555 1_555
C39 O14 1_555 1_555
C40 C41 1_555 1_555
C44 O11 1_555 1_555
C45 O13 1_555 1_555

#END
