
#######################################################################
#
#                 Cambridge Crystallographic Data Centre
#                                CCDC 
#
#######################################################################
#
# If this CIF has been generated from an entry in the Cambridge 
# Structural Database, then it will include bibliographic, chemical, 
# crystal, experimental, refinement or atomic coordinate data resulting 
# from the CCDC's data processing and validation procedures.
#
#######################################################################

data_PAWQUC
_chemical_formula_moiety         'C37 H33 N3 O3 S1'
_chemical_name_systematic        
N-[1-(3,5-diphenyl-1,2,4-oxadiazol-2(5H)-yl)-4-phenylbut-1-en-1-yl]-4-methyl-N-phenylbenzene-1-sulfonamide
_symmetry_cell_setting           triclinic
_symmetry_space_group_name_H-M   'P -1'
_symmetry_Int_Tables_number      2
_space_group_name_Hall           '-P 1'
loop_
_symmetry_equiv_pos_site_id
_symmetry_equiv_pos_as_xyz
1 x,y,z
2 -x,-y,-z
_cell_length_a                   11.366(3)
_cell_length_b                   12.273(3)
_cell_length_c                   13.051(3)
_cell_angle_alpha                107.953(5)
_cell_angle_beta                 93.513(5)
_cell_angle_gamma                111.951(5)
_cell_volume                     1573.88
_exptl_crystal_colour            colorless
_exptl_crystal_description       prismatic
_cell_formula_units_Z            2
loop_
_atom_site_label
_atom_site_type_symbol
_atom_site_fract_x
_atom_site_fract_y
_atom_site_fract_z
S1 S 0.34725(8) 0.98197(8) 0.15502(7)
N1 N 0.5064(3) 0.8509(2) 0.2383(3)
N2 N 0.6093(3) 0.7339(3) 0.2666(3)
N3 N 0.3827(2) 0.9716(2) 0.2738(2)
O1 O 0.4097(2) 0.7431(2) 0.2524(3)
O2 O 0.4666(2) 1.0474(2) 0.1299(2)
O3 O 0.2513(2) 1.0292(2) 0.1642(2)
C1 C 0.6198(3) 0.8310(3) 0.2448(3)
C2 C 0.4790(4) 0.6766(3) 0.2825(3)
H1 H 0.4804 0.6858 0.3599
C3 C 0.4127(3) 0.54165(19) 0.2120(2)
C4 C 0.3846(4) 0.4518(3) 0.2614(2)
H2 H 0.4039 0.4768 0.3376
C5 C 0.3277(4) 0.3246(2) 0.1970(4)
H3 H 0.3089 0.2645 0.2300
C6 C 0.2989(4) 0.2872(2) 0.0831(3)
H4 H 0.2608 0.2021 0.0400
C7 C 0.3270(4) 0.3771(3) 0.0338(2)
H5 H 0.3077 0.3520 -0.0424
C8 C 0.3839(4) 0.5043(3) 0.0982(2)
H6 H 0.4027 0.5644 0.0652
C9 C 0.7371(3) 0.9098(3) 0.2179(3)
C10 C 0.7390(4) 0.9965(4) 0.1709(3)
H7 H 0.6641 1.0076 0.1560
C11 C 0.8515(4) 1.0664(4) 0.1461(4)
H8 H 0.8531 1.1250 0.1144
C12 C 0.9618(4) 1.0497(4) 0.1680(4)
H9 H 1.0377 1.0966 0.1502
C13 C 0.9617(4) 0.9655(4) 0.2154(3)
H10 H 1.0372 0.9553 0.2304
C14 C 0.8494(4) 0.8955(4) 0.2410(3)
H11 H 0.8492 0.8383 0.2741
C15 C 0.5002(3) 0.9632(3) 0.3036(3)
C16 C 0.5973(3) 1.0559(3) 0.3793(3)
H12 H 0.6617 1.0359 0.4053
C17 C 0.6157(3) 1.1881(3) 0.4275(3)
H13 H 0.6308 1.2139 0.5070
H14 H 0.5375 1.1955 0.4034
C18 C 0.7289(4) 1.2746(4) 0.3944(4)
H15 H 0.8043 1.2591 0.4107
H16 H 0.7089 1.2539 0.3156
C19 C 0.7615(3) 1.4114(2) 0.4508(2)
C20 C 0.7000(3) 1.4708(3) 0.4071(2)
H17 H 0.6378 1.4253 0.3425
C21 C 0.7316(4) 1.5981(3) 0.4600(3)
H18 H 0.6905 1.6378 0.4308
C22 C 0.8247(4) 1.6660(2) 0.5566(3)
H19 H 0.8458 1.7512 0.5920
C23 C 0.8862(3) 1.6067(3) 0.6003(3)
H20 H 0.9484 1.6521 0.6649
C24 C 0.8546(3) 1.4794(3) 0.5474(3)
H21 H 0.8957 1.4397 0.5766
C25 C 0.2860(3) 0.9536(3) 0.3412(3)
C26 C 0.2047(3) 0.8350(3) 0.3332(3)
H22 H 0.2100 0.7649 0.2835
C27 C 0.1144(3) 0.8208(4) 0.4003(3)
H23 H 0.0588 0.7406 0.3957
C28 C 0.1065(4) 0.9236(4) 0.4730(3)
H24 H 0.0462 0.9137 0.5182
C29 C 0.1879(4) 1.0417(4) 0.4792(3)
H25 H 0.1826 1.1120 0.5287
C30 C 0.2758(3) 1.0567(3) 0.4138(3)
H26 H 0.3298 1.1371 0.4178
C31 C 0.2774(4) 0.8292(3) 0.0569(3)
C32 C 0.3526(5) 0.7833(4) -0.0052(3)
H27 H 0.4408 0.8315 0.0049
C33 C 0.2945(7) 0.6640(5) -0.0830(4)
H28 H 0.3448 0.6317 -0.1255
C34 C 0.1659(8) 0.5919(5) -0.0996(4)
C35 C 0.0934(6) 0.6394(5) -0.0379(5)
H29 H 0.0052 0.5907 -0.0487
C36 C 0.1474(4) 0.7591(4) 0.0410(4)
H30 H 0.0963 0.7912 0.0826
C37 C 0.1052(9) 0.4614(6) -0.1864(6)
H31 H 0.1705 0.4436 -0.2226
H32 H 0.0394 0.4569 -0.2393
H33 H 0.0673 0.4009 -0.1524
loop_
_geom_bond_atom_site_label_1
_geom_bond_atom_site_label_2
_geom_bond_site_symmetry_1
_geom_bond_site_symmetry_2
S1 N3 1_555 1_555
N1 O1 1_555 1_555
N2 C1 1_555 1_555
N3 C15 1_555 1_555
O1 C2 1_555 1_555
O2 S1 1_555 1_555
O3 S1 1_555 1_555
C1 N1 1_555 1_555
C2 N2 1_555 1_555
H1 C2 1_555 1_555
C3 C2 1_555 1_555
C4 C3 1_555 1_555
H2 C4 1_555 1_555
C5 C4 1_555 1_555
H3 C5 1_555 1_555
C6 C5 1_555 1_555
H4 C6 1_555 1_555
C7 C6 1_555 1_555
H5 C7 1_555 1_555
C8 C3 1_555 1_555
H6 C8 1_555 1_555
C9 C1 1_555 1_555
C10 C9 1_555 1_555
H7 C10 1_555 1_555
C11 C10 1_555 1_555
H8 C11 1_555 1_555
C12 C11 1_555 1_555
H9 C12 1_555 1_555
C13 C12 1_555 1_555
H10 C13 1_555 1_555
C14 C9 1_555 1_555
H11 C14 1_555 1_555
C15 N1 1_555 1_555
C16 C15 1_555 1_555
H12 C16 1_555 1_555
C17 C16 1_555 1_555
H13 C17 1_555 1_555
H14 C17 1_555 1_555
C18 C17 1_555 1_555
H15 C18 1_555 1_555
H16 C18 1_555 1_555
C19 C18 1_555 1_555
C20 C19 1_555 1_555
H17 C20 1_555 1_555
C21 C20 1_555 1_555
H18 C21 1_555 1_555
C22 C21 1_555 1_555
H19 C22 1_555 1_555
C23 C22 1_555 1_555
H20 C23 1_555 1_555
C24 C19 1_555 1_555
H21 C24 1_555 1_555
C25 N3 1_555 1_555
C26 C25 1_555 1_555
H22 C26 1_555 1_555
C27 C26 1_555 1_555
H23 C27 1_555 1_555
C28 C27 1_555 1_555
H24 C28 1_555 1_555
C29 C28 1_555 1_555
H25 C29 1_555 1_555
C30 C25 1_555 1_555
H26 C30 1_555 1_555
C31 S1 1_555 1_555
C32 C31 1_555 1_555
H27 C32 1_555 1_555
C33 C32 1_555 1_555
H28 C33 1_555 1_555
C34 C33 1_555 1_555
C35 C34 1_555 1_555
H29 C35 1_555 1_555
C36 C31 1_555 1_555
H30 C36 1_555 1_555
C37 C34 1_555 1_555
H31 C37 1_555 1_555
H32 C37 1_555 1_555
H33 C37 1_555 1_555
C7 C8 1_555 1_555
C13 C14 1_555 1_555
C23 C24 1_555 1_555
C29 C30 1_555 1_555
C35 C36 1_555 1_555

#END
