
#######################################################################
#
#                 Cambridge Crystallographic Data Centre
#                                CCDC 
#
#######################################################################
#
# If this CIF has been generated from an entry in the Cambridge 
# Structural Database, then it will include bibliographic, chemical, 
# crystal, experimental, refinement or atomic coordinate data resulting 
# from the CCDC's data processing and validation procedures.
#
#######################################################################

data_PAWRAJ
_chemical_formula_moiety         'C24 H23 N3 O3 S1'
_chemical_name_systematic        
N-[1-(3,5-diphenyl-1,2,4-oxadiazol-2(5H)-yl)-2-phenylethenyl]-N-methylmethanesulfonamide
_symmetry_cell_setting           orthorhombic
_symmetry_space_group_name_H-M   'P b c a'
_symmetry_Int_Tables_number      61
_space_group_name_Hall           '-P 2ac 2ab'
loop_
_symmetry_equiv_pos_site_id
_symmetry_equiv_pos_as_xyz
1 x,y,z
2 1/2-x,-y,1/2+z
3 -x,1/2+y,1/2-z
4 1/2+x,1/2-y,-z
5 -x,-y,-z
6 1/2+x,y,1/2-z
7 x,1/2-y,1/2+z
8 1/2-x,1/2+y,z
_cell_length_a                   15.862(2)
_cell_length_b                   15.219(2)
_cell_length_c                   18.723(3)
_cell_angle_alpha                90
_cell_angle_beta                 90
_cell_angle_gamma                90
_cell_volume                     4519.8
_exptl_crystal_colour            colorless
_exptl_crystal_description       prismatic
_cell_formula_units_Z            8
loop_
_atom_site_label
_atom_site_type_symbol
_atom_site_fract_x
_atom_site_fract_y
_atom_site_fract_z
S1 S 0.01441(5) 0.10714(4) 0.40121(4)
N1 N 0.05943(16) 0.13965(15) 0.24444(12)
N2 N 0.09599(17) 0.13877(17) 0.12707(13)
N3 N 0.09099(14) 0.16392(14) 0.36581(11)
O1 O 0.12595(16) 0.07576(14) 0.23620(10)
O2 O 0.03276(15) 0.10237(14) 0.47516(10)
O3 O -0.06192(13) 0.14606(14) 0.37844(12)
C1 C 0.1616(2) 0.0918(2) 0.16570(16)
H1 H 0.2122 0.1284 0.1697
C2 C 0.0437(2) 0.16717(18) 0.17347(15)
C3 C -0.03242(18) 0.22032(18) 0.15709(15)
C4 C -0.0451(2) 0.2491(2) 0.08788(15)
H2 H -0.0068 0.2339 0.0523
C5 C -0.1137(2) 0.3002(2) 0.07121(18)
H3 H -0.1221 0.3188 0.0244
C6 C -0.1698(2) 0.3238(2) 0.12315(19)
H4 H -0.2158 0.3590 0.1119
C7 C -0.1581(2) 0.2954(2) 0.19170(19)
H5 H -0.1965 0.3114 0.2269
C8 C -0.09038(19) 0.2434(2) 0.20917(16)
H6 H -0.0834 0.2238 0.2558
C9 C 0.18406(19) 0.00338(19) 0.13580(14)
C10 C 0.1263(2) -0.0612(2) 0.13187(19)
H7 H 0.0710 -0.0500 0.1458
C11 C 0.1473(3) -0.1423(2) 0.1079(2)
H8 H 0.1064 -0.1860 0.1055
C12 C 0.2275(3) -0.1601(3) 0.08728(19)
H9 H 0.2416 -0.2165 0.0723
C13 C 0.2869(3) -0.0966(3) 0.0883(2)
H10 H 0.3414 -0.1084 0.0728
C14 C 0.2654(2) -0.0130(3) 0.11313(18)
H11 H 0.3057 0.0313 0.1144
C15 C 0.08225(16) 0.20194(18) 0.29677(13)
C16 C 0.09547(17) 0.28626(18) 0.28318(14)
H12 H 0.0981 0.3003 0.2349
C17 C 0.10661(16) 0.36075(17) 0.33136(15)
C18 C 0.1325(2) 0.4399(2) 0.30165(18)
H13 H 0.1438 0.4432 0.2530
C19 C 0.1415(3) 0.5138(2) 0.3436(2)
H14 H 0.1579 0.5666 0.3228
C20 C 0.1267(3) 0.5104(2) 0.4148(2)
H15 H 0.1340 0.5602 0.4428
C21 C 0.1014(2) 0.4341(2) 0.44473(19)
H16 H 0.0910 0.4319 0.4936
C22 C 0.09083(19) 0.3595(2) 0.40405(16)
H17 H 0.0729 0.3078 0.4256
C23 C 0.1761(2) 0.1499(3) 0.39338(19)
H18 H 0.1941 0.0913 0.3821
H19 H 0.1761 0.1577 0.4443
H20 H 0.2139 0.1915 0.3719
C24 C 0.0195(2) 0.00059(19) 0.36696(18)
H21 H -0.0195 -0.0363 0.3922
H22 H 0.0756 -0.0219 0.3727
H23 H 0.0052 0.0014 0.3171
loop_
_geom_bond_atom_site_label_1
_geom_bond_atom_site_label_2
_geom_bond_site_symmetry_1
_geom_bond_site_symmetry_2
S1 N3 1_555 1_555
N1 O1 1_555 1_555
N2 C1 1_555 1_555
N3 C15 1_555 1_555
O1 C1 1_555 1_555
O2 S1 1_555 1_555
O3 S1 1_555 1_555
C1 H1 1_555 1_555
C2 N1 1_555 1_555
C3 C2 1_555 1_555
C4 C3 1_555 1_555
H2 C4 1_555 1_555
C5 C4 1_555 1_555
H3 C5 1_555 1_555
C6 C5 1_555 1_555
H4 C6 1_555 1_555
C7 C6 1_555 1_555
H5 C7 1_555 1_555
C8 C3 1_555 1_555
H6 C8 1_555 1_555
C9 C1 1_555 1_555
C10 C9 1_555 1_555
H7 C10 1_555 1_555
C11 C10 1_555 1_555
H8 C11 1_555 1_555
C12 C11 1_555 1_555
H9 C12 1_555 1_555
C13 C12 1_555 1_555
H10 C13 1_555 1_555
C14 C9 1_555 1_555
H11 C14 1_555 1_555
C15 N1 1_555 1_555
C16 C15 1_555 1_555
H12 C16 1_555 1_555
C17 C16 1_555 1_555
C18 C17 1_555 1_555
H13 C18 1_555 1_555
C19 C18 1_555 1_555
H14 C19 1_555 1_555
C20 C19 1_555 1_555
H15 C20 1_555 1_555
C21 C20 1_555 1_555
H16 C21 1_555 1_555
C22 C17 1_555 1_555
H17 C22 1_555 1_555
C23 N3 1_555 1_555
H18 C23 1_555 1_555
H19 C23 1_555 1_555
H20 C23 1_555 1_555
C24 S1 1_555 1_555
H21 C24 1_555 1_555
H22 C24 1_555 1_555
H23 C24 1_555 1_555
N2 C2 1_555 1_555
C7 C8 1_555 1_555
C13 C14 1_555 1_555
C21 C22 1_555 1_555

#END
