
#######################################################################
#
#                 Cambridge Crystallographic Data Centre
#                                CCDC 
#
#######################################################################
#
# If this CIF has been generated from an entry in the Cambridge 
# Structural Database, then it will include bibliographic, chemical, 
# crystal, experimental, refinement or atomic coordinate data resulting 
# from the CCDC's data processing and validation procedures.
#
#######################################################################

data_PAWREN
_chemical_formula_moiety         'C18 H19 N3 O3 S1'
_chemical_name_systematic        
N-[5-(4-methoxyphenyl)-2-phenyl-1H-imidazol-4-yl]-N-methylmethanesulfonamide
_symmetry_cell_setting           monoclinic
_symmetry_space_group_name_H-M   'P 21/n'
_symmetry_Int_Tables_number      14
_space_group_name_Hall           '-P 2yn'
loop_
_symmetry_equiv_pos_site_id
_symmetry_equiv_pos_as_xyz
1 x,y,z
2 1/2-x,1/2+y,1/2-z
3 -x,-y,-z
4 1/2+x,1/2-y,1/2+z
_cell_length_a                   7.4046(11)
_cell_length_b                   21.681(3)
_cell_length_c                   10.6160(16)
_cell_angle_alpha                90
_cell_angle_beta                 100.034(3)
_cell_angle_gamma                90
_cell_volume                     1678.22
_exptl_crystal_colour            colorless
_exptl_crystal_description       prismatic
_cell_formula_units_Z            4
loop_
_atom_site_label
_atom_site_type_symbol
_atom_site_fract_x
_atom_site_fract_y
_atom_site_fract_z
S1 S 1.06424(7) 0.11239(2) 0.30908(4)
N1 N 0.8256(2) -0.05097(7) 0.06112(14)
N2 N 0.9228(2) -0.03167(7) 0.26535(13)
N3 N 0.8647(2) 0.07850(7) 0.26882(13)
O1 O 0.45662(19) 0.15491(6) -0.34148(12)
O2 O 1.1495(2) 0.11154(6) 0.19780(12)
O3 O 1.0315(2) 0.17010(6) 0.36510(13)
C1 C 0.9004(2) -0.07502(8) 0.17650(15)
C2 C 0.8623(2) 0.02147(8) 0.20208(16)
C3 C 0.7982(2) 0.01143(8) 0.07452(16)
C4 C 0.7099(2) 0.05045(8) -0.03080(16)
C5 C 0.6872(3) 0.11364(9) -0.01778(18)
H1 H 0.7305 0.1320 0.0609
C6 C 0.6024(3) 0.15027(9) -0.11760(18)
H2 H 0.5882 0.1923 -0.1054
C7 C 0.5391(2) 0.12390(9) -0.23552(17)
C8 C 0.5592(3) 0.06116(10) -0.24998(18)
H3 H 0.5158 0.0430 -0.3288
C9 C 0.6421(3) 0.02515(9) -0.15015(17)
H4 H 0.6532 -0.0171 -0.1625
C10 C 0.4210(3) 0.21874(10) -0.32796(19)
H5 H 0.3555 0.2246 -0.2584
H6 H 0.3484 0.2339 -0.4056
H7 H 0.5349 0.2409 -0.3108
C11 C 0.9471(2) -0.14023(8) 0.19944(16)
C12 C 0.9161(3) -0.18472(9) 0.10344(17)
H8 H 0.8647 -0.1734 0.0204
C13 C 0.9615(3) -0.24572(9) 0.13127(19)
H9 H 0.9411 -0.2751 0.0665
C14 C 1.0366(3) -0.26345(9) 0.2539(2)
H10 H 1.0669 -0.3045 0.2719
C15 C 1.0664(3) -0.21980(10) 0.34958(19)
H11 H 1.1157 -0.2315 0.4328
C16 C 1.0233(3) -0.15882(9) 0.32213(18)
H12 H 1.0458 -0.1296 0.3872
C17 C 0.7328(3) 0.08459(10) 0.3568(2)
H13 H 0.6117 0.0755 0.3119
H14 H 0.7360 0.1260 0.3891
H15 H 0.7645 0.0563 0.4267
C18 C 1.1984(3) 0.06682(10) 0.42606(18)
H16 H 1.3145 0.0866 0.4540
H17 H 1.2181 0.0271 0.3907
H18 H 1.1362 0.0618 0.4975
H19 H 0.813(3) -0.0696(10) -0.011(2)
loop_
_geom_bond_atom_site_label_1
_geom_bond_atom_site_label_2
_geom_bond_site_symmetry_1
_geom_bond_site_symmetry_2
S1 N3 1_555 1_555
N1 C1 1_555 1_555
N2 C1 1_555 1_555
N3 C2 1_555 1_555
O1 C7 1_555 1_555
O2 S1 1_555 1_555
O3 S1 1_555 1_555
C1 C11 1_555 1_555
C2 N2 1_555 1_555
C3 N1 1_555 1_555
C4 C3 1_555 1_555
C5 C4 1_555 1_555
H1 C5 1_555 1_555
C6 C5 1_555 1_555
H2 C6 1_555 1_555
C7 C6 1_555 1_555
C8 C7 1_555 1_555
H3 C8 1_555 1_555
C9 C4 1_555 1_555
H4 C9 1_555 1_555
C10 O1 1_555 1_555
H5 C10 1_555 1_555
H6 C10 1_555 1_555
H7 C10 1_555 1_555
C11 C12 1_555 1_555
C12 H8 1_555 1_555
C13 C12 1_555 1_555
H9 C13 1_555 1_555
C14 C13 1_555 1_555
H10 C14 1_555 1_555
C15 C14 1_555 1_555
H11 C15 1_555 1_555
C16 C11 1_555 1_555
H12 C16 1_555 1_555
C17 N3 1_555 1_555
H13 C17 1_555 1_555
H14 C17 1_555 1_555
H15 C17 1_555 1_555
C18 S1 1_555 1_555
H16 C18 1_555 1_555
H17 C18 1_555 1_555
H18 C18 1_555 1_555
H19 N1 1_555 1_555
C2 C3 1_555 1_555
C8 C9 1_555 1_555
C15 C16 1_555 1_555

#END
