
#######################################################################
#
#                 Cambridge Crystallographic Data Centre
#                                CCDC 
#
#######################################################################
#
# If this CIF has been generated from an entry in the Cambridge 
# Structural Database, then it will include bibliographic, chemical, 
# crystal, experimental, refinement or atomic coordinate data resulting 
# from the CCDC's data processing and validation procedures.
#
#######################################################################

data_PAWRUD
_chemical_formula_moiety         'C23 H21 Cl1 O4'
_chemical_name_systematic        
"t-butyl 2'-(4-chlorophenyl)-3-oxo-3H-spiro[1-benzofuran-2,1'-cyclopent[3]ene]-3'-carboxylate"
_symmetry_cell_setting           orthorhombic
_symmetry_space_group_name_H-M   'P 21 21 21'
_symmetry_Int_Tables_number      19
_space_group_name_Hall           'P 2ac 2ab'
loop_
_symmetry_equiv_pos_site_id
_symmetry_equiv_pos_as_xyz
1 x,y,z
2 1/2-x,-y,1/2+z
3 -x,1/2+y,1/2-z
4 1/2+x,1/2-y,-z
_cell_length_a                   6.1914(2)
_cell_length_b                   19.1212(5)
_cell_length_c                   33.9479(10)
_cell_angle_alpha                90
_cell_angle_beta                 90
_cell_angle_gamma                90
_cell_volume                     4018.99
_exptl_crystal_colour            colorless
_exptl_crystal_description       Rod
_cell_formula_units_Z            8
loop_
_atom_site_label
_atom_site_type_symbol
_atom_site_fract_x
_atom_site_fract_y
_atom_site_fract_z
Cl1 Cl 1.19798(11) 0.43055(3) 0.31314(2)
O1 O 0.8772(3) 0.71383(9) 0.22417(5)
O2 O 1.3192(3) 0.74967(9) 0.16115(5)
O3 O 0.5950(3) 0.53404(8) 0.11637(5)
O4 O 0.8777(3) 0.48438(9) 0.14818(5)
C1 C 0.9810(4) 0.70395(12) 0.18614(7)
C2 C 1.0189(4) 0.62484(11) 0.17692(7)
H1 H 1.1478 0.6219 0.1592
C3 C 0.8216(4) 0.60736(12) 0.15207(7)
C4 C 0.7197(4) 0.66430(12) 0.13968(7)
H2 H 0.5948 0.6634 0.1234
C5 C 0.8239(4) 0.73001(12) 0.15424(7)
H3 H 0.7153 0.7623 0.1655
H4 H 0.9022 0.7541 0.1328
C6 C 1.1877(4) 0.74751(11) 0.18771(7)
C7 C 1.1780(4) 0.78522(12) 0.22474(7)
C8 C 1.3098(5) 0.83688(13) 0.24135(8)
H5 H 1.4400 0.8510 0.2288
C9 C 1.2454(5) 0.86665(14) 0.27633(8)
H6 H 1.3327 0.9016 0.2883
C10 C 1.0534(5) 0.84611(13) 0.29446(8)
H7 H 1.0114 0.8682 0.3183
C11 C 0.9219(5) 0.79444(13) 0.27877(8)
H8 H 0.7922 0.7802 0.2914
C12 C 0.9899(4) 0.76450(12) 0.24358(7)
C13 C 1.0633(4) 0.57838(12) 0.21207(7)
C14 C 1.2662(4) 0.54882(12) 0.21678(8)
H9 H 1.3772 0.5595 0.1984
C15 C 1.3100(4) 0.50367(13) 0.24804(7)
H10 H 1.4494 0.4836 0.2511
C16 C 1.1473(4) 0.48866(12) 0.27436(7)
C17 C 0.9443(4) 0.51800(12) 0.27083(7)
H11 H 0.8344 0.5076 0.2895
C18 C 0.9039(4) 0.56295(13) 0.23961(7)
H12 H 0.7650 0.5836 0.2370
C19 C 0.7712(4) 0.53478(12) 0.13921(7)
C20 C 0.5174(4) 0.46900(13) 0.09721(8)
C21 C 0.4372(5) 0.41859(15) 0.12820(9)
H13 H 0.5601 0.4005 0.1433
H14 H 0.3617 0.3797 0.1154
H15 H 0.3377 0.4429 0.1460
C22 C 0.6930(5) 0.43883(15) 0.07143(9)
H16 H 0.7507 0.4756 0.0543
H17 H 0.6331 0.4010 0.0553
H18 H 0.8092 0.4203 0.0880
C23 C 0.3310(5) 0.49595(14) 0.07261(9)
H19 H 0.2246 0.5185 0.0898
H20 H 0.2628 0.4568 0.0587
H21 H 0.3849 0.5300 0.0534
Cl2 Cl 0.17865(12) 0.71431(3) 0.52843(2)
O5 O 0.5358(3) 0.40874(8) 0.47136(5)
O6 O 0.0906(3) 0.34563(9) 0.41635(5)
O7 O 0.4271(3) 0.59676(9) 0.36955(6)
O8 O 0.7754(3) 0.57423(9) 0.35446(6)
C24 C 0.4262(4) 0.40409(12) 0.43348(7)
C25 C 0.3742(4) 0.47808(12) 0.41647(7)
H22 H 0.2447 0.4730 0.3991
C26 C 0.5664(4) 0.49086(13) 0.38995(7)
C27 C 0.6794(4) 0.43294(13) 0.38319(7)
H23 H 0.8057 0.4311 0.3673
C28 C 0.5832(4) 0.37127(12) 0.40362(7)
H24 H 0.6959 0.3435 0.4171
H25 H 0.5056 0.3408 0.3848
C29 C 0.2212(4) 0.36181(11) 0.44150(7)
C30 C 0.2241(4) 0.34603(12) 0.48350(7)
C31 C 0.0810(5) 0.30947(12) 0.50759(8)
H26 H -0.0509 0.2914 0.4975
C32 C 0.1374(5) 0.30039(13) 0.54658(8)
H27 H 0.0425 0.2761 0.5638
C33 C 0.3324(5) 0.32653(13) 0.56094(8)
H28 H 0.3683 0.3187 0.5878
C34 C 0.4755(5) 0.36342(13) 0.53754(7)
H29 H 0.6079 0.3810 0.5476
C35 C 0.4148(4) 0.37348(12) 0.49833(7)
C36 C 0.3240(4) 0.53497(12) 0.44597(7)
C37 C 0.4846(4) 0.56268(12) 0.47010(7)
H30 H 0.6257 0.5432 0.4694
C38 C 0.4414(4) 0.61820(12) 0.49503(7)
H31 H 0.5519 0.6372 0.5112
C39 C 0.2347(4) 0.64566(12) 0.49598(7)
C40 C 0.0725(4) 0.61959(12) 0.47260(8)
H32 H -0.0683 0.6393 0.4735
C41 C 0.1184(4) 0.56368(13) 0.44757(7)
H33 H 0.0073 0.5450 0.4314
C42 C 0.6058(4) 0.55850(13) 0.36945(7)
C43 C 0.4183(5) 0.66745(13) 0.35215(8)
C44 C 0.4510(8) 0.66255(16) 0.30821(9)
H34 H 0.6003 0.6487 0.3027
H35 H 0.4220 0.7082 0.2961
H36 H 0.3520 0.6276 0.2973
C45 C 0.5814(6) 0.71384(15) 0.37134(10)
H37 H 0.5671 0.7105 0.4000
H38 H 0.5572 0.7623 0.3631
H39 H 0.7269 0.6992 0.3635
C46 C 0.1913(6) 0.69047(19) 0.36202(15)
H40 H 0.0876 0.6582 0.3500
H41 H 0.1670 0.7378 0.3518
H42 H 0.1720 0.6904 0.3907
loop_
_geom_bond_atom_site_label_1
_geom_bond_atom_site_label_2
_geom_bond_site_symmetry_1
_geom_bond_site_symmetry_2
Cl1 C16 1_555 1_555
O1 C1 1_555 1_555
O2 C6 1_555 1_555
O3 C19 1_555 1_555
O4 C19 1_555 1_555
C1 C2 1_555 1_555
C2 H1 1_555 1_555
C3 C2 1_555 1_555
C4 C3 1_555 1_555
H2 C4 1_555 1_555
C5 C1 1_555 1_555
H3 C5 1_555 1_555
H4 C5 1_555 1_555
C6 C1 1_555 1_555
C7 C6 1_555 1_555
C8 C7 1_555 1_555
H5 C8 1_555 1_555
C9 C8 1_555 1_555
H6 C9 1_555 1_555
C10 C9 1_555 1_555
H7 C10 1_555 1_555
C11 C10 1_555 1_555
H8 C11 1_555 1_555
C12 O1 1_555 1_555
C13 C2 1_555 1_555
C14 C13 1_555 1_555
H9 C14 1_555 1_555
C15 C14 1_555 1_555
H10 C15 1_555 1_555
C16 C15 1_555 1_555
C17 C16 1_555 1_555
H11 C17 1_555 1_555
C18 C13 1_555 1_555
H12 C18 1_555 1_555
C19 C3 1_555 1_555
C20 O3 1_555 1_555
C21 C20 1_555 1_555
H13 C21 1_555 1_555
H14 C21 1_555 1_555
H15 C21 1_555 1_555
C22 C20 1_555 1_555
H16 C22 1_555 1_555
H17 C22 1_555 1_555
H18 C22 1_555 1_555
C23 C20 1_555 1_555
H19 C23 1_555 1_555
H20 C23 1_555 1_555
H21 C23 1_555 1_555
Cl2 C39 1_555 1_555
O5 C24 1_555 1_555
O6 C29 1_555 1_555
O7 C42 1_555 1_555
O8 C42 1_555 1_555
C24 C25 1_555 1_555
C25 H22 1_555 1_555
C26 C25 1_555 1_555
C27 C26 1_555 1_555
H23 C27 1_555 1_555
C28 C24 1_555 1_555
H24 C28 1_555 1_555
H25 C28 1_555 1_555
C29 C24 1_555 1_555
C30 C29 1_555 1_555
C31 C30 1_555 1_555
H26 C31 1_555 1_555
C32 C31 1_555 1_555
H27 C32 1_555 1_555
C33 C32 1_555 1_555
H28 C33 1_555 1_555
C34 C33 1_555 1_555
H29 C34 1_555 1_555
C35 O5 1_555 1_555
C36 C25 1_555 1_555
C37 C36 1_555 1_555
H30 C37 1_555 1_555
C38 C37 1_555 1_555
H31 C38 1_555 1_555
C39 C38 1_555 1_555
C40 C39 1_555 1_555
H32 C40 1_555 1_555
C41 C36 1_555 1_555
H33 C41 1_555 1_555
C42 C26 1_555 1_555
C43 O7 1_555 1_555
C44 C43 1_555 1_555
H34 C44 1_555 1_555
H35 C44 1_555 1_555
H36 C44 1_555 1_555
C45 C43 1_555 1_555
H37 C45 1_555 1_555
H38 C45 1_555 1_555
H39 C45 1_555 1_555
C46 C43 1_555 1_555
H40 C46 1_555 1_555
H41 C46 1_555 1_555
H42 C46 1_555 1_555
C4 C5 1_555 1_555
C7 C12 1_555 1_555
C11 C12 1_555 1_555
C17 C18 1_555 1_555
C27 C28 1_555 1_555
C30 C35 1_555 1_555
C34 C35 1_555 1_555
C40 C41 1_555 1_555

#END
