
#######################################################################
#
#                 Cambridge Crystallographic Data Centre
#                                CCDC 
#
#######################################################################
#
# If this CIF has been generated from an entry in the Cambridge 
# Structural Database, then it will include bibliographic, chemical, 
# crystal, experimental, refinement or atomic coordinate data resulting 
# from the CCDC's data processing and validation procedures.
#
#######################################################################

data_PAWSEN
_chemical_formula_moiety         'C17 H12 N2 O1,H2 O1'
_chemical_name_systematic        
'9-Phenyl-4,5-diaza-9H-fluoren-9-ol monohydrate'
_symmetry_cell_setting           triclinic
_symmetry_space_group_name_H-M   'P -1'
_symmetry_Int_Tables_number      2
_space_group_name_Hall           '-P 1'
loop_
_symmetry_equiv_pos_site_id
_symmetry_equiv_pos_as_xyz
1 x,y,z
2 -x,-y,-z
_cell_length_a                   8.8703(13)
_cell_length_b                   9.1691(18)
_cell_length_c                   18.643(3)
_cell_angle_alpha                86.745(14)
_cell_angle_beta                 86.943(12)
_cell_angle_gamma                67.798(16)
_cell_volume                     1400.77
_exptl_crystal_colour            colorless
_exptl_crystal_description       prismatic
_cell_formula_units_Z            4
loop_
_atom_site_label
_atom_site_type_symbol
_atom_site_fract_x
_atom_site_fract_y
_atom_site_fract_z
O1 O 0.57816(17) 0.33453(18) 0.42450(9)
H1 H 0.5908 0.2525 0.4479
N2 N 1.1101(2) -0.0146(2) 0.37662(12)
C1 C 0.7024(2) 0.4852(2) 0.35363(12)
N3 N 1.1083(2) 0.1802(2) 0.50497(11)
C2 C 0.9881(2) 0.2098(2) 0.45896(12)
C3 C 0.9891(2) 0.1169(2) 0.39702(12)
C5 C 0.7318(2) 0.3365(2) 0.40160(12)
C6 C 0.8405(2) 0.1867(2) 0.36401(12)
C9 C 0.8388(2) 0.3341(2) 0.46360(11)
C15 C 1.0747(3) 0.2791(3) 0.55871(13)
H5 H 1.1552 0.2628 0.5917
C16 C 0.8106(3) 0.1166(3) 0.30651(13)
H6 H 0.7123 0.1595 0.2832
C17 C 0.5615(3) 0.6152(3) 0.36287(18)
H7 H 0.4828 0.6115 0.3972
C18 C 1.0770(3) -0.0803(3) 0.32010(15)
H8 H 1.1571 -0.1726 0.3038
C21 C 0.8185(3) 0.4965(3) 0.30300(13)
H11 H 0.9151 0.4098 0.2965
C22 C 0.9288(3) 0.4035(3) 0.56844(13)
H12 H 0.9124 0.4673 0.6075
C24 C 0.8065(3) 0.4337(3) 0.52010(13)
H14 H 0.7070 0.5173 0.5254
C26 C 0.5362(3) 0.7527(3) 0.3209(2)
H16 H 0.4397 0.8395 0.3272
C27 C 0.9330(3) -0.0211(3) 0.28446(14)
H17 H 0.9180 -0.0732 0.2457
C31 C 0.7941(4) 0.6334(3) 0.26199(14)
H21 H 0.8739 0.6386 0.2287
C34 C 0.65056(16) 0.76264(14) 0.27072(8)
H24 H 0.6320 0.8548 0.2429
O2 O 0.2007(2) 0.3172(2) 0.04084(9)
H2 H 0.1708 0.2943 0.0037
N1 N -0.1757(2) 0.0898(2) 0.10802(11)
N4 N 0.1634(2) -0.1697(2) 0.07988(11)
C4 C 0.1298(2) -0.0174(2) 0.08946(11)
C7 C -0.0120(2) 0.2490(2) 0.10714(11)
C8 C -0.0324(2) 0.1074(2) 0.10219(11)
C10 C 0.1679(2) 0.2274(2) 0.09947(12)
C11 C -0.3054(3) 0.2230(3) 0.11991(14)
H3 H -0.4074 0.2162 0.1250
C12 C 0.2462(2) 0.0511(2) 0.08844(11)
C13 C -0.1472(3) 0.3845(3) 0.11780(14)
H4 H -0.1385 0.4820 0.1201
C14 C 0.2253(2) 0.2752(2) 0.16648(12)
C19 C 0.2676(3) 0.1754(3) 0.22721(15)
H9 H 0.2599 0.0770 0.2274
C20 C 0.4076(3) -0.0435(3) 0.07687(14)
H10 H 0.4888 -0.0024 0.0767
C23 C -0.2968(3) 0.3690(3) 0.12501(15)
H13 H -0.3911 0.4569 0.1333
C25 C 0.2348(3) 0.4217(3) 0.16785(15)
H15 H 0.2041 0.4912 0.1282
C28 C 0.3354(3) 0.3644(4) 0.28715(16)
H18 H 0.3758 0.3932 0.3268
C29 C 0.3208(4) 0.2207(4) 0.28722(16)
H19 H 0.3469 0.1536 0.3279
C30 C 0.3210(3) -0.2570(3) 0.06740(15)
H20 H 0.3487 -0.3634 0.0594
C32 C 0.2895(4) 0.4657(3) 0.22770(18)
H22 H 0.2956 0.5647 0.2280
C33 C 0.4451(3) -0.2013(3) 0.06554(16)
H23 H 0.5525 -0.2686 0.0568
O3 O 0.12630(16) 0.23352(14) 0.91460(8)
H25 H 0.1958 0.1556 0.8933
H26 H 0.0329 0.2298 0.9103
O4 O 0.61191(16) 0.08322(14) 0.51118(8)
H27 H 0.5490 0.0608 0.5420
H28 H 0.7032 0.0086 0.5039
loop_
_geom_bond_atom_site_label_1
_geom_bond_atom_site_label_2
_geom_bond_site_symmetry_1
_geom_bond_site_symmetry_2
O1 H1 1_555 1_555
O2 H2 1_555 1_555
N1 C8 1_555 1_555
N2 C3 1_555 1_555
C1 C5 1_555 1_555
N3 C2 1_555 1_555
C2 C3 1_555 1_555
C3 C6 1_555 1_555
N4 C4 1_555 1_555
C4 C8 1_555 1_555
C5 O1 1_555 1_555
C6 C5 1_555 1_555
C7 C8 1_555 1_555
C9 C2 1_555 1_555
C10 O2 1_555 1_555
C11 N1 1_555 1_555
H3 C11 1_555 1_555
C12 C4 1_555 1_555
C13 C7 1_555 1_555
H4 C13 1_555 1_555
C14 C10 1_555 1_555
C15 N3 1_555 1_555
H5 C15 1_555 1_555
C16 C6 1_555 1_555
H6 C16 1_555 1_555
C17 C1 1_555 1_555
H7 C17 1_555 1_555
C18 N2 1_555 1_555
H8 C18 1_555 1_555
C19 C14 1_555 1_555
H9 C19 1_555 1_555
C20 C12 1_555 1_555
H10 C20 1_555 1_555
C21 C1 1_555 1_555
H11 C21 1_555 1_555
C22 C15 1_555 1_555
H12 C22 1_555 1_555
C23 C11 1_555 1_555
H13 C23 1_555 1_555
C24 C9 1_555 1_555
H14 C24 1_555 1_555
C25 C14 1_555 1_555
H15 C25 1_555 1_555
C26 C17 1_555 1_555
H16 C26 1_555 1_555
C27 C16 1_555 1_555
H17 C27 1_555 1_555
C28 H18 1_555 1_555
C29 C19 1_555 1_555
H19 C29 1_555 1_555
C30 N4 1_555 1_555
H20 C30 1_555 1_555
C31 C21 1_555 1_555
H21 C31 1_555 1_555
C32 C25 1_555 1_555
H22 C32 1_555 1_555
C33 C20 1_555 1_555
H23 C33 1_555 1_555
C34 C26 1_555 1_555
H24 C34 1_555 1_555
O3 H25 1_555 1_555
H26 O3 1_555 1_555
O4 H27 1_555 1_555
H28 O4 1_555 1_555
C5 C9 1_555 1_555
C7 C10 1_555 1_555
C10 C12 1_555 1_555
C13 C23 1_555 1_555
C18 C27 1_555 1_555
C22 C24 1_555 1_555
C28 C29 1_555 1_555
C28 C32 1_555 1_555
C30 C33 1_555 1_555
C31 C34 1_555 1_555

#END
