
#######################################################################
#
#                 Cambridge Crystallographic Data Centre
#                                CCDC 
#
#######################################################################
#
# If this CIF has been generated from an entry in the Cambridge 
# Structural Database, then it will include bibliographic, chemical, 
# crystal, experimental, refinement or atomic coordinate data resulting 
# from the CCDC's data processing and validation procedures.
#
#######################################################################

data_PAWVIV
_chemical_name_common            
'2,4,9-trinitro-2,4,9-triaza-adamantane-7-yl nitrate'
_chemical_formula_moiety         'C7 H9 N7 O9'
_chemical_name_systematic        
'2,4,9-trinitro-2,4,9-triazatricyclo[3.3.1.1^3,7^]decan-7-yl nitrate'
_symmetry_cell_setting           monoclinic
_symmetry_space_group_name_H-M   'C c'
_symmetry_Int_Tables_number      9
_space_group_name_Hall           'C -2yc'
loop_
_symmetry_equiv_pos_site_id
_symmetry_equiv_pos_as_xyz
1 x,y,z
2 x,-y,1/2+z
3 1/2+x,1/2+y,z
4 1/2+x,1/2-y,1/2+z
_cell_length_a                   7.6272(7)
_cell_length_b                   13.3952(13)
_cell_length_c                   11.8460(12)
_cell_angle_alpha                90
_cell_angle_beta                 90.870(3)
_cell_angle_gamma                90
_cell_volume                     1210.14
_cell_formula_units_Z            4
loop_
_atom_site_label
_atom_site_type_symbol
_atom_site_fract_x
_atom_site_fract_y
_atom_site_fract_z
O1 O 0.3670(2) 0.63735(11) 0.76663(12)
O2 O 0.6182(2) 0.71222(11) 0.78426(12)
O3 O 0.68219(18) 0.52138(10) 0.31353(12)
O4 O 0.7674(2) 0.89002(11) 0.60956(14)
O5 O 0.5866(2) 0.94613(11) 0.48034(15)
O6 O 0.10298(19) 0.71535(13) 0.59173(14)
O7 O 0.8975(2) 0.46229(13) 0.21581(14)
N1 N 0.5064(2) 0.66705(12) 0.73038(13)
O8 O 0.8919(2) 0.62262(12) 0.24514(14)
O9 O 0.2165(2) 0.85218(11) 0.52561(16)
N2 N 0.5466(2) 0.64123(11) 0.61893(13)
N3 N 0.3358(2) 0.70427(11) 0.48080(14)
N4 N 0.6575(2) 0.87880(11) 0.53464(14)
N5 N 0.6126(2) 0.78340(11) 0.50651(14)
N6 N 0.8386(2) 0.53826(14) 0.25372(14)
N7 N 0.2117(2) 0.76163(12) 0.53810(15)
C1 C 0.7689(2) 0.62823(13) 0.47646(15)
H1 H 0.8629 0.6625 0.4382
H2 H 0.8168 0.5689 0.5122
C2 C 0.4007(2) 0.61502(12) 0.54121(15)
H3 H 0.3057 0.5823 0.5819
C3 C 0.4764(2) 0.54528(13) 0.45206(15)
H4 H 0.5211 0.4851 0.4877
H5 H 0.3854 0.5265 0.3980
C4 C 0.5498(3) 0.69180(13) 0.33269(16)
H6 H 0.4584 0.6726 0.2791
H7 H 0.6414 0.7261 0.2921
C5 C 0.6244(2) 0.59946(12) 0.39180(15)
C6 C 0.6885(2) 0.69688(12) 0.56545(15)
H8 H 0.7770 0.7178 0.6214
C7 C 0.4742(2) 0.76063(13) 0.42386(15)
H9 H 0.4270 0.8220 0.3901
loop_
_geom_bond_atom_site_label_1
_geom_bond_atom_site_label_2
_geom_bond_site_symmetry_1
_geom_bond_site_symmetry_2
O1 N1 1_555 1_555
O2 N1 1_555 1_555
O3 N6 1_555 1_555
O4 N4 1_555 1_555
O5 N4 1_555 1_555
O6 N7 1_555 1_555
O7 N6 1_555 1_555
N1 N2 1_555 1_555
O8 N6 1_555 1_555
O9 N7 1_555 1_555
N2 C2 1_555 1_555
N3 N7 1_555 1_555
N4 N5 1_555 1_555
N5 C6 1_555 1_555
C1 H1 1_555 1_555
H2 C1 1_555 1_555
C2 N3 1_555 1_555
H3 C2 1_555 1_555
C3 C2 1_555 1_555
H4 C3 1_555 1_555
H5 C3 1_555 1_555
C4 H6 1_555 1_555
H7 C4 1_555 1_555
C5 O3 1_555 1_555
C6 N2 1_555 1_555
H8 C6 1_555 1_555
C7 N3 1_555 1_555
H9 C7 1_555 1_555
N5 C7 1_555 1_555
C1 C5 1_555 1_555
C1 C6 1_555 1_555
C3 C5 1_555 1_555
C4 C5 1_555 1_555
C4 C7 1_555 1_555

#END
