
#######################################################################
#
#                 Cambridge Crystallographic Data Centre
#                                CCDC 
#
#######################################################################
#
# If this CIF has been generated from an entry in the Cambridge 
# Structural Database, then it will include bibliographic, chemical, 
# crystal, experimental, refinement or atomic coordinate data resulting 
# from the CCDC's data processing and validation procedures.
#
#######################################################################

data_PAWWOB
_chemical_formula_moiety         'C22 H14 Cl1 N3'
_chemical_name_systematic        
2-Amino-4-(2-chlorophenyl)-6-(naphthalen-1-yl)pyridine-3-carbonitrile
_symmetry_cell_setting           monoclinic
_symmetry_space_group_name_H-M   'P 21/n'
_symmetry_Int_Tables_number      14
_space_group_name_Hall           '-P 2yn'
loop_
_symmetry_equiv_pos_site_id
_symmetry_equiv_pos_as_xyz
1 x,y,z
2 1/2-x,1/2+y,1/2-z
3 -x,-y,-z
4 1/2+x,1/2-y,1/2+z
_cell_length_a                   12.275(3)
_cell_length_b                   4.6490(9)
_cell_length_c                   30.887(6)
_cell_angle_alpha                90
_cell_angle_beta                 90.18(3)
_cell_angle_gamma                90
_cell_volume                     1762.6
_exptl_crystal_colour            colorless
_exptl_crystal_description       needle
_chemical_melting_point          '421 K'
_cell_formula_units_Z            4
loop_
_atom_site_label
_atom_site_type_symbol
_atom_site_fract_x
_atom_site_fract_y
_atom_site_fract_z
Cl1 Cl 0.31710(12) 0.7045(4) 0.20602(4)
N1 N 0.4498(3) 0.3780(9) 0.05627(11)
C1 C 0.6080(4) 0.3185(13) 0.20923(15)
H1 H 0.6571 0.2335 0.1903
N2 N 0.6054(3) 0.6314(10) 0.04127(11)
H2 H 0.5897 0.6189 0.0142
H3 H 0.6635 0.7198 0.0494
C2 C 0.6330(5) 0.3305(14) 0.25299(16)
H4 H 0.6981 0.2532 0.2632
N3 N 0.7314(4) 0.8313(12) 0.13555(14)
C3 C 0.5613(5) 0.4568(15) 0.28131(17)
H5 H 0.5779 0.4680 0.3107
C4 C 0.4654(5) 0.5656(13) 0.26593(15)
H6 H 0.4162 0.6475 0.2851
C5 C 0.4402(4) 0.5563(11) 0.22255(14)
C6 C 0.5115(4) 0.4305(11) 0.19312(13)
C7 C 0.4887(4) 0.4158(11) 0.14580(14)
C8 C 0.3990(4) 0.2782(11) 0.12958(13)
H7 H 0.3499 0.1926 0.1485
C9 C 0.3800(3) 0.2645(10) 0.08536(13)
C10 C 0.5383(4) 0.5115(11) 0.07123(14)
C11 C 0.5606(3) 0.5421(11) 0.11589(14)
C12 C 0.6549(4) 0.7022(13) 0.12856(14)
C13 C 0.2812(4) 0.1290(10) 0.06732(14)
C14 C 0.1748(4) 0.1886(11) 0.08349(14)
C15 C 0.1539(4) 0.3973(12) 0.11570(15)
H8 H 0.2113 0.5015 0.1276
C16 C 0.0499(5) 0.4471(14) 0.12953(18)
H9 H 0.0379 0.5848 0.1508
C17 C -0.0383(5) 0.2979(16) 0.11261(19)
H10 H -0.1083 0.3344 0.1226
C18 C -0.0217(4) 0.0997(14) 0.08151(19)
H11 H -0.0808 -0.0007 0.0702
C19 C 0.0835(4) 0.0418(12) 0.06576(16)
C20 C 0.1015(4) -0.1567(12) 0.03181(17)
H12 H 0.0425 -0.2559 0.0202
C21 C 0.2025(4) -0.2061(11) 0.01577(15)
H13 H 0.2118 -0.3334 -0.0071
C22 C 0.2927(4) -0.0649(11) 0.03379(15)
H14 H 0.3618 -0.1027 0.0229
loop_
_geom_bond_atom_site_label_1
_geom_bond_atom_site_label_2
_geom_bond_site_symmetry_1
_geom_bond_site_symmetry_2
Cl1 C5 1_555 1_555
N1 C9 1_555 1_555
C1 H1 1_555 1_555
N2 H2 1_555 1_555
H3 N2 1_555 1_555
C2 C1 1_555 1_555
H4 C2 1_555 1_555
N3 C12 1_555 1_555
C3 C2 1_555 1_555
H5 C3 1_555 1_555
C4 C3 1_555 1_555
H6 C4 1_555 1_555
C5 C4 1_555 1_555
C6 C1 1_555 1_555
C7 C6 1_555 1_555
C8 C7 1_555 1_555
H7 C8 1_555 1_555
C9 C8 1_555 1_555
C10 N1 1_555 1_555
C11 C7 1_555 1_555
C12 C11 1_555 1_555
C13 C9 1_555 1_555
C14 C13 1_555 1_555
C15 C14 1_555 1_555
H8 C15 1_555 1_555
C16 C15 1_555 1_555
H9 C16 1_555 1_555
C17 C16 1_555 1_555
H10 C17 1_555 1_555
C18 C17 1_555 1_555
H11 C18 1_555 1_555
C19 C14 1_555 1_555
C20 C19 1_555 1_555
H12 C20 1_555 1_555
C21 C20 1_555 1_555
H13 C21 1_555 1_555
C22 C13 1_555 1_555
H14 C22 1_555 1_555
N2 C10 1_555 1_555
C5 C6 1_555 1_555
C10 C11 1_555 1_555
C18 C19 1_555 1_555
C21 C22 1_555 1_555

#END
