
#######################################################################
#
#                 Cambridge Crystallographic Data Centre
#                                CCDC 
#
#######################################################################
#
# If this CIF has been generated from an entry in the Cambridge 
# Structural Database, then it will include bibliographic, chemical, 
# crystal, experimental, refinement or atomic coordinate data resulting 
# from the CCDC's data processing and validation procedures.
#
#######################################################################

data_PAWXES01
_chemical_formula_moiety         'C27 H37 N2 1+,Cl1 1-,2(C1 H2 Cl2)'
_chemical_name_systematic        
'1,3-bis(2,6-Di-isopropylphenyl)imidazolium chloride dichloromethane solvate'
_symmetry_cell_setting           monoclinic
_symmetry_space_group_name_H-M   'P 21/c'
_symmetry_Int_Tables_number      14
_space_group_name_Hall           '-P 2ybc'
loop_
_symmetry_equiv_pos_site_id
_symmetry_equiv_pos_as_xyz
1 x,y,z
2 -x,1/2+y,1/2-z
3 -x,-y,-z
4 x,1/2-y,1/2+z
_cell_length_a                   10.8290(2)
_cell_length_b                   16.4316(3)
_cell_length_c                   18.1286(13)
_cell_angle_alpha                90
_cell_angle_beta                 100.785(7)
_cell_angle_gamma                90
_cell_volume                     3168.78
_exptl_crystal_colour            colorless
_exptl_crystal_description       block
_cell_formula_units_Z            4
loop_
_atom_site_label
_atom_site_type_symbol
_atom_site_fract_x
_atom_site_fract_y
_atom_site_fract_z
Cl1 Cl 0.92243(3) 0.254475(18) 0.165387(17)
N1 N 0.91608(9) 0.18723(6) 0.39547(5)
N2 N 0.91507(9) 0.31877(6) 0.40051(5)
C1 C 0.92153(12) 0.10507(7) 0.36649(7)
C2 C 0.81238(12) 0.07212(7) 0.32342(7)
C3 C 0.82255(13) -0.00654(8) 0.29544(7)
H1 H 0.7508 -0.0312 0.2656
C4 C 0.93446(13) -0.04913(8) 0.31016(7)
H2 H 0.9390 -0.1022 0.2901
C5 C 1.04016(13) -0.01484(8) 0.35403(7)
H3 H 1.1161 -0.0452 0.3645
C6 C 1.03675(12) 0.06389(7) 0.38309(7)
C7 C 0.68721(12) 0.11662(8) 0.30569(8)
H4 H 0.6971 0.1702 0.3322
C8 C 0.58350(13) 0.06888(10) 0.33356(8)
H5 H 0.5719 0.0162 0.3079
H6 H 0.5048 0.0998 0.3228
H7 H 0.6075 0.0602 0.3878
C9 C 0.65073(14) 0.13292(10) 0.22121(9)
H8 H 0.7161 0.1658 0.2049
H9 H 0.5706 0.1623 0.2107
H10 H 0.6422 0.0811 0.1940
C10 C 1.15417(12) 0.10089(8) 0.43011(7)
H11 H 1.1335 0.1575 0.4440
C11 C 1.19577(15) 0.05260(10) 0.50260(8)
H12 H 1.1285 0.0532 0.5320
H13 H 1.2717 0.0773 0.5319
H14 H 1.2137 -0.0037 0.4903
C12 C 1.26079(14) 0.10589(11) 0.38551(8)
H15 H 1.2866 0.0508 0.3742
H16 H 1.3325 0.1347 0.4153
H17 H 1.2316 0.1354 0.3385
C13 C 0.91914(11) 0.25495(7) 0.35513(7)
H18 H 0.9235 0.2574 0.3033
C14 C 0.90926(11) 0.29055(7) 0.47213(6)
H19 H 0.9055 0.3229 0.5151
C15 C 0.90996(11) 0.20835(7) 0.46892(7)
H20 H 0.9068 0.1719 0.5092
C16 C 0.91412(12) 0.40361(7) 0.37718(6)
C17 C 0.80039(12) 0.43627(7) 0.33945(7)
C18 C 0.80283(13) 0.51758(8) 0.31658(7)
H21 H 0.7278 0.5423 0.2907
C19 C 0.91260(14) 0.56253(8) 0.33105(8)
H22 H 0.9124 0.6173 0.3144
C20 C 1.02312(13) 0.52824(8) 0.36977(7)
H23 H 1.0974 0.5602 0.3799
C21 C 1.02679(12) 0.44749(7) 0.39408(7)
C22 C 0.67916(12) 0.38790(8) 0.32189(7)
H24 H 0.6929 0.3350 0.3495
C23 C 0.56974(13) 0.43173(9) 0.34753(8)
H25 H 0.5908 0.4415 0.4018
H26 H 0.4941 0.3979 0.3361
H27 H 0.5543 0.4838 0.3211
C24 C 0.64705(14) 0.36920(10) 0.23758(8)
H28 H 0.6333 0.4203 0.2093
H29 H 0.5706 0.3360 0.2269
H30 H 0.7168 0.3394 0.2226
C25 C 1.14773(12) 0.40815(8) 0.43520(7)
H31 H 1.1245 0.3698 0.4732
C26 C 1.24108(15) 0.46936(10) 0.47710(9)
H32 H 1.2712 0.5050 0.4409
H33 H 1.3124 0.4403 0.5068
H34 H 1.1997 0.5022 0.5105
C27 C 1.21076(13) 0.35793(9) 0.38115(8)
H35 H 1.1504 0.3185 0.3547
H36 H 1.2835 0.3290 0.4096
H37 H 1.2386 0.3943 0.3446
Cl2 Cl 0.29553(4) 0.26697(3) 0.57297(2)
Cl3 Cl 0.31908(5) 0.24860(3) 0.73438(3)
C28 C 0.23649(16) 0.21927(10) 0.64593(10)
H38 H 0.1466 0.2335 0.6419
H39 H 0.2425 0.1595 0.6407
Cl4 Cl 0.5695(2) 0.2778(3) 0.48080(17)
Cl5 Cl 0.5775(3) 0.11452(18) 0.54035(10)
C29 C 0.6143(15) 0.2170(4) 0.5617(4)
H40 H 0.7057 0.2226 0.5805
H41 H 0.5697 0.2356 0.6016
C30? C 0.612(3) 0.2333(5) 0.5666(6)
Cl6? Cl 0.5801(4) 0.3109(5) 0.4985(4)
Cl7? Cl 0.6040(3) 0.1355(4) 0.5275(3)
H42? H 0.6968 0.2419 0.5970
H43? H 0.5505 0.2372 0.6007
loop_
_geom_bond_atom_site_label_1
_geom_bond_atom_site_label_2
_geom_bond_site_symmetry_1
_geom_bond_site_symmetry_2
N1 C1 1_555 1_555
N2 C13 1_555 1_555
C1 C2 1_555 1_555
C2 C3 1_555 1_555
C3 H1 1_555 1_555
C4 C3 1_555 1_555
H2 C4 1_555 1_555
C5 C4 1_555 1_555
H3 C5 1_555 1_555
C6 C1 1_555 1_555
C7 C2 1_555 1_555
H4 C7 1_555 1_555
C8 C7 1_555 1_555
H5 C8 1_555 1_555
H6 C8 1_555 1_555
H7 C8 1_555 1_555
C9 C7 1_555 1_555
H8 C9 1_555 1_555
H9 C9 1_555 1_555
H10 C9 1_555 1_555
C10 C6 1_555 1_555
H11 C10 1_555 1_555
C11 C10 1_555 1_555
H12 C11 1_555 1_555
H13 C11 1_555 1_555
H14 C11 1_555 1_555
C12 C10 1_555 1_555
H15 C12 1_555 1_555
H16 C12 1_555 1_555
H17 C12 1_555 1_555
C13 N1 1_555 1_555
H18 C13 1_555 1_555
C14 N2 1_555 1_555
H19 C14 1_555 1_555
C15 N1 1_555 1_555
H20 C15 1_555 1_555
C16 N2 1_555 1_555
C17 C16 1_555 1_555
C18 C17 1_555 1_555
H21 C18 1_555 1_555
C19 C18 1_555 1_555
H22 C19 1_555 1_555
C20 C19 1_555 1_555
H23 C20 1_555 1_555
C21 C16 1_555 1_555
C22 C17 1_555 1_555
H24 C22 1_555 1_555
C23 C22 1_555 1_555
H25 C23 1_555 1_555
H26 C23 1_555 1_555
H27 C23 1_555 1_555
C24 C22 1_555 1_555
H28 C24 1_555 1_555
H29 C24 1_555 1_555
H30 C24 1_555 1_555
C25 C21 1_555 1_555
H31 C25 1_555 1_555
C26 C25 1_555 1_555
H32 C26 1_555 1_555
H33 C26 1_555 1_555
H34 C26 1_555 1_555
C27 C25 1_555 1_555
H35 C27 1_555 1_555
H36 C27 1_555 1_555
H37 C27 1_555 1_555
Cl2 C28 1_555 1_555
Cl3 C28 1_555 1_555
C28 H38 1_555 1_555
H39 C28 1_555 1_555
Cl4 C29 1_555 1_555
Cl5 C29 1_555 1_555
C29 H40 1_555 1_555
H41 C29 1_555 1_555
C5 C6 1_555 1_555
C14 C15 1_555 1_555
C20 C21 1_555 1_555

#END
