
#######################################################################
#
#                 Cambridge Crystallographic Data Centre
#                                CCDC 
#
#######################################################################
#
# If this CIF has been generated from an entry in the Cambridge 
# Structural Database, then it will include bibliographic, chemical, 
# crystal, experimental, refinement or atomic coordinate data resulting 
# from the CCDC's data processing and validation procedures.
#
#######################################################################

data_PAWZIY
_chemical_formula_moiety         'C18 H22 O1 S1'
_chemical_name_systematic        
(1E,4E)-1-(Thiophen-2-yl)-5-(2,6,6-trimethylcyclohex-1-en-1-yl)penta-1,4-dien-3-one
_symmetry_cell_setting           monoclinic
_symmetry_space_group_name_H-M   'P 21/m'
_symmetry_Int_Tables_number      11
_space_group_name_Hall           '-P 2yb'
loop_
_symmetry_equiv_pos_site_id
_symmetry_equiv_pos_as_xyz
1 x,y,z
2 -x,1/2+y,-z
3 -x,-y,-z
4 x,1/2-y,z
_cell_length_a                   8.3401(17)
_cell_length_b                   6.9084(14)
_cell_length_c                   13.994(3)
_cell_angle_alpha                90
_cell_angle_beta                 96.082(4)
_cell_angle_gamma                90
_cell_volume                     801.75
_exptl_crystal_colour            colorless
_exptl_crystal_description       prismatic
_cell_formula_units_Z            2
loop_
_atom_site_label
_atom_site_type_symbol
_atom_site_fract_x
_atom_site_fract_y
_atom_site_fract_z
S1 S 1.08493(6) 0.2500 0.58526(4)
O1 O 0.4327(2) 0.2500 0.53246(12)
C1 C 1.2154(3) 0.2500 0.68697(16)
H1 H 1.3270 0.2500 0.6874
C2 C 1.1384(3) 0.2500 0.76737(16)
H2 H 1.1919 0.2500 0.8292
C3 C 0.9688(3) 0.2500 0.74818(15)
H3 H 0.8982 0.2500 0.7954
C4 C 0.9204(3) 0.2500 0.65023(14)
C5 C 0.7575(3) 0.2500 0.60586(16)
H4 H 0.6772 0.2500 0.6472
C6 C 0.7078(3) 0.2500 0.51249(15)
H5 H 0.7839 0.2500 0.4685
C7 C 0.5361(3) 0.2500 0.47694(16)
C8 C 0.4939(3) 0.2500 0.37222(15)
H6 H 0.5754 0.2500 0.3317
C9 C 0.3412(3) 0.2500 0.33499(15)
H7 H 0.2683 0.2500 0.3809
C10 C 0.2646(3) 0.2500 0.23645(14)
C11 C 0.1024(3) 0.2500 0.22224(15)
C12 C 0.0090(3) 0.2500 0.12463(18)
C13 C 0.1137(5) 0.1880(7) 0.0454(2)
C14 C 0.2610(5) 0.3124(8) 0.0579(2)
C15 C 0.3698(3) 0.2500 0.15222(17)
C16 C -0.0078(3) 0.2500 0.30125(17)
C17 C 0.4761(3) 0.4305(4) 0.15515(17)
H11 H 0.5515 0.4277 0.2119
H12 H 0.5338 0.4331 0.0993
H13 H 0.4099 0.5440 0.1560
H15 H -0.061(3) 0.363(3) 0.1184(16)
C13C C 0.1137(5) 0.3120(7) 0.0454(2)
C14C C 0.2610(5) 0.1876(8) 0.0579(2)
C17C C 0.4761(3) 0.0695(4) 0.15515(17)
H11C H 0.5515 0.0723 0.2119
H12C H 0.5338 0.0669 0.0993
H13C H 0.4099 -0.0440 0.1560
H15C H -0.061(3) 0.137(3) 0.1184(16)
H8? H -0.0320 0.3810 0.3175
H9? H 0.0445 0.1857 0.3569
H10? H -0.1060 0.1833 0.2796
H14? H 0.317(4) 0.2500 0.005(2)
H16? H 0.253(8) 0.454(3) 0.061(5)
H17? H 0.060(4) 0.2500 -0.0122(18)
H18? H 0.159(5) 0.445(3) 0.048(3)
loop_
_geom_bond_atom_site_label_1
_geom_bond_atom_site_label_2
_geom_bond_site_symmetry_1
_geom_bond_site_symmetry_2
S1 C1 1_555 1_555
O1 C7 1_555 1_555
C1 H1 1_555 1_555
C2 C1 1_555 1_555
H2 C2 1_555 1_555
C3 C2 1_555 1_555
H3 C3 1_555 1_555
C4 S1 1_555 1_555
C5 C4 1_555 1_555
H4 C5 1_555 1_555
C6 C5 1_555 1_555
H5 C6 1_555 1_555
C7 C6 1_555 1_555
C8 C7 1_555 1_555
H6 C8 1_555 1_555
C9 C8 1_555 1_555
H7 C9 1_555 1_555
C10 C9 1_555 1_555
C11 C10 1_555 1_555
C12 C11 1_555 1_555
C13 C12 1_555 1_555
C14 C13 1_555 1_555
C15 C10 1_555 1_555
C16 C11 1_555 1_555
C17 C15 1_555 1_555
H11 C17 1_555 1_555
H12 C17 1_555 1_555
H13 C17 1_555 1_555
H15 C12 1_555 1_555
C13C C12 1_555 1_555
C14C C13 1_555 1_555
C17C C15 1_555 1_555
H11C C17C 1_555 1_555
H12C C17C 1_555 1_555
H13C C17C 1_555 1_555
H15C C12 1_555 1_555
C3 C4 1_555 1_555
C13 C13C 1_555 1_555
C14 C15 1_555 1_555
C14 C13C 1_555 1_555
C14 C14C 1_555 1_555
C15 C14C 1_555 1_555
C13C C14C 1_555 1_555

#END
