
#######################################################################
#
#                 Cambridge Crystallographic Data Centre
#                                CCDC 
#
#######################################################################
#
# If this CIF has been generated from an entry in the Cambridge 
# Structural Database, then it will include bibliographic, chemical, 
# crystal, experimental, refinement or atomic coordinate data resulting 
# from the CCDC's data processing and validation procedures.
#
#######################################################################

data_PAXDOK
_chemical_formula_moiety         'C21 H21 Br1 N2 O2'
_chemical_name_systematic        
't-butyl ((2-(4-bromophenyl)quinolin-3-yl)methyl)carbamate'
_symmetry_cell_setting           triclinic
_symmetry_space_group_name_H-M   'P -1'
_symmetry_Int_Tables_number      2
_space_group_name_Hall           '-P 1'
loop_
_symmetry_equiv_pos_site_id
_symmetry_equiv_pos_as_xyz
1 x,y,z
2 -x,-y,-z
_cell_length_a                   5.095(8)
_cell_length_b                   12.261(19)
_cell_length_c                   17.00(3)
_cell_angle_alpha                73.395(18)
_cell_angle_beta                 81.56(2)
_cell_angle_gamma                78.69(2)
_cell_volume                     993.273
_exptl_crystal_colour            colorless
_exptl_crystal_description       prismatic
_cell_formula_units_Z            2
loop_
_atom_site_label
_atom_site_type_symbol
_atom_site_fract_x
_atom_site_fract_y
_atom_site_fract_z
Br1 Br 0.1244(4) 0.93065(15) 0.89777(10)
N1 N 0.8515(18) 0.8351(7) 0.5479(5)
N2 N 0.4572(19) 0.5347(8) 0.6998(6)
H1 H 0.6183 0.5206 0.7139
O1 O 0.361(2) 0.4148(10) 0.8162(6)
O2 O 0.0357(18) 0.4970(7) 0.7334(5)
C1 C 0.986(2) 0.8070(10) 0.4790(7)
C2 C 1.177(3) 0.8744(10) 0.4313(7)
H2 H 1.2049 0.9388 0.4455
C3 C 1.319(3) 0.8445(12) 0.3646(8)
H3 H 1.4461 0.8887 0.3340
C4 C 1.281(3) 0.7516(13) 0.3407(8)
H4 H 1.3786 0.7341 0.2939
C5 C 1.099(3) 0.6848(12) 0.3870(8)
H5 H 1.0749 0.6211 0.3710
C6 C 0.947(2) 0.7085(10) 0.4573(7)
C7 C 0.753(3) 0.6474(10) 0.5056(7)
H6 H 0.7196 0.5840 0.4913
C8 C 0.610(2) 0.6755(8) 0.5729(7)
C9 C 0.668(2) 0.7731(10) 0.5917(7)
C10 C 0.535(2) 0.8096(9) 0.6649(6)
C11 C 0.641(4) 0.7741(14) 0.7388(10)
H7 H 0.8102 0.7287 0.7421
C12 C 0.508(4) 0.8025(16) 0.8096(10)
H8 H 0.5727 0.7661 0.8606
C13 C 0.291(3) 0.8812(11) 0.8034(8)
C14 C 0.194(4) 0.9209(16) 0.7330(11)
H9 H 0.0325 0.9718 0.7293
C15 C 0.323(3) 0.8906(15) 0.6616(9)
H10 H 0.2573 0.9286 0.6110
C16 C 0.386(2) 0.6133(10) 0.6210(7)
H11 H 0.2316 0.6699 0.6310
H12 H 0.3328 0.5700 0.5880
C17 C 0.263(3) 0.4866(10) 0.7478(8)
C18 C 0.181(4) 0.3404(18) 0.8817(11)
C19 C 0.411(7) 0.225(3) 0.929(2)
H13 H 0.3387 0.1904 0.9836
H14 H 0.5752 0.2508 0.9308
H15 H 0.4480 0.1682 0.8974
C20 C 0.077(4) 0.2661(14) 0.8509(11)
H16 H 0.2188 0.2251 0.8216
H17 H -0.0556 0.3098 0.8142
H18 H -0.0055 0.2121 0.8958
C21 C -0.019(4) 0.4296(16) 0.9124(10)
H19 H -0.1469 0.4661 0.8728
H20 H 0.0728 0.4865 0.9203
H21 H -0.1107 0.3935 0.9639
C22? C 0.301(6) 0.348(3) 0.9618(16)
loop_
_geom_bond_atom_site_label_1
_geom_bond_atom_site_label_2
_geom_bond_site_symmetry_1
_geom_bond_site_symmetry_2
Br1 C13 1_555 1_555
N1 C1 1_555 1_555
N2 H1 1_555 1_555
O1 C17 1_555 1_555
O2 C17 1_555 1_555
C1 C2 1_555 1_555
C2 H2 1_555 1_555
C3 C2 1_555 1_555
H3 C3 1_555 1_555
C4 C3 1_555 1_555
H4 C4 1_555 1_555
C5 C4 1_555 1_555
H5 C5 1_555 1_555
C6 C1 1_555 1_555
C7 C6 1_555 1_555
H6 C7 1_555 1_555
C8 C7 1_555 1_555
C9 N1 1_555 1_555
C10 C9 1_555 1_555
C11 C10 1_555 1_555
H7 C11 1_555 1_555
C12 C11 1_555 1_555
H8 C12 1_555 1_555
C13 C12 1_555 1_555
C14 C13 1_555 1_555
H9 C14 1_555 1_555
C15 C10 1_555 1_555
H10 C15 1_555 1_555
C16 N2 1_555 1_555
H11 C16 1_555 1_555
H12 C16 1_555 1_555
C17 N2 1_555 1_555
C18 O1 1_555 1_555
C19 C18 1_555 1_555
H13 C19 1_555 1_555
H14 C19 1_555 1_555
H15 C19 1_555 1_555
C20 C18 1_555 1_555
H16 C20 1_555 1_555
H17 C20 1_555 1_555
H18 C20 1_555 1_555
C21 C18 1_555 1_555
H19 C21 1_555 1_555
H20 C21 1_555 1_555
H21 C21 1_555 1_555
C5 C6 1_555 1_555
C8 C9 1_555 1_555
C8 C16 1_555 1_555
C14 C15 1_555 1_555

#END
