
#######################################################################
#
#                 Cambridge Crystallographic Data Centre
#                                CCDC 
#
#######################################################################
#
# If this CIF has been generated from an entry in the Cambridge 
# Structural Database, then it will include bibliographic, chemical, 
# crystal, experimental, refinement or atomic coordinate data resulting 
# from the CCDC's data processing and validation procedures.
#
#######################################################################

data_PAXDUQ
_chemical_formula_moiety         'C22 H26 N2 O4'
_chemical_name_systematic        
't-butyl 4-(4-methoxyphenyl)-3-phenyl-2-oxa-3,7-diazabicyclo[3.2.0]heptane-7-carboxylate'
_symmetry_cell_setting           triclinic
_symmetry_space_group_name_H-M   'P -1'
_symmetry_Int_Tables_number      2
_space_group_name_Hall           '-P 1'
loop_
_symmetry_equiv_pos_site_id
_symmetry_equiv_pos_as_xyz
1 x,y,z
2 -x,-y,-z
_cell_length_a                   6.1408(17)
_cell_length_b                   10.540(3)
_cell_length_c                   16.567(5)
_cell_angle_alpha                87.399(7)
_cell_angle_beta                 81.181(6)
_cell_angle_gamma                79.922(6)
_cell_volume                     1043.07
_exptl_crystal_colour            colorless
_exptl_crystal_description       prismatic
_cell_formula_units_Z            2
loop_
_atom_site_label
_atom_site_type_symbol
_atom_site_fract_x
_atom_site_fract_y
_atom_site_fract_z
N1 N 0.7209(4) 0.3352(2) 0.70316(15)
N2 N 0.6944(4) 0.6204(2) 0.68807(14)
O1 O 0.8640(3) 0.52615(18) 0.64463(12)
O2 O 0.2892(4) 0.95389(19) 0.39818(13)
O3 O 1.0597(4) 0.2199(2) 0.71325(14)
O4 O 0.7463(3) 0.17918(19) 0.79520(12)
C1 C 0.4805(5) 0.3725(3) 0.71420(19)
H1 H 0.4181 0.4147 0.7654
H2 H 0.4014 0.3036 0.7050
C2 C 0.5112(5) 0.4661(3) 0.64060(18)
H3 H 0.4431 0.4475 0.5936
C3 C 0.7627(5) 0.4185(3) 0.63295(18)
H4 H 0.8264 0.3722 0.5825
C4 C 0.4829(5) 0.6081(3) 0.65918(17)
H5 H 0.3590 0.6291 0.7039
C5 C 0.4410(4) 0.6978(2) 0.58771(15)
C6 C 0.2231(5) 0.7530(3) 0.57861(17)
H6 H 0.1051 0.7326 0.6163
C7 C 0.1787(5) 0.8367(3) 0.51531(19)
H7 H 0.0316 0.8728 0.5107
C8 C 0.3502(5) 0.8679(3) 0.45840(16)
C9 C 0.5676(5) 0.8128(3) 0.46518(17)
H8 H 0.6845 0.8319 0.4265
C10 C 0.6113(5) 0.7292(3) 0.52944(17)
H9 H 0.7586 0.6932 0.5338
C11 C 0.4607(6) 1.0014(3) 0.34418(19)
H10 H 0.5663 1.0260 0.3751
H11 H 0.3962 1.0750 0.3143
H12 H 0.5356 0.9354 0.3067
C12 C 0.7025(6) 0.6168(3) 0.77301(19)
C13 C 0.5325(8) 0.6875(4) 0.8248(2)
H13 H 0.4085 0.7334 0.8043
C14 C 0.5456(10) 0.6905(5) 0.9071(3)
H14 H 0.4268 0.7349 0.9422
C15 C 0.7304(11) 0.6292(5) 0.9371(3)
H15 H 0.7398 0.6331 0.9925
C16 C 0.8995(10) 0.5629(5) 0.8867(3)
H16 H 1.0262 0.5217 0.9076
C17 C 0.8901(7) 0.5544(4) 0.8046(2)
H17 H 1.0085 0.5073 0.7706
C18 C 0.8609(5) 0.2415(3) 0.73532(18)
C19 C 0.8621(6) 0.0853(4) 0.8482(2)
C20 C 1.0036(9) 0.1530(6) 0.8932(3)
H18 H 1.1153 0.1853 0.8546
H19 H 1.0752 0.0933 0.9305
H20 H 0.9103 0.2234 0.9231
C21 C 0.9913(7) -0.0290(4) 0.7998(3)
H21 H 0.8920 -0.0649 0.7713
H22 H 1.0560 -0.0931 0.8363
H23 H 1.1079 -0.0017 0.7611
C22 C 0.6667(7) 0.0449(4) 0.9057(2)
H24 H 0.5739 0.1199 0.9308
H25 H 0.7226 -0.0128 0.9471
H26 H 0.5803 0.0024 0.8753
loop_
_geom_bond_atom_site_label_1
_geom_bond_atom_site_label_2
_geom_bond_site_symmetry_1
_geom_bond_site_symmetry_2
N1 C1 1_555 1_555
N2 O1 1_555 1_555
O1 C3 1_555 1_555
O2 C8 1_555 1_555
O3 C18 1_555 1_555
O4 C18 1_555 1_555
C1 H1 1_555 1_555
H2 C1 1_555 1_555
C2 C1 1_555 1_555
H3 C2 1_555 1_555
C3 N1 1_555 1_555
H4 C3 1_555 1_555
C4 N2 1_555 1_555
H5 C4 1_555 1_555
C5 C4 1_555 1_555
C6 C5 1_555 1_555
H6 C6 1_555 1_555
C7 C6 1_555 1_555
H7 C7 1_555 1_555
C8 C7 1_555 1_555
C9 C8 1_555 1_555
H8 C9 1_555 1_555
C10 C5 1_555 1_555
H9 C10 1_555 1_555
C11 O2 1_555 1_555
H10 C11 1_555 1_555
H11 C11 1_555 1_555
H12 C11 1_555 1_555
C12 N2 1_555 1_555
C13 C12 1_555 1_555
H13 C13 1_555 1_555
C14 C13 1_555 1_555
H14 C14 1_555 1_555
C15 C14 1_555 1_555
H15 C15 1_555 1_555
C16 C15 1_555 1_555
H16 C16 1_555 1_555
C17 C12 1_555 1_555
H17 C17 1_555 1_555
C18 N1 1_555 1_555
C19 O4 1_555 1_555
C20 C19 1_555 1_555
H18 C20 1_555 1_555
H19 C20 1_555 1_555
H20 C20 1_555 1_555
C21 C19 1_555 1_555
H21 C21 1_555 1_555
H22 C21 1_555 1_555
H23 C21 1_555 1_555
C22 C19 1_555 1_555
H24 C22 1_555 1_555
H25 C22 1_555 1_555
H26 C22 1_555 1_555
C2 C3 1_555 1_555
C2 C4 1_555 1_555
C9 C10 1_555 1_555
C16 C17 1_555 1_555

#END
