
#######################################################################
#
#                 Cambridge Crystallographic Data Centre
#                                CCDC 
#
#######################################################################
#
# If this CIF has been generated from an entry in the Cambridge 
# Structural Database, then it will include bibliographic, chemical, 
# crystal, experimental, refinement or atomic coordinate data resulting 
# from the CCDC's data processing and validation procedures.
#
#######################################################################

data_PAXGEC
_chemical_formula_moiety         'C18 H23 N1 O2'
_chemical_name_systematic        
'(4RS)-Methyl 4-cyano-4-cyclohexyl-4-phenylbutanoate'
_symmetry_cell_setting           monoclinic
_symmetry_space_group_name_H-M   'P 21/c'
_symmetry_Int_Tables_number      14
_space_group_name_Hall           '-P 2ybc'
loop_
_symmetry_equiv_pos_site_id
_symmetry_equiv_pos_as_xyz
1 x,y,z
2 -x,1/2+y,1/2-z
3 -x,-y,-z
4 x,1/2-y,1/2+z
_cell_length_a                   8.877(6)
_cell_length_b                   9.120(6)
_cell_length_c                   20.690(14)
_cell_angle_alpha                90
_cell_angle_beta                 95.769(6)
_cell_angle_gamma                90
_cell_volume                     1666.54
_exptl_crystal_colour            colorless
_exptl_crystal_description       block
_cell_formula_units_Z            4
loop_
_atom_site_label
_atom_site_type_symbol
_atom_site_fract_x
_atom_site_fract_y
_atom_site_fract_z
C1 C 0.2736(3) 0.2805(2) 0.70020(10)
H1 H 0.3761 0.2581 0.7018
C2 C 0.1862(3) 0.2158(3) 0.74406(11)
H2 H 0.2305 0.1505 0.7748
C3 C 0.0358(3) 0.2470(3) 0.74258(12)
H3 H -0.0221 0.2035 0.7723
C4 C -0.0298(3) 0.3430(3) 0.69695(12)
H4 H -0.1326 0.3639 0.6956
C5 C 0.0566(2) 0.4086(3) 0.65311(11)
H5 H 0.0116 0.4740 0.6225
C6 C 0.2101(2) 0.3778(2) 0.65421(9)
C7 C 0.3020(2) 0.4512(2) 0.60391(9)
C8 C 0.3038(2) 0.6215(2) 0.61212(10)
H6 H 0.1991 0.6555 0.6031
C9 C 0.3583(3) 0.6683(2) 0.68142(10)
H7 H 0.2947 0.6233 0.7113
H8 H 0.4611 0.6339 0.6924
C10 C 0.3539(3) 0.8345(3) 0.68922(12)
H9 H 0.2500 0.8681 0.6819
H10 H 0.3924 0.8605 0.7333
C11 C 0.4475(3) 0.9097(3) 0.64200(15)
H11 H 0.4389 1.0152 0.6465
H12 H 0.5532 0.8832 0.6517
C12 C 0.3937(4) 0.8653(3) 0.57336(14)
H13 H 0.4576 0.9109 0.5437
H14 H 0.2911 0.9004 0.5625
C13 C 0.3972(3) 0.6996(3) 0.56456(12)
H15 H 0.5011 0.6656 0.5712
H16 H 0.3576 0.6751 0.5205
C14 C 0.4603(3) 0.3992(3) 0.61248(10)
C15 C 0.2354(3) 0.4061(2) 0.53446(10)
H17 H 0.1331 0.4440 0.5265
H18 H 0.2954 0.4507 0.5031
C16 C 0.2321(3) 0.2420(3) 0.52422(11)
H19 H 0.3351 0.2051 0.5299
H20 H 0.1773 0.1972 0.5574
C17 C 0.1604(3) 0.1957(3) 0.45895(11)
C18 C 0.1176(4) -0.0077(4) 0.38785(14)
H21 H 0.1542 0.0453 0.3525
H22 H 0.0091 -0.0021 0.3846
H23 H 0.1481 -0.1085 0.3860
N1 N 0.5830(3) 0.3602(3) 0.61735(10)
O1 O 0.0970(3) 0.2726(2) 0.41959(11)
O2 O 0.1799(3) 0.0558(2) 0.44876(9)
loop_
_geom_bond_atom_site_label_1
_geom_bond_atom_site_label_2
_geom_bond_site_symmetry_1
_geom_bond_site_symmetry_2
C1 H1 1_555 1_555
C2 C1 1_555 1_555
H2 C2 1_555 1_555
C3 C2 1_555 1_555
H3 C3 1_555 1_555
C4 C3 1_555 1_555
H4 C4 1_555 1_555
C5 C4 1_555 1_555
H5 C5 1_555 1_555
C6 C1 1_555 1_555
C7 C6 1_555 1_555
C8 C7 1_555 1_555
H6 C8 1_555 1_555
C9 C8 1_555 1_555
H7 C9 1_555 1_555
H8 C9 1_555 1_555
C10 C9 1_555 1_555
H9 C10 1_555 1_555
H10 C10 1_555 1_555
C11 C10 1_555 1_555
H11 C11 1_555 1_555
H12 C11 1_555 1_555
C12 C11 1_555 1_555
H13 C12 1_555 1_555
H14 C12 1_555 1_555
C13 C8 1_555 1_555
H15 C13 1_555 1_555
H16 C13 1_555 1_555
C14 C7 1_555 1_555
C15 C7 1_555 1_555
H17 C15 1_555 1_555
H18 C15 1_555 1_555
C16 C15 1_555 1_555
H19 C16 1_555 1_555
H20 C16 1_555 1_555
C17 C16 1_555 1_555
C18 H21 1_555 1_555
H22 C18 1_555 1_555
H23 C18 1_555 1_555
N1 C14 1_555 1_555
O1 C17 1_555 1_555
O2 C17 1_555 1_555
C5 C6 1_555 1_555
C12 C13 1_555 1_555
C18 O2 1_555 1_555

#END
