
#######################################################################
#
#                 Cambridge Crystallographic Data Centre
#                                CCDC 
#
#######################################################################
#
# If this CIF has been generated from an entry in the Cambridge 
# Structural Database, then it will include bibliographic, chemical, 
# crystal, experimental, refinement or atomic coordinate data resulting 
# from the CCDC's data processing and validation procedures.
#
#######################################################################

data_PAXJOP
_chemical_formula_moiety         'C17 H12 O4'
_chemical_name_systematic        
2-(Hydroxy(4-methoxyphenyl)methylene)-1H-indene-1,3(2H)-dione
_symmetry_cell_setting           monoclinic
_symmetry_space_group_name_H-M   'P 21/n'
_symmetry_Int_Tables_number      14
_space_group_name_Hall           '-P 2yn'
loop_
_symmetry_equiv_pos_site_id
_symmetry_equiv_pos_as_xyz
1 x,y,z
2 1/2-x,1/2+y,1/2-z
3 -x,-y,-z
4 1/2+x,1/2-y,1/2+z
_cell_length_a                   17.779(4)
_cell_length_b                   3.8405(9)
_cell_length_c                   19.026(4)
_cell_angle_alpha                90
_cell_angle_beta                 92.984(8)
_cell_angle_gamma                90
_cell_volume                     1297.34
_exptl_crystal_colour            colorless
_exptl_crystal_description       block
_cell_formula_units_Z            4
loop_
_atom_site_label
_atom_site_type_symbol
_atom_site_fract_x
_atom_site_fract_y
_atom_site_fract_z
C1 C 0.51739(13) 0.1113(6) 0.36369(11)
C2 C 0.44114(13) 0.2488(6) 0.37373(11)
C3 C 0.40844(16) 0.3680(6) 0.43398(12)
H1 H 0.4347 0.3647 0.4775
C4 C 0.33527(16) 0.4919(7) 0.42678(14)
H2 H 0.3119 0.5734 0.4662
C5 C 0.29666(15) 0.4961(6) 0.36209(13)
H3 H 0.2477 0.5817 0.3587
C6 C 0.32898(13) 0.3762(6) 0.30215(12)
H4 H 0.3026 0.3810 0.2586
C7 C 0.40147(12) 0.2492(5) 0.30887(10)
C8 C 0.44965(13) 0.1018(5) 0.25401(11)
C9 C 0.52302(12) 0.0199(5) 0.28999(10)
C10 C 0.59134(12) -0.0856(5) 0.26557(11)
C11 C 0.61151(12) -0.1687(5) 0.19378(10)
C12 C 0.56158(12) -0.3235(5) 0.14478(11)
H5 H 0.5125 -0.3693 0.1568
C13 C 0.58354(13) -0.4110(5) 0.07820(11)
H6 H 0.5495 -0.5174 0.0462
C14 C 0.65592(12) -0.3404(5) 0.05943(10)
C15 C 0.70668(12) -0.1831(6) 0.10769(11)
H7 H 0.7552 -0.1315 0.0949
C16 C 0.68528(12) -0.1036(5) 0.17427(11)
H8 H 0.7201 -0.0057 0.2067
C17 C 0.63265(14) -0.5648(7) -0.05674(12)
H9 H 0.6587 -0.6058 -0.0989
H10 H 0.5915 -0.4073 -0.0667
H11 H 0.6136 -0.7813 -0.0398
O1 O 0.65026(9) -0.1081(5) 0.31159(8)
H12 H 0.6368 -0.0636 0.3512
O2 O 0.56922(10) 0.0915(5) 0.40994(8)
O3 O 0.42812(9) 0.0644(4) 0.19222(8)
O4 O 0.68340(9) -0.4164(4) -0.00444(7)
loop_
_geom_bond_atom_site_label_1
_geom_bond_atom_site_label_2
_geom_bond_site_symmetry_1
_geom_bond_site_symmetry_2
C1 C2 1_555 1_555
C2 C3 1_555 1_555
C3 H1 1_555 1_555
C4 C3 1_555 1_555
H2 C4 1_555 1_555
C5 C4 1_555 1_555
H3 C5 1_555 1_555
C6 C5 1_555 1_555
H4 C6 1_555 1_555
C7 C2 1_555 1_555
C8 C7 1_555 1_555
C9 C1 1_555 1_555
C10 C9 1_555 1_555
C11 C10 1_555 1_555
C12 C11 1_555 1_555
H5 C12 1_555 1_555
C13 C12 1_555 1_555
H6 C13 1_555 1_555
C14 C13 1_555 1_555
C15 C14 1_555 1_555
H7 C15 1_555 1_555
C16 C11 1_555 1_555
H8 C16 1_555 1_555
C17 H9 1_555 1_555
H10 C17 1_555 1_555
H11 C17 1_555 1_555
O1 C10 1_555 1_555
H12 O1 1_555 1_555
O2 C1 1_555 1_555
O3 C8 1_555 1_555
O4 C14 1_555 1_555
C6 C7 1_555 1_555
C8 C9 1_555 1_555
C15 C16 1_555 1_555
C17 O4 1_555 1_555

#END
