
#######################################################################
#
#                 Cambridge Crystallographic Data Centre
#                                CCDC 
#
#######################################################################
#
# If this CIF has been generated from an entry in the Cambridge 
# Structural Database, then it will include bibliographic, chemical, 
# crystal, experimental, refinement or atomic coordinate data resulting 
# from the CCDC's data processing and validation procedures.
#
#######################################################################

data_PAXKUW
_chemical_formula_moiety         'C31 H22 N4 O4'
_chemical_name_systematic        
(2-Methyl-4-((1-(pyridin-4-yl)-1H-1,2,3-triazol-4-yl)methoxy)-1-benzofuran-5,7-diyl)bis(phenylmethanone)
_symmetry_cell_setting           triclinic
_symmetry_space_group_name_H-M   'P -1'
_symmetry_Int_Tables_number      2
_space_group_name_Hall           '-P 1'
loop_
_symmetry_equiv_pos_site_id
_symmetry_equiv_pos_as_xyz
1 x,y,z
2 -x,-y,-z
_cell_length_a                   10.11(2)
_cell_length_b                   10.87(3)
_cell_length_c                   11.64(3)
_cell_angle_alpha                94.73(4)
_cell_angle_beta                 92.07(3)
_cell_angle_gamma                92.05(4)
_cell_volume                     1273.03
_exptl_crystal_colour            colorless
_exptl_crystal_description       block
_cell_formula_units_Z            2
loop_
_atom_site_label
_atom_site_type_symbol
_atom_site_fract_x
_atom_site_fract_y
_atom_site_fract_z
N1 N 0.4387(2) -0.1220(2) -0.3567(2)
N2 N 0.5280(3) -0.1333(3) -0.2672(2)
N3 N 0.4837(3) -0.0696(3) -0.1759(2)
N4 N 0.5183(3) -0.2859(3) -0.6907(3)
O1 O 0.20278(18) -0.01035(18) -0.05837(16)
O2 O -0.0057(2) -0.2440(2) 0.12502(19)
O3 O 0.1408(2) 0.0551(2) 0.48995(19)
O4 O 0.19574(18) 0.30077(17) 0.25525(16)
C1 C 0.1656(3) 0.1786(3) 0.2199(2)
C2 C 0.1172(3) 0.0928(3) 0.2923(2)
C3 C 0.0985(3) -0.0274(3) 0.2403(2)
H1 H 0.0657 -0.0882 0.2846
C4 C 0.1268(2) -0.0616(3) 0.1240(2)
C5 C 0.1774(3) 0.0282(3) 0.0540(2)
C6 C 0.1954(2) 0.1526(3) 0.1030(2)
C7 C 0.2451(3) 0.2700(3) 0.0659(2)
H2 H 0.2711 0.2844 -0.0078
C8 C 0.2462(3) 0.3540(3) 0.1584(2)
C9 C 0.2956(3) 0.0639(3) -0.1195(3)
H3 H 0.3597 0.1067 -0.0648
H4 H 0.2482 0.1253 -0.1586
C10 C 0.3658(3) -0.0175(3) -0.2056(2)
C11 C 0.3382(3) -0.0494(3) -0.3205(3)
H5 H 0.2660 -0.0265 -0.3646
C12 C 0.4637(3) -0.1773(3) -0.4698(3)
C13 C 0.5661(4) -0.2603(4) -0.4842(3)
H6 H 0.6175 -0.2813 -0.4214
C14 C 0.5883(4) -0.3104(4) -0.5955(4)
H7 H 0.6567 -0.3648 -0.6046
C15 C 0.4212(4) -0.2071(4) -0.6724(3)
H8 H 0.3701 -0.1886 -0.7363
C16 C 0.3902(3) -0.1506(3) -0.5659(3)
H9 H 0.3216 -0.0960 -0.5596
C17 C 0.0912(3) -0.1942(3) 0.0833(3)
C18 C 0.1739(3) -0.2720(3) 0.0022(2)
C19 C 0.1132(3) -0.3795(3) -0.0558(3)
H10 H 0.0227 -0.3952 -0.0504
C20 C 0.1884(4) -0.4627(3) -0.1214(3)
H11 H 0.1477 -0.5333 -0.1595
C21 C 0.3240(4) -0.4402(3) -0.1299(3)
H12 H 0.3739 -0.4959 -0.1733
C22 C 0.3846(3) -0.3340(3) -0.0732(3)
H13 H 0.4752 -0.3188 -0.0788
C23 C 0.3098(3) -0.2500(3) -0.0078(3)
H14 H 0.3510 -0.1789 0.0293
C24 C 0.0941(3) 0.1209(3) 0.4186(2)
C25 C 0.0118(3) 0.2283(3) 0.4561(2)
C26 C -0.0814(3) 0.2755(3) 0.3805(3)
H15 H -0.0883 0.2445 0.3035
C27 C -0.1641(4) 0.3690(3) 0.4208(3)
H16 H -0.2274 0.3984 0.3710
C28 C -0.1517(4) 0.4178(3) 0.5349(3)
H17 H -0.2062 0.4803 0.5614
C29 C -0.0573(4) 0.3730(3) 0.6102(3)
H18 H -0.0478 0.4067 0.6863
C30 C 0.0217(3) 0.2784(3) 0.5712(3)
H19 H 0.0825 0.2474 0.6221
C31 C 0.2916(4) 0.4852(3) 0.1780(3)
H20 H 0.3324 0.5105 0.1101
H21 H 0.3547 0.4950 0.2421
H22 H 0.2171 0.5351 0.1946
loop_
_geom_bond_atom_site_label_1
_geom_bond_atom_site_label_2
_geom_bond_site_symmetry_1
_geom_bond_site_symmetry_2
N1 N2 1_555 1_555
N2 N3 1_555 1_555
N3 C10 1_555 1_555
N4 C14 1_555 1_555
O1 C5 1_555 1_555
O2 C17 1_555 1_555
O3 C24 1_555 1_555
O4 C1 1_555 1_555
C1 C2 1_555 1_555
C2 C3 1_555 1_555
C3 H1 1_555 1_555
C4 C3 1_555 1_555
C5 C4 1_555 1_555
C6 C1 1_555 1_555
C7 C6 1_555 1_555
H2 C7 1_555 1_555
C8 O4 1_555 1_555
C9 O1 1_555 1_555
H3 C9 1_555 1_555
H4 C9 1_555 1_555
C10 C9 1_555 1_555
C11 N1 1_555 1_555
H5 C11 1_555 1_555
C12 N1 1_555 1_555
C13 C12 1_555 1_555
H6 C13 1_555 1_555
C14 C13 1_555 1_555
H7 C14 1_555 1_555
C15 N4 1_555 1_555
H8 C15 1_555 1_555
C16 C12 1_555 1_555
H9 C16 1_555 1_555
C17 C4 1_555 1_555
C18 C17 1_555 1_555
C19 C18 1_555 1_555
H10 C19 1_555 1_555
C20 C19 1_555 1_555
H11 C20 1_555 1_555
C21 C20 1_555 1_555
H12 C21 1_555 1_555
C22 C21 1_555 1_555
H13 C22 1_555 1_555
C23 C18 1_555 1_555
H14 C23 1_555 1_555
C24 C2 1_555 1_555
C25 C24 1_555 1_555
C26 C25 1_555 1_555
H15 C26 1_555 1_555
C27 C26 1_555 1_555
H16 C27 1_555 1_555
C28 C27 1_555 1_555
H17 C28 1_555 1_555
C29 C28 1_555 1_555
H18 C29 1_555 1_555
C30 C25 1_555 1_555
H19 C30 1_555 1_555
C31 C8 1_555 1_555
H20 C31 1_555 1_555
H21 C31 1_555 1_555
H22 C31 1_555 1_555
C5 C6 1_555 1_555
C7 C8 1_555 1_555
C10 C11 1_555 1_555
C15 C16 1_555 1_555
C22 C23 1_555 1_555
C29 C30 1_555 1_555

#END
