
#######################################################################
#
#                 Cambridge Crystallographic Data Centre
#                                CCDC 
#
#######################################################################
#
# If this CIF has been generated from an entry in the Cambridge 
# Structural Database, then it will include bibliographic, chemical, 
# crystal, experimental, refinement or atomic coordinate data resulting 
# from the CCDC's data processing and validation procedures.
#
#######################################################################

data_PAXKIK
_chemical_formula_moiety         'C24 H24 N2 O4,C1 H3 N1 O2'
_chemical_name_systematic        
'2-Ethoxy-6-([1-(3-ethoxy-2-hydroxybenzyl)-1H-benzimidazol-2-yl]methyl)phenol nitromethane solvate'
_symmetry_cell_setting           monoclinic
_symmetry_space_group_name_H-M   'P 21/c'
_symmetry_Int_Tables_number      14
_space_group_name_Hall           '-P 2ybc'
loop_
_symmetry_equiv_pos_site_id
_symmetry_equiv_pos_as_xyz
1 x,y,z
2 -x,1/2+y,1/2-z
3 -x,-y,-z
4 x,1/2-y,1/2+z
_cell_length_a                   7.5151(7)
_cell_length_b                   19.6463(17)
_cell_length_c                   16.2578(15)
_cell_angle_alpha                90
_cell_angle_beta                 99.898(2)
_cell_angle_gamma                90
_cell_volume                     2364.64
_exptl_crystal_colour            orange
_exptl_crystal_description       block
_cell_formula_units_Z            4
loop_
_atom_site_label
_atom_site_type_symbol
_atom_site_fract_x
_atom_site_fract_y
_atom_site_fract_z
O1 O 0.1517(3) -0.00824(8) 0.25918(12)
H1 H 0.166(5) 0.0034(17) 0.206(2)
O2 O 0.1909(3) -0.02200(9) 0.41939(11)
O3 O -0.0023(2) 0.36913(9) 0.19378(11)
H2 H -0.032(4) 0.4180(15) 0.1965(19)
O4 O 0.2353(2) 0.47405(8) 0.21047(12)
N1 N 0.2058(3) 0.06287(10) 0.13119(14)
N2 N 0.1347(3) 0.17347(10) 0.13095(13)
C1 C 0.1707(4) 0.08554(13) 0.04930(17)
C2 C 0.1729(4) 0.05148(14) -0.02530(18)
H3 H 0.2012 0.0054 -0.0258
C3 C 0.1320(4) 0.08766(15) -0.09819(18)
H4 H 0.1329 0.0657 -0.1488
C4 C 0.0889(4) 0.15692(15) -0.09826(19)
H5 H 0.0629 0.1801 -0.1488
C5 C 0.0841(4) 0.19139(14) -0.02510(19)
H6 H 0.0545 0.2373 -0.0249
C6 C 0.1256(4) 0.15445(13) 0.04832(17)
C7 C 0.1872(3) 0.11683(12) 0.17827(16)
C8 C 0.2174(3) 0.11250(12) 0.26941(16)
C9 C 0.1955(3) 0.04905(12) 0.30544(16)
C10 C 0.2224(4) 0.04219(13) 0.39271(17)
C11 C 0.2786(4) 0.09698(14) 0.44263(18)
H7 H 0.2974 0.0924 0.5004
C12 C 0.3074(4) 0.15947(14) 0.40681(18)
H8 H 0.3477 0.1963 0.4409
C13 C 0.2772(4) 0.16734(13) 0.32187(18)
H9 H 0.2965 0.2095 0.2989
C14 C 0.2320(4) -0.03579(14) 0.50701(17)
H10 H 0.1562 -0.0085 0.5368
H11 H 0.3574 -0.0251 0.5285
C15 C 0.1970(4) -0.11004(14) 0.51828(18)
H12 H 0.0730 -0.1201 0.4961
H13 H 0.2216 -0.1211 0.5766
H14 H 0.2741 -0.1365 0.4893
C16 C 0.0750(4) 0.23959(12) 0.15603(17)
H15 H 0.0374 0.2351 0.2099
H16 H -0.0293 0.2539 0.1161
C17 C 0.2187(4) 0.29402(12) 0.16189(16)
C18 C 0.1706(4) 0.35914(12) 0.18154(16)
C19 C 0.2982(4) 0.41196(13) 0.18991(16)
C20 C 0.4725(4) 0.39823(14) 0.17722(17)
H17 H 0.5579 0.4329 0.1821
C21 C 0.5192(4) 0.33281(14) 0.15726(18)
H18 H 0.6363 0.3236 0.1491
C22 C 0.3929(4) 0.28132(13) 0.14944(18)
H19 H 0.4252 0.2376 0.1357
C23 C 0.3662(4) 0.52643(13) 0.2358(2)
H20 H 0.4226 0.5401 0.1890
H21 H 0.4595 0.5098 0.2799
C24 C 0.2705(4) 0.58586(14) 0.2663(2)
H22 H 0.1764 0.6012 0.2226
H23 H 0.3550 0.6222 0.2820
H24 H 0.2187 0.5723 0.3138
O5 O 0.6407(5) 0.27813(18) 0.4851(3)
O6 O 0.6611(6) 0.3759(2) 0.5301(2)
N3 N 0.6350(4) 0.3364(2) 0.4748(3)
C25 C 0.6008(6) 0.3659(3) 0.3918(3)
H25 H 0.4821 0.3856 0.3815
H26 H 0.6087 0.3311 0.3511
H27 H 0.6889 0.4006 0.3877
loop_
_geom_bond_atom_site_label_1
_geom_bond_atom_site_label_2
_geom_bond_site_symmetry_1
_geom_bond_site_symmetry_2
O1 H1 1_555 1_555
O2 C10 1_555 1_555
O3 H2 1_555 1_555
O4 C19 1_555 1_555
N1 C1 1_555 1_555
N2 C6 1_555 1_555
C1 C2 1_555 1_555
C2 H3 1_555 1_555
C3 C2 1_555 1_555
H4 C3 1_555 1_555
C4 C3 1_555 1_555
H5 C4 1_555 1_555
C5 C4 1_555 1_555
H6 C5 1_555 1_555
C6 C1 1_555 1_555
C7 N1 1_555 1_555
C8 C7 1_555 1_555
C9 O1 1_555 1_555
C10 C9 1_555 1_555
C11 C10 1_555 1_555
H7 C11 1_555 1_555
C12 C11 1_555 1_555
H8 C12 1_555 1_555
C13 C8 1_555 1_555
H9 C13 1_555 1_555
C14 O2 1_555 1_555
H10 C14 1_555 1_555
H11 C14 1_555 1_555
C15 C14 1_555 1_555
H12 C15 1_555 1_555
H13 C15 1_555 1_555
H14 C15 1_555 1_555
C16 N2 1_555 1_555
H15 C16 1_555 1_555
H16 C16 1_555 1_555
C17 C16 1_555 1_555
C18 O3 1_555 1_555
C19 C18 1_555 1_555
C20 C19 1_555 1_555
H17 C20 1_555 1_555
C21 C20 1_555 1_555
H18 C21 1_555 1_555
C22 C17 1_555 1_555
H19 C22 1_555 1_555
C23 O4 1_555 1_555
H20 C23 1_555 1_555
H21 C23 1_555 1_555
C24 C23 1_555 1_555
H22 C24 1_555 1_555
H23 C24 1_555 1_555
H24 C24 1_555 1_555
O5 N3 1_555 1_555
O6 N3 1_555 1_555
N3 C25 1_555 1_555
C25 H25 1_555 1_555
H26 C25 1_555 1_555
H27 C25 1_555 1_555
N2 C7 1_555 1_555
C5 C6 1_555 1_555
C8 C9 1_555 1_555
C12 C13 1_555 1_555
C17 C18 1_555 1_555
C21 C22 1_555 1_555

#END
