
#######################################################################
#
#                 Cambridge Crystallographic Data Centre
#                                CCDC 
#
#######################################################################
#
# If this CIF has been generated from an entry in the Cambridge 
# Structural Database, then it will include bibliographic, chemical, 
# crystal, experimental, refinement or atomic coordinate data resulting 
# from the CCDC's data processing and validation procedures.
#
#######################################################################

data_PAXMOS
_chemical_name_common            'methyl 3-aminocrotonate'
_chemical_formula_moiety         'C5 H9 N1 O2'
_chemical_name_systematic        'Methyl 3-aminobut-2-enoate'
_symmetry_cell_setting           monoclinic
_symmetry_space_group_name_H-M   'P 21/c'
_symmetry_Int_Tables_number      14
_space_group_name_Hall           '-P 2ybc'
loop_
_symmetry_equiv_pos_site_id
_symmetry_equiv_pos_as_xyz
1 x,y,z
2 -x,1/2+y,1/2-z
3 -x,-y,-z
4 x,1/2-y,1/2+z
_cell_length_a                   8.3020(12)
_cell_length_b                   9.7232(14)
_cell_length_c                   7.6650(10)
_cell_angle_alpha                90
_cell_angle_beta                 97.855(13)
_cell_angle_gamma                90
_cell_volume                     612.929
_exptl_crystal_colour            colorless
_exptl_crystal_description       prism
_chemical_melting_point          '355 K'
_cell_formula_units_Z            4
loop_
_atom_site_label
_atom_site_type_symbol
_atom_site_fract_x
_atom_site_fract_y
_atom_site_fract_z
O1 O 0.36825(11) 0.18110(10) 0.32340(12)
O2 O 0.12958(12) 0.21372(10) 0.42596(13)
N1 N 0.45092(13) -0.08490(14) 0.27315(14)
C1 C 0.24663(14) 0.13160(14) 0.37507(15)
C2 C 0.21064(14) -0.01182(15) 0.38684(15)
H1 H 0.1142 -0.0387 0.4317
C3 C 0.31094(14) -0.11148(14) 0.33542(15)
C4 C 0.26670(18) -0.26132(15) 0.34523(18)
H2 H 0.2644 -0.3035 0.2288
H3 H 0.1592 -0.2697 0.3836
H4 H 0.3477 -0.3083 0.4297
C5 C 0.15619(19) 0.35898(16) 0.4094(2)
H5 H 0.2563 0.3854 0.4849
H6 H 0.0641 0.4096 0.4455
H7 H 0.1663 0.3810 0.2866
H8 H 0.487(2) 0.002(2) 0.269(3)
H9 H 0.515(2) -0.147(2) 0.249(2)
loop_
_geom_bond_atom_site_label_1
_geom_bond_atom_site_label_2
_geom_bond_site_symmetry_1
_geom_bond_site_symmetry_2
O1 C1 1_555 1_555
O2 C1 1_555 1_555
N1 C3 1_555 1_555
C1 C2 1_555 1_555
C2 H1 1_555 1_555
C3 C2 1_555 1_555
C4 C3 1_555 1_555
H2 C4 1_555 1_555
H3 C4 1_555 1_555
H4 C4 1_555 1_555
C5 O2 1_555 1_555
H5 C5 1_555 1_555
H6 C5 1_555 1_555
H7 C5 1_555 1_555
H8 N1 1_555 1_555
H9 N1 1_555 1_555

#END
