
#######################################################################
#
#                 Cambridge Crystallographic Data Centre
#                                CCDC 
#
#######################################################################
#
# If this CIF has been generated from an entry in the Cambridge 
# Structural Database, then it will include bibliographic, chemical, 
# crystal, experimental, refinement or atomic coordinate data resulting 
# from the CCDC's data processing and validation procedures.
#
#######################################################################

data_PAXNUZ
_chemical_formula_moiety         'C9 H10 Cl1 N3 O1'
_chemical_name_systematic        
1-((6-Chloropyridin-3-yl)methyl)imidazolidin-2-one
_symmetry_cell_setting           triclinic
_symmetry_space_group_name_H-M   'P -1'
_symmetry_Int_Tables_number      2
_space_group_name_Hall           '-P 1'
loop_
_symmetry_equiv_pos_site_id
_symmetry_equiv_pos_as_xyz
1 x,y,z
2 -x,-y,-z
_cell_length_a                   5.9864(3)
_cell_length_b                   7.4724(5)
_cell_length_c                   11.0235(8)
_cell_angle_alpha                83.103(6)
_cell_angle_beta                 80.040(5)
_cell_angle_gamma                80.020(5)
_cell_volume                     476.262
_exptl_crystal_colour            white
_exptl_crystal_description       block
_chemical_melting_point          '416 K'
_cell_formula_units_Z            2
loop_
_atom_site_label
_atom_site_type_symbol
_atom_site_fract_x
_atom_site_fract_y
_atom_site_fract_z
Cl1 Cl 0.4849(2) 0.45046(14) -0.23011(9)
N1 N 0.5214(5) 0.2659(4) -0.0175(3)
C1 C 0.0675(6) 0.2139(5) 0.0355(4)
H1 H -0.0858 0.1979 0.0528
C2 C 0.2141(5) 0.1420(4) 0.1179(3)
C3 C 0.4371(5) 0.1719(5) 0.0871(3)
H2 H 0.5374 0.1237 0.1427
C4 C 0.1490(6) 0.3105(5) -0.0738(3)
H3 H 0.0535 0.3601 -0.1316
C5 C 0.3766(6) 0.3299(4) -0.0931(3)
C6 C 0.1389(6) 0.0288(5) 0.2357(4)
H4 H 0.0729 -0.0717 0.2158
H5 H 0.2721 -0.0224 0.2747
N2 N -0.0276(5) 0.1334(4) 0.3217(3)
C7 C 0.0273(6) 0.2816(5) 0.3778(3)
H6 H 0.0401 0.3877 0.3185
H7 H 0.1703 0.2460 0.4108
C8 C -0.1757(6) 0.3212(5) 0.4818(4)
H8 H -0.1250 0.3054 0.5619
H9 H -0.2575 0.4442 0.4688
N3 N -0.3167(6) 0.1876(5) 0.4724(3)
C9 C -0.2227(6) 0.0748(5) 0.3831(3)
O1 O -0.2977(4) -0.0596(4) 0.3591(2)
H10 H -0.435(8) 0.156(6) 0.518(4)
loop_
_geom_bond_atom_site_label_1
_geom_bond_atom_site_label_2
_geom_bond_site_symmetry_1
_geom_bond_site_symmetry_2
Cl1 C5 1_555 1_555
N1 C3 1_555 1_555
C1 H1 1_555 1_555
C2 C1 1_555 1_555
C3 C2 1_555 1_555
H2 C3 1_555 1_555
C4 C1 1_555 1_555
H3 C4 1_555 1_555
C5 N1 1_555 1_555
C6 C2 1_555 1_555
H4 C6 1_555 1_555
H5 C6 1_555 1_555
N2 C6 1_555 1_555
C7 N2 1_555 1_555
H6 C7 1_555 1_555
H7 C7 1_555 1_555
C8 C7 1_555 1_555
H8 C8 1_555 1_555
H9 C8 1_555 1_555
N3 C8 1_555 1_555
C9 N2 1_555 1_555
O1 C9 1_555 1_555
H10 N3 1_555 1_555
C4 C5 1_555 1_555
N3 C9 1_555 1_555

#END
