
#######################################################################
#
#                 Cambridge Crystallographic Data Centre
#                                CCDC 
#
#######################################################################
#
# If this CIF has been generated from an entry in the Cambridge 
# Structural Database, then it will include bibliographic, chemical, 
# crystal, experimental, refinement or atomic coordinate data resulting 
# from the CCDC's data processing and validation procedures.
#
#######################################################################

data_PAXPEL
_chemical_formula_moiety         'C8 H7 N3,0.5(C8 H6 O4),H2 O1'
_chemical_name_systematic        
'Terephthalic acid 4-(1H-pyrazol-3-yl)pyridine monohydrate'
_symmetry_cell_setting           triclinic
_symmetry_space_group_name_H-M   'P -1'
_symmetry_Int_Tables_number      2
_space_group_name_Hall           '-P 1'
loop_
_symmetry_equiv_pos_site_id
_symmetry_equiv_pos_as_xyz
1 x,y,z
2 -x,-y,-z
_cell_length_a                   6.8364(14)
_cell_length_b                   9.5308(19)
_cell_length_c                   10.131(2)
_cell_angle_alpha                67.52(3)
_cell_angle_beta                 71.22(3)
_cell_angle_gamma                78.10(3)
_cell_volume                     574.856
_exptl_crystal_colour            colorless
_exptl_crystal_description       block
_cell_formula_units_Z            2
loop_
_atom_site_label
_atom_site_type_symbol
_atom_site_fract_x
_atom_site_fract_y
_atom_site_fract_z
C1 C 1.0188(4) 0.3344(3) 0.3605(3)
N1 N 1.2378(3) 0.4525(3) 0.3732(3)
H2 H 1.3209 0.5197 0.3507
C2 C 1.0696(4) 0.2524(3) 0.4943(3)
H3 H 1.0189 0.1622 0.5651
N2 N 1.1240(4) 0.4575(3) 0.2854(2)
C3 C 1.2093(5) 0.3327(4) 0.4991(3)
H5 H 1.2723 0.3089 0.5749
N3 N 0.6010(3) 0.2457(3) 0.1765(3)
C4 C 0.6356(4) 0.1461(3) 0.3035(3)
H6 H 0.5675 0.0577 0.3498
C5 C 0.7685(4) 0.1702(3) 0.3678(3)
H7 H 0.7896 0.0987 0.4563
C6 C 0.8716(4) 0.3018(3) 0.3005(3)
C7 C 0.8296(4) 0.4054(3) 0.1688(3)
H8 H 0.8919 0.4962 0.1210
C8 C 0.6973(4) 0.3730(3) 0.1105(3)
H9 H 0.6734 0.4420 0.0218
H1 H 0.422(4) 0.7787(14) 0.275(3)
O2 O 0.4882(3) 0.6952(2) 0.2700(2)
H4 H 0.553(4) 0.702(3) 0.1821(10)
O1 O 0.3502(3) 0.2110(2) 0.0458(2)
O3 O 0.3105(3) -0.0044(2) 0.2397(2)
C9 C 0.1342(4) 0.0404(3) 0.0568(3)
C10 C 0.0548(4) 0.1468(3) -0.0570(3)
H10 H 0.0913 0.2463 -0.0964
C11 C 0.2749(4) 0.0835(3) 0.1202(3)
H11 H 0.427(3) 0.212(3) 0.093(2)
C12 C 0.0774(4) -0.1067(3) 0.1123(3)
H12 H 0.1291 -0.1799 0.1882
O1A O -0.3502(3) -0.2110(2) -0.0458(2)
O3A O -0.3105(3) 0.0044(2) -0.2397(2)
C9A C -0.1342(4) -0.0404(3) -0.0568(3)
C10A C -0.0548(4) -0.1468(3) 0.0570(3)
H10A H -0.0913 -0.2463 0.0964
C11A C -0.2749(4) -0.0835(3) -0.1202(3)
H11A H -0.427(3) -0.212(3) -0.093(2)
C12A C -0.0774(4) 0.1067(3) -0.1123(3)
H12A H -0.1291 0.1799 -0.1882
loop_
_geom_bond_atom_site_label_1
_geom_bond_atom_site_label_2
_geom_bond_site_symmetry_1
_geom_bond_site_symmetry_2
C1 C2 1_555 1_555
H1 O2 1_555 1_555
N1 H2 1_555 1_555
O1 C11 1_555 1_555
O2 H4 1_555 1_555
C2 H3 1_555 1_555
N2 C1 1_555 1_555
O3 C11 1_555 1_555
C3 N1 1_555 1_555
H5 C3 1_555 1_555
N3 C4 1_555 1_555
C4 H6 1_555 1_555
C5 C4 1_555 1_555
H7 C5 1_555 1_555
C6 C1 1_555 1_555
C7 C6 1_555 1_555
H8 C7 1_555 1_555
C8 N3 1_555 1_555
H9 C8 1_555 1_555
C9 C10 1_555 1_555
C10 H10 1_555 1_555
C11 C9 1_555 1_555
H11 O1 1_555 1_555
C12 C9 1_555 1_555
H12 C12 1_555 1_555
O1A C11A 1_555 1_555
O3A C11A 1_555 1_555
C9A C10A 1_555 1_555
C10A C12 1_555 1_555
H10A C10A 1_555 1_555
C11A C9A 1_555 1_555
H11A O1A 1_555 1_555
C12A C10 1_555 1_555
H12A C12A 1_555 1_555
N1 N2 1_555 1_555
C2 C3 1_555 1_555
C5 C6 1_555 1_555
C7 C8 1_555 1_555
C9A C12A 1_555 1_555

#END
