
#######################################################################
#
#                 Cambridge Crystallographic Data Centre
#                                CCDC 
#
#######################################################################
#
# If this CIF has been generated from an entry in the Cambridge 
# Structural Database, then it will include bibliographic, chemical, 
# crystal, experimental, refinement or atomic coordinate data resulting 
# from the CCDC's data processing and validation procedures.
#
#######################################################################

data_PAXQIP
_chemical_compound_source        'seeds of Trichosanthes kirilowii'
_chemical_formula_moiety         'C44 H58 O5'
_chemical_name_systematic        
'(3\a,7\b)-3,7,29-Trihydroxymultiflor-8-ene-3,29-diyl dibenzoate'
_chemical_properties_biological  'no cytotoxic activity against K562 cell line'
_symmetry_cell_setting           orthorhombic
_symmetry_space_group_name_H-M   'P 21 21 21'
_symmetry_Int_Tables_number      19
_space_group_name_Hall           'P 2ac 2ab'
loop_
_symmetry_equiv_pos_site_id
_symmetry_equiv_pos_as_xyz
1 x,y,z
2 1/2-x,-y,1/2+z
3 -x,1/2+y,1/2-z
4 1/2+x,1/2-y,-z
_cell_length_a                   11.883(4)
_cell_length_b                   12.085(3)
_cell_length_c                   26.065(5)
_cell_angle_alpha                90
_cell_angle_beta                 90
_cell_angle_gamma                90
_cell_volume                     3743.09
_exptl_crystal_colour            colorless
_exptl_crystal_description       'irregular block'
_chemical_melting_point          162-164deg.C
_cell_formula_units_Z            4
_exptl_crystal_recrystallization_method methanol
loop_
_atom_site_label
_atom_site_type_symbol
_atom_site_fract_x
_atom_site_fract_y
_atom_site_fract_z
C1 C 0.6568(5) 0.6608(5) 0.4197(2)
H1 H 0.7205 0.7121 0.4217
H2 H 0.6853 0.5898 0.4069
C2 C 0.6091(6) 0.6440(6) 0.4731(2)
H3 H 0.5839 0.7153 0.4869
H4 H 0.6679 0.6151 0.4958
C3 C 0.5111(6) 0.5642(5) 0.4719(2)
H5 H 0.4805 0.5544 0.5070
C4 C 0.4166(6) 0.5991(5) 0.4351(2)
C5 C 0.4680(5) 0.6303(5) 0.3823(2)
H6 H 0.4950 0.5594 0.3678
C6 C 0.3818(5) 0.6723(5) 0.3440(2)
H7 H 0.3148 0.6252 0.3454
H8 H 0.3593 0.7476 0.3535
C7 C 0.4278(5) 0.6728(5) 0.2898(2)
H9 H 0.4110 0.5998 0.2744
C8 C 0.5547(5) 0.6918(5) 0.2853(2)
C9 C 0.6177(5) 0.7059(4) 0.3261(2)
C10 C 0.5709(5) 0.7060(5) 0.3817(2)
C11 C 0.7433(5) 0.7188(6) 0.3223(2)
H10 H 0.7786 0.6594 0.3422
H11 H 0.7643 0.7891 0.3384
C12 C 0.7924(5) 0.7166(5) 0.26807(19)
H12 H 0.7949 0.7922 0.2546
H13 H 0.8698 0.6887 0.2696
C13 C 0.7252(5) 0.6454(4) 0.23227(19)
C14 C 0.6019(5) 0.6942(5) 0.2313(2)
C15 C 0.5347(5) 0.6288(6) 0.1924(2)
H14 H 0.5368 0.5502 0.2016
H15 H 0.4560 0.6530 0.1934
C16 C 0.5810(5) 0.6436(6) 0.1376(2)
H16 H 0.5376 0.5962 0.1144
H17 H 0.5683 0.7204 0.1271
C17 C 0.7054(5) 0.6171(5) 0.1308(2)
C18 C 0.7785(5) 0.6468(5) 0.17774(19)
H18 H 0.7945 0.7264 0.1723
C19 C 0.8980(5) 0.5931(4) 0.1740(2)
H19 H 0.9452 0.6442 0.1543
H20 H 0.9288 0.5911 0.2088
C20 C 0.9152(5) 0.4766(5) 0.1507(2)
C21 C 0.8370(5) 0.4613(5) 0.1051(2)
H21 H 0.8650 0.5053 0.0763
H22 H 0.8380 0.3833 0.0948
C22 C 0.7189(5) 0.4945(5) 0.1165(2)
H23 H 0.6907 0.4491 0.1449
H24 H 0.6722 0.4789 0.0864
C23 C 0.3333(6) 0.5033(6) 0.4277(2)
H25 H 0.2678 0.5296 0.4092
H26 H 0.3103 0.4753 0.4609
H27 H 0.3693 0.4446 0.4083
C24 C 0.3493(6) 0.6935(6) 0.4610(2)
H28 H 0.3998 0.7537 0.4696
H29 H 0.3139 0.6659 0.4920
H30 H 0.2918 0.7200 0.4376
C25 C 0.5494(7) 0.8304(5) 0.3943(2)
H31 H 0.5266 0.8377 0.4298
H32 H 0.4904 0.8586 0.3722
H33 H 0.6180 0.8723 0.3886
C26 C 0.6015(6) 0.8187(5) 0.2147(2)
H34 H 0.5251 0.8414 0.2068
H35 H 0.6484 0.8279 0.1845
H36 H 0.6308 0.8638 0.2424
C27 C 0.7212(5) 0.5271(4) 0.25445(19)
H37 H 0.7973 0.5003 0.2596
H38 H 0.6821 0.4788 0.2307
H39 H 0.6817 0.5279 0.2870
C28 C 0.7466(6) 0.6870(5) 0.0842(2)
H40 H 0.7013 0.6694 0.0543
H41 H 0.8248 0.6701 0.0771
H42 H 0.7391 0.7651 0.0921
C29 C 0.8976(6) 0.3835(4) 0.1894(2)
H43 H 0.9433 0.3965 0.2201
H44 H 0.8184 0.3797 0.1996
C30 C 1.0388(5) 0.4711(5) 0.1333(2)
H45 H 1.0877 0.4845 0.1625
H46 H 1.0523 0.5269 0.1073
H47 H 1.0544 0.3984 0.1193
O1 O 0.5564(4) 0.4608(3) 0.45343(14)
C31 C 0.5411(6) 0.3678(5) 0.4815(2)
O2 O 0.4868(4) 0.3639(4) 0.51955(16)
C32 C 0.6003(6) 0.2726(6) 0.4586(3)
C33 C 0.6639(6) 0.2802(6) 0.4150(3)
H48 H 0.6722 0.3489 0.3986
C34 C 0.7154(7) 0.1886(8) 0.3950(4)
H49 H 0.7563 0.1942 0.3642
C35 C 0.7077(7) 0.0887(8) 0.4196(5)
H50 H 0.7457 0.0264 0.4068
C36 C 0.6442(8) 0.0806(7) 0.4631(4)
H51 H 0.6365 0.0119 0.4797
C37 C 0.5917(7) 0.1724(6) 0.4829(3)
H52 H 0.5495 0.1664 0.5132
O3 O 0.9313(4) 0.2810(3) 0.16472(14)
C38 C 0.9144(5) 0.1885(5) 0.1902(2)
O4 O 0.8690(4) 0.1853(4) 0.23197(16)
C39 C 0.9551(5) 0.0911(5) 0.1622(3)
C40 C 1.0046(6) 0.0971(6) 0.1143(3)
H53 H 1.0113 0.1660 0.0979
C41 C 1.0440(7) 0.0035(6) 0.0905(3)
H54 H 1.0756 0.0076 0.0575
C42 C 1.0369(8) -0.0960(6) 0.1155(4)
H55 H 1.0659 -0.1599 0.0997
C43 C 0.9885(7) -0.1043(6) 0.1629(3)
H56 H 0.9835 -0.1732 0.1794
C44 C 0.9478(6) -0.0118(5) 0.1858(3)
H57 H 0.9139 -0.0174 0.2182
O5 O 0.3701(4) 0.7555(4) 0.25977(15)
H58 H 0.2809 0.7254 0.2607
loop_
_geom_bond_atom_site_label_1
_geom_bond_atom_site_label_2
_geom_bond_site_symmetry_1
_geom_bond_site_symmetry_2
C1 H1 1_555 1_555
H2 C1 1_555 1_555
C2 C1 1_555 1_555
H3 C2 1_555 1_555
H4 C2 1_555 1_555
C3 C2 1_555 1_555
H5 C3 1_555 1_555
C4 C3 1_555 1_555
C5 C4 1_555 1_555
H6 C5 1_555 1_555
C6 C5 1_555 1_555
H7 C6 1_555 1_555
H8 C6 1_555 1_555
C7 C6 1_555 1_555
H9 C7 1_555 1_555
C8 C7 1_555 1_555
C9 C8 1_555 1_555
C10 C1 1_555 1_555
C11 C9 1_555 1_555
H10 C11 1_555 1_555
H11 C11 1_555 1_555
C12 C11 1_555 1_555
H12 C12 1_555 1_555
H13 C12 1_555 1_555
C13 C12 1_555 1_555
C14 C8 1_555 1_555
C15 C14 1_555 1_555
H14 C15 1_555 1_555
H15 C15 1_555 1_555
C16 C15 1_555 1_555
H16 C16 1_555 1_555
H17 C16 1_555 1_555
C17 C16 1_555 1_555
C18 C13 1_555 1_555
H18 C18 1_555 1_555
C19 C18 1_555 1_555
H19 C19 1_555 1_555
H20 C19 1_555 1_555
C20 C19 1_555 1_555
C21 C20 1_555 1_555
H21 C21 1_555 1_555
H22 C21 1_555 1_555
C22 C17 1_555 1_555
H23 C22 1_555 1_555
H24 C22 1_555 1_555
C23 C4 1_555 1_555
H25 C23 1_555 1_555
H26 C23 1_555 1_555
H27 C23 1_555 1_555
C24 C4 1_555 1_555
H28 C24 1_555 1_555
H29 C24 1_555 1_555
H30 C24 1_555 1_555
C25 C10 1_555 1_555
H31 C25 1_555 1_555
H32 C25 1_555 1_555
H33 C25 1_555 1_555
C26 C14 1_555 1_555
H34 C26 1_555 1_555
H35 C26 1_555 1_555
H36 C26 1_555 1_555
C27 C13 1_555 1_555
H37 C27 1_555 1_555
H38 C27 1_555 1_555
H39 C27 1_555 1_555
C28 C17 1_555 1_555
H40 C28 1_555 1_555
H41 C28 1_555 1_555
H42 C28 1_555 1_555
C29 C20 1_555 1_555
H43 C29 1_555 1_555
H44 C29 1_555 1_555
C30 C20 1_555 1_555
H45 C30 1_555 1_555
H46 C30 1_555 1_555
H47 C30 1_555 1_555
O1 C3 1_555 1_555
C31 O1 1_555 1_555
O2 C31 1_555 1_555
C32 C31 1_555 1_555
C33 C32 1_555 1_555
H48 C33 1_555 1_555
C34 C33 1_555 1_555
H49 C34 1_555 1_555
C35 C34 1_555 1_555
H50 C35 1_555 1_555
C36 C35 1_555 1_555
H51 C36 1_555 1_555
C37 C32 1_555 1_555
H52 C37 1_555 1_555
O3 C29 1_555 1_555
C38 O3 1_555 1_555
O4 C38 1_555 1_555
C39 C38 1_555 1_555
C40 C39 1_555 1_555
H53 C40 1_555 1_555
C41 C40 1_555 1_555
H54 C41 1_555 1_555
C42 C41 1_555 1_555
H55 C42 1_555 1_555
C43 C42 1_555 1_555
H56 C43 1_555 1_555
C44 C39 1_555 1_555
H57 C44 1_555 1_555
O5 C7 1_555 1_555
H58 O5 1_555 1_555
C5 C10 1_555 1_555
C9 C10 1_555 1_555
C13 C14 1_555 1_555
C17 C18 1_555 1_555
C21 C22 1_555 1_555
C36 C37 1_555 1_555
C43 C44 1_555 1_555

#END
