
#######################################################################
#
#                 Cambridge Crystallographic Data Centre
#                                CCDC 
#
#######################################################################
#
# If this CIF has been generated from an entry in the Cambridge 
# Structural Database, then it will include bibliographic, chemical, 
# crystal, experimental, refinement or atomic coordinate data resulting 
# from the CCDC's data processing and validation procedures.
#
#######################################################################

data_PAXWUH
_chemical_formula_moiety         'C22 H27 N3 O10 S1,2(H2 O1)'
_chemical_name_systematic        
"4'-Hydroxybenzaldehyde 4-(2,3,4,6-tetra-O-acetyl-\b-D-glucopyranosyl)thiosemicarbazone dihydrate"
_symmetry_cell_setting           orthorhombic
_symmetry_space_group_name_H-M   'P 21 21 21'
_symmetry_Int_Tables_number      19
_space_group_name_Hall           'P 2ac 2ab'
loop_
_symmetry_equiv_pos_site_id
_symmetry_equiv_pos_as_xyz
1 x,y,z
2 1/2-x,-y,1/2+z
3 -x,1/2+y,1/2-z
4 1/2+x,1/2-y,-z
_cell_length_a                   10.275(3)
_cell_length_b                   13.419(4)
_cell_length_c                   20.234(6)
_cell_angle_alpha                90
_cell_angle_beta                 90
_cell_angle_gamma                90
_cell_volume                     2789.87
_exptl_crystal_colour            yellow
_exptl_crystal_description       needle
_cell_formula_units_Z            4
loop_
_atom_site_label
_atom_site_type_symbol
_atom_site_fract_x
_atom_site_fract_y
_atom_site_fract_z
O1 O 1.0117(5) 0.3514(4) 0.75461(18)
H1 H 1.049(7) 0.323(5) 0.782(3)
H2 H 1.020(8) 0.434(6) 0.759(4)
O2 O -0.0076(5) 0.5377(3) 0.8104(3)
H3 H -0.012(3) 0.577(2) 0.7753(14)
H4 H 0.071(6) 0.575(4) 0.824(2)
S1 S 0.14597(10) 0.26925(7) 0.89433(5)
O3 O -0.1037(2) 0.11522(16) 0.99803(10)
O4 O -0.2209(3) -0.03559(19) 0.91706(11)
O5 O -0.4177(4) -0.1024(3) 0.91586(16)
O6 O -0.0803(2) -0.10548(15) 1.10316(11)
O7 O -0.249(3) -0.1034(14) 1.173(2)
O8 O 0.0493(2) 0.03688(16) 1.17927(10)
O9 O 0.2207(3) -0.0631(2) 1.16641(13)
O10 O 0.1586(2) 0.19649(16) 1.10713(11)
O11 O 0.071(3) 0.331(3) 1.152(3)
O12 O -0.5154(3) 0.7237(2) 1.13020(13)
H5 H -0.5146 0.7012 1.1679
N1 N -0.0090(3) 0.26869(19) 1.00060(12)
H6 H -0.0549 0.3032 1.0278
N2 N -0.0125(3) 0.4080(2) 0.93830(13)
H7 H 0.0146 0.4445 0.9062
N3 N -0.1060(3) 0.4443(2) 0.98135(13)
C1 C -0.1038(3) 0.0112(2) 1.01295(15)
H8 H -0.0303 -0.0210 0.9906
C2 C -0.0894(4) -0.0013(2) 1.08718(15)
H9 H -0.1635 0.0290 1.1101
C3 C 0.0356(3) 0.0468(2) 1.10892(14)
H10 H 0.1091 0.0142 1.0869
C4 C 0.0337(3) 0.1557(2) 1.09101(14)
H11 H -0.0349 0.1903 1.1156
C5 C 0.0123(4) 0.1672(2) 1.01702(15)
H12 H 0.0873 0.1411 0.9926
C6 C 0.0357(3) 0.3162(2) 0.94664(15)
C7 C -0.1435(4) 0.5343(3) 0.97196(16)
H13 H -0.1074 0.5708 0.9375
C8 C -0.2414(4) 0.5806(2) 1.01402(17)
C9 C -0.2844(4) 0.5358(3) 1.07122(17)
H14 H -0.2510 0.4742 1.0837
C10 C -0.3772(4) 0.5821(3) 1.11017(18)
H15 H -0.4059 0.5512 1.1487
C11 C -0.4276(4) 0.6736(3) 1.09246(18)
C12 C -0.3875(4) 0.7171(3) 1.03424(18)
H16 H -0.4232 0.7777 1.0211
C13 C -0.2948(4) 0.6716(2) 0.99535(18)
H17 H -0.2678 0.7019 0.9564
C14 C -0.2284(4) -0.0310(3) 0.98725(16)
H18 H -0.2422 -0.0972 1.0052
H19 H -0.3008 0.0109 1.0005
C15 C -0.3237(4) -0.0758(3) 0.8864(2)
C16 C -0.3064(5) -0.0796(4) 0.8132(2)
H20 H -0.3823 -0.1087 0.7933
H21 H -0.2315 -0.1193 0.8027
H22 H -0.2944 -0.0133 0.7965
C17 C -0.1651(5) -0.1437(3) 1.1460(2)
C18 C -0.1284(4) -0.2468(3) 1.16547(19)
H23 H -0.1909 -0.2721 1.1965
H24 H -0.0437 -0.2461 1.1855
H25 H -0.1268 -0.2886 1.1270
C19 C 0.1464(4) -0.0209(3) 1.20167(17)
C20 C 0.1468(4) -0.0273(3) 1.27457(16)
H26 H 0.2166 -0.0698 1.2887
H27 H 0.0654 -0.0543 1.2895
H28 H 0.1586 0.0381 1.2929
C21 C 0.1633(4) 0.2794(3) 1.14408(19)
C22 C 0.2989(4) 0.3077(3) 1.15964(18)
H29 H 0.2992 0.3675 1.1857
H30 H 0.3459 0.3190 1.1193
H31 H 0.3399 0.2549 1.1840
O13? O -0.274(4) -0.091(3) 1.149(3)
O14? O 0.068(4) 0.308(5) 1.175(4)
loop_
_geom_bond_atom_site_label_1
_geom_bond_atom_site_label_2
_geom_bond_site_symmetry_1
_geom_bond_site_symmetry_2
O1 H1 1_555 1_555
H2 O1 1_555 1_555
O2 H3 1_555 1_555
H4 O2 1_555 1_555
S1 C6 1_555 1_555
O3 C1 1_555 1_555
O4 C14 1_555 1_555
O5 C15 1_555 1_555
O6 C2 1_555 1_555
O7 C17 1_555 1_555
O8 C3 1_555 1_555
O9 C19 1_555 1_555
O10 C4 1_555 1_555
O11 C21 1_555 1_555
O12 H5 1_555 1_555
N1 H6 1_555 1_555
N2 H7 1_555 1_555
N3 N2 1_555 1_555
C1 H8 1_555 1_555
C2 C1 1_555 1_555
H9 C2 1_555 1_555
C3 C2 1_555 1_555
H10 C3 1_555 1_555
C4 C3 1_555 1_555
H11 C4 1_555 1_555
C5 O3 1_555 1_555
H12 C5 1_555 1_555
C6 N1 1_555 1_555
C7 N3 1_555 1_555
H13 C7 1_555 1_555
C8 C7 1_555 1_555
C9 C8 1_555 1_555
H14 C9 1_555 1_555
C10 C9 1_555 1_555
H15 C10 1_555 1_555
C11 O12 1_555 1_555
C12 C11 1_555 1_555
H16 C12 1_555 1_555
C13 C8 1_555 1_555
H17 C13 1_555 1_555
C14 C1 1_555 1_555
H18 C14 1_555 1_555
H19 C14 1_555 1_555
C15 O4 1_555 1_555
C16 C15 1_555 1_555
H20 C16 1_555 1_555
H21 C16 1_555 1_555
H22 C16 1_555 1_555
C17 O6 1_555 1_555
C18 C17 1_555 1_555
H23 C18 1_555 1_555
H24 C18 1_555 1_555
H25 C18 1_555 1_555
C19 O8 1_555 1_555
C20 C19 1_555 1_555
H26 C20 1_555 1_555
H27 C20 1_555 1_555
H28 C20 1_555 1_555
C21 O10 1_555 1_555
C22 C21 1_555 1_555
H29 C22 1_555 1_555
H30 C22 1_555 1_555
H31 C22 1_555 1_555
N1 C5 1_555 1_555
N2 C6 1_555 1_555
C4 C5 1_555 1_555
C10 C11 1_555 1_555
C12 C13 1_555 1_555

#END
