
#######################################################################
#
#                 Cambridge Crystallographic Data Centre
#                                CCDC 
#
#######################################################################
#
# If this CIF has been generated from an entry in the Cambridge 
# Structural Database, then it will include bibliographic, chemical, 
# crystal, experimental, refinement or atomic coordinate data resulting 
# from the CCDC's data processing and validation procedures.
#
#######################################################################

data_PAXWIW
_chemical_formula_moiety         'C26 H28 O4'
_chemical_name_systematic        
Dispiro[cyclohexane-1,7'-dibenzo[f,h][1,4]dioxecine-8',1''-cyclohexane]-5',10'-dione
_symmetry_cell_setting           monoclinic
_symmetry_space_group_name_H-M   'C 2/c'
_symmetry_Int_Tables_number      15
_space_group_name_Hall           '-C 2yn'
loop_
_symmetry_equiv_pos_site_id
_symmetry_equiv_pos_as_xyz
1 x,y,z
2 -x,y,1/2-z
3 1/2+x,1/2+y,z
4 1/2-x,1/2+y,1/2-z
5 -x,-y,-z
6 x,-y,1/2+z
7 1/2-x,1/2-y,-z
8 1/2+x,1/2-y,1/2+z
_cell_length_a                   16.8289(7)
_cell_length_b                   10.5919(5)
_cell_length_c                   11.4752(5)
_cell_angle_alpha                90
_cell_angle_beta                 99.9670(10)
_cell_angle_gamma                90
_cell_volume                     2014.58
_exptl_crystal_colour            colorless
_exptl_crystal_description       block
_cell_formula_units_Z            4
loop_
_atom_site_label
_atom_site_type_symbol
_atom_site_fract_x
_atom_site_fract_y
_atom_site_fract_z
O1 O 0.42941(3) 0.08237(4) 0.17817(4)
O2 O 0.41218(3) 0.19432(4) 0.34309(4)
C1 C 0.35947(4) 0.30612(6) 0.05831(5)
H1 H 0.3278 0.2356 0.0346
C2 C 0.34982(4) 0.41537(6) -0.01047(6)
H2 H 0.3112 0.4184 -0.0790
C3 C 0.39828(4) 0.51981(6) 0.02401(6)
H3 H 0.3915 0.5936 -0.0205
C4 C 0.45706(4) 0.51343(6) 0.12541(6)
H4 H 0.4903 0.5828 0.1463
C5 C 0.46751(3) 0.40532(5) 0.19691(5)
C6 C 0.41629(3) 0.30170(5) 0.16241(5)
C7 C 0.41890(3) 0.18771(5) 0.24002(5)
C8 C 0.45225(3) -0.04149(5) 0.23283(5)
C9 C 0.42275(3) -0.13489(5) 0.13258(5)
H5 H 0.4472 -0.1135 0.0646
H6 H 0.4405 -0.2192 0.1580
C10 C 0.33088(4) -0.13507(6) 0.09545(6)
H7 H 0.3136 -0.0540 0.0606
H8 H 0.3156 -0.1995 0.0357
C11 C 0.28797(4) -0.16018(7) 0.19990(6)
H9 H 0.2992 -0.2457 0.2283
H10 H 0.2302 -0.1520 0.1746
C12 C 0.31654(4) -0.06665(6) 0.29988(6)
H11 H 0.2913 -0.0868 0.3675
H12 H 0.3003 0.0181 0.2739
C13 C 0.40844(3) -0.07157(5) 0.33654(5)
H13 H 0.4241 -0.1551 0.3668
H14 H 0.4250 -0.0113 0.3998
O1A O 0.57059(3) 0.08237(4) 0.32183(4)
O2A O 0.58782(3) 0.19432(4) 0.15691(4)
C1A C 0.64053(4) 0.30612(6) 0.44169(5)
H1A H 0.6722 0.2356 0.4654
C2A C 0.65018(4) 0.41537(6) 0.51047(6)
H2A H 0.6888 0.4184 0.5790
C3A C 0.60172(4) 0.51981(6) 0.47599(6)
H3A H 0.6085 0.5936 0.5205
C4A C 0.54294(4) 0.51343(6) 0.37459(6)
H4A H 0.5097 0.5828 0.3537
C5A C 0.53249(3) 0.40532(5) 0.30309(5)
C6A C 0.58371(3) 0.30170(5) 0.33759(5)
C7A C 0.58110(3) 0.18771(5) 0.25998(5)
C8A C 0.54775(3) -0.04149(5) 0.26717(5)
C9A C 0.57725(3) -0.13489(5) 0.36742(5)
H5A H 0.5528 -0.1135 0.4354
H6A H 0.5595 -0.2192 0.3420
C10A C 0.66912(4) -0.13507(6) 0.40455(6)
H7A H 0.6864 -0.0540 0.4394
H8A H 0.6844 -0.1995 0.4643
C11A C 0.71203(4) -0.16018(7) 0.30010(6)
H9A H 0.7008 -0.2457 0.2717
H10A H 0.7698 -0.1520 0.3254
C12A C 0.68346(4) -0.06665(6) 0.20012(6)
H11A H 0.7087 -0.0868 0.1325
H12A H 0.6997 0.0181 0.2261
C13A C 0.59156(3) -0.07157(5) 0.16346(5)
H13A H 0.5759 -0.1551 0.1332
H14A H 0.5750 -0.0113 0.1002
loop_
_geom_bond_atom_site_label_1
_geom_bond_atom_site_label_2
_geom_bond_site_symmetry_1
_geom_bond_site_symmetry_2
O1 C7 1_555 1_555
O2 C7 1_555 1_555
C1 H1 1_555 1_555
C2 C1 1_555 1_555
H2 C2 1_555 1_555
C3 C2 1_555 1_555
H3 C3 1_555 1_555
C4 C3 1_555 1_555
H4 C4 1_555 1_555
C5 C4 1_555 1_555
C6 C1 1_555 1_555
C7 C6 1_555 1_555
C8 O1 1_555 1_555
C9 C8 1_555 1_555
H5 C9 1_555 1_555
H6 C9 1_555 1_555
C10 C9 1_555 1_555
H7 C10 1_555 1_555
H8 C10 1_555 1_555
C11 C10 1_555 1_555
H9 C11 1_555 1_555
H10 C11 1_555 1_555
C12 C11 1_555 1_555
H11 C12 1_555 1_555
H12 C12 1_555 1_555
C13 C8 1_555 1_555
H13 C13 1_555 1_555
H14 C13 1_555 1_555
O1A C7A 1_555 1_555
O2A C7A 1_555 1_555
C1A H1A 1_555 1_555
C2A C1A 1_555 1_555
H2A C2A 1_555 1_555
C3A C2A 1_555 1_555
H3A C3A 1_555 1_555
C4A C3A 1_555 1_555
H4A C4A 1_555 1_555
C5A C5 1_555 1_555
C6A C1A 1_555 1_555
C7A C6A 1_555 1_555
C8A C8 1_555 1_555
C9A C8A 1_555 1_555
H5A C9A 1_555 1_555
H6A C9A 1_555 1_555
C10A C9A 1_555 1_555
H7A C10A 1_555 1_555
H8A C10A 1_555 1_555
C11A C10A 1_555 1_555
H9A C11A 1_555 1_555
H10A C11A 1_555 1_555
C12A C11A 1_555 1_555
H11A C12A 1_555 1_555
H12A C12A 1_555 1_555
C13A C8A 1_555 1_555
H13A C13A 1_555 1_555
H14A C13A 1_555 1_555
C5 C6 1_555 1_555
C12 C13 1_555 1_555
O1A C8A 1_555 1_555
C4A C5A 1_555 1_555
C5A C6A 1_555 1_555
C12A C13A 1_555 1_555

#END
