
#######################################################################
#
#                 Cambridge Crystallographic Data Centre
#                                CCDC 
#
#######################################################################
#
# If this CIF has been generated from an entry in the Cambridge 
# Structural Database, then it will include bibliographic, chemical, 
# crystal, experimental, refinement or atomic coordinate data resulting 
# from the CCDC's data processing and validation procedures.
#
#######################################################################

data_PAXYAP
_chemical_name_common            2,3-bis(p-Methylphenyl)tetrazole-5-thione
_chemical_formula_moiety         'C15 H16 N4 S1'
_chemical_name_systematic        
2,3-bis(4-Methylphenyl)-perhydrotetrazole-5-thione
_symmetry_cell_setting           orthorhombic
_symmetry_space_group_name_H-M   'P m n 21'
_symmetry_Int_Tables_number      31
_space_group_name_Hall           'P 2ac -2'
loop_
_symmetry_equiv_pos_site_id
_symmetry_equiv_pos_as_xyz
1 x,y,z
2 1/2-x,-y,1/2+z
3 -x,y,z
4 1/2+x,-y,1/2+z
_cell_length_a                   18.381(4)
_cell_length_b                   6.1799(12)
_cell_length_c                   6.1865(12)
_cell_angle_alpha                90
_cell_angle_beta                 90
_cell_angle_gamma                90
_cell_volume                     702.741
_exptl_crystal_colour            orange
_chemical_melting_point          169-171deg.C
_cell_formula_units_Z            2
_exptl_crystal_recrystallization_method ethanol
loop_
_atom_site_label
_atom_site_type_symbol
_atom_site_fract_x
_atom_site_fract_y
_atom_site_fract_z
S1 S 0.0000 1.1699(3) 0.2154(3)
N1 N 0.0362(2) 0.7480(5) 0.6421(6)
N2 N 0.0614(2) 0.8903(7) 0.5009(7)
H1 H 0.1062 0.9177 0.4714
C1 C 0.0806(3) 0.6090(8) 0.7708(8)
C2 C 0.1040(3) 0.6870(8) 0.9731(9)
H2 H 0.0895 0.8225 1.0225
C3 C 0.1491(3) 0.5565(8) 1.0968(9)
H3 H 0.1634 0.6018 1.2337
C4 C 0.1733(3) 0.3561(9) 1.0168(10)
C5 C 0.1512(3) 0.2890(8) 0.8177(10)
H4 H 0.1685 0.1584 0.7638
C6 C 0.1032(3) 0.4111(8) 0.6922(11)
H5 H 0.0869 0.3604 0.5592
C7 C 0.2213(4) 0.2157(11) 1.1532(12)
H6 H 0.2319 0.2884 1.2866
H7 H 0.2658 0.1868 1.0773
H8 H 0.1968 0.0817 1.1832
C8 C 0.0000 0.9863(13) 0.4101(12)
N1B N -0.0362(2) 0.7480(5) 0.6421(6)
N2B N -0.0614(2) 0.8903(7) 0.5009(7)
H1B H -0.1062 0.9177 0.4714
C1B C -0.0806(3) 0.6090(8) 0.7708(8)
C2B C -0.1040(3) 0.6870(8) 0.9731(9)
H2B H -0.0895 0.8225 1.0225
C3B C -0.1491(3) 0.5565(8) 1.0968(9)
H3B H -0.1634 0.6018 1.2337
C4B C -0.1733(3) 0.3561(9) 1.0168(10)
C5B C -0.1512(3) 0.2890(8) 0.8177(10)
H4B H -0.1685 0.1584 0.7638
C6B C -0.1032(3) 0.4111(8) 0.6922(11)
H5B H -0.0869 0.3604 0.5592
C7B C -0.2213(4) 0.2157(11) 1.1532(12)
H6B H -0.2319 0.2884 1.2866
H7B H -0.2658 0.1868 1.0773
H8B H -0.1968 0.0817 1.1832
loop_
_geom_bond_atom_site_label_1
_geom_bond_atom_site_label_2
_geom_bond_site_symmetry_1
_geom_bond_site_symmetry_2
S1 C8 1_555 1_555
N1 N2 1_555 1_555
N2 H1 1_555 1_555
C1 N1 1_555 1_555
C2 C1 1_555 1_555
H2 C2 1_555 1_555
C3 C2 1_555 1_555
H3 C3 1_555 1_555
C4 C3 1_555 1_555
C5 C4 1_555 1_555
H4 C5 1_555 1_555
C6 C1 1_555 1_555
H5 C6 1_555 1_555
C7 C4 1_555 1_555
H6 C7 1_555 1_555
H7 C7 1_555 1_555
H8 C7 1_555 1_555
C8 N2 1_555 1_555
N1B N1 1_555 1_555
N2B C8 1_555 1_555
H1B N2B 1_555 1_555
C1B N1B 1_555 1_555
C2B C1B 1_555 1_555
H2B C2B 1_555 1_555
C3B C2B 1_555 1_555
H3B C3B 1_555 1_555
C4B C3B 1_555 1_555
C5B C4B 1_555 1_555
H4B C5B 1_555 1_555
C6B C1B 1_555 1_555
H5B C6B 1_555 1_555
C7B C4B 1_555 1_555
H6B C7B 1_555 1_555
H7B C7B 1_555 1_555
H8B C7B 1_555 1_555
C5 C6 1_555 1_555
N1B N2B 1_555 1_555
C5B C6B 1_555 1_555

#END
