
#######################################################################
#
#                 Cambridge Crystallographic Data Centre
#                                CCDC 
#
#######################################################################
#
# If this CIF has been generated from an entry in the Cambridge 
# Structural Database, then it will include bibliographic, chemical, 
# crystal, experimental, refinement or atomic coordinate data resulting 
# from the CCDC's data processing and validation procedures.
#
#######################################################################

data_PAXZUL
_chemical_formula_moiety         'C25 H13 Cl2 F4 N3'
_chemical_name_systematic        
3-(2,4-Dichlorophenyl)-5-(4-fluorophenyl)-2-phenyl-7-(trifluoromethyl)pyrazolo[1,5-a]pyrimidine
_symmetry_cell_setting           monoclinic
_symmetry_space_group_name_H-M   'P 21/c'
_symmetry_Int_Tables_number      14
_space_group_name_Hall           '-P 2ybc'
loop_
_symmetry_equiv_pos_site_id
_symmetry_equiv_pos_as_xyz
1 x,y,z
2 -x,1/2+y,1/2-z
3 -x,-y,-z
4 x,1/2-y,1/2+z
_cell_length_a                   9.0826(18)
_cell_length_b                   9.0606(18)
_cell_length_c                   27.259(6)
_cell_angle_alpha                90
_cell_angle_beta                 99.46(3)
_cell_angle_gamma                90
_cell_volume                     2212.74
_exptl_crystal_colour            yellow
_exptl_crystal_description       prism
_cell_formula_units_Z            4
loop_
_atom_site_label
_atom_site_type_symbol
_atom_site_fract_x
_atom_site_fract_y
_atom_site_fract_z
Cl1 Cl 1.31929(9) 0.44828(10) 0.47969(3)
Cl2 Cl 0.94948(12) 0.20741(11) 0.59085(3)
F1 F 1.09069(17) 0.35785(15) 0.20644(5)
F2 F 1.2102(2) 0.5478(2) 0.23496(6)
F3 F 0.9955(2) 0.56762(17) 0.18909(5)
F4 F 0.24299(18) 0.7892(2) 0.32444(6)
N1 N 1.2012(2) 0.33960(19) 0.31669(6)
N2 N 1.0698(2) 0.41358(18) 0.31156(6)
N3 N 0.8699(2) 0.47095(19) 0.35650(6)
C1 C 1.2191(2) 0.2873(2) 0.36384(7)
C2 C 1.3488(2) 0.1903(2) 0.37979(8)
C3 C 1.4710(3) 0.1954(3) 0.35534(9)
H1 H 1.4737 0.2649 0.3304
C4 C 1.5895(3) 0.0981(3) 0.36768(10)
H2 H 1.6707 0.1023 0.3509
C5 C 1.5865(3) -0.0044(3) 0.40471(11)
H3 H 1.6655 -0.0701 0.4129
C6 C 1.4674(4) -0.0098(3) 0.42954(11)
H4 H 1.4664 -0.0782 0.4549
C7 C 1.3487(3) 0.0857(3) 0.41720(9)
H5 H 1.2678 0.0802 0.4341
C8 C 1.1017(2) 0.3286(2) 0.38894(7)
C9 C 1.0711(2) 0.2977(2) 0.43952(7)
C10 C 1.1586(3) 0.3478(2) 0.48288(8)
C11 C 1.1222(3) 0.3204(3) 0.52918(8)
H6 H 1.1831 0.3551 0.5576
C12 C 0.9960(3) 0.2419(3) 0.53295(8)
C13 C 0.9050(3) 0.1923(3) 0.49108(10)
H7 H 0.8181 0.1407 0.4936
C14 C 0.9437(3) 0.2199(3) 0.44528(9)
H8 H 0.8820 0.1849 0.4170
C15 C 1.0032(2) 0.4081(2) 0.35423(7)
C16 C 0.8006(2) 0.5390(2) 0.31605(7)
C17 C 0.8643(3) 0.5463(2) 0.27171(8)
H9 H 0.8129 0.5937 0.2438
C18 C 0.9989(2) 0.4847(2) 0.27000(7)
C19 C 1.0751(3) 0.4900(3) 0.22528(8)
C20 C 0.6539(2) 0.6071(2) 0.31877(7)
C21 C 0.5912(3) 0.7106(3) 0.28349(9)
H10 H 0.6427 0.7381 0.2581
C22 C 0.4542(3) 0.7726(3) 0.28576(9)
H11 H 0.4130 0.8419 0.2623
C23 C 0.3796(3) 0.7307(3) 0.32307(10)
C24 C 0.4372(3) 0.6316(3) 0.35902(9)
H12 H 0.3848 0.6061 0.3844
C25 C 0.5753(3) 0.5702(2) 0.35670(8)
H13 H 0.6163 0.5030 0.3809
loop_
_geom_bond_atom_site_label_1
_geom_bond_atom_site_label_2
_geom_bond_site_symmetry_1
_geom_bond_site_symmetry_2
Cl1 C10 1_555 1_555
Cl2 C12 1_555 1_555
F1 C19 1_555 1_555
F2 C19 1_555 1_555
F3 C19 1_555 1_555
F4 C23 1_555 1_555
N1 N2 1_555 1_555
N2 C15 1_555 1_555
N3 C15 1_555 1_555
C1 N1 1_555 1_555
C2 C1 1_555 1_555
C3 C2 1_555 1_555
H1 C3 1_555 1_555
C4 C3 1_555 1_555
H2 C4 1_555 1_555
C5 C4 1_555 1_555
H3 C5 1_555 1_555
C6 C5 1_555 1_555
H4 C6 1_555 1_555
C7 C2 1_555 1_555
H5 C7 1_555 1_555
C8 C1 1_555 1_555
C9 C8 1_555 1_555
C10 C9 1_555 1_555
C11 C10 1_555 1_555
H6 C11 1_555 1_555
C12 C11 1_555 1_555
C13 C12 1_555 1_555
H7 C13 1_555 1_555
C14 C9 1_555 1_555
H8 C14 1_555 1_555
C15 C8 1_555 1_555
C16 N3 1_555 1_555
C17 C16 1_555 1_555
H9 C17 1_555 1_555
C18 N2 1_555 1_555
C19 C18 1_555 1_555
C20 C16 1_555 1_555
C21 C20 1_555 1_555
H10 C21 1_555 1_555
C22 C21 1_555 1_555
H11 C22 1_555 1_555
C23 C22 1_555 1_555
C24 C23 1_555 1_555
H12 C24 1_555 1_555
C25 C20 1_555 1_555
H13 C25 1_555 1_555
C6 C7 1_555 1_555
C13 C14 1_555 1_555
C17 C18 1_555 1_555
C24 C25 1_555 1_555

#END
