
#######################################################################
#
#                 Cambridge Crystallographic Data Centre
#                                CCDC 
#
#######################################################################
#
# If this CIF has been generated from an entry in the Cambridge 
# Structural Database, then it will include bibliographic, chemical, 
# crystal, experimental, refinement or atomic coordinate data resulting 
# from the CCDC's data processing and validation procedures.
#
#######################################################################

data_PAYBOI
_chemical_formula_moiety         'C17 H25 N3 O2'
_chemical_name_systematic        
1-[(3-Nitrophenyl)(piperidin-1-yl)methyl]piperidine
_symmetry_cell_setting           orthorhombic
_symmetry_space_group_name_H-M   'P b c a'
_symmetry_Int_Tables_number      61
_space_group_name_Hall           '-P 2ac 2ab'
loop_
_symmetry_equiv_pos_site_id
_symmetry_equiv_pos_as_xyz
1 x,y,z
2 1/2-x,-y,1/2+z
3 -x,1/2+y,1/2-z
4 1/2+x,1/2-y,-z
5 -x,-y,-z
6 1/2+x,y,1/2-z
7 x,1/2-y,1/2+z
8 1/2-x,1/2+y,z
_cell_length_a                   12.1993(14)
_cell_length_b                   8.2012(9)
_cell_length_c                   33.453(4)
_cell_angle_alpha                90
_cell_angle_beta                 90
_cell_angle_gamma                90
_cell_volume                     3346.94
_exptl_crystal_colour            'pale yellow'
_exptl_crystal_description       needle
_cell_formula_units_Z            8
loop_
_atom_site_label
_atom_site_type_symbol
_atom_site_fract_x
_atom_site_fract_y
_atom_site_fract_z
C1 C 0.4378(2) 0.0644(3) 0.59215(7)
C2 C 0.3469(2) 0.0225(3) 0.56963(8)
H1 H 0.2791 0.0697 0.5748
C3 C 0.3587(2) -0.0929(4) 0.53875(8)
C4 C 0.4570(3) -0.1650(4) 0.53052(9)
H2 H 0.4625 -0.2418 0.5101
C5 C 0.5477(3) -0.1236(4) 0.55250(9)
H3 H 0.6150 -0.1721 0.5471
C6 C 0.5383(2) -0.0096(4) 0.58258(8)
H4 H 0.6005 0.0193 0.5970
C7 C 0.4282(2) 0.1804(3) 0.62769(7)
H5 H 0.3635 0.2493 0.6235
C8 C 0.5060(2) -0.0124(4) 0.67719(8)
H6 H 0.5742 0.0475 0.6749
H7 H 0.5092 -0.1051 0.6592
C9 C 0.4918(3) -0.0723(4) 0.72010(9)
H8 H 0.5522 -0.1436 0.7271
H9 H 0.4926 0.0200 0.7382
C10 C 0.3842(3) -0.1638(4) 0.72440(9)
H10 H 0.3730 -0.1934 0.7522
H11 H 0.3868 -0.2632 0.7087
C11 C 0.2898(3) -0.0577(4) 0.71015(9)
H12 H 0.2225 -0.1205 0.7106
H13 H 0.2811 0.0341 0.7282
C12 C 0.3100(2) 0.0049(4) 0.66804(8)
H14 H 0.3115 -0.0863 0.6496
H15 H 0.2506 0.0767 0.6602
C13 C 0.5397(3) 0.3828(4) 0.59340(8)
H16 H 0.4815 0.4628 0.5911
H17 H 0.5365 0.3119 0.5702
C14 C 0.6505(3) 0.4692(4) 0.59470(9)
H18 H 0.7087 0.3886 0.5955
H19 H 0.6598 0.5337 0.5706
C15 C 0.6591(3) 0.5790(4) 0.63100(10)
H20 H 0.7333 0.6207 0.6332
H21 H 0.6099 0.6710 0.6280
C16 C 0.6299(3) 0.4858(4) 0.66823(9)
H22 H 0.6256 0.5609 0.6906
H23 H 0.6874 0.4076 0.6740
C17 C 0.5214(2) 0.3963(4) 0.66416(8)
H24 H 0.5070 0.3345 0.6883
H25 H 0.4626 0.4747 0.6607
N1 N 0.2630(3) -0.1308(4) 0.51498(8)
N2 N 0.41423(16) 0.0934(3) 0.66589(6)
N3 N 0.52421(17) 0.2863(3) 0.62994(6)
O1 O 0.2761(3) -0.2159(4) 0.48535(9)
O2 O 0.1737(2) -0.0787(5) 0.52516(9)
loop_
_geom_bond_atom_site_label_1
_geom_bond_atom_site_label_2
_geom_bond_site_symmetry_1
_geom_bond_site_symmetry_2
C1 C2 1_555 1_555
C2 H1 1_555 1_555
C3 C2 1_555 1_555
C4 C3 1_555 1_555
H2 C4 1_555 1_555
C5 C4 1_555 1_555
H3 C5 1_555 1_555
C6 C1 1_555 1_555
H4 C6 1_555 1_555
C7 C1 1_555 1_555
H5 C7 1_555 1_555
C8 H6 1_555 1_555
H7 C8 1_555 1_555
C9 C8 1_555 1_555
H8 C9 1_555 1_555
H9 C9 1_555 1_555
C10 C9 1_555 1_555
H10 C10 1_555 1_555
H11 C10 1_555 1_555
C11 C10 1_555 1_555
H12 C11 1_555 1_555
H13 C11 1_555 1_555
C12 C11 1_555 1_555
H14 C12 1_555 1_555
H15 C12 1_555 1_555
C13 H16 1_555 1_555
H17 C13 1_555 1_555
C14 C13 1_555 1_555
H18 C14 1_555 1_555
H19 C14 1_555 1_555
C15 C14 1_555 1_555
H20 C15 1_555 1_555
H21 C15 1_555 1_555
C16 C15 1_555 1_555
H22 C16 1_555 1_555
H23 C16 1_555 1_555
C17 C16 1_555 1_555
H24 C17 1_555 1_555
H25 C17 1_555 1_555
N1 C3 1_555 1_555
N2 C7 1_555 1_555
N3 C7 1_555 1_555
O1 N1 1_555 1_555
O2 N1 1_555 1_555
C5 C6 1_555 1_555
C8 N2 1_555 1_555
C12 N2 1_555 1_555
C13 N3 1_555 1_555
C17 N3 1_555 1_555

#END
