
#######################################################################
#
#                 Cambridge Crystallographic Data Centre
#                                CCDC 
#
#######################################################################
#
# If this CIF has been generated from an entry in the Cambridge 
# Structural Database, then it will include bibliographic, chemical, 
# crystal, experimental, refinement or atomic coordinate data resulting 
# from the CCDC's data processing and validation procedures.
#
#######################################################################

data_PAYCAV
_chemical_formula_moiety         'C8 H5 Cl1 N2 O1'
_chemical_name_systematic        2-Chloroquinazolin-4(3H)-one
_symmetry_cell_setting           monoclinic
_symmetry_space_group_name_H-M   'C 2/c'
_symmetry_Int_Tables_number      15
_space_group_name_Hall           '-C 2yn'
loop_
_symmetry_equiv_pos_site_id
_symmetry_equiv_pos_as_xyz
1 x,y,z
2 -x,y,1/2-z
3 1/2+x,1/2+y,z
4 1/2-x,1/2+y,1/2-z
5 -x,-y,-z
6 x,-y,1/2+z
7 1/2-x,1/2-y,-z
8 1/2+x,1/2-y,1/2+z
_cell_length_a                   22.4315(16)
_cell_length_b                   3.7666(6)
_cell_length_c                   18.0640(13)
_cell_angle_alpha                90
_cell_angle_beta                 104.682(7)
_cell_angle_gamma                90
_cell_volume                     1476.4
_exptl_crystal_colour            colorless
_exptl_crystal_description       prism
_cell_formula_units_Z            8
loop_
_atom_site_label
_atom_site_type_symbol
_atom_site_fract_x
_atom_site_fract_y
_atom_site_fract_z
Cl1 Cl 0.087385(18) 0.57099(12) 0.36030(2)
O1 O 0.25626(5) 0.5555(3) 0.58943(6)
N1 N 0.07663(6) 0.3042(4) 0.48893(7)
N2 N 0.17290(6) 0.5527(4) 0.48745(7)
C1 C 0.11297(7) 0.4595(4) 0.45572(9)
C2 C 0.10115(7) 0.2222(4) 0.56609(8)
C3 C 0.06280(7) 0.0601(4) 0.60639(9)
H1 H 0.0211 0.0084 0.5814
C4 C 0.08592(7) -0.0240(4) 0.68250(9)
H2 H 0.0597 -0.1318 0.7098
C5 C 0.14730(7) 0.0467(4) 0.72020(9)
H3 H 0.1626 -0.0140 0.7726
C6 C 0.18533(7) 0.2042(4) 0.68100(9)
H4 H 0.2272 0.2508 0.7063
C7 C 0.16281(6) 0.2959(4) 0.60432(8)
C8 C 0.20165(7) 0.4738(4) 0.56241(9)
H5 H 0.1956(9) 0.652(6) 0.4567(11)
loop_
_geom_bond_atom_site_label_1
_geom_bond_atom_site_label_2
_geom_bond_site_symmetry_1
_geom_bond_site_symmetry_2
Cl1 C1 1_555 1_555
O1 C8 1_555 1_555
N1 C1 1_555 1_555
N2 C1 1_555 1_555
C2 N1 1_555 1_555
C3 C2 1_555 1_555
H1 C3 1_555 1_555
C4 C3 1_555 1_555
H2 C4 1_555 1_555
C5 C4 1_555 1_555
H3 C5 1_555 1_555
C6 C5 1_555 1_555
H4 C6 1_555 1_555
C7 C2 1_555 1_555
C8 N2 1_555 1_555
H5 N2 1_555 1_555
C6 C7 1_555 1_555
C7 C8 1_555 1_555

#END
