
#######################################################################
#
#                 Cambridge Crystallographic Data Centre
#                                CCDC 
#
#######################################################################
#
# If this CIF has been generated from an entry in the Cambridge 
# Structural Database, then it will include bibliographic, chemical, 
# crystal, experimental, refinement or atomic coordinate data resulting 
# from the CCDC's data processing and validation procedures.
#
#######################################################################

data_PAYJIL
_chemical_compound_source        'eggs of the toad Bufo bufo gargarizans'
_chemical_formula_moiety         'C29 H40 O8,H2 O1'
_chemical_name_systematic        
'16-(acetyloxy)-14-hydroxy-3-[(2-hydroxypropanoyl)oxy]bufa-20,22-dienolide monohydrate'
_chemical_properties_biological  
'potent cytotoxic agent against human gastric cancer cells BGC-823 and human lung cancer cells A549'
_symmetry_cell_setting           monoclinic
_symmetry_space_group_name_H-M   'P 21'
_symmetry_Int_Tables_number      4
_space_group_name_Hall           'P 2yb'
loop_
_symmetry_equiv_pos_site_id
_symmetry_equiv_pos_as_xyz
1 x,y,z
2 -x,1/2+y,-z
_cell_length_a                   10.27418(11)
_cell_length_b                   12.53092(12)
_cell_length_c                   10.87663(16)
_cell_angle_alpha                90
_cell_angle_beta                 107.8950(10)
_cell_angle_gamma                90
_cell_volume                     1332.57
_exptl_crystal_colour            colorless
_exptl_crystal_description       block
_cell_formula_units_Z            2
loop_
_atom_site_label
_atom_site_type_symbol
_atom_site_fract_x
_atom_site_fract_y
_atom_site_fract_z
O1 O 0.6926(3) 0.5773(2) 0.1970(3)
O2 O 0.0853(2) 0.4772(2) 0.5011(2)
H1 H 0.029825 0.483294 0.428901
O3 O 0.1738(3) 0.4681(2) 0.7889(3)
O4 O 0.3653(4) 0.3967(3) 0.9179(3)
O5 O -0.1557(3) 0.7158(2) 0.8001(3)
O6 O -0.3675(3) 0.6555(3) 0.7498(4)
O7 O 0.8714(3) 0.4642(3) 0.2653(3)
O8 O 0.9178(4) 0.4809(4) 0.0321(4)
H2 H 0.978385 0.503402 0.094930
C1 C 0.4904(4) 0.7203(3) 0.2598(4)
H3 H 0.496687 0.725463 0.172786
H4 H 0.467576 0.790636 0.284240
C2 C 0.6299(4) 0.6886(3) 0.3505(4)
H5 H 0.698237 0.738358 0.340355
H6 H 0.628394 0.693193 0.439045
C3 C 0.6694(3) 0.5763(3) 0.3240(4)
H7 H 0.753519 0.555016 0.390875
C4 C 0.5567(4) 0.4963(3) 0.3185(4)
H8 H 0.550304 0.486483 0.404903
H9 H 0.581322 0.428108 0.289648
C5 C 0.4161(4) 0.5298(3) 0.2284(4)
H10 H 0.422403 0.531177 0.140322
C6 C 0.3099(4) 0.4451(3) 0.2317(4)
H11 H 0.225878 0.458742 0.162518
H12 H 0.343349 0.375319 0.217030
C7 C 0.2798(4) 0.4446(3) 0.3603(4)
H13 H 0.361195 0.422865 0.428373
H14 H 0.208205 0.393182 0.356799
C8 C 0.2347(3) 0.5553(3) 0.3920(4)
H15 H 0.151611 0.573120 0.321854
C9 C 0.3415(3) 0.6421(3) 0.3903(4)
H16 H 0.426603 0.623091 0.457305
C10 C 0.3734(4) 0.6434(3) 0.2583(4)
C11 C 0.2964(4) 0.7507(3) 0.4273(4)
H17 H 0.368730 0.802308 0.434701
H18 H 0.216207 0.774532 0.359310
C12 C 0.2631(3) 0.7464(3) 0.5546(4)
H19 H 0.233859 0.816672 0.572700
H20 H 0.345731 0.728645 0.623501
C13 C 0.1510(3) 0.6649(3) 0.5554(4)
C14 C 0.1940(3) 0.5537(3) 0.5164(3)
C15 C 0.3037(4) 0.5174(3) 0.6406(4)
H21 H 0.314623 0.440489 0.641496
H22 H 0.391115 0.550453 0.647678
C16 C 0.2510(4) 0.5536(3) 0.7513(4)
H23 H 0.327244 0.576486 0.825624
C17 C 0.1516(4) 0.6485(3) 0.6983(4)
H24 H 0.194892 0.712011 0.746261
C18 C 0.0137(3) 0.7039(3) 0.4654(4)
H25 H 0.020010 0.712635 0.379705
H26 H -0.009075 0.771059 0.496004
H27 H -0.056060 0.652520 0.463935
C19 C 0.2473(4) 0.6781(3) 0.1459(4)
H28 H 0.168858 0.637880 0.148975
H29 H 0.264241 0.665149 0.065145
H30 H 0.230613 0.752765 0.153726
C20 C 0.0131(4) 0.6382(3) 0.7189(3)
C21 C -0.0288(4) 0.7133(3) 0.7845(4)
H31 H 0.032235 0.767510 0.822175
C22 C -0.0831(4) 0.5530(3) 0.6673(4)
H32 H -0.057224 0.495727 0.625591
C23 C -0.2108(4) 0.5557(3) 0.6790(4)
H33 H -0.271003 0.499931 0.645416
C24 C -0.2544(4) 0.6418(4) 0.7414(4)
C25 C 0.2426(5) 0.3956(4) 0.8736(4)
C26 C 0.1505(7) 0.3158(4) 0.9040(5)
H34 H 0.063773 0.348309 0.896401
H35 H 0.190589 0.290148 0.990560
H36 H 0.137423 0.257139 0.844576
C27 C 0.7900(4) 0.5152(4) 0.1807(4)
C28 C 0.7898(5) 0.5128(5) 0.0407(5)
H37 H 0.775135 0.586335 0.008838
C29 C 0.6778(6) 0.4508(5) -0.0386(5)
H38 H 0.683552 0.447317 -0.124890
H39 H 0.592945 0.483701 -0.039908
H40 H 0.681923 0.380004 -0.003881
O9 O 0.5338(4) 0.2496(3) 0.1053(3)
H41 H 0.482920 0.289869 0.047402
H42 H 0.487737 0.223826 0.151151
loop_
_geom_bond_atom_site_label_1
_geom_bond_atom_site_label_2
_geom_bond_site_symmetry_1
_geom_bond_site_symmetry_2
O1 C3 1_555 1_555
O2 H1 1_555 1_555
O3 C16 1_555 1_555
O4 C25 1_555 1_555
O5 C21 1_555 1_555
O6 C24 1_555 1_555
O7 C27 1_555 1_555
O8 H2 1_555 1_555
C1 H3 1_555 1_555
H4 C1 1_555 1_555
C2 C1 1_555 1_555
H5 C2 1_555 1_555
H6 C2 1_555 1_555
C3 C2 1_555 1_555
H7 C3 1_555 1_555
C4 C3 1_555 1_555
H8 C4 1_555 1_555
H9 C4 1_555 1_555
C5 C4 1_555 1_555
H10 C5 1_555 1_555
C6 C5 1_555 1_555
H11 C6 1_555 1_555
H12 C6 1_555 1_555
C7 C6 1_555 1_555
H13 C7 1_555 1_555
H14 C7 1_555 1_555
C8 C7 1_555 1_555
H15 C8 1_555 1_555
C9 C8 1_555 1_555
H16 C9 1_555 1_555
C10 C1 1_555 1_555
C11 C9 1_555 1_555
H17 C11 1_555 1_555
H18 C11 1_555 1_555
C12 C11 1_555 1_555
H19 C12 1_555 1_555
H20 C12 1_555 1_555
C13 C12 1_555 1_555
C14 O2 1_555 1_555
C15 C14 1_555 1_555
H21 C15 1_555 1_555
H22 C15 1_555 1_555
C16 C15 1_555 1_555
H23 C16 1_555 1_555
C17 C13 1_555 1_555
H24 C17 1_555 1_555
C18 C13 1_555 1_555
H25 C18 1_555 1_555
H26 C18 1_555 1_555
H27 C18 1_555 1_555
C19 C10 1_555 1_555
H28 C19 1_555 1_555
H29 C19 1_555 1_555
H30 C19 1_555 1_555
C20 C17 1_555 1_555
C21 C20 1_555 1_555
H31 C21 1_555 1_555
C22 C20 1_555 1_555
H32 C22 1_555 1_555
C23 C22 1_555 1_555
H33 C23 1_555 1_555
C24 O5 1_555 1_555
C25 O3 1_555 1_555
C26 C25 1_555 1_555
H34 C26 1_555 1_555
H35 C26 1_555 1_555
H36 C26 1_555 1_555
C27 O1 1_555 1_555
C28 O8 1_555 1_555
H37 C28 1_555 1_555
C29 C28 1_555 1_555
H38 C29 1_555 1_555
H39 C29 1_555 1_555
H40 C29 1_555 1_555
O9 H41 1_555 1_555
H42 O9 1_555 1_555
C5 C10 1_555 1_555
C8 C14 1_555 1_555
C9 C10 1_555 1_555
C13 C14 1_555 1_555
C16 C17 1_555 1_555
C23 C24 1_555 1_555
C27 C28 1_555 1_555

#END
