
#######################################################################
#
#                 Cambridge Crystallographic Data Centre
#                                CCDC 
#
#######################################################################
#
# If this CIF has been generated from an entry in the Cambridge 
# Structural Database, then it will include bibliographic, chemical, 
# crystal, experimental, refinement or atomic coordinate data resulting 
# from the CCDC's data processing and validation procedures.
#
#######################################################################

data_PAYJEH
_chemical_compound_source        'eggs of the toad Bufo bufo gargarizans'
_chemical_formula_moiety         'C27 H36 O8,H2 O1'
_chemical_name_systematic        
'11,14-dihydroxy-3-[(2-hydroxypropanoyl)oxy]-12-oxobufa-20,22-dienolide monohydrate'
_chemical_properties_biological  
'potent cytotoxic agent against human gastric cancer cells BGC-823 and human lung cancer cells A549'
_symmetry_cell_setting           monoclinic
_symmetry_space_group_name_H-M   'C 2'
_symmetry_Int_Tables_number      5
_space_group_name_Hall           'C 2y'
loop_
_symmetry_equiv_pos_site_id
_symmetry_equiv_pos_as_xyz
1 x,y,z
2 -x,y,-z
3 1/2+x,1/2+y,z
4 1/2-x,1/2+y,-z
_cell_length_a                   32.2353(3)
_cell_length_b                   7.66968(8)
_cell_length_c                   10.48751(13)
_cell_angle_alpha                90
_cell_angle_beta                 99.2221(11)
_cell_angle_gamma                90
_cell_volume                     2559.36
_exptl_crystal_colour            colorless
_exptl_crystal_description       block
_cell_formula_units_Z            4
loop_
_atom_site_label
_atom_site_type_symbol
_atom_site_fract_x
_atom_site_fract_y
_atom_site_fract_z
O1 O 0.42487(6) 0.3333(3) 0.24369(17)
O2 O 0.36028(5) 0.2035(2) 0.69940(17)
H1 H 0.337941 0.213975 0.650154
O3 O 0.30849(6) 0.3520(3) 0.83162(19)
O4 O 0.37174(6) 0.9064(2) 0.84433(16)
H2 H 0.367945 0.990404 0.795501
O5 O 0.27976(7) 0.7159(3) 1.2408(2)
O6 O 0.27890(6) 0.9360(3) 1.38144(17)
O7 O 0.38018(6) 0.1883(3) 0.0922(2)
O8 O 0.44516(6) 0.1005(3) -0.03305(19)
H3 H 0.423922 0.039942 -0.043756
C1 C 0.41965(9) 0.2573(4) 0.5221(3)
H4 H 0.445616 0.227707 0.491506
H5 H 0.414767 0.169386 0.584481
C2 C 0.38374(10) 0.2504(4) 0.4081(3)
H6 H 0.382700 0.135375 0.369215
H7 H 0.357297 0.270250 0.438733
C3 C 0.38935(9) 0.3859(4) 0.3076(2)
H8 H 0.363711 0.392538 0.243430
C4 C 0.39945(9) 0.5654(4) 0.3661(3)
H9 H 0.373925 0.614870 0.388884
H10 H 0.408363 0.640013 0.300920
C5 C 0.43368(9) 0.5676(3) 0.4867(3)
H11 H 0.460007 0.532650 0.458459
C6 C 0.44040(11) 0.7523(4) 0.5420(3)
H12 H 0.466092 0.755494 0.604365
H13 H 0.443463 0.833003 0.472905
C7 C 0.40356(12) 0.8090(4) 0.6072(3)
H14 H 0.409971 0.921537 0.647827
H15 H 0.378862 0.823098 0.541764
C8 C 0.39355(8) 0.6800(3) 0.7087(2)
H16 H 0.418564 0.673066 0.775298
C9 C 0.38593(8) 0.4950(3) 0.6508(2)
H17 H 0.362093 0.502756 0.580134
C10 C 0.42516(8) 0.4341(4) 0.5902(2)
C11 C 0.37326(7) 0.3679(3) 0.7520(2)
H18 H 0.398173 0.348840 0.817386
C12 C 0.33879(8) 0.4419(3) 0.8213(2)
C13 C 0.34413(7) 0.6266(3) 0.8768(2)
C14 C 0.35750(8) 0.7508(3) 0.7750(2)
C15 C 0.31572(8) 0.7864(3) 0.6877(2)
H19 H 0.306517 0.685794 0.634557
H20 H 0.317776 0.886234 0.632301
C16 C 0.28595(8) 0.8233(4) 0.7845(2)
H21 H 0.256999 0.802242 0.745738
H22 H 0.288656 0.943118 0.814215
C17 C 0.29972(7) 0.6956(4) 0.8973(2)
H23 H 0.280465 0.596045 0.884007
C18 C 0.37681(8) 0.6175(3) 1.0004(2)
H24 H 0.367082 0.539640 1.060865
H25 H 0.380816 0.731664 1.037842
H26 H 0.402987 0.575531 0.979612
C19 C 0.46400(9) 0.4167(5) 0.6954(3)
H27 H 0.469571 0.526440 0.738781
H28 H 0.487813 0.383440 0.656419
H29 H 0.458896 0.329400 0.756564
C20 C 0.29699(7) 0.7680(3) 1.0298(2)
C21 C 0.28439(9) 0.6590(4) 1.1212(3)
H30 H 0.278889 0.542613 1.100160
C22 C 0.30679(9) 0.9382(4) 1.0685(2)
H31 H 0.317174 1.014127 1.012068
C23 C 0.30143(8) 0.9960(3) 1.1880(2)
H32 H 0.307828 1.111222 1.210640
C24 C 0.28649(8) 0.8856(4) 1.2775(2)
C25 C 0.41545(8) 0.2263(4) 0.1418(2)
C26 C 0.45441(9) 0.1523(4) 0.0979(2)
H33 H 0.475660 0.244617 0.104764
C27 C 0.47169(10) 0.0047(5) 0.1877(3)
H34 H 0.451372 -0.087609 0.182228
H35 H 0.477460 0.047166 0.274859
H36 H 0.497155 -0.038622 0.162749
O9 O 0.28834(6) 0.2539(3) 0.52513(19)
H37 H 0.266577 0.287962 0.554372
H38 H 0.282254 0.165311 0.477158
loop_
_geom_bond_atom_site_label_1
_geom_bond_atom_site_label_2
_geom_bond_site_symmetry_1
_geom_bond_site_symmetry_2
O1 C3 1_555 1_555
O2 H1 1_555 1_555
O3 C12 1_555 1_555
O4 H2 1_555 1_555
O5 C21 1_555 1_555
O6 C24 1_555 1_555
O7 C25 1_555 1_555
O8 H3 1_555 1_555
C1 H4 1_555 1_555
H5 C1 1_555 1_555
C2 C1 1_555 1_555
H6 C2 1_555 1_555
H7 C2 1_555 1_555
C3 C2 1_555 1_555
H8 C3 1_555 1_555
C4 C3 1_555 1_555
H9 C4 1_555 1_555
H10 C4 1_555 1_555
C5 C4 1_555 1_555
H11 C5 1_555 1_555
C6 C5 1_555 1_555
H12 C6 1_555 1_555
H13 C6 1_555 1_555
C7 C6 1_555 1_555
H14 C7 1_555 1_555
H15 C7 1_555 1_555
C8 C7 1_555 1_555
H16 C8 1_555 1_555
C9 C8 1_555 1_555
H17 C9 1_555 1_555
C10 C1 1_555 1_555
C11 O2 1_555 1_555
H18 C11 1_555 1_555
C12 C11 1_555 1_555
C13 C12 1_555 1_555
C14 O4 1_555 1_555
C15 C14 1_555 1_555
H19 C15 1_555 1_555
H20 C15 1_555 1_555
C16 C15 1_555 1_555
H21 C16 1_555 1_555
H22 C16 1_555 1_555
C17 C13 1_555 1_555
H23 C17 1_555 1_555
C18 C13 1_555 1_555
H24 C18 1_555 1_555
H25 C18 1_555 1_555
H26 C18 1_555 1_555
C19 C10 1_555 1_555
H27 C19 1_555 1_555
H28 C19 1_555 1_555
H29 C19 1_555 1_555
C20 C17 1_555 1_555
C21 C20 1_555 1_555
H30 C21 1_555 1_555
C22 C20 1_555 1_555
H31 C22 1_555 1_555
C23 C22 1_555 1_555
H32 C23 1_555 1_555
C24 O5 1_555 1_555
C25 O1 1_555 1_555
C26 O8 1_555 1_555
H33 C26 1_555 1_555
C27 C26 1_555 1_555
H34 C27 1_555 1_555
H35 C27 1_555 1_555
H36 C27 1_555 1_555
O9 H37 1_555 1_555
H38 O9 1_555 1_555
C5 C10 1_555 1_555
C8 C14 1_555 1_555
C9 C10 1_555 1_555
C9 C11 1_555 1_555
C13 C14 1_555 1_555
C16 C17 1_555 1_555
C23 C24 1_555 1_555
C25 C26 1_555 1_555

#END
