
#######################################################################
#
#                 Cambridge Crystallographic Data Centre
#                                CCDC 
#
#######################################################################
#
# If this CIF has been generated from an entry in the Cambridge 
# Structural Database, then it will include bibliographic, chemical, 
# crystal, experimental, refinement or atomic coordinate data resulting 
# from the CCDC's data processing and validation procedures.
#
#######################################################################

data_PAYXAP
_chemical_formula_moiety         'C29 H26 O3 S1'
_chemical_name_systematic        
(Z)-1,3-Diphenyl-3-(p-methylphenyl)-2-(p-tolylsulfonyl)-2-propen-1-ol
_symmetry_cell_setting           monoclinic
_symmetry_space_group_name_H-M   'P 21/c'
_symmetry_Int_Tables_number      14
_space_group_name_Hall           '-P 2ybc'
loop_
_symmetry_equiv_pos_site_id
_symmetry_equiv_pos_as_xyz
1 x,y,z
2 -x,1/2+y,1/2-z
3 -x,-y,-z
4 x,1/2-y,1/2+z
_cell_length_a                   9.8531(8)
_cell_length_b                   11.7969(9)
_cell_length_c                   21.1412(17)
_cell_angle_alpha                90
_cell_angle_beta                 95.279(2)
_cell_angle_gamma                90
_cell_volume                     2446.95
_chemical_melting_point          '173 deg.C'
_cell_formula_units_Z            4
loop_
_atom_site_label
_atom_site_type_symbol
_atom_site_fract_x
_atom_site_fract_y
_atom_site_fract_z
S1 S 0.16089(17) 0.17590(15) 0.04764(7)
O1 O 0.0619(4) 0.1221(4) 0.00286(18)
O2 O 0.2228(5) 0.2773(4) 0.0279(2)
O3 O -0.1234(4) 0.0724(4) 0.0907(2)
H1 H -0.0850 0.0519 0.0599
C1 C 0.2883(6) 0.0764(6) 0.0694(3)
C2 C 0.4223(7) 0.1025(8) 0.0668(4)
H2 H 0.4469 0.1740 0.0533
C3 C 0.5217(8) 0.0231(11) 0.0842(4)
H3 H 0.6129 0.0419 0.0825
C4 C 0.4880(8) -0.0820(10) 0.1038(4)
C5 C 0.3538(8) -0.1060(8) 0.1064(4)
H4 H 0.3295 -0.1771 0.1207
C6 C 0.2535(7) -0.0299(7) 0.0889(3)
H5 H 0.1624 -0.0497 0.0902
C7 C 0.5989(9) -0.1694(12) 0.1200(5)
H6 H 0.5585 -0.2386 0.1331
H7 H 0.6616 -0.1413 0.1538
H8 H 0.6467 -0.1836 0.0832
C8 C 0.0755(6) 0.1955(5) 0.1184(3)
C9 C 0.1460(6) 0.2120(5) 0.1752(3)
C10 C -0.0791(6) 0.1825(5) 0.1089(3)
H9 H -0.1103 0.1939 0.1511
C11 C -0.1475(6) 0.2756(6) 0.0680(3)
C12 C -0.1031(10) 0.3832(8) 0.0726(6)
H10 H -0.0235 0.3988 0.0982
C13 C -0.1716(11) 0.4721(9) 0.0404(7)
H11 H -0.1350 0.5447 0.0433
C14 C -0.2896(10) 0.4539(8) 0.0054(5)
H12 H -0.3367 0.5130 -0.0159
C15 C -0.3371(11) 0.3488(10) 0.0021(7)
H13 H -0.4206 0.3343 -0.0207
C16 C -0.2646(8) 0.2601(7) 0.0321(5)
H14 H -0.2990 0.1869 0.0269
C17 C 0.2928(7) 0.2444(6) 0.1844(3)
C18 C 0.3834(7) 0.1757(7) 0.2211(3)
H15 H 0.3533 0.1092 0.2388
C19 C 0.5207(9) 0.2080(9) 0.2312(4)
H16 H 0.5829 0.1605 0.2539
C20 C 0.5643(8) 0.3094(9) 0.2078(4)
C21 C 0.4730(9) 0.3756(8) 0.1721(4)
H17 H 0.5022 0.4434 0.1555
C22 C 0.3391(8) 0.3440(6) 0.1603(3)
H18 H 0.2789 0.3905 0.1358
C23 C 0.7100(10) 0.3473(12) 0.2231(6)
H19 H 0.7233 0.4191 0.2033
H20 H 0.7705 0.2922 0.2076
H21 H 0.7288 0.3547 0.2683
C24 C 0.0789(7) 0.2028(6) 0.2354(3)
C25 C 0.0080(9) 0.1072(8) 0.2489(4)
H22 H -0.0009 0.0488 0.2192
C26 C -0.0508(10) 0.0954(9) 0.3057(4)
H23 H -0.0999 0.0302 0.3133
C27 C -0.0372(9) 0.1781(10) 0.3500(4)
H24 H -0.0754 0.1696 0.3883
C28 C 0.0343(8) 0.2758(9) 0.3378(3)
H25 H 0.0433 0.3336 0.3679
C29 C 0.0926(7) 0.2874(7) 0.2808(3)
H26 H 0.1413 0.3528 0.2730
loop_
_geom_bond_atom_site_label_1
_geom_bond_atom_site_label_2
_geom_bond_site_symmetry_1
_geom_bond_site_symmetry_2
S1 O1 1_555 1_555
O2 S1 1_555 1_555
O3 H1 1_555 1_555
C1 S1 1_555 1_555
C2 C1 1_555 1_555
H2 C2 1_555 1_555
C3 C2 1_555 1_555
H3 C3 1_555 1_555
C4 C3 1_555 1_555
C5 C4 1_555 1_555
H4 C5 1_555 1_555
C6 C1 1_555 1_555
H5 C6 1_555 1_555
C7 C4 1_555 1_555
H6 C7 1_555 1_555
H7 C7 1_555 1_555
H8 C7 1_555 1_555
C8 S1 1_555 1_555
C9 C8 1_555 1_555
C10 O3 1_555 1_555
H9 C10 1_555 1_555
C11 C10 1_555 1_555
C12 C11 1_555 1_555
H10 C12 1_555 1_555
C13 C12 1_555 1_555
H11 C13 1_555 1_555
C14 C13 1_555 1_555
H12 C14 1_555 1_555
C15 C14 1_555 1_555
H13 C15 1_555 1_555
C16 C11 1_555 1_555
H14 C16 1_555 1_555
C17 C9 1_555 1_555
C18 C17 1_555 1_555
H15 C18 1_555 1_555
C19 C18 1_555 1_555
H16 C19 1_555 1_555
C20 C19 1_555 1_555
C21 C20 1_555 1_555
H17 C21 1_555 1_555
C22 C17 1_555 1_555
H18 C22 1_555 1_555
C23 C20 1_555 1_555
H19 C23 1_555 1_555
H20 C23 1_555 1_555
H21 C23 1_555 1_555
C24 C9 1_555 1_555
C25 C24 1_555 1_555
H22 C25 1_555 1_555
C26 C25 1_555 1_555
H23 C26 1_555 1_555
C27 C26 1_555 1_555
H24 C27 1_555 1_555
C28 C27 1_555 1_555
H25 C28 1_555 1_555
C29 C24 1_555 1_555
H26 C29 1_555 1_555
C5 C6 1_555 1_555
C8 C10 1_555 1_555
C15 C16 1_555 1_555
C21 C22 1_555 1_555
C28 C29 1_555 1_555

#END
