
#######################################################################
#
#                 Cambridge Crystallographic Data Centre
#                                CCDC 
#
#######################################################################
#
# If this CIF has been generated from an entry in the Cambridge 
# Structural Database, then it will include bibliographic, chemical, 
# crystal, experimental, refinement or atomic coordinate data resulting 
# from the CCDC's data processing and validation procedures.
#
#######################################################################

data_PAYZAQ
_chemical_formula_moiety         'C24 H36 O5,C3 H6 O1'
_chemical_name_systematic        
'17\a-Hydroxy-21-acetoxy-16\a-methylallopregnan-3,20-dione acetone solvate'
_symmetry_cell_setting           monoclinic
_symmetry_space_group_name_H-M   'P 21'
_symmetry_Int_Tables_number      4
_space_group_name_Hall           'P 2yb'
loop_
_symmetry_equiv_pos_site_id
_symmetry_equiv_pos_as_xyz
1 x,y,z
2 -x,1/2+y,-z
_cell_length_a                   9.774(2)
_cell_length_b                   7.926(2)
_cell_length_c                   16.982(2)
_cell_angle_alpha                90
_cell_angle_beta                 100.54(1)
_cell_angle_gamma                90
_cell_volume                     1293.38
_exptl_crystal_description       rectangular
_chemical_melting_point          474-476K
_cell_formula_units_Z            2
_exptl_crystal_recrystallization_method acetone/benzene
loop_
_atom_site_label
_atom_site_type_symbol
_atom_site_fract_x
_atom_site_fract_y
_atom_site_fract_z
C1 C 0.2893(5) 0.1574(5) 0.6448(2)
C2 C 0.2706(6) 0.1435(6) 0.7329(3)
C3 C 0.3255(4) -0.0179(7) 0.7727(2)
O1 O 0.3831(5) -0.0207(6) 0.8411(2)
C4 C 0.2989(5) -0.1755(6) 0.7236(3)
C5 C 0.3211(4) -0.1527(5) 0.6368(2)
C6 C 0.2917(5) -0.3161(5) 0.5897(3)
C7 C 0.3226(5) -0.2980(5) 0.5057(2)
C8 C 0.2455(3) -0.1494(4) 0.4612(2)
C9 C 0.2794(3) 0.0146(4) 0.5099(2)
C10 C 0.2397(3) 0.0004(4) 0.5944(2)
C11 C 0.2171(5) 0.1713(5) 0.4631(2)
C12 C 0.2474(5) 0.1837(5) 0.3778(2)
C13 C 0.2041(4) 0.0216(4) 0.3309(2)
C14 C 0.2810(4) -0.1272(4) 0.3783(2)
C15 C 0.2577(5) -0.2746(5) 0.3192(2)
C16 C 0.2391(4) -0.1936(5) 0.2347(2)
C17 C 0.2560(3) -0.0005(5) 0.2503(2)
O2 O 0.3983(2) 0.0511(4) 0.2638(2)
C18 C 0.0449(4) 0.0021(6) 0.3171(2)
C19 C 0.0831(4) -0.0181(6) 0.5893(2)
C20 C 0.1751(4) 0.1046(6) 0.1819(2)
O3 O 0.0726(3) 0.0531(5) 0.1380(2)
C21 C 0.2320(5) 0.2793(6) 0.1712(3)
O4 O 0.1402(3) 0.3724(4) 0.1117(2)
C22 C 0.0282(5) 0.4388(6) 0.1348(2)
O5 O 0.0063(3) 0.4237(5) 0.2007(2)
C23 C -0.0598(12) 0.5327(12) 0.0693(7)
C24 C 0.3335(7) -0.2626(7) 0.1815(4)
C25 C 0.5890(5) 0.0813(7) 1.0804(2)
O6 O 0.5346(5) 0.0306(6) 1.1315(2)
C26 C 0.7383(11) 0.0508(17) 1.0823(7)
C27 C 0.5115(10) 0.1859(14) 1.0143(5)
loop_
_geom_bond_atom_site_label_1
_geom_bond_atom_site_label_2
_geom_bond_site_symmetry_1
_geom_bond_site_symmetry_2
C1 C2 1_555 1_555
C2 C3 1_555 1_555
C3 O1 1_555 1_555
C4 C3 1_555 1_555
C5 C4 1_555 1_555
C6 C5 1_555 1_555
C7 C6 1_555 1_555
C8 C7 1_555 1_555
C9 C8 1_555 1_555
C10 C1 1_555 1_555
C11 C9 1_555 1_555
C12 C11 1_555 1_555
C13 C12 1_555 1_555
C14 C8 1_555 1_555
C15 C14 1_555 1_555
C16 C15 1_555 1_555
C17 C13 1_555 1_555
O2 C17 1_555 1_555
C18 C13 1_555 1_555
C19 C10 1_555 1_555
C20 C17 1_555 1_555
O3 C20 1_555 1_555
C21 C20 1_555 1_555
O4 C21 1_555 1_555
C22 O4 1_555 1_555
O5 C22 1_555 1_555
C23 C22 1_555 1_555
C24 C16 1_555 1_555
C25 O6 1_555 1_555
C26 C25 1_555 1_555
C27 C25 1_555 1_555
C5 C10 1_555 1_555
C9 C10 1_555 1_555
C13 C14 1_555 1_555
C16 C17 1_555 1_555

#END
