
#######################################################################
#
#                 Cambridge Crystallographic Data Centre
#                                CCDC 
#
#######################################################################
#
# If this CIF has been generated from an entry in the Cambridge 
# Structural Database, then it will include bibliographic, chemical, 
# crystal, experimental, refinement or atomic coordinate data resulting 
# from the CCDC's data processing and validation procedures.
#
#######################################################################

data_PAZCID
_chemical_formula_moiety         'C14 H10 Cl2 N2 O1'
_chemical_name_systematic        N'-(2,4-Dichlorobenzylidene)benzohydrazide
_symmetry_cell_setting           monoclinic
_symmetry_space_group_name_H-M   'P 21/n'
_symmetry_Int_Tables_number      14
_space_group_name_Hall           '-P 2yn'
loop_
_symmetry_equiv_pos_site_id
_symmetry_equiv_pos_as_xyz
1 x,y,z
2 1/2-x,1/2+y,1/2-z
3 -x,-y,-z
4 1/2+x,1/2-y,1/2+z
_cell_length_a                   10.5668(9)
_cell_length_b                   17.8266(15)
_cell_length_c                   14.9814(13)
_cell_angle_alpha                90
_cell_angle_beta                 104.7340(10)
_cell_angle_gamma                90
_cell_volume                     2729.25
_exptl_crystal_colour            colorless
_exptl_crystal_description       prism
_cell_formula_units_Z            8
_exptl_crystal_recrystallization_method ethanol
loop_
_atom_site_label
_atom_site_type_symbol
_atom_site_fract_x
_atom_site_fract_y
_atom_site_fract_z
Cl1 Cl 1.38504(5) 0.20983(4) 0.41584(5)
Cl2 Cl 0.88475(7) 0.24961(5) 0.23264(5)
O1 O 0.70797(13) 0.33515(8) 0.63408(10)
N1 N 0.68266(15) 0.33785(9) 0.48053(12)
H1 H 0.6392(19) 0.3479(11) 0.4253(15)
N2 N 0.80913(14) 0.31298(9) 0.48992(11)
C1 C 0.64115(17) 0.35188(10) 0.55666(14)
C2 C 0.51155(17) 0.38950(10) 0.54260(14)
C3 C 0.4711(2) 0.40801(12) 0.62038(16)
H3 H 0.5227 0.3952 0.6785
C4 C 0.3543(2) 0.44560(14) 0.61236(19)
H4 H 0.3275 0.4579 0.6651
C5 C 0.2771(2) 0.46493(14) 0.5265(2)
H5 H 0.1988 0.4904 0.5213
C6 C 0.3163(2) 0.44647(14) 0.44916(18)
H6 H 0.2639 0.4589 0.3912
C7 C 0.43314(19) 0.40946(12) 0.45667(15)
H7 H 0.4597 0.3978 0.4037
C8 C 0.84056(18) 0.30186(11) 0.41445(14)
H8 H 0.7782 0.3079 0.3586
C9 C 0.97392(18) 0.27966(10) 0.41474(13)
C10 C 1.0059(2) 0.25464(12) 0.33544(14)
C11 C 1.1309(2) 0.23305(12) 0.33454(15)
H9 H 1.1492 0.2156 0.2807
C12 C 1.22741(18) 0.23794(11) 0.41503(14)
C13 C 1.20168(19) 0.26447(13) 0.49479(15)
H10 H 1.2685 0.2685 0.5486
C14 C 1.07595(19) 0.28488(12) 0.49397(14)
H11 H 1.0587 0.3027 0.5480
Cl3 Cl 0.88072(9) -0.08510(4) 0.45449(7)
Cl4 Cl 0.51961(7) -0.01465(4) 0.14726(5)
O2 O 0.55680(13) 0.36003(8) 0.27861(10)
N3 N 0.44711(16) 0.26070(10) 0.20264(12)
H2 H 0.376(2) 0.2422(12) 0.1660(15)
N4 N 0.54188(15) 0.21222(9) 0.25064(11)
C15 C 0.45857(18) 0.33424(11) 0.22545(13)
C16 C 0.34305(19) 0.38301(12) 0.18442(14)
C17 C 0.2187(2) 0.35618(13) 0.14593(17)
H12 H 0.2039 0.3047 0.1411
C18 C 0.1156(2) 0.40550(16) 0.1144(2)
H13 H 0.0323 0.3869 0.0879
C19 C 0.1356(3) 0.48106(16) 0.12205(19)
H14 H 0.0659 0.5140 0.1016
C20 C 0.2584(3) 0.50810(15) 0.1598(2)
H15 H 0.2722 0.5596 0.1647
C21 C 0.3621(2) 0.45974(13) 0.19068(18)
H16 H 0.4454 0.4789 0.2159
C22 C 0.52433(18) 0.14344(12) 0.22914(14)
H17 H 0.4552 0.1287 0.1803
C23 C 0.61434(18) 0.08768(11) 0.28220(14)
C24 C 0.61889(19) 0.01409(12) 0.25238(16)
C25 C 0.7017(2) -0.03884(12) 0.30430(19)
H18 H 0.7037 -0.0876 0.2828
C26 C 0.7808(2) -0.01794(13) 0.38806(19)
C27 C 0.7791(2) 0.05413(14) 0.42114(18)
H19 H 0.8326 0.0675 0.4784
C28 C 0.6965(2) 0.10597(12) 0.36779(16)
H20 H 0.6957 0.1547 0.3897
loop_
_geom_bond_atom_site_label_1
_geom_bond_atom_site_label_2
_geom_bond_site_symmetry_1
_geom_bond_site_symmetry_2
Cl1 C12 1_555 1_555
Cl2 C10 1_555 1_555
Cl3 C26 1_555 1_555
Cl4 C24 1_555 1_555
O1 C1 1_555 1_555
O2 C15 1_555 1_555
N1 H1 1_555 1_555
N2 N1 1_555 1_555
N3 H2 1_555 1_555
N4 N3 1_555 1_555
C1 N1 1_555 1_555
C2 C1 1_555 1_555
C3 C2 1_555 1_555
H3 C3 1_555 1_555
C4 C3 1_555 1_555
H4 C4 1_555 1_555
C5 C4 1_555 1_555
H5 C5 1_555 1_555
C6 C5 1_555 1_555
H6 C6 1_555 1_555
C7 C2 1_555 1_555
H7 C7 1_555 1_555
C8 N2 1_555 1_555
H8 C8 1_555 1_555
C9 C8 1_555 1_555
C10 C9 1_555 1_555
C11 C10 1_555 1_555
H9 C11 1_555 1_555
C12 C11 1_555 1_555
C13 C12 1_555 1_555
H10 C13 1_555 1_555
C14 C9 1_555 1_555
H11 C14 1_555 1_555
C15 N3 1_555 1_555
C16 C15 1_555 1_555
C17 C16 1_555 1_555
H12 C17 1_555 1_555
C18 C17 1_555 1_555
H13 C18 1_555 1_555
C19 C18 1_555 1_555
H14 C19 1_555 1_555
C20 C19 1_555 1_555
H15 C20 1_555 1_555
C21 C16 1_555 1_555
H16 C21 1_555 1_555
C22 N4 1_555 1_555
H17 C22 1_555 1_555
C23 C22 1_555 1_555
C24 C23 1_555 1_555
C25 C24 1_555 1_555
H18 C25 1_555 1_555
C26 C25 1_555 1_555
C27 C26 1_555 1_555
H19 C27 1_555 1_555
C28 C23 1_555 1_555
H20 C28 1_555 1_555
C6 C7 1_555 1_555
C13 C14 1_555 1_555
C20 C21 1_555 1_555
C27 C28 1_555 1_555

#END
