
#######################################################################
#
#                 Cambridge Crystallographic Data Centre
#                                CCDC 
#
#######################################################################
#
# If this CIF has been generated from an entry in the Cambridge 
# Structural Database, then it will include bibliographic, chemical, 
# crystal, experimental, refinement or atomic coordinate data resulting 
# from the CCDC's data processing and validation procedures.
#
#######################################################################

data_PAZDUR
_chemical_formula_moiety         
'C48 H48 N32 O16,2(C12 H13 N4 1+),2(Cl1 1-),14(H2 O1)'
_chemical_name_systematic        
'Cucurbit[8]uril bis(2,4-diaminoazobenzene) clathrate bis(hydrogenchloride) tetradecahydrate'
_symmetry_cell_setting           monoclinic
_symmetry_space_group_name_H-M   'P 21/c'
_symmetry_Int_Tables_number      14
_space_group_name_Hall           '-P 2ybc'
loop_
_symmetry_equiv_pos_site_id
_symmetry_equiv_pos_as_xyz
1 x,y,z
2 -x,1/2+y,1/2-z
3 -x,-y,-z
4 x,1/2-y,1/2+z
_cell_length_a                   14.471(7)
_cell_length_b                   22.919(11)
_cell_length_c                   16.135(8)
_cell_angle_alpha                90
_cell_angle_beta                 105.023(7)
_cell_angle_gamma                90
_cell_volume                     5168.45
_cell_formula_units_Z            2
loop_
_atom_site_label
_atom_site_type_symbol
_atom_site_fract_x
_atom_site_fract_y
_atom_site_fract_z
Cl1 Cl -0.0155(3) 0.3436(2) 0.0413(3)
O1 O 0.4229(3) 0.62546(19) 0.2589(3)
O2 O 0.8549(3) 0.48799(19) 1.3149(3)
O3 O 0.2737(3) 0.5913(2) 0.7966(2)
O4 O 0.7810(4) 0.5946(2) 1.3763(3)
O5 O 0.6071(3) 0.85387(19) 0.8629(3)
O6 O -0.1166(5) 0.3392(4) 0.1836(5)
O7 O 0.2046(7) 0.8871(5) 0.5316(5)
C1 C 0.6896(4) 0.6251(3) 0.8008(4)
C2 C 0.8186(4) 0.6559(2) 0.7516(4)
H1 H 0.8791 0.6685 0.7905
C3 C 0.7429(4) 0.7043(2) 0.7365(3)
H2 H 0.7673 0.7396 0.7690
C4 C 0.7760(4) 0.6810(2) 0.6069(4)
C5 C 0.5932(4) 0.7143(3) 0.7876(3)
H3 H 0.5691 0.6938 0.8303
H4 H 0.6226 0.7502 0.8136
C6 C 0.6680(4) 0.7644(2) 0.6044(4)
H5 H 0.6894 0.7985 0.6399
H6 H 0.6822 0.7710 0.5496
C7 C 0.4232(4) 0.7049(2) 0.7040(4)
C8 C 0.5169(4) 0.7751(3) 0.6554(3)
H7 H 0.5407 0.8119 0.6842
C9 C 0.4103(4) 0.7796(2) 0.6020(3)
H8 H 0.3826 0.8177 0.6093
C10 C 0.5075(4) 0.7576(2) 0.5095(4)
C11 C 0.2609(4) 0.7272(3) 0.6181(3)
H9 H 0.2455 0.7066 0.6653
H10 H 0.2330 0.7659 0.6154
C12 C 0.3386(4) 0.7809(2) 0.4406(3)
H11 H 0.3644 0.7886 0.3919
H12 H 0.3047 0.8156 0.4505
C13 C 0.1699(4) 0.6450(2) 0.5397(4)
C14 C 0.1926(4) 0.7251(2) 0.4592(3)
H13 H 0.1584 0.7618 0.4613
C15 C 0.1279(4) 0.6802(2) 0.3988(3)
H14 H 0.0641 0.6961 0.3726
C16 C 0.2581(4) 0.7032(2) 0.3449(3)
C17 C 0.0534(4) 0.5873(2) 0.4337(4)
H15 H -0.0067 0.6045 0.4022
H16 H 0.0437 0.5706 0.4860
C18 C 0.1369(4) 0.6385(2) 0.2553(3)
H17 H 0.1722 0.6490 0.2140
H18 H 0.0718 0.6524 0.2335
C19 C 0.0946(4) 0.4858(3) 0.4115(4)
C20 C 0.0617(4) 0.5451(2) 0.2909(3)
H19 H -0.0021 0.5606 0.2640
C21 C 0.0724(4) 0.4815(2) 0.2640(3)
H20 H 0.0132 0.4670 0.2250
C22 C 0.1840(4) 0.5398(3) 0.2214(3)
C23 C 0.0878(4) 0.3874(2) 0.3484(4)
H21 H 0.0310 0.3746 0.3057
H22 H 0.0799 0.3770 0.4044
C24 C 0.1695(4) 0.4391(2) 0.1658(3)
H23 H 0.2042 0.4560 0.1276
H24 H 0.1092 0.4243 0.1307
N1 N 0.7753(3) 0.6092(2) 0.7876(3)
N2 N 0.6660(3) 0.67850(18) 0.7650(3)
N3 N 0.8287(3) 0.6437(2) 0.6656(3)
N4 N 0.7217(3) 0.7141(2) 0.6452(3)
N5 N 0.5131(3) 0.7289(2) 0.7156(3)
N6 N 0.3636(3) 0.73290(19) 0.6358(3)
N7 N 0.5662(3) 0.7590(2) 0.5904(3)
N8 N 0.4162(3) 0.77082(19) 0.5143(3)
N9 N 0.2184(3) 0.69741(19) 0.5410(3)
N10 N 0.1243(3) 0.63237(19) 0.4557(3)
N11 N 0.2714(3) 0.73355(19) 0.4190(3)
N12 N 0.1793(3) 0.66721(19) 0.3351(3)
N13 N 0.0788(3) 0.5413(2) 0.3825(3)
N14 N 0.0957(3) 0.44987(19) 0.3435(3)
N15 N 0.1354(3) 0.57592(19) 0.2625(3)
N16 N 0.1503(3) 0.4843(2) 0.2219(3)
O8 O 0.6412(3) 0.59412(16) 0.8365(2)
O9 O 0.4026(3) 0.66624(16) 0.7473(2)
O10 O 0.1700(3) 0.61570(17) 0.6025(2)
O11 O 0.1077(3) 0.46946(17) 0.4866(2)
O12 O 0.7781(3) 0.68452(18) 0.5308(2)
O13 O 0.5319(3) 0.74796(18) 0.4437(2)
O14 O 0.3080(3) 0.70700(16) 0.2929(2)
O15 O 0.2482(3) 0.55471(17) 0.1882(3)
C1B C 0.3104(4) 0.3749(3) 0.1992(4)
C2B C 0.1814(4) 0.3441(2) 0.2484(4)
H1B H 0.1209 0.3315 0.2095
C3B C 0.2571(4) 0.2957(2) 0.2635(3)
H2B H 0.2327 0.2604 0.2310
C4B C 0.2240(4) 0.3190(2) 0.3931(4)
C5B C 0.4068(4) 0.2857(3) 0.2124(3)
H3B H 0.4309 0.3062 0.1697
H4B H 0.3774 0.2498 0.1864
C6B C 0.3320(4) 0.2356(2) 0.3956(4)
H5B H 0.3106 0.2015 0.3601
H6B H 0.3178 0.2290 0.4504
C7B C 0.5768(4) 0.2951(2) 0.2960(4)
C8B C 0.4831(4) 0.2249(3) 0.3446(3)
H7B H 0.4593 0.1881 0.3158
C9B C 0.5897(4) 0.2204(2) 0.3980(3)
H8B H 0.6174 0.1823 0.3907
C10B C 0.4925(4) 0.2424(2) 0.4905(4)
C11B C 0.7391(4) 0.2728(3) 0.3819(3)
H9B H 0.7545 0.2934 0.3347
H10B H 0.7670 0.2341 0.3846
C12B C 0.6614(4) 0.2191(2) 0.5594(3)
H11B H 0.6356 0.2114 0.6081
H12B H 0.6953 0.1844 0.5495
C13B C 0.8301(4) 0.3550(2) 0.4603(4)
C14B C 0.8074(4) 0.2749(2) 0.5408(3)
H13B H 0.8416 0.2382 0.5387
C15B C 0.8721(4) 0.3198(2) 0.6012(3)
H14B H 0.9359 0.3039 0.6274
C16B C 0.7419(4) 0.2968(2) 0.6551(3)
C17B C 0.9466(4) 0.4127(2) 0.5663(4)
H15B H 1.0067 0.3955 0.5978
H16B H 0.9563 0.4294 0.5140
C18B C 0.8631(4) 0.3615(2) 0.7447(3)
H17B H 0.8278 0.3510 0.7860
H18B H 0.9282 0.3476 0.7665
C19B C 0.9054(4) 0.5142(3) 0.5885(4)
C20B C 0.9383(4) 0.4549(2) 0.7091(3)
H19B H 1.0021 0.4394 0.7360
C21B C 0.9276(4) 0.5185(2) 0.7360(3)
H20B H 0.9868 0.5330 0.7750
C22B C 0.8160(4) 0.4602(3) 0.7786(3)
C23B C 0.9122(4) 0.6126(2) 0.6516(4)
H21B H 0.9690 0.6254 0.6943
H22B H 0.9201 0.6230 0.5956
C24B C 0.8305(4) 0.5609(2) 0.8342(3)
H23B H 0.7958 0.5440 0.8724
H24B H 0.8908 0.5757 0.8693
N1B N 0.2247(3) 0.3908(2) 0.2124(3)
N2B N 0.3340(3) 0.32150(18) 0.2350(3)
N3B N 0.1713(3) 0.3563(2) 0.3344(3)
N4B N 0.2783(3) 0.2859(2) 0.3548(3)
N5B N 0.4869(3) 0.2711(2) 0.2844(3)
N6B N 0.6364(3) 0.26710(19) 0.3642(3)
N7B N 0.4338(3) 0.2410(2) 0.4096(3)
N8B N 0.5838(3) 0.22918(19) 0.4857(3)
N9B N 0.7816(3) 0.30259(19) 0.4590(3)
N10B N 0.8757(3) 0.36763(19) 0.5443(3)
N11B N 0.7286(3) 0.26645(19) 0.5810(3)
N12B N 0.8207(3) 0.33279(19) 0.6649(3)
N13B N 0.9212(3) 0.4587(2) 0.6175(3)
N14B N 0.9043(3) 0.55013(19) 0.6565(3)
N15B N 0.8646(3) 0.42408(19) 0.7375(3)
N16B N 0.8497(3) 0.5157(2) 0.7781(3)
O8B O 0.3588(3) 0.40588(16) 0.1635(2)
O9B O 0.5974(3) 0.33376(16) 0.2527(2)
O10B O 0.8300(3) 0.38430(17) 0.3975(2)
O11B O 0.8923(3) 0.53054(17) 0.5134(2)
O12B O 0.2219(3) 0.31548(18) 0.4692(2)
O13B O 0.4681(3) 0.25204(18) 0.5563(2)
O14B O 0.6920(3) 0.29300(16) 0.7071(2)
O15B O 0.7518(3) 0.44529(17) 0.8118(3)
N17 N 0.5013(4) 0.4883(2) 1.2694(3)
H25 H 0.4437 0.4832 1.2387
N18 N 0.5607(4) 0.5176(2) 1.2379(3)
N19 N 0.6917(4) 0.5722(2) 1.1779(4)
H26 H 0.7369 0.5881 1.1602
H27 H 0.7027 0.5596 1.2298
N20 N 0.4700(4) 0.5972(2) 0.9079(3)
H28 H 0.5130 0.6110 0.8851
H29 H 0.4120 0.5935 0.8774
C25 C 0.6199(6) 0.4674(3) 1.4023(4)
H30 H 0.6665 0.4862 1.3818
C26 C 0.6423(6) 0.4425(4) 1.4829(5)
H31 H 0.7048 0.4446 1.5171
C27 C 0.5728(8) 0.4142(4) 1.5138(5)
H32 H 0.5883 0.3967 1.5676
C28 C 0.4812(7) 0.4130(4) 1.4630(5)
H33 H 0.4333 0.3953 1.4831
C29 C 0.4590(6) 0.4378(3) 1.3823(4)
H34 H 0.3967 0.4365 1.3477
C30 C 0.5291(5) 0.4640(3) 1.3540(4)
C31 C 0.5317(5) 0.5395(2) 1.1589(4)
C32 C 0.6045(4) 0.5671(2) 1.1250(4)
C33 C 0.5832(5) 0.5864(2) 1.0421(4)
H35 H 0.6310 0.6030 1.0208
C34 C 0.4934(5) 0.5816(2) 0.9904(4)
C35 C 0.4167(5) 0.5587(2) 1.0225(4)
H36 H 0.3542 0.5586 0.9883
C36 C 0.4374(4) 0.5373(3) 1.1038(4)
H37 H 0.3887 0.5207 1.1239
loop_
_geom_bond_atom_site_label_1
_geom_bond_atom_site_label_2
_geom_bond_site_symmetry_1
_geom_bond_site_symmetry_2
C1 N1 1_555 1_555
C2 H1 1_555 1_555
C3 C2 1_555 1_555
H2 C3 1_555 1_555
C4 N3 1_555 1_555
C5 H3 1_555 1_555
H4 C5 1_555 1_555
C6 H5 1_555 1_555
H6 C6 1_555 1_555
C7 N5 1_555 1_555
C8 H7 1_555 1_555
C9 C8 1_555 1_555
H8 C9 1_555 1_555
C10 N7 1_555 1_555
C11 H9 1_555 1_555
H10 C11 1_555 1_555
C12 H11 1_555 1_555
H12 C12 1_555 1_555
C13 N9 1_555 1_555
C14 H13 1_555 1_555
C15 C14 1_555 1_555
H14 C15 1_555 1_555
C16 N11 1_555 1_555
C17 H15 1_555 1_555
H16 C17 1_555 1_555
C18 H17 1_555 1_555
H18 C18 1_555 1_555
C19 N13 1_555 1_555
C20 H19 1_555 1_555
C21 C20 1_555 1_555
H20 C21 1_555 1_555
C22 N15 1_555 1_555
C23 H21 1_555 1_555
H22 C23 1_555 1_555
C24 H23 1_555 1_555
H24 C24 1_555 1_555
N1 C2 1_555 1_555
N2 C1 1_555 1_555
N3 C2 1_555 1_555
N4 C3 1_555 1_555
N5 C5 1_555 1_555
N6 C7 1_555 1_555
N7 C6 1_555 1_555
N8 C9 1_555 1_555
N9 C11 1_555 1_555
N10 C13 1_555 1_555
N11 C12 1_555 1_555
N12 C15 1_555 1_555
N13 C17 1_555 1_555
N14 C19 1_555 1_555
N15 C18 1_555 1_555
N16 C21 1_555 1_555
O8 C1 1_555 1_555
O9 C7 1_555 1_555
O10 C13 1_555 1_555
O11 C19 1_555 1_555
O12 C4 1_555 1_555
O13 C10 1_555 1_555
O14 C16 1_555 1_555
O15 C22 1_555 1_555
N17 H25 1_555 1_555
N18 N17 1_555 1_555
N19 H26 1_555 1_555
H27 N19 1_555 1_555
N20 H28 1_555 1_555
H29 N20 1_555 1_555
C25 H30 1_555 1_555
C26 C25 1_555 1_555
H31 C26 1_555 1_555
C27 C26 1_555 1_555
H32 C27 1_555 1_555
C28 C27 1_555 1_555
H33 C28 1_555 1_555
C29 C28 1_555 1_555
H34 C29 1_555 1_555
C30 N17 1_555 1_555
C31 N18 1_555 1_555
C32 N19 1_555 1_555
C33 C32 1_555 1_555
H35 C33 1_555 1_555
C34 N20 1_555 1_555
C35 C34 1_555 1_555
H36 C35 1_555 1_555
C36 C31 1_555 1_555
H37 C36 1_555 1_555
C1B N1B 1_555 1_555
C2B H1B 1_555 1_555
C3B C2B 1_555 1_555
H2B C3B 1_555 1_555
C4B N3B 1_555 1_555
C5B H3B 1_555 1_555
H4B C5B 1_555 1_555
C6B H5B 1_555 1_555
H6B C6B 1_555 1_555
C7B N5B 1_555 1_555
C8B H7B 1_555 1_555
C9B C8B 1_555 1_555
H8B C9B 1_555 1_555
C10B N7B 1_555 1_555
C11B H9B 1_555 1_555
H10B C11B 1_555 1_555
C12B H11B 1_555 1_555
H12B C12B 1_555 1_555
C13B N9B 1_555 1_555
C14B H13B 1_555 1_555
C15B C14B 1_555 1_555
H14B C15B 1_555 1_555
C16B N11B 1_555 1_555
C17B H15B 1_555 1_555
H16B C17B 1_555 1_555
C18B H17B 1_555 1_555
H18B C18B 1_555 1_555
C19B N13B 1_555 1_555
C20B H19B 1_555 1_555
C21B C20B 1_555 1_555
H20B C21B 1_555 1_555
C22B N15B 1_555 1_555
C23B N3 1_555 1_555
H21B C23B 1_555 1_555
H22B C23B 1_555 1_555
C24B N1 1_555 1_555
H23B C24B 1_555 1_555
H24B C24B 1_555 1_555
N1B C24 1_555 1_555
N2B C1B 1_555 1_555
N3B C23 1_555 1_555
N4B C3B 1_555 1_555
N5B C5B 1_555 1_555
N6B C7B 1_555 1_555
N7B C6B 1_555 1_555
N8B C9B 1_555 1_555
N9B C11B 1_555 1_555
N10B C13B 1_555 1_555
N11B C12B 1_555 1_555
N12B C15B 1_555 1_555
N13B C17B 1_555 1_555
N14B C19B 1_555 1_555
N15B C18B 1_555 1_555
N16B C21B 1_555 1_555
O8B C1B 1_555 1_555
O9B C7B 1_555 1_555
O10B C13B 1_555 1_555
O11B C19B 1_555 1_555
O12B C4B 1_555 1_555
O13B C10B 1_555 1_555
O14B C16B 1_555 1_555
O15B C22B 1_555 1_555
C3 N2 1_555 1_555
C4 N4 1_555 1_555
C5 N2 1_555 1_555
C6 N4 1_555 1_555
C8 N5 1_555 1_555
C8 N7 1_555 1_555
C9 N6 1_555 1_555
C10 N8 1_555 1_555
C11 N6 1_555 1_555
C12 N8 1_555 1_555
C14 N9 1_555 1_555
C14 N11 1_555 1_555
C15 N10 1_555 1_555
C16 N12 1_555 1_555
C17 N10 1_555 1_555
C18 N12 1_555 1_555
C20 N13 1_555 1_555
C20 N15 1_555 1_555
C21 N14 1_555 1_555
C22 N16 1_555 1_555
C23 N14 1_555 1_555
C24 N16 1_555 1_555
C25 C30 1_555 1_555
C29 C30 1_555 1_555
C31 C32 1_555 1_555
C33 C34 1_555 1_555
C35 C36 1_555 1_555
C2B N1B 1_555 1_555
C2B N3B 1_555 1_555
C3B N2B 1_555 1_555
C4B N4B 1_555 1_555
C5B N2B 1_555 1_555
C6B N4B 1_555 1_555
C8B N5B 1_555 1_555
C8B N7B 1_555 1_555
C9B N6B 1_555 1_555
C10B N8B 1_555 1_555
C11B N6B 1_555 1_555
C12B N8B 1_555 1_555
C14B N9B 1_555 1_555
C14B N11B 1_555 1_555
C15B N10B 1_555 1_555
C16B N12B 1_555 1_555
C17B N10B 1_555 1_555
C18B N12B 1_555 1_555
C20B N13B 1_555 1_555
C20B N15B 1_555 1_555
C21B N14B 1_555 1_555
C22B N16B 1_555 1_555
C23B N14B 1_555 1_555
C24B N16B 1_555 1_555

#END
