
#######################################################################
#
#                 Cambridge Crystallographic Data Centre
#                                CCDC 
#
#######################################################################
#
# If this CIF has been generated from an entry in the Cambridge 
# Structural Database, then it will include bibliographic, chemical, 
# crystal, experimental, refinement or atomic coordinate data resulting 
# from the CCDC's data processing and validation procedures.
#
#######################################################################

data_PAZFII
_chemical_formula_moiety         'C18 H36 N2 P2'
_chemical_name_systematic        
1,1'-(diphosphene-1,2-diyl)bis(2,2,6,6-tetramethylpiperidine)
_symmetry_cell_setting           triclinic
_symmetry_space_group_name_H-M   'P -1'
_symmetry_Int_Tables_number      2
_space_group_name_Hall           '-P 1'
loop_
_symmetry_equiv_pos_site_id
_symmetry_equiv_pos_as_xyz
1 x,y,z
2 -x,-y,-z
_cell_length_a                   11.3277(3)
_cell_length_b                   12.3257(3)
_cell_length_c                   15.5274(4)
_cell_angle_alpha                112.5896(6)
_cell_angle_beta                 90.7806(7)
_cell_angle_gamma                92.9221(7)
_cell_volume                     1997.74
_exptl_crystal_colour            'red orange'
_exptl_crystal_description       plate
_cell_formula_units_Z            4
loop_
_atom_site_label
_atom_site_type_symbol
_atom_site_fract_x
_atom_site_fract_y
_atom_site_fract_z
C1 C 0.12200(12) 0.41884(11) 0.22343(9)
C2 C 0.10873(14) 0.55084(12) 0.24981(10)
H1 H 0.0412 0.5750 0.2914
H2 H 0.1808 0.5947 0.2856
C3 C 0.08935(15) 0.58596(13) 0.16821(12)
H3 H 0.0818 0.6720 0.1904
H4 H 0.0159 0.5455 0.1326
C4 C 0.19499(13) 0.55088(12) 0.10698(11)
H5 H 0.2669 0.5948 0.1431
H6 H 0.1844 0.5742 0.0532
C5 C 0.21403(12) 0.41882(11) 0.07033(9)
C6 C 0.00231(12) 0.34924(13) 0.19221(10)
H7 H -0.0349 0.3697 0.1435
H8 H -0.0491 0.3689 0.2457
H9 H 0.0144 0.2647 0.1675
C7 C 0.16625(14) 0.40779(12) 0.31327(9)
H10 H 0.1593 0.3250 0.3055
H11 H 0.1185 0.4541 0.3653
H12 H 0.2493 0.4372 0.3264
C8 C 0.12062(14) 0.34995(14) -0.00633(10)
H13 H 0.1277 0.2653 -0.0237
H14 H 0.1330 0.3696 -0.0611
H15 H 0.0415 0.3709 0.0169
C9 C 0.33472(13) 0.40215(13) 0.02545(10)
H16 H 0.3975 0.4281 0.0744
H17 H 0.3425 0.4489 -0.0132
H18 H 0.3415 0.3188 -0.0136
C10 C 0.24168(12) -0.07528(12) 0.05066(10)
C11 C 0.32824(15) -0.16386(13) -0.00676(11)
H19 H 0.2827 -0.2350 -0.0502
H20 H 0.3739 -0.1291 -0.0448
C12 C 0.41360(15) -0.20015(13) 0.05128(14)
H21 H 0.4684 -0.2559 0.0104
H22 H 0.3698 -0.2396 0.0870
C13 C 0.48237(14) -0.09058(13) 0.11755(13)
H23 H 0.5291 -0.0550 0.0806
H24 H 0.5386 -0.1135 0.1560
C14 C 0.40418(12) 0.00193(12) 0.18232(10)
C15 C 0.18031(18) -0.03158(15) -0.01752(12)
H25 H 0.1137 0.0145 0.0127
H26 H 0.1511 -0.0992 -0.0731
H27 H 0.2368 0.0179 -0.0358
C16 C 0.14760(15) -0.13645(14) 0.08898(14)
H28 H 0.1862 -0.1767 0.1242
H29 H 0.0994 -0.1941 0.0371
H30 H 0.0969 -0.0778 0.1302
C17 C 0.35612(17) -0.03795(15) 0.25880(12)
H31 H 0.2980 0.0165 0.2946
H32 H 0.4216 -0.0381 0.3007
H33 H 0.3183 -0.1175 0.2296
C18 C 0.48237(14) 0.11482(14) 0.23090(12)
H34 H 0.5072 0.1472 0.1849
H35 H 0.5523 0.0971 0.2598
H36 H 0.4377 0.1725 0.2791
N1 N 0.21138(9) 0.37439(9) 0.14912(7)
N2 N 0.30899(9) 0.02706(9) 0.12518(7)
P1 P 0.27799(3) 0.24572(3) 0.12079(2)
P2 P 0.22077(3) 0.14099(3) 0.18980(3)
C19 C 0.73363(13) 1.14794(11) 0.47806(10)
C20 C 0.76170(15) 1.26305(13) 0.46409(12)
H37 H 0.7006 1.2715 0.4212
H38 H 0.7576 1.3300 0.5248
C21 C 0.88242(17) 1.26920(14) 0.42476(14)
H39 H 0.8969 1.3455 0.4182
H40 H 0.9450 1.2617 0.4670
C22 C 0.88381(15) 1.16947(14) 0.33088(13)
H41 H 0.9606 1.1745 0.3026
H42 H 0.8210 1.1791 0.2899
C23 C 0.86525(12) 1.04663(12) 0.33394(10)
C24 C 0.60186(14) 1.14436(13) 0.49856(11)
H43 H 0.5546 1.1301 0.4415
H44 H 0.5831 1.2198 0.5468
H45 H 0.5836 1.0809 0.5205
C25 C 0.80459(16) 1.14766(13) 0.56278(11)
H46 H 0.7911 1.0712 0.5679
H47 H 0.7790 1.2100 0.6195
H48 H 0.8890 1.1616 0.5551
C26 C 0.84088(14) 0.96118(14) 0.23293(10)
H49 H 0.8442 0.8801 0.2290
H50 H 0.9006 0.9762 0.1932
H51 H 0.7622 0.9724 0.2118
C27 C 0.97816(13) 1.01572(14) 0.37270(12)
H52 H 0.9989 1.0762 0.4346
H53 H 1.0430 1.0121 0.3307
H54 H 0.9649 0.9391 0.3776
C28 C 0.61407(12) 0.59008(11) 0.26381(9)
C29 C 0.51550(13) 0.51827(13) 0.28818(10)
H55 H 0.4514 0.5704 0.3176
H56 H 0.4822 0.4558 0.2299
C30 C 0.55701(15) 0.46199(12) 0.35352(10)
H57 H 0.4902 0.4168 0.3672
H58 H 0.6193 0.4073 0.3243
C31 C 0.60543(13) 0.55930(12) 0.44268(9)
H59 H 0.6327 0.5236 0.4862
H60 H 0.5407 0.6103 0.4724
C32 C 0.70809(12) 0.63588(11) 0.42828(9)
C33 C 0.69741(15) 0.50609(12) 0.19533(9)
H61 H 0.7647 0.5519 0.1845
H62 H 0.6543 0.4613 0.1360
H63 H 0.7263 0.4516 0.2219
C34 C 0.55503(14) 0.66095(12) 0.21461(10)
H64 H 0.5077 0.7202 0.2591
H65 H 0.5037 0.6078 0.1627
H66 H 0.6160 0.7001 0.1906
C35 C 0.82123(14) 0.56889(14) 0.41102(11)
H67 H 0.8074 0.4933 0.3581
H68 H 0.8436 0.5549 0.4669
H69 H 0.8851 0.6156 0.3970
C36 C 0.72659(13) 0.74385(12) 0.51983(9)
H70 H 0.8004 0.7880 0.5182
H71 H 0.7310 0.7183 0.5722
H72 H 0.6602 0.7944 0.5277
N3 N 0.76024(9) 1.04176(9) 0.39135(7)
N4 N 0.67588(9) 0.67632(9) 0.35135(7)
P3 P 0.69308(3) 0.91639(3) 0.39196(2)
P4 P 0.78561(3) 0.76827(3) 0.33047(3)
loop_
_geom_bond_atom_site_label_1
_geom_bond_atom_site_label_2
_geom_bond_site_symmetry_1
_geom_bond_site_symmetry_2
C1 C2 1_555 1_555
C2 H1 1_555 1_555
H2 C2 1_555 1_555
C3 C2 1_555 1_555
H3 C3 1_555 1_555
H4 C3 1_555 1_555
C4 C3 1_555 1_555
H5 C4 1_555 1_555
H6 C4 1_555 1_555
C5 C4 1_555 1_555
C6 C1 1_555 1_555
H7 C6 1_555 1_555
H8 C6 1_555 1_555
H9 C6 1_555 1_555
C7 C1 1_555 1_555
H10 C7 1_555 1_555
H11 C7 1_555 1_555
H12 C7 1_555 1_555
C8 C5 1_555 1_555
H13 C8 1_555 1_555
H14 C8 1_555 1_555
H15 C8 1_555 1_555
C9 C5 1_555 1_555
H16 C9 1_555 1_555
H17 C9 1_555 1_555
H18 C9 1_555 1_555
C10 C11 1_555 1_555
C11 H19 1_555 1_555
H20 C11 1_555 1_555
C12 C11 1_555 1_555
H21 C12 1_555 1_555
H22 C12 1_555 1_555
C13 C12 1_555 1_555
H23 C13 1_555 1_555
H24 C13 1_555 1_555
C14 C13 1_555 1_555
C15 C10 1_555 1_555
H25 C15 1_555 1_555
H26 C15 1_555 1_555
H27 C15 1_555 1_555
C16 C10 1_555 1_555
H28 C16 1_555 1_555
H29 C16 1_555 1_555
H30 C16 1_555 1_555
C17 C14 1_555 1_555
H31 C17 1_555 1_555
H32 C17 1_555 1_555
H33 C17 1_555 1_555
C18 C14 1_555 1_555
H34 C18 1_555 1_555
H35 C18 1_555 1_555
H36 C18 1_555 1_555
N1 C1 1_555 1_555
N2 C10 1_555 1_555
P1 N1 1_555 1_555
P2 N2 1_555 1_555
C19 C20 1_555 1_555
C20 H37 1_555 1_555
H38 C20 1_555 1_555
C21 C20 1_555 1_555
H39 C21 1_555 1_555
H40 C21 1_555 1_555
C22 C21 1_555 1_555
H41 C22 1_555 1_555
H42 C22 1_555 1_555
C23 C22 1_555 1_555
C24 C19 1_555 1_555
H43 C24 1_555 1_555
H44 C24 1_555 1_555
H45 C24 1_555 1_555
C25 C19 1_555 1_555
H46 C25 1_555 1_555
H47 C25 1_555 1_555
H48 C25 1_555 1_555
C26 C23 1_555 1_555
H49 C26 1_555 1_555
H50 C26 1_555 1_555
H51 C26 1_555 1_555
C27 C23 1_555 1_555
H52 C27 1_555 1_555
H53 C27 1_555 1_555
H54 C27 1_555 1_555
C28 C29 1_555 1_555
C29 H55 1_555 1_555
H56 C29 1_555 1_555
C30 C29 1_555 1_555
H57 C30 1_555 1_555
H58 C30 1_555 1_555
C31 C30 1_555 1_555
H59 C31 1_555 1_555
H60 C31 1_555 1_555
C32 C31 1_555 1_555
C33 C28 1_555 1_555
H61 C33 1_555 1_555
H62 C33 1_555 1_555
H63 C33 1_555 1_555
C34 C28 1_555 1_555
H64 C34 1_555 1_555
H65 C34 1_555 1_555
H66 C34 1_555 1_555
C35 C32 1_555 1_555
H67 C35 1_555 1_555
H68 C35 1_555 1_555
H69 C35 1_555 1_555
C36 C32 1_555 1_555
H70 C36 1_555 1_555
H71 C36 1_555 1_555
H72 C36 1_555 1_555
N3 C19 1_555 1_555
N4 C28 1_555 1_555
P3 N3 1_555 1_555
P4 N4 1_555 1_555
C5 N1 1_555 1_555
C14 N2 1_555 1_555
P1 P2 1_555 1_555
C23 N3 1_555 1_555
C32 N4 1_555 1_555
P3 P4 1_555 1_555

#END
