
#######################################################################
#
#                 Cambridge Crystallographic Data Centre
#                                CCDC 
#
#######################################################################
#
# If this CIF has been generated from an entry in the Cambridge 
# Structural Database, then it will include bibliographic, chemical, 
# crystal, experimental, refinement or atomic coordinate data resulting 
# from the CCDC's data processing and validation procedures.
#
#######################################################################

data_PAZHAA
_chemical_formula_moiety         'C18 H31 N1 O1'
_chemical_name_systematic        2,6-Di-t-butyl-4-(isopropylaminomethyl)phenol
_symmetry_cell_setting           monoclinic
_symmetry_space_group_name_H-M   'P 21/n'
_symmetry_Int_Tables_number      14
_space_group_name_Hall           '-P 2yn'
loop_
_symmetry_equiv_pos_site_id
_symmetry_equiv_pos_as_xyz
1 x,y,z
2 1/2-x,1/2+y,1/2-z
3 -x,-y,-z
4 1/2+x,1/2-y,1/2+z
_cell_length_a                   9.5296(17)
_cell_length_b                   13.411(3)
_cell_length_c                   28.434(5)
_cell_angle_alpha                90
_cell_angle_beta                 94.443(4)
_cell_angle_gamma                90
_cell_volume                     3622.99
_exptl_crystal_colour            colorless
_exptl_crystal_description       block
_chemical_melting_point          '325-326 K'
_cell_formula_units_Z            8
_exptl_crystal_recrystallization_method 'petroleum ether'
loop_
_atom_site_label
_atom_site_type_symbol
_atom_site_fract_x
_atom_site_fract_y
_atom_site_fract_z
N1 N 0.7597(3) 0.1922(2) 0.22521(9)
H1 H 0.689(3) 0.204(2) 0.2046(11)
O1 O 0.9600(2) 0.29500(19) 0.02589(7)
H3 H 0.8935 0.3197 0.0100
C1 C 0.9313(3) 0.2938(2) 0.07249(11)
C2 C 0.8137(3) 0.3418(2) 0.08868(11)
C3 C 0.7971(3) 0.3356(2) 0.13690(11)
H5 H 0.7203 0.3672 0.1487
C4 C 0.8904(3) 0.2843(2) 0.16786(10)
C5 C 1.0042(3) 0.2382(2) 0.15013(11)
H6 H 1.0667 0.2031 0.1707
C6 C 1.0294(3) 0.2422(2) 0.10260(11)
C7 C 0.7032(3) 0.3944(3) 0.05524(11)
C8 C 0.7702(4) 0.4808(3) 0.02855(13)
H7 H 0.8062 0.5302 0.0508
H8 H 0.7001 0.5105 0.0068
H9 H 0.8456 0.4554 0.0115
C9 C 0.5861(4) 0.4409(3) 0.08254(12)
H10 H 0.5419 0.3899 0.0999
H11 H 0.5174 0.4717 0.0607
H12 H 0.6262 0.4903 0.1041
C10 C 0.6304(4) 0.3193(3) 0.02056(12)
H13 H 0.6983 0.2918 0.0010
H14 H 0.5579 0.3526 0.0012
H15 H 0.5894 0.2668 0.0379
C11 C 1.1572(3) 0.1894(3) 0.08409(12)
C12 C 1.2511(4) 0.2643(3) 0.06015(15)
H16 H 1.1969 0.2970 0.0348
H17 H 1.3286 0.2296 0.0480
H18 H 1.2863 0.3131 0.0828
C13 C 1.1083(4) 0.1064(3) 0.04918(14)
H19 H 1.0497 0.0602 0.0644
H20 H 1.1889 0.0720 0.0390
H21 H 1.0559 0.1353 0.0224
C14 C 1.2489(4) 0.1391(3) 0.12405(14)
H22 H 1.2821 0.1883 0.1467
H23 H 1.3279 0.1073 0.1113
H24 H 1.1942 0.0901 0.1391
C15 C 0.8607(3) 0.2740(2) 0.21911(10)
H25 H 0.9479 0.2606 0.2380
H26 H 0.8224 0.3361 0.2300
C16 C 0.7012(4) 0.1919(3) 0.27229(12)
H27 H 0.6747 0.2601 0.2803
C17 C 0.5712(5) 0.1265(3) 0.26964(15)
H28 H 0.5084 0.1467 0.2433
H29 H 0.5247 0.1331 0.2982
H30 H 0.5981 0.0582 0.2657
C18 C 0.8111(5) 0.1541(3) 0.30950(12)
H31 H 0.8339 0.0861 0.3028
H32 H 0.7747 0.1580 0.3400
H33 H 0.8944 0.1944 0.3092
N2 N 1.1224(3) 0.6925(2) 0.07251(9)
H2 H 1.025(3) 0.681(2) 0.0695(10)
O2 O 0.8448(2) 0.99514(17) 0.21546(7)
H4 H 0.8252 1.0523 0.2070
C19 C 0.9167(3) 0.9479(2) 0.18103(11)
C20 C 0.8480(3) 0.9269(2) 0.13637(11)
C21 C 0.9284(4) 0.8785(2) 0.10428(11)
H34 H 0.8864 0.8640 0.0744
C22 C 1.0656(4) 0.8511(2) 0.11441(11)
C23 C 1.1265(3) 0.8693(2) 0.15934(11)
H35 H 1.2188 0.8489 0.1668
C24 C 1.0545(3) 0.9170(2) 0.19378(10)
C25 C 0.6962(3) 0.9582(3) 0.12052(11)
C26 C 0.6925(4) 1.0690(3) 0.10942(14)
H36 H 0.7264 1.1058 0.1369
H37 H 0.5976 1.0887 0.1001
H38 H 0.7512 1.0824 0.0842
C27 C 0.5918(4) 0.9357(3) 0.15783(14)
H39 H 0.5966 0.8662 0.1659
H40 H 0.4981 0.9519 0.1454
H41 H 0.6156 0.9749 0.1855
C28 C 0.6389(4) 0.9029(4) 0.07618(16)
H42 H 0.6867 0.9256 0.0497
H43 H 0.5399 0.9157 0.0706
H44 H 0.6541 0.8326 0.0804
C29 C 1.1294(3) 0.9368(2) 0.24301(11)
C30 C 1.1488(4) 1.0492(3) 0.25091(11)
H45 H 1.2028 1.0763 0.2268
H46 H 1.1975 1.0606 0.2813
H47 H 1.0584 1.0810 0.2496
C31 C 1.0450(4) 0.8929(3) 0.28228(11)
H48 H 0.9545 0.9245 0.2815
H49 H 1.0951 0.9043 0.3124
H50 H 1.0328 0.8225 0.2773
C32 C 1.2763(4) 0.8888(3) 0.24885(12)
H51 H 1.2687 0.8187 0.2422
H52 H 1.3159 0.8984 0.2806
H53 H 1.3362 0.9194 0.2273
C33 C 1.1467(4) 0.8004(3) 0.07770(11)
H54 H 1.1224 0.8320 0.0475
H55 H 1.2463 0.8114 0.0856
C34 C 1.1792(4) 0.6327(3) 0.11321(11)
H56 H 1.1550 0.6652 0.1424
C35 C 1.1122(5) 0.5303(3) 0.11031(15)
H57 H 1.0121 0.5367 0.1111
H58 H 1.1489 0.4906 0.1366
H59 H 1.1331 0.4986 0.0814
C36 C 1.3370(4) 0.6268(4) 0.11315(14)
H60 H 1.3617 0.5994 0.0837
H61 H 1.3735 0.5849 0.1386
H62 H 1.3763 0.6925 0.1171
loop_
_geom_bond_atom_site_label_1
_geom_bond_atom_site_label_2
_geom_bond_site_symmetry_1
_geom_bond_site_symmetry_2
N1 H1 1_555 1_555
N2 H2 1_555 1_555
O1 H3 1_555 1_555
O2 H4 1_555 1_555
C1 O1 1_555 1_555
C2 C1 1_555 1_555
C3 C2 1_555 1_555
H5 C3 1_555 1_555
C4 C3 1_555 1_555
C5 C4 1_555 1_555
H6 C5 1_555 1_555
C6 C1 1_555 1_555
C7 C2 1_555 1_555
C8 C7 1_555 1_555
H7 C8 1_555 1_555
H8 C8 1_555 1_555
H9 C8 1_555 1_555
C9 C7 1_555 1_555
H10 C9 1_555 1_555
H11 C9 1_555 1_555
H12 C9 1_555 1_555
C10 C7 1_555 1_555
H13 C10 1_555 1_555
H14 C10 1_555 1_555
H15 C10 1_555 1_555
C11 C6 1_555 1_555
C12 C11 1_555 1_555
H16 C12 1_555 1_555
H17 C12 1_555 1_555
H18 C12 1_555 1_555
C13 C11 1_555 1_555
H19 C13 1_555 1_555
H20 C13 1_555 1_555
H21 C13 1_555 1_555
C14 C11 1_555 1_555
H22 C14 1_555 1_555
H23 C14 1_555 1_555
H24 C14 1_555 1_555
C15 N1 1_555 1_555
H25 C15 1_555 1_555
H26 C15 1_555 1_555
C16 N1 1_555 1_555
H27 C16 1_555 1_555
C17 C16 1_555 1_555
H28 C17 1_555 1_555
H29 C17 1_555 1_555
H30 C17 1_555 1_555
C18 C16 1_555 1_555
H31 C18 1_555 1_555
H32 C18 1_555 1_555
H33 C18 1_555 1_555
C19 O2 1_555 1_555
C20 C19 1_555 1_555
C21 C20 1_555 1_555
H34 C21 1_555 1_555
C22 C21 1_555 1_555
C23 C22 1_555 1_555
H35 C23 1_555 1_555
C24 C19 1_555 1_555
C25 C20 1_555 1_555
C26 C25 1_555 1_555
H36 C26 1_555 1_555
H37 C26 1_555 1_555
H38 C26 1_555 1_555
C27 C25 1_555 1_555
H39 C27 1_555 1_555
H40 C27 1_555 1_555
H41 C27 1_555 1_555
C28 C25 1_555 1_555
H42 C28 1_555 1_555
H43 C28 1_555 1_555
H44 C28 1_555 1_555
C29 C24 1_555 1_555
C30 C29 1_555 1_555
H45 C30 1_555 1_555
H46 C30 1_555 1_555
H47 C30 1_555 1_555
C31 C29 1_555 1_555
H48 C31 1_555 1_555
H49 C31 1_555 1_555
H50 C31 1_555 1_555
C32 C29 1_555 1_555
H51 C32 1_555 1_555
H52 C32 1_555 1_555
H53 C32 1_555 1_555
C33 N2 1_555 1_555
H54 C33 1_555 1_555
H55 C33 1_555 1_555
C34 N2 1_555 1_555
H56 C34 1_555 1_555
C35 C34 1_555 1_555
H57 C35 1_555 1_555
H58 C35 1_555 1_555
H59 C35 1_555 1_555
C36 C34 1_555 1_555
H60 C36 1_555 1_555
H61 C36 1_555 1_555
H62 C36 1_555 1_555
C4 C15 1_555 1_555
C5 C6 1_555 1_555
C22 C33 1_555 1_555
C23 C24 1_555 1_555

#END
