
#######################################################################
#
#                 Cambridge Crystallographic Data Centre
#                                CCDC 
#
#######################################################################
#
# If this CIF has been generated from an entry in the Cambridge 
# Structural Database, then it will include bibliographic, chemical, 
# crystal, experimental, refinement or atomic coordinate data resulting 
# from the CCDC's data processing and validation procedures.
#
#######################################################################

data_PAZSOB
_chemical_formula_moiety         'C30 H18 Br1 Cl1 F3 N1 O7'
_chemical_name_systematic        
'ethyl 15-(4-bromophenyl)-6-chloro-12,17-dioxo-14-(trifluoromethyl)-2,13,24-trioxa-10-azaheptacyclo[12.9.1.0^1,16^.0^3,8^.0^9,16^.0^11,15^.0^18,23^]tetracosa-3,5,7,18,20,22-hexaene-11-carboxylate'
_symmetry_cell_setting           trigonal
_symmetry_space_group_name_H-M   'P 31 2 1'
_symmetry_Int_Tables_number      152
_space_group_name_Hall           'P 31 2"'
loop_
_symmetry_equiv_pos_site_id
_symmetry_equiv_pos_as_xyz
1 x,y,z
2 -y,x-y,1/3+z
3 -x+y,-x,2/3+z
4 y,x,-z
5 x-y,-y,2/3-z
6 -x,-x+y,1/3-z
_cell_length_a                   11.2302(2)
_cell_length_b                   11.2302(2)
_cell_length_c                   76.8595(16)
_cell_angle_alpha                90
_cell_angle_beta                 90
_cell_angle_gamma                120
_cell_volume                     8394.66
_exptl_crystal_colour            colorless
_exptl_crystal_description       prism
_cell_formula_units_Z            12
loop_
_atom_site_label
_atom_site_type_symbol
_atom_site_fract_x
_atom_site_fract_y
_atom_site_fract_z
C1 C 0.7751(3) 0.6148(3) 0.77137(5)
C2 C 0.6660(4) 0.5834(4) 0.76068(4)
H1 H 0.6808 0.6135 0.7492
C3 C 0.5338(3) 0.5068(4) 0.76703(4)
H2 H 0.4598 0.4842 0.7597
C4 C 0.5092(3) 0.4624(3) 0.78433(4)
C5 C 0.6226(3) 0.4949(3) 0.79463(4)
H3 H 0.6093 0.4645 0.8061
C6 C 0.7544(4) 0.5711(4) 0.78833(4)
H4 H 0.8291 0.5929 0.7955
C7 C 0.3631(3) 0.3601(3) 0.79022(3)
C8 C 0.3185(3) 0.3591(3) 0.80975(4)
C9 C 0.3888(5) 0.4870(4) 0.82149(4)
C10 C 0.1322(3) 0.3297(3) 0.79313(4)
C11 C 0.2416(3) 0.3531(3) 0.77946(4)
C12 C 0.2587(3) 0.4763(4) 0.76916(4)
C13 C 0.3037(6) 0.7044(5) 0.77181(7)
H5 H 0.2239 0.6777 0.7645
H6 H 0.3856 0.7536 0.7647
C14 C 0.3060(7) 0.7925(6) 0.78616(8)
H7 H 0.3080 0.8726 0.7815
H8 H 0.3864 0.8198 0.7932
H9 H 0.2253 0.7423 0.7932
C15 C 0.2030(3) 0.1277(3) 0.77780(4)
H10 H 0.2141 0.0673 0.7696
C16 C 0.0797(3) 0.0411(3) 0.78922(4)
C17 C -0.0540(4) 0.0015(3) 0.78398(5)
H11 H -0.0685 0.0336 0.7735
C18 C -0.1651(4) -0.0847(4) 0.79423(5)
C19 C -0.1471(4) -0.1346(4) 0.80989(5)
H12 H -0.2225 -0.1931 0.8167
C20 C -0.0148(4) -0.0959(4) 0.81528(5)
H13 H -0.0006 -0.1286 0.8257
C21 C 0.0966(3) -0.0079(3) 0.80499(4)
C22 C 0.3331(3) 0.1581(3) 0.80711(3)
C23 C 0.4670(3) 0.1629(3) 0.80985(4)
C24 C 0.5233(4) 0.1538(3) 0.82549(4)
H14 H 0.4770 0.1418 0.8360
C25 C 0.6501(4) 0.1632(4) 0.82497(5)
H15 H 0.6899 0.1568 0.8353
C26 C 0.7203(4) 0.1819(4) 0.80937(6)
H16 H 0.8058 0.1874 0.8094
C27 C 0.6653(4) 0.1924(4) 0.79396(5)
H17 H 0.7124 0.2056 0.7835
C28 C 0.5359(3) 0.1827(3) 0.79435(4)
C29 C 0.4573(3) 0.1982(3) 0.78013(4)
C30 C 0.3359(3) 0.2075(3) 0.78838(3)
N1 N 0.1971(3) 0.2362(3) 0.76805(3)
O1 O 0.3231(2) 0.2546(2) 0.81860(2)
O2 O 0.1791(2) 0.3289(3) 0.80935(3)
O3 O 0.0205(3) 0.3115(3) 0.79043(4)
O4 O 0.2312(3) 0.4707(3) 0.75396(3)
O5 O 0.2981(3) 0.5828(3) 0.77950(3)
O6 O 0.2258(2) 0.0252(2) 0.81094(3)
O7 O 0.4773(3) 0.2005(3) 0.76468(3)
Cl1 Cl -0.32958(10) -0.13389(12) 0.787280(18)
Br1 Br 0.95705(4) 0.71934(5) 0.762503(6)
F1 F 0.5079(3) 0.5109(3) 0.82772(3)
F2 F 0.3117(4) 0.4696(3) 0.83531(3)
F3 F 0.4080(4) 0.5966(3) 0.81307(3)
H18 H 0.1389 0.2226 0.7587
C31 C 0.7082(4) 1.2043(5) 0.73551(5)
C32 C 0.6623(4) 1.0755(5) 0.74133(5)
H19 H 0.6981 1.0611 0.7515
C33 C 0.5620(4) 0.9648(4) 0.73216(4)
H20 H 0.5280 0.8764 0.7365
C34 C 0.5105(3) 0.9833(3) 0.71641(4)
C35 C 0.5556(4) 1.1160(4) 0.71148(4)
H21 H 0.5189 1.1320 0.7015
C36 C 0.6541(5) 1.2274(5) 0.72076(5)
H22 H 0.6832 1.3166 0.7170
C37 C 0.3944(3) 0.8567(3) 0.70759(3)
C38 C 0.3690(3) 0.8551(3) 0.68714(3)
C39 C 0.4783(4) 0.9527(4) 0.67437(4)
C40 C 0.3496(3) 0.6428(3) 0.69325(4)
C41 C 0.3920(3) 0.7182(3) 0.71092(4)
C42 C 0.5224(4) 0.7162(4) 0.71589(5)
C43 C 0.7498(5) 0.7859(8) 0.70640(8)
H23 H 0.8012 0.8139 0.6956
H24 H 0.7304 0.6936 0.7091
C44 C 0.8357(6) 0.8838(9) 0.72093(11)
H25 H 0.9206 0.8834 0.7220
H26 H 0.7857 0.8545 0.7317
H27 H 0.8547 0.9751 0.7182
C45 C 0.1752(3) 0.6726(3) 0.72070(4)
H28 H 0.1277 0.6645 0.7317
C46 C 0.0703(3) 0.5785(3) 0.70734(4)
C47 C 0.0333(3) 0.4410(3) 0.70594(5)
H29 H 0.0752 0.4051 0.7130
C48 C -0.0651(4) 0.3586(4) 0.69419(5)
C49 C -0.1308(4) 0.4069(4) 0.68364(5)
H30 H -0.1984 0.3487 0.6759
C50 C -0.0940(3) 0.5441(4) 0.68487(5)
H31 H -0.1371 0.5792 0.6779
C51 C 0.0070(3) 0.6283(3) 0.69646(4)
C52 C 0.1814(3) 0.8595(3) 0.69992(4)
C53 C 0.2014(3) 0.9987(3) 0.70422(4)
C54 C 0.1852(4) 1.0878(4) 0.69348(5)
H32 H 0.1519 1.0620 0.6822
C55 C 0.2193(5) 1.2161(4) 0.69976(6)
H33 H 0.2116 1.2787 0.6926
C56 C 0.2654(5) 1.2520(5) 0.71683(7)
H34 H 0.2865 1.3383 0.7209
C57 C 0.2809(4) 1.1639(4) 0.72784(5)
H35 H 0.3121 1.1892 0.7392
C58 C 0.2477(4) 1.0348(4) 0.72126(4)
C59 C 0.2579(3) 0.9226(3) 0.72947(4)
C60 C 0.2491(3) 0.8242(3) 0.71484(3)
N2 N 0.2868(3) 0.6457(4) 0.72387(4)
O8 O 0.2545(2) 0.8674(2) 0.68420(2)
O9 O 0.3392(2) 0.7225(2) 0.68103(3)
O10 O 0.3270(3) 0.5296(3) 0.69017(4)
O11 O 0.5287(3) 0.6521(3) 0.72781(4)
O12 O 0.6213(3) 0.7864(4) 0.70432(4)
O13 O 0.2637(3) 0.9029(3) 0.74477(3)
O14 O 0.0411(2) 0.7659(2) 0.69715(3)
Cl2 Cl -0.10783(13) 0.18799(11) 0.69225(2)
Br2 Br 0.8390(5) 1.3699(4) 0.74707(6)
F4 F 0.4961(4) 1.0773(2) 0.67447(3)
F5 F 0.4407(3) 0.9058(3) 0.65814(2)
F6 F 0.5978(2) 0.9611(4) 0.67728(3)
H36 H 0.3004 0.6002 0.7308
Br3? Br 0.8564(7) 1.3377(13) 0.74861(6)
loop_
_geom_bond_atom_site_label_1
_geom_bond_atom_site_label_2
_geom_bond_site_symmetry_1
_geom_bond_site_symmetry_2
C1 C2 1_555 1_555
C2 H1 1_555 1_555
C3 C2 1_555 1_555
H2 C3 1_555 1_555
C4 C3 1_555 1_555
C5 C4 1_555 1_555
H3 C5 1_555 1_555
C6 C1 1_555 1_555
H4 C6 1_555 1_555
C7 C4 1_555 1_555
C8 C7 1_555 1_555
C9 C8 1_555 1_555
C10 C11 1_555 1_555
C11 C7 1_555 1_555
C12 C11 1_555 1_555
C13 H5 1_555 1_555
H6 C13 1_555 1_555
C14 C13 1_555 1_555
H7 C14 1_555 1_555
H8 C14 1_555 1_555
H9 C14 1_555 1_555
C15 H10 1_555 1_555
C16 C15 1_555 1_555
C17 C16 1_555 1_555
H11 C17 1_555 1_555
C18 C17 1_555 1_555
C19 C18 1_555 1_555
H12 C19 1_555 1_555
C20 C19 1_555 1_555
H13 C20 1_555 1_555
C21 C16 1_555 1_555
C22 C23 1_555 1_555
C23 C24 1_555 1_555
C24 H14 1_555 1_555
C25 C24 1_555 1_555
H15 C25 1_555 1_555
C26 C25 1_555 1_555
H16 C26 1_555 1_555
C27 C26 1_555 1_555
H17 C27 1_555 1_555
C28 C23 1_555 1_555
C29 C28 1_555 1_555
C30 C7 1_555 1_555
N1 C11 1_555 1_555
O1 C8 1_555 1_555
O2 C8 1_555 1_555
O3 C10 1_555 1_555
O4 C12 1_555 1_555
O5 C12 1_555 1_555
O6 C21 1_555 1_555
O7 C29 1_555 1_555
Cl1 C18 1_555 1_555
Br1 C1 1_555 1_555
F1 C9 1_555 1_555
F2 C9 1_555 1_555
F3 C9 1_555 1_555
H18 N1 1_555 1_555
C31 C32 1_555 1_555
C32 H19 1_555 1_555
C33 C32 1_555 1_555
H20 C33 1_555 1_555
C34 C33 1_555 1_555
C35 C34 1_555 1_555
H21 C35 1_555 1_555
C36 C31 1_555 1_555
H22 C36 1_555 1_555
C37 C34 1_555 1_555
C38 C37 1_555 1_555
C39 C38 1_555 1_555
C40 C41 1_555 1_555
C41 C37 1_555 1_555
C42 C41 1_555 1_555
C43 H23 1_555 1_555
H24 C43 1_555 1_555
C44 C43 1_555 1_555
H25 C44 1_555 1_555
H26 C44 1_555 1_555
H27 C44 1_555 1_555
C45 H28 1_555 1_555
C46 C45 1_555 1_555
C47 C46 1_555 1_555
H29 C47 1_555 1_555
C48 C47 1_555 1_555
C49 C48 1_555 1_555
H30 C49 1_555 1_555
C50 C49 1_555 1_555
H31 C50 1_555 1_555
C51 C46 1_555 1_555
C52 C53 1_555 1_555
C53 C54 1_555 1_555
C54 H32 1_555 1_555
C55 C54 1_555 1_555
H33 C55 1_555 1_555
C56 C55 1_555 1_555
H34 C56 1_555 1_555
C57 C56 1_555 1_555
H35 C57 1_555 1_555
C58 C53 1_555 1_555
C59 C58 1_555 1_555
C60 C37 1_555 1_555
N2 C41 1_555 1_555
O8 C38 1_555 1_555
O9 C38 1_555 1_555
O10 C40 1_555 1_555
O11 C42 1_555 1_555
O12 C42 1_555 1_555
O13 C59 1_555 1_555
O14 C51 1_555 1_555
Cl2 C48 1_555 1_555
Br2 C31 1_555 1_555
F4 C39 1_555 1_555
F5 C39 1_555 1_555
F6 C39 1_555 1_555
H36 N2 1_555 1_555
C5 C6 1_555 1_555
C10 O2 1_555 1_555
C13 O5 1_555 1_555
C15 C30 1_555 1_555
C15 N1 1_555 1_555
C20 C21 1_555 1_555
C22 C30 1_555 1_555
C22 O1 1_555 1_555
C22 O6 1_555 1_555
C27 C28 1_555 1_555
C29 C30 1_555 1_555
C35 C36 1_555 1_555
C40 O9 1_555 1_555
C43 O12 1_555 1_555
C45 C60 1_555 1_555
C45 N2 1_555 1_555
C50 C51 1_555 1_555
C52 C60 1_555 1_555
C52 O8 1_555 1_555
C52 O14 1_555 1_555
C57 C58 1_555 1_555
C59 C60 1_555 1_555

#END
