
#######################################################################
#
#                 Cambridge Crystallographic Data Centre
#                                CCDC 
#
#######################################################################
#
# If this CIF has been generated from an entry in the Cambridge 
# Structural Database, then it will include bibliographic, chemical, 
# crystal, experimental, refinement or atomic coordinate data resulting 
# from the CCDC's data processing and validation procedures.
#
#######################################################################

data_PAZYEW
_chemical_formula_moiety         'C17 H19 N1 O5'
_chemical_name_systematic        
1S,2R,3S,5S,6S,8R-3-methyl-3-methoxycarbonyl-5-phenyl-9,11-dioxa-4-azatricyclo[6.2.1.0^2,6^]undecan-7-one
_symmetry_cell_setting           orthorhombic
_symmetry_space_group_name_H-M   'P 21 21 2'
_symmetry_Int_Tables_number      18
_space_group_name_Hall           'P 2 2ab'
loop_
_symmetry_equiv_pos_site_id
_symmetry_equiv_pos_as_xyz
1 x,y,z
2 -x,-y,z
3 1/2-x,1/2+y,-z
4 1/2+x,1/2-y,-z
_cell_length_a                   15.9699(4)
_cell_length_b                   13.9567(4)
_cell_length_c                   6.9126(2)
_cell_angle_alpha                90
_cell_angle_beta                 90
_cell_angle_gamma                90
_cell_volume                     1540.73
_exptl_crystal_colour            colorless
_exptl_crystal_description       prism
_cell_formula_units_Z            4
loop_
_atom_site_label
_atom_site_type_symbol
_atom_site_fract_x
_atom_site_fract_y
_atom_site_fract_z
C1 C 0.90692(9) 0.63457(12) 0.6632(2)
C2 C 0.91973(12) 0.69542(15) 0.8184(3)
H1 H 0.8969 0.6802 0.9383
C3 C 0.96635(13) 0.77918(15) 0.7976(3)
H2 H 0.9750 0.8194 0.9029
C4 C 0.99950(13) 0.80179(15) 0.6196(3)
H3 H 1.0307 0.8576 0.6047
C5 C 0.98680(14) 0.74272(17) 0.4649(3)
H4 H 1.0089 0.7587 0.3446
C6 C 0.94063(12) 0.65823(15) 0.4871(3)
H5 H 0.9327 0.6178 0.3817
C7 C 0.85725(9) 0.54187(12) 0.6890(3)
H6 H 0.8546 0.5074 0.5656
C8 C 0.83842(10) 0.42899(13) 0.9499(3)
C9 C 0.87694(16) 0.4044(2) 1.1465(4)
H7 H 0.9016 0.4609 1.2017
H8 H 0.9193 0.3563 1.1299
H9 H 0.8341 0.3806 1.2313
C10 C 0.80535(11) 0.33604(13) 0.8584(3)
C11 C 0.7618(2) 0.26519(19) 0.5664(4)
H10 H 0.7089 0.2507 0.6251
H11 H 0.7976 0.2100 0.5737
H12 H 0.7534 0.2823 0.4334
C12 C 0.76702(9) 0.50360(12) 0.9665(2)
H13 H 0.7836 0.5502 1.0654
C13 C 0.76788(9) 0.55579(11) 0.7695(2)
H14 H 0.7596 0.6243 0.7936
C14 C 0.69918(10) 0.52223(13) 0.6344(3)
C15 C 0.62115(10) 0.48555(14) 0.7373(3)
H15 H 0.5797 0.4625 0.6438
C16 C 0.68077(10) 0.46547(13) 1.0220(3)
H16 H 0.6836 0.4261 1.1392
C17 C 0.61775(11) 0.54557(16) 1.0443(3)
H17 H 0.5727 0.5270 1.1305
H18 H 0.6441 0.6031 1.0939
N1 N 0.89800(8) 0.48167(11) 0.8348(3)
O1 O 0.80032(9) 0.34375(10) 0.6669(2)
O2 O 0.78623(12) 0.26566(11) 0.9476(3)
O3 O 0.70356(10) 0.52589(12) 0.4609(2)
O4 O 0.64508(7) 0.41235(9) 0.86282(19)
O5 O 0.58759(8) 0.55998(11) 0.8522(3)
H19 H 0.9372(18) 0.443(2) 0.778(4)
loop_
_geom_bond_atom_site_label_1
_geom_bond_atom_site_label_2
_geom_bond_site_symmetry_1
_geom_bond_site_symmetry_2
C1 C2 1_555 1_555
C2 H1 1_555 1_555
C3 C2 1_555 1_555
H2 C3 1_555 1_555
C4 C3 1_555 1_555
H3 C4 1_555 1_555
C5 C4 1_555 1_555
H4 C5 1_555 1_555
C6 C1 1_555 1_555
H5 C6 1_555 1_555
C7 C1 1_555 1_555
H6 C7 1_555 1_555
C8 C9 1_555 1_555
C9 H7 1_555 1_555
H8 C9 1_555 1_555
H9 C9 1_555 1_555
C10 C8 1_555 1_555
C11 H10 1_555 1_555
H11 C11 1_555 1_555
H12 C11 1_555 1_555
C12 C8 1_555 1_555
H13 C12 1_555 1_555
C13 C7 1_555 1_555
H14 C13 1_555 1_555
C14 C13 1_555 1_555
C15 C14 1_555 1_555
H15 C15 1_555 1_555
C16 C12 1_555 1_555
H16 C16 1_555 1_555
C17 C16 1_555 1_555
H17 C17 1_555 1_555
H18 C17 1_555 1_555
N1 C7 1_555 1_555
O1 C10 1_555 1_555
O2 C10 1_555 1_555
O3 C14 1_555 1_555
O4 C15 1_555 1_555
O5 C15 1_555 1_555
H19 N1 1_555 1_555
C5 C6 1_555 1_555
C8 N1 1_555 1_555
C11 O1 1_555 1_555
C12 C13 1_555 1_555
C16 O4 1_555 1_555
C17 O5 1_555 1_555

#END
