
#######################################################################
#
#                 Cambridge Crystallographic Data Centre
#                                CCDC 
#
#######################################################################
#
# If this CIF has been generated from an entry in the Cambridge 
# Structural Database, then it will include bibliographic, chemical, 
# crystal, experimental, refinement or atomic coordinate data resulting 
# from the CCDC's data processing and validation procedures.
#
#######################################################################

data_PBDTMP10
_chemical_formula_moiety         'C25 H29 N3 O2'
_chemical_name_systematic        
2-Phenyl-4-benzoyl-4a,5,6,7,8,8a-hexahydro-8a-piperidinyl-4H-1,3,4-benzo-oxadiazine
_symmetry_cell_setting           monoclinic
_symmetry_space_group_name_H-M   'P 21/a'
_symmetry_Int_Tables_number      14
_space_group_name_Hall           '-P 2yab'
loop_
_symmetry_equiv_pos_site_id
_symmetry_equiv_pos_as_xyz
1 x,y,z
2 1/2-x,1/2+y,-z
3 -x,-y,-z
4 1/2+x,1/2-y,z
_cell_length_a                   19.07(6)
_cell_length_b                   12.48(4)
_cell_length_c                   9.55(4)
_cell_angle_alpha                90
_cell_angle_beta                 98.15(17)
_cell_angle_gamma                90
_cell_volume                     2249.88
_cell_formula_units_Z            4
loop_
_atom_site_label
_atom_site_type_symbol
_atom_site_fract_x
_atom_site_fract_y
_atom_site_fract_z
C10 C 0.37220 -0.10970 0.41990
C11 C 0.44420 -0.11890 0.39230
C12 C 0.47370 -0.04230 0.31440
C13 C 0.43160 0.04740 0.26080
C14 C 0.36110 0.05710 0.28800
C15 C 0.10370 0.15740 0.32930
C16 C 0.12650 0.21900 0.20940
C17 C 0.15850 0.17310 0.10020
C18 C 0.17340 0.23480 -0.01620
C19 C 0.15690 0.34280 -0.02000
C2 C 0.25540 -0.00910 0.39900
C20 C 0.12460 0.38870 0.08590
C21 C 0.10890 0.32950 0.20310
C24 C 0.04810 -0.11800 0.27570
C25 C 0.03050 -0.12520 0.10960
C26 C 0.05680 -0.22960 0.05630
C27 C 0.13840 -0.24630 0.11100
C28 C 0.15140 -0.23580 0.27570
C41 C 0.12750 0.01100 0.49930
C5 C 0.15900 0.04660 0.65080
C6 C 0.14120 -0.03450 0.76110
C7 C 0.17120 -0.14760 0.72820
C8 C 0.14110 -0.18450 0.57520
C81 C 0.15400 -0.10110 0.46420
C9 C 0.33060 -0.02060 0.36790
N23 N 0.12650 -0.12950 0.31760
N3 N 0.22020 0.07450 0.35920
N4 N 0.14970 0.08150 0.39180
O1 O 0.23230 -0.09300 0.47050
O22 O 0.04510 0.17310 0.36940
loop_
_geom_bond_atom_site_label_1
_geom_bond_atom_site_label_2
_geom_bond_site_symmetry_1
_geom_bond_site_symmetry_2
C10 C11 1_555 1_555
C11 C12 1_555 1_555
C12 C13 1_555 1_555
C13 C14 1_555 1_555
C14 C9 1_555 1_555
C15 C16 1_555 1_555
C16 C17 1_555 1_555
C17 C18 1_555 1_555
C18 C19 1_555 1_555
C19 C20 1_555 1_555
C2 C9 1_555 1_555
C20 C21 1_555 1_555
C21 C16 1_555 1_555
C24 C25 1_555 1_555
C25 C26 1_555 1_555
C26 C27 1_555 1_555
C27 C28 1_555 1_555
C28 N23 1_555 1_555
C41 C5 1_555 1_555
C5 C6 1_555 1_555
C6 C7 1_555 1_555
C7 C8 1_555 1_555
C8 C81 1_555 1_555
C81 C41 1_555 1_555
C9 C10 1_555 1_555
N23 C24 1_555 1_555
N3 C2 1_555 1_555
N4 C15 1_555 1_555
O1 C2 1_555 1_555
O22 C15 1_555 1_555
C41 N4 1_555 1_555
C81 N23 1_555 1_555
C81 O1 1_555 1_555
N3 N4 1_555 1_555

#END
