
#######################################################################
#
#                 Cambridge Crystallographic Data Centre
#                                CCDC 
#
#######################################################################
#
# If this CIF has been generated from an entry in the Cambridge 
# Structural Database, then it will include bibliographic, chemical, 
# crystal, experimental, refinement or atomic coordinate data resulting 
# from the CCDC's data processing and validation procedures.
#
#######################################################################

data_PCLPYR03
_chemical_formula_moiety         'C5 Cl5 N1'
_chemical_name_systematic        pentachloropyridine
_symmetry_cell_setting           monoclinic
_symmetry_space_group_name_H-M   'P c'
_symmetry_Int_Tables_number      7
_space_group_name_Hall           'P -2yc'
loop_
_symmetry_equiv_pos_site_id
_symmetry_equiv_pos_as_xyz
1 x,y,z
2 x,-y,1/2+z
_cell_length_a                   5.3122(2)
_cell_length_b                   5.1770(2)
_cell_length_c                   14.8307(6)
_cell_angle_alpha                90
_cell_angle_beta                 99.493(2)
_cell_angle_gamma                90
_cell_volume                     402.278
_exptl_crystal_colour            colorless
_exptl_crystal_description       plate
_cell_formula_units_Z            2
loop_
_atom_site_label
_atom_site_type_symbol
_atom_site_fract_x
_atom_site_fract_y
_atom_site_fract_z
Cl1 Cl 0.11089(8) 0.67833(10) 0.33158(3)
Cl2 Cl 0.52677(8) 1.11133(10) 0.32314(3)
Cl3 Cl 0.96263(9) 1.17687(8) 0.49186(3)
Cl4 Cl 0.97371(8) 0.81227(10) 0.66087(3)
Cl5 Cl 0.53729(9) 0.39356(9) 0.65500(3)
C1 C 0.3566(3) 0.7247(3) 0.42143(11)
C2 C 0.5391(3) 0.9172(3) 0.41700(11)
C3 C 0.7333(3) 0.9459(3) 0.49222(12)
C4 C 0.7382(3) 0.7843(3) 0.56807(11)
C5 C 0.5450(3) 0.6008(3) 0.56445(11)
N1 N 0.3599(3) 0.5715(3) 0.49341(10)
loop_
_geom_bond_atom_site_label_1
_geom_bond_atom_site_label_2
_geom_bond_site_symmetry_1
_geom_bond_site_symmetry_2
Cl1 C1 1_555 1_555
Cl2 C2 1_555 1_555
Cl3 C3 1_555 1_555
Cl4 C4 1_555 1_555
Cl5 C5 1_555 1_555
C1 C2 1_555 1_555
C2 C3 1_555 1_555
C3 C4 1_555 1_555
C4 C5 1_555 1_555
C5 N1 1_555 1_555
N1 C1 1_555 1_555

#END
