
#######################################################################
#
#                 Cambridge Crystallographic Data Centre
#                                CCDC 
#
#######################################################################
#
# If this CIF has been generated from an entry in the Cambridge 
# Structural Database, then it will include bibliographic, chemical, 
# crystal, experimental, refinement or atomic coordinate data resulting 
# from the CCDC's data processing and validation procedures.
#
#######################################################################

data_PCLPYR04
_chemical_formula_moiety         'C5 Cl5 N1'
_chemical_name_systematic        pentachloropyridine
_symmetry_cell_setting           monoclinic
_symmetry_space_group_name_H-M   'P c'
_symmetry_Int_Tables_number      7
_space_group_name_Hall           'P -2yc'
loop_
_symmetry_equiv_pos_site_id
_symmetry_equiv_pos_as_xyz
1 x,y,z
2 x,-y,1/2+z
_cell_length_a                   5.3426(15)
_cell_length_b                   5.2051(15)
_cell_length_c                   15.021(4)
_cell_angle_alpha                90
_cell_angle_beta                 100.003(6)
_cell_angle_gamma                90
_cell_volume                     411.366
_exptl_crystal_colour            colorless
_exptl_crystal_description       plate
_cell_formula_units_Z            2
loop_
_atom_site_label
_atom_site_type_symbol
_atom_site_fract_x
_atom_site_fract_y
_atom_site_fract_z
Cl1 Cl 0.1167(3) 0.6729(5) 0.33222(12)
Cl2 Cl 0.5295(3) 1.1006(4) 0.32424(12)
Cl3 Cl 0.9599(4) 1.1728(4) 0.49197(14)
Cl4 Cl 0.9680(3) 0.8170(5) 0.65954(13)
Cl5 Cl 0.5350(4) 0.4024(4) 0.65386(13)
C1 C 0.3603(13) 0.7224(16) 0.4223(5)
C2 C 0.5388(15) 0.9107(15) 0.4178(5)
C3 C 0.5450(15) 0.6053(14) 0.5641(5)
C4 C 0.7318(15) 0.9432(15) 0.4927(5)
C5 C 0.7352(13) 0.7844(15) 0.5675(5)
N1 N 0.3611(12) 0.5730(13) 0.4934(5)
loop_
_geom_bond_atom_site_label_1
_geom_bond_atom_site_label_2
_geom_bond_site_symmetry_1
_geom_bond_site_symmetry_2
Cl1 C1 1_555 1_555
Cl2 C2 1_555 1_555
Cl3 C4 1_555 1_555
Cl4 C5 1_555 1_555
Cl5 C3 1_555 1_555
C1 C2 1_555 1_555
C2 C4 1_555 1_555
C3 C5 1_555 1_555
C4 C5 1_555 1_555
N1 C1 1_555 1_555
C3 N1 1_555 1_555

#END
