
#######################################################################
#
#                 Cambridge Crystallographic Data Centre
#                                CCDC 
#
#######################################################################
#
# If this CIF has been generated from an entry in the Cambridge 
# Structural Database, then it will include bibliographic, chemical, 
# crystal, experimental, refinement or atomic coordinate data resulting 
# from the CCDC's data processing and validation procedures.
#
#######################################################################

data_PCYPCR10
_chemical_formula_moiety         'C36 H52 O12'
_chemical_name_systematic        4,5,15,16-bis(18-Crown-6)(2.2)paracyclophane
_symmetry_cell_setting           orthorhombic
_symmetry_space_group_name_H-M   'P b c a'
_symmetry_Int_Tables_number      61
_space_group_name_Hall           '-P 2ac 2ab'
loop_
_symmetry_equiv_pos_site_id
_symmetry_equiv_pos_as_xyz
1 x,y,z
2 1/2-x,1/2+y,z
3 x,1/2-y,1/2+z
4 1/2-x,-y,1/2+z
5 -x,-y,-z
6 1/2+x,1/2-y,-z
7 -x,1/2+y,1/2-z
8 1/2+x,y,1/2-z
_cell_length_a                   8.347(4)
_cell_length_b                   16.939(9)
_cell_length_c                   24.330(20)
_cell_angle_alpha                90
_cell_angle_beta                 90
_cell_angle_gamma                90
_cell_volume                     3440.01
_exptl_crystal_colour            colorless
_cell_formula_units_Z            4
loop_
_atom_site_label
_atom_site_type_symbol
_atom_site_fract_x
_atom_site_fract_y
_atom_site_fract_z
C1 C -0.1267(4) -0.0968(2) -0.0139(1)
C2 C -0.2066(4) -0.0522(2) 0.0257(1)
C3 C -0.2286(4) 0.0291(2) 0.0188(1)
C4 C -0.1724(4) 0.0665(2) -0.0282(2)
C5 C -0.1239(4) 0.0190(3) -0.0718(2)
C6 C -0.1013(4) -0.0611(2) -0.0651(1)
C7 C -0.0360(5) -0.1709(2) 0.0008(2)
C8 C -0.1304(5) 0.1535(2) -0.0278(2)
O1 O -0.2402(3) -0.0845(1) 0.0766(1)
C9 C -0.3716(5) -0.1394(2) 0.0760(2)
C10 C -0.3893(6) -0.1757(3) 0.1312(2)
O2 O -0.4444(4) -0.1249(2) 0.1720(1)
C11 C -0.6058(6) -0.1168(3) 0.1772(2)
C12 C -0.6613(6) 0.0212(3) 0.2903(2)
C13 C -0.5807(6) 0.1001(4) 0.2898(2)
O3 O -0.6051(4) 0.1353(2) 0.2370(1)
C14 C -0.5172(6) 0.2070(3) 0.2296(2)
C15 C -0.5311(6) 0.2329(3) 0.1709(2)
O4 O -0.4372(3) 0.1887(2) 0.1339(1)
O5 O -0.2789(3) 0.0744(1) 0.0624(1)
C16 C -0.6547(17) -0.0843(6) 0.2312(4)
O6 O -0.5768(10) -0.0123(5) 0.2446(3)
C17 C -0.4957(14) 0.1131(4) 0.1218(4)
C18 C -0.4446(6) 0.0912(6) 0.0657(4)
H1 H -0.099(4) 0.052(2) -0.109(1)
H2 H -0.049(3) -0.098(1) -0.096(1)
H3 H -0.1072(5) -0.2046(2) 0.0295(2)
H4 H -0.0174(5) -0.2051(2) -0.0361(2)
H5 H -0.2215(5) 0.1847(2) -0.0049(2)
H6 H -0.1288(5) 0.1747(2) -0.0697(2)
H7 H -0.4805(5) -0.1083(2) 0.0657(2)
H8 H -0.3492(5) -0.1848(2) 0.0459(2)
H9 H -0.2737(6) -0.1981(3) 0.1437(2)
H10 H -0.4730(6) -0.2241(3) 0.1278(2)
H11 H -0.6331(67) -0.1141(25) 0.1339(6)
H12 H -0.6303(70) -0.1754(13) 0.1923(16)
H13 H -0.7849(22) 0.0339(33) 0.2808(17)
H14 H -0.6415(50) 0.0300(33) 0.3341(8)
H15 H -0.5755(6) 0.1531(4) 0.3144(2)
H16 H -0.4609(6) 0.0778(4) 0.2834(2)
H17 H -0.5667(6) 0.2522(3) 0.2560(2)
H18 H -0.3927(6) 0.1978(3) 0.2399(2)
H19 H -0.4949(6) 0.2940(3) 0.1683(2)
H20 H -0.6550(6) 0.2275(3) 0.1586(2)
H21 H -0.6267 -0.1272 0.2626
H22 H -0.7824 -0.0740 0.2305
H23 H -0.4481 0.0711 0.1510
H24 H -0.6249 0.1131 0.1242
H25 H -0.4712 0.1397 0.0383
H26 H -0.5107 0.0396 0.0529
C8D C 0.1304(5) -0.1535(2) 0.0278(2)
C7D C 0.0360(5) 0.1709(2) -0.0008(2)
C4D C 0.1724(4) -0.0665(2) 0.0282(2)
H5D H 0.2215(5) -0.1847(2) 0.0049(2)
H6D H 0.1288(5) -0.1747(2) 0.0697(2)
C1D C 0.1267(4) 0.0968(2) 0.0139(1)
H3D H 0.1072(5) 0.2046(2) -0.0295(2)
H4D H 0.0174(5) 0.2051(2) 0.0361(2)
C3D C 0.2286(4) -0.0291(2) -0.0188(1)
C5D C 0.1239(4) -0.0190(3) 0.0718(2)
C2D C 0.2066(4) 0.0522(2) -0.0257(1)
C6D C 0.1013(4) 0.0611(2) 0.0651(1)
O5D O 0.2789(3) -0.0744(1) -0.0624(1)
H1D H 0.099(4) -0.052(2) 0.109(1)
O1D O 0.2402(3) 0.0845(1) -0.0766(1)
H2D H 0.049(3) 0.098(1) 0.096(1)
C18D C 0.4446(6) -0.0912(6) -0.0657(4)
C9D C 0.3716(5) 0.1394(2) -0.0760(2)
C17D C 0.4957(14) -0.1131(4) -0.1218(4)
H25D H 0.4712 -0.1397 -0.0383
H26D H 0.5107 -0.0396 -0.0529
C10D C 0.3893(6) 0.1757(3) -0.1312(2)
H7D H 0.4805(5) 0.1083(2) -0.0657(2)
H8D H 0.3492(5) 0.1848(2) -0.0459(2)
O4D O 0.4372(3) -0.1887(2) -0.1339(1)
H23D H 0.4481 -0.0711 -0.1510
H24D H 0.6249 -0.1131 -0.1242
O2D O 0.4444(4) 0.1249(2) -0.1720(1)
H9D H 0.2737(6) 0.1981(3) -0.1437(2)
H10D H 0.4730(6) 0.2241(3) -0.1278(2)
C15D C 0.5311(6) -0.2329(3) -0.1709(2)
C11D C 0.6058(6) 0.1168(3) -0.1772(2)
C14D C 0.5172(6) -0.2070(3) -0.2296(2)
H19D H 0.4949(6) -0.2940(3) -0.1683(2)
H20D H 0.6550(6) -0.2275(3) -0.1586(2)
C16D C 0.6547(17) 0.0843(6) -0.2312(4)
H11D H 0.6331(67) 0.1141(25) -0.1339(6)
H12D H 0.6303(70) 0.1754(13) -0.1923(16)
O3D O 0.6051(4) -0.1353(2) -0.2370(1)
H17D H 0.5667(6) -0.2522(3) -0.2560(2)
H18D H 0.3927(6) -0.1978(3) -0.2399(2)
O6D O 0.5768(10) 0.0123(5) -0.2446(3)
H21D H 0.6267 0.1272 -0.2626
H22D H 0.7824 0.0740 -0.2305
C13D C 0.5807(6) -0.1001(4) -0.2898(2)
C12D C 0.6613(6) -0.0212(3) -0.2903(2)
H15D H 0.5755(6) -0.1531(4) -0.3144(2)
H16D H 0.4609(6) -0.0778(4) -0.2834(2)
H13D H 0.7849(22) -0.0339(33) -0.2808(17)
H14D H 0.6415(50) -0.0300(33) -0.3341(8)
loop_
_geom_bond_atom_site_label_1
_geom_bond_atom_site_label_2
_geom_bond_site_symmetry_1
_geom_bond_site_symmetry_2
C1 C2 1_555 1_555
C2 C3 1_555 1_555
C3 C4 1_555 1_555
C4 C5 1_555 1_555
C5 C6 1_555 1_555
C6 C1 1_555 1_555
C7 C1 1_555 1_555
C8 C4 1_555 1_555
O1 C2 1_555 1_555
C9 O1 1_555 1_555
C10 C9 1_555 1_555
O2 C10 1_555 1_555
C11 O2 1_555 1_555
C12 C13 1_555 1_555
C13 O3 1_555 1_555
O3 C14 1_555 1_555
C14 C15 1_555 1_555
C15 O4 1_555 1_555
O4 C17 1_555 1_555
O5 C3 1_555 1_555
C16 C11 1_555 1_555
O6 C12 1_555 1_555
C17 C18 1_555 1_555
C18 O5 1_555 1_555
H1 C5 1_555 1_555
H2 C6 1_555 1_555
H3 C7 1_555 1_555
H4 C7 1_555 1_555
H5 C8 1_555 1_555
H6 C8 1_555 1_555
H7 C9 1_555 1_555
H8 C9 1_555 1_555
H9 C10 1_555 1_555
H10 C10 1_555 1_555
H11 C11 1_555 1_555
H12 C11 1_555 1_555
H13 C12 1_555 1_555
H14 C12 1_555 1_555
H15 C13 1_555 1_555
H16 C13 1_555 1_555
H17 C14 1_555 1_555
H18 C14 1_555 1_555
H19 C15 1_555 1_555
H20 C15 1_555 1_555
H21 C16 1_555 1_555
H22 C16 1_555 1_555
H23 C17 1_555 1_555
H24 C17 1_555 1_555
H25 C18 1_555 1_555
H26 C18 1_555 1_555
C8D C7 1_555 1_555
C7D C8 1_555 1_555
C4D C8D 1_555 1_555
H5D C8D 1_555 1_555
H6D C8D 1_555 1_555
C1D C7D 1_555 1_555
H3D C7D 1_555 1_555
H4D C7D 1_555 1_555
C3D C4D 1_555 1_555
C5D C4D 1_555 1_555
C2D C1D 1_555 1_555
C6D C1D 1_555 1_555
O5D C3D 1_555 1_555
H1D C5D 1_555 1_555
O1D C2D 1_555 1_555
H2D C6D 1_555 1_555
C18D O5D 1_555 1_555
C9D O1D 1_555 1_555
C17D C18D 1_555 1_555
H25D C18D 1_555 1_555
H26D C18D 1_555 1_555
C10D C9D 1_555 1_555
H7D C9D 1_555 1_555
H8D C9D 1_555 1_555
O4D C17D 1_555 1_555
H23D C17D 1_555 1_555
H24D C17D 1_555 1_555
O2D C10D 1_555 1_555
H9D C10D 1_555 1_555
H10D C10D 1_555 1_555
C15D O4D 1_555 1_555
C11D O2D 1_555 1_555
C14D C15D 1_555 1_555
H19D C15D 1_555 1_555
H20D C15D 1_555 1_555
C16D C11D 1_555 1_555
H11D C11D 1_555 1_555
H12D C11D 1_555 1_555
O3D C14D 1_555 1_555
H17D C14D 1_555 1_555
H18D C14D 1_555 1_555
O6D C16D 1_555 1_555
H21D C16D 1_555 1_555
H22D C16D 1_555 1_555
C13D O3D 1_555 1_555
C12D O6D 1_555 1_555
H15D C13D 1_555 1_555
H16D C13D 1_555 1_555
H13D C12D 1_555 1_555
H14D C12D 1_555 1_555
C16 O6 1_555 1_555
C3D C2D 1_555 1_555
C5D C6D 1_555 1_555
C13D C12D 1_555 1_555

#END
