
#######################################################################
#
#                 Cambridge Crystallographic Data Centre
#                                CCDC 
#
#######################################################################
#
# If this CIF has been generated from an entry in the Cambridge 
# Structural Database, then it will include bibliographic, chemical, 
# crystal, experimental, refinement or atomic coordinate data resulting 
# from the CCDC's data processing and validation procedures.
#
#######################################################################

data_PDHTEZ01
_chemical_formula_moiety         'C12 H10 N6'
_chemical_name_systematic        
3,6-bis(2-Pyridyl)-1,4-dihydro-1,2,4,5-tetrazine
_symmetry_cell_setting           orthorhombic
_symmetry_space_group_name_H-M   'P 21 21 21'
_symmetry_Int_Tables_number      19
_space_group_name_Hall           'P 2ac 2ab'
loop_
_symmetry_equiv_pos_site_id
_symmetry_equiv_pos_as_xyz
1 x,y,z
2 1/2-x,-y,1/2+z
3 1/2+x,1/2-y,-z
4 -x,1/2+y,1/2-z
_cell_length_a                   7.3732(7)
_cell_length_b                   11.0354(9)
_cell_length_c                   13.820(1)
_cell_angle_alpha                90
_cell_angle_beta                 90
_cell_angle_gamma                90
_cell_volume                     1124.48
_exptl_crystal_colour            orange
_cell_formula_units_Z            4
loop_
_atom_site_label
_atom_site_type_symbol
_atom_site_fract_x
_atom_site_fract_y
_atom_site_fract_z
C1 C 0.1118(2) 0.1308(1) 0.3673(1)
C2 C 0.1060(3) 0.0292(2) 0.4264(1)
C3 C 0.1721(3) 0.0388(2) 0.5190(1)
C4 C 0.2418(3) 0.1476(2) 0.5500(1)
C5 C 0.2427(3) 0.2435(2) 0.4868(1)
N1 N 0.1778(2) 0.2380(1) 0.3961(1)
C6 C 0.0314(2) 0.1285(1) 0.2691(1)
N2 N -0.0075(3) 0.2387(1) 0.2257(1)
N3 N 0.0158(2) 0.2412(1) 0.1235(1)
C7 C -0.0410(2) 0.1434(1) 0.0846(1)
N4 N -0.1099(2) 0.0488(1) 0.1402(1)
N5 N -0.0117(2) 0.0283(1) 0.2280(1)
C8 C -0.0399(2) 0.1297(1) -0.0219(1)
C9 C 0.0245(3) 0.2200(2) -0.0820(1)
C10 C 0.0206(4) 0.2005(2) -0.1804(1)
C11 C -0.0463(3) 0.0930(2) -0.2149(1)
C12 C -0.1079(3) 0.0084(2) -0.1501(1)
N6 N -0.1061(2) 0.0248(1) -0.0542(1)
H1 H 0.059(3) -0.041(2) 0.404(1)
H2 H 0.167(3) -0.026(2) 0.564(1)
H3 H 0.286(3) 0.160(2) 0.613(1)
H4 H 0.287(3) 0.322(2) 0.508(1)
H5 H 0.046(3) 0.300(2) 0.252(1)
H6 H -0.115(2) -0.021(2) 0.110(1)
H7 H 0.079(3) 0.294(2) -0.055(1)
H8 H 0.074(4) 0.261(2) -0.224(2)
H9 H -0.052(3) 0.079(2) -0.283(2)
H10 H -0.156(3) -0.076(2) -0.170(1)
loop_
_geom_bond_atom_site_label_1
_geom_bond_atom_site_label_2
_geom_bond_site_symmetry_1
_geom_bond_site_symmetry_2
C1 C2 1_555 1_555
C2 C3 1_555 1_555
C3 C4 1_555 1_555
C4 C5 1_555 1_555
C5 N1 1_555 1_555
N1 C1 1_555 1_555
C6 C1 1_555 1_555
N2 C6 1_555 1_555
N3 N2 1_555 1_555
C7 N3 1_555 1_555
N4 C7 1_555 1_555
N5 C6 1_555 1_555
C8 C7 1_555 1_555
C9 C8 1_555 1_555
C10 C9 1_555 1_555
C11 C10 1_555 1_555
C12 C11 1_555 1_555
N6 C8 1_555 1_555
H1 C2 1_555 1_555
H2 C3 1_555 1_555
H3 C4 1_555 1_555
H4 C5 1_555 1_555
H5 N2 1_555 1_555
H6 N4 1_555 1_555
H7 C9 1_555 1_555
H8 C10 1_555 1_555
H9 C11 1_555 1_555
H10 C12 1_555 1_555
N4 N5 1_555 1_555
C12 N6 1_555 1_555

#END
