
#######################################################################
#
#                 Cambridge Crystallographic Data Centre
#                                CCDC 
#
#######################################################################
#
# If this CIF has been generated from an entry in the Cambridge 
# Structural Database, then it will include bibliographic, chemical, 
# crystal, experimental, refinement or atomic coordinate data resulting 
# from the CCDC's data processing and validation procedures.
#
#######################################################################

data_PEANNA11
_chemical_compound_source        'Streptomyces albus'
_chemical_formula_moiety         'C49 H83 Na1 O17,C3 H6 O1'
_chemical_name_systematic        'Sodium Ionophore A204A acetone solvate'
_chemical_properties_biological  
'agent for facilitation of ion transport across membranes'
_symmetry_cell_setting           monoclinic
_symmetry_space_group_name_H-M   'C 2'
_symmetry_Int_Tables_number      5
_space_group_name_Hall           'C 2y'
loop_
_symmetry_equiv_pos_site_id
_symmetry_equiv_pos_as_xyz
1 x,y,z
2 1/2+x,1/2+y,z
3 -x,y,-z
4 1/2-x,1/2+y,-z
_cell_length_a                   27.223(7)
_cell_length_b                   14.529(3)
_cell_length_c                   14.369(3)
_cell_angle_alpha                90
_cell_angle_beta                 91.18(2)
_cell_angle_gamma                90
_cell_volume                     5682.06
_cell_formula_units_Z            4
loop_
_atom_site_label
_atom_site_type_symbol
_atom_site_fract_x
_atom_site_fract_y
_atom_site_fract_z
Na1 Na 0.69853(7) 0.0000 0.2615(1)
C1 C 0.6655(3) 0.1513(4) 0.1392(4)
C2 C 0.6533(2) 0.2525(4) 0.1145(3)
C3 C 0.6958(2) 0.3163(5) 0.1337(4)
C4 C 0.6062(2) 0.2805(3) 0.1663(3)
C5 C 0.5900(2) 0.3801(4) 0.1515(3)
C6 C 0.5736(2) 0.4008(5) 0.0509(3)
C7 C 0.5490(1) 0.4055(3) 0.2188(3)
C8 C 0.5641(1) 0.3831(3) 0.3211(3)
C9 C 0.6033(2) 0.4486(4) 0.3555(3)
C10 C 0.4816(2) 0.3435(5) 0.3730(5)
C11 C 0.5807(2) 0.2811(3) 0.3251(3)
C12 C 0.6006(2) 0.2505(4) 0.4193(3)
C13 C 0.6169(2) 0.1505(3) 0.4177(3)
C14 C 0.5753(2) 0.0803(4) 0.4156(4)
C15 C 0.5957(2) -0.0164(4) 0.4183(4)
C16 C 0.5853(3) -0.0781(8) 0.2674(6)
C17 C 0.6327(2) -0.0282(3) 0.4988(3)
C18 C 0.6551(2) -0.1235(4) 0.5013(5)
C19 C 0.6703(2) 0.0507(3) 0.5033(3)
C20 C 0.7042(2) 0.0502(4) 0.5886(3)
C21 C 0.6812(3) 0.0809(5) 0.6804(4)
C22 C 0.7459(2) 0.1110(3) 0.5560(3)
C23 C 0.8244(2) 0.1622(5) 0.6101(4)
C24 C 0.7484(2) 0.0931(3) 0.4507(3)
C25 C 0.7490(2) 0.1835(3) 0.3949(3)
C26 C 0.7903(1) 0.0311(3) 0.4232(3)
C27 C 0.7924(2) -0.0670(3) 0.4611(3)
C28 C 0.8230(2) -0.1171(4) 0.3897(3)
C29 C 0.8185(2) -0.0582(3) 0.3018(3)
C30 C 0.7966(2) -0.1036(3) 0.2160(3)
C31 C 0.8272(2) -0.1821(4) 0.1779(3)
C32 C 0.7893(2) -0.2400(4) 0.1259(3)
C33 C 0.7414(2) -0.2234(4) 0.1793(3)
C34 C 0.6976(2) -0.2056(4) 0.1175(3)
C35 C 0.6823(2) -0.2881(4) 0.0555(4)
C36 C 0.6665(3) -0.3716(5) 0.1151(7)
C37 C 0.6426(2) -0.2580(5) -0.0106(5)
C38 C 0.6598(5) -0.3696(8) -0.1303(8)
C39 C 0.6582(2) -0.1731(5) -0.0675(4)
C40 C 0.6176(3) -0.1446(8) -0.1385(6)
C41 C 0.6722(2) -0.0950(4) -0.0012(3)
C42 C 0.6960(2) -0.0137(5) -0.0488(4)
C43 C 0.4917(2) 0.5291(4) 0.1833(3)
C44 C 0.4958(2) 0.6225(5) 0.1371(4)
C45 C 0.5109(2) 0.6970(5) 0.2084(4)
C46 C 0.4764(2) 0.6939(4) 0.2881(4)
C47 C 0.4649(3) 0.8356(8) 0.3702(9)
C48 C 0.4752(2) 0.5989(4) 0.3309(3)
C49 C 0.4395(3) 0.5902(6) 0.4098(5)
O1 O 0.7075(2) 0.1306(4) 0.1681(3)
O2 O 0.6316(2) 0.0944(4) 0.1289(5)
O3 O 0.5669(1) 0.2227(3) 0.1407(2)
O4 O 0.6196(1) 0.2678(2) 0.2615(2)
O5 O 0.5396(1) 0.5015(3) 0.2101(2)
O6 O 0.5241(1) 0.3980(3) 0.3839(2)
O7 O 0.6190(1) -0.0400(3) 0.3334(3)
O8 O 0.6463(1) 0.1366(2) 0.5011(2)
O9 O 0.7893(1) 0.0895(3) 0.6083(2)
O10 O 0.7034(1) 0.0434(2) 0.4276(2)
O11 O 0.7867(1) 0.0171(2) 0.3242(3)
O12 O 0.7503(1) -0.1444(3) 0.2378(2)
O13 O 0.6251(2) -0.3315(4) -0.0693(4)
O14 O 0.7094(1) -0.1274(3) 0.0624(2)
O15 O 0.6298(1) -0.0695(3) 0.0465(3)
O16 O 0.4604(1) 0.5334(3) 0.2603(3)
O17 O 0.4937(2) 0.7576(4) 0.3578(3)
H1 H 0.6448 0.2551 0.0408
H2 H 0.6211 0.4237 0.1678
H3 H 0.5164 0.3664 0.2005
H4 H 0.5498 0.2382 0.3058
H5 H 0.5723 0.2587 0.4703
H6 H 0.6317 0.2932 0.4388
H7 H 0.6392 0.1398 0.3573
H8 H 0.5534 0.0894 0.3528
H9 H 0.5523 0.0909 0.4751
H10 H 0.5656 -0.0632 0.4296
H11 H 0.6117 -0.0223 0.5615
H12 H 0.7182 -0.0187 0.5981
H13 H 0.7360 0.1822 0.5666
H14 H 0.8246 0.0650 0.4407
H15 H 0.7561 -0.0965 0.4651
H16 H 0.8098 -0.0692 0.5292
H17 H 0.8088 -0.1855 0.3772
H18 H 0.8608 -0.1221 0.4132
H19 H 0.8545 -0.0322 0.2856
H20 H 0.7916 -0.0523 0.1622
H21 H 0.8448 -0.2207 0.2335
H22 H 0.8549 -0.1569 0.1317
H23 H 0.7994 -0.3119 0.1274
H24 H 0.7854 -0.2180 0.0544
H25 H 0.7344 -0.2831 0.2218
H26 H 0.6669 -0.1890 0.1609
H27 H 0.7139 -0.3086 0.0160
H28 H 0.6122 -0.2359 0.0311
H29 H 0.6904 -0.1917 -0.1059
H30 H 0.4768 0.4813 0.1325
H31 H 0.4607 0.6406 0.1058
H32 H 0.5229 0.6192 0.0834
H33 H 0.5094 0.7640 0.1760
H34 H 0.5480 0.6843 0.2335
H35 H 0.4399 0.7125 0.2640
H36 H 0.5116 0.5821 0.3569
C50 C 0.4614(7) 0.085(2) 0.183(2)
C51 C 0.4390(8) 0.173(2) 0.141(1)
C52 C 0.4831(9) 0.025(2) 0.115(2)
O18 O 0.4585(6) 0.073(1) 0.257(2)
loop_
_geom_bond_atom_site_label_1
_geom_bond_atom_site_label_2
_geom_bond_site_symmetry_1
_geom_bond_site_symmetry_2
Na1 O1 1_555 1_555
C1 C2 1_555 1_555
C2 C3 1_555 1_555
C4 C2 1_555 1_555
C5 C4 1_555 1_555
C6 C5 1_555 1_555
C7 C5 1_555 1_555
C8 C7 1_555 1_555
C9 C8 1_555 1_555
C10 O6 1_555 1_555
C11 C8 1_555 1_555
C12 C11 1_555 1_555
C13 C12 1_555 1_555
C14 C13 1_555 1_555
C15 C14 1_555 1_555
C16 O7 1_555 1_555
C17 C15 1_555 1_555
C18 C17 1_555 1_555
C19 C17 1_555 1_555
C20 C19 1_555 1_555
C21 C20 1_555 1_555
C22 C20 1_555 1_555
C23 O9 1_555 1_555
C24 C22 1_555 1_555
C25 C24 1_555 1_555
C26 C24 1_555 1_555
C27 C26 1_555 1_555
C28 C27 1_555 1_555
C29 C28 1_555 1_555
C30 C29 1_555 1_555
C31 C30 1_555 1_555
C32 C31 1_555 1_555
C33 C32 1_555 1_555
C34 C33 1_555 1_555
C35 C34 1_555 1_555
C36 C35 1_555 1_555
C37 C35 1_555 1_555
C38 O13 1_555 1_555
C39 C37 1_555 1_555
C40 C39 1_555 1_555
C41 C39 1_555 1_555
C42 C41 1_555 1_555
C43 C44 1_555 1_555
C44 C45 1_555 1_555
C45 C46 1_555 1_555
C46 C48 1_555 1_555
C47 O17 1_555 1_555
C48 C49 1_555 1_555
O1 C1 1_555 1_555
O2 C1 1_555 1_555
O3 C4 1_555 1_555
O4 C4 1_555 1_555
O5 C7 1_555 1_555
O6 C8 1_555 1_555
O7 Na1 1_555 1_555
O8 C13 1_555 1_555
O9 C22 1_555 1_555
O10 Na1 1_555 1_555
O11 Na1 1_555 1_555
O12 Na1 1_555 1_555
O13 C37 1_555 1_555
O14 C34 1_555 1_555
O15 C41 1_555 1_555
O16 C43 1_555 1_555
O17 C46 1_555 1_555
H1 C2 1_555 1_555
H2 C5 1_555 1_555
H3 C7 1_555 1_555
H4 C11 1_555 1_555
H5 C12 1_555 1_555
H6 C12 1_555 1_555
H7 C13 1_555 1_555
H8 C14 1_555 1_555
H9 C14 1_555 1_555
H10 C15 1_555 1_555
H11 C17 1_555 1_555
H12 C20 1_555 1_555
H13 C22 1_555 1_555
H14 C26 1_555 1_555
H15 C27 1_555 1_555
H16 C27 1_555 1_555
H17 C28 1_555 1_555
H18 C28 1_555 1_555
H19 C29 1_555 1_555
H20 C30 1_555 1_555
H21 C31 1_555 1_555
H22 C31 1_555 1_555
H23 C32 1_555 1_555
H24 C32 1_555 1_555
H25 C33 1_555 1_555
H26 C34 1_555 1_555
H27 C35 1_555 1_555
H28 C37 1_555 1_555
H29 C39 1_555 1_555
H30 C43 1_555 1_555
H31 C44 1_555 1_555
H32 C44 1_555 1_555
H33 C45 1_555 1_555
H34 C45 1_555 1_555
H35 C46 1_555 1_555
H36 C48 1_555 1_555
C50 C51 1_555 1_555
C52 C50 1_555 1_555
O18 C50 1_555 1_555
C11 O4 1_555 1_555
C15 O7 1_555 1_555
C19 O8 1_555 1_555
C19 O10 1_555 1_555
C24 O10 1_555 1_555
C26 O11 1_555 1_555
C29 O11 1_555 1_555
C30 O12 1_555 1_555
C33 O12 1_555 1_555
C41 O14 1_555 1_555
C43 O5 1_555 1_555
C48 O16 1_555 1_555

#END
