
#######################################################################
#
#                 Cambridge Crystallographic Data Centre
#                                CCDC 
#
#######################################################################
#
# If this CIF has been generated from an entry in the Cambridge 
# Structural Database, then it will include bibliographic, chemical, 
# crystal, experimental, refinement or atomic coordinate data resulting 
# from the CCDC's data processing and validation procedures.
#
#######################################################################

data_PEBBAC
_chemical_formula_moiety         'C20 H20 N2 O2 S1'
_chemical_name_systematic        
6-methyl-3-(methylsulfonyl)-5-phenyl-1,2,3,6-tetrahydroazepino[4,5-b]indole
_symmetry_cell_setting           triclinic
_symmetry_space_group_name_H-M   'P -1'
_symmetry_Int_Tables_number      2
_space_group_name_Hall           '-P 1'
loop_
_symmetry_equiv_pos_site_id
_symmetry_equiv_pos_as_xyz
1 x,y,z
2 -x,-y,-z
_cell_length_a                   5.3524(11)
_cell_length_b                   9.849(2)
_cell_length_c                   16.789(3)
_cell_angle_alpha                91.22(3)
_cell_angle_beta                 96.68(3)
_cell_angle_gamma                91.44(3)
_cell_volume                     878.498
_exptl_crystal_colour            colorless
_exptl_crystal_description       block
_cell_formula_units_Z            2
loop_
_atom_site_label
_atom_site_type_symbol
_atom_site_fract_x
_atom_site_fract_y
_atom_site_fract_z
S1 S 0.0788(2) 0.26816(12) 0.05138(7)
N1 N 0.2202(7) 0.1667(4) 0.1170(2)
N2 N 0.2420(8) -0.1231(4) 0.3048(2)
C1 C 0.4850(9) -0.0662(4) 0.2079(3)
O1 O -0.1225(7) 0.3294(4) 0.0871(2)
O2 O 0.0245(8) 0.1913(4) -0.0219(2)
C2 C 0.2195(9) 0.1856(5) 0.3437(3)
C3 C 0.5168(10) -0.2072(5) 0.2238(3)
C4 C 0.3194(9) -0.0183(5) 0.2574(3)
C5 C 0.3934(9) 0.0697(5) 0.0848(3)
H1 H 0.4760 0.1133 0.0433
H2 H 0.2962 -0.0081 0.0604
C6 C 0.0415(10) -0.1207(5) 0.3557(3)
H3 H 0.0300 -0.2067 0.3812
H4 H -0.1150 -0.1041 0.3238
H5 H 0.0765 -0.0499 0.3959
C7 C 0.3582(9) -0.2391(5) 0.2843(3)
C8 C 0.2389(9) 0.1217(5) 0.2630(3)
C9 C 0.2100(9) 0.2015(5) 0.1993(3)
H6 H 0.1790 0.2921 0.2102
C10 C 0.5944(9) 0.0200(5) 0.1498(3)
H7 H 0.7177 -0.0309 0.1245
H8 H 0.6808 0.0980 0.1779
C11 C 0.3497(11) -0.3701(5) 0.3150(3)
H9 H 0.2468 -0.3911 0.3542
C12 C 0.0296(10) 0.2734(5) 0.3553(3)
H10 H -0.0939 0.2892 0.3131
C13 C 0.6642(11) -0.3074(5) 0.1952(3)
H11 H 0.7666 -0.2884 0.1555
C14 C 0.3959(11) 0.1587(6) 0.4087(3)
H12 H 0.5220 0.0973 0.4026
C15 C 0.4986(11) -0.4669(6) 0.2853(3)
H13 H 0.4940 -0.5546 0.3046
C16 C 0.2015(12) 0.3143(6) 0.4925(3)
H14 H 0.1997 0.3597 0.5415
C17 C 0.3848(13) 0.2225(6) 0.4820(3)
H15 H 0.5031 0.2031 0.5250
C18 C 0.0196(12) 0.3386(6) 0.4291(3)
H16 H -0.1086 0.3983 0.4359
C19 C 0.6561(11) -0.4365(6) 0.2269(3)
H17 H 0.7568 -0.5035 0.2089
C20 C 0.2975(10) 0.3956(5) 0.0368(4)
H18 H 0.2234 0.4578 -0.0018
H19 H 0.4418 0.3561 0.0174
H20 H 0.3484 0.4435 0.0867
loop_
_geom_bond_atom_site_label_1
_geom_bond_atom_site_label_2
_geom_bond_site_symmetry_1
_geom_bond_site_symmetry_2
S1 N1 1_555 1_555
N1 C5 1_555 1_555
N2 C4 1_555 1_555
C1 C3 1_555 1_555
O1 S1 1_555 1_555
O2 S1 1_555 1_555
C2 C8 1_555 1_555
C3 C7 1_555 1_555
C4 C1 1_555 1_555
C5 H1 1_555 1_555
H2 C5 1_555 1_555
C6 N2 1_555 1_555
H3 C6 1_555 1_555
H4 C6 1_555 1_555
H5 C6 1_555 1_555
C7 N2 1_555 1_555
C8 C4 1_555 1_555
C9 N1 1_555 1_555
H6 C9 1_555 1_555
C10 C1 1_555 1_555
H7 C10 1_555 1_555
H8 C10 1_555 1_555
C11 C7 1_555 1_555
H9 C11 1_555 1_555
C12 C2 1_555 1_555
H10 C12 1_555 1_555
C13 C3 1_555 1_555
H11 C13 1_555 1_555
C14 C2 1_555 1_555
H12 C14 1_555 1_555
C15 C11 1_555 1_555
H13 C15 1_555 1_555
C16 H14 1_555 1_555
C17 C14 1_555 1_555
H15 C17 1_555 1_555
C18 C12 1_555 1_555
H16 C18 1_555 1_555
C19 C13 1_555 1_555
H17 C19 1_555 1_555
C20 S1 1_555 1_555
H18 C20 1_555 1_555
H19 C20 1_555 1_555
H20 C20 1_555 1_555
C5 C10 1_555 1_555
C8 C9 1_555 1_555
C15 C19 1_555 1_555
C16 C17 1_555 1_555
C16 C18 1_555 1_555

#END
