
#######################################################################
#
#                 Cambridge Crystallographic Data Centre
#                                CCDC 
#
#######################################################################
#
# If this CIF has been generated from an entry in the Cambridge 
# Structural Database, then it will include bibliographic, chemical, 
# crystal, experimental, refinement or atomic coordinate data resulting 
# from the CCDC's data processing and validation procedures.
#
#######################################################################

data_PEBBUV01
_chemical_name_common            '(-)-Lycojaponicumin C'
_chemical_formula_moiety         'C17 H23 N1 O2'
_chemical_name_systematic        
1,8-Dimethyl-1,3,4,6a,7,11,12,12a-octahydro-2H,5H-benzo[3a,4]pentaleno[1,6a-b]pyridine-5,10(6H)-dione
_symmetry_cell_setting           orthorhombic
_symmetry_space_group_name_H-M   'P 21 21 21'
_symmetry_Int_Tables_number      19
_space_group_name_Hall           'P 2ac 2ab'
loop_
_symmetry_equiv_pos_site_id
_symmetry_equiv_pos_as_xyz
1 x,y,z
2 1/2-x,-y,1/2+z
3 1/2+x,1/2-y,-z
4 -x,1/2+y,1/2-z
_cell_length_a                   10.7147(3)
_cell_length_b                   11.8051(4)
_cell_length_c                   11.8389(3)
_cell_angle_alpha                90
_cell_angle_beta                 90
_cell_angle_gamma                90
_cell_volume                     1497.48
_exptl_crystal_colour            'light colorless'
_exptl_crystal_description       block
_cell_formula_units_Z            4
loop_
_atom_site_label
_atom_site_type_symbol
_atom_site_fract_x
_atom_site_fract_y
_atom_site_fract_z
O1 O -0.28117(11) -0.41841(10) -0.39697(10)
O2 O 0.14301(11) -0.50289(13) -0.68730(12)
N1 N -0.08088(15) -0.64530(12) -0.41855(12)
C1 C 0.0165(2) -0.61160(17) -0.33988(18)
H1 H 0.0944 -0.6475 -0.3613
H2 H -0.0051 -0.6374 -0.2646
C2 C 0.03376(18) -0.48518(17) -0.33848(15)
H3 H 0.1003 -0.4656 -0.2865
H4 H -0.0423 -0.4492 -0.3123
C3 C 0.06573(13) -0.44173(14) -0.45596(13)
H5 H 0.1506 -0.4637 -0.4743
H6 H 0.0620 -0.3596 -0.4558
C4 C -0.02252(12) -0.48724(11) -0.54763(11)
C5 C 0.03912(14) -0.46916(14) -0.66463(13)
C6 C -0.04652(17) -0.40577(16) -0.74188(12)
H7 H -0.0922 -0.4573 -0.7905
H8 H -0.0004 -0.3526 -0.7884
C7 C -0.13441(15) -0.34384(13) -0.66154(11)
H9 H -0.2140 -0.3282 -0.6992
C8 C -0.07279(16) -0.23254(13) -0.62417(13)
H10 H 0.0167 -0.2444 -0.6198
H11 H -0.0878 -0.1758 -0.6819
C9 C -0.04725(14) -0.61565(12) -0.53520(14)
H12 H 0.0259 -0.6591 -0.5596
C10 C -0.15513(16) -0.63354(13) -0.61686(14)
H13 H -0.1997 -0.7028 -0.5992
H14 H -0.1252 -0.6377 -0.6941
C11 C -0.23907(14) -0.53059(13) -0.60061(14)
H15 H -0.3012 -0.5458 -0.5430
H16 H -0.2818 -0.5125 -0.6706
C12 C -0.15412(12) -0.43027(11) -0.56396(10)
C13 C -0.20844(12) -0.37066(11) -0.46034(11)
C14 C -0.17630(13) -0.25229(12) -0.43952(12)
H17 H -0.1988 -0.2207 -0.3705
C15 C -0.11661(13) -0.18688(11) -0.51359(13)
C16 C -0.08676(16) -0.06468(13) -0.49029(17)
H18 H -0.1234 -0.0426 -0.4196
H19 H -0.1200 -0.0183 -0.5498
H20 H 0.0021 -0.0550 -0.4866
C17 C -0.1037(3) -0.76710(18) -0.4075(2)
H21 H -0.1753 -0.7877 -0.4517
H22 H -0.1186 -0.7853 -0.3297
H23 H -0.0321 -0.8082 -0.4340
loop_
_geom_bond_atom_site_label_1
_geom_bond_atom_site_label_2
_geom_bond_site_symmetry_1
_geom_bond_site_symmetry_2
O1 C13 1_555 1_555
O2 C5 1_555 1_555
N1 C1 1_555 1_555
C1 H1 1_555 1_555
H2 C1 1_555 1_555
C2 C1 1_555 1_555
H3 C2 1_555 1_555
H4 C2 1_555 1_555
C3 C2 1_555 1_555
H5 C3 1_555 1_555
H6 C3 1_555 1_555
C4 C3 1_555 1_555
C5 C4 1_555 1_555
C6 C5 1_555 1_555
H7 C6 1_555 1_555
H8 C6 1_555 1_555
C7 C6 1_555 1_555
H9 C7 1_555 1_555
C8 C7 1_555 1_555
H10 C8 1_555 1_555
H11 C8 1_555 1_555
C9 N1 1_555 1_555
H12 C9 1_555 1_555
C10 C9 1_555 1_555
H13 C10 1_555 1_555
H14 C10 1_555 1_555
C11 C10 1_555 1_555
H15 C11 1_555 1_555
H16 C11 1_555 1_555
C12 C4 1_555 1_555
C13 C12 1_555 1_555
C14 C13 1_555 1_555
H17 C14 1_555 1_555
C15 C8 1_555 1_555
C16 C15 1_555 1_555
H18 C16 1_555 1_555
H19 C16 1_555 1_555
H20 C16 1_555 1_555
C17 N1 1_555 1_555
H21 C17 1_555 1_555
H22 C17 1_555 1_555
H23 C17 1_555 1_555
C4 C9 1_555 1_555
C7 C12 1_555 1_555
C11 C12 1_555 1_555
C14 C15 1_555 1_555

#END
