
#######################################################################
#
#                 Cambridge Crystallographic Data Centre
#                                CCDC 
#
#######################################################################
#
# If this CIF has been generated from an entry in the Cambridge 
# Structural Database, then it will include bibliographic, chemical, 
# crystal, experimental, refinement or atomic coordinate data resulting 
# from the CCDC's data processing and validation procedures.
#
#######################################################################

data_PEBCAC
_chemical_formula_moiety         'C17 H19 B1 Br1 N1 O3'
_chemical_name_systematic        
8'-Bromo-4,4,5,5-tetramethyl-2H-spiro[1,3,2-dioxaborolane-2,6'-pyrido[1,2-b][4,2,1]benzoxazaborinine]
_symmetry_cell_setting           orthorhombic
_symmetry_space_group_name_H-M   'P 21 21 21'
_symmetry_Int_Tables_number      19
_space_group_name_Hall           'P 2ac 2ab'
loop_
_symmetry_equiv_pos_site_id
_symmetry_equiv_pos_as_xyz
1 x,y,z
2 1/2-x,-y,1/2+z
3 1/2+x,1/2-y,-z
4 -x,1/2+y,1/2-z
_cell_length_a                   7.3840(3)
_cell_length_b                   11.9448(5)
_cell_length_c                   19.0988(6)
_cell_angle_alpha                90
_cell_angle_beta                 90
_cell_angle_gamma                90
_cell_volume                     1684.52
_exptl_crystal_colour            colorless
_exptl_crystal_description       prism
_cell_formula_units_Z            4
loop_
_atom_site_label
_atom_site_type_symbol
_atom_site_fract_x
_atom_site_fract_y
_atom_site_fract_z
Br1 Br -0.02660(3) 0.861148(19) 0.124703(10)
O1 O 0.47262(19) 0.93138(11) 0.39212(6)
O2 O 0.28100(18) 1.07925(12) 0.36337(7)
O3 O 0.1543(2) 0.74850(12) 0.42500(7)
N1 N 0.1826(2) 0.93603(15) 0.45635(8)
B1 B 0.2852(3) 0.96213(19) 0.38055(13)
C1 C 0.5828(3) 1.01595(18) 0.35942(10)
C2 C 0.4640(3) 1.12311(16) 0.36579(9)
C3 C 0.6163(3) 0.9813(2) 0.28306(11)
H1 H 0.6718 0.9086 0.2820
H2 H 0.6950 1.0347 0.2611
H3 H 0.5031 0.9788 0.2584
C4 C 0.7640(3) 1.0204(2) 0.39767(12)
H4 H 0.7432 1.0288 0.4470
H5 H 0.8332 1.0829 0.3808
H6 H 0.8297 0.9524 0.3893
C5 C 0.4924(3) 1.18242(18) 0.43605(10)
H7 H 0.4017 1.2392 0.4419
H8 H 0.6103 1.2162 0.4369
H9 H 0.4830 1.1290 0.4734
C6 C 0.4859(3) 1.20740(18) 0.30713(10)
H10 H 0.4529 1.1733 0.2634
H11 H 0.6097 1.2317 0.3050
H12 H 0.4088 1.2707 0.3157
C7 C 0.1512(3) 1.0181(2) 0.50427(10)
H13 H 0.1733 1.0921 0.4919
C8 C 0.0879(3) 0.9949(2) 0.57019(11)
H14 H 0.0652 1.0522 0.6019
C9 C 0.0586(3) 0.8835(2) 0.58844(11)
H15 H 0.0207 0.8656 0.6335
C10 C 0.0853(3) 0.8003(2) 0.54050(11)
H16 H 0.0660 0.7257 0.5522
C11 C 0.1420(3) 0.83051(18) 0.47388(11)
C12 C 0.1211(3) 0.77722(18) 0.35447(10)
C13 C 0.1741(3) 0.88083(17) 0.32936(10)
C14 C 0.1271(3) 0.90482(18) 0.25967(10)
H17 H 0.1567 0.9738 0.2402
C15 C 0.0368(3) 0.82563(17) 0.22006(10)
C16 C -0.0102(3) 0.72107(16) 0.24587(10)
H18 H -0.0689 0.6689 0.2177
C17 C 0.0327(3) 0.69648(17) 0.31492(10)
H19 H 0.0029 0.6274 0.3343
loop_
_geom_bond_atom_site_label_1
_geom_bond_atom_site_label_2
_geom_bond_site_symmetry_1
_geom_bond_site_symmetry_2
Br1 C15 1_555 1_555
O1 B1 1_555 1_555
O2 B1 1_555 1_555
O3 C11 1_555 1_555
N1 B1 1_555 1_555
B1 C13 1_555 1_555
C1 O1 1_555 1_555
C2 O2 1_555 1_555
C3 C1 1_555 1_555
H1 C3 1_555 1_555
H2 C3 1_555 1_555
H3 C3 1_555 1_555
C4 C1 1_555 1_555
H4 C4 1_555 1_555
H5 C4 1_555 1_555
H6 C4 1_555 1_555
C5 C2 1_555 1_555
H7 C5 1_555 1_555
H8 C5 1_555 1_555
H9 C5 1_555 1_555
C6 C2 1_555 1_555
H10 C6 1_555 1_555
H11 C6 1_555 1_555
H12 C6 1_555 1_555
C7 N1 1_555 1_555
H13 C7 1_555 1_555
C8 C7 1_555 1_555
H14 C8 1_555 1_555
C9 C8 1_555 1_555
H15 C9 1_555 1_555
C10 C9 1_555 1_555
H16 C10 1_555 1_555
C11 N1 1_555 1_555
C12 O3 1_555 1_555
C13 C12 1_555 1_555
C14 C13 1_555 1_555
H17 C14 1_555 1_555
C15 C14 1_555 1_555
C16 C15 1_555 1_555
H18 C16 1_555 1_555
C17 C12 1_555 1_555
H19 C17 1_555 1_555
C1 C2 1_555 1_555
C10 C11 1_555 1_555
C16 C17 1_555 1_555

#END
