
#######################################################################
#
#                 Cambridge Crystallographic Data Centre
#                                CCDC 
#
#######################################################################
#
# If this CIF has been generated from an entry in the Cambridge 
# Structural Database, then it will include bibliographic, chemical, 
# crystal, experimental, refinement or atomic coordinate data resulting 
# from the CCDC's data processing and validation procedures.
#
#######################################################################

data_PEBDUY
_chemical_formula_moiety         'C22 H24 N2 O2 S1'
_chemical_name_systematic        
9-methyl-2-((4-methylphenyl)sulfonyl)-4-(prop-1-en-2-yl)-2,3,4,9-tetrahydro-1H-\b-carboline
_symmetry_cell_setting           monoclinic
_symmetry_space_group_name_H-M   'P 21'
_symmetry_Int_Tables_number      4
_space_group_name_Hall           'P 2yb'
loop_
_symmetry_equiv_pos_site_id
_symmetry_equiv_pos_as_xyz
1 x,y,z
2 -x,1/2+y,-z
_cell_length_a                   13.226(3)
_cell_length_b                   6.2835(15)
_cell_length_c                   13.615(3)
_cell_angle_alpha                90
_cell_angle_beta                 92.018(7)
_cell_angle_gamma                90
_cell_volume                     1130.78
_exptl_crystal_colour            colorless
_exptl_crystal_description       block
_cell_formula_units_Z            2
loop_
_atom_site_label
_atom_site_type_symbol
_atom_site_fract_x
_atom_site_fract_y
_atom_site_fract_z
S1 S 0.21077(5) 0.87519(11) 0.30893(4)
O1 O 0.28790(15) 0.7938(4) 0.37437(13)
O2 O 0.19792(18) 1.0973(3) 0.29775(14)
N1 N 0.36021(13) 0.3456(3) 0.06918(14)
N2 N 0.23501(15) 0.7828(3) 0.19980(13)
C1 C 0.37194(16) 0.3553(5) -0.03091(17)
C2 C 0.4237(2) 0.2130(5) -0.0908(2)
H1 H 0.4586 0.0963 -0.0647
C3 C 0.4201(3) 0.2548(7) -0.1894(3)
H2 H 0.4529 0.1630 -0.2314
C4 C 0.3686(2) 0.4307(6) -0.2294(2)
H3 H 0.3682 0.4533 -0.2969
C5 C 0.31828(19) 0.5720(5) -0.17016(18)
H4 H 0.2849 0.6900 -0.1968
C6 C 0.31908(16) 0.5315(4) -0.06806(16)
C7 C 0.27495(17) 0.6358(4) 0.01345(16)
C8 C 0.30190(16) 0.5193(4) 0.09397(16)
C9 C 0.27329(19) 0.5609(4) 0.19733(16)
H5 H 0.2212 0.4621 0.2166
H6 H 0.3316 0.5446 0.2419
C10 C 0.16239(17) 0.8354(4) 0.11929(15)
H7 H 0.1335 0.9747 0.1308
H8 H 0.1078 0.7323 0.1177
C11 C 0.21404(16) 0.8351(4) 0.02008(15)
H9 H 0.2608 0.9561 0.0194
C12 C 0.13532(16) 0.8668(5) -0.06244(15)
C13 C 0.0639(2) 0.6918(6) -0.0847(2)
H10 H 0.0185 0.7330 -0.1379
H11 H 0.0260 0.6610 -0.0276
H12 H 0.1009 0.5674 -0.1032
C14 C 0.1332(2) 1.0491(6) -0.1130(2)
H13 H 0.0855 1.0686 -0.1641
H14 H 0.1793 1.1564 -0.0971
C15 C 0.0936(2) 0.7690(4) 0.34158(15)
C16 C 0.0061(2) 0.8846(5) 0.32458(16)
H15 H 0.0094 1.0214 0.2989
C17 C -0.0865(2) 0.7968(6) 0.34570(19)
H16 H -0.1451 0.8762 0.3341
C18 C -0.0938(2) 0.5939(6) 0.38357(18)
C19 C -0.0053(3) 0.4845(6) 0.40215(18)
H17 H -0.0084 0.3497 0.4301
C20 C 0.0873(2) 0.5669(5) 0.38098(17)
H18 H 0.1457 0.4872 0.3931
C21 C -0.1956(3) 0.5003(10) 0.4045(3)
H19 H -0.2478 0.6002 0.3859
H20 H -0.1988 0.4696 0.4734
H21 H -0.2052 0.3713 0.3676
C22 C 0.4117(2) 0.2001(5) 0.1375(2)
H22 H 0.4470 0.0939 0.1014
H23 H 0.3629 0.1324 0.1777
H24 H 0.4592 0.2780 0.1786
loop_
_geom_bond_atom_site_label_1
_geom_bond_atom_site_label_2
_geom_bond_site_symmetry_1
_geom_bond_site_symmetry_2
S1 O1 1_555 1_555
O2 S1 1_555 1_555
N1 C1 1_555 1_555
N2 S1 1_555 1_555
C1 C2 1_555 1_555
C2 H1 1_555 1_555
C3 C2 1_555 1_555
H2 C3 1_555 1_555
C4 C3 1_555 1_555
H3 C4 1_555 1_555
C5 C4 1_555 1_555
H4 C5 1_555 1_555
C6 C1 1_555 1_555
C7 C6 1_555 1_555
C8 N1 1_555 1_555
C9 N2 1_555 1_555
H5 C9 1_555 1_555
H6 C9 1_555 1_555
C10 N2 1_555 1_555
H7 C10 1_555 1_555
H8 C10 1_555 1_555
C11 C7 1_555 1_555
H9 C11 1_555 1_555
C12 C11 1_555 1_555
C13 C12 1_555 1_555
H10 C13 1_555 1_555
H11 C13 1_555 1_555
H12 C13 1_555 1_555
C14 C12 1_555 1_555
H13 C14 1_555 1_555
H14 C14 1_555 1_555
C15 S1 1_555 1_555
C16 C15 1_555 1_555
H15 C16 1_555 1_555
C17 C16 1_555 1_555
H16 C17 1_555 1_555
C18 C17 1_555 1_555
C19 C18 1_555 1_555
H17 C19 1_555 1_555
C20 C15 1_555 1_555
H18 C20 1_555 1_555
C21 C18 1_555 1_555
H19 C21 1_555 1_555
H20 C21 1_555 1_555
H21 C21 1_555 1_555
C22 N1 1_555 1_555
H22 C22 1_555 1_555
H23 C22 1_555 1_555
H24 C22 1_555 1_555
C5 C6 1_555 1_555
C7 C8 1_555 1_555
C8 C9 1_555 1_555
C10 C11 1_555 1_555
C19 C20 1_555 1_555

#END
