
#######################################################################
#
#                 Cambridge Crystallographic Data Centre
#                                CCDC 
#
#######################################################################
#
# If this CIF has been generated from an entry in the Cambridge 
# Structural Database, then it will include bibliographic, chemical, 
# crystal, experimental, refinement or atomic coordinate data resulting 
# from the CCDC's data processing and validation procedures.
#
#######################################################################

data_PEBDIM
_chemical_formula_moiety         'C19 H21 N1 O2 S1'
_chemical_name_systematic        
1-((4-methylphenyl)sulfonyl)-2,3,4,4a,5,9b-hexahydro-1H-indeno[1,2-b]pyridine
_symmetry_cell_setting           monoclinic
_symmetry_space_group_name_H-M   'P 21/c'
_symmetry_Int_Tables_number      14
_space_group_name_Hall           '-P 2ybc'
loop_
_symmetry_equiv_pos_site_id
_symmetry_equiv_pos_as_xyz
1 x,y,z
2 -x,1/2+y,1/2-z
3 -x,-y,-z
4 x,1/2-y,1/2+z
_cell_length_a                   10.2375(2)
_cell_length_b                   9.4009(2)
_cell_length_c                   16.6135(4)
_cell_angle_alpha                90
_cell_angle_beta                 98.412(2)
_cell_angle_gamma                90
_cell_volume                     1581.71
_exptl_crystal_colour            colorless
_exptl_crystal_description       Block
_cell_formula_units_Z            4
loop_
_atom_site_label
_atom_site_type_symbol
_atom_site_fract_x
_atom_site_fract_y
_atom_site_fract_z
C1 C 0.21060(10) 0.46533(10) 0.34885(6)
H1 H 0.1569 0.4759 0.2939
C2 C 0.33608(10) 0.54999(11) 0.34934(6)
C3 C 0.45244(10) 0.50982(11) 0.32182(6)
H2 H 0.4641 0.4154 0.3038
C4 C 0.55163(10) 0.61096(12) 0.32132(7)
H3 H 0.6322 0.5856 0.3031
C5 C 0.53296(11) 0.74888(12) 0.34743(7)
H4 H 0.6009 0.8173 0.3463
C6 C 0.41651(10) 0.78852(11) 0.37522(6)
H5 H 0.4045 0.8831 0.3929
C7 C 0.31797(10) 0.68732(11) 0.37667(6)
C8 C 0.18281(10) 0.70201(11) 0.40155(7)
C9 C 0.13888(10) 0.54702(11) 0.41080(6)
H6 H 0.0410 0.5383 0.3959
C10 C 0.18233(10) 0.49497(11) 0.49804(6)
H7 H 0.2735 0.5281 0.5168
H8 H 0.1240 0.5373 0.5342
C11 C 0.17786(11) 0.33429(11) 0.50495(6)
H9 H 0.0866 0.2999 0.4878
H10 H 0.2058 0.3051 0.5621
C12 C 0.26992(10) 0.27009(12) 0.45079(6)
H11 H 0.3614 0.3019 0.4698
H12 H 0.2677 0.1651 0.4551
C13 C -0.00752(10) 0.17629(11) 0.33005(6)
C14 C -0.10372(10) 0.27858(11) 0.30595(6)
H13 H -0.0845 0.3575 0.2739
C15 C -0.22754(10) 0.26435(11) 0.32901(6)
H14 H -0.2933 0.3337 0.3120
C16 C -0.25774(10) 0.15034(11) 0.37662(6)
C17 C -0.16045(11) 0.04928(12) 0.39980(7)
H15 H -0.1797 -0.0294 0.4320
C18 C -0.03534(10) 0.06086(11) 0.37689(6)
H16 H 0.0301 -0.0093 0.3931
C19 C -0.39255(11) 0.13883(13) 0.40281(7)
H17 H -0.3951 0.0554 0.4379
H18 H -0.4597 0.1290 0.3547
H19 H -0.4103 0.2247 0.4329
N1 N 0.23181(8) 0.31228(9) 0.36461(5)
O1 O 0.13763(7) 0.25592(8) 0.22263(4)
O2 O 0.21797(7) 0.06230(8) 0.31862(5)
S1 S 0.15189(2) 0.19605(3) 0.30292(2)
H20 H 0.1816(12) 0.7692(13) 0.4550(7)
H21 H 0.1234(12) 0.7481(13) 0.3615(7)
loop_
_geom_bond_atom_site_label_1
_geom_bond_atom_site_label_2
_geom_bond_site_symmetry_1
_geom_bond_site_symmetry_2
C1 H1 1_555 1_555
C2 C1 1_555 1_555
C3 C2 1_555 1_555
H2 C3 1_555 1_555
C4 C3 1_555 1_555
H3 C4 1_555 1_555
C5 C4 1_555 1_555
H4 C5 1_555 1_555
C6 C5 1_555 1_555
H5 C6 1_555 1_555
C7 C2 1_555 1_555
C8 C7 1_555 1_555
C9 C1 1_555 1_555
H6 C9 1_555 1_555
C10 C9 1_555 1_555
H7 C10 1_555 1_555
H8 C10 1_555 1_555
C11 C10 1_555 1_555
H9 C11 1_555 1_555
H10 C11 1_555 1_555
C12 C11 1_555 1_555
H11 C12 1_555 1_555
H12 C12 1_555 1_555
C13 C14 1_555 1_555
C14 H13 1_555 1_555
C15 C14 1_555 1_555
H14 C15 1_555 1_555
C16 C15 1_555 1_555
C17 C16 1_555 1_555
H15 C17 1_555 1_555
C18 C13 1_555 1_555
H16 C18 1_555 1_555
C19 C16 1_555 1_555
H17 C19 1_555 1_555
H18 C19 1_555 1_555
H19 C19 1_555 1_555
N1 C1 1_555 1_555
O1 S1 1_555 1_555
O2 S1 1_555 1_555
S1 C13 1_555 1_555
H20 C8 1_555 1_555
H21 C8 1_555 1_555
C6 C7 1_555 1_555
C8 C9 1_555 1_555
C12 N1 1_555 1_555
C17 C18 1_555 1_555
N1 S1 1_555 1_555

#END
