
#######################################################################
#
#                 Cambridge Crystallographic Data Centre
#                                CCDC 
#
#######################################################################
#
# If this CIF has been generated from an entry in the Cambridge 
# Structural Database, then it will include bibliographic, chemical, 
# crystal, experimental, refinement or atomic coordinate data resulting 
# from the CCDC's data processing and validation procedures.
#
#######################################################################

data_PEBDAE
_chemical_formula_moiety         'C20 H24 Cl1 N1 O2 S1'
_chemical_name_systematic        
2-(4-chlorophenyl)-5,5-dimethyl-1-((4-methylphenyl)sulfonyl)piperidine
_symmetry_cell_setting           monoclinic
_symmetry_space_group_name_H-M   'P 21/c'
_symmetry_Int_Tables_number      14
_space_group_name_Hall           '-P 2ybc'
loop_
_symmetry_equiv_pos_site_id
_symmetry_equiv_pos_as_xyz
1 x,y,z
2 -x,1/2+y,1/2-z
3 -x,-y,-z
4 x,1/2-y,1/2+z
_cell_length_a                   9.59310(10)
_cell_length_b                   12.8055(2)
_cell_length_c                   15.6673(2)
_cell_angle_alpha                90
_cell_angle_beta                 102.1500(10)
_cell_angle_gamma                90
_cell_volume                     1881.53
_exptl_crystal_colour            colorless
_exptl_crystal_description       block
_cell_formula_units_Z            4
loop_
_atom_site_label
_atom_site_type_symbol
_atom_site_fract_x
_atom_site_fract_y
_atom_site_fract_z
C1 C 0.17931(6) 0.06742(5) 0.86894(4)
H1 H 0.1481 0.0420 0.9223
C2 C 0.30594(6) 0.14125(5) 0.89960(4)
C3 C 0.28185(7) 0.24722(5) 0.91267(5)
H2 H 0.1875 0.2738 0.8971
C4 C 0.39300(8) 0.31470(5) 0.94793(5)
H3 H 0.3749 0.3864 0.9567
C5 C 0.53090(7) 0.27528(6) 0.97003(5)
C6 C 0.55932(7) 0.17095(6) 0.95710(4)
H4 H 0.6542 0.1451 0.9720
C7 C 0.44655(7) 0.10435(5) 0.92179(4)
H5 H 0.4655 0.0329 0.9127
C8 C 0.21164(7) -0.02954(5) 0.81861(4)
H6 H 0.3001 -0.0630 0.8510
H7 H 0.1329 -0.0805 0.8147
C9 C 0.22942(6) -0.00165(5) 0.72664(4)
H8 H 0.2466 -0.0663 0.6958
H9 H 0.3140 0.0439 0.7308
C10 C 0.09778(6) 0.05453(5) 0.67333(4)
C11 C 0.06715(7) 0.15061(5) 0.72526(4)
H10 H 0.1439 0.2027 0.7267
H11 H -0.0237 0.1828 0.6951
C12 C -0.03078(7) -0.01973(5) 0.65412(4)
H12 H -0.1121 0.0160 0.6174
H13 H -0.0558 -0.0408 0.7091
H14 H -0.0065 -0.0817 0.6236
C13 C 0.13022(9) 0.09259(6) 0.58689(5)
H15 H 0.2167 0.1355 0.5987
H16 H 0.0500 0.1343 0.5555
H17 H 0.1447 0.0323 0.5512
C14 C -0.20054(6) 0.04518(5) 0.83158(4)
C15 C -0.31062(6) 0.04506(5) 0.75745(4)
H18 H -0.3241 0.1031 0.7188
C16 C -0.40052(6) -0.04145(5) 0.74083(4)
H19 H -0.4745 -0.0424 0.6899
C17 C -0.38375(7) -0.12691(5) 0.79789(4)
C18 C -0.27210(8) -0.12473(5) 0.87168(4)
H20 H -0.2592 -0.1822 0.9109
C19 C -0.17990(7) -0.03983(5) 0.88838(4)
H21 H -0.1035 -0.0398 0.9381
C20 C -0.48133(8) -0.22017(6) 0.78004(5)
H22 H -0.5740 -0.1984 0.7454
H23 H -0.4942 -0.2500 0.8355
H24 H -0.4392 -0.2728 0.7477
Cl1 Cl 0.67052(2) 0.35888(2) 1.01444(2)
N1 N 0.05769(5) 0.12432(4) 0.81548(3)
O1 O -0.15196(5) 0.23955(4) 0.80409(4)
O2 O -0.03798(6) 0.15954(4) 0.94696(3)
S1 S -0.08286(2) 0.15240(2) 0.85332(2)
loop_
_geom_bond_atom_site_label_1
_geom_bond_atom_site_label_2
_geom_bond_site_symmetry_1
_geom_bond_site_symmetry_2
C1 H1 1_555 1_555
C2 C1 1_555 1_555
C3 C2 1_555 1_555
H2 C3 1_555 1_555
C4 C3 1_555 1_555
H3 C4 1_555 1_555
C5 C4 1_555 1_555
C6 C5 1_555 1_555
H4 C6 1_555 1_555
C7 C2 1_555 1_555
H5 C7 1_555 1_555
C8 C1 1_555 1_555
H6 C8 1_555 1_555
H7 C8 1_555 1_555
C9 C8 1_555 1_555
H8 C9 1_555 1_555
H9 C9 1_555 1_555
C10 C9 1_555 1_555
C11 C10 1_555 1_555
H10 C11 1_555 1_555
H11 C11 1_555 1_555
C12 C10 1_555 1_555
H12 C12 1_555 1_555
H13 C12 1_555 1_555
H14 C12 1_555 1_555
C13 C10 1_555 1_555
H15 C13 1_555 1_555
H16 C13 1_555 1_555
H17 C13 1_555 1_555
C14 C15 1_555 1_555
C15 H18 1_555 1_555
C16 C15 1_555 1_555
H19 C16 1_555 1_555
C17 C16 1_555 1_555
C18 C17 1_555 1_555
H20 C18 1_555 1_555
C19 C14 1_555 1_555
H21 C19 1_555 1_555
C20 C17 1_555 1_555
H22 C20 1_555 1_555
H23 C20 1_555 1_555
H24 C20 1_555 1_555
Cl1 C5 1_555 1_555
N1 C1 1_555 1_555
O1 S1 1_555 1_555
O2 S1 1_555 1_555
S1 C14 1_555 1_555
C6 C7 1_555 1_555
C11 N1 1_555 1_555
C18 C19 1_555 1_555
N1 S1 1_555 1_555

#END
