
#######################################################################
#
#                 Cambridge Crystallographic Data Centre
#                                CCDC 
#
#######################################################################
#
# If this CIF has been generated from an entry in the Cambridge 
# Structural Database, then it will include bibliographic, chemical, 
# crystal, experimental, refinement or atomic coordinate data resulting 
# from the CCDC's data processing and validation procedures.
#
#######################################################################

data_PEBDOS
_chemical_formula_moiety         'C24 H24 Cl1 N1 O5'
_chemical_name_systematic        
'ethyl 2-(4-chlorobenzyl)-6-hydroxy-6-methyl-1,3-dioxo-5-phenylhexahydrocyclopenta[c]pyrrole-3a(1H)-carboxylate'
_symmetry_cell_setting           monoclinic
_symmetry_space_group_name_H-M   'P 21'
_symmetry_Int_Tables_number      4
_space_group_name_Hall           'P 2yb'
loop_
_symmetry_equiv_pos_site_id
_symmetry_equiv_pos_as_xyz
1 x,y,z
2 -x,1/2+y,-z
_cell_length_a                   9.9750(2)
_cell_length_b                   8.9417(2)
_cell_length_c                   12.2426(3)
_cell_angle_alpha                90
_cell_angle_beta                 101.0430(10)
_cell_angle_gamma                90
_cell_volume                     1071.74
_exptl_crystal_colour            colorless
_exptl_crystal_description       needle
_cell_formula_units_Z            2
_exptl_crystal_recrystallization_method chloroform
loop_
_atom_site_label
_atom_site_type_symbol
_atom_site_fract_x
_atom_site_fract_y
_atom_site_fract_z
Cl1 Cl 0.06708(4) 0.64960(5) 1.13280(3)
O1 O 0.53405(11) 0.42804(14) 0.53210(9)
H1 H 0.548(2) 0.392(3) 0.475(2)
O2 O 0.78615(13) 0.67479(19) 0.90372(10)
O3 O 0.58094(12) 0.59115(15) 0.92567(9)
O4 O 0.47247(12) 0.79963(14) 0.68772(9)
O5 O 0.35285(12) 0.31135(14) 0.71348(10)
N1 N 0.38286(13) 0.56511(16) 0.70123(11)
C1 C 0.63242(15) 0.36894(18) 0.62203(12)
C2 C 0.76822(15) 0.45805(18) 0.63554(12)
H2 H 0.8320 0.4150 0.7010
C3 C 0.72825(15) 0.61543(18) 0.66897(13)
H3 H 0.6873 0.6747 0.6026
H4 H 0.8087 0.6696 0.7104
C4 C 0.62296(15) 0.58533(18) 0.74360(12)
C5 C 0.58182(15) 0.41831(18) 0.72876(12)
H5 H 0.6254 0.3576 0.7947
C6 C 0.42768(15) 0.41778(19) 0.71481(12)
C7 C 0.48749(15) 0.66708(19) 0.70731(11)
C8 C 0.64700(17) 0.20100(19) 0.61224(13)
H6 H 0.5576 0.1535 0.6080
H7 H 0.7105 0.1633 0.6776
H8 H 0.6824 0.1776 0.5448
C9 C 0.84023(15) 0.45196(18) 0.53778(12)
C10 C 0.79503(16) 0.53336(19) 0.43982(13)
H9 H 0.7143 0.5919 0.4323
C11 C 0.86750(17) 0.52909(19) 0.35355(13)
H10 H 0.8362 0.5853 0.2878
C12 C 0.98562(16) 0.4432(2) 0.36266(13)
H11 H 1.0353 0.4412 0.3038
C13 C 1.02987(16) 0.3609(2) 0.45861(14)
H12 H 1.1099 0.3013 0.4653
C14 C 0.95770(16) 0.3648(2) 0.54516(14)
H13 H 0.9888 0.3073 0.6103
C15 C 0.67629(15) 0.62434(18) 0.86619(12)
C16 C 0.61357(17) 0.6237(2) 1.04491(12)
H14 H 0.6113 0.7329 1.0578
H15 H 0.7058 0.5860 1.0776
C17 C 0.5073(2) 0.5461(2) 1.09654(14)
H16 H 0.4166 0.5844 1.0633
H17 H 0.5254 0.5651 1.1769
H18 H 0.5108 0.4383 1.0831
C18 C 0.23851(15) 0.6077(2) 0.68735(13)
H19 H 0.1814 0.5327 0.6403
H20 H 0.2242 0.7057 0.6492
C19 C 0.19515(15) 0.61777(19) 0.79927(13)
C20 C 0.20421(16) 0.7529(2) 0.85623(14)
H21 H 0.2378 0.8388 0.8245
C21 C 0.16475(16) 0.7645(2) 0.95932(14)
H22 H 0.1694 0.8575 0.9974
C22 C 0.11880(15) 0.6372(2) 1.00456(12)
C23 C 0.11211(17) 0.5000(2) 0.95154(14)
H23 H 0.0827 0.4134 0.9852
C24 C 0.14935(16) 0.4915(2) 0.84791(14)
H24 H 0.1435 0.3984 0.8098
loop_
_geom_bond_atom_site_label_1
_geom_bond_atom_site_label_2
_geom_bond_site_symmetry_1
_geom_bond_site_symmetry_2
Cl1 C22 1_555 1_555
O1 H1 1_555 1_555
O2 C15 1_555 1_555
O3 C15 1_555 1_555
O4 C7 1_555 1_555
O5 C6 1_555 1_555
N1 C6 1_555 1_555
C1 O1 1_555 1_555
C2 C1 1_555 1_555
H2 C2 1_555 1_555
C3 C2 1_555 1_555
H3 C3 1_555 1_555
H4 C3 1_555 1_555
C4 C3 1_555 1_555
C5 C1 1_555 1_555
H5 C5 1_555 1_555
C6 C5 1_555 1_555
C7 N1 1_555 1_555
C8 C1 1_555 1_555
H6 C8 1_555 1_555
H7 C8 1_555 1_555
H8 C8 1_555 1_555
C9 C2 1_555 1_555
C10 C9 1_555 1_555
H9 C10 1_555 1_555
C11 C10 1_555 1_555
H10 C11 1_555 1_555
C12 C11 1_555 1_555
H11 C12 1_555 1_555
C13 C12 1_555 1_555
H12 C13 1_555 1_555
C14 C9 1_555 1_555
H13 C14 1_555 1_555
C15 C4 1_555 1_555
C16 O3 1_555 1_555
H14 C16 1_555 1_555
H15 C16 1_555 1_555
C17 C16 1_555 1_555
H16 C17 1_555 1_555
H17 C17 1_555 1_555
H18 C17 1_555 1_555
C18 N1 1_555 1_555
H19 C18 1_555 1_555
H20 C18 1_555 1_555
C19 C18 1_555 1_555
C20 C19 1_555 1_555
H21 C20 1_555 1_555
C21 C20 1_555 1_555
H22 C21 1_555 1_555
C22 C21 1_555 1_555
C23 C22 1_555 1_555
H23 C23 1_555 1_555
C24 C19 1_555 1_555
H24 C24 1_555 1_555
C4 C5 1_555 1_555
C4 C7 1_555 1_555
C13 C14 1_555 1_555
C23 C24 1_555 1_555

#END
