
#######################################################################
#
#                 Cambridge Crystallographic Data Centre
#                                CCDC 
#
#######################################################################
#
# If this CIF has been generated from an entry in the Cambridge 
# Structural Database, then it will include bibliographic, chemical, 
# crystal, experimental, refinement or atomic coordinate data resulting 
# from the CCDC's data processing and validation procedures.
#
#######################################################################

data_PEBFIM
_chemical_formula_moiety         'C24 H22'
_chemical_name_systematic        
meso-1,2-bis(1,4-Cyclopentadienyl)-1,2-diphenylethane
_symmetry_cell_setting           monoclinic
_symmetry_space_group_name_H-M   'C 2/c'
_symmetry_Int_Tables_number      15
_space_group_name_Hall           '-C 2yn'
loop_
_symmetry_equiv_pos_site_id
_symmetry_equiv_pos_as_xyz
1 x,y,z
2 1/2+x,1/2+y,z
3 -x,y,1/2-z
4 1/2-x,1/2+y,1/2-z
5 -x,-y,-z
6 1/2-x,1/2-y,-z
7 x,-y,1/2+z
8 1/2+x,1/2-y,1/2+z
_cell_length_a                   15.889(6)
_cell_length_b                   7.991(3)
_cell_length_c                   14.745(6)
_cell_angle_alpha                90
_cell_angle_beta                 105.978(7)
_cell_angle_gamma                90
_cell_volume                     1799.83
_exptl_crystal_colour            white
_chemical_melting_point          105-106deg.C
_cell_formula_units_Z            4
_exptl_crystal_recrystallization_method pentane/dichloromethane
loop_
_atom_site_label
_atom_site_type_symbol
_atom_site_fract_x
_atom_site_fract_y
_atom_site_fract_z
C1 C 0.2481(3) 0.1669(6) 0.5196(3)
H1 H 0.2125 0.1010 0.4669
C2 C 0.1997(2) 0.1554(5) 0.5962(3)
C3 C 0.2175(3) 0.2496(5) 0.6767(3)
H2 H 0.2593 0.3340 0.6856
C4 C 0.1754(4) 0.2224(7) 0.7436(3)
H3 H 0.1885 0.2885 0.7976
C5 C 0.1169(4) 0.1048(9) 0.7332(4)
H4 H 0.0887 0.0870 0.7799
C6 C 0.0969(3) 0.0088(7) 0.6555(5)
H5 H 0.0551 -0.0752 0.6484
C7 C 0.1387(3) 0.0353(5) 0.5862(3)
H6 H 0.1245 -0.0305 0.5321
C8 C 0.3354(2) 0.0784(5) 0.5479(3)
C9 C 0.4100(3) 0.1255(6) 0.6179(3)
H7 H 0.4167 0.2229 0.6536
C10 C 0.4736(3) -0.0008(7) 0.6252(3)
H8 H 0.5297 -0.0005 0.6662
C11 C 0.4380(3) -0.1246(6) 0.5609(3)
H9 H 0.4366 -0.2301 0.5930
H10 H 0.4725 -0.1390 0.5164
C12 C 0.3509(3) -0.0714(5) 0.5129(3)
H11 H 0.3114 -0.1305 0.4654
C1E C 0.2519(3) 0.3331(6) 0.4804(3)
H1E H 0.2875 0.3990 0.5331
C2E C 0.3003(2) 0.3446(5) 0.4038(3)
C3E C 0.2825(3) 0.2504(5) 0.3233(3)
H2E H 0.2407 0.1660 0.3144
C4E C 0.3246(4) 0.2776(7) 0.2564(3)
H3E H 0.3115 0.2115 0.2024
C5E C 0.3831(4) 0.3952(9) 0.2668(4)
H4E H 0.4113 0.4130 0.2201
C6E C 0.4031(3) 0.4912(7) 0.3445(5)
H5E H 0.4449 0.5752 0.3516
C7E C 0.3613(3) 0.4647(5) 0.4138(3)
H6E H 0.3755 0.5305 0.4679
C8E C 0.1646(2) 0.4216(5) 0.4521(3)
C9E C 0.0900(3) 0.3745(6) 0.3821(3)
H7E H 0.0833 0.2771 0.3464
C10E C 0.0264(3) 0.5008(7) 0.3748(3)
H8E H -0.0297 0.5005 0.3338
C11E C 0.0620(3) 0.6246(6) 0.4391(3)
H9E H 0.0634 0.7301 0.4070
H10E H 0.0275 0.6390 0.4836
C12E C 0.1491(3) 0.5714(5) 0.4871(3)
H11E H 0.1886 0.6305 0.5346
loop_
_geom_bond_atom_site_label_1
_geom_bond_atom_site_label_2
_geom_bond_site_symmetry_1
_geom_bond_site_symmetry_2
C1 H1 1_555 1_555
C2 C1 1_555 1_555
C3 C2 1_555 1_555
H2 C3 1_555 1_555
C4 C3 1_555 1_555
H3 C4 1_555 1_555
C5 C4 1_555 1_555
H4 C5 1_555 1_555
C6 C5 1_555 1_555
H5 C6 1_555 1_555
C7 C2 1_555 1_555
H6 C7 1_555 1_555
C8 C1 1_555 1_555
C9 C8 1_555 1_555
H7 C9 1_555 1_555
C10 C9 1_555 1_555
H8 C10 1_555 1_555
C11 C10 1_555 1_555
H9 C11 1_555 1_555
H10 C11 1_555 1_555
C12 C8 1_555 1_555
H11 C12 1_555 1_555
C1E C1 1_555 1_555
H1E C1E 1_555 1_555
C2E C1E 1_555 1_555
C3E C2E 1_555 1_555
H2E C3E 1_555 1_555
C4E C3E 1_555 1_555
H3E C4E 1_555 1_555
C5E C4E 1_555 1_555
H4E C5E 1_555 1_555
C6E C5E 1_555 1_555
H5E C6E 1_555 1_555
C7E C2E 1_555 1_555
H6E C7E 1_555 1_555
C8E C1E 1_555 1_555
C9E C8E 1_555 1_555
H7E C9E 1_555 1_555
C10E C9E 1_555 1_555
H8E C10E 1_555 1_555
C11E C10E 1_555 1_555
H9E C11E 1_555 1_555
H10E C11E 1_555 1_555
C12E C8E 1_555 1_555
H11E C12E 1_555 1_555
C6 C7 1_555 1_555
C11 C12 1_555 1_555
C6E C7E 1_555 1_555
C11E C12E 1_555 1_555

#END
