
#######################################################################
#
#                 Cambridge Crystallographic Data Centre
#                                CCDC 
#
#######################################################################
#
# If this CIF has been generated from an entry in the Cambridge 
# Structural Database, then it will include bibliographic, chemical, 
# crystal, experimental, refinement or atomic coordinate data resulting 
# from the CCDC's data processing and validation procedures.
#
#######################################################################

data_PEBLIU
_chemical_formula_moiety         'C9 H8 F3 N1 O2 S1'
_chemical_name_systematic        
N-((2-hydroxyphenyl)(trifluoromethyl)sulfanylidene)acetamide
_symmetry_cell_setting           orthorhombic
_symmetry_space_group_name_H-M   'P b c a'
_symmetry_Int_Tables_number      61
_space_group_name_Hall           '-P 2ac 2ab'
loop_
_symmetry_equiv_pos_site_id
_symmetry_equiv_pos_as_xyz
1 x,y,z
2 1/2+x,1/2-y,-z
3 -x,1/2+y,1/2-z
4 1/2-x,-y,1/2+z
5 -x,-y,-z
6 1/2-x,1/2+y,z
7 x,1/2-y,1/2+z
8 1/2+x,y,1/2-z
_cell_length_a                   14.0598(7)
_cell_length_b                   7.5447(2)
_cell_length_c                   19.6121(14)
_cell_angle_alpha                90
_cell_angle_beta                 90
_cell_angle_gamma                90
_cell_volume                     2080.39
_exptl_crystal_colour            colorless
_exptl_crystal_description       prism
_cell_formula_units_Z            8
loop_
_atom_site_label
_atom_site_type_symbol
_atom_site_fract_x
_atom_site_fract_y
_atom_site_fract_z
S1 S -0.04283(4) 0.24241(7) 0.07740(3)
F1 F 0.04451(16) 0.4500(3) 0.16612(10)
F2 F 0.09962(12) 0.4648(2) 0.06639(10)
F3 F -0.03151(13) 0.5850(2) 0.08851(13)
N1 N -0.12419(13) 0.2305(3) 0.13697(9)
O1 O -0.22273(12) 0.3680(3) 0.05969(9)
O2 O 0.10858(12) 0.1070(2) -0.00387(8)
H1 H 0.1619(15) 0.102(4) -0.0238(14)
C1 C -0.20869(15) 0.2945(3) 0.11544(11)
C2 C 0.04333(15) 0.0883(3) 0.10647(11)
C3 C 0.11235(15) 0.0374(3) 0.05946(11)
C4 C 0.18025(18) -0.0855(3) 0.07959(12)
H2 H 0.2266 -0.1228 0.0490
C5 C 0.17886(19) -0.1518(4) 0.14486(13)
H3 H 0.2252 -0.2328 0.1580
C6 C -0.28730(18) 0.2744(4) 0.16631(14)
H4 H -0.2905 0.3785 0.1943
H5 H -0.2752 0.1727 0.1944
H6 H -0.3466 0.2590 0.1428
C7 C 0.11040(18) -0.1011(4) 0.19134(13)
H7 H 0.1104 -0.1479 0.2352
C8 C 0.04148(16) 0.0205(4) 0.17190(12)
H8 H -0.0053 0.0559 0.2025
C9 C 0.02212(19) 0.4487(4) 0.10192(14)
loop_
_geom_bond_atom_site_label_1
_geom_bond_atom_site_label_2
_geom_bond_site_symmetry_1
_geom_bond_site_symmetry_2
S1 N1 1_555 1_555
F1 C9 1_555 1_555
F2 C9 1_555 1_555
F3 C9 1_555 1_555
N1 C1 1_555 1_555
O1 C1 1_555 1_555
O2 H1 1_555 1_555
C1 C6 1_555 1_555
C2 S1 1_555 1_555
C3 O2 1_555 1_555
C4 C3 1_555 1_555
H2 C4 1_555 1_555
C5 C4 1_555 1_555
H3 C5 1_555 1_555
C6 H4 1_555 1_555
H5 C6 1_555 1_555
H6 C6 1_555 1_555
C7 C5 1_555 1_555
H7 C7 1_555 1_555
C8 C2 1_555 1_555
H8 C8 1_555 1_555
C9 S1 1_555 1_555
C2 C3 1_555 1_555
C7 C8 1_555 1_555

#END
