
#######################################################################
#
#                 Cambridge Crystallographic Data Centre
#                                CCDC 
#
#######################################################################
#
# If this CIF has been generated from an entry in the Cambridge 
# Structural Database, then it will include bibliographic, chemical, 
# crystal, experimental, refinement or atomic coordinate data resulting 
# from the CCDC's data processing and validation procedures.
#
#######################################################################

data_PEBMIV
_chemical_formula_moiety         'C22 H20 Br1 N1 O8'
_chemical_name_systematic        
'10-(2-bromo-3,4,5-trimethoxyphenyl)-6a,7,9a,10-tetrahydro-6H-[1,3]dioxolo[4,5-h]furo[3,4-c][1]benzazepine-6,9(5H)-dione unknown solvate'
_symmetry_cell_setting           monoclinic
_symmetry_space_group_name_H-M   'C 2'
_symmetry_Int_Tables_number      5
_space_group_name_Hall           'C 2y'
loop_
_symmetry_equiv_pos_site_id
_symmetry_equiv_pos_as_xyz
1 x,y,z
2 -x,y,-z
3 1/2+x,1/2+y,z
4 1/2-x,1/2+y,-z
_cell_length_a                   31.256(4)
_cell_length_b                   9.8334(4)
_cell_length_c                   20.687(2)
_cell_angle_alpha                90
_cell_angle_beta                 132.01(2)
_cell_angle_gamma                90
_cell_volume                     4724.33
_exptl_crystal_colour            colorless
_exptl_crystal_description       block
_cell_formula_units_Z            8
loop_
_atom_site_label
_atom_site_type_symbol
_atom_site_fract_x
_atom_site_fract_y
_atom_site_fract_z
Br1 Br -0.02301(3) -0.05952(8) 0.24271(6)
O1 O -0.2564(3) -0.1845(8) -0.1247(4)
O2 O -0.2148(3) -0.2569(6) 0.0062(4)
O3 O -0.1556(3) -0.0642(9) -0.1121(5)
O4 O -0.0864(4) 0.5571(8) 0.1072(7)
O5 O -0.1196(3) 0.4900(7) 0.1751(5)
O6 O -0.0252(2) -0.1110(6) 0.3843(4)
O7 O -0.1175(2) -0.1284(6) 0.3726(4)
O8 O -0.2238(2) -0.0674(7) 0.2231(4)
N1 N -0.1156(3) 0.1027(8) -0.0145(5)
H1 H -0.1027 0.1401 -0.0361
C1 C -0.2630(4) -0.0550(13) -0.1652(5)
H2 H -0.3006 -0.0160 -0.1948
H3 H -0.2586 -0.0674 -0.2070
C2 C -0.2158(4) 0.0364(9) -0.0912(5)
H4 H -0.2281 0.1317 -0.1040
C3 C -0.1617(5) 0.0189(11) -0.0749(6)
C4 C -0.1180(3) 0.1993(9) 0.0359(6)
C5 C -0.0998(4) 0.3317(13) 0.0434(6)
H5 H -0.0862 0.3588 0.0168
C6 C -0.1025(4) 0.4209(10) 0.0914(7)
C7 C -0.0939(6) 0.5959(12) 0.1643(11)
H6 H -0.0568 0.6190 0.2204
H7 H -0.1182 0.6762 0.1416
C8 C -0.1204(4) 0.3850(10) 0.1337(7)
C9 C -0.1370(3) 0.2511(8) 0.1284(6)
H8 H -0.1493 0.2238 0.1567
C10 C -0.1347(3) 0.1598(8) 0.0801(5)
C11 C -0.1503(3) 0.0098(7) 0.0749(5)
H9 H -0.1226 -0.0436 0.0777
C12 C -0.2098(3) -0.0160(8) -0.0154(5)
H10 H -0.2391 0.0279 -0.0182
C13 C -0.2256(4) -0.1632(10) -0.0400(6)
C14 C -0.1430(3) -0.0324(7) 0.1515(4)
C15 C -0.0885(3) -0.0617(7) 0.2311(4)
C16 C -0.0806(3) -0.0916(7) 0.3033(5)
C17 C -0.1251(3) -0.0952(7) 0.3006(5)
C18 C -0.1809(3) -0.0658(9) 0.2213(5)
C19 C -0.1887(3) -0.0349(8) 0.1482(5)
H11 H -0.2255 -0.0155 0.0959
C20 C -0.0063(4) -0.2487(11) 0.4060(7)
H12 H 0.0005 -0.2813 0.3698
H13 H -0.0354 -0.3035 0.3969
H14 H 0.0287 -0.2541 0.4659
C21 C -0.1111(4) -0.0150(12) 0.4198(6)
H15 H -0.1455 0.0391 0.3836
H16 H -0.0790 0.0385 0.4381
H17 H -0.1045 -0.0452 0.4700
C22 C -0.2782(4) -0.0236(12) 0.1512(6)
H18 H -0.2940 -0.0838 0.1032
H19 H -0.2759 0.0667 0.1360
H20 H -0.3024 -0.0232 0.1642
Br2 Br 0.02742(3) 0.30520(7) 0.26878(6)
O9 O 0.2610(3) 0.3970(5) 0.3852(4)
O10 O 0.2169(2) 0.4779(6) 0.4273(4)
O11 O 0.1634(4) 0.2649(10) 0.1958(5)
O12 O 0.0850(4) -0.3359(7) 0.2827(7)
O13 O 0.1163(3) -0.2570(6) 0.4127(5)
O14 O 0.0243(2) 0.3819(6) 0.4064(4)
O15 O 0.1118(3) 0.3771(7) 0.5858(4)
O16 O 0.2179(2) 0.3087(7) 0.6578(3)
N2 N 0.1231(4) 0.1021(8) 0.2172(5)
H21 H 0.0930 0.1029 0.1626
C23 C 0.2695(4) 0.2618(10) 0.3635(7)
H22 H 0.3068 0.2245 0.4127
H23 H 0.2668 0.2680 0.3141
C24 C 0.2217(4) 0.1748(9) 0.3419(6)
H24 H 0.2343 0.0799 0.3575
C25 C 0.1667(5) 0.1849(12) 0.2446(8)
C26 C 0.1221(4) 0.0139(9) 0.2704(6)
C27 C 0.1019(4) -0.1188(11) 0.2421(7)
H25 H 0.0889 -0.1490 0.1890
C28 C 0.1015(4) -0.2017(11) 0.2934(7)
C29 C 0.0964(5) -0.3733(11) 0.3581(10)
H26 H 0.1254 -0.4442 0.3885
H27 H 0.0617 -0.4082 0.3430
C30 C 0.1193(4) -0.1545(9) 0.3710(7)
C31 C 0.1384(3) -0.0232(8) 0.3983(6)
H28 H 0.1516 0.0062 0.4517
C32 C 0.1378(3) 0.0629(8) 0.3464(5)
C33 C 0.1539(3) 0.2128(8) 0.3688(5)
H29 H 0.1273 0.2638 0.3142
C34 C 0.2151(3) 0.2339(7) 0.4026(5)
H30 H 0.2435 0.1923 0.4602
C35 C 0.2293(3) 0.3823(9) 0.4078(6)
C36 C 0.1445(3) 0.2620(7) 0.4274(5)
C37 C 0.0890(3) 0.3014(7) 0.3912(4)
C38 C 0.0777(3) 0.3398(7) 0.4423(6)
C39 C 0.1214(3) 0.3440(7) 0.5312(5)
C40 C 0.1779(3) 0.3024(9) 0.5707(5)
C41 C 0.1873(3) 0.2631(7) 0.5172(5)
H31 H 0.2242 0.2360 0.5426
C42 C -0.0147(4) 0.2744(11) 0.3877(7)
H32 H -0.0142 0.2018 0.3571
H33 H -0.0531 0.3101 0.3525
H34 H -0.0026 0.2403 0.4413
C43 C 0.1122(5) 0.5181(10) 0.5983(8)
H35 H 0.0763 0.5569 0.5484
H36 H 0.1432 0.5595 0.6061
H37 H 0.1175 0.5338 0.6490
C44 C 0.2709(4) 0.2448(11) 0.7019(6)
H38 H 0.2647 0.1522 0.6825
H39 H 0.2926 0.2463 0.7633
H40 H 0.2920 0.2918 0.6900
loop_
_geom_bond_atom_site_label_1
_geom_bond_atom_site_label_2
_geom_bond_site_symmetry_1
_geom_bond_site_symmetry_2
Br1 C15 1_555 1_555
O1 C1 1_555 1_555
O2 C13 1_555 1_555
O3 C3 1_555 1_555
O4 C6 1_555 1_555
O5 C7 1_555 1_555
O6 C16 1_555 1_555
O7 C17 1_555 1_555
O8 C18 1_555 1_555
N1 H1 1_555 1_555
C1 H2 1_555 1_555
H3 C1 1_555 1_555
C2 C1 1_555 1_555
H4 C2 1_555 1_555
C3 N1 1_555 1_555
C4 N1 1_555 1_555
C5 C4 1_555 1_555
H5 C5 1_555 1_555
C6 C5 1_555 1_555
C7 O4 1_555 1_555
H6 C7 1_555 1_555
H7 C7 1_555 1_555
C8 O5 1_555 1_555
C9 C8 1_555 1_555
H8 C9 1_555 1_555
C10 C4 1_555 1_555
C11 C10 1_555 1_555
H9 C11 1_555 1_555
C12 C2 1_555 1_555
H10 C12 1_555 1_555
C13 O1 1_555 1_555
C14 C11 1_555 1_555
C15 C14 1_555 1_555
C16 C15 1_555 1_555
C17 C16 1_555 1_555
C18 C17 1_555 1_555
C19 C14 1_555 1_555
H11 C19 1_555 1_555
C20 O6 1_555 1_555
H12 C20 1_555 1_555
H13 C20 1_555 1_555
H14 C20 1_555 1_555
C21 O7 1_555 1_555
H15 C21 1_555 1_555
H16 C21 1_555 1_555
H17 C21 1_555 1_555
C22 O8 1_555 1_555
H18 C22 1_555 1_555
H19 C22 1_555 1_555
H20 C22 1_555 1_555
Br2 C37 1_555 1_555
O9 C23 1_555 1_555
O10 C35 1_555 1_555
O11 C25 1_555 1_555
O12 C28 1_555 1_555
O13 C29 1_555 1_555
O14 C38 1_555 1_555
O15 C39 1_555 1_555
O16 C40 1_555 1_555
N2 H21 1_555 1_555
C23 H22 1_555 1_555
H23 C23 1_555 1_555
C24 C23 1_555 1_555
H24 C24 1_555 1_555
C25 N2 1_555 1_555
C26 N2 1_555 1_555
C27 C26 1_555 1_555
H25 C27 1_555 1_555
C28 C27 1_555 1_555
C29 O12 1_555 1_555
H26 C29 1_555 1_555
H27 C29 1_555 1_555
C30 O13 1_555 1_555
C31 C30 1_555 1_555
H28 C31 1_555 1_555
C32 C26 1_555 1_555
C33 C32 1_555 1_555
H29 C33 1_555 1_555
C34 C24 1_555 1_555
H30 C34 1_555 1_555
C35 O9 1_555 1_555
C36 C33 1_555 1_555
C37 C36 1_555 1_555
C38 C37 1_555 1_555
C39 C38 1_555 1_555
C40 C39 1_555 1_555
C41 C36 1_555 1_555
H31 C41 1_555 1_555
C42 O14 1_555 1_555
H32 C42 1_555 1_555
H33 C42 1_555 1_555
H34 C42 1_555 1_555
C43 O15 1_555 1_555
H35 C43 1_555 1_555
H36 C43 1_555 1_555
H37 C43 1_555 1_555
C44 O16 1_555 1_555
H38 C44 1_555 1_555
H39 C44 1_555 1_555
H40 C44 1_555 1_555
C2 C3 1_555 1_555
C6 C8 1_555 1_555
C9 C10 1_555 1_555
C11 C12 1_555 1_555
C12 C13 1_555 1_555
C18 C19 1_555 1_555
C24 C25 1_555 1_555
C28 C30 1_555 1_555
C31 C32 1_555 1_555
C33 C34 1_555 1_555
C34 C35 1_555 1_555
C40 C41 1_555 1_555

#END
