
#######################################################################
#
#                 Cambridge Crystallographic Data Centre
#                                CCDC 
#
#######################################################################
#
# If this CIF has been generated from an entry in the Cambridge 
# Structural Database, then it will include bibliographic, chemical, 
# crystal, experimental, refinement or atomic coordinate data resulting 
# from the CCDC's data processing and validation procedures.
#
#######################################################################

data_PEBMUH
_chemical_formula_moiety         'C25 H20 F3 N1 O4 S1'
_chemical_name_systematic        
'2-(biphenyl-4-yl)-2-((trifluoromethyl)sulfanyl)pent-4-en-1-yl 4-nitrobenzoate'
_symmetry_cell_setting           triclinic
_symmetry_space_group_name_H-M   'P 1'
_symmetry_Int_Tables_number      1
_space_group_name_Hall           'P 1'
loop_
_symmetry_equiv_pos_site_id
_symmetry_equiv_pos_as_xyz
1 x,y,z
_cell_length_a                   6.17699(18)
_cell_length_b                   7.7546(3)
_cell_length_c                   23.3736(11)
_cell_angle_alpha                95.199(3)
_cell_angle_beta                 94.569(3)
_cell_angle_gamma                90.016(3)
_cell_volume                     1111.42
_exptl_crystal_colour            colorless
_cell_formula_units_Z            2
loop_
_atom_site_label
_atom_site_type_symbol
_atom_site_fract_x
_atom_site_fract_y
_atom_site_fract_z
S1 S 0.68062(14) 0.68261(10) 0.43183(5)
O1 O 0.7926(4) 0.9647(3) 0.52508(10)
O2 O 1.1147(4) 1.0306(4) 0.57339(12)
O3 O 0.6573(6) 0.7581(4) 0.81249(14)
O4 O 0.3510(6) 0.7270(6) 0.76263(14)
N1 N 0.5415(6) 0.7667(4) 0.76810(14)
C1 C 0.9023(5) 0.9519(4) 0.24942(14)
C2 C 1.0224(5) 1.0339(4) 0.29706(14)
H1 H 1.1520 1.0939 0.2914
C3 C 0.9586(5) 1.0309(4) 0.35263(14)
H2 H 1.0443 1.0901 0.3839
C4 C 0.7722(5) 0.9431(4) 0.36339(14)
C5 C 0.6424(6) 0.8709(5) 0.31522(15)
H3 H 0.5081 0.8173 0.3206
C6 C 0.7056(6) 0.8762(5) 0.26026(15)
H4 H 0.6128 0.8268 0.2286
C7 C 0.9786(5) 0.9399(4) 0.19048(15)
C8 C 0.8673(7) 0.8421(6) 0.14511(16)
H5 H 0.7367 0.7849 0.1517
C9 C 0.9407(7) 0.8248(6) 0.09007(18)
H6 H 0.8591 0.7576 0.0598
C10 C 1.1291(7) 0.9036(5) 0.07934(17)
H7 H 1.1806 0.8901 0.0420
C11 C 1.2429(6) 1.0027(5) 0.12340(17)
H8 H 1.3735 1.0588 0.1163
C12 C 1.1690(6) 1.0216(5) 0.17834(16)
H9 H 1.2495 1.0915 0.2081
C13 C 0.7096(5) 0.9175(4) 0.42342(14)
C14 C 0.8706(5) 1.0022(5) 0.47120(14)
H10 H 1.0178 0.9541 0.4674
H11 H 0.8774 1.1289 0.4688
C15 C 0.9310(6) 0.9786(5) 0.57216(15)
C16 C 0.9370(7) 0.5946(5) 0.4137(2)
C17 C 0.4762(5) 0.9833(4) 0.43301(15)
H12 H 0.3737 0.9288 0.4019
H13 H 0.4332 0.9471 0.4701
C18 C 0.4599(6) 1.1761(5) 0.43379(16)
H14 H 0.5088 1.2294 0.4021
C19 C 0.3827(6) 1.2755(5) 0.47524(18)
H15 H 0.3324 1.2262 0.5076
H16 H 0.3767 1.3972 0.4731
C20 C 0.8257(6) 0.9227(5) 0.62275(16)
C21 C 0.9395(6) 0.9462(5) 0.67703(17)
H17 H 1.0804 0.9972 0.6810
C22 C 0.8467(7) 0.8949(5) 0.72529(16)
H18 H 0.9224 0.9095 0.7624
C23 C 0.6412(6) 0.8224(5) 0.71737(16)
C24 C 0.5254(6) 0.7990(5) 0.66446(16)
H19 H 0.3838 0.7494 0.6608
C25 C 0.6187(6) 0.8488(5) 0.61691(16)
H20 H 0.5415 0.8328 0.5800
F1 F 1.107(3) 0.6511(19) 0.4578(15)
F2 F 0.9254(12) 0.4235(9) 0.4155(3)
F3 F 1.010(5) 0.633(3) 0.3666(15)
S2 S 0.80447(15) 0.07279(11) 0.92310(5)
O5 O 0.6993(4) 0.3494(3) 0.83660(10)
O6 O 0.3733(5) 0.2903(5) 0.79036(13)
O7 O 1.1445(6) 0.5197(5) 0.59160(14)
O8 O 0.8661(5) 0.4131(4) 0.53988(13)
N2 N 0.9644(6) 0.4511(4) 0.58599(14)
C26 C 0.5915(6) 0.4168(4) 1.11308(15)
C27 C 0.4686(6) 0.4799(5) 1.06702(15)
H21 H 0.3399 0.5428 1.0740
C28 C 0.5311(6) 0.4523(4) 1.01074(15)
H22 H 0.4455 0.4986 0.9803
C29 C 0.7149(5) 0.3590(4) 0.99859(15)
C30 C 0.8432(6) 0.3033(5) 1.04553(16)
H23 H 0.9756 0.2453 1.0390
C31 C 0.7815(6) 0.3307(5) 1.10029(17)
H24 H 0.8717 0.2894 1.1309
C32 C 0.5161(5) 0.4329(4) 1.17263(15)
C33 C 0.6308(6) 0.3568(5) 1.21769(16)
H25 H 0.7624 0.2983 1.2106
C34 C 0.5582(7) 0.3645(6) 1.27208(17)
H26 H 0.6400 0.3110 1.3017
C35 C 0.3705(6) 0.4481(5) 1.28396(17)
H27 H 0.3217 0.4538 1.3216
C36 C 0.2521(6) 0.5244(5) 1.24030(17)
H28 H 0.1201 0.5818 1.2478
C37 C 0.3255(6) 0.5172(5) 1.18600(16)
H29 H 0.2432 0.5716 1.1567
C38 C 0.7763(5) 0.3106(4) 0.93740(15)
C39 C 0.6123(5) 0.3784(5) 0.89200(14)
H30 H 0.4718 0.3167 0.8915
H31 H 0.5877 0.5036 0.9013
C40 C 0.5606(6) 0.3203(5) 0.78923(16)
C41 C 0.5504(8) -0.0105(5) 0.9402(3)
C42 C 1.0100(5) 0.3734(4) 0.92908(16)
H32 H 1.1127 0.3299 0.9591
H33 H 1.0526 0.3245 0.8910
C43 C 1.0253(6) 0.5672(5) 0.93265(17)
H34 H 0.9777 0.6307 0.9660
C44 C 1.0995(6) 0.6545(5) 0.89320(18)
H35 H 1.1485 0.5952 0.8593
H36 H 1.1046 0.7774 0.8983
C45 C 0.6739(6) 0.3442(5) 0.73639(16)
C46 C 0.8853(6) 0.4103(5) 0.73994(16)
H37 H 0.9638 0.4315 0.7765
C47 C 0.9816(6) 0.4451(5) 0.69097(16)
H38 H 1.1248 0.4914 0.6933
C48 C 0.8643(6) 0.4109(5) 0.63845(16)
C49 C 0.6576(7) 0.3431(5) 0.63321(17)
H39 H 0.5818 0.3195 0.5963
C50 C 0.5617(6) 0.3098(5) 0.68272(17)
H40 H 0.4186 0.2632 0.6799
F7 F 0.4524(19) 0.0551(9) 0.9795(8)
F8 F 0.590(3) -0.187(3) 0.9399(10)
F9 F 0.3961(17) 0.0077(14) 0.8874(8)
F4? F 1.089(4) 0.651(4) 0.435(2)
F5? F 0.925(5) 0.424(2) 0.4161(11)
F6? F 0.938(8) 0.592(5) 0.3509(12)
F10? F 0.553(4) 0.014(2) 1.0065(6)
F11? F 0.532(3) -0.177(3) 0.9337(11)
F12? F 0.3795(11) 0.0439(13) 0.9247(11)
loop_
_geom_bond_atom_site_label_1
_geom_bond_atom_site_label_2
_geom_bond_site_symmetry_1
_geom_bond_site_symmetry_2
S1 C13 1_555 1_555
O1 C14 1_555 1_555
O2 C15 1_555 1_555
O3 N1 1_555 1_555
O4 N1 1_555 1_555
N1 C23 1_555 1_555
C1 C2 1_555 1_555
C2 H1 1_555 1_555
C3 C2 1_555 1_555
H2 C3 1_555 1_555
C4 C3 1_555 1_555
C5 C4 1_555 1_555
H3 C5 1_555 1_555
C6 C1 1_555 1_555
H4 C6 1_555 1_555
C7 C1 1_555 1_555
C8 C7 1_555 1_555
H5 C8 1_555 1_555
C9 C8 1_555 1_555
H6 C9 1_555 1_555
C10 C9 1_555 1_555
H7 C10 1_555 1_555
C11 C10 1_555 1_555
H8 C11 1_555 1_555
C12 C7 1_555 1_555
H9 C12 1_555 1_555
C13 C4 1_555 1_555
C14 C13 1_555 1_555
H10 C14 1_555 1_555
H11 C14 1_555 1_555
C15 O1 1_555 1_555
C16 S1 1_555 1_555
C17 C13 1_555 1_555
H12 C17 1_555 1_555
H13 C17 1_555 1_555
C18 C17 1_555 1_555
H14 C18 1_555 1_555
C19 C18 1_555 1_555
H15 C19 1_555 1_555
H16 C19 1_555 1_555
C20 C15 1_555 1_555
C21 C20 1_555 1_555
H17 C21 1_555 1_555
C22 C21 1_555 1_555
H18 C22 1_555 1_555
C23 C22 1_555 1_555
C24 C23 1_555 1_555
H19 C24 1_555 1_555
C25 C20 1_555 1_555
H20 C25 1_555 1_555
F1 C16 1_555 1_555
F2 C16 1_555 1_555
F3 C16 1_555 1_555
S2 C38 1_555 1_555
O5 C39 1_555 1_555
O6 C40 1_555 1_555
O7 N2 1_555 1_555
O8 N2 1_555 1_555
N2 C48 1_555 1_555
C26 C27 1_555 1_555
C27 H21 1_555 1_555
C28 C27 1_555 1_555
H22 C28 1_555 1_555
C29 C28 1_555 1_555
C30 C29 1_555 1_555
H23 C30 1_555 1_555
C31 C26 1_555 1_555
H24 C31 1_555 1_555
C32 C26 1_555 1_555
C33 C32 1_555 1_555
H25 C33 1_555 1_555
C34 C33 1_555 1_555
H26 C34 1_555 1_555
C35 C34 1_555 1_555
H27 C35 1_555 1_555
C36 C35 1_555 1_555
H28 C36 1_555 1_555
C37 C32 1_555 1_555
H29 C37 1_555 1_555
C38 C29 1_555 1_555
C39 C38 1_555 1_555
H30 C39 1_555 1_555
H31 C39 1_555 1_555
C40 O5 1_555 1_555
C41 S2 1_555 1_555
C42 C38 1_555 1_555
H32 C42 1_555 1_555
H33 C42 1_555 1_555
C43 C42 1_555 1_555
H34 C43 1_555 1_555
C44 C43 1_555 1_555
H35 C44 1_555 1_555
H36 C44 1_555 1_555
C45 C40 1_555 1_555
C46 C45 1_555 1_555
H37 C46 1_555 1_555
C47 C46 1_555 1_555
H38 C47 1_555 1_555
C48 C47 1_555 1_555
C49 C48 1_555 1_555
H39 C49 1_555 1_555
C50 C45 1_555 1_555
H40 C50 1_555 1_555
F7 C41 1_555 1_555
F8 C41 1_555 1_555
F9 C41 1_555 1_555
C5 C6 1_555 1_555
C11 C12 1_555 1_555
C24 C25 1_555 1_555
C30 C31 1_555 1_555
C36 C37 1_555 1_555
C49 C50 1_555 1_555

#END
