
#######################################################################
#
#                 Cambridge Crystallographic Data Centre
#                                CCDC 
#
#######################################################################
#
# If this CIF has been generated from an entry in the Cambridge 
# Structural Database, then it will include bibliographic, chemical, 
# crystal, experimental, refinement or atomic coordinate data resulting 
# from the CCDC's data processing and validation procedures.
#
#######################################################################

data_PEBREW
_chemical_formula_moiety         'C20 H21 F3 O2 S1'
_chemical_name_systematic        
't-butyl 2-(naphthalen-2-yl)-2-[(trifluoromethyl)sulfanyl]pent-4-enoate'
_symmetry_cell_setting           orthorhombic
_symmetry_space_group_name_H-M   'P 21 21 21'
_symmetry_Int_Tables_number      19
_space_group_name_Hall           'P 2ac 2ab'
loop_
_symmetry_equiv_pos_site_id
_symmetry_equiv_pos_as_xyz
1 x,y,z
2 1/2-x,-y,1/2+z
3 1/2+x,1/2-y,-z
4 -x,1/2+y,1/2-z
_cell_length_a                   6.73187(8)
_cell_length_b                   9.48324(13)
_cell_length_c                   29.9037(4)
_cell_angle_alpha                90
_cell_angle_beta                 90
_cell_angle_gamma                90
_cell_volume                     1909.05
_exptl_crystal_colour            colorless
_cell_formula_units_Z            4
loop_
_atom_site_label
_atom_site_type_symbol
_atom_site_fract_x
_atom_site_fract_y
_atom_site_fract_z
C1 C 0.8425(4) 0.5766(2) 0.35974(6)
C2 C 0.9828(4) 0.5692(3) 0.32431(7)
H1 H 1.0999 0.5187 0.3282
C3 C 0.9474(4) 0.6356(3) 0.28456(7)
H2 H 1.0415 0.6303 0.2619
C4 C 0.7700(4) 0.7123(2) 0.27732(7)
C5 C 0.7314(4) 0.7863(3) 0.23703(8)
H3 H 0.8249 0.7853 0.2141
C6 C 0.5586(5) 0.8589(3) 0.23162(9)
H4 H 0.5364 0.9085 0.2053
C7 C 0.4137(4) 0.8598(3) 0.26528(9)
H5 H 0.2953 0.9084 0.2609
C8 C 0.4461(4) 0.7891(3) 0.30472(9)
H6 H 0.3490 0.7893 0.3268
C9 C 0.6263(4) 0.7161(2) 0.31183(7)
C10 C 0.6678(4) 0.6470(2) 0.35300(7)
H7 H 0.5741 0.6497 0.3758
C11 C 0.8891(3) 0.5014(2) 0.40376(7)
C12 C 0.9000(3) 0.3410(2) 0.39413(7)
C13 C 0.6912(4) 0.1349(3) 0.37897(7)
C14 C 0.7658(4) 0.0510(3) 0.41847(9)
H8 H 0.9080 0.0570 0.4198
H9 H 0.7268 -0.0458 0.4152
H10 H 0.7099 0.0885 0.4455
C15 C 0.7914(5) 0.0965(3) 0.33513(9)
H11 H 0.7478 0.1599 0.3121
H12 H 0.7569 0.0016 0.3271
H13 H 0.9329 0.1038 0.3385
C16 C 0.4676(4) 0.1247(3) 0.37536(10)
H14 H 0.4082 0.1582 0.4025
H15 H 0.4302 0.0282 0.3705
H16 H 0.4226 0.1812 0.3507
C17 C 1.1446(4) 0.7202(3) 0.43447(8)
C18 C 0.7368(3) 0.5295(3) 0.44121(7)
H17 H 0.7354 0.6298 0.4476
H18 H 0.6058 0.5038 0.4304
C19 C 0.7766(4) 0.4510(3) 0.48392(7)
H19 H 0.8927 0.4708 0.4995
C20 C 0.6556(5) 0.3562(3) 0.50015(8)
H20 H 0.5385 0.3346 0.4851
H21 H 0.6866 0.3103 0.5267
F1 F 1.0820(3) 0.80087(17) 0.40085(6)
F2 F 1.0359(3) 0.7564(2) 0.46952(6)
F3 F 1.3318(2) 0.75821(19) 0.44323(6)
O1 O 0.7208(2) 0.28942(17) 0.38750(5)
O2 O 1.0549(3) 0.27803(19) 0.39250(6)
S1 S 1.14920(8) 0.53496(6) 0.42203(2)
loop_
_geom_bond_atom_site_label_1
_geom_bond_atom_site_label_2
_geom_bond_site_symmetry_1
_geom_bond_site_symmetry_2
C1 C2 1_555 1_555
C2 H1 1_555 1_555
C3 C2 1_555 1_555
H2 C3 1_555 1_555
C4 C3 1_555 1_555
C5 C4 1_555 1_555
H3 C5 1_555 1_555
C6 C5 1_555 1_555
H4 C6 1_555 1_555
C7 C6 1_555 1_555
H5 C7 1_555 1_555
C8 C7 1_555 1_555
H6 C8 1_555 1_555
C9 C4 1_555 1_555
C10 C1 1_555 1_555
H7 C10 1_555 1_555
C11 C1 1_555 1_555
C12 C11 1_555 1_555
C13 C14 1_555 1_555
C14 H8 1_555 1_555
H9 C14 1_555 1_555
H10 C14 1_555 1_555
C15 C13 1_555 1_555
H11 C15 1_555 1_555
H12 C15 1_555 1_555
H13 C15 1_555 1_555
C16 C13 1_555 1_555
H14 C16 1_555 1_555
H15 C16 1_555 1_555
H16 C16 1_555 1_555
C17 F1 1_555 1_555
C18 C11 1_555 1_555
H17 C18 1_555 1_555
H18 C18 1_555 1_555
C19 C18 1_555 1_555
H19 C19 1_555 1_555
C20 C19 1_555 1_555
H20 C20 1_555 1_555
H21 C20 1_555 1_555
F2 C17 1_555 1_555
F3 C17 1_555 1_555
O1 C12 1_555 1_555
O2 C12 1_555 1_555
S1 C11 1_555 1_555
C8 C9 1_555 1_555
C9 C10 1_555 1_555
C13 O1 1_555 1_555
C17 S1 1_555 1_555

#END
