
#######################################################################
#
#                 Cambridge Crystallographic Data Centre
#                                CCDC 
#
#######################################################################
#
# If this CIF has been generated from an entry in the Cambridge 
# Structural Database, then it will include bibliographic, chemical, 
# crystal, experimental, refinement or atomic coordinate data resulting 
# from the CCDC's data processing and validation procedures.
#
#######################################################################

data_PEBZII
_chemical_name_common            'bis(isonicotinamide) resveratrol'
_chemical_formula_moiety         'C14 H12 O3,2(C6 H6 N2 O1)'
_chemical_name_systematic        
'bis(isonicotinamide) 5-(2-(4-hydroxyphenyl)vinyl)benzene-1,3-diol'
_symmetry_cell_setting           monoclinic
_symmetry_space_group_name_H-M   'P 21/n'
_symmetry_Int_Tables_number      14
_space_group_name_Hall           '-P 2yn'
loop_
_symmetry_equiv_pos_site_id
_symmetry_equiv_pos_as_xyz
1 x,y,z
2 1/2-x,1/2+y,1/2-z
3 -x,-y,-z
4 1/2+x,1/2-y,1/2+z
_cell_length_a                   5.7408(7)
_cell_length_b                   31.130(3)
_cell_length_c                   12.8389(14)
_cell_angle_alpha                90
_cell_angle_beta                 95.529(5)
_cell_angle_gamma                90
_cell_volume                     2283.78
_exptl_crystal_colour            colorless
_exptl_crystal_description       plate
_cell_formula_units_Z            4
loop_
_atom_site_label
_atom_site_type_symbol
_atom_site_fract_x
_atom_site_fract_y
_atom_site_fract_z
O1 O 0.7978(4) 0.76199(7) 0.61152(16)
H1 H 0.8945 0.7482 0.6489
O2 O -0.5827(4) 0.92298(7) 0.96791(15)
H2 H -0.6860 0.9291 1.0053
O3 O -0.4416(4) 0.81064(7) 1.22367(15)
H3 H -0.5580 0.8213 1.2456
C1 C 0.6293(5) 0.77771(9) 0.6710(2)
C2 C 0.6350(5) 0.76962(10) 0.7774(2)
H4 H 0.7557 0.7533 0.8109
C3 C 0.4622(5) 0.78573(10) 0.8334(2)
H5 H 0.4660 0.7796 0.9044
C4 C 0.2807(5) 0.81109(9) 0.7861(2)
C5 C 0.0936(5) 0.82921(9) 0.8430(2)
H6 H -0.0072 0.8485 0.8062
C6 C 0.0524(5) 0.82118(10) 0.9411(2)
H7 H 0.1562 0.8028 0.9792
C7 C -0.1409(5) 0.83844(9) 0.9951(2)
C8 C -0.2748(5) 0.87339(9) 0.9568(2)
H8 H -0.2405 0.8868 0.8954
C9 C -0.4584(5) 0.88833(9) 1.0093(2)
C10 C -0.5149(5) 0.86827(9) 1.0996(2)
H9 H -0.6388 0.8782 1.1346
C11 C -0.3850(5) 0.83322(9) 1.1371(2)
C12 C -0.1957(5) 0.81890(9) 1.0873(2)
H10 H -0.1050 0.7962 1.1156
C13 C 0.2814(5) 0.81882(10) 0.6793(2)
H11 H 0.1637 0.8358 0.6457
C14 C 0.4514(5) 0.80212(10) 0.6215(2)
H12 H 0.4456 0.8073 0.5500
O4 O 0.4004(4) 0.99168(7) 0.64105(16)
N1 N 0.3819(5) 0.93151(8) 0.73795(19)
H13 H 0.4757 0.9178 0.7016
H14 H 0.3249 0.9191 0.7897
C15 C 0.3251(5) 0.97184(10) 0.7143(2)
C16 C 0.1589(5) 0.99403(9) 0.7797(2)
C17 C -0.0192(5) 0.97290(10) 0.8241(2)
H15 H -0.0379 0.9434 0.8162
C18 C -0.1688(5) 0.99630(10) 0.8802(2)
H16 H -0.2887 0.9819 0.9093
N2 N -0.1494(4) 1.03878(8) 0.89469(18)
C19 C 0.1786(5) 1.03802(10) 0.7937(2)
H17 H 0.2956 1.0533 0.7645
C20 C 0.0226(5) 1.05898(10) 0.8514(2)
H18 H 0.0379 1.0885 0.8606
O5 O 1.2237(4) 0.10260(7) 0.36950(16)
N3 N 1.2121(5) 0.04075(8) 0.46089(19)
H19 H 1.2955 0.0272 0.4195
H20 H 1.1629 0.0277 0.5136
C21 C 1.1589(5) 0.08228(10) 0.4432(2)
C22 C 1.0148(5) 0.10327(9) 0.5206(2)
C23 C 0.8212(6) 0.08380(11) 0.5559(2)
H21 H 0.7760 0.0564 0.5337
C24 C 0.6962(6) 0.10611(11) 0.6252(2)
H22 H 0.5639 0.0930 0.6474
N4 N 0.7523(5) 0.14483(9) 0.66210(19)
C25 C 0.9415(6) 0.16292(11) 0.6287(2)
H23 H 0.9869 0.1898 0.6549
C26 C 1.0744(6) 0.14392(10) 0.5570(2)
H24 H 1.2017 0.1583 0.5338
loop_
_geom_bond_atom_site_label_1
_geom_bond_atom_site_label_2
_geom_bond_site_symmetry_1
_geom_bond_site_symmetry_2
O1 H1 1_555 1_555
O2 H2 1_555 1_555
O3 H3 1_555 1_555
C1 O1 1_555 1_555
C2 C1 1_555 1_555
H4 C2 1_555 1_555
C3 C2 1_555 1_555
H5 C3 1_555 1_555
C4 C3 1_555 1_555
C5 C4 1_555 1_555
H6 C5 1_555 1_555
C6 C5 1_555 1_555
H7 C6 1_555 1_555
C7 C6 1_555 1_555
C8 C7 1_555 1_555
H8 C8 1_555 1_555
C9 O2 1_555 1_555
C10 C9 1_555 1_555
H9 C10 1_555 1_555
C11 O3 1_555 1_555
C12 C7 1_555 1_555
H10 C12 1_555 1_555
C13 C4 1_555 1_555
H11 C13 1_555 1_555
C14 C1 1_555 1_555
H12 C14 1_555 1_555
O4 C15 1_555 1_555
N1 H13 1_555 1_555
H14 N1 1_555 1_555
C15 N1 1_555 1_555
C16 C15 1_555 1_555
C17 C16 1_555 1_555
H15 C17 1_555 1_555
C18 C17 1_555 1_555
H16 C18 1_555 1_555
N2 C18 1_555 1_555
C19 C16 1_555 1_555
H17 C19 1_555 1_555
C20 N2 1_555 1_555
H18 C20 1_555 1_555
O5 C21 1_555 1_555
N3 H19 1_555 1_555
H20 N3 1_555 1_555
C21 N3 1_555 1_555
C22 C21 1_555 1_555
C23 C22 1_555 1_555
H21 C23 1_555 1_555
C24 C23 1_555 1_555
H22 C24 1_555 1_555
N4 C24 1_555 1_555
C25 N4 1_555 1_555
H23 C25 1_555 1_555
C26 C22 1_555 1_555
H24 C26 1_555 1_555
C8 C9 1_555 1_555
C10 C11 1_555 1_555
C11 C12 1_555 1_555
C13 C14 1_555 1_555
C19 C20 1_555 1_555
C25 C26 1_555 1_555

#END
