
#######################################################################
#
#                 Cambridge Crystallographic Data Centre
#                                CCDC 
#
#######################################################################
#
# If this CIF has been generated from an entry in the Cambridge 
# Structural Database, then it will include bibliographic, chemical, 
# crystal, experimental, refinement or atomic coordinate data resulting 
# from the CCDC's data processing and validation procedures.
#
#######################################################################

data_PECCAC
_chemical_formula_moiety         'C6 H9 Cl1 O2'
_chemical_name_systematic        (1S,2R)-3-Chlorocyclohex-3-ene-1,2-diol
_symmetry_cell_setting           monoclinic
_symmetry_space_group_name_H-M   'P 21'
_symmetry_Int_Tables_number      4
_space_group_name_Hall           'P 2yb'
loop_
_symmetry_equiv_pos_site_id
_symmetry_equiv_pos_as_xyz
1 x,y,z
2 -x,1/2+y,-z
_cell_length_a                   11.1403(10)
_cell_length_b                   6.8090(5)
_cell_length_c                   14.3356(9)
_cell_angle_alpha                90
_cell_angle_beta                 106.896(5)
_cell_angle_gamma                90
_cell_volume                     1040.48
_exptl_crystal_colour            colorless
_exptl_crystal_description       plate
_chemical_melting_point          '71-71.5 deg.C'
_cell_formula_units_Z            6
loop_
_atom_site_label
_atom_site_type_symbol
_atom_site_fract_x
_atom_site_fract_y
_atom_site_fract_z
Cl1 Cl 0.84985(8) 0.62546(16) 0.29420(6)
O1 O 0.5551(2) 0.4244(3) -0.03844(14)
O2 O 0.59875(18) 0.6416(3) 0.14387(14)
C1 C 0.6255(3) 0.3458(4) 0.05499(19)
C2 C 0.6883(3) 0.5202(4) 0.11738(19)
C3 C 0.7887(3) 0.4468(5) 0.20593(19)
C4 C 0.8340(3) 0.2663(5) 0.2182(2)
C5 C 0.7881(3) 0.1068(5) 0.1440(2)
C6 C 0.7186(3) 0.1920(5) 0.0448(2)
H1 H 0.490(4) 0.359(7) -0.068(3)
H2 H 0.571(3) 0.565(6) 0.188(3)
H7 H 0.5691(3) 0.2764(4) 0.08722(19)
H8 H 0.7297(3) 0.6058(4) 0.07915(19)
H9 H 0.9022(3) 0.2362(5) 0.2793(2)
H10 H 0.8615(3) 0.0290(5) 0.1378(2)
H11 H 0.7298(3) 0.0189(5) 0.1661(2)
H12 H 0.7809(3) 0.2555(5) 0.0163(2)
H13 H 0.6737(3) 0.0851(5) 0.0004(2)
Cl2 Cl 0.16732(8) 0.05187(15) 0.38641(6)
O3 O 0.51647(19) 0.4587(3) 0.61471(16)
O4 O 0.40987(17) 0.0821(3) 0.54412(13)
C7 C 0.3853(3) 0.4147(4) 0.59424(19)
C8 C 0.3544(2) 0.2682(4) 0.51023(19)
C9 C 0.2144(3) 0.2510(4) 0.46584(19)
C10 C 0.1306(3) 0.3770(5) 0.4785(2)
C11 C 0.1666(3) 0.5532(5) 0.5425(3)
C12 C 0.3059(3) 0.5982(4) 0.5670(2)
H3 H 0.544(4) 0.495(6) 0.669(3)
H4 H 0.420(4) 0.039(7) 0.487(3)
H14 H 0.3645(3) 0.3565(4) 0.65170(19)
H15 H 0.3904(2) 0.3162(4) 0.45810(19)
H16 H 0.0401(3) 0.3523(5) 0.4439(2)
H17 H 0.1450(3) 0.5294(5) 0.6046(3)
H18 H 0.1180(3) 0.6686(5) 0.5079(3)
H19 H 0.3298(3) 0.6924(4) 0.6229(2)
H20 H 0.3238(3) 0.6584(4) 0.5089(2)
Cl3 Cl 0.10819(8) 0.09443(16) 0.05375(7)
O5 O 0.49942(19) 0.4440(4) 0.26800(16)
O6 O 0.36967(18) 0.0909(3) 0.19144(14)
C13 C 0.3672(3) 0.4175(4) 0.25101(19)
C14 C 0.3201(3) 0.2843(4) 0.16394(19)
C15 C 0.1783(3) 0.2839(4) 0.13281(19)
C16 C 0.1067(3) 0.4155(5) 0.1586(2)
C17 C 0.1595(3) 0.5855(5) 0.2244(2)
C18 C 0.2984(3) 0.6131(4) 0.2363(2)
H5 H 0.528(3) 0.499(6) 0.321(3)
H6 H 0.381(3) 0.042(6) 0.138(3)
H21 H 0.3494(3) 0.3563(4) 0.30899(19)
H22 H 0.3488(3) 0.3313(4) 0.10788(19)
H23 H 0.0136(3) 0.3984(5) 0.1340(2)
H24 H 0.1481(3) 0.5620(5) 0.2902(2)
H25 H 0.1133(3) 0.7072(5) 0.1954(2)
H26 H 0.3356(3) 0.6997(4) 0.2937(2)
H27 H 0.3087(3) 0.6761(4) 0.1761(2)
loop_
_geom_bond_atom_site_label_1
_geom_bond_atom_site_label_2
_geom_bond_site_symmetry_1
_geom_bond_site_symmetry_2
Cl1 C3 1_555 1_555
Cl2 C9 1_555 1_555
Cl3 C15 1_555 1_555
O1 C1 1_555 1_555
O2 C2 1_555 1_555
O3 C7 1_555 1_555
O4 C8 1_555 1_555
O5 C13 1_555 1_555
O6 C14 1_555 1_555
C1 C2 1_555 1_555
C2 C3 1_555 1_555
C3 C4 1_555 1_555
C4 C5 1_555 1_555
C5 C6 1_555 1_555
C6 C1 1_555 1_555
C7 C8 1_555 1_555
C8 C9 1_555 1_555
C9 C10 1_555 1_555
C10 C11 1_555 1_555
C11 C12 1_555 1_555
C12 C7 1_555 1_555
C13 C14 1_555 1_555
C14 C15 1_555 1_555
C15 C16 1_555 1_555
C16 C17 1_555 1_555
C17 C18 1_555 1_555
C18 C13 1_555 1_555
H1 O1 1_555 1_555
H2 O2 1_555 1_555
H3 O3 1_555 1_555
H4 O4 1_555 1_555
H5 O5 1_555 1_555
H6 O6 1_555 1_555
H7 C1 1_555 1_555
H8 C2 1_555 1_555
H9 C4 1_555 1_555
H10 C5 1_555 1_555
H11 C5 1_555 1_555
H12 C6 1_555 1_555
H13 C6 1_555 1_555
H14 C7 1_555 1_555
H15 C8 1_555 1_555
H16 C10 1_555 1_555
H17 C11 1_555 1_555
H18 C11 1_555 1_555
H19 C12 1_555 1_555
H20 C12 1_555 1_555
H21 C13 1_555 1_555
H22 C14 1_555 1_555
H23 C16 1_555 1_555
H24 C17 1_555 1_555
H25 C17 1_555 1_555
H26 C18 1_555 1_555
H27 C18 1_555 1_555

#END
