
#######################################################################
#
#                 Cambridge Crystallographic Data Centre
#                                CCDC 
#
#######################################################################
#
# If this CIF has been generated from an entry in the Cambridge 
# Structural Database, then it will include bibliographic, chemical, 
# crystal, experimental, refinement or atomic coordinate data resulting 
# from the CCDC's data processing and validation procedures.
#
#######################################################################

data_PECDEH
_chemical_formula_moiety         'C14 H22 N14 O22 Sr2,2(H2 O1)'
_chemical_name_systematic        
"bis(\m~2~-2,4,6-Trinitroresorcinolato-O,O')-bis(\m~2~-carbohydrazide-N,N',O,O)-diaqua-dihydroxy-di-strontium(ii) dihydrate"
_symmetry_cell_setting           triclinic
_symmetry_space_group_name_H-M   'P -1'
_symmetry_Int_Tables_number      2
_space_group_name_Hall           '-P 1'
loop_
_symmetry_equiv_pos_site_id
_symmetry_equiv_pos_as_xyz
1 x,y,z
2 -x,-y,-z
_cell_length_a                   7.2517(15)
_cell_length_b                   10.212(2)
_cell_length_c                   11.440(2)
_cell_angle_alpha                69.50(3)
_cell_angle_beta                 78.82(3)
_cell_angle_gamma                84.64(3)
_cell_volume                     778.173
_exptl_crystal_colour            orange
_exptl_crystal_description       block
_cell_formula_units_Z            1
loop_
_atom_site_label
_atom_site_type_symbol
_atom_site_fract_x
_atom_site_fract_y
_atom_site_fract_z
Sr1 Sr 0.02703(8) 0.10832(5) 0.12223(5)
O1 O 0.3194(9) -0.2824(5) 0.6246(4)
O2 O 0.2855(8) -0.0978(4) 0.4666(5)
O3 O -0.1821(5) 0.2316(4) -0.0678(3)
O4 O 0.0590(6) 0.3611(4) -0.1569(4)
O5 O -0.2241(9) 0.7855(4) -0.4957(5)
O6 O -0.3257(7) 0.7213(4) -0.6289(4)
O7 O 0.1718(5) -0.1250(4) 0.2638(4)
O8 O -0.1633(6) 0.5883(4) -0.2768(4)
H1 H -0.1861 0.6835 -0.3291
O9 O -0.1753(5) -0.0544(3) 0.0788(3)
O10 O 0.1506(9) 0.1431(4) 0.2958(5)
O11 O -0.0553(6) 0.3694(4) 0.1132(4)
N1 N 0.2782(7) -0.2254(5) 0.5184(4)
N2 N -0.0891(7) 0.3149(4) -0.1613(4)
N3 N -0.2627(7) 0.6932(5) -0.5313(4)
N4 N 0.3685(7) 0.2176(5) -0.0077(5)
H2 H 0.4321 0.2196 0.0301
N5 N 0.4504(7) 0.1551(5) -0.0980(4)
H3 H 0.5619 0.1646 -0.1232
N6 N -0.4361(7) -0.0070(5) 0.2046(4)
H4 H -0.5193 -0.0571 0.2573
N7 N -0.3226(7) 0.0494(5) 0.2627(4)
H5 H -0.3801 0.0991 0.2832
H6 H -0.3339 -0.0078 0.3591
C1 C 0.2368(8) -0.3103(5) 0.4524(5)
C2 C 0.1877(7) -0.2536(5) 0.3270(5)
C3 C -0.1530(7) 0.3604(5) -0.2810(5)
C4 C -0.1796(7) 0.5084(5) -0.3354(5)
C5 C -0.2327(8) 0.5482(5) -0.4588(5)
C6 C 0.2597(7) -0.4533(5) 0.5114(5)
H7 H 0.2953 -0.4854 0.5908
C7 C -0.3442(7) -0.0727(5) 0.1269(5)
Sr1A Sr -0.02703(8) -0.10832(5) -0.12223(5)
O1A O -0.3194(9) 0.2824(5) -0.6246(4)
O2A O -0.2855(8) 0.0978(4) -0.4666(5)
O3A O 0.1821(5) -0.2316(4) 0.0678(3)
O4A O -0.0590(6) -0.3611(4) 0.1569(4)
O5A O 0.2241(9) -0.7855(4) 0.4957(5)
O6A O 0.3257(7) -0.7213(4) 0.6289(4)
O7A O -0.1718(5) 0.1250(4) -0.2638(4)
O8A O 0.1633(6) -0.5883(4) 0.2768(4)
H1A H 0.1861 -0.6835 0.3291
O9A O 0.1753(5) 0.0544(3) -0.0788(3)
O10A O -0.1506(9) -0.1431(4) -0.2958(5)
O11A O 0.0553(6) -0.3694(4) -0.1132(4)
N1A N -0.2782(7) 0.2254(5) -0.5184(4)
N2A N 0.0891(7) -0.3149(4) 0.1613(4)
N3A N 0.2627(7) -0.6932(5) 0.5313(4)
N4A N -0.3685(7) -0.2176(5) 0.0077(5)
H2A H -0.4321 -0.2196 -0.0301
N5A N -0.4504(7) -0.1551(5) 0.0980(4)
H3A H -0.5619 -0.1646 0.1232
N6A N 0.4361(7) 0.0070(5) -0.2046(4)
H4A H 0.5193 0.0571 -0.2573
N7A N 0.3226(7) -0.0494(5) -0.2627(4)
H5A H 0.3801 -0.0991 -0.2832
H6A H 0.3339 0.0078 -0.3591
C1A C -0.2368(8) 0.3103(5) -0.4524(5)
C2A C -0.1877(7) 0.2536(5) -0.3270(5)
C3A C 0.1530(7) -0.3604(5) 0.2810(5)
C4A C 0.1796(7) -0.5084(5) 0.3354(5)
C5A C 0.2327(8) -0.5482(5) 0.4588(5)
C6A C -0.2597(7) 0.4533(5) -0.5114(5)
H7A H -0.2953 0.4854 -0.5908
C7A C 0.3442(7) 0.0727(5) -0.1269(5)
O12 O -0.4572(8) 0.4247(7) 0.1182(5)
loop_
_geom_bond_atom_site_label_1
_geom_bond_atom_site_label_2
_geom_bond_site_symmetry_1
_geom_bond_site_symmetry_2
Sr1 O3 1_555 1_555
O1 N1 1_555 1_555
O2 N1 1_555 1_555
O3 N2 1_555 1_555
O4 N2 1_555 1_555
O5 N3 1_555 1_555
O6 N3 1_555 1_555
O7 Sr1 1_555 1_555
O8 H1 1_555 1_555
O9 Sr1 1_555 1_555
O10 Sr1 1_555 1_555
O11 Sr1 1_555 1_555
N1 C1 1_555 1_555
N2 C3 1_555 1_555
N3 C5 1_555 1_555
N4 Sr1 1_555 1_555
H2 N4 1_555 1_555
N5 N4 1_555 1_555
H3 N5 1_555 1_555
N6 H4 1_555 1_555
N7 Sr1 1_555 1_555
H5 N7 1_555 1_555
H6 N7 1_555 1_555
C1 C2 1_555 1_555
C2 O7 1_555 1_555
C3 C4 1_555 1_555
C4 O8 1_555 1_555
C5 C4 1_555 1_555
C6 C1 1_555 1_555
H7 C6 1_555 1_555
C7 O9 1_555 1_555
Sr1A O9 1_555 1_555
O1A N1A 1_555 1_555
O2A N1A 1_555 1_555
O3A Sr1A 1_555 1_555
O4A N2A 1_555 1_555
O5A N3A 1_555 1_555
O6A N3A 1_555 1_555
O7A Sr1A 1_555 1_555
O8A H1A 1_555 1_555
O9A Sr1 1_555 1_555
O10A Sr1A 1_555 1_555
O11A Sr1A 1_555 1_555
N1A C1A 1_555 1_555
N2A O3A 1_555 1_555
N3A C5A 1_555 1_555
N4A Sr1A 1_555 1_555
H2A N4A 1_555 1_555
N5A C7 1_555 1_555
H3A N5A 1_555 1_555
N6A H4A 1_555 1_555
N7A Sr1A 1_555 1_555
H5A N7A 1_555 1_555
H6A N7A 1_555 1_555
C1A C2A 1_555 1_555
C2A C3 1_555 1_555
C3A C2 1_555 1_555
C4A O8A 1_555 1_555
C5A C6 1_555 1_555
C6A C5 1_555 1_555
H7A C6A 1_555 1_555
C7A N5 1_555 1_555
N6 N7 1_555 1_555
N6 C7 1_555 1_555
Sr1A O9A 1_555 1_555
O7A C2A 1_555 1_555
O9A C7A 1_555 1_555
N2A C3A 1_555 1_555
N4A N5A 1_555 1_555
N6A N7A 1_555 1_555
N6A C7A 1_555 1_555
C1A C6A 1_555 1_555
C3A C4A 1_555 1_555
C4A C5A 1_555 1_555

#END
