
#######################################################################
#
#                 Cambridge Crystallographic Data Centre
#                                CCDC 
#
#######################################################################
#
# If this CIF has been generated from an entry in the Cambridge 
# Structural Database, then it will include bibliographic, chemical, 
# crystal, experimental, refinement or atomic coordinate data resulting 
# from the CCDC's data processing and validation procedures.
#
#######################################################################

data_PECKUG
_chemical_formula_moiety         'C55 H35 F3 N4'
_chemical_name_systematic        
1-(4-(trifluoromethyl)phenyl)-2-(4'-(1,4,5-triphenyl-1H-imidazol-2-yl)biphenyl-4-yl)-1H-phenanthro[9,10-d]imidazole
_symmetry_cell_setting           triclinic
_symmetry_space_group_name_H-M   'P -1'
_symmetry_Int_Tables_number      2
_space_group_name_Hall           '-P 1'
loop_
_symmetry_equiv_pos_site_id
_symmetry_equiv_pos_as_xyz
1 x,y,z
2 -x,-y,-z
_cell_length_a                   12.4641(9)
_cell_length_b                   13.3013(8)
_cell_length_c                   14.1626(6)
_cell_angle_alpha                110.152(5)
_cell_angle_beta                 90.112(5)
_cell_angle_gamma                107.238(6)
_cell_volume                     2091.03
_cell_formula_units_Z            2
loop_
_atom_site_label
_atom_site_type_symbol
_atom_site_fract_x
_atom_site_fract_y
_atom_site_fract_z
N1 N 0.60115(18) 0.54111(17) 0.35368(16)
N2 N 0.17460(18) -0.43016(17) -0.09399(16)
N3 N 0.32335(19) -0.45314(18) -0.02540(17)
N4 N 0.75163(18) 0.49277(18) 0.37579(16)
C1 C 0.2759(2) -0.3794(2) -0.03216(19)
C2 C 0.3245(2) -0.2568(2) 0.02316(19)
C3 C 0.1571(2) -0.5460(2) -0.12722(18)
C4 C 0.4786(2) 0.0978(2) 0.18894(19)
C5 C 0.6446(2) 0.4540(2) 0.33843(19)
C6 C 0.4244(2) -0.0250(2) 0.13369(19)
C7 C 0.2501(2) -0.5565(2) -0.08424(18)
C8 C 0.5756(2) 0.1406(2) 0.2573(2)
H1 H 0.6069 0.0910 0.2709
C9 C 0.2618(2) -0.6644(2) -0.09740(19)
C10 C 0.4862(2) 0.5348(2) 0.32972(18)
C11 C 0.0623(2) -0.6419(2) -0.18523(18)
C12 C 0.7796(2) 0.6085(2) 0.4178(2)
C13 C 0.3745(2) -0.0640(2) 0.0341(2)
H2 H 0.3742 -0.0121 0.0038
C14 C 0.4231(2) -0.1044(2) 0.17622(19)
H3 H 0.4559 -0.0807 0.2425
C15 C 0.6264(2) 0.2555(2) 0.3056(2)
H4 H 0.6911 0.2817 0.3512
C16 C 0.5831(2) 0.3328(2) 0.28738(19)
C17 C 0.1028(2) -0.3710(2) -0.11411(19)
C18 C 0.0927(2) -0.3639(2) -0.20874(19)
H5 H 0.1290 -0.4005 -0.2605
C19 C 0.6869(2) 0.6402(2) 0.40518(19)
C20 C 0.3255(2) -0.1779(2) -0.0204(2)
H6 H 0.2930 -0.2018 -0.0868
C21 C 0.1727(2) -0.7609(2) -0.1556(2)
C22 C 0.0722(2) -0.7498(2) -0.19840(19)
C23 C 0.3737(2) -0.2189(2) 0.1221(2)
H7 H 0.3737 -0.2708 0.1525
C24 C 0.6667(2) 0.7505(2) 0.4378(2)
C25 C 0.8968(2) 0.6775(2) 0.4639(2)
C26 C 0.3568(3) -0.6747(3) -0.0529(2)
H8 H 0.4153 -0.6104 -0.0148
C27 C 0.4343(2) 0.1750(2) 0.1723(2)
H9 H 0.3681 0.1488 0.1284
C28 C 0.9732(2) 0.6238(3) 0.4743(2)
H10 H 0.9499 0.5454 0.4527
C29 C 0.4543(3) 0.5429(2) 0.2407(2)
H11 H 0.5075 0.5560 0.1967
C30 C -0.0381(2) -0.6345(3) -0.2218(2)
H12 H -0.0445 -0.5639 -0.2124
C31 C 0.2766(3) -0.8759(3) -0.1226(3)
H13 H 0.2815 -0.9467 -0.1305
C32 C 0.4857(3) 0.2900(2) 0.2191(2)
H14 H 0.4549 0.3395 0.2048
C33 C 0.0281(2) -0.3021(3) -0.2254(2)
H15 H 0.0200 -0.2973 -0.2889
C34 C 0.3427(3) 0.5315(3) 0.2166(3)
H16 H 0.3202 0.5354 0.1556
C35 C -0.0246(3) -0.2473(3) -0.1475(2)
C36 C -0.0210(3) -0.8443(3) -0.2500(3)
H17 H -0.0170 -0.9160 -0.2603
C37 C 1.0841(3) 0.6850(3) 0.5164(3)
H18 H 1.1342 0.6472 0.5223
C38 C 0.3631(3) -0.7799(3) -0.0656(3)
H19 H 0.4259 -0.7866 -0.0357
C39 C -0.1277(3) -0.7298(3) -0.2713(3)
H20 H -0.1943 -0.7235 -0.2948
C40 C 0.4081(3) 0.5179(3) 0.3958(2)
H21 H 0.4301 0.5129 0.4564
C41 C 0.0497(3) -0.3173(3) -0.0371(2)
H22 H 0.0566 -0.3231 0.0260
C42 C 0.1842(3) -0.8674(3) -0.1673(3)
H23 H 0.1275 -0.9329 -0.2062
C43 C 1.1204(3) 0.8004(3) 0.5492(3)
H24 H 1.1947 0.8413 0.5777
C44 C -0.0138(3) -0.2547(3) -0.0537(3)
H25 H -0.0494 -0.2176 -0.0016
C45 C 0.6531(4) 0.8027(3) 0.5382(3)
H26 H 0.6559 0.7683 0.5848
C46 C 0.9351(3) 0.7942(3) 0.4965(3)
H27 H 0.8861 0.8327 0.4896
C47 C 0.6628(4) 0.8040(3) 0.3714(3)
H28 H 0.6717 0.7700 0.3038
C48 C 0.2650(3) 0.5143(3) 0.2828(3)
H29 H 0.1901 0.5068 0.2665
C49 C -0.1183(3) -0.8339(3) -0.2857(3)
H30 H -0.1785 -0.8983 -0.3201
C50 C 0.6456(4) 0.9081(3) 0.4038(4)
H31 H 0.6437 0.9436 0.3579
C51 C 0.6355(4) 0.9066(3) 0.5683(4)
H32 H 0.6261 0.9414 0.6356
C52 C 0.6315(3) 0.9587(3) 0.5017(4)
H33 H 0.6193 1.0284 0.5231
C53 C 0.2970(3) 0.5083(4) 0.3722(3)
H34 H 0.2443 0.4979 0.4172
C54 C 1.0463(3) 0.8544(3) 0.5397(3)
H35 H 1.0703 0.9328 0.5623
F1 F -0.1387(7) -0.2102(6) -0.2501(4)
F2 F -0.0408(4) -0.0833(5) -0.1498(8)
F3 F -0.1688(5) -0.1718(7) -0.1129(5)
C55 C -0.0928(4) -0.1794(4) -0.1649(3)
loop_
_geom_bond_atom_site_label_1
_geom_bond_atom_site_label_2
_geom_bond_site_symmetry_1
_geom_bond_site_symmetry_2
N1 C5 1_555 1_555
N2 C1 1_555 1_555
N3 C1 1_555 1_555
N4 C5 1_555 1_555
C1 C2 1_555 1_555
C2 C20 1_555 1_555
C3 N2 1_555 1_555
C4 C6 1_555 1_555
C5 C16 1_555 1_555
C6 C13 1_555 1_555
C7 N3 1_555 1_555
C8 C4 1_555 1_555
H1 C8 1_555 1_555
C9 C7 1_555 1_555
C10 N1 1_555 1_555
C11 C3 1_555 1_555
C12 N4 1_555 1_555
C13 H2 1_555 1_555
C14 C6 1_555 1_555
H3 C14 1_555 1_555
C15 C8 1_555 1_555
H4 C15 1_555 1_555
C16 C15 1_555 1_555
C17 N2 1_555 1_555
C18 C17 1_555 1_555
H5 C18 1_555 1_555
C19 N1 1_555 1_555
C20 C13 1_555 1_555
H6 C20 1_555 1_555
C21 C9 1_555 1_555
C22 C11 1_555 1_555
C23 C2 1_555 1_555
H7 C23 1_555 1_555
C24 C19 1_555 1_555
C25 C12 1_555 1_555
C26 C9 1_555 1_555
H8 C26 1_555 1_555
C27 C4 1_555 1_555
H9 C27 1_555 1_555
C28 C25 1_555 1_555
H10 C28 1_555 1_555
C29 C10 1_555 1_555
H11 C29 1_555 1_555
C30 C11 1_555 1_555
H12 C30 1_555 1_555
C31 H13 1_555 1_555
C32 C16 1_555 1_555
H14 C32 1_555 1_555
C33 C18 1_555 1_555
H15 C33 1_555 1_555
C34 C29 1_555 1_555
H16 C34 1_555 1_555
C35 C33 1_555 1_555
C36 C22 1_555 1_555
H17 C36 1_555 1_555
C37 C28 1_555 1_555
H18 C37 1_555 1_555
C38 C26 1_555 1_555
H19 C38 1_555 1_555
C39 C30 1_555 1_555
H20 C39 1_555 1_555
C40 C10 1_555 1_555
H21 C40 1_555 1_555
C41 C17 1_555 1_555
H22 C41 1_555 1_555
C42 C21 1_555 1_555
H23 C42 1_555 1_555
C43 C37 1_555 1_555
H24 C43 1_555 1_555
C44 C35 1_555 1_555
H25 C44 1_555 1_555
C45 C24 1_555 1_555
H26 C45 1_555 1_555
C46 C25 1_555 1_555
H27 C46 1_555 1_555
C47 C24 1_555 1_555
H28 C47 1_555 1_555
C48 C34 1_555 1_555
H29 C48 1_555 1_555
C49 C36 1_555 1_555
H30 C49 1_555 1_555
C50 C47 1_555 1_555
H31 C50 1_555 1_555
C51 C45 1_555 1_555
H32 C51 1_555 1_555
C52 C50 1_555 1_555
H33 C52 1_555 1_555
C53 C40 1_555 1_555
H34 C53 1_555 1_555
C54 C43 1_555 1_555
H35 C54 1_555 1_555
F1 C55 1_555 1_555
F2 C55 1_555 1_555
F3 C55 1_555 1_555
C55 C35 1_555 1_555
C3 C7 1_555 1_555
C12 C19 1_555 1_555
C14 C23 1_555 1_555
C21 C22 1_555 1_555
C27 C32 1_555 1_555
C31 C38 1_555 1_555
C31 C42 1_555 1_555
C39 C49 1_555 1_555
C41 C44 1_555 1_555
C46 C54 1_555 1_555
C48 C53 1_555 1_555
C51 C52 1_555 1_555

#END
