
#######################################################################
#
#                 Cambridge Crystallographic Data Centre
#                                CCDC 
#
#######################################################################
#
# If this CIF has been generated from an entry in the Cambridge 
# Structural Database, then it will include bibliographic, chemical, 
# crystal, experimental, refinement or atomic coordinate data resulting 
# from the CCDC's data processing and validation procedures.
#
#######################################################################

data_PECLAN
_chemical_formula_moiety         'C55 H35 F3 N4'
_chemical_name_systematic        
1-(4-(trifluoromethyl)phenyl)-2-(4'-(2,4,5-triphenyl-1H-imidazol-1-yl)biphenyl-4-yl)-1H-phenanthro[9,10-d]imidazole
_symmetry_cell_setting           triclinic
_symmetry_space_group_name_H-M   'P -1'
_symmetry_Int_Tables_number      2
_space_group_name_Hall           '-P 1'
loop_
_symmetry_equiv_pos_site_id
_symmetry_equiv_pos_as_xyz
1 x,y,z
2 -x,-y,-z
_cell_length_a                   14.1567(4)
_cell_length_b                   15.2344(5)
_cell_length_c                   20.7317(7)
_cell_angle_alpha                72.812(3)
_cell_angle_beta                 76.639(3)
_cell_angle_gamma                83.973(3)
_cell_volume                     4152.64
_exptl_crystal_description       block
_cell_formula_units_Z            4
loop_
_atom_site_label
_atom_site_type_symbol
_atom_site_fract_x
_atom_site_fract_y
_atom_site_fract_z
F1 F 0.2467(2) -0.2614(2) 0.17204(17)
F2 F 0.3789(2) -0.2217(3) 0.1208(3)
F3 F 0.3020(7) -0.2681(3) 0.0779(3)
N1 N 0.13121(12) 0.13732(11) 0.00922(8)
N2 N 0.07365(12) 0.27987(11) 0.01005(8)
N3 N 0.34376(11) 0.10595(10) 0.48069(8)
N4 N 0.35704(12) 0.06405(11) 0.58998(8)
C1 C 0.23069(14) 0.15395(13) 0.30113(8)
C2 C 0.24908(14) 0.20044(13) 0.39914(9)
H1 H 0.2351 0.2422 0.4252
C3 C 0.06702(14) 0.26353(13) -0.05063(9)
C4 C 0.32909(18) 0.06215(15) 0.37914(11)
H2 H 0.3702 0.0111 0.3914
C5 C 0.18765(14) 0.25430(13) 0.19110(9)
H3 H 0.2049 0.3055 0.2008
C6 C 0.43230(14) 0.11957(12) 0.55104(10)
C7 C 0.11039(17) 0.14481(14) -0.11315(10)
C8 C 0.30470(14) 0.05608(12) 0.54725(9)
C9 C 0.50477(15) 0.14120(13) 0.58458(11)
C10 C 0.21807(14) 0.00031(12) 0.57084(10)
C11 C 0.02310(16) 0.29340(14) -0.16204(10)
C12 C 0.59474(19) 0.17505(18) 0.54794(14)
H4 H 0.6108 0.1863 0.5002
C13 C 0.11131(14) 0.20312(14) 0.04496(9)
C14 C 0.02370(14) 0.32459(14) -0.10437(9)
C15 C 0.16147(19) -0.01550(16) 0.52897(12)
H5 H 0.1777 0.0109 0.4815
C16 C 0.10274(14) 0.17748(13) -0.05357(9)
C17 C 0.42537(14) 0.14680(12) 0.48299(10)
C18 C 0.15962(14) 0.26464(13) 0.12929(9)
H6 H 0.1591 0.3226 0.0979
C19 C 0.48423(14) 0.20566(14) 0.41958(10)
C20 C 0.13235(14) 0.18938(14) 0.11378(9)
C21 C 0.30624(13) 0.12282(12) 0.41891(9)
C22 C 0.17378(15) 0.04721(14) 0.03251(9)
C23 C 0.29068(18) 0.07750(15) 0.32116(11)
H7 H 0.3053 0.0357 0.2950
C24 C 0.6386(2) 0.17700(19) 0.65233(17)
H8 H 0.6829 0.1901 0.6748
C25 C 0.19034(14) 0.16861(13) 0.23851(9)
C26 C 0.21242(14) 0.21609(13) 0.34020(9)
H9 H 0.1748 0.2693 0.3265
C27 C 0.15623(19) 0.09521(15) 0.22494(10)
H10 H 0.1531 0.0381 0.2577
C28 C -0.0677(2) 0.46226(18) -0.14969(14)
H11 H -0.0975 0.5184 -0.1459
C29 C 0.1097(2) -0.09361(18) 0.66910(13)
H12 H 0.0919 -0.1193 0.7166
C30 C 0.18995(17) -0.04107(16) 0.64172(11)
H13 H 0.2267 -0.0328 0.6712
C31 C 0.48426(17) 0.12443(15) 0.65543(12)
H14 H 0.4248 0.1007 0.6810
C32 C 0.60157(18) 0.2238(2) 0.31283(13)
H15 H 0.6440 0.1978 0.2813
C33 C 0.5510(2) 0.14245(18) 0.68902(14)
H16 H 0.5359 0.1309 0.7368
C34 C 0.1615(3) 0.0376(2) -0.18129(16)
H17 H 0.1919 -0.0179 -0.1862
C35 C 0.06901(18) 0.20475(15) -0.16745(10)
C36 C 0.6608(2) 0.1922(2) 0.58232(17)
H18 H 0.7211 0.2144 0.5573
C37 C 0.05520(19) -0.10849(16) 0.62633(15)
H19 H 0.0010 -0.1445 0.6447
C38 C 0.30743(19) -0.0476(2) 0.06833(16)
H20 H 0.3705 -0.0541 0.0756
C39 C 0.54730(17) 0.16730(17) 0.37265(12)
H21 H 0.5535 0.1038 0.3810
C40 C 0.11852(19) -0.02893(16) 0.05027(13)
H22 H 0.0544 -0.0221 0.0451
C41 C 0.0759(2) 0.1766(2) -0.22716(13)
H23 H 0.0490 0.2146 -0.2631
C42 C -0.02575(19) 0.35056(17) -0.21244(12)
H24 H -0.0273 0.3322 -0.2511
C43 C -0.02049(17) 0.40946(16) -0.09933(12)
H25 H -0.0180 0.4303 -0.0619
C44 C 0.1587(2) -0.11535(17) 0.07580(15)
H26 H 0.1226 -0.1673 0.0865
C45 C 0.0817(2) -0.06973(18) 0.55677(15)
H27 H 0.0455 -0.0800 0.5277
C46 C 0.26853(17) 0.03863(17) 0.04049(12)
H28 H 0.3059 0.0902 0.0273
C47 C -0.0708(2) 0.43246(18) -0.20561(14)
H29 H -0.1038 0.4681 -0.2390
C48 C 0.59293(19) 0.3173(2) 0.30009(14)
H30 H 0.6291 0.3547 0.2599
C49 C 0.12681(19) 0.10488(16) 0.16393(10)
H31 H 0.1033 0.0548 0.1564
C50 C 0.1207(3) 0.0954(2) -0.23379(16)
H32 H 0.1239 0.0786 -0.2739
C51 C 0.5316(2) 0.35563(19) 0.34610(16)
H33 H 0.5258 0.4192 0.3373
C52 C 0.1573(2) 0.06168(18) -0.12185(13)
H34 H 0.1857 0.0227 -0.0871
C53 C 0.47756(18) 0.30025(16) 0.40606(13)
H35 H 0.4364 0.3270 0.4376
C54 C 0.2527(2) -0.12397(19) 0.08527(15)
C55 C 0.2961(3) -0.2154(3) 0.1186(3)
F4 F 0.8506(2) 0.22021(15) 0.06279(13)
F5 F 0.8871(2) 0.24611(17) 0.14384(15)
F6 F 0.75112(19) 0.19537(15) 0.15862(17)
N5 N 0.59711(13) 0.75741(12) 0.04541(8)
N6 N 0.65106(11) 0.61639(11) 0.03792(7)
N7 N 0.85981(11) 0.61286(10) 0.51255(7)
N8 N 0.87484(12) 0.57068(10) 0.62158(8)
C56 C 0.67141(17) 0.74078(15) 0.16424(10)
H36 H 0.6588 0.7987 0.1358
C57 C 0.61704(13) 0.66047(13) -0.02206(9)
C58 C 0.82076(14) 0.56337(12) 0.57924(9)
C59 C 0.95035(13) 0.62502(12) 0.58214(9)
C60 C 0.82491(13) 0.62417(12) 0.45045(9)
C61 C 0.73400(15) 0.50776(12) 0.60259(10)
C62 C 0.57859(14) 0.69962(15) -0.13565(9)
C63 C 0.63644(14) 0.67887(14) 0.07663(9)
C64 C 0.71867(14) 0.64831(13) 0.26917(9)
C65 C 0.49659(19) 0.85478(18) -0.17698(12)
H37 H 0.4941 0.8417 -0.2176
C66 C 0.72423(16) 0.70193(14) 0.37178(10)
H38 H 0.6793 0.7491 0.3585
C67 C 0.58438(14) 0.74586(14) -0.01519(9)
C68 C 0.75928(15) 0.69417(13) 0.43029(10)
H39 H 0.7385 0.7362 0.4558
C69 C 0.69233(14) 0.52464(13) 0.05591(9)
C70 C 1.02543(14) 0.64554(12) 0.61441(10)
C71 C 0.94271(13) 0.65227(12) 0.51413(9)
C72 C 0.53989(14) 0.78899(15) -0.12726(9)
C73 C 0.75511(14) 0.64028(13) 0.33237(9)
C74 C 1.00033(14) 0.71187(12) 0.45052(9)
C75 C 0.54244(14) 0.81299(14) -0.06709(9)
C76 C 0.61706(14) 0.63276(14) -0.08265(9)
C77 C 1.00409(17) 0.63544(14) 0.68498(11)
H40 H 0.9425 0.6181 0.7107
C78 C 0.5975(2) 0.4386(2) 0.58767(18)
H41 H 0.5609 0.4295 0.5585
C79 C 0.66263(15) 0.66343(14) 0.14418(9)
C80 C 0.76930(17) 0.34793(16) 0.09341(11)
C81 C 0.58035(17) 0.67636(19) -0.19680(11)
H42 H 0.5561 0.7191 -0.2321
C82 C 0.69844(17) 0.73362(14) 0.22551(10)
H43 H 0.7032 0.7867 0.2378
C83 C 1.0404(2) 0.86209(17) 0.37527(16)
H44 H 1.0308 0.9256 0.3654
C84 C 0.85903(16) 0.56402(14) 0.41109(11)
H45 H 0.9056 0.5183 0.4239
C85 C 0.98792(19) 0.80618(15) 0.43534(13)
H46 H 0.9438 0.8324 0.4659
C86 C 0.82386(16) 0.57201(14) 0.35270(10)
H47 H 0.8466 0.5310 0.3266
C87 C 0.79077(15) 0.51056(15) 0.05234(11)
H48 H 0.8311 0.5602 0.0371
C88 C 0.65467(17) 0.54844(17) -0.09396(11)
H49 H 0.6804 0.5048 -0.0598
C89 C 0.63199(15) 0.45126(15) 0.07770(11)
H50 H 0.5655 0.4615 0.0802
C90 C 0.6767(2) 0.57786(15) 0.18960(11)
H51 H 0.6668 0.5247 0.1790
C91 C 0.82927(16) 0.42135(17) 0.07172(12)
H52 H 0.8956 0.4111 0.0701
C92 C 0.70579(18) 0.46585(17) 0.67310(12)
H53 H 0.7420 0.4740 0.7029
C93 C 0.8095(2) 0.2515(2) 0.11392(15)
C94 C 1.06719(17) 0.67503(15) 0.40462(12)
H54 H 1.0766 0.6115 0.4140
C95 C 0.50381(18) 0.89762(17) -0.05774(12)
H55 H 0.5063 0.9122 -0.0177
C96 C 0.4619(2) 0.9596(2) -0.10762(15)
H56 H 0.4363 1.0161 -0.1015
C97 C 1.11784(17) 0.67126(16) 0.57744(13)
H57 H 1.1340 0.6789 0.5301
C98 C 0.67094(17) 0.36279(15) 0.09575(12)
H58 H 0.6308 0.3131 0.1095
C99 C 0.6542(2) 0.5290(2) -0.15452(13)
H59 H 0.6793 0.4726 -0.1611
C100 C 0.70545(19) 0.57112(15) 0.25055(10)
H60 H 0.7161 0.5132 0.2797
C101 C 0.6782(2) 0.49228(19) 0.56016(14)
H61 H 0.6953 0.5183 0.5127
C102 C 1.1065(2) 0.82468(18) 0.33008(13)
H62 H 1.1416 0.8626 0.2896
C103 C 0.6162(2) 0.5939(2) -0.20592(13)
H63 H 0.6154 0.5806 -0.2468
C104 C 0.4584(2) 0.93690(19) -0.16713(14)
H64 H 0.4297 0.9783 -0.2007
C105 C 1.0734(2) 0.65086(17) 0.71758(13)
H65 H 1.0578 0.6440 0.7649
C106 C 1.18625(19) 0.68569(19) 0.61122(15)
H66 H 1.2484 0.7023 0.5862
C107 C 0.5710(2) 0.39885(18) 0.65736(18)
H67 H 0.5167 0.3630 0.6756
C108 C 1.12042(18) 0.73113(18) 0.34483(13)
H68 H 1.1657 0.7053 0.3146
C109 C 1.1636(2) 0.67578(19) 0.68113(15)
H69 H 1.2099 0.6861 0.7032
C110 C 0.6254(2) 0.41256(19) 0.69983(15)
H70 H 0.6080 0.3857 0.7472
loop_
_geom_bond_atom_site_label_1
_geom_bond_atom_site_label_2
_geom_bond_site_symmetry_1
_geom_bond_site_symmetry_2
F1 C55 1_555 1_555
F2 C55 1_555 1_555
F3 C55 1_555 1_555
N1 C13 1_555 1_555
N2 C3 1_555 1_555
N3 C8 1_555 1_555
N4 C6 1_555 1_555
C1 C23 1_555 1_555
C2 H1 1_555 1_555
C3 C14 1_555 1_555
C4 H2 1_555 1_555
C5 H3 1_555 1_555
C6 C9 1_555 1_555
C7 C16 1_555 1_555
C8 N4 1_555 1_555
C9 C12 1_555 1_555
C10 C8 1_555 1_555
C11 C14 1_555 1_555
C12 H4 1_555 1_555
C13 N2 1_555 1_555
C14 C43 1_555 1_555
C15 C10 1_555 1_555
H5 C15 1_555 1_555
C16 N1 1_555 1_555
C17 N3 1_555 1_555
C18 C5 1_555 1_555
H6 C18 1_555 1_555
C19 C17 1_555 1_555
C20 C13 1_555 1_555
C21 N3 1_555 1_555
C22 N1 1_555 1_555
C23 C4 1_555 1_555
H7 C23 1_555 1_555
C24 H8 1_555 1_555
C25 C1 1_555 1_555
C26 C1 1_555 1_555
H9 C26 1_555 1_555
C27 C25 1_555 1_555
H10 C27 1_555 1_555
C28 H11 1_555 1_555
C29 H12 1_555 1_555
C30 C10 1_555 1_555
H13 C30 1_555 1_555
C31 C9 1_555 1_555
H14 C31 1_555 1_555
C32 H15 1_555 1_555
C33 C24 1_555 1_555
H16 C33 1_555 1_555
C34 H17 1_555 1_555
C35 C7 1_555 1_555
C36 C12 1_555 1_555
H18 C36 1_555 1_555
C37 C29 1_555 1_555
H19 C37 1_555 1_555
C38 H20 1_555 1_555
C39 C19 1_555 1_555
H21 C39 1_555 1_555
C40 C22 1_555 1_555
H22 C40 1_555 1_555
C41 C35 1_555 1_555
H23 C41 1_555 1_555
C42 C11 1_555 1_555
H24 C42 1_555 1_555
C43 C28 1_555 1_555
H25 C43 1_555 1_555
C44 C40 1_555 1_555
H26 C44 1_555 1_555
C45 C15 1_555 1_555
H27 C45 1_555 1_555
C46 C22 1_555 1_555
H28 C46 1_555 1_555
C47 C28 1_555 1_555
H29 C47 1_555 1_555
C48 C32 1_555 1_555
H30 C48 1_555 1_555
C49 C20 1_555 1_555
H31 C49 1_555 1_555
C50 C34 1_555 1_555
H32 C50 1_555 1_555
C51 C48 1_555 1_555
H33 C51 1_555 1_555
C52 C7 1_555 1_555
H34 C52 1_555 1_555
C53 C19 1_555 1_555
H35 C53 1_555 1_555
C54 C38 1_555 1_555
C55 C54 1_555 1_555
F4 C93 1_555 1_555
F5 C93 1_555 1_555
F6 C93 1_555 1_555
N5 C63 1_555 1_555
N6 C57 1_555 1_555
N7 C58 1_555 1_555
N8 C58 1_555 1_555
C56 H36 1_555 1_555
C57 C67 1_555 1_555
C58 C61 1_555 1_555
C59 N8 1_555 1_555
C60 N7 1_555 1_555
C61 C92 1_555 1_555
C62 C72 1_555 1_555
C63 N6 1_555 1_555
C64 C73 1_555 1_555
C65 H37 1_555 1_555
C66 H38 1_555 1_555
C67 N5 1_555 1_555
C68 C60 1_555 1_555
H39 C68 1_555 1_555
C69 N6 1_555 1_555
C70 C59 1_555 1_555
C71 N7 1_555 1_555
C72 C65 1_555 1_555
C73 C66 1_555 1_555
C74 C71 1_555 1_555
C75 C67 1_555 1_555
C76 C57 1_555 1_555
C77 C70 1_555 1_555
H40 C77 1_555 1_555
C78 H41 1_555 1_555
C79 C56 1_555 1_555
C80 C91 1_555 1_555
C81 C62 1_555 1_555
H42 C81 1_555 1_555
C82 C56 1_555 1_555
H43 C82 1_555 1_555
C83 H44 1_555 1_555
C84 C60 1_555 1_555
H45 C84 1_555 1_555
C85 C74 1_555 1_555
H46 C85 1_555 1_555
C86 C73 1_555 1_555
H47 C86 1_555 1_555
C87 C69 1_555 1_555
H48 C87 1_555 1_555
C88 C76 1_555 1_555
H49 C88 1_555 1_555
C89 C69 1_555 1_555
H50 C89 1_555 1_555
C90 C79 1_555 1_555
H51 C90 1_555 1_555
C91 C87 1_555 1_555
H52 C91 1_555 1_555
C92 H53 1_555 1_555
C93 C80 1_555 1_555
C94 C74 1_555 1_555
H54 C94 1_555 1_555
C95 C75 1_555 1_555
H55 C95 1_555 1_555
C96 C95 1_555 1_555
H56 C96 1_555 1_555
C97 C70 1_555 1_555
H57 C97 1_555 1_555
C98 C80 1_555 1_555
H58 C98 1_555 1_555
C99 C88 1_555 1_555
H59 C99 1_555 1_555
C100 C64 1_555 1_555
H60 C100 1_555 1_555
C101 C61 1_555 1_555
H61 C101 1_555 1_555
C102 C83 1_555 1_555
H62 C102 1_555 1_555
C103 C81 1_555 1_555
H63 C103 1_555 1_555
C104 C65 1_555 1_555
H64 C104 1_555 1_555
C105 C77 1_555 1_555
H65 C105 1_555 1_555
C106 C97 1_555 1_555
H66 C106 1_555 1_555
C107 C78 1_555 1_555
H67 C107 1_555 1_555
C108 C94 1_555 1_555
H68 C108 1_555 1_555
C109 C105 1_555 1_555
H69 C109 1_555 1_555
C110 C92 1_555 1_555
H70 C110 1_555 1_555
C2 C21 1_555 1_555
C2 C26 1_555 1_555
C3 C16 1_555 1_555
C4 C21 1_555 1_555
C5 C25 1_555 1_555
C6 C17 1_555 1_555
C11 C35 1_555 1_555
C18 C20 1_555 1_555
C24 C36 1_555 1_555
C27 C49 1_555 1_555
C29 C30 1_555 1_555
C31 C33 1_555 1_555
C32 C39 1_555 1_555
C34 C52 1_555 1_555
C37 C45 1_555 1_555
C38 C46 1_555 1_555
C41 C50 1_555 1_555
C42 C47 1_555 1_555
C44 C54 1_555 1_555
C51 C53 1_555 1_555
C59 C71 1_555 1_555
C62 C76 1_555 1_555
C63 C79 1_555 1_555
C64 C82 1_555 1_555
C66 C68 1_555 1_555
C72 C75 1_555 1_555
C78 C101 1_555 1_555
C83 C85 1_555 1_555
C84 C86 1_555 1_555
C89 C98 1_555 1_555
C90 C100 1_555 1_555
C96 C104 1_555 1_555
C99 C103 1_555 1_555
C102 C108 1_555 1_555
C106 C109 1_555 1_555
C107 C110 1_555 1_555

#END
