
#######################################################################
#
#                 Cambridge Crystallographic Data Centre
#                                CCDC 
#
#######################################################################
#
# If this CIF has been generated from an entry in the Cambridge 
# Structural Database, then it will include bibliographic, chemical, 
# crystal, experimental, refinement or atomic coordinate data resulting 
# from the CCDC's data processing and validation procedures.
#
#######################################################################

data_PECMAN
_chemical_name_common            
3,4-bis(acetyloxy)-N-{4-[(6-methoxy-4-pyrimidinyl)aminosulfonyl]phenyl}benzamide
_chemical_formula_moiety         'C22 H20 N4 O8 S1'
_chemical_name_systematic        
'4-((4-((6-Methoxypyrimidin-4-yl)sulfamoyl)phenyl)carbamoyl)-1,2-phenylene diacetate'
_symmetry_cell_setting           triclinic
_symmetry_space_group_name_H-M   'P -1'
_symmetry_Int_Tables_number      2
_space_group_name_Hall           '-P 1'
loop_
_symmetry_equiv_pos_site_id
_symmetry_equiv_pos_as_xyz
1 x,y,z
2 -x,-y,-z
_cell_length_a                   8.408(6)
_cell_length_b                   9.842(7)
_cell_length_c                   15.154(11)
_cell_angle_alpha                108.369(8)
_cell_angle_beta                 101.227(9)
_cell_angle_gamma                96.479(8)
_cell_volume                     1146.73
_exptl_crystal_colour            colorless
_exptl_crystal_description       block
_cell_formula_units_Z            2
loop_
_atom_site_label
_atom_site_type_symbol
_atom_site_fract_x
_atom_site_fract_y
_atom_site_fract_z
N1 N -0.2675(3) -0.0019(2) 0.02392(16)
N2 N -0.3427(3) 0.1744(2) 0.15059(16)
N3 N -0.4045(2) 0.12835(18) 0.28136(13)
H1 H -0.4658 0.1933 0.2863
N4 N 0.3595(2) 0.31930(17) 0.55028(13)
H2 H 0.4208 0.2548 0.5383
O1 O -0.2584(4) -0.2317(2) 0.03038(17)
O2 O -0.4448(2) 0.14570(19) 0.43932(13)
O3 O -0.3746(2) -0.08112(16) 0.33943(12)
O4 O 0.3775(2) 0.56442(16) 0.62054(14)
O5 O 0.8713(2) 0.24247(18) 0.75794(13)
O6 O 0.7205(3) 0.2773(3) 0.86796(18)
S1 S -0.35220(6) 0.07463(5) 0.37381(4)
C1 C -0.2124(6) -0.2704(4) -0.0603(3)
H3 H -0.1948 -0.3692 -0.0786
H4 H -0.1127 -0.2063 -0.0540
H5 H -0.2992 -0.2615 -0.1085
C2 C -0.2848(3) -0.0967(3) 0.06876(19)
C3 C -0.3003(4) 0.1289(3) 0.0682(2)
H6 H -0.2921 0.1961 0.0370
C4 C -0.3559(3) 0.0756(2) 0.19470(16)
C5 C -0.3289(3) -0.0635(2) 0.15556(18)
H7 H -0.3396 -0.1318 0.1857
C6 C -0.1408(3) 0.1473(2) 0.42509(15)
C7 C -0.0945(3) 0.2910(2) 0.48796(15)
H8 H -0.1748 0.3463 0.5025
C8 C 0.0704(3) 0.3516(2) 0.52875(15)
H9 H 0.1013 0.4478 0.5702
C9 C 0.1910(2) 0.2680(2) 0.50763(14)
C10 C 0.1426(3) 0.1236(2) 0.44376(15)
H10 H 0.2226 0.0681 0.4290
C11 C -0.0229(3) 0.0626(2) 0.40235(15)
H11 H -0.0545 -0.0331 0.3602
C12 C 0.4417(3) 0.4558(2) 0.60791(15)
C13 C 0.6170(3) 0.4641(2) 0.65614(15)
C14 C 0.7349(3) 0.5894(2) 0.67615(16)
H12 H 0.7049 0.6664 0.6578
C15 C 0.8961(3) 0.5980(3) 0.7234(2)
H13 H 0.9751 0.6797 0.7347
C16 C 0.9408(3) 0.4861(3) 0.7539(2)
C17 C 0.8239(3) 0.3607(2) 0.73303(16)
C18 C 0.6649(3) 0.3502(2) 0.68480(16)
H14 H 0.5878 0.2662 0.6710
C19 C 0.8041(3) 0.2057(3) 0.82488(19)
C20 C 0.8445(4) 0.0637(3) 0.8299(2)
H15 H 0.7966 0.0391 0.8767
H16 H 0.9621 0.0721 0.8478
H17 H 0.8006 -0.0112 0.7683
O7 O 1.0928(5) 0.5164(3) 0.8280(4)
O8 O 1.1828(4) 0.3358(4) 0.7266(2)
C21 C 1.2105(6) 0.4322(6) 0.8008(5)
C22 C 1.3634(17) 0.4908(18) 0.8821(13)
H18 H 1.4442 0.4306 0.8689
H19 H 1.3359 0.4903 0.9406
H20 H 1.4074 0.5887 0.8885
C23? C 1.1754(15) 0.4930(11) 0.8539(9)
C24? C 1.358(2) 0.4807(19) 0.8658(18)
H21? H 1.4168 0.5608 0.8549
H22? H 1.3673 0.3906 0.8203
H23? H 1.4028 0.4831 0.9296
O9? O 1.1079(6) 0.4745(7) 0.7633(5)
O10? O 1.0973(9) 0.5164(9) 0.9143(4)
loop_
_geom_bond_atom_site_label_1
_geom_bond_atom_site_label_2
_geom_bond_site_symmetry_1
_geom_bond_site_symmetry_2
N1 C2 1_555 1_555
N2 C3 1_555 1_555
N3 H1 1_555 1_555
N4 H2 1_555 1_555
O1 C1 1_555 1_555
O2 S1 1_555 1_555
O3 S1 1_555 1_555
O4 C12 1_555 1_555
O5 C17 1_555 1_555
O6 C19 1_555 1_555
S1 N3 1_555 1_555
C1 H3 1_555 1_555
H4 C1 1_555 1_555
H5 C1 1_555 1_555
C2 O1 1_555 1_555
C3 N1 1_555 1_555
H6 C3 1_555 1_555
C4 N2 1_555 1_555
C5 C2 1_555 1_555
H7 C5 1_555 1_555
C6 S1 1_555 1_555
C7 C6 1_555 1_555
H8 C7 1_555 1_555
C8 C7 1_555 1_555
H9 C8 1_555 1_555
C9 N4 1_555 1_555
C10 C9 1_555 1_555
H10 C10 1_555 1_555
C11 C6 1_555 1_555
H11 C11 1_555 1_555
C12 N4 1_555 1_555
C13 C12 1_555 1_555
C14 C13 1_555 1_555
H12 C14 1_555 1_555
C15 C14 1_555 1_555
H13 C15 1_555 1_555
C16 C15 1_555 1_555
C17 C16 1_555 1_555
C18 C13 1_555 1_555
H14 C18 1_555 1_555
C19 O5 1_555 1_555
C20 C19 1_555 1_555
H15 C20 1_555 1_555
H16 C20 1_555 1_555
H17 C20 1_555 1_555
O7 C16 1_555 1_555
O8 C21 1_555 1_555
C21 O7 1_555 1_555
C22 C21 1_555 1_555
H18 C22 1_555 1_555
H19 C22 1_555 1_555
H20 C22 1_555 1_555
N3 C4 1_555 1_555
C4 C5 1_555 1_555
C8 C9 1_555 1_555
C10 C11 1_555 1_555
C17 C18 1_555 1_555

#END
