
#######################################################################
#
#                 Cambridge Crystallographic Data Centre
#                                CCDC 
#
#######################################################################
#
# If this CIF has been generated from an entry in the Cambridge 
# Structural Database, then it will include bibliographic, chemical, 
# crystal, experimental, refinement or atomic coordinate data resulting 
# from the CCDC's data processing and validation procedures.
#
#######################################################################

data_PECPUL01
_chemical_formula_moiety         'C27 H23 N3 O1'
_chemical_name_systematic        
2,2-dimethyl-3-(4-methyl-5-oxo-6-phenyl-5,6-dihydro-4H-pyrido[4,3,2-gh]phenanthridin-6-yl)propanenitrile
_symmetry_cell_setting           tetragonal
_symmetry_space_group_name_H-M   'I 41 c d'
_symmetry_Int_Tables_number      110
_space_group_name_Hall           'I 4bw -2c'
loop_
_symmetry_equiv_pos_site_id
_symmetry_equiv_pos_as_xyz
1 x,y,z
2 1/2-x,1/2-y,1/2+z
3 -y,1/2+x,1/4+z
4 1/2+y,-x,3/4+z
5 x,-y,1/2+z
6 1/2-x,1/2+y,z
7 -y,1/2-x,3/4+z
8 1/2+y,x,1/4+z
9 1/2+x,1/2+y,1/2+z
10 -x,-y,z
11 1/2-y,x,3/4+z
12 y,1/2-x,1/4+z
13 1/2+x,1/2-y,z
14 -x,y,1/2+z
15 1/2-y,-x,1/4+z
16 y,1/2+x,3/4+z
_cell_length_a                   31.825(9)
_cell_length_b                   31.825(9)
_cell_length_c                   8.303(2)
_cell_angle_alpha                90
_cell_angle_beta                 90
_cell_angle_gamma                90
_cell_volume                     8409.53
_exptl_crystal_colour            'light colorless'
_exptl_crystal_description       needle
_chemical_melting_point          '224-225 deg.C'
_cell_formula_units_Z            16
loop_
_atom_site_label
_atom_site_type_symbol
_atom_site_fract_x
_atom_site_fract_y
_atom_site_fract_z
C1 C -1.28791(7) -0.94307(7) -1.6591(3)
C2 C -1.26691(7) -0.98055(8) -1.6165(4)
H1 H -1.278850 -0.998797 -1.541949
C3 C -1.22889(8) -0.99000(8) -1.6852(4)
H2 H -1.214903 -1.014500 -1.655994
C4 C -1.21118(8) -0.96311(9) -1.7983(4)
H3 H -1.185673 -0.970115 -1.845910
C5 C -1.23082(8) -0.92645(9) -1.8405(4)
H4 H -1.218439 -0.908777 -1.916011
C6 C -1.26964(7) -0.91516(8) -1.7705(3)
C7 C -1.29024(7) -0.87528(8) -1.7987(3)
C8 C -1.27454(8) -0.84433(9) -1.9036(4)
H5 H -1.250903 -0.849765 -1.966075
C9 C -1.29428(9) -0.80611(9) -1.9133(4)
H6 H -1.284110 -0.786002 -1.984641
C10 C -1.32919(8) -0.79671(8) -1.8188(4)
H7 H -1.341433 -0.770225 -1.825115
C11 C -1.34570(7) -0.82643(7) -1.7161(4)
C12 C -1.32704(7) -0.86686(7) -1.7096(3)
C13 C -1.39149(10) -0.77250(8) -1.5921(5)
H8 H -1.409884 -0.769765 -1.501058
H9 H -1.405638 -0.762893 -1.687314
H10 H -1.366705 -0.755909 -1.574784
C14 C -1.39810(7) -0.84555(8) -1.5132(3)
C15 C -1.38779(7) -0.89213(7) -1.5379(3)
C16 C -1.34436(7) -0.89911(7) -1.6105(3)
C17 C -1.42087(7) -0.90957(8) -1.6589(4)
C18 C -1.45279(8) -0.88486(8) -1.7224(4)
H11 H -1.454916 -0.856812 -1.691973
C19 C -1.48157(8) -0.90153(9) -1.8307(4)
H12 H -1.502554 -0.884485 -1.873236
C20 C -1.47926(8) -0.94296(9) -1.8753(4)
H13 H -1.498644 -0.954108 -1.947375
C21 C -1.44767(9) -0.96813(9) -1.8117(5)
H14 H -1.445966 -0.996297 -1.840843
C22 C -1.41876(8) -0.95142(8) -1.7052(4)
H15 H -1.397601 -0.968468 -1.663916
C23 C -1.39258(7) -0.91523(8) -1.3766(4)
H16 H -1.387096 -0.944808 -1.395370
H17 H -1.421678 -0.912796 -1.343108
C24 C -1.36419(8) -0.90059(8) -1.2324(4)
C25 C -1.39138(10) -0.88814(10) -1.0879(4)
H18 H -1.409976 -0.865766 -1.118402
H19 H -1.373645 -0.878921 -1.001293
H20 H -1.407578 -0.911946 -1.053342
C26 C -1.33332(9) -0.93561(9) -1.1826(4)
H21 H -1.315504 -0.925601 -1.097590
H22 H -1.316412 -0.943409 -1.273598
H23 H -1.348831 -0.959629 -1.145757
C27 C -1.33880(8) -0.86328(8) -1.2764(4)
N1 N -1.37959(6) -0.81684(6) -1.6121(3)
N2 N -1.32620(6) -0.93518(6) -1.5838(3)
N3 N -1.31929(8) -0.83407(8) -1.3074(4)
O1 O -1.42456(6) -0.83546(6) -1.4137(3)
loop_
_geom_bond_atom_site_label_1
_geom_bond_atom_site_label_2
_geom_bond_site_symmetry_1
_geom_bond_site_symmetry_2
C1 C2 1_555 1_555
C2 H1 1_555 1_555
C3 C2 1_555 1_555
H2 C3 1_555 1_555
C4 C3 1_555 1_555
H3 C4 1_555 1_555
C5 C4 1_555 1_555
H4 C5 1_555 1_555
C6 C1 1_555 1_555
C7 C6 1_555 1_555
C8 C7 1_555 1_555
H5 C8 1_555 1_555
C9 C8 1_555 1_555
H6 C9 1_555 1_555
C10 C9 1_555 1_555
H7 C10 1_555 1_555
C11 C10 1_555 1_555
C12 C7 1_555 1_555
C13 H8 1_555 1_555
H9 C13 1_555 1_555
H10 C13 1_555 1_555
C14 C15 1_555 1_555
C15 C16 1_555 1_555
C16 C12 1_555 1_555
C17 C15 1_555 1_555
C18 C17 1_555 1_555
H11 C18 1_555 1_555
C19 C18 1_555 1_555
H12 C19 1_555 1_555
C20 C19 1_555 1_555
H13 C20 1_555 1_555
C21 C20 1_555 1_555
H14 C21 1_555 1_555
C22 C17 1_555 1_555
H15 C22 1_555 1_555
C23 C15 1_555 1_555
H16 C23 1_555 1_555
H17 C23 1_555 1_555
C24 C23 1_555 1_555
C25 C24 1_555 1_555
H18 C25 1_555 1_555
H19 C25 1_555 1_555
H20 C25 1_555 1_555
C26 C24 1_555 1_555
H21 C26 1_555 1_555
H22 C26 1_555 1_555
H23 C26 1_555 1_555
C27 C24 1_555 1_555
N1 C11 1_555 1_555
N2 C1 1_555 1_555
N3 C27 1_555 1_555
O1 C14 1_555 1_555
C5 C6 1_555 1_555
C11 C12 1_555 1_555
C13 N1 1_555 1_555
C14 N1 1_555 1_555
C16 N2 1_555 1_555
C21 C22 1_555 1_555

#END
