
#######################################################################
#
#                 Cambridge Crystallographic Data Centre
#                                CCDC 
#
#######################################################################
#
# If this CIF has been generated from an entry in the Cambridge 
# Structural Database, then it will include bibliographic, chemical, 
# crystal, experimental, refinement or atomic coordinate data resulting 
# from the CCDC's data processing and validation procedures.
#
#######################################################################

data_PECWUQ
_chemical_compound_source        'aerial parts of Cipadessa cinerascens'
_chemical_formula_moiety         'C33 H42 O13,C1 H4 O1'
_chemical_name_systematic        'Cipadesin C'
_symmetry_cell_setting           monoclinic
_symmetry_space_group_name_H-M   'P 21'
_symmetry_Int_Tables_number      4
_space_group_name_Hall           'P 2yb'
loop_
_symmetry_equiv_pos_site_id
_symmetry_equiv_pos_as_xyz
1 x,y,z
2 -x,1/2+y,-z
_cell_length_a                   9.745(4)
_cell_length_b                   15.562(6)
_cell_length_c                   11.779(4)
_cell_angle_alpha                90
_cell_angle_beta                 105.96(3)
_cell_angle_gamma                90
_cell_volume                     1717.45
_exptl_crystal_colour            colorless
_chemical_melting_point          205.4-206.7deg.C
_cell_formula_units_Z            2
_exptl_crystal_recrystallization_method methanol
loop_
_atom_site_label
_atom_site_type_symbol
_atom_site_fract_x
_atom_site_fract_y
_atom_site_fract_z
O1 O 0.5692(3) 0.45347(17) 0.1138(2)
O2 O 0.5360(3) 0.64804(19) 0.0847(2)
O3 O 0.6244(5) 0.8296(2) 0.3322(3)
O4 O 0.9690(4) 0.4759(2) 0.6573(3)
O5 O 0.8893(4) 0.5603(2) 0.5001(3)
O6 O 0.8556(3) 0.49083(18) 0.1341(2)
O7 O 0.9986(4) 0.4881(2) 0.0149(3)
O8 O 0.7033(3) 0.36759(18) -0.0186(2)
O9 O 0.8585(4) 0.2676(2) -0.0438(3)
O10 O 0.3335(3) 0.3058(2) 0.2830(3)
O11 O 0.4373(5) 0.6435(3) -0.1037(3)
O12 O 0.4252(3) 0.51607(17) 0.4157(2)
O13 O 0.6074(4) 0.5107(2) 0.5786(3)
C1 C 0.6214(4) 0.3700(2) 0.1561(3)
H1 H 0.5463 0.3278 0.1234
C2 C 0.7476(4) 0.3512(3) 0.1072(3)
H2 H 0.7701 0.2899 0.1189
C3 C 0.8809(4) 0.4008(3) 0.1627(3)
H3 H 0.9570 0.3804 0.1298
C4 C 0.9295(4) 0.3893(3) 0.2980(4)
C5 C 0.8014(4) 0.4121(3) 0.3482(3)
H4 H 0.7806 0.4727 0.3283
C6 C 0.8438(4) 0.4085(3) 0.4838(3)
H5 H 0.7602 0.3928 0.5088
H6 H 0.9140 0.3633 0.5096
C7 C 0.9036(5) 0.4901(3) 0.5451(4)
C8 C 0.3313(4) 0.4126(3) 0.1380(3)
H7 H 0.2480 0.4435 0.1486
C9 C 0.3925(4) 0.3665(3) 0.2541(4)
C10 C 0.6611(4) 0.3642(2) 0.2915(3)
C11 C 0.5319(4) 0.4022(3) 0.3321(3)
H8 H 0.5415 0.3796 0.4115
C12 C 0.5206(4) 0.5017(2) 0.3414(3)
H9 H 0.6150 0.5253 0.3806
C13 C 0.4575(4) 0.5498(3) 0.2232(3)
C14 C 0.4315(4) 0.4833(3) 0.1194(3)
C15 C 0.3726(4) 0.5296(3) 0.0036(4)
H10 H 0.3747 0.4907 -0.0603
H11 H 0.2735 0.5440 -0.0044
C16 C 0.4500(5) 0.6094(3) -0.0101(4)
C17 C 0.5713(4) 0.6123(3) 0.2037(3)
H12 H 0.6613 0.5808 0.2170
C18 C 0.3221(4) 0.6012(3) 0.2214(4)
H13 H 0.2949 0.6356 0.1511
H14 H 0.3407 0.6379 0.2895
H15 H 0.2461 0.5622 0.2226
C19 C 0.6667(4) 0.2681(3) 0.3265(4)
H16 H 0.7210 0.2369 0.2834
H17 H 0.5715 0.2455 0.3080
H18 H 0.7111 0.2625 0.4096
C20 C 0.5986(5) 0.6912(3) 0.2810(4)
C21 C 0.5918(6) 0.7722(3) 0.2406(4)
H19 H 0.5681 0.7873 0.1611
C22 C 0.6338(5) 0.6996(3) 0.4059(4)
H20 H 0.6440 0.6549 0.4601
C23 C 0.6494(6) 0.7819(4) 0.4310(5)
H21 H 0.6745 0.8043 0.5071
C24 C 1.0542(4) 0.4496(3) 0.3495(4)
H22 H 1.0920 0.4384 0.4324
H23 H 1.0219 0.5081 0.3382
H24 H 1.1274 0.4404 0.3104
C25 C 0.9888(4) 0.2964(3) 0.3226(4)
H25 H 1.0036 0.2831 0.4047
H26 H 1.0778 0.2922 0.3029
H27 H 0.9216 0.2566 0.2754
C26 C 0.2687(5) 0.3495(3) 0.0342(4)
H28 H 0.3453 0.3226 0.0108
H29 H 0.2093 0.3806 -0.0314
H30 H 0.2129 0.3064 0.0592
C27 C 1.0212(8) 0.5510(4) 0.7292(5)
H31 H 1.1092 0.5698 0.7157
H32 H 1.0370 0.5367 0.8111
H33 H 0.9518 0.5963 0.7085
C28 C 0.7767(5) 0.3240(3) -0.0839(4)
C29 C 0.7437(6) 0.3572(4) -0.2055(4)
H34 H 0.6907 0.4097 -0.2110
H35 H 0.6880 0.3155 -0.2588
H36 H 0.8310 0.3679 -0.2260
C30 C 0.9163(5) 0.5247(3) 0.0541(4)
C31 C 0.8629(6) 0.6125(3) 0.0197(5)
H37 H 0.9399 0.6528 0.0451
H38 H 0.7890 0.6262 0.0564
H39 H 0.8253 0.6155 -0.0645
C32 C 0.4838(5) 0.5216(3) 0.5336(4)
C33 C 0.3733(5) 0.5416(3) 0.5955(4)
H40 H 0.3284 0.4892 0.6096
H41 H 0.3028 0.5791 0.5473
H42 H 0.4174 0.5691 0.6694
O14 O 0.9392(9) 0.1922(5) 0.5803(7)
H43 H 0.9931 0.1663 0.5497
C34 C 1.0141(12) 0.2155(8) 0.6981(8)
H44 H 1.0668 0.2675 0.6969
H45 H 1.0788 0.1703 0.7333
H46 H 0.9472 0.2245 0.7434
loop_
_geom_bond_atom_site_label_1
_geom_bond_atom_site_label_2
_geom_bond_site_symmetry_1
_geom_bond_site_symmetry_2
O1 C1 1_555 1_555
O2 C16 1_555 1_555
O3 C21 1_555 1_555
O4 C7 1_555 1_555
O5 C7 1_555 1_555
O6 C3 1_555 1_555
O7 C30 1_555 1_555
O8 C2 1_555 1_555
O9 C28 1_555 1_555
O10 C9 1_555 1_555
O11 C16 1_555 1_555
O12 C12 1_555 1_555
O13 C32 1_555 1_555
C1 H1 1_555 1_555
C2 C1 1_555 1_555
H2 C2 1_555 1_555
C3 C2 1_555 1_555
H3 C3 1_555 1_555
C4 C3 1_555 1_555
C5 C4 1_555 1_555
H4 C5 1_555 1_555
C6 C5 1_555 1_555
H5 C6 1_555 1_555
H6 C6 1_555 1_555
C7 C6 1_555 1_555
C8 H7 1_555 1_555
C9 C8 1_555 1_555
C10 C1 1_555 1_555
C11 C9 1_555 1_555
H8 C11 1_555 1_555
C12 C11 1_555 1_555
H9 C12 1_555 1_555
C13 C12 1_555 1_555
C14 O1 1_555 1_555
C15 C14 1_555 1_555
H10 C15 1_555 1_555
H11 C15 1_555 1_555
C16 C15 1_555 1_555
C17 O2 1_555 1_555
H12 C17 1_555 1_555
C18 C13 1_555 1_555
H13 C18 1_555 1_555
H14 C18 1_555 1_555
H15 C18 1_555 1_555
C19 C10 1_555 1_555
H16 C19 1_555 1_555
H17 C19 1_555 1_555
H18 C19 1_555 1_555
C20 C17 1_555 1_555
C21 C20 1_555 1_555
H19 C21 1_555 1_555
C22 C20 1_555 1_555
H20 C22 1_555 1_555
C23 O3 1_555 1_555
H21 C23 1_555 1_555
C24 C4 1_555 1_555
H22 C24 1_555 1_555
H23 C24 1_555 1_555
H24 C24 1_555 1_555
C25 C4 1_555 1_555
H25 C25 1_555 1_555
H26 C25 1_555 1_555
H27 C25 1_555 1_555
C26 C8 1_555 1_555
H28 C26 1_555 1_555
H29 C26 1_555 1_555
H30 C26 1_555 1_555
C27 O4 1_555 1_555
H31 C27 1_555 1_555
H32 C27 1_555 1_555
H33 C27 1_555 1_555
C28 O8 1_555 1_555
C29 C28 1_555 1_555
H34 C29 1_555 1_555
H35 C29 1_555 1_555
H36 C29 1_555 1_555
C30 O6 1_555 1_555
C31 C30 1_555 1_555
H37 C31 1_555 1_555
H38 C31 1_555 1_555
H39 C31 1_555 1_555
C32 O12 1_555 1_555
C33 C32 1_555 1_555
H40 C33 1_555 1_555
H41 C33 1_555 1_555
H42 C33 1_555 1_555
O14 H43 1_555 1_555
C34 O14 1_555 1_555
H44 C34 1_555 1_555
H45 C34 1_555 1_555
H46 C34 1_555 1_555
C5 C10 1_555 1_555
C8 C14 1_555 1_555
C10 C11 1_555 1_555
C13 C14 1_555 1_555
C13 C17 1_555 1_555
C22 C23 1_555 1_555

#END
