
#######################################################################
#
#                 Cambridge Crystallographic Data Centre
#                                CCDC 
#
#######################################################################
#
# If this CIF has been generated from an entry in the Cambridge 
# Structural Database, then it will include bibliographic, chemical, 
# crystal, experimental, refinement or atomic coordinate data resulting 
# from the CCDC's data processing and validation procedures.
#
#######################################################################

data_PECYEC
_chemical_formula_moiety         'C34 H32 Cl4 N4 O4'
_chemical_name_systematic        
8,15,24,31-Tetra-aza-1,6,17,22-tetrachloro-33,33,34,34-tetramethoxynonacyclo-(20.10.1.1^6,17^.0^2,21^.0^5,18^.0^7,16^.0^9,14^.0^23,32^.0^25,30^)-tetratriconta-7,9(14),10,12,15,23,25(30),26,28,31-decaene
_symmetry_cell_setting           monoclinic
_symmetry_space_group_name_H-M   'P 21/c'
_symmetry_Int_Tables_number      14
_space_group_name_Hall           '-P 2ybc'
loop_
_symmetry_equiv_pos_site_id
_symmetry_equiv_pos_as_xyz
1 x,y,z
2 -x,1/2+y,1/2-z
3 -x,-y,-z
4 x,1/2-y,1/2+z
_cell_length_a                   11.2393(6)
_cell_length_b                   16.9510(9)
_cell_length_c                   17.1697(9)
_cell_angle_alpha                90
_cell_angle_beta                 101.1040(10)
_cell_angle_gamma                90
_cell_volume                     3209.89
_exptl_crystal_colour            colorless
_exptl_crystal_description       cubic
_chemical_melting_point          318-321deg.C(dec)
_cell_formula_units_Z            4
loop_
_atom_site_label
_atom_site_type_symbol
_atom_site_fract_x
_atom_site_fract_y
_atom_site_fract_z
Cl1 Cl -0.10722(4) 0.14008(3) 0.02331(3)
Cl2 Cl 0.25648(5) 0.27453(3) -0.11579(3)
Cl3 Cl 0.32690(5) -0.09197(3) 0.24344(3)
Cl4 Cl 0.68819(5) 0.08493(4) 0.14052(4)
O1 O -0.04134(12) 0.23238(8) -0.12020(8)
O2 O 0.59886(13) -0.07767(8) 0.23605(8)
O3 O 0.09029(12) 0.12462(8) -0.10635(8)
O4 O 0.50295(13) -0.05662(9) 0.10424(8)
C1 C 0.56524(17) 0.08143(11) 0.26537(11)
N1 N 0.16495(14) 0.38011(9) 0.01187(9)
N2 N 0.44582(14) 0.04147(9) 0.36114(9)
N3 N -0.02545(14) 0.31189(10) 0.08186(9)
C2 C 0.03455(16) 0.27364(11) 0.03590(11)
C3 C 0.61379(18) 0.13600(12) 0.38642(12)
C4 C 0.12686(16) 0.30782(11) 0.00060(11)
C5 C 0.05603(17) 0.19357(11) -0.07315(11)
N4 N 0.63619(15) 0.13122(10) 0.31033(10)
C6 C 0.47176(17) 0.03736(11) 0.29029(11)
C7 C 0.10386(18) 0.42307(12) 0.05982(11)
C8 C 0.17463(17) 0.24226(11) -0.04341(11)
C9 C 0.52355(18) -0.02888(12) 0.18177(11)
C10 C 0.15968(18) 0.15256(12) 0.14776(11)
H1 H 0.0799 0.1491 0.1613
H2 H 0.1922 0.2042 0.1642
C11 C 0.14518(16) 0.14671(11) 0.05781(11)
H3 H 0.1407 0.0907 0.0433
C12 C 0.33668(17) 0.04782(12) 0.15876(11)
H4 H 0.2947 0.0170 0.1134
C13 C 0.44015(17) 0.09680(11) 0.13093(12)
H5 H 0.4377 0.0851 0.0747
C14 C 0.43416(19) 0.18580(12) 0.14008(13)
H6 H 0.5155 0.2068 0.1445
H7 H 0.4082 0.1970 0.1896
C15 C 0.1369(2) 0.50230(12) 0.07535(13)
H8 H 0.2003 0.5239 0.0547
C16 C 0.24108(18) 0.09029(13) 0.19561(12)
H9 H 0.2829 0.1154 0.2440
H10 H 0.1886 0.0503 0.2112
C17 C 0.41082(17) -0.01009(11) 0.21939(11)
C18 C 0.24797(16) 0.18593(11) 0.02010(11)
H11 H 0.2842 0.1447 -0.0079
C19 C 0.55874(17) 0.06017(12) 0.17992(11)
C20 C 0.52006(19) 0.09216(12) 0.41112(12)
C21 C -0.0537(2) 0.43893(14) 0.13765(13)
H12 H -0.1178 0.4188 0.1586
C22 C 0.00853(18) 0.39007(12) 0.09293(11)
C23 C 0.6885(2) 0.18499(14) 0.44165(14)
H13 H 0.7494 0.2147 0.4260
C24 C 0.02891(16) 0.18773(11) 0.01279(11)
C25 C 0.0765(2) 0.54739(14) 0.12041(14)
H14 H 0.0998 0.5995 0.1313
C26 C 0.7185(2) -0.09106(15) 0.22395(16)
H15 H 0.7177 -0.0961 0.1682
H16 H 0.7496 -0.1387 0.2506
H17 H 0.7693 -0.0475 0.2449
C27 C 0.5032(2) 0.09909(13) 0.48980(13)
H18 H 0.4404 0.0721 0.5063
C28 C 0.6715(2) 0.18881(15) 0.51804(15)
H19 H 0.7219 0.2206 0.5545
C29 C -0.0001(2) 0.06489(14) -0.12884(15)
H20 H -0.0068 0.0336 -0.0833
H21 H 0.0227 0.0317 -0.1688
H22 H -0.0767 0.0893 -0.1495
C30 C 0.5798(2) 0.14584(14) 0.54202(13)
H23 H 0.5703 0.1488 0.5945
C31 C 0.35076(18) 0.23002(12) 0.07387(13)
H24 H 0.4013 0.2533 0.0401
H25 H 0.3147 0.2733 0.0982
C32 C -0.0369(2) 0.24565(15) -0.20219(13)
H26 H 0.0157 0.2894 -0.2064
H27 H -0.1169 0.2571 -0.2311
H28 H -0.0064 0.1993 -0.2238
C33 C 0.4580(2) -0.13543(15) 0.09085(15)
H29 H 0.4977 -0.1690 0.1330
H30 H 0.4739 -0.1543 0.0411
H31 H 0.3722 -0.1359 0.0895
C34 C -0.0201(2) 0.51609(15) 0.15049(14)
H32 H -0.0624 0.5482 0.1797
loop_
_geom_bond_atom_site_label_1
_geom_bond_atom_site_label_2
_geom_bond_site_symmetry_1
_geom_bond_site_symmetry_2
Cl1 C24 1_555 1_555
Cl2 C8 1_555 1_555
Cl3 C17 1_555 1_555
Cl4 C19 1_555 1_555
O1 C5 1_555 1_555
O2 C9 1_555 1_555
O3 C5 1_555 1_555
O4 C9 1_555 1_555
C1 N4 1_555 1_555
N1 C4 1_555 1_555
N2 C6 1_555 1_555
N3 C2 1_555 1_555
C2 C4 1_555 1_555
C3 N4 1_555 1_555
C4 C8 1_555 1_555
C5 C8 1_555 1_555
C6 C1 1_555 1_555
C7 N1 1_555 1_555
C8 C18 1_555 1_555
C9 C17 1_555 1_555
C10 H1 1_555 1_555
H2 C10 1_555 1_555
C11 C10 1_555 1_555
H3 C11 1_555 1_555
C12 H4 1_555 1_555
C13 C12 1_555 1_555
H5 C13 1_555 1_555
C14 C13 1_555 1_555
H6 C14 1_555 1_555
H7 C14 1_555 1_555
C15 C7 1_555 1_555
H8 C15 1_555 1_555
C16 C10 1_555 1_555
H9 C16 1_555 1_555
H10 C16 1_555 1_555
C17 C6 1_555 1_555
C18 C11 1_555 1_555
H11 C18 1_555 1_555
C19 C1 1_555 1_555
C20 N2 1_555 1_555
C21 H12 1_555 1_555
C22 N3 1_555 1_555
C23 C3 1_555 1_555
H13 C23 1_555 1_555
C24 C2 1_555 1_555
C25 C15 1_555 1_555
H14 C25 1_555 1_555
C26 O2 1_555 1_555
H15 C26 1_555 1_555
H16 C26 1_555 1_555
H17 C26 1_555 1_555
C27 C20 1_555 1_555
H18 C27 1_555 1_555
C28 C23 1_555 1_555
H19 C28 1_555 1_555
C29 O3 1_555 1_555
H20 C29 1_555 1_555
H21 C29 1_555 1_555
H22 C29 1_555 1_555
C30 C27 1_555 1_555
H23 C30 1_555 1_555
C31 C14 1_555 1_555
H24 C31 1_555 1_555
H25 C31 1_555 1_555
C32 O1 1_555 1_555
H26 C32 1_555 1_555
H27 C32 1_555 1_555
H28 C32 1_555 1_555
C33 O4 1_555 1_555
H29 C33 1_555 1_555
H30 C33 1_555 1_555
H31 C33 1_555 1_555
C34 C21 1_555 1_555
H32 C34 1_555 1_555
C3 C20 1_555 1_555
C5 C24 1_555 1_555
C7 C22 1_555 1_555
C9 C19 1_555 1_555
C11 C24 1_555 1_555
C12 C16 1_555 1_555
C12 C17 1_555 1_555
C13 C19 1_555 1_555
C18 C31 1_555 1_555
C21 C22 1_555 1_555
C25 C34 1_555 1_555
C28 C30 1_555 1_555

#END
