
#######################################################################
#
#                 Cambridge Crystallographic Data Centre
#                                CCDC 
#
#######################################################################
#
# If this CIF has been generated from an entry in the Cambridge 
# Structural Database, then it will include bibliographic, chemical, 
# crystal, experimental, refinement or atomic coordinate data resulting 
# from the CCDC's data processing and validation procedures.
#
#######################################################################

data_PECYED
_chemical_formula_moiety         'C10 H8 Cl1 N1 O1 Se1'
_chemical_name_systematic        
(2-(4-Chlorophenyl)-1,3-selenazol-4-yl)methanol
_symmetry_cell_setting           monoclinic
_symmetry_space_group_name_H-M   'P 21/c'
_symmetry_Int_Tables_number      14
_space_group_name_Hall           '-P 2ybc'
loop_
_symmetry_equiv_pos_site_id
_symmetry_equiv_pos_as_xyz
1 x,y,z
2 -x,1/2+y,1/2-z
3 -x,-y,-z
4 x,1/2-y,1/2+z
_cell_length_a                   14.8150(15)
_cell_length_b                   4.5707(4)
_cell_length_c                   14.9123(14)
_cell_angle_alpha                90
_cell_angle_beta                 96.6420(10)
_cell_angle_gamma                90
_cell_volume                     1003.01
_exptl_crystal_colour            white
_exptl_crystal_description       block
_cell_formula_units_Z            4
loop_
_atom_site_label
_atom_site_type_symbol
_atom_site_fract_x
_atom_site_fract_y
_atom_site_fract_z
Se1 Se 0.74166(3) 0.13939(10) 0.30636(3)
Cl1 Cl 0.93843(9) 1.0498(3) 0.66855(9)
O1 O 0.4348(2) -0.0090(8) 0.3910(2)
H1 H 0.4149 -0.0297 0.4396
N1 N 0.6330(2) 0.1313(7) 0.4388(2)
C1 C 0.8698(3) 0.8234(9) 0.5942(3)
C2 C 0.7838(3) 0.7563(10) 0.6124(3)
H2 H 0.7612 0.8350 0.6628
C3 C 0.7307(3) 0.5702(9) 0.5551(3)
H3 H 0.6722 0.5232 0.5672
C4 C 0.7644(3) 0.4523(9) 0.4790(2)
C5 C 0.8507(3) 0.5313(11) 0.4624(3)
H4 H 0.8735 0.4589 0.4112
C6 C 0.9042(4) 0.7147(11) 0.5196(3)
H5 H 0.9626 0.7637 0.5078
C7 C 0.7083(3) 0.2511(9) 0.4200(2)
C8 C 0.6372(3) -0.0813(9) 0.2973(3)
H6 H 0.6171 -0.1989 0.2481
C9 C 0.5933(3) -0.0506(9) 0.3712(2)
C10 C 0.5071(3) -0.2087(10) 0.3850(3)
H7 H 0.4912 -0.3417 0.3349
H8 H 0.5167 -0.3236 0.4399
loop_
_geom_bond_atom_site_label_1
_geom_bond_atom_site_label_2
_geom_bond_site_symmetry_1
_geom_bond_site_symmetry_2
Se1 C7 1_555 1_555
Cl1 C1 1_555 1_555
O1 H1 1_555 1_555
N1 C7 1_555 1_555
C1 C2 1_555 1_555
C2 H2 1_555 1_555
C3 C2 1_555 1_555
H3 C3 1_555 1_555
C4 C3 1_555 1_555
C5 C4 1_555 1_555
H4 C5 1_555 1_555
C6 C1 1_555 1_555
H5 C6 1_555 1_555
C7 C4 1_555 1_555
C8 Se1 1_555 1_555
H6 C8 1_555 1_555
C9 N1 1_555 1_555
C10 O1 1_555 1_555
H7 C10 1_555 1_555
H8 C10 1_555 1_555
C5 C6 1_555 1_555
C8 C9 1_555 1_555
C9 C10 1_555 1_555

#END
