
#######################################################################
#
#                 Cambridge Crystallographic Data Centre
#                                CCDC 
#
#######################################################################
#
# If this CIF has been generated from an entry in the Cambridge 
# Structural Database, then it will include bibliographic, chemical, 
# crystal, experimental, refinement or atomic coordinate data resulting 
# from the CCDC's data processing and validation procedures.
#
#######################################################################

data_PECZED
_chemical_formula_moiety         'C20 H16 N4 O5'
_chemical_name_systematic        
N-(4-Nitrophenyl)-2-(4-nitrophenylamino)-2-phenylacetamide
_symmetry_cell_setting           monoclinic
_symmetry_space_group_name_H-M   'P 21/c'
_symmetry_Int_Tables_number      14
_space_group_name_Hall           '-P 2ybc'
loop_
_symmetry_equiv_pos_site_id
_symmetry_equiv_pos_as_xyz
1 x,y,z
2 -x,1/2+y,1/2-z
3 -x,-y,-z
4 x,1/2-y,1/2+z
_cell_length_a                   6.833(1)
_cell_length_b                   16.775(3)
_cell_length_c                   16.456(2)
_cell_angle_alpha                90
_cell_angle_beta                 90.07(1)
_cell_angle_gamma                90
_cell_volume                     1886.24
_cell_formula_units_Z            4
loop_
_atom_site_label
_atom_site_type_symbol
_atom_site_fract_x
_atom_site_fract_y
_atom_site_fract_z
O1 O -0.01217(19) 0.07490(7) 0.19698(9)
O2 O -0.21381(19) 0.16889(8) 0.16544(10)
O3 O 0.6893(2) 0.45189(7) 0.42250(8)
O4 O 1.0110(3) 0.86377(11) 0.53506(12)
O5 O 1.1860(2) 0.76892(11) 0.58414(12)
N1 N 0.4369(2) 0.36922(9) 0.33693(10)
N2 N 0.5418(2) 0.57112(8) 0.39904(9)
N3 N -0.0586(2) 0.14591(9) 0.19543(10)
N4 N 1.0455(3) 0.79332(13) 0.54603(12)
C1 C 0.0724(2) 0.20416(10) 0.22995(10)
C2 C 0.2362(2) 0.17886(10) 0.27186(11)
H1 H 0.2634 0.1248 0.2768
C3 C 0.3574(3) 0.23405(10) 0.30587(11)
H2 H 0.4678 0.2172 0.3342
C4 C 0.3183(2) 0.31593(10) 0.29890(11)
C5 C 0.1537(2) 0.33962(10) 0.25395(11)
H3 H 0.1278 0.3936 0.2468
C6 C 0.0313(3) 0.28417(10) 0.22064(12)
H4 H -0.0791 0.3002 0.1919
C7 C 0.4328(3) 0.45462(9) 0.32397(11)
H5 H 0.2990 0.4744 0.3313
C8 C 0.5059(3) 0.47699(9) 0.23958(11)
C9 C 0.3965(3) 0.52301(10) 0.18639(12)
H6 H 0.2731 0.5408 0.2017
C10 C 0.4693(3) 0.54263(12) 0.11091(13)
H7 H 0.3950 0.5738 0.0758
C11 C 0.6512(4) 0.51642(13) 0.08724(13)
H8 H 0.6997 0.5295 0.0362
C12 C 0.7610(3) 0.47070(12) 0.13969(14)
H9 H 0.8844 0.4530 0.1241
C13 C 0.6887(3) 0.45118(11) 0.21495(13)
H10 H 0.7638 0.4201 0.2499
C14 C 0.5670(3) 0.49187(10) 0.38778(11)
C15 C 0.6648(3) 0.62388(10) 0.44148(10)
C16 C 0.8330(3) 0.60010(12) 0.48139(12)
H11 H 0.8644 0.5462 0.4845
C17 C 0.9544(3) 0.65580(12) 0.51662(12)
H12 H 1.0672 0.6396 0.5436
C18 C 0.9089(3) 0.73469(12) 0.51180(11)
C19 C 0.7395(3) 0.75983(11) 0.47506(12)
H13 H 0.7077 0.8137 0.4739
C20 C 0.6171(3) 0.70449(11) 0.44002(11)
H14 H 0.5018 0.7211 0.4152
H15 H 0.532(2) 0.3553(11) 0.3660(10)
H16 H 0.447(2) 0.5924(10) 0.3726(10)
loop_
_geom_bond_atom_site_label_1
_geom_bond_atom_site_label_2
_geom_bond_site_symmetry_1
_geom_bond_site_symmetry_2
O1 N3 1_555 1_555
O2 N3 1_555 1_555
O3 C14 1_555 1_555
O4 N4 1_555 1_555
O5 N4 1_555 1_555
N1 C4 1_555 1_555
N2 C14 1_555 1_555
N3 C1 1_555 1_555
N4 C18 1_555 1_555
C1 C2 1_555 1_555
C2 H1 1_555 1_555
C3 C2 1_555 1_555
H2 C3 1_555 1_555
C4 C3 1_555 1_555
C5 C4 1_555 1_555
H3 C5 1_555 1_555
C6 C1 1_555 1_555
H4 C6 1_555 1_555
C7 N1 1_555 1_555
H5 C7 1_555 1_555
C8 C7 1_555 1_555
C9 C8 1_555 1_555
H6 C9 1_555 1_555
C10 C9 1_555 1_555
H7 C10 1_555 1_555
C11 C10 1_555 1_555
H8 C11 1_555 1_555
C12 C11 1_555 1_555
H9 C12 1_555 1_555
C13 C8 1_555 1_555
H10 C13 1_555 1_555
C14 C7 1_555 1_555
C15 N2 1_555 1_555
C16 C15 1_555 1_555
H11 C16 1_555 1_555
C17 C16 1_555 1_555
H12 C17 1_555 1_555
C18 C17 1_555 1_555
C19 C18 1_555 1_555
H13 C19 1_555 1_555
C20 C15 1_555 1_555
H14 C20 1_555 1_555
H15 N1 1_555 1_555
H16 N2 1_555 1_555
C5 C6 1_555 1_555
C12 C13 1_555 1_555
C19 C20 1_555 1_555

#END
