
#######################################################################
#
#                 Cambridge Crystallographic Data Centre
#                                CCDC 
#
#######################################################################
#
# If this CIF has been generated from an entry in the Cambridge 
# Structural Database, then it will include bibliographic, chemical, 
# crystal, experimental, refinement or atomic coordinate data resulting 
# from the CCDC's data processing and validation procedures.
#
#######################################################################

data_PECZOO
_chemical_formula_moiety         'C12 H12 O7'
_chemical_name_systematic        
"2,2'-((4-Acetyl-1,3-phenylene)bis(oxy))diacetic acid"
_symmetry_cell_setting           triclinic
_symmetry_space_group_name_H-M   'P -1'
_symmetry_Int_Tables_number      2
_space_group_name_Hall           '-P 1'
loop_
_symmetry_equiv_pos_site_id
_symmetry_equiv_pos_as_xyz
1 x,y,z
2 -x,-y,-z
_cell_length_a                   5.1351(6)
_cell_length_b                   7.8346(9)
_cell_length_c                   15.6157(18)
_cell_angle_alpha                86.217(2)
_cell_angle_beta                 81.3210(10)
_cell_angle_gamma                72.101(2)
_cell_volume                     590.861
_exptl_crystal_colour            colorless
_exptl_crystal_description       block
_cell_formula_units_Z            2
loop_
_atom_site_label
_atom_site_type_symbol
_atom_site_fract_x
_atom_site_fract_y
_atom_site_fract_z
C1 C 0.9386(3) 0.64900(17) 0.22991(8)
C2 C 0.6877(3) 0.75023(17) 0.27294(9)
H1 H 0.6254 0.8735 0.2630
C3 C 0.5297(3) 0.66705(18) 0.33088(9)
C4 C 0.6221(3) 0.48246(18) 0.34697(9)
H2 H 0.5166 0.4266 0.3858
C5 C 0.8736(3) 0.38464(17) 0.30388(9)
H3 H 0.9361 0.2618 0.3152
C6 C 1.0383(3) 0.46109(17) 0.24430(9)
C7 C 1.0249(3) 0.90973(18) 0.15901(10)
H4 H 1.0211 0.9696 0.2118
H5 H 0.8424 0.9519 0.1412
C8 C 1.2360(3) 0.94824(18) 0.08886(9)
C9 C 0.1228(3) 0.70250(18) 0.43152(9)
H6 H 0.2214 0.6572 0.4806
H7 H 0.0869 0.6029 0.4068
C10 C -0.1449(3) 0.84177(18) 0.46089(9)
C11 C 1.3024(3) 0.33765(19) 0.20074(10)
C12 C 1.4694(4) 0.3989(2) 0.12491(12)
H8 H 1.6153 0.2977 0.1007
H9 H 1.5473 0.4845 0.1436
H10 H 1.3527 0.4537 0.0818
O1 O 1.1504(2) 1.10815(14) 0.05426(8)
H11 H 1.2707 1.1235 0.0164
O2 O 1.4614(2) 0.84065(14) 0.06836(7)
O3 O 1.1036(2) 0.72247(13) 0.17277(7)
O4 O 0.28549(19) 0.77925(13) 0.36867(7)
O5 O -0.2075(2) 0.99593(13) 0.43053(7)
O6 O -0.2994(2) 0.78060(14) 0.51955(8)
H12 H -0.4400 0.8616 0.5357
O7 O 1.3789(3) 0.18327(14) 0.22649(9)
loop_
_geom_bond_atom_site_label_1
_geom_bond_atom_site_label_2
_geom_bond_site_symmetry_1
_geom_bond_site_symmetry_2
C1 C2 1_555 1_555
C2 H1 1_555 1_555
C3 C2 1_555 1_555
C4 C3 1_555 1_555
H2 C4 1_555 1_555
C5 C4 1_555 1_555
H3 C5 1_555 1_555
C6 C1 1_555 1_555
C7 H4 1_555 1_555
H5 C7 1_555 1_555
C8 C7 1_555 1_555
C9 H6 1_555 1_555
H7 C9 1_555 1_555
C10 C9 1_555 1_555
C11 C6 1_555 1_555
C12 C11 1_555 1_555
H8 C12 1_555 1_555
H9 C12 1_555 1_555
H10 C12 1_555 1_555
O1 C8 1_555 1_555
H11 O1 1_555 1_555
O2 C8 1_555 1_555
O3 C1 1_555 1_555
O4 C3 1_555 1_555
O5 C10 1_555 1_555
O6 C10 1_555 1_555
H12 O6 1_555 1_555
O7 C11 1_555 1_555
C5 C6 1_555 1_555
C7 O3 1_555 1_555
C9 O4 1_555 1_555

#END
