
#######################################################################
#
#                 Cambridge Crystallographic Data Centre
#                                CCDC 
#
#######################################################################
#
# If this CIF has been generated from an entry in the Cambridge 
# Structural Database, then it will include bibliographic, chemical, 
# crystal, experimental, refinement or atomic coordinate data resulting 
# from the CCDC's data processing and validation procedures.
#
#######################################################################

data_PEDCIM
_chemical_formula_moiety         'C2 H5 N2 1+,Cl1 O4 1-'
_chemical_name_systematic        'Cyanomethylammonium perchlorate'
_symmetry_cell_setting           orthorhombic
_symmetry_space_group_name_H-M   'P b c a'
_symmetry_Int_Tables_number      61
_space_group_name_Hall           '-P 2ac 2ab'
loop_
_symmetry_equiv_pos_site_id
_symmetry_equiv_pos_as_xyz
1 x,y,z
2 1/2-x,-y,1/2+z
3 1/2+x,1/2-y,-z
4 -x,1/2+y,1/2-z
5 -x,-y,-z
6 1/2+x,y,1/2-z
7 1/2-x,1/2+y,z
8 x,1/2-y,1/2+z
_cell_length_a                   9.908(2)
_cell_length_b                   10.398(2)
_cell_length_c                   11.176(2)
_cell_angle_alpha                90
_cell_angle_beta                 90
_cell_angle_gamma                90
_cell_volume                     1151.39
_exptl_crystal_colour            colorless
_exptl_crystal_description       prism
_cell_formula_units_Z            8
loop_
_atom_site_label
_atom_site_type_symbol
_atom_site_fract_x
_atom_site_fract_y
_atom_site_fract_z
Cl1 Cl 0.24234(4) 0.55298(4) 0.39030(4)
O1 O 0.30000(17) 0.51248(16) 0.27907(14)
O2 O 0.10533(16) 0.50926(18) 0.39645(16)
O3 O 0.31737(19) 0.50020(19) 0.48743(16)
O4 O 0.24459(16) 0.69160(15) 0.39638(15)
N1 N 0.38874(19) 0.80122(18) 0.60010(15)
H1 H 0.3343 0.8461 0.6478
H2 H 0.3423 0.7726 0.5374
H3 H 0.4558 0.8514 0.5750
N2 N 0.5768(2) 0.7581(2) 0.85728(18)
C1 C 0.4448(2) 0.6911(2) 0.6667(2)
H4 H 0.3718 0.6343 0.6900
H5 H 0.5049 0.6432 0.6147
C2 C 0.5189(2) 0.7311(2) 0.77361(19)
loop_
_geom_bond_atom_site_label_1
_geom_bond_atom_site_label_2
_geom_bond_site_symmetry_1
_geom_bond_site_symmetry_2
Cl1 O1 1_555 1_555
N1 H1 1_555 1_555
H2 N1 1_555 1_555
H3 N1 1_555 1_555
N2 C2 1_555 1_555
O2 Cl1 1_555 1_555
O3 Cl1 1_555 1_555
O4 Cl1 1_555 1_555
C1 N1 1_555 1_555
H4 C1 1_555 1_555
H5 C1 1_555 1_555
C2 C1 1_555 1_555

#END
