
#######################################################################
#
#                 Cambridge Crystallographic Data Centre
#                                CCDC 
#
#######################################################################
#
# If this CIF has been generated from an entry in the Cambridge 
# Structural Database, then it will include bibliographic, chemical, 
# crystal, experimental, refinement or atomic coordinate data resulting 
# from the CCDC's data processing and validation procedures.
#
#######################################################################

data_PEDDEJ
_chemical_formula_moiety         'C30 H21 P1,0.5(C1 H1 Cl3)'
_chemical_name_systematic        
'tris(naphthalen-1-yl)phosphane chloroform solvate'
_symmetry_cell_setting           monoclinic
_symmetry_space_group_name_H-M   'P 21/c'
_symmetry_Int_Tables_number      14
_space_group_name_Hall           '-P 2ybc'
loop_
_symmetry_equiv_pos_site_id
_symmetry_equiv_pos_as_xyz
1 x,y,z
2 -x,1/2+y,1/2-z
3 -x,-y,-z
4 x,1/2-y,1/2+z
_cell_length_a                   9.197(3)
_cell_length_b                   14.564(5)
_cell_length_c                   18.675(5)
_cell_angle_alpha                90
_cell_angle_beta                 107.061(14)
_cell_angle_gamma                90
_cell_volume                     2391.34
_exptl_crystal_colour            colorless
_exptl_crystal_description       needle
_cell_formula_units_Z            4
loop_
_atom_site_label
_atom_site_type_symbol
_atom_site_fract_x
_atom_site_fract_y
_atom_site_fract_z
P1 P 0.73007(7) 0.85270(5) 0.62816(4)
C1 C 0.6589(3) 0.80104(19) 0.53493(14)
C2 C 0.7611(3) 0.74531(18) 0.50785(15)
C3 C 0.9148(3) 0.72986(19) 0.54983(15)
H1 H 0.9534 0.7578 0.5963
C4 C 1.0071(4) 0.6744(2) 0.52300(17)
H2 H 1.1069 0.664 0.5518
C5 C 0.9517(5) 0.6332(2) 0.4522(2)
H3 H 1.0149 0.5956 0.4343
C6 C 0.8055(4) 0.6484(2) 0.40970(18)
H4 H 0.7708 0.6216 0.3625
C7 C 0.7056(4) 0.7039(2) 0.43570(16)
C8 C 0.5525(4) 0.7185(2) 0.39308(17)
H5 H 0.5166 0.6925 0.3457
C9 C 0.4568(4) 0.7699(2) 0.42033(18)
H6 H 0.3559 0.7775 0.3921
C10 C 0.5105(3) 0.8114(2) 0.49096(17)
H7 H 0.4443 0.8469 0.5086
C11 C 0.8153(3) 0.95984(18) 0.60744(15)
C12 C 0.9083(3) 1.01264(17) 0.66864(15)
C13 C 0.9367(3) 0.98622(19) 0.74493(15)
H8 H 0.8914 0.9334 0.7565
C14 C 1.0293(3) 1.0370(2) 0.80119(16)
H9 H 1.0476 1.0181 0.8506
C15 C 1.0980(3) 1.1185(2) 0.78521(17)
H10 H 1.1608 1.1529 0.824
C16 C 1.0719(3) 1.14612(19) 0.71339(16)
H11 H 1.1168 1.2 0.7035
C17 C 0.9776(3) 1.09469(18) 0.65280(16)
C18 C 0.9538(3) 1.12187(19) 0.57754(17)
H12 H 0.999 1.1754 0.5672
C19 C 0.8659(3) 1.0710(2) 0.52010(16)
H13 H 0.8516 1.0895 0.4709
C20 C 0.7961(3) 0.98966(19) 0.53533(16)
H14 H 0.7357 0.9555 0.4956
C21 C 0.5560(3) 0.89395(18) 0.64718(14)
C22 C 0.5185(3) 0.98566(19) 0.64516(15)
H15 H 0.5778 1.028 0.6289
C23 C 0.3931(3) 1.01723(19) 0.66694(15)
H16 H 0.3705 1.0796 0.6647
C24 C 0.3042(3) 0.9567(2) 0.69129(15)
H17 H 0.2224 0.9783 0.7061
C25 C 0.3358(3) 0.86131(19) 0.69407(14)
C26 C 0.2434(3) 0.7973(2) 0.71761(15)
H18 H 0.1604 0.8183 0.7318
C27 C 0.2735(3) 0.7053(2) 0.71984(16)
H19 H 0.212 0.6642 0.7357
C28 C 0.3985(3) 0.6730(2) 0.69789(17)
H20 H 0.4186 0.6103 0.699
C29 C 0.4911(3) 0.73308(19) 0.67483(16)
H21 H 0.5735 0.7105 0.661
C30 C 0.4632(3) 0.82826(18) 0.67181(15)
Cl1? Cl 0.68271(18) 0.46375(16) 0.50033(11)
Cl2? Cl 0.3885(2) 0.49626(13) 0.39948(12)
Cl3? Cl 0.4575(3) 0.55581(16) 0.55292(13)
C31? C 0.4885(7) 0.4716(4) 0.4923(4)
H22? H 0.4538 0.4123 0.5059
loop_
_geom_bond_atom_site_label_1
_geom_bond_atom_site_label_2
_geom_bond_site_symmetry_1
_geom_bond_site_symmetry_2
P1 C1 1_555 1_555
C1 C2 1_555 1_555
C2 C3 1_555 1_555
C3 H1 1_555 1_555
C4 C3 1_555 1_555
H2 C4 1_555 1_555
C5 C4 1_555 1_555
H3 C5 1_555 1_555
C6 C5 1_555 1_555
H4 C6 1_555 1_555
C7 C2 1_555 1_555
C8 C7 1_555 1_555
H5 C8 1_555 1_555
C9 C8 1_555 1_555
H6 C9 1_555 1_555
C10 C1 1_555 1_555
H7 C10 1_555 1_555
C11 P1 1_555 1_555
C12 C11 1_555 1_555
C13 C12 1_555 1_555
H8 C13 1_555 1_555
C14 C13 1_555 1_555
H9 C14 1_555 1_555
C15 C14 1_555 1_555
H10 C15 1_555 1_555
C16 C15 1_555 1_555
H11 C16 1_555 1_555
C17 C12 1_555 1_555
C18 C17 1_555 1_555
H12 C18 1_555 1_555
C19 C18 1_555 1_555
H13 C19 1_555 1_555
C20 C11 1_555 1_555
H14 C20 1_555 1_555
C21 P1 1_555 1_555
C22 C21 1_555 1_555
H15 C22 1_555 1_555
C23 C22 1_555 1_555
H16 C23 1_555 1_555
C24 C23 1_555 1_555
H17 C24 1_555 1_555
C25 C24 1_555 1_555
C26 C25 1_555 1_555
H18 C26 1_555 1_555
C27 C26 1_555 1_555
H19 C27 1_555 1_555
C28 C27 1_555 1_555
H20 C28 1_555 1_555
C29 C28 1_555 1_555
H21 C29 1_555 1_555
C30 C21 1_555 1_555
C6 C7 1_555 1_555
C9 C10 1_555 1_555
C16 C17 1_555 1_555
C19 C20 1_555 1_555
C25 C30 1_555 1_555
C29 C30 1_555 1_555

#END
