
#######################################################################
#
#                 Cambridge Crystallographic Data Centre
#                                CCDC 
#
#######################################################################
#
# If this CIF has been generated from an entry in the Cambridge 
# Structural Database, then it will include bibliographic, chemical, 
# crystal, experimental, refinement or atomic coordinate data resulting 
# from the CCDC's data processing and validation procedures.
#
#######################################################################

data_PEDGAJ
_chemical_formula_moiety         'C23 H18 N2 O2'
_chemical_name_systematic        
4-(4-methoxyphenyl)-1,2-diphenyl-1H-imidazole-5-carbaldehyde
_symmetry_cell_setting           monoclinic
_symmetry_space_group_name_H-M   'P 21/c'
_symmetry_Int_Tables_number      14
_space_group_name_Hall           '-P 2ybc'
loop_
_symmetry_equiv_pos_site_id
_symmetry_equiv_pos_as_xyz
1 x,y,z
2 -x,1/2+y,1/2-z
3 -x,-y,-z
4 x,1/2-y,1/2+z
_cell_length_a                   11.6493(4)
_cell_length_b                   7.9939(3)
_cell_length_c                   19.7500(10)
_cell_angle_alpha                90
_cell_angle_beta                 94.522(3)
_cell_angle_gamma                90
_cell_volume                     1833.46
_exptl_crystal_colour            colorless
_exptl_crystal_description       plate
_cell_formula_units_Z            4
loop_
_atom_site_label
_atom_site_type_symbol
_atom_site_fract_x
_atom_site_fract_y
_atom_site_fract_z
C1 C 0.1597(2) 0.2016(3) 0.02713(13)
C2 C 0.1506(2) 0.2219(4) -0.04290(13)
C3 C -0.0196(2) 0.2541(3) -0.00116(12)
C4 C 0.2408(3) 0.2237(4) -0.08925(16)
H1 H 0.3163 0.2241 -0.0700
C5 C -0.1423(2) 0.2868(3) 0.00710(13)
C6 C -0.1856(2) 0.2272(4) 0.06593(13)
H2 H -0.1381 0.1668 0.0971
C7 C -0.2994(2) 0.2568(5) 0.07873(15)
H3 H -0.3276 0.2163 0.1183
C8 C -0.3701(2) 0.3457(4) 0.03318(16)
H4 H -0.4462 0.3657 0.0418
C9 C -0.3285(2) 0.4047(4) -0.02494(16)
H5 H -0.3769 0.4643 -0.0560
C10 C -0.2152(2) 0.3771(4) -0.03826(14)
H6 H -0.1878 0.4193 -0.0778
C11 C -0.0213(2) 0.2800(4) -0.12725(12)
C12 C -0.0917(2) 0.1565(4) -0.15502(14)
H7 H -0.0964 0.0534 -0.1336
C13 C -0.1562(3) 0.1885(6) -0.21588(17)
H8 H -0.2046 0.1065 -0.2355
C14 C -0.1484(3) 0.3413(6) -0.24716(16)
H9 H -0.1940 0.3637 -0.2869
C15 C -0.0739(3) 0.4607(5) -0.22011(15)
H10 H -0.0665 0.5617 -0.2427
C16 C -0.0102(2) 0.4322(4) -0.15999(13)
H11 H 0.0398 0.5137 -0.1413
C17 C 0.2595(2) 0.1661(3) 0.07573(13)
C18 C 0.2613(2) 0.2304(4) 0.14096(14)
H12 H 0.2001 0.2969 0.1523
C19 C 0.3491(3) 0.2003(4) 0.18937(14)
H13 H 0.3473 0.2456 0.2326
C20 C 0.4408(2) 0.1019(4) 0.17350(14)
C21 C 0.4400(2) 0.0342(4) 0.10936(15)
H14 H 0.5008 -0.0337 0.0986
C22 C 0.3517(2) 0.0644(4) 0.06110(14)
H15 H 0.3532 0.0169 0.0182
C23 C 0.5350(3) 0.1236(6) 0.28549(17)
H16 H 0.5335 0.2437 0.2854
H17 H 0.6035 0.0854 0.3110
H18 H 0.4686 0.0819 0.3059
N1 N 0.03419(18) 0.2551(3) -0.06053(10)
N2 N 0.05425(17) 0.2208(3) 0.05188(10)
O1 O 0.2275(2) 0.2247(4) -0.14943(14)
O2 O 0.53404(17) 0.0641(3) 0.21751(11)
loop_
_geom_bond_atom_site_label_1
_geom_bond_atom_site_label_2
_geom_bond_site_symmetry_1
_geom_bond_site_symmetry_2
C1 C2 1_555 1_555
C2 C4 1_555 1_555
C3 C5 1_555 1_555
C4 H1 1_555 1_555
C5 C6 1_555 1_555
C6 H2 1_555 1_555
C7 C6 1_555 1_555
H3 C7 1_555 1_555
C8 C7 1_555 1_555
H4 C8 1_555 1_555
C9 C8 1_555 1_555
H5 C9 1_555 1_555
C10 C5 1_555 1_555
H6 C10 1_555 1_555
C11 C12 1_555 1_555
C12 H7 1_555 1_555
C13 C12 1_555 1_555
H8 C13 1_555 1_555
C14 C13 1_555 1_555
H9 C14 1_555 1_555
C15 C14 1_555 1_555
H10 C15 1_555 1_555
C16 C11 1_555 1_555
H11 C16 1_555 1_555
C17 C1 1_555 1_555
C18 C17 1_555 1_555
H12 C18 1_555 1_555
C19 C18 1_555 1_555
H13 C19 1_555 1_555
C20 C19 1_555 1_555
C21 C20 1_555 1_555
H14 C21 1_555 1_555
C22 C17 1_555 1_555
H15 C22 1_555 1_555
C23 H16 1_555 1_555
H17 C23 1_555 1_555
H18 C23 1_555 1_555
N1 C2 1_555 1_555
N2 C1 1_555 1_555
O1 C4 1_555 1_555
O2 C20 1_555 1_555
C3 N1 1_555 1_555
C3 N2 1_555 1_555
C9 C10 1_555 1_555
C11 N1 1_555 1_555
C15 C16 1_555 1_555
C21 C22 1_555 1_555
C23 O2 1_555 1_555

#END
