
#######################################################################
#
#                 Cambridge Crystallographic Data Centre
#                                CCDC 
#
#######################################################################
#
# If this CIF has been generated from an entry in the Cambridge 
# Structural Database, then it will include bibliographic, chemical, 
# crystal, experimental, refinement or atomic coordinate data resulting 
# from the CCDC's data processing and validation procedures.
#
#######################################################################

data_PEDJUD01
_chemical_formula_moiety         'C29 H19 N1 O3'
_chemical_name_systematic        Indolizine-1,2,3-triyltris(phenylmethanone)
_symmetry_cell_setting           monoclinic
_symmetry_space_group_name_H-M   'P 21/n'
_symmetry_Int_Tables_number      14
_space_group_name_Hall           '-P 2yn'
loop_
_symmetry_equiv_pos_site_id
_symmetry_equiv_pos_as_xyz
1 x,y,z
2 1/2-x,1/2+y,1/2-z
3 -x,-y,-z
4 1/2+x,1/2-y,1/2+z
_cell_length_a                   10.3635(4)
_cell_length_b                   14.5889(6)
_cell_length_c                   14.8392(5)
_cell_angle_alpha                90
_cell_angle_beta                 103.480(4)
_cell_angle_gamma                90
_cell_volume                     2181.76
_exptl_crystal_colour            yellow
_exptl_crystal_description       block
_chemical_melting_point          '203-204 deg.C'
_cell_formula_units_Z            4
loop_
_atom_site_label
_atom_site_type_symbol
_atom_site_fract_x
_atom_site_fract_y
_atom_site_fract_z
O1 O 0.60372(13) 0.58483(9) 0.24774(9)
O2 O 0.33380(10) 0.34487(8) 0.20799(6)
O3 O 0.51513(11) 0.15426(8) 0.15196(7)
N1 N 0.72132(12) 0.42557(9) 0.18603(7)
C1 C 0.32456(16) 0.52792(11) 0.06967(10)
H1 H 0.3696 0.4977 0.0311
C2 C 0.19248(18) 0.55030(12) 0.03735(12)
H2 H 0.1486 0.5346 -0.0227
C3 C 0.1259(2) 0.59548(14) 0.09343(16)
H3 H 0.0367 0.6101 0.0715
C4 C 0.1904(2) 0.61936(13) 0.18218(15)
H4 H 0.1448 0.6501 0.2201
C5 C 0.32224(19) 0.59789(11) 0.21498(12)
H5 H 0.3660 0.6153 0.2746
C6 C 0.39028(16) 0.55031(10) 0.15939(10)
C7 C 0.53296(16) 0.52845(11) 0.19767(10)
C8 C 0.58483(14) 0.44091(10) 0.17532(9)
C9 C 0.52154(14) 0.35764(10) 0.14578(8)
C10 C 0.61723(14) 0.29368(10) 0.13472(9)
C11 C 0.74157(14) 0.33600(10) 0.16041(8)
C12 C 0.87198(15) 0.30445(12) 0.17075(9)
H6 H 0.8877 0.2446 0.1547
C13 C 0.97508(17) 0.36169(14) 0.20429(10)
H7 H 1.0617 0.3408 0.2121
C14 C 0.95133(17) 0.45218(14) 0.22719(11)
H8 H 1.0228 0.4911 0.2492
C15 C 0.82738(16) 0.48384(12) 0.21793(10)
H9 H 0.8129 0.5443 0.2328
C16 C 0.37959(14) 0.33358(10) 0.14024(9)
C17 C 0.29925(14) 0.29277(11) 0.05341(9)
C18 C 0.33537(17) 0.29996(12) -0.03044(10)
H10 H 0.4135 0.3299 -0.0334
C19 C 0.2560(2) 0.26298(15) -0.10933(11)
H11 H 0.2803 0.2688 -0.1656
C20 C 0.1418(2) 0.21780(16) -0.10585(14)
H12 H 0.0890 0.1927 -0.1595
C21 C 0.10510(17) 0.20954(14) -0.02341(15)
H13 H 0.0275 0.1786 -0.0210
C22 C 0.18306(15) 0.24715(12) 0.05619(11)
H14 H 0.1574 0.2418 0.1120
C23 C 0.59025(15) 0.19507(11) 0.11346(9)
C24 C 0.65040(14) 0.14906(10) 0.04394(9)
C25 C 0.69676(15) 0.19846(12) -0.02167(10)
H15 H 0.6939 0.2622 -0.0210
C26 C 0.74695(17) 0.15403(14) -0.08781(11)
H16 H 0.7776 0.1877 -0.1318
C27 C 0.75182(18) 0.06060(15) -0.08877(12)
H17 H 0.7870 0.0307 -0.1330
C28 C 0.70507(19) 0.01037(14) -0.02486(13)
H18 H 0.7078 -0.0533 -0.0262
C29 C 0.65408(17) 0.05452(11) 0.04120(11)
H19 H 0.6219 0.0204 0.0842
loop_
_geom_bond_atom_site_label_1
_geom_bond_atom_site_label_2
_geom_bond_site_symmetry_1
_geom_bond_site_symmetry_2
O1 C7 1_555 1_555
O2 C16 1_555 1_555
O3 C23 1_555 1_555
N1 C8 1_555 1_555
C1 H1 1_555 1_555
C2 C1 1_555 1_555
H2 C2 1_555 1_555
C3 C2 1_555 1_555
H3 C3 1_555 1_555
C4 C3 1_555 1_555
H4 C4 1_555 1_555
C5 C4 1_555 1_555
H5 C5 1_555 1_555
C6 C1 1_555 1_555
C7 C6 1_555 1_555
C8 C7 1_555 1_555
C9 C8 1_555 1_555
C10 C9 1_555 1_555
C11 N1 1_555 1_555
C12 C11 1_555 1_555
H6 C12 1_555 1_555
C13 C12 1_555 1_555
H7 C13 1_555 1_555
C14 C13 1_555 1_555
H8 C14 1_555 1_555
C15 N1 1_555 1_555
H9 C15 1_555 1_555
C16 C9 1_555 1_555
C17 C16 1_555 1_555
C18 C17 1_555 1_555
H10 C18 1_555 1_555
C19 C18 1_555 1_555
H11 C19 1_555 1_555
C20 C19 1_555 1_555
H12 C20 1_555 1_555
C21 C20 1_555 1_555
H13 C21 1_555 1_555
C22 C17 1_555 1_555
H14 C22 1_555 1_555
C23 C10 1_555 1_555
C24 C23 1_555 1_555
C25 C24 1_555 1_555
H15 C25 1_555 1_555
C26 C25 1_555 1_555
H16 C26 1_555 1_555
C27 C26 1_555 1_555
H17 C27 1_555 1_555
C28 C27 1_555 1_555
H18 C28 1_555 1_555
C29 C24 1_555 1_555
H19 C29 1_555 1_555
C5 C6 1_555 1_555
C10 C11 1_555 1_555
C14 C15 1_555 1_555
C21 C22 1_555 1_555
C28 C29 1_555 1_555

#END
