
#######################################################################
#
#                 Cambridge Crystallographic Data Centre
#                                CCDC 
#
#######################################################################
#
# If this CIF has been generated from an entry in the Cambridge 
# Structural Database, then it will include bibliographic, chemical, 
# crystal, experimental, refinement or atomic coordinate data resulting 
# from the CCDC's data processing and validation procedures.
#
#######################################################################

data_PEDREY
_chemical_formula_moiety         'C15 H13 N5 O4'
_chemical_name_systematic        
1-ethyl-4-methyl-5-(2-(4-nitrophenyl)hydrazinylidene)-2,6-dioxo-1,2,5,6-tetrahydropyridine-3-carbonitrile
_symmetry_cell_setting           triclinic
_symmetry_space_group_name_H-M   'P -1'
_symmetry_Int_Tables_number      2
_space_group_name_Hall           '-P 1'
loop_
_symmetry_equiv_pos_site_id
_symmetry_equiv_pos_as_xyz
1 x,y,z
2 -x,-y,-z
_cell_length_a                   8.4086(3)
_cell_length_b                   19.0758(7)
_cell_length_c                   19.3272(7)
_cell_angle_alpha                99.1290(10)
_cell_angle_beta                 92.7340(10)
_cell_angle_gamma                91.2470(10)
_cell_volume                     3055.99
_exptl_crystal_colour            yellow
_exptl_crystal_description       block
_cell_formula_units_Z            8
loop_
_atom_site_label
_atom_site_type_symbol
_atom_site_fract_x
_atom_site_fract_y
_atom_site_fract_z
C1 C 0.0860(2) -0.21149(9) -0.01415(9)
C2 C 0.1896(2) -0.19544(9) 0.04392(10)
H1 H 0.2126 -0.2294 0.0723
C3 C 0.2586(2) -0.12808(9) 0.05919(9)
H2 H 0.3285 -0.1160 0.0982
C4 C 0.2229(2) -0.07858(9) 0.01587(9)
C5 C 0.1169(2) -0.09520(9) -0.04214(9)
H3 H 0.0932 -0.0615 -0.0706
C6 C 0.0472(2) -0.16241(10) -0.05690(10)
H4 H -0.0250 -0.1744 -0.0952
C7 C 0.3357(2) 0.10075(9) 0.00601(9)
C8 C 0.4378(2) 0.12564(9) 0.06922(9)
C9 C 0.4583(2) 0.24254(9) 0.03287(10)
C10 C 0.3584(2) 0.21490(9) -0.02989(10)
C11 C 0.2973(2) 0.14718(9) -0.04383(9)
C12 C 0.5899(3) 0.22263(10) 0.14427(10)
H5 H 0.6612 0.2605 0.1354
H6 H 0.6545 0.1847 0.1570
C13 C 0.4899(3) 0.25003(14) 0.20420(12)
H7 H 0.4303 0.2894 0.1929
H8 H 0.5575 0.2653 0.2455
H9 H 0.4178 0.2130 0.2126
C14 C 0.3268(3) 0.26424(11) -0.07738(11)
C15 C 0.1942(3) 0.12045(11) -0.10824(10)
H10 H 0.1733 0.1588 -0.1338
H11 H 0.0955 0.1016 -0.0949
H12 H 0.2477 0.0838 -0.1373
H13 H 0.358(3) 0.0024(11) 0.0726(12)
N1 N 0.0117(2) -0.28282(9) -0.02996(9)
N2 N 0.29806(19) -0.01122(8) 0.03266(8)
N3 N 0.27210(18) 0.03582(7) -0.00884(8)
N4 N 0.49194(18) 0.19582(7) 0.07975(7)
N5 N 0.3003(3) 0.30283(11) -0.11558(12)
O1 O 0.0576(2) -0.32778(8) 0.00410(9)
O2 O -0.0942(2) -0.29359(8) -0.07676(9)
O3 O 0.47545(18) 0.08645(7) 0.11153(7)
O4 O 0.51102(19) 0.30350(7) 0.04468(8)
C16 C 0.6069(2) 0.50287(10) -0.13050(9)
C17 C 0.5566(2) 0.44151(10) -0.10790(10)
H14 H 0.4841 0.4100 -0.1352
C18 C 0.6161(2) 0.42795(10) -0.04389(9)
H15 H 0.5857 0.3865 -0.0278
C19 C 0.7218(2) 0.47653(9) -0.00349(9)
C20 C 0.7703(2) 0.53827(9) -0.02694(9)
H16 H 0.8412 0.5704 0.0006
C21 C 0.7123(2) 0.55144(10) -0.09134(9)
H17 H 0.7439 0.5924 -0.1081
C22 C 0.9213(2) 0.49636(10) 0.16560(9)
C23 C 0.8829(2) 0.43151(10) 0.19381(10)
C24 C 1.0413(3) 0.47834(11) 0.30115(10)
C25 C 1.0762(2) 0.54232(10) 0.27084(10)
C26 C 1.0205(2) 0.55208(10) 0.20544(9)
C27 C 0.9111(3) 0.35970(11) 0.28772(10)
H18 H 0.8020 0.3438 0.2743
H19 H 0.9221 0.3689 0.3386
C28 C 1.0216(4) 0.30211(14) 0.26049(14)
H20 H 1.0141 0.2942 0.2101
H21 H 0.9924 0.2591 0.2773
H22 H 1.1290 0.3162 0.2767
C29 C 1.1736(3) 0.59577(12) 0.31477(12)
C30 C 1.0578(3) 0.61766(11) 0.17554(11)
H23 H 1.1271 0.6488 0.2082
H24 H 0.9608 0.6413 0.1670
H25 H 1.1093 0.6051 0.1322
H26 H 0.750(3) 0.4208(14) 0.0806(14)
N6 N 0.5440(2) 0.51760(9) -0.19838(9)
N7 N 0.7754(2) 0.46177(9) 0.06230(8)
N8 N 0.86771(18) 0.50823(8) 0.10302(8)
N9 N 0.9452(2) 0.42604(8) 0.26000(8)
N10 N 1.2488(4) 0.63859(13) 0.34982(12)
O5 O 0.4294(2) 0.48182(10) -0.22704(8)
O6 O 0.6090(2) 0.56489(10) -0.22362(9)
O7 O 0.79881(19) 0.38293(7) 0.16055(7)
O8 O 1.0917(2) 0.47080(9) 0.35949(8)
C31 C 0.4852(2) 0.62793(9) 0.56528(9)
C32 C 0.4839(3) 0.59011(10) 0.62049(9)
H27 H 0.5440 0.6059 0.6619
C33 C 0.3918(3) 0.52851(10) 0.61310(10)
H28 H 0.3896 0.5020 0.6495
C34 C 0.3025(2) 0.50633(9) 0.55100(9)
C35 C 0.3045(2) 0.54537(10) 0.49635(10)
H29 H 0.2432 0.5303 0.4551
C36 C 0.3974(2) 0.60657(10) 0.50335(9)
H30 H 0.4008 0.6330 0.4669
C37 C 0.1462(2) 0.33738(10) 0.57570(10)
C38 C 0.0613(3) 0.30818(11) 0.50896(11)
C39 C 0.0130(3) 0.19720(11) 0.55327(12)
C40 C 0.0972(2) 0.22854(11) 0.61919(11)
C41 C 0.1652(2) 0.29533(10) 0.63080(10)
C42 C -0.0633(3) 0.20483(12) 0.42813(12)
H31 H -0.0013 0.2204 0.3920
H32 H -0.0591 0.1535 0.4232
C43 C -0.2296(3) 0.22604(15) 0.42002(18)
H33 H -0.2921 0.2073 0.4536
H34 H -0.2715 0.2077 0.3734
H35 H -0.2337 0.2769 0.4278
C44 C 0.1091(3) 0.18248(12) 0.67100(12)
C45 C 0.2611(3) 0.32425(12) 0.69681(11)
H36 H 0.2521 0.2921 0.7300
H37 H 0.2218 0.3697 0.7163
H38 H 0.3708 0.3296 0.6864
H39 H 0.159(3) 0.4272(12) 0.5008(13)
N11 N 0.5813(2) 0.69358(8) 0.57335(9)
N12 N 0.2124(2) 0.44267(9) 0.53989(9)
N13 N 0.2185(2) 0.40092(8) 0.58778(8)
N14 N 0.0054(2) 0.23836(9) 0.50014(9)
N15 N 0.1200(3) 0.14465(11) 0.71109(11)
O9 O 0.6414(2) 0.71753(9) 0.63136(8)
O10 O 0.59776(19) 0.72277(8) 0.52191(8)
O11 O 0.0435(2) 0.34290(8) 0.46091(8)
O12 O -0.0452(2) 0.13707(9) 0.54337(9)
C46 C 0.8126(2) 0.94434(9) 0.71403(9)
C47 C 0.7440(2) 0.88770(10) 0.66823(9)
H40 H 0.7215 0.8449 0.6836
C48 C 0.7091(2) 0.89523(9) 0.59946(9)
H41 H 0.6609 0.8579 0.5681
C49 C 0.7467(2) 0.95926(9) 0.57747(9)
C50 C 0.8205(2) 1.01480(10) 0.62356(10)
H42 H 0.8486 1.0568 0.6079
C51 C 0.8523(2) 1.00772(10) 0.69275(10)
H43 H 0.8995 1.0450 0.7244
C52 C 0.5902(2) 0.92945(10) 0.39994(9)
C53 C 0.6319(2) 0.99393(10) 0.37138(9)
C54 C 0.5097(2) 0.93926(10) 0.25814(9)
C55 C 0.4675(2) 0.87663(10) 0.28921(10)
C56 C 0.5016(2) 0.87156(10) 0.35748(10)
C57 C 0.6150(2) 1.06250(11) 0.27399(10)
H44 H 0.6002 1.1030 0.3102
H45 H 0.5386 1.0652 0.2354
C58 C 0.7797(3) 1.06645(14) 0.24876(14)
H46 H 0.8557 1.0610 0.2861
H47 H 0.7977 1.1117 0.2342
H48 H 0.7914 1.0292 0.2098
C59 C 0.3844(3) 0.82078(12) 0.24231(12)
C60 C 0.4488(3) 0.80904(11) 0.38953(12)
H49 H 0.3765 0.8242 0.4255
H50 H 0.5398 0.7886 0.4096
H51 H 0.3961 0.7742 0.3540
H52 H 0.738(3) 1.0097(13) 0.4923(12)
N16 N 0.84690(19) 0.93632(10) 0.78729(8)
N17 N 0.7102(2) 0.97001(9) 0.50847(8)
N18 N 0.62863(19) 0.92080(8) 0.46530(8)
N19 N 0.58358(18) 0.99630(8) 0.30250(7)
N20 N 0.3183(4) 0.77591(13) 0.20514(13)
O13 O 0.8348(2) 0.87668(9) 0.80276(8)
O14 O 0.88831(19) 0.98873(9) 0.82943(7)
O15 O 0.70371(19) 1.04473(8) 0.40683(7)
O16 O 0.47918(18) 0.94323(8) 0.19654(7)
loop_
_geom_bond_atom_site_label_1
_geom_bond_atom_site_label_2
_geom_bond_site_symmetry_1
_geom_bond_site_symmetry_2
C1 C2 1_555 1_555
C2 H1 1_555 1_555
C3 C2 1_555 1_555
H2 C3 1_555 1_555
C4 C3 1_555 1_555
C5 C4 1_555 1_555
H3 C5 1_555 1_555
C6 C1 1_555 1_555
H4 C6 1_555 1_555
C7 C8 1_555 1_555
C8 N4 1_555 1_555
C9 C10 1_555 1_555
C10 C11 1_555 1_555
C11 C7 1_555 1_555
C12 H5 1_555 1_555
H6 C12 1_555 1_555
C13 C12 1_555 1_555
H7 C13 1_555 1_555
H8 C13 1_555 1_555
H9 C13 1_555 1_555
C14 C10 1_555 1_555
C15 C11 1_555 1_555
H10 C15 1_555 1_555
H11 C15 1_555 1_555
H12 C15 1_555 1_555
H13 N2 1_555 1_555
N1 C1 1_555 1_555
N2 C4 1_555 1_555
N3 C7 1_555 1_555
N4 C9 1_555 1_555
N5 C14 1_555 1_555
O1 N1 1_555 1_555
O2 N1 1_555 1_555
O3 C8 1_555 1_555
O4 C9 1_555 1_555
C16 C17 1_555 1_555
C17 H14 1_555 1_555
C18 C17 1_555 1_555
H15 C18 1_555 1_555
C19 C18 1_555 1_555
C20 C19 1_555 1_555
H16 C20 1_555 1_555
C21 C16 1_555 1_555
H17 C21 1_555 1_555
C22 C23 1_555 1_555
C23 N9 1_555 1_555
C24 C25 1_555 1_555
C25 C26 1_555 1_555
C26 C22 1_555 1_555
C27 H18 1_555 1_555
H19 C27 1_555 1_555
C28 C27 1_555 1_555
H20 C28 1_555 1_555
H21 C28 1_555 1_555
H22 C28 1_555 1_555
C29 C25 1_555 1_555
C30 C26 1_555 1_555
H23 C30 1_555 1_555
H24 C30 1_555 1_555
H25 C30 1_555 1_555
H26 N7 1_555 1_555
N6 C16 1_555 1_555
N7 C19 1_555 1_555
N8 C22 1_555 1_555
N9 C24 1_555 1_555
N10 C29 1_555 1_555
O5 N6 1_555 1_555
O6 N6 1_555 1_555
O7 C23 1_555 1_555
O8 C24 1_555 1_555
C31 C32 1_555 1_555
C32 H27 1_555 1_555
C33 C32 1_555 1_555
H28 C33 1_555 1_555
C34 C33 1_555 1_555
C35 C34 1_555 1_555
H29 C35 1_555 1_555
C36 C31 1_555 1_555
H30 C36 1_555 1_555
C37 C38 1_555 1_555
C38 N14 1_555 1_555
C39 C40 1_555 1_555
C40 C41 1_555 1_555
C41 C37 1_555 1_555
C42 H31 1_555 1_555
H32 C42 1_555 1_555
C43 C42 1_555 1_555
H33 C43 1_555 1_555
H34 C43 1_555 1_555
H35 C43 1_555 1_555
C44 C40 1_555 1_555
C45 C41 1_555 1_555
H36 C45 1_555 1_555
H37 C45 1_555 1_555
H38 C45 1_555 1_555
H39 N12 1_555 1_555
N11 C31 1_555 1_555
N12 C34 1_555 1_555
N13 C37 1_555 1_555
N14 C39 1_555 1_555
N15 C44 1_555 1_555
O9 N11 1_555 1_555
O10 N11 1_555 1_555
O11 C38 1_555 1_555
O12 C39 1_555 1_555
C46 C47 1_555 1_555
C47 H40 1_555 1_555
C48 C47 1_555 1_555
H41 C48 1_555 1_555
C49 C48 1_555 1_555
C50 C49 1_555 1_555
H42 C50 1_555 1_555
C51 C46 1_555 1_555
H43 C51 1_555 1_555
C52 C53 1_555 1_555
C53 N19 1_555 1_555
C54 C55 1_555 1_555
C55 C56 1_555 1_555
C56 C52 1_555 1_555
C57 H44 1_555 1_555
H45 C57 1_555 1_555
C58 C57 1_555 1_555
H46 C58 1_555 1_555
H47 C58 1_555 1_555
H48 C58 1_555 1_555
C59 C55 1_555 1_555
C60 C56 1_555 1_555
H49 C60 1_555 1_555
H50 C60 1_555 1_555
H51 C60 1_555 1_555
H52 N17 1_555 1_555
N16 C46 1_555 1_555
N17 C49 1_555 1_555
N18 C52 1_555 1_555
N19 C54 1_555 1_555
N20 C59 1_555 1_555
O13 N16 1_555 1_555
O14 N16 1_555 1_555
O15 C53 1_555 1_555
O16 C54 1_555 1_555
C5 C6 1_555 1_555
C12 N4 1_555 1_555
N2 N3 1_555 1_555
C20 C21 1_555 1_555
C27 N9 1_555 1_555
N7 N8 1_555 1_555
C35 C36 1_555 1_555
C42 N14 1_555 1_555
N12 N13 1_555 1_555
C50 C51 1_555 1_555
C57 N19 1_555 1_555
N17 N18 1_555 1_555

#END
