
#######################################################################
#
#                 Cambridge Crystallographic Data Centre
#                                CCDC 
#
#######################################################################
#
# If this CIF has been generated from an entry in the Cambridge 
# Structural Database, then it will include bibliographic, chemical, 
# crystal, experimental, refinement or atomic coordinate data resulting 
# from the CCDC's data processing and validation procedures.
#
#######################################################################

data_PEDRAU
_chemical_formula_moiety         'C14 H11 N5 O4,0.25(C2 H3 N1)'
_chemical_name_systematic        
'1,4-dimethyl-5-(2-(4-nitrophenyl)hydrazinylidene)-2,6-dioxo-1,2,5,6-tetrahydropyridine-3-carbonitrile acetonitrile solvate'
_symmetry_cell_setting           monoclinic
_symmetry_space_group_name_H-M   'C 2/c'
_symmetry_Int_Tables_number      15
_space_group_name_Hall           '-C 2yn'
loop_
_symmetry_equiv_pos_site_id
_symmetry_equiv_pos_as_xyz
1 x,y,z
2 -x,y,1/2-z
3 1/2+x,1/2+y,z
4 1/2-x,1/2+y,1/2-z
5 -x,-y,-z
6 x,-y,1/2+z
7 1/2-x,1/2-y,-z
8 1/2+x,1/2-y,1/2+z
_cell_length_a                   20.7670(18)
_cell_length_b                   13.6064(12)
_cell_length_c                   20.149(2)
_cell_angle_alpha                90
_cell_angle_beta                 90.110(2)
_cell_angle_gamma                90
_cell_volume                     5693.37
_exptl_crystal_colour            yellow
_exptl_crystal_description       block
_cell_formula_units_Z            16
loop_
_atom_site_label
_atom_site_type_symbol
_atom_site_fract_x
_atom_site_fract_y
_atom_site_fract_z
C1 C 0.28130(12) 0.43642(19) -0.17000(14)
C2 C 0.21859(12) 0.4379(2) -0.14792(15)
H1 H 0.1852 0.4546 -0.1766
C3 C 0.20609(12) 0.4143(2) -0.08300(14)
H2 H 0.1640 0.4142 -0.0672
C4 C 0.25737(12) 0.39026(19) -0.04049(14)
C5 C 0.32067(12) 0.3901(2) -0.06372(15)
H3 H 0.3544 0.3741 -0.0354
C6 C 0.33273(12) 0.4137(2) -0.12869(15)
H4 H 0.3747 0.4145 -0.1448
C7 C 0.28075(12) 0.32794(19) 0.12882(15)
C8 C 0.21642(13) 0.3225(2) 0.15950(15)
C9 C 0.26672(13) 0.2916(2) 0.26784(16)
C10 C 0.32971(13) 0.2976(2) 0.23438(15)
C11 C 0.33803(12) 0.31339(19) 0.16918(15)
C12 C 0.14855(13) 0.2992(2) 0.25709(15)
H5 H 0.1307 0.3643 0.2576
H6 H 0.1522 0.2753 0.3018
H7 H 0.1208 0.2564 0.2322
C13 C 0.38414(13) 0.2913(2) 0.27912(15)
C14 C 0.40241(12) 0.3181(2) 0.13600(15)
H8 H 0.4096 0.3834 0.1195
H9 H 0.4035 0.2723 0.0997
H10 H 0.4354 0.3015 0.1674
N1 N 0.29433(11) 0.45950(17) -0.23927(13)
N2 N 0.24278(11) 0.36684(16) 0.02520(12)
H11 H 0.2035 0.3644 0.0385
N3 N 0.29072(11) 0.34855(16) 0.06644(12)
N4 N 0.21288(11) 0.30148(17) 0.22597(12)
N5 N 0.42774(12) 0.2894(2) 0.31453(14)
O1 O 0.35049(9) 0.45872(17) -0.25889(11)
O2 O 0.24868(9) 0.47924(16) -0.27623(10)
O3 O 0.16710(9) 0.33598(15) 0.12638(10)
O4 O 0.26063(9) 0.27815(17) 0.32656(11)
C15 C 0.42039(12) 0.60680(19) 0.03168(14)
C16 C 0.40010(13) 0.6346(2) -0.03035(15)
H12 H 0.4297 0.6474 -0.0639
C17 C 0.33461(13) 0.6430(2) -0.04177(15)
H13 H 0.3195 0.6621 -0.0833
C18 C 0.29150(12) 0.62262(19) 0.00964(15)
C19 C 0.31292(12) 0.59652(19) 0.07222(15)
H14 H 0.2836 0.5846 0.1062
C20 C 0.37822(12) 0.5884(2) 0.08382(15)
H15 H 0.3936 0.5710 0.1255
C21 C 0.12099(12) 0.61282(19) 0.02890(15)
C22 C 0.09376(13) 0.64038(19) -0.03502(15)
C23 C -0.01452(13) 0.6236(2) 0.01127(15)
C24 C 0.01483(12) 0.5988(2) 0.07495(15)
C25 C 0.07954(12) 0.59146(19) 0.08502(15)
C26 C -0.00039(14) 0.6725(2) -0.10597(16)
H16 H 0.0212 0.7299 -0.1224
H17 H -0.0454 0.6863 -0.1009
H18 H 0.0051 0.6194 -0.1368
C27 C -0.02928(13) 0.5800(2) 0.12861(16)
C28 C 0.10831(13) 0.5611(2) 0.14992(15)
H19 H 0.0765 0.5669 0.1843
H20 H 0.1443 0.6028 0.1600
H21 H 0.1226 0.4941 0.1471
N6 N 0.48957(10) 0.59676(18) 0.04448(13)
N7 N 0.22523(10) 0.62952(16) -0.00524(12)
H22 H 0.2125 0.6477 -0.0439
N8 N 0.18372(10) 0.60750(16) 0.04129(12)
N9 N 0.02730(10) 0.64442(17) -0.04083(12)
N10 N -0.06420(11) 0.5640(2) 0.17089(14)
O5 O 0.50746(9) 0.56011(18) 0.09706(11)
O6 O 0.52695(9) 0.62586(18) 0.00160(11)
O7 O 0.12777(9) 0.65952(15) -0.08342(10)
O8 O -0.07285(9) 0.62495(16) 0.00295(11)
C29 C 1.0000 0.1059(3) 0.2500
C30 C 1.0000 -0.0013(3) 0.2500
N11 N 1.0000 0.1897(3) 0.2500
H23? H 0.9718 -0.0248 0.2842
H24? H 0.9854 -0.0248 0.2077
H25? H 1.0429 -0.0248 0.2581
loop_
_geom_bond_atom_site_label_1
_geom_bond_atom_site_label_2
_geom_bond_site_symmetry_1
_geom_bond_site_symmetry_2
C1 C2 1_555 1_555
C2 H1 1_555 1_555
C3 C2 1_555 1_555
H2 C3 1_555 1_555
C4 C3 1_555 1_555
C5 C4 1_555 1_555
H3 C5 1_555 1_555
C6 C1 1_555 1_555
H4 C6 1_555 1_555
C7 C8 1_555 1_555
C8 N4 1_555 1_555
C9 C10 1_555 1_555
C10 C11 1_555 1_555
C11 C7 1_555 1_555
C12 H5 1_555 1_555
H6 C12 1_555 1_555
H7 C12 1_555 1_555
C13 C10 1_555 1_555
C14 C11 1_555 1_555
H8 C14 1_555 1_555
H9 C14 1_555 1_555
H10 C14 1_555 1_555
N1 C1 1_555 1_555
N2 C4 1_555 1_555
H11 N2 1_555 1_555
N3 C7 1_555 1_555
N4 C9 1_555 1_555
N5 C13 1_555 1_555
O1 N1 1_555 1_555
O2 N1 1_555 1_555
O3 C8 1_555 1_555
O4 C9 1_555 1_555
C15 C16 1_555 1_555
C16 H12 1_555 1_555
C17 C16 1_555 1_555
H13 C17 1_555 1_555
C18 C17 1_555 1_555
C19 C18 1_555 1_555
H14 C19 1_555 1_555
C20 C15 1_555 1_555
H15 C20 1_555 1_555
C21 C22 1_555 1_555
C22 N9 1_555 1_555
C23 C24 1_555 1_555
C24 C25 1_555 1_555
C25 C21 1_555 1_555
C26 H16 1_555 1_555
H17 C26 1_555 1_555
H18 C26 1_555 1_555
C27 C24 1_555 1_555
C28 C25 1_555 1_555
H19 C28 1_555 1_555
H20 C28 1_555 1_555
H21 C28 1_555 1_555
N6 C15 1_555 1_555
N7 C18 1_555 1_555
H22 N7 1_555 1_555
N8 C21 1_555 1_555
N9 C23 1_555 1_555
N10 C27 1_555 1_555
O5 N6 1_555 1_555
O6 N6 1_555 1_555
O7 C22 1_555 1_555
O8 C23 1_555 1_555
C29 C30 1_555 1_555
N11 C29 1_555 1_555
C5 C6 1_555 1_555
C12 N4 1_555 1_555
N2 N3 1_555 1_555
C19 C20 1_555 1_555
C26 N9 1_555 1_555
N7 N8 1_555 1_555

#END
