
#######################################################################
#
#                 Cambridge Crystallographic Data Centre
#                                CCDC 
#
#######################################################################
#
# If this CIF has been generated from an entry in the Cambridge 
# Structural Database, then it will include bibliographic, chemical, 
# crystal, experimental, refinement or atomic coordinate data resulting 
# from the CCDC's data processing and validation procedures.
#
#######################################################################

data_PEDSOI
_chemical_formula_moiety         'C25 H26 N6 O2,1.5(C3 H6 O1)'
_chemical_name_systematic        
"5,5'-(Pentane-3,3-diyl)-2,2'-bis(3-hydroxyphenyldiazo)-bis(1H-pyrrole) acetone solvate"
_symmetry_cell_setting           orthorhombic
_symmetry_space_group_name_H-M   'P b c a'
_symmetry_Int_Tables_number      61
_space_group_name_Hall           '-P 2ac 2ab'
loop_
_symmetry_equiv_pos_site_id
_symmetry_equiv_pos_as_xyz
1 x,y,z
2 1/2-x,-y,1/2+z
3 -x,1/2+y,1/2-z
4 1/2+x,1/2-y,-z
5 -x,-y,-z
6 1/2+x,y,1/2-z
7 x,1/2-y,1/2+z
8 1/2-x,1/2+y,z
_cell_length_a                   18.345(4)
_cell_length_b                   21.048(4)
_cell_length_c                   29.890(6)
_cell_angle_alpha                90
_cell_angle_beta                 90
_cell_angle_gamma                90
_cell_volume                     11541.3
_exptl_crystal_colour            red
_exptl_crystal_description       block
_cell_formula_units_Z            16
loop_
_atom_site_label
_atom_site_type_symbol
_atom_site_fract_x
_atom_site_fract_y
_atom_site_fract_z
O1 O 0.15714(12) 0.47521(10) 0.47743(8)
H1 H 0.1618 0.5084 0.4915
O2 O 0.37735(11) 0.46590(9) 0.09154(7)
H2 H 0.3408 0.4437 0.0891
N1 N 0.31411(11) 0.21897(9) 0.34207(7)
H5 H 0.3562 0.2291 0.3526
N2 N 0.24123(11) 0.29895(10) 0.38127(7)
N3 N 0.30129(11) 0.32337(10) 0.39467(7)
N4 N 0.42087(10) 0.20076(9) 0.24751(7)
H6 H 0.3809 0.2172 0.2379
N5 N 0.50707(11) 0.26263(10) 0.20219(7)
N6 N 0.45349(11) 0.29691(10) 0.18930(7)
C1 C 0.32067(14) 0.06108(13) 0.37120(9)
H9 H 0.2892 0.0952 0.3803
H10 H 0.3402 0.0405 0.3972
H11 H 0.2934 0.0309 0.3538
C2 C 0.38304(14) 0.08759(12) 0.34300(8)
H12 H 0.4148 0.0527 0.3346
H13 H 0.4113 0.1165 0.3614
C3 C 0.35949(13) 0.12320(11) 0.29990(8)
C4 C 0.32711(13) 0.07638(12) 0.26506(8)
H14 H 0.2868 0.0539 0.2788
H15 H 0.3076 0.1008 0.2403
C5 C 0.38067(16) 0.02779(14) 0.24665(10)
H16 H 0.4183 0.0492 0.2303
H17 H 0.3555 -0.0010 0.2271
H18 H 0.4020 0.0045 0.2709
C6 C 0.30106(13) 0.17102(11) 0.31246(8)
C7 C 0.22720(13) 0.17076(12) 0.30320(9)
H19 H 0.2034 0.1432 0.2837
C8 C 0.19437(14) 0.21925(13) 0.32834(9)
H20 H 0.1451 0.2296 0.3287
C9 C 0.24903(13) 0.24880(12) 0.35254(8)
C10 C 0.29323(14) 0.37401(13) 0.42567(9)
C11 C 0.35706(17) 0.39756(16) 0.44379(11)
H21 H 0.4017 0.3794 0.4364
C12 C 0.35378(19) 0.44859(18) 0.47318(12)
H22 H 0.3967 0.4648 0.4852
C13 C 0.28870(18) 0.47540(15) 0.48475(10)
H23 H 0.2873 0.5095 0.5045
C14 C 0.22491(15) 0.45144(13) 0.46688(9)
C15 C 0.22643(15) 0.40053(12) 0.43756(9)
H24 H 0.1833 0.3842 0.4259
C16 C 0.42607(13) 0.15530(11) 0.27998(8)
C17 C 0.49965(14) 0.14231(13) 0.28633(9)
H25 H 0.5190 0.1138 0.3069
C18 C 0.53938(14) 0.17961(13) 0.25648(9)
H26 H 0.5898 0.1800 0.2532
C19 C 0.48972(13) 0.21609(12) 0.23257(8)
C20 C 0.47376(13) 0.34748(12) 0.16003(8)
C21 C 0.54522(14) 0.36918(13) 0.15534(9)
H27 H 0.5836 0.3478 0.1690
C22 C 0.55780(15) 0.42303(13) 0.13008(9)
H28 H 0.6051 0.4384 0.1274
C23 C 0.50164(15) 0.45468(13) 0.10865(9)
H29 H 0.5113 0.4908 0.0917
C24 C 0.43069(15) 0.43222(13) 0.11257(8)
C25 C 0.41685(14) 0.37835(12) 0.13843(8)
H30 H 0.3695 0.3631 0.1412
O3 O 0.84944(11) 0.10048(9) -0.00133(7)
H3 H 0.8161 0.1262 0.0010
O4 O 0.87813(13) 0.07418(12) 0.40271(9)
H4 H 0.9136 0.0979 0.4030
N7 N 0.93656(11) 0.33757(10) 0.16493(7)
H7 H 0.8972 0.3326 0.1497
N8 N 1.01211(11) 0.25676(10) 0.12784(7)
N9 N 0.95484(11) 0.23929(10) 0.10728(7)
N10 N 0.82163(10) 0.33903(9) 0.25540(7)
H8 H 0.8606 0.3242 0.2675
N11 N 0.73344(11) 0.26667(10) 0.29030(7)
N12 N 0.78800(11) 0.23543(10) 0.30466(7)
C26 C 0.93286(17) 0.51087(16) 0.15768(12)
H31 H 0.9463 0.5407 0.1805
H32 H 0.9193 0.5334 0.1310
H33 H 0.9734 0.4835 0.1513
C27 C 0.86844(14) 0.47104(13) 0.17386(9)
H34 H 0.8503 0.4461 0.1490
H35 H 0.8297 0.4994 0.1832
C28 C 0.88647(13) 0.42578(12) 0.21300(8)
C29 C 0.91296(14) 0.46337(12) 0.25462(9)
H36 H 0.9263 0.4333 0.2778
H37 H 0.9566 0.4867 0.2465
C30 C 0.85779(15) 0.50981(14) 0.27386(10)
H38 H 0.8513 0.5446 0.2535
H39 H 0.8752 0.5256 0.3020
H40 H 0.8121 0.4885 0.2782
C31 C 0.94601(13) 0.38008(12) 0.19912(8)
C32 C 1.01636(13) 0.37304(13) 0.21502(9)
H41 H 1.0372 0.3959 0.2384
C33 C 1.05077(14) 0.32546(13) 0.18983(9)
H42 H 1.0984 0.3112 0.1933
C34 C 1.00046(13) 0.30387(12) 0.15892(9)
C35 C 0.96662(14) 0.19090(12) 0.07482(8)
C36 C 1.03353(15) 0.16140(14) 0.06717(9)
H43 H 1.0750 0.1742 0.0826
C37 C 1.03697(17) 0.11276(15) 0.03617(10)
H44 H 1.0814 0.0929 0.0308
C38 C 0.97566(16) 0.09305(14) 0.01302(9)
H45 H 0.9790 0.0604 -0.0079
C39 C 0.90922(15) 0.12234(13) 0.02120(9)
C40 C 0.90458(14) 0.17163(12) 0.05217(8)
H46 H 0.8601 0.1914 0.0576
C41 C 0.81890(13) 0.38833(12) 0.22553(8)
C42 C 0.74628(14) 0.39669(13) 0.21363(9)
H47 H 0.7286 0.4264 0.1934
C43 C 0.70460(14) 0.35281(13) 0.23733(9)
H48 H 0.6542 0.3485 0.2361
C44 C 0.75199(13) 0.31686(12) 0.26298(8)
C45 C 0.77103(14) 0.18354(12) 0.33333(8)
C46 C 0.70084(14) 0.16036(12) 0.34128(9)
H49 H 0.6604 0.1797 0.3283
C47 C 0.69269(15) 0.10783(13) 0.36886(9)
H50 H 0.6464 0.0911 0.3736
C48 C 0.75231(16) 0.07980(13) 0.38941(10)
H51 H 0.7458 0.0453 0.4084
C49 C 0.82173(15) 0.10337(13) 0.38161(9)
C50 C 0.83119(14) 0.15477(12) 0.35334(9)
H52 H 0.8778 0.1702 0.3477
O5 O 0.75046(12) 0.19543(10) 0.99914(7)
C51 C 0.8366(3) 0.2475(3) 0.95312(19)
H53 H 0.8640 0.2090 0.9569
H54 H 0.8630 0.2824 0.9660
H55 H 0.8292 0.2553 0.9218
C52 C 0.76554(19) 0.24114(16) 0.97553(10)
C53 C 0.7137(3) 0.2934(2) 0.96880(15)
H56 H 0.6705 0.2856 0.9860
H57 H 0.7012 0.2962 0.9377
H58 H 0.7355 0.3326 0.9783
O6 O 0.24195(12) 0.41309(11) 0.07564(7)
C54 C 0.1141(2) 0.4015(2) 0.07661(14)
H59 H 0.1197 0.3940 0.0451
H60 H 0.0843 0.4384 0.0812
H61 H 0.0913 0.3653 0.0903
C55 C 0.18723(18) 0.41200(17) 0.09720(11)
C56 C 0.1886(2) 0.4302(2) 0.14581(12)
H62 H 0.1822 0.3929 0.1639
H63 H 0.1499 0.4597 0.1518
H64 H 0.2346 0.4496 0.1528
O7 O -0.01070(17) 0.16404(19) 0.40913(13)
C57 C 0.1070(3) 0.1439(3) 0.4355(2)
H65 H 0.0916 0.1031 0.4463
H66 H 0.1381 0.1636 0.4573
H67 H 0.1332 0.1386 0.4080
C58 C 0.0413(3) 0.1852(2) 0.42761(15)
C59 C 0.0536(3) 0.2538(2) 0.43523(17)
H68 H 0.0162 0.2778 0.4204
H69 H 0.1004 0.2656 0.4235
H70 H 0.0522 0.2625 0.4667
loop_
_geom_bond_atom_site_label_1
_geom_bond_atom_site_label_2
_geom_bond_site_symmetry_1
_geom_bond_site_symmetry_2
O1 H1 1_555 1_555
O2 H2 1_555 1_555
O3 H3 1_555 1_555
O4 H4 1_555 1_555
O5 C52 1_555 1_555
O6 C55 1_555 1_555
O7 C58 1_555 1_555
N1 H5 1_555 1_555
N2 N3 1_555 1_555
N3 C10 1_555 1_555
N4 H6 1_555 1_555
N5 N6 1_555 1_555
N6 C20 1_555 1_555
N7 H7 1_555 1_555
N8 N9 1_555 1_555
N9 C35 1_555 1_555
N10 H8 1_555 1_555
N11 N12 1_555 1_555
N12 C45 1_555 1_555
C1 H9 1_555 1_555
H10 C1 1_555 1_555
H11 C1 1_555 1_555
C2 C1 1_555 1_555
H12 C2 1_555 1_555
H13 C2 1_555 1_555
C3 C2 1_555 1_555
C4 C3 1_555 1_555
H14 C4 1_555 1_555
H15 C4 1_555 1_555
C5 C4 1_555 1_555
H16 C5 1_555 1_555
H17 C5 1_555 1_555
H18 C5 1_555 1_555
C6 N1 1_555 1_555
C7 C6 1_555 1_555
H19 C7 1_555 1_555
C8 C7 1_555 1_555
H20 C8 1_555 1_555
C9 N1 1_555 1_555
C10 C11 1_555 1_555
C11 H21 1_555 1_555
C12 C11 1_555 1_555
H22 C12 1_555 1_555
C13 C12 1_555 1_555
H23 C13 1_555 1_555
C14 O1 1_555 1_555
C15 C10 1_555 1_555
H24 C15 1_555 1_555
C16 N4 1_555 1_555
C17 C16 1_555 1_555
H25 C17 1_555 1_555
C18 C17 1_555 1_555
H26 C18 1_555 1_555
C19 N4 1_555 1_555
C20 C21 1_555 1_555
C21 H27 1_555 1_555
C22 C21 1_555 1_555
H28 C22 1_555 1_555
C23 C22 1_555 1_555
H29 C23 1_555 1_555
C24 O2 1_555 1_555
C25 C20 1_555 1_555
H30 C25 1_555 1_555
C26 H31 1_555 1_555
H32 C26 1_555 1_555
H33 C26 1_555 1_555
C27 C26 1_555 1_555
H34 C27 1_555 1_555
H35 C27 1_555 1_555
C28 C27 1_555 1_555
C29 C28 1_555 1_555
H36 C29 1_555 1_555
H37 C29 1_555 1_555
C30 C29 1_555 1_555
H38 C30 1_555 1_555
H39 C30 1_555 1_555
H40 C30 1_555 1_555
C31 N7 1_555 1_555
C32 C31 1_555 1_555
H41 C32 1_555 1_555
C33 C32 1_555 1_555
H42 C33 1_555 1_555
C34 N7 1_555 1_555
C35 C36 1_555 1_555
C36 H43 1_555 1_555
C37 C36 1_555 1_555
H44 C37 1_555 1_555
C38 C37 1_555 1_555
H45 C38 1_555 1_555
C39 O3 1_555 1_555
C40 C35 1_555 1_555
H46 C40 1_555 1_555
C41 N10 1_555 1_555
C42 C41 1_555 1_555
H47 C42 1_555 1_555
C43 C42 1_555 1_555
H48 C43 1_555 1_555
C44 N10 1_555 1_555
C45 C46 1_555 1_555
C46 H49 1_555 1_555
C47 C46 1_555 1_555
H50 C47 1_555 1_555
C48 C47 1_555 1_555
H51 C48 1_555 1_555
C49 O4 1_555 1_555
C50 C45 1_555 1_555
H52 C50 1_555 1_555
C51 H53 1_555 1_555
H54 C51 1_555 1_555
H55 C51 1_555 1_555
C52 C51 1_555 1_555
C53 C52 1_555 1_555
H56 C53 1_555 1_555
H57 C53 1_555 1_555
H58 C53 1_555 1_555
C54 H59 1_555 1_555
H60 C54 1_555 1_555
H61 C54 1_555 1_555
C55 C54 1_555 1_555
C56 C55 1_555 1_555
H62 C56 1_555 1_555
H63 C56 1_555 1_555
H64 C56 1_555 1_555
C57 H65 1_555 1_555
H66 C57 1_555 1_555
H67 C57 1_555 1_555
C58 C57 1_555 1_555
C59 C58 1_555 1_555
H68 C59 1_555 1_555
H69 C59 1_555 1_555
H70 C59 1_555 1_555
N2 C9 1_555 1_555
N5 C19 1_555 1_555
N8 C34 1_555 1_555
N11 C44 1_555 1_555
C3 C6 1_555 1_555
C3 C16 1_555 1_555
C8 C9 1_555 1_555
C13 C14 1_555 1_555
C14 C15 1_555 1_555
C18 C19 1_555 1_555
C23 C24 1_555 1_555
C24 C25 1_555 1_555
C28 C31 1_555 1_555
C28 C41 1_555 1_555
C33 C34 1_555 1_555
C38 C39 1_555 1_555
C39 C40 1_555 1_555
C43 C44 1_555 1_555
C48 C49 1_555 1_555
C49 C50 1_555 1_555

#END
