
#######################################################################
#
#                 Cambridge Crystallographic Data Centre
#                                CCDC 
#
#######################################################################
#
# If this CIF has been generated from an entry in the Cambridge 
# Structural Database, then it will include bibliographic, chemical, 
# crystal, experimental, refinement or atomic coordinate data resulting 
# from the CCDC's data processing and validation procedures.
#
#######################################################################

data_PEDTIE
_chemical_formula_moiety         'C26 H21 Cl1 N2 O6 S1'
_chemical_name_systematic        
'ethyl 8-(benzoylamino)-4-chloro-5-(((4-methylphenyl)sulfonyl)oxy)quinoline-3-carboxylate'
_symmetry_cell_setting           monoclinic
_symmetry_space_group_name_H-M   'P 21/n'
_symmetry_Int_Tables_number      14
_space_group_name_Hall           '-P 2yn'
loop_
_symmetry_equiv_pos_site_id
_symmetry_equiv_pos_as_xyz
1 x,y,z
2 1/2-x,1/2+y,1/2-z
3 -x,-y,-z
4 1/2+x,1/2-y,1/2+z
_cell_length_a                   8.9158(9)
_cell_length_b                   9.1950(9)
_cell_length_c                   29.183(3)
_cell_angle_alpha                90
_cell_angle_beta                 95.779(2)
_cell_angle_gamma                90
_cell_volume                     2380.29
_exptl_crystal_colour            yellow
_exptl_crystal_description       block
_chemical_melting_point          '168-170 deg.C'
_cell_formula_units_Z            4
loop_
_atom_site_label
_atom_site_type_symbol
_atom_site_fract_x
_atom_site_fract_y
_atom_site_fract_z
Cl1 Cl 0.59333(8) 0.83137(9) 0.12589(2)
S1 S 0.95198(7) 0.75274(7) 0.07924(2)
N1 N 0.3608(2) 0.8291(2) -0.01878(6)
N2 N 0.4306(2) 0.6626(2) -0.08538(6)
H1 H 0.3522 0.7166 -0.0844
O1 O 1.0487(2) 0.6817(3) 0.05063(6)
O2 O 0.9048(3) 0.8970(2) 0.06887(8)
O3 O 0.80204(17) 0.65599(17) 0.08112(5)
O4 O 0.2094(2) 1.0946(2) 0.07377(6)
O5 O 0.4024(7) 1.0715(8) 0.12637(19)
O6 O 0.5481(2) 0.5165(3) -0.13282(7)
C1 C 1.0247(3) 0.7368(3) 0.13702(8)
C2 C 0.9684(3) 0.8218(3) 0.17012(10)
H2 H 0.8921 0.8887 0.1619
C3 C 1.0256(3) 0.8072(3) 0.21534(10)
H3 H 0.9858 0.8630 0.2378
C4 C 1.1414(3) 0.7110(3) 0.22803(9)
C5 C 1.1982(3) 0.6305(4) 0.19409(10)
H4 H 1.2779 0.5671 0.2020
C6 C 1.1406(3) 0.6412(3) 0.14872(9)
H5 H 1.1795 0.5845 0.1263
C7 C 1.1987(4) 0.6929(5) 0.27795(10)
H6 H 1.2788 0.6227 0.2807
H7 H 1.1182 0.6600 0.2948
H8 H 1.2358 0.7845 0.2902
C8 C 0.7027(2) 0.6574(2) 0.04002(8)
C9 C 0.7369(2) 0.5679(3) 0.00540(8)
H9 H 0.8211 0.5080 0.0100
C10 C 0.6486(2) 0.5639(3) -0.03698(8)
H10 H 0.6728 0.5003 -0.0599
C11 C 0.5263(2) 0.6539(2) -0.04463(7)
C12 C 0.4859(2) 0.7465(2) -0.00829(7)
C13 C 0.5717(2) 0.7476(2) 0.03564(7)
C14 C 0.5124(2) 0.8355(2) 0.06983(7)
C15 C 0.3860(3) 0.9197(3) 0.05880(8)
C16 C 0.3155(3) 0.9126(3) 0.01342(8)
H11 H 0.2314 0.9710 0.0059
C17 C 0.3207(3) 1.0180(3) 0.09242(9)
C18 C 0.1346(3) 1.1933(3) 0.10263(9)
H12 H 0.2045 1.2674 0.1152
H13 H 0.0975 1.1408 0.1280
C19 C 0.0063(3) 1.2621(3) 0.07353(10)
H14 H -0.0456 1.3281 0.0920
H15 H -0.0623 1.1880 0.0613
H16 H 0.0442 1.3143 0.0487
C20 C 0.4446(3) 0.5972(3) -0.12645(8)
C21 C 0.3207(3) 0.6289(3) -0.16382(7)
C22 C 0.2468(3) 0.7602(3) -0.16834(9)
H17 H 0.2719 0.8343 -0.1473
C23 C 0.1350(4) 0.7823(4) -0.20414(10)
H18 H 0.0849 0.8711 -0.2068
C24 C 0.0976(3) 0.6751(4) -0.23558(10)
H19 H 0.0228 0.6911 -0.2597
C25 C 0.1703(3) 0.5447(4) -0.23151(9)
H20 H 0.1443 0.4713 -0.2527
C26 C 0.2822(3) 0.5210(3) -0.19604(9)
H21 H 0.3321 0.4321 -0.1938
O7? O 0.3116(11) 0.9815(9) 0.13407(14)
loop_
_geom_bond_atom_site_label_1
_geom_bond_atom_site_label_2
_geom_bond_site_symmetry_1
_geom_bond_site_symmetry_2
Cl1 C14 1_555 1_555
S1 O1 1_555 1_555
N1 C12 1_555 1_555
N2 H1 1_555 1_555
O2 S1 1_555 1_555
O3 S1 1_555 1_555
O4 C17 1_555 1_555
O5 C17 1_555 1_555
O6 C20 1_555 1_555
C1 S1 1_555 1_555
C2 C1 1_555 1_555
H2 C2 1_555 1_555
C3 C2 1_555 1_555
H3 C3 1_555 1_555
C4 C3 1_555 1_555
C5 C4 1_555 1_555
H4 C5 1_555 1_555
C6 C1 1_555 1_555
H5 C6 1_555 1_555
C7 C4 1_555 1_555
H6 C7 1_555 1_555
H7 C7 1_555 1_555
H8 C7 1_555 1_555
C8 O3 1_555 1_555
C9 C8 1_555 1_555
H9 C9 1_555 1_555
C10 C9 1_555 1_555
H10 C10 1_555 1_555
C11 N2 1_555 1_555
C12 C11 1_555 1_555
C13 C8 1_555 1_555
C14 C13 1_555 1_555
C15 C14 1_555 1_555
C16 N1 1_555 1_555
H11 C16 1_555 1_555
C17 C15 1_555 1_555
C18 O4 1_555 1_555
H12 C18 1_555 1_555
H13 C18 1_555 1_555
C19 C18 1_555 1_555
H14 C19 1_555 1_555
H15 C19 1_555 1_555
H16 C19 1_555 1_555
C20 N2 1_555 1_555
C21 C20 1_555 1_555
C22 C21 1_555 1_555
H17 C22 1_555 1_555
C23 C22 1_555 1_555
H18 C23 1_555 1_555
C24 C23 1_555 1_555
H19 C24 1_555 1_555
C25 C24 1_555 1_555
H20 C25 1_555 1_555
C26 C21 1_555 1_555
H21 C26 1_555 1_555
C5 C6 1_555 1_555
C10 C11 1_555 1_555
C12 C13 1_555 1_555
C15 C16 1_555 1_555
C25 C26 1_555 1_555

#END
