
#######################################################################
#
#                 Cambridge Crystallographic Data Centre
#                                CCDC 
#
#######################################################################
#
# If this CIF has been generated from an entry in the Cambridge 
# Structural Database, then it will include bibliographic, chemical, 
# crystal, experimental, refinement or atomic coordinate data resulting 
# from the CCDC's data processing and validation procedures.
#
#######################################################################

data_PEDTEA
_chemical_formula_moiety         'C26 H26 N2 O5 S1'
_chemical_name_systematic        
'8-(benzoylamino)quinolin-5-yl ((1R,4R)-7,7-dimethyl-2-oxobicyclo[2.2.1]heptan-1-yl)methanesulfonate'
_symmetry_cell_setting           monoclinic
_symmetry_space_group_name_H-M   'P 21'
_symmetry_Int_Tables_number      4
_space_group_name_Hall           'P 2yb'
loop_
_symmetry_equiv_pos_site_id
_symmetry_equiv_pos_as_xyz
1 x,y,z
2 -x,1/2+y,-z
_cell_length_a                   8.7588(12)
_cell_length_b                   15.745(2)
_cell_length_c                   17.316(2)
_cell_angle_alpha                90
_cell_angle_beta                 99.308(2)
_cell_angle_gamma                90
_cell_volume                     2356.56
_exptl_crystal_colour            yellow
_exptl_crystal_description       block
_chemical_melting_point          '124-125 deg.C'
_cell_formula_units_Z            4
loop_
_atom_site_label
_atom_site_type_symbol
_atom_site_fract_x
_atom_site_fract_y
_atom_site_fract_z
S1 S 1.70466(10) 0.79405(8) -0.21924(5)
N1 N 2.0091(3) 0.8066(2) 0.10046(16)
O1 O 1.5141(3) 0.8006(2) 0.19278(14)
C1 C 1.6609(5) 0.7725(3) 0.3511(2)
H1 H 1.5818 0.7342 0.3339
N2 N 1.7552(3) 0.8191(2) 0.16387(16)
H2 H 1.8466 0.8355 0.1842
O2 O 1.7574(4) 0.8740(2) -0.1829(2)
C2 C 1.7210(5) 0.7778(3) 0.4297(2)
H3 H 1.6855 0.7415 0.4653
O3 O 1.7833(3) 0.7602(3) -0.27549(16)
C3 C 1.8333(5) 0.8367(4) 0.4552(2)
H4 H 1.8705 0.8416 0.5085
O4 O 1.7088(3) 0.72620(18) -0.15195(14)
C4 C 1.8914(5) 0.8883(3) 0.4032(3)
H5 H 1.9688 0.9274 0.4210
C5 C 1.8342(4) 0.8820(3) 0.3241(2)
H6 H 1.8734 0.9167 0.2886
O5 O 1.5352(4) 0.7943(3) -0.41885(16)
C6 C 1.7189(4) 0.8242(2) 0.29801(19)
C7 C 1.6508(4) 0.8144(2) 0.2136(2)
C8 C 1.7341(4) 0.8009(3) 0.08410(19)
C9 C 1.8731(4) 0.7944(2) 0.05137(18)
C10 C 2.1365(4) 0.7992(4) 0.0710(2)
H7 H 2.2301 0.8071 0.1041
C11 C 2.1403(4) 0.7802(4) -0.0075(2)
H8 H 2.2344 0.7778 -0.0258
C12 C 2.0058(4) 0.7652(4) -0.0570(2)
H9 H 2.0072 0.7507 -0.1090
C13 C 1.8651(4) 0.7719(3) -0.0288(2)
C14 C 1.7164(4) 0.7552(2) -0.0734(2)
C15 C 1.5869(4) 0.7613(3) -0.0409(2)
H10 H 1.4917 0.7494 -0.0712
C16 C 1.5927(4) 0.7852(4) 0.0374(2)
H11 H 1.5016 0.7905 0.0581
C17 C 1.5040(3) 0.8065(2) -0.25569(19)
H12 H 1.4494 0.8108 -0.2114
H13 H 1.4899 0.8600 -0.2838
C18 C 1.4287(3) 0.7374(2) -0.30900(18)
C19 C 1.4480(4) 0.7478(3) -0.3934(2)
C20 C 1.3269(6) 0.6901(4) -0.4402(3)
H14 H 1.3749 0.6439 -0.4645
H15 H 1.2597 0.7217 -0.4802
C21 C 1.2487(4) 0.7331(3) -0.3198(2)
C22 C 1.1887(5) 0.7116(4) -0.2441(3)
H16 H 1.1961 0.7609 -0.2110
H17 H 1.2497 0.6665 -0.2175
H18 H 1.0826 0.6939 -0.2561
C23 C 1.1704(5) 0.8129(4) -0.3540(3)
H19 H 1.1812 0.8566 -0.3148
H20 H 1.0626 0.8017 -0.3715
H21 H 1.2175 0.8312 -0.3975
C24 C 1.2385(5) 0.6576(3) -0.3771(3)
H22 H 1.1329 0.6385 -0.3968
C25 C 1.3416(6) 0.5903(3) -0.3304(3)
H23 H 1.3784 0.5491 -0.3648
H24 H 1.2870 0.5609 -0.2939
C26 C 1.4749(5) 0.6438(3) -0.2873(3)
H25 H 1.5716 0.6292 -0.3046
H26 H 1.4861 0.6351 -0.2312
S2 S 0.77003(9) 0.50106(6) 0.19491(4)
N3 N 0.4608(3) 0.5084(2) -0.12636(15)
N4 N 0.7213(3) 0.49392(19) -0.18599(14)
H27 H 0.6336 0.4732 -0.2071
O6 O 0.9632(3) 0.5227(2) -0.21078(14)
O7 O 0.7027(3) 0.5332(2) 0.25737(14)
O8 O 0.7472(2) 0.57396(16) 0.13034(12)
O9 O 0.7155(3) 0.42328(19) 0.15884(15)
O10 O 1.2053(3) 0.5685(2) 0.14453(14)
C27 C 0.8189(5) 0.5495(3) -0.3700(2)
H28 H 0.8879 0.5926 -0.3514
C28 C 0.7641(5) 0.5414(4) -0.4499(2)
H29 H 0.7950 0.5806 -0.4845
C29 C 0.6670(6) 0.4781(4) -0.4781(3)
H30 H 0.6343 0.4727 -0.5317
C30 C 0.6174(5) 0.4221(4) -0.4275(3)
H31 H 0.5496 0.3788 -0.4468
C31 C 0.6669(4) 0.4289(3) -0.3476(2)
H32 H 0.6314 0.3908 -0.3134
C32 C 0.7688(4) 0.4923(2) -0.31902(19)
C33 C 0.8289(3) 0.5040(3) -0.23417(18)
C34 C 0.7370(3) 0.5133(2) -0.10633(17)
C35 C 0.5960(3) 0.5196(2) -0.07574(17)
C36 C 0.3309(4) 0.5151(3) -0.0985(2)
H33 H 0.2383 0.5083 -0.1327
C37 C 0.3244(4) 0.5321(4) -0.0197(2)
H34 H 0.2291 0.5352 -0.0026
C38 C 0.4575(4) 0.5440(3) 0.0321(2)
H35 H 0.4544 0.5558 0.0844
C39 C 0.5998(3) 0.5380(2) 0.00449(18)
C40 C 0.7451(4) 0.5513(2) 0.05069(17)
C41 C 0.8769(4) 0.5477(3) 0.02095(19)
H36 H 0.9707 0.5588 0.0529
C42 C 0.8742(4) 0.5275(3) -0.05818(19)
H37 H 0.9665 0.5237 -0.0780
C43 C 0.9729(3) 0.4931(2) 0.22152(18)
H38 H 0.9933 0.4473 0.2592
H39 H 1.0140 0.4756 0.1753
C44 C 1.0666(3) 0.5693(2) 0.25560(17)
C45 C 1.2000(4) 0.5873(2) 0.2109(2)
C46 C 1.1538(4) 0.5634(2) 0.34134(18)
C47 C 1.2387(4) 0.6493(3) 0.3365(2)
H40 H 1.3073 0.6652 0.3848
C48 C 1.1044(5) 0.7117(3) 0.3116(3)
H41 H 1.1389 0.7612 0.2858
H42 H 1.0590 0.7301 0.3563
C49 C 1.2626(5) 0.4869(3) 0.3564(2)
H43 H 1.3127 0.4873 0.4099
H44 H 1.3391 0.4899 0.3226
H45 H 1.2040 0.4354 0.3460
C50 C 0.9884(5) 0.6583(2) 0.2544(2)
H46 H 0.9735 0.6826 0.2022
H47 H 0.8891 0.6548 0.2722
C51 C 1.0457(5) 0.5618(3) 0.4020(2)
H48 H 1.1056 0.5582 0.4535
H49 H 0.9785 0.5134 0.3930
H50 H 0.9847 0.6128 0.3978
C52 C 1.3210(5) 0.6375(3) 0.2660(2)
H51 H 1.4163 0.6056 0.2796
H52 H 1.3433 0.6916 0.2434
loop_
_geom_bond_atom_site_label_1
_geom_bond_atom_site_label_2
_geom_bond_site_symmetry_1
_geom_bond_site_symmetry_2
S1 O2 1_555 1_555
N1 C9 1_555 1_555
O1 C7 1_555 1_555
C1 H1 1_555 1_555
N2 H2 1_555 1_555
C2 C1 1_555 1_555
H3 C2 1_555 1_555
O3 S1 1_555 1_555
C3 C2 1_555 1_555
H4 C3 1_555 1_555
O4 S1 1_555 1_555
C4 C3 1_555 1_555
H5 C4 1_555 1_555
C5 C4 1_555 1_555
H6 C5 1_555 1_555
O5 C19 1_555 1_555
C6 C1 1_555 1_555
C7 N2 1_555 1_555
C8 N2 1_555 1_555
C9 C8 1_555 1_555
C10 N1 1_555 1_555
H7 C10 1_555 1_555
C11 C10 1_555 1_555
H8 C11 1_555 1_555
C12 C11 1_555 1_555
H9 C12 1_555 1_555
C13 C9 1_555 1_555
C14 O4 1_555 1_555
C15 C14 1_555 1_555
H10 C15 1_555 1_555
C16 C8 1_555 1_555
H11 C16 1_555 1_555
C17 S1 1_555 1_555
H12 C17 1_555 1_555
H13 C17 1_555 1_555
C18 C17 1_555 1_555
C19 C18 1_555 1_555
C20 C19 1_555 1_555
H14 C20 1_555 1_555
H15 C20 1_555 1_555
C21 C18 1_555 1_555
C22 C21 1_555 1_555
H16 C22 1_555 1_555
H17 C22 1_555 1_555
H18 C22 1_555 1_555
C23 C21 1_555 1_555
H19 C23 1_555 1_555
H20 C23 1_555 1_555
H21 C23 1_555 1_555
C24 C20 1_555 1_555
H22 C24 1_555 1_555
C25 C24 1_555 1_555
H23 C25 1_555 1_555
H24 C25 1_555 1_555
C26 C18 1_555 1_555
H25 C26 1_555 1_555
H26 C26 1_555 1_555
S2 O7 1_555 1_555
N3 C35 1_555 1_555
N4 H27 1_555 1_555
O6 C33 1_555 1_555
O8 S2 1_555 1_555
O9 S2 1_555 1_555
O10 C45 1_555 1_555
C27 H28 1_555 1_555
C28 C27 1_555 1_555
H29 C28 1_555 1_555
C29 C28 1_555 1_555
H30 C29 1_555 1_555
C30 C29 1_555 1_555
H31 C30 1_555 1_555
C31 C30 1_555 1_555
H32 C31 1_555 1_555
C32 C27 1_555 1_555
C33 N4 1_555 1_555
C34 N4 1_555 1_555
C35 C34 1_555 1_555
C36 N3 1_555 1_555
H33 C36 1_555 1_555
C37 C36 1_555 1_555
H34 C37 1_555 1_555
C38 C37 1_555 1_555
H35 C38 1_555 1_555
C39 C35 1_555 1_555
C40 O8 1_555 1_555
C41 C40 1_555 1_555
H36 C41 1_555 1_555
C42 C34 1_555 1_555
H37 C42 1_555 1_555
C43 S2 1_555 1_555
H38 C43 1_555 1_555
H39 C43 1_555 1_555
C44 C43 1_555 1_555
C45 C44 1_555 1_555
C46 C44 1_555 1_555
C47 C46 1_555 1_555
H40 C47 1_555 1_555
C48 C47 1_555 1_555
H41 C48 1_555 1_555
H42 C48 1_555 1_555
C49 C46 1_555 1_555
H43 C49 1_555 1_555
H44 C49 1_555 1_555
H45 C49 1_555 1_555
C50 C44 1_555 1_555
H46 C50 1_555 1_555
H47 C50 1_555 1_555
C51 C46 1_555 1_555
H48 C51 1_555 1_555
H49 C51 1_555 1_555
H50 C51 1_555 1_555
C52 C45 1_555 1_555
H51 C52 1_555 1_555
H52 C52 1_555 1_555
C5 C6 1_555 1_555
C6 C7 1_555 1_555
C12 C13 1_555 1_555
C13 C14 1_555 1_555
C15 C16 1_555 1_555
C21 C24 1_555 1_555
C25 C26 1_555 1_555
C31 C32 1_555 1_555
C32 C33 1_555 1_555
C38 C39 1_555 1_555
C39 C40 1_555 1_555
C41 C42 1_555 1_555
C47 C52 1_555 1_555
C48 C50 1_555 1_555

#END
