
#######################################################################
#
#                 Cambridge Crystallographic Data Centre
#                                CCDC 
#
#######################################################################
#
# If this CIF has been generated from an entry in the Cambridge 
# Structural Database, then it will include bibliographic, chemical, 
# crystal, experimental, refinement or atomic coordinate data resulting 
# from the CCDC's data processing and validation procedures.
#
#######################################################################

data_PEDZEE
_chemical_compound_source        'fruiting bodies of Daldinia concentrica'
_chemical_name_common            Concentricolide
_chemical_formula_moiety         'C12 H10 O3'
_chemical_name_systematic        
rel-(6R)-6-Ethylbenzo(2,1-b:3,4-c')difuran-8(6H)-one
_chemical_properties_biological  'in vitro activity against HIV-1'
_symmetry_cell_setting           triclinic
_symmetry_space_group_name_H-M   'P 1'
_symmetry_Int_Tables_number      1
_space_group_name_Hall           'P 1'
loop_
_symmetry_equiv_pos_site_id
_symmetry_equiv_pos_as_xyz
1 x,y,z
_cell_length_a                   7.728(1)
_cell_length_b                   8.289(1)
_cell_length_c                   9.043(1)
_cell_angle_alpha                106.450(5)
_cell_angle_beta                 96.321(6)
_cell_angle_gamma                108.946(6)
_cell_volume                     512.263
_exptl_crystal_colour            'pale yellow'
_exptl_crystal_description       needle
_chemical_melting_point          '89-90 deg.C'
_cell_formula_units_Z            2
loop_
_atom_site_label
_atom_site_type_symbol
_atom_site_fract_x
_atom_site_fract_y
_atom_site_fract_z
O1 O 0.2017(7) 0.1953(6) 0.6436(5)
C1 C 0.2501(11) 0.0760(10) 0.7110(8)
C2 C 0.1836(12) -0.0941(11) 0.6068(9)
C3 C 0.0865(11) -0.0895(10) 0.4659(9)
C4 C -0.0161(11) -0.2236(10) 0.3116(9)
C5 C -0.0964(11) -0.1711(10) 0.2004(9)
C6 C -0.0743(10) 0.0143(10) 0.2372(9)
C7 C -0.1536(11) 0.0998(11) 0.1348(9)
O2 O -0.0819(8) 0.2953(7) 0.2392(6)
C8 C 0.0175(11) 0.3194(11) 0.3854(10)
C9 C 0.0215(10) 0.1438(9) 0.3804(9)
C10 C 0.1001(9) 0.0883(9) 0.4941(8)
C11 C -0.0866(13) 0.0897(14) -0.0190(10)
C12 C -0.1658(17) 0.1847(19) -0.1108(12)
O3 O 0.0873(8) 0.4617(7) 0.4856(7)
H1 H 0.320 0.096 0.819
H2 H 0.203 -0.218 0.633
H3 H -0.018 -0.363 0.297
H4 H -0.161 -0.256 0.097
H5 H -0.299 0.090 0.121
H6 H -0.076 -0.048 -0.081
H7 H 0.052 0.146 0.009
H8 H -0.079 0.188 -0.193
H9 H -0.188 0.318 -0.047
H10 H -0.290 0.112 -0.164
O4 O 0.3373(8) 0.4728(7) -0.0474(6)
C13 C 0.2997(14) 0.5926(14) -0.1132(11)
C14 C 0.3371(12) 0.7591(9) -0.0019(9)
C15 C 0.4038(10) 0.7436(9) 0.1499(8)
C16 C 0.4616(12) 0.8578(10) 0.3045(10)
C17 C 0.5149(11) 0.7943(10) 0.4238(9)
C18 C 0.5028(10) 0.6162(11) 0.3831(8)
C19 C 0.5317(11) 0.5076(11) 0.4880(9)
O5 O 0.5063(8) 0.3331(7) 0.3779(7)
C20 C 0.4556(11) 0.3277(10) 0.2272(9)
C21 C 0.4503(10) 0.5019(10) 0.2261(9)
C22 C 0.3994(10) 0.5635(9) 0.1113(8)
C23 C 0.7280(11) 0.5906(11) 0.6001(10)
C24 C 0.7434(15) 0.4790(16) 0.7081(12)
O6 O 0.4270 0.1855 0.1125
H12 H 0.323 0.888 -0.026
H13 H 0.465 1.002 0.319
H14 H 0.556 0.876 0.535
H15 H 0.433 0.532 0.563
H16 H 0.722 0.729 0.652
H17 H 0.835 0.566 0.531
H18 H 0.655 0.517 0.792
H19 H 0.875 0.478 0.760
H11? H 0.244 0.574 -0.266
loop_
_geom_bond_atom_site_label_1
_geom_bond_atom_site_label_2
_geom_bond_site_symmetry_1
_geom_bond_site_symmetry_2
O1 C1 1_555 1_555
C1 C2 1_555 1_555
C2 C3 1_555 1_555
C3 C4 1_555 1_555
C4 C5 1_555 1_555
C5 C6 1_555 1_555
C6 C7 1_555 1_555
C7 O2 1_555 1_555
O2 C8 1_555 1_555
C8 C9 1_555 1_555
C9 C6 1_555 1_555
C10 O1 1_555 1_555
C11 C7 1_555 1_555
C12 C11 1_555 1_555
O3 C8 1_555 1_555
O4 C13 1_555 1_555
C13 C14 1_555 1_555
C14 C15 1_555 1_555
C15 C16 1_555 1_555
C16 C17 1_555 1_555
C17 C18 1_555 1_555
C18 C19 1_555 1_555
C19 O5 1_555 1_555
O5 C20 1_555 1_555
C20 C21 1_555 1_555
C21 C18 1_555 1_555
C22 O4 1_555 1_555
C23 C19 1_555 1_555
C24 C23 1_555 1_555
O6 C20 1_555 1_555
H1 C1 1_555 1_555
H2 C2 1_555 1_555
H3 C4 1_555 1_555
H4 C5 1_555 1_555
H5 C7 1_555 1_555
H6 C11 1_555 1_555
H7 C11 1_555 1_555
H8 C12 1_555 1_555
H9 C12 1_555 1_555
H10 C12 1_555 1_555
H12 C14 1_555 1_555
H13 C16 1_555 1_555
H14 C17 1_555 1_555
H15 C19 1_555 1_555
H16 C23 1_555 1_555
H17 C23 1_555 1_555
H18 C24 1_555 1_555
H19 C24 1_555 1_555
C3 C10 1_555 1_555
C9 C10 1_555 1_555
C15 C22 1_555 1_555
C21 C22 1_555 1_555

#END
