
#######################################################################
#
#                 Cambridge Crystallographic Data Centre
#                                CCDC 
#
#######################################################################
#
# If this CIF has been generated from an entry in the Cambridge 
# Structural Database, then it will include bibliographic, chemical, 
# crystal, experimental, refinement or atomic coordinate data resulting 
# from the CCDC's data processing and validation procedures.
#
#######################################################################

data_PEFBUA
_chemical_formula_moiety         'C25 H21 Br1 N2 O3 S1,0.5(C1 H2 Cl2)'
_chemical_name_systematic        
'8-bromo-4-((4-methylphenyl)sulfonyl)-1-phenyl-1,11b-dihydro-2H-pyridazino[6,1-a]isoquinolin-3(4H)-one dichloromethane solvate'
_symmetry_cell_setting           triclinic
_symmetry_space_group_name_H-M   'P -1'
_symmetry_Int_Tables_number      2
_space_group_name_Hall           '-P 1'
loop_
_symmetry_equiv_pos_site_id
_symmetry_equiv_pos_as_xyz
1 x,y,z
2 -x,-y,-z
_cell_length_a                   11.04600(10)
_cell_length_b                   11.39340(10)
_cell_length_c                   21.7544(5)
_cell_angle_alpha                100.1980(10)
_cell_angle_beta                 91.2260(10)
_cell_angle_gamma                114.5570(10)
_cell_volume                     2437.01
_exptl_crystal_colour            colorless
_exptl_crystal_description       plate
_cell_formula_units_Z            4
loop_
_atom_site_label
_atom_site_type_symbol
_atom_site_fract_x
_atom_site_fract_y
_atom_site_fract_z
Br1 Br 0.83396(7) 0.58284(6) 0.12225(3)
S1 S 0.75088(13) -0.10800(13) -0.02495(6)
O1 O 0.8119(4) -0.1910(4) -0.05150(18)
O2 O 0.7316(4) -0.0211(4) -0.05968(17)
N1 N 0.8200(4) 0.0976(4) 0.06553(18)
N2 N 0.8512(4) -0.0088(4) 0.04086(19)
C1 C 0.6015(6) 0.1725(6) 0.1732(3)
H1 H 0.5531 0.0898 0.1835
C2 C 0.5613(6) 0.2725(6) 0.1906(3)
H2 H 0.4862 0.2579 0.2130
C3 C 0.6306(6) 0.3930(6) 0.1751(3)
H3 H 0.6024 0.4605 0.1863
C4 C 0.7423(5) 0.4148(5) 0.1430(3)
C5 C 0.7860(5) 0.3159(5) 0.1247(2)
C6 C 0.7121(5) 0.1932(5) 0.1410(2)
C7 C 0.8975(5) 0.3291(5) 0.0882(2)
H4 H 0.9606 0.4133 0.0847
C8 C 0.9114(5) 0.2225(5) 0.0594(2)
H5 H 0.9828 0.2317 0.0350
C9 C 0.7615(5) 0.0868(5) 0.1253(2)
H6 H 0.6836 -0.0001 0.1196
C10 C 0.6005(5) -0.2016(5) 0.0027(2)
C11 C 0.5891(6) -0.3065(5) 0.0301(3)
H7 H 0.6622 -0.3275 0.0342
C12 C 0.4698(6) -0.3792(6) 0.0511(3)
H8 H 0.4625 -0.4492 0.0703
C13 C 0.3597(6) -0.3515(6) 0.0445(3)
C14 C 0.3747(5) -0.2446(6) 0.0184(3)
H9 H 0.3024 -0.2219 0.0154
C15 C 0.4934(5) -0.1707(6) -0.0034(3)
H10 H 0.5011 -0.1000 -0.0222
C16 C 0.2263(6) -0.4385(7) 0.0628(4)
H11 H 0.2010 -0.5292 0.0417
H12 H 0.1593 -0.4104 0.0505
H13 H 0.2326 -0.4322 0.1079
C17 C 0.9106(5) -0.0524(5) 0.0849(2)
O3 O 0.9187(4) -0.1565(4) 0.07211(19)
C18 C 0.9635(5) 0.0436(5) 0.1464(2)
H14 H 1.0432 0.1196 0.1399
H15 H 0.9920 0.0015 0.1757
C19 C 0.8649(5) 0.0948(5) 0.1779(2)
H16 H 0.9168 0.1888 0.1981
C20 C 0.7925(5) 0.0228(5) 0.2272(2)
C21 C 0.7754(6) 0.0927(6) 0.2825(2)
H17 H 0.8113 0.1852 0.2893
C22 C 0.7070(7) 0.0294(7) 0.3275(3)
H18 H 0.6969 0.0786 0.3649
C23 C 0.6528(7) -0.1063(7) 0.3180(3)
H19 H 0.6058 -0.1499 0.3488
C24 C 0.6684(7) -0.1770(7) 0.2631(3)
H20 H 0.6315 -0.2695 0.2561
C25 C 0.7380(6) -0.1127(6) 0.2183(3)
H21 H 0.7486 -0.1621 0.1811
Br2 Br 0.27516(6) 0.38142(6) 0.19274(3)
S2 S -0.24813(14) 0.45610(15) 0.41172(7)
O4 O -0.3831(4) 0.4138(5) 0.3857(2)
O5 O -0.1962(4) 0.3622(4) 0.4163(2)
N3 N -0.0387(4) 0.5268(4) 0.3444(2)
N4 N -0.1475(4) 0.5519(5) 0.3642(2)
C26 C 0.3169(5) 0.6338(5) 0.3920(3)
H22 H 0.3269 0.6850 0.4323
C27 C 0.4182(6) 0.6001(5) 0.3722(3)
H23 H 0.4964 0.6276 0.3995
C28 C 0.4065(5) 0.5272(5) 0.3133(3)
H24 H 0.4762 0.5052 0.3000
C29 C 0.2898(5) 0.4860(5) 0.2736(2)
C30 C 0.1842(5) 0.5158(5) 0.2918(2)
C31 C 0.2009(5) 0.5921(5) 0.3525(2)
C32 C 0.0570(5) 0.4678(5) 0.2541(2)
H25 H 0.0492 0.4336 0.2108
C33 C -0.0495(5) 0.4724(5) 0.2809(2)
H26 H -0.1326 0.4384 0.2565
C34 C 0.0912(5) 0.6340(5) 0.3718(2)
H27 H 0.0937 0.6491 0.4181
C35 C -0.2185(5) 0.5642(6) 0.4843(3)
C36 C -0.3175(6) 0.5987(7) 0.5058(3)
H28 H -0.4002 0.5668 0.4813
C37 C -0.2941(7) 0.6811(7) 0.5639(3)
H29 H -0.3619 0.7044 0.5789
C38 C -0.1735(7) 0.7296(6) 0.6003(3)
C39 C -0.0748(6) 0.6926(6) 0.5782(3)
H30 H 0.0076 0.7242 0.6027
C40 C -0.0968(6) 0.6105(6) 0.5208(3)
H31 H -0.0298 0.5854 0.5062
C41 C -0.1487(8) 0.8210(7) 0.6634(3)
H32 H -0.0567 0.8871 0.6698
H33 H -0.1651 0.7705 0.6963
H34 H -0.2086 0.8638 0.6646
C42 C -0.1450(6) 0.6748(6) 0.3610(3)
O6 O -0.2298(4) 0.7059(4) 0.3825(2)
C43 C -0.0295(6) 0.7575(6) 0.3294(3)
H35 H -0.0229 0.8474 0.3372
H36 H -0.0495 0.7230 0.2840
C44 C 0.1089(5) 0.7640(5) 0.3503(2)
H37 H 0.1597 0.7701 0.3131
C45 C 0.1929(6) 0.8816(5) 0.4017(2)
C46 C 0.3271(6) 0.9527(6) 0.3972(3)
H38 H 0.3652 0.9331 0.3609
C47 C 0.4054(8) 1.0534(7) 0.4467(4)
H39 H 0.4971 1.1008 0.4435
C48 C 0.3531(10) 1.0850(7) 0.4993(4)
H40 H 0.4081 1.1535 0.5324
C49 C 0.2193(10) 1.0166(7) 0.5041(3)
H41 H 0.1822 1.0390 0.5403
C50 C 0.1379(8) 0.9136(6) 0.4553(3)
H42 H 0.0464 0.8662 0.4589
C51 C 0.2419(9) 0.8512(9) 0.1727(4)
H43 H 0.2653 0.8777 0.1325
H44 H 0.1566 0.7723 0.1651
Cl1 Cl 0.3688(3) 0.8169(3) 0.20576(13)
Cl2 Cl 0.2277(3) 0.9789(3) 0.22561(11)
C52? C 0.290(4) 0.905(5) 0.189(4)
H45? H 0.3485 0.9831 0.2204
H46? H 0.3092 0.9205 0.1466
Cl3? Cl 0.119(3) 0.855(3) 0.1996(15)
Cl4? Cl 0.296(3) 0.758(3) 0.2018(12)
loop_
_geom_bond_atom_site_label_1
_geom_bond_atom_site_label_2
_geom_bond_site_symmetry_1
_geom_bond_site_symmetry_2
Br1 C4 1_555 1_555
S1 O1 1_555 1_555
O2 S1 1_555 1_555
N1 N2 1_555 1_555
N2 S1 1_555 1_555
C1 H1 1_555 1_555
C2 C1 1_555 1_555
H2 C2 1_555 1_555
C3 C2 1_555 1_555
H3 C3 1_555 1_555
C4 C3 1_555 1_555
C5 C4 1_555 1_555
C6 C1 1_555 1_555
C7 C5 1_555 1_555
H4 C7 1_555 1_555
C8 N1 1_555 1_555
H5 C8 1_555 1_555
C9 N1 1_555 1_555
H6 C9 1_555 1_555
C10 S1 1_555 1_555
C11 C10 1_555 1_555
H7 C11 1_555 1_555
C12 C11 1_555 1_555
H8 C12 1_555 1_555
C13 C12 1_555 1_555
C14 C13 1_555 1_555
H9 C14 1_555 1_555
C15 C10 1_555 1_555
H10 C15 1_555 1_555
C16 C13 1_555 1_555
H11 C16 1_555 1_555
H12 C16 1_555 1_555
H13 C16 1_555 1_555
C17 N2 1_555 1_555
O3 C17 1_555 1_555
C18 C17 1_555 1_555
H14 C18 1_555 1_555
H15 C18 1_555 1_555
C19 C9 1_555 1_555
H16 C19 1_555 1_555
C20 C19 1_555 1_555
C21 C20 1_555 1_555
H17 C21 1_555 1_555
C22 C21 1_555 1_555
H18 C22 1_555 1_555
C23 C22 1_555 1_555
H19 C23 1_555 1_555
C24 C23 1_555 1_555
H20 C24 1_555 1_555
C25 C20 1_555 1_555
H21 C25 1_555 1_555
Br2 C29 1_555 1_555
S2 O4 1_555 1_555
O5 S2 1_555 1_555
N3 N4 1_555 1_555
N4 S2 1_555 1_555
C26 H22 1_555 1_555
C27 C26 1_555 1_555
H23 C27 1_555 1_555
C28 C27 1_555 1_555
H24 C28 1_555 1_555
C29 C28 1_555 1_555
C30 C29 1_555 1_555
C31 C26 1_555 1_555
C32 C30 1_555 1_555
H25 C32 1_555 1_555
C33 N3 1_555 1_555
H26 C33 1_555 1_555
C34 N3 1_555 1_555
H27 C34 1_555 1_555
C35 S2 1_555 1_555
C36 C35 1_555 1_555
H28 C36 1_555 1_555
C37 C36 1_555 1_555
H29 C37 1_555 1_555
C38 C37 1_555 1_555
C39 C38 1_555 1_555
H30 C39 1_555 1_555
C40 C35 1_555 1_555
H31 C40 1_555 1_555
C41 C38 1_555 1_555
H32 C41 1_555 1_555
H33 C41 1_555 1_555
H34 C41 1_555 1_555
C42 N4 1_555 1_555
O6 C42 1_555 1_555
C43 C42 1_555 1_555
H35 C43 1_555 1_555
H36 C43 1_555 1_555
C44 C34 1_555 1_555
H37 C44 1_555 1_555
C45 C44 1_555 1_555
C46 C45 1_555 1_555
H38 C46 1_555 1_555
C47 C46 1_555 1_555
H39 C47 1_555 1_555
C48 C47 1_555 1_555
H40 C48 1_555 1_555
C49 C48 1_555 1_555
H41 C49 1_555 1_555
C50 C45 1_555 1_555
H42 C50 1_555 1_555
C51 H43 1_555 1_555
H44 C51 1_555 1_555
Cl1 C51 1_555 1_555
Cl2 C51 1_555 1_555
C5 C6 1_555 1_555
C6 C9 1_555 1_555
C7 C8 1_555 1_555
C14 C15 1_555 1_555
C18 C19 1_555 1_555
C24 C25 1_555 1_555
C30 C31 1_555 1_555
C31 C34 1_555 1_555
C32 C33 1_555 1_555
C39 C40 1_555 1_555
C43 C44 1_555 1_555
C49 C50 1_555 1_555

#END
