
#######################################################################
#
#                 Cambridge Crystallographic Data Centre
#                                CCDC 
#
#######################################################################
#
# If this CIF has been generated from an entry in the Cambridge 
# Structural Database, then it will include bibliographic, chemical, 
# crystal, experimental, refinement or atomic coordinate data resulting 
# from the CCDC's data processing and validation procedures.
#
#######################################################################

data_PEFGUF
_chemical_formula_moiety         'C13 H19 N3 O6'
_chemical_name_systematic        
'diethyl 1-((2-ethoxy-2-oxoethylidene)amino)-4,5-dihydro-1H-imidazole-4,5-dicarboxylate'
_symmetry_cell_setting           orthorhombic
_symmetry_space_group_name_H-M   'P 21 21 21'
_symmetry_Int_Tables_number      19
_space_group_name_Hall           'P 2ac 2ab'
loop_
_symmetry_equiv_pos_site_id
_symmetry_equiv_pos_as_xyz
1 x,y,z
2 1/2-x,-y,1/2+z
3 -x,1/2+y,1/2-z
4 1/2+x,1/2-y,-z
_cell_length_a                   9.3811(9)
_cell_length_b                   11.2139(9)
_cell_length_c                   15.2735(15)
_cell_angle_alpha                90
_cell_angle_beta                 90
_cell_angle_gamma                90
_cell_volume                     1606.75
_cell_formula_units_Z            4
loop_
_atom_site_label
_atom_site_type_symbol
_atom_site_fract_x
_atom_site_fract_y
_atom_site_fract_z
O1 O 0.08696(16) 0.14749(13) 0.10347(9)
N1 N 0.1262(2) -0.03363(15) 0.29652(11)
C1 C -0.2037(2) -0.0201(2) 0.20341(15)
C2 C -0.0488(2) -0.05544(18) 0.19113(14)
O2 O 0.28433(19) 0.08402(19) 0.17075(12)
C3 C 0.0539(2) 0.03821(18) 0.23090(13)
O3 O -0.28915(18) -0.11035(14) 0.21404(13)
O4 O -0.2422(2) 0.08125(17) 0.20227(17)
N2 N 0.1974(2) 0.00329(16) 0.36828(12)
C4 C 0.1575(2) 0.09124(19) 0.16585(13)
N3 N -0.0123(2) -0.17073(15) 0.23134(12)
C5 C 0.0808(2) -0.14947(18) 0.28917(14)
H1 H 0.1167 -0.2095 0.3250
O5 O 0.2604(2) 0.26820(15) 0.47475(10)
C6 C 0.2127(3) 0.1159(2) 0.38005(14)
H2 H 0.1784 0.1709 0.3397
C7 C 0.1716(3) 0.2024(2) 0.03454(16)
H3 H 0.2367 0.1444 0.0096
H4 H 0.2270 0.2679 0.0581
C8 C 0.2873(3) 0.1543(2) 0.46069(16)
C9 C 0.0730(4) 0.2462(4) -0.03295(18)
H5 H 0.0157 0.1813 -0.0540
H6 H 0.1265 0.2795 -0.0807
H7 H 0.0124 0.3065 -0.0083
O6 O 0.3629(3) 0.09405(19) 0.50532(16)
C10 C -0.4415(3) -0.0849(3) 0.2225(3)
H8 H -0.4610 -0.0511 0.2797
H9 H -0.4702 -0.0275 0.1784
C11 C 0.3273(5) 0.3237(3) 0.55007(19)
H10 H 0.2958 0.2852 0.6035
H11 H 0.4301 0.3164 0.5462
C12 C -0.5203(3) -0.1940(4) 0.2115(3)
H12 H -0.5128 -0.2202 0.1518
H13 H -0.6187 -0.1805 0.2257
H14 H -0.4820 -0.2541 0.2496
C13 C 0.2867(7) 0.4477(3) 0.5505(3)
H15 H 0.3158 0.4844 0.4966
H16 H 0.3321 0.4874 0.5988
H17 H 0.1851 0.4540 0.5566
H18 H -0.001(2) 0.100(2) 0.2532(14)
H19 H -0.037(2) -0.0587(18) 0.1320(14)
loop_
_geom_bond_atom_site_label_1
_geom_bond_atom_site_label_2
_geom_bond_site_symmetry_1
_geom_bond_site_symmetry_2
O1 C4 1_555 1_555
N1 C3 1_555 1_555
C1 C2 1_555 1_555
C2 C3 1_555 1_555
O2 C4 1_555 1_555
C3 C4 1_555 1_555
O3 C1 1_555 1_555
O4 C1 1_555 1_555
N2 N1 1_555 1_555
N3 C2 1_555 1_555
C5 N1 1_555 1_555
H1 C5 1_555 1_555
O5 C8 1_555 1_555
C6 N2 1_555 1_555
H2 C6 1_555 1_555
C7 O1 1_555 1_555
H3 C7 1_555 1_555
H4 C7 1_555 1_555
C8 C6 1_555 1_555
C9 C7 1_555 1_555
H5 C9 1_555 1_555
H6 C9 1_555 1_555
H7 C9 1_555 1_555
O6 C8 1_555 1_555
C10 O3 1_555 1_555
H8 C10 1_555 1_555
H9 C10 1_555 1_555
C11 O5 1_555 1_555
H10 C11 1_555 1_555
H11 C11 1_555 1_555
C12 C10 1_555 1_555
H12 C12 1_555 1_555
H13 C12 1_555 1_555
H14 C12 1_555 1_555
C13 C11 1_555 1_555
H15 C13 1_555 1_555
H16 C13 1_555 1_555
H17 C13 1_555 1_555
H18 C3 1_555 1_555
H19 C2 1_555 1_555
N3 C5 1_555 1_555

#END
