
#######################################################################
#
#                 Cambridge Crystallographic Data Centre
#                                CCDC 
#
#######################################################################
#
# If this CIF has been generated from an entry in the Cambridge 
# Structural Database, then it will include bibliographic, chemical, 
# crystal, experimental, refinement or atomic coordinate data resulting 
# from the CCDC's data processing and validation procedures.
#
#######################################################################

data_PEFHOZ
_chemical_formula_moiety         'C28 H32 B2 O4,C7 H8'
_chemical_name_systematic        
'Pyrene-2,7-bis(4,4,5,5-tetramethyl-[1,3,2]dioxaborolane) toluene solvate'
_symmetry_cell_setting           triclinic
_symmetry_space_group_name_H-M   'P -1'
_symmetry_Int_Tables_number      2
_space_group_name_Hall           '-P 1'
loop_
_symmetry_equiv_pos_site_id
_symmetry_equiv_pos_as_xyz
1 x,y,z
2 -x,-y,-z
_cell_length_a                   7.2546(5)
_cell_length_b                   9.8024(6)
_cell_length_c                   11.9441(8)
_cell_angle_alpha                107.848(15)
_cell_angle_beta                 100.289(14)
_cell_angle_gamma                101.533(15)
_cell_volume                     765.52
_exptl_crystal_colour            colorless
_exptl_crystal_description       plate
_cell_formula_units_Z            1
loop_
_atom_site_label
_atom_site_type_symbol
_atom_site_fract_x
_atom_site_fract_y
_atom_site_fract_z
O1 O 1.16954(17) 0.79718(14) 0.94498(10)
O2 O 0.92298(16) 0.70119(13) 1.01767(10)
C1 C 0.8991(2) 0.65228(17) 0.68517(14)
H1 H 1.0343 0.6937 0.6928
C2 C 0.8367(2) 0.65456(18) 0.79006(14)
C3 C 0.6392(2) 0.59635(18) 0.77752(14)
H2 H 0.5954 0.5983 0.8491
C4 C 0.2992(2) 0.47617(19) 0.65081(14)
H3 H 0.2532 0.4796 0.7219
C5 C 0.1704(2) 0.41531(19) 0.54020(14)
H4 H 0.0369 0.3769 0.5352
C6 C 0.5026(2) 0.53529(17) 0.66461(14)
C7 C 0.5686(2) 0.53156(16) 0.55839(13)
C8 C 0.7686(2) 0.59109(17) 0.56924(14)
C9 C 1.2589(3) 0.8206(2) 1.07223(15)
C10 C 1.0783(2) 0.79841(19) 1.12548(14)
C11 C 1.3660(3) 0.7023(3) 1.06900(18)
H5 H 1.4623 0.7124 1.0242
H6 H 1.2751 0.6054 1.0301
H7 H 1.4286 0.7138 1.1506
C12 C 1.3985(3) 0.9750(3) 1.13105(18)
H8 H 1.5107 0.9784 1.0987
H9 H 1.4385 0.9986 1.2174
H10 H 1.3344 1.0461 1.1145
C13 C 1.0928(3) 0.7229(2) 1.21792(16)
H11 H 0.9775 0.7160 1.2471
H12 H 1.2046 0.7798 1.2848
H13 H 1.1059 0.6247 1.1807
C14 C 1.0165(3) 0.9393(2) 1.17363(17)
H14 H 0.8939 0.9150 1.1929
H15 H 1.0030 0.9846 1.1129
H16 H 1.1128 1.0076 1.2457
B1 B 0.9807(3) 0.7187(2) 0.91862(17)
O1A O -0.16954(17) 0.20282(14) 0.05502(10)
O2A O 0.07702(16) 0.29881(13) -0.01767(10)
C1A C 0.1009(2) 0.34772(17) 0.31483(14)
H1A H -0.0343 0.3063 0.3072
C2A C 0.1633(2) 0.34544(18) 0.20994(14)
C3A C 0.3608(2) 0.40365(18) 0.22248(14)
H2A H 0.4046 0.4017 0.1509
C4A C 0.7008(2) 0.52383(19) 0.34919(14)
H3A H 0.7468 0.5204 0.2781
C5A C 0.8296(2) 0.58469(19) 0.45980(14)
H4A H 0.9631 0.6231 0.4648
C6A C 0.4974(2) 0.46471(17) 0.33539(14)
C7A C 0.4314(2) 0.46844(16) 0.44161(13)
C8A C 0.2314(2) 0.40891(17) 0.43076(14)
C9A C -0.2589(3) 0.1794(2) -0.07223(15)
C10A C -0.0783(2) 0.20159(19) -0.12548(14)
C11A C -0.3660(3) 0.2977(3) -0.06900(18)
H5A H -0.4623 0.2876 -0.0242
H6A H -0.2751 0.3946 -0.0301
H7A H -0.4286 0.2862 -0.1506
C12A C -0.3985(3) 0.0250(3) -0.13105(18)
H8A H -0.5107 0.0216 -0.0987
H9A H -0.4385 0.0014 -0.2174
H10A H -0.3344 -0.0461 -0.1145
C13A C -0.0928(3) 0.2771(2) -0.21792(16)
H11A H 0.0225 0.2840 -0.2471
H12A H -0.2046 0.2202 -0.2848
H13A H -0.1059 0.3753 -0.1807
C14A C -0.0165(3) 0.0607(2) -0.17363(17)
H14A H 0.1061 0.0850 -0.1929
H15A H -0.0030 0.0154 -0.1129
H16A H -0.1128 -0.0076 -0.2457
B1A B 0.0193(3) 0.2813(2) 0.08138(17)
C15? C 0.4310(4) -0.0039(3) 0.5194(3)
C16? C 0.5476(4) -0.1009(2) 0.4997(3)
H17? H 0.5158 -0.1918 0.5156
C17? C 0.7103(4) -0.0663(3) 0.4568(3)
H18? H 0.7909 -0.1334 0.4432
C18? C 0.7564(3) 0.0653(3) 0.4337(3)
H19? H 0.8688 0.0892 0.4041
C19? C 0.6398(4) 0.1624(2) 0.4534(2)
H20? H 0.6716 0.2533 0.4374
C20? C 0.4771(3) 0.1278(3) 0.4962(2)
H21? H 0.3965 0.1948 0.5098
C21? C 0.2523(8) -0.0368(8) 0.5627(5)
H22? H 0.1937 0.0440 0.5701
H23? H 0.1621 -0.1272 0.5049
H24? H 0.2856 -0.0476 0.6404
loop_
_geom_bond_atom_site_label_1
_geom_bond_atom_site_label_2
_geom_bond_site_symmetry_1
_geom_bond_site_symmetry_2
O1 C9 1_555 1_555
O2 C10 1_555 1_555
C1 H1 1_555 1_555
C2 C1 1_555 1_555
C3 C2 1_555 1_555
H2 C3 1_555 1_555
C4 H3 1_555 1_555
C5 C4 1_555 1_555
H4 C5 1_555 1_555
C6 C3 1_555 1_555
C7 C6 1_555 1_555
C8 C1 1_555 1_555
C9 C10 1_555 1_555
C10 C13 1_555 1_555
C11 C9 1_555 1_555
H5 C11 1_555 1_555
H6 C11 1_555 1_555
H7 C11 1_555 1_555
C12 C9 1_555 1_555
H8 C12 1_555 1_555
H9 C12 1_555 1_555
H10 C12 1_555 1_555
C13 H11 1_555 1_555
H12 C13 1_555 1_555
H13 C13 1_555 1_555
C14 C10 1_555 1_555
H14 C14 1_555 1_555
H15 C14 1_555 1_555
H16 C14 1_555 1_555
B1 O1 1_555 1_555
O1A C9A 1_555 1_555
O2A C10A 1_555 1_555
C1A H1A 1_555 1_555
C2A C1A 1_555 1_555
C3A C2A 1_555 1_555
H2A C3A 1_555 1_555
C4A H3A 1_555 1_555
C5A C8 1_555 1_555
H4A C5A 1_555 1_555
C6A C3A 1_555 1_555
C7A C7 1_555 1_555
C8A C5 1_555 1_555
C9A C10A 1_555 1_555
C10A C13A 1_555 1_555
C11A C9A 1_555 1_555
H5A C11A 1_555 1_555
H6A C11A 1_555 1_555
H7A C11A 1_555 1_555
C12A C9A 1_555 1_555
H8A C12A 1_555 1_555
H9A C12A 1_555 1_555
H10A C12A 1_555 1_555
C13A H11A 1_555 1_555
H12A C13A 1_555 1_555
H13A C13A 1_555 1_555
C14A C10A 1_555 1_555
H14A C14A 1_555 1_555
H15A C14A 1_555 1_555
H16A C14A 1_555 1_555
B1A O1A 1_555 1_555
O2 B1 1_555 1_555
C2 B1 1_555 1_555
C4 C6 1_555 1_555
C7 C8 1_555 1_555
O2A B1A 1_555 1_555
C1A C8A 1_555 1_555
C2A B1A 1_555 1_555
C4A C5A 1_555 1_555
C4A C6A 1_555 1_555
C6A C7A 1_555 1_555
C7A C8A 1_555 1_555

#END
