
#######################################################################
#
#                 Cambridge Crystallographic Data Centre
#                                CCDC 
#
#######################################################################
#
# If this CIF has been generated from an entry in the Cambridge 
# Structural Database, then it will include bibliographic, chemical, 
# crystal, experimental, refinement or atomic coordinate data resulting 
# from the CCDC's data processing and validation procedures.
#
#######################################################################

data_PEFJOB
_chemical_formula_moiety         'C22 H21 B1 O2,C6 F6'
_chemical_name_systematic        
'4,4,5,5-Tetramethyl-2-(pyren-2-yl)-[1,3,2]dioxaborolane hexafluorobenzene'
_symmetry_cell_setting           tetragonal
_symmetry_space_group_name_H-M   'P 42/n'
_symmetry_Int_Tables_number      86
_space_group_name_Hall           '-P 4bc'
loop_
_symmetry_equiv_pos_site_id
_symmetry_equiv_pos_as_xyz
1 x,y,z
2 1/2-x,1/2-y,z
3 -y,1/2+x,1/2+z
4 1/2+y,-x,1/2+z
5 -x,-y,-z
6 1/2+x,1/2+y,-z
7 y,1/2-x,1/2-z
8 1/2-y,x,1/2-z
_cell_length_a                   26.5783(19)
_cell_length_b                   26.5783(19)
_cell_length_c                   6.7405(10)
_cell_angle_alpha                90
_cell_angle_beta                 90
_cell_angle_gamma                90
_cell_volume                     4761.53
_exptl_crystal_colour            colorless
_exptl_crystal_description       needle
_cell_formula_units_Z            8
loop_
_atom_site_label
_atom_site_type_symbol
_atom_site_fract_x
_atom_site_fract_y
_atom_site_fract_z
O1 O 0.33280(9) 0.63746(8) 0.1350(4)
O2 O 0.41738(9) 0.62216(9) 0.1374(4)
C1 C 0.31312(13) 0.52452(13) 0.0840(5)
H1 H 0.2849 0.5464 0.0823
C2 C 0.36108(13) 0.54489(13) 0.1064(5)
C3 C 0.40235(14) 0.51243(14) 0.1096(5)
H2 H 0.4352 0.5261 0.1233
C4 C 0.43897(17) 0.42660(17) 0.0978(5)
H3 H 0.4720 0.4394 0.1158
C5 C 0.4314(2) 0.37583(19) 0.0762(6)
H4 H 0.4597 0.3539 0.0800
C6 C 0.3759(3) 0.3033(2) 0.0227(8)
H5 H 0.4041 0.2813 0.0223
C7 C 0.3279(4) 0.2843(2) -0.0015(9)
H6 H 0.3236 0.2490 -0.0168
C8 C 0.2861(3) 0.31523(18) -0.0042(8)
H7 H 0.2536 0.3011 -0.0209
C9 C 0.25026(19) 0.40096(16) 0.0164(6)
H8 H 0.2173 0.3879 -0.0003
C10 C 0.25619(16) 0.45115(15) 0.0381(6)
H9 H 0.2275 0.4725 0.0363
C11 C 0.30533(15) 0.47260(13) 0.0641(5)
C12 C 0.34756(17) 0.44025(14) 0.0680(5)
C13 C 0.39654(16) 0.46041(15) 0.0931(5)
C14 C 0.3403(2) 0.38725(14) 0.0453(6)
C15 C 0.2915(2) 0.36709(16) 0.0176(7)
C16 C 0.3826(2) 0.35495(17) 0.0480(6)
C17 C 0.3596(3) 0.6862(4) 0.1801(14)
C18 C 0.4147(3) 0.6771(3) 0.1202(12)
C19 C 0.3344(4) 0.7277(3) 0.0606(18)
H10 H 0.2985 0.7286 0.0932
H11 H 0.3386 0.7210 -0.0814
H12 H 0.3498 0.7602 0.0934
C20 C 0.3499(3) 0.6931(4) 0.3969(12)
H13 H 0.3661 0.6661 0.4726
H14 H 0.3135 0.6923 0.4200
H15 H 0.3634 0.7256 0.4398
C21 C 0.4280(4) 0.6889(4) -0.0935(12)
H16 H 0.4009 0.6775 -0.1816
H17 H 0.4593 0.6715 -0.1281
H18 H 0.4326 0.7253 -0.1087
C22 C 0.4532(4) 0.6998(4) 0.2591(16)
H19 H 0.4870 0.6908 0.2126
H20 H 0.4482 0.6867 0.3937
H21 H 0.4496 0.7364 0.2600
B1 B 0.37005(16) 0.60230(16) 0.1255(6)
F1 F 0.43662(9) 0.37496(9) 0.5863(3)
F2 F 0.33554(9) 0.37782(9) 0.5317(3)
F3 F 0.28637(8) 0.46703(8) 0.5392(3)
F4 F 0.33755(8) 0.55394(8) 0.5986(3)
F5 F 0.43818(9) 0.55125(9) 0.6594(4)
F6 F 0.48783(9) 0.46180(9) 0.6549(4)
C23 C 0.41245(17) 0.41941(16) 0.5898(6)
C24 C 0.36137(17) 0.42074(15) 0.5625(6)
C25 C 0.33645(15) 0.46588(16) 0.5671(5)
C26 C 0.36214(16) 0.51009(15) 0.5972(5)
C27 C 0.41322(16) 0.50820(16) 0.6256(6)
C28 C 0.43818(16) 0.46314(17) 0.6223(6)
C29? C 0.3548(3) 0.6861(4) 0.1323(15)
C30? C 0.4097(3) 0.6734(3) 0.2059(16)
C31? C 0.3512(4) 0.7023(3) -0.0792(14)
C32? C 0.3276(4) 0.7225(3) 0.2704(17)
C33? C 0.4503(4) 0.7064(4) 0.1145(19)
C34? C 0.4174(4) 0.6709(3) 0.4284(13)
H22? H 0.3158 0.7040 -0.1201
H23? H 0.3691 0.6780 -0.1630
H24? H 0.3667 0.7355 -0.0933
H25? H 0.2942 0.7308 0.2177
H26? H 0.3475 0.7534 0.2835
H27? H 0.3239 0.7066 0.4008
H28? H 0.4835 0.6962 0.1633
H29? H 0.4440 0.7416 0.1503
H30? H 0.4492 0.7028 -0.0301
H31? H 0.4486 0.6527 0.4585
H32? H 0.3889 0.6532 0.4887
H33? H 0.4195 0.7051 0.4820
loop_
_geom_bond_atom_site_label_1
_geom_bond_atom_site_label_2
_geom_bond_site_symmetry_1
_geom_bond_site_symmetry_2
O1 C17 1_555 1_555
O2 C18 1_555 1_555
C1 H1 1_555 1_555
C2 C1 1_555 1_555
C3 C2 1_555 1_555
H2 C3 1_555 1_555
C4 H3 1_555 1_555
C5 C4 1_555 1_555
H4 C5 1_555 1_555
C6 H5 1_555 1_555
C7 C6 1_555 1_555
H6 C7 1_555 1_555
C8 C7 1_555 1_555
H7 C8 1_555 1_555
C9 H8 1_555 1_555
C10 C9 1_555 1_555
H9 C10 1_555 1_555
C11 C1 1_555 1_555
C12 C11 1_555 1_555
C13 C3 1_555 1_555
C14 C12 1_555 1_555
C15 C8 1_555 1_555
C16 C5 1_555 1_555
C17 C18 1_555 1_555
C18 C21 1_555 1_555
C19 C17 1_555 1_555
H10 C19 1_555 1_555
H11 C19 1_555 1_555
H12 C19 1_555 1_555
C20 C17 1_555 1_555
H13 C20 1_555 1_555
H14 C20 1_555 1_555
H15 C20 1_555 1_555
C21 H16 1_555 1_555
H17 C21 1_555 1_555
H18 C21 1_555 1_555
C22 C18 1_555 1_555
H19 C22 1_555 1_555
H20 C22 1_555 1_555
H21 C22 1_555 1_555
B1 O1 1_555 1_555
F1 C23 1_555 1_555
F2 C24 1_555 1_555
F3 C25 1_555 1_555
F4 C26 1_555 1_555
F5 C27 1_555 1_555
F6 C28 1_555 1_555
C23 C24 1_555 1_555
C24 C25 1_555 1_555
C25 C26 1_555 1_555
C26 C27 1_555 1_555
C27 C28 1_555 1_555
C28 C23 1_555 1_555
O2 B1 1_555 1_555
C2 B1 1_555 1_555
C4 C13 1_555 1_555
C6 C16 1_555 1_555
C9 C15 1_555 1_555
C10 C11 1_555 1_555
C12 C13 1_555 1_555
C14 C15 1_555 1_555
C14 C16 1_555 1_555

#END
