
#######################################################################
#
#                 Cambridge Crystallographic Data Centre
#                                CCDC 
#
#######################################################################
#
# If this CIF has been generated from an entry in the Cambridge 
# Structural Database, then it will include bibliographic, chemical, 
# crystal, experimental, refinement or atomic coordinate data resulting 
# from the CCDC's data processing and validation procedures.
#
#######################################################################

data_PEFJAN
_chemical_formula_moiety         'C28 H32 B2 O4,2(C6 F6)'
_chemical_name_systematic        
'Pyrene-2,7-bis(4,4,5,5-tetramethyl-[1,3,2]dioxaborolane) bis(hexafluorobenzene)'
_symmetry_cell_setting           triclinic
_symmetry_space_group_name_H-M   'P -1'
_symmetry_Int_Tables_number      2
_space_group_name_Hall           '-P 1'
loop_
_symmetry_equiv_pos_site_id
_symmetry_equiv_pos_as_xyz
1 x,y,z
2 -x,-y,-z
_cell_length_a                   6.9162(3)
_cell_length_b                   11.7567(5)
_cell_length_c                   11.8539(5)
_cell_angle_alpha                76.707(6)
_cell_angle_beta                 80.150(6)
_cell_angle_gamma                81.976(7)
_cell_volume                     919.143
_exptl_crystal_colour            colorless
_exptl_crystal_description       'irregular plate'
_cell_formula_units_Z            1
loop_
_atom_site_label
_atom_site_type_symbol
_atom_site_fract_x
_atom_site_fract_y
_atom_site_fract_z
F1 F 0.40843(13) 0.32161(6) 0.08975(7)
F2 F 0.74563(13) 0.23362(8) 0.18153(7)
F3 F 0.83986(12) -0.00218(9) 0.23980(8)
F4 F 0.59927(14) -0.15039(7) 0.20336(8)
F5 F 0.26379(13) -0.06244(8) 0.11064(7)
F6 F 0.16747(12) 0.17298(8) 0.05398(7)
C1 C 0.45627(18) 0.20574(10) 0.11662(10)
C2 C 0.62752(18) 0.16139(11) 0.16398(10)
C3 C 0.67464(17) 0.04122(11) 0.19362(10)
C4 C 0.55254(18) -0.03388(10) 0.17554(10)
C5 C 0.38210(18) 0.01046(11) 0.12833(10)
C6 C 0.33367(17) 0.13069(11) 0.09887(9)
O1 O -0.04342(11) 0.40125(6) 0.28434(7)
O2 O 0.20331(11) 0.49499(6) 0.31768(7)
C7 C 0.17658(14) 0.16295(8) 0.37636(8)
H1 H 0.062(2) 0.1653(13) 0.3429(13)
C8 C 0.24425(14) 0.27004(8) 0.37626(8)
C9 C 0.41616(15) 0.26752(8) 0.42459(9)
H2 H 0.466(2) 0.3412(13) 0.4252(13)
C10 C 0.69341(15) 0.15905(8) 0.52679(9)
H3 H 0.740(2) 0.2369(13) 0.5244(13)
C11 C 0.79016(14) 0.05584(8) 0.57566(9)
H4 H 0.909(2) 0.0522(13) 0.6120(13)
C12 C 0.51887(13) 0.16224(8) 0.47485(8)
C13 C 0.44859(13) 0.05420(8) 0.47478(8)
C14 C 0.27611(13) 0.05502(8) 0.42386(8)
C15 C -0.11428(15) 0.52630(8) 0.26149(9)
C16 C 0.07925(15) 0.58609(8) 0.24840(9)
C17 C -0.21588(19) 0.55448(11) 0.15333(12)
H5 H -0.261(2) 0.6380(15) 0.1323(14)
H6 H -0.338(2) 0.5123(15) 0.1695(14)
H7 H -0.130(3) 0.5320(16) 0.0871(16)
C18 C -0.26160(18) 0.54752(10) 0.36749(11)
H8 H -0.204(2) 0.5248(14) 0.4401(14)
H9 H -0.319(2) 0.6311(15) 0.3573(14)
H10 H -0.375(2) 0.4975(15) 0.3770(14)
C19 C 0.18910(19) 0.60939(12) 0.12398(11)
H11 H 0.316(3) 0.6308(16) 0.1279(15)
H12 H 0.207(2) 0.5385(15) 0.0908(14)
H13 H 0.115(2) 0.6733(15) 0.0725(15)
C20 C 0.05522(19) 0.69591(10) 0.29806(12)
H14 H -0.002(2) 0.6798(15) 0.3859(15)
H15 H 0.184(2) 0.7251(14) 0.2871(14)
H16 H -0.029(3) 0.7565(16) 0.2558(15)
B1 B 0.13274(17) 0.39004(10) 0.32462(10)
O1A O 1.04342(11) -0.40125(6) 0.71566(7)
O2A O 0.79669(11) -0.49499(6) 0.68232(7)
C7A C 0.82342(14) -0.16295(8) 0.62364(8)
H1A H 0.938(2) -0.1653(13) 0.6571(13)
C8A C 0.75575(14) -0.27004(8) 0.62374(8)
C9A C 0.58384(15) -0.26752(8) 0.57541(9)
H2A H 0.534(2) -0.3412(13) 0.5748(13)
C10A C 0.30659(15) -0.15905(8) 0.47321(9)
H3A H 0.260(2) -0.2369(13) 0.4756(13)
C11A C 0.20984(14) -0.05584(8) 0.42434(9)
H4A H 0.091(2) -0.0522(13) 0.3880(13)
C12A C 0.48113(13) -0.16224(8) 0.52515(8)
C13A C 0.55141(13) -0.05420(8) 0.52522(8)
C14A C 0.72389(13) -0.05502(8) 0.57614(8)
C15A C 1.11428(15) -0.52630(8) 0.73851(9)
C16A C 0.92075(15) -0.58609(8) 0.75160(9)
C17A C 1.21588(19) -0.55448(11) 0.84667(12)
H5A H 1.261(2) -0.6380(15) 0.8677(14)
H6A H 1.338(2) -0.5123(15) 0.8305(14)
H7A H 1.130(3) -0.5320(16) 0.9129(16)
C18A C 1.26160(18) -0.54752(10) 0.63251(11)
H8A H 1.204(2) -0.5248(14) 0.5599(14)
H9A H 1.319(2) -0.6311(15) 0.6427(14)
H10A H 1.375(2) -0.4975(15) 0.6230(14)
C19A C 0.81090(19) -0.60939(12) 0.87602(11)
H11A H 0.684(3) -0.6308(16) 0.8721(15)
H12A H 0.793(2) -0.5385(15) 0.9092(14)
H13A H 0.885(2) -0.6733(15) 0.9275(15)
C20A C 0.94478(19) -0.69591(10) 0.70194(12)
H14A H 1.002(2) -0.6798(15) 0.6141(15)
H15A H 0.816(2) -0.7251(14) 0.7129(14)
H16A H 1.029(3) -0.7565(16) 0.7442(15)
B1A B 0.86726(17) -0.39004(10) 0.67538(10)
loop_
_geom_bond_atom_site_label_1
_geom_bond_atom_site_label_2
_geom_bond_site_symmetry_1
_geom_bond_site_symmetry_2
F1 C1 1_555 1_555
F2 C2 1_555 1_555
F3 C3 1_555 1_555
F4 C4 1_555 1_555
F5 C5 1_555 1_555
F6 C6 1_555 1_555
C1 C2 1_555 1_555
C2 C3 1_555 1_555
C3 C4 1_555 1_555
C4 C5 1_555 1_555
C5 C6 1_555 1_555
C6 C1 1_555 1_555
O1 C15 1_555 1_555
O2 C16 1_555 1_555
C7 H1 1_555 1_555
C8 C7 1_555 1_555
C9 C8 1_555 1_555
H2 C9 1_555 1_555
C10 H3 1_555 1_555
C11 C10 1_555 1_555
H4 C11 1_555 1_555
C12 C9 1_555 1_555
C13 C12 1_555 1_555
C14 C7 1_555 1_555
C15 C16 1_555 1_555
C16 C19 1_555 1_555
C17 C15 1_555 1_555
H5 C17 1_555 1_555
H6 C17 1_555 1_555
H7 C17 1_555 1_555
C18 C15 1_555 1_555
H8 C18 1_555 1_555
H9 C18 1_555 1_555
H10 C18 1_555 1_555
C19 H11 1_555 1_555
H12 C19 1_555 1_555
H13 C19 1_555 1_555
C20 C16 1_555 1_555
H14 C20 1_555 1_555
H15 C20 1_555 1_555
H16 C20 1_555 1_555
B1 O1 1_555 1_555
O1A C15A 1_555 1_555
O2A C16A 1_555 1_555
C7A H1A 1_555 1_555
C8A C7A 1_555 1_555
C9A C8A 1_555 1_555
H2A C9A 1_555 1_555
C10A H3A 1_555 1_555
C11A C14 1_555 1_555
H4A C11A 1_555 1_555
C12A C9A 1_555 1_555
C13A C13 1_555 1_555
C14A C11 1_555 1_555
C15A C16A 1_555 1_555
C16A C19A 1_555 1_555
C17A C15A 1_555 1_555
H5A C17A 1_555 1_555
H6A C17A 1_555 1_555
H7A C17A 1_555 1_555
C18A C15A 1_555 1_555
H8A C18A 1_555 1_555
H9A C18A 1_555 1_555
H10A C18A 1_555 1_555
C19A H11A 1_555 1_555
H12A C19A 1_555 1_555
H13A C19A 1_555 1_555
C20A C16A 1_555 1_555
H14A C20A 1_555 1_555
H15A C20A 1_555 1_555
H16A C20A 1_555 1_555
B1A O1A 1_555 1_555
O2 B1 1_555 1_555
C8 B1 1_555 1_555
C10 C12 1_555 1_555
C13 C14 1_555 1_555
O2A B1A 1_555 1_555
C7A C14A 1_555 1_555
C8A B1A 1_555 1_555
C10A C11A 1_555 1_555
C10A C12A 1_555 1_555
C12A C13A 1_555 1_555
C13A C14A 1_555 1_555

#END
